Mass spectrum: Acifluorfen; ESI-QTOF; MS2; CE: 10; [M-H]-
Name: Acifluorfen
Formula: C14H7ClF3NO5
Exact mass: 360.99648
SMILES: [O-][N+](=O)C1C=CC(=CC=1C(O)=O)OC1=CC=C(C=C1Cl)C(F)(F)F
InChI: InChI=1S/C14H7ClF3NO5/c15-10-5-7(14(16,17)18)1-4-12(10)24-8-2-3-11(19(22)23)9(6-8)13(20)21/h1-6H,(H,20,21)
Instrument type: ESI-QTOF
Ms type: MS2
Ion mode: NEGATIVE
Ionization: ESI
Collision energy: 10
Precursor m/z: 359.9892082005
Precursor type: [M-H]-
m/z	relative intensity
137.011842	12
194.983001	79
222.029798	33
286.00139	200
315.999379	999
359.989208	32
