Mass spectrum: Hexaflumuron; ESI-QTOF; MS2; CE: 20; [M-H]-
Name: Hexaflumuron
Formula: C16H8Cl2F6N2O3
Exact mass: 459.98162
SMILES: O=C(NC(=O)NC1C=C(Cl)C(OC(F)(F)C(F)F)=C(Cl)C=1)C1C(F)=CC=CC=1F
InChI: InChI=1S/C16H8Cl2F6N2O3/c17-7-4-6(5-8(18)12(7)29-16(23,24)14(21)22)25-15(28)26-13(27)11-9(19)2-1-3-10(11)20/h1-5,14H,(H2,25,26,27,28)
Instrument type: ESI-QTOF
Ms type: MS2
Ion mode: NEGATIVE
Ionization: ESI
Collision energy: 20
Precursor m/z: 458.9743403052
Precursor type: [M-H]-
m/z	relative intensity
68.995758	11
73.029503	11
80.995758	14
96.990673	64
99.043851	13
112.984932	45
113.02083	24
116.995758	44
136.020416	47
139.006362	13
156.025501	49
173.951893	12
174.959231	263
174.994929	10
185.950591	20
199.954321	25
201.946161	24
255.951104	66
257.998865	26
275.959526	443
284.985955	49
293.975712	32
294.960373	38
300.952582	141
301.988239	204
337.969395	10
382.979426	16
395.962298	73
402.991434	176
415.968527	13
422.997663	36
438.968112	999
