Mass spectrum: Metosulam; ESI-QTOF; MS2; CE: 10; [M+H]+
Name: Metosulam
Formula: C14H13Cl2N5O4S
Exact mass: 417.00653
SMILES: CC1C=CC(Cl)=C(NS(=O)(=O)C2N=C3N=C(C=C(OC)N3N=2)OC)C=1Cl
InChI: InChI=1S/C14H13Cl2N5O4S/c1-7-4-5-8(15)12(11(7)16)20-26(22,23)14-18-13-17-9(24-2)6-10(25-3)21(13)19-14/h4-6,20H,1-3H3
Instrument type: ESI-QTOF
Ms type: MS2
Ion mode: POSITIVE
Ionization: ESI
Collision energy: 10
Precursor m/z: 418.0138065426
Precursor type: [M+H]+
m/z	relative intensity
57.069877	38
71.085527	79
85.101177	55
149.022465	68
173.986042	29
174.993867	282
175.996979	17
176.993083	37
189.981608	25
228.029621	24
237.947738	24
354.051907	22
418.013807	999
