Mass spectrum: Carbofuran; ESI-QTOF; MS2; CE: 10; [M+H]+
Name: Carbofuran
Formula: C12H15NO3
Exact mass: 221.10519
SMILES: CNC(=O)OC1=CC=CC2CC(C)(C)OC1=2
InChI: InChI=1S/C12H15NO3/c1-12(2)7-8-5-4-6-9(10(8)16-12)15-11(14)13-3/h4-6H,7H2,1-3H3,(H,13,14)
Instrument type: ESI-QTOF
Ms type: MS2
Ion mode: POSITIVE
Ionization: ESI
Collision energy: 10
Precursor m/z: 222.1124698045
Precursor type: [M+H]+
m/z	relative intensity
55.054227	21
119.085527	11
123.044056	322
137.059706	22
147.080441	11
165.091006	999
222.11247	96
