Mass spectrum: Molinate; ESI-QTOF; MS2; CE: 20; [M+H]+
Name: Molinate
Formula: C9H17NOS
Exact mass: 187.10308
SMILES: CCSC(=O)N1CCCCCC1
InChI: InChI=1S/C9H17NOS/c1-2-12-9(11)10-7-5-3-4-6-8-10/h2-8H2,1H3
Instrument type: ESI-QTOF
Ms type: MS2
Ion mode: POSITIVE
Ionization: ESI
Collision energy: 20
Precursor m/z: 188.1103613537
Precursor type: [M+H]+
m/z	relative intensity
55.054227	999
69.069877	14
70.065126	66
81.069877	54
83.049141	19
83.085527	329
84.080776	18
98.096426	308
126.09134	598
160.115447	16
188.110361	39
