Mass spectrum: Malathion; ESI-QTOF; MS2; CE: 10; [M+H]+
Name: Malathion
Formula: C10H19O6PS2
Exact mass: 330.03607
SMILES: CCOC(=O)C(CC(=O)OCC)SP(=S)(OC)OC
InChI: InChI=1S/C10H19O6PS2/c1-5-15-9(11)7-8(10(12)16-6-2)19-17(18,13-3)14-4/h8H,5-7H2,1-4H3
Instrument type: ESI-QTOF
Ms type: MS2
Ion mode: POSITIVE
Ionization: ESI
Collision energy: 10
Precursor m/z: 331.0433427416
Precursor type: [M+H]+
m/z	relative intensity
99.00767	628
114.984826	10
124.982063	73
127.038971	999
143.016127	11
146.993283	11
158.969784	16
173.080835	10
187.001084	10
189.057991	12
210.964698	53
257.006563	47
285.001478	138
