Mass spectrum: Bentazone; ESI-QTOF; MS2; CE: 40; [M-H]-
Name: Bentazone
Formula: C10H12N2O3S
Exact mass: 240.05686
SMILES: CC(C)N1C(=O)C2C=CC=CC=2NS1(=O)=O
InChI: InChI=1S/C10H12N2O3S/c1-7(2)12-10(13)8-5-3-4-6-9(8)11-16(12,14)15/h3-7,11H,1-2H3
Instrument type: ESI-QTOF
Ms type: MS2
Ion mode: NEGATIVE
Ionization: ESI
Collision energy: 40
Precursor m/z: 239.04959
Precursor type: [M-H]-
m/z	relative intensity
41.998537	67
76.031849	336
77.039674	84
79.957363	105
105.034588	165
115.030172	17
116.037997	55
117.045822	213
132.032911	999
133.040736	315
145.040736	18
167.999897	13
195.994811	21
197.002636	44
