Mass spectrum: Dimethoate; ESI-QTOF; MS2; CE: 10; [M+H]+
Name: Dimethoate
Formula: C5H12NO3PS2
Exact mass: 228.99962
SMILES: CNC(=O)CSP(=S)(OC)OC
InChI: InChI=1S/C5H12NO3PS2/c1-6-5(7)4-12-10(11,8-2)9-3/h4H2,1-3H3,(H,6,7)
Instrument type: ESI-QTOF
Ms type: MS2
Ion mode: POSITIVE
Ionization: ESI
Collision energy: 10
Precursor m/z: 230.0068976588
Precursor type: [M+H]+
m/z	relative intensity
44.049476	14
61.010647	10
78.994342	15
88.021546	542
89.02332	22
119.993617	17
124.982063	602
125.986517	12
142.992628	51
156.954134	49
170.969784	690
197.980683	74
198.964698	999
199.972524	43
230.006898	56
