Mass spectrum: Hexaflumuron; ESI-QTOF; MS2; CE: 10; [M+H]+
Name: Hexaflumuron
Formula: C16H8Cl2F6N2O3
Exact mass: 459.98162
SMILES: O=C(NC(=O)NC1C=C(Cl)C(OC(F)(F)C(F)F)=C(Cl)C=1)C1C(F)=CC=CC=1F
InChI: InChI=1S/C16H8Cl2F6N2O3/c17-7-4-6(5-8(18)12(7)29-16(23,24)14(21)22)25-15(28)26-13(27)11-9(19)2-1-3-10(11)20/h1-5,14H,(H2,25,26,27,28)
Instrument type: ESI-QTOF
Ms type: MS2
Ion mode: POSITIVE
Ionization: ESI
Collision energy: 10
Precursor m/z: 460.9888932086
Precursor type: [M+H]+
m/z	relative intensity
57.069877	11
141.014648	76
158.040054	999
159.044056	59
277.974566	27
460.988893	311
