Mass spectrum: Dinoseb (Subitex); ESI-QTOF; MS2; CE: 40; [M-H]-
Name: Dinoseb (Subitex)
Formula: C10H12N2O5
Exact mass: 240.07462
SMILES: CCC(C)C1=CC(=CC(=C1O)[N+]([O-])=O)[N+]([O-])=O
InChI: InChI=1S/C10H12N2O5/c1-3-6(2)8-4-7(11(14)15)5-9(10(8)13)12(16)17/h4-6,13H,3H2,1-2H3
Instrument type: ESI-QTOF
Ms type: MS2
Ion mode: NEGATIVE
Ionization: ESI
Collision energy: 40
Precursor m/z: 239.0673450574
Precursor type: [M-H]-
m/z	relative intensity
65.998537	11
77.039674	14
103.055324	10
105.034588	11
109.016927	18
121.029503	38
122.037328	54
123.04113	12
134.024752	999
135.032577	399
136.040402	76
146.037328	36
147.045153	25
148.048955	48
149.035651	32
150.053372	22
151.076453	48
160.040402	17
162.019667	135
163.027492	660
164.04387	77
176.035317	157
177.043142	123
178.050967	116
179.022406	23
180.030231	17
192.066617	75
193.02548	406
194.045881	194
207.04113	45
208.061531	10
209.020395	134
