Mass spectrum: Pyraclostrobin; ESI-QTOF; MS2; CE: 10; [M+H]+
Name: Pyraclostrobin
Formula: C19H18ClN3O4
Exact mass: 387.09858
SMILES: CON(C(=O)OC)C1=CC=CC=C1COC1C=CN(N=1)C1C=CC(Cl)=CC=1
InChI: InChI=1S/C19H18ClN3O4/c1-25-19(24)23(26-2)17-6-4-3-5-14(17)13-27-18-11-12-22(21-18)16-9-7-15(20)8-10-16/h3-12H,13H2,1-2H3
Instrument type: ESI-QTOF
Ms type: MS2
Ion mode: POSITIVE
Ionization: ESI
Collision energy: 10
Precursor m/z: 388.1058602473
Precursor type: [M+H]+
m/z	relative intensity
45.033491	31
105.057301	13
118.065126	25
128.049476	10
129.053278	13
132.04439	34
133.052215	27
134.06004	51
149.04713	72
156.042197	10
162.054955	134
163.06278	501
164.070605	579
165.074407	44
166.086255	18
194.08117	999
195.080929	79
216.06552	10
261.088813	10
296.058029	266
297.063661	41
298.05891	13
324.053431	47
356.079645	57
357.087471	16
388.10586	109
