Mass spectrum: Imazalil (Enilconazole); ESI-QTOF; MS2; CE: 40; [M+H]+
Name: Imazalil (Enilconazole)
Formula: C14H14Cl2N2O
Exact mass: 296.04832
SMILES: C=CCOC(CN1C=NC=C1)C1C=CC(Cl)=CC=1Cl
InChI: InChI=1S/C14H14Cl2N2O/c1-2-7-19-14(9-18-6-5-17-10-18)12-4-3-11(15)8-13(12)16/h2-6,8,10,14H,1,7,9H2
Instrument type: ESI-QTOF
Ms type: MS2
Ion mode: POSITIVE
Ionization: ESI
Collision energy: 40
Precursor m/z: 297.0555949554
Precursor type: [M+H]+
m/z	relative intensity
54.033826	19
55.054227	21
67.041651	34
68.049476	13
69.044725	541
80.049476	18
81.044725	229
82.054379	69
89.038577	16
98.999604	12
101.038577	16
102.046402	37
103.054227	18
109.076025	47
115.054227	25
122.999604	79
124.005599	21
128.062052	10
129.069877	37
137.015254	33
138.021249	36
141.069877	128
149.015254	16
150.021249	18
158.976282	999
164.0369	11
172.990102	135
175.029075	14
176.0369	53
255.008645	13
