Mass spectrum: Dimethoate; ESI-QTOF; MS2; CE: 40; [M+H]+
Name: Dimethoate
Formula: C5H12NO3PS2
Exact mass: 228.99962
SMILES: CNC(=O)CSP(=S)(OC)OC
InChI: InChI=1S/C5H12NO3PS2/c1-6-5(7)4-12-10(11,8-2)9-3/h4H2,1-3H3,(H,6,7)
Instrument type: ESI-QTOF
Ms type: MS2
Ion mode: POSITIVE
Ionization: ESI
Collision energy: 40
Precursor m/z: 230.0068976588
Precursor type: [M+H]+
m/z	relative intensity
44.049476	104
44.979347	113
45.987172	10
46.968128	143
46.994997	999
56.049476	10
58.994997	38
59.999762	20
61.010647	26
62.005896	14
62.018472	122
62.999428	67
76.021546	19
78.010327	24
78.994342	777
88.021546	34
92.025977	14
93.009992	233
109.004907	16
110.966413	64
123.998047	32
124.982063	773
125.986517	10
156.954134	12
