Mass spectrum: Hexaflumuron; ESI-QTOF; MS2; CE: 40; [M+H]+
Name: Hexaflumuron
Formula: C16H8Cl2F6N2O3
Exact mass: 459.98162
SMILES: O=C(NC(=O)NC1C=C(Cl)C(OC(F)(F)C(F)F)=C(Cl)C=1)C1C(F)=CC=CC=1F
InChI: InChI=1S/C16H8Cl2F6N2O3/c17-7-4-6(5-8(18)12(7)29-16(23,24)14(21)22)25-15(28)26-13(27)11-9(19)2-1-3-10(11)20/h1-5,14H,(H2,25,26,27,28)
Instrument type: ESI-QTOF
Ms type: MS2
Ion mode: POSITIVE
Ionization: ESI
Collision energy: 40
Precursor m/z: 460.9888932086
Precursor type: [M+H]+
m/z	relative intensity
45.033491	16
57.069877	11
63.022927	10
67.054227	13
89.059706	11
113.019733	38
140.030632	37
141.014648	999
142.017307	51
158.040054	471
159.044056	32
277.975221	10
