Mass spectrum: Metosulam; ESI-QTOF; MS2; CE: 40; [M+H]+
Name: Metosulam
Formula: C14H13Cl2N5O4S
Exact mass: 417.00653
SMILES: CC1C=CC(Cl)=C(NS(=O)(=O)C2N=C3N=C(C=C(OC)N3N=2)OC)C=1Cl
InChI: InChI=1S/C14H13Cl2N5O4S/c1-7-4-5-8(15)12(11(7)16)20-26(22,23)14-18-13-17-9(24-2)6-10(25-3)21(13)19-14/h4-6,20H,1-3H3
Instrument type: ESI-QTOF
Ms type: MS2
Ion mode: POSITIVE
Ionization: ESI
Collision energy: 40
Precursor m/z: 418.0138065426
Precursor type: [M+H]+
m/z	relative intensity
57.069877	40
71.085527	43
77.038577	12
85.101177	13
96.055624	12
104.049476	15
110.999604	10
138.010016	10
139.017841	10
140.025666	354
141.029468	18
142.020022	27
146.976282	14
149.022465	86
151.061437	10
165.040702	12
173.986694	73
174.994519	999
175.996979	69
176.993083	106
179.056352	31
189.980957	45
304.059579	13
