Mass spectrum: Dinoseb (Subitex); ESI-QTOF; MS2; CE: 10; [M-H]-
Name: Dinoseb (Subitex)
Formula: C10H12N2O5
Exact mass: 240.07462
SMILES: CCC(C)C1=CC(=CC(=C1O)[N+]([O-])=O)[N+]([O-])=O
InChI: InChI=1S/C10H12N2O5/c1-3-6(2)8-4-7(11(14)15)5-9(10(8)13)12(16)17/h4-6,13H,3H2,1-2H3
Instrument type: ESI-QTOF
Ms type: MS2
Ion mode: NEGATIVE
Ionization: ESI
Collision energy: 10
Precursor m/z: 239.0673450574
Precursor type: [M-H]-
m/z	relative intensity
194.045881	17
239.067345	999
