Mass spectrum: Imazapyr; ESI-QTOF; MS2; CE: 40; [M+H]+
Name: Imazapyr
Formula: C13H15N3O3
Exact mass: 261.11134
SMILES: CC1(N=C(NC1=O)C1=NC=CC=C1C(O)=O)C(C)C
InChI: InChI=1S/C13H15N3O3/c1-7(2)13(3)12(19)15-10(16-13)9-8(11(17)18)5-4-6-14-9/h4-7H,1-3H3,(H,17,18)(H,15,16,19)
Instrument type: ESI-QTOF
Ms type: MS2
Ion mode: POSITIVE
Ionization: ESI
Collision energy: 40
Precursor m/z: 262.1186178193
Precursor type: [M+H]+
m/z	relative intensity
56.049476	30
58.065126	15
67.054227	28
69.069877	979
70.065126	34
71.072951	123
76.018175	34
78.033826	485
79.041651	52
80.049476	13
86.096426	634
92.049476	28
93.044725	11
103.029075	439
104.0369	146
105.044725	170
106.02874	117
107.060375	11
119.057695	11
129.044725	12
130.065126	14
131.023989	999
133.039639	184
136.039305	11
147.055289	641
148.050538	83
149.034554	568
156.0682	17
171.091675	12
173.059706	16
174.066188	221
184.063114	15
191.068928	19
199.086589	23
202.061103	131
