Mass spectrum: Dimethoate; ESI-QTOF; MS2; CE: 20; [M+H]+
Name: Dimethoate
Formula: C5H12NO3PS2
Exact mass: 228.99962
SMILES: CNC(=O)CSP(=S)(OC)OC
InChI: InChI=1S/C5H12NO3PS2/c1-6-5(7)4-12-10(11,8-2)9-3/h4H2,1-3H3,(H,6,7)
Instrument type: ESI-QTOF
Ms type: MS2
Ion mode: POSITIVE
Ionization: ESI
Collision energy: 20
Precursor m/z: 230.0068976588
Precursor type: [M+H]+
m/z	relative intensity
44.049476	26
46.994997	41
61.010647	12
62.018472	15
78.994342	75
88.021546	167
93.009992	25
110.966413	14
119.993617	12
123.998047	19
124.982063	999
125.986517	30
142.992628	29
155.970118	10
156.954134	81
170.969784	162
198.964698	20
