Mass spectrum: Imazapyr; ESI-QTOF; MS2; CE: 20; [M+H]+
Name: Imazapyr
Formula: C13H15N3O3
Exact mass: 261.11134
SMILES: CC1(N=C(NC1=O)C1=NC=CC=C1C(O)=O)C(C)C
InChI: InChI=1S/C13H15N3O3/c1-7(2)13(3)12(19)15-10(16-13)9-8(11(17)18)5-4-6-14-9/h4-7H,1-3H3,(H,17,18)(H,15,16,19)
Instrument type: ESI-QTOF
Ms type: MS2
Ion mode: POSITIVE
Ionization: ESI
Collision energy: 20
Precursor m/z: 262.1186178193
Precursor type: [M+H]+
m/z	relative intensity
58.065126	13
69.069877	372
86.096426	343
97.064791	21
105.044725	33
131.023989	48
147.055289	50
148.050538	72
149.034554	380
173.107325	90
174.066188	124
175.086589	19
176.081838	13
191.068928	20
199.086589	136
202.061103	431
216.113139	83
217.097154	999
219.063843	16
220.071668	433
234.123703	244
244.108053	12
262.118618	542
