Mass spectrum: Carbofuran; ESI-QTOF; MS2; CE: 40; [M+H]+
Name: Carbofuran
Formula: C12H15NO3
Exact mass: 221.10519
SMILES: CNC(=O)OC1=CC=CC2CC(C)(C)OC1=2
InChI: InChI=1S/C12H15NO3/c1-12(2)7-8-5-4-6-9(10(8)16-12)15-11(14)13-3/h4-6H,7H2,1-3H3,(H,13,14)
Instrument type: ESI-QTOF
Ms type: MS2
Ion mode: POSITIVE
Ionization: ESI
Collision energy: 40
Precursor m/z: 222.1124698045
Precursor type: [M+H]+
m/z	relative intensity
51.022927	67
53.038577	27
55.017841	41
55.054227	287
58.02874	91
65.038577	82
67.054227	166
77.038577	404
79.054227	17
81.033491	15
91.054227	281
93.033491	17
95.049141	164
103.054227	18
104.062052	10
105.033491	98
107.049141	16
117.069877	15
119.049141	22
119.085527	15
123.044056	999
131.049141	10
137.059706	20
