Mass spectrum: Thiabendazole; ESI-QTOF; MS2; CE: 10; [M+H]+
Name: Thiabendazole
Formula: C10H7N3S
Exact mass: 201.03607
SMILES: C1=NC(=CS1)C1NC2C=CC=CC=2N=1
InChI: InChI=1S/C10H7N3S/c1-2-4-8-7(3-1)12-10(13-8)9-5-14-6-11-9/h1-6H,(H,12,13)
Instrument type: ESI-QTOF
Ms type: MS2
Ion mode: POSITIVE
Ionization: ESI
Collision energy: 10
Precursor m/z: 202.0433444272
Precursor type: [M+H]+
m/z	relative intensity
175.032445	21
202.043344	999
