Mass spectrum: Diazinon (Dimpylate); ESI-QTOF; MS2; CE: 40; [M+H]+
Name: Diazinon (Dimpylate)
Formula: C12H21N2O3PS
Exact mass: 304.10105
SMILES: CC1=CC(=NC(=N1)C(C)C)OP(=S)(OCC)OCC
InChI: InChI=1S/C12H21N2O3PS/c1-6-15-18(19,16-7-2)17-11-8-10(5)13-12(14-11)9(3)4/h8-9H,6-7H2,1-5H3
Instrument type: ESI-QTOF
Ms type: MS2
Ion mode: POSITIVE
Ionization: ESI
Collision energy: 40
Precursor m/z: 305.1083262233
Precursor type: [M+H]+
m/z	relative intensity
64.978692	24
66.033826	51
70.065436	75
78.940198	31
80.973607	28
84.04439	103
93.044725	157
96.950763	999
100.021546	147
124.982063	11
135.091675	85
138.078764	19
153.102239	270
154.110065	17
169.079396	307
170.08117	22
