Mass spectrum: 2,4,5-TP / Silvex (Fenoprop); ESI-QTOF; MS2; CE: 40; [M-H]-
Name: 2,4,5-TP / Silvex (Fenoprop)
Formula: C9H7Cl3O3
Exact mass: 267.94608
SMILES: CC(OC1C=C(Cl)C(Cl)=CC=1Cl)C(O)=O
InChI: InChI=1S/C9H7Cl3O3/c1-4(9(13)14)15-8-3-6(11)5(10)2-7(8)12/h2-4H,1H3,(H,13,14)
Instrument type: ESI-QTOF
Ms type: MS2
Ion mode: NEGATIVE
Ionization: ESI
Collision energy: 40
Precursor m/z: 266.9388007685
Precursor type: [M-H]-
m/z	relative intensity
94.969401	12
122.964316	41
158.940994	999
194.917671	417
