Mass spectrum: Aminocarb; ESI-QTOF; MS2; CE: 20; [M+H]+
Name: Aminocarb
Formula: C11H16N2O2
Exact mass: 208.12118
SMILES: CC1=CC(=CC=C1N(C)C)OC(=O)NC
InChI: InChI=1S/C11H16N2O2/c1-8-7-9(15-11(14)12-2)5-6-10(8)13(3)4/h5-7H,1-4H3,(H,12,14)
Instrument type: ESI-QTOF
Ms type: MS2
Ion mode: POSITIVE
Ionization: ESI
Collision energy: 20
Precursor m/z: 209.1284542215
Precursor type: [M+H]+
m/z	relative intensity
122.06004	37
136.07569	17
137.083515	999
152.10699	410
