Mass spectrum: Metosulam; ESI-QTOF; MS2; CE: 20; [M+H]+
Name: Metosulam
Formula: C14H13Cl2N5O4S
Exact mass: 417.00653
SMILES: CC1C=CC(Cl)=C(NS(=O)(=O)C2N=C3N=C(C=C(OC)N3N=2)OC)C=1Cl
InChI: InChI=1S/C14H13Cl2N5O4S/c1-7-4-5-8(15)12(11(7)16)20-26(22,23)14-18-13-17-9(24-2)6-10(25-3)21(13)19-14/h4-6,20H,1-3H3
Instrument type: ESI-QTOF
Ms type: MS2
Ion mode: POSITIVE
Ionization: ESI
Collision energy: 20
Precursor m/z: 418.0138065426
Precursor type: [M+H]+
m/z	relative intensity
57.069877	63
71.085527	108
85.101177	51
140.025666	25
149.022465	97
173.986694	89
174.994519	999
175.996979	64
176.993083	125
179.056352	12
189.980957	86
190.987439	13
191.97767	10
228.030108	51
229.037446	16
237.947738	28
243.017198	16
318.075229	16
319.083054	24
354.051907	56
418.013807	245
