Mass spectrum: Atrazine; ESI-QTOF; MS2; CE: 10; [M+H]+
Name: Atrazine
Formula: C8H14ClN5
Exact mass: 215.09377
SMILES: CCNC1N=C(Cl)N=C(NC(C)C)N=1
InChI: InChI=1S/C8H14ClN5/c1-4-10-7-12-6(9)13-8(14-7)11-5(2)3/h5H,4H2,1-3H3,(H2,10,11,12,13,14)
Instrument type: ESI-QTOF
Ms type: MS2
Ion mode: POSITIVE
Ionization: ESI
Collision energy: 10
Precursor m/z: 216.10105
Precursor type: [M+H]+
m/z	relative intensity
97.991779	69
137.002678	131
137.997927	27
174.054099	161
216.10105	999
