Mass spectrum: Acifluorfen; ESI-QTOF; MS2; CE: 20; [M-H]-
Name: Acifluorfen
Formula: C14H7ClF3NO5
Exact mass: 360.99648
SMILES: [O-][N+](=O)C1C=CC(=CC=1C(O)=O)OC1=CC=C(C=C1Cl)C(F)(F)F
InChI: InChI=1S/C14H7ClF3NO5/c15-10-5-7(14(16,17)18)1-4-12(10)24-8-2-3-11(19(22)23)9(6-8)13(20)21/h1-6H,(H,20,21)
Instrument type: ESI-QTOF
Ms type: MS2
Ion mode: NEGATIVE
Ionization: ESI
Collision energy: 20
Precursor m/z: 359.9892082005
Precursor type: [M-H]-
m/z	relative intensity
79.018938	11
107.013853	12
123.008768	11
137.011842	151
174.976772	11
194.983001	999
222.029798	487
235.022367	10
250.024713	27
258.006476	15
284.993565	23
286.00139	739
315.999379	525
