Mass spectrum: Imazalil (Enilconazole); ESI-QTOF; MS2; CE: 20; [M+H]+
Name: Imazalil (Enilconazole)
Formula: C14H14Cl2N2O
Exact mass: 296.04832
SMILES: C=CCOC(CN1C=NC=C1)C1C=CC(Cl)=CC=1Cl
InChI: InChI=1S/C14H14Cl2N2O/c1-2-7-19-14(9-18-6-5-17-10-18)12-4-3-11(15)8-13(12)16/h2-6,8,10,14H,1,7,9H2
Instrument type: ESI-QTOF
Ms type: MS2
Ion mode: POSITIVE
Ionization: ESI
Collision energy: 20
Precursor m/z: 297.0555949554
Precursor type: [M+H]+
m/z	relative intensity
69.044725	739
81.044725	121
82.065126	31
109.076025	312
141.069877	16
149.015254	11
150.023079	14
158.976282	999
164.0369	25
172.990102	229
175.029075	35
176.038729	309
182.976282	11
184.991932	70
186.971197	25
199.005752	50
200.986847	398
211.005752	52
229.016317	13
255.008645	402
297.055595	964
