Mass spectrum: Diazinon (Dimpylate); ESI-QTOF; MS2; CE: 10; [M+H]+
Name: Diazinon (Dimpylate)
Formula: C12H21N2O3PS
Exact mass: 304.10105
SMILES: CC1=CC(=NC(=N1)C(C)C)OP(=S)(OCC)OCC
InChI: InChI=1S/C12H21N2O3PS/c1-6-15-18(19,16-7-2)17-11-8-10(5)13-12(14-11)9(3)4/h8-9H,6-7H2,1-5H3
Instrument type: ESI-QTOF
Ms type: MS2
Ion mode: POSITIVE
Ionization: ESI
Collision energy: 10
Precursor m/z: 305.1083262233
Precursor type: [M+H]+
m/z	relative intensity
96.950763	65
124.982063	58
153.013363	21
153.102239	213
154.110065	14
169.079396	235
170.08117	16
231.034851	16
249.045415	147
250.05018	10
277.077026	248
278.084851	22
305.108326	999
