Mass spectrum: Aminocarb; ESI-QTOF; MS2; CE: 40; [M+H]+
Name: Aminocarb
Formula: C11H16N2O2
Exact mass: 208.12118
SMILES: CC1=CC(=CC=C1N(C)C)OC(=O)NC
InChI: InChI=1S/C11H16N2O2/c1-8-7-9(15-11(14)12-2)5-6-10(8)13(3)4/h5-7H,1-4H3,(H,12,14)
Instrument type: ESI-QTOF
Ms type: MS2
Ion mode: POSITIVE
Ionization: ESI
Collision energy: 40
Precursor m/z: 209.1284542215
Precursor type: [M+H]+
m/z	relative intensity
67.054227	18
77.038577	41
91.054227	16
92.062052	11
94.065126	49
95.049141	15
107.049141	19
108.056966	29
120.056966	49
122.06004	999
136.07569	384
137.083515	721
