Mass spectrum: Metoxuron; ESI-QTOF; MS2; CE: 40; [M+H]+
Name: Metoxuron
Formula: C10H13ClN2O2
Exact mass: 228.06656
SMILES: COC1C=CC(=CC=1Cl)NC(=O)N(C)C
InChI: InChI=1S/C10H13ClN2O2/c1-13(2)10(14)12-7-4-5-9(15-3)8(11)6-7/h4-6H,1-3H3,(H,12,14)
Instrument type: ESI-QTOF
Ms type: MS2
Ion mode: POSITIVE
Ionization: ESI
Collision energy: 40
Precursor m/z: 229.07383
Precursor type: [M+H]+
m/z	relative intensity
44.049476	35
46.065126	332
56.01309	26
72.044877	999
73.052215	23
78.033826	20
80.013577	42
106.02874	45
156.020581	32
