Mass spectrum: Aminocarb; ESI-QTOF; MS2; CE: 10; [M+H]+
Name: Aminocarb
Formula: C11H16N2O2
Exact mass: 208.12118
SMILES: CC1=CC(=CC=C1N(C)C)OC(=O)NC
InChI: InChI=1S/C11H16N2O2/c1-8-7-9(15-11(14)12-2)5-6-10(8)13(3)4/h5-7H,1-4H3,(H,12,14)
Instrument type: ESI-QTOF
Ms type: MS2
Ion mode: POSITIVE
Ionization: ESI
Collision energy: 10
Precursor m/z: 209.1284542215
Precursor type: [M+H]+
m/z	relative intensity
137.083515	266
152.10699	999
209.128454	370
