Mass spectrum: Malathion; ESI-QTOF; MS2; CE: 20; [M+H]+
Name: Malathion
Formula: C10H19O6PS2
Exact mass: 330.03607
SMILES: CCOC(=O)C(CC(=O)OCC)SP(=S)(OC)OC
InChI: InChI=1S/C10H19O6PS2/c1-5-15-9(11)7-8(10(12)16-6-2)19-17(18,13-3)14-4/h8H,5-7H2,1-4H3
Instrument type: ESI-QTOF
Ms type: MS2
Ion mode: POSITIVE
Ionization: ESI
Collision energy: 20
Precursor m/z: 331.0433427416
Precursor type: [M+H]+
m/z	relative intensity
71.012756	21
78.994342	12
86.989912	15
99.00767	999
114.984826	19
117.000477	14
124.982063	247
127.038971	219
146.993283	17
210.964698	56
257.006563	11
