Mass spectrum: Imazapyr; ESI-QTOF; MS2; CE: 10; [M+H]+
Name: Imazapyr
Formula: C13H15N3O3
Exact mass: 261.11134
SMILES: CC1(N=C(NC1=O)C1=NC=CC=C1C(O)=O)C(C)C
InChI: InChI=1S/C13H15N3O3/c1-7(2)13(3)12(19)15-10(16-13)9-8(11(17)18)5-4-6-14-9/h4-7H,1-3H3,(H,17,18)(H,15,16,19)
Instrument type: ESI-QTOF
Ms type: MS2
Ion mode: POSITIVE
Ionization: ESI
Collision energy: 10
Precursor m/z: 262.1186178193
Precursor type: [M+H]+
m/z	relative intensity
69.069877	11
86.096426	14
149.034554	13
202.061103	20
216.113139	10
217.097154	86
220.071668	75
234.123703	70
262.118618	999
