Mass spectrum: Dinoseb (Subitex); ESI-QTOF; MS2; CE: 20; [M-H]-
Name: Dinoseb (Subitex)
Formula: C10H12N2O5
Exact mass: 240.07462
SMILES: CCC(C)C1=CC(=CC(=C1O)[N+]([O-])=O)[N+]([O-])=O
InChI: InChI=1S/C10H12N2O5/c1-3-6(2)8-4-7(11(14)15)5-9(10(8)13)12(16)17/h4-6,13H,3H2,1-2H3
Instrument type: ESI-QTOF
Ms type: MS2
Ion mode: NEGATIVE
Ionization: ESI
Collision energy: 20
Precursor m/z: 239.0673450574
Precursor type: [M-H]-
m/z	relative intensity
151.076453	14
163.027492	13
176.035317	21
179.071368	22
180.030231	13
191.058792	13
192.066617	55
193.02548	208
194.045881	318
207.04113	31
208.061531	11
209.020395	15
209.069356	27
210.02822	33
221.05678	23
222.064605	58
239.067345	999
