Mass spectrum: Bentazone; ESI-QTOF; MS2; CE: 10; [M-H]-
Name: Bentazone
Formula: C10H12N2O3S
Exact mass: 240.05686
SMILES: CC(C)N1C(=O)C2C=CC=CC=2NS1(=O)=O
InChI: InChI=1S/C10H12N2O3S/c1-7(2)12-10(13)8-5-3-4-6-9(8)11-16(12,14)15/h3-7,11H,1-2H3
Instrument type: ESI-QTOF
Ms type: MS2
Ion mode: NEGATIVE
Ionization: ESI
Collision energy: 10
Precursor m/z: 239.04959
Precursor type: [M-H]-
m/z	relative intensity
132.032911	20
175.087687	39
197.002636	39
239.049587	999
