Mass spectrum: Metazachlor; ESI-QTOF; MS2; CE: 20; [M+H]+
Name: Metazachlor
Formula: C14H16ClN3O
Exact mass: 277.09819
SMILES: CC1C=CC=C(C)C=1N(CN1C=CC=N1)C(=O)CCl
InChI: InChI=1S/C14H16ClN3O/c1-11-5-3-6-12(2)14(11)18(13(19)9-15)10-17-8-4-7-16-17/h3-8H,9-10H2,1-2H3
Instrument type: ESI-QTOF
Ms type: MS2
Ion mode: POSITIVE
Ionization: ESI
Collision energy: 20
Precursor m/z: 278.1054663166
Precursor type: [M+H]+
m/z	relative intensity
105.069877	11
134.096426	999
210.068018	49
