Mass spectrum: Molinate; ESI-QTOF; MS2; CE: 40; [M+H]+
Name: Molinate
Formula: C9H17NOS
Exact mass: 187.10308
SMILES: CCSC(=O)N1CCCCCC1
InChI: InChI=1S/C9H17NOS/c1-2-12-9(11)10-7-5-3-4-6-8-10/h2-8H2,1H3
Instrument type: ESI-QTOF
Ms type: MS2
Ion mode: POSITIVE
Ionization: ESI
Collision energy: 40
Precursor m/z: 188.1103613537
Precursor type: [M+H]+
m/z	relative intensity
53.038577	29
55.054227	999
56.01309	10
56.049476	21
70.065126	33
79.054227	10
81.069877	13
83.085527	14
98.096426	58
