Mass spectrum: Imazalil (Enilconazole); ESI-QTOF; MS2; CE: 10; [M+H]+
Name: Imazalil (Enilconazole)
Formula: C14H14Cl2N2O
Exact mass: 296.04832
SMILES: C=CCOC(CN1C=NC=C1)C1C=CC(Cl)=CC=1Cl
InChI: InChI=1S/C14H14Cl2N2O/c1-2-7-19-14(9-18-6-5-17-10-18)12-4-3-11(15)8-13(12)16/h2-6,8,10,14H,1,7,9H2
Instrument type: ESI-QTOF
Ms type: MS2
Ion mode: POSITIVE
Ionization: ESI
Collision energy: 10
Precursor m/z: 297.0555949554
Precursor type: [M+H]+
m/z	relative intensity
69.044725	61
109.076025	18
158.976282	51
176.038729	19
200.986847	42
255.008645	37
297.055595	999
