Mass spectrum: Molinate; ESI-QTOF; MS2; CE: 10; [M+H]+
Name: Molinate
Formula: C9H17NOS
Exact mass: 187.10308
SMILES: CCSC(=O)N1CCCCCC1
InChI: InChI=1S/C9H17NOS/c1-2-12-9(11)10-7-5-3-4-6-8-10/h2-8H2,1H3
Instrument type: ESI-QTOF
Ms type: MS2
Ion mode: POSITIVE
Ionization: ESI
Collision energy: 10
Precursor m/z: 188.1103613537
Precursor type: [M+H]+
m/z	relative intensity
55.054227	113
70.065126	17
83.085527	95
98.096426	97
126.09134	999
160.115447	19
188.110361	815
