Mass spectrum: Hexaflumuron; ESI-QTOF; MS2; CE: 40; [M-H]-
Name: Hexaflumuron
Formula: C16H8Cl2F6N2O3
Exact mass: 459.98162
SMILES: O=C(NC(=O)NC1C=C(Cl)C(OC(F)(F)C(F)F)=C(Cl)C=1)C1C(F)=CC=CC=1F
InChI: InChI=1S/C16H8Cl2F6N2O3/c17-7-4-6(5-8(18)12(7)29-16(23,24)14(21)22)25-15(28)26-13(27)11-9(19)2-1-3-10(11)20/h1-5,14H,(H2,25,26,27,28)
Instrument type: ESI-QTOF
Ms type: MS2
Ion mode: NEGATIVE
Ionization: ESI
Collision energy: 40
Precursor m/z: 458.9743403052
Precursor type: [M-H]-
m/z	relative intensity
68.995758	43
71.050238	16
80.962305	15
93.014602	85
96.990673	73
112.985587	23
113.02083	86
116.996901	14
130.965379	10
134.940994	10
136.019114	17
174.959231	999
185.951893	66
199.953665	130
201.944363	19
235.947397	10
255.953784	40
257.999521	12
275.957333	28
284.985468	23
293.97172	14
294.959072	60
