Mass spectrum: Diazinon (Dimpylate); ESI-QTOF; MS2; CE: 20; [M+H]+
Name: Diazinon (Dimpylate)
Formula: C12H21N2O3PS
Exact mass: 304.10105
SMILES: CC1=CC(=NC(=N1)C(C)C)OP(=S)(OCC)OCC
InChI: InChI=1S/C12H21N2O3PS/c1-6-15-18(19,16-7-2)17-11-8-10(5)13-12(14-11)9(3)4/h8-9H,6-7H2,1-5H3
Instrument type: ESI-QTOF
Ms type: MS2
Ion mode: POSITIVE
Ionization: ESI
Collision energy: 20
Precursor m/z: 305.1083262233
Precursor type: [M+H]+
m/z	relative intensity
84.04439	12
93.044725	13
96.950763	627
100.021546	17
109.004907	12
124.982063	239
135.091675	26
153.01171	35
153.102239	802
154.110065	68
169.079396	999
170.08117	77
181.13354	16
215.057695	12
231.034851	72
249.045415	333
250.05018	28
277.077026	123
278.084851	13
305.108326	111
