Mass spectrum: 2,4,5-T / 2,4,5-Trichlorophenoxyacetic acid; ESI-QTOF; MS2; CE: 10; [M-H]-
Name: 2,4,5-T / 2,4,5-Trichlorophenoxyacetic acid
Formula: C8H5Cl3O3
Exact mass: 253.93043
SMILES: OC(=O)COC1C=C(Cl)C(Cl)=CC=1Cl
InChI: InChI=1S/C8H5Cl3O3/c9-4-1-6(11)7(2-5(4)10)14-3-8(12)13/h1-2H,3H2,(H,12,13)
Instrument type: ESI-QTOF
Ms type: MS2
Ion mode: NEGATIVE
Ionization: ESI
Collision energy: 10
Precursor m/z: 252.9231507047
Precursor type: [M-H]-
m/z	relative intensity
194.917671	999
252.923151	28
