Mass spectrum: Pyraclostrobin; ESI-QTOF; MS2; CE: 40; [M+H]+
Name: Pyraclostrobin
Formula: C19H18ClN3O4
Exact mass: 387.09858
SMILES: CON(C(=O)OC)C1=CC=CC=C1COC1C=CN(N=1)C1C=CC(Cl)=CC=1
InChI: InChI=1S/C19H18ClN3O4/c1-25-19(24)23(26-2)17-6-4-3-5-14(17)13-27-18-11-12-22(21-18)16-9-7-15(20)8-10-16/h3-12H,13H2,1-2H3
Instrument type: ESI-QTOF
Ms type: MS2
Ion mode: POSITIVE
Ionization: ESI
Collision energy: 40
Precursor m/z: 388.1058602473
Precursor type: [M+H]+
m/z	relative intensity
45.033491	131
47.049141	12
55.054227	14
59.012756	22
65.038577	16
75.044056	14
77.038577	104
78.044209	36
79.054227	26
91.041651	12
91.054227	132
92.049476	21
93.057301	10
101.059706	15
102.033826	15
104.049476	366
105.033491	14
105.057301	894
106.029227	15
106.065126	132
107.047799	12
107.072951	42
108.04439	15
109.064791	11
110.999604	32
116.049476	45
117.057301	51
118.065126	78
119.036565	286
119.070271	21
120.04439	382
121.049535	26
121.063449	127
122.068594	12
128.049476	66
129.057301	26
130.02874	50
132.04439	457
133.052215	999
134.023655	50
134.05736	177
135.065185	18
148.039305	67
149.04713	708
150.050932	48
151.06278	11
162.054955	257
163.06278	876
164.066582	87
204.078583	17
218.08385	34
219.089482	15
232.084244	12
233.092556	13
243.078249	30
253.050022	36
261.088813	15
296.055836	17
