Mass spectrum: Malathion; ESI-QTOF; MS2; CE: 40; [M+H]+
Name: Malathion
Formula: C10H19O6PS2
Exact mass: 330.03607
SMILES: CCOC(=O)C(CC(=O)OCC)SP(=S)(OC)OC
InChI: InChI=1S/C10H19O6PS2/c1-5-15-9(11)7-8(10(12)16-6-2)19-17(18,13-3)14-4/h8H,5-7H2,1-4H3
Instrument type: ESI-QTOF
Ms type: MS2
Ion mode: POSITIVE
Ionization: ESI
Collision energy: 40
Precursor m/z: 331.0433427416
Precursor type: [M+H]+
m/z	relative intensity
53.002191	17
55.017841	10
58.994997	19
62.018472	23
71.012756	165
78.994342	178
86.989912	41
93.009992	11
99.00767	999
110.966413	35
114.984826	11
118.961983	29
124.982063	513
