Mass spectrum: Pyraclostrobin; ESI-QTOF; MS2; CE: 20; [M+H]+
Name: Pyraclostrobin
Formula: C19H18ClN3O4
Exact mass: 387.09858
SMILES: CON(C(=O)OC)C1=CC=CC=C1COC1C=CN(N=1)C1C=CC(Cl)=CC=1
InChI: InChI=1S/C19H18ClN3O4/c1-25-19(24)23(26-2)17-6-4-3-5-14(17)13-27-18-11-12-22(21-18)16-9-7-15(20)8-10-16/h3-12H,13H2,1-2H3
Instrument type: ESI-QTOF
Ms type: MS2
Ion mode: POSITIVE
Ionization: ESI
Collision energy: 20
Precursor m/z: 388.1058602473
Precursor type: [M+H]+
m/z	relative intensity
45.033491	66
75.044056	10
91.054227	12
104.049476	27
105.057301	41
106.065126	15
118.065126	35
119.036565	30
120.04439	17
128.049476	33
129.054621	14
132.04439	90
133.052215	130
134.06004	112
135.065185	11
149.04713	251
150.050932	18
156.042197	14
162.054955	174
163.06278	999
164.070605	512
165.074407	37
166.086255	20
179.057695	14
194.08117	176
195.080929	15
253.050022	10
261.088813	23
296.058029	133
297.063661	22
324.053431	20
