Mass spectrum: Atrazine; ESI-QTOF; MS2; CE: 20; [M+H]+
Name: Atrazine
Formula: C8H14ClN5
Exact mass: 215.09377
SMILES: CCNC1N=C(Cl)N=C(NC(C)C)N=1
InChI: InChI=1S/C8H14ClN5/c1-4-10-7-12-6(9)13-8(14-7)11-5(2)3/h5H,4H2,1-3H3,(H2,10,11,12,13,14)
Instrument type: ESI-QTOF
Ms type: MS2
Ion mode: POSITIVE
Ionization: ESI
Collision energy: 20
Precursor m/z: 216.10105
Precursor type: [M+H]+
m/z	relative intensity
43.029075	11
43.054227	34
68.024324	38
71.060375	32
79.005752	115
96.055624	186
97.991779	281
104.001001	124
110.046122	12
132.032301	133
138.077422	46
146.022799	94
174.054099	999
216.10105	351
