Mass spectrum: Atrazine; ESI-QTOF; MS2; CE: 40; [M+H]+
Name: Atrazine
Formula: C8H14ClN5
Exact mass: 215.09377
SMILES: CCNC1N=C(Cl)N=C(NC(C)C)N=1
InChI: InChI=1S/C8H14ClN5/c1-4-10-7-12-6(9)13-8(14-7)11-5(2)3/h5H,4H2,1-3H3,(H2,10,11,12,13,14)
Instrument type: ESI-QTOF
Ms type: MS2
Ion mode: POSITIVE
Ionization: ESI
Collision energy: 40
Precursor m/z: 216.10105
Precursor type: [M+H]+
m/z	relative intensity
41.038577	46
43.030904	450
43.054227	116
59.060375	15
61.979203	171
68.024324	999
71.060375	227
79.005752	363
90.010503	13
96.055624	250
104.001001	689
104.093072	9
110.046122	53
132.032301	79
138.077422	21
146.022799	69
174.054099	33
