Mass spectrum: Vitexicarpin; EI-B; MS
Name: Vitexicarpin
Name: 3',5-Dihydroxy-3,4',6,7-tetramethoxyflavone
Name: Casticin
Class: Natural Product; Flavonoid
Formula: C19H18O8
Exact mass: 374.10017
SMILES: COc(c3)c(O)cc(c3)C(O1)=C(OC)C(=O)c(c(O)2)c(cc(OC)c(OC)2)1
InChI: InChI=1S/C19H18O8/c1-23-11-6-5-9(7-10(11)20)17-19(26-4)16(22)14-12(27-17)8-13(24-2)18(25-3)15(14)21/h5-8,20-21H,1-4H3
Instrument: Unknown
Instrument type: EI-B
Ms type: MS
Ion mode: POSITIVE
Base peak: 375.0324
m/z	relative intensity
41.0	5
42.0	1
42.9	8
43.9	8
45.0	1
50.1	2
50.9	5
51.9	4
53.0	6
54.0	2
54.9	4
56.0	2
57.0	4
58.9	6
59.9	1
61.9	2
62.8	6
63.8	3
64.9	7
66.0	6
67.0	3
69.1	24
70.0	1
71.0	2
73.0	2
74.1	1
75.0	4
75.9	3
77.0	10
78.0	3
79.0	4
79.9	3
81.0	3
81.9	3
83.0	2
84.1	1
85.0	4
87.0	2
88.0	1
88.9	5
90.0	2
91.0	14
91.9	8
92.9	10
94.0	3
95.0	3
96.1	1
97.1	2
98.0	1
99.0	2
99.9	2
101.0	2
102.0	3
103.0	3
103.9	4
104.9	7
106.0	2
106.9	4
107.9	10
108.5	1
108.9	8
110.0	2
111.0	1
111.9	2
112.5	1
112.9	4
113.5	1
114.0	2
115.0	6
115.5	1
116.0	1
117.0	4
118.0	3
119.0	6
119.9	10
120.4	4
121.0	14
121.5	1
122.0	5
122.5	2
123.0	10
124.0	3
124.9	8
126.0	3
126.5	3
127.0	2
127.4	2
127.9	13
128.4	3
128.9	5
129.4	1
129.9	4
131.0	3
131.9	4
132.9	7
133.4	2
134.0	7
134.5	2
135.1	29
135.5	4
135.9	13
136.4	4
137.0	10
138.1	2
139.0	2
140.1	1
140.5	4
141.0	3
141.5	3
142.1	37
142.5	8
143.0	5
143.4	2
143.9	21
144.4	4
145.0	6
145.9	4
147.0	6
147.9	6
148.5	2
149.0	31
149.5	7
150.0	7
150.5	2
151.0	58
152.1	8
153.0	47
154.0	5
155.0	4
156.0	5
156.5	3
157.0	10
157.6	2
158.0	19
158.6	2
159.0	5
160.1	5
161.0	21
162.0	5
163.1	22
163.5	2
164.0	58
164.6	2
164.9	10
165.5	10
166.0	4
167.0	12
168.0	3
168.5	1
169.0	2
169.5	1
169.9	2
171.0	10
171.5	2
172.0	4
172.5	1
173.0	44
173.5	6
174.1	5
175.0	16
175.9	6
176.5	1
177.0	10
177.9	16
179.0	8
179.5	8
179.9	3
181.0	42
181.9	6
182.9	2
184.0	2
185.0	3
186.0	4
187.0	28
187.4	4
187.9	5
189.0	5
190.0	2
190.9	2
191.9	2
192.9	13
193.9	2
194.9	5
196.0	5
196.9	12
198.0	3
199.0	4
199.9	4
201.0	5
201.8	6
202.9	6
203.9	5
205.0	3
206.0	1
206.9	4
208.0	2
209.1	2
210.1	1
211.0	2
212.0	2
213.0	4
214.0	4
214.9	6
216.0	2
217.0	18
217.9	3
219.0	2
219.9	1
221.0	3
222.1	24
222.9	5
224.0	2
225.0	2
226.0	2
226.9	4
228.0	5
229.0	7
229.9	4
231.0	15
232.0	3
233.0	1
234.0	4
235.0	4
235.9	4
237.0	1
237.9	1
239.0	3
240.0	2
241.0	4
241.9	6
242.9	8
244.0	6
244.9	21
245.9	4
247.0	2
248.1	2
249.1	3
250.1	2
251.1	5
252.0	2
253.0	4
254.0	2
255.0	4
255.9	6
257.0	8
258.0	4
259.0	8
260.0	10
261.1	2
262.0	3
263.1	2
264.0	1
265.0	2
265.9	2
266.9	2
268.0	3
268.9	5
269.9	9
270.8	12
271.8	5
273.0	36
273.9	6
275.0	2
276.1	2
277.1	1
278.0	2
279.1	2
280.1	7
281.0	10
282.0	4
282.9	8
283.9	8
285.0	18
286.0	6
286.9	12
287.9	17
289.0	4
290.1	1
292.0	1
293.1	1
294.0	2
295.1	6
296.0	5
297.0	9
298.1	10
298.9	16
300.0	10
301.1	36
302.0	8
303.0	5
303.9	2
306.1	1
306.8	2
307.8	3
308.9	8
309.9	6
310.8	8
311.9	9
313.0	43
313.9	20
314.8	21
316.0	47
316.9	9
318.2	4
319.0	2
320.2	1
321.0	2
322.0	2
323.0	2
323.9	2
324.9	16
326.1	22
327.1	42
328.0	30
329.0	51
329.9	18
331.0	105
331.9	20
333.1	2
334.0	2
336.0	33
336.8	10
337.9	23
339.2	24
340.0	11
341.1	41
342.0	11
343.1	33
344.1	24
345.0	45
346.1	11
347.1	2
348.2	1
349.9	63
350.9	16
352.0	42
352.9	10
353.8	8
355.2	195
356.0	81
356.9	51
358.0	19
359.0	513
359.9	101
360.9	17
362.1	2
364.1	2
367.9	16
368.8	2
369.8	9
371.0	3
372.0	2
373.1	378
374.0	999
375.2	200
376.2	38
377.0	4
381.9	27
382.9	4
383.9	18
384.9	3
386.0	3
387.1	1
388.1	2
389.2	1
390.1	2
