Mass spectrum: Sclerotinin C; EI-B; MS
Name: Sclerotinin C
Class: Natural Product; Isocoumarin
Formula: C12H14O4
Exact mass: 222.08921
SMILES: C[C@H]1[C@H](OC(=O)C2=C(C(=C(C=C12)O)C)O)C
InChI: InChI=1S/C12H14O4/c1-5-7(3)16-12(15)10-8(5)4-9(13)6(2)11(10)14/h4-5,7,13-14H,1-3H3/t5-,7+/m0/s1
Instrument: JEOL JMX-SX 102
Instrument type: EI-B
Ms type: MS
Ion mode: POSITIVE
Base peak: 152.0959
m/z	relative intensity
40.00	16
40.54	2
41.08	63
42.01	14
42.58	1
43.05	114
44.00	615
44.41	1
45.09	56
45.99	4
47.81	2
50.04	12
50.57	1
51.07	31
51.43	1
51.61	1
52.07	12
53.07	39
54.00	7
55.07	44
56.07	12
57.11	20
57.71	2
58.04	13
59.04	4
60.04	20
61.03	1
61.53	2
62.06	10
63.02	24
63.99	6
65.02	46
65.37	1
66.01	15
66.51	1
67.01	43
68.01	5
68.97	78
70.04	5
71.05	10
71.44	1
71.95	5
72.49	1
73.00	9
73.50	3
74.01	7
74.51	2
74.77	1
74.95	7
75.99	12
77.05	103
78.01	27
79.06	70
79.93	15
81.09	54
81.41	1
81.92	14
83.01	15
84.13	7
85.00	5
86.05	3
86.99	6
88.12	1
89.06	12
89.82	1
90.07	7
90.50	2
91.08	80
91.72	2
92.08	14
93.08	26
94.01	11
94.30	2
94.52	1
95.05	50
96.06	11
96.99	6
97.63	1
97.99	5
99.00	3
99.93	2
100.98	3
102.00	13
102.98	42
104.00	10
105.02	50
105.38	1
106.04	12
106.95	52
108.00	32
109.02	76
110.04	45
110.62	1
110.98	14
112.04	5
113.05	2
114.00	4
115.05	24
116.04	8
117.05	12
118.00	8
119.02	19
120.04	10
121.06	36
122.05	20
122.67	1
123.06	316
124.03	64
125.05	26
126.04	6
126.92	11
127.95	17
129.12	8
130.04	4
131.08	21
132.09	7
133.09	81
133.49	4
134.06	26
135.07	25
136.01	41
137.07	585
138.02	66
139.03	15
139.93	6
140.98	6
141.85	3
143.02	3
144.00	1
145.05	8
145.67	1
146.04	1
146.69	1
147.02	23
147.56	1
148.04	11
148.51	1
149.09	146
150.07	81
151.16	376
152.10	999
152.72	2
153.08	95
153.99	13
154.67	1
155.07	4
155.47	1
157.03	4
158.08	1
159.09	4
160.00	6
161.05	37
162.07	14
163.12	44
164.09	29
165.00	14
166.12	9
167.07	2
168.04	4
169.24	1
171.04	2
172.08	2
173.01	5
174.09	4
175.09	15
175.70	4
176.09	20
177.03	61
178.06	142
179.07	49
180.04	18
181.08	28
182.05	5
183.02	2
184.10	1
184.39	1
185.11	1
186.12	2
187.12	1
187.52	1
188.09	2
189.03	11
190.07	4
191.07	7
192.00	7
193.06	190
194.11	41
195.04	7
196.12	401
196.50	1
197.07	54
198.11	4
199.07	3
200.11	1
200.82	4
203.04	6
204.07	23
204.75	1
205.07	6
206.07	10
207.04	50
208.11	10
209.04	4
210.00	5
212.08	1
213.05	1
214.09	1
215.13	1
216.06	1
220.11	4
220.69	4
221.05	8
222.11	343
223.18	51
224.08	5
225.20	2
226.14	2
228.09	2
230.22	2
231.09	3
231.56	4
232.17	2
233.08	1
234.24	1
235.18	1
236.09	4
236.85	1
239.75	2
