Mass spectrum: beta,gamma-Dehydrocurvularin; EI-B; MS
Name: beta,gamma-Dehydrocurvularin
Name: (4S,7E)-4beta-Methyl-11,13-dihydroxy-1,4,5,6,9,10-hexahydro-2H-3-benzoxacyclododecin-2,10-dione
Class: Natural Product; Curvularin
Formula: C16H18O5
Exact mass: 290.11542
SMILES: C[C@H]1CC/C=C/CC(=O)C2=C(C=C(C=C2CC(=O)O1)O)O
InChI: InChI=1S/C16H18O5/c1-10-5-3-2-4-6-13(18)16-11(8-15(20)21-10)7-12(17)9-14(16)19/h2,4,7,9-10,17,19H,3,5-6,8H2,1H3/b4-2+/t10-/m0/s1
Instrument: Unknown
Instrument type: EI-B
Ms type: MS
Ion mode: POSITIVE
Base peak: 288.0760
m/z	relative intensity
40.0	12
41.0	78
42.0	23
43.1	77
43.9	38
45.0	16
46.1	2
47.1	2
48.0	1
49.0	1
50.1	15
51.0	47
52.0	22
52.9	32
54.0	10
55.1	100
56.0	36
57.1	24
57.5	1
58.0	6
59.0	6
59.9	20
61.0	4
62.0	10
63.0	31
64.0	16
65.0	60
65.5	1
65.9	29
67.0	24
67.9	6
69.0	87
70.0	9
71.1	14
72.0	2
72.9	20
73.5	1
74.0	9
75.0	19
76.0	18
77.0	101
78.1	47
79.1	35
79.6	1
80.1	9
80.5	1
81.0	19
82.0	8
83.1	101
84.0	12
85.0	20
86.0	4
87.1	10
88.0	12
88.5	1
89.1	30
90.0	16
91.0	94
92.0	14
93.0	18
93.5	5
94.0	18
95.0	15
95.5	1
96.0	7
97.0	19
98.1	9
99.1	5
99.5	1
100.1	4
100.6	1
101.0	11
102.1	24
102.6	1
103.1	41
103.5	1
104.1	14
105.0	27
106.1	29
107.1	35
108.1	10
109.2	22
109.6	3
110.2	4
111.1	18
112.1	29
113.1	6
114.0	4
115.1	52
115.5	2
116.0	15
117.0	11
117.9	20
119.0	24
120.1	19
120.9	53
122.1	34
123.0	29
124.1	7
125.0	2
126.1	2
127.0	12
128.1	16
129.1	16
130.1	10
131.0	45
132.0	21
133.0	40
134.0	66
135.0	72
135.9	54
137.0	13
137.9	18
139.0	12
140.0	2
140.9	8
141.9	4
143.0	5
144.1	10
145.0	15
146.0	23
147.0	64
148.1	43
149.0	112
150.0	116
151.0	81
152.0	9
153.0	4
155.0	4
156.0	2
157.1	9
158.0	6
159.0	25
159.9	33
161.0	53
162.0	163
163.1	161
164.0	66
165.0	18
166.0	17
167.0	73
168.0	13
169.1	3
170.0	2
171.0	11
172.1	10
173.0	29
174.0	34
175.0	54
176.0	102
177.0	193
178.0	184
179.0	63
179.9	9
181.0	4
182.0	2
183.0	2
184.0	4
185.0	13
186.0	10
187.0	49
188.0	22
189.1	45
190.0	36
191.1	18
192.0	29
193.0	228
194.1	26
195.0	45
196.0	4
196.9	5
198.1	3
199.0	11
200.1	38
201.0	38
202.0	17
202.9	31
204.0	209
205.0	441
206.0	140
207.0	75
208.0	23
209.0	5
210.1	2
211.0	2
212.1	2
213.1	13
213.9	12
215.1	36
215.9	79
217.0	69
218.1	68
219.0	33
220.0	6
221.0	19
222.0	365
223.1	52
224.0	9
225.0	4
226.0	2
227.1	27
228.0	82
228.9	137
230.0	29
231.0	43
232.0	113
233.0	30
234.0	6
234.9	9
236.1	27
237.0	5
238.0	2
239.1	1
240.0	2
241.0	21
242.0	37
243.0	75
244.0	61
244.9	33
246.0	21
246.9	29
247.9	6
248.9	4
249.8	14
251.0	4
251.9	25
253.0	3
254.1	1
254.9	50
256.2	11
257.0	4
257.9	8
259.1	16
260.1	7
261.1	11
262.0	3
263.0	1
264.0	3
266.1	1
267.0	2
268.1	3
269.0	34
270.1	148
271.0	29
272.0	5
272.9	74
274.0	25
275.0	4
275.9	5
277.0	1
278.0	6
279.1	2
281.0	4
282.0	1
283.0	1
284.1	8
285.1	5
286.0	29
287.0	13
288.1	999
288.9	187
290.0	27
291.1	5
292.1	1
293.2	4
295.0	2
296.0	1
297.0	1
300.0	2
300.9	1
301.9	7
303.0	2
304.0	6
305.1	1
306.0	39
307.1	7
308.1	2
311.1	1
312.3	1
313.0	2
315.0	2
316.0	1
320.0	1
321.0	1
326.1	2
329.1	1
330.1	1
339.9	1
340.9	1
343.0	1
344.0	28
345.1	5
346.0	3
348.9	1
354.2	1
355.0	6
356.1	1
357.0	2
