Mass spectrum: Citrinolactone A; FAB-EB; MS
Name: Citrinolactone A
Class: Natural Product; Isocoumarin
Formula: C15H14O6
Exact mass: 290.07904
SMILES: CC1=CC(=C2C(=C1)C3=C(CC[C@]3(C(=O)OC)O)OC2=O)O
InChI: InChI=1S/C15H14O6/c1-7-5-8-11(9(16)6-7)13(17)21-10-3-4-15(19,12(8)10)14(18)20-2/h5-6,16,19H,3-4H2,1-2H3/t15-/m0/s1
Instrument: JEOL JMS-HX 110
Instrument type: FAB-EB
Ms type: MS
Ion mode: POSITIVE
Ionization: FAB
Base peak: 273.0500
m/z	relative intensity
15.4	3
23.3	4
27.3	4
29.3	3
31.3	2
39.4	7
41.4	4
42.4	1
43.6	10
44.4	1
45.3	3
50.3	1
51.4	5
52.4	1
53.2	9
55.3	11
56.2	1
57.2	10
59.2	5
61.3	2
62.3	1
63.3	3
64.3	2
65.2	6
66.3	2
67.2	5
69.2	9
71.2	2
73.3	2
74.1	1
75.2	8
76.2	2
77.2	12
78.2	3
79.2	11
80.2	2
81.2	4
82.2	1
83.2	3
87.1	2
88.1	1
89.1	5
90.1	2
91.1	9
92.2	1
93.2	7
94.2	2
95.2	4
96.1	1
97.1	3
99.2	2
101.1	3
102.2	3
103.1	12
104.1	3
105.1	6
106.1	5
107.1	12
108.0	3
109.1	7
110.1	1
111.1	6
113.1	2
114.0	1
115.1	17
116.0	4
117.1	16
118.1	3
119.1	6
120.1	2
121.1	8
122.1	7
123.1	4
124.0	1
125.0	12
126.1	3
127.0	8
128.0	14
129.0	10
130.0	4
131.0	7
132.0	3
133.0	9
134.0	5
135.0	13
136.0	3
137.0	6
138.1	1
139.0	12
140.1	2
141.0	7
142.1	3
143.1	4
144.0	4
145.1	8
146.1	3
147.1	9
148.1	3
149.1	5
150.1	12
151.0	41
152.1	11
153.1	6
154.1	2
155.1	5
156.0	3
157.1	7
158.1	4
159.0	5
160.0	4
161.0	9
162.0	2
163.0	9
164.0	2
165.0	10
166.0	4
167.0	17
167.9	5
169.1	8
170.0	3
171.0	6
172.0	3
173.0	7
174.0	7
175.0	10
175.9	8
177.0	7
178.0	5
179.0	4
180.1	2
181.0	5
182.0	3
183.0	5
184.0	13
185.0	38
186.0	11
187.0	13
188.0	6
189.1	12
190.1	11
191.1	7
192.1	3
193.1	3
194.1	2
195.0	4
196.0	4
197.0	10
198.1	12
198.9	15
200.1	10
201.0	24
202.0	18
203.0	22
204.0	6
205.0	6
206.0	3
206.9	4
208.0	2
208.9	4
210.0	4
211.0	11
212.0	11
213.0	133
214.0	92
215.1	127
216.0	31
217.0	31
218.1	7
219.1	9
220.1	4
221.1	6
222.1	3
223.0	7
224.0	6
224.6	1
225.0	14
226.0	17
227.1	30
228.0	20
228.5	1
229.0	69
230.0	73
231.1	771
232.0	140
233.0	27
234.0	5
235.0	5
236.0	3
237.0	8
237.9	5
238.9	17
240.0	30
241.0	64
242.0	76
243.1	55
243.9	27
245.2	297
246.1	49
247.1	17
248.1	5
249.1	5
250.1	4
251.0	8
252.0	8
253.0	28
254.0	12
254.5	1
255.0	20
256.0	32
257.1	45
258.0	17
259.0	32
260.1	9
261.0	14
262.0	6
263.0	8
264.0	5
265.0	9
266.0	5
267.1	11
268.0	7
269.0	17
270.1	8
271.0	19
272.0	67
273.1	999
274.2	211
275.0	75
276.0	16
277.0	13
278.1	5
279.0	8
280.0	4
281.1	8
282.1	4
283.0	8
284.1	5
285.0	22
286.1	13
287.1	28
288.1	13
289.1	38
290.1	111
291.3	433
292.2	83
293.2	21
294.0	5
295.0	5
296.1	3
297.1	8
298.1	4
299.1	9
300.1	5
301.1	12
302.0	9
303.1	37
304.2	13
305.0	28
306.1	10
307.0	12
308.0	4
309.1	5
310.0	3
311.0	6
312.0	7
313.0	51
314.1	12
315.0	10
316.1	6
317.2	11
318.1	5
319.1	8
320.1	4
321.0	8
322.1	4
323.0	5
324.1	3
325.0	6
326.1	4
327.1	6
328.0	3
329.1	9
330.1	6
