Mass spectrum: Citrinolactone B; FAB-EB; MS
Name: Citrinolactone B
Class: Natural Product; Isocoumarin
Formula: C13H12O4
Exact mass: 232.07356
SMILES: CC1=CC(=C2C(=C1)C3=C(CC[C@@H]3O)OC2=O)O
InChI: InChI=1S/C13H12O4/c1-6-4-7-11-8(14)2-3-10(11)17-13(16)12(7)9(15)5-6/h4-5,8,14-15H,2-3H2,1H3/t8-/m0/s1
Instrument: JEOL JMS-HX 110
Instrument type: FAB-EB
Ms type: MS
Ion mode: POSITIVE
Ionization: FAB
Base peak: 215.0395
m/z	relative intensity
19.4	2
27.3	2
29.3	4
31.3	3
39.3	2
41.4	3
42.2	1
43.3	10
44.4	1
45.4	9
47.3	1
51.3	1
53.3	4
55.2	5
56.2	1
57.3	22
58.2	2
59.2	1
61.2	3
63.2	1
65.3	4
66.3	1
67.2	2
69.2	2
71.2	2
73.2	5
74.2	3
75.2	35
76.1	2
77.2	5
78.1	1
79.1	2
81.1	2
83.2	1
85.1	1
87.2	3
89.1	3
90.1	1
91.1	6
92.2	1
93.2	50
94.2	2
95.2	2
97.2	1
99.2	2
100.1	1
101.1	2
102.1	1
103.1	14
104.1	1
105.1	3
106.1	2
107.1	2
108.1	1
109.1	9
110.2	1
111.1	1
113.1	1
115.0	8
116.0	3
117.0	34
118.1	3
119.1	5
120.1	1
121.0	4
122.0	3
123.1	1
124.0	1
125.0	1
126.0	1
127.0	3
128.1	6
129.1	10
130.0	3
131.1	8
132.0	2
133.0	9
134.0	3
135.0	11
136.0	2
137.1	2
139.0	2
139.9	1
141.1	3
142.1	1
142.9	1
144.0	3
144.9	6
146.1	2
147.0	9
148.1	2
149.1	24
149.9	5
151.0	15
152.0	3
153.0	1
155.0	1
156.0	1
157.0	2
158.1	2
159.0	4
160.0	2
161.0	5
162.0	1
163.0	4
164.0	1
165.1	9
166.1	2
167.1	2
168.0	1
169.1	2
170.1	1
171.1	2
172.0	1
173.0	2
174.0	1
175.0	3
176.0	2
177.0	3
178.1	1
179.0	2
180.1	1
180.9	2
181.9	1
183.0	1
184.0	2
185.1	36
185.9	9
186.9	18
188.0	5
188.9	4
189.9	5
191.1	3
191.9	1
193.1	1
195.1	1
197.1	6
198.4	15
199.1	17
200.1	8
201.1	12
202.0	7
203.1	16
204.0	18
205.1	5
206.1	1
207.0	3
208.0	1
209.0	1
210.0	1
210.9	2
211.9	2
213.0	9
214.0	119
215.0	999
216.2	213
217.1	50
218.1	7
219.1	5
220.1	1
221.1	3
222.0	1
223.0	3
224.0	1
225.1	2
226.1	2
227.1	13
228.1	8
229.0	11
230.1	10
231.0	77
232.2	222
233.4	601
234.0	93
235.0	14
236.0	2
236.9	2
238.0	1
238.9	3
239.9	1
241.1	9
242.1	2
243.0	4
244.0	2
245.0	8
246.0	4
247.0	9
248.0	3
249.0	5
249.9	1
251.0	1
253.1	2
254.1	1
255.0	4
256.0	1
257.0	5
258.1	1
259.1	3
260.0	1
261.1	2
262.0	1
263.0	3
264.1	1
265.1	1
267.2	1
269.1	2
270.1	1
271.0	3
272.1	1
273.1	5
274.1	2
275.1	3
276.1	1
277.1	4
278.0	1
279.1	2
280.1	1
281.1	2
283.0	2
284.1	1
285.1	1
287.0	2
288.1	1
289.0	4
290.2	1
291.1	3
292.2	1
293.0	2
295.2	1
297.2	2
299.1	2
300.1	1
301.0	1
303.1	2
304.1	1
305.0	5
306.0	2
307.1	8
308.0	2
309.0	1
311.1	1
313.1	2
314.1	1
315.1	1
317.0	3
318.0	1
319.1	2
320.2	1
321.0	2
322.1	1
323.0	3
324.1	1
325.1	6
326.1	1
327.1	2
329.1	1
330.1	1
331.1	1
332.0	1
333.0	2
334.2	1
335.0	2
336.1	2
337.0	2
338.0	1
339.1	1
341.1	2
342.9	1
345.1	1
346.0	1
347.0	2
348.0	1
