Mass spectrum: Cyclo-(D-Ile-L-Trp); EI-B; MS
Name: Cyclo-(D-Ile-L-Trp)
Class: Natural Product; Oligopeptide
Formula: C17H21N3O2
Exact mass: 299.16338
SMILES: CCC(C)[C@@H]1C(=O)N[C@H](C(=O)N1)CC2=CNC3=CC=CC=C32
InChI: InChI=1S/C17H21N3O2/c1-3-10(2)15-17(22)19-14(16(21)20-15)8-11-9-18-13-7-5-4-6-12(11)13/h4-7,9-10,14-15,18H,3,8H2,1-2H3,(H,19,22)(H,20,21)/t10?,14-,15+/m0/s1
Instrument: Hitachi M80 mass spectrometers
Instrument type: EI-B
Ms type: MS
Ion mode: POSITIVE
Base peak: 130.0572
m/z	relative intensity
40.8	8
42.0	1
43.0	2
44.0	12
45.0	2
50.9	2
52.0	1
54.0	1
55.0	2
56.1	2
57.1	6
58.0	1
59.9	2
62.9	1
65.0	1
68.0	1
69.0	3
69.9	2
71.0	1
73.0	2
74.8	1
76.0	2
77.0	17
78.0	2
79.0	1
81.0	1
82.1	1
83.1	1
84.0	1
85.0	6
86.1	3
89.0	2
89.9	2
91.1	1
95.1	1
96.1	1
97.0	1
101.0	2
102.2	11
103.2	23
104.0	3
113.0	13
114.0	5
115.0	7
116.0	2
117.1	7
118.1	1
128.0	9
129.2	27
130.1	999
131.1	106
132.1	8
139.0	1
140.2	1
141.0	3
142.0	3
143.1	5
144.1	1
149.8	1
155.1	3
156.0	3
157.0	4
158.1	4
159.1	3
167.1	1
168.0	1
169.0	3
170.1	17
171.0	2
183.9	2
185.0	4
186.0	2
197.0	1
213.1	1
240.0	1
241.0	1
242.0	1
251.7	1
256.1	1
259.9	1
270.2	1
297.0	3
298.0	2
299.1	128
300.0	26
301.1	3
354.1	1
446.1	1
