Mass spectrum: 7-Oxocurvularin; EI-B; MS
Name: 7-Oxocurvularin
Class: Natural Product; Curvularin
Formula: C16H18O6
Exact mass: 306.11034
SMILES: C[C@H]1CCC(=O)CCC(=O)C2=C(C=C(C=C2CC(=O)O1)O)O
InChI: InChI=1S/C16H18O6/c1-9-2-3-11(17)4-5-13(19)16-10(7-15(21)22-9)6-12(18)8-14(16)20/h6,8-9,18,20H,2-5,7H2,1H3/t9-/m0/s1
Instrument: Unknown
Instrument type: EI-B
Ms type: MS
Ion mode: POSITIVE
m/z	relative intensity
40.8	78
41.9	25
42.9	74
43.6	37
45.0	12
49.9	25
50.9	37
51.9	20
52.8	37
54.9	102
55.9	37
57.0	29
60.1	12
63.0	25
64.0	12
65.0	53
65.9	29
66.8	25
68.9	82
70.0	8
73.1	8
75.0	16
75.9	20
77.0	102
78.0	45
78.9	29
81.1	12
83.1	98
84.0	8
85.0	16
88.9	25
89.9	20
90.9	86
91.9	20
93.0	16
94.0	12
95.1	12
97.1	12
102.0	20
103.1	33
105.0	33
105.9	29
106.9	37
109.2	20
111.1	12
112.0	29
115.0	45
116.0	16
118.0	16
118.9	29
120.0	16
120.9	53
121.9	33
123.1	20
128.0	12
128.9	12
129.8	8
130.8	37
131.9	12
132.8	41
133.8	70
135.1	61
136.0	49
137.0	8
138.1	12
145.1	12
146.0	29
146.9	66
148.2	37
149.2	106
150.0	115
151.1	82
157.0	8
159.0	29
159.9	37
161.1	53
162.0	164
163.0	156
164.1	66
165.1	12
166.1	12
167.0	74
171.1	8
171.9	8
173.0	25
173.9	37
175.1	49
176.1	94
177.0	188
178.0	180
178.9	61
185.1	8
186.0	8
186.9	53
188.1	25
189.1	41
190.1	33
191.1	12
192.1	25
193.1	229
194.0	29
195.0	37
199.2	8
200.2	41
201.1	29
202.1	16
203.1	25
204.1	205
205.0	442
206.1	135
207.0	70
208.0	29
213.9	8
215.0	33
216.0	74
217.0	66
218.0	61
218.9	37
220.9	16
222.1	364
223.0	49
227.1	20
228.2	78
229.1	131
230.2	20
231.0	37
232.1	106
233.1	20
234.9	8
236.1	25
241.1	20
242.0	33
243.1	70
244.1	53
245.0	37
246.1	16
247.1	25
250.1	8
252.0	25
255.0	45
256.1	8
258.0	8
259.0	16
260.0	8
261.0	8
268.9	29
269.8	143
270.9	16
272.9	74
273.9	25
286.0	29
288.1	999
289.1	184
290.2	20
305.9	49
344.0	20
