Mass spectrum: Brevicompanine C; EI-B; MS
Name: Brevicompanine C
Class: Natural Product; Diketopiperazine
Formula: C21H27N3O2
Exact mass: 353.21033
SMILES: CC(C)[C@@H]1C(=O)N2[C@@H](C[C@@]3([C@H]2NC4=CC=CC=C43)C(C)(C)C=C)C(=O)N1
InChI: InChI=1S/C21H27N3O2/c1-6-20(4,5)21-11-15-17(25)23-16(12(2)3)18(26)24(15)19(21)22-14-10-8-7-9-13(14)21/h6-10,12,15-16,19,22H,1,11H2,2-5H3,(H,23,25)/t15-,16+,19-,21+/m0/s1
Instrument: Hitachi M80 mass spectrometers
Instrument type: EI-B
Ms type: MS
Ion mode: POSITIVE
m/z	relative intensity
27.0	3
28.0	52
32.0	14
39.0	4
41.0	37
43.0	11
44.0	9
50.0	2
55.0	12
57.0	2
60.0	4
69.0	26
70.0	3
72.0	37
77.0	9
85.0	8
102.0	3
103.0	14
115.0	8
116.0	4
117.0	4
128.0	8
129.0	14
130.0	209
131.0	23
132.0	12
140.0	2
142.0	3
143.0	9
149.0	3
154.0	5
155.0	12
156.0	22
157.0	257
158.0	50
159.0	9
167.0	12
168.0	6
169.0	6
170.0	9
171.0	2
182.0	2
184.0	13
185.0	51
186.0	6
196.0	2
198.0	18
199.0	3
224.0	3
241.0	9
256.0	121
257.0	21
268.0	3
283.0	26
284.0	999
285.0	197
286.0	23
352.0	7
353.0	251
354.0	62
355.0	10
392.0	3
410.0	3
