Mass spectrum: Cyclo-(D-Leu-L-Trp); EI-B; MS
Name: Cyclo-(D-Leu-L-Trp)
Class: Natural Product; Oligopeptide
Formula: C17H21N3O2
Exact mass: 299.16338
SMILES: CC(C)C[C@@H]1C(=O)N[C@H](C(=O)N1)CC2=CNC3=CC=CC=C32
InChI: InChI=1S/C17H21N3O2/c1-10(2)7-14-16(21)20-15(17(22)19-14)8-11-9-18-13-6-4-3-5-12(11)13/h3-6,9-10,14-15,18H,7-8H2,1-2H3,(H,19,22)(H,20,21)/t14-,15+/m1/s1
Instrument: Hitachi M80 mass spectrometers
Instrument type: EI-B
Ms type: MS
Ion mode: POSITIVE
Base peak: 130.0276
m/z	relative intensity
40.99	10
41.97	3
42.96	12
43.99	17
44.93	2
49.95	1
50.89	2
51.93	1
52.87	2
54.01	1
55.05	7
55.99	3
57.08	10
57.92	2
59.06	1
59.90	3
60.94	1
61.98	1
62.92	2
64.95	1
67.03	2
67.97	4
69.06	7
70.05	4
71.04	5
72.04	1
72.99	4
73.98	1
74.98	6
76.02	3
77.06	22
78.11	3
79.05	1
80.10	1
81.09	3
82.08	2
83.07	4
84.11	2
85.05	4
86.04	4
87.08	1
89.06	2
90.10	1
91.04	2
93.08	1
95.02	3
96.07	1
97.06	4
98.01	2
99.15	2
101.10	3
102.05	10
103.10	26
104.05	3
105.05	1
109.10	1
110.15	1
111.14	3
112.08	1
113.07	6
114.01	7
115.00	10
115.99	2
116.98	8
118.02	1
119.01	1
120.95	1
123.10	1
124.05	1
125.00	2
125.90	2
126.90	2
127.95	9
129.00	32
130.03	999
131.01	108
131.91	7
133.02	1
135.03	1
137.04	1
138.04	1
140.00	2
141.05	3
142.00	3
142.95	8
144.05	2
145.05	1
147.05	2
148.90	5
149.95	1
154.04	1
155.05	3
156.06	3
157.07	7
158.03	7
159.09	3
166.98	3
168.04	1
169.05	4
170.05	13
171.06	3
184.01	1
185.00	3
186.09	1
213.97	1
221.00	1
228.15	1
242.09	2
243.13	1
252.25	1
256.13	2
279.05	1
284.06	2
285.05	1
297.03	2
298.02	3
299.09	93
300.15	17
301.05	2
308.85	1
