Mass spectrum: Nivalenol; LC-ESI-ITFT; MS2; CE: 30; R=17500; [M+Na]+
Name: Nivalenol
Name: (3alpha,4beta,7alpha)-3,4,7,15-tetrahydroxy-12,13-epoxytrichothec-9-en-8-one
Class: Natural Product; Fungal metabolite
Formula: C15H20O7
Exact mass: 312.12089
SMILES: CC1=C[C@@H]2[C@]([C@@H](C1=O)O)([C@]3([C@@H]([C@H]([C@H]([C@@]34CO4)O2)O)O)C)CO
InChI: InChI=1S/C15H20O7/c1-6-3-7-14(4-16,11(20)8(6)17)13(2)10(19)9(18)12(22-7)15(13)5-21-15/h3,7,9-12,16,18-20H,4-5H2,1-2H3/t7-,9-,10-,11-,12-,13-,14-,15+/m1/s1
Instrument: Q-Exactive Orbitrap Thermo Scientific
Instrument type: LC-ESI-ITFT
Ms type: MS2
Ion mode: POSITIVE
Ionization: ESI
Fragmentation mode: HCD
Collision energy: 30(NCE)
Resolution: 17500
Column name: Agilent RRHD Eclipse 50 x 2 mm, 1.8 uM
Retention time: 2.15
Base peak: 335.1086
Precursor m/z: 335.1096
Precursor type: [M+Na]+
m/z	relative intensity	assigned
57.0706	37	
63.9298	31	
68.3585	32	
78.1304	31	
91.9202	47	
300.4423	46	
335.1101	999	
