Mass spectrum: 5-hydroxyculmorin; LC-ESI-ITFT; MS2; CE: 10; R=17500; [M-2H2O+H]+
Name: 5-hydroxyculmorin
Name: (1S,3R,3aS,4R,6R,8aR,9R)-Decahydro-1,5,5,8a-tetramethyl-1,4-methanoazulene-3,6,9-triol
Class: Natural Product; Fungal metabolite
Formula: C15H26O3
Exact mass: 254.18821
SMILES: C[C@@]12CC[C@H](C([C@H]3[C@@H]1[C@@H](C[C@@]2(C3O)C)O)(C)C)O
InChI: InChI=1S/C15H26O3/c1-13(2)9(17)5-6-14(3)10-8(16)7-15(14,4)12(18)11(10)13/h8-12,16-18H,5-7H2,1-4H3/t8-,9-,10+,11+,12?,14-,15-/m1/s1
Instrument:  Q-Exactive Orbitrap Thermo Scientific
Instrument type: LC-ESI-ITFT
Ms type: MS2
Ion mode: POSITIVE
Ionization: ESI
Fragmentation mode: HCD
Collision energy: 10(NCE)
Resolution: 17500
Column name: Agilent RRHD Eclipse 50 x 2 mm, 1.8 uM
Retention time: 2.56
Base peak: 219.1732
Precursor m/z: 219.1738
Precursor type: [M-2H2O+H]+
m/z	relative intensity	assigned
95.0855	63	
107.0855	78	
109.1012	69	
119.0855	51	
121.1012	57	
133.1012	43	
135.1168	42	
145.1012	56	
147.1168	31	
159.1168	76	
161.1325	75	
173.1325	35	
175.1481	307	
177.1638	130	
191.1795	32	
201.1638	241	
219.1744	999	
