Mass spectrum: Fumiquinazoline F; LC-ESI-ITFT; MS2; CE: 30; R=17500; [M+Na]+
Name: Fumiquinazoline F
Class: Natural Product; Fungal metabolite
Formula: C21H18N4O2
Exact mass: 358.14297
SMILES: C[C@H]1C2=NC3=CC=CC=C3C(=O)N2[C@@H](C(=O)N1)CC4=CNC5=CC=CC=C54
InChI: InChI=1S/C21H18N4O2/c1-12-19-24-17-9-5-3-7-15(17)21(27)25(19)18(20(26)23-12)10-13-11-22-16-8-4-2-6-14(13)16/h2-9,11-12,18,22H,10H2,1H3,(H,23,26)/t12-,18+/m0/s1
Instrument: Q-Exactive Orbitrap Thermo Scientific
Instrument type: LC-ESI-ITFT
Ms type: MS2
Ion mode: POSITIVE
Ionization: ESI
Fragmentation mode: HCD
Collision energy: 30(NCE)
Resolution: 17500
Column name: Agilent RRHD Eclipse 50 x 2 mm, 1.8 uM
Retention time: 3.23
Base peak: 379.1825
Precursor m/z: 381.1316
Precursor type: [M+Na]+
m/z	relative intensity	assigned
340.1521	78	
358.1636	183	
363.1674	93	
379.1825	389	
381.1322	175	
