Mass spectrum: Emodin; LC-ESI-ITFT; MS2; CE: 30; R=17500; [M+H]+
Name: Emodin
Name: Emodol
Name: 1,3,8-trihydroxy-6-methylanthracene-9,10-dione
Class: Natural Product; Fungal metabolite
Formula: C15H10O5
Exact mass: 270.05281
SMILES: CC1=CC(=C2C(=C1)C(=O)C3=CC(=CC(=C3C2=O)O)O)O
InChI: InChI=1S/C15H10O5/c1-6-2-8-12(10(17)3-6)15(20)13-9(14(8)19)4-7(16)5-11(13)18/h2-5,16-18H,1H3
Instrument:  Q-Exactive Orbitrap Thermo Scientific
Instrument type: LC-ESI-ITFT
Ms type: MS2
Ion mode: POSITIVE
Ionization: ESI
Fragmentation mode: HCD
Collision energy: 30(NCE)
Resolution: 17500
Column name: Agilent RRHD Eclipse 50 x 2 mm, 1.8 uM
Retention time: 3.82
Base peak: 271.0589
Precursor m/z: 271.0595
Precursor type: [M+H]+
m/z	relative intensity	assigned
229.0495	69	
271.0601	999	
