Mass spectrum: alpha-Cyclopiazonic acid; LC-ESI-ITFT; MS2; CE: 30; R=17500; [M+H]+
Name: alpha-Cyclopiazonic acid
Name: (6aR,11aS,11bR)-10-Acetyl-11-hydroxy-7,7-dimethyl-2,6,6a,7,11a,11b-hexahydro-9H-pyrrolo[1',2':2,3]isoindolo[4,5,6-cd]indol-9-one
Class: Natural Product; Fungal metabolite
Formula: C20H20N2O3
Exact mass: 336.14739
SMILES: CC(=O)C1=C([C@@H]2[C@@H]3[C@@H](CC4=C5C3=CNC5=CC=C4)C(N2C1=O)(C)C)O
InChI: InChI=1S/C20H20N2O3/c1-9(23)14-18(24)17-16-11-8-21-13-6-4-5-10(15(11)13)7-12(16)20(2,3)22(17)19(14)25/h4-6,8,12,16-17,21,24H,7H2,1-3H3/t12-,16+,17+/m1/s1
Instrument: Q-Exactive Orbitrap Thermo Scientific
Instrument type: LC-ESI-ITFT
Ms type: MS2
Ion mode: POSITIVE
Ionization: ESI
Fragmentation mode: HCD
Collision energy: 30(NCE)
Resolution: 17500
Column name: Agilent RRHD Eclipse 50 x 2 mm, 1.8 uM
Retention time: 3.87
Base peak: 196.111
Precursor m/z: 337.1541
Precursor type: [M+H]+
m/z	relative intensity	assigned
98.06	49	C5H8N1O1+
140.0706	32	
182.0812	822	
196.1121	999	
337.1547	96	
