Mass spectrum: Stipitatic acid; LC-ESI-ITFT; MS2; CE: 35; R=17500; [M+H]+
Name: Stipitatic acid
Name: Stipitatate
Name: 5,6-dihydroxy-3-oxocyclohepta-1,4,6-triene-1-carboxylic acid
Class: Natural Product; Fungal metabolite
Formula: C8H6O5
Exact mass: 182.02151
SMILES: C1=C(C=C(C(=CC1=O)O)O)C(=O)O
InChI: InChI=1S/C8H6O5/c9-5-1-4(8(12)13)2-6(10)7(11)3-5/h1-3,10-11H,(H,12,13)
Instrument: Q-Exactive Orbitrap Thermo Scientific
Instrument type: LC-ESI-ITFT
Ms type: MS2
Ion mode: POSITIVE
Ionization: ESI
Fragmentation mode: HCD
Collision energy: 35(NCE)
Resolution: 17500
Column name: Agilent RRHD Eclipse 50 x 2 mm, 1.8 uM
Retention time: 2.29
Base peak: 183.028
Precursor m/z: 183.0282
Precursor type: [M+H]+
m/z	relative intensity	assigned
137.0233	56	
183.0288	999	
