Mass spectrum: iso-Roridine E; LC-ESI-ITFT; MS2; CE: 30; R=17500; [M+Na]+
Name: iso-Roridine E
Class: Natural Product; Fungal metabolite
Formula: C29H38O8
Exact mass: 514.25667
SMILES: CC1=CC2C3(CC1)COC(=O)/C=C(/CCOC(/C=C/C=C/C(=O)OC4C3(C5(CO5)C(C4)O2)C)C(C)O)\C
InChI: InChI=1S/C29H38O8/c1-18-9-11-28-16-34-26(32)14-19(2)10-12-33-21(20(3)30)7-5-6-8-25(31)37-22-15-24(36-23(28)13-18)29(17-35-29)27(22,28)4/h5-8,13-14,20-24,30H,9-12,15-17H2,1-4H3/b7-5+,8-6+,19-14+
Instrument:  Q-Exactive Orbitrap Thermo Scientific
Instrument type: LC-ESI-ITFT
Ms type: MS2
Ion mode: POSITIVE
Ionization: ESI
Fragmentation mode: HCD
Collision energy: 30(NCE)
Resolution: 17500
Column name: Agilent RRHD Eclipse 50 x 2 mm, 1.8 uM
Retention time: 3.78
Base peak: 537.2443
Precursor m/z: 537.2453
Precursor type: [M+Na]+
m/z	relative intensity	assigned
135.0417	101	
177.0522	60	
289.1046	79	
307.1152	73	
537.2459	999	
