Mass spectrum: Glandicoline B; LC-ESI-ITFT; MS2; CE: 40; R=17500; [M+H]+
Name: Glandicoline B
Name: (3E)-2,6,12-Trihydroxy-3-(1H-imidazol-5-ylmethylene)-7a-(2-methyl-3-buten-2-yl)-7a,12-dihydro-3H,5H-imidazo[1',2':1,2]pyrido[2,3-b]indol-5-one
Class: Natural Product; Fungal metabolite
Formula: C22H21N5O4
Exact mass: 419.15934
SMILES: CC(C)(C=C)[C@]12C=C(C(=O)N\3[C@@]1(NC(=O)/C3=C\C4=CN=CN4)N(C5=CC=CC=C25)O)O
InChI: InChI=1S/C22H21N5O4/c1-4-20(2,3)21-10-17(28)19(30)26-16(9-13-11-23-12-24-13)18(29)25-22(21,26)27(31)15-8-6-5-7-14(15)21/h4-12,28,31H,1H2,2-3H3,(H,23,24)(H,25,29)/b16-9+/t21-,22-/m1/s1
Instrument:  Q-Exactive Orbitrap Thermo Scientific
Instrument type: LC-ESI-ITFT
Ms type: MS2
Ion mode: POSITIVE
Ionization: ESI
Fragmentation mode: HCD
Collision energy: 40(NCE)
Resolution: 17500
Column name: Agilent RRHD Eclipse 50 x 2 mm, 1.8 uM
Retention time: 2.6
Base peak: 261.0774
Precursor m/z: 420.1661
Precursor type: [M+H]+
m/z	relative intensity	assigned
233.0822	36	
234.0662	45	
234.09	232	
235.074	48	
261.0771	999	
262.0849	119	
263.0927	135	
277.072	58	C15H9N4O2+
289.072	612	
290.0798	157	
306.0985	44	
307.0826	34	
318.0747	247	
334.0934	78	
335.1026	61	
