Mass spectrum: Redoxcitrinin; LC-ESI-ITFT; MS2; CE: 20; R=17500; [M-H]-
Name: Redoxcitrinin
Name: 2,4-Dihydroxy-3,5-dimethyl-6-[(2S)-3-oxo-2-butanyl]benzaldehyde
Class: Natural Product; Fungal metabolite
Formula: C13H16O4
Exact mass: 236.10486
SMILES: Cc1c(c(c(c(c1O)C)O)C=O)[C@H](C)C(=O)C
InChI: InChI=1S/C13H16O4/c1-6(9(4)15)11-7(2)12(16)8(3)13(17)10(11)5-14/h5-6,16-17H,1-4H3/t6-/m1/s1
Instrument:  Q-Exactive Orbitrap Thermo Scientific
Instrument type: LC-ESI-ITFT
Ms type: MS2
Ion mode: NEGATIVE
Ionization: ESI
Fragmentation mode: HCD
Collision energy: 20(NCE)
Resolution: 17500
Column name: Agilent RRHD Eclipse 50 x 2 mm, 1.8 uM
Retention time: 3.31
Base peak: 235.0966
Precursor m/z: 235.0981
Precursor type: [M-H]-
m/z	relative intensity	assigned
165.0921	40	
207.1016	35	
235.0966	999	
