Mass spectrum: Neosolaniol; LC-ESI-ITFT; MS2; CE: 30; R=17500; [M+Na]+
Name: Neosolaniol
Class: Natural Product; Fungal metabolite
Formula: C19H26O8
Exact mass: 382.16276
SMILES: CC1=C[C@@H]2[C@](C[C@@H]1O)([C@]3([C@@H]([C@H]([C@H]([C@@]34CO4)O2)O)OC(=O)C)C)COC(=O)C
InChI: InChI=1S/C19H26O8/c1-9-5-13-18(6-12(9)22,7-24-10(2)20)17(4)15(26-11(3)21)14(23)16(27-13)19(17)8-25-19/h5,12-16,22-23H,6-8H2,1-4H3/t12-,13+,14+,15+,16+,17+,18+,19-/m0/s1
Instrument: Q-Exactive Orbitrap Thermo Scientific
Instrument type: LC-ESI-ITFT
Ms type: MS2
Ion mode: POSITIVE
Ionization: ESI
Fragmentation mode: HCD
Collision energy: 30(NCE)
Resolution: 17500
Column name: Agilent RRHD Eclipse 50 x 2 mm, 1.8 uM
Retention time: 2.84
Base peak: 405.1504
Precursor m/z: 405.1514
Precursor type: [M+Na]+
m/z	relative intensity	assigned
345.1309	52	
405.152	999	
