Mass spectrum: Scleroderolide; LC-ESI-ITFT; MS2; CE: 30; R=17500; [M+H]+
Name: Scleroderolide
Name: furo[2',3':5,6]napho[1,8-BC]pyran-5,6-dione,8,9-dihydro-3,7-dihydroxy-1,8,8,9-tetramethyl-,(9S)-
Class: Natural Product; Fungal metabolite
Formula: C18H16O6
Exact mass: 328.09468
SMILES: C[C@H]1C(C2=C(O1)C3=C4C(=C2O)C(=O)C(=O)OC4=C(C=C3C)O)(C)C
InChI: InChI=1S/C18H16O6/c1-6-5-8(19)15-10-9(6)16-12(18(3,4)7(2)23-16)13(20)11(10)14(21)17(22)24-15/h5,7,19-20H,1-4H3/t7-/m0/s1
Instrument: Q-Exactive Orbitrap Thermo Scientific
Instrument type: LC-ESI-ITFT
Ms type: MS2
Ion mode: POSITIVE
Ionization: ESI
Fragmentation mode: HCD
Collision energy: 30(NCE)
Resolution: 17500
Column name: Agilent RRHD Eclipse 50 x 2 mm, 1.8 uM
Retention time: 4.54
Base peak: 329.1015
Precursor m/z: 329.1014
Precursor type: [M+H]+
m/z	relative intensity	assigned
273.0393	163	
287.055	73	
311.0914	49	
329.102	999	
