Mass spectrum: Aflatoxin B2; LC-ESI-ITFT; MS2; CE: 50; R=17500; [M+Na]+
Name: Aflatoxin B2
Name: (6aR,9aS)-4-Methoxy-2,3,6a,8,9,9a-hexahydrocyclopenta[c]furo[3',2':4,5]furo[2,3-h]chromene-1,11-dione
Class: Natural Product; Fungal metabolite
Formula: C17H14O6
Exact mass: 314.07902
SMILES: COC1=C2C3=C(C(=O)CC3)C(=O)OC2=C4[C@@H]5CCO[C@@H]5OC4=C1
InChI: InChI=1S/C17H14O6/c1-20-10-6-11-14(8-4-5-21-17(8)22-11)15-13(10)7-2-3-9(18)12(7)16(19)23-15/h6,8,17H,2-5H2,1H3/t8-,17+/m0/s1
Instrument:  Q-Exactive Orbitrap Thermo Scientific
Instrument type: LC-ESI-ITFT
Ms type: MS2
Ion mode: POSITIVE
Ionization: ESI
Fragmentation mode: HCD
Collision energy: 50(NCE)
Resolution: 17500
Column name: Agilent RRHD Eclipse 50 x 2 mm, 1.8 uM
Retention time: 3.0
Base peak: 337.0676
Precursor m/z: 337.0677
Precursor type: [M+Na]+
m/z	relative intensity	assigned
54.9536	36	
64.9778	53	
73.9265	41	
80.4636	37	
100.7083	42	
104.3677	48	
114.6817	47	
174.0745	51	
213.5334	44	
292.1906	44	
337.0682	999	
