Mass spectrum: Kotanin; LC-ESI-ITFT; MS2; CE: 30; R=17500; [M+Na]+
Name: Kotanin
Name: 8-(4,7-dimethoxy-5-methyl-2-oxochromen-8-yl)-4,7-dimethoxy-5-methylchromen-2-one
Class: Natural Product; Fungal metabolite
Formula: C24H22O8
Exact mass: 438.13145
SMILES: CC1=CC(=C(C2=C1C(=CC(=O)O2)OC)C3=C(C=C(C4=C3OC(=O)C=C4OC)C)OC)OC
InChI: InChI=1S/C24H22O8/c1-11-7-13(27-3)21(23-19(11)15(29-5)9-17(25)31-23)22-14(28-4)8-12(2)20-16(30-6)10-18(26)32-24(20)22/h7-10H,1-6H3
Instrument:  Q-Exactive Orbitrap Thermo Scientific
Instrument type: LC-ESI-ITFT
Ms type: MS2
Ion mode: POSITIVE
Ionization: ESI
Fragmentation mode: HCD
Collision energy: 30(NCE)
Resolution: 17500
Column name: Agilent RRHD Eclipse 50 x 2 mm, 1.8 uM
Retention time: 3.58
Base peak: 461.1187
Precursor m/z: 461.1201
Precursor type: [M+Na]+
m/z	relative intensity	assigned
461.1207	999	
