Mass spectrum: Koninginin E; LC-ESI-ITFT; MS2; CE: 35; R=17500; [M+H]+
Name: Koninginin E
Name: (2S,8R)-8-hydroxy-2-[(1S)-1-hydroxyheptyl]-2,3,4,6,7,8-hexahydrochromen-5-one
Class: Natural Product; Fungal metabolite
Formula: C16H26O4
Exact mass: 282.18312
SMILES: CCCCCC[C@@H]([C@@H]1CCC2=C(O1)[C@@H](CCC2=O)O)O
InChI: InChI=1S/C16H26O4/c1-2-3-4-5-6-13(18)15-10-7-11-12(17)8-9-14(19)16(11)20-15/h13-15,18-19H,2-10H2,1H3/t13-,14+,15-/m0/s1
Instrument: Q-Exactive Orbitrap Thermo Scientific
Instrument type: LC-ESI-ITFT
Ms type: MS2
Ion mode: POSITIVE
Ionization: ESI
Fragmentation mode: HCD
Collision energy: 35(NCE)
Resolution: 17500
Column name: Agilent RRHD Eclipse 50 x 2 mm, 1.8 uM
Retention time: 3.57
Base peak: 153.0904
Precursor m/z: 283.1899
Precursor type: [M+H]+
m/z	relative intensity	assigned
57.0706	54	
79.0542	50	
81.0699	37	
85.1012	380	
87.0441	46	
93.0699	36	
95.0855	71	
107.0491	36	
107.0855	41	
109.0648	37	C7H9O1+
113.0961	327	
117.0699	43	
123.0441	41	
125.0597	64	
131.1067	44	
135.0804	453	
137.0597	139	
149.0597	31	
153.091	999	
155.1431	69	
219.1744	59	
247.1693	71	
265.1798	34	
