Mass spectrum: Fusaperazine E; LC-ESI-ITFT; MS2; CE: 55; R=17500; [M+H]+
Name: Fusaperazine E
Name: (3Z)-1,4-dimethyl-3-[[4-(3-methylbut-2-enoxy)phenyl]methylidene]-6-methylsulfanylpiperazine-2,5-dione
Class: Natural Product; Fungal metabolite
Formula: C19H24N2O3S
Exact mass: 360.15076
SMILES: CC(=CCOC1=CC=C(C=C1)/C=C\2/C(=O)N(C(C(=O)N2C)SC)C)C
InChI: InChI=1S/C19H24N2O3S/c1-13(2)10-11-24-15-8-6-14(7-9-15)12-16-17(22)21(4)19(25-5)18(23)20(16)3/h6-10,12,19H,11H2,1-5H3/b16-12-
Instrument: Q-Exactive Orbitrap Thermo Scientific
Instrument type: LC-ESI-ITFT
Ms type: MS2
Ion mode: POSITIVE
Ionization: ESI
Fragmentation mode: HCD
Collision energy: 55(NCE)
Resolution: 17500
Column name: Agilent RRHD Eclipse 50 x 2 mm, 1.8 uM
Retention time: 3.91
Base peak: 217.0967
Precursor m/z: 361.1575
Precursor type: [M+H]+
m/z	relative intensity	assigned
61.0113	54	
69.0699	670	
90.0372	144	
97.076	47	
107.0491	926	
111.0553	172	
112.0631	316	
113.0709	126	
119.0491	101	C8H7O1+
120.0808	38	
125.0709	295	C6H9N2O1+
131.0491	143	
132.057	36	
133.0522	79	
138.0134	33	
141.0658	34	C6H9N2O2+
144.0352	49	
145.0648	36	
146.06	103	
147.0441	117	
147.0679	168	
148.0757	628	
149.0835	36	
153.0369	711	
159.0587	118	
160.0757	499	
176.0706	292	
186.055	41	
188.0706	160	
189.0784	62	
189.1022	208	
200.0944	36	
201.0784	34	
201.1022	64	
202.0737	42	
203.0815	149	
217.0972	999	
218.105	389	
