Mass spectrum: Ctrinin hydrate; LC-ESI-ITFT; MS2; CE: 55; R=17500; [M-H]-
Name: Ctrinin hydrate
Name: (1S,3R,4S)-1,6,8-trihydroxy-3,4,5-trimethyl-3,4-dihydro-1H-isochromene-7-carboxylic acid
Class: Natural Product; Fungal metabolite
Formula: C13H16O6
Exact mass: 268.09468
SMILES: C[C@@H]1[C@H](O[C@@H](C2=C1C(=C(C(=C2O)C(=O)O)O)C)O)C
InChI: InChI=1S/C13H16O6/c1-4-6(3)19-13(18)8-7(4)5(2)10(14)9(11(8)15)12(16)17/h4,6,13-15,18H,1-3H3,(H,16,17)/t4-,6-,13+/m1/s1
Instrument: Q-Exactive Orbitrap Thermo Scientific
Instrument type: LC-ESI-ITFT
Ms type: MS2
Ion mode: NEGATIVE
Ionization: ESI
Fragmentation mode: HCD
Collision energy: 55(NCE)
Resolution: 17500
Column name: Agilent RRHD Eclipse 50 x 2 mm, 1.8 uM
Retention time: 3.43
Base peak: 205.0858
Precursor m/z: 267.0879
Precursor type: [M-H]-
m/z	relative intensity	assigned
105.0329	69	
109.064	41	
133.0645	72	
135.0436	199	
135.0799	97	
137.059	32	
146.0373	32	
149.0593	55	
151.0749	238	
161.0608	351	
161.0972	198	
175.0401	150	
177.0557	173	
177.0921	437	
179.0714	348	
187.0401	47	
190.0635	32	
203.0714	52	
205.0506	504	
205.087	999	
223.0612	161	
231.0663	113	
249.0768	401	
