Mass spectrum: Ergosine; LC-ESI-ITFT; MS2; CE: 40; R=17500; [M+H]+
Name: Ergosine
Name: 12'-hydroxy-2'-methyl-5' alpha-(2-methylpropyl)-8 alpha-ergotaman-3',6',18-trione
Class: Natural Product; Fungal metabolite
Formula: C30H37N5O5
Exact mass: 547.27946
SMILES: CC(C)C[C@H]1C(=O)N2CCC[C@H]2[C@]3(N1C(=O)[C@](O3)(C)NC(=O)[C@H]4CN([C@@H]5CC6=CNC7=CC=CC(=C67)C5=C4)C)O
InChI: InChI=1S/C30H37N5O5/c1-16(2)11-23-27(37)34-10-6-9-24(34)30(39)35(23)28(38)29(3,40-30)32-26(36)18-12-20-19-7-5-8-21-25(19)17(14-31-21)13-22(20)33(4)15-18/h5,7-8,12,14,16,18,22-24,31,39H,6,9-11,13,15H2,1-4H3,(H,32,36)/t18-,22-,23+,24+,29-,30+/m1/s1
Instrument: Q-Exactive Orbitrap Thermo Scientific
Instrument type: LC-ESI-ITFT
Ms type: MS2
Ion mode: POSITIVE
Ionization: ESI
Fragmentation mode: HCD
Collision energy: 40(NCE)
Resolution: 17500
Column name: Agilent RRHD Eclipse 50 x 2 mm, 1.8 uM
Retention time: 2.66
Base peak: 208.0758
Precursor m/z: 548.2862
Precursor type: [M+H]+
m/z	relative intensity	assigned
70.0659	43	
180.0808	131	C13H10N1+
192.0808	83	C14H10N1+
197.1073	40	
208.0757	999	
208.0968	44	
211.1441	39	
221.1073	111	
223.123	880	
225.1022	311	
237.1022	31	
249.1022	65	
251.1179	51	
263.139	85	
268.1444	164	C16H18N3O1+
277.0972	49	C17H13N2O2+
292.1444	31	
