Mass spectrum: Altersolanol A; LC-ESI-ITFT; MS2; CE: 50; R=17500; [M+H]+
Name: Altersolanol A
Name: (1S,2R,3S,4R)-1,2,3,4,8-pentahydroxy-6-methoxy-3-methyl-2,4-dihydro-1H-anthracene-9,10-dione
Class: Natural Product; Fungal metabolite
Formula: C16H16O8
Exact mass: 336.0845
SMILES: C[C@]1([C@@H]([C@H](C2=C([C@H]1O)C(=O)C3=CC(=CC(=C3C2=O)O)OC)O)O)O
InChI: InChI=1S/C16H16O8/c1-16(23)14(21)10-9(13(20)15(16)22)12(19)8-6(11(10)18)3-5(24-2)4-7(8)17/h3-4,13-15,17,20-23H,1-2H3/t13-,14+,15+,16-/m0/s1
Instrument: Q-Exactive Orbitrap Thermo Scientific
Instrument type: LC-ESI-ITFT
Ms type: MS2
Ion mode: POSITIVE
Ionization: ESI
Fragmentation mode: HCD
Collision energy: 50(NCE)
Resolution: 17500
Column name: Agilent RRHD Eclipse 50 x 2 mm, 1.8 uM
Retention time: 2.52
Base peak: 245.0799
Precursor m/z: 337.0912
Precursor type: [M+H]+
m/z	relative intensity	assigned
95.0491	64	
129.0699	47	
151.039	518	
157.0648	93	
160.0519	48	
168.057	47	
171.0441	60	
171.0804	72	C12H11O1+
173.0233	54	
174.0675	90	
175.0754	309	
177.0546	69	
184.0519	63	
185.0597	246	
186.0675	93	
189.0546	107	
189.091	165	
195.0288	43	
199.039	61	
199.0754	215	
200.0468	91	
202.0624	114	
203.0703	849	
205.0495	135	
207.0652	55	
212.0468	67	
213.0546	236	
214.0624	294	
216.0417	87	
217.0495	232	
217.0859	772	
227.0339	49	
227.0703	529	
230.0574	682	
231.0652	850	
233.0444	86	
241.0495	147	
245.0444	99	
245.0808	999	
255.0652	379	
257.0808	51	
258.0523	123	
259.0601	704	
273.0757	499	
283.0601	158	
286.0472	43	
301.0707	199	
