Mass spectrum: Hydroxy-roquefortine C; LC-ESI-ITFT; MS2; CE: 10; R=17500; [M+H]+
Name: Hydroxy-roquefortine C
Class: Natural Product; Fungal metabolite
Formula: C22H23N5O3
Exact mass: 405.18008
SMILES: CC(C)(C=C)C12CC3C(=O)N/C(=C/C4=CN=CN4)/C(=O)N3C1N(C5=CC=CC=C25)O
InChI: InChI=1S/C22H23N5O3/c1-4-21(2,3)22-10-17-18(28)25-15(9-13-11-23-12-24-13)19(29)26(17)20(22)27(30)16-8-6-5-7-14(16)22/h4-9,11-12,17,20,30H,1,10H2,2-3H3,(H,23,24)(H,25,28)/b15-9+
Instrument: Q-Exactive Orbitrap Thermo Scientific
Instrument type: LC-ESI-ITFT
Ms type: MS2
Ion mode: POSITIVE
Ionization: ESI
Fragmentation mode: HCD
Collision energy: 10(NCE)
Resolution: 17500
Column name: Agilent RRHD Eclipse 50 x 2 mm, 1.8 uM
Retention time: 2.66
Base peak: 406.1876
Precursor m/z: 406.1868
Precursor type: [M+H]+
m/z	relative intensity	assigned
338.1248	90	
388.1809	40	
406.1874	999	
