Mass spectrum: Fusarenone-X; LC-ESI-ITFT; MS2; CE: 10; R=17500; [M+H]+
Name: Fusarenone-X
Name: (3beta,4alpha,7alpha)-3,7,15-Trihydroxy-8-oxo-12,13-epoxytrichothec-9-en-4-yl acetate
Class: Natural Product; Fungal metabolite
Formula: C17H22O8
Exact mass: 354.13145
SMILES: CC1=C[C@@H]2[C@]([C@@H](C1=O)O)([C@]3([C@@H]([C@H]([C@H]([C@@]34CO4)O2)O)OC(=O)C)C)CO
InChI: InChI=1S/C17H22O8/c1-7-4-9-16(5-18,12(22)10(7)20)15(3)13(24-8(2)19)11(21)14(25-9)17(15)6-23-17/h4,9,11-14,18,21-22H,5-6H2,1-3H3/t9-,11-,12-,13-,14-,15-,16-,17+/m1/s1
Instrument: Q-Exactive Orbitrap Thermo Scientific
Instrument type: LC-ESI-ITFT
Ms type: MS2
Ion mode: POSITIVE
Ionization: ESI
Fragmentation mode: HCD
Collision energy: 10(NCE)
Resolution: 17500
Column name: Agilent RRHD Eclipse 50 x 2 mm, 1.8 uM
Retention time: 2.46
Base peak: 355.137
Precursor m/z: 355.1382
Precursor type: [M+H]+
m/z	relative intensity	assigned
99.0441	82	
125.0597	36	
137.0597	254	
153.0546	42	
163.0754	45	
165.091	52	
175.0754	302	
177.091	96	
189.091	85	
191.0703	73	
193.0859	86	
201.091	118	
203.1067	37	
205.0859	289	
213.091	59	
217.0859	159	
219.1016	104	
223.0965	173	
229.0859	365	
231.1016	131	
235.0965	33	
241.0859	39	
247.0965	618	
259.0965	248	
277.107	446	
289.107	41	
295.1176	249	
307.1176	38	
319.1176	35	
337.1282	398	
355.1387	999	
