Mass spectrum: Aurofusarin; LC-ESI-ITFT; MS2; CE: 55; R=17500; [M+H]+
Name: Aurofusarin
Name: Airofusorin
Name: 5-hydroxy-7-(5-hydroxy-8-methoxy-2-methyl-4,6,9-trioxobenzo[g]chromen-7-yl)-8-methoxy-2-methylbenzo[g]chromene-4,6,9-trione
Class: Natural Product; Fungal metabolite
Formula: C30H18O12
Exact mass: 570.07979
SMILES: CC1=CC(=O)C2=C(O1)C=C3C(=C2O)C(=O)C(=C(C3=O)OC)C4=C(C(=O)C5=CC6=C(C(=O)C=C(O6)C)C(=C5C4=O)O)OC
InChI: InChI=1S/C30H18O12/c1-9-5-13(31)19-15(41-9)7-11-17(25(19)35)27(37)21(29(39-3)23(11)33)22-28(38)18-12(24(34)30(22)40-4)8-16-20(26(18)36)14(32)6-10(2)42-16/h5-8,35-36H,1-4H3
Instrument: Q-Exactive Orbitrap Thermo Scientific
Instrument type: LC-ESI-ITFT
Ms type: MS2
Ion mode: POSITIVE
Ionization: ESI
Fragmentation mode: HCD
Collision energy: 55(NCE)
Resolution: 17500
Column name: Agilent RRHD Eclipse 50 x 2 mm, 1.8 uM
Retention time: 3.68
Base peak: 457.0542
Precursor m/z: 571.0865
Precursor type: [M+H]+
m/z	relative intensity	assigned
107.0128	32	C6H3O2+
174.0311	63	
175.039	47	
192.0417	44	
193.0495	49	
201.0546	33	
203.0339	162	
213.0546	38	
221.0444	140	
231.0288	56	
242.0574	36	
257.0444	63	
260.0315	33	
269.0444	37	
297.0393	62	
373.0284	69	
384.0628	31	
385.0707	84	
389.0292	53	
398.0785	68	
399.0863	80	
401.0233	43	
401.0714	97	
413.0656	258	
416.0526	39	
423.0499	143	
426.0734	64	
427.0812	126	
429.0605	897	
439.0397	70	
440.0526	61	
441.0605	245	
443.0761	35	
453.0605	53	
454.0683	57	
455.0761	76	
456.084	47	
457.0554	999	
468.0476	37	
469.0554	119	
481.0554	43	
482.0632	35	
485.0503	168	
497.0503	147	
525.0452	49	
