Mass spectrum: 5-hydroxyculmorin; LC-ESI-ITFT; MS2; CE: 35; R=17500; [M-H2O+H]+
Name: 5-hydroxyculmorin
Name: (1S,3R,3aS,4R,6R,8aR,9R)-Decahydro-1,5,5,8a-tetramethyl-1,4-methanoazulene-3,6,9-triol
Class: Natural Product; Fungal metabolite
Formula: C15H26O3
Exact mass: 254.18821
SMILES: C[C@@]12CC[C@H](C([C@H]3[C@@H]1[C@@H](C[C@@]2(C3O)C)O)(C)C)O
InChI: InChI=1S/C15H26O3/c1-13(2)9(17)5-6-14(3)10-8(16)7-15(14,4)12(18)11(10)13/h8-12,16-18H,5-7H2,1-4H3/t8-,9-,10+,11+,12?,14-,15-/m1/s1
Instrument: Q-Exactive Orbitrap Thermo Scientific
Instrument type: LC-ESI-ITFT
Ms type: MS2
Ion mode: POSITIVE
Ionization: ESI
Fragmentation mode: HCD
Collision energy: 35(NCE)
Resolution: 17500
Column name: Agilent RRHD Eclipse 50 x 2 mm, 1.8 uM
Retention time: 2.56
Base peak: 175.1473
Precursor m/z: 237.1844
Precursor type: [M-H2O+H]+
m/z	relative intensity	assigned
59.0498	39	
67.0542	42	
69.0699	129	
81.0699	146	
83.0855	72	
85.0648	49	
91.0542	36	C7H7+
93.0699	216	
95.0491	35	C6H7O1+
95.0855	653	
97.0648	45	C6H9O1+
97.1012	34	
105.0699	132	C8H9+
107.0855	405	C8H11+
109.0648	31	
109.1012	435	
111.0804	72	C7H11O1+
117.0699	49	
119.0855	404	
121.1012	424	
123.0804	55	
123.1168	154	
125.0961	42	
131.0855	104	
133.1012	256	
135.0804	74	
135.1168	284	
137.0961	459	
137.1325	39	
145.1012	340	
147.1168	164	
149.0961	127	
149.1325	85	
159.1168	450	
161.1325	241	
163.1118	109	
173.1325	198	
175.1481	999	
177.1274	34	C12H17O1+
177.1638	354	
191.1795	210	
201.1638	715	
219.1744	596	
237.1849	250	
