Mass spectrum: Bassanolide; LC-ESI-ITFT; MS2; CE: 55; R=17500; [M+Na]+
Name: Bassanolide
Name: (3S,6R,9S,12R,15S,18R,21S,24R)-4,10,16,22-tetramethyl-3,9,15,21-tetrakis(2-methylpropyl)-6,12,18,24-tetra(propan-2-yl)-1,7,13,19-tetraoxa-4,10,16,22-tetrazacyclotetracosane-2,5,8,11,14,17,20,23-octone
Class: Natural Product; Fungal metabolite
Formula: C48H84N4O12
Exact mass: 908.60858
SMILES: CC(C)C[C@H]1C(=O)O[C@@H](C(=O)N([C@H](C(=O)O[C@@H](C(=O)N([C@H](C(=O)O[C@@H](C(=O)N([C@H](C(=O)O[C@@H](C(=O)N1C)C(C)C)CC(C)C)C)C(C)C)CC(C)C)C)C(C)C)CC(C)C)C)C(C)C
InChI: InChI=1S/C48H84N4O12/c1-25(2)21-33-45(57)61-38(30(11)12)42(54)50(18)35(23-27(5)6)47(59)63-40(32(15)16)44(56)52(20)36(24-28(7)8)48(60)64-39(31(13)14)43(55)51(19)34(22-26(3)4)46(58)62-37(29(9)10)41(53)49(33)17/h25-40H,21-24H2,1-20H3/t33-,34-,35-,36-,37+,38+,39+,40+/m0/s1
Instrument: Q-Exactive Orbitrap Thermo Scientific
Instrument type: LC-ESI-ITFT
Ms type: MS2
Ion mode: POSITIVE
Ionization: ESI
Fragmentation mode: HCD
Collision energy: 55(NCE)
Resolution: 17500
Column name: Agilent RRHD Eclipse 50 x 2 mm, 1.8 uM
Retention time: 4.96
Base peak: 350.1953
Precursor m/z: 931.5973
Precursor type: [M+Na]+
m/z	relative intensity	assigned
83.0501	137	
100.1121	906	
122.094	45	
123.0427	116	
126.0913	52	
141.0533	140	
168.1006	128	
182.154	268	
210.1489	223	
232.1319	863	
250.1424	389	C12H18N4O2+
268.153	96	
308.1479	64	
350.1949	999	
368.2054	118	
577.3486	37	
