Mass spectrum: 3,15-Diacetyldeoxynivalenol; LC-ESI-ITFT; MS2; CE: 35; R=17500; [M+H]+
Name: 3,15-Diacetyldeoxynivalenol
Name: 3,15-Bis(acetyloxy)-12,13-epoxy-7-hydroxytrichothec-9-en-8-one (3alpha)-
Class: Natural Product; Fungal metabolite
Formula: C19H24O8
Exact mass: 380.1471
SMILES: CC1=C[C@@H]2[C@](C(C1=O)O)([C@]3(C[C@H]([C@H]([C@@]34CO4)O2)OC(=O)C)C)COC(=O)C
InChI: InChI=1S/C19H24O8/c1-9-5-13-18(7-24-10(2)20,15(23)14(9)22)17(4)6-12(26-11(3)21)16(27-13)19(17)8-25-19/h5,12-13,15-16,23H,6-8H2,1-4H3/t12-,13-,15?,16-,17-,18-,19+/m1/s1
Instrument: Q-Exactive Orbitrap Thermo Scientific
Instrument type: LC-ESI-ITFT
Ms type: MS2
Ion mode: POSITIVE
Ionization: ESI
Fragmentation mode: HCD
Collision energy: 35(NCE)
Resolution: 17500
Column name: Agilent RRHD Eclipse 50 x 2 mm, 1.8 uM
Retention time: 3.2
Base peak: 137.0591
Precursor m/z: 381.1538
Precursor type: [M+H]+
m/z	relative intensity	assigned
69.0335	63	
79.0542	231	
81.0699	227	
91.0542	49	
93.0699	52	
95.0491	110	
97.0648	169	
105.0699	83	C8H9+
107.0491	169	C7H7O1+
109.0648	365	
113.0597	149	
117.0699	34	
119.0855	35	
121.0648	91	
123.0441	117	
125.0597	461	
129.0699	46	
131.0855	66	
133.0648	165	
135.0441	130	
135.0804	64	
136.0519	32	
137.0597	999	
142.0777	50	
143.0855	61	
145.0648	63	
145.1012	156	
147.0804	52	
149.0961	35	
153.0546	179	
154.0777	39	
155.0855	38	
157.1012	173	
158.0726	36	
159.0804	153	
159.1168	139	
161.0597	78	
161.0961	78	
163.0754	185	
167.0855	53	
169.1012	154	
171.0804	76	
173.0961	346	
174.0675	49	
175.0754	260	
175.1118	83	
177.091	81	
179.0703	50	
179.0855	39	
182.0726	45	
185.0961	338	
187.0754	52	
187.1118	255	
188.0832	33	
189.091	324	
191.1067	33	
195.0804	69	
197.0961	249	
198.0675	98	
201.091	148	
203.1067	684	
205.0859	63	
213.091	649	
215.1067	454	
217.0859	66	
219.1016	83	
225.091	125	
231.1016	594	
233.1172	45	
243.1016	206	
261.1121	98	
279.1227	71	
