Mass spectrum: 3,15-Diacetyldeoxynivalenol; LC-ESI-ITFT; MS2; CE: 50; R=17500; [M+H]+
Name: 3,15-Diacetyldeoxynivalenol
Name: 3,15-Bis(acetyloxy)-12,13-epoxy-7-hydroxytrichothec-9-en-8-one (3alpha)-
Class: Natural Product; Fungal metabolite
Formula: C19H24O8
Exact mass: 380.1471
SMILES: CC1=C[C@@H]2[C@](C(C1=O)O)([C@]3(C[C@H]([C@H]([C@@]34CO4)O2)OC(=O)C)C)COC(=O)C
InChI: InChI=1S/C19H24O8/c1-9-5-13-18(7-24-10(2)20,15(23)14(9)22)17(4)6-12(26-11(3)21)16(27-13)19(17)8-25-19/h5,12-13,15-16,23H,6-8H2,1-4H3/t12-,13-,15?,16-,17-,18-,19+/m1/s1
Instrument: Q-Exactive Orbitrap Thermo Scientific
Instrument type: LC-ESI-ITFT
Ms type: MS2
Ion mode: POSITIVE
Ionization: ESI
Fragmentation mode: HCD
Collision energy: 50(NCE)
Resolution: 17500
Column name: Agilent RRHD Eclipse 50 x 2 mm, 1.8 uM
Retention time: 3.2
Base peak: 137.0592
Precursor m/z: 381.1538
Precursor type: [M+H]+
m/z	relative intensity	assigned
67.0542	62	
69.0335	117	
79.0542	431	
81.0699	362	
83.0491	44	
91.0542	155	
93.0699	84	
95.0491	194	
97.0648	215	
105.0699	238	C8H9+
107.0491	275	C7H7O1+
107.0855	52	
109.0648	361	
111.0441	32	
113.0597	146	
115.0542	50	
117.0699	106	
119.0491	36	
119.0855	102	
121.0648	143	
123.0441	152	
124.0519	59	
125.0597	366	
128.0621	68	
129.0699	177	
130.0777	35	
131.0855	155	
133.0648	140	
133.1012	50	
135.0441	117	
135.0804	144	
136.0519	43	
137.0597	999	
141.0699	115	
142.0777	221	
143.0855	122	
144.0934	52	
145.0648	116	
145.1012	249	
147.0804	81	
149.0597	34	
149.0961	32	
151.039	46	
152.0621	46	
153.0546	109	
153.0699	34	
154.0777	130	
155.0855	88	
157.0648	54	
157.1012	299	
158.0726	133	
159.0804	202	
159.1168	122	
161.0597	131	
161.0961	108	
162.0675	45	
163.0754	136	
165.0699	32	
167.0855	108	
169.1012	193	
170.0726	60	
171.0804	106	
172.0883	85	
173.0961	235	
174.0675	111	
175.0754	368	
175.1118	94	
177.091	66	
179.0855	60	
182.0726	99	
185.0961	319	
187.0754	61	
187.1118	126	
188.0832	86	
189.091	200	
195.0804	76	
197.0961	160	
198.0675	226	
200.0832	43	
201.091	76	
203.1067	287	
213.091	286	
215.1067	124	
219.1016	38	
225.091	40	
231.1016	104	
