Mass spectrum: Surfactin C; LC-ESI-ITFT; MS2; CE: 55; R=17500; [M+Na]+
Name: Surfactin C
Name: 3-[(3S,6R,9S,12S,15R,18S,21S,25R)-9-(carboxymethyl)-3,6,15,18-tetrakis(2-methylpropyl)-25-(10-methylundecyl)-2,5,8,11,14,17,20,23-octaoxo-12-propan-2-yl-1-oxa-4,7,10,13,16,19,22-heptazacyclopentacos-21-yl]propanoic acid
Class: Natural Product; Bacterial metabolite
Formula: C53H93N7O13
Exact mass: 1035.68314
SMILES: CC(C)CCCCCCCCC[C@@H]1CC(=O)N[C@H](C(=O)N[C@H](C(=O)N[C@@H](C(=O)N[C@H](C(=O)N[C@H](C(=O)N[C@@H](C(=O)N[C@H](C(=O)O1)CC(C)C)CC(C)C)CC(=O)O)C(C)C)CC(C)C)CC(C)C)CCC(=O)O
InChI: InChI=1S/C53H93N7O13/c1-30(2)20-18-16-14-13-15-17-19-21-36-28-43(61)54-37(22-23-44(62)63)47(66)55-38(24-31(3)4)48(67)57-40(26-33(7)8)51(70)60-46(35(11)12)52(71)58-41(29-45(64)65)50(69)56-39(25-32(5)6)49(68)59-42(27-34(9)10)53(72)73-36/h30-42,46H,13-29H2,1-12H3,(H,54,61)(H,55,66)(H,56,69)(H,57,67)(H,58,71)(H,59,68)(H,60,70)(H,62,63)(H,64,65)/t36-,37+,38+,39-,40-,41+,42+,46+/m1/s1
Instrument: Q-Exactive Orbitrap Thermo Scientific
Instrument type: LC-ESI-ITFT
Ms type: MS2
Ion mode: POSITIVE
Ionization: ESI
Fragmentation mode: HCD
Collision energy: 55(NCE)
Resolution: 17500
Column name: Agilent RRHD Eclipse 50 x 2 mm, 1.8 uM
Retention time: 5.05
Base peak: 320.2318
Precursor m/z: 1058.6718
Precursor type: [M+Na]+
m/z	relative intensity	assigned
84.0453	43	
86.0964	143	
108.0784	107	
152.0329	68	
154.0839	109	
156.0278	266	
164.0682	303	
221.1624	121	
248.1744	106	
255.0962	51	
261.1574	50	
267.1679	310	
269.1121	57	
278.1836	51	
320.2319	999	
332.1918	41	
334.2476	435	
346.2377	77	
347.2428	56	
360.2159	96	
365.2547	144	
366.2374	149	
368.1802	72	
374.2326	205	
375.2717	34	C17H34N7O1Na1+
376.1856	49	C18H23N7O1Na1+
379.2693	56	C20H38N1O4Na1+
391.2693	611	C21H38N1O4Na1+
392.2408	69	
405.2847	183	
459.3212	78	
481.2657	141	
558.3909	45	
572.4045	94	
671.4705	86	
