Mass spectrum: Verrucarol; LC-ESI-ITFT; MS2; CE: 40; R=17500; [M+H]+
Name: Verrucarol
Class: Natural Product; Fungal metabolite
Formula: C15H22O4
Exact mass: 266.15181
SMILES: CC1=C[C@@H]2[C@](CC1)([C@]3([C@@H](C[C@H]([C@@]34CO4)O2)O)C)CO
InChI: InChI=1S/C15H22O4/c1-9-3-4-14(7-16)11(5-9)19-12-6-10(17)13(14,2)15(12)8-18-15/h5,10-12,16-17H,3-4,6-8H2,1-2H3/t10-,11-,12-,13-,14-,15+/m1/s1
Instrument: Q-Exactive Orbitrap Thermo Scientific
Instrument type: LC-ESI-ITFT
Ms type: MS2
Ion mode: POSITIVE
Ionization: ESI
Fragmentation mode: HCD
Collision energy: 40(NCE)
Resolution: 17500
Column name: Agilent RRHD Eclipse 50 x 2 mm, 1.8 uM
Retention time: 2.52
Base peak: 105.0699
Precursor m/z: 267.1585
Precursor type: [M+H]+
m/z	relative intensity	assigned
67.0542	205	
69.0335	72	
69.0699	87	
71.0491	66	
79.0542	259	
81.0699	745	
83.0491	62	
85.0284	101	
91.0542	192	
93.0699	673	
95.0491	256	
95.0855	502	
97.0648	334	C6H9O1+
97.1012	37	
105.0699	999	C8H9+
107.0491	72	
107.0855	777	C8H11+
109.0648	318	
109.1012	297	C8H13+
111.0804	62	C7H11O1+
115.039	78	
117.0699	121	C9H9+
119.0855	505	
121.0648	598	
121.1012	187	
123.0441	31	C7H7O2+
123.0804	219	
125.0597	120	
125.0961	64	
127.0754	196	
129.0699	232	
131.0855	385	
133.0648	132	
133.1012	467	
135.0804	242	
135.1168	106	
137.0597	68	
137.0961	108	
142.0777	32	
143.0855	671	
145.0648	62	
145.1012	560	
147.0804	197	
147.1168	247	
149.0961	64	
149.1325	163	
155.0855	135	
156.0934	102	
157.1012	492	
159.0804	91	
159.1168	884	
161.0961	242	
161.1325	371	
163.0754	37	
163.1118	88	
165.0699	36	
165.1274	34	
169.1012	171	
170.109	35	
171.0804	88	
171.1168	575	
173.0961	175	
173.1325	122	
175.1118	254	
175.1481	126	
177.1274	242	
180.0934	91	
181.0859	56	
183.1168	110	
185.0961	59	
185.1325	811	
187.1118	177	
189.1274	239	
195.1168	184	
198.1039	37	
201.1274	218	
203.1431	359	
205.1223	82	
213.1274	332	
219.138	152	
231.138	450	
249.1485	281	
267.1591	56	
