Mass spectrum: Roridin A; LC-ESI-ITFT; MS2; CE: 20; R=17500; [M+H]+
Name: Roridin A
Class: Natural Product; Fungal metabolite
Formula: C29H40O9
Exact mass: 532.26723
SMILES: C[C@@H]1CCO[C@H](/C=C/C=C\C(=O)O[C@@H]2C[C@@H]3[C@]4([C@]2([C@]5(CCC(=C[C@H]5O3)C)COC(=O)[C@H]1O)C)CO4)[C@@H](C)O
InChI: InChI=1S/C29H40O9/c1-17-9-11-28-15-35-26(33)25(32)18(2)10-12-34-20(19(3)30)7-5-6-8-24(31)38-21-14-23(37-22(28)13-17)29(16-36-29)27(21,28)4/h5-8,13,18-23,25,30,32H,9-12,14-16H2,1-4H3/b7-5+,8-6-/t18-,19-,20-,21-,22-,23-,25+,27-,28-,29+/m1/s1
Instrument: Q-Exactive Orbitrap Thermo Scientific
Instrument type: LC-ESI-ITFT
Ms type: MS2
Ion mode: POSITIVE
Ionization: ESI
Fragmentation mode: HCD
Collision energy: 20(NCE)
Resolution: 17500
Column name: Agilent RRHD Eclipse 50 x 2 mm, 1.8 uM
Retention time: 3.46
Base peak: 249.1471
Precursor m/z: 533.274
Precursor type: [M+H]+
m/z	relative intensity	assigned
81.0699	55	
85.0648	212	
105.0699	56	
107.0855	75	
109.0648	79	
123.0804	56	
125.0597	58	
133.1012	110	
137.0597	92	
161.0961	57	
185.1325	113	
193.1223	196	
195.1168	66	
201.1274	42	
203.1431	78	
213.1274	104	
219.138	31	
231.138	501	
249.1485	999	
