Mass spectrum: Hydroxy-roquefortine C; LC-ESI-ITFT; MS2; CE: 30; R=17500; [M+H]+
Name: Hydroxy-roquefortine C
Class: Natural Product; Fungal metabolite
Formula: C22H23N5O3
Exact mass: 405.18008
SMILES: CC(C)(C=C)C12CC3C(=O)N/C(=C/C4=CN=CN4)/C(=O)N3C1N(C5=CC=CC=C25)O
InChI: InChI=1S/C22H23N5O3/c1-4-21(2,3)22-10-17-18(28)25-15(9-13-11-23-12-24-13)19(29)26(17)20(22)27(30)16-8-6-5-7-14(16)22/h4-9,11-12,17,20,30H,1,10H2,2-3H3,(H,23,24)(H,25,28)/b15-9+
Instrument: Q-Exactive Orbitrap Thermo Scientific
Instrument type: LC-ESI-ITFT
Ms type: MS2
Ion mode: POSITIVE
Ionization: ESI
Fragmentation mode: HCD
Collision energy: 30(NCE)
Resolution: 17500
Column name: Agilent RRHD Eclipse 50 x 2 mm, 1.8 uM
Retention time: 2.66
Base peak: 338.1251
Precursor m/z: 406.1868
Precursor type: [M+H]+
m/z	relative intensity	assigned
63.2016	37	
69.0699	51	
75.7923	33	
76.7672	36	
108.0556	43	
129.5727	34	
130.0651	44	
146.06	42	C9H8N1O1+
162.0298	82	
184.1121	90	
192.0655	90	
193.072	601	
198.1277	48	C14H16N1+
205.0733	53	C11H11N1O3+
214.1226	64	
244.8617	36	
245.1608	40	
272.1996	36	
293.1033	57	
310.1312	41	
320.1155	356	C19H16N2O3+
321.0982	273	
332.1155	51	
338.1248	999	
350.1248	71	
388.1768	150	C22H22N5O2+
406.1874	236	
