Mass spectrum: Culmorin; LC-ESI-ITFT; MS2; CE: 30; R=17500; [M+H]+
Name: Culmorin
Class: Natural Product; Fungal metabolite
Formula: C15H26O2
Exact mass: 238.1933
SMILES: C[C@@]12CCCC([C@H]3[C@@H]1[C@@H](C[C@@]2(C3O)C)O)(C)C
InChI: InChI=1S/C15H26O2/c1-13(2)6-5-7-14(3)10-9(16)8-15(14,4)12(17)11(10)13/h9-12,16-17H,5-8H2,1-4H3/t9-,10+,11+,12?,14-,15-/m1/s1
Instrument: Q-Exactive Orbitrap Thermo Scientific
Instrument type: LC-ESI-ITFT
Ms type: MS2
Ion mode: POSITIVE
Ionization: ESI
Fragmentation mode: HCD
Collision energy: 30(NCE)
Resolution: 17500
Column name: Agilent RRHD Eclipse 50 x 2 mm, 1.8 uM
Retention time: 3.53
Base peak: 177.1632
Precursor m/z: 239.2
Precursor type: [M+H]+
m/z	relative intensity	assigned
75.5172	45	
81.0699	230	
81.6253	48	
84.7028	44	
85.0648	73	
85.2078	52	
89.0597	92	
93.0699	204	
95.0855	418	
107.0855	337	
109.1012	325	
119.0855	84	
121.1012	414	
123.1168	105	
133.1012	67	
133.8586	50	
135.1168	203	
137.1325	73	C10H17+
147.1168	120	
148.4439	48	
149.1325	371	
161.1325	83	
163.1481	573	
177.1638	999	
198.1842	545	
203.1795	234	
221.19	826	
239.2006	70	
