Mass spectrum: Kotanin; LC-ESI-ITFT; MS2; CE: 50; R=17500; [M+H]+
Name: Kotanin
Name: 8-(4,7-dimethoxy-5-methyl-2-oxochromen-8-yl)-4,7-dimethoxy-5-methylchromen-2-one
Class: Natural Product; Fungal metabolite
Formula: C24H22O8
Exact mass: 438.13145
SMILES: CC1=CC(=C(C2=C1C(=CC(=O)O2)OC)C3=C(C=C(C4=C3OC(=O)C=C4OC)C)OC)OC
InChI: InChI=1S/C24H22O8/c1-11-7-13(27-3)21(23-19(11)15(29-5)9-17(25)31-23)22-14(28-4)8-12(2)20-16(30-6)10-18(26)32-24(20)22/h7-10H,1-6H3
Instrument: Q-Exactive Orbitrap Thermo Scientific
Instrument type: LC-ESI-ITFT
Ms type: MS2
Ion mode: POSITIVE
Ionization: ESI
Fragmentation mode: HCD
Collision energy: 50(NCE)
Resolution: 17500
Column name: Agilent RRHD Eclipse 50 x 2 mm, 1.8 uM
Retention time: 3.58
Base peak: 365.1003
Precursor m/z: 439.1382
Precursor type: [M+H]+
m/z	relative intensity	assigned
221.0961	34	
223.1118	99	
232.0883	36	
233.0961	64	
234.0675	37	
235.0754	151	
236.0832	291	
237.091	63	
247.0754	48	
248.0832	52	
249.091	224	
250.0988	118	
251.0703	83	
251.1067	239	
259.0754	38	
260.0832	104	
261.091	69	
262.0624	47	
262.0988	88	
263.0703	217	
263.1067	150	
264.0781	161	
264.1115	49	
265.0859	108	
266.0937	93	
275.0674	34	
276.0781	35	
277.0859	138	
278.0937	291	
279.0652	159	
279.1016	310	
280.1094	111	
281.0808	39	
283.0965	33	
284.0679	53	
288.0781	40	
289.0859	85	
290.0937	66	
291.0652	72	
291.1016	70	
292.073	104	
292.1094	39	
293.0808	233	
293.1172	70	
294.0887	223	
294.1251	138	
295.0601	34	
295.0965	134	
297.1121	50	
304.073	36	
304.1094	48	
305.0808	122	
306.0887	170	
307.0601	107	
307.0965	640	
308.1043	66	
309.0757	40	
309.1121	67	
310.0836	63	
311.0914	48	
319.0965	183	
320.1043	40	
321.0757	90	
321.1121	245	
322.0836	432	
322.12	59	
323.0914	218	
323.1278	31	
324.0992	42	
333.0757	123	
334.0836	52	
335.0914	447	
337.0707	132	
337.107	229	
338.1149	493	
339.0863	40	
341.102	138	
347.0914	41	
348.0992	74	
349.0707	32	
349.107	58	
350.0785	62	
351.0863	531	
353.102	135	
354.0734	62	
354.1098	35	
359.1125	107	
361.0707	45	
363.0863	36	
364.0941	37	
365.102	999	
367.1176	175	
368.089	70	
383.1125	500	
393.0969	197	
397.1282	326	
439.1387	35	
