Mass spectrum: Penitrem A; LC-ESI-ITFT; MS2; CE: 35; R=17500; [M+H]+
Name: Penitrem A
Class: Natural Product; Fungal metabolite
Formula: C37H44ClNO6
Exact mass: 633.28572
SMILES: CC(=C)[C@@H]1[C@@H]([C@@H]2[C@@]3(O2)[C@@H](O1)CC[C@]4([C@]3(CC[C@@H]5[C@@]4(C6=C7[C@H]5OC([C@H]8C[C@H]9[C@@]8(C1=C7C(=CC(=C1CC9=C)Cl)N6)O)(C)C)C)O)C)O
InChI: InChI=1S/C37H44ClNO6/c1-15(2)28-27(40)31-37(45-31)23(43-28)9-10-33(6)34(7)18(8-11-35(33,37)41)29-25-24-21(39-30(25)34)14-20(38)17-12-16(3)19-13-22(32(4,5)44-29)36(19,42)26(17)24/h14,18-19,22-23,27-29,31,39-42H,1,3,8-13H2,2,4-7H3/t18-,19+,22+,23-,27-,28+,29-,31+,33+,34+,35-,36+,37-/m0/s1
Instrument: Q-Exactive Orbitrap Thermo Scientific
Instrument type: LC-ESI-ITFT
Ms type: MS2
Ion mode: POSITIVE
Ionization: ESI
Fragmentation mode: HCD
Collision energy: 35(NCE)
Resolution: 17500
Column name: Agilent RRHD Eclipse 50 x 2 mm, 1.8 uM
Retention time: 4.21
Base peak: 332.1184
Precursor m/z: 634.2925
Precursor type: [M+H]+
m/z	relative intensity	assigned
67.0542	33	
69.0335	32	
69.0699	63	
79.0542	32	
81.0699	40	
83.0496	129	
85.0653	100	
91.0542	42	
93.0699	106	
95.0491	49	
95.0855	47	
97.0648	50	
105.0699	58	C8H9+
107.0855	34	
109.0648	47	
119.0855	75	
121.0648	60	
123.0804	51	
131.0855	59	
133.0648	33	
133.1012	45	
135.0804	71	
137.0597	40	
143.0855	41	
145.1012	67	
147.0804	47	
157.1012	42	
159.0804	42	
161.0961	88	
165.0546	32	
173.0961	68	
175.1118	37	
185.0961	45	
187.1118	51	
199.1118	43	
213.1274	31	
216.057	34	
228.057	32	
242.0362	188	
244.0519	115	
252.057	51	
253.0648	56	
254.0726	129	
256.0519	46	
258.0675	50	
266.0726	47	
268.0861	41	
270.0675	64	
271.1334	44	
280.0883	63	
282.0675	83	
282.1017	33	
283.0732	33	
284.0468	175	
284.081	38	
286.0624	58	
291.0805	32	
292.0861	58	
293.0939	35	
294.0675	127	
294.1017	51	
295.0754	119	
296.0832	384	
304.0883	102	
306.1017	210	
308.0832	106	
309.091	119	
309.149	36	C17H24N1O2Cl1+
310.0966	79	
312.1145	54	
318.1017	111	
320.1174	75	
320.1434	69	
321.0915	31	
321.1512	46	C24H19N1+
322.0966	52	
330.1039	47	
331.1096	50	
332.0895	34	
332.1174	999	
334.0988	31	
334.159	136	C25H20N1+
335.1647	331	
336.1123	39	
342.1017	56	
343.1096	38	
344.1174	153	
346.0966	44	
346.1352	66	
347.1045	34	
348.1123	61	
349.1825	47	
355.1118	103	
356.1174	94	
357.1274	48	
358.0966	72	
358.1352	70	
359.1067	53	
360.1123	66	
364.1436	142	C20H25O4Cl1+
368.1196	233	
369.1274	35	
370.1352	429	
371.1431	33	
372.1123	67	
374.1903	41	
375.1982	33	
382.1357	66	
384.1069	45	
384.1514	57	
385.1201	39	
386.1279	45	
388.1458	36	
390.1592	32	
393.2065	37	
394.1357	58	
395.1435	42	
396.1567	42	
397.1201	74	
398.1279	90	
399.138	55	
400.1463	59	
402.117	34	
409.1592	54	
410.1279	31	
410.1724	132	
412.1436	164	
414.1125	55	
416.1385	83	
417.1463	34	
421.2036	47	
424.1436	36	
426.1678	56	
427.1778	33	
428.1327	39	
428.1856	108	
430.1568	31	
438.1614	91	
440.1834	97	
444.1334	61	
452.1771	61	
456.1698	81	
470.1877	45	
510.1745	38	
514.1694	41	
522.219	35	
528.1931	143	
529.201	77	
530.2088	98	
540.2273	414	
546.2037	88	
547.2115	65	
548.2113	31	
558.2401	487	
564.2062	33	
598.2719	66	
