Mass spectrum: AAL toxin TB; LC-ESI-ITFT; MS2; CE: 35; R=17500; [M+H]+
Name: AAL toxin TB
Name: 2-[2-[(3R,4R,5S,7S,14R,16S)-17-amino-4,14,16-trihydroxy-3,7-dimethylheptadecan-5-yl]oxy-2-oxoethyl]butanedioic acid
Class: Natural Product; Fungal metabolite
Formula: C25H47NO9
Exact mass: 505.32508
SMILES: CC[C@@H](C)[C@H]([C@H](C[C@@H](C)CCCCCC[C@H](C[C@@H](CN)O)O)OC(=O)CC(CC(=O)O)C(=O)O)O
InChI: InChI=1S/C25H47NO9/c1-4-17(3)24(32)21(35-23(31)13-18(25(33)34)12-22(29)30)11-16(2)9-7-5-6-8-10-19(27)14-20(28)15-26/h16-21,24,27-28,32H,4-15,26H2,1-3H3,(H,29,30)(H,33,34)/t16-,17+,18?,19+,20-,21-,24+/m0/s1
Instrument: Q-Exactive Orbitrap Thermo Scientific
Instrument type: LC-ESI-ITFT
Ms type: MS2
Ion mode: POSITIVE
Ionization: ESI
Fragmentation mode: HCD
Collision energy: 35(NCE)
Resolution: 17500
Column name: Agilent RRHD Eclipse 50 x 2 mm, 1.8 uM
Retention time: 2.69
Base peak: 294.2779
Precursor m/z: 506.3318
Precursor type: [M+H]+
m/z	relative intensity	assigned
56.0502	80	
57.0706	105	
60.045	152	
67.0542	80	
69.0699	79	
70.0651	36	
71.0855	64	
81.0699	207	
83.0855	141	
85.0648	44	
93.0699	81	
95.0855	280	
97.1012	73	
99.0804	46	
107.0855	92	C8H11+
109.1012	167	
121.1012	107	
123.1168	108	
133.1012	45	
135.1168	64	
137.1325	45	
141.0182	48	
149.1325	39	
159.0288	245	
163.1481	40	
224.2009	98	
242.2115	67	
276.2686	167	
294.2792	999	
312.287	484	
