Mass spectrum: HT-2 Toxin; LC-ESI-ITFT; MS2; CE: 35; R=17500; [M+H]+
Name: HT-2 Toxin
Name: 12,13-Epoxytrichothec-9-ene-3-alpha,4-beta,8-alpha,15-tetrol 15-acetate 8-isovalerate
Class: Natural Product; Fungal metabolite
Formula: C22H32O8
Exact mass: 424.20971
SMILES: CC1=C[C@@H]2[C@](C[C@@H]1OC(=O)CC(C)C)([C@]3([C@@H]([C@H]([C@H]([C@@]34CO4)O2)O)O)C)COC(=O)C
InChI: InChI=1S/C22H32O8/c1-11(2)6-16(24)29-14-8-21(9-27-13(4)23)15(7-12(14)3)30-19-17(25)18(26)20(21,5)22(19)10-28-22/h7,11,14-15,17-19,25-26H,6,8-10H2,1-5H3/t14-,15+,17+,18+,19+,20+,21+,22-/m0/s1
Instrument: Q-Exactive Orbitrap Thermo Scientific
Instrument type: LC-ESI-ITFT
Ms type: MS2
Ion mode: POSITIVE
Ionization: ESI
Fragmentation mode: HCD
Collision energy: 35(NCE)
Resolution: 17500
Column name: Agilent RRHD Eclipse 50 x 2 mm, 1.8 uM
Retention time: 3.14
Base peak: 121.0645
Precursor m/z: 425.2164
Precursor type: [M+H]+
m/z	relative intensity	assigned
57.0705	831	
67.0542	56	
69.0335	69	
71.0128	73	
79.0542	90	
81.0699	74	
83.0491	74	
85.0284	46	
85.0648	916	
90.9769	48	
91.0542	101	
93.0699	273	
95.0491	243	
95.0855	49	
97.0648	146	
105.0699	894	C8H9+
107.0491	107	
107.0855	66	
109.0648	192	
111.0441	44	
113.0597	33	C6H9O2+
117.0699	75	
119.0491	56	
119.0855	213	
121.0648	999	
123.0441	86	
123.0804	90	
125.0597	115	
128.0621	47	
129.0699	136	
131.0855	273	
133.0648	116	
133.1012	167	
135.0804	76	
137.0597	96	
139.0754	34	
141.0699	49	
142.0777	159	
143.0855	471	
145.0648	121	
145.1012	414	
147.0804	166	
147.1168	144	
149.0597	58	
149.0961	66	
154.0777	47	
155.0855	116	
156.0934	182	
157.0648	33	
157.1012	615	
158.0726	59	
159.0804	263	
159.1168	326	
161.0597	40	
161.0961	253	
161.1325	50	
163.0754	76	
165.0699	41	
166.0777	108	
167.0855	53	
169.1012	284	
171.0804	142	
171.1168	361	
172.0883	62	
173.0961	444	
175.0754	60	
175.1118	384	
177.091	104	
179.0855	53	
181.1012	245	
182.0726	56	
183.0804	35	
184.0883	104	
185.0961	312	
186.1039	50	
187.1118	271	
189.091	67	
189.1274	122	
191.1067	61	
197.0961	273	
199.1118	563	
201.091	61	
203.1067	187	
204.1145	59	
205.1223	56	
209.0961	126	
212.0832	51	
215.1067	235	
217.1223	249	
227.1067	225	
233.1172	65	
235.1329	43	
245.1172	310	
263.1278	251	
281.1384	39	
