Mass spectrum: NX2 toxin; LC-APCI-ITFT; MS2; CE: 40; R=17500; [M-H2O+H]+
Name: NX2 toxin
Class: Natural Product; Fungal metabolite
Formula: C17H24O6
Exact mass: 324.15728
SMILES: CC1=C[C@@H]2[C@]([C@@]3(C)C[C@@H](OC(C)=O)[C@@H](O2)[C@@]34CO4)(CO)[C@H](O)C1
InChI: InChI=1S/C17H24O6/c1-9-4-12(20)16(7-18)13(5-9)23-14-11(22-10(2)19)6-15(16,3)17(14)8-21-17/h5,11-14,18,20H,4,6-8H2,1-3H3/t11-,12-,13-,14-,15-,16+,17+/m1/s1
Instrument: Q-Exactive Orbitrap Thermo Scientific
Instrument type: LC-APCI-ITFT
Ms type: MS2
Ion mode: POSITIVE
Ionization: APCI
Fragmentation mode: HCD
Collision energy: 40(NCE)
Resolution: 17500
Column name: Agilent RRHD Eclipse 50 x 2 mm, 1.8 uM
Retention time: 2.75
Base peak: 79.0551
Precursor m/z: 307.1535
Precursor type: [M-H2O+H]+
m/z	relative intensity	assigned
67.0551	48	
69.0344	61	
79.0551	999	
81.0707	323	
83.0491	93	
91.0542	131	
93.0699	304	
95.0491	168	
95.0855	67	
97.0648	227	
105.0699	444	
107.0491	69	
107.0855	69	
109.0648	339	
111.0441	54	
113.0597	36	
117.0699	84	
119.0491	36	
119.0855	186	
121.0648	683	
123.0804	122	
125.0597	220	
127.0754	37	
129.0699	87	
131.0855	198	
133.0648	100	
133.1012	105	
135.0441	32	
135.0804	172	
137.0597	55	
139.0754	214	
141.0699	65	
142.0777	75	
143.0855	311	
145.0648	85	
145.1012	247	
147.0804	168	
149.0961	32	
151.0754	61	
155.0855	179	
156.0934	72	
157.0648	58	
157.1012	299	
158.0726	39	
159.0804	314	
159.1168	260	
161.0961	208	
163.1118	47	
165.091	49	
166.0777	65	
168.0934	144	
169.1012	196	
171.0804	106	
171.1168	390	
173.0961	287	
173.1325	98	C13H17+
175.0754	38	
175.1118	80	
179.1067	43	
181.1012	117	
183.1168	317	
184.0883	80	
185.0961	90	
187.1118	277	
189.091	46	
189.1274	37	
193.1012	68	
196.0883	51	
199.1118	881	
201.1274	180	
203.1067	77	
205.1223	67	
211.1118	161	
215.1067	99	
217.1223	147	
219.138	70	
221.1172	42	
229.1223	214	
247.1329	158	
265.1434	174	
307.154	178	
