Mass spectrum: NX2 toxin; LC-APCI-ITFT; MS2; CE: 20; R=17500; [M-H2O+H]+
Name: NX2 toxin
Class: Natural Product; Fungal metabolite
Formula: C17H24O6
Exact mass: 324.15728
SMILES: CC1=C[C@@H]2[C@]([C@@]3(C)C[C@@H](OC(C)=O)[C@@H](O2)[C@@]34CO4)(CO)[C@H](O)C1
InChI: InChI=1S/C17H24O6/c1-9-4-12(20)16(7-18)13(5-9)23-14-11(22-10(2)19)6-15(16,3)17(14)8-21-17/h5,11-14,18,20H,4,6-8H2,1-3H3/t11-,12-,13-,14-,15-,16+,17+/m1/s1
Instrument: Q-Exactive Orbitrap Thermo Scientific
Instrument type: LC-APCI-ITFT
Ms type: MS2
Ion mode: POSITIVE
Ionization: APCI
Fragmentation mode: HCD
Collision energy: 20(NCE)
Resolution: 17500
Column name: Agilent RRHD Eclipse 50 x 2 mm, 1.8 uM
Retention time: 2.75
Base peak: 307.1544
Precursor m/z: 307.1535
Precursor type: [M-H2O+H]+
m/z	relative intensity	assigned
79.0551	141	
81.0707	50	
105.0699	47	
109.0648	41	
121.0648	132	
125.0597	45	
139.0754	328	
157.1012	44	
159.0804	36	
169.1012	39	
171.1168	66	
173.0961	41	
183.1168	99	
187.1118	59	
199.1118	467	
201.1274	102	
211.1118	88	
215.1067	58	
217.1223	197	
229.1223	240	
233.1172	59	
247.1329	262	
259.1329	38	
265.1434	130	
277.1434	168	
289.1434	91	
307.154	999	
