Mass spectrum: Cyclo(VVFF); LC-ESI-ITFT; MS2; CE: 20; R=17500; [M+H]+
Name: Cyclo(VVFF)
Class: Natural Product; Fungal metabolite
Formula: C28H36N4O4
Exact mass: 492.27366
SMILES: O=C(NC(C(C)C)C(NC(CC1=CC=CC=C1)C(NC2CC3=CC=CC=C3)=O)=O)C(C(C)C)NC2=O
InChI: InChI=1S/C28H36N4O4/c1-17(2)23-27(35)30-21(15-19-11-7-5-8-12-19)25(33)29-22(16-20-13-9-6-10-14-20)26(34)31-24(18(3)4)28(36)32-23/h5-14,17-18,21-24H,15-16H2,1-4H3,(H,29,33)(H,30,35)(H,31,34)(H,32,36)
Instrument: Q-Exactive Orbitrap Thermo Scientific
Instrument type: LC-ESI-ITFT
Ms type: MS2
Ion mode: POSITIVE
Ionization: ESI
Fragmentation mode: HCD
Collision energy: 20(NCE)
Resolution: 17500
Column name: Agilent RRHD Eclipse 50 x 2 mm, 1.8 uM
Retention time: 3.8
Base peak: 288.9217
Precursor m/z: 493.2804
Precursor type: [M+H]+
m/z	relative intensity	assigned
72.0816	48	
90.9772	41	
120.0808	134	
199.1441	118	
219.1492	115	
220.9343	161	
247.1441	328	C14H19N2O2+
267.1492	58	
288.9217	999	
295.1441	228	
301.1911	57	
346.2125	157	
394.2125	120	
446.8047	43	
448.2595	32	
