Mass spectrum: Stachybocin B; LC-ESI-ITFT; MS2; CE: 50; R=17500; [M+H]+
Name: Stachybocin B
Name: (2S)-6-[(3R,7R,8R,8aS)-3,4'-dihydroxy-4,4,7,8a-tetramethyl-6'-oxospiro[2,3,4a,5,6,7-hexahydro-1H-naphthalene-8,2'-3,8-dihydrofuro[2,3-e]isoindole]-7'-yl]-2-[(2R,3S,7R,8R,8aS)-2,3,4'-trihydroxy-4,4,7,8a-tetramethyl-6'-oxospiro[2,3,4a,5,6,7-hexahydro-1H-naphthalene-8,2'-3,8-dihydrofuro[2,3-e]isoindole]-7'-yl]hexanoic acid
Class: Natural Product; Fungal metabolite
Formula: C52H70N2O11
Exact mass: 898.49797
SMILES: C[C@@H]1CCC2[C@@]([C@@]13CC4=C(C=C5C(=C4O3)CN(C5=O)CCCC[C@@H](C(=O)O)N6CC7=C8C(=C(C=C7C6=O)O)C[C@@]9(O8)[C@@H](CCC1[C@@]9(C[C@H]([C@H](C1(C)C)O)O)C)C)O)(CC[C@H](C2(C)C)O)C
InChI: InChI=1S/C52H70N2O11/c1-26-12-14-38-47(3,4)40(58)16-17-49(38,7)51(26)21-30-35(55)19-28-32(41(30)64-51)24-53(44(28)60)18-10-9-11-34(46(62)63)54-25-33-29(45(54)61)20-36(56)31-22-52(65-42(31)33)27(2)13-15-39-48(5,6)43(59)37(57)23-50(39,52)8/h19-20,26-27,34,37-40,43,55-59H,9-18,21-25H2,1-8H3,(H,62,63)/t26-,27-,34+,37-,38?,39?,40-,43-,49+,50+,51-,52-/m1/s1
Instrument: Q-Exactive Orbitrap Thermo Scientific
Instrument type: LC-ESI-ITFT
Ms type: MS2
Ion mode: POSITIVE
Ionization: ESI
Fragmentation mode: HCD
Collision energy: 50(NCE)
Resolution: 17500
Column name: Agilent RRHD Eclipse 50 x 2 mm, 1.8 uM
Retention time: 4.07
Base peak: 244.0958
Precursor m/z: 899.5047
Precursor type: [M+H]+
m/z	relative intensity	assigned
67.0542	31	
81.0699	49	
82.0651	44	
84.0808	50	
93.0699	42	
95.0855	101	
107.0855	89	C8H11+
109.1012	80	
119.0855	68	
121.1012	93	
133.1012	137	
135.1168	53	
147.1168	44	
149.1325	61	
175.1481	33	
178.0499	349	
180.0655	67	
187.1481	48	
189.1638	167	
190.0499	231	
191.0577	55	
192.0655	339	
205.1587	33	
216.0655	72	
216.1019	72	
218.0812	80	
226.0863	60	
228.0992	38	
230.0812	120	
232.0968	70	
242.0812	87	
243.089	111	
244.0968	999	
245.1046	93	
246.1125	117	
256.0968	36	
296.1281	39	
366.2037	38	
368.2193	218	
380.2193	279	
384.2143	122	
396.2143	353	
398.2299	44	
408.2507	39	
414.2248	59	
421.1367	126	
432.2507	54	
434.2663	135	
448.2456	34	
450.2612	60	
