Mass spectrum: Fusarenone-X; LC-ESI-ITFT; MS2; CE: 50; R=17500; [M+Na]+
Name: Fusarenone-X
Name: (3beta,4alpha,7alpha)-3,7,15-Trihydroxy-8-oxo-12,13-epoxytrichothec-9-en-4-yl acetate
Class: Natural Product; Fungal metabolite
Formula: C17H22O8
Exact mass: 354.13145
SMILES: CC1=C[C@@H]2[C@]([C@@H](C1=O)O)([C@]3([C@@H]([C@H]([C@H]([C@@]34CO4)O2)O)OC(=O)C)C)CO
InChI: InChI=1S/C17H22O8/c1-7-4-9-16(5-18,12(22)10(7)20)15(3)13(24-8(2)19)11(21)14(25-9)17(15)6-23-17/h4,9,11-14,18,21-22H,5-6H2,1-3H3/t9-,11-,12-,13-,14-,15-,16-,17+/m1/s1
Instrument: Q-Exactive Orbitrap Thermo Scientific
Instrument type: LC-ESI-ITFT
Ms type: MS2
Ion mode: POSITIVE
Ionization: ESI
Fragmentation mode: HCD
Collision energy: 50(NCE)
Resolution: 17500
Column name: Agilent RRHD Eclipse 50 x 2 mm, 1.8 uM
Retention time: 2.46
Base peak: 217.0835
Precursor m/z: 377.1201
Precursor type: [M+Na]+
m/z	relative intensity	assigned
56.7096	640	
64.3086	621	
77.3993	683	
105.607	908	
110.4367	925	
133.6266	803	
158.0338	944	
188.4821	913	
217.0835	999	C11H14O3Na1+
244.9845	992	
262.7172	768	
282.6648	793	
290.2214	783	
