Mass spectrum: Surfactin C; LC-ESI-ITFT; MS2; CE: 20; R=17500; [M+H]+
Name: Surfactin C
Name: 3-[(3S,6R,9S,12S,15R,18S,21S,25R)-9-(carboxymethyl)-3,6,15,18-tetrakis(2-methylpropyl)-25-(10-methylundecyl)-2,5,8,11,14,17,20,23-octaoxo-12-propan-2-yl-1-oxa-4,7,10,13,16,19,22-heptazacyclopentacos-21-yl]propanoic acid
Class: Natural Product; Bacterial metabolite
Formula: C53H93N7O13
Exact mass: 1035.68314
SMILES: CC(C)CCCCCCCCC[C@@H]1CC(=O)N[C@H](C(=O)N[C@H](C(=O)N[C@@H](C(=O)N[C@H](C(=O)N[C@H](C(=O)N[C@@H](C(=O)N[C@H](C(=O)O1)CC(C)C)CC(C)C)CC(=O)O)C(C)C)CC(C)C)CC(C)C)CCC(=O)O
InChI: InChI=1S/C53H93N7O13/c1-30(2)20-18-16-14-13-15-17-19-21-36-28-43(61)54-37(22-23-44(62)63)47(66)55-38(24-31(3)4)48(67)57-40(26-33(7)8)51(70)60-46(35(11)12)52(71)58-41(29-45(64)65)50(69)56-39(25-32(5)6)49(68)59-42(27-34(9)10)53(72)73-36/h30-42,46H,13-29H2,1-12H3,(H,54,61)(H,55,66)(H,56,69)(H,57,67)(H,58,71)(H,59,68)(H,60,70)(H,62,63)(H,64,65)/t36-,37+,38+,39-,40-,41+,42+,46+/m1/s1
Instrument: Q-Exactive Orbitrap Thermo Scientific
Instrument type: LC-ESI-ITFT
Ms type: MS2
Ion mode: POSITIVE
Ionization: ESI
Fragmentation mode: HCD
Collision energy: 20(NCE)
Resolution: 17500
Column name: Agilent RRHD Eclipse 50 x 2 mm, 1.8 uM
Retention time: 5.05
Base peak: 685.4512
Precursor m/z: 1036.6899
Precursor type: [M+H]+
m/z	relative intensity	assigned
86.0974	61	
227.1754	81	
229.1196	36	
245.186	41	
326.2452	47	
328.1867	61	
342.2037	45	
352.2487	75	
360.2142	46	
370.2601	43	
395.2666	40	
423.2615	51	
441.2721	250	
455.2891	47	C25H37N5O3+
459.284	40	
465.3337	113	
483.3442	141	
508.3507	37	C28H48N2O6+
526.3613	40	
536.3456	51	
554.3562	131	
560.4072	35	
572.3667	55	
578.4164	106	
586.3837	36	
596.4283	246	
667.4402	106	
677.4875	60	
685.4508	999	
695.4967	134	
711.4561	66	
792.5144	56	
808.5808	71	
810.5223	44	C41H72N5O11+
877.6009	40	
905.5958	74	
923.6077	158	
937.6247	54	
1008.6955	98	
1018.6799	157	
1036.6904	621	
