Mass spectrum: Diacetoxyscirpenol; LC-ESI-ITFT; MS2; CE: 35; R=17500; [M+H]+
Name: Diacetoxyscirpenol
Name: Anguidine, Anguidin
Name: (3beta,4alpha,12R)-3-Hydroxy-12,13-epoxytrichothec-9-ene-4,15-diyl diacetate
Class: Natural Product; Fungal metabolite
Formula: C19H26O7
Exact mass: 366.16785
SMILES: CC1=C[C@@H]2[C@](CC1)([C@]3([C@@H]([C@H]([C@H]([C@]34CO4)O2)O)OC(=O)C)C)COC(=O)C
InChI: InChI=1S/C19H26O7/c1-10-5-6-18(8-23-11(2)20)13(7-10)26-16-14(22)15(25-12(3)21)17(18,4)19(16)9-24-19/h7,13-16,22H,5-6,8-9H2,1-4H3/t13-,14-,15-,16-,17-,18-,19-/m1/s1
Instrument: Q-Exactive Orbitrap Thermo Scientific
Instrument type: LC-ESI-ITFT
Ms type: MS2
Ion mode: POSITIVE
Ionization: ESI
Fragmentation mode: HCD
Collision energy: 35(NCE)
Resolution: 17500
Column name: Agilent RRHD Eclipse 50 x 2 mm, 1.8 uM
Retention time: 3.05
Base peak: 105.0698
Precursor m/z: 367.1746
Precursor type: [M+H]+
m/z	relative intensity	assigned
67.0542	44	
69.0335	68	
79.0542	124	
81.0699	300	
83.0491	36	
85.0284	37	
91.0542	73	
93.0699	265	C7H9+
95.0491	283	
95.0855	148	
97.0648	250	C6H9O1+
105.0699	999	
107.0491	124	
107.0855	338	
109.0648	280	
111.0441	40	
113.0597	227	
117.0699	67	
119.0491	42	
119.0855	170	
121.0648	345	
123.0441	65	
123.0804	516	
125.0597	404	
129.0699	90	
131.0855	264	
133.0648	68	
133.1012	135	
135.0804	68	
137.0597	87	
139.0754	50	
141.0546	48	
141.0699	61	
142.0777	82	
143.0703	58	
143.0855	295	
145.0648	64	
145.1012	274	
147.0804	125	
147.1168	104	
149.0597	42	
149.0961	46	
155.0855	140	
156.0934	52	
157.1012	373	
159.0804	164	
159.1168	360	
161.0961	204	
161.1325	34	
163.1118	99	
167.0703	31	
168.0934	134	
169.1012	133	
171.0804	43	
171.1168	242	
173.0961	151	
173.1325	298	
175.1118	252	
177.1274	44	
181.1012	97	
183.1168	441	
185.0961	55	
187.0754	33	
187.1118	227	
189.1274	105	
193.1012	89	
193.1223	38	
196.0883	70	
199.1118	474	
201.1274	535	
203.1067	40	
205.1223	67	
211.1118	229	
217.1223	221	
219.138	142	
229.1223	491	
247.1329	386	
265.1434	94	
289.1434	65	
307.154	154	
