Mass spectrum: T-2 Toxin; LC-ESI-ITFT; MS2; CE: 35; R=17500; [M+H]+
Name: T-2 Toxin
Name: Fusariotoxin T 2
Name: Insariotoxin
Name: T-2 mycotoxin
Name: (2alpha,3alpha,4beta,8alpha)-4,15-bis(acetyloxy)-3-hydroxy-12,13-epoxytrichothec-9-en-8-yl 3-methylbutanoate
Class: Natural Product; Fungal metabolite
Formula: C24H34O9
Exact mass: 466.22027
SMILES: CC1=C[C@@H]2[C@](C[C@@H]1OC(=O)CC(C)C)([C@]3([C@@H]([C@H]([C@H]([C@@]34CO4)O2)O)OC(=O)C)C)COC(=O)C
InChI: InChI=1S/C24H34O9/c1-12(2)7-18(27)32-16-9-23(10-29-14(4)25)17(8-13(16)3)33-21-19(28)20(31-15(5)26)22(23,6)24(21)11-30-24/h8,12,16-17,19-21,28H,7,9-11H2,1-6H3/t16-,17+,19+,20+,21+,22+,23+,24-/m0/s1
Instrument: Q-Exactive Orbitrap Thermo Scientific
Instrument type: LC-ESI-ITFT
Ms type: MS2
Ion mode: POSITIVE
Ionization: ESI
Fragmentation mode: HCD
Collision energy: 35(NCE)
Resolution: 17500
Column name: Agilent RRHD Eclipse 50 x 2 mm, 1.8 uM
Retention time: 3.56
Base peak: 121.0646
Precursor m/z: 467.227
Precursor type: [M+H]+
m/z	relative intensity	assigned
57.0706	935	
69.0335	83	
79.0542	82	
81.0699	66	
83.0491	71	
85.0648	704	
91.0542	94	
93.0699	244	
95.0491	237	
95.0855	70	
97.0648	150	
105.0699	490	C8H9+
107.0491	178	
109.0648	191	
117.0699	31	
119.0491	111	
119.0855	94	
121.0648	999	
123.0441	112	
123.0804	120	
125.0597	224	
128.0621	53	
129.0699	114	
131.0855	137	
133.0648	51	
133.1012	115	
135.0804	66	
137.0597	80	
139.0754	53	
141.0546	64	
141.0699	66	
142.0777	107	
143.0855	474	
145.0648	107	
145.1012	300	
147.0804	130	
147.1168	90	
154.0777	71	
155.0855	99	
156.0934	160	
157.1012	525	
158.0726	58	
159.0804	238	
159.1168	291	
161.0961	170	
166.0777	104	
169.1012	532	
171.0804	127	
171.1168	495	
173.0961	385	
175.1118	187	
179.0855	31	
181.1012	279	
182.0726	65	
184.0883	76	
185.0961	723	
187.1118	421	
189.1274	129	
191.1067	99	
197.0961	393	
199.1118	758	
201.091	63	
203.1067	238	
209.0961	141	
212.0832	55	
215.1067	639	
217.1223	370	
227.1067	349	
233.1172	163	
235.1329	75	
245.1172	559	
263.1278	266	
305.1384	98	
