Mass spectrum: 5-hydroxyculmorin; LC-ESI-ITFT; MS2; CE: 40; R=17500; [M-H2O+H]+
Name: 5-hydroxyculmorin
Name: (1S,3R,3aS,4R,6R,8aR,9R)-Decahydro-1,5,5,8a-tetramethyl-1,4-methanoazulene-3,6,9-triol
Class: Natural Product; Fungal metabolite
Formula: C15H26O3
Exact mass: 254.18821
SMILES: C[C@@]12CC[C@H](C([C@H]3[C@@H]1[C@@H](C[C@@]2(C3O)C)O)(C)C)O
InChI: InChI=1S/C15H26O3/c1-13(2)9(17)5-6-14(3)10-8(16)7-15(14,4)12(18)11(10)13/h8-12,16-18H,5-7H2,1-4H3/t8-,9-,10+,11+,12?,14-,15-/m1/s1
Instrument: Q-Exactive Orbitrap Thermo Scientific
Instrument type: LC-ESI-ITFT
Ms type: MS2
Ion mode: POSITIVE
Ionization: ESI
Fragmentation mode: HCD
Collision energy: 40(NCE)
Resolution: 17500
Column name: Agilent RRHD Eclipse 50 x 2 mm, 1.8 uM
Retention time: 2.56
Base peak: 175.1472
Precursor m/z: 237.1844
Precursor type: [M-H2O+H]+
m/z	relative intensity	assigned
59.0498	43	
67.0542	78	
69.0699	219	
79.0542	40	
81.0699	213	
83.0855	118	
85.0648	68	
91.0542	58	
93.0699	318	
95.0491	45	
95.0855	838	
97.0648	59	C6H9O1+
97.1012	45	
99.0804	33	
105.0699	207	
107.0855	564	
109.0648	43	
109.1012	546	
111.0804	97	
117.0699	73	
119.0855	543	
121.1012	596	
123.0804	57	
123.1168	182	
125.0961	31	
131.0855	155	
133.1012	344	
135.0804	90	
135.1168	326	
137.0961	422	
137.1325	40	
145.1012	423	
147.1168	179	
149.0961	142	
149.1325	97	
159.1168	531	
161.1325	239	
163.1118	101	
173.1325	245	
175.1481	999	
177.1638	299	
191.1795	167	
201.1638	541	
219.1744	385	
237.1849	98	
