Mass spectrum: Frequentin; LC-ESI-ITFT; MS2; CE: 20; R=17500; [M+H]+
Name: Frequentin
Name: Frequentine
Name: 6-[(1E,3E)-hepta-1,3-dienyl]-3,4-dihydroxy-2-oxocyclohexane-1-carbaldehyde
Class: Natural Product; Fungal metabolite
Formula: C14H20O4
Exact mass: 252.13616
SMILES: CCC/C=C/C=C/[C@@H]1C[C@H]([C@H](C(=O)[C@H]1C=O)O)O
InChI: InChI=1S/C14H20O4/c1-2-3-4-5-6-7-10-8-12(16)14(18)13(17)11(10)9-15/h4-7,9-12,14,16,18H,2-3,8H2,1H3/b5-4+,7-6+/t10-,11+,12-,14-/m1/s1
Instrument: Q-Exactive Orbitrap Thermo Scientific
Instrument type: LC-ESI-ITFT
Ms type: MS2
Ion mode: POSITIVE
Ionization: ESI
Fragmentation mode: HCD
Collision energy: 20(NCE)
Resolution: 17500
Column name: Agilent RRHD Eclipse 50 x 2 mm, 1.8 uM
Retention time: 3.68
Base peak: 157.0488
Precursor m/z: 253.1429
Precursor type: [M+H]+
m/z	relative intensity	assigned
97.0284	97	C5H5O2+
97.1012	56	
111.0441	332	
121.1012	33	
133.0648	75	
133.1012	35	
139.039	218	
147.0804	31	
147.1168	45	
149.0961	33	
151.0754	33	
157.0495	999	
161.1325	65	
175.1481	32	
177.091	43	
179.1067	47	
179.1431	35	
189.1274	163	
193.1223	71	
207.138	186	
217.1223	114	
235.1329	104	
235.1679	66	
253.1434	399	
