Mass spectrum: Koninginin A; LC-ESI-ITFT; MS2; CE: 10; R=17500; [M+H]+
Name: Koninginin A
Class: Natural Product; Fungal metabolite
Formula: C16H28O4
Exact mass: 284.19877
SMILES: CCCCCC[C@H]1[C@@H]2CC[C@H]3[C@H](CC[C@H]([C@]3(O2)O1)O)O
InChI: InChI=1S/C16H28O4/c1-2-3-4-5-6-13-14-9-7-11-12(17)8-10-15(18)16(11,19-13)20-14/h11-15,17-18H,2-10H2,1H3/t11-,12-,13-,14-,15+,16-/m0/s1
Instrument: Q-Exactive Orbitrap Thermo Scientific
Instrument type: LC-ESI-ITFT
Ms type: MS2
Ion mode: POSITIVE
Ionization: ESI
Fragmentation mode: HCD
Collision energy: 10(NCE)
Resolution: 17500
Column name: Agilent RRHD Eclipse 50 x 2 mm, 1.8 uM
Retention time: 3.5
Base peak: 267.1947
Precursor m/z: 285.2055
Precursor type: [M+H]+
m/z	relative intensity	assigned
81.0699	40	
95.0855	36	
107.0491	152	
113.0961	152	
119.0855	209	
123.0804	39	
125.0961	48	
127.1118	137	
133.0648	90	
135.0804	44	
147.0804	139	
155.1431	105	
189.1638	174	
203.1795	161	
213.1638	87	
221.19	166	
231.1744	366	
249.1849	960	
267.1955	999	
