Mass spectrum: Penicillic Acid; LC-ESI-ITFT; MS2; CE: 55; R=17500; [M+H]+
Name: Penicillic Acid
Name: (2Z)-3-methoxy-5-methyl-4-oxohexa-2,5-dienoic acid
Class: Natural Product; Fungal metabolite
Formula: C8H10O4
Exact mass: 170.0579
SMILES: CC(=C)C(=O)/C(=C/C(=O)O)/OC
InChI: InChI=1S/C8H10O4/c1-5(2)8(11)6(12-3)4-7(9)10/h4H,1H2,2-3H3,(H,9,10)/b6-4-
Instrument: Q-Exactive Orbitrap Thermo Scientific
Instrument type: LC-ESI-ITFT
Ms type: MS2
Ion mode: POSITIVE
Ionization: ESI
Fragmentation mode: HCD
Collision energy: 55(NCE)
Resolution: 17500
Column name: Agilent RRHD Eclipse 50 x 2 mm, 1.8 uM
Retention time: 2.61
Base peak: 125.0605
Precursor m/z: 171.0646
Precursor type: [M+H]+
m/z	relative intensity	assigned
55.9357	38	
65.0396	157	
67.0553	157	
69.0346	49	
82.0422	121	
83.05	91	
93.0346	148	
94.0424	139	
97.0658	198	
110.0362	179	
111.0441	276	
112.0519	159	
121.0284	93	
125.0597	999	
146.9622	40	
147.9643	52	
