Mass spectrum: 4',5-bisdeoxy-dothistromin; LC-ESI-ITFT; MS2; CE: 20; R=17500; [M+H]+
Name: 4',5-bisdeoxy-dothistromin
Class: Natural Product; Fungal metabolite
Formula: C18H12O7
Exact mass: 340.05828
SMILES: OC1=C(C(C2=C(O)C=CC=C2C3=O)=O)C3=CC(O4)=C1[C@@]5(O)[C@@H]4OCC5
InChI: InChI=1S/C18H12O7/c19-9-3-1-2-7-11(9)15(21)12-8(14(7)20)6-10-13(16(12)22)18(23)4-5-24-17(18)25-10/h1-3,6,17,19,22-23H,4-5H2/t17-,18-/m1/s1
Instrument: Q-Exactive Orbitrap Thermo Scientific
Instrument type: LC-ESI-ITFT
Ms type: MS2
Ion mode: POSITIVE
Ionization: ESI
Fragmentation mode: HCD
Collision energy: 20(NCE)
Resolution: 17500
Column name: Agilent RRHD Eclipse 50 x 2 mm, 1.8 uM
Retention time: 3.37
Base peak: 323.0535
Precursor m/z: 341.065
Precursor type: [M+H]+
m/z	relative intensity	assigned
269.0444	81	
279.0652	82	
283.0601	70	
295.0237	315	
295.0601	593	
323.055	999	
341.0656	158	
