Mass spectrum: Macrosporin; LC-ESI-ITFT; MS2; CE: 10; R=17500; [M+H]+
Name: Macrosporin
Name: 1,7-dihydroxy-3-methoxy-6-methylanthracene-9,10-dione
Class: Natural Product; Fungal metabolite
Formula: C16H12O5
Exact mass: 284.06846
SMILES: CC1=C(C=C2C(=C1)C(=O)C3=CC(=CC(=C3C2=O)O)OC)O
InChI: InChI=1S/C16H12O5/c1-7-3-9-10(6-12(7)17)16(20)14-11(15(9)19)4-8(21-2)5-13(14)18/h3-6,17-18H,1-2H3
Instrument: Q-Exactive Orbitrap Thermo Scientific
Instrument type: LC-ESI-ITFT
Ms type: MS2
Ion mode: POSITIVE
Ionization: ESI
Fragmentation mode: HCD
Collision energy: 10(NCE)
Resolution: 17500
Column name: Agilent RRHD Eclipse 50 x 2 mm, 1.8 uM
Retention time: 3.79
Base peak: 285.0744
Precursor m/z: 285.0752
Precursor type: [M+H]+
m/z	relative intensity	assigned
285.0757	999	
