Mass spectrum: Marticin; LC-ESI-ITFT; MS2; CE: 20; R=17500; [M+H]+
Name: Marticin
Name: 2,6-Epoxy-2H-naphth(2,3-d)oxocin-4-carboxylic acid, 1,4,5,6,7,12-hexahydro-8,11-dihydroxy-10-methoxy-2-methyl-7,12-dioxo-, (2alpha,4alpha,6alpha)-(+)-
Class: Natural Product; Fungal metabolite
Formula: C18H16O9
Exact mass: 376.07941
SMILES: CC12CC3=C(C4=C(C(=O)C=C(C4=O)OC)C(=C3C(O1)CC(O2)C(=O)O)O)O
InChI: InChI=1S/C18H16O9/c1-18-5-6-11(8(26-18)4-10(27-18)17(23)24)16(22)12-7(19)3-9(25-2)15(21)13(12)14(6)20/h3,8,10,20,22H,4-5H2,1-2H3,(H,23,24)
Instrument: Q-Exactive Orbitrap Thermo Scientific
Instrument type: LC-ESI-ITFT
Ms type: MS2
Ion mode: POSITIVE
Ionization: ESI
Fragmentation mode: HCD
Collision energy: 20(NCE)
Resolution: 17500
Column name: Agilent RRHD Eclipse 50 x 2 mm, 1.8 uM
Retention time: 3.28
Base peak: 377.0883
Precursor m/z: 377.0861
Precursor type: [M+H]+
m/z	relative intensity	assigned
245.0444	89	
271.0601	85	
285.0757	117	
287.055	129	
289.0707	31	
299.055	33	
302.0785	151	
303.0863	128	
313.0707	235	
315.0863	56	
317.0656	112	
331.0812	230	
341.0656	183	
359.0761	454	
377.0867	999	
