Mass spectrum: Andrastin D; LC-ESI-ITFT; MS2; CE: 55; R=17500; [M+H]+
Name: Andrastin D
Name: methyl (5S,8S,9S,10R,13R,14R)-17-hydroxy-4,4,8,10,12,13,16-heptamethyl-3,15-dioxo-1,2,5,6,7,9-hexahydrocyclopenta[a]phenanthrene-14-carboxylate
Class: Natural Product; Fungal metabolite
Formula: C26H36O5
Exact mass: 428.25629
SMILES: CC1=C[C@H]2[C@@]3(CCC(=O)C([C@H]3CC[C@@]2([C@]4([C@@]1(C(=C(C4=O)C)O)C)C(=O)OC)C)(C)C)C
InChI: InChI=1S/C26H36O5/c1-14-13-17-23(5)11-10-18(27)22(3,4)16(23)9-12-24(17,6)26(21(30)31-8)20(29)15(2)19(28)25(14,26)7/h13,16-17,28H,9-12H2,1-8H3/t16-,17+,23-,24+,25+,26-/m1/s1
Instrument: Q-Exactive Orbitrap Thermo Scientific
Instrument type: LC-ESI-ITFT
Ms type: MS2
Ion mode: POSITIVE
Ionization: ESI
Fragmentation mode: HCD
Collision energy: 55(NCE)
Resolution: 17500
Column name: Agilent RRHD Eclipse 50 x 2 mm, 1.8 uM
Retention time: 3.95
Base peak: 83.0134
Precursor m/z: 429.263
Precursor type: [M+H]+
m/z	relative intensity	assigned
55.0551	53	
56.9657	86	
57.0708	33	
67.055	244	
69.0343	66	
69.0706	267	
79.0542	191	
81.0699	375	
83.0128	999	
83.0491	109	
83.0855	115	
85.0284	55	
85.0648	33	
91.0542	277	
93.0699	452	
95.0491	317	
95.0855	420	
97.0648	80	
105.0699	511	
107.0855	829	
109.0648	131	
109.1012	404	
111.0804	53	
117.0699	93	
119.0855	803	
121.0648	123	
121.1012	785	
123.0441	75	
123.0804	185	
123.1168	244	
125.0597	42	
125.0961	35	
129.0699	53	C10H9+
130.0777	43	
131.0855	239	
133.0648	32	
133.1012	772	C10H13+
135.0441	37	
135.0804	235	
135.1168	415	C10H15+
137.0961	178	C9H13O1+
139.0069	37	
142.0777	41	
143.0855	135	
144.0934	57	
145.1012	415	C11H13+
147.0804	145	
147.1168	297	
149.0597	67	
149.0961	260	C10H13O1+
149.1325	90	C11H17+
151.039	410	
151.0754	93	
151.1118	133	
153.0546	40	
156.0934	98	
157.0174	33	
157.1012	218	
158.109	61	C12H14+
159.0804	46	
159.1168	457	C12H15+
161.0597	31	C10H9O2+
161.0961	145	
161.1325	259	
163.0754	52	
163.1118	436	
163.1481	61	
165.091	77	
165.1274	137	
169.0495	159	C8H9O4+
169.1012	47	
170.109	59	
171.0804	34	
171.1168	269	C13H15+
173.0961	85	C12H13O1+
173.1325	207	
174.1039	42	
175.0754	88	
175.1118	164	
175.1481	54	
177.0546	51	
177.091	92	
177.1274	107	
179.0703	412	
183.1168	58	
185.0961	33	
185.1325	145	
187.1118	55	
187.1481	110	
189.091	91	
189.1274	170	
191.1067	60	
191.1431	40	
193.0859	45	
197.1325	69	
199.1118	47	
199.1481	50	
201.091	38	
201.1274	44	
202.0988	110	
203.1067	60	
203.1431	45	
205.1223	75	
207.0652	44	
213.1274	35	
215.1067	41	
217.1223	111	
227.1795	48	C17H23+
245.19	32	
