Mass spectrum: Cercosporin; LC-ESI-ITFT; MS2; CE: 50; R=17500; [M+H]+
Name: Cercosporin
Class: Natural Product; Fungal metabolite
Formula: C29H26O10
Exact mass: 534.15258
SMILES: C[C@H](CC1=C(C(=C2C(=O)C=C3C4=C5C(=CC(=O)C6=C(C(=C(C(=C56)C1=C42)C[C@@H](C)O)OC)O)OCO3)O)OC)O
InChI: InChI=1S/C29H26O10/c1-10(30)5-12-18-19-13(6-11(2)31)29(37-4)27(35)21-15(33)8-17-23(25(19)21)22-16(38-9-39-17)7-14(32)20(24(18)22)26(34)28(12)36-3/h7-8,10-11,30-31,34-35H,5-6,9H2,1-4H3/t10-,11-/m1/s1
Instrument: Q-Exactive Orbitrap Thermo Scientific
Instrument type: LC-ESI-ITFT
Ms type: MS2
Ion mode: POSITIVE
Ionization: ESI
Fragmentation mode: HCD
Collision energy: 50(NCE)
Resolution: 17500
Column name: Agilent RRHD Eclipse 50 x 2 mm, 1.8 uM
Retention time: 3.63
Base peak: 355.0584
Precursor m/z: 535.1593
Precursor type: [M+H]+
m/z	relative intensity	assigned
55.0186	53	
59.0498	60	
69.0335	47	
71.0491	33	
85.0648	42	
285.091	41	
286.0624	42	
295.0754	38	
299.0703	47	
300.0781	33	
301.0859	53	
302.0574	47	
310.0624	40	
311.0703	104	
312.0781	36	
313.0495	37	
313.0859	50	
314.0574	109	
315.0652	74	
316.073	118	
317.0808	40	
323.0703	68	
324.0781	45	
325.0495	63	
325.0859	87	
326.0574	68	
327.0652	174	
328.073	90	
329.0444	66	
329.0808	76	
330.0523	57	
330.0887	33	
337.0495	34	
337.0859	31	
338.0574	34	
339.0652	190	
339.1016	36	
340.073	79	
341.0444	91	
341.0808	156	
342.0523	139	
342.0887	54	
343.0601	158	
344.0679	647	
345.0757	99	
351.0652	86	
352.073	102	
353.0386	78	
353.0808	156	
354.0523	188	
354.0887	36	
355.0601	999	
355.0927	52	
356.0679	136	
357.0393	142	
357.0757	174	
358.0472	56	
358.0836	80	
359.0491	92	
359.0914	59	
360.0628	31	
365.0401	46	
365.0808	44	
366.0523	45	
367.0601	306	
367.0965	32	
368.0679	431	
369.0335	110	
369.0757	324	
370.0472	304	
370.0836	69	
371.055	381	
371.0914	45	
372.0628	459	
373.0707	214	
377.0808	32	
379.0601	71	
380.0679	81	
381.0757	200	
382.0472	186	
382.0836	104	
383.055	869	
383.0914	78	
384.0628	669	
385.0343	501	
385.0707	390	
386.0421	249	
386.0785	128	
387.0499	258	
387.0863	79	
389.0597	43	
391.0544	59	
392.0679	41	
393.0757	57	
395.0505	227	
395.0914	34	
396.0628	199	
397.0343	35	
397.0707	311	
398.0421	157	
398.0785	153	
399.0499	647	
399.0863	109	
400.0577	618	
401.0656	357	
402.0311	114	
405.0757	31	
407.0446	40	
407.0972	41	
408.0628	72	
409.0707	206	
410.0379	53	
410.0848	101	
411.0412	231	
411.0863	81	
412.0577	324	
413.0656	671	
414.0309	145	
415.0812	780	
416.0462	34	
417.0605	168	
419.0761	56	
423.0398	95	
424.0519	33	
424.0941	46	
425.0612	108	
426.0734	87	
427.0388	102	
427.0812	173	
428.0434	141	
429.0605	84	
429.0969	46	
435.0863	32	
437.0656	176	
439.0812	57	
440.0452	38	
441.0605	310	
443.0704	83	
453.0969	58	
455.0761	41	
