Mass spectrum: Tenuazonic acid; LC-ESI-ITFT; MS2; CE: 55; R=17500; [M+H]+
Name: Tenuazonic acid
Name: (2S)-4-acetyl-2-[(2S)-butan-2-yl]-3-hydroxy-1,2-dihydropyrrol-5-one
Class: Natural Product; Fungal metabolite
Formula: C10H15NO3
Exact mass: 197.10519
SMILES: CC[C@H](C)[C@H]1C(=C(C(=O)N1)C(=O)C)O
InChI: InChI=1S/C10H15NO3/c1-4-5(2)8-9(13)7(6(3)12)10(14)11-8/h5,8,13H,4H2,1-3H3,(H,11,14)/t5-,8-/m0/s1
Instrument: Q-Exactive Orbitrap Thermo Scientific
Instrument type: LC-ESI-ITFT
Ms type: MS2
Ion mode: POSITIVE
Ionization: ESI
Fragmentation mode: HCD
Collision energy: 55(NCE)
Resolution: 17500
Column name: Agilent RRHD Eclipse 50 x 2 mm, 1.8 uM
Retention time: 3.16
Base peak: 83.0137
Precursor m/z: 198.1119
Precursor type: [M+H]+
m/z	relative intensity	assigned
55.019	222	
55.0552	158	
57.0345	36	
57.0709	367	
67.0188	38	
67.0554	86	
69.0708	184	
71.0138	38	
71.0865	31	
72.0454	117	
79.0551	101	
81.0709	59	
83.0137	999	
83.05	45	
83.0855	238	
86.0611	35	
86.0973	257	
91.0542	101	
93.0699	172	
95.0855	112	
96.0444	196	
97.0284	677	
97.0648	175	
97.1012	121	
100.0393	397	
107.0491	58	
107.0855	104	
109.0648	31	
111.0804	426	
114.055	53	
115.039	801	
121.0648	121	
123.0315	33	
124.0393	270	
125.0233	727	
125.0597	231	
125.0961	144	
127.039	50	
135.0804	182	
138.0913	150	
139.039	318	
139.0754	170	
141.042	60	
142.0499	630	
143.0342	235	
152.107	38	
153.091	313	
156.1019	101	
163.0754	33	
180.1019	104	
181.0859	50	C10H13O3+
198.1125	114	
