Mass spectrum: Andrastin D; LC-ESI-ITFT; MS2; CE: 55; R=17500; [M-H]-
Name: Andrastin D
Name: methyl (5S,8S,9S,10R,13R,14R)-17-hydroxy-4,4,8,10,12,13,16-heptamethyl-3,15-dioxo-1,2,5,6,7,9-hexahydrocyclopenta[a]phenanthrene-14-carboxylate
Class: Natural Product; Fungal metabolite
Formula: C26H36O5
Exact mass: 428.25629
SMILES: CC1=C[C@H]2[C@@]3(CCC(=O)C([C@H]3CC[C@@]2([C@]4([C@@]1(C(=C(C4=O)C)O)C)C(=O)OC)C)(C)C)C
InChI: InChI=1S/C26H36O5/c1-14-13-17-23(5)11-10-18(27)22(3,4)16(23)9-12-24(17,6)26(21(30)31-8)20(29)15(2)19(28)25(14,26)7/h13,16-17,28H,9-12H2,1-8H3/t16-,17+,23-,24+,25+,26-/m1/s1
Instrument: Q-Exactive Orbitrap Thermo Scientific
Instrument type: LC-ESI-ITFT
Ms type: MS2
Ion mode: NEGATIVE
Ionization: ESI
Fragmentation mode: HCD
Collision energy: 55(NCE)
Resolution: 17500
Column name: Agilent RRHD Eclipse 50 x 2 mm, 1.8 uM
Retention time: 3.95
Base peak: 182.057
Precursor m/z: 427.2496
Precursor type: [M-H]-
m/z	relative intensity	assigned
68.9963	36	
71.0487	83	
75.0071	82	
97.0641	184	
99.007	105	
108.0198	33	
122.0358	36	
123.0434	901	
149.0226	37	
151.0384	102	
151.0765	71	
167.035	797	
181.0506	633	
182.0584	999	
255.1391	32	
269.1911	35	
295.1704	36	
297.186	210	
311.2017	37	
321.186	31	
323.1653	40	
335.2017	44	
337.1809	51	
339.1966	39	
351.233	41	
353.2122	587	
395.2228	171	
397.202	61	
412.2255	126	
427.248	679	
