Mass spectrum: Mycophenolic acid; LC-ESI-ITFT; MS2; CE: 30; R=17500; [M+Na]+
Name: Mycophenolic acid
Name: Mycophenolate
Name: Myfortic
Name: Melbex
Name: (E)-6-(4-hydroxy-6-methoxy-7-methyl-3-oxo-1H-2-benzofuran-5-yl)-4-methylhex-4-enoic acid
Class: Natural Product; Fungal metabolite
Formula: C17H20O6
Exact mass: 320.12598
SMILES: CC1=C(C(=C(C2=C1COC2=O)O)C/C=C(\C)/CCC(=O)O)OC
InChI: InChI=1S/C17H20O6/c1-9(5-7-13(18)19)4-6-11-15(20)14-12(8-23-17(14)21)10(2)16(11)22-3/h4,20H,5-8H2,1-3H3,(H,18,19)/b9-4+
Instrument: Q-Exactive Orbitrap Thermo Scientific
Instrument type: LC-ESI-ITFT
Ms type: MS2
Ion mode: POSITIVE
Ionization: ESI
Fragmentation mode: HCD
Collision energy: 30(NCE)
Resolution: 17500
Column name: Agilent RRHD Eclipse 50 x 2 mm, 1.8 uM
Retention time: 3.36
Base peak: 343.1165
Precursor m/z: 343.1147
Precursor type: [M+Na]+
m/z	relative intensity	assigned
229.0471	346	
343.1152	999	
