Mass spectrum: T-2 Toxin; LC-ESI-ITFT; MS2; CE: 35; R=17500; [M+Na]+
Name: T-2 Toxin
Name: Fusariotoxin T 2
Name: Insariotoxin
Name: T-2 mycotoxin
Name: (2alpha,3alpha,4beta,8alpha)-4,15-bis(acetyloxy)-3-hydroxy-12,13-epoxytrichothec-9-en-8-yl 3-methylbutanoate
Class: Natural Product; Fungal metabolite
Formula: C24H34O9
Exact mass: 466.22027
SMILES: CC1=C[C@@H]2[C@](C[C@@H]1OC(=O)CC(C)C)([C@]3([C@@H]([C@H]([C@H]([C@@]34CO4)O2)O)OC(=O)C)C)COC(=O)C
InChI: InChI=1S/C24H34O9/c1-12(2)7-18(27)32-16-9-23(10-29-14(4)25)17(8-13(16)3)33-21-19(28)20(31-15(5)26)22(23,6)24(21)11-30-24/h8,12,16-17,19-21,28H,7,9-11H2,1-6H3/t16-,17+,19+,20+,21+,22+,23+,24-/m0/s1
Instrument: Q-Exactive Orbitrap Thermo Scientific
Instrument type: LC-ESI-ITFT
Ms type: MS2
Ion mode: POSITIVE
Ionization: ESI
Fragmentation mode: HCD
Collision energy: 35(NCE)
Resolution: 17500
Column name: Agilent RRHD Eclipse 50 x 2 mm, 1.8 uM
Retention time: 3.56
Base peak: 245.1162
Precursor m/z: 489.2089
Precursor type: [M+Na]+
m/z	relative intensity	assigned
93.0699	35	
105.0699	48	C8H9+
121.0648	47	
143.0855	78	
145.1012	37	
157.1012	68	
159.0804	31	
169.1012	33	
171.1168	82	
173.0961	32	
181.1012	31	
185.0961	46	
187.1118	43	
199.1118	76	
203.1067	31	
215.1067	49	
227.1067	35	
245.1172	999	
267.0992	66	
327.1203	320	
387.1414	148	
489.2095	72	
