Mass spectrum: Satratoxin G; LC-ESI-ITFT; MS2; CE: 40; R=17500; [M+H]+
Name: Satratoxin G
Class: Natural Product; Fungal metabolite
Formula: C29H36O10
Exact mass: 544.23084
SMILES: CC1=CC2C3(CC1)COC(=O)C4C5(O4)CCOC(C5O)(/C=C/C=C\C(=O)OC6C3(C7(CO7)C(C6)O2)C)C(C)O
InChI: InChI=1S/C29H36O10/c1-16-7-9-26-14-34-23(32)22-28(39-22)10-11-35-27(17(2)30,24(28)33)8-5-4-6-21(31)38-18-13-20(37-19(26)12-16)29(15-36-29)25(18,26)3/h4-6,8,12,17-20,22,24,30,33H,7,9-11,13-15H2,1-3H3/b6-4-,8-5+
Instrument: Q-Exactive Orbitrap Thermo Scientific
Instrument type: LC-ESI-ITFT
Ms type: MS2
Ion mode: POSITIVE
Ionization: ESI
Fragmentation mode: HCD
Collision energy: 40(NCE)
Resolution: 17500
Column name: Agilent RRHD Eclipse 50 x 2 mm, 1.8 uM
Retention time: 3.18
Base peak: 105.0708
Precursor m/z: 545.2376
Precursor type: [M+H]+
m/z	relative intensity	assigned
61.0938	37	
62.0451	45	
67.0554	58	
69.0344	62	
71.3671	44	
78.0281	50	
79.0553	96	
81.0709	369	
91.0542	107	
93.0335	51	
93.0699	425	
95.0491	104	
95.0855	206	
97.0284	82	
97.0648	50	
97.1719	52	
99.0441	81	
105.0699	999	
107.0491	84	
107.0855	110	
109.0648	288	
118.8604	46	
119.0855	74	
121.0648	281	
123.0804	403	
125.0597	71	
131.0855	63	
133.0648	58	
135.0804	58	
142.0777	66	
143.0855	286	
145.0648	71	
147.1168	54	
151.4038	50	
156.0934	73	
157.1012	104	
159.0804	53	
159.1168	121	
161.0597	62	
161.0961	49	
165.0546	52	C9H9O3+
170.109	61	
171.1168	81	
173.1325	102	
183.1168	78	
185.1325	232	
201.1274	119	
203.1431	86	
213.1274	56	
231.138	257	
249.1485	49	
