Mass spectrum: Deoxynivalenol; LC-ESI-ITFT; MS2; CE: 10; R=17500; [M+H]+
Name: Deoxynivalenol
Name: Vomitoxin
Name: 12,13-Epoxy-3-alpha,7-alpha,15-trihydroxy-9-trichothecen-8-one
Class: Natural Product; Fungal metabolite
Formula: C15H20O6
Exact mass: 296.12598
SMILES: CC1=C[C@@H]2[C@]([C@@H](C1=O)O)([C@]3(C[C@H]([C@H]([C@@]34CO4)O2)O)C)CO
InChI: InChI=1S/C15H20O6/c1-7-3-9-14(5-16,11(19)10(7)18)13(2)4-8(17)12(21-9)15(13)6-20-15/h3,8-9,11-12,16-17,19H,4-6H2,1-2H3/t8-,9-,11-,12-,13-,14-,15+/m1/s1
Instrument: Q-Exactive Orbitrap Thermo Scientific
Instrument type: LC-ESI-ITFT
Ms type: MS2
Ion mode: POSITIVE
Ionization: ESI
Fragmentation mode: HCD
Collision energy: 10(NCE)
Resolution: 17500
Column name: Agilent RRHD Eclipse 50 x 2 mm, 1.8 uM
Retention time: 2.3
Base peak: 297.1323
Precursor m/z: 297.1327
Precursor type: [M+H]+
m/z	relative intensity	assigned
69.0335	72	
95.0491	54	
97.0648	48	
103.039	44	
109.0648	44	
125.0597	156	
135.0804	43	
137.0597	136	
159.0804	72	
159.1168	56	
161.0597	47	
161.0961	49	
163.0754	45	
165.091	46	
173.0961	73	
175.0754	183	
175.1118	43	
177.091	106	
185.0961	60	
187.1118	131	
189.091	168	
191.1067	49	
201.091	113	
203.1067	514	
205.0859	38	
213.091	144	
214.9165	62	
215.1067	98	
219.1016	274	
231.1016	478	
232.9274	474	
233.1172	116	
249.1121	908	
250.9379	518	
251.1278	292	
261.1121	309	
267.1227	113	
279.1227	192	
297.1333	999	
