Mass spectrum: Ergocryptine; LC-ESI-ITFT; MS2; CE: 55; R=17500; [M+H]+
Name: Ergocryptine
Name: 12'-hydroxy-2'-(1-methylethyl)-5'alpha-(2-methylpropyl)ergotaman-3',6',18-trione
Class: Natural Product; Fungal metabolite
Formula: C32H41N5O5
Exact mass: 575.31077
SMILES: CC(C)C[C@H]1C(=O)N2CCC[C@H]2[C@]3(N1C(=O)[C@](O3)(C(C)C)NC(=O)[C@H]4CN([C@@H]5CC6=CNC7=CC=CC(=C67)C5=C4)C)O
InChI: InChI=1S/C32H41N5O5/c1-17(2)12-25-29(39)36-11-7-10-26(36)32(41)37(25)30(40)31(42-32,18(3)4)34-28(38)20-13-22-21-8-6-9-23-27(21)19(15-33-23)14-24(22)35(5)16-20/h6,8-9,13,15,17-18,20,24-26,33,41H,7,10-12,14,16H2,1-5H3,(H,34,38)/t20-,24-,25+,26+,31-,32+/m1/s1
Instrument: Q-Exactive Orbitrap Thermo Scientific
Instrument type: LC-ESI-ITFT
Ms type: MS2
Ion mode: POSITIVE
Ionization: ESI
Fragmentation mode: HCD
Collision energy: 55(NCE)
Resolution: 17500
Column name: Agilent RRHD Eclipse 50 x 2 mm, 1.8 uM
Retention time: 2.75
Base peak: 208.0756
Precursor m/z: 576.3175
Precursor type: [M+H]+
m/z	relative intensity	assigned
70.0659	62	
167.073	40	
178.0651	31	
180.0808	506	
182.0964	44	
191.073	98	
192.0808	158	
194.0964	48	
197.1073	99	C13H13N2+
207.0679	129	
207.0917	94	
208.0757	999	
208.0995	195	
211.1441	45	C11H19N2O2+
221.1073	70	C15H13N2+
223.123	437	
225.1022	165	
