Mass spectrum: Alternariol methyl ether; LC-ESI-ITFT; MS2; CE: 50; R=17500; [M+H]+
Name: Alternariol methyl ether
Name: Alternariol monomethyl ether, Djalonensone
Name: 3,7-dihydroxy-9-methoxy-1-methylbenzo[c]chromen-6-one
Class: Natural Product; Fungal metabolite
Formula: C15H12O5
Exact mass: 272.06846
SMILES: CC1=CC(=CC2=C1C3=CC(=CC(=C3C(=O)O2)O)OC)O
InChI: InChI=1S/C15H12O5/c1-7-3-8(16)4-12-13(7)10-5-9(19-2)6-11(17)14(10)15(18)20-12/h3-6,16-17H,1-2H3
Instrument: Q-Exactive Orbitrap Thermo Scientific
Instrument type: LC-ESI-ITFT
Ms type: MS2
Ion mode: POSITIVE
Ionization: ESI
Fragmentation mode: HCD
Collision energy: 50(NCE)
Resolution: 17500
Column name: Agilent RRHD Eclipse 50 x 2 mm, 1.8 uM
Retention time: 3.64
Base peak: 273.0744
Precursor m/z: 273.0752
Precursor type: [M+H]+
m/z	relative intensity	assigned
175.0754	48	
185.0597	43	
197.0597	44	
199.0754	125	
203.0703	32	
212.0468	34	
213.0546	63	
214.0624	54	
227.0703	128	
230.0574	121	
231.0652	35	
240.0417	42	
241.0495	89	
255.0652	95	
258.0523	198	
273.0757	999	
