Mass spectrum: Deoxynivalenol-3-glucoside; LC-APCI-ITFT; MS2; CE: 30; R=17500; [M+H]+
Name: Deoxynivalenol-3-glucoside
Name: (3alpha,7beta,12epsilon)-7,15-Dihydroxy-8-oxo-12,13-epoxytrichothec-9-en-3-yl beta-D-glucopyranoside
Class: Natural Product; Fungal metabolite
Formula: C21H30O11
Exact mass: 458.17879
SMILES: CC1=C[C@@H]2[C@]([C@@H](C1=O)O)([C@]3(C[C@H]([C@H]([C@@]34CO4)O2)O[C@H]5[C@@H]([C@H]([C@@H]([C@H](O5)CO)O)O)O)C)CO
InChI: InChI=1S/C21H30O11/c1-8-3-11-20(6-23,16(28)12(8)24)19(2)4-9(17(32-11)21(19)7-29-21)30-18-15(27)14(26)13(25)10(5-22)31-18/h3,9-11,13-18,22-23,25-28H,4-7H2,1-2H3/t9-,10-,11-,13-,14+,15-,16-,17-,18-,19-,20-,21+/m1/s1
Instrument: Q-Exactive Orbitrap Thermo Scientific
Instrument type: LC-APCI-ITFT
Ms type: MS2
Ion mode: POSITIVE
Ionization: APCI
Fragmentation mode: HCD
Collision energy: 30(NCE)
Resolution: 17500
Column name: Agilent RRHD Eclipse 50 x 2 mm, 1.8 uM
Retention time: 2.2
Base peak: 231.1024
Precursor m/z: 459.1855
Precursor type: [M+H]+
m/z	relative intensity	assigned
69.0342	159	
79.0542	41	
81.0707	37	
85.0294	312	
93.0699	33	
95.0491	44	
97.0284	31	
97.0648	90	
99.0441	37	
107.0491	46	
109.0284	93	
109.0648	139	
121.0648	81	
125.0597	326	
127.039	43	
137.0597	297	
147.0804	37	C10H11O1+
153.0546	86	
159.0804	115	
159.1168	43	C12H15+
161.0597	76	
161.0961	46	C11H13O1+
165.091	171	C10H13O2+
173.0961	148	
175.0754	373	
175.1118	84	
177.091	242	
185.0961	113	
187.0754	32	
187.1118	196	
189.091	494	
191.1067	34	
197.0961	35	
201.091	171	
203.1067	640	
205.0859	79	
213.091	287	
215.1067	157	
217.1223	39	
219.1016	580	
231.1016	999	
233.1172	91	
243.1042	42	
249.1121	981	
251.1278	220	
261.1121	337	
267.1227	36	
279.1227	181	
297.1333	546	
