Mass spectrum: Koninginin E; LC-ESI-ITFT; MS2; CE: 50; R=17500; [M+H]+
Name: Koninginin E
Name: (2S,8R)-8-hydroxy-2-[(1S)-1-hydroxyheptyl]-2,3,4,6,7,8-hexahydrochromen-5-one
Class: Natural Product; Fungal metabolite
Formula: C16H26O4
Exact mass: 282.18312
SMILES: CCCCCC[C@@H]([C@@H]1CCC2=C(O1)[C@@H](CCC2=O)O)O
InChI: InChI=1S/C16H26O4/c1-2-3-4-5-6-13(18)15-10-7-11-12(17)8-9-14(19)16(11)20-15/h13-15,18-19H,2-10H2,1H3/t13-,14+,15-/m0/s1
Instrument: Q-Exactive Orbitrap Thermo Scientific
Instrument type: LC-ESI-ITFT
Ms type: MS2
Ion mode: POSITIVE
Ionization: ESI
Fragmentation mode: HCD
Collision energy: 50(NCE)
Resolution: 17500
Column name: Agilent RRHD Eclipse 50 x 2 mm, 1.8 uM
Retention time: 3.57
Base peak: 153.0904
Precursor m/z: 283.1899
Precursor type: [M+H]+
m/z	relative intensity	assigned
53.0029	33	
55.0186	134	
55.0549	34	
57.0705	223	
67.0542	90	
69.0699	88	
71.0491	45	
79.0542	247	
81.0335	41	
81.0699	164	
83.0491	37	
85.1012	452	
87.0441	75	
89.0597	56	
91.0542	82	
93.0699	155	
95.0128	38	C5H3O2+
95.0491	157	
95.0855	145	
97.0648	51	
105.0699	40	
107.0491	142	C7H7O1+
107.0855	121	C8H11+
109.0648	152	
113.0961	163	C7H13O1+
117.0699	113	
119.0491	50	C8H7O1+
121.0648	39	
121.1012	31	
123.0441	81	
125.0597	299	
131.0855	48	
135.0804	362	
137.0597	179	
143.0703	87	
149.0961	35	
153.091	999	
