Mass spectrum: Enniatin B; LC-ESI-ITFT; MS2; CE: 35; R=17500; [M+H]+
Name: Enniatin B
Class: Natural Product; Fungal metabolite
Formula: C33H57N3O9
Exact mass: 639.40948
SMILES: CC(C)[C@H]1C(=O)O[C@@H](C(=O)N([C@H](C(=O)O[C@@H](C(=O)N([C@H](C(=O)O[C@@H](C(=O)N1C)C(C)C)C(C)C)C)C(C)C)C(C)C)C)C(C)C
InChI: InChI=1S/C33H57N3O9/c1-16(2)22-31(40)43-26(20(9)10)29(38)35(14)24(18(5)6)33(42)45-27(21(11)12)30(39)36(15)23(17(3)4)32(41)44-25(19(7)8)28(37)34(22)13/h16-27H,1-15H3/t22-,23-,24-,25+,26+,27+/m0/s1
Instrument: Q-Exactive Orbitrap Thermo Scientific
Instrument type: LC-ESI-ITFT
Ms type: MS2
Ion mode: POSITIVE
Ionization: ESI
Fragmentation mode: HCD
Collision energy: 35(NCE)
Resolution: 17500
Column name: Agilent RRHD Eclipse 50 x 2 mm, 1.8 uM
Retention time: 4.78
Base peak: 86.0966
Precursor m/z: 640.4162
Precursor type: [M+H]+
m/z	relative intensity	assigned
86.0964	999	
168.1383	45	
186.1489	465	
196.1332	991	
214.1438	647	
314.1935	280	
