Mass spectrum: Surfactin C; LC-ESI-ITFT; MS2; CE: 30; R=17500; [M+H]+
Name: Surfactin C
Name: 3-[(3S,6R,9S,12S,15R,18S,21S,25R)-9-(carboxymethyl)-3,6,15,18-tetrakis(2-methylpropyl)-25-(10-methylundecyl)-2,5,8,11,14,17,20,23-octaoxo-12-propan-2-yl-1-oxa-4,7,10,13,16,19,22-heptazacyclopentacos-21-yl]propanoic acid
Class: Natural Product; Bacterial metabolite
Formula: C53H93N7O13
Exact mass: 1035.68314
SMILES: CC(C)CCCCCCCCC[C@@H]1CC(=O)N[C@H](C(=O)N[C@H](C(=O)N[C@@H](C(=O)N[C@H](C(=O)N[C@H](C(=O)N[C@@H](C(=O)N[C@H](C(=O)O1)CC(C)C)CC(C)C)CC(=O)O)C(C)C)CC(C)C)CC(C)C)CCC(=O)O
InChI: InChI=1S/C53H93N7O13/c1-30(2)20-18-16-14-13-15-17-19-21-36-28-43(61)54-37(22-23-44(62)63)47(66)55-38(24-31(3)4)48(67)57-40(26-33(7)8)51(70)60-46(35(11)12)52(71)58-41(29-45(64)65)50(69)56-39(25-32(5)6)49(68)59-42(27-34(9)10)53(72)73-36/h30-42,46H,13-29H2,1-12H3,(H,54,61)(H,55,66)(H,56,69)(H,57,67)(H,58,71)(H,59,68)(H,60,70)(H,62,63)(H,64,65)/t36-,37+,38+,39-,40-,41+,42+,46+/m1/s1
Instrument: Q-Exactive Orbitrap Thermo Scientific
Instrument type: LC-ESI-ITFT
Ms type: MS2
Ion mode: POSITIVE
Ionization: ESI
Fragmentation mode: HCD
Collision energy: 30(NCE)
Resolution: 17500
Column name: Agilent RRHD Eclipse 50 x 2 mm, 1.8 uM
Retention time: 5.05
Base peak: 86.0973
Precursor m/z: 1036.6899
Precursor type: [M+H]+
m/z	relative intensity	assigned
72.0817	93	
84.0453	128	
86.0973	999	
102.055	71	
130.0499	87	
132.1019	67	
154.159	38	
183.1128	67	
185.1648	78	
199.1805	375	
200.1645	46	
201.1234	216	
213.1598	74	
215.104	42	
227.1754	530	
229.1183	218	
240.2322	62	
243.1353	54	
245.186	142	
255.1703	44	
267.2431	34	
283.1666	45	
283.2016	72	
285.1445	31	
295.238	47	
296.1982	84	
297.1809	34	
311.1965	58	
324.2533	57	
325.1771	33	
326.2438	50	
328.188	261	
334.2381	53	
342.2037	197	
342.2639	45	
352.2487	438	
360.2129	44	
370.2601	396	
371.3287	44	
395.2666	108	
396.2493	53	
413.2758	38	
419.3273	41	
423.2589	31	
437.3392	38	
441.2721	180	C23H39N1O7+
447.3231	37	
455.2882	41	
455.3498	45	C13H51N4O12+
465.3337	157	
483.3442	232	
596.4296	59	
