Mass spectrum: Koninginin E; LC-ESI-ITFT; MS2; CE: 20; R=17500; [M+H]+
Name: Koninginin E
Name: (2S,8R)-8-hydroxy-2-[(1S)-1-hydroxyheptyl]-2,3,4,6,7,8-hexahydrochromen-5-one
Class: Natural Product; Fungal metabolite
Formula: C16H26O4
Exact mass: 282.18312
SMILES: CCCCCC[C@@H]([C@@H]1CCC2=C(O1)[C@@H](CCC2=O)O)O
InChI: InChI=1S/C16H26O4/c1-2-3-4-5-6-13(18)15-10-7-11-12(17)8-9-14(19)16(11)20-15/h13-15,18-19H,2-10H2,1H3/t13-,14+,15-/m0/s1
Instrument: Q-Exactive Orbitrap Thermo Scientific
Instrument type: LC-ESI-ITFT
Ms type: MS2
Ion mode: POSITIVE
Ionization: ESI
Fragmentation mode: HCD
Collision energy: 20(NCE)
Resolution: 17500
Column name: Agilent RRHD Eclipse 50 x 2 mm, 1.8 uM
Retention time: 3.57
Base peak: 153.0903
Precursor m/z: 283.1899
Precursor type: [M+H]+
m/z	relative intensity	assigned
85.1012	110	
107.0491	32	C7H7O1+
113.0961	299	
115.039	34	
131.1067	51	
135.0804	753	
137.0597	80	
153.091	999	
155.1431	98	
219.1744	58	
229.1587	36	
237.1849	90	
247.1693	401	
265.1798	758	
283.1904	945	
