Mass spectrum: Diacetoxyscirpenol; LC-ESI-ITFT; MS2; CE: 50; R=17500; [M+Na]+
Name: Diacetoxyscirpenol
Name: Anguidine, Anguidin
Name: (3beta,4alpha,12R)-3-Hydroxy-12,13-epoxytrichothec-9-ene-4,15-diyl diacetate
Class: Natural Product; Fungal metabolite
Formula: C19H26O7
Exact mass: 366.16785
SMILES: CC1=C[C@@H]2[C@](CC1)([C@]3([C@@H]([C@H]([C@H]([C@]34CO4)O2)O)OC(=O)C)C)COC(=O)C
InChI: InChI=1S/C19H26O7/c1-10-5-6-18(8-23-11(2)20)13(7-10)26-16-14(22)15(25-12(3)21)17(18,4)19(16)9-24-19/h7,13-16,22H,5-6,8-9H2,1-4H3/t13-,14-,15-,16-,17-,18-,19-/m1/s1
Instrument: Q-Exactive Orbitrap Thermo Scientific
Instrument type: LC-ESI-ITFT
Ms type: MS2
Ion mode: POSITIVE
Ionization: ESI
Fragmentation mode: HCD
Collision energy: 50(NCE)
Resolution: 17500
Column name: Agilent RRHD Eclipse 50 x 2 mm, 1.8 uM
Retention time: 3.05
Base peak: 95.0493
Precursor m/z: 389.1565
Precursor type: [M+Na]+
m/z	relative intensity	assigned
52.4519	132	
66.9538	149	
67.0542	210	
77.3269	143	
78.3036	136	
79.0542	210	
81.0699	183	C6H9+
83.1464	135	
91.0542	346	
93.0699	277	
95.0491	999	
95.0855	757	
105.0699	769	C8H9+
106.8244	159	
107.0855	607	
117.0699	186	
119.0855	310	
121.0648	200	
130.4548	171	
131.0855	294	
142.7051	180	
147.0804	377	
159.0804	198	
159.1168	297	
175.1118	311	
206.9089	180	
212.5135	160	
247.1329	692	
281.8197	213	
389.1571	804	
