Mass spectrum: Walleminone; LC-ESI-ITFT; MS2; CE: 10; R=17500; [M+H]+
Name: Walleminone
Name: (1R,4S,5S,6R,9R)-5,6-dihydroxy-4,11,11-trimethyl-8-methylidenebicyclo[7.2.0]undecan-3-one
Class: Natural Product; Fungal metabolite
Formula: C15H24O3
Exact mass: 252.17255
SMILES: C[C@H]1[C@@H]([C@@H](CC(=C)[C@@H]2CC([C@@H]2CC1=O)(C)C)O)O
InChI: InChI=1S/C15H24O3/c1-8-5-13(17)14(18)9(2)12(16)6-11-10(8)7-15(11,3)4/h9-11,13-14,17-18H,1,5-7H2,2-4H3/t9-,10+,11-,13-,14+/m1/s1
Instrument: Q-Exactive Orbitrap Thermo Scientific
Instrument type: LC-ESI-ITFT
Ms type: MS2
Ion mode: POSITIVE
Ionization: ESI
Fragmentation mode: HCD
Collision energy: 10(NCE)
Resolution: 17500
Column name: Agilent RRHD Eclipse 50 x 2 mm, 1.8 uM
Retention time: 3.44
Base peak: 253.1785
Precursor m/z: 253.1793
Precursor type: [M+H]+
m/z	relative intensity	assigned
95.0855	40	
109.0648	37	
109.1012	33	
119.0855	31	
121.1012	65	
123.1168	45	
125.0597	39	
133.1012	35	
135.1168	36	
137.0961	48	
151.1481	33	
155.0703	65	
161.1325	47	
163.1118	52	
167.1067	33	
175.1481	86	
179.1067	114	
179.1431	76	
181.1223	70	
197.1172	34	
217.1587	69	
235.1693	177	
253.1798	999	
