Mass spectrum: NX2 toxin; LC-APCI-ITFT; MS2; CE: 30; R=17500; [M+H]+
Name: NX2 toxin
Class: Natural Product; Fungal metabolite
Formula: C17H24O6
Exact mass: 324.15728
SMILES: CC1=C[C@@H]2[C@]([C@@]3(C)C[C@@H](OC(C)=O)[C@@H](O2)[C@@]34CO4)(CO)[C@H](O)C1
InChI: InChI=1S/C17H24O6/c1-9-4-12(20)16(7-18)13(5-9)23-14-11(22-10(2)19)6-15(16,3)17(14)8-21-17/h5,11-14,18,20H,4,6-8H2,1-3H3/t11-,12-,13-,14-,15-,16+,17+/m1/s1
Instrument: Q-Exactive Orbitrap Thermo Scientific
Instrument type: LC-APCI-ITFT
Ms type: MS2
Ion mode: POSITIVE
Ionization: APCI
Fragmentation mode: HCD
Collision energy: 30(NCE)
Resolution: 17500
Column name: Agilent RRHD Eclipse 50 x 2 mm, 1.8 uM
Retention time: 2.75
Base peak: 199.1121
Precursor m/z: 325.164
Precursor type: [M+H]+
m/z	relative intensity	assigned
69.0345	49	
71.05	31	
79.0542	96	
81.0707	238	
83.0491	61	
85.0648	56	
91.0542	61	
93.0699	430	
95.0491	109	
95.0855	50	
97.0648	125	
99.0441	104	
105.0699	631	
107.0491	82	
107.0855	106	
109.0648	448	
111.0441	52	
113.0597	38	
117.0699	45	
119.0491	89	
119.0855	155	
121.0648	744	
121.1012	31	
123.0804	229	
125.0597	334	
127.0754	53	
129.0699	60	
131.0855	190	
133.0648	401	
133.1012	93	
135.0441	35	
135.0804	61	
137.0597	90	
139.0754	709	
141.0699	38	
142.0777	39	
143.0855	395	
145.0648	57	
145.1012	262	
147.0804	199	
149.0597	48	
149.0961	48	
151.0754	76	
155.0855	144	
156.0934	40	
157.1012	509	
159.0804	195	
159.1168	241	
161.0961	182	
163.0754	41	
163.1118	87	
168.0934	117	C13H12+
169.1012	291	
171.0804	148	
171.1168	618	
173.0961	239	
173.1325	165	
175.1118	70	
181.1012	212	
183.1168	708	
185.0961	85	
187.1118	331	
189.091	42	
189.1274	133	
191.1067	358	
193.1012	123	
196.0883	63	
199.1118	999	
201.1274	381	
203.1067	50	
205.1223	66	
209.1172	112	
211.1118	418	
215.1067	100	
217.1223	624	
219.138	66	
229.1223	550	
235.1329	86	
247.1329	531	
259.1329	49	
265.1434	419	
277.1434	41	
283.154	405	
289.1434	111	
307.154	472	
325.1646	149	
