Mass spectrum: Phacidin; LC-ESI-ITFT; MS2; CE: 30; R=17500; [M+H]+
Name: Phacidin
Name: 6-methoxy-5-nonanoyl-4-oxopyran-2-carbaldehyde
Class: Natural Product; Fungal metabolite
Formula: C16H22O5
Exact mass: 294.14672
SMILES: CCCCCCCCC(=O)C1=C(OC(=CC1=O)C=O)OC
InChI: InChI=1S/C16H22O5/c1-3-4-5-6-7-8-9-13(18)15-14(19)10-12(11-17)21-16(15)20-2/h10-11H,3-9H2,1-2H3
Instrument: Q-Exactive Orbitrap Thermo Scientific
Instrument type: LC-ESI-ITFT
Ms type: MS2
Ion mode: POSITIVE
Ionization: ESI
Fragmentation mode: HCD
Collision energy: 30(NCE)
Resolution: 17500
Column name: Agilent RRHD Eclipse 50 x 2 mm, 1.8 uM
Retention time: 4.04
Base peak: 267.16
Precursor m/z: 295.1535
Precursor type: [M+H]+
m/z	relative intensity	assigned
57.071	249	
67.0553	91	
71.0866	457	
81.0709	216	
123.1168	132	
127.039	129	
141.1274	388	
155.0339	35	
169.0495	100	
197.0444	110	
267.1591	999	
295.154	676	
