Mass spectrum: Traversianal; LC-ESI-ITFT; MS2; CE: 20; R=17500; [M+H]+
Name: Traversianal
Name: (1R,3aR,4E,6aS,7S,9aR,10aR)-3a-Hydroxy-7-isopropenyl-1,9a-dimethyl-3-oxo-1,2,3,3a,6,6a,7,8,9,9a,10,10a-dodecahydrodicyclopenta[a,d][8]annulene-4-carbaldehyde
Class: Natural Product; Fungal metabolite
Formula: C20H28O3
Exact mass: 316.20386
SMILES: C[C@@H]1CC(=O)[C@]/2([C@@H]1C[C@]3(CC[C@@H]([C@@H]3C/C=C2/C=O)C(=C)C)C)O
InChI: InChI=1S/C20H28O3/c1-12(2)15-7-8-19(4)10-17-13(3)9-18(22)20(17,23)14(11-21)5-6-16(15)19/h5,11,13,15-17,23H,1,6-10H2,2-4H3/b14-5-/t13-,15-,16+,17-,19-,20+/m1/s1
Instrument: Q-Exactive Orbitrap Thermo Scientific
Instrument type: LC-ESI-ITFT
Ms type: MS2
Ion mode: POSITIVE
Ionization: ESI
Fragmentation mode: HCD
Collision energy: 20(NCE)
Resolution: 17500
Column name: Agilent RRHD Eclipse 50 x 2 mm, 1.8 uM
Retention time: 4.55
Base peak: 299.1996
Precursor m/z: 317.2106
Precursor type: [M+H]+
m/z	relative intensity	assigned
121.1012	32	
173.1325	50	
175.1481	95	
183.1168	55	
185.1325	107	
187.1481	46	
197.1325	34	
211.1481	34	
217.1223	100	
237.1638	54	
239.1431	36	
239.1795	134	
253.1951	109	
263.1795	58	
271.2057	166	
281.19	490	
299.2006	999	
317.2111	604	
