Mass spectrum: Fusarenone-X; LC-ESI-ITFT; MS2; CE: 35; R=17500; [M+H]+
Name: Fusarenone-X
Name: (3beta,4alpha,7alpha)-3,7,15-Trihydroxy-8-oxo-12,13-epoxytrichothec-9-en-4-yl acetate
Class: Natural Product; Fungal metabolite
Formula: C17H22O8
Exact mass: 354.13145
SMILES: CC1=C[C@@H]2[C@]([C@@H](C1=O)O)([C@]3([C@@H]([C@H]([C@H]([C@@]34CO4)O2)O)OC(=O)C)C)CO
InChI: InChI=1S/C17H22O8/c1-7-4-9-16(5-18,12(22)10(7)20)15(3)13(24-8(2)19)11(21)14(25-9)17(15)6-23-17/h4,9,11-14,18,21-22H,5-6H2,1-3H3/t9-,11-,12-,13-,14-,15-,16-,17+/m1/s1
Instrument: Q-Exactive Orbitrap Thermo Scientific
Instrument type: LC-ESI-ITFT
Ms type: MS2
Ion mode: POSITIVE
Ionization: ESI
Fragmentation mode: HCD
Collision energy: 35(NCE)
Resolution: 17500
Column name: Agilent RRHD Eclipse 50 x 2 mm, 1.8 uM
Retention time: 2.46
Base peak: 137.0591
Precursor m/z: 355.1382
Precursor type: [M+H]+
m/z	relative intensity	assigned
69.0335	69	
71.0491	90	
79.0542	36	
83.0491	34	
85.0284	57	
95.0491	62	
97.0648	51	
99.0441	216	C5H7O2+
107.0491	79	
109.0648	120	
119.0855	90	
121.0648	75	
123.0441	161	
125.0597	163	
131.0855	81	
135.0804	45	
137.0597	999	
141.0546	56	
143.0855	43	
145.0648	33	
145.1012	58	
147.0804	190	
149.0597	89	
149.0961	64	
151.039	45	
151.0754	42	
153.0546	97	
155.0855	33	
157.1012	43	
159.0804	249	
161.0597	120	
161.0961	66	
163.0754	217	
165.091	226	
171.0804	60	
173.0961	149	
175.0754	864	
175.1079	31	
177.0546	38	
177.091	346	
179.0703	54	
183.0804	70	
185.0961	107	
187.0754	178	
188.0832	34	
189.091	241	
191.0703	148	
191.1067	45	
193.0859	50	
199.0754	82	
201.091	472	
203.0703	35	
203.1067	70	
205.0859	438	
211.0754	107	
213.091	138	
214.0624	54	
217.0859	219	
219.1016	94	
229.0859	593	
231.1016	84	
241.0859	35	
247.0965	220	
259.0965	68	
277.107	36	
