Mass spectrum: Fusaperazine E; LC-ESI-ITFT; MS2; CE: 20; R=17500; [M+H]+
Name: Fusaperazine E
Name: (3Z)-1,4-dimethyl-3-[[4-(3-methylbut-2-enoxy)phenyl]methylidene]-6-methylsulfanylpiperazine-2,5-dione
Class: Natural Product; Fungal metabolite
Formula: C19H24N2O3S
Exact mass: 360.15076
SMILES: CC(=CCOC1=CC=C(C=C1)/C=C\2/C(=O)N(C(C(=O)N2C)SC)C)C
InChI: InChI=1S/C19H24N2O3S/c1-13(2)10-11-24-15-8-6-14(7-9-15)12-16-17(22)21(4)19(25-5)18(23)20(16)3/h6-10,12,19H,11H2,1-5H3/b16-12-
Instrument: Q-Exactive Orbitrap Thermo Scientific
Instrument type: LC-ESI-ITFT
Ms type: MS2
Ion mode: POSITIVE
Ionization: ESI
Fragmentation mode: HCD
Collision energy: 20(NCE)
Resolution: 17500
Column name: Agilent RRHD Eclipse 50 x 2 mm, 1.8 uM
Retention time: 3.91
Base peak: 245.0916
Precursor m/z: 361.1575
Precursor type: [M+H]+
m/z	relative intensity	assigned
69.0699	160	
107.0491	67	
141.0658	54	
153.0369	237	
159.0587	38	
187.0536	88	
188.0706	66	
217.0972	112	
218.105	70	
245.0921	999	
246.0999	58	
265.1005	66	
293.0954	822	
361.158	46	
