Mass spectrum: Fusaperazine A; LC-ESI-ITFT; MS2; CE: 30; R=17500; [M+H]+
Name: Fusaperazine A
Name: (3S,6S)-3-[(4-hydroxyphenyl)methyl]-3,6-bis(methylsulfanyl)piperazine-2,5-dione
Class: Natural Product; Fungal metabolite
Formula: C13H16N2O3S2
Exact mass: 312.06023
SMILES: CS[C@H]1C(=O)N[C@@](C(=O)N1)(CC2=CC=C(C=C2)O)SC
InChI: InChI=1S/C13H16N2O3S2/c1-19-11-10(17)15-13(20-2,12(18)14-11)7-8-3-5-9(16)6-4-8/h3-6,11,16H,7H2,1-2H3,(H,14,18)(H,15,17)/t11-,13-/m0/s1
Instrument: Q-Exactive Orbitrap Thermo Scientific
Instrument type: LC-ESI-ITFT
Ms type: MS2
Ion mode: POSITIVE
Ionization: ESI
Fragmentation mode: HCD
Collision energy: 30(NCE)
Resolution: 17500
Column name: Agilent RRHD Eclipse 50 x 2 mm, 1.8 uM
Retention time: 3.82
Base peak: 227.0812
Precursor m/z: 313.067
Precursor type: [M+H]+
m/z	relative intensity	assigned
172.0757	54	
199.0866	478	
217.0972	39	
227.0815	999	
239.1178	76	
240.1012	37	
244.0495	40	
245.0921	41	
252.0875	192	
257.0539	39	
267.1124	703	
285.1229	107	
295.1073	412	
303.1334	612	
