Mass spectrum: Aurofusarin; LC-ESI-ITFT; MS2; CE: 40; R=17500; [M+H]+
Name: Aurofusarin
Name: Airofusorin
Name: 5-hydroxy-7-(5-hydroxy-8-methoxy-2-methyl-4,6,9-trioxobenzo[g]chromen-7-yl)-8-methoxy-2-methylbenzo[g]chromene-4,6,9-trione
Class: Natural Product; Fungal metabolite
Formula: C30H18O12
Exact mass: 570.07979
SMILES: CC1=CC(=O)C2=C(O1)C=C3C(=C2O)C(=O)C(=C(C3=O)OC)C4=C(C(=O)C5=CC6=C(C(=O)C=C(O6)C)C(=C5C4=O)O)OC
InChI: InChI=1S/C30H18O12/c1-9-5-13(31)19-15(41-9)7-11-17(25(19)35)27(37)21(29(39-3)23(11)33)22-28(38)18-12(24(34)30(22)40-4)8-16-20(26(18)36)14(32)6-10(2)42-16/h5-8,35-36H,1-4H3
Instrument: Q-Exactive Orbitrap Thermo Scientific
Instrument type: LC-ESI-ITFT
Ms type: MS2
Ion mode: POSITIVE
Ionization: ESI
Fragmentation mode: HCD
Collision energy: 40(NCE)
Resolution: 17500
Column name: Agilent RRHD Eclipse 50 x 2 mm, 1.8 uM
Retention time: 3.68
Base peak: 485.049
Precursor m/z: 571.0865
Precursor type: [M+H]+
m/z	relative intensity	assigned
203.0339	60	
221.0444	55	
231.0288	55	
244.0366	56	
257.0444	56	
297.0393	58	
399.0863	33	
413.0656	46	
426.0734	39	
427.0812	45	
429.0605	77	
439.0381	43	
441.0605	221	
454.0683	67	
455.0761	74	
456.084	226	
457.0554	486	
468.0476	78	
469.0554	129	
471.071	38	
482.0632	104	
483.071	66	
484.0789	147	
485.0503	999	
496.0425	213	
497.0503	194	
500.0791	58	
510.0581	87	
511.0659	77	
513.0452	151	
516.0687	56	
525.0452	182	
528.0687	68	
541.0401	99	
556.0636	46	
