Mass spectrum: Trichodermamide C; LC-ESI-ITFT; MS2; CE: 10; R=17500; [M+Na]+
Name: Trichodermamide C
Class: Natural Product; Fungal metabolite
Formula: C21H22N2O9
Exact mass: 446.1325
SMILES: CN(C1=CC2=C(C(=C(C=C2)OC)OC)OC1=O)C(=O)C3=NO[C@H]4[C@@H](C=C[C@H]([C@]4(C3)O)O)O
InChI: InChI=1S/C21H22N2O9/c1-23(12-8-10-4-6-14(29-2)17(30-3)16(10)31-20(12)27)19(26)11-9-21(28)15(25)7-5-13(24)18(21)32-22-11/h4-8,13,15,18,24-25,28H,9H2,1-3H3/t13-,15-,18+,21+/m1/s1
Instrument: Q-Exactive Orbitrap Thermo Scientific
Instrument type: LC-ESI-ITFT
Ms type: MS2
Ion mode: POSITIVE
Ionization: ESI
Fragmentation mode: HCD
Collision energy: 10(NCE)
Resolution: 17500
Column name: Agilent RRHD Eclipse 50 x 2 mm, 1.8 uM
Retention time: 2.6
Base peak: 469.123
Precursor m/z: 469.1212
Precursor type: [M+Na]+
m/z	relative intensity	assigned
469.1217	999	
