Mass spectrum: Altersolanol A; LC-ESI-ITFT; MS2; CE: 20; R=17500; [M+H]+
Name: Altersolanol A
Name: (1S,2R,3S,4R)-1,2,3,4,8-pentahydroxy-6-methoxy-3-methyl-2,4-dihydro-1H-anthracene-9,10-dione
Class: Natural Product; Fungal metabolite
Formula: C16H16O8
Exact mass: 336.0845
SMILES: C[C@]1([C@@H]([C@H](C2=C([C@H]1O)C(=O)C3=CC(=CC(=C3C2=O)O)OC)O)O)O
InChI: InChI=1S/C16H16O8/c1-16(23)14(21)10-9(13(20)15(16)22)12(19)8-6(11(10)18)3-5(24-2)4-7(8)17/h3-4,13-15,17,20-23H,1-2H3/t13-,14+,15+,16-/m0/s1
Instrument: Q-Exactive Orbitrap Thermo Scientific
Instrument type: LC-ESI-ITFT
Ms type: MS2
Ion mode: POSITIVE
Ionization: ESI
Fragmentation mode: HCD
Collision energy: 20(NCE)
Resolution: 17500
Column name: Agilent RRHD Eclipse 50 x 2 mm, 1.8 uM
Retention time: 2.52
Base peak: 301.0695
Precursor m/z: 337.0912
Precursor type: [M+H]+
m/z	relative intensity	assigned
245.0808	204	
255.0652	33	
257.0808	73	
259.0601	414	
273.0757	867	
283.0601	33	
291.0863	99	
301.0707	999	
319.0812	63	
