Mass spectrum: Neoxaline; LC-ESI-ITFT; MS2; CE: 30; R=17500; [M+H]+
Name: Neoxaline
Name: (3E,7aS,12aR)-6-Hydroxy-3-(1H-imidazol-4-ylmethylene)-12-methoxy-7a-(2-methyl-3-buten-2-yl)-6,7,7a,12-tetrahydro-1H,5H-imidazo[1',2':1,2]pyrido[2,3-b]indole-2,5(3H)-dione
Class: Natural Product; Fungal metabolite
Formula: C23H25N5O4
Exact mass: 435.19064
SMILES: C=CC(C)(C)[C@]12C[C@@H](C(=O)N3/C(=C/c4cnc[nH]4)/C(=N[C@@]23N(c2ccccc12)OC)O)O
InChI: InChI=1S/C23H25N5O4/c1-5-21(2,3)22-11-18(29)20(31)27-17(10-14-12-24-13-25-14)19(30)26-23(22,27)28(32-4)16-9-7-6-8-15(16)22/h5-10,12-13,18,29H,1,11H2,2-4H3,(H,24,25)(H,26,30)/b17-10+/t18-,22-,23-/m0/s1
Instrument: Q-Exactive Orbitrap Thermo Scientific
Instrument type: LC-ESI-ITFT
Ms type: MS2
Ion mode: POSITIVE
Ionization: ESI
Fragmentation mode: HCD
Collision energy: 30(NCE)
Resolution: 17500
Column name: Agilent RRHD Eclipse 50 x 2 mm, 1.8 uM
Retention time: 2.68
Base peak: 336.0999
Precursor m/z: 436.1974
Precursor type: [M+H]+
m/z	relative intensity	assigned
166.0975	37	
203.0801	31	
204.0853	34	
214.1226	41	
215.1264	55	
216.1297	35	
262.0822	35	
263.0855	47	
264.0934	40	
278.1036	31	
279.1088	45	
280.1094	49	
289.072	117	C16H9N4O2+
290.0726	242	
291.0791	365	
292.0829	39	C15H10N5O2+
308.107	47	
318.0747	37	
319.0754	124	
320.0818	237	
321.0897	40	
334.0934	142	
335.0941	510	
336.1006	999	
337.1084	286	
374.1863	36	
376.202	46	
388.1656	39	
404.1659	47	
405.1683	337	
