Mass spectrum: Malformin A2; LC-ESI-ITFT; MS2; CE: 30; R=17500; [M+H]+
Name: Malformin A2
Name: cyclo[D-Cys(1)-D-Cys(1)-Val-D-Leu-Val]
Name: (1S,4S,7R,10S,13S)-7-(2-methylpropyl)-4,10-di(propan-2-yl)-15,16-dithia-3,6,9,12,18-pentazabicyclo[11.4.2]nonadecane-2,5,8,11,19-pentone
Class: Natural Product; Fungal metabolite
Formula: C22H37N5O5S2
Exact mass: 515.2236
SMILES: CC(C)C[C@@H]1C(=O)N[C@H](C(=O)N[C@@H]2CSSC[C@H](C(=O)N[C@H](C(=O)N1)C(C)C)NC2=O)C(C)C
InChI: InChI=1S/C22H37N5O5S2/c1-10(2)7-13-18(28)26-17(12(5)6)22(32)25-14-8-33-34-9-15(24-19(14)29)20(30)27-16(11(3)4)21(31)23-13/h10-17H,7-9H2,1-6H3,(H,23,31)(H,24,29)(H,25,32)(H,26,28)(H,27,30)/t13-,14-,15-,16+,17+/m1/s1
Instrument: Q-Exactive Orbitrap Thermo Scientific
Instrument type: LC-ESI-ITFT
Ms type: MS2
Ion mode: POSITIVE
Ionization: ESI
Fragmentation mode: HCD
Collision energy: 30(NCE)
Resolution: 17500
Column name: Agilent RRHD Eclipse 50 x 2 mm, 1.8 uM
Retention time: 3.26
Base peak: 72.0815
Precursor m/z: 516.2303
Precursor type: [M+H]+
m/z	relative intensity	assigned
51.4932	34	
55.055	35	
59.05	41	
72.0808	999	
86.0964	959	
91.0542	375	
109.9761	37	
140.1434	39	
165.0978	34	
185.1648	581	
213.1598	242	C11H21N2O2+
231.0632	293	
232.9284	180	
250.938	47	
259.0576	424	
287.7769	39	
304.0777	338	
344.1461	46	
372.1403	70	
514.3874	51	
