Mass spectrum: HT-2 Toxin; LC-ESI-ITFT; MS2; CE: 35; R=17500; [M+Na]+
Name: HT-2 Toxin
Name: 12,13-Epoxytrichothec-9-ene-3-alpha,4-beta,8-alpha,15-tetrol 15-acetate 8-isovalerate
Class: Natural Product; Fungal metabolite
Formula: C22H32O8
Exact mass: 424.20971
SMILES: CC1=C[C@@H]2[C@](C[C@@H]1OC(=O)CC(C)C)([C@]3([C@@H]([C@H]([C@H]([C@@]34CO4)O2)O)O)C)COC(=O)C
InChI: InChI=1S/C22H32O8/c1-11(2)6-16(24)29-14-8-21(9-27-13(4)23)15(7-12(14)3)30-19-17(25)18(26)20(21,5)22(19)10-28-22/h7,11,14-15,17-19,25-26H,6,8-10H2,1-5H3/t14-,15+,17+,18+,19+,20+,21+,22-/m0/s1
Instrument: Q-Exactive Orbitrap Thermo Scientific
Instrument type: LC-ESI-ITFT
Ms type: MS2
Ion mode: POSITIVE
Ionization: ESI
Fragmentation mode: HCD
Collision energy: 35(NCE)
Resolution: 17500
Column name: Agilent RRHD Eclipse 50 x 2 mm, 1.8 uM
Retention time: 3.14
Base peak: 345.1295
Precursor m/z: 447.1984
Precursor type: [M+Na]+
m/z	relative intensity	assigned
83.0103	42	
95.0491	31	
105.0699	86	C8H9+
119.0855	74	
121.0648	32	
131.0855	34	
143.0855	44	
145.1012	53	
157.1012	90	
159.0804	39	
159.1168	36	
169.1012	33	
171.1168	42	
173.0961	43	
175.1118	42	
185.0961	44	
187.1118	40	
197.0937	39	
199.1118	31	
203.1067	66	
204.1145	36	
205.1223	39	
213.0886	70	
227.1043	59	
255.0992	33	
263.1278	43	
267.0992	43	
285.1097	645	
303.1203	80	
327.1203	164	
345.1309	999	
429.1884	50	
447.1989	474	
