Mass spectrum: NX2 toxin; LC-APCI-ITFT; MS2; CE: 30; R=17500; [M-H2O+H]+
Name: NX2 toxin
Class: Natural Product; Fungal metabolite
Formula: C17H24O6
Exact mass: 324.15728
SMILES: CC1=C[C@@H]2[C@]([C@@]3(C)C[C@@H](OC(C)=O)[C@@H](O2)[C@@]34CO4)(CO)[C@H](O)C1
InChI: InChI=1S/C17H24O6/c1-9-4-12(20)16(7-18)13(5-9)23-14-11(22-10(2)19)6-15(16,3)17(14)8-21-17/h5,11-14,18,20H,4,6-8H2,1-3H3/t11-,12-,13-,14-,15-,16+,17+/m1/s1
Instrument: Q-Exactive Orbitrap Thermo Scientific
Instrument type: LC-APCI-ITFT
Ms type: MS2
Ion mode: POSITIVE
Ionization: APCI
Fragmentation mode: HCD
Collision energy: 30(NCE)
Resolution: 17500
Column name: Agilent RRHD Eclipse 50 x 2 mm, 1.8 uM
Retention time: 2.75
Base peak: 199.1121
Precursor m/z: 307.1535
Precursor type: [M-H2O+H]+
m/z	relative intensity	assigned
79.0551	600	
81.0707	188	
83.05	45	
91.0542	44	
93.0699	142	
95.0491	73	
97.0648	119	
105.0699	213	
107.0491	40	
107.0855	43	
109.0648	184	
111.0441	38	
119.0855	75	
121.0648	425	
123.0804	84	
125.0597	174	
131.0855	80	
133.0648	71	
133.1012	39	
135.0804	99	
137.0597	39	
139.0754	433	
143.0855	130	
145.0648	38	
145.1012	109	
147.0804	85	
151.0754	46	
155.0855	72	C12H11+
157.1012	195	
159.0804	169	
159.1168	140	
161.0961	107	
168.0934	37	
169.1012	133	
171.0804	45	
171.1168	289	
173.0961	159	
173.1325	82	
175.1118	66	
181.1012	84	
183.1168	278	
185.0961	50	
187.1118	259	
189.1274	41	
193.1012	43	
199.1118	999	
201.1274	234	
203.1067	62	
205.1223	59	
211.1118	200	
215.1067	150	
217.1223	242	
219.138	73	
229.1223	343	
233.1172	44	
235.1329	41	
247.1329	306	
265.1434	261	
277.1434	50	
289.1434	63	
307.154	634	
