Mass spectrum: Malformin A2; LC-ESI-ITFT; MS2; CE: 20; R=17500; [M+H]+
Name: Malformin A2
Name: cyclo[D-Cys(1)-D-Cys(1)-Val-D-Leu-Val]
Name: (1S,4S,7R,10S,13S)-7-(2-methylpropyl)-4,10-di(propan-2-yl)-15,16-dithia-3,6,9,12,18-pentazabicyclo[11.4.2]nonadecane-2,5,8,11,19-pentone
Class: Natural Product; Fungal metabolite
Formula: C22H37N5O5S2
Exact mass: 515.2236
SMILES: CC(C)C[C@@H]1C(=O)N[C@H](C(=O)N[C@@H]2CSSC[C@H](C(=O)N[C@H](C(=O)N1)C(C)C)NC2=O)C(C)C
InChI: InChI=1S/C22H37N5O5S2/c1-10(2)7-13-18(28)26-17(12(5)6)22(32)25-14-8-33-34-9-15(24-19(14)29)20(30)27-16(11(3)4)21(31)23-13/h10-17H,7-9H2,1-6H3,(H,23,31)(H,24,29)(H,25,32)(H,26,28)(H,27,30)/t13-,14-,15-,16+,17+/m1/s1
Instrument: Q-Exactive Orbitrap Thermo Scientific
Instrument type: LC-ESI-ITFT
Ms type: MS2
Ion mode: POSITIVE
Ionization: ESI
Fragmentation mode: HCD
Collision energy: 20(NCE)
Resolution: 17500
Column name: Agilent RRHD Eclipse 50 x 2 mm, 1.8 uM
Retention time: 3.26
Base peak: 417.1626
Precursor m/z: 516.2303
Precursor type: [M+H]+
m/z	relative intensity	assigned
59.0501	130	
62.9948	66	
72.0816	512	
85.396	68	
86.0964	758	
91.0542	627	
91.2691	64	
93.1261	77	
105.031	86	
108.7024	82	
126.2289	74	
132.5927	74	
148.1934	83	
153.672	81	
185.1648	823	
213.1604	707	
226.343	76	
232.2469	76	
259.0556	304	
304.0784	782	
344.1434	112	
358.1233	143	C20H22O4S1+
372.141	832	
389.1655	89	
403.1461	330	
417.1625	999	
443.2145	85	
471.2094	459	
474.8348	109	
488.236	412	
