Mass spectrum: 5-hydroxyculmorin; LC-ESI-ITFT; MS2; CE: 20; R=17500; [M-H2O+H]+
Name: 5-hydroxyculmorin
Name: (1S,3R,3aS,4R,6R,8aR,9R)-Decahydro-1,5,5,8a-tetramethyl-1,4-methanoazulene-3,6,9-triol
Class: Natural Product; Fungal metabolite
Formula: C15H26O3
Exact mass: 254.18821
SMILES: C[C@@]12CC[C@H](C([C@H]3[C@@H]1[C@@H](C[C@@]2(C3O)C)O)(C)C)O
InChI: InChI=1S/C15H26O3/c1-13(2)9(17)5-6-14(3)10-8(16)7-15(14,4)12(18)11(10)13/h8-12,16-18H,5-7H2,1-4H3/t8-,9-,10+,11+,12?,14-,15-/m1/s1
Instrument: Q-Exactive Orbitrap Thermo Scientific
Instrument type: LC-ESI-ITFT
Ms type: MS2
Ion mode: POSITIVE
Ionization: ESI
Fragmentation mode: HCD
Collision energy: 20(NCE)
Resolution: 17500
Column name: Agilent RRHD Eclipse 50 x 2 mm, 1.8 uM
Retention time: 2.56
Base peak: 237.1839
Precursor m/z: 237.1844
Precursor type: [M-H2O+H]+
m/z	relative intensity	assigned
95.0855	103	
107.0855	59	C8H11+
109.1012	76	
119.0855	58	
121.1012	66	
133.1012	36	
135.1168	48	
137.0961	152	
145.1012	59	
147.1168	44	
159.1168	99	
161.1325	62	
163.1118	33	
173.1325	54	
175.1481	253	
177.1638	116	
191.1795	113	
201.1638	388	
219.1744	674	
237.1849	999	
