Mass spectrum: Meleagrin; LC-ESI-ITFT; MS2; CE: 30; R=17500; [M+H]+
Name: Meleagrin
Name: Meleagrine
Class: Natural Product; Fungal metabolite
Formula: C23H23N5O4
Exact mass: 433.17499
SMILES: C=CC(C)(C)[C@]12C=C(C(=O)N3/C(=C/c4cnc[nH]4)/C(=N[C@@]23N(c2ccccc12)OC)O)O
InChI: InChI=1S/C23H23N5O4/c1-5-21(2,3)22-11-18(29)20(31)27-17(10-14-12-24-13-25-14)19(30)26-23(22,27)28(32-4)16-9-7-6-8-15(16)22/h5-13,29H,1H2,2-4H3,(H,24,25)(H,26,30)/b17-10+/t22-,23-/m0/s1
Instrument: Q-Exactive Orbitrap Thermo Scientific
Instrument type: LC-ESI-ITFT
Ms type: MS2
Ion mode: POSITIVE
Ionization: ESI
Fragmentation mode: HCD
Collision energy: 30(NCE)
Resolution: 17500
Column name: Agilent RRHD Eclipse 50 x 2 mm, 1.8 uM
Retention time: 2.68
Base peak: 334.0919
Precursor m/z: 434.1817
Precursor type: [M+H]+
m/z	relative intensity	assigned
162.0536	32	
163.0614	33	
203.0801	57	
214.1213	85	
261.0771	65	
263.0927	45	
278.1036	92	
280.0829	36	
289.072	470	
290.0798	64	
306.0985	67	
318.0747	258	
319.0826	41	
334.0934	999	
335.1013	290	
386.1611	37	
403.1639	224	
