Mass spectrum: Nivalenol; LC-ESI-ITFT; MS2; CE: 35; R=17500; [M+H]+
Name: Nivalenol
Name: (3alpha,4beta,7alpha)-3,4,7,15-tetrahydroxy-12,13-epoxytrichothec-9-en-8-one
Class: Natural Product; Fungal metabolite
Formula: C15H20O7
Exact mass: 312.12089
SMILES: CC1=C[C@@H]2[C@]([C@@H](C1=O)O)([C@]3([C@@H]([C@H]([C@H]([C@@]34CO4)O2)O)O)C)CO
InChI: InChI=1S/C15H20O7/c1-6-3-7-14(4-16,11(20)8(6)17)13(2)10(19)9(18)12(22-7)15(13)5-21-15/h3,7,9-12,16,18-20H,4-5H2,1-2H3/t7-,9-,10-,11-,12-,13-,14-,15+/m1/s1
Instrument: Q-Exactive Orbitrap Thermo Scientific
Instrument type: LC-ESI-ITFT
Ms type: MS2
Ion mode: POSITIVE
Ionization: ESI
Fragmentation mode: HCD
Collision energy: 35(NCE)
Resolution: 17500
Column name: Agilent RRHD Eclipse 50 x 2 mm, 1.8 uM
Retention time: 2.15
Base peak: 175.0747
Precursor m/z: 313.1276
Precursor type: [M+H]+
m/z	relative intensity	assigned
59.2743	62	
69.9229	64	
84.96	145	
95.0491	172	
109.0648	293	
119.0855	100	
119.2574	80	
121.0876	74	
123.0441	98	
125.0597	123	
131.0855	82	
135.0804	145	
136.9783	73	
137.0597	392	
137.6184	77	
145.0648	117	C10H9O1+
145.1012	184	
147.0804	74	
149.0961	110	
157.1012	117	
159.0804	568	
161.0597	98	
161.0961	420	
163.0754	161	
173.0961	428	
175.0754	999	
177.091	401	
185.0961	379	
187.0754	108	
189.091	132	
191.0703	105	
192.9106	156	
194.4289	80	
201.091	445	
203.1067	176	
205.0859	143	
210.9192	83	
213.091	167	
217.0859	111	
219.1016	114	
220.9049	127	
229.0859	109	
231.1016	150	C14H15O3+
238.9156	143	
247.0965	84	
248.8992	125	
266.9124	111	
277.107	100	
