Mass spectrum: HT-2 Toxin; LC-ESI-ITFT; MS2; CE: 20; R=17500; [M+H]+
Name: HT-2 Toxin
Name: 12,13-Epoxytrichothec-9-ene-3-alpha,4-beta,8-alpha,15-tetrol 15-acetate 8-isovalerate
Class: Natural Product; Fungal metabolite
Formula: C22H32O8
Exact mass: 424.20971
SMILES: CC1=C[C@@H]2[C@](C[C@@H]1OC(=O)CC(C)C)([C@]3([C@@H]([C@H]([C@H]([C@@]34CO4)O2)O)O)C)COC(=O)C
InChI: InChI=1S/C22H32O8/c1-11(2)6-16(24)29-14-8-21(9-27-13(4)23)15(7-12(14)3)30-19-17(25)18(26)20(21,5)22(19)10-28-22/h7,11,14-15,17-19,25-26H,6,8-10H2,1-5H3/t14-,15+,17+,18+,19+,20+,21+,22-/m0/s1
Instrument: Q-Exactive Orbitrap Thermo Scientific
Instrument type: LC-ESI-ITFT
Ms type: MS2
Ion mode: POSITIVE
Ionization: ESI
Fragmentation mode: HCD
Collision energy: 20(NCE)
Resolution: 17500
Column name: Agilent RRHD Eclipse 50 x 2 mm, 1.8 uM
Retention time: 3.14
Base peak: 85.065
Precursor m/z: 425.2164
Precursor type: [M+H]+
m/z	relative intensity	assigned
57.0705	305	
71.0128	31	
85.0648	999	
93.0699	108	
95.0491	113	
95.0855	31	
97.0648	71	C6H9O1+
105.0699	428	
107.0491	52	C7H7O1+
109.0648	97	
119.0855	74	
121.0648	608	
123.0441	44	
123.0804	60	
125.0597	119	
131.0855	82	
133.0648	42	
133.1012	59	
135.0804	36	
137.0597	61	
141.0546	32	
143.0855	142	
145.0648	37	
145.1012	165	
147.0804	67	
147.1168	49	
149.0961	41	
155.0855	43	
157.1012	343	
159.0804	155	
159.1168	154	
161.0961	182	
163.0754	58	
169.1012	135	
171.0804	70	
171.1168	252	
173.0961	315	
175.0754	41	
175.1118	286	
177.091	85	
181.1012	172	
185.0961	265	
186.1039	63	
187.1118	261	
189.091	53	
189.1274	124	
191.1067	36	
197.0961	259	
199.1118	602	
201.091	57	
203.1067	260	
204.1145	31	
205.1223	98	
209.0961	126	
215.1067	463	
217.1223	376	
221.1172	40	
227.1067	557	
233.1172	198	
235.1329	91	
245.1172	983	
263.1278	986	
281.1384	208	
287.1278	75	
305.1384	151	
323.1489	123	
329.1747	44	
347.1853	63	
365.1959	49	
407.2064	113	
425.217	213	
