Mass spectrum: Alternariol methyl ether; LC-ESI-ITFT; MS2; CE: 30; R=17500; [M+H]+
Name: Alternariol methyl ether
Name: Alternariol monomethyl ether, Djalonensone
Name: 3,7-dihydroxy-9-methoxy-1-methylbenzo[c]chromen-6-one
Class: Natural Product; Fungal metabolite
Formula: C15H12O5
Exact mass: 272.06846
SMILES: CC1=CC(=CC2=C1C3=CC(=CC(=C3C(=O)O2)O)OC)O
InChI: InChI=1S/C15H12O5/c1-7-3-8(16)4-12-13(7)10-5-9(19-2)6-11(17)14(10)15(18)20-12/h3-6,16-17H,1-2H3
Instrument: Q-Exactive Orbitrap Thermo Scientific
Instrument type: LC-ESI-ITFT
Ms type: MS2
Ion mode: POSITIVE
Ionization: ESI
Fragmentation mode: HCD
Collision energy: 30(NCE)
Resolution: 17500
Column name: Agilent RRHD Eclipse 50 x 2 mm, 1.8 uM
Retention time: 3.64
Base peak: 273.0743
Precursor m/z: 273.0752
Precursor type: [M+H]+
m/z	relative intensity	assigned
273.0757	999	
