Mass spectrum: Roridin A; LC-ESI-ITFT; MS2; CE: 50; R=17500; [M+Na]+
Name: Roridin A
Class: Natural Product; Fungal metabolite
Formula: C29H40O9
Exact mass: 532.26723
SMILES: C[C@@H]1CCO[C@H](/C=C/C=C\C(=O)O[C@@H]2C[C@@H]3[C@]4([C@]2([C@]5(CCC(=C[C@H]5O3)C)COC(=O)[C@H]1O)C)CO4)[C@@H](C)O
InChI: InChI=1S/C29H40O9/c1-17-9-11-28-15-35-26(33)25(32)18(2)10-12-34-20(19(3)30)7-5-6-8-24(31)38-21-14-23(37-22(28)13-17)29(16-36-29)27(21,28)4/h5-8,13,18-23,25,30,32H,9-12,14-16H2,1-4H3/b7-5+,8-6-/t18-,19-,20-,21-,22-,23-,25+,27-,28-,29+/m1/s1
Instrument: Q-Exactive Orbitrap Thermo Scientific
Instrument type: LC-ESI-ITFT
Ms type: MS2
Ion mode: POSITIVE
Ionization: ESI
Fragmentation mode: HCD
Collision energy: 50(NCE)
Resolution: 17500
Column name: Agilent RRHD Eclipse 50 x 2 mm, 1.8 uM
Retention time: 3.46
Base peak: 279.1193
Precursor m/z: 555.2559
Precursor type: [M+Na]+
m/z	relative intensity	assigned
67.0542	293	
69.0335	49	
69.0699	39	
79.0542	278	
81.0699	436	
91.0542	264	
93.0699	399	
95.0491	810	
95.0855	349	
105.0699	585	C8H9+
107.0491	59	
107.0855	204	C8H11+
109.0648	119	
109.1012	58	
117.0699	116	
119.0855	593	
121.0648	164	
121.1012	112	
123.0804	120	
125.0573	62	
128.0621	50	
129.0699	95	
131.0855	394	
133.0648	42	
133.1012	247	
135.0804	126	
142.0777	73	
143.0855	270	
144.0934	39	
145.1012	216	
147.0804	135	
147.1168	131	
149.0961	262	
153.0522	156	
155.0855	38	
156.0934	57	
157.1012	203	
159.1168	256	
161.0961	138	
161.1325	64	
162.1039	51	
169.1012	41	
170.109	71	
171.0628	393	
171.1168	62	
173.1325	59	
175.1118	59	
175.1481	102	
177.0522	963	
177.0886	89	
180.0934	32	
185.1325	98	
187.1118	41	
189.1274	66	
195.0628	42	
203.1431	63	
231.138	534	
263.1254	55	
279.1203	999	
325.1258	507	
555.2565	264	
