Mass spectrum: T-2 tetraol; LC-ESI-ITFT; MS2; CE: 20; R=17500; [M+H]+
Name: T-2 tetraol
Name: T-2 toxin tetraol
Name: 3-alpha,4-beta,8-alpha,15-Tetrahydroxy-12,13-epoxytrichothec-9-ene
Class: Natural Product; Fungal metabolite
Formula: C15H22O6
Exact mass: 298.14163
SMILES: CC1=C[C@@H]2[C@](C[C@@H]1O)([C@]3([C@@H]([C@H]([C@H](C34CO4)O2)O)O)C)CO
InChI: InChI=1S/C15H22O6/c1-7-3-9-14(5-16,4-8(7)17)13(2)11(19)10(18)12(21-9)15(13)6-20-15/h3,8-12,16-19H,4-6H2,1-2H3/t8-,9+,10+,11+,12+,13+,14+,15?/m0/s1
Instrument: Q-Exactive Orbitrap Thermo Scientific
Instrument type: LC-ESI-ITFT
Ms type: MS2
Ion mode: POSITIVE
Ionization: ESI
Fragmentation mode: HCD
Collision energy: 20(NCE)
Resolution: 17500
Column name: Agilent RRHD Eclipse 50 x 2 mm, 1.8 uM
Retention time: 2.26
Base peak: 299.1482
Precursor m/z: 299.1484
Precursor type: [M+H]+
m/z	relative intensity	assigned
97.0648	95	
105.0699	326	C8H9+
109.0648	100	
121.0648	497	
125.0597	133	
126.629	80	
133.1012	101	C10H13+
135.0804	84	
161.0961	130	
163.1118	102	
173.0961	164	
175.1118	128	
185.0961	131	
187.1118	103	
191.1067	831	
193.1223	424	
199.1118	127	C14H15O1+
203.1067	171	
204.4238	80	
217.1223	187	
221.1172	169	
233.1172	97	C14H17O3+
235.1329	107	
245.1172	607	
263.1278	714	
280.3801	84	
281.1384	698	
299.1489	999	
