Mass spectrum: HT-2 Toxin; LC-ESI-ITFT; MS2; CE: 50; R=17500; [M+Na]+
Name: HT-2 Toxin
Name: 12,13-Epoxytrichothec-9-ene-3-alpha,4-beta,8-alpha,15-tetrol 15-acetate 8-isovalerate
Class: Natural Product; Fungal metabolite
Formula: C22H32O8
Exact mass: 424.20971
SMILES: CC1=C[C@@H]2[C@](C[C@@H]1OC(=O)CC(C)C)([C@]3([C@@H]([C@H]([C@H]([C@@]34CO4)O2)O)O)C)COC(=O)C
InChI: InChI=1S/C22H32O8/c1-11(2)6-16(24)29-14-8-21(9-27-13(4)23)15(7-12(14)3)30-19-17(25)18(26)20(21,5)22(19)10-28-22/h7,11,14-15,17-19,25-26H,6,8-10H2,1-5H3/t14-,15+,17+,18+,19+,20+,21+,22-/m0/s1
Instrument: Q-Exactive Orbitrap Thermo Scientific
Instrument type: LC-ESI-ITFT
Ms type: MS2
Ion mode: POSITIVE
Ionization: ESI
Fragmentation mode: HCD
Collision energy: 50(NCE)
Resolution: 17500
Column name: Agilent RRHD Eclipse 50 x 2 mm, 1.8 uM
Retention time: 3.14
Base peak: 105.0699
Precursor m/z: 447.1984
Precursor type: [M+Na]+
m/z	relative intensity	assigned
67.0542	141	
69.0335	41	
71.0128	72	
79.0542	126	
81.0699	141	
83.0103	93	
83.0491	112	
85.0284	112	
91.0542	321	
93.0699	274	
95.0491	470	
95.0855	77	
97.0648	86	
105.0699	999	C8H9+
107.0491	90	C7H7O1+
107.0855	112	C8H11+
109.0648	155	C7H9O1+
111.0441	35	
115.0542	87	
117.0699	239	
119.0491	90	
119.077	33	
119.0855	667	
121.0648	299	
123.0441	97	
123.0804	92	
125.0597	77	
128.0621	189	
129.0699	303	
131.0855	501	
133.0648	100	
133.1012	163	
135.0804	86	
141.0699	151	
142.0777	601	
143.0855	546	
143.0954	31	
144.0934	82	
145.0648	111	
145.1012	575	
147.0804	143	
147.1168	117	
154.0777	92	
155.0855	118	
156.0934	317	
157.1012	638	
158.0726	109	
159.0804	231	
159.1168	289	
161.0961	118	
165.0699	103	
166.0777	69	
167.0855	33	
169.1012	282	
171.0804	145	
171.1168	155	
172.0883	87	
173.0961	280	
174.1039	31	
175.1093	173	
179.0855	39	
181.1012	101	
182.0726	93	
184.0883	64	
185.0961	298	
186.1015	69	
187.073	41	
187.1118	210	
189.0886	150	
191.1067	39	
197.0961	99	
199.1118	134	
203.1067	288	
204.1145	78	
205.1223	165	
209.0961	84	
213.0886	213	
215.1067	42	
227.1043	101	
267.0992	117	
285.1097	253	
303.1203	77	
327.1203	165	
345.1309	411	
