Mass spectrum: Roquefortine A; LC-ESI-ITFT; MS2; CE: 55; R=17500; [M+H]+
Name: Roquefortine A
Name: Isofumigaclavine A
Name: [(6aR,9S,10R,10aR)-7,9-dimethyl-6,6a,8,9,10,10a-hexahydro-4H-indolo[4,3-fg]quinoline-10-yl] acetate
Class: Natural Product; Fungal metabolite
Formula: C18H22N2O2
Exact mass: 298.16813
SMILES: C[C@H]1CN([C@@H]2CC3=CNC4=CC=CC(=C34)[C@H]2[C@@H]1OC(=O)C)C
InChI: InChI=1S/C18H22N2O2/c1-10-9-20(3)15-7-12-8-19-14-6-4-5-13(16(12)14)17(15)18(10)22-11(2)21/h4-6,8,10,15,17-19H,7,9H2,1-3H3/t10-,15+,17+,18+/m0/s1
Instrument: Q-Exactive Orbitrap Thermo Scientific
Instrument type: LC-ESI-ITFT
Ms type: MS2
Ion mode: POSITIVE
Ionization: ESI
Fragmentation mode: HCD
Collision energy: 55(NCE)
Resolution: 17500
Column name: Agilent RRHD Eclipse 50 x 2 mm, 1.8 uM
Retention time: 2.46
Base peak: 239.1552
Precursor m/z: 299.1749
Precursor type: [M+H]+
m/z	relative intensity	assigned
72.0818	54	
84.0817	63	
96.0808	61	
108.0808	81	
114.0913	41	
129.0699	53	
130.0651	95	
144.0808	645	
154.0651	294	
155.073	99	
156.0808	153	
156.1019	109	
167.073	393	
168.0808	883	
169.0886	84	
170.0964	107	
179.0855	60	
180.0808	83	
181.0886	184	
181.1012	49	
182.0839	96	
182.0964	237	
183.0917	374	
183.1043	69	
184.0995	78	
192.0808	168	
193.0886	390	
194.0964	92	
196.1121	531	
197.1073	890	
198.1277	294	
207.1043	47	
208.1121	866	
209.1073	67	
210.1307	89	
223.123	163	
224.1308	203	
237.1386	41	
238.1465	55	
239.1543	999	
299.1754	111	
