Mass spectrum: Frequentin; LC-ESI-ITFT; MS2; CE: 35; R=17500; [M+H]+
Name: Frequentin
Name: Frequentine
Name: 6-[(1E,3E)-hepta-1,3-dienyl]-3,4-dihydroxy-2-oxocyclohexane-1-carbaldehyde
Class: Natural Product; Fungal metabolite
Formula: C14H20O4
Exact mass: 252.13616
SMILES: CCC/C=C/C=C/[C@@H]1C[C@H]([C@H](C(=O)[C@H]1C=O)O)O
InChI: InChI=1S/C14H20O4/c1-2-3-4-5-6-7-10-8-12(16)14(18)13(17)11(10)9-15/h4-7,9-12,14,16,18H,2-3,8H2,1H3/b5-4+,7-6+/t10-,11+,12-,14-/m1/s1
Instrument: Q-Exactive Orbitrap Thermo Scientific
Instrument type: LC-ESI-ITFT
Ms type: MS2
Ion mode: POSITIVE
Ionization: ESI
Fragmentation mode: HCD
Collision energy: 35(NCE)
Resolution: 17500
Column name: Agilent RRHD Eclipse 50 x 2 mm, 1.8 uM
Retention time: 3.68
Base peak: 111.0439
Precursor m/z: 253.1429
Precursor type: [M+H]+
m/z	relative intensity	assigned
81.0699	34	
83.0491	125	
95.0855	43	
97.0284	277	C5H5O2+
105.0699	39	C8H9+
107.0855	46	
109.1012	32	
111.0441	999	
119.0855	57	
121.1012	59	
133.0648	75	
133.1012	49	
139.039	232	
147.0804	38	
147.1168	46	
149.0961	43	
157.0495	325	
161.1325	38	
179.1067	33	
189.1274	38	
207.138	31	
