Mass spectrum: Austin; LC-ESI-ITFT; MS2; CE: 20; R=17500; [M+H]+
Name: Austin
Class: Natural Product; Fungal metabolite
Formula: C27H32O9
Exact mass: 500.20462
SMILES: C[C@H]1[C@@]2(C(=O)O[C@]3([C@@H](C4=C([C@]5(CC[C@]4([C@@]2(C3=C)C(=O)O1)C)C=CC(=O)OC5(C)C)C)OC(=O)C)C)O
InChI: InChI=1S/C27H32O9/c1-13-18-19(34-16(4)28)24(8)14(2)26(20(30)33-15(3)27(26,32)21(31)36-24)23(18,7)11-12-25(13)10-9-17(29)35-22(25,5)6/h9-10,15,19,32H,2,11-12H2,1,3-8H3/t15-,19+,23+,24+,25+,26+,27-/m0/s1
Instrument: Q-Exactive Orbitrap Thermo Scientific
Instrument type: LC-ESI-ITFT
Ms type: MS2
Ion mode: POSITIVE
Ionization: ESI
Fragmentation mode: HCD
Collision energy: 20(NCE)
Resolution: 17500
Column name: Agilent RRHD Eclipse 50 x 2 mm, 1.8 uM
Retention time: 3.5
Base peak: 381.206
Precursor m/z: 501.2114
Precursor type: [M+H]+
m/z	relative intensity	assigned
173.1325	45	
179.0703	50	C10H11O3+
183.0652	32	
187.1481	55	C14H19+
205.1223	33	C13H17O2+
211.0965	58	
211.1481	89	
213.1638	82	
217.1223	75	C14H17O2+
225.1121	41	
325.1798	34	
335.2006	64	
337.2162	90	
347.2006	55	C24H27O2+
353.2111	64	
363.1955	257	C24H27O3+
365.2111	175	
381.206	999	C24H29O4+
391.1904	116	C25H27O4+
395.2217	75	
409.201	597	
423.2166	42	
427.2115	35	C25H31O6+
441.2272	589	C26H33O6+
