Mass spectrum: Trichoverrol A; LC-ESI-ITFT; MS2; CE: 30; R=17500; [M+H]+
Name: Trichoverrol A
Name: [4b(2Z,4E,6S,7S)]-4-(6,7-dihydroxy-2,4-octadienoate) 12,13-Epoxy-trichothec-9-ene-4,15-diol
Class: Natural Product; Fungal metabolite
Formula: C23H32O7
Exact mass: 420.2148
SMILES: CC1=C[C@@H]2[C@](CC1)([C@]3([C@@H](C[C@H]([C@@]34CO4)O2)OC(=O)/C=C\C=C\[C@@H]([C@H](C)O)O)C)CO
InChI: InChI=1S/C23H32O7/c1-14-8-9-22(12-24)18(10-14)29-19-11-17(21(22,3)23(19)13-28-23)30-20(27)7-5-4-6-16(26)15(2)25/h4-7,10,15-19,24-26H,8-9,11-13H2,1-3H3/b6-4+,7-5-/t15-,16-,17+,18+,19+,21+,22+,23-/m0/s1
Instrument: Q-Exactive Orbitrap Thermo Scientific
Instrument type: LC-ESI-ITFT
Ms type: MS2
Ion mode: POSITIVE
Ionization: ESI
Fragmentation mode: HCD
Collision energy: 30(NCE)
Resolution: 17500
Column name: Agilent RRHD Eclipse 50 x 2 mm, 1.8 uM
Retention time: 3.3
Base peak: 231.137
Precursor m/z: 421.2215
Precursor type: [M+H]+
m/z	relative intensity	assigned
66.3667	38	
67.0542	50	
69.0342	47	
69.3875	37	
77.7286	36	
78.6657	35	
79.0542	58	
80.948	36	
81.0699	766	
83.0491	243	
85.0948	44	
93.0699	216	
95.0491	95	
95.0855	52	
95.3365	36	
105.0699	453	C8H9+
107.0855	815	
109.0648	603	
111.0441	75	C6H7O2+
113.0597	52	
119.0855	50	
121.0648	69	
123.0804	528	
125.0597	177	
127.0754	51	
131.0855	183	
133.1012	167	
137.0597	80	
143.0855	186	
145.1012	55	
147.1168	53	
157.1012	291	
159.1168	72	
161.0961	308	
163.1118	48	
171.1168	207	
175.1118	158	
183.1168	78	
185.1325	374	
187.1118	56	
188.1618	49	
188.5308	49	
189.1274	266	
193.1223	600	
195.1168	194	
201.1274	289	
203.1431	327	
213.1274	361	
215.9373	41	
219.138	89	
231.138	999	
233.9621	46	
249.1485	670	
254.0321	38	
276.3832	53	
