Mass spectrum: Enniatin A1; LC-ESI-ITFT; MS2; CE: 10; R=17500; [M+H]+
Name: Enniatin A1
Class: Natural Product; Fungal metabolite
Formula: C35H61N3O9
Exact mass: 667.44079
SMILES: CC[C@H](C)[C@H]1C(=O)O[C@@H](C(=O)N([C@H](C(=O)O[C@@H](C(=O)N([C@H](C(=O)O[C@@H](C(=O)N1C)C(C)C)[C@@H](C)CC)C)C(C)C)C(C)C)C)C(C)C
InChI: InChI=1S/C35H61N3O9/c1-16-22(11)25-34(43)46-27(19(5)6)30(39)36(13)24(18(3)4)33(42)45-28(20(7)8)31(40)37(14)26(23(12)17-2)35(44)47-29(21(9)10)32(41)38(25)15/h18-29H,16-17H2,1-15H3/t22-,23-,24-,25-,26-,27+,28+,29+/m0/s1
Instrument: Q-Exactive Orbitrap Thermo Scientific
Instrument type: LC-ESI-ITFT
Ms type: MS2
Ion mode: POSITIVE
Ionization: ESI
Fragmentation mode: HCD
Collision energy: 10(NCE)
Resolution: 17500
Column name: Agilent RRHD Eclipse 50 x 2 mm, 1.8 uM
Retention time: 5.85
Base peak: 668.444
Precursor m/z: 668.4475
Precursor type: [M+H]+
m/z	relative intensity	assigned
196.1332	80	
210.1489	259	
228.1594	67	
668.4481	999	
