Mass spectrum: Aflatoxin G2; LC-ESI-ITFT; MS2; CE: 35; R=17500; [M+H]+
Name: Aflatoxin G2
Name: (7aR,10aS)-5-Methoxy-3,4,7a,9,10,10a-hexahydro-1H,12H-furo[3',2':4,5]furo[2,3-h]pyrano[3,4-c]chromene-1,12-dione
Class: Natural Product; Fungal metabolite
Formula: C17H14O7
Exact mass: 330.07393
SMILES: COC1=C2C3=C(C(=O)OCC3)C(=O)OC2=C4[C@@H]5CCO[C@@H]5OC4=C1
InChI: InChI=1S/C17H14O7/c1-20-9-6-10-12(8-3-5-22-17(8)23-10)14-11(9)7-2-4-21-15(18)13(7)16(19)24-14/h6,8,17H,2-5H2,1H3/t8-,17+/m0/s1
Instrument: Q-Exactive Orbitrap Thermo Scientific
Instrument type: LC-ESI-ITFT
Ms type: MS2
Ion mode: POSITIVE
Ionization: ESI
Fragmentation mode: HCD
Collision energy: 35(NCE)
Resolution: 17500
Column name: Agilent RRHD Eclipse 50 x 2 mm, 1.8 uM
Retention time: 2.95
Base peak: 331.0798
Precursor m/z: 331.0807
Precursor type: [M+H]+
m/z	relative intensity	assigned
245.0808	36	
285.0757	45	
303.0863	36	
313.0707	195	
331.0812	999	
