Mass spectrum: Isomarticin; LC-ESI-ITFT; MS2; CE: 50; R=17500; [M+H]+
Name: Isomarticin
Class: Natural Product; Fungal metabolite
Formula: C18H16O9
Exact mass: 376.07941
SMILES: CC12CC3=C(C4=C(C(=O)C=C(C4=O)OC)C(=C3C(O1)C[C@@H](O2)C(=O)O)O)O
InChI: InChI=1S/C18H16O9/c1-18-5-6-11(8(26-18)4-10(27-18)17(23)24)16(22)12-7(19)3-9(25-2)15(21)13(12)14(6)20/h3,8,10,20,22H,4-5H2,1-2H3,(H,23,24)/t8?,10-,18?/m1/s1
Instrument: Q-Exactive Orbitrap Thermo Scientific
Instrument type: LC-ESI-ITFT
Ms type: MS2
Ion mode: POSITIVE
Ionization: ESI
Fragmentation mode: HCD
Collision energy: 50(NCE)
Resolution: 17500
Column name: Agilent RRHD Eclipse 50 x 2 mm, 1.8 uM
Retention time: 3.18
Base peak: 271.0589
Precursor m/z: 377.0861
Precursor type: [M+H]+
m/z	relative intensity	assigned
167.0339	49	
169.0648	38	
183.0441	46	
185.0597	35	
189.0546	50	
197.0597	80	
199.039	37	
201.0546	36	
211.039	104	
213.0546	45	
215.0703	43	
216.0417	41	
217.0495	106	
225.0546	163	
227.0339	36	
228.0417	161	
229.0495	109	
231.0652	111	
239.0339	93	
239.0703	42	
241.0495	60	
242.0574	109	
243.0652	276	
244.0366	78	
245.0444	225	
253.0495	254	
255.0652	36	
256.0366	219	
257.0444	168	
257.0808	83	
259.0601	515	
260.0679	37	
261.0757	35	
267.0652	67	
269.0444	43	
270.0523	210	
271.0601	999	
273.0393	40	
281.0444	32	
285.0757	232	
287.055	551	
295.0601	90	
298.0472	61	
299.055	182	
313.0707	240	
