Mass spectrum: Ochratoxin B; LC-ESI-ITFT; MS2; CE: 10; R=17500; [M+H]+
Name: Ochratoxin B
Name: (2S)-2-[[(3R)-8-hydroxy-3-methyl-1-oxo-3,4-dihydroisochromene-7-carbonyl]amino]-3-phenylpropanoic acid
Class: Natural Product; Fungal metabolite
Formula: C20H19NO6
Exact mass: 369.12122
SMILES: C[C@@H]1CC2=C(C(=C(C=C2)C(=O)N[C@@H](CC3=CC=CC=C3)C(=O)O)O)C(=O)O1
InChI: InChI=1S/C20H19NO6/c1-11-9-13-7-8-14(17(22)16(13)20(26)27-11)18(23)21-15(19(24)25)10-12-5-3-2-4-6-12/h2-8,11,15,22H,9-10H2,1H3,(H,21,23)(H,24,25)/t11-,15+/m1/s1
Instrument: Q-Exactive Orbitrap Thermo Scientific
Instrument type: LC-ESI-ITFT
Ms type: MS2
Ion mode: POSITIVE
Ionization: ESI
Fragmentation mode: HCD
Collision energy: 10(NCE)
Resolution: 17500
Column name: Agilent RRHD Eclipse 50 x 2 mm, 1.8 uM
Retention time: 3.35
Base peak: 370.1278
Precursor m/z: 370.128
Precursor type: [M+H]+
m/z	relative intensity	assigned
50.0685	57	
55.4764	53	
56.1739	54	
62.9275	54	
65.5686	53	
68.4121	62	
73.1206	52	
73.7527	54	
79.5357	61	
80.5655	68	
86.0964	93	
95.5024	66	
111.9808	60	
189.6709	65	
205.0522	125	
211.1445	332	
239.1363	239	
306.8149	70	
324.228	156	
329.1384	88	
340.1179	391	
370.1285	744	
