Mass spectrum: Fumonisin B1; LC-ESI-ITFT; MS2; CE: 20; R=17500; [M+H]+
Name: Fumonisin B1
Name: Macrofusine
Class: Natural Product; Fungal metabolite
Formula: C34H59NO15
Exact mass: 721.38845
SMILES: CCCC[C@@H](C)[C@H]([C@H](C[C@@H](C)C[C@@H](CCCC[C@H](C[C@@H]([C@H](C)N)O)O)O)OC(=O)C[C@@H](CC(=O)O)C(=O)O)OC(=O)C[C@@H](CC(=O)O)C(=O)O
InChI: InChI=1S/C34H59NO15/c1-5-6-9-20(3)32(50-31(44)17-23(34(47)48)15-29(41)42)27(49-30(43)16-22(33(45)46)14-28(39)40)13-19(2)12-24(36)10-7-8-11-25(37)18-26(38)21(4)35/h19-27,32,36-38H,5-18,35H2,1-4H3,(H,39,40)(H,41,42)(H,45,46)(H,47,48)/t19-,20+,21-,22+,23+,24+,25+,26-,27-,32+/m0/s1
Instrument: Q-Exactive Orbitrap Thermo Scientific
Instrument type: LC-ESI-ITFT
Ms type: MS2
Ion mode: POSITIVE
Ionization: ESI
Fragmentation mode: HCD
Collision energy: 20(NCE)
Resolution: 17500
Column name: Agilent RRHD Eclipse 50 x 2 mm, 1.8 uM
Retention time: 2.71
Base peak: 722.392
Precursor m/z: 722.3952
Precursor type: [M+H]+
m/z	relative intensity	assigned
334.3078	39	
352.3183	90	
370.3289	51	
528.3504	56	
546.361	60	
686.3746	68	
704.3852	279	
722.3957	999	
