Mass spectrum: Fumonisin B1; LC-ESI-ITFT; MS2; CE: 50; R=17500; [M+H]+
Name: Fumonisin B1
Name: Macrofusine
Class: Natural Product; Fungal metabolite
Formula: C34H59NO15
Exact mass: 721.38845
SMILES: CCCC[C@@H](C)[C@H]([C@H](C[C@@H](C)C[C@@H](CCCC[C@H](C[C@@H]([C@H](C)N)O)O)O)OC(=O)C[C@@H](CC(=O)O)C(=O)O)OC(=O)C[C@@H](CC(=O)O)C(=O)O
InChI: InChI=1S/C34H59NO15/c1-5-6-9-20(3)32(50-31(44)17-23(34(47)48)15-29(41)42)27(49-30(43)16-22(33(45)46)14-28(39)40)13-19(2)12-24(36)10-7-8-11-25(37)18-26(38)21(4)35/h19-27,32,36-38H,5-18,35H2,1-4H3,(H,39,40)(H,41,42)(H,45,46)(H,47,48)/t19-,20+,21-,22+,23+,24+,25+,26-,27-,32+/m0/s1
Instrument: Q-Exactive Orbitrap Thermo Scientific
Instrument type: LC-ESI-ITFT
Ms type: MS2
Ion mode: POSITIVE
Ionization: ESI
Fragmentation mode: HCD
Collision energy: 50(NCE)
Resolution: 17500
Column name: Agilent RRHD Eclipse 50 x 2 mm, 1.8 uM
Retention time: 2.71
Base peak: 81.0702
Precursor m/z: 722.3952
Precursor type: [M+H]+
m/z	relative intensity	assigned
56.0502	71	
57.0342	68	
57.0705	225	
58.0651	55	
67.0542	433	
69.0699	525	
70.0651	585	
72.0808	46	
74.06	585	
79.0542	373	
81.0699	999	
82.0651	215	
83.0491	35	
83.0855	169	
84.0808	99	
85.0284	110	
85.0648	65	
85.1012	228	
91.0542	254	
93.0699	616	
94.0651	185	
95.0491	71	
95.0855	907	
96.0808	175	C6H10N1+
97.0648	42	C6H9O1+
97.1012	80	C7H13+
98.0964	38	
99.0077	31	
100.0757	196	C5H10N1O1+
105.0699	391	
107.0855	487	
108.0808	58	
109.0648	37	C7H9O1+
109.1012	417	
110.0964	100	
111.0804	38	
113.0233	304	
119.0855	247	
121.1012	227	
122.0964	44	
123.1168	119	
124.1121	73	
126.0913	50	
131.0855	78	
133.1012	239	
135.1168	168	
136.1121	39	
138.1277	53	
145.1012	116	
147.1168	141	
149.1325	61	
150.1277	44	
151.1481	33	
159.0288	388	
159.1168	66	
161.1325	65	
168.1383	123	
173.1325	31	
175.1481	41	
186.1489	65	
192.1747	54	
236.2009	58	
316.2972	66	
334.3078	263	
352.3183	32	
