Mass spectrum: Satratoxin G; LC-ESI-ITFT; MS2; CE: 20; R=17500; [M+H]+
Name: Satratoxin G
Class: Natural Product; Fungal metabolite
Formula: C29H36O10
Exact mass: 544.23084
SMILES: CC1=CC2C3(CC1)COC(=O)C4C5(O4)CCOC(C5O)(/C=C/C=C\C(=O)OC6C3(C7(CO7)C(C6)O2)C)C(C)O
InChI: InChI=1S/C29H36O10/c1-16-7-9-26-14-34-23(32)22-28(39-22)10-11-35-27(17(2)30,24(28)33)8-5-4-6-21(31)38-18-13-20(37-19(26)12-16)29(15-36-29)25(18,26)3/h4-6,8,12,17-20,22,24,30,33H,7,9-11,13-15H2,1-3H3/b6-4-,8-5+
Instrument: Q-Exactive Orbitrap Thermo Scientific
Instrument type: LC-ESI-ITFT
Ms type: MS2
Ion mode: POSITIVE
Ionization: ESI
Fragmentation mode: HCD
Collision energy: 20(NCE)
Resolution: 17500
Column name: Agilent RRHD Eclipse 50 x 2 mm, 1.8 uM
Retention time: 3.18
Base peak: 545.2408
Precursor m/z: 545.2376
Precursor type: [M+H]+
m/z	relative intensity	assigned
81.0711	35	
93.0699	41	
105.0699	164	
109.0648	50	
121.0648	54	
123.0804	117	
145.1012	40	
157.1029	34	
161.0961	31	
171.1168	38	
185.1325	113	
191.0703	32	
195.1168	41	
201.1274	137	
213.1274	172	
231.138	684	
235.0601	48	
249.1485	383	
375.1802	51	C21H27O6+
483.2013	33	
527.2276	39	
545.2381	999	
