Mass spectrum: Marticin; LC-ESI-ITFT; MS2; CE: 55; R=17500; [M+H]+
Name: Marticin
Name: 2,6-Epoxy-2H-naphth(2,3-d)oxocin-4-carboxylic acid, 1,4,5,6,7,12-hexahydro-8,11-dihydroxy-10-methoxy-2-methyl-7,12-dioxo-, (2alpha,4alpha,6alpha)-(+)-
Class: Natural Product; Fungal metabolite
Formula: C18H16O9
Exact mass: 376.07941
SMILES: CC12CC3=C(C4=C(C(=O)C=C(C4=O)OC)C(=C3C(O1)CC(O2)C(=O)O)O)O
InChI: InChI=1S/C18H16O9/c1-18-5-6-11(8(26-18)4-10(27-18)17(23)24)16(22)12-7(19)3-9(25-2)15(21)13(12)14(6)20/h3,8,10,20,22H,4-5H2,1-2H3,(H,23,24)
Instrument: Q-Exactive Orbitrap Thermo Scientific
Instrument type: LC-ESI-ITFT
Ms type: MS2
Ion mode: POSITIVE
Ionization: ESI
Fragmentation mode: HCD
Collision energy: 55(NCE)
Resolution: 17500
Column name: Agilent RRHD Eclipse 50 x 2 mm, 1.8 uM
Retention time: 3.28
Base peak: 287.0569
Precursor m/z: 377.0861
Precursor type: [M+H]+
m/z	relative intensity	assigned
50.0744	44	
61.4128	41	
69.4793	50	
83.5627	41	
94.7326	43	
94.7392	43	
167.0339	81	
169.0648	85	
183.0441	76	
185.0597	69	
187.039	58	
189.0567	53	
191.3369	59	
197.0597	182	
199.039	73	
211.039	226	
215.0703	78	
216.0417	70	
217.0495	97	
219.0652	57	
225.0546	264	
227.0339	72	
228.0417	443	
229.0495	319	
231.0652	215	
239.0339	92	
241.0495	117	
242.0574	255	
243.0652	477	
244.0366	214	
245.0444	356	
253.0495	305	
255.0288	70	
256.0366	294	
257.0444	118	
257.0808	70	
259.0601	877	
261.0757	68	
269.0444	95	
270.0523	610	
271.0601	951	
273.0393	315	
284.0718	56	
285.0757	368	
287.055	999	
288.0658	99	
289.0707	91	
295.0601	94	
298.0472	575	
299.055	445	
302.0785	108	
313.0707	461	
