Mass spectrum: Altenuene; LC-ESI-ITFT; MS2; CE: 45; R=17500; [M+H]+
Name: Altenuene
Name: (2S,3S,4aS)-2,3,7-trihydroxy-9-methoxy-4a-methyl-3,4-dihydro-2H-benzo[c]chromen-6-one
Class: Natural Product; Fungal metabolite
Formula: C15H16O6
Exact mass: 292.09468
SMILES: C[C@]12C[C@@H]([C@H](C=C1C3=CC(=CC(=C3C(=O)O2)O)OC)O)O
InChI: InChI=1S/C15H16O6/c1-15-6-12(18)10(16)5-9(15)8-3-7(20-2)4-11(17)13(8)14(19)21-15/h3-5,10,12,16-18H,6H2,1-2H3/t10-,12-,15-/m0/s1
Instrument: Q-Exactive Orbitrap Thermo Scientific
Instrument type: LC-ESI-ITFT
Ms type: MS2
Ion mode: POSITIVE
Ionization: ESI
Fragmentation mode: HCD
Collision energy: 45(NCE)
Resolution: 17500
Column name: Agilent RRHD Eclipse 50 x 2 mm, 1.8 uM
Retention time: 2.88
Base peak: 257.0796
Precursor m/z: 293.1014
Precursor type: [M+H]+
m/z	relative intensity	assigned
69.0335	62	
141.0699	48	
152.0621	34	
153.0699	37	
157.0648	45	
169.0648	282	
170.0726	39	
171.0441	38	
171.0804	69	
173.0961	47	
180.057	41	
181.0648	64	
183.0804	113	
186.0675	58	
187.0754	89	
188.0832	58	
191.1067	105	
195.0804	62	
196.0519	50	
197.0597	282	
198.0675	265	
201.091	556	
203.0703	43	
203.1067	38	
211.0754	496	
213.091	139	
214.0624	153	
215.0703	116	
224.0468	37	
225.0546	126	
229.0859	656	
231.1016	58	
239.0703	492	
242.0574	131	
243.0652	42	
257.0808	999	
275.0914	36	
