Mass spectrum: Neosolaniol; LC-ESI-ITFT; MS2; CE: 50; R=17500; [M+Na]+
Name: Neosolaniol
Class: Natural Product; Fungal metabolite
Formula: C19H26O8
Exact mass: 382.16276
SMILES: CC1=C[C@@H]2[C@](C[C@@H]1O)([C@]3([C@@H]([C@H]([C@H]([C@@]34CO4)O2)O)OC(=O)C)C)COC(=O)C
InChI: InChI=1S/C19H26O8/c1-9-5-13-18(6-12(9)22,7-24-10(2)20)17(4)15(26-11(3)21)14(23)16(27-13)19(17)8-25-19/h5,12-16,22-23H,6-8H2,1-4H3/t12-,13+,14+,15+,16+,17+,18+,19-/m0/s1
Instrument: Q-Exactive Orbitrap Thermo Scientific
Instrument type: LC-ESI-ITFT
Ms type: MS2
Ion mode: POSITIVE
Ionization: ESI
Fragmentation mode: HCD
Collision energy: 50(NCE)
Resolution: 17500
Column name: Agilent RRHD Eclipse 50 x 2 mm, 1.8 uM
Retention time: 2.84
Base peak: 105.0698
Precursor m/z: 405.1514
Precursor type: [M+Na]+
m/z	relative intensity	assigned
50.8377	74	
55.9765	70	
59.5508	66	
67.0542	116	
79.0542	165	
81.0699	123	
83.0103	182	
83.0491	102	
83.1251	73	
91.0542	162	
93.0699	179	
95.0491	385	
97.0648	83	
102.2863	86	
105.0699	999	
107.0855	202	
109.0648	108	
111.0441	108	
117.0699	105	C9H9+
119.0855	456	
121.0648	157	
123.0804	127	
129.0675	141	
129.5635	108	
131.0855	165	
135.0804	446	
143.0855	134	
147.0804	137	
156.0934	111	
157.0988	87	
158.0726	78	
159.0804	102	
159.1168	94	
163.0754	92	
172.0883	127	
176.5998	89	
184.0883	84	
362.9449	90	
397.5394	88	
405.152	792	
