Mass spectrum: Mevastatin; LC-ESI-ITFT; MS2; CE: 55; R=17500; [M+H]+
Name: Mevastatin
Name: Compactin, Mevastatinum, Mevastatina
Name: [(1S,7S,8S,8aR)-8-[2-[(2R,4R)-4-hydroxy-6-oxooxan-2-yl]ethyl]-7-methyl-1,2,3,7,8,8a-hexahydronaphthalen-1-yl] (2S)-2-methylbutanoate
Class: Natural Product; Fungal metabolite
Formula: C23H34O5
Exact mass: 390.24063
SMILES: CC[C@H](C)C(=O)O[C@H]1CCC=C2[C@H]1[C@H]([C@H](C=C2)C)CC[C@@H]3C[C@H](CC(=O)O3)O
InChI: InChI=1S/C23H34O5/c1-4-14(2)23(26)28-20-7-5-6-16-9-8-15(3)19(22(16)20)11-10-18-12-17(24)13-21(25)27-18/h6,8-9,14-15,17-20,22,24H,4-5,7,10-13H2,1-3H3/t14-,15-,17+,18+,19-,20-,22-/m0/s1
Instrument: Q-Exactive Orbitrap Thermo Scientific
Instrument type: LC-ESI-ITFT
Ms type: MS2
Ion mode: POSITIVE
Ionization: ESI
Fragmentation mode: HCD
Collision energy: 55(NCE)
Resolution: 17500
Column name: Agilent RRHD Eclipse 50 x 2 mm, 1.8 uM
Retention time: 3.73
Base peak: 159.1168
Precursor m/z: 391.2474
Precursor type: [M+H]+
m/z	relative intensity	assigned
67.055	59	
69.0707	48	
79.0542	218	
81.0699	70	
83.0491	118	
91.0542	98	
93.0699	56	
97.0648	74	
105.0699	194	
117.0699	135	
119.0855	117	
128.0621	91	C10H8+
129.0699	172	
130.0777	36	
131.0855	243	
141.0699	66	C11H9+
142.0777	118	C11H10+
143.0855	630	
144.0934	243	C11H12+
145.1012	214	C11H13+
155.0855	235	C12H11+
157.1012	333	
159.1168	999	C12H15+
167.0855	42	
168.0934	34	
169.1012	296	
171.1168	48	
181.1012	52	
182.109	32	
183.1168	240	C14H15+
185.1325	748	
187.1481	34	
193.1012	55	C15H13+
196.1247	62	
197.1325	58	
209.1325	91	C16H17+
211.1481	299	C16H19+
