Mass spectrum: HT-2 Toxin; LC-ESI-ITFT; MS2; CE: 10; R=17500; [M+H]+
Name: HT-2 Toxin
Name: 12,13-Epoxytrichothec-9-ene-3-alpha,4-beta,8-alpha,15-tetrol 15-acetate 8-isovalerate
Class: Natural Product; Fungal metabolite
Formula: C22H32O8
Exact mass: 424.20971
SMILES: CC1=C[C@@H]2[C@](C[C@@H]1OC(=O)CC(C)C)([C@]3([C@@H]([C@H]([C@H]([C@@]34CO4)O2)O)O)C)COC(=O)C
InChI: InChI=1S/C22H32O8/c1-11(2)6-16(24)29-14-8-21(9-27-13(4)23)15(7-12(14)3)30-19-17(25)18(26)20(21,5)22(19)10-28-22/h7,11,14-15,17-19,25-26H,6,8-10H2,1-5H3/t14-,15+,17+,18+,19+,20+,21+,22-/m0/s1
Instrument: Q-Exactive Orbitrap Thermo Scientific
Instrument type: LC-ESI-ITFT
Ms type: MS2
Ion mode: POSITIVE
Ionization: ESI
Fragmentation mode: HCD
Collision energy: 10(NCE)
Resolution: 17500
Column name: Agilent RRHD Eclipse 50 x 2 mm, 1.8 uM
Retention time: 3.14
Base peak: 425.215
Precursor m/z: 425.2164
Precursor type: [M+H]+
m/z	relative intensity	assigned
57.0706	46	
85.0648	209	
105.0699	131	
121.0648	176	
125.0597	48	
143.0855	31	
145.1012	40	
157.1012	84	
159.0804	46	
159.1168	31	
161.0961	58	
169.1012	31	
171.1168	67	
173.0961	82	
175.1118	74	
177.091	32	
181.1012	44	
185.0961	85	
187.1118	80	
189.1274	32	
197.0961	96	
199.1118	202	
203.1067	101	
205.1223	34	
209.0961	33	
215.1067	240	
217.1223	157	
227.1067	302	
233.1172	92	
235.1329	32	
245.1172	552	
263.1278	618	
281.1384	151	
287.1278	73	
305.1384	134	
323.1489	154	
329.1747	44	
347.1853	78	
365.1959	75	
407.2064	138	
425.217	999	
