Mass spectrum: Fusaperazine E; LC-ESI-ITFT; MS2; CE: 40; R=17500; [M+H]+
Name: Fusaperazine E
Name: (3Z)-1,4-dimethyl-3-[[4-(3-methylbut-2-enoxy)phenyl]methylidene]-6-methylsulfanylpiperazine-2,5-dione
Class: Natural Product; Fungal metabolite
Formula: C19H24N2O3S
Exact mass: 360.15076
SMILES: CC(=CCOC1=CC=C(C=C1)/C=C\2/C(=O)N(C(C(=O)N2C)SC)C)C
InChI: InChI=1S/C19H24N2O3S/c1-13(2)10-11-24-15-8-6-14(7-9-15)12-16-17(22)21(4)19(25-5)18(23)20(16)3/h6-10,12,19H,11H2,1-5H3/b16-12-
Instrument: Q-Exactive Orbitrap Thermo Scientific
Instrument type: LC-ESI-ITFT
Ms type: MS2
Ion mode: POSITIVE
Ionization: ESI
Fragmentation mode: HCD
Collision energy: 40(NCE)
Resolution: 17500
Column name: Agilent RRHD Eclipse 50 x 2 mm, 1.8 uM
Retention time: 3.91
Base peak: 217.0967
Precursor m/z: 361.1575
Precursor type: [M+H]+
m/z	relative intensity	assigned
69.0699	372	
107.0491	228	
112.0631	53	
113.0709	47	
125.0709	34	
141.0658	54	
148.0757	135	
153.0369	374	
159.0587	112	
160.0757	149	
176.0706	80	
187.0536	69	
188.0706	162	
189.1022	41	
217.0972	999	
218.105	411	
245.0921	220	
246.0999	119	
