Mass spectrum: Verruculogen; LC-ESI-ITFT; MS2; CE: 40; R=17500; [M+H]+
Name: Verruculogen
Name: TR toxin
Name: (5R,10S,10aR,14aS,15bS)-10,10a-dihydroxy-6-methoxy-2,2-dimethyl-5-(2-methylprop-1-en-1-yl)-1,10,10a,14,14a,15b-hexahydro-12H-3,4-dioxa-5a,11a,15a-triazacycloocta[1,2,3-lm]indeno[5,6-b]fluorene-11,15(2H,13H)-dione
Class: Natural Product; Fungal metabolite
Formula: C27H33N3O7
Exact mass: 511.23184
SMILES: CC(=C[C@@H]1N2C3=C(C=CC(=C3)OC)C4=C2[C@H](CC(OO1)(C)C)N5C(=O)[C@@H]6CCCN6C(=O)[C@@]5([C@H]4O)O)C
InChI: InChI=1S/C27H33N3O7/c1-14(2)11-20-29-18-12-15(35-5)8-9-16(18)21-22(29)19(13-26(3,4)37-36-20)30-24(32)17-7-6-10-28(17)25(33)27(30,34)23(21)31/h8-9,11-12,17,19-20,23,31,34H,6-7,10,13H2,1-5H3/t17-,19-,20+,23-,27+/m0/s1
Instrument: Q-Exactive Orbitrap Thermo Scientific
Instrument type: LC-ESI-ITFT
Ms type: MS2
Ion mode: POSITIVE
Ionization: ESI
Fragmentation mode: HCD
Collision energy: 40(NCE)
Resolution: 17500
Column name: Agilent RRHD Eclipse 50 x 2 mm, 1.8 uM
Retention time: 3.77
Base peak: 70.0658
Precursor m/z: 512.2386
Precursor type: [M+H]+
m/z	relative intensity	assigned
70.0651	999	
98.06	36	
125.0709	44	
126.055	50	
141.0658	66	
148.0757	78	
153.0658	76	
158.06	40	C10H8N1O1+
160.0757	115	
172.0757	149	
174.0913	145	
176.0706	85	
183.0679	56	
184.0757	96	C12H10N1O1+
186.055	49	
188.0706	101	
189.1022	53	
191.0577	43	
197.0835	66	
198.0913	738	
199.0866	681	
200.0706	98	
200.107	56	
202.0499	31	C11H8N1O3+
202.0863	102	
202.1226	178	
209.0709	49	
210.0913	65	
211.0839	66	
212.107	43	
213.0658	197	
215.0788	50	
217.0972	72	
227.0815	562	
228.1019	48	
230.1176	133	
231.0764	99	
239.0815	39	
240.1019	177	
241.0608	73	
243.0764	33	
245.0921	75	
252.0893	57	C15H12N2O2+
253.0945	64	
255.0764	377	
259.0713	148	
267.1128	108	
279.1128	42	
283.0601	47	
295.1356	39	
296.1394	43	
310.1186	95	
322.1101	38	
323.1264	66	
324.1316	49	
352.1305	37	
379.0435	37	
