Mass spectrum: Hydroxy-roquefortine C; LC-ESI-ITFT; MS2; CE: 55; R=17500; [M+H]+
Name: Hydroxy-roquefortine C
Class: Natural Product; Fungal metabolite
Formula: C22H23N5O3
Exact mass: 405.18008
SMILES: CC(C)(C=C)C12CC3C(=O)N/C(=C/C4=CN=CN4)/C(=O)N3C1N(C5=CC=CC=C25)O
InChI: InChI=1S/C22H23N5O3/c1-4-21(2,3)22-10-17-18(28)25-15(9-13-11-23-12-24-13)19(29)26(17)20(22)27(30)16-8-6-5-7-14(16)22/h4-9,11-12,17,20,30H,1,10H2,2-3H3,(H,23,24)(H,25,28)/b15-9+
Instrument: Q-Exactive Orbitrap Thermo Scientific
Instrument type: LC-ESI-ITFT
Ms type: MS2
Ion mode: POSITIVE
Ionization: ESI
Fragmentation mode: HCD
Collision energy: 55(NCE)
Resolution: 17500
Column name: Agilent RRHD Eclipse 50 x 2 mm, 1.8 uM
Retention time: 2.66
Base peak: 108.056
Precursor m/z: 406.1868
Precursor type: [M+H]+
m/z	relative intensity	assigned
55.3234	61	
66.6755	76	
69.0456	100	
69.0707	121	
76.5171	70	
81.0447	283	
96.4877	92	
106.04	482	
108.0556	999	
109.0634	73	
112.7876	64	
130.0651	722	
132.2558	82	
136.0505	130	C6H6N3O1+
143.1723	85	
146.06	170	
162.0298	345	C7H4N3O2+
163.0614	108	
165.0771	171	
169.076	96	
192.0642	332	
193.072	796	
207.0512	122	
281.2383	92	
288.3376	78	
