Mass spectrum: Verrucarol; LC-ESI-ITFT; MS2; CE: 10; R=17500; [M+H]+
Name: Verrucarol
Class: Natural Product; Fungal metabolite
Formula: C15H22O4
Exact mass: 266.15181
SMILES: CC1=C[C@@H]2[C@](CC1)([C@]3([C@@H](C[C@H]([C@@]34CO4)O2)O)C)CO
InChI: InChI=1S/C15H22O4/c1-9-3-4-14(7-16)11(5-9)19-12-6-10(17)13(14,2)15(12)8-18-15/h5,10-12,16-17H,3-4,6-8H2,1-2H3/t10-,11-,12-,13-,14-,15+/m1/s1
Instrument: Q-Exactive Orbitrap Thermo Scientific
Instrument type: LC-ESI-ITFT
Ms type: MS2
Ion mode: POSITIVE
Ionization: ESI
Fragmentation mode: HCD
Collision energy: 10(NCE)
Resolution: 17500
Column name: Agilent RRHD Eclipse 50 x 2 mm, 1.8 uM
Retention time: 2.52
Base peak: 249.1475
Precursor m/z: 267.1585
Precursor type: [M+H]+
m/z	relative intensity	assigned
81.0699	74	
93.0699	50	
95.0855	43	
97.0648	45	
105.0699	112	
107.0855	102	C8H11+
109.0648	31	
109.1012	71	C8H13+
119.0855	38	
121.0648	63	
123.0804	42	
127.0754	74	
133.1012	52	
135.0804	51	
137.0961	31	
143.0855	48	
145.1012	60	
157.1012	58	
159.1168	180	
161.0961	45	
161.1325	69	
171.1168	105	
173.0961	31	
175.1118	41	
175.1481	44	
177.1274	51	
185.1325	280	
187.1118	44	
187.1481	51	
189.1274	92	
195.1168	74	
201.1274	72	
203.1431	343	
205.1223	43	
213.1274	314	
219.138	186	
231.138	732	
237.1485	51	
249.1485	999	
267.1591	855	
