Mass spectrum: Trichoverrol A; LC-ESI-ITFT; MS2; CE: 35; R=17500; [M+H]+
Name: Trichoverrol A
Name: [4b(2Z,4E,6S,7S)]-4-(6,7-dihydroxy-2,4-octadienoate) 12,13-Epoxy-trichothec-9-ene-4,15-diol
Class: Natural Product; Fungal metabolite
Formula: C23H32O7
Exact mass: 420.2148
SMILES: CC1=C[C@@H]2[C@](CC1)([C@]3([C@@H](C[C@H]([C@@]34CO4)O2)OC(=O)/C=C\C=C\[C@@H]([C@H](C)O)O)C)CO
InChI: InChI=1S/C23H32O7/c1-14-8-9-22(12-24)18(10-14)29-19-11-17(21(22,3)23(19)13-28-23)30-20(27)7-5-4-6-16(26)15(2)25/h4-7,10,15-19,24-26H,8-9,11-13H2,1-3H3/b6-4+,7-5-/t15-,16-,17+,18+,19+,21+,22+,23-/m0/s1
Instrument: Q-Exactive Orbitrap Thermo Scientific
Instrument type: LC-ESI-ITFT
Ms type: MS2
Ion mode: POSITIVE
Ionization: ESI
Fragmentation mode: HCD
Collision energy: 35(NCE)
Resolution: 17500
Column name: Agilent RRHD Eclipse 50 x 2 mm, 1.8 uM
Retention time: 3.3
Base peak: 107.0856
Precursor m/z: 421.2215
Precursor type: [M+H]+
m/z	relative intensity	assigned
53.2301	48	
69.0335	93	
79.0542	53	
81.0335	72	C5H5O1+
81.0699	936	
83.0491	365	
93.0699	275	
95.0491	112	
95.0855	73	
105.0699	443	
107.0855	999	
109.0648	560	
113.0597	83	C6H9O2+
119.0491	71	
119.0855	98	
121.0648	231	
123.0804	349	
125.0597	90	
129.0699	63	
131.0855	208	
133.1012	64	C10H13+
135.0804	62	
141.9059	59	
143.0855	367	
145.1012	131	
147.1168	107	
149.0961	73	
157.1012	355	
159.1168	219	
161.0961	258	
169.1012	63	
171.1168	139	
173.1325	73	
175.1118	233	
183.1168	89	
185.1325	444	
187.1118	60	
189.1274	75	
193.1223	386	
195.1168	280	
201.1274	251	
203.1431	99	
210.9873	64	
213.1274	242	
231.138	671	
242.1149	58	
249.1485	141	
292.954	55	
398.8483	59	
410.0944	58	
