Mass spectrum: Surfactin B; LC-ESI-ITFT; MS2; CE: 40; R=17500; [M+Na]+
Name: Surfactin B
Name: 3-[(3S,6R,9S,12S,15R,18S,21S,25R)-9-(carboxymethyl)-25-(9-methyldecyl)-3,6,15,18-tetrakis(2-methylpropyl)-2,5,8,11,14,17,20,23-octaoxo-12-propan-2-yl-1-oxa-4,7,10,13,16,19,22-heptazacyclopentacos-21-yl]propanoic acid
Class: Natural Product; Bacterial metabolite
Formula: C52H91N7O13
Exact mass: 1021.66749
SMILES: CC(C)CCCCCCCC[C@@H]1CC(=O)N[C@H](C(=O)N[C@H](C(=O)N[C@@H](C(=O)N[C@H](C(=O)N[C@H](C(=O)N[C@@H](C(=O)N[C@H](C(=O)O1)CC(C)C)CC(C)C)CC(=O)O)C(C)C)CC(C)C)CC(C)C)CCC(=O)O
InChI: InChI=1S/C52H91N7O13/c1-29(2)19-17-15-13-14-16-18-20-35-27-42(60)53-36(21-22-43(61)62)46(65)54-37(23-30(3)4)47(66)56-39(25-32(7)8)50(69)59-45(34(11)12)51(70)57-40(28-44(63)64)49(68)55-38(24-31(5)6)48(67)58-41(26-33(9)10)52(71)72-35/h29-41,45H,13-28H2,1-12H3,(H,53,60)(H,54,65)(H,55,68)(H,56,66)(H,57,70)(H,58,67)(H,59,69)(H,61,62)(H,63,64)/t35-,36+,37+,38-,39-,40+,41+,45+/m1/s1
Instrument: Q-Exactive Orbitrap Thermo Scientific
Instrument type: LC-ESI-ITFT
Ms type: MS2
Ion mode: POSITIVE
Ionization: ESI
Fragmentation mode: HCD
Collision energy: 40(NCE)
Resolution: 17500
Column name: Agilent RRHD Eclipse 50 x 2 mm, 1.8 uM
Retention time: 4.88
Base peak: 391.2691
Precursor m/z: 1044.6562
Precursor type: [M+Na]+
m/z	relative intensity	assigned
267.169	115	
320.2319	501	C16H28N6O1+
347.2428	59	
348.2268	80	
360.2156	106	
365.2537	273	
366.2374	97	
368.1802	90	
375.2741	127	
391.269	999	
445.3047	50	C24H39N5O3+
463.2541	312	
481.2646	747	
558.3896	160	C18H57N5O12Na1+
585.3984	33	
594.3487	365	
604.4	52	C39H53N2O2Na1+
657.458	458	
684.469	56	
702.4814	76	
703.4641	71	
707.4333	133	
712.4984	45	
728.4957	494	
800.4794	122	
818.491	288	
931.574	108	
1044.6567	43	
