Mass spectrum: Verruculogen; LC-ESI-ITFT; MS2; CE: 55; R=17500; [M+H]+
Name: Verruculogen
Name: TR toxin
Name: (5R,10S,10aR,14aS,15bS)-10,10a-dihydroxy-6-methoxy-2,2-dimethyl-5-(2-methylprop-1-en-1-yl)-1,10,10a,14,14a,15b-hexahydro-12H-3,4-dioxa-5a,11a,15a-triazacycloocta[1,2,3-lm]indeno[5,6-b]fluorene-11,15(2H,13H)-dione
Class: Natural Product; Fungal metabolite
Formula: C27H33N3O7
Exact mass: 511.23184
SMILES: CC(=C[C@@H]1N2C3=C(C=CC(=C3)OC)C4=C2[C@H](CC(OO1)(C)C)N5C(=O)[C@@H]6CCCN6C(=O)[C@@]5([C@H]4O)O)C
InChI: InChI=1S/C27H33N3O7/c1-14(2)11-20-29-18-12-15(35-5)8-9-16(18)21-22(29)19(13-26(3,4)37-36-20)30-24(32)17-7-6-10-28(17)25(33)27(30,34)23(21)31/h8-9,11-12,17,19-20,23,31,34H,6-7,10,13H2,1-5H3/t17-,19-,20+,23-,27+/m0/s1
Instrument: Q-Exactive Orbitrap Thermo Scientific
Instrument type: LC-ESI-ITFT
Ms type: MS2
Ion mode: POSITIVE
Ionization: ESI
Fragmentation mode: HCD
Collision energy: 55(NCE)
Resolution: 17500
Column name: Agilent RRHD Eclipse 50 x 2 mm, 1.8 uM
Retention time: 3.77
Base peak: 70.0658
Precursor m/z: 512.2386
Precursor type: [M+H]+
m/z	relative intensity	assigned
70.0651	999	
98.06	35	
125.0709	33	C6H9N2O1+
141.0658	43	
146.06	32	
147.0679	61	
148.0757	89	
153.0658	33	
156.0682	37	
158.06	82	
159.0679	65	
160.0757	151	
167.073	42	
172.0757	146	
173.0835	33	
174.0913	102	C11H12N1O1+
176.0706	46	
182.06	36	
183.0679	214	
184.0631	216	
184.0757	88	
185.0709	84	
186.055	59	
187.0992	39	
188.0706	65	
197.0835	82	
198.0913	394	
199.0866	639	
200.0706	146	
202.1226	55	
209.0709	54	
210.0913	50	
211.0839	50	
212.0553	55	
213.0658	223	
215.0788	59	
227.0815	312	
230.0659	38	
231.0764	173	
235.0866	34	
240.1019	59	
252.0866	64	
253.0972	39	
255.0737	44	
259.0713	55	
