Mass spectrum: Cyclo(VVFF); LC-ESI-ITFT; MS2; CE: 10; R=17500; [M+H]+
Name: Cyclo(VVFF)
Class: Natural Product; Fungal metabolite
Formula: C28H36N4O4
Exact mass: 492.27366
SMILES: O=C(NC(C(C)C)C(NC(CC1=CC=CC=C1)C(NC2CC3=CC=CC=C3)=O)=O)C(C(C)C)NC2=O
InChI: InChI=1S/C28H36N4O4/c1-17(2)23-27(35)30-21(15-19-11-7-5-8-12-19)25(33)29-22(16-20-13-9-6-10-14-20)26(34)31-24(18(3)4)28(36)32-23/h5-14,17-18,21-24H,15-16H2,1-4H3,(H,29,33)(H,30,35)(H,31,34)(H,32,36)
Instrument: Q-Exactive Orbitrap Thermo Scientific
Instrument type: LC-ESI-ITFT
Ms type: MS2
Ion mode: POSITIVE
Ionization: ESI
Fragmentation mode: HCD
Collision energy: 10(NCE)
Resolution: 17500
Column name: Agilent RRHD Eclipse 50 x 2 mm, 1.8 uM
Retention time: 3.8
Base peak: 288.9218
Precursor m/z: 493.2804
Precursor type: [M+H]+
m/z	relative intensity	assigned
72.1042	53	
85.3439	49	
95.226	57	
99.0396	52	
129.5986	66	
171.5386	54	
192.1427	55	
226.9516	79	
249.8052	55	
278.547	56	
288.9218	999	
295.1441	70	
319.0462	62	
346.2125	382	
356.9089	471	
370.615	63	
393.5283	64	
394.2125	681	
424.8982	930	
446.8137	104	
464.816	112	
465.286	581	
465.3466	52	
493.2809	936	
