Mass spectrum: 3-Acetyldeoxynivalenol; LC-APCI-ITFT; MS2; CE: 10; R=17500; [M+H]+
Name: 3-Acetyldeoxynivalenol
Name: 3-monoacetyldeoxynivalenol
Class: Natural Product; Fungal metabolite
Formula: C17H22O7
Exact mass: 338.13654
SMILES: CC1=C[C@@H]2[C@]([C@@H](C1=O)O)([C@]3(C[C@H]([C@H]([C@@]34CO4)O2)OC(=O)C)C)CO
InChI: InChI=1S/C17H22O7/c1-8-4-11-16(6-18,13(21)12(8)20)15(3)5-10(23-9(2)19)14(24-11)17(15)7-22-17/h4,10-11,13-14,18,21H,5-7H2,1-3H3/t10-,11-,13-,14-,15-,16-,17+/m1/s1
Instrument: Q-Exactive Orbitrap Thermo Scientific
Instrument type: LC-APCI-ITFT
Ms type: MS2
Ion mode: POSITIVE
Ionization: APCI
Fragmentation mode: HCD
Collision energy: 10(NCE)
Resolution: 17500
Column name: Agilent RRHD Eclipse 50 x 2 mm, 1.8 uM
Retention time: 2.77
Base peak: 339.146
Precursor m/z: 339.1433
Precursor type: [M+H]+
m/z	relative intensity	assigned
109.0648	37	C7H9O1+
125.0597	40	
137.0597	67	
189.091	39	
201.091	63	
203.1067	83	
213.091	109	
215.1067	90	
219.1016	45	
223.0965	31	
231.1016	540	
243.1016	92	
249.1121	58	
261.1121	164	
279.1227	242	
297.1333	149	
321.1333	184	
339.1438	999	
