Mass spectrum: HT-2 Toxin; LC-ESI-ITFT; MS2; CE: 30; R=17500; [M+H]+
Name: HT-2 Toxin
Name: 12,13-Epoxytrichothec-9-ene-3-alpha,4-beta,8-alpha,15-tetrol 15-acetate 8-isovalerate
Class: Natural Product; Fungal metabolite
Formula: C22H32O8
Exact mass: 424.20971
SMILES: CC1=C[C@@H]2[C@](C[C@@H]1OC(=O)CC(C)C)([C@]3([C@@H]([C@H]([C@H]([C@@]34CO4)O2)O)O)C)COC(=O)C
InChI: InChI=1S/C22H32O8/c1-11(2)6-16(24)29-14-8-21(9-27-13(4)23)15(7-12(14)3)30-19-17(25)18(26)20(21,5)22(19)10-28-22/h7,11,14-15,17-19,25-26H,6,8-10H2,1-5H3/t14-,15+,17+,18+,19+,20+,21+,22-/m0/s1
Instrument: Q-Exactive Orbitrap Thermo Scientific
Instrument type: LC-ESI-ITFT
Ms type: MS2
Ion mode: POSITIVE
Ionization: ESI
Fragmentation mode: HCD
Collision energy: 30(NCE)
Resolution: 17500
Column name: Agilent RRHD Eclipse 50 x 2 mm, 1.8 uM
Retention time: 3.14
Base peak: 85.065
Precursor m/z: 425.2164
Precursor type: [M+H]+
m/z	relative intensity	assigned
57.0705	611	
69.0335	47	
71.0128	56	
79.0542	57	
81.0699	49	
83.0491	54	
85.0284	34	
85.0648	999	
91.0542	56	
93.0699	168	
95.0491	188	
95.0855	45	C7H11+
97.0648	111	C6H9O1+
105.0699	650	
107.0491	76	C7H7O1+
107.0855	48	
109.0648	142	
111.0441	35	
117.0699	45	
119.0491	48	
119.0855	152	
121.0648	799	
123.0441	74	
123.0804	73	
125.0597	137	
129.0699	76	
131.0855	174	
133.0648	69	
133.1012	112	
135.0804	73	
137.0597	72	
141.0546	33	
141.0699	39	
142.0777	64	
143.0855	338	
145.0648	80	
145.1012	305	
147.0804	119	
147.1168	100	
149.0597	48	
149.0961	49	
155.0855	69	
156.0934	104	
157.1012	505	
158.0726	45	
159.0804	208	
159.1168	241	
161.0961	212	
161.1325	41	
163.0754	59	
166.0777	71	
167.0855	35	
169.1012	203	
171.0804	107	
171.1168	334	
172.0883	32	
173.0961	351	
175.0754	49	
175.1118	338	
177.091	99	
179.0855	35	
181.1012	218	
184.0883	58	
185.0961	302	
186.1039	48	
187.1118	247	
189.091	64	
189.1274	137	
191.1067	46	
197.0961	251	
199.1118	550	
201.091	52	
203.1067	207	
204.1145	47	
205.1223	60	
209.0961	135	
212.0832	39	
215.1067	287	
217.1223	307	
227.1067	348	
233.1172	93	
235.1329	53	
245.1172	437	
263.1278	364	
281.1384	67	
305.1384	32	
