Mass spectrum: Marticin; LC-ESI-ITFT; MS2; CE: 55; R=17500; [M-H]-
Name: Marticin
Name: 2,6-Epoxy-2H-naphth(2,3-d)oxocin-4-carboxylic acid, 1,4,5,6,7,12-hexahydro-8,11-dihydroxy-10-methoxy-2-methyl-7,12-dioxo-, (2alpha,4alpha,6alpha)-(+)-
Class: Natural Product; Fungal metabolite
Formula: C18H16O9
Exact mass: 376.07941
SMILES: CC12CC3=C(C4=C(C(=O)C=C(C4=O)OC)C(=C3C(O1)CC(O2)C(=O)O)O)O
InChI: InChI=1S/C18H16O9/c1-18-5-6-11(8(26-18)4-10(27-18)17(23)24)16(22)12-7(19)3-9(25-2)15(21)13(12)14(6)20/h3,8,10,20,22H,4-5H2,1-2H3,(H,23,24)
Instrument: Q-Exactive Orbitrap Thermo Scientific
Instrument type: LC-ESI-ITFT
Ms type: MS2
Ion mode: NEGATIVE
Ionization: ESI
Fragmentation mode: HCD
Collision energy: 55(NCE)
Resolution: 17500
Column name: Agilent RRHD Eclipse 50 x 2 mm, 1.8 uM
Retention time: 3.28
Base peak: 285.0387
Precursor m/z: 375.0727
Precursor type: [M-H]-
m/z	relative intensity	assigned
227.035	51	
231.0299	53	
240.0428	66	
241.0506	58	
242.0221	61	
243.0299	306	
244.0377	158	
255.0299	92	
257.0455	108	
259.0248	190	
268.0377	98	
269.0455	269	
270.017	94	
270.0534	83	
271.0248	467	
272.0326	862	
273.0404	89	
285.0404	999	
286.0483	163	
297.0404	76	
298.0483	130	
