Mass spectrum: Zearalenone; LC-ESI-ITFT; MS2; CE: 10; R=17500; [M+H]+
Name: Zearalenone
Name: F2 Toxin
Name: (2E,11S)-15,17-dihydroxy-11-methyl-12-oxabicyclo[12.4.0]octadeca-1(14),2,15,17-tetraene-7,13-dione
Class: Natural Product; Fungal metabolite
Formula: C18H22O5
Exact mass: 318.14672
SMILES: C[C@H]1CCCC(=O)CCC/C=C/C2=CC(=CC(=C2C(=O)O1)O)O
InChI: InChI=1S/C18H22O5/c1-12-6-5-9-14(19)8-4-2-3-7-13-10-15(20)11-16(21)17(13)18(22)23-12/h3,7,10-12,20-21H,2,4-6,8-9H2,1H3/b7-3+/t12-/m0/s1
Instrument: Q-Exactive Orbitrap Thermo Scientific
Instrument type: LC-ESI-ITFT
Ms type: MS2
Ion mode: POSITIVE
Ionization: ESI
Fragmentation mode: HCD
Collision energy: 10(NCE)
Resolution: 17500
Column name: Agilent RRHD Eclipse 50 x 2 mm, 1.8 uM
Retention time: 3.65
Base peak: 319.1525
Precursor m/z: 319.1535
Precursor type: [M+H]+
m/z	relative intensity	assigned
85.0648	122	
97.0648	135	C6H9O1+
165.0182	34	
187.0754	95	
217.0859	61	
231.0652	115	
249.0757	44	
255.138	43	
257.1536	51	
265.1223	85	
267.0851	125	
283.1329	641	
301.1434	859	
319.154	999	
