Mass spectrum: Roridin A; LC-ESI-ITFT; MS2; CE: 35; R=17500; [M+H]+
Name: Roridin A
Class: Natural Product; Fungal metabolite
Formula: C29H40O9
Exact mass: 532.26723
SMILES: C[C@@H]1CCO[C@H](/C=C/C=C\C(=O)O[C@@H]2C[C@@H]3[C@]4([C@]2([C@]5(CCC(=C[C@H]5O3)C)COC(=O)[C@H]1O)C)CO4)[C@@H](C)O
InChI: InChI=1S/C29H40O9/c1-17-9-11-28-15-35-26(33)25(32)18(2)10-12-34-20(19(3)30)7-5-6-8-24(31)38-21-14-23(37-22(28)13-17)29(16-36-29)27(21,28)4/h5-8,13,18-23,25,30,32H,9-12,14-16H2,1-4H3/b7-5+,8-6-/t18-,19-,20-,21-,22-,23-,25+,27-,28-,29+/m1/s1
Instrument: Q-Exactive Orbitrap Thermo Scientific
Instrument type: LC-ESI-ITFT
Ms type: MS2
Ion mode: POSITIVE
Ionization: ESI
Fragmentation mode: HCD
Collision energy: 35(NCE)
Resolution: 17500
Column name: Agilent RRHD Eclipse 50 x 2 mm, 1.8 uM
Retention time: 3.46
Base peak: 85.065
Precursor m/z: 533.274
Precursor type: [M+H]+
m/z	relative intensity	assigned
67.0542	42	
79.0542	88	
81.0699	940	
85.0648	999	
91.0542	66	
93.0699	320	
95.0491	249	
95.0855	179	
97.0648	69	C6H9O1+
105.0699	666	
107.0491	46	C7H7O1+
107.0855	614	
109.0648	458	
111.0804	56	
117.0699	41	
119.0491	66	
119.0855	145	
121.0648	161	
121.1012	39	
123.0804	678	
125.0597	251	
127.0754	38	
129.0699	50	
131.0703	53	
131.0855	196	
133.0648	42	
133.1012	641	
135.0804	56	
135.1168	42	
137.0597	202	
139.0754	76	
141.091	72	
143.0855	371	
145.1012	213	
147.0804	45	
147.1168	170	
149.0961	57	
157.1012	358	
159.0804	32	
159.1168	198	
161.0961	398	
161.1325	58	
163.1118	100	
165.0699	36	
169.1012	120	
170.109	41	
171.1168	182	
173.0961	38	
173.1325	102	
175.1118	248	
175.1481	44	
180.0934	64	
183.1168	153	
185.1325	567	
187.1118	93	
189.1274	218	
193.1223	577	
195.1168	353	
201.1274	291	
203.1431	267	
213.1274	311	
219.138	57	
231.138	997	
249.1485	446	
