Mass spectrum: NX2 toxin; LC-APCI-ITFT; MS2; CE: 10; R=17500; [M+H]+
Name: NX2 toxin
Class: Natural Product; Fungal metabolite
Formula: C17H24O6
Exact mass: 324.15728
SMILES: CC1=C[C@@H]2[C@]([C@@]3(C)C[C@@H](OC(C)=O)[C@@H](O2)[C@@]34CO4)(CO)[C@H](O)C1
InChI: InChI=1S/C17H24O6/c1-9-4-12(20)16(7-18)13(5-9)23-14-11(22-10(2)19)6-15(16,3)17(14)8-21-17/h5,11-14,18,20H,4,6-8H2,1-3H3/t11-,12-,13-,14-,15-,16+,17+/m1/s1
Instrument: Q-Exactive Orbitrap Thermo Scientific
Instrument type: LC-APCI-ITFT
Ms type: MS2
Ion mode: POSITIVE
Ionization: APCI
Fragmentation mode: HCD
Collision energy: 10(NCE)
Resolution: 17500
Column name: Agilent RRHD Eclipse 50 x 2 mm, 1.8 uM
Retention time: 2.75
Base peak: 325.1649
Precursor m/z: 325.164
Precursor type: [M+H]+
m/z	relative intensity	assigned
93.0699	35	
105.0699	37	
109.0648	34	
121.0648	77	
125.0597	46	
133.0648	59	
139.0754	58	
157.1012	36	
169.1012	33	
171.1168	64	
183.1168	84	
187.1118	34	
199.1118	148	
201.1274	65	
209.1172	37	
211.1118	95	
217.1223	73	
229.1223	196	
247.1329	180	
265.1434	73	
277.1434	48	
283.154	147	
289.1434	93	
307.154	397	
325.1646	999	
