Mass spectrum: Deoxynivalenol 3-glucuronide; LC-ESI-ITFT; MS2; CE: 30; R=17500; [M-H]-
Name: Deoxynivalenol 3-glucuronide
Class: Fungal metabolite; urinary conjugate
Formula: C21H28O12
Exact mass: 472.15805
SMILES: CC1=C[C@@H]2[C@]([C@@H](C1=O)O)([C@]3(C[C@H]([C@H]([C@@]34CO4)O2)O[C@H]5[C@@H]([C@H]([C@@H]([C@H](O5)C(=O)O)O)O)O)C)CO
InChI: InChI=1S/C21H28O12/c1-7-3-9-20(5-22,15(27)10(7)23)19(2)4-8(16(32-9)21(19)6-30-21)31-18-13(26)11(24)12(25)14(33-18)17(28)29/h3,8-9,11-16,18,22,24-27H,4-6H2,1-2H3,(H,28,29)/t8-,9-,11+,12+,13-,14+,15-,16-,18-,19-,20-,21+/m1/s1
Instrument: Q-Exactive Orbitrap Thermo Scientific
Instrument type: LC-ESI-ITFT
Ms type: MS2
Ion mode: NEGATIVE
Ionization: ESI
Fragmentation mode: HCD
Collision energy: 30(NCE)
Resolution: 17500
Column name: Agilent RRHD Eclipse 50 x 2 mm, 1.8 uM
Retention time: 2.22
Base peak: 471.1505
Precursor m/z: 471.1513
Precursor type: [M-H]-
m/z	relative intensity	assigned
59.0124	153	
71.0123	235	
72.9916	196	
73.028	51	
75.0072	452	
85.028	294	
87.0073	140	
89.0229	134	
95.0123	50	
99.0073	88	
101.0229	71	
103.0022	141	
113.023	650	
115.0023	37	
117.0179	57	
123.0438	36	
129.0179	46	
131.0336	85	
133.0142	43	
150.0322	62	
157.0142	67	
168.0428	95	
175.0248	111	
175.0765	99	
193.0354	299	
205.087	32	
217.087	76	
229.087	70	
247.0976	109	
265.1081	189	
379.1398	37	C19H23O8-
423.1296	36	
441.1402	35	
471.1505	999	
