Mass spectrum: Ergometrine; LC-ESI-ITFT; MS2; CE: 55; R=17500; [M+H]+
Name: Ergometrine
Name: ergonovine
Name: ergobasine
Name: (6aR,9R)-N-[(2S)-1-hydroxypropan-2-yl]-7-methyl-6,6a,8,9-tetrahydro-4H-indolo[4,3-fg]quinoline-9-carboxamide
Class: Natural Product; Fungal metabolite
Formula: C19H23N3O2
Exact mass: 325.17903
SMILES: C[C@@H](CO)NC(=O)[C@H]1CN([C@@H]2CC3=CNC4=CC=CC(=C34)C2=C1)C
InChI: InChI=1S/C19H23N3O2/c1-11(10-23)21-19(24)13-6-15-14-4-3-5-16-18(14)12(8-20-16)7-17(15)22(2)9-13/h3-6,8,11,13,17,20,23H,7,9-10H2,1-2H3,(H,21,24)/t11-,13+,17+/m0/s1
Instrument: Q-Exactive Orbitrap Thermo Scientific
Instrument type: LC-ESI-ITFT
Ms type: MS2
Ion mode: POSITIVE
Ionization: ESI
Fragmentation mode: HCD
Collision energy: 55(NCE)
Resolution: 17500
Column name: Agilent RRHD Eclipse 50 x 2 mm, 1.8 uM
Retention time: 2.26
Base peak: 223.1227
Precursor m/z: 326.1858
Precursor type: [M+H]+
m/z	relative intensity	assigned
167.073	44	
168.0808	46	
180.0808	211	
181.0886	37	
182.0839	70	
182.0964	97	
191.073	59	C14H9N1+
192.0808	173	
193.076	44	
194.0964	90	
196.1121	45	
197.1073	248	
207.0679	76	
207.0917	318	
208.0757	444	
208.0995	678	
221.1073	114	
222.1152	46	C15H14N2+
223.123	999	
