Mass spectrum: Koninginin A; LC-ESI-ITFT; MS2; CE: 30; R=17500; [M+H]+
Name: Koninginin A
Class: Natural Product; Fungal metabolite
Formula: C16H28O4
Exact mass: 284.19877
SMILES: CCCCCC[C@H]1[C@@H]2CC[C@H]3[C@H](CC[C@H]([C@]3(O2)O1)O)O
InChI: InChI=1S/C16H28O4/c1-2-3-4-5-6-13-14-9-7-11-12(17)8-10-15(18)16(11,19-13)20-14/h11-15,17-18H,2-10H2,1H3/t11-,12-,13-,14-,15+,16-/m0/s1
Instrument: Q-Exactive Orbitrap Thermo Scientific
Instrument type: LC-ESI-ITFT
Ms type: MS2
Ion mode: POSITIVE
Ionization: ESI
Fragmentation mode: HCD
Collision energy: 30(NCE)
Resolution: 17500
Column name: Agilent RRHD Eclipse 50 x 2 mm, 1.8 uM
Retention time: 3.5
Base peak: 107.0491
Precursor m/z: 285.2055
Precursor type: [M+H]+
m/z	relative intensity	assigned
57.0705	470	
67.0542	288	
71.0491	120	
79.0542	358	
79.9818	75	
81.0699	183	
83.2847	75	
85.1012	522	
86.6458	73	
86.9962	71	
91.0542	119	C7H7+
93.0699	152	C7H9+
95.0855	513	
97.0648	84	
99.0441	122	
105.0699	149	
107.0491	999	C7H7O1+
109.0648	84	
109.1012	345	
113.0597	145	
113.0961	395	
119.0855	734	
119.9072	78	
121.0648	82	
123.0804	481	
123.1168	122	
125.0597	92	
125.0961	402	C8H13O1+
127.1118	404	
133.0648	650	
133.1012	106	
135.0804	156	
137.0961	147	
147.0804	187	
151.0754	147	
155.1431	264	
155.999	76	
161.0961	90	
172.7221	80	
189.1638	465	
203.1795	356	
205.1587	134	
221.19	197	
231.1744	457	
249.1849	836	
267.1955	178	
