Mass spectrum: Deoxynivalenol; LC-ESI-ITFT; MS2; CE: 20; R=17500; [M+H]+
Name: Deoxynivalenol
Name: Vomitoxin
Name: 12,13-Epoxy-3-alpha,7-alpha,15-trihydroxy-9-trichothecen-8-one
Class: Natural Product; Fungal metabolite
Formula: C15H20O6
Exact mass: 296.12598
SMILES: CC1=C[C@@H]2[C@]([C@@H](C1=O)O)([C@]3(C[C@H]([C@H]([C@@]34CO4)O2)O)C)CO
InChI: InChI=1S/C15H20O6/c1-7-3-9-14(5-16,11(19)10(7)18)13(2)4-8(17)12(21-9)15(13)6-20-15/h3,8-9,11-12,16-17,19H,4-6H2,1-2H3/t8-,9-,11-,12-,13-,14-,15+/m1/s1
Instrument: Q-Exactive Orbitrap Thermo Scientific
Instrument type: LC-ESI-ITFT
Ms type: MS2
Ion mode: POSITIVE
Ionization: ESI
Fragmentation mode: HCD
Collision energy: 20(NCE)
Resolution: 17500
Column name: Agilent RRHD Eclipse 50 x 2 mm, 1.8 uM
Retention time: 2.3
Base peak: 249.1113
Precursor m/z: 297.1327
Precursor type: [M+H]+
m/z	relative intensity	assigned
69.0335	115	
83.0491	59	
95.0491	79	
97.0648	64	
103.039	31	
109.0648	95	
121.0648	69	
123.0441	79	
125.0597	278	
137.0597	181	
157.1012	51	
159.0804	87	
159.1168	79	
161.0597	66	
161.0961	70	
163.0754	53	
165.091	63	
169.1012	32	
173.0961	139	
175.0754	280	
175.1118	125	
177.091	162	
185.0961	157	
187.1118	187	
189.091	236	
191.1067	55	
197.0961	74	
201.091	192	
203.1067	738	
205.0859	68	
213.091	186	
214.9174	83	
215.1067	170	
219.1016	338	
231.1016	677	
232.9272	519	
233.1172	168	
243.1016	68	
249.1121	999	
250.9379	602	
251.1278	425	
261.1121	297	
267.1227	118	
279.1227	275	
297.1333	705	
