Mass spectrum: 5-hydroxyculmorin; LC-ESI-ITFT; MS2; CE: 30; R=17500; [M-H2O+H]+
Name: 5-hydroxyculmorin
Name: (1S,3R,3aS,4R,6R,8aR,9R)-Decahydro-1,5,5,8a-tetramethyl-1,4-methanoazulene-3,6,9-triol
Class: Natural Product; Fungal metabolite
Formula: C15H26O3
Exact mass: 254.18821
SMILES: C[C@@]12CC[C@H](C([C@H]3[C@@H]1[C@@H](C[C@@]2(C3O)C)O)(C)C)O
InChI: InChI=1S/C15H26O3/c1-13(2)9(17)5-6-14(3)10-8(16)7-15(14,4)12(18)11(10)13/h8-12,16-18H,5-7H2,1-4H3/t8-,9-,10+,11+,12?,14-,15-/m1/s1
Instrument: Q-Exactive Orbitrap Thermo Scientific
Instrument type: LC-ESI-ITFT
Ms type: MS2
Ion mode: POSITIVE
Ionization: ESI
Fragmentation mode: HCD
Collision energy: 30(NCE)
Resolution: 17500
Column name: Agilent RRHD Eclipse 50 x 2 mm, 1.8 uM
Retention time: 2.56
Base peak: 175.1474
Precursor m/z: 237.1844
Precursor type: [M-H2O+H]+
m/z	relative intensity	assigned
69.0699	89	
81.0699	127	
83.0855	55	
85.0648	47	
93.0699	159	
95.0491	31	
95.0855	508	
97.1012	31	C7H13+
99.0804	37	C6H11O1+
105.0699	116	
107.0855	319	C8H11+
109.1012	356	
111.0804	69	
117.0699	40	
119.0855	285	
121.1012	355	
123.0804	50	
123.1168	136	
125.0961	39	
131.0855	79	
133.1012	170	
135.0804	56	
135.1168	261	
137.0961	540	
137.1325	32	
145.1012	287	
147.1168	152	
149.0961	129	
149.1325	85	
159.1168	408	
161.1325	232	
163.1118	104	
173.1325	192	
175.1481	999	
177.1638	350	
191.1795	290	
193.1587	38	
201.1638	977	
219.1744	990	
237.1849	687	
