Mass spectrum: Marticin; LC-ESI-ITFT; MS2; CE: 40; R=17500; [M+H]+
Name: Marticin
Name: 2,6-Epoxy-2H-naphth(2,3-d)oxocin-4-carboxylic acid, 1,4,5,6,7,12-hexahydro-8,11-dihydroxy-10-methoxy-2-methyl-7,12-dioxo-, (2alpha,4alpha,6alpha)-(+)-
Class: Natural Product; Fungal metabolite
Formula: C18H16O9
Exact mass: 376.07941
SMILES: CC12CC3=C(C4=C(C(=O)C=C(C4=O)OC)C(=C3C(O1)CC(O2)C(=O)O)O)O
InChI: InChI=1S/C18H16O9/c1-18-5-6-11(8(26-18)4-10(27-18)17(23)24)16(22)12-7(19)3-9(25-2)15(21)13(12)14(6)20/h3,8,10,20,22H,4-5H2,1-2H3,(H,23,24)
Instrument: Q-Exactive Orbitrap Thermo Scientific
Instrument type: LC-ESI-ITFT
Ms type: MS2
Ion mode: POSITIVE
Ionization: ESI
Fragmentation mode: HCD
Collision energy: 40(NCE)
Resolution: 17500
Column name: Agilent RRHD Eclipse 50 x 2 mm, 1.8 uM
Retention time: 3.28
Base peak: 313.072
Precursor m/z: 377.0861
Precursor type: [M+H]+
m/z	relative intensity	assigned
94.2898	31	
123.96	34	
211.039	34	
227.0703	40	
229.0495	52	
233.2947	32	
243.0652	152	
245.0444	238	
253.0495	238	
255.0652	38	
257.0444	60	
257.0808	37	
259.0601	430	
261.0757	159	
270.0523	51	
271.0601	963	
273.0757	35	
285.0757	469	
287.055	674	
288.0628	194	
289.0707	301	
295.0601	76	
298.0472	152	
299.055	316	
301.0343	56	
301.5258	35	
302.0785	467	
313.0707	999	
315.0863	41	
316.0577	73	
317.0656	68	
331.0812	79	
341.0656	203	
359.0761	45	
