Mass spectrum: Viridicatumtoxin; LC-ESI-ITFT; MS2; CE: 55; R=17500; [M-H]-
Name: Viridicatumtoxin
Name: (1S,7a'S,11a'R)-5',6',7a',10',11a'-Pentahydroxy-3'-methoxy-2,6,6-trimethyl-7',8',12'-trioxo-7',7a',8',11',11a',12'-hexahydro-1'H-spiro[cyclohex-2-ene-1,2'-cyclopenta[de]tetracene]-9'-carboxamide
Class: Natural Product; Fungal metabolite
Formula: C30H31NO10
Exact mass: 565.19478
SMILES: CC1=CCCC([C@@]12CC3=C4[C@@H]([C@]5(CC(=O)C(=C([C@]5(C(=O)C4=C(C6=C3C2=C(C=C6O)OC)O)O)O)C(=O)N)O)O)(C)C
InChI: InChI=1S/C30H31NO10/c1-11-6-5-7-27(2,3)28(11)9-12-16-18(13(32)8-15(41-4)21(16)28)22(34)20-17(12)23(35)29(39)10-14(33)19(26(31)38)24(36)30(29,40)25(20)37/h6,8,23,32,34-36,39-40H,5,7,9-10H2,1-4H3,(H2,31,38)/t23-,28-,29-,30+/m0/s1
Instrument: Q-Exactive Orbitrap Thermo Scientific
Instrument type: LC-ESI-ITFT
Ms type: MS2
Ion mode: NEGATIVE
Ionization: ESI
Fragmentation mode: HCD
Collision energy: 55(NCE)
Resolution: 17500
Column name: Agilent RRHD Eclipse 50 x 2 mm, 1.8 uM
Retention time: 3.95
Base peak: 346.0837
Precursor m/z: 564.188
Precursor type: [M-H]-
m/z	relative intensity	assigned
68.9965	87	
95.0123	42	
99.0069	47	
111.0071	155	
123.0069	204	
135.0088	39	
139.0018	164	
141.0175	158	
149.9942	85	
150.017	92	
166.9986	227	
237.0557	35	
239.035	43	
239.0714	31	
249.0557	111	
250.0635	86	
263.0714	48	
264.0792	148	
265.0506	139	
265.087	203	
275.0714	41	
277.0506	39	
278.0584	37	
279.0663	114	
280.0741	299	
287.0714	50	
289.0506	38	
289.087	45	
290.0948	35	
291.0663	31	
291.1027	31	
293.0455	304	
293.0819	88	
295.0248	99	
295.0976	104	
299.0714	40	C20H11O3-
300.0792	42	
301.087	101	
302.0948	98	
303.0663	253	
303.1027	77	
304.0741	48	
305.0455	118	
305.0819	84	
305.1183	154	
307.0612	129	
308.069	154	
309.0404	40	
313.087	87	
314.0948	43	
315.0663	109	
315.1027	60	
316.0741	43	
317.0455	273	
317.0819	168	
317.115	32	
318.0534	36	
318.0897	288	
319.0248	108	
319.0612	167	C19H11O5-
319.134	43	
320.069	149	
320.1418	156	
321.0768	332	
322.1574	37	
325.087	35	
326.0948	244	
327.0663	227	
328.0741	47	
329.0455	117	
329.0819	179	
329.1183	39	
331.0612	606	C20H11O5-
331.0976	121	
332.069	45	
333.049	275	
333.0768	259	
333.1132	112	
334.0483	68	
334.0847	236	
335.0197	47	
335.0561	135	
335.0925	52	
335.1653	82	
336.1367	106	
341.0819	147	
342.0897	368	
343.0612	143	
343.0976	103	
344.069	194	
345.0404	64	
345.0768	515	
346.0483	41	
346.0847	999	
347.0561	197	
347.0925	82	
348.0639	446	C20H12O6-
349.0717	130	
351.051	94	
351.1602	54	
353.0819	39	
355.0612	484	
355.0976	47	
357.0404	148	
357.071	171	
357.1132	35	
358.0847	92	
359.0561	81	
359.0925	239	
360.0639	49	
360.1003	96	
361.0353	38	
361.0717	116	
361.1081	508	
362.0796	137	
363.0874	671	
363.1265	39	
364.1343	34	
368.069	83	
369.0768	285	
370.0847	898	
371.0561	492	
371.0925	58	
372.0639	406	
373.0717	694	
374.0796	31	
375.051	105	
377.0667	51	
377.1394	455	
379.1551	82	
383.0925	52	
383.1316	38	C28H17N1O1-
385.0659	63	
385.1108	463	
386.0796	216	
387.0874	319	
387.1238	57	
388.0952	168	
390.0745	237	
401.103	106	
402.1473	48	
404.1265	47	
411.1238	91	
413.0667	107	
414.0745	80	
417.1707	141	
419.15	743	
425.1394	46	
427.1187	85	
429.137	44	
441.1707	108	
443.15	127	
455.1163	38	
461.1606	93	
