Mass spectrum: Sterigmatocystin; LC-ESI-ITFT; MS2; CE: 30; R=17500; [M+H]+
Name: Sterigmatocystin
Name: Sterigmatocystine
Name: (3aR,12cS)-8-Hydroxy-6-methoxy-3a,12c-dihydro-7H-furo[3',2':4,5]furo[2,3-c]xanthen-7-one
Class: Natural Product; Fungal metabolite
Formula: C18H12O6
Exact mass: 324.06337
SMILES: COC1=C2C(=C3[C@@H]4C=CO[C@@H]4OC3=C1)OC5=C(C2=O)C(=CC=C5)O
InChI: InChI=1S/C18H12O6/c1-21-11-7-12-13(8-5-6-22-18(8)24-12)17-15(11)16(20)14-9(19)3-2-4-10(14)23-17/h2-8,18-19H,1H3/t8-,18+/m0/s1
Instrument: Q-Exactive Orbitrap Thermo Scientific
Instrument type: LC-ESI-ITFT
Ms type: MS2
Ion mode: POSITIVE
Ionization: ESI
Fragmentation mode: HCD
Collision energy: 30(NCE)
Resolution: 17500
Column name: Agilent RRHD Eclipse 50 x 2 mm, 1.8 uM
Retention time: 3.74
Base peak: 325.0694
Precursor m/z: 325.0701
Precursor type: [M+H]+
m/z	relative intensity	assigned
281.0444	33	
297.0757	39	
310.0472	328	
325.0707	999	
