Mass spectrum: Roquefortine L; LC-ESI-ITFT; MS2; CE: 40; R=17500; [M+H]+
Name: Roquefortine L
Name: (3E,10bR,11aS)-3-(1H-Imidazol-5-ylmethylene)-10b-(2-methyl-3-buten-2-yl)-11,11a-dihydro-2H-pyrazino[1',2':1,5]pyrrolo[2,3-b]indole-1,4(3H,10bH)-dione 6-oxide
Class: Natural Product; Fungal metabolite
Formula: C22H21N5O3
Exact mass: 403.16443
SMILES: CC(C)(C=C)C12CC3C(=O)N/C(=C/C4=CN=CN4)/C(=O)N3C1=[N+](C5=CC=CC=C25)[O-]
InChI: InChI=1S/C22H21N5O3/c1-4-21(2,3)22-10-17-18(28)25-15(9-13-11-23-12-24-13)19(29)26(17)20(22)27(30)16-8-6-5-7-14(16)22/h4-9,11-12,17H,1,10H2,2-3H3,(H,23,24)(H,25,28)/b15-9+
Instrument: Q-Exactive Orbitrap Thermo Scientific
Instrument type: LC-ESI-ITFT
Ms type: MS2
Ion mode: POSITIVE
Ionization: ESI
Fragmentation mode: HCD
Collision energy: 40(NCE)
Resolution: 17500
Column name: Agilent RRHD Eclipse 50 x 2 mm, 1.8 uM
Retention time: 2.5
Base peak: 162.03
Precursor m/z: 404.1712
Precursor type: [M+H]+
m/z	relative intensity	assigned
69.0708	477	
81.0447	118	
82.0525	90	
106.04	292	
107.0478	344	
108.0556	441	
108.0634	31	
109.0634	151	
130.0651	48	
136.0505	128	
146.06	93	C9H8N1O1+
147.0553	42	
155.0604	96	
156.0682	299	
157.076	303	
158.0839	125	
162.0298	999	
163.0614	664	
163.0754	41	
173.0709	282	
177.0771	82	
183.0553	89	
184.0631	122	
185.0709	132	
191.0563	158	
192.0642	107	
198.0913	83	C13H12N1O1+
201.0658	34	
205.072	161	
214.1226	142	
252.1019	45	
274.1087	111	
290.1036	117	
291.1115	76	
302.105	210	
318.0985	349	
319.1064	402	
335.1013	265	
336.1091	85	
