Mass spectrum: Ergocristam; LC-ESI-ITFT; MS2; CE: 55; R=17500; [M+H]+
Name: Ergocristam
Name: (6aR,9R)-N-[(2S)-1-[(3S,8aR)-3-benzyl-1,4-dioxo-6,7,8,8a-tetrahydro-3H-pyrrolo[1,2-a]pyrazin-2-yl]-3-methyl-1-oxobutan-2-yl]-7-methyl-6,6a,8,9-tetrahydro-4H-indolo[4,3-fg]quinoline-9-carboxamide
Class: Natural Product; Fungal metabolite
Formula: C35H39N5O4
Exact mass: 593.3002
SMILES: CC(C)[C@@H](C(=O)N1[C@H](C(=O)N2CCC[C@@H]2C1=O)CC3=CC=CC=C3)NC(=O)[C@H]4CN([C@@H]5CC6=CNC7=CC=CC(=C67)C5=C4)C
InChI: InChI=1S/C35H39N5O4/c1-20(2)31(35(44)40-29(15-21-9-5-4-6-10-21)33(42)39-14-8-13-27(39)34(40)43)37-32(41)23-16-25-24-11-7-12-26-30(24)22(18-36-26)17-28(25)38(3)19-23/h4-7,9-12,16,18,20,23,27-29,31,36H,8,13-15,17,19H2,1-3H3,(H,37,41)/t23-,27-,28-,29+,31+/m1/s1
Instrument: Q-Exactive Orbitrap Thermo Scientific
Instrument type: LC-ESI-ITFT
Ms type: MS2
Ion mode: POSITIVE
Ionization: ESI
Fragmentation mode: HCD
Collision energy: 55(NCE)
Resolution: 17500
Column name: Agilent RRHD Eclipse 50 x 2 mm, 1.8 uM
Retention time: 2.79
Base peak: 223.1227
Precursor m/z: 594.3069
Precursor type: [M+H]+
m/z	relative intensity	assigned
72.0808	56	
91.0542	43	
120.0808	31	C8H10N1+
167.073	32	
180.0808	239	
182.0964	78	
191.073	116	
192.0808	143	
194.0964	49	
197.1073	79	
207.0679	165	
207.0917	148	
208.0757	992	
208.0995	339	
209.1073	46	
221.1073	223	
222.1152	43	
223.123	999	
251.1543	38	
279.1492	59	
