Mass spectrum: Zeranol; LC-ESI-ITFT; MS2; CE: 55; R=17500; [M-H2O+H]+
Name: Zeranol
Name: zearanol
Name: (7R,11S)-7,15,17-trihydroxy-11-methyl-12-oxabicyclo[12.4.0]octadeca-1(14),15,17-trien-13-one
Class: Synthetic nonsteroidal estrogen; Fungal metabolite related
Formula: C18H26O5
Exact mass: 322.17803
SMILES: C[C@H]1CCC[C@@H](CCCCCC2=CC(=CC(=C2C(=O)O1)O)O)O
InChI: InChI=1S/C18H26O5/c1-12-6-5-9-14(19)8-4-2-3-7-13-10-15(20)11-16(21)17(13)18(22)23-12/h10-12,14,19-21H,2-9H2,1H3/t12-,14+/m0/s1
Instrument: Q-Exactive Orbitrap Thermo Scientific
Instrument type: LC-ESI-ITFT
Ms type: MS2
Ion mode: POSITIVE
Ionization: ESI
Fragmentation mode: HCD
Collision energy: 55(NCE)
Resolution: 17500
Column name: Agilent RRHD Eclipse 50 x 2 mm, 1.8 uM
Retention time: 3.25
Base peak: 123.0448
Precursor m/z: 305.1742
Precursor type: [M-H2O+H]+
m/z	relative intensity	assigned
50.0538	55	
55.0553	97	
56.5098	59	
67.0553	276	
69.0275	74	
69.071	78	
79.0553	60	
81.0707	310	
88.2654	68	
109.1012	76	
121.0661	77	
123.0441	999	
137.0597	71	
149.0597	448	
161.0597	575	
163.0754	134	
175.0754	151	
177.0546	170	
193.0495	106	
243.4695	74	
263.7126	73	
