Mass spectrum: Deoxynivalenol 3-glucuronide; LC-ESI-ITFT; MS2; CE: 40; R=17500; [M-H]-
Name: Deoxynivalenol 3-glucuronide
Class: Fungal metabolite; urinary conjugate
Formula: C21H28O12
Exact mass: 472.15805
SMILES: CC1=C[C@@H]2[C@]([C@@H](C1=O)O)([C@]3(C[C@H]([C@H]([C@@]34CO4)O2)O[C@H]5[C@@H]([C@H]([C@@H]([C@H](O5)C(=O)O)O)O)O)C)CO
InChI: InChI=1S/C21H28O12/c1-7-3-9-20(5-22,15(27)10(7)23)19(2)4-8(16(32-9)21(19)6-30-21)31-18-13(26)11(24)12(25)14(33-18)17(28)29/h3,8-9,11-16,18,22,24-27H,4-6H2,1-2H3,(H,28,29)/t8-,9-,11+,12+,13-,14+,15-,16-,18-,19-,20-,21+/m1/s1
Instrument: Q-Exactive Orbitrap Thermo Scientific
Instrument type: LC-ESI-ITFT
Ms type: MS2
Ion mode: NEGATIVE
Ionization: ESI
Fragmentation mode: HCD
Collision energy: 40(NCE)
Resolution: 17500
Column name: Agilent RRHD Eclipse 50 x 2 mm, 1.8 uM
Retention time: 2.22
Base peak: 113.023
Precursor m/z: 471.1513
Precursor type: [M-H]-
m/z	relative intensity	assigned
57.0331	57	
59.0124	437	
71.0123	719	
72.9916	518	
73.028	125	
75.0072	986	
85.028	906	
87.0072	336	
89.0229	257	
95.0124	120	
99.0073	204	
101.0229	181	
103.0022	224	
107.0488	34	
113.023	999	
115.0023	81	
117.0179	113	
122.036	38	
123.0437	126	
129.0179	54	
131.0336	92	
133.0128	65	
135.0451	31	
138.0308	38	
150.0322	278	
151.0401	45	
157.0142	59	
163.0765	50	
168.0428	132	
173.0608	40	
175.0248	49	
175.0765	261	
187.0765	50	
189.0921	46	
193.0354	148	
199.0765	43	
201.0921	57	
203.0714	49	
205.087	53	
217.087	206	
219.1027	49	
229.087	174	
247.0976	131	
265.1081	209	
471.1503	87	
