Mass spectrum: Patulin; LC-ESI-ITFT; MS2; CE: 10; R=17500; [M-H]-
Name: Patulin
Name: Clavacin
Name: Expansin
Class: Natural Product; Fungal metabolite
Formula: C7H6O4
Exact mass: 154.0266
SMILES: C1C=C2C(=CC(=O)O2)C(O1)O
InChI: InChI=1S/C7H6O4/c8-6-3-4-5(11-6)1-2-10-7(4)9/h1,3,7,9H,2H2
Instrument: Q-Exactive Orbitrap Thermo Scientific
Instrument type: LC-ESI-ITFT
Ms type: MS2
Ion mode: NEGATIVE
Ionization: ESI
Fragmentation mode: HCD
Collision energy: 10(NCE)
Resolution: 17500
Column name: Agilent RRHD Eclipse 50 x 2 mm, 1.8 uM
Retention time: 2.24
Base peak: 109.0277
Precursor m/z: 153.0199
Precursor type: [M-H]-
m/z	relative intensity
81.0326	200
83.0483	64
97.0271	105
109.0277	283
125.0219	174
125.0594	59
