Mass spectrum: Patulin; LC-ESI-ITFT; MS2; CE: 55; R=17500; [M-H]-
Name: Patulin
Name: Clavacin
Name: Expansin
Class: Natural Product; Fungal metabolite
Formula: C7H6O4
Exact mass: 154.0266
SMILES: C1C=C2C(=CC(=O)O2)C(O1)O
InChI: InChI=1S/C7H6O4/c8-6-3-4-5(11-6)1-2-10-7(4)9/h1,3,7,9H,2H2
Instrument: Q-Exactive Orbitrap Thermo Scientific
Instrument type: LC-ESI-ITFT
Ms type: MS2
Ion mode: NEGATIVE
Ionization: ESI
Fragmentation mode: HCD
Collision energy: 55(NCE)
Resolution: 17500
Column name: Agilent RRHD Eclipse 50 x 2 mm, 1.8 uM
Retention time: 2.24
Base peak: 81.0326
Precursor m/z: 153.0199
Precursor type: [M-H]-
m/z	relative intensity
52.5019	51
59.4349	49
65.0376	99
67.0171	69
68.9963	90
69.0326	332
79.0172	66
81.0326	999
83.0118	270
83.0482	229
83.2088	65
95.0484	57
97.0275	310
107.0484	69
109.0273	395
111.0066	59
125.0225	345
125.0589	82
131.833	54
141.0171	81
151.0015	95
