Mass spectrum: Austin; LC-ESI-ITFT; MS2; CE: 30; R=17500; [M+H]+
Name: Austin
Class: Natural Product; Fungal metabolite
Formula: C27H32O9
Exact mass: 500.20462
SMILES: C[C@H]1[C@@]2(C(=O)O[C@]3([C@@H](C4=C([C@]5(CC[C@]4([C@@]2(C3=C)C(=O)O1)C)C=CC(=O)OC5(C)C)C)OC(=O)C)C)O
InChI: InChI=1S/C27H32O9/c1-13-18-19(34-16(4)28)24(8)14(2)26(20(30)33-15(3)27(26,32)21(31)36-24)23(18,7)11-12-25(13)10-9-17(29)35-22(25,5)6/h9-10,15,19,32H,2,11-12H2,1,3-8H3/t15-,19+,23+,24+,25+,26+,27-/m0/s1
Instrument: Q-Exactive Orbitrap Thermo Scientific
Instrument type: LC-ESI-ITFT
Ms type: MS2
Ion mode: POSITIVE
Ionization: ESI
Fragmentation mode: HCD
Collision energy: 30(NCE)
Resolution: 17500
Column name: Agilent RRHD Eclipse 50 x 2 mm, 1.8 uM
Retention time: 3.5
Base peak: 363.1953
Precursor m/z: 501.2114
Precursor type: [M+H]+
m/z	relative intensity	assigned
83.0128	87	
107.0855	49	
119.0855	162	
121.1012	69	
131.0855	36	C10H11+
133.1012	58	
135.0804	31	
143.0855	37	
145.1012	93	
151.039	196	C8H7O3+
153.0546	105	C8H9O3+
157.1012	83	C12H13+
159.1168	139	
161.0961	34	
161.1325	48	C12H17+
163.0754	129	
165.091	80	
169.0495	53	
171.1168	137	
173.1325	254	C13H17+
175.0754	44	
177.091	198	C11H13O2+
179.0703	340	
183.0652	64	
183.1168	119	
185.1325	146	
187.1118	75	
187.1481	166	C14H19+
189.091	35	C12H13O2+
189.1274	35	C13H17O1+
191.0703	39	
191.1067	33	
193.0859	84	
195.1016	85	
197.1325	55	
199.1118	46	
199.1481	52	
201.1274	43	
203.1067	249	
205.0859	41	
205.1223	230	
209.1325	64	
211.0965	143	
211.1481	466	C16H19+
213.1274	39	
213.1638	357	
215.1067	37	C14H15O2+
217.1223	599	C14H17O2+
221.0808	55	
221.1325	144	C17H17+
223.1481	77	
229.1223	45	
231.1016	45	
231.138	62	
239.1431	107	
241.1587	33	
245.1172	50	
253.1951	37	
257.1172	34	
257.1536	39	
263.1795	39	
267.138	40	
279.1744	105	
281.1536	31	
289.1587	40	C21H21O1+
291.1744	73	
291.2108	35	
307.1693	100	
307.2057	61	
309.1849	52	
309.2213	35	
317.19	78	
319.2057	85	
321.1849	50	
325.1798	241	
325.2162	39	
335.1642	41	
335.2006	442	
337.2162	304	
345.1849	170	
347.2006	114	
353.2111	318	C23H29O3+
363.1955	999	
365.2111	257	
373.1798	99	C25H25O3+
381.206	836	C24H29O4+
391.1904	360	
395.2217	43	
409.201	395	
441.2272	48	
