Mass spectrum: Zeranol; LC-ESI-ITFT; MS2; CE: 30; R=17500; [M-H2O+H]+
Name: Zeranol
Name: zearanol
Name: (7R,11S)-7,15,17-trihydroxy-11-methyl-12-oxabicyclo[12.4.0]octadeca-1(14),15,17-trien-13-one
Class: Synthetic nonsteroidal estrogen; Fungal metabolite related
Formula: C18H26O5
Exact mass: 322.17803
SMILES: C[C@H]1CCC[C@@H](CCCCCC2=CC(=CC(=C2C(=O)O1)O)O)O
InChI: InChI=1S/C18H26O5/c1-12-6-5-9-14(19)8-4-2-3-7-13-10-15(20)11-16(21)17(13)18(22)23-12/h10-12,14,19-21H,2-9H2,1H3/t12-,14+/m0/s1
Instrument: Q-Exactive Orbitrap Thermo Scientific
Instrument type: LC-ESI-ITFT
Ms type: MS2
Ion mode: POSITIVE
Ionization: ESI
Fragmentation mode: HCD
Collision energy: 30(NCE)
Resolution: 17500
Column name: Agilent RRHD Eclipse 50 x 2 mm, 1.8 uM
Retention time: 3.25
Base peak: 305.1761
Precursor m/z: 305.1742
Precursor type: [M-H2O+H]+
m/z	relative intensity	assigned
81.0708	58	
87.0441	31	
95.0855	44	
109.1012	66	
123.0441	371	
123.1168	62	
149.0597	192	
161.0597	37	C10H9O2+
163.0754	193	
167.0339	63	
175.0754	60	
177.0546	53	
177.091	37	
189.091	62	
203.1067	31	
207.0652	39	
269.1536	68	
278.1742	33	
287.1642	223	
305.1747	999	
