Mass spectrum: Satratoxin F; LC-ESI-ITFT; MS2; CE: 40; R=17500; [M+Na]+
Name: Satratoxin F
Class: Natural Product; Fungal metabolite
Formula: C29H34O10
Exact mass: 542.21518
SMILES: CC1=CC2C3(CC1)COC(=O)C4C5(O4)CCOC(C5O)(/C=C\C=C/C(=O)OC6C3(C7(CO7)C(C6)O2)C)C(=O)C
InChI: InChI=1S/C29H34O10/c1-16-7-9-26-14-34-23(32)22-28(39-22)10-11-35-27(17(2)30,24(28)33)8-5-4-6-21(31)38-18-13-20(37-19(26)12-16)29(15-36-29)25(18,26)3/h4-6,8,12,18-20,22,24,33H,7,9-11,13-15H2,1-3H3/b6-4-,8-5-
Instrument: Q-Exactive Orbitrap Thermo Scientific
Instrument type: LC-ESI-ITFT
Ms type: MS2
Ion mode: POSITIVE
Ionization: ESI
Fragmentation mode: HCD
Collision energy: 40(NCE)
Resolution: 17500
Column name: Agilent RRHD Eclipse 50 x 2 mm, 1.8 uM
Retention time: 3.45
Base peak: 231.1388
Precursor m/z: 565.2039
Precursor type: [M+Na]+
m/z	relative intensity	assigned
67.0552	65	
79.0553	52	
81.0709	219	
85.5279	32	
93.0699	158	
95.0502	314	
95.0865	148	
105.0699	335	
107.0855	57	
109.0648	115	
119.0855	246	
120.3384	36	
121.0648	62	
121.1012	65	
123.0804	53	
131.0855	144	
133.1012	172	
135.0417	31	
143.0855	118	
145.1012	139	
147.0804	133	
147.1168	113	
149.0961	124	C10H13O1+
157.1012	139	
159.1168	144	
161.0961	135	
161.1325	34	
170.109	33	
171.1168	41	
173.1325	42	
175.1481	132	
177.0158	38	
185.1325	123	
189.1274	37	
191.0315	48	
193.0471	37	
203.1431	108	
217.0495	66	
218.0549	54	
219.0628	42	
231.138	999	
249.0757	37	
261.0733	286	
271.1305	35	
289.0682	65	
291.0839	42	
307.0812	209	
332.0866	32	
335.0737	368	
383.1431	33	
511.7757	33	
565.2044	208	
