Mass spectrum: Marticin; LC-ESI-ITFT; MS2; CE: 40; R=17500; [M-H]-
Name: Marticin
Name: 2,6-Epoxy-2H-naphth(2,3-d)oxocin-4-carboxylic acid, 1,4,5,6,7,12-hexahydro-8,11-dihydroxy-10-methoxy-2-methyl-7,12-dioxo-, (2alpha,4alpha,6alpha)-(+)-
Class: Natural Product; Fungal metabolite
Formula: C18H16O9
Exact mass: 376.07941
SMILES: CC12CC3=C(C4=C(C(=O)C=C(C4=O)OC)C(=C3C(O1)CC(O2)C(=O)O)O)O
InChI: InChI=1S/C18H16O9/c1-18-5-6-11(8(26-18)4-10(27-18)17(23)24)16(22)12-7(19)3-9(25-2)15(21)13(12)14(6)20/h3,8,10,20,22H,4-5H2,1-2H3,(H,23,24)
Instrument: Q-Exactive Orbitrap Thermo Scientific
Instrument type: LC-ESI-ITFT
Ms type: MS2
Ion mode: NEGATIVE
Ionization: ESI
Fragmentation mode: HCD
Collision energy: 40(NCE)
Resolution: 17500
Column name: Agilent RRHD Eclipse 50 x 2 mm, 1.8 uM
Retention time: 3.28
Base peak: 285.0388
Precursor m/z: 375.0727
Precursor type: [M-H]-
m/z	relative intensity	assigned
243.0299	106	
255.0299	44	
259.0248	318	
268.0377	127	
269.0455	166	
270.0534	113	
271.0248	184	
272.0326	995	
273.0404	112	
274.0483	65	
283.0612	187	
285.0404	999	
286.0483	376	
287.0561	606	
298.0483	503	
300.0639	156	
301.0717	146	
313.0717	90	
