Mass spectrum: Chanoclavine-I; LC-ESI-ITFT; MS2; CE: 40; R=17500; [M+H]+
Name: Chanoclavine-I
Name: Isochanoclavin
Name: (E)-2-methyl-3-[(4R,5R)-4-(methylamino)-1,3,4,5-tetrahydrobenzo[cd]indol-5-yl]prop-2-en-1-ol
Class: Natural Product; Fungal metabolite
Formula: C16H20N2O
Exact mass: 256.15757
SMILES: C/C(=C\[C@H]1[C@@H](CC2=CNC3=CC=CC1=C23)NC)/CO
InChI: InChI=1S/C16H20N2O/c1-10(9-19)6-13-12-4-3-5-14-16(12)11(8-18-14)7-15(13)17-2/h3-6,8,13,15,17-19H,7,9H2,1-2H3/b10-6+/t13-,15-/m1/s1
Instrument: Q-Exactive Orbitrap Thermo Scientific
Instrument type: LC-ESI-ITFT
Ms type: MS2
Ion mode: POSITIVE
Ionization: ESI
Fragmentation mode: HCD
Collision energy: 40(NCE)
Resolution: 17500
Column name: Agilent RRHD Eclipse 50 x 2 mm, 1.8 uM
Retention time: 2.37
Base peak: 257.1648
Precursor m/z: 257.1643
Precursor type: [M+H]+
m/z	relative intensity	assigned
54.8087	50	
57.0278	48	
58.5704	51	
61.7082	60	
67.9008	55	
70.341	58	
72.9736	55	
144.0808	79	
156.0808	375	C11H10N1+
168.0808	527	
184.0995	84	
185.1073	412	
193.0886	81	
198.1277	316	C14H16N1+
201.981	57	
206.6315	65	
208.1121	697	
210.1277	113	
226.1226	128	
239.1543	369	
249.3471	64	
257.1649	999	
