Mass spectrum: Roquefortine A; LC-ESI-ITFT; MS2; CE: 40; R=17500; [M+H]+
Name: Roquefortine A
Name: Isofumigaclavine A
Name: [(6aR,9S,10R,10aR)-7,9-dimethyl-6,6a,8,9,10,10a-hexahydro-4H-indolo[4,3-fg]quinoline-10-yl] acetate
Class: Natural Product; Fungal metabolite
Formula: C18H22N2O2
Exact mass: 298.16813
SMILES: C[C@H]1CN([C@@H]2CC3=CNC4=CC=CC(=C34)[C@H]2[C@@H]1OC(=O)C)C
InChI: InChI=1S/C18H22N2O2/c1-10-9-20(3)15-7-12-8-19-14-6-4-5-13(16(12)14)17(15)18(10)22-11(2)21/h4-6,8,10,15,17-19H,7,9H2,1-3H3/t10-,15+,17+,18+/m0/s1
Instrument: Q-Exactive Orbitrap Thermo Scientific
Instrument type: LC-ESI-ITFT
Ms type: MS2
Ion mode: POSITIVE
Ionization: ESI
Fragmentation mode: HCD
Collision energy: 40(NCE)
Resolution: 17500
Column name: Agilent RRHD Eclipse 50 x 2 mm, 1.8 uM
Retention time: 2.46
Base peak: 239.1551
Precursor m/z: 299.1749
Precursor type: [M+H]+
m/z	relative intensity	assigned
144.0808	114	
156.1019	33	
168.0808	138	
182.0964	45	
183.0917	75	
196.1121	198	
197.1073	158	
198.1277	53	
208.1121	234	
210.1277	32	
239.1543	999	
299.1754	511	
