Mass spectrum: Atranone B; LC-ESI-ITFT; MS2; CE: 35; R=17500; [M+H]+
Name: Atranone B
Class: Natural Product; Fungal metabolite
Formula: C25H34O7
Exact mass: 446.23045
SMILES: C/C1=C2[C@H]3[C@H]([C@@](C)(O)O[C@H]3/C(C)=C\C[C@H]4C(C(C)C)=C(OC)C(O[C@]4(C)CC1)=O)C(O/2)=O
InChI: InChI=1S/C25H34O7/c1-12(2)16-15-9-8-13(3)20-17-18(25(6,28)31-20)22(26)30-19(17)14(4)10-11-24(15,5)32-23(27)21(16)29-7/h8,12,15,17-18,20,28H,9-11H2,1-7H3/b13-8-,19-14+/t15-,17+,18-,20-,24+,25-/m0/s1
Instrument: Q-Exactive Orbitrap Thermo Scientific
Instrument type: LC-ESI-ITFT
Ms type: MS2
Ion mode: POSITIVE
Ionization: ESI
Fragmentation mode: HCD
Collision energy: 35(NCE)
Resolution: 17500
Column name: Agilent RRHD Eclipse 50 x 2 mm, 1.8 uM
Retention time: 4.05
Base peak: 195.1006
Precursor m/z: 447.2372
Precursor type: [M+H]+
m/z	relative intensity	assigned
59.0498	80	
67.0542	118	
69.0335	112	
69.0699	133	
71.0491	73	
73.0648	206	
79.0542	151	
81.0699	257	
83.0491	154	
83.0855	69	
85.0648	76	
91.0542	129	C7H7+
93.0699	347	C7H9+
95.0491	206	
95.0855	323	
97.0284	91	C5H5O2+
97.0648	143	C6H9O1+
99.0441	68	
99.0804	88	C6H11O1+
105.0699	306	C8H9+
107.0491	87	
107.0855	484	
109.0648	282	
109.1012	236	
111.0441	44	
111.0804	183	
113.0597	65	
113.0961	62	
115.039	70	
117.0699	83	
119.0491	53	
119.0855	553	
121.0648	373	
121.1012	283	
123.0441	79	
123.0804	209	
123.1168	48	
125.0597	232	
125.0961	175	
127.0754	142	
129.0699	35	
131.0855	185	
133.0648	119	
133.1012	352	
135.0441	71	
135.0804	377	
135.1168	128	
137.0597	286	
137.0961	171	
139.039	35	
139.0754	178	
139.1118	159	
143.0855	206	
144.0934	36	
145.0648	65	
145.1012	711	
147.0804	264	
147.1168	271	
149.0597	376	
149.0961	250	
149.1325	48	
151.0754	176	
151.1118	106	
153.0546	282	
153.091	215	
155.0703	354	
155.0855	47	
155.1051	48	
156.0934	34	
157.0859	270	
157.1012	276	
159.0804	198	
159.1168	432	
161.0597	98	
161.0961	358	
161.1325	156	
162.1039	52	
163.0754	289	
163.1118	161	
164.1196	56	
165.091	189	
165.1274	75	
167.0703	197	
167.1067	974	
169.0859	349	
169.1012	107	
169.1223	95	
170.109	76	
171.0804	122	
171.1016	61	
171.1168	238	
172.1247	53	
173.0597	46	
173.0961	343	
173.1325	160	
174.1039	43	
175.0754	204	
175.1118	279	
175.1481	136	
177.091	135	
177.1274	198	
178.1352	39	
179.0703	312	
179.1067	130	
179.1431	36	
181.0859	538	
181.1012	53	
181.1204	83	
183.1016	186	
183.1168	154	
185.0961	206	
185.1325	239	
186.1039	39	
187.0754	62	
187.1118	314	
187.1481	105	
189.091	292	
189.1274	171	
190.1352	55	
191.0703	194	
191.1067	241	
191.1431	82	
193.0859	61	
193.1012	51	
193.1223	109	
193.1587	40	
195.1016	999	
195.1168	79	
197.0961	80	
197.1172	298	
197.1325	114	
199.1118	154	
199.1455	47	
201.091	131	
201.1274	137	
203.0703	34	
203.1067	143	
203.1431	173	
205.0859	41	
205.1223	505	
207.0992	72	
207.1168	62	
207.138	39	
207.1744	37	
209.0961	67	
209.1172	87	
209.1325	77	
211.1118	128	
211.1481	75	
213.091	123	
213.1274	200	
215.1067	139	
215.1431	94	
216.1145	108	
217.0859	53	
217.1223	119	
217.1562	57	
219.1016	35	
219.138	157	
219.1744	32	
221.1125	49	
221.1325	38	
221.1493	75	
223.1118	75	
223.1329	52	
223.1508	52	
225.091	61	
225.1274	143	
225.1638	35	
227.1067	156	
227.1431	87	
229.1223	125	
229.1587	33	
231.1016	52	
231.138	132	
233.1536	58	
235.1118	34	
235.1329	35	
235.1693	47	
237.1274	43	
237.1485	50	
238.1352	35	
239.1067	52	
239.1431	99	
241.1223	87	
241.1587	51	
243.138	78	
245.1172	31	
245.1536	158	
247.1693	61	
249.1274	97	
249.1638	32	
251.1431	54	
253.1223	84	
253.1587	48	
255.138	86	
257.1536	52	
259.1329	32	
265.1587	32	
267.138	102	
267.1715	69	
269.1536	56	
271.1693	35	
275.1431	32	
277.1223	57	
277.1516	46	
281.1566	42	
281.1861	47	
285.1485	32	
285.1849	40	
291.138	36	
291.1744	92	
295.1371	47	
295.1657	51	
309.1485	36	
309.1849	98	
319.1693	52	
323.1971	53	
327.1955	70	
333.1849	55	
337.1798	53	
341.2111	55	
345.206	42	
351.1955	50	
359.2217	68	
369.206	83	
387.2166	56	
