Mass spectrum: Atranone B; LC-ESI-ITFT; MS2; CE: 30; R=17500; [M+H]+
Name: Atranone B
Class: Natural Product; Fungal metabolite
Formula: C25H34O7
Exact mass: 446.23045
SMILES: C/C1=C2[C@H]3[C@H]([C@@](C)(O)O[C@H]3/C(C)=C\C[C@H]4C(C(C)C)=C(OC)C(O[C@]4(C)CC1)=O)C(O/2)=O
InChI: InChI=1S/C25H34O7/c1-12(2)16-15-9-8-13(3)20-17-18(25(6,28)31-20)22(26)30-19(17)14(4)10-11-24(15,5)32-23(27)21(16)29-7/h8,12,15,17-18,20,28H,9-11H2,1-7H3/b13-8-,19-14+/t15-,17+,18-,20-,24+,25-/m0/s1
Instrument: Q-Exactive Orbitrap Thermo Scientific
Instrument type: LC-ESI-ITFT
Ms type: MS2
Ion mode: POSITIVE
Ionization: ESI
Fragmentation mode: HCD
Collision energy: 30(NCE)
Resolution: 17500
Column name: Agilent RRHD Eclipse 50 x 2 mm, 1.8 uM
Retention time: 4.05
Base peak: 195.1007
Precursor m/z: 447.2372
Precursor type: [M+H]+
m/z	relative intensity	assigned
59.0491	49	
67.0542	60	
69.0335	55	
69.0699	76	
73.0648	120	
79.0542	50	
81.0699	108	
83.0491	100	
83.0855	47	
85.0648	46	
91.0542	40	
93.0699	178	
95.0491	88	
95.0855	196	
97.0284	39	
97.0648	68	
99.0441	48	
99.0804	68	
105.0699	124	
107.0491	43	
107.0855	244	
109.0648	135	
109.1012	83	
111.0804	93	
113.0597	44	
113.0961	32	
115.039	54	
117.0699	31	
119.0855	246	
121.0648	225	
121.1012	177	
123.0441	39	
123.0804	137	
125.0597	136	
125.0961	100	
127.0754	90	
131.0855	82	
133.0648	44	
133.1012	190	
135.0441	34	C8H7O2+
135.0804	244	
135.1168	80	
137.0597	139	
137.0961	111	
139.0754	127	
139.1118	81	
143.0855	101	
145.1012	342	
147.0804	191	
147.1168	140	
149.0597	254	
149.0961	150	
149.1325	44	
151.0754	110	
151.1118	70	
153.0546	187	
153.091	110	
155.0703	262	
155.1067	47	
157.0859	220	C8H13O3+
157.1012	163	
159.0804	94	
159.1168	243	
161.0597	48	
161.0961	203	
161.1325	108	
163.0754	205	
163.1118	131	
165.091	130	
165.1274	50	
167.0703	206	
167.1067	598	
169.0859	267	
169.1012	56	
169.1223	41	
170.109	35	
171.0804	81	
171.1016	43	
171.1168	120	
173.0597	40	
173.0961	232	
173.1325	97	
175.0754	141	
175.1118	153	
175.1481	79	
177.091	99	
177.1274	132	
179.0703	319	
179.1067	94	
181.0859	460	
181.1223	60	
183.1016	116	
183.1168	72	
185.0961	126	
185.1325	197	
187.0754	31	
187.1118	218	
187.1481	87	
189.091	197	
189.1274	127	
190.1352	44	
191.0703	174	
191.1067	215	
191.1431	43	
193.0859	49	
193.1223	111	
195.1016	999	
197.0961	44	
197.1172	266	
197.1325	81	
199.1118	128	
199.1481	33	
201.091	116	
201.1274	106	
203.1067	132	
203.1431	142	
205.0859	54	
205.1223	472	
207.1016	71	
207.1168	37	
207.138	31	
207.1744	31	
209.0961	39	
209.1172	89	
209.1325	57	
211.1118	81	C15H15O1+
213.091	67	
213.1274	147	
215.1067	115	
215.1431	103	
216.1145	77	
217.0859	49	
217.1223	103	
217.1587	56	
219.0989	42	
219.138	141	
221.1137	54	
221.1499	63	
223.1118	42	
223.1329	109	
223.1481	33	
225.1274	100	
227.1067	134	
227.1431	46	
229.1223	115	
231.1016	44	
231.138	119	
233.1536	50	
235.1329	44	
235.1693	53	
237.1457	95	
239.1431	54	
239.1795	31	
241.1223	54	
243.1016	31	
243.138	71	
245.1536	179	
247.1693	73	
249.1274	51	
251.1431	54	
253.1223	68	
253.1587	35	
255.138	83	
257.1536	44	
259.1329	37	
267.138	88	C18H19O2+
267.1744	64	
269.1536	35	
271.1329	48	
271.1658	38	
277.1223	49	
281.19	49	
283.1693	32	
285.1485	48	
291.1744	69	
295.1329	49	
295.1693	53	
299.1642	32	
299.2006	45	
309.1485	34	
309.1849	126	
313.1798	31	
319.1693	48	
323.2006	48	
327.1955	84	
333.1849	61	
335.2006	32	C23H27O2+
337.1798	81	
341.2111	76	
345.206	63	
351.1955	76	
355.1904	45	
359.2217	93	
365.2111	32	
369.206	155	
383.2217	32	C24H31O4+
385.2374	38	
387.2166	150	
393.206	40	
401.2323	31	
411.2166	60	
429.2272	100	
