Mass spectrum: Traversianal; LC-ESI-ITFT; MS2; CE: 50; R=17500; [M+H]+
Name: Traversianal
Name: (1R,3aR,4E,6aS,7S,9aR,10aR)-3a-Hydroxy-7-isopropenyl-1,9a-dimethyl-3-oxo-1,2,3,3a,6,6a,7,8,9,9a,10,10a-dodecahydrodicyclopenta[a,d][8]annulene-4-carbaldehyde
Class: Natural Product; Fungal metabolite
Formula: C20H28O3
Exact mass: 316.20386
SMILES: C[C@@H]1CC(=O)[C@]/2([C@@H]1C[C@]3(CC[C@@H]([C@@H]3C/C=C2/C=O)C(=C)C)C)O
InChI: InChI=1S/C20H28O3/c1-12(2)15-7-8-19(4)10-17-13(3)9-18(22)20(17,23)14(11-21)5-6-16(15)19/h5,11,13,15-17,23H,1,6-10H2,2-4H3/b14-5-/t13-,15-,16+,17-,19-,20+/m1/s1
Instrument: Q-Exactive Orbitrap Thermo Scientific
Instrument type: LC-ESI-ITFT
Ms type: MS2
Ion mode: POSITIVE
Ionization: ESI
Fragmentation mode: HCD
Collision energy: 50(NCE)
Resolution: 17500
Column name: Agilent RRHD Eclipse 50 x 2 mm, 1.8 uM
Retention time: 4.55
Base peak: 119.0854
Precursor m/z: 317.2106
Precursor type: [M+H]+
m/z	relative intensity	assigned
55.0549	96	
57.0705	47	
67.0542	215	
69.0335	925	
69.0699	318	
71.0491	58	
79.0542	231	
81.0699	642	
83.0491	48	
83.0855	101	
91.0542	259	
93.0699	710	
95.0491	114	
95.0855	519	
97.0648	151	
105.0699	925	C8H9+
107.0855	695	
109.0648	170	
109.1012	220	
111.0804	52	
113.0597	407	
117.0699	149	
119.0855	999	
121.0648	93	
121.1012	441	
123.0804	126	
123.1168	92	
125.0597	97	
127.0754	44	
128.0621	40	C10H8+
129.0699	135	
131.0855	543	
133.0648	78	
133.1012	650	
135.0804	75	
135.1168	264	
137.0597	46	
137.0961	47	
141.0546	153	
141.0699	76	
142.0777	118	
143.0855	508	
144.0934	55	
145.0648	70	
145.1012	638	
147.0804	95	C10H11O1+
147.1168	465	
149.0961	77	
149.1325	80	
155.0855	280	
156.0934	106	
157.1012	677	
158.109	44	
159.0804	92	
159.1168	512	
161.0961	101	
161.1325	167	
163.0754	41	
163.1118	52	
167.0855	51	
168.0934	63	
169.1012	529	
170.109	142	
171.0804	45	
171.1168	397	
173.0961	155	
173.1325	383	
175.1118	248	
175.1481	471	
177.091	43	
181.1012	105	
182.109	86	
183.1168	541	
185.0961	95	
185.1325	531	
187.1118	137	
187.1481	160	
189.1274	171	
193.1012	62	
195.1168	186	
196.1247	84	
197.0961	55	
197.1325	399	
199.1118	147	
199.1481	44	C15H19+
201.1274	121	
201.1638	49	
203.1431	69	
206.109	38	
207.1168	110	
209.1325	88	
210.1403	44	
211.1118	64	
211.1481	289	
213.1274	66	
213.1638	42	
215.1067	69	
215.1431	56	C15H19O1+
217.1223	175	
221.1325	82	
223.1481	48	
224.156	56	
225.1274	55	
225.1638	58	
227.1431	43	
229.1223	69	
229.1587	273	
229.1927	77	
231.138	68	
233.1325	38	
237.1638	210	
239.1431	101	
239.1795	481	
243.138	43	
243.2108	43	
248.156	45	
253.1951	111	
255.1744	155	
257.1536	215	
271.2057	441	
281.19	109	
299.2006	232	
