Mass spectrum: Meleagrin; LC-ESI-ITFT; MS2; CE: 20; R=17500; [M+H]+
Name: Meleagrin
Name: Meleagrine
Class: Natural Product; Fungal metabolite
Formula: C23H23N5O4
Exact mass: 433.17499
SMILES: C=CC(C)(C)[C@]12C=C(C(=O)N3/C(=C/c4cnc[nH]4)/C(=N[C@@]23N(c2ccccc12)OC)O)O
InChI: InChI=1S/C23H23N5O4/c1-5-21(2,3)22-11-18(29)20(31)27-17(10-14-12-24-13-25-14)19(30)26-23(22,27)28(32-4)16-9-7-6-8-15(16)22/h5-13,29H,1H2,2-4H3,(H,24,25)(H,26,30)/b17-10+/t22-,23-/m0/s1
Instrument: Q-Exactive Orbitrap Thermo Scientific
Instrument type: LC-ESI-ITFT
Ms type: MS2
Ion mode: POSITIVE
Ionization: ESI
Fragmentation mode: HCD
Collision energy: 20(NCE)
Resolution: 17500
Column name: Agilent RRHD Eclipse 50 x 2 mm, 1.8 uM
Retention time: 2.68
Base peak: 403.1621
Precursor m/z: 434.1817
Precursor type: [M+H]+
m/z	relative intensity	assigned
214.1213	49	
278.1036	47	
289.072	64	
318.0747	34	
334.0934	324	
335.1013	191	
403.1639	999	
434.1823	86	
