Mass spectrum: Neosolaniol; LC-ESI-ITFT; MS2; CE: 50; R=17500; [M+H]+
Name: Neosolaniol
Class: Natural Product; Fungal metabolite
Formula: C19H26O8
Exact mass: 382.16276
SMILES: CC1=C[C@@H]2[C@](C[C@@H]1O)([C@]3([C@@H]([C@H]([C@H]([C@@]34CO4)O2)O)OC(=O)C)C)COC(=O)C
InChI: InChI=1S/C19H26O8/c1-9-5-13-18(6-12(9)22,7-24-10(2)20)17(4)15(26-11(3)21)14(23)16(27-13)19(17)8-25-19/h5,12-16,22-23H,6-8H2,1-4H3/t12-,13+,14+,15+,16+,17+,18+,19-/m0/s1
Instrument: Q-Exactive Orbitrap Thermo Scientific
Instrument type: LC-ESI-ITFT
Ms type: MS2
Ion mode: POSITIVE
Ionization: ESI
Fragmentation mode: HCD
Collision energy: 50(NCE)
Resolution: 17500
Column name: Agilent RRHD Eclipse 50 x 2 mm, 1.8 uM
Retention time: 2.84
Base peak: 121.0645
Precursor m/z: 383.1695
Precursor type: [M+H]+
m/z	relative intensity	assigned
60.8855	47	
66.3954	50	
67.0542	89	
79.0542	121	
81.0699	75	
91.0542	72	
93.0699	245	C7H9+
95.0491	224	
97.0648	263	C6H9O1+
105.0699	343	
107.0491	97	
109.0648	257	
119.0855	145	
121.0648	999	
123.0441	84	
123.0804	84	C8H11O1+
125.0597	98	
128.0621	140	
131.0855	234	
133.0648	103	
133.1012	70	
135.0804	60	
141.0699	63	
142.0777	108	
143.0855	346	
145.0648	88	
145.1012	338	
147.0804	80	
156.0934	109	
157.1012	279	
158.0726	119	
159.0804	228	
159.1168	137	
169.1012	118	
171.1168	78	
173.0961	276	
175.1118	121	C12H15O1+
184.0883	106	
185.0961	82	
187.1118	125	
197.0961	97	
199.1118	76	
216.4486	65	
240.8241	70	
