Mass spectrum: Chaetoviridin A; LC-ESI-ITFT; MS2; CE: 50; R=17500; [M+H]+
Name: Chaetoviridin A
Name: (6aS)-5-chloro-9-[(2S,3R)-3-hydroxy-2-methylbutanoyl]-6a-methyl-3-[(E,3S)-3-methylpent-1-enyl]furo[2,3-h]isochromene-6,8-dione
Class: Natural Product; Fungal metabolite
Formula: C23H25ClO6
Exact mass: 432.13396
SMILES: CC[C@H](C)/C=C/C1=CC2=C(C(=O)[C@@]3(C(=C(C(=O)O3)C(=O)[C@@H](C)[C@@H](C)O)C2=CO1)C)Cl
InChI: InChI=1S/C23H25ClO6/c1-6-11(2)7-8-14-9-15-16(10-29-14)18-17(20(26)12(3)13(4)25)22(28)30-23(18,5)21(27)19(15)24/h7-13,25H,6H2,1-5H3/b8-7+/t11-,12-,13+,23-/m0/s1
Instrument: Q-Exactive Orbitrap Thermo Scientific
Instrument type: LC-ESI-ITFT
Ms type: MS2
Ion mode: POSITIVE
Ionization: ESI
Fragmentation mode: HCD
Collision energy: 50(NCE)
Resolution: 17500
Column name: Agilent RRHD Eclipse 50 x 2 mm, 1.8 uM
Retention time: 4.21
Base peak: 195.02
Precursor m/z: 433.1407
Precursor type: [M+H]+
m/z	relative intensity	assigned
55.0549	392	
57.0343	39	
69.0699	266	
73.0648	62	
79.0542	62	
81.0699	105	
83.0491	344	
91.0542	60	
135.0804	93	
143.0855	48	
145.0648	42	C10H9O1+
146.0726	32	
155.0258	57	
171.0804	35	
174.0675	37	C11H10O2+
179.0258	63	C10H8O1Cl1+
183.0207	469	
183.0804	41	
193.0415	44	
195.0207	999	
195.0804	38	
207.0207	134	
209.0961	44	
210.1039	38	
211.0156	161	
221.0364	38	
223.0156	36	
223.0754	43	
223.1118	49	
225.0313	91	
229.0262	541	
229.0438	35	
235.0156	111	
237.0313	55	C12H10O3Cl1+
237.091	40	
245.0364	35	
247.0156	83	
249.0313	69	
258.0442	89	
263.0106	39	
263.0469	44	C14H12O3Cl1+
272.0599	45	
275.0106	70	
295.0601	39	
304.0497	32	
333.0888	118	
