Mass spectrum: Culmorin; LC-ESI-ITFT; MS2; CE: 10; R=17500; [M+H]+
Name: Culmorin
Class: Natural Product; Fungal metabolite
Formula: C15H26O2
Exact mass: 238.1933
SMILES: C[C@@]12CCCC([C@H]3[C@@H]1[C@@H](C[C@@]2(C3O)C)O)(C)C
InChI: InChI=1S/C15H26O2/c1-13(2)6-5-7-14(3)10-9(16)8-15(14,4)12(17)11(10)13/h9-12,16-17H,5-8H2,1-4H3/t9-,10+,11+,12?,14-,15-/m1/s1
Instrument: Q-Exactive Orbitrap Thermo Scientific
Instrument type: LC-ESI-ITFT
Ms type: MS2
Ion mode: POSITIVE
Ionization: ESI
Fragmentation mode: HCD
Collision energy: 10(NCE)
Resolution: 17500
Column name: Agilent RRHD Eclipse 50 x 2 mm, 1.8 uM
Retention time: 3.53
Base peak: 221.189
Precursor m/z: 239.2
Precursor type: [M+H]+
m/z	relative intensity	assigned
81.0699	37	
95.0855	103	
107.0855	99	
121.1012	91	
133.1012	42	
137.1325	38	
147.1168	50	
149.1325	137	
161.1325	89	
163.1481	371	
177.1638	366	
198.1839	237	
203.1795	282	
221.19	999	
239.2006	209	
