Mass spectrum: 5-hydroxyculmorin; LC-ESI-ITFT; MS2; CE: 35; R=17500; [M-2H2O+H]+
Name: 5-hydroxyculmorin
Name: (1S,3R,3aS,4R,6R,8aR,9R)-Decahydro-1,5,5,8a-tetramethyl-1,4-methanoazulene-3,6,9-triol
Class: Natural Product; Fungal metabolite
Formula: C15H26O3
Exact mass: 254.18821
SMILES: C[C@@]12CC[C@H](C([C@H]3[C@@H]1[C@@H](C[C@@]2(C3O)C)O)(C)C)O
InChI: InChI=1S/C15H26O3/c1-13(2)9(17)5-6-14(3)10-8(16)7-15(14,4)12(18)11(10)13/h8-12,16-18H,5-7H2,1-4H3/t8-,9-,10+,11+,12?,14-,15-/m1/s1
Instrument: Q-Exactive Orbitrap Thermo Scientific
Instrument type: LC-ESI-ITFT
Ms type: MS2
Ion mode: POSITIVE
Ionization: ESI
Fragmentation mode: HCD
Collision energy: 35(NCE)
Resolution: 17500
Column name: Agilent RRHD Eclipse 50 x 2 mm, 1.8 uM
Retention time: 2.56
Base peak: 219.1734
Precursor m/z: 219.1738
Precursor type: [M-2H2O+H]+
m/z	relative intensity	assigned
69.0699	72	
81.0699	93	
83.0491	33	
83.0855	66	
85.0648	49	
91.0542	32	
93.0699	145	
95.0855	275	
97.0648	47	
105.0699	143	
107.0855	386	C8H11+
109.0648	40	
109.1012	284	
111.0804	78	
119.0855	273	
121.1012	285	
123.0804	42	
123.1168	86	
125.0961	56	
131.0855	59	
133.1012	245	
135.0804	48	
135.1168	184	
137.0961	35	
137.1325	55	
145.1012	275	
147.1168	143	
149.0961	73	
149.1325	37	
159.1168	328	
161.1325	243	
163.1118	71	
173.1325	145	
175.1481	774	
177.1274	33	
177.1638	261	
191.1795	70	
201.1638	498	
219.1744	999	
