Mass spectrum: 15-Acetyldeoxynivalenol; LC-APCI-ITFT; MS2; CE: 10; R=17500; [M+H]+
Name: 15-Acetyldeoxynivalenol
Name: 15-monoacetyldeoxynivalenol
Class: Natural Product; Fungal metabolite
Formula: C17H22O7
Exact mass: 338.13654
SMILES: CC1=C[C@@H]2[C@]([C@@H](C1=O)O)([C@]3(C[C@H]([C@H]([C@@]34CO4)O2)O)C)COC(=O)C
InChI: InChI=1S/C17H22O7/c1-8-4-11-16(6-22-9(2)18,13(21)12(8)20)15(3)5-10(19)14(24-11)17(15)7-23-17/h4,10-11,13-14,19,21H,5-7H2,1-3H3/t10-,11-,13-,14-,15-,16-,17+/m1/s1
Instrument: Q-Exactive Orbitrap Thermo Scientific
Instrument type: LC-APCI-ITFT
Ms type: MS2
Ion mode: POSITIVE
Ionization: APCI
Fragmentation mode: HCD
Collision energy: 10(NCE)
Resolution: 17500
Column name: Agilent RRHD Eclipse 50 x 2 mm, 1.8 uM
Retention time: 2.71
Base peak: 321.1347
Precursor m/z: 339.1433
Precursor type: [M+H]+
m/z	relative intensity	assigned
58.0676	32	
87.6372	31	
94.3012	35	
125.0597	77	
137.0597	967	
137.4019	33	
175.0754	51	
179.0732	42	
185.0961	34	
187.1118	39	
189.091	50	
201.091	36	
203.1067	165	
210.7726	35	
213.091	63	
215.1067	84	
215.2338	37	
219.1016	52	
231.1016	432	
233.1172	62	
243.1042	73	
249.0872	37	
249.1121	239	
251.1278	79	
253.1434	223	
261.1121	926	
279.1227	362	
297.1333	324	
308.4702	40	
321.1333	999	
339.1438	616	
