Mass spectrum: Dehydrohistidyl-tryptophanyl-diketopiperazine; LC-ESI-ITFT; MS2; CE: 40; R=17500; [M+H]+
Name: Dehydrohistidyl-tryptophanyl-diketopiperazine
Name: (e)-3-(1h-imidazol-4-ylmethylene)-6-(1h-indol-3-ylmethyl)-2,5-piperazinedione
Class: Natural Product; Fungal metabolite
Formula: C17H15N5O2
Exact mass: 321.12256
SMILES: C1=CC=C2C(=C1)C(=CN2)CC3C(=O)N/C(=C/C4=CN=CN4)/C(=O)N3
InChI: InChI=1S/C17H15N5O2/c23-16-14(5-10-7-19-13-4-2-1-3-12(10)13)21-17(24)15(22-16)6-11-8-18-9-20-11/h1-4,6-9,14,19H,5H2,(H,18,20)(H,21,24)(H,22,23)/b15-6+
Instrument: Q-Exactive Orbitrap Thermo Scientific
Instrument type: LC-ESI-ITFT
Ms type: MS2
Ion mode: POSITIVE
Ionization: ESI
Fragmentation mode: HCD
Collision energy: 40(NCE)
Resolution: 17500
Column name: Agilent RRHD Eclipse 50 x 2 mm, 1.8 uM
Retention time: 2.17
Base peak: 193.0722
Precursor m/z: 322.1293
Precursor type: [M+H]+
m/z	relative intensity	assigned
130.0651	122	
162.0298	101	
163.0614	43	C7H7N4O1+
165.0771	76	
191.0563	52	C8H7N4O2+
192.0642	236	
193.072	999	
322.1298	124	
