Mass spectrum: Culmorin; LC-ESI-ITFT; MS2; CE: 35; R=17500; [M+H]+
Name: Culmorin
Class: Natural Product; Fungal metabolite
Formula: C15H26O2
Exact mass: 238.1933
SMILES: C[C@@]12CCCC([C@H]3[C@@H]1[C@@H](C[C@@]2(C3O)C)O)(C)C
InChI: InChI=1S/C15H26O2/c1-13(2)6-5-7-14(3)10-9(16)8-15(14,4)12(17)11(10)13/h9-12,16-17H,5-8H2,1-4H3/t9-,10+,11+,12?,14-,15-/m1/s1
Instrument: Q-Exactive Orbitrap Thermo Scientific
Instrument type: LC-ESI-ITFT
Ms type: MS2
Ion mode: POSITIVE
Ionization: ESI
Fragmentation mode: HCD
Collision energy: 35(NCE)
Resolution: 17500
Column name: Agilent RRHD Eclipse 50 x 2 mm, 1.8 uM
Retention time: 3.53
Base peak: 198.185
Precursor m/z: 239.2
Precursor type: [M+H]+
m/z	relative intensity	assigned
51.6799	78	
61.7134	84	
69.0699	161	
81.0699	337	
81.4435	75	
83.0855	122	
83.3228	99	
89.0597	166	
93.0699	171	
95.0855	565	
97.0648	112	
105.0699	101	
107.0855	756	
109.1012	467	C8H13+
119.0855	128	
121.1012	844	
123.1168	190	
133.1012	105	
135.1168	178	
137.1325	98	
147.1168	340	
149.1325	396	
161.1325	147	
163.1481	808	
165.1274	147	
177.1638	988	
190.7228	74	
198.185	999	
203.1795	378	
221.19	691	
