Mass spectrum: 15-Acetyldeoxynivalenol; LC-APCI-ITFT; MS2; CE: 20; R=17500; [M+H]+
Name: 15-Acetyldeoxynivalenol
Name: 15-monoacetyldeoxynivalenol
Class: Natural Product; Fungal metabolite
Formula: C17H22O7
Exact mass: 338.13654
SMILES: CC1=C[C@@H]2[C@]([C@@H](C1=O)O)([C@]3(C[C@H]([C@H]([C@@]34CO4)O2)O)C)COC(=O)C
InChI: InChI=1S/C17H22O7/c1-8-4-11-16(6-22-9(2)18,13(21)12(8)20)15(3)5-10(19)14(24-11)17(15)7-23-17/h4,10-11,13-14,19,21H,5-7H2,1-3H3/t10-,11-,13-,14-,15-,16-,17+/m1/s1
Instrument: Q-Exactive Orbitrap Thermo Scientific
Instrument type: LC-APCI-ITFT
Ms type: MS2
Ion mode: POSITIVE
Ionization: APCI
Fragmentation mode: HCD
Collision energy: 20(NCE)
Resolution: 17500
Column name: Agilent RRHD Eclipse 50 x 2 mm, 1.8 uM
Retention time: 2.71
Base peak: 261.1142
Precursor m/z: 339.1433
Precursor type: [M+H]+
m/z	relative intensity	assigned
58.8245	32	
60.9568	43	
77.343	40	
83.0491	41	
86.8696	37	
88.5462	37	
91.7242	35	
95.0491	47	
97.0648	57	
112.5664	40	
125.0597	219	
137.0597	936	
148.3422	41	
159.0804	42	
169.1012	55	
173.0961	41	
175.0754	60	
177.091	87	
179.1795	43	
185.0961	57	
187.1118	83	
189.091	171	
197.0961	59	
199.1097	52	
201.091	71	
203.1067	307	
213.091	228	
215.1067	330	
219.1016	65	
231.1016	660	
232.6161	48	
233.1172	84	
243.1042	198	
249.1121	322	
251.1278	63	
253.1434	164	
261.1121	999	
279.1227	529	
297.1333	468	
314.136	43	
321.1333	878	
339.1438	279	
