Mass spectrum: Ochratoxin B; LC-ESI-ITFT; MS2; CE: 55; R=17500; [M+H]+
Name: Ochratoxin B
Name: (2S)-2-[[(3R)-8-hydroxy-3-methyl-1-oxo-3,4-dihydroisochromene-7-carbonyl]amino]-3-phenylpropanoic acid
Class: Natural Product; Fungal metabolite
Formula: C20H19NO6
Exact mass: 369.12122
SMILES: C[C@@H]1CC2=C(C(=C(C=C2)C(=O)N[C@@H](CC3=CC=CC=C3)C(=O)O)O)C(=O)O1
InChI: InChI=1S/C20H19NO6/c1-11-9-13-7-8-14(17(22)16(13)20(26)27-11)18(23)21-15(19(24)25)10-12-5-3-2-4-6-12/h2-8,11,15,22H,9-10H2,1H3,(H,21,23)(H,24,25)/t11-,15+/m1/s1
Instrument: Q-Exactive Orbitrap Thermo Scientific
Instrument type: LC-ESI-ITFT
Ms type: MS2
Ion mode: POSITIVE
Ionization: ESI
Fragmentation mode: HCD
Collision energy: 55(NCE)
Resolution: 17500
Column name: Agilent RRHD Eclipse 50 x 2 mm, 1.8 uM
Retention time: 3.35
Base peak: 86.0972
Precursor m/z: 370.128
Precursor type: [M+H]+
m/z	relative intensity	assigned
55.055	118	
57.8862	113	
69.0707	141	
72.0808	130	
74.2148	161	
75.0267	206	
81.0707	210	
86.0964	999	
97.7685	113	
98.06	256	
127.0875	140	
143.0819	581	
157.0967	252	
176.0495	140	
176.6252	142	
183.1488	142	
204.1019	201	
205.0495	681	
216.1019	319	
285.5486	147	
321.4725	164	
335.8794	141	
357.3682	158	
363.3646	145	
