Mass spectrum: Cercosporin; LC-ESI-ITFT; MS2; CE: 35; R=17500; [M+H]+
Name: Cercosporin
Class: Natural Product; Fungal metabolite
Formula: C29H26O10
Exact mass: 534.15258
SMILES: C[C@H](CC1=C(C(=C2C(=O)C=C3C4=C5C(=CC(=O)C6=C(C(=C(C(=C56)C1=C42)C[C@@H](C)O)OC)O)OCO3)O)OC)O
InChI: InChI=1S/C29H26O10/c1-10(30)5-12-18-19-13(6-11(2)31)29(37-4)27(35)21-15(33)8-17-23(25(19)21)22-16(38-9-39-17)7-14(32)20(24(18)22)26(34)28(12)36-3/h7-8,10-11,30-31,34-35H,5-6,9H2,1-4H3/t10-,11-/m1/s1
Instrument: Q-Exactive Orbitrap Thermo Scientific
Instrument type: LC-ESI-ITFT
Ms type: MS2
Ion mode: POSITIVE
Ionization: ESI
Fragmentation mode: HCD
Collision energy: 35(NCE)
Resolution: 17500
Column name: Agilent RRHD Eclipse 50 x 2 mm, 1.8 uM
Retention time: 3.63
Base peak: 415.0796
Precursor m/z: 535.1593
Precursor type: [M+H]+
m/z	relative intensity	assigned
355.0601	49	
368.0679	34	
369.0757	37	
373.0707	39	
381.0757	33	
383.055	198	
384.0628	82	
385.0707	51	
396.0628	56	
397.0662	92	
398.0785	47	
399.0499	53	
399.0863	34	
400.0577	121	
401.0656	99	
409.0707	33	
410.0785	34	
411.0499	36	
411.0863	44	
412.0577	77	
413.0612	98	
415.0812	999	
425.1093	64	
426.0734	53	
427.0812	92	
428.0479	31	
428.089	39	
429.0969	99	
437.0656	41	
441.0523	145	
443.0761	115	
443.1192	40	
452.089	34	
453.0969	68	
455.071	36	
459.1074	64	
485.1231	77	
