Mass spectrum: 7,8-Dihydroxy calonectrin; LC-ESI-ITFT; MS2; CE: 40; R=17500; [M-H2O+H]+
Name: 7,8-Dihydroxy calonectrin
Class: Natural Product; Fungal metabolite
Formula: C19H26O8
Exact mass: 382.16276
SMILES: CC1=CC2C(C(C1O)O)(C3(CC(C(C34CO4)O2)OC(=O)C)C)COC(=O)C
InChI: InChI=1S/C19H26O8/c1-9-5-13-18(7-24-10(2)20,15(23)14(9)22)17(4)6-12(26-11(3)21)16(27-13)19(17)8-25-19/h5,12-16,22-23H,6-8H2,1-4H3
Instrument: Q-Exactive Orbitrap Thermo Scientific
Instrument type: LC-ESI-ITFT
Ms type: MS2
Ion mode: POSITIVE
Ionization: ESI
Fragmentation mode: HCD
Collision energy: 40(NCE)
Resolution: 17500
Column name: Agilent RRHD Eclipse 50 x 2 mm, 1.8 uM
Retention time: 2.9
Base peak: 109.0657
Precursor m/z: 365.1589
Precursor type: [M-H2O+H]+
m/z	relative intensity	assigned
51.6738	35	
60.7192	32	
67.0551	34	
69.0347	36	
75.4346	33	
78.0412	33	
79.0553	208	
81.071	442	
83.0508	39	
86.4307	37	
91.0552	196	
93.0709	174	
94.4172	35	
95.0491	76	
97.5636	35	
105.0699	308	
105.768	43	
107.0491	158	
109.0648	999	
113.0597	63	
117.0699	473	
119.0855	221	
121.0648	324	
125.0597	163	
127.0754	404	
129.0699	216	
131.0855	435	
133.0648	56	
133.1012	52	
133.5352	38	
135.0804	43	C9H11O1+
137.0597	566	
139.0754	51	
142.0777	46	
143.0855	405	
144.0934	64	
145.0648	88	
145.1012	262	
147.0804	150	
147.1189	57	
154.0777	51	
155.0855	59	
156.0934	66	
157.1012	343	
158.0726	48	
159.0804	209	
159.1168	549	
161.0961	168	
161.1325	48	
165.0699	56	
169.1012	208	
171.1168	476	
173.0961	242	
175.1118	79	
181.1012	83	
184.0883	90	
185.0961	91	
187.1118	666	
189.1274	80	
197.0961	173	
199.1118	434	
201.1121	50	
203.1067	49	
209.0961	75	
212.0832	44	
215.1067	248	
217.1223	157	
227.1067	85	
238.4149	42	
245.1172	72	
251.854	46	
331.0609	46	
