Mass spectrum: Trichoverrol A; LC-ESI-ITFT; MS2; CE: 50; R=17500; [M+H]+
Name: Trichoverrol A
Name: [4b(2Z,4E,6S,7S)]-4-(6,7-dihydroxy-2,4-octadienoate) 12,13-Epoxy-trichothec-9-ene-4,15-diol
Class: Natural Product; Fungal metabolite
Formula: C23H32O7
Exact mass: 420.2148
SMILES: CC1=C[C@@H]2[C@](CC1)([C@]3([C@@H](C[C@H]([C@@]34CO4)O2)OC(=O)/C=C\C=C\[C@@H]([C@H](C)O)O)C)CO
InChI: InChI=1S/C23H32O7/c1-14-8-9-22(12-24)18(10-14)29-19-11-17(21(22,3)23(19)13-28-23)30-20(27)7-5-4-6-16(26)15(2)25/h4-7,10,15-19,24-26H,8-9,11-13H2,1-3H3/b6-4+,7-5-/t15-,16-,17+,18+,19+,21+,22+,23-/m0/s1
Instrument: Q-Exactive Orbitrap Thermo Scientific
Instrument type: LC-ESI-ITFT
Ms type: MS2
Ion mode: POSITIVE
Ionization: ESI
Fragmentation mode: HCD
Collision energy: 50(NCE)
Resolution: 17500
Column name: Agilent RRHD Eclipse 50 x 2 mm, 1.8 uM
Retention time: 3.3
Base peak: 81.0703
Precursor m/z: 421.2215
Precursor type: [M+H]+
m/z	relative intensity	assigned
55.0549	97	
63.128	41	
67.0542	80	
69.0335	61	
79.0542	227	
81.0699	999	
83.0491	330	
90.977	70	
91.0542	120	
93.0699	438	C7H9+
95.0491	197	
95.0855	207	
105.0699	634	
106.7353	42	
107.0855	676	C8H11+
109.0648	257	
117.0699	67	C9H9+
119.0855	92	
121.0648	87	
123.0804	382	C8H11O1+
125.0597	86	
129.0699	72	
129.1652	46	
131.0855	108	
133.1012	187	
139.8399	48	
143.0855	300	
145.1012	166	
147.1168	92	
155.0855	69	
156.0934	65	
157.1012	76	
161.0961	303	
170.109	62	
175.1118	71	
175.7122	53	
183.1168	45	
201.1274	64	
222.3182	54	
295.4428	56	
353.4109	50	
