Mass spectrum: Fumonisin B3; LC-ESI-ITFT; MS2; CE: 50; R=17500; [M+H]+
Name: Fumonisin B3
Class: Natural Product; Fungal metabolite
Formula: C34H59NO14
Exact mass: 705.39354
SMILES: CCCC[C@@H](C)[C@H]([C@H](C[C@@H](C)C[C@@H](CCCCCC[C@@H]([C@@H](C)N)O)O)OC(=O)CC(CC(=O)O)C(=O)O)OC(=O)CC(CC(=O)O)C(=O)O
InChI: InChI=1S/C34H59NO14/c1-5-6-11-21(3)32(49-31(43)19-24(34(46)47)17-29(40)41)27(48-30(42)18-23(33(44)45)16-28(38)39)15-20(2)14-25(36)12-9-7-8-10-13-26(37)22(4)35/h20-27,32,36-37H,5-19,35H2,1-4H3,(H,38,39)(H,40,41)(H,44,45)(H,46,47)/t20-,21+,22+,23?,24?,25+,26-,27-,32+/m0/s1
Instrument: Q-Exactive Orbitrap Thermo Scientific
Instrument type: LC-ESI-ITFT
Ms type: MS2
Ion mode: POSITIVE
Ionization: ESI
Fragmentation mode: HCD
Collision energy: 50(NCE)
Resolution: 17500
Column name: Agilent RRHD Eclipse 50 x 2 mm, 1.8 uM
Retention time: 2.83
Base peak: 81.0702
Precursor m/z: 706.4003
Precursor type: [M+H]+
m/z	relative intensity	assigned
57.0705	197	
58.0651	37	
67.0542	467	
69.0699	480	
70.0651	410	
79.0542	245	
81.0699	999	
83.0855	170	
84.0808	71	
85.0284	84	
85.0648	59	
85.1012	201	
91.0542	103	
93.0699	375	
95.0855	906	
96.0808	33	
97.1012	99	C7H13+
98.0964	43	
105.0699	158	
107.0855	343	
109.1012	462	
110.0964	38	
113.0233	240	
119.0855	117	
121.1012	189	
123.1168	154	
133.1012	104	
135.1168	113	
137.1325	31	
141.0182	78	
147.1168	83	
149.1325	41	
159.0288	260	
161.1325	35	
170.154	144	
194.1903	52	
210.219	37	
238.2166	57	
318.3129	38	
336.3234	126	
