Mass spectrum: Roquefortine L; LC-ESI-ITFT; MS2; CE: 30; R=17500; [M+H]+
Name: Roquefortine L
Name: (3E,10bR,11aS)-3-(1H-Imidazol-5-ylmethylene)-10b-(2-methyl-3-buten-2-yl)-11,11a-dihydro-2H-pyrazino[1',2':1,5]pyrrolo[2,3-b]indole-1,4(3H,10bH)-dione 6-oxide
Class: Natural Product; Fungal metabolite
Formula: C22H21N5O3
Exact mass: 403.16443
SMILES: CC(C)(C=C)C12CC3C(=O)N/C(=C/C4=CN=CN4)/C(=O)N3C1=[N+](C5=CC=CC=C25)[O-]
InChI: InChI=1S/C22H21N5O3/c1-4-21(2,3)22-10-17-18(28)25-15(9-13-11-23-12-24-13)19(29)26(17)20(22)27(30)16-8-6-5-7-14(16)22/h4-9,11-12,17H,1,10H2,2-3H3,(H,23,24)(H,25,28)/b15-9+
Instrument: Q-Exactive Orbitrap Thermo Scientific
Instrument type: LC-ESI-ITFT
Ms type: MS2
Ion mode: POSITIVE
Ionization: ESI
Fragmentation mode: HCD
Collision energy: 30(NCE)
Resolution: 17500
Column name: Agilent RRHD Eclipse 50 x 2 mm, 1.8 uM
Retention time: 2.5
Base peak: 319.1071
Precursor m/z: 404.1712
Precursor type: [M+H]+
m/z	relative intensity	assigned
69.0708	343	
108.0556	179	
136.0505	81	
147.0553	34	
155.0604	34	
156.0682	67	
157.076	169	
158.0839	85	C10H10N2+
162.0298	823	
163.0614	457	
163.074	50	
173.0709	131	
177.0771	64	C8H9N4O1+
184.0631	35	
191.0563	349	
192.0642	152	
193.072	97	
196.1121	36	
198.0913	96	
205.072	232	
212.107	33	
214.1226	186	
223.123	35	
241.1335	69	
252.1019	121	
275.1165	36	
291.1115	41	
297.0645	74	
302.1036	74	
318.0985	300	
319.1077	999	
335.1013	488	
336.1091	181	
387.169	71	
404.1717	224	
