Mass spectrum: Andrastin D; LC-ESI-ITFT; MS2; CE: 20; R=17500; [M+H]+
Name: Andrastin D
Name: methyl (5S,8S,9S,10R,13R,14R)-17-hydroxy-4,4,8,10,12,13,16-heptamethyl-3,15-dioxo-1,2,5,6,7,9-hexahydrocyclopenta[a]phenanthrene-14-carboxylate
Class: Natural Product; Fungal metabolite
Formula: C26H36O5
Exact mass: 428.25629
SMILES: CC1=C[C@H]2[C@@]3(CCC(=O)C([C@H]3CC[C@@]2([C@]4([C@@]1(C(=C(C4=O)C)O)C)C(=O)OC)C)(C)C)C
InChI: InChI=1S/C26H36O5/c1-14-13-17-23(5)11-10-18(27)22(3,4)16(23)9-12-24(17,6)26(21(30)31-8)20(29)15(2)19(28)25(14,26)7/h13,16-17,28H,9-12H2,1-8H3/t16-,17+,23-,24+,25+,26-/m1/s1
Instrument: Q-Exactive Orbitrap Thermo Scientific
Instrument type: LC-ESI-ITFT
Ms type: MS2
Ion mode: POSITIVE
Ionization: ESI
Fragmentation mode: HCD
Collision energy: 20(NCE)
Resolution: 17500
Column name: Agilent RRHD Eclipse 50 x 2 mm, 1.8 uM
Retention time: 3.95
Base peak: 429.2644
Precursor m/z: 429.263
Precursor type: [M+H]+
m/z	relative intensity	assigned
121.1012	48	
133.1012	42	C10H13+
159.1168	33	
165.1274	43	
179.0703	33	
183.0652	90	C9H11O4+
187.1481	45	
205.1223	45	
205.1587	177	C14H21O1+
211.0965	231	
217.1223	38	
219.1744	51	
221.1172	55	
225.1121	66	
227.1795	95	
237.1121	31	
245.19	221	C17H25O1+
251.1278	59	
351.2319	64	
369.2424	440	
379.2268	158	
397.2374	555	
411.253	67	
429.2636	999	
