Mass spectrum: Verrucarol; LC-ESI-ITFT; MS2; CE: 30; R=17500; [M+H]+
Name: Verrucarol
Class: Natural Product; Fungal metabolite
Formula: C15H22O4
Exact mass: 266.15181
SMILES: CC1=C[C@@H]2[C@](CC1)([C@]3([C@@H](C[C@H]([C@@]34CO4)O2)O)C)CO
InChI: InChI=1S/C15H22O4/c1-9-3-4-14(7-16)11(5-9)19-12-6-10(17)13(14,2)15(12)8-18-15/h5,10-12,16-17H,3-4,6-8H2,1-2H3/t10-,11-,12-,13-,14-,15+/m1/s1
Instrument: Q-Exactive Orbitrap Thermo Scientific
Instrument type: LC-ESI-ITFT
Ms type: MS2
Ion mode: POSITIVE
Ionization: ESI
Fragmentation mode: HCD
Collision energy: 30(NCE)
Resolution: 17500
Column name: Agilent RRHD Eclipse 50 x 2 mm, 1.8 uM
Retention time: 2.52
Base peak: 231.1371
Precursor m/z: 267.1585
Precursor type: [M+H]+
m/z	relative intensity	assigned
67.0542	68	
79.0542	76	
81.0699	345	
83.0491	44	
85.0284	45	
85.0648	46	
91.0542	64	
93.0699	331	
95.0491	139	
95.0855	272	
97.0648	198	
105.0699	499	
107.0855	488	C8H11+
109.0648	186	
109.1012	246	
111.0804	55	
115.039	65	
117.0699	56	
119.0855	234	
121.0648	363	
121.1012	128	
123.0804	159	
125.0597	96	
127.0754	211	
129.0699	94	
131.0855	194	
133.0648	95	
133.1012	272	
135.0804	159	
135.1168	71	
137.0597	64	
137.0961	79	
139.0754	40	
143.0855	349	
145.1012	344	
147.0804	110	
147.1168	127	
149.0961	52	
149.1325	113	
155.0855	49	
157.1012	338	
159.0804	43	
159.1168	703	
161.0961	161	
161.1325	292	
163.0754	47	
163.1118	72	
165.1274	39	
169.1012	119	
171.0804	90	
171.1168	423	
173.0961	128	
173.1325	97	
175.1118	196	
175.1481	140	
177.1274	228	
181.0859	40	
183.1168	102	
185.0961	45	
185.1325	869	
187.1118	176	
187.1481	72	
189.1274	245	
195.1168	254	
201.1274	253	
203.1431	586	
205.1223	117	
207.138	42	
213.1274	656	
219.138	285	
221.1536	88	
231.138	999	
249.1485	855	
267.1591	323	
