Mass spectrum: Chaetoglobosin A; LC-ESI-ITFT; MS2; CE: 50; R=17500; [M+Na]+
Name: Chaetoglobosin A
Class: Natural Product; Fungal metabolite
Formula: C32H36N2O5
Exact mass: 528.26243
SMILES: C[C@H]\1C/C=C/[C@H]2[C@H]3[C@](O3)([C@H]([C@@H]4[C@@]2(C(=O)/C=C/C(=O)[C@@H](/C(=C1)/C)O)C(=O)N[C@H]4CC5=CNC6=CC=CC=C65)C)C
InChI: InChI=1S/C32H36N2O5/c1-17-8-7-10-22-29-31(4,39-29)19(3)27-24(15-20-16-33-23-11-6-5-9-21(20)23)34-30(38)32(22,27)26(36)13-12-25(35)28(37)18(2)14-17/h5-7,9-14,16-17,19,22,24,27-29,33,37H,8,15H2,1-4H3,(H,34,38)/b10-7+,13-12+,18-14+/t17-,19-,22-,24-,27-,28+,29-,31+,32+/m0/s1
Instrument: Q-Exactive Orbitrap Thermo Scientific
Instrument type: LC-ESI-ITFT
Ms type: MS2
Ion mode: POSITIVE
Ionization: ESI
Fragmentation mode: HCD
Collision energy: 50(NCE)
Resolution: 17500
Column name: Agilent RRHD Eclipse 50 x 2 mm, 1.8 uM
Retention time: 3.68
Base peak: 160.0362
Precursor m/z: 551.2511
Precursor type: [M+Na]+
m/z	relative intensity	assigned
57.4536	33	
57.5744	31	
64.978	42	
65.0329	37	
67.3982	33	
68.2673	35	
69.3159	42	
69.8953	32	
121.0648	50	
130.0651	343	
132.0053	82	
152.0471	79	
156.0417	71	
160.0366	999	
168.5766	39	
186.0162	200	
187.024	52	
188.0318	209	
222.0889	165	C13H13N1O1Na1+
240.0995	364	
240.1233	33	
263.3521	43	
287.1179	67	
289.0945	233	
315.1101	67	
317.0897	172	
327.1492	51	
351.1465	72	
352.1543	63	
355.1417	72	
361.1648	51	
375.1805	209	
378.1676	90	
430.325	41	
504.0741	46	
