Mass spectrum: Deoxynivalenol-3-glucoside; LC-APCI-ITFT; MS2; CE: 55; R=17500; [M+FA]-
Name: Deoxynivalenol-3-glucoside
Name: (3alpha,7beta,12epsilon)-7,15-Dihydroxy-8-oxo-12,13-epoxytrichothec-9-en-3-yl beta-D-glucopyranoside
Class: Natural Product; Fungal metabolite
Formula: C21H30O11
Exact mass: 458.17879
SMILES: CC1=C[C@@H]2[C@]([C@@H](C1=O)O)([C@]3(C[C@H]([C@H]([C@@]34CO4)O2)O[C@H]5[C@@H]([C@H]([C@@H]([C@H](O5)CO)O)O)O)C)CO
InChI: InChI=1S/C21H30O11/c1-8-3-11-20(6-23,16(28)12(8)24)19(2)4-9(17(32-11)21(19)7-29-21)30-18-15(27)14(26)13(25)10(5-22)31-18/h3,9-11,13-18,22-23,25-28H,4-7H2,1-2H3/t9-,10-,11-,13-,14+,15-,16-,17-,18-,19-,20-,21+/m1/s1
Instrument: Q-Exactive Orbitrap Thermo Scientific
Instrument type: LC-APCI-ITFT
Ms type: MS2
Ion mode: NEGATIVE
Ionization: APCI
Fragmentation mode: HCD
Collision energy: 55(NCE)
Resolution: 17500
Column name: Agilent RRHD Eclipse 50 x 2 mm, 1.8 uM
Retention time: 2.2
Base peak: 59.0121
Precursor m/z: 503.177
Precursor type: [M+HCOO]-
m/z	relative intensity	assigned
57.033	35	
59.0121	999	
71.012	507	
72.9911	34	
73.0278	45	
83.0122	39	
85.0281	179	
87.0073	31	
89.023	242	
95.0123	58	
101.0225	133	
107.0489	31	
113.0225	88	
121.0641	47	
122.0351	52	
123.0437	140	
125.0591	37	
135.0451	51	
137.0594	39	
149.0587	53	
150.0297	95	
159.0815	40	
160.053	99	
161.0588	47	
163.0743	110	
171.0815	48	
172.053	54	
173.0608	174	
175.0765	295	
177.0921	65	
186.0661	73	
187.0741	165	
188.0479	37	
189.0538	66	
189.0902	145	
190.0612	79	
191.1078	60	
199.0765	188	
201.0921	110	
202.0635	93	
203.0685	61	
205.087	97	
211.0765	33	
214.0635	149	
217.087	310	
219.1027	90	
229.087	274	
247.0976	75	
265.1081	36	
