Mass spectrum: Tenuazonic acid; LC-ESI-ITFT; MS2; CE: 30; R=17500; [M+H]+
Name: Tenuazonic acid
Name: (2S)-4-acetyl-2-[(2S)-butan-2-yl]-3-hydroxy-1,2-dihydropyrrol-5-one
Class: Natural Product; Fungal metabolite
Formula: C10H15NO3
Exact mass: 197.10519
SMILES: CC[C@H](C)[C@H]1C(=C(C(=O)N1)C(=O)C)O
InChI: InChI=1S/C10H15NO3/c1-4-5(2)8-9(13)7(6(3)12)10(14)11-8/h5,8,13H,4H2,1-3H3,(H,11,14)/t5-,8-/m0/s1
Instrument: Q-Exactive Orbitrap Thermo Scientific
Instrument type: LC-ESI-ITFT
Ms type: MS2
Ion mode: POSITIVE
Ionization: ESI
Fragmentation mode: HCD
Collision energy: 30(NCE)
Resolution: 17500
Column name: Agilent RRHD Eclipse 50 x 2 mm, 1.8 uM
Retention time: 3.16
Base peak: 198.1132
Precursor m/z: 198.1119
Precursor type: [M+H]+
m/z	relative intensity	assigned
57.071	50	
69.0709	44	
83.0864	135	
97.1012	90	
107.0855	57	
111.0804	68	
115.039	90	
121.1012	58	
125.0233	114	
125.0597	127	
125.0961	48	
139.039	121	
139.0754	108	
142.0499	151	
153.091	333	
163.1485	130	
180.1019	102	
181.0859	161	
181.159	93	
198.1125	999	
