Mass spectrum: Zeranol; LC-ESI-ITFT; MS2; CE: 40; R=17500; [M-H2O+H]+
Name: Zeranol
Name: zearanol
Name: (7R,11S)-7,15,17-trihydroxy-11-methyl-12-oxabicyclo[12.4.0]octadeca-1(14),15,17-trien-13-one
Class: Synthetic nonsteroidal estrogen; Fungal metabolite related
Formula: C18H26O5
Exact mass: 322.17803
SMILES: C[C@H]1CCC[C@@H](CCCCCC2=CC(=CC(=C2C(=O)O1)O)O)O
InChI: InChI=1S/C18H26O5/c1-12-6-5-9-14(19)8-4-2-3-7-13-10-15(20)11-16(21)17(13)18(22)23-12/h10-12,14,19-21H,2-9H2,1H3/t12-,14+/m0/s1
Instrument: Q-Exactive Orbitrap Thermo Scientific
Instrument type: LC-ESI-ITFT
Ms type: MS2
Ion mode: POSITIVE
Ionization: ESI
Fragmentation mode: HCD
Collision energy: 40(NCE)
Resolution: 17500
Column name: Agilent RRHD Eclipse 50 x 2 mm, 1.8 uM
Retention time: 3.25
Base peak: 123.0448
Precursor m/z: 305.1742
Precursor type: [M-H2O+H]+
m/z	relative intensity	assigned
53.8181	41	
65.2495	37	
67.0553	49	
68.5536	39	
69.7094	42	
71.1243	39	
71.5228	37	
75.7327	40	
78.6133	38	
81.0709	301	
81.4572	42	
83.0864	40	
84.5362	36	
95.0855	103	
99.869	45	
123.0441	999	
137.0597	82	
149.0597	393	
151.0405	41	
161.0597	272	
163.0754	414	
165.0546	67	
167.0339	98	
175.0754	212	
177.0546	99	
189.091	178	
191.0703	80	
193.0495	77	
203.1067	47	
217.0859	43	
242.3231	43	
287.1642	91	
305.1747	411	
