Mass spectrum: Enniatin B1; LC-ESI-ITFT; MS2; CE: 20; R=17500; [M+H]+
Name: Enniatin B1
Class: Natural Product; Fungal metabolite
Formula: C34H59N3O9
Exact mass: 653.42513
SMILES: CC[C@H](C)[C@H]1C(=O)O[C@@H](C(=O)N([C@H](C(=O)O[C@@H](C(=O)N([C@H](C(=O)O[C@@H](C(=O)N1C)C(C)C)C(C)C)C)C(C)C)C(C)C)C)C(C)C
InChI: InChI=1S/C34H59N3O9/c1-16-22(12)25-34(43)46-27(20(8)9)30(39)36(14)23(17(2)3)32(41)44-26(19(6)7)29(38)35(13)24(18(4)5)33(42)45-28(21(10)11)31(40)37(25)15/h17-28H,16H2,1-15H3/t22-,23-,24-,25-,26+,27+,28+/m0/s1
Instrument: Q-Exactive Orbitrap Thermo Scientific
Instrument type: LC-ESI-ITFT
Ms type: MS2
Ion mode: POSITIVE
Ionization: ESI
Fragmentation mode: HCD
Collision energy: 20(NCE)
Resolution: 17500
Column name: Agilent RRHD Eclipse 50 x 2 mm, 1.8 uM
Retention time: 5.18
Base peak: 196.1321
Precursor m/z: 654.4319
Precursor type: [M+H]+
m/z	relative intensity	assigned
86.0964	49	
186.1489	55	
196.1332	999	
210.1489	644	
214.1411	543	
228.1567	288	
314.1935	59	
427.2776	48	
441.2932	75	
527.3327	103	
541.3483	146	
654.4324	64	
