Mass spectrum: Surfactin C; LC-ESI-ITFT; MS2; CE: 40; R=17500; [M+Na]+
Name: Surfactin C
Name: 3-[(3S,6R,9S,12S,15R,18S,21S,25R)-9-(carboxymethyl)-3,6,15,18-tetrakis(2-methylpropyl)-25-(10-methylundecyl)-2,5,8,11,14,17,20,23-octaoxo-12-propan-2-yl-1-oxa-4,7,10,13,16,19,22-heptazacyclopentacos-21-yl]propanoic acid
Class: Natural Product; Bacterial metabolite
Formula: C53H93N7O13
Exact mass: 1035.68314
SMILES: CC(C)CCCCCCCCC[C@@H]1CC(=O)N[C@H](C(=O)N[C@H](C(=O)N[C@@H](C(=O)N[C@H](C(=O)N[C@H](C(=O)N[C@@H](C(=O)N[C@H](C(=O)O1)CC(C)C)CC(C)C)CC(=O)O)C(C)C)CC(C)C)CC(C)C)CCC(=O)O
InChI: InChI=1S/C53H93N7O13/c1-30(2)20-18-16-14-13-15-17-19-21-36-28-43(61)54-37(22-23-44(62)63)47(66)55-38(24-31(3)4)48(67)57-40(26-33(7)8)51(70)60-46(35(11)12)52(71)58-41(29-45(64)65)50(69)56-39(25-32(5)6)49(68)59-42(27-34(9)10)53(72)73-36/h30-42,46H,13-29H2,1-12H3,(H,54,61)(H,55,66)(H,56,69)(H,57,67)(H,58,71)(H,59,68)(H,60,70)(H,62,63)(H,64,65)/t36-,37+,38+,39-,40-,41+,42+,46+/m1/s1
Instrument: Q-Exactive Orbitrap Thermo Scientific
Instrument type: LC-ESI-ITFT
Ms type: MS2
Ion mode: POSITIVE
Ionization: ESI
Fragmentation mode: HCD
Collision energy: 40(NCE)
Resolution: 17500
Column name: Agilent RRHD Eclipse 50 x 2 mm, 1.8 uM
Retention time: 5.05
Base peak: 391.2689
Precursor m/z: 1058.6718
Precursor type: [M+Na]+
m/z	relative intensity	assigned
156.0267	31	
164.0682	31	
221.1635	39	
267.169	163	
269.1108	32	
320.2319	552	C16H28N6O1+
334.2479	174	
348.2271	66	
360.2159	32	
365.2534	262	
366.2374	128	C17H30N6O3+
368.1805	77	
374.232	101	
375.2749	124	
379.269	90	
380.2547	35	
382.1959	68	
389.2905	48	
391.269	999	
405.285	292	C22H40N1O4Na1+
459.3198	57	
463.2538	318	
477.2697	109	
481.2646	778	
495.2803	271	
558.3902	64	
572.4066	146	
593.3653	31	
594.3493	389	
608.3649	132	
618.4048	67	
653.4637	31	
671.4736	679	
698.4823	89	
699.4712	44	
707.4336	135	C50H56N2Na1+
716.4912	105	
717.48	99	
721.4481	33	C35H65N2O13+
724.5038	55	
726.5167	49	
742.5113	687	
814.4961	182	
832.5066	470	
945.591	135	
1058.6724	76	
