Mass spectrum: HT-2 Toxin; LC-ESI-ITFT; MS2; CE: 50; R=17500; [M+H]+
Name: HT-2 Toxin
Name: 12,13-Epoxytrichothec-9-ene-3-alpha,4-beta,8-alpha,15-tetrol 15-acetate 8-isovalerate
Class: Natural Product; Fungal metabolite
Formula: C22H32O8
Exact mass: 424.20971
SMILES: CC1=C[C@@H]2[C@](C[C@@H]1OC(=O)CC(C)C)([C@]3([C@@H]([C@H]([C@H]([C@@]34CO4)O2)O)O)C)COC(=O)C
InChI: InChI=1S/C22H32O8/c1-11(2)6-16(24)29-14-8-21(9-27-13(4)23)15(7-12(14)3)30-19-17(25)18(26)20(21,5)22(19)10-28-22/h7,11,14-15,17-19,25-26H,6,8-10H2,1-5H3/t14-,15+,17+,18+,19+,20+,21+,22-/m0/s1
Instrument: Q-Exactive Orbitrap Thermo Scientific
Instrument type: LC-ESI-ITFT
Ms type: MS2
Ion mode: POSITIVE
Ionization: ESI
Fragmentation mode: HCD
Collision energy: 50(NCE)
Resolution: 17500
Column name: Agilent RRHD Eclipse 50 x 2 mm, 1.8 uM
Retention time: 3.14
Base peak: 105.0699
Precursor m/z: 425.2164
Precursor type: [M+H]+
m/z	relative intensity	assigned
57.0705	872	
67.0542	101	
69.0335	77	
71.0128	69	
79.0542	162	
81.0699	104	
83.0491	72	
85.0284	32	
85.0648	275	
91.0542	252	
93.0699	289	
95.0491	273	
95.0855	55	
97.0648	113	
103.0542	52	
105.0699	999	C8H9+
107.0491	85	C7H7O1+
107.0855	82	
109.0648	161	
111.0441	31	C6H7O2+
115.0542	57	
117.0699	148	
119.0491	54	
119.0855	306	
121.0648	776	
121.1012	32	
123.0441	53	
123.0804	65	
125.0597	63	
128.0621	183	
129.0699	244	
130.0777	75	
131.0855	307	
133.0648	100	
133.1012	156	
135.0804	67	
137.0597	47	
141.0699	142	
142.0777	364	
143.0855	418	
144.0934	59	
145.0648	108	
145.1012	369	
147.0804	128	
147.1168	103	
149.0597	38	
149.0961	41	
153.0699	63	
154.0777	130	
155.0855	133	
156.0934	248	
157.0648	43	
157.1012	379	
158.0726	103	
159.0804	179	
159.1168	159	
160.0883	45	
161.0961	133	
165.0699	108	
166.0777	143	
167.0855	38	
169.1012	186	
171.0804	84	
171.1168	158	
172.0883	82	
173.0961	189	
175.1118	154	
177.091	33	
179.0855	51	
181.1012	87	
182.0726	77	
184.0883	90	
185.0961	130	
187.1118	77	
189.091	41	
189.1274	37	
197.0961	78	
199.1118	131	
203.1067	41	
209.0961	46	
217.1223	36	
245.1172	34	
