Mass spectrum: Deoxynivalenol 3-glucuronide; LC-ESI-ITFT; MS2; CE: 20; R=17500; [M-H]-
Name: Deoxynivalenol 3-glucuronide
Class: Fungal metabolite; urinary conjugate
Formula: C21H28O12
Exact mass: 472.15805
SMILES: CC1=C[C@@H]2[C@]([C@@H](C1=O)O)([C@]3(C[C@H]([C@H]([C@@]34CO4)O2)O[C@H]5[C@@H]([C@H]([C@@H]([C@H](O5)C(=O)O)O)O)O)C)CO
InChI: InChI=1S/C21H28O12/c1-7-3-9-20(5-22,15(27)10(7)23)19(2)4-8(16(32-9)21(19)6-30-21)31-18-13(26)11(24)12(25)14(33-18)17(28)29/h3,8-9,11-16,18,22,24-27H,4-6H2,1-2H3,(H,28,29)/t8-,9-,11+,12+,13-,14+,15-,16-,18-,19-,20-,21+/m1/s1
Instrument: Q-Exactive Orbitrap Thermo Scientific
Instrument type: LC-ESI-ITFT
Ms type: MS2
Ion mode: NEGATIVE
Ionization: ESI
Fragmentation mode: HCD
Collision energy: 20(NCE)
Resolution: 17500
Column name: Agilent RRHD Eclipse 50 x 2 mm, 1.8 uM
Retention time: 2.22
Base peak: 471.1505
Precursor m/z: 471.1513
Precursor type: [M-H]-
m/z	relative intensity	assigned
113.023	45	
193.0354	37	
471.1505	999	
