Mass spectrum: T-2 Toxin; LC-ESI-ITFT; MS2; CE: 50; R=17500; [M+H]+
Name: T-2 Toxin
Name: Fusariotoxin T 2
Name: Insariotoxin
Name: T-2 mycotoxin
Name: (2alpha,3alpha,4beta,8alpha)-4,15-bis(acetyloxy)-3-hydroxy-12,13-epoxytrichothec-9-en-8-yl 3-methylbutanoate
Class: Natural Product; Fungal metabolite
Formula: C24H34O9
Exact mass: 466.22027
SMILES: CC1=C[C@@H]2[C@](C[C@@H]1OC(=O)CC(C)C)([C@]3([C@@H]([C@H]([C@H]([C@@]34CO4)O2)O)OC(=O)C)C)COC(=O)C
InChI: InChI=1S/C24H34O9/c1-12(2)7-18(27)32-16-9-23(10-29-14(4)25)17(8-13(16)3)33-21-19(28)20(31-15(5)26)22(23,6)24(21)11-30-24/h8,12,16-17,19-21,28H,7,9-11H2,1-6H3/t16-,17+,19+,20+,21+,22+,23+,24-/m0/s1
Instrument: Q-Exactive Orbitrap Thermo Scientific
Instrument type: LC-ESI-ITFT
Ms type: MS2
Ion mode: POSITIVE
Ionization: ESI
Fragmentation mode: HCD
Collision energy: 50(NCE)
Resolution: 17500
Column name: Agilent RRHD Eclipse 50 x 2 mm, 1.8 uM
Retention time: 3.56
Base peak: 57.0706
Precursor m/z: 467.227
Precursor type: [M+H]+
m/z	relative intensity	assigned
57.0706	999	
64.978	91	
67.0542	83	
69.0335	66	
79.0542	183	
81.0699	125	
83.0491	56	
85.0648	248	
91.0542	220	
93.0699	337	
95.0491	335	
95.0855	71	
97.0648	190	
105.0699	567	
107.0491	144	
107.0855	69	C8H11+
109.0648	166	
115.0542	69	
117.0699	123	
119.0491	86	
119.0855	168	
121.0648	780	
123.0441	132	
123.0804	65	
125.0597	114	
128.0621	118	
129.0699	271	
130.0777	31	
131.0855	232	
133.0648	94	
133.1012	119	
137.0597	54	
141.0699	188	
142.0777	371	
143.0855	495	
144.0934	55	
145.0648	108	
145.1012	351	
147.0804	87	
147.1168	71	
153.0699	56	
154.0777	253	
155.0855	107	
156.0934	283	
157.1012	463	
158.0726	119	
159.0804	175	
159.1168	205	
161.0961	114	
165.0699	110	
166.0777	162	
167.0855	52	
169.1012	384	
171.0804	96	
171.1168	205	
172.0883	88	
173.0961	200	
175.1118	119	
179.0855	69	
181.1012	140	
182.0726	125	
184.0883	105	
185.0961	320	
187.1118	168	
189.1274	53	
191.1067	52	
197.0961	148	
199.1118	264	
203.1067	53	
209.0961	64	
215.1067	108	
217.1223	86	
227.1067	68	
245.1172	63	
