Mass spectrum: Mellein; LC-ESI-ITFT; MS2; CE: 50; R=17500; [M+H]+
Name: Mellein
Name: Ochracin
Name: 8-hydroxy-3-methyl-3,4-dihydroisochromen-1-one
Class: Natural Product; Fungal metabolite
Formula: C10H10O3
Exact mass: 178.06299
SMILES: CC1CC2=C(C(=CC=C2)O)C(=O)O1
InChI: InChI=1S/C10H10O3/c1-6-5-7-3-2-4-8(11)9(7)10(12)13-6/h2-4,6,11H,5H2,1H3
Instrument: Q-Exactive Orbitrap Thermo Scientific
Instrument type: LC-ESI-ITFT
Ms type: MS2
Ion mode: POSITIVE
Ionization: ESI
Fragmentation mode: HCD
Collision energy: 50(NCE)
Resolution: 17500
Column name: Agilent RRHD Eclipse 50 x 2 mm, 1.8 uM
Retention time: 3.44
Base peak: 133.0643
Precursor m/z: 179.0697
Precursor type: [M+H]+
m/z	relative intensity	assigned
105.0699	422	
115.0542	36	
133.0648	999	
151.0754	39	
161.0597	708	
179.0703	56	
