Mass spectrum: Aflatoxin M1; LC-ESI-ITFT; MS2; CE: 50; R=17500; [M+H]+
Name: Aflatoxin M1
Name: (6aR,9aR)-9a-Hydroxy-4-methoxy-2,3,6a,9a-tetrahydrocyclopenta[c]furo[3',2':4,5]furo[2,3-h]chromene-1,11-dione
Class: Natural Product; Fungal metabolite
Formula: C17H12O7
Exact mass: 328.05828
SMILES: COC1=C2C3=C(C(=O)CC3)C(=O)OC2=C4C(=C1)O[C@@H]5[C@]4(C=CO5)O
InChI: InChI=1S/C17H12O7/c1-21-9-6-10-13(17(20)4-5-22-16(17)23-10)14-12(9)7-2-3-8(18)11(7)15(19)24-14/h4-6,16,20H,2-3H2,1H3/t16-,17-/m1/s1
Instrument: Q-Exactive Orbitrap Thermo Scientific
Instrument type: LC-ESI-ITFT
Ms type: MS2
Ion mode: POSITIVE
Ionization: ESI
Fragmentation mode: HCD
Collision energy: 50(NCE)
Resolution: 17500
Column name: Agilent RRHD Eclipse 50 x 2 mm, 1.8 uM
Retention time: 2.8
Base peak: 273.0743
Precursor m/z: 329.065
Precursor type: [M+H]+
m/z	relative intensity	assigned
202.0624	50	
203.0703	68	
213.0546	44	
217.0859	66	
227.0703	85	
229.0495	259	
230.0574	85	
231.0652	67	
241.0495	33	
245.0808	35	
255.0652	120	
257.0444	69	
257.0808	83	
258.0523	259	
259.0601	414	
273.0757	999	
283.0601	58	
301.0707	46	
