Mass spectrum: iso-Roridine E; LC-ESI-ITFT; MS2; CE: 20; R=17500; [M+H]+
Name: iso-Roridine E
Class: Natural Product; Fungal metabolite
Formula: C29H38O8
Exact mass: 514.25667
SMILES: CC1=C[C@@H]2[C@@]3(CC1)COC(=O)/C=C(/CCO[C@@H](/C=C/C=C\C(=O)O[C@H]4[C@]3([C@]5(CO5)[C@@H](C4)O2)C)[C@H](C)O)\C
InChI: InChI=1S/C29H38O8/c1-18-9-11-28-16-34-26(32)14-19(2)10-12-33-21(20(3)30)7-5-6-8-25(31)37-22-15-24(36-23(28)13-18)29(17-35-29)27(22,28)4/h5-8,13-14,20-24,30H,9-12,15-17H2,1-4H3/b7-5+,8-6-,19-14+/t20-,21-,22+,23+,24+,27+,28+,29-/m0/s1
Instrument: Q-Exactive Orbitrap Thermo Scientific
Instrument type: LC-ESI-ITFT
Ms type: MS2
Ion mode: POSITIVE
Ionization: ESI
Fragmentation mode: HCD
Collision energy: 20(NCE)
Resolution: 17500
Column name: Agilent RRHD Eclipse 50 x 2 mm, 1.8 uM
Retention time: 3.78
Base peak: 113.0595
Precursor m/z: 515.2634
Precursor type: [M+H]+
m/z	relative intensity	assigned
67.0542	33	
83.0491	70	
85.0648	35	
95.0491	182	
113.0597	999	
137.0597	234	
185.1325	31	
187.1118	43	
195.1016	74	
231.138	226	
331.1904	41	
361.201	311	
515.2639	150	
