Mass spectrum: Andrastin D; LC-ESI-ITFT; MS2; CE: 30; R=17500; [M+H]+
Name: Andrastin D
Name: methyl (5S,8S,9S,10R,13R,14R)-17-hydroxy-4,4,8,10,12,13,16-heptamethyl-3,15-dioxo-1,2,5,6,7,9-hexahydrocyclopenta[a]phenanthrene-14-carboxylate
Class: Natural Product; Fungal metabolite
Formula: C26H36O5
Exact mass: 428.25629
SMILES: CC1=C[C@H]2[C@@]3(CCC(=O)C([C@H]3CC[C@@]2([C@]4([C@@]1(C(=C(C4=O)C)O)C)C(=O)OC)C)(C)C)C
InChI: InChI=1S/C26H36O5/c1-14-13-17-23(5)11-10-18(27)22(3,4)16(23)9-12-24(17,6)26(21(30)31-8)20(29)15(2)19(28)25(14,26)7/h13,16-17,28H,9-12H2,1-8H3/t16-,17+,23-,24+,25+,26-/m1/s1
Instrument: Q-Exactive Orbitrap Thermo Scientific
Instrument type: LC-ESI-ITFT
Ms type: MS2
Ion mode: POSITIVE
Ionization: ESI
Fragmentation mode: HCD
Collision energy: 30(NCE)
Resolution: 17500
Column name: Agilent RRHD Eclipse 50 x 2 mm, 1.8 uM
Retention time: 3.95
Base peak: 397.2371
Precursor m/z: 429.263
Precursor type: [M+H]+
m/z	relative intensity	assigned
67.055	35	
69.0707	119	
79.0542	32	
81.0699	97	
83.0128	106	
83.0491	52	
83.0855	112	
93.0699	96	
95.0855	233	
97.0648	66	
97.1012	76	
99.0804	66	
105.0699	90	
107.0855	499	
109.0648	33	
109.1012	342	
111.0804	43	
111.1168	68	
113.0961	39	
119.0855	245	
121.0648	54	
121.1012	639	
123.0804	82	
123.1168	238	
125.0961	67	C8H13O1+
127.1118	43	
131.0855	46	
133.1012	533	C10H13+
135.0804	152	
135.1168	274	
137.0961	193	C9H13O1+
139.1118	44	
145.0765	47	
145.1012	202	
147.0804	56	
147.1168	292	C11H15+
149.0961	275	
149.1325	113	
151.039	537	C8H7O3+
151.1118	167	
153.0546	54	
157.1012	76	C12H13+
159.1168	463	C12H15+
161.0961	100	
161.1325	276	
163.0754	36	
163.1118	518	
163.1481	137	
165.091	60	
165.1274	528	C11H17O1+
169.0174	54	
169.0495	234	C8H9O4+
171.1168	184	
173.0961	38	C12H13O1+
173.1325	300	
175.1118	141	
175.1481	104	
177.091	240	C11H13O2+
177.1274	264	
177.1638	78	
179.0703	513	
179.1067	35	C11H15O2+
179.1431	51	
183.0652	333	C9H11O4+
184.0967	38	
185.1325	137	C14H17+
187.1118	39	C13H15O1+
187.1481	389	
189.091	143	
189.1274	168	
191.0703	47	
191.1067	214	C12H15O2+
191.1431	248	
191.1795	31	
193.0859	171	
193.1223	46	
193.1587	118	
195.1016	52	
199.1118	38	
199.1481	54	
201.1274	44	
201.1638	165	
203.1067	111	C13H15O2+
203.1431	106	
203.1795	107	
205.0859	69	
205.1223	375	
205.1587	744	
207.0652	128	
207.1016	189	
207.138	31	
209.1536	61	
211.0965	523	
213.1638	39	
215.1067	36	C14H15O2+
217.1223	534	
217.1587	33	
217.1951	40	
219.1016	173	
219.138	111	
219.1744	98	
221.1172	111	C13H17O3+
223.0965	86	
225.1121	163	
225.1638	66	
226.2166	36	
227.1795	609	
229.1223	53	
231.1016	47	
231.138	181	C15H19O2+
233.1172	52	
233.1536	112	
237.1121	249	
241.1223	55	
243.138	108	
243.1744	80	
245.1172	135	
245.19	911	
247.1329	84	
247.2057	50	
251.1278	149	
257.1536	122	
259.1329	123	
261.1485	51	C16H21O3+
271.1329	45	
271.1693	52	
277.1434	64	
281.19	33	
282.1733	49	
283.1693	101	C19H23O2+
285.1485	32	
295.1693	42	
295.2057	47	C21H27O1+
299.1642	49	
300.1835	42	
309.1849	54	
311.1642	39	C20H23O3+
313.2162	55	
323.2006	50	
323.237	49	
327.2319	63	
329.1011	32	
333.2213	45	
337.2162	52	
341.2475	45	
351.2319	389	C24H31O2+
355.2268	90	
361.2162	137	
369.2424	876	
376.2147	35	
379.2268	535	
397.2374	999	
411.253	50	
