Mass spectrum: NX2 toxin; LC-APCI-ITFT; MS2; CE: 55; R=17500; [M+H]+
Name: NX2 toxin
Class: Natural Product; Fungal metabolite
Formula: C17H24O6
Exact mass: 324.15728
SMILES: CC1=C[C@@H]2[C@]([C@@]3(C)C[C@@H](OC(C)=O)[C@@H](O2)[C@@]34CO4)(CO)[C@H](O)C1
InChI: InChI=1S/C17H24O6/c1-9-4-12(20)16(7-18)13(5-9)23-14-11(22-10(2)19)6-15(16,3)17(14)8-21-17/h5,11-14,18,20H,4,6-8H2,1-3H3/t11-,12-,13-,14-,15-,16+,17+/m1/s1
Instrument: Q-Exactive Orbitrap Thermo Scientific
Instrument type: LC-APCI-ITFT
Ms type: MS2
Ion mode: POSITIVE
Ionization: APCI
Fragmentation mode: HCD
Collision energy: 55(NCE)
Resolution: 17500
Column name: Agilent RRHD Eclipse 50 x 2 mm, 1.8 uM
Retention time: 2.75
Base peak: 105.0705
Precursor m/z: 325.164
Precursor type: [M+H]+
m/z	relative intensity	assigned
67.0551	92	
69.0344	158	
69.0709	37	
71.0501	40	
79.0551	314	
81.0707	416	
83.05	97	
85.0648	63	
91.0542	393	
93.0699	624	
95.0491	293	
95.0855	115	
97.0648	201	
99.0441	37	
103.0542	44	
105.0699	999	
107.0491	116	
107.0855	107	
109.0648	481	
111.0441	36	
115.0542	48	
117.0699	177	
119.0491	124	
119.0855	288	
121.0648	711	
121.1012	43	
123.0804	80	
125.0597	146	
128.0621	186	
129.0699	214	
130.0777	53	
131.0855	417	
133.0648	157	
133.1012	186	
135.0804	74	
139.0754	159	
141.0699	145	
142.0777	297	
143.0855	627	
144.0934	48	
145.0648	95	
145.1012	333	
147.0804	139	
149.0961	40	
153.0699	95	
154.0777	107	
155.0855	256	
156.0934	244	
157.1012	366	
158.0726	68	
159.0804	191	
159.1168	154	
161.0961	119	
163.1118	43	
165.0699	62	
166.0777	130	
167.0855	39	
168.0934	226	
169.1012	145	
171.0804	76	
171.1168	230	
172.0883	45	
173.0961	186	
173.1325	36	C13H17+
175.1118	54	
178.0777	42	
181.0648	33	
181.1012	152	
183.1168	133	
184.0883	73	
185.0961	39	
187.1118	131	
193.1012	56	
196.0883	68	
199.1118	198	
201.1274	36	
211.1118	46	
217.1223	59	
