Mass spectrum: 15-Acetyldeoxynivalenol; LC-APCI-ITFT; MS2; CE: 55; R=17500; [M+H]+
Name: 15-Acetyldeoxynivalenol
Name: 15-monoacetyldeoxynivalenol
Class: Natural Product; Fungal metabolite
Formula: C17H22O7
Exact mass: 338.13654
SMILES: CC1=C[C@@H]2[C@]([C@@H](C1=O)O)([C@]3(C[C@H]([C@H]([C@@]34CO4)O2)O)C)COC(=O)C
InChI: InChI=1S/C17H22O7/c1-8-4-11-16(6-22-9(2)18,13(21)12(8)20)15(3)5-10(19)14(24-11)17(15)7-23-17/h4,10-11,13-14,19,21H,5-7H2,1-3H3/t10-,11-,13-,14-,15-,16-,17+/m1/s1
Instrument: Q-Exactive Orbitrap Thermo Scientific
Instrument type: LC-APCI-ITFT
Ms type: MS2
Ion mode: POSITIVE
Ionization: APCI
Fragmentation mode: HCD
Collision energy: 55(NCE)
Resolution: 17500
Column name: Agilent RRHD Eclipse 50 x 2 mm, 1.8 uM
Retention time: 2.71
Base peak: 137.0602
Precursor m/z: 339.1433
Precursor type: [M+H]+
m/z	relative intensity	assigned
54.8948	61	
59.5789	79	
59.6675	65	
59.9721	59	
65.4315	76	
67.055	134	
69.0343	415	
79.0555	315	
81.0707	332	
83.0491	99	
91.0554	132	
91.2478	73	
92.1859	89	
95.0491	176	
97.0648	77	
99.9264	80	
105.0699	433	
107.0491	170	
107.0855	146	
109.066	365	
117.0699	97	
119.0855	92	
121.0648	162	
125.0597	193	
129.0699	94	
131.0855	327	
135.0804	130	
137.0597	999	
143.0855	191	
145.1012	140	
147.0804	94	C10H11O1+
155.3011	86	
157.1012	169	
159.0804	312	
161.0597	136	
168.3182	82	
172.0883	83	
173.0961	133	
175.0754	390	
189.091	169	
213.091	132	
267.787	86	
296.4437	79	
