Mass spectrum: Fumonisin B3; LC-ESI-ITFT; MS2; CE: 50; R=17500; [M+Na]+
Name: Fumonisin B3
Class: Natural Product; Fungal metabolite
Formula: C34H59NO14
Exact mass: 705.39354
SMILES: CCCC[C@@H](C)[C@H]([C@H](C[C@@H](C)C[C@@H](CCCCCC[C@@H]([C@@H](C)N)O)O)OC(=O)CC(CC(=O)O)C(=O)O)OC(=O)CC(CC(=O)O)C(=O)O
InChI: InChI=1S/C34H59NO14/c1-5-6-11-21(3)32(49-31(43)19-24(34(46)47)17-29(40)41)27(48-30(42)18-23(33(44)45)16-28(38)39)15-20(2)14-25(36)12-9-7-8-10-13-26(37)22(4)35/h20-27,32,36-37H,5-19,35H2,1-4H3,(H,38,39)(H,40,41)(H,44,45)(H,46,47)/t20-,21+,22+,23?,24?,25+,26-,27-,32+/m0/s1
Instrument: Q-Exactive Orbitrap Thermo Scientific
Instrument type: LC-ESI-ITFT
Ms type: MS2
Ion mode: POSITIVE
Ionization: ESI
Fragmentation mode: HCD
Collision energy: 50(NCE)
Resolution: 17500
Column name: Agilent RRHD Eclipse 50 x 2 mm, 1.8 uM
Retention time: 2.83
Base peak: 81.0703
Precursor m/z: 728.3822
Precursor type: [M+Na]+
m/z	relative intensity	assigned
55.055	233	
57.0705	268	
67.0542	461	
69.0699	582	
70.0651	311	
79.0542	216	
81.0699	999	
83.0855	187	
84.0808	43	
85.0648	35	
85.1012	50	
91.0542	105	
93.0699	262	
95.0855	956	
97.1012	143	C7H13+
105.0699	161	
107.0855	244	
109.1012	460	
113.0233	50	
119.0855	53	
121.1012	169	C9H13+
123.1168	221	
133.1012	103	
135.1168	98	
147.1168	102	
151.1481	34	
159.0288	54	
170.154	259	
199.0213	630	
210.1462	40	
238.2142	100	
296.2193	36	
336.3261	53	C22H42N1O1+
376.3183	135	
394.3289	128	
