Mass spectrum: Neosolaniol; LC-ESI-ITFT; MS2; CE: 35; R=17500; [M+H]+
Name: Neosolaniol
Class: Natural Product; Fungal metabolite
Formula: C19H26O8
Exact mass: 382.16276
SMILES: CC1=C[C@@H]2[C@](C[C@@H]1O)([C@]3([C@@H]([C@H]([C@H]([C@@]34CO4)O2)O)OC(=O)C)C)COC(=O)C
InChI: InChI=1S/C19H26O8/c1-9-5-13-18(6-12(9)22,7-24-10(2)20)17(4)15(26-11(3)21)14(23)16(27-13)19(17)8-25-19/h5,12-16,22-23H,6-8H2,1-4H3/t12-,13+,14+,15+,16+,17+,18+,19-/m0/s1
Instrument: Q-Exactive Orbitrap Thermo Scientific
Instrument type: LC-ESI-ITFT
Ms type: MS2
Ion mode: POSITIVE
Ionization: ESI
Fragmentation mode: HCD
Collision energy: 35(NCE)
Resolution: 17500
Column name: Agilent RRHD Eclipse 50 x 2 mm, 1.8 uM
Retention time: 2.84
Base peak: 121.0644
Precursor m/z: 383.1695
Precursor type: [M+H]+
m/z	relative intensity	assigned
50.0091	41	
50.2367	43	
53.7868	46	
57.4392	47	
59.5561	46	
69.0342	67	
72.115	47	
77.683	47	
79.0542	113	
91.0542	63	C7H7+
93.0699	189	
95.0491	135	
97.0648	273	C6H9O1+
105.0699	69	
106.3345	55	
107.0491	122	
109.0648	123	C7H9O1+
115.5105	53	
119.0855	101	
121.0648	999	
123.0441	56	
125.0597	322	
133.0648	60	
137.443	66	
143.0855	256	
145.1012	249	
147.0804	127	
149.0597	70	C9H9O2+
156.0934	77	
157.1012	240	
159.0804	134	
159.1168	251	C12H15+
161.0961	93	
162.2567	50	
163.0754	76	
169.1012	248	
171.0804	130	
171.1168	114	
173.0961	448	
173.5608	55	
175.1118	126	
181.1012	77	
185.0961	268	
187.1118	494	
189.1274	84	
191.1067	70	
197.0961	458	
199.1118	444	
203.1067	124	
209.0961	88	
215.1067	475	
217.1223	227	
227.1067	242	C15H15O2+
245.1172	381	
263.1278	230	
301.3207	55	
338.4549	68	
