Mass spectrum: Deoxynivalenol-3-glucoside; LC-APCI-ITFT; MS2; CE: 40; R=17500; [M+H]+
Name: Deoxynivalenol-3-glucoside
Name: (3alpha,7beta,12epsilon)-7,15-Dihydroxy-8-oxo-12,13-epoxytrichothec-9-en-3-yl beta-D-glucopyranoside
Class: Natural Product; Fungal metabolite
Formula: C21H30O11
Exact mass: 458.17879
SMILES: CC1=C[C@@H]2[C@]([C@@H](C1=O)O)([C@]3(C[C@H]([C@H]([C@@]34CO4)O2)O[C@H]5[C@@H]([C@H]([C@@H]([C@H](O5)CO)O)O)O)C)CO
InChI: InChI=1S/C21H30O11/c1-8-3-11-20(6-23,16(28)12(8)24)19(2)4-9(17(32-11)21(19)7-29-21)30-18-15(27)14(26)13(25)10(5-22)31-18/h3,9-11,13-18,22-23,25-28H,4-7H2,1-2H3/t9-,10-,11-,13-,14+,15-,16-,17-,18-,19-,20-,21+/m1/s1
Instrument: Q-Exactive Orbitrap Thermo Scientific
Instrument type: LC-APCI-ITFT
Ms type: MS2
Ion mode: POSITIVE
Ionization: APCI
Fragmentation mode: HCD
Collision energy: 40(NCE)
Resolution: 17500
Column name: Agilent RRHD Eclipse 50 x 2 mm, 1.8 uM
Retention time: 2.2
Base peak: 189.092
Precursor m/z: 459.1855
Precursor type: [M+H]+
m/z	relative intensity	assigned
55.0188	47	
61.0295	50	
61.7987	31	
69.0343	455	
79.0542	178	
81.0347	74	
81.0707	210	
83.0491	52	
85.0294	912	
91.0542	55	
93.0699	210	
95.0491	160	
97.0284	80	
97.0648	293	
105.0699	70	
107.0491	66	C7H7O1+
109.0284	156	
109.0648	399	
111.0441	71	
117.0699	59	
119.0855	46	
120.2213	36	
121.0648	181	
123.0441	194	
123.0804	45	
125.0597	579	
127.039	87	
127.0754	43	C7H11O2+
129.0699	45	
131.0855	90	
133.0648	181	C9H9O1+
133.1012	58	C10H13+
134.9868	34	
135.0804	154	
137.0597	831	
138.2044	37	
143.0855	51	
145.0648	59	
145.1012	154	
147.0804	185	C10H11O1+
149.0597	72	
149.0961	76	
151.039	52	
153.0546	176	
157.1012	233	
159.0804	231	
159.1168	172	C12H15+
161.0597	360	
161.0709	35	
161.0961	319	C11H13O1+
162.0675	44	
163.0754	79	
165.091	267	
167.0855	55	
171.0804	151	
173.0961	395	
175.0754	981	
175.1118	332	
177.091	549	
184.4346	37	
185.0961	515	
187.0754	93	
187.1118	213	
189.091	999	
191.1067	174	
197.0961	80	
198.0675	175	
201.091	454	
203.1067	918	
213.091	534	
215.1067	247	
219.1016	634	
221.1172	46	
231.1016	980	
233.1172	44	
249.1121	575	
251.1278	62	
261.0861	39	
261.1121	214	
272.884	38	
279.1227	53	
290.8311	41	
297.1333	77	
309.1032	44	
