Mass spectrum: Hydroxy-roquefortine C; LC-ESI-ITFT; MS2; CE: 40; R=17500; [M+H]+
Name: Hydroxy-roquefortine C
Class: Natural Product; Fungal metabolite
Formula: C22H23N5O3
Exact mass: 405.18008
SMILES: CC(C)(C=C)C12CC3C(=O)N/C(=C/C4=CN=CN4)/C(=O)N3C1N(C5=CC=CC=C25)O
InChI: InChI=1S/C22H23N5O3/c1-4-21(2,3)22-10-17-18(28)25-15(9-13-11-23-12-24-13)19(29)26(17)20(22)27(30)16-8-6-5-7-14(16)22/h4-9,11-12,17,20,30H,1,10H2,2-3H3,(H,23,24)(H,25,28)/b15-9+
Instrument: Q-Exactive Orbitrap Thermo Scientific
Instrument type: LC-ESI-ITFT
Ms type: MS2
Ion mode: POSITIVE
Ionization: ESI
Fragmentation mode: HCD
Collision energy: 40(NCE)
Resolution: 17500
Column name: Agilent RRHD Eclipse 50 x 2 mm, 1.8 uM
Retention time: 2.66
Base peak: 193.0723
Precursor m/z: 406.1868
Precursor type: [M+H]+
m/z	relative intensity	assigned
58.5778	45	
69.0707	95	
79.4259	51	
84.3859	50	
108.0556	104	
110.0713	59	C5H8N3+
130.0651	126	
136.0505	93	
162.0298	338	
168.1288	61	
175.0614	57	
184.1121	115	
185.0709	62	
191.0563	58	
192.0642	132	
193.072	999	
198.1277	129	
207.0512	123	
214.1226	85	
280.9305	68	
320.1142	277	
321.0982	74	
338.1248	276	
