Mass spectrum: Cercosporin; LC-ESI-ITFT; MS2; CE: 20; R=17500; [M+H]+
Name: Cercosporin
Class: Natural Product; Fungal metabolite
Formula: C29H26O10
Exact mass: 534.15258
SMILES: C[C@H](CC1=C(C(=C2C(=O)C=C3C4=C5C(=CC(=O)C6=C(C(=C(C(=C56)C1=C42)C[C@@H](C)O)OC)O)OCO3)O)OC)O
InChI: InChI=1S/C29H26O10/c1-10(30)5-12-18-19-13(6-11(2)31)29(37-4)27(35)21-15(33)8-17-23(25(19)21)22-16(38-9-39-17)7-14(32)20(24(18)22)26(34)28(12)36-3/h7-8,10-11,30-31,34-35H,5-6,9H2,1-4H3/t10-,11-/m1/s1
Instrument: Q-Exactive Orbitrap Thermo Scientific
Instrument type: LC-ESI-ITFT
Ms type: MS2
Ion mode: POSITIVE
Ionization: ESI
Fragmentation mode: HCD
Collision energy: 20(NCE)
Resolution: 17500
Column name: Agilent RRHD Eclipse 50 x 2 mm, 1.8 uM
Retention time: 3.63
Base peak: 415.0794
Precursor m/z: 535.1593
Precursor type: [M+H]+
m/z	relative intensity	assigned
383.055	31	
415.0812	999	
425.102	116	
427.0812	75	
429.0969	89	
429.1333	80	
441.0969	68	
443.0641	157	
443.1197	47	
453.0969	83	
457.1282	168	
459.1074	104	
467.1125	102	
469.1282	32	
475.1023	88	
485.1231	532	
499.1387	126	
503.1336	144	
517.1493	94	
535.1599	625	
