Mass spectrum: Penitrem A; LC-ESI-ITFT; MS2; CE: 30; R=17500; [M+H]+
Name: Penitrem A
Class: Natural Product; Fungal metabolite
Formula: C37H44ClNO6
Exact mass: 633.28572
SMILES: CC(=C)[C@@H]1[C@@H]([C@@H]2[C@@]3(O2)[C@@H](O1)CC[C@]4([C@]3(CC[C@@H]5[C@@]4(C6=C7[C@H]5OC([C@H]8C[C@H]9[C@@]8(C1=C7C(=CC(=C1CC9=C)Cl)N6)O)(C)C)C)O)C)O
InChI: InChI=1S/C37H44ClNO6/c1-15(2)28-27(40)31-37(45-31)23(43-28)9-10-33(6)34(7)18(8-11-35(33,37)41)29-25-24-21(39-30(25)34)14-20(38)17-12-16(3)19-13-22(32(4,5)44-29)36(19,42)26(17)24/h14,18-19,22-23,27-29,31,39-42H,1,3,8-13H2,2,4-7H3/t18-,19+,22+,23-,27-,28+,29-,31+,33+,34+,35-,36+,37-/m0/s1
Instrument: Q-Exactive Orbitrap Thermo Scientific
Instrument type: LC-ESI-ITFT
Ms type: MS2
Ion mode: POSITIVE
Ionization: ESI
Fragmentation mode: HCD
Collision energy: 30(NCE)
Resolution: 17500
Column name: Agilent RRHD Eclipse 50 x 2 mm, 1.8 uM
Retention time: 4.21
Base peak: 558.2385
Precursor m/z: 634.2925
Precursor type: [M+H]+
m/z	relative intensity	assigned
83.0496	66	
85.0653	47	
93.0699	43	
121.0648	34	
135.0804	38	
147.0804	32	
161.0961	50	
173.0961	42	
175.1118	32	
242.0362	100	
244.0519	49	
254.0726	76	
282.0653	38	
284.0468	107	
294.0675	49	
295.0754	46	
296.0832	246	
304.0883	42	
306.1017	107	
308.0832	53	
309.091	60	
310.0966	42	
312.1123	46	
318.1039	51	
320.1174	53	
332.1196	570	
334.159	64	
335.1647	144	
336.1123	34	
344.1174	80	
346.1352	49	
348.1123	32	
355.1096	36	
356.1174	38	
358.0966	36	
358.1352	41	
360.1123	35	
364.1436	112	
368.1174	167	
370.1352	267	
382.1357	32	
394.1357	32	C27H21N1Cl1+
397.1201	40	
398.1279	48	
400.1463	34	
409.1592	48	
410.1724	89	
412.1436	106	
416.1327	45	
427.1756	32	
428.1834	95	
438.1614	67	
440.1856	67	
444.1334	39	
452.1749	56	
456.1698	97	
470.1855	46	
510.17	35	
522.2168	72	
528.1931	116	
529.201	70	
530.2088	111	
540.2273	629	
546.2037	93	
547.2115	89	
548.2193	74	
558.2401	999	
580.2586	31	
598.2719	138	
616.2824	45	
