Mass spectrum: Frequentin; LC-ESI-ITFT; MS2; CE: 40; R=17500; [M+H]+
Name: Frequentin
Name: Frequentine
Name: 6-[(1E,3E)-hepta-1,3-dienyl]-3,4-dihydroxy-2-oxocyclohexane-1-carbaldehyde
Class: Natural Product; Fungal metabolite
Formula: C14H20O4
Exact mass: 252.13616
SMILES: CCC/C=C/C=C/[C@@H]1C[C@H]([C@H](C(=O)[C@H]1C=O)O)O
InChI: InChI=1S/C14H20O4/c1-2-3-4-5-6-7-10-8-12(16)14(18)13(17)11(10)9-15/h4-7,9-12,14,16,18H,2-3,8H2,1H3/b5-4+,7-6+/t10-,11+,12-,14-/m1/s1
Instrument: Q-Exactive Orbitrap Thermo Scientific
Instrument type: LC-ESI-ITFT
Ms type: MS2
Ion mode: POSITIVE
Ionization: ESI
Fragmentation mode: HCD
Collision energy: 40(NCE)
Resolution: 17500
Column name: Agilent RRHD Eclipse 50 x 2 mm, 1.8 uM
Retention time: 3.68
Base peak: 111.0439
Precursor m/z: 253.1429
Precursor type: [M+H]+
m/z	relative intensity	assigned
67.0542	37	
81.0699	38	
83.0491	175	
93.0699	37	
95.0855	46	
97.0284	267	
105.0699	39	C8H9+
107.0491	37	C7H7O1+
107.0855	47	C8H11+
109.0648	31	C7H9O1+
109.1012	34	
111.0441	999	
119.0855	59	
121.1012	65	
133.0648	64	
133.1012	44	
139.039	157	
147.1168	36	
157.0495	151	
