Mass spectrum: Andrastin C; LC-ESI-ITFT; MS2; CE: 55; R=17500; [M-H]-
Name: Andrastin C
Name: (3S,5S,8S,9S,10R,13R,14R)-3-acetyloxy-17-hydroxy-4,4,8,10,12,13,16-heptamethyl-15-oxo-2,3,5,6,7,9-hexahydro-1H-cyclopenta[a]phenanthrene-14-carboxylic acid
Class: Natural Product; Fungal metabolite
Formula: C27H38O6
Exact mass: 458.26685
SMILES: CC1=C[C@H]2[C@@]3(CC[C@@H](C([C@H]3CC[C@@]2([C@]4([C@@]1(C(=C(C4=O)C)O)C)C(=O)O)C)(C)C)OC(=O)C)C
InChI: InChI=1S/C27H38O6/c1-14-13-18-24(6)11-10-19(33-16(3)28)23(4,5)17(24)9-12-25(18,7)27(22(31)32)21(30)15(2)20(29)26(14,27)8/h13,17-19,29H,9-12H2,1-8H3,(H,31,32)/t17-,18+,19+,24-,25+,26+,27-/m1/s1
Instrument: Q-Exactive Orbitrap Thermo Scientific
Instrument type: LC-ESI-ITFT
Ms type: MS2
Ion mode: NEGATIVE
Ionization: ESI
Fragmentation mode: HCD
Collision energy: 55(NCE)
Resolution: 17500
Column name: Agilent RRHD Eclipse 50 x 2 mm, 1.8 uM
Retention time: 4.32
Base peak: 397.2369
Precursor m/z: 457.2601
Precursor type: [M-H]-
m/z	relative intensity	assigned
51.3524	43	
56.5546	43	
59.52	39	
59.6117	44	
62.8747	44	
63.6682	44	
95.6134	48	
103.6868	54	
117.8878	47	
242.0737	66	
323.2017	132	
365.2122	89	
397.2384	999	
