Mass spectrum: Walleminone; LC-ESI-ITFT; MS2; CE: 35; R=17500; [M+H]+
Name: Walleminone
Name: (1R,4S,5S,6R,9R)-5,6-dihydroxy-4,11,11-trimethyl-8-methylidenebicyclo[7.2.0]undecan-3-one
Class: Natural Product; Fungal metabolite
Formula: C15H24O3
Exact mass: 252.17255
SMILES: C[C@H]1[C@@H]([C@@H](CC(=C)[C@@H]2CC([C@@H]2CC1=O)(C)C)O)O
InChI: InChI=1S/C15H24O3/c1-8-5-13(17)14(18)9(2)12(16)6-11-10(8)7-15(11,3)4/h9-11,13-14,17-18H,1,5-7H2,2-4H3/t9-,10+,11-,13-,14+/m1/s1
Instrument: Q-Exactive Orbitrap Thermo Scientific
Instrument type: LC-ESI-ITFT
Ms type: MS2
Ion mode: POSITIVE
Ionization: ESI
Fragmentation mode: HCD
Collision energy: 35(NCE)
Resolution: 17500
Column name: Agilent RRHD Eclipse 50 x 2 mm, 1.8 uM
Retention time: 3.44
Base peak: 121.1009
Precursor m/z: 253.1793
Precursor type: [M+H]+
m/z	relative intensity	assigned
57.0341	70	
57.0705	84	
67.0542	182	
69.0335	65	
69.0699	224	
71.0491	76	
79.0542	72	
81.0699	289	
83.0491	189	
83.0855	280	
85.0284	90	
85.0648	133	
91.0542	82	
93.0699	321	
95.0491	205	
95.0855	623	
97.0648	139	
97.1012	35	
99.0441	86	C5H7O2+
99.0804	32	C6H11O1+
103.039	62	
105.0699	250	C8H9+
107.0855	529	C8H11+
109.0648	377	
109.1012	476	
111.0804	97	C7H11O1+
113.0597	74	
119.0855	681	
121.0648	56	
121.1012	999	
123.0804	204	
123.1168	382	
125.0597	410	
125.0961	100	
127.0754	63	
133.1012	680	
135.0804	44	
135.1168	460	
137.0961	379	
137.1325	73	
139.1118	63	
141.091	49	
143.0855	40	
145.1012	137	
147.0804	37	
147.1168	270	
149.0961	116	
149.1325	55	
151.1118	146	
151.1481	132	
153.091	58	
153.1274	52	
155.0703	287	
155.1067	89	
157.1012	36	
159.1168	63	
161.0961	216	
161.1325	413	
163.1118	316	
165.091	88	
167.1067	161	
173.1325	60	
175.1118	63	
175.1481	619	
177.1274	45	
179.1067	603	
179.1431	180	
180.1145	40	
181.1223	240	
189.1638	137	
193.1223	49	
193.1587	65	
197.1172	64	
199.1481	50	
217.1587	157	
235.1693	257	
253.1798	627	
