Mass spectrum: Satratoxin G; LC-ESI-ITFT; MS2; CE: 55; R=17500; [M+H]+
Name: Satratoxin G
Class: Natural Product; Fungal metabolite
Formula: C29H36O10
Exact mass: 544.23084
SMILES: CC1=CC2C3(CC1)COC(=O)C4C5(O4)CCOC(C5O)(/C=C/C=C\C(=O)OC6C3(C7(CO7)C(C6)O2)C)C(C)O
InChI: InChI=1S/C29H36O10/c1-16-7-9-26-14-34-23(32)22-28(39-22)10-11-35-27(17(2)30,24(28)33)8-5-4-6-21(31)38-18-13-20(37-19(26)12-16)29(15-36-29)25(18,26)3/h4-6,8,12,17-20,22,24,30,33H,7,9-11,13-15H2,1-3H3/b6-4-,8-5+
Instrument: Q-Exactive Orbitrap Thermo Scientific
Instrument type: LC-ESI-ITFT
Ms type: MS2
Ion mode: POSITIVE
Ionization: ESI
Fragmentation mode: HCD
Collision energy: 55(NCE)
Resolution: 17500
Column name: Agilent RRHD Eclipse 50 x 2 mm, 1.8 uM
Retention time: 3.18
Base peak: 105.0708
Precursor m/z: 545.2376
Precursor type: [M+H]+
m/z	relative intensity	assigned
50.2337	35	
51.0339	31	
53.0398	38	
67.0553	171	
69.0345	47	
73.2215	31	
79.0553	278	
80.8772	31	
81.0708	412	
82.3842	33	
91.0552	411	
93.0709	333	
95.0502	310	
95.0855	271	
97.0284	87	
97.0648	41	
99.0441	62	
105.0699	999	
107.0855	84	
109.0648	175	
117.0699	87	
119.0855	185	
121.0648	219	
123.0804	261	
128.0621	47	
129.0699	62	
131.0855	258	
133.0648	65	
141.0699	63	
142.0777	88	
143.0855	266	
144.0934	37	
145.0648	76	
145.1012	63	
147.0804	51	
155.0855	57	
157.1012	79	
159.1168	39	
161.0597	60	
161.0961	59	
165.0699	72	
168.0934	47	
171.1168	53	
340.6464	42	
