Mass spectrum: Nivalenol; LC-ESI-ITFT; MS2; CE: 20; R=17500; [M+H]+
Name: Nivalenol
Name: (3alpha,4beta,7alpha)-3,4,7,15-tetrahydroxy-12,13-epoxytrichothec-9-en-8-one
Class: Natural Product; Fungal metabolite
Formula: C15H20O7
Exact mass: 312.12089
SMILES: CC1=C[C@@H]2[C@]([C@@H](C1=O)O)([C@]3([C@@H]([C@H]([C@H]([C@@]34CO4)O2)O)O)C)CO
InChI: InChI=1S/C15H20O7/c1-6-3-7-14(4-16,11(20)8(6)17)13(2)10(19)9(18)12(22-7)15(13)5-21-15/h3,7,9-12,16,18-20H,4-5H2,1-2H3/t7-,9-,10-,11-,12-,13-,14-,15+/m1/s1
Instrument: Q-Exactive Orbitrap Thermo Scientific
Instrument type: LC-ESI-ITFT
Ms type: MS2
Ion mode: POSITIVE
Ionization: ESI
Fragmentation mode: HCD
Collision energy: 20(NCE)
Resolution: 17500
Column name: Agilent RRHD Eclipse 50 x 2 mm, 1.8 uM
Retention time: 2.15
Base peak: 313.1267
Precursor m/z: 313.1276
Precursor type: [M+H]+
m/z	relative intensity	assigned
52.3831	43	
58.5277	45	
58.6567	46	
84.9266	46	
91.2588	53	
91.3033	62	
95.0491	81	
107.0491	62	
109.0648	84	
123.0441	75	
125.0597	372	
137.0597	227	
139.0754	59	
145.0648	71	
157.1012	57	
159.0804	114	
161.0597	62	
161.0961	128	
161.7011	61	
163.0754	229	
173.0961	137	
175.0754	839	
175.1118	58	C12H15O1+
177.091	364	
179.0703	87	
185.0961	317	
187.0754	110	
189.091	324	
191.0703	65	
191.1067	89	
201.091	442	
203.1067	303	
205.0859	328	
207.1016	90	
211.0754	67	
213.091	314	
217.0859	85	
219.1016	99	
229.0859	289	
231.1016	473	
235.0965	62	
247.0965	409	
248.8991	563	
249.1121	388	
259.0965	125	
265.107	236	
266.9101	551	
277.107	538	
295.1176	880	
313.1282	999	
