Mass spectrum: Chaetoglobosin A; LC-ESI-ITFT; MS2; CE: 35; R=17500; [M+Na]+
Name: Chaetoglobosin A
Class: Natural Product; Fungal metabolite
Formula: C32H36N2O5
Exact mass: 528.26243
SMILES: C[C@H]\1C/C=C/[C@H]2[C@H]3[C@](O3)([C@H]([C@@H]4[C@@]2(C(=O)/C=C/C(=O)[C@@H](/C(=C1)/C)O)C(=O)N[C@H]4CC5=CNC6=CC=CC=C65)C)C
InChI: InChI=1S/C32H36N2O5/c1-17-8-7-10-22-29-31(4,39-29)19(3)27-24(15-20-16-33-23-11-6-5-9-21(20)23)34-30(38)32(22,27)26(36)13-12-25(35)28(37)18(2)14-17/h5-7,9-14,16-17,19,22,24,27-29,33,37H,8,15H2,1-4H3,(H,34,38)/b10-7+,13-12+,18-14+/t17-,19-,22-,24-,27-,28+,29-,31+,32+/m0/s1
Instrument: Q-Exactive Orbitrap Thermo Scientific
Instrument type: LC-ESI-ITFT
Ms type: MS2
Ion mode: POSITIVE
Ionization: ESI
Fragmentation mode: HCD
Collision energy: 35(NCE)
Resolution: 17500
Column name: Agilent RRHD Eclipse 50 x 2 mm, 1.8 uM
Retention time: 3.68
Base peak: 551.2501
Precursor m/z: 551.2511
Precursor type: [M+Na]+
m/z	relative intensity	assigned
160.0366	38	
240.0992	38	
287.1152	47	
289.0945	42	
317.0897	33	
352.1543	41	
371.1727	41	
375.1805	40	
422.1938	51	
505.2462	75	
523.2567	439	
551.2517	999	
