Mass spectrum: Ochratoxin A; LC-ESI-ITFT; MS2; CE: 10; R=17500; [M+H]+
Name: Ochratoxin A
Name: OTA
Name: (-)-N-((5-Chloro-8-hydroxy-3-methyl-1-oxo-7-isochromanyl)carbonyl)-3-phenylalanine
Class: Natural Product; Fungal metabolite
Formula: C20H18ClNO6
Exact mass: 403.08225
SMILES: C[C@@H]1CC2=C(C=C(C(=C2C(=O)O1)O)C(=O)N[C@@H](CC3=CC=CC=C3)C(=O)O)Cl
InChI: InChI=1S/C20H18ClNO6/c1-10-7-12-14(21)9-13(17(23)16(12)20(27)28-10)18(24)22-15(19(25)26)8-11-5-3-2-4-6-11/h2-6,9-10,15,23H,7-8H2,1H3,(H,22,24)(H,25,26)/t10-,15+/m1/s1
Instrument: Q-Exactive Orbitrap Thermo Scientific
Instrument type: LC-ESI-ITFT
Ms type: MS2
Ion mode: POSITIVE
Ionization: ESI
Fragmentation mode: HCD
Collision energy: 10(NCE)
Resolution: 17500
Column name: Agilent RRHD Eclipse 50 x 2 mm, 1.8 uM
Retention time: 3.6
Base peak: 358.0822
Precursor m/z: 404.089
Precursor type: [M+H]+
m/z	relative intensity	assigned
120.0808	98	
239.0106	192	
257.0211	180	
341.0575	64	
358.0841	999	
386.079	146	
404.0895	898	
