Mass spectrum: Enniatin B1; LC-ESI-ITFT; MS2; CE: 50; R=17500; [M+Na]+
Name: Enniatin B1
Class: Natural Product; Fungal metabolite
Formula: C34H59N3O9
Exact mass: 653.42513
SMILES: CC[C@H](C)[C@H]1C(=O)O[C@@H](C(=O)N([C@H](C(=O)O[C@@H](C(=O)N([C@H](C(=O)O[C@@H](C(=O)N1C)C(C)C)C(C)C)C)C(C)C)C(C)C)C)C(C)C
InChI: InChI=1S/C34H59N3O9/c1-16-22(12)25-34(43)46-27(20(8)9)30(39)36(14)23(17(2)3)32(41)44-26(19(6)7)29(38)35(13)24(18(4)5)33(42)45-28(21(10)11)31(40)37(25)15/h17-28H,16H2,1-15H3/t22-,23-,24-,25-,26+,27+,28+/m0/s1
Instrument: Q-Exactive Orbitrap Thermo Scientific
Instrument type: LC-ESI-ITFT
Ms type: MS2
Ion mode: POSITIVE
Ionization: ESI
Fragmentation mode: HCD
Collision energy: 50(NCE)
Resolution: 17500
Column name: Agilent RRHD Eclipse 50 x 2 mm, 1.8 uM
Retention time: 5.18
Base peak: 218.1141
Precursor m/z: 676.4138
Precursor type: [M+Na]+
m/z	relative intensity	assigned
83.0491	166	
86.0964	568	
98.0964	38	
100.1121	407	C6H14N1+
123.0417	138	
141.0509	150	
154.0836	67	
168.1383	333	
182.154	177	
196.1332	356	
210.1489	170	
218.1135	999	
232.1292	530	
236.1241	259	
250.1397	108	
254.1346	48	
322.1609	48	
336.1765	800	C13H26N3O7+
350.1922	347	
354.1871	45	
