Mass spectrum: Oxaline; LC-ESI-ITFT; MS2; CE: 55; R=17500; [M+H]+
Name: Oxaline
Class: Natural Product; Fungal metabolite
Formula: C24H25N5O4
Exact mass: 447.19064
SMILES: C=CC(C)(C)[C@]12C=C(C(=O)N3/C(=C/c4cnc[nH]4)/C(=N[C@@]23N(c2ccccc12)OC)O)OC
InChI: InChI=1S/C24H25N5O4/c1-6-22(2,3)23-12-19(32-4)21(31)28-18(11-15-13-25-14-26-15)20(30)27-24(23,28)29(33-5)17-10-8-7-9-16(17)23/h6-14H,1H2,2-5H3,(H,25,26)(H,27,30)/b18-11+/t23-,24-/m0/s1
Instrument: Q-Exactive Orbitrap Thermo Scientific
Instrument type: LC-ESI-ITFT
Ms type: MS2
Ion mode: POSITIVE
Ionization: ESI
Fragmentation mode: HCD
Collision energy: 55(NCE)
Resolution: 17500
Column name: Agilent RRHD Eclipse 50 x 2 mm, 1.8 uM
Retention time: 2.73
Base peak: 261.0764
Precursor m/z: 448.1974
Precursor type: [M+H]+
m/z	relative intensity	assigned
69.0699	54	
81.0447	211	
93.0447	31	
106.04	100	
107.0478	191	
108.0556	211	
111.0553	50	
118.04	70	
119.024	167	C6H3N2O1+
121.0396	41	C6H5N2O1+
133.0509	52	
161.0458	60	
162.0298	45	
169.076	82	
171.0553	54	
181.0886	95	
185.0709	37	
196.1121	51	
197.0709	149	
198.0662	35	
199.0488	41	
204.0516	131	
214.0737	76	
214.1226	177	
219.0791	45	
233.0822	52	
234.0662	53	
234.09	128	
235.0978	53	
245.0808	73	
246.0887	146	
260.0931	181	
261.0771	999	
262.0849	72	
263.0927	133	
274.0849	243	
275.0927	46	
277.1097	116	
288.088	152	
289.072	384	
289.0958	92	
290.0798	54	
301.072	76	
305.0921	47	C18H13N2O3+
316.0829	273	
317.0907	308	
318.0985	32	
320.1142	31	
333.0856	35	
342.1349	54	
344.1506	35	
348.1091	57	
358.1662	44	
374.1611	35	
