Mass spectrum: Diacetoxyscirpenol; LC-ESI-ITFT; MS2; CE: 10; R=17500; [M+H]+
Name: Diacetoxyscirpenol
Name: Anguidine, Anguidin
Name: (3beta,4alpha,12R)-3-Hydroxy-12,13-epoxytrichothec-9-ene-4,15-diyl diacetate
Class: Natural Product; Fungal metabolite
Formula: C19H26O7
Exact mass: 366.16785
SMILES: CC1=C[C@@H]2[C@](CC1)([C@]3([C@@H]([C@H]([C@H]([C@]34CO4)O2)O)OC(=O)C)C)COC(=O)C
InChI: InChI=1S/C19H26O7/c1-10-5-6-18(8-23-11(2)20)13(7-10)26-16-14(22)15(25-12(3)21)17(18,4)19(16)9-24-19/h7,13-16,22H,5-6,8-9H2,1-4H3/t13-,14-,15-,16-,17-,18-,19-/m1/s1
Instrument: Q-Exactive Orbitrap Thermo Scientific
Instrument type: LC-ESI-ITFT
Ms type: MS2
Ion mode: POSITIVE
Ionization: ESI
Fragmentation mode: HCD
Collision energy: 10(NCE)
Resolution: 17500
Column name: Agilent RRHD Eclipse 50 x 2 mm, 1.8 uM
Retention time: 3.05
Base peak: 307.1524
Precursor m/z: 367.1746
Precursor type: [M+H]+
m/z	relative intensity	assigned
105.0699	202	
107.0855	54	
109.0648	37	
123.0804	73	
125.0597	89	
157.1012	55	
159.1168	40	
161.0961	52	
171.1168	41	
173.1325	51	
175.1118	48	
183.1168	84	
185.0808	78	
187.1118	56	
199.1118	120	
201.1274	246	
211.1118	122	
217.1223	105	
219.138	79	
229.1223	421	
247.1329	458	
265.1434	112	
277.1434	34	
289.1434	289	
307.154	999	
325.1646	50	
349.1646	465	
367.1751	969	
