Mass spectrum: Roridin A; LC-ESI-ITFT; MS2; CE: 35; R=17500; [M+Na]+
Name: Roridin A
Class: Natural Product; Fungal metabolite
Formula: C29H40O9
Exact mass: 532.26723
SMILES: C[C@@H]1CCO[C@H](/C=C/C=C\C(=O)O[C@@H]2C[C@@H]3[C@]4([C@]2([C@]5(CCC(=C[C@H]5O3)C)COC(=O)[C@H]1O)C)CO4)[C@@H](C)O
InChI: InChI=1S/C29H40O9/c1-17-9-11-28-15-35-26(33)25(32)18(2)10-12-34-20(19(3)30)7-5-6-8-24(31)38-21-14-23(37-22(28)13-17)29(16-36-29)27(21,28)4/h5-8,13,18-23,25,30,32H,9-12,14-16H2,1-4H3/b7-5+,8-6-/t18-,19-,20-,21-,22-,23-,25+,27-,28-,29+/m1/s1
Instrument: Q-Exactive Orbitrap Thermo Scientific
Instrument type: LC-ESI-ITFT
Ms type: MS2
Ion mode: POSITIVE
Ionization: ESI
Fragmentation mode: HCD
Collision energy: 35(NCE)
Resolution: 17500
Column name: Agilent RRHD Eclipse 50 x 2 mm, 1.8 uM
Retention time: 3.46
Base peak: 555.254
Precursor m/z: 555.2559
Precursor type: [M+Na]+
m/z	relative intensity	assigned
171.0628	40	
177.0522	101	
231.138	95	
279.1203	157	
325.1258	169	
555.2565	999	
