Mass spectrum: Walleminone; LC-ESI-ITFT; MS2; CE: 20; R=17500; [M-H2O+H]+
Name: Walleminone
Name: (1R,4S,5S,6R,9R)-5,6-dihydroxy-4,11,11-trimethyl-8-methylidenebicyclo[7.2.0]undecan-3-one
Class: Natural Product; Fungal metabolite
Formula: C15H24O3
Exact mass: 252.17255
SMILES: C[C@H]1[C@@H]([C@@H](CC(=C)[C@@H]2CC([C@@H]2CC1=O)(C)C)O)O
InChI: InChI=1S/C15H24O3/c1-8-5-13(17)14(18)9(2)12(16)6-11-10(8)7-15(11,3)4/h9-11,13-14,17-18H,1,5-7H2,2-4H3/t9-,10+,11-,13-,14+/m1/s1
Instrument: Q-Exactive Orbitrap Thermo Scientific
Instrument type: LC-ESI-ITFT
Ms type: MS2
Ion mode: POSITIVE
Ionization: ESI
Fragmentation mode: HCD
Collision energy: 20(NCE)
Resolution: 17500
Column name: Agilent RRHD Eclipse 50 x 2 mm, 1.8 uM
Retention time: 3.44
Base peak: 235.1686
Precursor m/z: 235.1687
Precursor type: [M-H2O+H]+
m/z	relative intensity	assigned
95.0855	38	
105.0699	33	
107.0855	97	
109.0648	63	
109.1012	33	
119.0855	84	C9H11+
121.1012	92	
133.1012	121	
135.1168	41	
143.0855	38	
145.1012	41	
147.1168	36	
159.1168	56	
161.0961	127	
161.1325	607	
163.1118	63	
173.1325	102	
175.1118	50	
175.1481	203	
177.1274	94	
179.1067	32	
189.1638	103	
199.1481	86	
217.1587	334	
235.1693	999	
