Mass spectrum: Citrinin; LC-ESI-ITFT; MS2; CE: 40; R=17500; [M+H]+
Name: Citrinin
Name: Antimycin
Name: (3R,4S)-6-hydroxy-3,4,5-trimethyl-8-oxo-3,4-dihydroisochromene-7-carboxylic acid
Class: Natural Product; Fungal metabolite
Formula: C13H14O5
Exact mass: 250.08411
SMILES: C[C@@H]1[C@H](OC=C2C1=C(C(=C(C2=O)C(=O)O)O)C)C
InChI: InChI=1S/C13H14O5/c1-5-7(3)18-4-8-9(5)6(2)11(14)10(12(8)15)13(16)17/h4-5,7,14H,1-3H3,(H,16,17)/t5-,7-/m1/s1
Instrument: Q-Exactive Orbitrap Thermo Scientific
Instrument type: LC-ESI-ITFT
Ms type: MS2
Ion mode: POSITIVE
Ionization: ESI
Fragmentation mode: HCD
Collision energy: 40(NCE)
Resolution: 17500
Column name: Agilent RRHD Eclipse 50 x 2 mm, 1.8 uM
Retention time: 2.32
Base peak: 233.0818
Precursor m/z: 251.0908
Precursor type: [M+H]+
m/z	relative intensity	assigned
147.0804	39	
191.0703	37	
205.0859	86	
209.0808	36	
215.0703	35	
233.0808	999	
251.0914	428	
