Mass spectrum: 5-hydroxyculmorin; LC-ESI-ITFT; MS2; CE: 40; R=17500; [M-2H2O+H]+
Name: 5-hydroxyculmorin
Name: (1S,3R,3aS,4R,6R,8aR,9R)-Decahydro-1,5,5,8a-tetramethyl-1,4-methanoazulene-3,6,9-triol
Class: Natural Product; Fungal metabolite
Formula: C15H26O3
Exact mass: 254.18821
SMILES: C[C@@]12CC[C@H](C([C@H]3[C@@H]1[C@@H](C[C@@]2(C3O)C)O)(C)C)O
InChI: InChI=1S/C15H26O3/c1-13(2)9(17)5-6-14(3)10-8(16)7-15(14,4)12(18)11(10)13/h8-12,16-18H,5-7H2,1-4H3/t8-,9-,10+,11+,12?,14-,15-/m1/s1
Instrument: Q-Exactive Orbitrap Thermo Scientific
Instrument type: LC-ESI-ITFT
Ms type: MS2
Ion mode: POSITIVE
Ionization: ESI
Fragmentation mode: HCD
Collision energy: 40(NCE)
Resolution: 17500
Column name: Agilent RRHD Eclipse 50 x 2 mm, 1.8 uM
Retention time: 2.56
Base peak: 175.1474
Precursor m/z: 219.1738
Precursor type: [M-2H2O+H]+
m/z	relative intensity	assigned
67.0542	65	
69.0699	144	
71.0491	34	
79.0542	50	
81.0699	183	
83.0491	45	
83.0855	112	
85.0648	80	
91.0542	77	
93.0699	249	
95.0855	455	
97.0648	68	
99.0804	43	
105.0699	264	C8H9+
107.0855	645	C8H11+
109.0648	68	
109.1012	397	
111.0804	135	
117.0699	58	
119.0855	561	
121.0648	33	
121.1012	505	
123.0804	71	
123.1168	131	
125.0961	74	
131.0855	120	
133.1012	450	
135.0804	75	
135.1168	251	
137.0961	47	
137.1325	61	
145.1012	376	
147.1168	194	
149.0961	104	
149.1325	48	
159.1168	501	
161.1325	322	
163.1118	102	
173.1325	228	
175.1481	999	
177.1274	46	
177.1638	293	
191.1795	64	
201.1638	517	
219.1744	817	
