Mass spectrum: Neosolaniol; LC-ESI-ITFT; MS2; CE: 20; R=17500; [M+H]+
Name: Neosolaniol
Class: Natural Product; Fungal metabolite
Formula: C19H26O8
Exact mass: 382.16276
SMILES: CC1=C[C@@H]2[C@](C[C@@H]1O)([C@]3([C@@H]([C@H]([C@H]([C@@]34CO4)O2)O)OC(=O)C)C)COC(=O)C
InChI: InChI=1S/C19H26O8/c1-9-5-13-18(6-12(9)22,7-24-10(2)20)17(4)15(26-11(3)21)14(23)16(27-13)19(17)8-25-19/h5,12-16,22-23H,6-8H2,1-4H3/t12-,13+,14+,15+,16+,17+,18+,19-/m0/s1
Instrument: Q-Exactive Orbitrap Thermo Scientific
Instrument type: LC-ESI-ITFT
Ms type: MS2
Ion mode: POSITIVE
Ionization: ESI
Fragmentation mode: HCD
Collision energy: 20(NCE)
Resolution: 17500
Column name: Agilent RRHD Eclipse 50 x 2 mm, 1.8 uM
Retention time: 2.84
Base peak: 245.1162
Precursor m/z: 383.1695
Precursor type: [M+H]+
m/z	relative intensity	assigned
75.9574	33	
83.6886	38	
87.9703	35	
95.0491	54	
97.0648	78	
105.0699	45	
107.0491	47	
109.0648	94	C7H9O1+
115.2079	48	
121.0648	821	
125.0597	276	
131.0855	57	
137.0597	64	
145.1012	68	
157.1012	97	
159.0804	84	
159.1168	54	
163.0754	54	
171.1168	173	
173.0961	370	
175.1118	93	
179.1067	39	
181.1012	59	
185.0961	269	
187.1118	373	
189.1274	56	
191.1067	87	
197.0961	352	
199.1118	477	
203.1067	176	
205.1223	40	
209.0961	74	
215.1067	727	
217.1223	353	
227.1067	654	
233.1172	268	
235.1329	65	
245.1172	999	
245.1383	70	
263.1278	461	
275.1278	60	
280.265	48	
281.1384	70	
287.1278	62	
305.1384	424	
306.1417	46	
323.1489	335	
365.1595	506	
383.17	272	
