Mass spectrum: Mycophenolic acid; LC-ESI-ITFT; MS2; CE: 40; R=17500; [M-H]-
Name: Mycophenolic acid
Name: Mycophenolate
Name: Myfortic
Name: Melbex
Name: (E)-6-(4-hydroxy-6-methoxy-7-methyl-3-oxo-1H-2-benzofuran-5-yl)-4-methylhex-4-enoic acid
Class: Natural Product; Fungal metabolite
Formula: C17H20O6
Exact mass: 320.12598
SMILES: CC1=C(C(=C(C2=C1COC2=O)O)C/C=C(\C)/CCC(=O)O)OC
InChI: InChI=1S/C17H20O6/c1-9(5-7-13(18)19)4-6-11-15(20)14-12(8-23-17(14)21)10(2)16(11)22-3/h4,20H,5-8H2,1-3H3,(H,18,19)/b9-4+
Instrument: Q-Exactive Orbitrap Thermo Scientific
Instrument type: LC-ESI-ITFT
Ms type: MS2
Ion mode: NEGATIVE
Ionization: ESI
Fragmentation mode: HCD
Collision energy: 40(NCE)
Resolution: 17500
Column name: Agilent RRHD Eclipse 50 x 2 mm, 1.8 uM
Retention time: 3.36
Base peak: 191.033
Precursor m/z: 319.1192
Precursor type: [M-H]-
m/z	relative intensity	assigned
73.0275	38	
95.0481	72	
135.043	53	
148.0508	33	
161.0954	33	
173.0585	37	
179.0329	473	
189.0899	45	
191.033	999	
192.0407	303	
199.1128	38	
201.0921	32	
203.035	77	
205.0506	149	
207.0663	48	
215.1078	66	
224.0326	44	
225.0921	31	
231.0663	57	
233.0819	99	
243.1027	67	
245.0819	98	
269.0819	71	
275.1276	94	
287.0925	216	
319.1167	320	
