Mass spectrum: Diacetoxyscirpenol; LC-ESI-ITFT; MS2; CE: 20; R=17500; [M+H]+
Name: Diacetoxyscirpenol
Name: Anguidine, Anguidin
Name: (3beta,4alpha,12R)-3-Hydroxy-12,13-epoxytrichothec-9-ene-4,15-diyl diacetate
Class: Natural Product; Fungal metabolite
Formula: C19H26O7
Exact mass: 366.16785
SMILES: CC1=C[C@@H]2[C@](CC1)([C@]3([C@@H]([C@H]([C@H]([C@]34CO4)O2)O)OC(=O)C)C)COC(=O)C
InChI: InChI=1S/C19H26O7/c1-10-5-6-18(8-23-11(2)20)13(7-10)26-16-14(22)15(25-12(3)21)17(18,4)19(16)9-24-19/h7,13-16,22H,5-6,8-9H2,1-4H3/t13-,14-,15-,16-,17-,18-,19-/m1/s1
Instrument: Q-Exactive Orbitrap Thermo Scientific
Instrument type: LC-ESI-ITFT
Ms type: MS2
Ion mode: POSITIVE
Ionization: ESI
Fragmentation mode: HCD
Collision energy: 20(NCE)
Resolution: 17500
Column name: Agilent RRHD Eclipse 50 x 2 mm, 1.8 uM
Retention time: 3.05
Base peak: 307.1523
Precursor m/z: 367.1746
Precursor type: [M+H]+
m/z	relative intensity	assigned
81.0699	70	
93.0699	75	C7H9+
95.0491	67	C6H7O1+
97.0648	66	
105.0699	435	
107.0491	34	C7H7O1+
107.0855	135	
109.0648	101	
113.0597	87	
119.0855	45	
121.0648	123	
123.0804	227	
125.0597	202	
131.0855	56	
137.0597	39	
141.0546	34	
143.0703	55	
143.0855	70	
145.1012	61	
147.0804	34	
155.0703	54	
157.1012	148	
159.0804	47	
159.1168	111	
161.0961	120	
163.1118	61	
167.0703	50	
169.1012	50	
171.1168	95	
173.0961	63	
173.1325	134	
175.1118	133	
181.1012	51	
183.1168	236	
185.0808	52	
187.1118	123	
189.1274	47	
193.1012	37	
193.1223	41	
199.1118	270	
201.1274	509	
205.1223	46	
211.1118	240	
217.1223	217	
219.138	143	
229.1223	711	
235.1329	36	
247.1329	736	
259.1329	37	
265.1434	173	
277.1434	36	
289.1434	305	
307.154	999	
325.1646	56	
349.1646	242	
367.1751	529	
