Mass spectrum: Bostrycin; LC-ESI-ITFT; MS2; CE: 20; R=17500; [M+H]+
Name: Bostrycin
Name: Rhodosporin
Name: (5R,6R,7S)-5,6,7,9,10-pentahydroxy-2-methoxy-7-methyl-6,8-dihydro-5H-anthracene-1,4-dione
Class: Natural Product; Fungal metabolite
Formula: C16H16O8
Exact mass: 336.0845
SMILES: C[C@@]1(CC2=C(C3=C(C(=O)C=C(C3=O)OC)C(=C2[C@H]([C@H]1O)O)O)O)O
InChI: InChI=1S/C16H16O8/c1-16(23)4-5-8(14(21)15(16)22)13(20)9-6(17)3-7(24-2)12(19)10(9)11(5)18/h3,14-15,18,20-23H,4H2,1-2H3/t14-,15-,16+/m1/s1
Instrument: Q-Exactive Orbitrap Thermo Scientific
Instrument type: LC-ESI-ITFT
Ms type: MS2
Ion mode: POSITIVE
Ionization: ESI
Fragmentation mode: HCD
Collision energy: 20(NCE)
Resolution: 17500
Column name: Agilent RRHD Eclipse 50 x 2 mm, 1.8 uM
Retention time: 2.59
Base peak: 301.0695
Precursor m/z: 337.0912
Precursor type: [M+H]+
m/z	relative intensity	assigned
89.2229	31	
259.0601	133	
273.0757	665	
301.0707	999	
319.0812	220	
