Mass spectrum: Fumonisin B3; LC-ESI-ITFT; MS2; CE: 20; R=17500; [M+H]+
Name: Fumonisin B3
Class: Natural Product; Fungal metabolite
Formula: C34H59NO14
Exact mass: 705.39354
SMILES: CCCC[C@@H](C)[C@H]([C@H](C[C@@H](C)C[C@@H](CCCCCC[C@@H]([C@@H](C)N)O)O)OC(=O)CC(CC(=O)O)C(=O)O)OC(=O)CC(CC(=O)O)C(=O)O
InChI: InChI=1S/C34H59NO14/c1-5-6-11-21(3)32(49-31(43)19-24(34(46)47)17-29(40)41)27(48-30(42)18-23(33(44)45)16-28(38)39)15-20(2)14-25(36)12-9-7-8-10-13-26(37)22(4)35/h20-27,32,36-37H,5-19,35H2,1-4H3,(H,38,39)(H,40,41)(H,44,45)(H,46,47)/t20-,21+,22+,23?,24?,25+,26-,27-,32+/m0/s1
Instrument: Q-Exactive Orbitrap Thermo Scientific
Instrument type: LC-ESI-ITFT
Ms type: MS2
Ion mode: POSITIVE
Ionization: ESI
Fragmentation mode: HCD
Collision energy: 20(NCE)
Resolution: 17500
Column name: Agilent RRHD Eclipse 50 x 2 mm, 1.8 uM
Retention time: 2.83
Base peak: 706.3964
Precursor m/z: 706.4003
Precursor type: [M+H]+
m/z	relative intensity	assigned
336.3234	112	
354.334	115	
512.3555	47	
530.3661	92	
670.3797	32	
688.3903	206	
706.4008	999	
