Mass spectrum: Tenuazonic acid; LC-ESI-ITFT; MS2; CE: 40; R=17500; [M+H]+
Name: Tenuazonic acid
Name: (2S)-4-acetyl-2-[(2S)-butan-2-yl]-3-hydroxy-1,2-dihydropyrrol-5-one
Class: Natural Product; Fungal metabolite
Formula: C10H15NO3
Exact mass: 197.10519
SMILES: CC[C@H](C)[C@H]1C(=C(C(=O)N1)C(=O)C)O
InChI: InChI=1S/C10H15NO3/c1-4-5(2)8-9(13)7(6(3)12)10(14)11-8/h5,8,13H,4H2,1-3H3,(H,11,14)/t5-,8-/m0/s1
Instrument: Q-Exactive Orbitrap Thermo Scientific
Instrument type: LC-ESI-ITFT
Ms type: MS2
Ion mode: POSITIVE
Ionization: ESI
Fragmentation mode: HCD
Collision energy: 40(NCE)
Resolution: 17500
Column name: Agilent RRHD Eclipse 50 x 2 mm, 1.8 uM
Retention time: 3.16
Base peak: 153.0915
Precursor m/z: 198.1119
Precursor type: [M+H]+
m/z	relative intensity	assigned
55.0188	36	
55.0554	100	
57.0709	196	
69.0708	153	
71.0866	44	
81.0708	110	
83.0138	289	
83.0865	388	
86.0974	124	
93.0699	135	
95.0855	91	
96.0454	34	
97.0284	280	
97.0648	155	
97.1012	209	
100.0393	249	
107.0855	166	
109.1012	35	
111.0804	244	
113.0233	43	
115.039	731	
121.0648	33	
121.1012	94	
124.0393	151	
125.0233	743	
125.0597	427	
125.0961	184	
127.039	52	
128.107	39	
135.0804	175	
138.0913	142	
139.039	539	
139.0754	340	
142.0499	564	
143.0343	151	
152.107	36	
153.091	999	
156.1019	106	
163.0754	41	
163.1487	82	
171.1016	79	C9H15O3+
180.1019	318	
180.1745	40	
181.0859	306	
181.1594	54	
198.1125	984	
