Mass spectrum: 7,8-Dihydroxy calonectrin; LC-ESI-ITFT; MS2; CE: 20; R=17500; [M-H2O+H]+
Name: 7,8-Dihydroxy calonectrin
Class: Natural Product; Fungal metabolite
Formula: C19H26O8
Exact mass: 382.16276
SMILES: CC1=CC2C(C(C1O)O)(C3(CC(C(C34CO4)O2)OC(=O)C)C)COC(=O)C
InChI: InChI=1S/C19H26O8/c1-9-5-13-18(7-24-10(2)20,15(23)14(9)22)17(4)6-12(26-11(3)21)16(27-13)19(17)8-25-19/h5,12-16,22-23H,6-8H2,1-4H3
Instrument: Q-Exactive Orbitrap Thermo Scientific
Instrument type: LC-ESI-ITFT
Ms type: MS2
Ion mode: POSITIVE
Ionization: ESI
Fragmentation mode: HCD
Collision energy: 20(NCE)
Resolution: 17500
Column name: Agilent RRHD Eclipse 50 x 2 mm, 1.8 uM
Retention time: 2.9
Base peak: 365.159
Precursor m/z: 365.1589
Precursor type: [M-H2O+H]+
m/z	relative intensity	assigned
109.0648	77	
127.0754	36	
137.0597	46	
171.1168	32	
187.1118	123	
199.1118	73	
215.1067	36	
217.1223	53	
227.1067	41	
245.1172	65	
263.1278	42	
305.1384	34	
365.1595	999	
