Mass spectrum: NX2 toxin; LC-APCI-ITFT; MS2; CE: 40; R=17500; [M+H]+
Name: NX2 toxin
Class: Natural Product; Fungal metabolite
Formula: C17H24O6
Exact mass: 324.15728
SMILES: CC1=C[C@@H]2[C@]([C@@]3(C)C[C@@H](OC(C)=O)[C@@H](O2)[C@@]34CO4)(CO)[C@H](O)C1
InChI: InChI=1S/C17H24O6/c1-9-4-12(20)16(7-18)13(5-9)23-14-11(22-10(2)19)6-15(16,3)17(14)8-21-17/h5,11-14,18,20H,4,6-8H2,1-3H3/t11-,12-,13-,14-,15-,16+,17+/m1/s1
Instrument: Q-Exactive Orbitrap Thermo Scientific
Instrument type: LC-APCI-ITFT
Ms type: MS2
Ion mode: POSITIVE
Ionization: APCI
Fragmentation mode: HCD
Collision energy: 40(NCE)
Resolution: 17500
Column name: Agilent RRHD Eclipse 50 x 2 mm, 1.8 uM
Retention time: 2.75
Base peak: 121.0652
Precursor m/z: 325.164
Precursor type: [M+H]+
m/z	relative intensity	assigned
67.0552	41	
69.0344	104	
71.05	69	
79.0542	186	
81.0707	373	
83.05	110	
85.0648	97	
91.0542	178	
93.0699	663	
95.0491	216	
95.0855	112	
97.0648	213	
99.0441	97	
103.039	41	
105.0699	815	
107.0491	108	
107.0855	137	
109.0648	624	
111.0441	70	
113.0597	36	
117.0699	83	
119.0491	163	
119.0855	257	
121.0648	999	
121.1012	45	
123.0804	172	
125.0597	325	
127.0754	60	
128.0621	55	
129.0699	132	
131.0855	353	
133.0648	355	
133.1012	157	
135.0441	32	
135.0804	87	
137.0597	70	
139.0754	527	
141.0699	98	
142.0777	155	
143.0855	636	
145.0648	90	
145.1012	384	
147.0804	250	
147.1168	49	C11H15+
149.0597	50	
149.0961	114	
151.0754	66	
153.0699	33	
154.0777	40	
155.0855	257	
156.0934	155	
157.1012	560	
158.0726	42	
159.0804	240	
159.1168	289	
161.0961	222	
163.0754	41	
163.1118	115	
166.0777	81	
168.0934	227	
169.1012	293	
171.0804	149	
171.1168	609	
173.0961	313	
173.1325	137	
175.1118	127	
178.0777	37	
181.1012	234	C14H13+
183.1168	493	
184.0883	41	
185.0961	67	
187.1118	330	
189.091	44	
189.1274	100	
191.1067	250	
193.1012	131	
196.0883	82	
199.1118	701	
201.1274	228	
203.1067	48	
205.1223	54	
209.1172	31	
211.1118	234	
215.1067	49	
217.1223	471	
229.1223	239	
235.1329	35	
247.1329	178	
265.1434	179	
283.154	61	C15H23O5+
307.154	66	
