Mass spectrum: Atranone B; LC-ESI-ITFT; MS2; CE: 50; R=17500; [M+H]+
Name: Atranone B
Class: Natural Product; Fungal metabolite
Formula: C25H34O7
Exact mass: 446.23045
SMILES: C/C1=C2[C@H]3[C@H]([C@@](C)(O)O[C@H]3/C(C)=C\C[C@H]4C(C(C)C)=C(OC)C(O[C@]4(C)CC1)=O)C(O/2)=O
InChI: InChI=1S/C25H34O7/c1-12(2)16-15-9-8-13(3)20-17-18(25(6,28)31-20)22(26)30-19(17)14(4)10-11-24(15,5)32-23(27)21(16)29-7/h8,12,15,17-18,20,28H,9-11H2,1-7H3/b13-8-,19-14+/t15-,17+,18-,20-,24+,25-/m0/s1
Instrument: Q-Exactive Orbitrap Thermo Scientific
Instrument type: LC-ESI-ITFT
Ms type: MS2
Ion mode: POSITIVE
Ionization: ESI
Fragmentation mode: HCD
Collision energy: 50(NCE)
Resolution: 17500
Column name: Agilent RRHD Eclipse 50 x 2 mm, 1.8 uM
Retention time: 4.05
Base peak: 119.0852
Precursor m/z: 447.2372
Precursor type: [M+H]+
m/z	relative intensity	assigned
57.0706	34	
59.0491	127	
65.0386	50	
67.0542	447	
69.0335	187	
69.0699	211	
71.0491	95	
73.0648	327	
79.0542	468	
81.0335	31	
81.0699	576	
83.0491	126	
83.0855	80	
85.0284	51	
85.0648	125	
91.0542	555	
93.0699	695	
95.0491	378	
95.0855	455	
97.0284	109	C5H5O2+
97.0648	221	
99.0441	97	
99.0804	128	
103.0542	56	
105.045	31	
105.0699	901	
107.0491	134	
107.0855	815	
108.057	39	
109.0648	429	
109.1012	518	
111.0441	70	C6H7O2+
111.0804	235	
113.0597	95	
115.039	53	
115.0542	75	
117.0699	314	
119.0491	110	
119.0855	999	
121.0648	518	
121.1012	364	
122.0726	52	
123.0441	75	
123.0804	304	
125.0597	200	
125.0961	181	
127.0754	102	
128.0621	94	
129.0699	145	
130.0777	131	
131.0491	34	
131.0855	392	
133.0648	145	
133.1012	464	
135.0441	160	
135.0804	443	
135.1168	99	
136.0883	50	
137.0597	241	
137.0961	210	
138.1039	33	
139.039	33	
139.0754	114	
139.1118	173	
141.0699	66	
141.091	67	
142.0777	159	
143.0855	450	
144.0934	112	
145.0648	154	
145.1012	913	
146.0726	46	
147.0804	304	
147.1168	220	
149.0597	312	
149.0961	215	
151.0754	124	
151.1118	92	
153.0546	235	
153.091	128	
153.1274	32	
154.0777	38	
155.0703	95	
155.0855	139	
156.0934	159	
157.0648	46	C11H9O1+
157.0859	108	
157.1012	383	
158.0726	42	
158.109	42	
159.0804	229	
159.1168	343	
160.0883	65	
161.0597	77	
161.0961	337	
161.1325	89	
162.1039	88	
163.0754	163	
163.1118	126	
165.0699	42	
165.091	116	
165.1274	37	
167.0703	60	
167.0855	69	
167.1067	585	
168.0934	48	
169.0859	202	
169.1012	164	
169.1223	62	
170.109	190	
171.0804	152	
171.1168	200	
172.0883	78	
173.0597	38	
173.0961	338	
173.1325	100	
174.1039	54	
175.0754	136	
175.1118	219	
175.1481	71	
177.091	91	
177.1274	118	
179.0703	81	
179.0855	54	
179.1067	53	
180.0934	33	
181.0859	180	
181.1012	97	
182.109	53	
183.0804	85	
183.1016	95	
183.1168	139	
184.0883	35	
185.0961	174	
185.1325	174	
186.1039	36	
187.0754	54	
187.1118	154	
187.1481	40	
188.1196	35	
189.091	157	
189.1274	116	
191.0703	90	
191.1067	73	
192.0934	32	
193.1012	86	
193.1223	38	
194.109	48	
195.0804	32	
195.1016	184	
195.1168	87	
196.0883	42	
197.0961	111	
197.1172	40	
197.1325	69	
198.1039	44	
199.0754	38	
199.1118	121	
201.091	92	
201.1274	88	
203.1067	86	
203.1431	66	
205.1223	143	
207.1168	110	
208.1247	35	
209.0961	107	
209.1325	67	
210.1039	44	
211.1118	80	
213.091	71	
213.1274	117	
215.1067	51	
215.1431	43	
216.1145	76	
217.1223	44	
217.1587	32	
221.1325	74	
223.1118	51	
223.1481	36	
224.1196	40	
225.091	42	
225.1274	109	
227.1067	81	
227.1431	36	
229.1223	41	
235.1118	35	
237.1274	40	
239.1067	46	
239.1431	56	
241.1223	32	
243.138	31	
249.1274	53	
261.1274	41	
