Mass spectrum: HT-2 Toxin; LC-ESI-ITFT; MS2; CE: 30; R=17500; [M+Na]+
Name: HT-2 Toxin
Name: 12,13-Epoxytrichothec-9-ene-3-alpha,4-beta,8-alpha,15-tetrol 15-acetate 8-isovalerate
Class: Natural Product; Fungal metabolite
Formula: C22H32O8
Exact mass: 424.20971
SMILES: CC1=C[C@@H]2[C@](C[C@@H]1OC(=O)CC(C)C)([C@]3([C@@H]([C@H]([C@H]([C@@]34CO4)O2)O)O)C)COC(=O)C
InChI: InChI=1S/C22H32O8/c1-11(2)6-16(24)29-14-8-21(9-27-13(4)23)15(7-12(14)3)30-19-17(25)18(26)20(21,5)22(19)10-28-22/h7,11,14-15,17-19,25-26H,6,8-10H2,1-5H3/t14-,15+,17+,18+,19+,20+,21+,22-/m0/s1
Instrument: Q-Exactive Orbitrap Thermo Scientific
Instrument type: LC-ESI-ITFT
Ms type: MS2
Ion mode: POSITIVE
Ionization: ESI
Fragmentation mode: HCD
Collision energy: 30(NCE)
Resolution: 17500
Column name: Agilent RRHD Eclipse 50 x 2 mm, 1.8 uM
Retention time: 3.14
Base peak: 345.1296
Precursor m/z: 447.1984
Precursor type: [M+Na]+
m/z	relative intensity	assigned
157.1012	36	
185.0961	32	
213.0886	33	
255.0992	34	
263.1254	31	
285.1097	643	
303.1203	48	
327.1203	83	
345.1309	999	
429.1884	48	
447.1989	877	
