Mass spectrum: Citrinin; LC-ESI-ITFT; MS2; CE: 55; R=17500; [M-H]-
Name: Citrinin
Name: Antimycin
Name: (3R,4S)-6-hydroxy-3,4,5-trimethyl-8-oxo-3,4-dihydroisochromene-7-carboxylic acid
Class: Natural Product; Fungal metabolite
Formula: C13H14O5
Exact mass: 250.08411
SMILES: C[C@@H]1[C@H](OC=C2C1=C(C(=C(C2=O)C(=O)O)O)C)C
InChI: InChI=1S/C13H14O5/c1-5-7(3)18-4-8-9(5)6(2)11(14)10(12(8)15)13(16)17/h4-5,7,14H,1-3H3,(H,16,17)/t5-,7-/m1/s1
Instrument: Q-Exactive Orbitrap Thermo Scientific
Instrument type: LC-ESI-ITFT
Ms type: MS2
Ion mode: NEGATIVE
Ionization: ESI
Fragmentation mode: HCD
Collision energy: 55(NCE)
Resolution: 17500
Column name: Agilent RRHD Eclipse 50 x 2 mm, 1.8 uM
Retention time: 2.32
Base peak: 175.0379
Precursor m/z: 249.0774
Precursor type: [M-H]-
m/z	relative intensity	assigned
68.9963	64	
77.0376	44	
79.0169	56	
105.0325	177	
105.0689	55	
120.0559	69	
131.048	33	
133.0638	42	
133.1001	69	
135.043	65	
135.0793	302	
137.095	59	
145.0638	32	
146.0721	37	
148.0509	78	
149.0589	45	
159.0792	63	
161.0588	53	
161.095	417	
162.0665	55	
175.0379	999	
175.0741	36	
177.09	912	
187.0744	54	
189.0536	133	
190.0614	53	
203.0714	41	
205.085	720	
231.0663	105	
