Mass spectrum: Rugulosin; LC-ESI-ITFT; MS2; CE: 50; R=17500; [M+H]+
Name: Rugulosin
Class: Natural Product; Fungal metabolite
Formula: C30H22O10
Exact mass: 542.12127
SMILES: CC1=CC(=C2C(=C1)C(=O)[C@]34[C@@H]5C(C6C3C([C@@H]([C@]67C(=C(C8=C(C=C(C=C8C7=O)C)O)O)C5=O)C(=O)C4=C2O)O)O)O
InChI: InChI=1S/C30H22O10/c1-7-3-9-13(11(31)5-7)21(33)17-25(37)20-23(35)15-16-24(36)19(29(15,17)27(9)39)26(38)18-22(34)14-10(28(40)30(16,18)20)4-8(2)6-12(14)32/h3-6,15-16,19-20,23-24,31-36H,1-2H3/t15?,16?,19-,20-,23?,24?,29-,30-/m1/s1
Instrument: Q-Exactive Orbitrap Thermo Scientific
Instrument type: LC-ESI-ITFT
Ms type: MS2
Ion mode: POSITIVE
Ionization: ESI
Fragmentation mode: HCD
Collision energy: 50(NCE)
Resolution: 17500
Column name: Agilent RRHD Eclipse 50 x 2 mm, 1.8 uM
Retention time: 3.75
Base peak: 255.064
Precursor m/z: 543.128
Precursor type: [M+H]+
m/z	relative intensity	assigned
135.0441	36	
153.0699	36	
181.0648	63	
185.0597	39	
199.0754	34	
209.0597	92	
213.0546	165	
227.0703	225	
255.0652	999	
256.073	89	
258.0523	114	
271.0601	57	
273.0757	62	
