Mass spectrum: Brevianamide A; LC-ESI-ITFT; MS2; CE: 50; R=17500; [M+H]+
Name: Brevianamide A
Name: (1R,3S,5R,7R)-4,4-Dimethyl-13H-spiro[9,14-diazatetracyclo[5.5.2.01,9.03,7]tetradecane-5,2'-indole]-3',8,13(1'H)-trione
Class: Natural Product; Fungal metabolite
Formula: C21H23N3O3
Exact mass: 365.17394
SMILES: CC1([C@@H]2C[C@@]34CCCN3C(=O)[C@]2(C[C@]15C(=O)C6=CC=CC=C6N5)NC4=O)C
InChI: InChI=1S/C21H23N3O3/c1-18(2)14-10-19-8-5-9-24(19)17(27)20(14,23-16(19)26)11-21(18)15(25)12-6-3-4-7-13(12)22-21/h3-4,6-7,14,22H,5,8-11H2,1-2H3,(H,23,26)/t14-,19+,20+,21-/m0/s1
Instrument: Q-Exactive Orbitrap Thermo Scientific
Instrument type: LC-ESI-ITFT
Ms type: MS2
Ion mode: POSITIVE
Ionization: ESI
Fragmentation mode: HCD
Collision energy: 50(NCE)
Resolution: 17500
Column name: Agilent RRHD Eclipse 50 x 2 mm, 1.8 uM
Retention time: 2.92
Base peak: 176.1061
Precursor m/z: 366.1807
Precursor type: [M+H]+
m/z	relative intensity	assigned
111.0917	55	
114.055	34	
120.0444	85	
132.0444	208	
134.0964	44	
137.0709	73	
138.1277	239	
139.0866	226	
146.06	103	
148.0757	52	
148.1121	113	
152.058	44	
160.1121	117	
165.0658	345	
166.0737	76	
167.0815	881	
176.107	999	
177.1386	120	
179.1543	229	
186.0913	40	
188.107	252	
190.1226	40	
207.1492	83	
235.1441	73	
252.1131	122	
275.1179	60	
280.108	139	
293.1649	41	
303.1492	49	
310.1914	50	
321.1598	224	
