Mass spectrum: Mevastatin; LC-ESI-ITFT; MS2; CE: 10; R=17500; [M+H]+
Name: Mevastatin
Name: Compactin, Mevastatinum, Mevastatina
Name: [(1S,7S,8S,8aR)-8-[2-[(2R,4R)-4-hydroxy-6-oxooxan-2-yl]ethyl]-7-methyl-1,2,3,7,8,8a-hexahydronaphthalen-1-yl] (2S)-2-methylbutanoate
Class: Natural Product; Fungal metabolite
Formula: C23H34O5
Exact mass: 390.24063
SMILES: CC[C@H](C)C(=O)O[C@H]1CCC=C2[C@H]1[C@H]([C@H](C=C2)C)CC[C@@H]3C[C@H](CC(=O)O3)O
InChI: InChI=1S/C23H34O5/c1-4-14(2)23(26)28-20-7-5-6-16-9-8-15(3)19(22(16)20)11-10-18-12-17(24)13-21(25)27-18/h6,8-9,14-15,17-20,22,24H,4-5,7,10-13H2,1-3H3/t14-,15-,17+,18+,19-,20-,22-/m0/s1
Instrument: Q-Exactive Orbitrap Thermo Scientific
Instrument type: LC-ESI-ITFT
Ms type: MS2
Ion mode: POSITIVE
Ionization: ESI
Fragmentation mode: HCD
Collision energy: 10(NCE)
Resolution: 17500
Column name: Agilent RRHD Eclipse 50 x 2 mm, 1.8 uM
Retention time: 3.73
Base peak: 185.1324
Precursor m/z: 391.2474
Precursor type: [M+H]+
m/z	relative intensity	assigned
107.0491	43	
125.0597	73	
143.0703	158	
145.1012	36	
159.1168	440	C12H15+
185.1325	999	
187.1481	59	
209.1325	67	C16H17+
211.1481	397	C16H19+
225.1638	137	C17H21+
229.1587	787	
235.1481	138	C18H19+
253.1587	371	
271.1693	643	
289.1798	107	
391.2479	93	
