Mass spectrum: Zearalenone; LC-ESI-ITFT; MS2; CE: 30; R=17500; [M+H]+
Name: Zearalenone
Name: F2 Toxin
Name: (2E,11S)-15,17-dihydroxy-11-methyl-12-oxabicyclo[12.4.0]octadeca-1(14),2,15,17-tetraene-7,13-dione
Class: Natural Product; Fungal metabolite
Formula: C18H22O5
Exact mass: 318.14672
SMILES: C[C@H]1CCCC(=O)CCC/C=C/C2=CC(=CC(=C2C(=O)O1)O)O
InChI: InChI=1S/C18H22O5/c1-12-6-5-9-14(19)8-4-2-3-7-13-10-15(20)11-16(21)17(13)18(22)23-12/h3,7,10-12,20-21H,2,4-6,8-9H2,1H3/b7-3+/t12-/m0/s1
Instrument: Q-Exactive Orbitrap Thermo Scientific
Instrument type: LC-ESI-ITFT
Ms type: MS2
Ion mode: POSITIVE
Ionization: ESI
Fragmentation mode: HCD
Collision energy: 30(NCE)
Resolution: 17500
Column name: Agilent RRHD Eclipse 50 x 2 mm, 1.8 uM
Retention time: 3.65
Base peak: 187.0744
Precursor m/z: 319.1535
Precursor type: [M+H]+
m/z	relative intensity	assigned
69.0699	519	
85.0648	249	
95.0855	38	
97.0648	757	C6H9O1+
107.0855	33	
119.0855	33	
123.0441	41	
125.0961	90	
157.0648	31	
161.0597	69	
163.0754	34	
165.0182	86	
175.0754	49	
177.0546	84	
185.0597	377	
187.0754	999	
189.0546	271	
199.0754	62	
201.091	50	
203.0703	509	
205.0495	53	C11H9O4+
205.0859	205	
213.0546	118	
213.091	74	
215.0703	179	
215.1034	40	
217.0859	131	
221.0808	79	
225.091	61	
227.0703	111	
229.0859	171	
231.0652	502	
231.0978	41	
239.1067	43	
241.0859	152	
241.1223	61	
243.1016	47	
249.0757	63	
255.138	173	
257.1536	31	
259.0965	33	
265.1223	315	
267.0852	37	
283.1329	980	
301.1434	414	
319.154	41	
