Mass spectrum: 3,15-Diacetyldeoxynivalenol; LC-ESI-ITFT; MS2; CE: 10; R=17500; [M+H]+
Name: 3,15-Diacetyldeoxynivalenol
Name: 3,15-Bis(acetyloxy)-12,13-epoxy-7-hydroxytrichothec-9-en-8-one (3alpha)-
Class: Natural Product; Fungal metabolite
Formula: C19H24O8
Exact mass: 380.1471
SMILES: CC1=C[C@@H]2[C@](C(C1=O)O)([C@]3(C[C@H]([C@H]([C@@]34CO4)O2)OC(=O)C)C)COC(=O)C
InChI: InChI=1S/C19H24O8/c1-9-5-13-18(7-24-10(2)20,15(23)14(9)22)17(4)6-12(26-11(3)21)16(27-13)19(17)8-25-19/h5,12-13,15-16,23H,6-8H2,1-4H3/t12-,13-,15?,16-,17-,18-,19+/m1/s1
Instrument: Q-Exactive Orbitrap Thermo Scientific
Instrument type: LC-ESI-ITFT
Ms type: MS2
Ion mode: POSITIVE
Ionization: ESI
Fragmentation mode: HCD
Collision energy: 10(NCE)
Resolution: 17500
Column name: Agilent RRHD Eclipse 50 x 2 mm, 1.8 uM
Retention time: 3.2
Base peak: 381.1526
Precursor m/z: 381.1538
Precursor type: [M+H]+
m/z	relative intensity	assigned
109.0648	40	
125.0597	94	
133.0648	39	
137.0597	163	
173.0961	34	
187.1118	32	
189.091	39	
197.0961	32	
203.1067	78	
213.091	154	
215.1067	142	
225.091	32	
231.1016	471	
243.1016	208	
261.1121	162	
273.1121	50	
279.1227	278	
303.1227	47	
321.1333	122	
381.1544	999	
