Mass spectrum: Verruculogen; LC-ESI-ITFT; MS2; CE: 20; R=17500; [M+H]+
Name: Verruculogen
Name: TR toxin
Name: (5R,10S,10aR,14aS,15bS)-10,10a-dihydroxy-6-methoxy-2,2-dimethyl-5-(2-methylprop-1-en-1-yl)-1,10,10a,14,14a,15b-hexahydro-12H-3,4-dioxa-5a,11a,15a-triazacycloocta[1,2,3-lm]indeno[5,6-b]fluorene-11,15(2H,13H)-dione
Class: Natural Product; Fungal metabolite
Formula: C27H33N3O7
Exact mass: 511.23184
SMILES: CC(=C[C@@H]1N2C3=C(C=CC(=C3)OC)C4=C2[C@H](CC(OO1)(C)C)N5C(=O)[C@@H]6CCCN6C(=O)[C@@]5([C@H]4O)O)C
InChI: InChI=1S/C27H33N3O7/c1-14(2)11-20-29-18-12-15(35-5)8-9-16(18)21-22(29)19(13-26(3,4)37-36-20)30-24(32)17-7-6-10-28(17)25(33)27(30,34)23(21)31/h8-9,11-12,17,19-20,23,31,34H,6-7,10,13H2,1-5H3/t17-,19-,20+,23-,27+/m0/s1
Instrument: Q-Exactive Orbitrap Thermo Scientific
Instrument type: LC-ESI-ITFT
Ms type: MS2
Ion mode: POSITIVE
Ionization: ESI
Fragmentation mode: HCD
Collision energy: 20(NCE)
Resolution: 17500
Column name: Agilent RRHD Eclipse 50 x 2 mm, 1.8 uM
Retention time: 3.77
Base peak: 370.1391
Precursor m/z: 512.2386
Precursor type: [M+H]+
m/z	relative intensity	assigned
70.0651	209	
153.0658	31	
169.0608	38	
172.0757	31	C11H10N1O1+
181.0608	33	
188.0706	37	
191.0577	31	
198.0913	767	
199.0866	58	
201.0784	46	
202.0863	95	
202.1226	38	
210.0913	52	
227.0815	86	
228.1019	48	
230.1176	298	
240.1019	158	
242.1176	69	C15H16N1O2+
255.0764	200	
258.1125	31	
259.1203	38	
260.1241	53	
295.1077	95	
296.1367	33	
310.1186	176	
313.1183	170	
322.1101	72	
323.1264	115	
324.1343	205	
331.1288	48	
336.1343	33	
338.1135	140	
342.1421	54	
350.1472	37	
352.1292	681	
356.1241	66	
364.1629	74	
370.1397	999	
372.119	62	
378.1448	52	
392.1578	76	
410.171	65	
428.1816	71	
448.2204	43	
476.218	48	
477.1171	72	
494.2286	40	
