Mass spectrum: Nivalenol; LC-ESI-ITFT; MS2; CE: 10; R=17500; [M+H]+
Name: Nivalenol
Name: (3alpha,4beta,7alpha)-3,4,7,15-tetrahydroxy-12,13-epoxytrichothec-9-en-8-one
Class: Natural Product; Fungal metabolite
Formula: C15H20O7
Exact mass: 312.12089
SMILES: CC1=C[C@@H]2[C@]([C@@H](C1=O)O)([C@]3([C@@H]([C@H]([C@H]([C@@]34CO4)O2)O)O)C)CO
InChI: InChI=1S/C15H20O7/c1-6-3-7-14(4-16,11(20)8(6)17)13(2)10(19)9(18)12(22-7)15(13)5-21-15/h3,7,9-12,16,18-20H,4-5H2,1-2H3/t7-,9-,10-,11-,12-,13-,14-,15+/m1/s1
Instrument: Q-Exactive Orbitrap Thermo Scientific
Instrument type: LC-ESI-ITFT
Ms type: MS2
Ion mode: POSITIVE
Ionization: ESI
Fragmentation mode: HCD
Collision energy: 10(NCE)
Resolution: 17500
Column name: Agilent RRHD Eclipse 50 x 2 mm, 1.8 uM
Retention time: 2.15
Base peak: 313.1263
Precursor m/z: 313.1276
Precursor type: [M+H]+
m/z	relative intensity	assigned
109.0648	44	
125.0597	189	
137.0597	103	
153.0546	51	
159.0804	61	
161.0961	49	
163.0754	37	
173.0961	100	
175.0754	354	
177.091	62	
179.0703	122	
181.0859	32	C10H13O3+
185.0961	64	
189.091	138	
201.091	228	
203.1067	58	
205.0859	189	
213.091	114	
219.1016	45	
229.0859	131	
231.1016	247	
247.0965	284	
248.8989	268	
249.1121	147	
259.0965	153	
265.107	156	
266.9101	229	
267.1227	36	
277.107	250	
283.1176	57	
295.1176	498	
296.1222	43	
313.1282	999	
