Mass spectrum: Roquefortine D; LC-ESI-ITFT; MS2; CE: 40; R=17500; [M+H]+
Name: Roquefortine D
Name: (3S,5aS,10bR,11aS)-3-(1H-Imidazol-5-ylmethyl)-10b-(2-methyl-3-buten-2-yl)-6,10b,11,11a-tetrahydro-2H-pyrazino[1',2':1,5]pyrrolo[2,3-b]indole-1,4(3H,5aH)-dione
Class: Natural Product; Fungal metabolite
Formula: C22H25N5O2
Exact mass: 391.20082
SMILES: CC(C)(C=C)C12CC3C(=O)NC(C(=O)N3C1NC4=CC=CC=C24)CC5=CN=CN5
InChI: InChI=1S/C22H25N5O2/c1-4-21(2,3)22-10-17-18(28)25-16(9-13-11-23-12-24-13)19(29)27(17)20(22)26-15-8-6-5-7-14(15)22/h4-8,11-12,16-17,20,26H,1,9-10H2,2-3H3,(H,23,24)(H,25,28)
Instrument: Q-Exactive Orbitrap Thermo Scientific
Instrument type: LC-ESI-ITFT
Ms type: MS2
Ion mode: POSITIVE
Ionization: ESI
Fragmentation mode: HCD
Collision energy: 40(NCE)
Resolution: 17500
Column name: Agilent RRHD Eclipse 50 x 2 mm, 1.8 uM
Retention time: 2.59
Base peak: 195.0878
Precursor m/z: 392.2076
Precursor type: [M+H]+
m/z	relative intensity	assigned
69.0707	140	
83.0604	36	
110.0713	351	
122.0713	152	
130.0651	497	
150.0662	121	
156.0808	57	C11H10N1+
159.0917	226	C10H11N2+
165.0771	50	
166.0611	94	
167.0927	332	
169.076	37	
170.06	118	
178.0611	106	
183.1043	35	
193.072	56	
195.0876	999	
198.1277	575	
224.1182	216	
296.1506	36	C16H18N5O1+
307.1189	38	
324.1455	370	
336.1455	37	
