Mass spectrum: Neosolaniol; LC-ESI-ITFT; MS2; CE: 30; R=17500; [M+H]+
Name: Neosolaniol
Class: Natural Product; Fungal metabolite
Formula: C19H26O8
Exact mass: 382.16276
SMILES: CC1=C[C@@H]2[C@](C[C@@H]1O)([C@]3([C@@H]([C@H]([C@H]([C@@]34CO4)O2)O)OC(=O)C)C)COC(=O)C
InChI: InChI=1S/C19H26O8/c1-9-5-13-18(6-12(9)22,7-24-10(2)20)17(4)15(26-11(3)21)14(23)16(27-13)19(17)8-25-19/h5,12-16,22-23H,6-8H2,1-4H3/t12-,13+,14+,15+,16+,17+,18+,19-/m0/s1
Instrument: Q-Exactive Orbitrap Thermo Scientific
Instrument type: LC-ESI-ITFT
Ms type: MS2
Ion mode: POSITIVE
Ionization: ESI
Fragmentation mode: HCD
Collision energy: 30(NCE)
Resolution: 17500
Column name: Agilent RRHD Eclipse 50 x 2 mm, 1.8 uM
Retention time: 2.84
Base peak: 121.0645
Precursor m/z: 383.1695
Precursor type: [M+H]+
m/z	relative intensity	assigned
66.1815	39	
69.0335	48	
70.2179	43	
84.0733	39	
93.0699	213	
95.0491	178	
97.0648	195	
105.0699	96	C8H9+
107.0491	100	
109.0648	98	
117.0699	47	
119.0855	58	
121.0648	999	
123.0441	45	
125.0597	199	
131.0855	82	
135.0804	65	
139.0754	63	
143.0855	193	
145.1012	187	
147.0804	71	
157.1012	203	
159.0804	98	
159.1168	114	
161.0961	175	
163.0754	54	
169.1012	106	
171.0804	46	
171.1168	178	
173.0961	349	
175.0754	50	C11H11O2+
175.1118	76	
177.0891	45	
181.1012	83	
185.0961	294	
187.1118	302	
189.1274	109	
191.1067	189	
197.0961	439	
199.1118	487	
203.1067	236	
209.0961	96	C15H13O1+
215.1067	513	
215.7418	48	
217.1223	263	
227.1067	398	
233.1172	111	
245.1172	453	
263.1278	385	
323.1489	69	
324.1779	48	
