Mass spectrum: Zearalenone; LC-ESI-ITFT; MS2; CE: 35; R=17500; [M+H]+
Name: Zearalenone
Name: F2 Toxin
Name: (2E,11S)-15,17-dihydroxy-11-methyl-12-oxabicyclo[12.4.0]octadeca-1(14),2,15,17-tetraene-7,13-dione
Class: Natural Product; Fungal metabolite
Formula: C18H22O5
Exact mass: 318.14672
SMILES: C[C@H]1CCCC(=O)CCC/C=C/C2=CC(=CC(=C2C(=O)O1)O)O
InChI: InChI=1S/C18H22O5/c1-12-6-5-9-14(19)8-4-2-3-7-13-10-15(20)11-16(21)17(13)18(22)23-12/h3,7,10-12,20-21H,2,4-6,8-9H2,1H3/b7-3+/t12-/m0/s1
Instrument: Q-Exactive Orbitrap Thermo Scientific
Instrument type: LC-ESI-ITFT
Ms type: MS2
Ion mode: POSITIVE
Ionization: ESI
Fragmentation mode: HCD
Collision energy: 35(NCE)
Resolution: 17500
Column name: Agilent RRHD Eclipse 50 x 2 mm, 1.8 uM
Retention time: 3.65
Base peak: 187.0744
Precursor m/z: 319.1535
Precursor type: [M+H]+
m/z	relative intensity	assigned
69.0699	560	
81.0699	32	
85.0648	189	
95.0855	36	C7H11+
97.0648	535	C6H9O1+
107.0855	40	C8H11+
119.0855	33	
123.0441	46	
125.0961	77	
131.0855	33	
157.0648	54	
161.0597	91	
163.0754	34	
165.0182	80	
173.0597	38	
175.039	46	
175.0754	94	
177.0546	92	
177.091	41	
185.0597	521	
187.0754	999	
189.0546	314	
199.0754	72	
201.091	50	
203.0703	638	
205.0495	63	
205.0859	189	
213.0546	133	
213.091	89	
215.0703	151	
215.1067	43	
217.0859	88	
221.0808	59	
225.091	61	
227.0703	121	
229.0859	134	
231.0652	298	
239.1067	37	
241.0859	154	
241.1223	66	
243.1016	47	
249.0757	36	
255.138	132	
265.1223	214	
283.1329	466	
301.1434	153	
