Mass spectrum: Kojic Acid; LC-ESI-ITFT; MS2; CE: 30; R=17500; [M+H]+
Name: Kojic Acid
Name: 5-hydroxy-2-(hydroxymethyl)pyran-4-one
Class: Natural Product; Fungal metabolite
Formula: C6H6O4
Exact mass: 142.0266
SMILES: C1=C(OC=C(C1=O)O)CO
InChI: InChI=1S/C6H6O4/c7-2-4-1-5(8)6(9)3-10-4/h1,3,7,9H,2H2
Instrument: Q-Exactive Orbitrap Thermo Scientific
Instrument type: LC-ESI-ITFT
Ms type: MS2
Ion mode: POSITIVE
Ionization: ESI
Fragmentation mode: HCD
Collision energy: 30(NCE)
Resolution: 17500
Column name: Agilent RRHD Eclipse 50 x 2 mm, 1.8 uM
Retention time: 1.55
Base peak: 143.0334
Precursor m/z: 143.0333
Precursor type: [M+H]+
m/z	relative intensity	assigned
69.0335	84	
97.0284	71	
143.0339	999	
