Mass spectrum: Deoxynivalenol-3-glucoside; LC-APCI-ITFT; MS2; CE: 40; R=17500; [M+FA]-
Name: Deoxynivalenol-3-glucoside
Name: (3alpha,7beta,12epsilon)-7,15-Dihydroxy-8-oxo-12,13-epoxytrichothec-9-en-3-yl beta-D-glucopyranoside
Class: Natural Product; Fungal metabolite
Formula: C21H30O11
Exact mass: 458.17879
SMILES: CC1=C[C@@H]2[C@]([C@@H](C1=O)O)([C@]3(C[C@H]([C@H]([C@@]34CO4)O2)O[C@H]5[C@@H]([C@H]([C@@H]([C@H](O5)CO)O)O)O)C)CO
InChI: InChI=1S/C21H30O11/c1-8-3-11-20(6-23,16(28)12(8)24)19(2)4-9(17(32-11)21(19)7-29-21)30-18-15(27)14(26)13(25)10(5-22)31-18/h3,9-11,13-18,22-23,25-28H,4-7H2,1-2H3/t9-,10-,11-,13-,14+,15-,16-,17-,18-,19-,20-,21+/m1/s1
Instrument: Q-Exactive Orbitrap Thermo Scientific
Instrument type: LC-APCI-ITFT
Ms type: MS2
Ion mode: NEGATIVE
Ionization: APCI
Fragmentation mode: HCD
Collision energy: 40(NCE)
Resolution: 17500
Column name: Agilent RRHD Eclipse 50 x 2 mm, 1.8 uM
Retention time: 2.2
Base peak: 59.0121
Precursor m/z: 503.177
Precursor type: [M+HCOO]-
m/z	relative intensity	assigned
59.0121	999	
71.0119	622	
72.9911	41	
83.0122	49	
85.0273	129	
89.023	686	
95.0123	55	
101.0226	483	
111.043	37	
113.0224	284	
119.0332	195	
123.0437	166	
149.0587	51	
150.0297	73	
151.0401	49	
152.0457	53	
153.0537	76	
161.0588	55	
163.0746	99	
168.0428	60	
173.0608	160	
173.0949	56	
175.0765	427	
177.0893	79	
187.0765	204	
189.0538	71	
189.0921	130	
190.061	62	
191.0683	68	
199.0744	179	
201.0921	164	
203.0714	108	
205.087	383	
214.0635	63	
217.087	773	
219.1027	190	
229.087	704	
235.0976	48	
247.0976	779	
259.0976	66	
265.1081	323	
277.1081	60	
427.1609	505	
