Mass spectrum: T-2 tetraol; LC-ESI-ITFT; MS2; CE: 50; R=17500; [M+H]+
Name: T-2 tetraol
Name: T-2 toxin tetraol
Name: 3-alpha,4-beta,8-alpha,15-Tetrahydroxy-12,13-epoxytrichothec-9-ene
Class: Natural Product; Fungal metabolite
Formula: C15H22O6
Exact mass: 298.14163
SMILES: CC1=C[C@@H]2[C@](C[C@@H]1O)([C@]3([C@@H]([C@H]([C@H](C34CO4)O2)O)O)C)CO
InChI: InChI=1S/C15H22O6/c1-7-3-9-14(5-16,4-8(7)17)13(2)11(19)10(18)12(21-9)15(13)6-20-15/h3,8-12,16-19H,4-6H2,1-2H3/t8-,9+,10+,11+,12+,13+,14+,15?/m0/s1
Instrument: Q-Exactive Orbitrap Thermo Scientific
Instrument type: LC-ESI-ITFT
Ms type: MS2
Ion mode: POSITIVE
Ionization: ESI
Fragmentation mode: HCD
Collision energy: 50(NCE)
Resolution: 17500
Column name: Agilent RRHD Eclipse 50 x 2 mm, 1.8 uM
Retention time: 2.26
Base peak: 121.0645
Precursor m/z: 299.1484
Precursor type: [M+H]+
m/z	relative intensity	assigned
64.7497	161	
71.0768	161	
91.0542	210	
93.0699	253	
95.0491	256	
97.0648	366	
105.0699	210	
107.0855	206	
109.0648	252	
121.0648	999	
129.0699	195	
133.1012	217	
140.4219	215	
145.1012	865	
149.0961	198	
175.1118	261	
