Mass spectrum: Satratoxin F; LC-ESI-ITFT; MS2; CE: 40; R=17500; [M+H]+
Name: Satratoxin F
Class: Natural Product; Fungal metabolite
Formula: C29H34O10
Exact mass: 542.21518
SMILES: CC1=CC2C3(CC1)COC(=O)C4C5(O4)CCOC(C5O)(/C=C\C=C/C(=O)OC6C3(C7(CO7)C(C6)O2)C)C(=O)C
InChI: InChI=1S/C29H34O10/c1-16-7-9-26-14-34-23(32)22-28(39-22)10-11-35-27(17(2)30,24(28)33)8-5-4-6-21(31)38-18-13-20(37-19(26)12-16)29(15-36-29)25(18,26)3/h4-6,8,12,18-20,22,24,33H,7,9-11,13-15H2,1-3H3/b6-4-,8-5-
Instrument: Q-Exactive Orbitrap Thermo Scientific
Instrument type: LC-ESI-ITFT
Ms type: MS2
Ion mode: POSITIVE
Ionization: ESI
Fragmentation mode: HCD
Collision energy: 40(NCE)
Resolution: 17500
Column name: Agilent RRHD Eclipse 50 x 2 mm, 1.8 uM
Retention time: 3.45
Base peak: 105.0708
Precursor m/z: 543.2219
Precursor type: [M+H]+
m/z	relative intensity	assigned
60.6523	45	
65.8299	36	
69.0344	76	
73.4953	51	
79.0553	244	
81.0708	617	
91.0552	189	
93.0699	512	
95.0491	98	
95.0855	226	
97.0284	100	
99.0441	246	
105.0699	999	
107.0491	71	
107.0855	68	
109.0648	231	
117.0699	54	
119.0491	89	
119.0855	106	
121.0648	368	
123.0441	63	
123.0804	533	
123.3092	59	
125.0597	64	
129.0699	96	
131.0855	369	
133.0648	49	
133.1012	83	
139.0754	59	
142.0777	61	
143.0855	464	
145.1012	108	
147.0804	70	
147.1184	65	
151.039	745	
157.1012	388	
159.1168	248	
161.0597	102	
161.0961	89	
165.0699	48	
170.109	66	
171.1168	107	
175.0754	69	
183.1168	106	
185.1325	217	
189.0546	65	
189.1274	71	
195.1168	119	
201.1274	198	
203.0703	69	
203.1431	77	
213.1274	91	
231.138	202	
249.1517	54	
262.8772	53	
460.0789	49	
