Mass spectrum: Fusarenone-X; LC-ESI-ITFT; MS2; CE: 20; R=17500; [M+H]+
Name: Fusarenone-X
Name: (3beta,4alpha,7alpha)-3,7,15-Trihydroxy-8-oxo-12,13-epoxytrichothec-9-en-4-yl acetate
Class: Natural Product; Fungal metabolite
Formula: C17H22O8
Exact mass: 354.13145
SMILES: CC1=C[C@@H]2[C@]([C@@H](C1=O)O)([C@]3([C@@H]([C@H]([C@H]([C@@]34CO4)O2)O)OC(=O)C)C)CO
InChI: InChI=1S/C17H22O8/c1-7-4-9-16(5-18,12(22)10(7)20)15(3)13(24-8(2)19)11(21)14(25-9)17(15)6-23-17/h4,9,11-14,18,21-22H,5-6H2,1-3H3/t9-,11-,12-,13-,14-,15-,16-,17+/m1/s1
Instrument: Q-Exactive Orbitrap Thermo Scientific
Instrument type: LC-ESI-ITFT
Ms type: MS2
Ion mode: POSITIVE
Ionization: ESI
Fragmentation mode: HCD
Collision energy: 20(NCE)
Resolution: 17500
Column name: Agilent RRHD Eclipse 50 x 2 mm, 1.8 uM
Retention time: 2.46
Base peak: 247.0953
Precursor m/z: 355.1382
Precursor type: [M+H]+
m/z	relative intensity	assigned
85.0284	39	
99.0441	224	C5H7O2+
109.0648	38	C7H9O1+
123.0441	96	
125.0597	121	
137.0597	650	
141.0546	31	
147.0804	78	
149.0597	53	
153.0546	117	
159.0804	61	
161.0597	71	
163.0754	134	
165.091	208	
171.0804	51	
173.0961	51	
175.0754	720	
177.091	279	
179.0703	65	
185.0961	76	
187.0754	79	
189.091	189	
191.0703	176	
191.1067	34	
193.0859	145	
199.0754	39	
201.091	328	
203.1067	91	
205.0859	697	
207.1016	33	
209.0808	35	
211.0754	34	
213.091	153	
217.0859	370	
219.1016	209	
223.0965	230	
229.0859	857	
231.1016	231	
233.0808	31	
235.0965	68	
241.0859	63	
247.0965	999	
249.1121	47	
259.0965	314	
277.107	465	
289.107	39	
295.1176	197	
307.1176	34	
313.1282	60	
319.1176	39	
337.1282	333	
355.1387	335	
