Mass spectrum: Phacidin; LC-ESI-ITFT; MS2; CE: 40; R=17500; [M+H]+
Name: Phacidin
Name: 6-methoxy-5-nonanoyl-4-oxopyran-2-carbaldehyde
Class: Natural Product; Fungal metabolite
Formula: C16H22O5
Exact mass: 294.14672
SMILES: CCCCCCCCC(=O)C1=C(OC(=CC1=O)C=O)OC
InChI: InChI=1S/C16H22O5/c1-3-4-5-6-7-8-9-13(18)15-14(19)10-12(11-17)21-16(15)20-2/h10-11H,3-9H2,1-2H3
Instrument: Q-Exactive Orbitrap Thermo Scientific
Instrument type: LC-ESI-ITFT
Ms type: MS2
Ion mode: POSITIVE
Ionization: ESI
Fragmentation mode: HCD
Collision energy: 40(NCE)
Resolution: 17500
Column name: Agilent RRHD Eclipse 50 x 2 mm, 1.8 uM
Retention time: 4.04
Base peak: 71.0866
Precursor m/z: 295.1535
Precursor type: [M+H]+
m/z	relative intensity	assigned
57.071	618	
67.0553	193	
71.0866	999	
81.0709	443	
95.0128	34	
99.0441	37	
123.1168	102	
125.0233	41	
127.039	484	
141.1274	149	
155.0339	51	
165.0182	31	
169.0495	418	
197.0444	74	
239.1642	68	
267.1591	981	
295.154	74	
