Mass spectrum: Fumiquinazoline H; LC-ESI-ITFT; MS2; CE: 30; R=17500; [M+Na]+
Name: Fumiquinazoline H
Class: Natural Product; Fungal metabolite
Formula: C27H27N5O4
Exact mass: 485.20629
SMILES: CC(C)C[C@H]1C(=O)N2C(N1)[C@@]3(C[C@@H]4C(=O)N[C@](O3)(C5=NC6=CC=CC=C6C(=O)N45)C)C7=CC=CC=C72
InChI: InChI=1S/C27H27N5O4/c1-14(2)12-18-23(35)31-19-11-7-5-9-16(19)27(25(31)29-18)13-20-21(33)30-26(3,36-27)24-28-17-10-6-4-8-15(17)22(34)32(20)24/h4-11,14,18,20,25,29H,12-13H2,1-3H3,(H,30,33)/t18-,20+,25?,26+,27+/m0/s1
Instrument: Q-Exactive Orbitrap Thermo Scientific
Instrument type: LC-ESI-ITFT
Ms type: MS2
Ion mode: POSITIVE
Ionization: ESI
Fragmentation mode: HCD
Collision energy: 30(NCE)
Resolution: 17500
Column name: Agilent RRHD Eclipse 50 x 2 mm, 1.8 uM
Retention time: 3.32
Base peak: 508.1978
Precursor m/z: 508.195
Precursor type: [M+Na]+
m/z	relative intensity	assigned
405.1335	84	
423.1452	88	
490.185	193	
508.1955	999	
