Mass spectrum: Austin; LC-ESI-ITFT; MS2; CE: 10; R=17500; [M+H]+
Name: Austin
Class: Natural Product; Fungal metabolite
Formula: C27H32O9
Exact mass: 500.20462
SMILES: C[C@H]1[C@@]2(C(=O)O[C@]3([C@@H](C4=C([C@]5(CC[C@]4([C@@]2(C3=C)C(=O)O1)C)C=CC(=O)OC5(C)C)C)OC(=O)C)C)O
InChI: InChI=1S/C27H32O9/c1-13-18-19(34-16(4)28)24(8)14(2)26(20(30)33-15(3)27(26,32)21(31)36-24)23(18,7)11-12-25(13)10-9-17(29)35-22(25,5)6/h9-10,15,19,32H,2,11-12H2,1,3-8H3/t15-,19+,23+,24+,25+,26+,27-/m0/s1
Instrument: Q-Exactive Orbitrap Thermo Scientific
Instrument type: LC-ESI-ITFT
Ms type: MS2
Ion mode: POSITIVE
Ionization: ESI
Fragmentation mode: HCD
Collision energy: 10(NCE)
Resolution: 17500
Column name: Agilent RRHD Eclipse 50 x 2 mm, 1.8 uM
Retention time: 3.5
Base peak: 441.2269
Precursor m/z: 501.2114
Precursor type: [M+H]+
m/z	relative intensity	assigned
381.206	72	C24H29O4+
397.2374	31	
409.201	108	
441.2272	999	
