Mass spectrum: NX2 toxin; LC-APCI-ITFT; MS2; CE: 10; R=17500; [M-H2O+H]+
Name: NX2 toxin
Class: Natural Product; Fungal metabolite
Formula: C17H24O6
Exact mass: 324.15728
SMILES: CC1=C[C@@H]2[C@]([C@@]3(C)C[C@@H](OC(C)=O)[C@@H](O2)[C@@]34CO4)(CO)[C@H](O)C1
InChI: InChI=1S/C17H24O6/c1-9-4-12(20)16(7-18)13(5-9)23-14-11(22-10(2)19)6-15(16,3)17(14)8-21-17/h5,11-14,18,20H,4,6-8H2,1-3H3/t11-,12-,13-,14-,15-,16+,17+/m1/s1
Instrument: Q-Exactive Orbitrap Thermo Scientific
Instrument type: LC-APCI-ITFT
Ms type: MS2
Ion mode: POSITIVE
Ionization: APCI
Fragmentation mode: HCD
Collision energy: 10(NCE)
Resolution: 17500
Column name: Agilent RRHD Eclipse 50 x 2 mm, 1.8 uM
Retention time: 2.75
Base peak: 307.1544
Precursor m/z: 307.1535
Precursor type: [M-H2O+H]+
m/z	relative intensity	assigned
79.0551	61	
121.0648	66	
139.0754	226	
183.1168	57	
199.1118	274	
201.1274	67	
211.1118	48	
215.1067	31	
217.1223	144	
229.1223	159	
233.1172	40	
247.1329	187	
259.1329	31	
265.1434	60	
277.1434	177	
289.1434	78	
307.154	999	
