Mass spectrum: Ergocorninine; LC-ESI-ITFT; MS2; CE: 30; R=17500; [M+Na]+
Name: Ergocorninine
Name: 12'-Hydroxy-2',5'a-bis(1-methylethyl)-8a-ergotaman-3',6',18-trione
Class: Natural Product; Fungal metabolite
Formula: C31H39N5O5
Exact mass: 561.29511
SMILES: CC(C)[C@H]1C(=O)N2CCC[C@H]2[C@]3(N1C(=O)[C@](O3)(C(C)C)NC(=O)[C@H]4CN([C@@H]5CC6=CNC7=CC=CC(=C67)C5=C4)C)O
InChI: InChI=1S/C31H39N5O5/c1-16(2)26-28(38)35-11-7-10-24(35)31(40)36(26)29(39)30(41-31,17(3)4)33-27(37)19-12-21-20-8-6-9-22-25(20)18(14-32-22)13-23(21)34(5)15-19/h6,8-9,12,14,16-17,19,23-24,26,32,40H,7,10-11,13,15H2,1-5H3,(H,33,37)/t19-,23-,24+,26+,30-,31+/m1/s1
Instrument: Q-Exactive Orbitrap Thermo Scientific
Instrument type: LC-ESI-ITFT
Ms type: MS2
Ion mode: POSITIVE
Ionization: ESI
Fragmentation mode: HCD
Collision energy: 30(NCE)
Resolution: 17500
Column name: Agilent RRHD Eclipse 50 x 2 mm, 1.8 uM
Retention time: 2.74
Base peak: 290.125
Precursor m/z: 584.2838
Precursor type: [M+Na]+
m/z	relative intensity	assigned
138.0523	31	
247.0828	113	
290.1248	999	
334.1716	63	
360.1509	53	
362.1665	85	
444.1894	50	
541.2421	253	
584.2843	76	
