Mass spectrum: Diacetoxyscirpenol; LC-ESI-ITFT; MS2; CE: 50; R=17500; [M+H]+
Name: Diacetoxyscirpenol
Name: Anguidine, Anguidin
Name: (3beta,4alpha,12R)-3-Hydroxy-12,13-epoxytrichothec-9-ene-4,15-diyl diacetate
Class: Natural Product; Fungal metabolite
Formula: C19H26O7
Exact mass: 366.16785
SMILES: CC1=C[C@@H]2[C@](CC1)([C@]3([C@@H]([C@H]([C@H]([C@]34CO4)O2)O)OC(=O)C)C)COC(=O)C
InChI: InChI=1S/C19H26O7/c1-10-5-6-18(8-23-11(2)20)13(7-10)26-16-14(22)15(25-12(3)21)17(18,4)19(16)9-24-19/h7,13-16,22H,5-6,8-9H2,1-4H3/t13-,14-,15-,16-,17-,18-,19-/m1/s1
Instrument: Q-Exactive Orbitrap Thermo Scientific
Instrument type: LC-ESI-ITFT
Ms type: MS2
Ion mode: POSITIVE
Ionization: ESI
Fragmentation mode: HCD
Collision energy: 50(NCE)
Resolution: 17500
Column name: Agilent RRHD Eclipse 50 x 2 mm, 1.8 uM
Retention time: 3.05
Base peak: 105.0698
Precursor m/z: 367.1746
Precursor type: [M+H]+
m/z	relative intensity	assigned
67.0542	100	
69.0335	73	
69.0699	31	
79.0542	244	
81.0699	328	
83.0491	56	
85.0284	35	
91.0542	214	
93.0699	310	C7H9+
95.0491	302	
95.0855	228	
97.0648	243	C6H9O1+
105.0699	999	
107.0491	120	
107.0855	267	
109.0648	240	
113.0597	121	
117.0699	120	
119.0491	32	
119.0855	232	
121.0648	272	
123.0441	49	
123.0804	284	
125.0597	215	
128.0621	83	
129.0699	142	
130.0777	31	
131.0855	351	
133.0648	55	
133.1012	122	
135.0804	48	
137.0597	61	
139.0754	32	
141.0699	82	
142.0777	174	
143.0855	300	
144.0934	48	
145.0648	89	
145.1012	259	
147.0804	111	
147.1168	82	
153.0699	52	
154.0777	35	
155.0855	171	
156.0934	96	
157.1012	220	
158.109	43	
159.0804	118	
159.1168	214	
161.0961	105	
163.1118	31	
166.0777	43	
168.0934	159	
169.1012	77	
171.0804	34	
171.1168	114	
173.0961	70	
173.1325	110	
175.1118	124	
178.0777	44	
181.0648	31	
181.1012	59	
183.1168	161	
187.1118	82	
189.1274	41	
193.1012	56	
196.0883	60	
199.1118	194	
201.1274	126	
211.1118	51	
217.1223	48	
219.138	33	
229.1223	60	
247.1329	44	
