Mass spectrum: Penicillic Acid; LC-ESI-ITFT; MS2; CE: 10; R=17500; [M+H]+
Name: Penicillic Acid
Name: (2Z)-3-methoxy-5-methyl-4-oxohexa-2,5-dienoic acid
Class: Natural Product; Fungal metabolite
Formula: C8H10O4
Exact mass: 170.0579
SMILES: CC(=C)C(=O)/C(=C/C(=O)O)/OC
InChI: InChI=1S/C8H10O4/c1-5(2)8(11)6(12-3)4-7(9)10/h4H,1H2,2-3H3,(H,9,10)/b6-4-
Instrument: Q-Exactive Orbitrap Thermo Scientific
Instrument type: LC-ESI-ITFT
Ms type: MS2
Ion mode: POSITIVE
Ionization: ESI
Fragmentation mode: HCD
Collision energy: 10(NCE)
Resolution: 17500
Column name: Agilent RRHD Eclipse 50 x 2 mm, 1.8 uM
Retention time: 2.61
Base peak: 125.0604
Precursor m/z: 171.0646
Precursor type: [M+H]+
m/z	relative intensity	assigned
97.0648	71	
111.0441	217	
112.0519	96	
125.0597	999	
139.039	45	
153.0546	72	
171.0652	617	
