Mass spectrum: Verrucarol; LC-ESI-ITFT; MS2; CE: 35; R=17500; [M+H]+
Name: Verrucarol
Class: Natural Product; Fungal metabolite
Formula: C15H22O4
Exact mass: 266.15181
SMILES: CC1=C[C@@H]2[C@](CC1)([C@]3([C@@H](C[C@H]([C@@]34CO4)O2)O)C)CO
InChI: InChI=1S/C15H22O4/c1-9-3-4-14(7-16)11(5-9)19-12-6-10(17)13(14,2)15(12)8-18-15/h5,10-12,16-17H,3-4,6-8H2,1-2H3/t10-,11-,12-,13-,14-,15+/m1/s1
Instrument: Q-Exactive Orbitrap Thermo Scientific
Instrument type: LC-ESI-ITFT
Ms type: MS2
Ion mode: POSITIVE
Ionization: ESI
Fragmentation mode: HCD
Collision energy: 35(NCE)
Resolution: 17500
Column name: Agilent RRHD Eclipse 50 x 2 mm, 1.8 uM
Retention time: 2.52
Base peak: 159.1161
Precursor m/z: 267.1585
Precursor type: [M+H]+
m/z	relative intensity	assigned
67.0542	156	
69.0335	65	
69.0699	33	
71.0491	32	
79.0542	160	
81.0699	635	
83.0491	71	
85.0284	93	
85.0648	32	
91.0542	129	
93.0699	603	
95.0491	271	
95.0855	481	
97.0648	449	
105.0699	867	C8H9+
107.0491	72	C7H7O1+
107.0855	902	C8H11+
109.0648	304	
109.1012	290	C8H13+
111.0804	102	C7H11O1+
115.039	100	
117.0699	131	C9H9+
119.0855	442	
121.0648	511	
121.1012	206	
123.0804	286	
125.0597	140	
125.0961	65	
127.0754	330	
129.0699	187	
131.0855	345	
133.0648	136	
133.1012	415	
135.0804	233	
135.1168	106	
137.0597	98	
137.0961	109	
139.0754	64	
141.0546	58	
143.0855	755	
145.0648	89	
145.1012	582	
147.0804	177	
147.1168	212	
149.0961	88	
149.1325	139	
151.0754	67	
155.0855	111	
156.0934	52	
157.1012	590	
159.0804	84	
159.1168	999	
161.0961	248	
161.1325	384	
163.0754	65	
163.1118	122	
165.0699	31	
165.1274	62	
169.1012	167	
171.0804	140	
171.1168	611	
173.0961	196	
173.1325	162	
175.1118	313	
175.1481	205	
177.1274	312	
180.0934	71	
181.0859	36	
183.1168	158	
185.0961	72	
185.1325	997	
187.1118	244	
189.1274	400	
195.1168	283	
198.1039	58	
201.1274	385	
203.1431	717	
205.1223	158	
213.1274	595	
219.138	234	
221.1536	32	
231.138	908	
237.1485	32	
249.1485	629	
267.1591	211	
