Mass spectrum: 15-Acetyldeoxynivalenol; LC-APCI-ITFT; MS2; CE: 40; R=17500; [M-H2O+H]+
Name: 15-Acetyldeoxynivalenol
Name: 15-monoacetyldeoxynivalenol
Class: Natural Product; Fungal metabolite
Formula: C17H22O7
Exact mass: 338.13654
SMILES: CC1=C[C@@H]2[C@]([C@@H](C1=O)O)([C@]3(C[C@H]([C@H]([C@@]34CO4)O2)O)C)COC(=O)C
InChI: InChI=1S/C17H22O7/c1-8-4-11-16(6-22-9(2)18,13(21)12(8)20)15(3)5-10(19)14(24-11)17(15)7-23-17/h4,10-11,13-14,19,21H,5-7H2,1-3H3/t10-,11-,13-,14-,15-,16-,17+/m1/s1
Instrument: Q-Exactive Orbitrap Thermo Scientific
Instrument type: LC-APCI-ITFT
Ms type: MS2
Ion mode: POSITIVE
Ionization: APCI
Fragmentation mode: HCD
Collision energy: 40(NCE)
Resolution: 17500
Column name: Agilent RRHD Eclipse 50 x 2 mm, 1.8 uM
Retention time: 2.71
Base peak: 93.0704
Precursor m/z: 321.1327
Precursor type: [M-H2O+H]+
m/z	relative intensity	assigned
69.0343	47	
79.0542	252	
81.0707	84	
91.0542	155	
93.0699	999	
95.0491	187	
95.0855	38	
97.0648	184	
105.0699	45	
107.0855	38	
109.0284	71	
109.0648	287	
121.0648	71	
123.0441	80	
125.0597	86	
128.4506	33	
129.0699	62	
135.0804	45	
137.0597	509	
141.0699	46	
142.0777	95	
145.0648	42	
145.1012	40	
147.9591	37	
157.1012	364	
159.0804	54	
159.1168	77	C12H15+
161.0597	161	
161.0961	39	C11H13O1+
167.0855	53	
169.1012	43	
170.0726	44	
172.0883	46	
173.0961	58	
175.0754	79	
175.1118	46	
182.0726	45	
185.0961	695	
187.0754	49	
187.1118	186	
189.091	46	
197.0961	46	
200.0832	51	
213.0933	44	
215.1067	640	
217.1223	180	
225.4819	37	
243.1016	50	
261.1121	165	
279.1227	39	
309.0569	46	
