Mass spectrum: Satratoxin H; LC-ESI-ITFT; MS2; CE: 20; R=17500; [M+H]+
Name: Satratoxin H
Class: Natural Product; Fungal metabolite
Formula: C29H36O9
Exact mass: 528.23593
SMILES: CC1=C[C@@H]2[C@@]3(CC1)COC(=O)/C=C/4\CCO[C@@]([C@@H]4O)(/C=C/C=C/C(=O)OC5[C@]3([C@]6(CO6)[C@@H](C5)O2)C)[C@H](C)O
InChI: InChI=1S/C29H36O9/c1-17-7-10-27-15-34-24(32)13-19-8-11-35-28(18(2)30,25(19)33)9-5-4-6-23(31)38-20-14-22(37-21(27)12-17)29(16-36-29)26(20,27)3/h4-6,9,12-13,18,20-22,25,30,33H,7-8,10-11,14-16H2,1-3H3/b6-4+,9-5+,19-13+/t18-,20?,21+,22+,25+,26+,27+,28-,29-/m0/s1
Instrument: Q-Exactive Orbitrap Thermo Scientific
Instrument type: LC-ESI-ITFT
Ms type: MS2
Ion mode: POSITIVE
Ionization: ESI
Fragmentation mode: HCD
Collision energy: 20(NCE)
Resolution: 17500
Column name: Agilent RRHD Eclipse 50 x 2 mm, 1.8 uM
Retention time: 3.25
Base peak: 231.1388
Precursor m/z: 529.2427
Precursor type: [M+H]+
m/z	relative intensity	assigned
68.0316	34	
76.745	35	
81.0699	39	
93.0709	39	
105.0699	226	
107.0855	179	
109.0648	39	
111.0452	48	
112.1967	34	
123.0804	55	
127.039	192	
136.9772	33	
143.0855	52	
149.0597	42	
161.0961	173	
165.0546	39	
171.1168	59	
173.0597	84	
175.0754	149	
183.1168	41	
185.1325	302	
187.1118	53	
189.1274	52	
191.0703	202	
193.1223	222	
195.0652	67	
195.1168	155	
201.0546	71	C12H9O3+
201.1274	78	
203.0703	37	
203.1431	69	
213.1274	278	
217.0859	197	
219.0652	398	
219.1403	53	
227.0703	57	
231.138	999	
237.0757	42	
245.0808	300	
247.1329	78	
249.1485	691	
263.0914	180	
281.102	147	
467.2064	45	
485.217	174	
511.2326	60	
529.2432	943	
