Mass spectrum: Aurantiamide acetate; LC-ESI-ITFT; MS2; CE: 30; R=17500; [M+H]+
Name: Aurantiamide acetate
Name: Asperglaucide, Lyciumamide
Name: 6.N-Benzoylphenylalanylphenylalinol acetate
Class: Natural Product; Fungal metabolite
Formula: C27H28N2O4
Exact mass: 444.20491
SMILES: CC(=O)OC[C@H](CC1=CC=CC=C1)NC(=O)C(CC2=CC=CC=C2)NC(=O)C3=CC=CC=C3
InChI: InChI=1S/C27H28N2O4/c1-20(30)33-19-24(17-21-11-5-2-6-12-21)28-27(32)25(18-22-13-7-3-8-14-22)29-26(31)23-15-9-4-10-16-23/h2-16,24-25H,17-19H2,1H3,(H,28,32)(H,29,31)/t24-,25?/m0/s1
Instrument: Q-Exactive Orbitrap Thermo Scientific
Instrument type: LC-ESI-ITFT
Ms type: MS2
Ion mode: POSITIVE
Ionization: ESI
Fragmentation mode: HCD
Collision energy: 30(NCE)
Resolution: 17500
Column name: Agilent RRHD Eclipse 50 x 2 mm, 1.8 uM
Retention time: 3.75
Base peak: 105.0339
Precursor m/z: 445.2116
Precursor type: [M+H]+
m/z	relative intensity	assigned
91.0542	118	
105.0335	999	
117.0699	431	
134.0964	469	C9H12N1+
177.091	185	
194.1176	407	C11H16N1O2+
224.107	694	
