Mass spectrum: Satratoxin H; LC-ESI-ITFT; MS2; CE: 40; R=17500; [M+Na]+
Name: Satratoxin H
Class: Natural Product; Fungal metabolite
Formula: C29H36O9
Exact mass: 528.23593
SMILES: CC1=C[C@@H]2[C@@]3(CC1)COC(=O)/C=C/4\CCO[C@@]([C@@H]4O)(/C=C/C=C/C(=O)OC5[C@]3([C@]6(CO6)[C@@H](C5)O2)C)[C@H](C)O
InChI: InChI=1S/C29H36O9/c1-17-7-10-27-15-34-24(32)13-19-8-11-35-28(18(2)30,25(19)33)9-5-4-6-23(31)38-20-14-22(37-21(27)12-17)29(16-36-29)26(20,27)3/h4-6,9,12-13,18,20-22,25,30,33H,7-8,10-11,14-16H2,1-3H3/b6-4+,9-5+,19-13+/t18-,20?,21+,22+,25+,26+,27+,28-,29-/m0/s1
Instrument: Q-Exactive Orbitrap Thermo Scientific
Instrument type: LC-ESI-ITFT
Ms type: MS2
Ion mode: POSITIVE
Ionization: ESI
Fragmentation mode: HCD
Collision energy: 40(NCE)
Resolution: 17500
Column name: Agilent RRHD Eclipse 50 x 2 mm, 1.8 uM
Retention time: 3.25
Base peak: 551.2291
Precursor m/z: 551.2246
Precursor type: [M+Na]+
m/z	relative intensity	assigned
55.364	55	
66.5551	57	
73.2876	50	
79.0554	96	
93.071	325	
95.0503	89	
105.0699	239	
115.3613	51	
119.0855	308	
121.0648	97	
121.1012	89	
137.4562	63	
143.087	94	
145.1012	73	
157.1012	74	
159.1168	68	
193.0471	344	
231.0652	85	
231.138	74	
241.0471	121	
259.0577	104	
259.0941	76	C13H16O4Na1+
271.1305	349	
275.0914	133	
303.0839	949	
321.0945	861	
546.2128	64	
551.2252	999	
