Mass spectrum: Chaetoviridin A; LC-ESI-ITFT; MS2; CE: 20; R=17500; [M+H]+
Name: Chaetoviridin A
Name: (6aS)-5-chloro-9-[(2S,3R)-3-hydroxy-2-methylbutanoyl]-6a-methyl-3-[(E,3S)-3-methylpent-1-enyl]furo[2,3-h]isochromene-6,8-dione
Class: Natural Product; Fungal metabolite
Formula: C23H25ClO6
Exact mass: 432.13396
SMILES: CC[C@H](C)/C=C/C1=CC2=C(C(=O)[C@@]3(C(=C(C(=O)O3)C(=O)[C@@H](C)[C@@H](C)O)C2=CO1)C)Cl
InChI: InChI=1S/C23H25ClO6/c1-6-11(2)7-8-14-9-15-16(10-29-14)18-17(20(26)12(3)13(4)25)22(28)30-23(18,5)21(27)19(15)24/h7-13,25H,6H2,1-5H3/b8-7+/t11-,12-,13+,23-/m0/s1
Instrument: Q-Exactive Orbitrap Thermo Scientific
Instrument type: LC-ESI-ITFT
Ms type: MS2
Ion mode: POSITIVE
Ionization: ESI
Fragmentation mode: HCD
Collision energy: 20(NCE)
Resolution: 17500
Column name: Agilent RRHD Eclipse 50 x 2 mm, 1.8 uM
Retention time: 4.21
Base peak: 333.0876
Precursor m/z: 433.1407
Precursor type: [M+H]+
m/z	relative intensity	assigned
83.0491	222	
195.0207	45	
253.0626	66	
263.0833	91	
305.0939	178	
333.0888	999	
349.0837	47	
359.0681	232	
361.1565	55	
387.1358	68	
405.1463	170	
415.1307	183	
433.1412	701	
