Mass spectrum: Surfactin B; LC-ESI-ITFT; MS2; CE: 30; R=17500; [M+H]+
Name: Surfactin B
Name: 3-[(3S,6R,9S,12S,15R,18S,21S,25R)-9-(carboxymethyl)-25-(9-methyldecyl)-3,6,15,18-tetrakis(2-methylpropyl)-2,5,8,11,14,17,20,23-octaoxo-12-propan-2-yl-1-oxa-4,7,10,13,16,19,22-heptazacyclopentacos-21-yl]propanoic acid
Class: Natural Product; Bacterial metabolite
Formula: C52H91N7O13
Exact mass: 1021.66749
SMILES: CC(C)CCCCCCCC[C@@H]1CC(=O)N[C@H](C(=O)N[C@H](C(=O)N[C@@H](C(=O)N[C@H](C(=O)N[C@H](C(=O)N[C@@H](C(=O)N[C@H](C(=O)O1)CC(C)C)CC(C)C)CC(=O)O)C(C)C)CC(C)C)CC(C)C)CCC(=O)O
InChI: InChI=1S/C52H91N7O13/c1-29(2)19-17-15-13-14-16-18-20-35-27-42(60)53-36(21-22-43(61)62)46(65)54-37(23-30(3)4)47(66)56-39(25-32(7)8)50(69)59-45(34(11)12)51(70)57-40(28-44(63)64)49(68)55-38(24-31(5)6)48(67)58-41(26-33(9)10)52(71)72-35/h29-41,45H,13-28H2,1-12H3,(H,53,60)(H,54,65)(H,55,68)(H,56,66)(H,57,70)(H,58,67)(H,59,69)(H,61,62)(H,63,64)/t35-,36+,37+,38-,39-,40+,41+,45+/m1/s1
Instrument: Q-Exactive Orbitrap Thermo Scientific
Instrument type: LC-ESI-ITFT
Ms type: MS2
Ion mode: POSITIVE
Ionization: ESI
Fragmentation mode: HCD
Collision energy: 30(NCE)
Resolution: 17500
Column name: Agilent RRHD Eclipse 50 x 2 mm, 1.8 uM
Retention time: 4.88
Base peak: 86.0972
Precursor m/z: 1022.6742
Precursor type: [M+H]+
m/z	relative intensity	assigned
72.0817	99	
84.0453	130	
86.0964	999	
102.055	64	
130.0499	91	
132.1019	53	
154.159	34	
183.1128	65	
185.1648	76	
199.1805	385	
200.1645	47	
201.1234	224	
209.19	56	
213.1598	61	
215.104	45	
226.2166	61	
227.1754	534	
229.1183	203	
243.1353	48	
245.186	144	
255.1703	38	
267.2431	36	
281.2224	35	
283.1666	44	
283.2016	81	
295.238	49	
296.1969	75	
297.1822	32	
310.2377	57	
311.1965	53	
320.222	43	
326.2438	47	
328.188	247	
328.2456	46	
338.2339	393	
342.2023	184	
356.2445	386	
357.3112	42	
360.2129	40	
395.2666	109	
396.2506	42	
405.3117	37	
413.2758	37	
423.3222	37	
433.3074	35	
441.2708	186	
441.3337	45	
451.3171	150	
455.2864	39	
469.3277	218	
564.4025	32	
582.4126	54	C32H52N7O3+
