Mass spectrum: Pyrophen; LC-ESI-ITFT; MS2; CE: 10; R=17500; [M+H]+
Name: Pyrophen
Name: N-[(1S)-1-(4-methoxy-6-oxopyran-2-yl)-2-phenylethyl]acetamide
Class: Natural Product; Fungal metabolite
Formula: C16H17NO4
Exact mass: 287.11575
SMILES: CC(=O)N[C@@H](CC1=CC=CC=C1)C2=CC(=CC(=O)O2)OC
InChI: InChI=1S/C16H17NO4/c1-11(18)17-14(8-12-6-4-3-5-7-12)15-9-13(20-2)10-16(19)21-15/h3-7,9-10,14H,8H2,1-2H3,(H,17,18)/t14-/m0/s1
Instrument: Q-Exactive Orbitrap Thermo Scientific
Instrument type: LC-ESI-ITFT
Ms type: MS2
Ion mode: POSITIVE
Ionization: ESI
Fragmentation mode: HCD
Collision energy: 10(NCE)
Resolution: 17500
Column name: Agilent RRHD Eclipse 50 x 2 mm, 1.8 uM
Retention time: 2.94
Base peak: 246.1124
Precursor m/z: 288.1225
Precursor type: [M+H]+
m/z	relative intensity	assigned
91.0542	78	
125.0233	184	
185.0961	35	C13H13O1+
229.0859	65	C14H13O3+
246.1125	999	
288.123	63	
