Mass spectrum: Culmorin; LC-ESI-ITFT; MS2; CE: 40; R=17500; [M+H]+
Name: Culmorin
Class: Natural Product; Fungal metabolite
Formula: C15H26O2
Exact mass: 238.1933
SMILES: C[C@@]12CCCC([C@H]3[C@@H]1[C@@H](C[C@@]2(C3O)C)O)(C)C
InChI: InChI=1S/C15H26O2/c1-13(2)6-5-7-14(3)10-9(16)8-15(14,4)12(17)11(10)13/h9-12,16-17H,5-8H2,1-4H3/t9-,10+,11+,12?,14-,15-/m1/s1
Instrument: Q-Exactive Orbitrap Thermo Scientific
Instrument type: LC-ESI-ITFT
Ms type: MS2
Ion mode: POSITIVE
Ionization: ESI
Fragmentation mode: HCD
Collision energy: 40(NCE)
Resolution: 17500
Column name: Agilent RRHD Eclipse 50 x 2 mm, 1.8 uM
Retention time: 3.53
Base peak: 107.0855
Precursor m/z: 239.2
Precursor type: [M+H]+
m/z	relative intensity	assigned
51.8645	77	
69.0699	161	
81.0699	420	
83.0855	159	
85.0648	117	
89.0597	167	
93.0699	219	
95.0855	585	
105.0699	111	
107.0855	999	C8H11+
109.1012	448	
111.0804	91	C7H11O1+
119.0855	237	C9H11+
121.1012	629	
123.1168	156	
133.1012	190	
135.1168	138	
137.1325	170	
147.1168	424	
149.1325	145	C11H17+
151.1118	123	
163.1481	608	
177.1638	781	
183.1908	96	
185.7233	93	
198.1845	888	
203.1795	167	
221.19	237	
