Mass spectrum: 3-Acetyldeoxynivalenol; LC-APCI-ITFT; MS2; CE: 55; R=17500; [M-H2O+H]+
Name: 3-Acetyldeoxynivalenol
Name: 3-monoacetyldeoxynivalenol
Class: Natural Product; Fungal metabolite
Formula: C17H22O7
Exact mass: 338.13654
SMILES: CC1=C[C@@H]2[C@]([C@@H](C1=O)O)([C@]3(C[C@H]([C@H]([C@@]34CO4)O2)OC(=O)C)C)CO
InChI: InChI=1S/C17H22O7/c1-8-4-11-16(6-18,13(21)12(8)20)15(3)5-10(23-9(2)19)14(24-11)17(15)7-22-17/h4,10-11,13-14,18,21H,5-7H2,1-3H3/t10-,11-,13-,14-,15-,16-,17+/m1/s1
Instrument: Q-Exactive Orbitrap Thermo Scientific
Instrument type: LC-APCI-ITFT
Ms type: MS2
Ion mode: POSITIVE
Ionization: APCI
Fragmentation mode: HCD
Collision energy: 55(NCE)
Resolution: 17500
Column name: Agilent RRHD Eclipse 50 x 2 mm, 1.8 uM
Retention time: 2.77
Base peak: 79.0548
Precursor m/z: 321.1327
Precursor type: [M-H2O+H]+
m/z	relative intensity	assigned
53.0396	60	
55.0188	72	
59.6295	40	
62.3302	41	
65.0386	39	
66.5033	36	
67.055	230	
69.0343	252	
69.0699	48	
79.0542	999	
79.5976	50	
81.0708	635	
83.0491	104	
91.0542	674	
93.0699	587	
95.0491	572	
95.0855	50	
97.0648	365	
105.0448	80	
105.0699	702	
107.0491	300	
107.0855	278	
108.2537	39	
109.0284	559	
109.0648	582	C7H9O1+
111.0441	179	
115.0542	60	
115.7394	50	
117.0628	50	
117.0699	392	
119.0855	466	
121.0648	207	
123.0441	333	
125.0597	254	
128.0621	223	C10H8+
129.0699	536	C10H9+
130.0777	69	
131.0855	332	
133.0648	81	C9H9O1+
133.1026	162	
135.0804	231	
137.0597	372	
141.0699	259	
142.0777	534	
143.0855	388	
144.0934	76	
145.0648	221	
145.1012	446	
145.1123	38	
145.1173	36	
147.0804	430	C10H11O1+
151.039	76	
153.0699	78	
154.0777	243	
155.0855	110	
156.0934	83	
157.0648	87	
157.1012	443	
158.0726	276	
159.0804	420	
159.1168	181	C12H15+
161.0597	68	
161.0961	199	C11H13O1+
163.0754	203	
167.0855	87	
169.1012	330	
170.0726	62	
171.1168	79	
172.0883	203	
173.0961	374	
175.0754	234	
175.1118	335	
182.0726	170	
185.0961	359	
187.1118	238	
189.091	94	
196.6072	50	
197.0961	236	
198.0675	51	
203.1067	104	
213.0933	56	
215.1067	209	
220.4329	46	
236.8285	44	
261.1121	55	
275.2597	47	
