Mass spectrum: Nivalenol; LC-ESI-ITFT; MS2; CE: 30; R=17500; [M+H]+
Name: Nivalenol
Name: (3alpha,4beta,7alpha)-3,4,7,15-tetrahydroxy-12,13-epoxytrichothec-9-en-8-one
Class: Natural Product; Fungal metabolite
Formula: C15H20O7
Exact mass: 312.12089
SMILES: CC1=C[C@@H]2[C@]([C@@H](C1=O)O)([C@]3([C@@H]([C@H]([C@H]([C@@]34CO4)O2)O)O)C)CO
InChI: InChI=1S/C15H20O7/c1-6-3-7-14(4-16,11(20)8(6)17)13(2)10(19)9(18)12(22-7)15(13)5-21-15/h3,7,9-12,16,18-20H,4-5H2,1-2H3/t7-,9-,10-,11-,12-,13-,14-,15+/m1/s1
Instrument: Q-Exactive Orbitrap Thermo Scientific
Instrument type: LC-ESI-ITFT
Ms type: MS2
Ion mode: POSITIVE
Ionization: ESI
Fragmentation mode: HCD
Collision energy: 30(NCE)
Resolution: 17500
Column name: Agilent RRHD Eclipse 50 x 2 mm, 1.8 uM
Retention time: 2.15
Base peak: 175.0744
Precursor m/z: 313.1276
Precursor type: [M+H]+
m/z	relative intensity	assigned
51.1973	57	
52.253	45	
64.5777	71	
70.3952	59	
83.0491	110	
84.9602	83	
85.0284	72	
95.0491	151	
95.4529	67	
106.0413	69	
107.0491	77	
109.0648	134	
123.0441	128	
125.0597	392	
137.0597	326	
145.1012	115	
147.0804	142	
151.0754	115	
153.0546	63	
157.1012	130	
159.0804	454	
161.0961	162	
161.3143	67	
163.0754	281	
173.0961	284	
175.0754	999	
175.1118	94	
177.091	306	
179.0703	76	C10H11O3+
183.0804	76	
185.0961	416	
187.0754	103	
189.091	471	
192.9103	99	
201.091	527	
203.0703	82	
203.1067	343	
205.0859	265	
207.1016	91	
211.0754	87	
213.091	163	
217.0859	92	
219.1016	148	
220.9054	129	
229.0859	86	
231.1016	280	
235.0965	122	
238.916	116	
247.0965	97	
248.8998	243	
249.1121	78	
259.0938	92	
265.107	90	
266.9102	333	
277.107	260	
293.6594	69	
295.1176	121	
301.4916	66	
