Mass spectrum: Isomarticin; LC-ESI-ITFT; MS2; CE: 20; R=17500; [M+H]+
Name: Isomarticin
Class: Natural Product; Fungal metabolite
Formula: C18H16O9
Exact mass: 376.07941
SMILES: CC12CC3=C(C4=C(C(=O)C=C(C4=O)OC)C(=C3C(O1)C[C@@H](O2)C(=O)O)O)O
InChI: InChI=1S/C18H16O9/c1-18-5-6-11(8(26-18)4-10(27-18)17(23)24)16(22)12-7(19)3-9(25-2)15(21)13(12)14(6)20/h3,8,10,20,22H,4-5H2,1-2H3,(H,23,24)/t8?,10-,18?/m1/s1
Instrument: Q-Exactive Orbitrap Thermo Scientific
Instrument type: LC-ESI-ITFT
Ms type: MS2
Ion mode: POSITIVE
Ionization: ESI
Fragmentation mode: HCD
Collision energy: 20(NCE)
Resolution: 17500
Column name: Agilent RRHD Eclipse 50 x 2 mm, 1.8 uM
Retention time: 3.18
Base peak: 313.0692
Precursor m/z: 377.0861
Precursor type: [M+H]+
m/z	relative intensity	assigned
245.0444	492	
253.0495	56	
271.0601	324	
285.0757	534	
287.055	661	
289.0707	86	
299.055	178	
302.0785	707	
303.0863	843	
313.0707	999	
315.0863	338	
317.0656	534	
331.0812	155	
341.0656	732	
359.0761	984	
377.0867	961	
