Mass spectrum: 3-Acetyldeoxynivalenol; LC-APCI-ITFT; MS2; CE: 55; R=17500; [M+H]+
Name: 3-Acetyldeoxynivalenol
Name: 3-monoacetyldeoxynivalenol
Class: Natural Product; Fungal metabolite
Formula: C17H22O7
Exact mass: 338.13654
SMILES: CC1=C[C@@H]2[C@]([C@@H](C1=O)O)([C@]3(C[C@H]([C@H]([C@@]34CO4)O2)OC(=O)C)C)CO
InChI: InChI=1S/C17H22O7/c1-8-4-11-16(6-18,13(21)12(8)20)15(3)5-10(23-9(2)19)14(24-11)17(15)7-22-17/h4,10-11,13-14,18,21H,5-7H2,1-3H3/t10-,11-,13-,14-,15-,16-,17+/m1/s1
Instrument: Q-Exactive Orbitrap Thermo Scientific
Instrument type: LC-APCI-ITFT
Ms type: MS2
Ion mode: POSITIVE
Ionization: APCI
Fragmentation mode: HCD
Collision energy: 55(NCE)
Resolution: 17500
Column name: Agilent RRHD Eclipse 50 x 2 mm, 1.8 uM
Retention time: 2.77
Base peak: 175.0751
Precursor m/z: 339.1433
Precursor type: [M+H]+
m/z	relative intensity	assigned
55.0189	93	
67.0551	131	
69.0343	324	
79.0542	614	
81.0708	493	
83.0491	76	
91.0542	370	
93.0699	183	
95.0491	308	
97.0648	246	
99.0441	67	
103.0556	51	
105.0699	471	
107.0491	371	
107.0855	132	
108.057	53	
109.0648	529	
115.0542	98	
117.0699	274	
119.0855	220	
121.0648	369	
123.0441	275	
124.0519	100	
125.0597	472	
128.0621	170	
129.0699	427	
130.0777	85	
131.0491	48	
131.0855	294	
133.0648	191	C9H9O1+
133.1012	104	
135.0441	66	
135.0804	267	
136.0519	55	
137.0597	958	
141.0699	229	C11H9+
142.0777	465	
143.0855	281	
144.0934	51	
145.0648	280	
145.1012	279	
146.0726	55	
147.0804	336	C10H11O1+
149.0597	102	
149.0961	126	
151.039	103	
151.0754	61	
152.0621	111	
153.0546	97	
153.0699	72	
154.0777	165	
155.0855	171	
157.0648	99	
157.1012	485	
158.0726	205	
159.0804	492	
159.1168	144	
160.0883	58	
161.0597	420	
161.0961	213	
162.0675	65	
163.0754	223	
165.0699	112	
165.091	45	
166.0777	47	
167.0855	252	
169.1012	177	
170.0726	175	
171.0804	155	
172.0883	111	
173.0597	64	
173.0961	328	
174.0675	219	
175.0754	999	
175.1118	155	
177.091	159	
179.0855	65	
182.0726	121	
183.0804	131	
185.0961	431	
187.0754	129	
187.1118	77	
188.0832	196	
189.091	303	
195.0804	180	
197.0961	141	
198.0675	512	
201.091	325	
203.1067	297	
205.0881	55	
213.091	389	
215.1067	71	
219.1016	66	
231.1016	232	
279.1227	51	
