Mass spectrum: Satratoxin F; LC-ESI-ITFT; MS2; CE: 30; R=17500; [M+H]+
Name: Satratoxin F
Class: Natural Product; Fungal metabolite
Formula: C29H34O10
Exact mass: 542.21518
SMILES: CC1=CC2C3(CC1)COC(=O)C4C5(O4)CCOC(C5O)(/C=C\C=C/C(=O)OC6C3(C7(CO7)C(C6)O2)C)C(=O)C
InChI: InChI=1S/C29H34O10/c1-16-7-9-26-14-34-23(32)22-28(39-22)10-11-35-27(17(2)30,24(28)33)8-5-4-6-21(31)38-18-13-20(37-19(26)12-16)29(15-36-29)25(18,26)3/h4-6,8,12,18-20,22,24,33H,7,9-11,13-15H2,1-3H3/b6-4-,8-5-
Instrument: Q-Exactive Orbitrap Thermo Scientific
Instrument type: LC-ESI-ITFT
Ms type: MS2
Ion mode: POSITIVE
Ionization: ESI
Fragmentation mode: HCD
Collision energy: 30(NCE)
Resolution: 17500
Column name: Agilent RRHD Eclipse 50 x 2 mm, 1.8 uM
Retention time: 3.45
Base peak: 231.1387
Precursor m/z: 543.2219
Precursor type: [M+H]+
m/z	relative intensity	assigned
51.3354	32	
53.2058	32	
54.5259	34	
79.0553	74	
81.0711	445	
83.0504	39	
91.0542	46	
93.0699	434	
95.0501	72	
95.0865	182	
97.0284	61	
99.0441	301	
101.2104	35	
105.0699	655	
105.9327	36	
107.0491	72	
107.0855	184	
107.365	37	
109.0317	38	
109.0648	383	
115.0405	45	
117.0699	44	
119.0491	60	
119.0855	88	
121.0648	445	
121.1012	38	
123.0804	459	
125.0597	162	
129.0699	58	
131.0855	88	
133.0648	83	
133.1012	61	
135.0441	62	
135.0804	57	C9H11O1+
139.0754	64	
143.0855	321	
149.0597	53	
151.039	764	
151.0754	43	
153.0546	57	
157.1012	228	
159.1168	200	
161.0597	81	
161.0961	66	
165.0546	44	
169.0495	73	
169.1012	65	C13H13+
171.1168	80	
173.1325	49	
183.1168	176	
185.0961	52	
185.1325	540	
187.1118	54	
189.0546	98	
192.6014	43	
193.1223	47	
195.1168	239	
201.1274	362	
203.0725	58	
203.1431	77	
213.1274	426	
229.1223	44	
231.138	999	
247.1329	75	
249.0757	344	
249.1485	230	
277.0382	49	
522.8375	43	
543.2225	78	
