Mass spectrum: Verrucarin J; LC-ESI-ITFT; MS2; CE: 50; R=17500; [M+H]+
Name: Verrucarin J
Name: Muconomycin B
Class: Natural Product; Fungal metabolite
Formula: C27H32O8
Exact mass: 484.20971
SMILES: CC1=C[C@@H]2[C@@]3(CC1)COC(=O)/C=C(/CCOC(=O)/C=C/C=C/C(=O)O[C@H]4[C@]3([C@]5(CO5)[C@@H](C4)O2)C)\C
InChI: InChI=1S/C27H32O8/c1-17-8-10-26-15-32-24(30)13-18(2)9-11-31-22(28)6-4-5-7-23(29)35-19-14-21(34-20(26)12-17)27(16-33-27)25(19,26)3/h4-7,12-13,19-21H,8-11,14-16H2,1-3H3/b6-4+,7-5+,18-13+/t19-,20-,21-,25-,26-,27+/m1/s1
Instrument: Q-Exactive Orbitrap Thermo Scientific
Instrument type: LC-ESI-ITFT
Ms type: MS2
Ion mode: POSITIVE
Ionization: ESI
Fragmentation mode: HCD
Collision energy: 50(NCE)
Resolution: 17500
Column name: Agilent RRHD Eclipse 50 x 2 mm, 1.8 uM
Retention time: 3.97
Base peak: 95.0492
Precursor m/z: 485.2164
Precursor type: [M+H]+
m/z	relative intensity	assigned
65.0386	64	
67.0542	669	
71.0491	37	
79.0542	36	
81.0699	110	
85.0648	43	
91.0542	46	
93.0699	98	
95.0491	999	
95.0855	47	
97.0284	335	C5H5O2+
105.0699	168	
107.0855	73	C8H11+
109.0648	66	
113.0597	948	
119.0855	58	
121.0648	36	
123.0804	52	
131.0855	61	
133.1012	43	
143.0855	107	
145.1012	47	
157.1012	69	
159.0804	36	
159.1168	56	
161.0961	41	
185.1325	38	
187.1118	32	
