Mass spectrum: 7,8-Dihydroxy calonectrin; LC-ESI-ITFT; MS2; CE: 30; R=17500; [M-H2O+H]+
Name: 7,8-Dihydroxy calonectrin
Class: Natural Product; Fungal metabolite
Formula: C19H26O8
Exact mass: 382.16276
SMILES: CC1=CC2C(C(C1O)O)(C3(CC(C(C34CO4)O2)OC(=O)C)C)COC(=O)C
InChI: InChI=1S/C19H26O8/c1-9-5-13-18(7-24-10(2)20,15(23)14(9)22)17(4)6-12(26-11(3)21)16(27-13)19(17)8-25-19/h5,12-16,22-23H,6-8H2,1-4H3
Instrument: Q-Exactive Orbitrap Thermo Scientific
Instrument type: LC-ESI-ITFT
Ms type: MS2
Ion mode: POSITIVE
Ionization: ESI
Fragmentation mode: HCD
Collision energy: 30(NCE)
Resolution: 17500
Column name: Agilent RRHD Eclipse 50 x 2 mm, 1.8 uM
Retention time: 2.9
Base peak: 187.1128
Precursor m/z: 365.1589
Precursor type: [M-H2O+H]+
m/z	relative intensity	assigned
63.1929	44	
65.2997	31	
70.8642	37	
73.4207	42	
79.0551	82	
81.0708	159	
90.0716	38	
91.0552	72	
93.0699	79	
95.0504	152	
97.0648	37	
107.0491	75	
107.1209	38	
109.0648	778	
117.0699	211	
119.0855	93	
121.0648	272	
125.0597	217	
127.0754	442	
129.0699	51	
131.0855	100	
133.1012	52	
135.082	49	
137.0597	431	
143.0855	295	
145.1012	210	
145.6885	38	
147.0804	90	
154.2106	53	
157.0648	48	
157.1012	189	
159.0804	90	
159.1168	583	
161.0961	74	
161.1325	56	
169.1012	88	
171.0804	54	
171.1168	518	
173.0961	243	
173.6564	40	
175.0754	41	
181.1012	135	C14H13+
185.0961	101	
187.1118	999	
189.091	74	
189.1274	182	
192.4996	43	
197.0961	257	
199.1118	672	
201.1296	47	
203.1067	68	
209.0961	82	
215.1067	370	
217.1223	397	
227.1067	392	
233.1172	58	
245.1172	323	
263.1278	160	
289.5703	46	
