Mass spectrum: Ergocryptinine; LC-ESI-ITFT; MS2; CE: 35; R=17500; [M+H]+
Name: Ergocryptinine
Class: Natural Product; Fungal metabolite
Formula: C32H41N5O5
Exact mass: 575.31077
SMILES: CC(C)C[C@H]1C(=O)N2CCC[C@H]2[C@]3(N1C(=O)[C@](O3)(C(C)C)NC(=O)[C@@H]4CN([C@@H]5CC6=CNC7=CC=CC(=C67)C5=C4)C)O
InChI: InChI=1S/C32H41N5O5/c1-17(2)12-25-29(39)36-11-7-10-26(36)32(41)37(25)30(40)31(42-32,18(3)4)34-28(38)20-13-22-21-8-6-9-23-27(21)19(15-33-23)14-24(22)35(5)16-20/h6,8-9,13,15,17-18,20,24-26,33,41H,7,10-12,14,16H2,1-5H3,(H,34,38)/t20-,24+,25-,26-,31+,32-/m0/s1
Instrument: Q-Exactive Orbitrap Thermo Scientific
Instrument type: LC-ESI-ITFT
Ms type: MS2
Ion mode: POSITIVE
Ionization: ESI
Fragmentation mode: HCD
Collision energy: 35(NCE)
Resolution: 17500
Column name: Agilent RRHD Eclipse 50 x 2 mm, 1.8 uM
Retention time: 2.8
Base peak: 223.1218
Precursor m/z: 576.3175
Precursor type: [M+H]+
m/z	relative intensity	assigned
83.0491	61	
181.1322	145	
191.073	54	
192.0808	77	
208.0743	206	
209.1271	120	
221.1073	134	
223.123	999	
225.1009	46	
261.1359	86	
268.1418	92	
277.1322	250	
291.169	207	
305.1271	473	
320.1731	33	
348.168	60	
