Mass spectrum: Roridin A; LC-ESI-ITFT; MS2; CE: 30; R=17500; [M+H]+
Name: Roridin A
Class: Natural Product; Fungal metabolite
Formula: C29H40O9
Exact mass: 532.26723
SMILES: C[C@@H]1CCO[C@H](/C=C/C=C\C(=O)O[C@@H]2C[C@@H]3[C@]4([C@]2([C@]5(CCC(=C[C@H]5O3)C)COC(=O)[C@H]1O)C)CO4)[C@@H](C)O
InChI: InChI=1S/C29H40O9/c1-17-9-11-28-15-35-26(33)25(32)18(2)10-12-34-20(19(3)30)7-5-6-8-24(31)38-21-14-23(37-22(28)13-17)29(16-36-29)27(21,28)4/h5-8,13,18-23,25,30,32H,9-12,14-16H2,1-4H3/b7-5+,8-6-/t18-,19-,20-,21-,22-,23-,25+,27-,28-,29+/m1/s1
Instrument: Q-Exactive Orbitrap Thermo Scientific
Instrument type: LC-ESI-ITFT
Ms type: MS2
Ion mode: POSITIVE
Ionization: ESI
Fragmentation mode: HCD
Collision energy: 30(NCE)
Resolution: 17500
Column name: Agilent RRHD Eclipse 50 x 2 mm, 1.8 uM
Retention time: 3.46
Base peak: 231.1367
Precursor m/z: 533.274
Precursor type: [M+H]+
m/z	relative intensity	assigned
79.0542	38	
81.0699	487	
85.0648	684	
91.0542	32	C7H7+
93.0699	168	C7H9+
95.0491	131	
95.0855	96	
97.0648	35	C6H9O1+
105.0699	360	
107.0855	368	
109.0648	292	
111.0804	35	
119.0491	31	
119.0855	73	
121.0648	92	
123.0804	377	
125.0597	181	
127.0754	39	
131.0703	37	
131.0855	108	
133.1012	401	
137.0597	192	
139.0754	42	
141.091	54	
143.0855	202	
145.1012	111	
147.1168	78	
149.0961	33	
157.1012	186	
159.1168	113	
161.0961	234	
163.1118	69	
169.1012	76	
171.1168	112	
173.1325	52	
175.1118	149	
175.1481	32	
183.1168	78	
185.1325	429	
187.1118	61	
189.1274	144	
193.1223	579	
195.1168	253	
201.1274	206	
203.1431	219	
213.1274	261	
219.138	70	
231.138	999	
249.1485	676	
