Mass spectrum: 15-Acetyldeoxynivalenol; LC-APCI-ITFT; MS2; CE: 30; R=17500; [M+H]+
Name: 15-Acetyldeoxynivalenol
Name: 15-monoacetyldeoxynivalenol
Class: Natural Product; Fungal metabolite
Formula: C17H22O7
Exact mass: 338.13654
SMILES: CC1=C[C@@H]2[C@]([C@@H](C1=O)O)([C@]3(C[C@H]([C@H]([C@@]34CO4)O2)O)C)COC(=O)C
InChI: InChI=1S/C17H22O7/c1-8-4-11-16(6-22-9(2)18,13(21)12(8)20)15(3)5-10(19)14(24-11)17(15)7-23-17/h4,10-11,13-14,19,21H,5-7H2,1-3H3/t10-,11-,13-,14-,15-,16-,17+/m1/s1
Instrument: Q-Exactive Orbitrap Thermo Scientific
Instrument type: LC-APCI-ITFT
Ms type: MS2
Ion mode: POSITIVE
Ionization: APCI
Fragmentation mode: HCD
Collision energy: 30(NCE)
Resolution: 17500
Column name: Agilent RRHD Eclipse 50 x 2 mm, 1.8 uM
Retention time: 2.71
Base peak: 137.0603
Precursor m/z: 339.1433
Precursor type: [M+H]+
m/z	relative intensity	assigned
60.8837	38	
62.6884	47	
63.4058	42	
69.0343	224	
81.0707	80	
83.0491	47	
95.0491	65	
97.0648	74	
105.0699	74	
107.0491	70	C7H7O1+
109.0659	102	
111.4477	44	
122.0574	46	
125.0597	229	
135.0441	51	
137.0597	999	
143.8538	47	
157.1012	93	
159.0804	121	
159.1168	94	C12H15+
161.0961	66	C11H13O1+
171.0804	61	
173.0961	200	
175.0754	236	
177.091	67	
185.0961	123	
187.1118	92	
189.091	244	
197.0961	92	
198.0675	51	
201.091	119	
203.1067	336	
205.0881	76	
213.091	412	
215.1067	205	
219.1016	81	
223.0965	52	
231.1016	556	
233.1172	71	
243.1016	196	
249.1121	118	
254.1301	58	
261.1121	557	
279.1227	280	
297.1333	68	
321.1333	122	
