Mass spectrum: Viridicatol; LC-ESI-ITFT; MS2; CE: 40; R=17500; [M+H]+
Name: Viridicatol
Name: 3-hydroxy-4-(3-hydroxyphenyl)-1H-quinolin-2-one
Class: Natural Product; Fungal metabolite
Formula: C15H11NO3
Exact mass: 253.07389
SMILES: C1=CC=C2C(=C1)C(=C(C(=O)N2)O)C3=CC(=CC=C3)O
InChI: InChI=1S/C15H11NO3/c17-10-5-3-4-9(8-10)13-11-6-1-2-7-12(11)16-15(19)14(13)18/h1-8,17-18H,(H,16,19)
Instrument: Q-Exactive Orbitrap Thermo Scientific
Instrument type: LC-ESI-ITFT
Ms type: MS2
Ion mode: POSITIVE
Ionization: ESI
Fragmentation mode: HCD
Collision energy: 40(NCE)
Resolution: 17500
Column name: Agilent RRHD Eclipse 50 x 2 mm, 1.8 uM
Retention time: 2.98
Base peak: 254.0811
Precursor m/z: 254.0806
Precursor type: [M+H]+
m/z	relative intensity	assigned
84.9603	198	
132.0444	140	C8H6N1O1+
208.0757	156	
236.0706	106	
254.0812	999	
