Mass spectrum: Decarestrictine F; LC-ESI-ITFT; MS2; CE: 20; R=17500; [M+H]+
Name: Decarestrictine F
Name: (1S,3R,8Z,10R)-3-methyl-4,11-dioxabicyclo[8.1.0]undec-8-ene-5,7-dione
Class: Natural Product; Fungal metabolite
Formula: C10H12O4
Exact mass: 196.07355
SMILES: C[C@@H]1C[C@H]2[C@H](O2)/C=C\C(=O)CC(=O)O1
InChI: InChI=1S/C10H12O4/c1-6-4-9-8(14-9)3-2-7(11)5-10(12)13-6/h2-3,6,8-9H,4-5H2,1H3/b3-2-/t6-,8-,9+/m1/s1
Instrument: Q-Exactive Orbitrap Thermo Scientific
Instrument type: LC-ESI-ITFT
Ms type: MS2
Ion mode: POSITIVE
Ionization: ESI
Fragmentation mode: HCD
Collision energy: 20(NCE)
Resolution: 17500
Column name: Agilent RRHD Eclipse 50 x 2 mm, 1.8 uM
Retention time: 2.48
Base peak: 155.0703
Precursor m/z: 197.0803
Precursor type: [M+H]+
m/z	relative intensity	assigned
85.0284	58	
137.0597	53	
155.0703	999	C8H11O3+
197.0808	326	C10H13O4+
