Mass spectrum: Surfactin B; LC-ESI-ITFT; MS2; CE: 20; R=17500; [M+H]+
Name: Surfactin B
Name: 3-[(3S,6R,9S,12S,15R,18S,21S,25R)-9-(carboxymethyl)-25-(9-methyldecyl)-3,6,15,18-tetrakis(2-methylpropyl)-2,5,8,11,14,17,20,23-octaoxo-12-propan-2-yl-1-oxa-4,7,10,13,16,19,22-heptazacyclopentacos-21-yl]propanoic acid
Class: Natural Product; Bacterial metabolite
Formula: C52H91N7O13
Exact mass: 1021.66749
SMILES: CC(C)CCCCCCCC[C@@H]1CC(=O)N[C@H](C(=O)N[C@H](C(=O)N[C@@H](C(=O)N[C@H](C(=O)N[C@H](C(=O)N[C@@H](C(=O)N[C@H](C(=O)O1)CC(C)C)CC(C)C)CC(=O)O)C(C)C)CC(C)C)CC(C)C)CCC(=O)O
InChI: InChI=1S/C52H91N7O13/c1-29(2)19-17-15-13-14-16-18-20-35-27-42(60)53-36(21-22-43(61)62)46(65)54-37(23-30(3)4)47(66)56-39(25-32(7)8)50(69)59-45(34(11)12)51(70)57-40(28-44(63)64)49(68)55-38(24-31(5)6)48(67)58-41(26-33(9)10)52(71)72-35/h29-41,45H,13-28H2,1-12H3,(H,53,60)(H,54,65)(H,55,68)(H,56,66)(H,57,70)(H,58,67)(H,59,69)(H,61,62)(H,63,64)/t35-,36+,37+,38-,39-,40+,41+,45+/m1/s1
Instrument: Q-Exactive Orbitrap Thermo Scientific
Instrument type: LC-ESI-ITFT
Ms type: MS2
Ion mode: POSITIVE
Ionization: ESI
Fragmentation mode: HCD
Collision energy: 20(NCE)
Resolution: 17500
Column name: Agilent RRHD Eclipse 50 x 2 mm, 1.8 uM
Retention time: 4.88
Base peak: 685.4506
Precursor m/z: 1022.6742
Precursor type: [M+H]+
m/z	relative intensity	assigned
86.0973	64	
227.1754	101	
229.1183	33	
245.186	49	
326.2438	49	
328.1867	69	
338.2339	78	
342.2023	48	
356.2432	49	
360.2129	54	
395.2653	49	
423.262	55	
441.2721	273	
451.3171	113	
455.2864	41	
459.2827	52	
469.3277	157	
508.3494	35	
526.3599	38	
536.3429	40	
546.3902	40	
554.3521	132	
564.4021	109	
572.3667	54	C29H52N2O9+
582.4126	262	
663.4691	65	C36H63N4O7+
667.4371	117	
679.429	32	
681.4797	147	
685.4508	999	
695.4967	32	
697.4396	67	
778.4974	51	
794.5638	69	C42H76N5O9+
796.5066	52	C40H70N5O11+
810.5223	33	
863.5852	41	
891.5815	74	
909.5921	142	
923.6064	48	
994.6799	91	
1004.6642	152	
1022.6748	598	
