Mass spectrum: Deoxynivalenol; LC-ESI-ITFT; MS2; CE: 30; R=17500; [M+H]+
Name: Deoxynivalenol
Name: Vomitoxin
Name: 12,13-Epoxy-3-alpha,7-alpha,15-trihydroxy-9-trichothecen-8-one
Class: Natural Product; Fungal metabolite
Formula: C15H20O6
Exact mass: 296.12598
SMILES: CC1=C[C@@H]2[C@]([C@@H](C1=O)O)([C@]3(C[C@H]([C@H]([C@@]34CO4)O2)O)C)CO
InChI: InChI=1S/C15H20O6/c1-7-3-9-14(5-16,11(19)10(7)18)13(2)4-8(17)12(21-9)15(13)6-20-15/h3,8-9,11-12,16-17,19H,4-6H2,1-2H3/t8-,9-,11-,12-,13-,14-,15+/m1/s1
Instrument: Q-Exactive Orbitrap Thermo Scientific
Instrument type: LC-ESI-ITFT
Ms type: MS2
Ion mode: POSITIVE
Ionization: ESI
Fragmentation mode: HCD
Collision energy: 30(NCE)
Resolution: 17500
Column name: Agilent RRHD Eclipse 50 x 2 mm, 1.8 uM
Retention time: 2.3
Base peak: 203.106
Precursor m/z: 297.1327
Precursor type: [M+H]+
m/z	relative intensity	assigned
69.0335	269	
79.0542	172	
81.0699	168	
83.0491	109	
84.9601	38	
85.0284	86	
91.0542	43	
93.0699	116	
95.0491	187	
97.0648	246	
103.039	102	
105.0699	145	
107.0491	124	
107.0855	44	C8H11+
109.0648	210	
111.0441	50	
113.0597	34	
119.0855	46	C9H11+
121.0648	235	
123.0441	100	C7H7O2+
123.0804	72	
125.0597	539	
127.0754	41	
131.0855	94	
133.0648	116	
133.1012	72	
135.0804	89	
137.0597	390	
142.0777	35	
143.0855	96	C11H11+
145.0648	46	
145.1012	196	
147.0804	101	
149.0597	90	
149.0961	109	
151.039	40	
151.0754	41	
153.0546	49	
155.0703	35	
157.1012	226	
159.0804	305	
159.1168	179	
161.0597	226	
161.0961	252	
163.0754	122	
165.091	103	
169.1012	102	
173.0961	330	
175.0754	449	
175.1118	272	
176.938	42	
177.091	268	
185.0961	248	
187.0754	80	
187.1118	246	
189.091	471	
191.1067	125	
197.0961	78	
201.091	297	
203.1067	999	
204.9326	163	
205.0859	48	
213.091	261	
214.9171	91	
215.1067	151	
219.1016	249	
222.9434	145	
231.1016	658	
231.1227	33	
232.9272	663	
233.1172	106	
249.1121	493	
250.9379	801	
251.1278	226	
261.1121	183	
279.1227	97	
297.1333	41	
