Mass spectrum: Malformin A2; LC-ESI-ITFT; MS2; CE: 55; R=17500; [M-H]-
Name: Malformin A2
Name: cyclo[D-Cys(1)-D-Cys(1)-Val-D-Leu-Val]
Name: (1S,4S,7R,10S,13S)-7-(2-methylpropyl)-4,10-di(propan-2-yl)-15,16-dithia-3,6,9,12,18-pentazabicyclo[11.4.2]nonadecane-2,5,8,11,19-pentone
Class: Natural Product; Fungal metabolite
Formula: C22H37N5O5S2
Exact mass: 515.2236
SMILES: CC(C)C[C@@H]1C(=O)N[C@H](C(=O)N[C@@H]2CSSC[C@H](C(=O)N[C@H](C(=O)N1)C(C)C)NC2=O)C(C)C
InChI: InChI=1S/C22H37N5O5S2/c1-10(2)7-13-18(28)26-17(12(5)6)22(32)25-14-8-33-34-9-15(24-19(14)29)20(30)27-16(11(3)4)21(31)23-13/h10-17H,7-9H2,1-6H3,(H,23,31)(H,24,29)(H,25,32)(H,26,28)(H,27,30)/t13-,14-,15-,16+,17+/m1/s1
Instrument: Q-Exactive Orbitrap Thermo Scientific
Instrument type: LC-ESI-ITFT
Ms type: MS2
Ion mode: NEGATIVE
Ionization: ESI
Fragmentation mode: HCD
Collision energy: 55(NCE)
Resolution: 17500
Column name: Agilent RRHD Eclipse 50 x 2 mm, 1.8 uM
Retention time: 3.26
Base peak: 141.0654
Precursor m/z: 514.2169
Precursor type: [M-H]-
m/z	relative intensity	assigned
64.9507	194	
71.9896	159	
73.9689	51	
74.0054	385	
97.0022	45	
97.0394	123	
98.0108	31	
99.9845	61	
100.0207	161	
109.0394	449	
111.0182	171	
111.055	58	C3H5N5-
115.0863	190	
118.9653	47	
124.026	70	C3H10N1S2-
125.0707	159	
126.0005	402	
127.7802	31	
139.0863	161	
141.0656	999	
143.0271	123	
146.9597	575	
150.0547	43	
155.0808	133	
165.102	38	
167.0812	202	
171.0584	52	
174.9556	378	
191.1176	51	
193.132	70	
211.1438	64	
334.3951	35	
459.4125	31	
465.0458	35	
