Mass spectrum: Surfactin C; LC-ESI-ITFT; MS2; CE: 40; R=17500; [M+H]+
Name: Surfactin C
Name: 3-[(3S,6R,9S,12S,15R,18S,21S,25R)-9-(carboxymethyl)-3,6,15,18-tetrakis(2-methylpropyl)-25-(10-methylundecyl)-2,5,8,11,14,17,20,23-octaoxo-12-propan-2-yl-1-oxa-4,7,10,13,16,19,22-heptazacyclopentacos-21-yl]propanoic acid
Class: Natural Product; Bacterial metabolite
Formula: C53H93N7O13
Exact mass: 1035.68314
SMILES: CC(C)CCCCCCCCC[C@@H]1CC(=O)N[C@H](C(=O)N[C@H](C(=O)N[C@@H](C(=O)N[C@H](C(=O)N[C@H](C(=O)N[C@@H](C(=O)N[C@H](C(=O)O1)CC(C)C)CC(C)C)CC(=O)O)C(C)C)CC(C)C)CC(C)C)CCC(=O)O
InChI: InChI=1S/C53H93N7O13/c1-30(2)20-18-16-14-13-15-17-19-21-36-28-43(61)54-37(22-23-44(62)63)47(66)55-38(24-31(3)4)48(67)57-40(26-33(7)8)51(70)60-46(35(11)12)52(71)58-41(29-45(64)65)50(69)56-39(25-32(5)6)49(68)59-42(27-34(9)10)53(72)73-36/h30-42,46H,13-29H2,1-12H3,(H,54,61)(H,55,66)(H,56,69)(H,57,67)(H,58,71)(H,59,68)(H,60,70)(H,62,63)(H,64,65)/t36-,37+,38+,39-,40-,41+,42+,46+/m1/s1
Instrument: Q-Exactive Orbitrap Thermo Scientific
Instrument type: LC-ESI-ITFT
Ms type: MS2
Ion mode: POSITIVE
Ionization: ESI
Fragmentation mode: HCD
Collision energy: 40(NCE)
Resolution: 17500
Column name: Agilent RRHD Eclipse 50 x 2 mm, 1.8 uM
Retention time: 5.05
Base peak: 86.0973
Precursor m/z: 1036.6899
Precursor type: [M+H]+
m/z	relative intensity	assigned
72.0817	107	
84.0453	214	
86.0973	999	
102.055	169	
130.0499	67	
132.1019	40	
154.159	53	
170.1176	55	
183.1128	60	
185.1648	70	
199.1805	253	
201.1234	206	
213.1598	39	
215.104	35	
227.1754	122	
229.1183	69	
240.2322	72	
255.1703	34	
267.2431	34	
283.2016	40	
324.2533	39	
328.188	44	
342.2652	41	
352.2496	84	
370.2601	85	
