Mass spectrum: Fumonisin B3; LC-ESI-ITFT; MS2; CE: 35; R=17500; [M+H]+
Name: Fumonisin B3
Class: Natural Product; Fungal metabolite
Formula: C34H59NO14
Exact mass: 705.39354
SMILES: CCCC[C@@H](C)[C@H]([C@H](C[C@@H](C)C[C@@H](CCCCCC[C@@H]([C@@H](C)N)O)O)OC(=O)CC(CC(=O)O)C(=O)O)OC(=O)CC(CC(=O)O)C(=O)O
InChI: InChI=1S/C34H59NO14/c1-5-6-11-21(3)32(49-31(43)19-24(34(46)47)17-29(40)41)27(48-30(42)18-23(33(44)45)16-28(38)39)15-20(2)14-25(36)12-9-7-8-10-13-26(37)22(4)35/h20-27,32,36-37H,5-19,35H2,1-4H3,(H,38,39)(H,40,41)(H,44,45)(H,46,47)/t20-,21+,22+,23?,24?,25+,26-,27-,32+/m0/s1
Instrument: Q-Exactive Orbitrap Thermo Scientific
Instrument type: LC-ESI-ITFT
Ms type: MS2
Ion mode: POSITIVE
Ionization: ESI
Fragmentation mode: HCD
Collision energy: 35(NCE)
Resolution: 17500
Column name: Agilent RRHD Eclipse 50 x 2 mm, 1.8 uM
Retention time: 2.83
Base peak: 336.324
Precursor m/z: 706.4003
Precursor type: [M+H]+
m/z	relative intensity	assigned
57.0705	93	
67.0542	103	
69.0699	200	
70.0651	103	
79.0542	45	
81.0699	421	
83.0855	110	
85.0648	33	
85.1012	152	
93.0699	135	C7H9+
95.0855	460	C7H11+
97.1012	107	C7H13+
105.0699	68	
107.0855	179	
109.1012	334	
111.1168	53	
113.0233	31	
119.0855	59	
121.1012	161	
123.1168	202	
127.1118	53	
133.1012	81	
135.1168	148	
137.1325	65	
141.0182	58	
147.1168	93	
149.1325	91	
151.1481	78	
159.0288	237	
161.1325	54	
163.1481	45	
165.1638	37	
170.154	164	
175.1481	43	
177.1638	49	
188.1645	66	
189.1638	32	
191.1795	31	
194.1903	118	
203.1795	59	
208.206	32	
210.2217	54	
212.2009	36	
220.206	72	
224.2009	39	
238.2139	157	
256.2244	44	
301.289	44	
318.3129	431	
336.3234	999	
354.334	96	
