Mass spectrum: Brevianamide A; LC-ESI-ITFT; MS2; CE: 30; R=17500; [M+H]+
Name: Brevianamide A
Name: (1R,3S,5R,7R)-4,4-Dimethyl-13H-spiro[9,14-diazatetracyclo[5.5.2.01,9.03,7]tetradecane-5,2'-indole]-3',8,13(1'H)-trione
Class: Natural Product; Fungal metabolite
Formula: C21H23N3O3
Exact mass: 365.17394
SMILES: CC1([C@@H]2C[C@@]34CCCN3C(=O)[C@]2(C[C@]15C(=O)C6=CC=CC=C6N5)NC4=O)C
InChI: InChI=1S/C21H23N3O3/c1-18(2)14-10-19-8-5-9-24(19)17(27)20(14,23-16(19)26)11-21(18)15(25)12-6-3-4-7-13(12)22-21/h3-4,6-7,14,22H,5,8-11H2,1-2H3,(H,23,26)/t14-,19+,20+,21-/m0/s1
Instrument: Q-Exactive Orbitrap Thermo Scientific
Instrument type: LC-ESI-ITFT
Ms type: MS2
Ion mode: POSITIVE
Ionization: ESI
Fragmentation mode: HCD
Collision energy: 30(NCE)
Resolution: 17500
Column name: Agilent RRHD Eclipse 50 x 2 mm, 1.8 uM
Retention time: 2.92
Base peak: 321.1579
Precursor m/z: 366.1807
Precursor type: [M+H]+
m/z	relative intensity	assigned
132.0444	49	
146.06	36	
165.0658	114	
167.0815	276	
176.107	709	
179.1543	50	
188.107	39	
207.1492	83	
235.1441	683	
280.108	218	
297.1108	59	
298.1186	79	
303.1492	127	
310.1914	271	
320.1757	91	
321.1598	999	
338.1863	199	
348.1707	170	
366.1812	183	
