Mass spectrum: iso-Roridine E; LC-ESI-ITFT; MS2; CE: 50; R=17500; [M+Na]+
Name: iso-Roridine E
Class: Natural Product; Fungal metabolite
Formula: C29H38O8
Exact mass: 514.25667
SMILES: CC1=C[C@@H]2[C@@]3(CC1)COC(=O)/C=C(/CCO[C@@H](/C=C/C=C\C(=O)O[C@H]4[C@]3([C@]5(CO5)[C@@H](C4)O2)C)[C@H](C)O)\C
InChI: InChI=1S/C29H38O8/c1-18-9-11-28-16-34-26(32)14-19(2)10-12-33-21(20(3)30)7-5-6-8-25(31)37-22-15-24(36-23(28)13-18)29(17-35-29)27(22,28)4/h5-8,13-14,20-24,30H,9-12,15-17H2,1-4H3/b7-5+,8-6-,19-14+/t20-,21-,22+,23+,24+,27+,28+,29-/m0/s1
Instrument: Q-Exactive Orbitrap Thermo Scientific
Instrument type: LC-ESI-ITFT
Ms type: MS2
Ion mode: POSITIVE
Ionization: ESI
Fragmentation mode: HCD
Collision energy: 50(NCE)
Resolution: 17500
Column name: Agilent RRHD Eclipse 50 x 2 mm, 1.8 uM
Retention time: 3.78
Base peak: 135.0411
Precursor m/z: 537.2453
Precursor type: [M+Na]+
m/z	relative intensity	assigned
51.3467	33	
61.9354	46	
79.0542	53	
81.0699	112	
81.7265	46	
91.0542	52	
95.0491	112	
97.354	47	
105.0699	88	
119.0855	90	C9H11+
131.0855	64	C10H11+
133.1012	50	
135.0417	999	
139.1001	63	
143.0855	84	
159.1168	69	
174.8531	59	
177.0522	570	
231.138	107	
307.1152	584	
