Mass spectrum: Trichodermamide A; LC-ESI-ITFT; MS2; CE: 40; R=17500; [M+H]+
Name: Trichodermamide A
Name: (4aS,5R,8R,8aS)-N-(7,8-dimethoxy-2-oxochromen-3-yl)-4a,5,8-trihydroxy-4,5,8,8a-tetrahydro-1,2-benzoxazine-3-carboxamide
Class: Natural Product; Fungal metabolite
Formula: C20H20N2O9
Exact mass: 432.11685
SMILES: COC1=C(C2=C(C=C1)C=C(C(=O)O2)NC(=O)C3=NO[C@H]4[C@@H](C=C[C@H]([C@]4(C3)O)O)O)OC
InChI: InChI=1S/C20H20N2O9/c1-28-13-5-3-9-7-10(19(26)30-15(9)16(13)29-2)21-18(25)11-8-20(27)14(24)6-4-12(23)17(20)31-22-11/h3-7,12,14,17,23-24,27H,8H2,1-2H3,(H,21,25)/t12-,14-,17+,20+/m1/s1
Instrument: Q-Exactive Orbitrap Thermo Scientific
Instrument type: LC-ESI-ITFT
Ms type: MS2
Ion mode: POSITIVE
Ionization: ESI
Fragmentation mode: HCD
Collision energy: 40(NCE)
Resolution: 17500
Column name: Agilent RRHD Eclipse 50 x 2 mm, 1.8 uM
Retention time: 2.8
Base peak: 192.0657
Precursor m/z: 433.1236
Precursor type: [M+H]+
m/z	relative intensity	assigned
55.0643	63	
55.6059	66	
60.3487	82	
74.1444	79	
84.9332	75	
89.2759	74	
90.9772	104	
108.9655	75	
123.0441	82	
192.0655	999	
192.6563	76	
197.026	97	
205.8594	79	
215.5605	80	
220.0604	369	
221.0683	98	
248.0553	763	
256.4719	87	
259.6852	84	
354.8736	177	
376.8541	165	
407.4857	96	
