Mass spectrum: Deoxynivalenol; LC-ESI-ITFT; MS2; CE: 35; R=17500; [M+H]+
Name: Deoxynivalenol
Name: Vomitoxin
Name: 12,13-Epoxy-3-alpha,7-alpha,15-trihydroxy-9-trichothecen-8-one
Class: Natural Product; Fungal metabolite
Formula: C15H20O6
Exact mass: 296.12598
SMILES: CC1=C[C@@H]2[C@]([C@@H](C1=O)O)([C@]3(C[C@H]([C@H]([C@@]34CO4)O2)O)C)CO
InChI: InChI=1S/C15H20O6/c1-7-3-9-14(5-16,11(19)10(7)18)13(2)4-8(17)12(21-9)15(13)6-20-15/h3,8-9,11-12,16-17,19H,4-6H2,1-2H3/t8-,9-,11-,12-,13-,14-,15+/m1/s1
Instrument: Q-Exactive Orbitrap Thermo Scientific
Instrument type: LC-ESI-ITFT
Ms type: MS2
Ion mode: POSITIVE
Ionization: ESI
Fragmentation mode: HCD
Collision energy: 35(NCE)
Resolution: 17500
Column name: Agilent RRHD Eclipse 50 x 2 mm, 1.8 uM
Retention time: 2.3
Base peak: 203.106
Precursor m/z: 297.1327
Precursor type: [M+H]+
m/z	relative intensity	assigned
55.0185	112	
55.0549	65	
57.0341	35	
67.0542	118	
69.0335	434	
69.0706	44	
71.0491	49	
79.0542	343	
81.0699	214	
83.0491	182	
84.96	184	
85.0284	168	
89.0597	49	
91.0542	172	
93.0699	198	
95.0491	359	
97.0648	423	
99.0441	38	
102.9703	49	
103.039	64	
105.0699	324	
107.0491	228	
107.0855	129	
109.0284	117	C6H5O2+
109.0648	358	
117.0699	145	C9H9+
119.0491	34	
119.0855	177	
121.0648	353	
123.0441	276	C7H7O2+
123.0804	120	
125.0597	784	
127.0754	68	
128.0621	33	C10H8+
129.0699	52	
131.0855	281	
133.0648	272	
133.1012	63	
135.0441	50	
135.0804	177	
137.0597	497	
141.0699	35	
142.0777	140	
143.0855	156	
145.0648	165	C10H9O1+
145.1012	215	
146.0726	33	
147.0804	289	
147.1168	59	C11H15+
149.0597	188	
149.0961	166	
151.039	39	
151.0754	44	
153.0546	35	
154.0777	51	
155.0855	57	
157.1012	265	
158.0726	115	
158.9267	34	
159.0804	462	
159.1168	255	
161.0597	479	
161.0961	400	
163.0754	209	
165.091	168	
167.0855	34	
169.1012	141	
171.0804	66	
172.0883	115	
173.0961	398	
174.0675	117	
175.0754	836	
175.1118	468	
176.938	162	
177.091	406	
185.0961	424	
186.9225	36	
187.0754	119	
187.1118	276	
188.0832	140	
189.091	539	
191.1067	67	
194.9486	57	
195.0804	46	
197.0961	137	
198.0675	142	
201.091	417	
203.0703	50	
203.1067	999	
203.1237	53	
204.9328	381	
205.0859	107	C12H13O3+
213.091	312	
214.9178	65	
215.1067	134	
219.1016	241	
222.9428	281	
231.1016	662	
232.9276	763	
233.1172	117	
249.1121	319	
250.9379	767	
251.1278	64	
261.1121	146	
267.1227	43	
279.1227	91	
297.1333	33	
