Mass spectrum: Altenuene; LC-ESI-ITFT; MS2; CE: 20; R=17500; [M+H]+
Name: Altenuene
Name: (2S,3S,4aS)-2,3,7-trihydroxy-9-methoxy-4a-methyl-3,4-dihydro-2H-benzo[c]chromen-6-one
Class: Natural Product; Fungal metabolite
Formula: C15H16O6
Exact mass: 292.09468
SMILES: C[C@]12C[C@@H]([C@H](C=C1C3=CC(=CC(=C3C(=O)O2)O)OC)O)O
InChI: InChI=1S/C15H16O6/c1-15-6-12(18)10(16)5-9(15)8-3-7(20-2)4-11(17)13(8)14(19)21-15/h3-5,10,12,16-18H,6H2,1-2H3/t10-,12-,15-/m0/s1
Instrument: Q-Exactive Orbitrap Thermo Scientific
Instrument type: LC-ESI-ITFT
Ms type: MS2
Ion mode: POSITIVE
Ionization: ESI
Fragmentation mode: HCD
Collision energy: 20(NCE)
Resolution: 17500
Column name: Agilent RRHD Eclipse 50 x 2 mm, 1.8 uM
Retention time: 2.88
Base peak: 257.0794
Precursor m/z: 293.1014
Precursor type: [M+H]+
m/z	relative intensity	assigned
213.091	43	
229.0859	111	
231.1016	54	
239.0703	73	
247.0965	40	
257.0808	999	
275.0914	296	
293.102	52	
