Mass spectrum: 3-Acetyldeoxynivalenol; LC-APCI-ITFT; MS2; CE: 40; R=17500; [M-H2O+H]+
Name: 3-Acetyldeoxynivalenol
Name: 3-monoacetyldeoxynivalenol
Class: Natural Product; Fungal metabolite
Formula: C17H22O7
Exact mass: 338.13654
SMILES: CC1=C[C@@H]2[C@]([C@@H](C1=O)O)([C@]3(C[C@H]([C@H]([C@@]34CO4)O2)OC(=O)C)C)CO
InChI: InChI=1S/C17H22O7/c1-8-4-11-16(6-18,13(21)12(8)20)15(3)5-10(23-9(2)19)14(24-11)17(15)7-22-17/h4,10-11,13-14,18,21H,5-7H2,1-3H3/t10-,11-,13-,14-,15-,16-,17+/m1/s1
Instrument: Q-Exactive Orbitrap Thermo Scientific
Instrument type: LC-APCI-ITFT
Ms type: MS2
Ion mode: POSITIVE
Ionization: APCI
Fragmentation mode: HCD
Collision energy: 40(NCE)
Resolution: 17500
Column name: Agilent RRHD Eclipse 50 x 2 mm, 1.8 uM
Retention time: 2.77
Base peak: 215.1078
Precursor m/z: 321.1327
Precursor type: [M-H2O+H]+
m/z	relative intensity	assigned
52.893	48	
53.0396	43	
53.5396	40	
58.6797	42	
60.2905	51	
63.6412	40	
64.5878	45	
66.4195	44	
67.055	61	
69.0343	211	
69.0707	50	
74.8764	41	
79.0542	666	
81.0707	384	
83.0491	54	
91.0542	328	
91.7184	47	
93.0699	490	
95.0491	320	
97.0648	315	
104.9744	60	
105.0699	498	
106.8749	48	
107.0491	98	
107.0855	350	
109.0284	557	
109.0648	808	
110.0726	49	
111.0441	210	
111.0804	68	
111.8314	54	
117.0699	131	
119.0855	290	
121.0648	224	
123.0441	406	
125.0597	372	
128.0621	59	C10H8+
129.0699	109	
131.0855	284	
133.0648	103	C9H9O1+
133.1012	80	C10H13+
135.0441	104	
135.0804	341	
137.0597	385	
141.0699	67	
142.0777	215	
143.0855	307	
145.0648	111	
145.1012	455	
146.6381	50	
147.0804	435	C10H11O1+
147.1168	88	
149.0961	84	
151.039	90	
151.0754	109	
153.0546	263	
153.5987	59	
154.0777	57	
155.0855	59	
156.0934	105	
157.1012	437	
158.0726	75	
159.0804	524	C11H11O1+
159.1168	370	C12H15+
161.0597	67	
161.0961	275	C11H13O1+
163.0754	490	
165.0699	55	
167.0855	76	
169.1012	459	
171.0804	105	
171.1168	210	
172.0902	82	
173.0961	786	
175.0754	443	
175.1118	614	
177.091	110	
179.0703	115	
182.0726	120	
185.0961	687	
187.0754	108	
187.1118	615	
189.091	402	
191.1067	60	
197.0808	141	
197.0961	596	
199.1118	89	
201.091	316	
203.1067	861	
205.1223	75	
213.091	338	
215.1067	999	
219.1016	91	
224.0436	53	
225.091	82	
231.1016	314	
233.1172	208	
243.1016	116	
261.1121	512	
279.1227	239	
286.5047	52	
305.2933	57	
315.7022	52	
