Mass spectrum: Fusaric acid; LC-ESI-ITFT; MS2; CE: 20; R=17500; [M+H]+
Name: Fusaric acid
Name: Fusarinic acid, 2.5-Butylpicolinic acid, Piconlinic acid
Name: 5-Butylpyridine-2-carboxylic acid
Class: Natural Product; Fungal metabolite
Formula: C10H13NO2
Exact mass: 179.09463
SMILES: CCCCC1=CN=C(C=C1)C(=O)O
InChI: InChI=1S/C10H13NO2/c1-2-3-4-8-5-6-9(10(12)13)11-7-8/h5-7H,2-4H2,1H3,(H,12,13)
Instrument: Q-Exactive Orbitrap Thermo Scientific
Instrument type: LC-ESI-ITFT
Ms type: MS2
Ion mode: POSITIVE
Ionization: ESI
Fragmentation mode: HCD
Collision energy: 20(NCE)
Resolution: 17500
Column name: Agilent RRHD Eclipse 50 x 2 mm, 1.8 uM
Retention time: 2.53
Base peak: 180.1027
Precursor m/z: 180.1014
Precursor type: [M+H]+
m/z	relative intensity	assigned
62.8739	43	
79.5435	40	
116.0146	46	
117.0093	45	
152.107	968	
180.1019	999	
