Mass spectrum: Fusarenone-X; LC-ESI-ITFT; MS2; CE: 50; R=17500; [M+H]+
Name: Fusarenone-X
Name: (3beta,4alpha,7alpha)-3,7,15-Trihydroxy-8-oxo-12,13-epoxytrichothec-9-en-4-yl acetate
Class: Natural Product; Fungal metabolite
Formula: C17H22O8
Exact mass: 354.13145
SMILES: CC1=C[C@@H]2[C@]([C@@H](C1=O)O)([C@]3([C@@H]([C@H]([C@H]([C@@]34CO4)O2)O)OC(=O)C)C)CO
InChI: InChI=1S/C17H22O8/c1-7-4-9-16(5-18,12(22)10(7)20)15(3)13(24-8(2)19)11(21)14(25-9)17(15)6-23-17/h4,9,11-14,18,21-22H,5-6H2,1-3H3/t9-,11-,12-,13-,14-,15-,16-,17+/m1/s1
Instrument: Q-Exactive Orbitrap Thermo Scientific
Instrument type: LC-ESI-ITFT
Ms type: MS2
Ion mode: POSITIVE
Ionization: ESI
Fragmentation mode: HCD
Collision energy: 50(NCE)
Resolution: 17500
Column name: Agilent RRHD Eclipse 50 x 2 mm, 1.8 uM
Retention time: 2.46
Base peak: 137.0591
Precursor m/z: 355.1382
Precursor type: [M+H]+
m/z	relative intensity	assigned
67.0542	49	
69.0335	110	
71.0491	92	
79.0542	97	
81.0699	79	
83.0491	45	
85.0284	60	
91.0542	139	
95.0491	106	
97.0648	53	
99.0441	109	C5H7O2+
105.0699	80	C8H9+
107.0491	117	C7H7O1+
109.0648	189	
117.0699	71	
119.0855	215	
121.0648	184	
123.0441	131	
125.0597	127	
128.0621	38	
129.0699	84	
131.0855	195	
133.0648	58	
135.0804	116	
137.0597	999	
141.0546	40	
141.0699	38	
142.0777	61	
143.0855	87	
144.057	32	
145.0648	83	
145.1012	123	
147.0804	234	
149.0597	69	
149.0961	83	
151.039	31	
151.0754	47	
153.0546	51	
155.0855	100	
157.1012	49	
158.0726	105	
159.0804	350	
161.0597	141	
161.0961	84	
163.0754	133	
165.091	64	
171.0804	72	
173.0961	157	
174.0675	44	
175.0754	740	
177.091	135	
183.0804	90	
185.0961	61	
186.0675	58	
187.0754	198	
188.0832	38	
189.091	142	
191.0703	60	
198.0675	46	
199.0754	56	
201.091	304	
205.0859	145	
211.0754	110	
213.091	40	
214.0624	94	
217.0859	68	
229.0859	144	
