Mass spectrum: Cercosporin; LC-ESI-ITFT; MS2; CE: 30; R=17500; [M+H]+
Name: Cercosporin
Class: Natural Product; Fungal metabolite
Formula: C29H26O10
Exact mass: 534.15258
SMILES: C[C@H](CC1=C(C(=C2C(=O)C=C3C4=C5C(=CC(=O)C6=C(C(=C(C(=C56)C1=C42)C[C@@H](C)O)OC)O)OCO3)O)OC)O
InChI: InChI=1S/C29H26O10/c1-10(30)5-12-18-19-13(6-11(2)31)29(37-4)27(35)21-15(33)8-17-23(25(19)21)22-16(38-9-39-17)7-14(32)20(24(18)22)26(34)28(12)36-3/h7-8,10-11,30-31,34-35H,5-6,9H2,1-4H3/t10-,11-/m1/s1
Instrument: Q-Exactive Orbitrap Thermo Scientific
Instrument type: LC-ESI-ITFT
Ms type: MS2
Ion mode: POSITIVE
Ionization: ESI
Fragmentation mode: HCD
Collision energy: 30(NCE)
Resolution: 17500
Column name: Agilent RRHD Eclipse 50 x 2 mm, 1.8 uM
Retention time: 3.63
Base peak: 415.0794
Precursor m/z: 535.1593
Precursor type: [M+H]+
m/z	relative intensity	assigned
383.055	122	
384.0628	34	
396.0628	40	
397.0707	49	
399.0863	31	
400.0577	57	
401.0656	55	
411.0863	36	
412.0577	41	
413.0589	45	
415.0812	999	
425.102	91	
426.0688	33	
427.0812	86	
429.0969	109	
429.1388	34	
441.0605	72	
441.0969	47	
443.0761	119	
443.1178	55	
452.089	35	
453.0969	71	
456.084	46	
457.1282	54	
459.1074	84	
467.1125	55	
475.1023	41	
485.1231	171	
