Mass spectrum: Viridicatin; LC-ESI-ITFT; MS2; CE: 50; R=17500; [M+H]+
Name: Viridicatin
Name: 3-hydroxy-4-phenyl-1H-quinolin-2-one
Class: Natural Product; Fungal metabolite
Formula: C15H11NO2
Exact mass: 237.07898
SMILES: C1=CC=C(C=C1)C2=C(C(=O)NC3=CC=CC=C32)O
InChI: InChI=1S/C15H11NO2/c17-14-13(10-6-2-1-3-7-10)11-8-4-5-9-12(11)16-15(14)18/h1-9,17H,(H,16,18)
Instrument: Q-Exactive Orbitrap Thermo Scientific
Instrument type: LC-ESI-ITFT
Ms type: MS2
Ion mode: POSITIVE
Ionization: ESI
Fragmentation mode: HCD
Collision energy: 50(NCE)
Resolution: 17500
Column name: Agilent RRHD Eclipse 50 x 2 mm, 1.8 uM
Retention time: 3.39
Base peak: 238.0859
Precursor m/z: 238.0857
Precursor type: [M+H]+
m/z	relative intensity	assigned
105.0335	77	
132.0444	284	C8H6N1O1+
165.0699	187	
182.0964	42	
192.0808	668	
220.0757	130	
238.0863	999	
