Mass spectrum: Satratoxin H; LC-ESI-ITFT; MS2; CE: 30; R=17500; [M+H]+
Name: Satratoxin H
Class: Natural Product; Fungal metabolite
Formula: C29H36O9
Exact mass: 528.23593
SMILES: CC1=C[C@@H]2[C@@]3(CC1)COC(=O)/C=C/4\CCO[C@@]([C@@H]4O)(/C=C/C=C/C(=O)OC5[C@]3([C@]6(CO6)[C@@H](C5)O2)C)[C@H](C)O
InChI: InChI=1S/C29H36O9/c1-17-7-10-27-15-34-24(32)13-19-8-11-35-28(18(2)30,25(19)33)9-5-4-6-23(31)38-20-14-22(37-21(27)12-17)29(16-36-29)26(20,27)3/h4-6,9,12-13,18,20-22,25,30,33H,7-8,10-11,14-16H2,1-3H3/b6-4+,9-5+,19-13+/t18-,20?,21+,22+,25+,26+,27+,28-,29-/m0/s1
Instrument: Q-Exactive Orbitrap Thermo Scientific
Instrument type: LC-ESI-ITFT
Ms type: MS2
Ion mode: POSITIVE
Ionization: ESI
Fragmentation mode: HCD
Collision energy: 30(NCE)
Resolution: 17500
Column name: Agilent RRHD Eclipse 50 x 2 mm, 1.8 uM
Retention time: 3.25
Base peak: 231.1381
Precursor m/z: 529.2427
Precursor type: [M+H]+
m/z	relative intensity	assigned
59.1728	112	
60.7756	106	
64.0646	98	
69.1834	124	
75.0763	116	
76.6668	118	
79.0542	137	
81.0708	153	
84.9959	109	
93.0699	141	
103.2827	141	
105.0699	839	
107.0855	157	
108.1899	122	
123.0804	192	
127.039	259	
143.0855	131	
157.1012	128	
159.1168	210	
161.0961	216	
161.2612	134	
173.0597	180	
175.0754	178	
183.1168	179	
185.1325	257	
186.1462	132	C7H22O5+
191.0703	249	
195.0652	227	
199.0754	127	
199.9902	135	
201.1274	242	
208.2332	145	
212.0433	153	
213.1274	265	
217.0859	209	
219.0652	763	
219.138	125	
231.138	999	
249.1513	400	
407.4119	138	
452.9305	138	
