Mass spectrum: NX2 toxin; LC-APCI-ITFT; MS2; CE: 20; R=17500; [M+H]+
Name: NX2 toxin
Class: Natural Product; Fungal metabolite
Formula: C17H24O6
Exact mass: 324.15728
SMILES: CC1=C[C@@H]2[C@]([C@@]3(C)C[C@@H](OC(C)=O)[C@@H](O2)[C@@]34CO4)(CO)[C@H](O)C1
InChI: InChI=1S/C17H24O6/c1-9-4-12(20)16(7-18)13(5-9)23-14-11(22-10(2)19)6-15(16,3)17(14)8-21-17/h5,11-14,18,20H,4,6-8H2,1-3H3/t11-,12-,13-,14-,15-,16+,17+/m1/s1
Instrument: Q-Exactive Orbitrap Thermo Scientific
Instrument type: LC-APCI-ITFT
Ms type: MS2
Ion mode: POSITIVE
Ionization: APCI
Fragmentation mode: HCD
Collision energy: 20(NCE)
Resolution: 17500
Column name: Agilent RRHD Eclipse 50 x 2 mm, 1.8 uM
Retention time: 2.75
Base peak: 325.1651
Precursor m/z: 325.164
Precursor type: [M+H]+
m/z	relative intensity	assigned
81.0708	54	
93.0699	128	
97.0648	31	
99.0441	35	
105.0699	164	
107.0855	37	
109.0648	130	
119.0855	34	
121.0648	268	
123.0804	92	
125.0597	150	
127.0754	32	
133.0648	209	
137.0597	40	
139.0754	225	
143.0855	106	
145.1012	48	
147.0804	60	
157.1012	160	
159.0804	45	
159.1168	57	
161.0961	51	
169.1012	101	
171.0804	46	
171.1168	236	
173.0961	61	
173.1325	58	
181.1012	48	
183.1168	291	
187.1118	112	
189.1274	42	
191.1067	111	
193.1012	35	
199.1118	442	
201.1274	205	
209.1172	103	
211.1118	264	
215.1067	46	
217.1223	254	
219.138	38	
229.1223	486	
235.1329	36	
247.1329	458	
259.1329	42	
265.1434	216	
277.1434	83	
283.154	440	
289.1434	189	
307.154	803	
325.1646	999	
