Mass spectrum: Viridicatumtoxin; LC-ESI-ITFT; MS2; CE: 40; R=17500; [M-H]-
Name: Viridicatumtoxin
Name: (1S,7a'S,11a'R)-5',6',7a',10',11a'-Pentahydroxy-3'-methoxy-2,6,6-trimethyl-7',8',12'-trioxo-7',7a',8',11',11a',12'-hexahydro-1'H-spiro[cyclohex-2-ene-1,2'-cyclopenta[de]tetracene]-9'-carboxamide
Class: Natural Product; Fungal metabolite
Formula: C30H31NO10
Exact mass: 565.19478
SMILES: CC1=CCCC([C@@]12CC3=C4[C@@H]([C@]5(CC(=O)C(=C([C@]5(C(=O)C4=C(C6=C3C2=C(C=C6O)OC)O)O)O)C(=O)N)O)O)(C)C
InChI: InChI=1S/C30H31NO10/c1-11-6-5-7-27(2,3)28(11)9-12-16-18(13(32)8-15(41-4)21(16)28)22(34)20-17(12)23(35)29(39)10-14(33)19(26(31)38)24(36)30(29,40)25(20)37/h6,8,23,32,34-36,39-40H,5,7,9-10H2,1-4H3,(H2,31,38)/t23-,28-,29-,30+/m0/s1
Instrument: Q-Exactive Orbitrap Thermo Scientific
Instrument type: LC-ESI-ITFT
Ms type: MS2
Ion mode: NEGATIVE
Ionization: ESI
Fragmentation mode: HCD
Collision energy: 40(NCE)
Resolution: 17500
Column name: Agilent RRHD Eclipse 50 x 2 mm, 1.8 uM
Retention time: 3.95
Base peak: 461.1599
Precursor m/z: 564.188
Precursor type: [M-H]-
m/z	relative intensity	assigned
99.0071	48	
114.0182	49	
123.0069	93	
136.9862	50	
139.002	61	
141.0179	41	
149.9958	107	
150.017	47	
163.0037	44	
166.9986	292	
168.0302	60	
184.0224	78	
279.232	38	
308.069	47	
317.0455	57	
320.1418	44	
333.0404	39	
335.1653	256	
342.0897	38	
345.0768	52	
346.0847	181	
348.0639	57	
351.051	40	
351.1602	150	
357.0768	41	
357.1132	49	
359.0925	40	
361.1081	338	
363.0874	146	
363.1602	40	
364.1316	60	
370.0847	325	
372.0639	47	
373.0717	93	
373.1809	50	
375.1602	41	
376.0588	40	
377.1394	370	
379.1551	271	
385.1081	642	
386.0796	109	
387.0874	178	
388.0952	241	
389.1758	73	
390.0745	130	
390.1473	40	
401.103	59	
402.1473	128	
403.1214	120	
405.1292	152	
405.1734	52	
413.1758	120	
414.0745	110	
417.1707	603	
419.15	766	
426.1473	110	
429.098	281	
433.1657	82	
441.1707	945	
442.1422	59	
443.15	300	
444.1578	68	
446.1371	85	
455.1163	38	
456.1816	106	
457.1657	156	
459.1813	254	
461.1606	999	
467.15	66	
484.1739	60	
485.1606	439	
502.1871	67	
