Mass spectrum: Walleminone; LC-ESI-ITFT; MS2; CE: 35; R=17500; [M-H2O+H]+
Name: Walleminone
Name: (1R,4S,5S,6R,9R)-5,6-dihydroxy-4,11,11-trimethyl-8-methylidenebicyclo[7.2.0]undecan-3-one
Class: Natural Product; Fungal metabolite
Formula: C15H24O3
Exact mass: 252.17255
SMILES: C[C@H]1[C@@H]([C@@H](CC(=C)[C@@H]2CC([C@@H]2CC1=O)(C)C)O)O
InChI: InChI=1S/C15H24O3/c1-8-5-13(17)14(18)9(2)12(16)6-11-10(8)7-15(11,3)4/h9-11,13-14,17-18H,1,5-7H2,2-4H3/t9-,10+,11-,13-,14+/m1/s1
Instrument: Q-Exactive Orbitrap Thermo Scientific
Instrument type: LC-ESI-ITFT
Ms type: MS2
Ion mode: POSITIVE
Ionization: ESI
Fragmentation mode: HCD
Collision energy: 35(NCE)
Resolution: 17500
Column name: Agilent RRHD Eclipse 50 x 2 mm, 1.8 uM
Retention time: 3.44
Base peak: 161.1321
Precursor m/z: 235.1687
Precursor type: [M-H2O+H]+
m/z	relative intensity	assigned
67.0542	32	
69.0706	72	
81.0699	87	
83.0491	31	
83.0855	34	
91.0542	51	
93.0699	102	
95.0855	142	
105.0699	196	
107.0855	278	
109.0648	140	
109.1012	90	
117.0699	33	C9H9+
119.0855	422	C9H11+
121.0648	107	C8H9O1+
121.1012	230	C9H13+
123.0804	61	C8H11O1+
123.1168	32	
127.0754	40	
131.0855	60	
133.1012	422	
135.0804	35	C9H11O1+
135.1168	90	
143.0855	119	
145.1012	126	
147.0804	34	
147.1168	116	
157.1012	82	
159.1168	131	
161.0961	261	
161.1325	999	
163.1118	68	
165.091	36	
171.1168	42	
173.1325	232	
175.1118	73	C12H15O1+
175.1481	342	
177.1274	225	
179.1067	40	
189.1638	132	
199.1481	105	
217.1587	249	
235.1693	317	
