Mass spectrum: Ochratoxin B; LC-ESI-ITFT; MS2; CE: 20; R=17500; [M+H]+
Name: Ochratoxin B
Name: (2S)-2-[[(3R)-8-hydroxy-3-methyl-1-oxo-3,4-dihydroisochromene-7-carbonyl]amino]-3-phenylpropanoic acid
Class: Natural Product; Fungal metabolite
Formula: C20H19NO6
Exact mass: 369.12122
SMILES: C[C@@H]1CC2=C(C(=C(C=C2)C(=O)N[C@@H](CC3=CC=CC=C3)C(=O)O)O)C(=O)O1
InChI: InChI=1S/C20H19NO6/c1-11-9-13-7-8-14(17(22)16(13)20(26)27-11)18(23)21-15(19(24)25)10-12-5-3-2-4-6-12/h2-8,11,15,22H,9-10H2,1H3,(H,21,23)(H,24,25)/t11-,15+/m1/s1
Instrument: Q-Exactive Orbitrap Thermo Scientific
Instrument type: LC-ESI-ITFT
Ms type: MS2
Ion mode: POSITIVE
Ionization: ESI
Fragmentation mode: HCD
Collision energy: 20(NCE)
Resolution: 17500
Column name: Agilent RRHD Eclipse 50 x 2 mm, 1.8 uM
Retention time: 3.35
Base peak: 211.1444
Precursor m/z: 370.128
Precursor type: [M+H]+
m/z	relative intensity	assigned
51.8094	61	
75.5812	55	
86.0964	167	
91.0964	62	
109.7534	67	
111.7778	61	
123.1208	69	
172.4586	81	
205.0495	442	
211.1444	890	
223.0601	164	C11H11O5+
225.1599	166	
239.1363	299	
286.071	90	
295.9094	66	
324.123	84	
324.2291	128	
340.1179	358	
