Mass spectrum: Diacetoxyscirpenol; LC-ESI-ITFT; MS2; CE: 30; R=17500; [M+H]+
Name: Diacetoxyscirpenol
Name: Anguidine, Anguidin
Name: (3beta,4alpha,12R)-3-Hydroxy-12,13-epoxytrichothec-9-ene-4,15-diyl diacetate
Class: Natural Product; Fungal metabolite
Formula: C19H26O7
Exact mass: 366.16785
SMILES: CC1=C[C@@H]2[C@](CC1)([C@]3([C@@H]([C@H]([C@H]([C@]34CO4)O2)O)OC(=O)C)C)COC(=O)C
InChI: InChI=1S/C19H26O7/c1-10-5-6-18(8-23-11(2)20)13(7-10)26-16-14(22)15(25-12(3)21)17(18,4)19(16)9-24-19/h7,13-16,22H,5-6,8-9H2,1-4H3/t13-,14-,15-,16-,17-,18-,19-/m1/s1
Instrument: Q-Exactive Orbitrap Thermo Scientific
Instrument type: LC-ESI-ITFT
Ms type: MS2
Ion mode: POSITIVE
Ionization: ESI
Fragmentation mode: HCD
Collision energy: 30(NCE)
Resolution: 17500
Column name: Agilent RRHD Eclipse 50 x 2 mm, 1.8 uM
Retention time: 3.05
Base peak: 105.0698
Precursor m/z: 367.1746
Precursor type: [M+H]+
m/z	relative intensity	assigned
69.0335	52	
79.0542	81	
81.0699	258	
83.0491	44	
91.0542	65	C7H7+
93.0699	246	C7H9+
95.0491	228	
95.0855	127	
97.0648	244	C6H9O1+
105.0699	999	
107.0491	92	
107.0855	319	
109.0648	269	
111.0441	39	
113.0597	219	
117.0699	46	
119.0491	40	
119.0855	149	
121.0648	332	
123.0441	60	
123.0804	580	
125.0597	427	
129.0699	65	
131.0855	211	
133.0648	59	
133.1012	116	
135.0804	55	
137.0597	88	
139.0754	54	
141.0546	53	
141.0699	47	
142.0777	48	
143.0703	67	
143.0855	265	
145.0648	59	
145.1012	236	
147.0804	117	
147.1168	84	
149.0597	51	
149.0961	57	
151.0754	38	
155.0703	34	
155.0855	104	
156.0934	34	
157.1012	374	
159.0804	152	
159.1168	330	
161.0961	233	
161.1325	40	
163.1118	112	
167.0703	48	
168.0934	86	
169.1012	134	
171.0804	32	
171.1168	224	
173.0961	137	
173.1325	333	
175.1118	294	
177.1274	50	
181.1012	104	
183.1168	477	
185.0961	57	
185.1325	40	
187.1118	241	
189.1274	106	
191.1431	33	
193.1012	86	
193.1223	65	
196.0883	59	
199.1118	552	
201.1274	754	
203.1067	54	
205.1223	92	
211.1118	328	
217.1223	312	
219.138	196	
229.1223	747	
235.1329	44	
247.1329	653	
265.1434	163	
289.1434	123	
307.154	405	
367.1751	68	
