Mass spectrum: Aflatoxin B1; LC-ESI-ITFT; MS2; CE: 50; R=17500; [M+H]+
Name: Aflatoxin B1
Name: (6aR,9aS)-4-Methoxy-2,3,6a,9a-tetrahydrocyclopenta[c]furo[3',2':4,5]furo[2,3-h]chromene-1,11-dione
Class: Natural Product; Fungal metabolite
Formula: C17H12O6
Exact mass: 312.06337
SMILES: COC1=C2C3=C(C(=O)CC3)C(=O)OC2=C4[C@@H]5C=CO[C@@H]5OC4=C1
InChI: InChI=1S/C17H12O6/c1-20-10-6-11-14(8-4-5-21-17(8)22-11)15-13(10)7-2-3-9(18)12(7)16(19)23-15/h4-6,8,17H,2-3H2,1H3/t8-,17+/m0/s1
Instrument: Q-Exactive Orbitrap Thermo Scientific
Instrument type: LC-ESI-ITFT
Ms type: MS2
Ion mode: POSITIVE
Ionization: ESI
Fragmentation mode: HCD
Collision energy: 50(NCE)
Resolution: 17500
Column name: Agilent RRHD Eclipse 50 x 2 mm, 1.8 uM
Retention time: 3.1
Base peak: 285.0744
Precursor m/z: 313.0701
Precursor type: [M+H]+
m/z	relative intensity	assigned
173.0961	36	
186.0675	39	
187.0754	64	
197.0597	36	
201.091	201	
213.0546	70	
214.0624	308	
215.0703	75	
224.0468	43	
225.0546	40	
227.0339	52	
229.0495	45	
229.0859	188	
241.0495	520	
242.0574	436	
243.0652	174	
252.0417	116	
253.0495	115	
257.0808	242	
269.0444	650	
270.0523	707	
280.0366	46	
281.0444	34	
284.0679	354	
285.0757	999	
298.0472	243	
313.0707	551	
