Mass spectrum: Ergocorninine; LC-ESI-ITFT; MS2; CE: 50; R=17500; [M+H]+
Name: Ergocorninine
Name: 12'-Hydroxy-2',5'a-bis(1-methylethyl)-8a-ergotaman-3',6',18-trione
Class: Natural Product; Fungal metabolite
Formula: C31H39N5O5
Exact mass: 561.29511
SMILES: CC(C)[C@H]1C(=O)N2CCC[C@H]2[C@]3(N1C(=O)[C@](O3)(C(C)C)NC(=O)[C@H]4CN([C@@H]5CC6=CNC7=CC=CC(=C67)C5=C4)C)O
InChI: InChI=1S/C31H39N5O5/c1-16(2)26-28(38)35-11-7-10-24(35)31(40)36(26)29(39)30(41-31,17(3)4)33-27(37)19-12-21-20-8-6-9-22-25(20)18(14-32-22)13-23(21)34(5)15-19/h6,8-9,12,14,16-17,19,23-24,26,32,40H,7,10-11,13,15H2,1-5H3,(H,33,37)/t19-,23-,24+,26+,30-,31+/m1/s1
Instrument: Q-Exactive Orbitrap Thermo Scientific
Instrument type: LC-ESI-ITFT
Ms type: MS2
Ion mode: POSITIVE
Ionization: ESI
Fragmentation mode: HCD
Collision energy: 50(NCE)
Resolution: 17500
Column name: Agilent RRHD Eclipse 50 x 2 mm, 1.8 uM
Retention time: 2.74
Base peak: 223.1218
Precursor m/z: 562.3018
Precursor type: [M+H]+
m/z	relative intensity	assigned
70.0651	41	
83.0491	155	
139.123	226	
153.0645	196	
154.0651	53	
167.073	93	
167.1165	330	
168.0808	50	
178.0651	37	
180.0808	268	
181.0886	78	
182.0964	60	
191.073	211	
192.0808	505	
194.0964	103	
195.1115	135	
197.1271	37	
207.0665	82	
207.089	54	
208.0743	627	
208.0968	155	
209.0822	42	C12H9N4+
220.0968	31	
221.1073	500	
223.123	999	
224.1308	75	
225.1009	43	
249.1386	63	
259.1203	32	
261.1386	45	
268.1418	33	
277.1309	224	
305.1271	70	
