Mass spectrum: Fumonisin B1; LC-ESI-ITFT; MS2; CE: 30; R=17500; [M+H]+
Name: Fumonisin B1
Name: Macrofusine
Class: Natural Product; Fungal metabolite
Formula: C34H59NO15
Exact mass: 721.38845
SMILES: CCCC[C@@H](C)[C@H]([C@H](C[C@@H](C)C[C@@H](CCCC[C@H](C[C@@H]([C@H](C)N)O)O)O)OC(=O)C[C@@H](CC(=O)O)C(=O)O)OC(=O)C[C@@H](CC(=O)O)C(=O)O
InChI: InChI=1S/C34H59NO15/c1-5-6-9-20(3)32(50-31(44)17-23(34(47)48)15-29(41)42)27(49-30(43)16-22(33(45)46)14-28(39)40)13-19(2)12-24(36)10-7-8-11-25(37)18-26(38)21(4)35/h19-27,32,36-38H,5-18,35H2,1-4H3,(H,39,40)(H,41,42)(H,45,46)(H,47,48)/t19-,20+,21-,22+,23+,24+,25+,26-,27-,32+/m0/s1
Instrument: Q-Exactive Orbitrap Thermo Scientific
Instrument type: LC-ESI-ITFT
Ms type: MS2
Ion mode: POSITIVE
Ionization: ESI
Fragmentation mode: HCD
Collision energy: 30(NCE)
Resolution: 17500
Column name: Agilent RRHD Eclipse 50 x 2 mm, 1.8 uM
Retention time: 2.71
Base peak: 334.3087
Precursor m/z: 722.3952
Precursor type: [M+H]+
m/z	relative intensity	assigned
57.0705	46	
67.0542	34	
69.0699	69	
70.0651	128	
74.06	312	
81.0699	162	
83.0855	53	
85.1012	87	
93.0699	68	
95.0855	194	
97.1012	45	C7H13+
100.0757	49	C5H10N1O1+
105.0699	49	
107.0855	98	
109.1012	138	
119.0855	43	
121.1012	86	
123.1168	85	
127.1118	46	
133.1012	88	
135.1168	112	
137.1325	34	
145.1012	42	
147.1168	89	
149.1325	69	
151.1481	76	
159.0288	154	
159.1168	33	
161.1325	70	
163.1481	51	
165.1638	38	
168.1383	60	
175.1481	64	
177.1638	33	
186.1489	149	
189.1638	36	
201.1638	57	
210.1853	36	
236.2009	50	
254.2088	66	
316.2972	254	
334.3078	999	
352.3183	927	
370.3289	162	
492.3293	38	
510.3399	137	
528.3504	121	
546.361	32	
668.3614	36	
686.3746	105	
704.3852	118	
722.3957	36	
