Mass spectrum: Aflatoxin G1; LC-ESI-ITFT; MS2; CE: 50; R=17500; [M+H]+
Name: Aflatoxin G1
Name: 5-Methoxy-3,4,7a,10a-tetrahydro-1H,12H-furo[3',2':4,5]furo[2,3-h]pyrano[3,4-c]chromene-1,12-dione
Class: Natural Product; Fungal metabolite
Formula: C17H12O7
Exact mass: 328.05828
SMILES: COC1=C2C3=C(C(=O)OCC3)C(=O)OC2=C4[C@@H]5C=CO[C@@H]5OC4=C1
InChI: InChI=1S/C17H12O7/c1-20-9-6-10-12(8-3-5-22-17(8)23-10)14-11(9)7-2-4-21-15(18)13(7)16(19)24-14/h3,5-6,8,17H,2,4H2,1H3/t8-,17+/m0/s1
Instrument: Q-Exactive Orbitrap Thermo Scientific
Instrument type: LC-ESI-ITFT
Ms type: MS2
Ion mode: POSITIVE
Ionization: ESI
Fragmentation mode: HCD
Collision energy: 50(NCE)
Resolution: 17500
Column name: Agilent RRHD Eclipse 50 x 2 mm, 1.8 uM
Retention time: 3.04
Base peak: 243.0641
Precursor m/z: 329.065
Precursor type: [M+H]+
m/z	relative intensity	assigned
185.0597	36	
197.0597	33	
199.0754	43	
200.0468	181	
205.0859	37	
213.0546	49	
214.0624	343	
215.0703	512	
225.0546	49	
227.0703	90	
233.0808	51	
240.0417	44	
241.0495	86	
242.0574	73	
243.0652	999	
253.0495	39	
255.0652	171	
268.0366	121	
270.0523	49	
282.0523	34	
283.0601	362	
296.0315	31	
301.0707	57	
311.055	249	
329.0656	213	
