Mass spectrum: Enniatin A; LC-ESI-ITFT; MS2; CE: 50; R=17500; [M+Na]+
Name: Enniatin A
Class: Natural Product; Fungal metabolite
Formula: C36H63N3O9
Exact mass: 681.45644
SMILES: CC[C@H](C)[C@H]1C(=O)O[C@@H](C(=O)N([C@H](C(=O)O[C@@H](C(=O)N([C@H](C(=O)O[C@@H](C(=O)N1C)C(C)C)[C@@H](C)CC)C)C(C)C)[C@@H](C)CC)C)C(C)C
InChI: InChI=1S/C36H63N3O9/c1-16-22(10)25-34(43)46-29(20(6)7)32(41)38(14)27(24(12)18-3)36(45)48-30(21(8)9)33(42)39(15)26(23(11)17-2)35(44)47-28(19(4)5)31(40)37(25)13/h19-30H,16-18H2,1-15H3/t22-,23-,24-,25-,26-,27-,28+,29+,30+/m0/s1
Instrument: Q-Exactive Orbitrap Thermo Scientific
Instrument type: LC-ESI-ITFT
Ms type: MS2
Ion mode: POSITIVE
Ionization: ESI
Fragmentation mode: HCD
Collision energy: 50(NCE)
Resolution: 17500
Column name: Agilent RRHD Eclipse 50 x 2 mm, 1.8 uM
Retention time: 6.67
Base peak: 232.1301
Precursor m/z: 704.4451
Precursor type: [M+Na]+
m/z	relative intensity	assigned
83.0491	101	
100.1121	769	
122.094	35	
123.0417	88	
141.0522	107	
168.0992	58	
182.154	343	
210.1489	341	
232.1305	999	
250.1411	206	
268.1516	41	
350.1922	602	
368.2041	33	
