Mass spectrum: Satratoxin F; LC-ESI-ITFT; MS2; CE: 10; R=17500; [M+H]+
Name: Satratoxin F
Class: Natural Product; Fungal metabolite
Formula: C29H34O10
Exact mass: 542.21518
SMILES: CC1=CC2C3(CC1)COC(=O)C4C5(O4)CCOC(C5O)(/C=C\C=C/C(=O)OC6C3(C7(CO7)C(C6)O2)C)C(=O)C
InChI: InChI=1S/C29H34O10/c1-16-7-9-26-14-34-23(32)22-28(39-22)10-11-35-27(17(2)30,24(28)33)8-5-4-6-21(31)38-18-13-20(37-19(26)12-16)29(15-36-29)25(18,26)3/h4-6,8,12,18-20,22,24,33H,7,9-11,13-15H2,1-3H3/b6-4-,8-5-
Instrument: Q-Exactive Orbitrap Thermo Scientific
Instrument type: LC-ESI-ITFT
Ms type: MS2
Ion mode: POSITIVE
Ionization: ESI
Fragmentation mode: HCD
Collision energy: 10(NCE)
Resolution: 17500
Column name: Agilent RRHD Eclipse 50 x 2 mm, 1.8 uM
Retention time: 3.45
Base peak: 543.2245
Precursor m/z: 543.2219
Precursor type: [M+H]+
m/z	relative intensity	assigned
231.138	42	
543.2225	999	
