Mass spectrum: Rubrofusarin; LC-ESI-ITFT; MS2; CE: 55; R=17500; [M+H]+
Name: Rubrofusarin
Name: Rubrafusarin
Name: 5,6-Dihydroxy-8-methoxy-2-methyl-benzo[g]chromen-4-one
Class: Natural Product; Fungal metabolite
Formula: C15H12O5
Exact mass: 272.06846
SMILES: CC1=CC(=O)C2=C(O1)C=C3C=C(C=C(C3=C2O)O)OC
InChI: InChI=1S/C15H12O5/c1-7-3-10(16)14-12(20-7)5-8-4-9(19-2)6-11(17)13(8)15(14)18/h3-6,17-18H,1-2H3
Instrument: Q-Exactive Orbitrap Thermo Scientific
Instrument type: LC-ESI-ITFT
Ms type: MS2
Ion mode: POSITIVE
Ionization: ESI
Fragmentation mode: HCD
Collision energy: 55(NCE)
Resolution: 17500
Column name: Agilent RRHD Eclipse 50 x 2 mm, 1.8 uM
Retention time: 2.52
Base peak: 230.0566
Precursor m/z: 273.0752
Precursor type: [M+H]+
m/z	relative intensity	assigned
185.0597	36	
187.039	35	
199.0754	31	
212.0468	86	
225.0546	41	
227.0703	247	
229.0495	52	
230.0574	999	
240.0417	49	
255.0652	117	
258.0523	283	
273.0757	668	
