Mass spectrum: Verruculogen; LC-ESI-ITFT; MS2; CE: 10; R=17500; [M+H]+
Name: Verruculogen
Name: TR toxin
Name: (5R,10S,10aR,14aS,15bS)-10,10a-dihydroxy-6-methoxy-2,2-dimethyl-5-(2-methylprop-1-en-1-yl)-1,10,10a,14,14a,15b-hexahydro-12H-3,4-dioxa-5a,11a,15a-triazacycloocta[1,2,3-lm]indeno[5,6-b]fluorene-11,15(2H,13H)-dione
Class: Natural Product; Fungal metabolite
Formula: C27H33N3O7
Exact mass: 511.23184
SMILES: CC(=C[C@@H]1N2C3=C(C=CC(=C3)OC)C4=C2[C@H](CC(OO1)(C)C)N5C(=O)[C@@H]6CCCN6C(=O)[C@@]5([C@H]4O)O)C
InChI: InChI=1S/C27H33N3O7/c1-14(2)11-20-29-18-12-15(35-5)8-9-16(18)21-22(29)19(13-26(3,4)37-36-20)30-24(32)17-7-6-10-28(17)25(33)27(30,34)23(21)31/h8-9,11-12,17,19-20,23,31,34H,6-7,10,13H2,1-5H3/t17-,19-,20+,23-,27+/m0/s1
Instrument: Q-Exactive Orbitrap Thermo Scientific
Instrument type: LC-ESI-ITFT
Ms type: MS2
Ion mode: POSITIVE
Ionization: ESI
Fragmentation mode: HCD
Collision energy: 10(NCE)
Resolution: 17500
Column name: Agilent RRHD Eclipse 50 x 2 mm, 1.8 uM
Retention time: 3.77
Base peak: 370.1392
Precursor m/z: 512.2386
Precursor type: [M+H]+
m/z	relative intensity	assigned
198.0913	458	
230.1176	166	
240.1019	75	
313.1183	99	
314.1751	54	
324.1316	42	
331.1288	34	
338.1135	51	
352.1292	373	
356.1241	56	
364.1656	67	
370.1397	999	
378.1421	34	
382.1734	136	
392.1605	94	
394.1761	39	C22H24N3O4+
396.1554	88	
410.171	152	
428.1816	253	
429.1894	66	
436.1867	33	
448.2204	31	
476.218	100	
494.1472	42	
494.2286	387	
512.2391	991	
