Mass spectrum: Aurofusarin; LC-ESI-ITFT; MS2; CE: 30; R=17500; [M+H]+
Name: Aurofusarin
Name: Airofusorin
Name: 5-hydroxy-7-(5-hydroxy-8-methoxy-2-methyl-4,6,9-trioxobenzo[g]chromen-7-yl)-8-methoxy-2-methylbenzo[g]chromene-4,6,9-trione
Class: Natural Product; Fungal metabolite
Formula: C30H18O12
Exact mass: 570.07979
SMILES: CC1=CC(=O)C2=C(O1)C=C3C(=C2O)C(=O)C(=C(C3=O)OC)C4=C(C(=O)C5=CC6=C(C(=O)C=C(O6)C)C(=C5C4=O)O)OC
InChI: InChI=1S/C30H18O12/c1-9-5-13(31)19-15(41-9)7-11-17(25(19)35)27(37)21(29(39-3)23(11)33)22-28(38)18-12(24(34)30(22)40-4)8-16-20(26(18)36)14(32)6-10(2)42-16/h5-8,35-36H,1-4H3
Instrument: Q-Exactive Orbitrap Thermo Scientific
Instrument type: LC-ESI-ITFT
Ms type: MS2
Ion mode: POSITIVE
Ionization: ESI
Fragmentation mode: HCD
Collision energy: 30(NCE)
Resolution: 17500
Column name: Agilent RRHD Eclipse 50 x 2 mm, 1.8 uM
Retention time: 3.68
Base peak: 556.0621
Precursor m/z: 571.0865
Precursor type: [M+H]+
m/z	relative intensity	assigned
231.0288	42	
286.3101	31	
456.084	76	
457.0554	41	
482.0632	31	
483.071	32	
484.0789	225	
485.0503	481	
496.0425	184	
497.0503	130	
500.0738	98	
510.0581	76	
511.0659	208	
512.0738	38	
513.0452	193	
516.0687	148	
524.0374	50	
525.0452	147	
528.0687	307	
539.0609	81	
541.0401	539	
556.0636	999	
571.0871	144	
