Mass spectrum: Ergocorninine; LC-ESI-ITFT; MS2; CE: 50; R=17500; [M+Na]+
Name: Ergocorninine
Name: 12'-Hydroxy-2',5'a-bis(1-methylethyl)-8a-ergotaman-3',6',18-trione
Class: Natural Product; Fungal metabolite
Formula: C31H39N5O5
Exact mass: 561.29511
SMILES: CC(C)[C@H]1C(=O)N2CCC[C@H]2[C@]3(N1C(=O)[C@](O3)(C(C)C)NC(=O)[C@H]4CN([C@@H]5CC6=CNC7=CC=CC(=C67)C5=C4)C)O
InChI: InChI=1S/C31H39N5O5/c1-16(2)26-28(38)35-11-7-10-24(35)31(40)36(26)29(39)30(41-31,17(3)4)33-27(37)19-12-21-20-8-6-9-22-25(20)18(14-32-22)13-23(21)34(5)15-19/h6,8-9,12,14,16-17,19,23-24,26,32,40H,7,10-11,13,15H2,1-5H3,(H,33,37)/t19-,23-,24+,26+,30-,31+/m1/s1
Instrument: Q-Exactive Orbitrap Thermo Scientific
Instrument type: LC-ESI-ITFT
Ms type: MS2
Ion mode: POSITIVE
Ionization: ESI
Fragmentation mode: HCD
Collision energy: 50(NCE)
Resolution: 17500
Column name: Agilent RRHD Eclipse 50 x 2 mm, 1.8 uM
Retention time: 2.74
Base peak: 208.075
Precursor m/z: 584.2838
Precursor type: [M+Na]+
m/z	relative intensity	assigned
70.0651	87	
72.0808	31	
114.055	44	
138.0523	738	
140.0679	239	
154.0651	53	
167.073	44	
168.0808	37	
180.0808	212	
181.0886	32	
189.0996	106	
190.0651	36	
191.073	157	
191.1152	229	
192.0808	274	
194.06	36	
194.0964	38	
206.0788	90	
207.0679	225	
208.0743	999	
210.0913	68	
220.0743	71	
221.1073	72	
223.123	95	
236.0944	36	
237.1196	369	
247.0828	563	
249.1022	149	
251.1165	55	
263.0989	33	
277.1322	165	
290.1248	388	
302.1641	64	
305.1247	64	
317.1244	205	
326.1248	301	
327.109	203	C17H14N5O1Na1+
334.1716	96	
344.1367	34	
345.1196	271	
346.1373	157	
382.189	31	C23H25N3O1Na1+
398.1823	295	
444.1894	196	
513.2472	40	
541.2421	38	
