Mass spectrum: Chanoclavine-I; LC-ESI-ITFT; MS2; CE: 30; R=17500; [M+H]+
Name: Chanoclavine-I
Name: Isochanoclavin
Name: (E)-2-methyl-3-[(4R,5R)-4-(methylamino)-1,3,4,5-tetrahydrobenzo[cd]indol-5-yl]prop-2-en-1-ol
Class: Natural Product; Fungal metabolite
Formula: C16H20N2O
Exact mass: 256.15757
SMILES: C/C(=C\[C@H]1[C@@H](CC2=CNC3=CC=CC1=C23)NC)/CO
InChI: InChI=1S/C16H20N2O/c1-10(9-19)6-13-12-4-3-5-14-16(12)11(8-18-14)7-15(13)17-2/h3-6,8,13,15,17-19H,7,9H2,1-2H3/b10-6+/t13-,15-/m1/s1
Instrument: Q-Exactive Orbitrap Thermo Scientific
Instrument type: LC-ESI-ITFT
Ms type: MS2
Ion mode: POSITIVE
Ionization: ESI
Fragmentation mode: HCD
Collision energy: 30(NCE)
Resolution: 17500
Column name: Agilent RRHD Eclipse 50 x 2 mm, 1.8 uM
Retention time: 2.37
Base peak: 257.1646
Precursor m/z: 257.1643
Precursor type: [M+H]+
m/z	relative intensity	assigned
156.0808	45	C11H10N1+
168.0808	141	
183.0917	40	
185.1073	126	
198.1277	59	
208.1121	312	C15H14N1+
226.1226	54	
239.1543	272	C16H19N2+
257.1649	999	
