Mass spectrum: Aflatoxin B2; LC-ESI-ITFT; MS2; CE: 50; R=17500; [M+H]+
Name: Aflatoxin B2
Name: (6aR,9aS)-4-Methoxy-2,3,6a,8,9,9a-hexahydrocyclopenta[c]furo[3',2':4,5]furo[2,3-h]chromene-1,11-dione
Class: Natural Product; Fungal metabolite
Formula: C17H14O6
Exact mass: 314.07902
SMILES: COC1=C2C3=C(C(=O)CC3)C(=O)OC2=C4[C@@H]5CCO[C@@H]5OC4=C1
InChI: InChI=1S/C17H14O6/c1-20-10-6-11-14(8-4-5-21-17(8)22-11)15-13(10)7-2-3-9(18)12(7)16(19)23-15/h6,8,17H,2-5H2,1H3/t8-,17+/m0/s1
Instrument: Q-Exactive Orbitrap Thermo Scientific
Instrument type: LC-ESI-ITFT
Ms type: MS2
Ion mode: POSITIVE
Ionization: ESI
Fragmentation mode: HCD
Collision energy: 50(NCE)
Resolution: 17500
Column name: Agilent RRHD Eclipse 50 x 2 mm, 1.8 uM
Retention time: 3.0
Base peak: 315.0849
Precursor m/z: 315.0858
Precursor type: [M+H]+
m/z	relative intensity	assigned
203.0703	83	
213.091	52	
217.0495	33	
226.0624	48	
227.0703	105	
231.0652	107	
241.0859	105	
243.0652	94	
244.073	35	
245.0444	98	
254.0574	75	
255.0652	82	
257.0444	36	
259.0601	733	
259.0935	41	
269.0808	111	
271.0601	139	
271.0965	47	
272.0679	125	
273.0393	57	
282.0523	85	
285.0757	44	
287.0914	865	
297.0757	143	
315.0863	999	
