Mass spectrum: Walleminone; LC-ESI-ITFT; MS2; CE: 10; R=17500; [M-H2O+H]+
Name: Walleminone
Name: (1R,4S,5S,6R,9R)-5,6-dihydroxy-4,11,11-trimethyl-8-methylidenebicyclo[7.2.0]undecan-3-one
Class: Natural Product; Fungal metabolite
Formula: C15H24O3
Exact mass: 252.17255
SMILES: C[C@H]1[C@@H]([C@@H](CC(=C)[C@@H]2CC([C@@H]2CC1=O)(C)C)O)O
InChI: InChI=1S/C15H24O3/c1-8-5-13(17)14(18)9(2)12(16)6-11-10(8)7-15(11,3)4/h9-11,13-14,17-18H,1,5-7H2,2-4H3/t9-,10+,11-,13-,14+/m1/s1
Instrument: Q-Exactive Orbitrap Thermo Scientific
Instrument type: LC-ESI-ITFT
Ms type: MS2
Ion mode: POSITIVE
Ionization: ESI
Fragmentation mode: HCD
Collision energy: 10(NCE)
Resolution: 17500
Column name: Agilent RRHD Eclipse 50 x 2 mm, 1.8 uM
Retention time: 3.44
Base peak: 235.1686
Precursor m/z: 235.1687
Precursor type: [M-H2O+H]+
m/z	relative intensity	assigned
95.0855	40	
105.0699	33	
107.0855	103	
109.0648	66	
109.1012	39	
119.0855	91	C9H11+
121.1012	94	
133.1012	123	
135.1168	42	
143.0855	38	
145.1012	39	
147.1168	40	
159.1168	59	
161.0961	134	
161.1325	650	
163.1118	61	
173.1325	106	
175.1118	47	
175.1481	196	
177.1274	90	
179.1067	32	
189.1638	107	
199.1481	89	
217.1587	333	
235.1693	999	
