Mass spectrum: T-2 Toxin; LC-ESI-ITFT; MS2; CE: 50; R=17500; [M+Na]+
Name: T-2 Toxin
Name: Fusariotoxin T 2
Name: Insariotoxin
Name: T-2 mycotoxin
Name: (2alpha,3alpha,4beta,8alpha)-4,15-bis(acetyloxy)-3-hydroxy-12,13-epoxytrichothec-9-en-8-yl 3-methylbutanoate
Class: Natural Product; Fungal metabolite
Formula: C24H34O9
Exact mass: 466.22027
SMILES: CC1=C[C@@H]2[C@](C[C@@H]1OC(=O)CC(C)C)([C@]3([C@@H]([C@H]([C@H]([C@@]34CO4)O2)O)OC(=O)C)C)COC(=O)C
InChI: InChI=1S/C24H34O9/c1-12(2)7-18(27)32-16-9-23(10-29-14(4)25)17(8-13(16)3)33-21-19(28)20(31-15(5)26)22(23,6)24(21)11-30-24/h8,12,16-17,19-21,28H,7,9-11H2,1-6H3/t16-,17+,19+,20+,21+,22+,23+,24-/m0/s1
Instrument: Q-Exactive Orbitrap Thermo Scientific
Instrument type: LC-ESI-ITFT
Ms type: MS2
Ion mode: POSITIVE
Ionization: ESI
Fragmentation mode: HCD
Collision energy: 50(NCE)
Resolution: 17500
Column name: Agilent RRHD Eclipse 50 x 2 mm, 1.8 uM
Retention time: 3.56
Base peak: 143.085
Precursor m/z: 489.2089
Precursor type: [M+Na]+
m/z	relative intensity	assigned
55.0186	40	
67.0542	112	
69.0335	114	
79.0542	330	
81.0335	39	
81.0699	191	
83.0491	144	
85.0284	54	
91.0542	335	
93.0699	434	
95.0491	403	
95.0855	44	
97.0648	113	
105.0699	888	C8H9+
107.0491	212	C7H7O1+
107.0855	85	
109.0648	243	
111.0441	72	C6H7O2+
115.0542	77	
117.0699	210	
119.0491	140	
119.0855	344	
121.0648	380	
123.0441	136	
123.0804	42	
125.0597	61	
128.0621	283	
129.0699	441	
130.0777	84	
131.0855	410	
133.0648	174	
133.1012	120	
135.0441	32	C8H7O2+
135.0804	98	
137.0597	162	
141.0546	41	
141.0699	209	
142.0777	472	
143.0855	999	
144.057	31	
144.0934	125	
145.0648	167	
145.1012	457	
146.0726	43	C10H10O1+
147.0804	184	
147.1168	61	
149.0597	52	
153.0699	77	
154.0777	170	
155.0855	179	
156.0934	583	
157.0648	88	
157.1012	568	
158.0726	206	
158.109	32	
159.0804	359	
159.1168	279	
160.0883	44	
161.0597	38	
161.0961	122	
165.0699	156	
166.0777	255	
167.0855	68	
168.0934	37	
169.0648	56	
169.1012	321	
170.0726	48	
171.0804	197	
171.1168	436	
172.0883	141	
173.0961	320	
175.0754	31	
175.1118	130	
179.0855	64	
181.1012	240	
182.0726	99	
183.0804	50	
184.0883	202	
185.0961	246	
186.1039	113	
187.1118	236	
189.091	82	
189.1274	69	
197.0961	156	
199.1118	304	
201.091	38	
203.1067	100	
209.0961	85	
212.0832	61	
215.1067	233	
227.1067	134	
245.1172	932	
327.1203	36	
