Mass spectrum: Walleminone; LC-ESI-ITFT; MS2; CE: 40; R=17500; [M-H2O+H]+
Name: Walleminone
Name: (1R,4S,5S,6R,9R)-5,6-dihydroxy-4,11,11-trimethyl-8-methylidenebicyclo[7.2.0]undecan-3-one
Class: Natural Product; Fungal metabolite
Formula: C15H24O3
Exact mass: 252.17255
SMILES: C[C@H]1[C@@H]([C@@H](CC(=C)[C@@H]2CC([C@@H]2CC1=O)(C)C)O)O
InChI: InChI=1S/C15H24O3/c1-8-5-13(17)14(18)9(2)12(16)6-11-10(8)7-15(11,3)4/h9-11,13-14,17-18H,1,5-7H2,2-4H3/t9-,10+,11-,13-,14+/m1/s1
Instrument: Q-Exactive Orbitrap Thermo Scientific
Instrument type: LC-ESI-ITFT
Ms type: MS2
Ion mode: POSITIVE
Ionization: ESI
Fragmentation mode: HCD
Collision energy: 40(NCE)
Resolution: 17500
Column name: Agilent RRHD Eclipse 50 x 2 mm, 1.8 uM
Retention time: 3.44
Base peak: 161.132
Precursor m/z: 235.1687
Precursor type: [M-H2O+H]+
m/z	relative intensity	assigned
67.0542	38	
69.0699	101	
79.0542	44	
81.0699	109	
83.0491	42	
83.0855	39	
91.0542	76	
93.0699	141	
95.0855	168	
105.0699	296	
107.0855	344	
109.0648	165	
109.1012	109	C8H13+
111.0804	31	
117.0699	40	
119.0855	533	
121.0648	111	
121.1012	300	
123.0804	68	
123.1168	36	
127.0754	42	
131.0855	86	
133.1012	524	
135.0804	35	
135.1168	113	
137.0961	35	
143.0855	119	
145.1012	151	
147.0804	39	
147.1168	137	
157.1012	98	
159.1168	149	
161.0961	243	
161.1325	999	
163.1118	70	
165.091	35	
171.1168	41	
173.1325	218	
175.1118	64	
175.1481	338	
177.1274	180	
189.1638	116	
191.1431	31	
199.1481	94	
217.1587	161	
235.1693	177	
