Mass spectrum: Aurantiamide; LC-ESI-ITFT; MS2; CE: 40; R=17500; [M+H]+
Name: Aurantiamide
Name: N-((1s)-1-(((2s)-1-hydroxy-3-phenyl-propan-2-yl)carbamoyl)-2-phenyl-ethyl)benzamide
Class: Natural Product; Fungal metabolite
Formula: C25H26N2O3
Exact mass: 402.19435
SMILES: C1=CC=C(C=C1)C[C@@H](CO)NC(=O)[C@H](CC2=CC=CC=C2)NC(=O)C3=CC=CC=C3
InChI: InChI=1S/C25H26N2O3/c28-18-22(16-19-10-4-1-5-11-19)26-25(30)23(17-20-12-6-2-7-13-20)27-24(29)21-14-8-3-9-15-21/h1-15,22-23,28H,16-18H2,(H,26,30)(H,27,29)/t22-,23-/m0/s1
Instrument: Q-Exactive Orbitrap Thermo Scientific
Instrument type: LC-ESI-ITFT
Ms type: MS2
Ion mode: POSITIVE
Ionization: ESI
Fragmentation mode: HCD
Collision energy: 40(NCE)
Resolution: 17500
Column name: Agilent RRHD Eclipse 50 x 2 mm, 1.8 uM
Retention time: 3.45
Base peak: 105.0338
Precursor m/z: 403.2011
Precursor type: [M+H]+
m/z	relative intensity	assigned
91.0542	564	
105.0335	999	
117.0699	504	
120.0808	39	C8H10N1+
134.0964	140	C9H12N1+
152.107	60	
162.0913	35	
224.107	98	
