Mass spectrum: Satratoxin H; LC-ESI-ITFT; MS2; CE: 55; R=17500; [M+Na]+
Name: Satratoxin H
Class: Natural Product; Fungal metabolite
Formula: C29H36O9
Exact mass: 528.23593
SMILES: CC1=C[C@@H]2[C@@]3(CC1)COC(=O)/C=C/4\CCO[C@@]([C@@H]4O)(/C=C/C=C/C(=O)OC5[C@]3([C@]6(CO6)[C@@H](C5)O2)C)[C@H](C)O
InChI: InChI=1S/C29H36O9/c1-17-7-10-27-15-34-24(32)13-19-8-11-35-28(18(2)30,25(19)33)9-5-4-6-23(31)38-20-14-22(37-21(27)12-17)29(16-36-29)26(20,27)3/h4-6,9,12-13,18,20-22,25,30,33H,7-8,10-11,14-16H2,1-3H3/b6-4+,9-5+,19-13+/t18-,20?,21+,22+,25+,26+,27+,28-,29-/m0/s1
Instrument: Q-Exactive Orbitrap Thermo Scientific
Instrument type: LC-ESI-ITFT
Ms type: MS2
Ion mode: POSITIVE
Ionization: ESI
Fragmentation mode: HCD
Collision energy: 55(NCE)
Resolution: 17500
Column name: Agilent RRHD Eclipse 50 x 2 mm, 1.8 uM
Retention time: 3.25
Base peak: 119.0863
Precursor m/z: 551.2246
Precursor type: [M+Na]+
m/z	relative intensity	assigned
64.9757	111	
67.0552	211	
67.4004	101	
68.4822	86	
79.0552	588	
81.0708	155	
83.0503	223	
91.0542	282	
93.071	476	
95.0501	177	
95.0855	122	
105.0699	850	
109.0284	108	
110.8353	100	
117.0699	171	
119.0855	999	
131.0855	155	
141.125	106	
143.0855	415	
151.7916	122	
159.1168	141	
187.5777	119	
218.3309	124	
274.6459	161	
310.2688	113	
416.0237	120	
