Mass spectrum: Altersolanol A; LC-ESI-ITFT; MS2; CE: 35; R=17500; [M+H]+
Name: Altersolanol A
Name: (1S,2R,3S,4R)-1,2,3,4,8-pentahydroxy-6-methoxy-3-methyl-2,4-dihydro-1H-anthracene-9,10-dione
Class: Natural Product; Fungal metabolite
Formula: C16H16O8
Exact mass: 336.0845
SMILES: C[C@]1([C@@H]([C@H](C2=C([C@H]1O)C(=O)C3=CC(=CC(=C3C2=O)O)OC)O)O)O
InChI: InChI=1S/C16H16O8/c1-16(23)14(21)10-9(13(20)15(16)22)12(19)8-6(11(10)18)3-5(24-2)4-7(8)17/h3-4,13-15,17,20-23H,1-2H3/t13-,14+,15+,16-/m0/s1
Instrument: Q-Exactive Orbitrap Thermo Scientific
Instrument type: LC-ESI-ITFT
Ms type: MS2
Ion mode: POSITIVE
Ionization: ESI
Fragmentation mode: HCD
Collision energy: 35(NCE)
Resolution: 17500
Column name: Agilent RRHD Eclipse 50 x 2 mm, 1.8 uM
Retention time: 2.52
Base peak: 245.08
Precursor m/z: 337.0912
Precursor type: [M+H]+
m/z	relative intensity	assigned
151.039	88	
203.0703	86	
205.0495	40	
217.0495	42	C12H9O4+
217.0859	168	
227.0703	78	
230.0574	116	
231.0652	317	
233.0444	65	
245.0444	78	
245.0808	999	
255.0652	194	
257.0808	119	
259.0601	859	
273.0757	907	
283.0601	137	
301.0707	726	
