Mass spectrum: Fumonisin Py4; LC-ESI-ITFT; MS2; CE: 40; R=17500; [M-H]-
Name: Fumonisin Py4
Class: Natural Product; Fungal metabolite
Formula: C34H56O14
Exact mass: 688.367
SMILES: CCCC[C@H]([C@@H](OC(C[C@H](C(O)=O)CC(O)=O)=O)[C@@H](OC(C[C@H](C(O)=O)CC(O)=O)=O)C[C@H](CCCCCCCC[C@H](O)C(C)=O)C)C
InChI: InChI=1S/C34H56O14/c1-5-6-14-22(3)32(48-31(42)20-25(34(45)46)18-29(39)40)27(47-30(41)19-24(33(43)44)17-28(37)38)16-21(2)13-11-9-7-8-10-12-15-26(36)23(4)35/h21-22,24-27,32,36H,5-20H2,1-4H3,(H,37,38)(H,39,40)(H,43,44)(H,45,46)/t21-,22+,24+,25+,26-,27-,32+/m0/s1
Instrument: Q-Exactive Orbitrap Thermo Scientific
Instrument type: LC-ESI-ITFT
Ms type: MS2
Ion mode: NEGATIVE
Ionization: ESI
Fragmentation mode: HCD
Collision energy: 40(NCE)
Resolution: 17500
Column name: Agilent RRHD Eclipse 50 x 2 mm, 1.8 uM
Retention time: 3.78
Base peak: 157.0121
Precursor m/z: 687.3603
Precursor type: [M-H]-
m/z	relative intensity	assigned
60.1075	31	
69.0327	442	
84.0337	36	
111.1108	37	
113.0224	328	
118.7233	42	
119.9226	37	
157.0121	999	
195.7428	42	
201.7557	45	
233.9177	46	
351.0205	39	
