Mass spectrum: Cyclopenin; LC-ESI-ITFT; MS2; CE: 55; R=17500; [M+H]+
Name: Cyclopenin
Name: 4-methyl-3'-phenylspiro[1H-1,4-benzodiazepine-3,2'-oxirane]-2,5-dione
Class: Natural Product; Fungal metabolite
Formula: C17H14N2O3
Exact mass: 294.10043
SMILES: CN1C(=O)C2=CC=CC=C2NC(=O)C13[C@H](O3)C4=CC=CC=C4
InChI: InChI=1S/C17H14N2O3/c1-19-15(20)12-9-5-6-10-13(12)18-16(21)17(19)14(22-17)11-7-3-2-4-8-11/h2-10,14H,1H3,(H,18,21)/t14-,17?/m1/s1
Instrument: Q-Exactive Orbitrap Thermo Scientific
Instrument type: LC-ESI-ITFT
Ms type: MS2
Ion mode: POSITIVE
Ionization: ESI
Fragmentation mode: HCD
Collision energy: 55(NCE)
Resolution: 17500
Column name: Agilent RRHD Eclipse 50 x 2 mm, 1.8 uM
Retention time: 3.06
Base peak: 146.0237
Precursor m/z: 295.1072
Precursor type: [M+H]+
m/z	relative intensity	assigned
90.0338	106	
120.0444	76	
146.0236	999	
208.0757	40	
236.0706	32	
