Mass spectrum: Tentoxin; LC-ESI-ITFT; MS2; CE: 40; R=17500; [M+H]+
Name: Tentoxin
Name: cycloleucyl-N-methylalanylglycyl-N-methyl dehydrophenylalanine
Name: (3S,6S,12Z)-12-benzylidene-1,6,7-trimethyl-3-(2-methylpropyl)-1,4,7,10-tetrazacyclododecane-2,5,8,11-tetrone
Class: Natural Product; Fungal metabolite
Formula: C22H30N4O4
Exact mass: 414.2267
SMILES: C[C@H]1C(=O)N[C@H](C(=O)N(/C(=C\C2=CC=CC=C2)/C(=O)NCC(=O)N1C)C)CC(C)C
InChI: InChI=1S/C22H30N4O4/c1-14(2)11-17-22(30)26(5)18(12-16-9-7-6-8-10-16)21(29)23-13-19(27)25(4)15(3)20(28)24-17/h6-10,12,14-15,17H,11,13H2,1-5H3,(H,23,29)(H,24,28)/b18-12-/t15-,17-/m0/s1
Instrument: Q-Exactive Orbitrap Thermo Scientific
Instrument type: LC-ESI-ITFT
Ms type: MS2
Ion mode: POSITIVE
Ionization: ESI
Fragmentation mode: HCD
Collision energy: 40(NCE)
Resolution: 17500
Column name: Agilent RRHD Eclipse 50 x 2 mm, 1.8 uM
Retention time: 3.15
Base peak: 256.1815
Precursor m/z: 415.2334
Precursor type: [M+H]+
m/z	relative intensity	assigned
58.0662	33	
98.0964	40	
113.0709	52	
132.0808	128	
171.0917	40	
188.1182	47	
200.1196	37	
210.1601	151	
238.155	98	
239.1543	51	
256.1808	999	
284.1771	115	
312.172	551	
330.1826	57	
