Mass spectrum: Roquefortine L; LC-ESI-ITFT; MS2; CE: 55; R=17500; [M+H]+
Name: Roquefortine L
Name: (3E,10bR,11aS)-3-(1H-Imidazol-5-ylmethylene)-10b-(2-methyl-3-buten-2-yl)-11,11a-dihydro-2H-pyrazino[1',2':1,5]pyrrolo[2,3-b]indole-1,4(3H,10bH)-dione 6-oxide
Class: Natural Product; Fungal metabolite
Formula: C22H21N5O3
Exact mass: 403.16443
SMILES: CC(C)(C=C)C12CC3C(=O)N/C(=C/C4=CN=CN4)/C(=O)N3C1=[N+](C5=CC=CC=C25)[O-]
InChI: InChI=1S/C22H21N5O3/c1-4-21(2,3)22-10-17-18(28)25-15(9-13-11-23-12-24-13)19(29)26(17)20(22)27(30)16-8-6-5-7-14(16)22/h4-9,11-12,17H,1,10H2,2-3H3,(H,23,24)(H,25,28)/b15-9+
Instrument: Q-Exactive Orbitrap Thermo Scientific
Instrument type: LC-ESI-ITFT
Ms type: MS2
Ion mode: POSITIVE
Ionization: ESI
Fragmentation mode: HCD
Collision energy: 55(NCE)
Resolution: 17500
Column name: Agilent RRHD Eclipse 50 x 2 mm, 1.8 uM
Retention time: 2.5
Base peak: 108.0561
Precursor m/z: 404.1712
Precursor type: [M+H]+
m/z	relative intensity	assigned
69.0455	32	
69.0708	401	
81.0447	352	
82.0534	96	
93.0447	31	
106.04	910	
107.0478	661	
108.049	44	
108.0556	999	
109.0634	252	
110.0713	49	
130.0651	227	
134.0713	44	
136.0505	111	
145.076	33	C9H9N2+
146.06	171	
147.0553	88	
155.0604	143	
156.0682	661	
157.0648	38	
157.076	665	
162.0298	630	
163.0614	474	
172.0631	37	
173.0709	349	C10H9N2O1+
177.0771	34	
181.0886	32	
183.0553	146	
184.0631	187	
185.0709	124	
198.0913	128	
205.0733	32	
220.0869	35	
235.0978	38	
247.0978	45	
263.0927	48	
274.1101	148	
290.1036	36	
302.1036	97	
318.0985	100	
