Mass spectrum: Neosolaniol; LC-ESI-ITFT; MS2; CE: 10; R=17500; [M+H]+
Name: Neosolaniol
Class: Natural Product; Fungal metabolite
Formula: C19H26O8
Exact mass: 382.16276
SMILES: CC1=C[C@@H]2[C@](C[C@@H]1O)([C@]3([C@@H]([C@H]([C@H]([C@@]34CO4)O2)O)OC(=O)C)C)COC(=O)C
InChI: InChI=1S/C19H26O8/c1-9-5-13-18(6-12(9)22,7-24-10(2)20)17(4)15(26-11(3)21)14(23)16(27-13)19(17)8-25-19/h5,12-16,22-23H,6-8H2,1-4H3/t12-,13+,14+,15+,16+,17+,18+,19-/m0/s1
Instrument: Q-Exactive Orbitrap Thermo Scientific
Instrument type: LC-ESI-ITFT
Ms type: MS2
Ion mode: POSITIVE
Ionization: ESI
Fragmentation mode: HCD
Collision energy: 10(NCE)
Resolution: 17500
Column name: Agilent RRHD Eclipse 50 x 2 mm, 1.8 uM
Retention time: 2.84
Base peak: 365.1583
Precursor m/z: 383.1695
Precursor type: [M+H]+
m/z	relative intensity	assigned
109.0648	45	
121.0648	402	
125.0597	111	
157.1012	39	
171.1168	38	
173.0961	42	
175.1118	47	
185.0961	54	
187.1118	105	
197.0961	104	
199.1118	189	
203.1067	136	
209.0961	31	
215.1067	406	
217.1223	204	
227.1067	298	
233.1172	193	
245.1172	691	
263.1278	394	
275.1278	125	
281.1384	37	
287.1278	54	
305.1384	391	
306.1401	47	
323.1489	547	
341.1551	79	
365.1595	999	
383.17	898	
