Mass spectrum: Walleminone; LC-ESI-ITFT; MS2; CE: 30; R=17500; [M-H2O+H]+
Name: Walleminone
Name: (1R,4S,5S,6R,9R)-5,6-dihydroxy-4,11,11-trimethyl-8-methylidenebicyclo[7.2.0]undecan-3-one
Class: Natural Product; Fungal metabolite
Formula: C15H24O3
Exact mass: 252.17255
SMILES: C[C@H]1[C@@H]([C@@H](CC(=C)[C@@H]2CC([C@@H]2CC1=O)(C)C)O)O
InChI: InChI=1S/C15H24O3/c1-8-5-13(17)14(18)9(2)12(16)6-11-10(8)7-15(11,3)4/h9-11,13-14,17-18H,1,5-7H2,2-4H3/t9-,10+,11-,13-,14+/m1/s1
Instrument: Q-Exactive Orbitrap Thermo Scientific
Instrument type: LC-ESI-ITFT
Ms type: MS2
Ion mode: POSITIVE
Ionization: ESI
Fragmentation mode: HCD
Collision energy: 30(NCE)
Resolution: 17500
Column name: Agilent RRHD Eclipse 50 x 2 mm, 1.8 uM
Retention time: 3.44
Base peak: 161.132
Precursor m/z: 235.1687
Precursor type: [M-H2O+H]+
m/z	relative intensity	assigned
69.0706	52	
81.0699	68	
91.0542	36	
93.0699	64	
95.0855	107	
105.0699	124	
107.0855	220	
109.0648	127	
109.1012	79	
119.0855	289	C9H11+
121.0648	74	C8H9O1+
121.1012	228	
123.0804	55	
123.1168	33	C9H15+
127.0754	43	
131.0855	35	
133.1012	346	
135.1168	91	
143.0855	103	
145.1012	99	
147.1168	93	
157.1012	72	
159.1168	119	
161.0961	253	
161.1325	999	
163.1118	92	
163.1481	31	
165.091	41	
171.1168	36	
173.1325	204	
175.1118	84	
175.1481	342	
177.1274	232	
179.1067	48	
189.1638	163	
191.1431	33	
199.1481	130	
217.1587	348	
235.1693	582	
