Mass spectrum: 4',5-bisdeoxy-dothistromin; LC-ESI-ITFT; MS2; CE: 50; R=17500; [M+H]+
Name: 4',5-bisdeoxy-dothistromin
Class: Natural Product; Fungal metabolite
Formula: C18H12O7
Exact mass: 340.05828
SMILES: OC1=C(C(C2=C(O)C=CC=C2C3=O)=O)C3=CC(O4)=C1[C@@]5(O)[C@@H]4OCC5
InChI: InChI=1S/C18H12O7/c19-9-3-1-2-7-11(9)15(21)12-8(14(7)20)6-10-13(16(12)22)18(23)4-5-24-17(18)25-10/h1-3,6,17,19,22-23H,4-5H2/t17-,18-/m1/s1
Instrument: Q-Exactive Orbitrap Thermo Scientific
Instrument type: LC-ESI-ITFT
Ms type: MS2
Ion mode: POSITIVE
Ionization: ESI
Fragmentation mode: HCD
Collision energy: 50(NCE)
Resolution: 17500
Column name: Agilent RRHD Eclipse 50 x 2 mm, 1.8 uM
Retention time: 3.37
Base peak: 295.0587
Precursor m/z: 341.065
Precursor type: [M+H]+
m/z	relative intensity	assigned
115.0542	53	
121.0284	79	
159.0441	37	
165.0699	72	
175.039	56	
183.0804	41	
193.0648	51	
195.0804	47	
197.0597	38	
205.0648	70	
211.039	36	
211.0754	127	
215.0339	54	
221.0597	143	
223.0754	54	
225.0546	57	
233.0597	75	
237.0546	32	
239.0339	303	
239.0703	175	
241.0495	56	
249.0546	233	
251.0703	54	
253.0495	194	
267.0288	186	
267.0652	385	
269.0444	405	
277.0495	54	
279.0652	41	
283.0237	56	
283.0601	155	
285.0393	49	
295.0237	368	
295.0601	999	
323.055	91	
