Mass spectrum: 3-Acetyldeoxynivalenol; LC-APCI-ITFT; MS2; CE: 20; R=17500; [M-H2O+H]+
Name: 3-Acetyldeoxynivalenol
Name: 3-monoacetyldeoxynivalenol
Class: Natural Product; Fungal metabolite
Formula: C17H22O7
Exact mass: 338.13654
SMILES: CC1=C[C@@H]2[C@]([C@@H](C1=O)O)([C@]3(C[C@H]([C@H]([C@@]34CO4)O2)OC(=O)C)C)CO
InChI: InChI=1S/C17H22O7/c1-8-4-11-16(6-18,13(21)12(8)20)15(3)5-10(23-9(2)19)14(24-11)17(15)7-22-17/h4,10-11,13-14,18,21H,5-7H2,1-3H3/t10-,11-,13-,14-,15-,16-,17+/m1/s1
Instrument: Q-Exactive Orbitrap Thermo Scientific
Instrument type: LC-APCI-ITFT
Ms type: MS2
Ion mode: POSITIVE
Ionization: APCI
Fragmentation mode: HCD
Collision energy: 20(NCE)
Resolution: 17500
Column name: Agilent RRHD Eclipse 50 x 2 mm, 1.8 uM
Retention time: 2.77
Base peak: 279.1247
Precursor m/z: 321.1327
Precursor type: [M-H2O+H]+
m/z	relative intensity	assigned
93.0699	99	
109.0648	94	
135.0804	68	
145.1012	78	
147.0804	33	C10H11O1+
157.1012	105	
159.0804	39	
159.1168	85	C12H15+
163.0754	128	
169.1012	69	
171.1168	110	
173.0961	125	C12H13O1+
175.0754	95	
175.1118	92	
185.0961	121	
187.1118	219	
189.1274	32	
197.0961	119	
199.1118	32	
201.091	92	
203.1067	391	
205.0859	35	
205.1223	32	
213.091	114	
215.1067	561	
217.1223	65	
231.1016	233	
233.1172	217	
243.1016	265	
249.1121	89	
251.1278	118	
261.1121	885	
263.1278	176	
279.1227	999	
303.1227	242	
321.1333	794	
