Mass spectrum: Walleminone; LC-ESI-ITFT; MS2; CE: 40; R=17500; [M+H]+
Name: Walleminone
Name: (1R,4S,5S,6R,9R)-5,6-dihydroxy-4,11,11-trimethyl-8-methylidenebicyclo[7.2.0]undecan-3-one
Class: Natural Product; Fungal metabolite
Formula: C15H24O3
Exact mass: 252.17255
SMILES: C[C@H]1[C@@H]([C@@H](CC(=C)[C@@H]2CC([C@@H]2CC1=O)(C)C)O)O
InChI: InChI=1S/C15H24O3/c1-8-5-13(17)14(18)9(2)12(16)6-11-10(8)7-15(11,3)4/h9-11,13-14,17-18H,1,5-7H2,2-4H3/t9-,10+,11-,13-,14+/m1/s1
Instrument: Q-Exactive Orbitrap Thermo Scientific
Instrument type: LC-ESI-ITFT
Ms type: MS2
Ion mode: POSITIVE
Ionization: ESI
Fragmentation mode: HCD
Collision energy: 40(NCE)
Resolution: 17500
Column name: Agilent RRHD Eclipse 50 x 2 mm, 1.8 uM
Retention time: 3.44
Base peak: 121.1009
Precursor m/z: 253.1793
Precursor type: [M+H]+
m/z	relative intensity	assigned
55.055	36	
57.0342	90	
57.0705	88	
67.0542	222	
69.0335	69	
69.0699	241	
71.0491	87	
79.0542	82	
81.0699	335	
83.0491	185	
83.0855	251	
85.0284	87	
85.0648	134	
91.0542	102	
93.0699	383	
95.0491	211	
95.0855	605	
97.0648	157	
99.0441	70	C5H7O2+
99.0804	34	C6H11O1+
103.039	37	
105.0699	302	C8H9+
107.0855	589	C8H11+
109.0648	352	C7H9O1+
109.1012	492	
111.0804	81	C7H11O1+
113.0597	86	
119.0855	730	
121.0648	53	
121.1012	999	
123.0804	196	
123.1168	321	
125.0597	325	
125.0961	103	
127.0754	39	
133.1012	707	
135.0804	36	
135.1168	471	
137.0961	287	
137.1325	67	
139.1118	48	
143.0855	35	
145.1012	135	
147.0804	40	
147.1168	261	
149.0961	78	
149.1325	40	
151.1118	102	
151.1481	88	
153.091	32	
153.1274	47	
155.0703	168	
155.1067	68	
157.1012	34	
159.1168	62	
161.0961	162	
161.1325	353	
163.1118	254	
165.091	53	
167.1067	108	
173.1325	56	
175.1118	52	C12H15O1+
175.1481	430	
177.1274	32	
179.1067	381	
179.1431	103	
180.1145	33	
181.1223	152	
189.1638	94	
193.1223	33	
193.1587	40	
199.1481	35	
217.1587	96	
235.1693	126	
253.1798	251	
