Mass spectrum: T-2 tetraol; LC-ESI-ITFT; MS2; CE: 10; R=17500; [M+H]+
Name: T-2 tetraol
Name: T-2 toxin tetraol
Name: 3-alpha,4-beta,8-alpha,15-Tetrahydroxy-12,13-epoxytrichothec-9-ene
Class: Natural Product; Fungal metabolite
Formula: C15H22O6
Exact mass: 298.14163
SMILES: CC1=C[C@@H]2[C@](C[C@@H]1O)([C@]3([C@@H]([C@H]([C@H](C34CO4)O2)O)O)C)CO
InChI: InChI=1S/C15H22O6/c1-7-3-9-14(5-16,4-8(7)17)13(2)11(19)10(18)12(21-9)15(13)6-20-15/h3,8-12,16-19H,4-6H2,1-2H3/t8-,9+,10+,11+,12+,13+,14+,15?/m0/s1
Instrument: Q-Exactive Orbitrap Thermo Scientific
Instrument type: LC-ESI-ITFT
Ms type: MS2
Ion mode: POSITIVE
Ionization: ESI
Fragmentation mode: HCD
Collision energy: 10(NCE)
Resolution: 17500
Column name: Agilent RRHD Eclipse 50 x 2 mm, 1.8 uM
Retention time: 2.26
Base peak: 299.1476
Precursor m/z: 299.1484
Precursor type: [M+H]+
m/z	relative intensity	assigned
80.1078	31	
90.9698	31	
97.0648	47	
105.0699	143	
109.5266	37	
121.0648	160	C8H9O1+
121.1012	39	
123.0804	44	
125.0597	36	
141.0546	74	
173.0961	60	
175.1118	151	
175.9255	33	
177.9837	45	
185.0961	50	
189.8706	35	
191.1067	529	
193.1223	86	
203.1067	118	
215.1067	62	
217.1223	145	
221.1172	42	
233.1172	75	
235.1329	58	
245.1172	213	
251.1278	41	
263.1278	480	
281.1384	440	
299.1489	999	
