Mass spectrum: iso-Roridine E; LC-ESI-ITFT; MS2; CE: 50; R=17500; [M+H]+
Name: iso-Roridine E
Class: Natural Product; Fungal metabolite
Formula: C29H38O8
Exact mass: 514.25667
SMILES: CC1=C[C@@H]2[C@@]3(CC1)COC(=O)/C=C(/CCO[C@@H](/C=C/C=C\C(=O)O[C@H]4[C@]3([C@]5(CO5)[C@@H](C4)O2)C)[C@H](C)O)\C
InChI: InChI=1S/C29H38O8/c1-18-9-11-28-16-34-26(32)14-19(2)10-12-33-21(20(3)30)7-5-6-8-25(31)37-22-15-24(36-23(28)13-18)29(17-35-29)27(22,28)4/h5-8,13-14,20-24,30H,9-12,15-17H2,1-4H3/b7-5+,8-6-,19-14+/t20-,21-,22+,23+,24+,27+,28+,29-/m0/s1
Instrument: Q-Exactive Orbitrap Thermo Scientific
Instrument type: LC-ESI-ITFT
Ms type: MS2
Ion mode: POSITIVE
Ionization: ESI
Fragmentation mode: HCD
Collision energy: 50(NCE)
Resolution: 17500
Column name: Agilent RRHD Eclipse 50 x 2 mm, 1.8 uM
Retention time: 3.78
Base peak: 95.0493
Precursor m/z: 515.2634
Precursor type: [M+H]+
m/z	relative intensity	assigned
55.0187	41	
56.8596	38	
57.0708	46	
66.1009	45	
67.0542	843	
67.0579	54	
69.0342	46	
70.1588	41	
71.0499	253	
79.0542	68	
81.0699	190	
83.0491	332	
85.0648	307	
88.856	42	
89.3873	38	
91.0542	54	
95.0491	999	
105.0699	73	
110.7157	38	
111.9387	43	
113.0597	723	C6H9O2+
113.0661	39	
120.8829	45	
121.4984	41	
137.0597	49	
159.0804	73	
208.7204	48	
233.501	48	
316.405	63	
337.8839	44	
399.5877	52	
