Mass spectrum: T-2 Toxin; LC-ESI-ITFT; MS2; CE: 10; R=17500; [M+H]+
Name: T-2 Toxin
Name: Fusariotoxin T 2
Name: Insariotoxin
Name: T-2 mycotoxin
Name: (2alpha,3alpha,4beta,8alpha)-4,15-bis(acetyloxy)-3-hydroxy-12,13-epoxytrichothec-9-en-8-yl 3-methylbutanoate
Class: Natural Product; Fungal metabolite
Formula: C24H34O9
Exact mass: 466.22027
SMILES: CC1=C[C@@H]2[C@](C[C@@H]1OC(=O)CC(C)C)([C@]3([C@@H]([C@H]([C@H]([C@@]34CO4)O2)O)OC(=O)C)C)COC(=O)C
InChI: InChI=1S/C24H34O9/c1-12(2)7-18(27)32-16-9-23(10-29-14(4)25)17(8-13(16)3)33-21-19(28)20(31-15(5)26)22(23,6)24(21)11-30-24/h8,12,16-17,19-21,28H,7,9-11H2,1-6H3/t16-,17+,19+,20+,21+,22+,23+,24-/m0/s1
Instrument: Q-Exactive Orbitrap Thermo Scientific
Instrument type: LC-ESI-ITFT
Ms type: MS2
Ion mode: POSITIVE
Ionization: ESI
Fragmentation mode: HCD
Collision energy: 10(NCE)
Resolution: 17500
Column name: Agilent RRHD Eclipse 50 x 2 mm, 1.8 uM
Retention time: 3.56
Base peak: 467.226
Precursor m/z: 467.227
Precursor type: [M+H]+
m/z	relative intensity	assigned
57.0707	32	
85.0648	120	
105.0699	67	
121.0648	73	
125.0597	33	
157.1012	37	
169.1012	65	
173.0961	51	
185.0961	157	
187.1118	51	
197.0961	170	
199.1118	98	
203.1067	64	
215.1067	303	
217.1223	96	
227.1067	225	
233.1172	83	
245.1172	455	
257.1172	83	
263.1278	177	
275.1278	73	
287.1278	178	
305.1384	610	
323.1489	101	
347.1489	56	
347.1853	42	
365.1595	286	
389.1959	54	
407.2064	205	
425.217	44	
449.217	233	
467.2276	999	
