Mass spectrum: Traversianal; LC-ESI-ITFT; MS2; CE: 30; R=17500; [M+H]+
Name: Traversianal
Name: (1R,3aR,4E,6aS,7S,9aR,10aR)-3a-Hydroxy-7-isopropenyl-1,9a-dimethyl-3-oxo-1,2,3,3a,6,6a,7,8,9,9a,10,10a-dodecahydrodicyclopenta[a,d][8]annulene-4-carbaldehyde
Class: Natural Product; Fungal metabolite
Formula: C20H28O3
Exact mass: 316.20386
SMILES: C[C@@H]1CC(=O)[C@]/2([C@@H]1C[C@]3(CC[C@@H]([C@@H]3C/C=C2/C=O)C(=C)C)C)O
InChI: InChI=1S/C20H28O3/c1-12(2)15-7-8-19(4)10-17-13(3)9-18(22)20(17,23)14(11-21)5-6-16(15)19/h5,11,13,15-17,23H,1,6-10H2,2-4H3/b14-5-/t13-,15-,16+,17-,19-,20+/m1/s1
Instrument: Q-Exactive Orbitrap Thermo Scientific
Instrument type: LC-ESI-ITFT
Ms type: MS2
Ion mode: POSITIVE
Ionization: ESI
Fragmentation mode: HCD
Collision energy: 30(NCE)
Resolution: 17500
Column name: Agilent RRHD Eclipse 50 x 2 mm, 1.8 uM
Retention time: 4.55
Base peak: 299.1995
Precursor m/z: 317.2106
Precursor type: [M+H]+
m/z	relative intensity	assigned
69.0335	82	
69.0699	42	
81.0699	77	
83.0855	31	
93.0699	69	
95.0855	87	
105.0699	56	C8H9+
107.0855	102	
109.1012	48	
113.0597	47	
119.0855	114	
121.1012	90	
131.0855	46	
133.1012	79	
135.1168	72	
141.0546	36	
143.0855	39	
145.1012	90	
147.1168	56	
149.1325	35	
157.1012	74	
159.1168	76	
161.1325	51	
163.1481	35	
169.1012	59	
171.1168	76	
173.0961	41	
173.1325	153	
175.1118	80	
175.1481	279	
183.1168	128	
185.1325	269	
187.1118	47	
187.1481	80	
189.1274	43	
195.1168	41	
197.1325	97	
199.1118	42	
201.1274	44	
211.1118	38	
211.1481	103	
215.1067	31	
215.1431	44	
217.1223	194	
221.1325	36	
225.1274	59	
229.1223	61	
229.1587	35	
229.1951	47	
231.138	49	
237.1638	104	
239.1431	78	
239.1795	340	
243.138	36	
243.2108	32	
253.1951	183	
255.1744	70	
257.1536	76	
263.1795	104	
271.2057	265	
281.19	377	
299.2006	999	
317.2111	165	
