Mass spectrum: NX2 toxin; LC-APCI-ITFT; MS2; CE: 55; R=17500; [M-H2O+H]+
Name: NX2 toxin
Class: Natural Product; Fungal metabolite
Formula: C17H24O6
Exact mass: 324.15728
SMILES: CC1=C[C@@H]2[C@]([C@@]3(C)C[C@@H](OC(C)=O)[C@@H](O2)[C@@]34CO4)(CO)[C@H](O)C1
InChI: InChI=1S/C17H24O6/c1-9-4-12(20)16(7-18)13(5-9)23-14-11(22-10(2)19)6-15(16,3)17(14)8-21-17/h5,11-14,18,20H,4,6-8H2,1-3H3/t11-,12-,13-,14-,15-,16+,17+/m1/s1
Instrument: Q-Exactive Orbitrap Thermo Scientific
Instrument type: LC-APCI-ITFT
Ms type: MS2
Ion mode: POSITIVE
Ionization: APCI
Fragmentation mode: HCD
Collision energy: 55(NCE)
Resolution: 17500
Column name: Agilent RRHD Eclipse 50 x 2 mm, 1.8 uM
Retention time: 2.75
Base peak: 79.055
Precursor m/z: 307.1535
Precursor type: [M-H2O+H]+
m/z	relative intensity	assigned
67.0552	84	
69.0344	71	
79.0542	999	
81.0707	320	
83.0491	78	
91.0542	262	
93.0699	292	
95.0491	246	
95.0855	88	
97.0648	226	
105.0455	33	
105.0699	531	
107.0491	73	
107.0855	83	
109.0648	244	
115.0542	47	
117.0699	137	
119.0491	32	
119.0855	199	
121.0648	483	
123.0804	56	
125.0597	97	
128.0621	95	
129.0699	140	
130.0777	34	
131.0855	215	
133.0648	69	
133.1012	101	
135.0804	128	
137.0597	32	
139.0754	58	
141.0699	101	
142.0777	171	
143.0855	336	
144.0934	39	
145.0648	108	
145.1012	172	
147.0804	104	
153.0699	82	
154.0777	57	
155.0855	171	
156.0934	141	
157.0648	46	
157.1012	166	
158.0726	93	
159.0804	265	
159.1168	139	
161.0961	128	
165.0699	54	
166.0777	113	
168.0934	140	
169.1012	106	
171.0804	76	
171.1168	136	
172.0883	40	C12H12O1+
173.0961	156	
173.1325	32	
175.1118	36	
178.0777	34	
181.1012	51	
183.1168	76	
184.0883	110	
185.0961	38	
187.1118	87	
196.0883	58	
199.1118	243	
201.1274	32	
211.1118	33	
