Mass spectrum: Austin; LC-ESI-ITFT; MS2; CE: 55; R=17500; [M+H]+
Name: Austin
Class: Natural Product; Fungal metabolite
Formula: C27H32O9
Exact mass: 500.20462
SMILES: C[C@H]1[C@@]2(C(=O)O[C@]3([C@@H](C4=C([C@]5(CC[C@]4([C@@]2(C3=C)C(=O)O1)C)C=CC(=O)OC5(C)C)C)OC(=O)C)C)O
InChI: InChI=1S/C27H32O9/c1-13-18-19(34-16(4)28)24(8)14(2)26(20(30)33-15(3)27(26,32)21(31)36-24)23(18,7)11-12-25(13)10-9-17(29)35-22(25,5)6/h9-10,15,19,32H,2,11-12H2,1,3-8H3/t15-,19+,23+,24+,25+,26+,27-/m0/s1
Instrument: Q-Exactive Orbitrap Thermo Scientific
Instrument type: LC-ESI-ITFT
Ms type: MS2
Ion mode: POSITIVE
Ionization: ESI
Fragmentation mode: HCD
Collision energy: 55(NCE)
Resolution: 17500
Column name: Agilent RRHD Eclipse 50 x 2 mm, 1.8 uM
Retention time: 3.5
Base peak: 83.0134
Precursor m/z: 501.2114
Precursor type: [M+H]+
m/z	relative intensity	assigned
67.055	103	
69.0343	53	
69.0706	93	
79.0542	105	
81.0699	95	
83.0128	999	
83.0491	45	
85.0284	69	
91.0542	151	
93.0699	134	
95.0491	137	
95.0855	130	
97.0648	47	
105.0699	232	
107.0855	363	
109.0648	77	
109.1012	69	
117.0699	90	
119.0855	614	
121.0648	73	
121.1012	196	
123.0441	50	
123.0804	70	
125.0597	78	
128.0621	45	
129.0699	70	
131.0855	318	
133.0648	55	
133.1012	236	
135.0441	76	C8H7O2+
135.0804	120	
137.0597	47	C8H9O2+
137.0961	51	C9H13O1+
141.0699	41	
142.0777	116	
143.0855	222	
144.0934	52	
145.1012	322	C11H13+
147.0804	123	
147.1168	46	
149.0597	32	
149.0961	81	C10H13O1+
151.039	195	C8H7O3+
151.0754	62	
153.0546	114	
155.0855	126	
156.0934	232	
157.1012	352	C12H13+
158.109	78	C12H14+
159.0804	71	
159.1168	278	
161.0597	48	
161.0961	93	
161.1325	142	
163.0754	160	
165.091	105	
167.0855	37	C13H11+
168.0934	44	
169.0495	41	
169.1012	224	
170.109	179	
171.1168	412	C13H15+
173.0961	64	
173.1325	172	C13H17+
175.0754	182	
175.1118	96	
177.091	151	
177.1274	32	
179.0703	322	
179.0855	39	
181.1012	142	C14H13+
182.109	62	C14H14+
183.1168	311	
184.1247	32	
185.0961	78	C13H13O1+
185.1325	143	C14H17+
187.0754	33	
187.1118	118	C13H15O1+
187.1481	47	
189.091	70	
189.1274	101	
191.0703	43	C11H11O3+
193.1012	82	
194.109	62	
195.1168	102	
196.1247	248	C15H16+
197.0961	59	C14H13O1+
197.1325	176	C15H17+
199.1118	109	C14H15O1+
199.1481	51	
201.091	61	C13H13O2+
202.0988	53	
203.1067	161	
206.109	90	
207.1168	114	
208.1247	42	
209.0961	52	
209.1325	161	
211.1118	66	
211.1481	197	
213.1274	39	
213.1638	62	
215.1067	49	
217.1223	124	
219.1168	32	
220.1247	36	
221.0808	34	
221.1325	210	
223.1118	65	
223.1481	75	
224.1196	42	
225.1274	66	
233.1325	42	
235.1481	54	
237.1274	101	
237.1638	48	
239.1067	33	
239.1431	96	
241.1223	37	
245.1325	31	
246.1403	48	
247.1481	50	
249.1274	51	
251.1431	33	
251.1795	45	
253.1223	31	
259.1481	39	
261.1274	36	
261.1638	63	
263.1431	33	C19H19O1+
264.1509	34	
265.1223	59	
274.1382	31	
275.1431	60	
279.1744	120	
287.1431	51	
289.1587	52	
291.1744	31	
302.1665	33	
307.1693	72	
