Mass spectrum: Fusarenone-X; LC-ESI-ITFT; MS2; CE: 30; R=17500; [M+H]+
Name: Fusarenone-X
Name: (3beta,4alpha,7alpha)-3,7,15-Trihydroxy-8-oxo-12,13-epoxytrichothec-9-en-4-yl acetate
Class: Natural Product; Fungal metabolite
Formula: C17H22O8
Exact mass: 354.13145
SMILES: CC1=C[C@@H]2[C@]([C@@H](C1=O)O)([C@]3([C@@H]([C@H]([C@H]([C@@]34CO4)O2)O)OC(=O)C)C)CO
InChI: InChI=1S/C17H22O8/c1-7-4-9-16(5-18,12(22)10(7)20)15(3)13(24-8(2)19)11(21)14(25-9)17(15)6-23-17/h4,9,11-14,18,21-22H,5-6H2,1-3H3/t9-,11-,12-,13-,14-,15-,16-,17+/m1/s1
Instrument: Q-Exactive Orbitrap Thermo Scientific
Instrument type: LC-ESI-ITFT
Ms type: MS2
Ion mode: POSITIVE
Ionization: ESI
Fragmentation mode: HCD
Collision energy: 30(NCE)
Resolution: 17500
Column name: Agilent RRHD Eclipse 50 x 2 mm, 1.8 uM
Retention time: 2.46
Base peak: 137.0591
Precursor m/z: 355.1382
Precursor type: [M+H]+
m/z	relative intensity	assigned
69.0335	50	
71.0491	76	
85.0284	63	
95.0491	50	
97.0648	38	
99.0441	277	C5H7O2+
107.0491	68	C7H7O1+
109.0648	96	
119.0855	51	
121.0648	55	
123.0441	139	
125.0597	178	
131.0855	56	
135.0804	39	
137.0597	999	
141.0546	57	
145.1012	46	
147.0804	186	
149.0597	100	
149.0961	52	
151.039	51	
151.0754	40	
153.0546	128	
157.1012	40	
159.0804	193	
161.0597	123	
161.0961	64	
163.0754	218	
165.091	309	
171.0804	73	
173.0961	143	
175.0754	917	
175.1082	40	
177.0546	41	
177.091	421	
179.0703	64	
183.0804	58	
185.0961	117	
187.0754	167	
189.091	263	
191.0703	196	
191.1067	58	
193.0859	93	
199.0754	92	
201.091	543	
203.0703	41	
203.1067	92	
205.0859	643	
211.0754	94	
213.091	179	
214.0624	38	
217.0859	327	
219.1016	161	
223.0965	47	
229.0859	868	
231.1016	136	
235.0965	51	
241.0859	51	
247.0965	453	
259.0965	135	
277.107	112	
337.1282	51	
