Mass spectrum: Ochratoxin B ethyl ester; LC-ESI-ITFT; MS2; CE: 40; R=17500; [M+H]+
Name: Ochratoxin B ethyl ester
Name: Ethyl 2-[(8-hydroxy-3-methyl-1-oxo-isochroman-7-carbonyl)amino]-3-phenyl-propanoate
Class: Natural Product; Fungal metabolite
Formula: C22H23NO6
Exact mass: 397.15253
SMILES: CCOC(=O)C(CC1=CC=CC=C1)NC(=O)C2=C(C3=C(CC(OC3=O)C)C=C2)O
InChI: InChI=1S/C22H23NO6/c1-3-28-21(26)17(12-14-7-5-4-6-8-14)23-20(25)16-10-9-15-11-13(2)29-22(27)18(15)19(16)24/h4-10,13,17,24H,3,11-12H2,1-2H3,(H,23,25)
Instrument: Q-Exactive Orbitrap Thermo Scientific
Instrument type: LC-ESI-ITFT
Ms type: MS2
Ion mode: POSITIVE
Ionization: ESI
Fragmentation mode: HCD
Collision energy: 40(NCE)
Resolution: 17500
Column name: Agilent RRHD Eclipse 50 x 2 mm, 1.8 uM
Retention time: 3.2
Base peak: 370.1652
Precursor m/z: 398.1593
Precursor type: [M+H]+
m/z	relative intensity	assigned
51.5099	79	
57.1774	73	
59.4776	66	
63.6294	67	
67.464	70	
68.5099	78	
106.0651	180	
107.7831	75	
110.0898	77	
120.0808	854	
130.0651	148	
179.0941	93	
217.0859	327	
235.448	101	
236.0917	131	
268.8264	79	
298.9514	93	
307.1329	184	
324.1594	401	
327.1465	166	
328.1543	152	
361.7541	95	
370.1649	999	
380.1492	130	
