Mass spectrum: 7,8-Dihydroxy calonectrin; LC-ESI-ITFT; MS2; CE: 55; R=17500; [M-H2O+H]+
Name: 7,8-Dihydroxy calonectrin
Class: Natural Product; Fungal metabolite
Formula: C19H26O8
Exact mass: 382.16276
SMILES: CC1=CC2C(C(C1O)O)(C3(CC(C(C34CO4)O2)OC(=O)C)C)COC(=O)C
InChI: InChI=1S/C19H26O8/c1-9-5-13-18(7-24-10(2)20,15(23)14(9)22)17(4)6-12(26-11(3)21)16(27-13)19(17)8-25-19/h5,12-16,22-23H,6-8H2,1-4H3
Instrument: Q-Exactive Orbitrap Thermo Scientific
Instrument type: LC-ESI-ITFT
Ms type: MS2
Ion mode: POSITIVE
Ionization: ESI
Fragmentation mode: HCD
Collision energy: 55(NCE)
Resolution: 17500
Column name: Agilent RRHD Eclipse 50 x 2 mm, 1.8 uM
Retention time: 2.9
Base peak: 81.0709
Precursor m/z: 365.1589
Precursor type: [M-H2O+H]+
m/z	relative intensity	assigned
56.7321	50	
59.133	48	
67.0553	93	
69.0343	56	
79.0552	670	
81.0709	999	
90.5763	62	
91.0554	558	
93.0709	255	
95.0502	274	
97.0659	68	
105.0699	837	
107.0504	142	
109.0648	891	
113.0597	99	
115.0542	134	
117.0699	630	
119.0855	371	
121.0648	535	
125.0597	148	
127.0754	125	
128.0621	324	
129.0699	522	
130.0777	109	
131.0855	779	
133.1012	268	
137.0597	403	
141.0699	354	
142.0777	351	
143.0855	524	
144.0934	310	
145.0648	123	
145.1012	296	
147.0804	121	
154.0777	155	
155.0855	87	
156.0934	289	
157.1012	325	
158.0726	85	
159.0804	303	
159.1168	290	
161.0961	141	
163.567	64	
165.0699	111	
166.0777	108	
175.0754	79	
187.1118	128	
197.0961	81	
286.8901	63	
287.2199	83	
