Mass spectrum: Frequentin; LC-ESI-ITFT; MS2; CE: 10; R=17500; [M+H]+
Name: Frequentin
Name: Frequentine
Name: 6-[(1E,3E)-hepta-1,3-dienyl]-3,4-dihydroxy-2-oxocyclohexane-1-carbaldehyde
Class: Natural Product; Fungal metabolite
Formula: C14H20O4
Exact mass: 252.13616
SMILES: CCC/C=C/C=C/[C@@H]1C[C@H]([C@H](C(=O)[C@H]1C=O)O)O
InChI: InChI=1S/C14H20O4/c1-2-3-4-5-6-7-10-8-12(16)14(18)13(17)11(10)9-15/h4-7,9-12,14,16,18H,2-3,8H2,1H3/b5-4+,7-6+/t10-,11+,12-,14-/m1/s1
Instrument: Q-Exactive Orbitrap Thermo Scientific
Instrument type: LC-ESI-ITFT
Ms type: MS2
Ion mode: POSITIVE
Ionization: ESI
Fragmentation mode: HCD
Collision energy: 10(NCE)
Resolution: 17500
Column name: Agilent RRHD Eclipse 50 x 2 mm, 1.8 uM
Retention time: 3.68
Base peak: 157.0488
Precursor m/z: 253.1429
Precursor type: [M+H]+
m/z	relative intensity	assigned
83.0491	31	
95.0855	31	
97.0284	87	C5H5O2+
97.1012	58	C7H13+
111.0441	347	
121.1012	36	
123.1168	32	
133.0648	68	
133.1012	33	
139.039	216	
147.1168	38	
149.0961	35	
157.0495	999	
161.1325	62	
171.1168	36	
175.1481	31	
177.091	40	
179.1067	48	
179.1431	37	
189.1274	175	
193.1223	73	
207.138	183	
217.1223	110	
217.1563	31	
235.1329	113	
235.1681	71	
253.1434	407	
