Mass spectrum: Oxaline; LC-ESI-ITFT; MS2; CE: 20; R=17500; [M+H]+
Name: Oxaline
Class: Natural Product; Fungal metabolite
Formula: C24H25N5O4
Exact mass: 447.19064
SMILES: C=CC(C)(C)[C@]12C=C(C(=O)N3/C(=C/c4cnc[nH]4)/C(=N[C@@]23N(c2ccccc12)OC)O)OC
InChI: InChI=1S/C24H25N5O4/c1-6-22(2,3)23-12-19(32-4)21(31)28-18(11-15-13-25-14-26-15)20(30)27-24(23,28)29(33-5)17-10-8-7-9-16(17)23/h6-14H,1H2,2-5H3,(H,25,26)(H,27,30)/b18-11+/t23-,24-/m0/s1
Instrument: Q-Exactive Orbitrap Thermo Scientific
Instrument type: LC-ESI-ITFT
Ms type: MS2
Ion mode: POSITIVE
Ionization: ESI
Fragmentation mode: HCD
Collision energy: 20(NCE)
Resolution: 17500
Column name: Agilent RRHD Eclipse 50 x 2 mm, 1.8 uM
Retention time: 2.73
Base peak: 417.1785
Precursor m/z: 448.1974
Precursor type: [M+H]+
m/z	relative intensity	assigned
332.0904	31	
348.1091	294	
349.1169	153	
374.1611	35	
386.1611	69	
416.1717	50	
417.1795	999	
448.1979	104	
