Mass spectrum: Ergocryptinine; LC-ESI-ITFT; MS2; CE: 50; R=17500; [M+Na]+
Name: Ergocryptinine
Class: Natural Product; Fungal metabolite
Formula: C32H41N5O5
Exact mass: 575.31077
SMILES: CC(C)C[C@H]1C(=O)N2CCC[C@H]2[C@]3(N1C(=O)[C@](O3)(C(C)C)NC(=O)[C@@H]4CN([C@@H]5CC6=CNC7=CC=CC(=C67)C5=C4)C)O
InChI: InChI=1S/C32H41N5O5/c1-17(2)12-25-29(39)36-11-7-10-26(36)32(41)37(25)30(40)31(42-32,18(3)4)34-28(38)20-13-22-21-8-6-9-23-27(21)19(15-33-23)14-24(22)35(5)16-20/h6,8-9,13,15,17-18,20,24-26,33,41H,7,10-12,14,16H2,1-5H3,(H,34,38)/t20-,24+,25-,26-,31+,32-/m0/s1
Instrument: Q-Exactive Orbitrap Thermo Scientific
Instrument type: LC-ESI-ITFT
Ms type: MS2
Ion mode: POSITIVE
Ionization: ESI
Fragmentation mode: HCD
Collision energy: 50(NCE)
Resolution: 17500
Column name: Agilent RRHD Eclipse 50 x 2 mm, 1.8 uM
Retention time: 2.8
Base peak: 208.0749
Precursor m/z: 598.2994
Precursor type: [M+Na]+
m/z	relative intensity	assigned
70.0651	135	
116.0706	47	
138.0523	706	
154.0651	55	
154.0836	288	
180.0808	199	
181.0886	35	
190.0651	32	
191.073	150	
192.0631	116	
192.0808	318	
194.06	38	
203.1152	91	
205.1309	184	
207.0665	192	
208.0743	999	
209.0835	49	
210.09	70	
220.0757	90	
221.1073	72	
223.123	79	
233.1258	33	
236.0944	47	
247.0828	697	
249.1009	163	C14H11N5+
249.1386	32	
251.1165	35	
251.1366	383	C11H20N2O3Na1+
263.0989	94	
277.1356	175	
290.1248	550	
302.1641	65	C20H23O1Na1+
305.1285	46	
317.1258	188	
326.1248	363	
327.109	140	
344.1369	50	
345.1196	335	
348.1873	127	
360.1509	305	
396.203	37	
412.1979	187	
458.205	271	
527.2629	56	
555.2578	47	
