Mass spectrum: AAL toxin TB; LC-ESI-ITFT; MS2; CE: 50; R=17500; [M+Na]+
Name: AAL toxin TB
Name: 2-[2-[(3R,4R,5S,7S,14R,16S)-17-amino-4,14,16-trihydroxy-3,7-dimethylheptadecan-5-yl]oxy-2-oxoethyl]butanedioic acid
Class: Natural Product; Fungal metabolite
Formula: C25H47NO9
Exact mass: 505.32508
SMILES: CC[C@@H](C)[C@H]([C@H](C[C@@H](C)CCCCCC[C@H](C[C@@H](CN)O)O)OC(=O)CC(CC(=O)O)C(=O)O)O
InChI: InChI=1S/C25H47NO9/c1-4-17(3)24(32)21(35-23(31)13-18(25(33)34)12-22(29)30)11-16(2)9-7-5-6-8-10-19(27)14-20(28)15-26/h16-21,24,27-28,32H,4-15,26H2,1-3H3,(H,29,30)(H,33,34)/t16-,17+,18?,19+,20-,21-,24+/m0/s1
Instrument: Q-Exactive Orbitrap Thermo Scientific
Instrument type: LC-ESI-ITFT
Ms type: MS2
Ion mode: POSITIVE
Ionization: ESI
Fragmentation mode: HCD
Collision energy: 50(NCE)
Resolution: 17500
Column name: Agilent RRHD Eclipse 50 x 2 mm, 1.8 uM
Retention time: 2.69
Base peak: 199.0208
Precursor m/z: 528.3138
Precursor type: [M+Na]+
m/z	relative intensity	assigned
60.045	60	
64.9781	56	
81.0699	122	
95.0855	78	
100.0243	72	
118.035	428	
119.9084	60	
199.0213	999	
280.76	64	
282.2037	132	
334.2564	614	
352.282	909	
437.6766	66	
444.2357	69	C23H35N1O6Na1+
460.233	67	
