Mass spectrum: Koninginin A; LC-ESI-ITFT; MS2; CE: 45; R=17500; [M+H]+
Name: Koninginin A
Class: Natural Product; Fungal metabolite
Formula: C16H28O4
Exact mass: 284.19877
SMILES: CCCCCC[C@H]1[C@@H]2CC[C@H]3[C@H](CC[C@H]([C@]3(O2)O1)O)O
InChI: InChI=1S/C16H28O4/c1-2-3-4-5-6-13-14-9-7-11-12(17)8-10-15(18)16(11,19-13)20-14/h11-15,17-18H,2-10H2,1H3/t11-,12-,13-,14-,15+,16-/m0/s1
Instrument: Q-Exactive Orbitrap Thermo Scientific
Instrument type: LC-ESI-ITFT
Ms type: MS2
Ion mode: POSITIVE
Ionization: ESI
Fragmentation mode: HCD
Collision energy: 45(NCE)
Resolution: 17500
Column name: Agilent RRHD Eclipse 50 x 2 mm, 1.8 uM
Retention time: 3.5
Base peak: 107.0494
Precursor m/z: 285.2055
Precursor type: [M+H]+
m/z	relative intensity	assigned
55.0186	96	
57.0706	728	
67.0542	464	
71.0491	201	
72.7288	120	
75.6318	114	
79.0542	539	
79.9468	100	
81.0699	519	
83.0855	100	
84.3005	109	
85.1012	246	
91.0542	473	
93.0699	213	
94.4948	119	
95.0855	427	C7H11+
97.0648	135	
105.0699	224	
107.0491	999	
109.0648	108	C7H9O1+
119.0855	505	
121.7029	106	
123.0804	180	
125.0597	122	
128.6339	108	
131.8267	113	
133.0648	607	
133.1012	125	
135.7872	145	
147.0804	250	
205.1587	197	
242.0745	120	
249.1824	132	
251.6225	107	
