Mass spectrum: Walleminone; LC-ESI-ITFT; MS2; CE: 30; R=17500; [M+H]+
Name: Walleminone
Name: (1R,4S,5S,6R,9R)-5,6-dihydroxy-4,11,11-trimethyl-8-methylidenebicyclo[7.2.0]undecan-3-one
Class: Natural Product; Fungal metabolite
Formula: C15H24O3
Exact mass: 252.17255
SMILES: C[C@H]1[C@@H]([C@@H](CC(=C)[C@@H]2CC([C@@H]2CC1=O)(C)C)O)O
InChI: InChI=1S/C15H24O3/c1-8-5-13(17)14(18)9(2)12(16)6-11-10(8)7-15(11,3)4/h9-11,13-14,17-18H,1,5-7H2,2-4H3/t9-,10+,11-,13-,14+/m1/s1
Instrument: Q-Exactive Orbitrap Thermo Scientific
Instrument type: LC-ESI-ITFT
Ms type: MS2
Ion mode: POSITIVE
Ionization: ESI
Fragmentation mode: HCD
Collision energy: 30(NCE)
Resolution: 17500
Column name: Agilent RRHD Eclipse 50 x 2 mm, 1.8 uM
Retention time: 3.44
Base peak: 253.1785
Precursor m/z: 253.1793
Precursor type: [M+H]+
m/z	relative intensity	assigned
57.0341	34	
57.0705	37	
67.0542	101	
69.0335	36	
69.0699	120	
71.0491	42	
81.0699	145	
83.0491	120	
83.0855	191	
85.0284	50	
85.0648	78	
91.0542	38	
93.0699	171	
95.0491	122	
95.0855	332	
97.0648	71	C6H9O1+
99.0441	54	
103.039	51	C4H7O3+
105.0699	130	
107.0855	273	
109.0648	258	
109.1012	286	
111.0804	51	
113.0597	43	
119.0855	331	
121.0648	31	
121.1012	556	
123.0804	130	
123.1168	264	
125.0597	262	
125.0961	59	
127.0754	45	
133.1012	382	
135.1168	302	
137.0961	283	
137.1325	59	
139.1118	46	
141.091	35	
145.1012	90	
147.1168	180	
149.0961	75	
149.1325	47	
151.1118	98	
151.1481	133	
153.091	56	
153.1274	45	
155.0703	259	
155.1067	84	
159.1168	47	
161.0961	141	
161.1325	284	
163.1118	236	
165.091	71	
167.1067	144	
173.1325	49	
175.1118	56	
175.1481	434	
177.1274	38	
179.1067	543	
179.1431	192	
181.1223	249	
189.1638	124	
193.1223	38	
193.1587	59	
197.1172	86	
199.1481	46	
217.1587	158	
235.1693	327	
253.1798	999	
