Mass spectrum: Andrastin D; LC-ESI-ITFT; MS2; CE: 40; R=17500; [M+H]+
Name: Andrastin D
Name: methyl (5S,8S,9S,10R,13R,14R)-17-hydroxy-4,4,8,10,12,13,16-heptamethyl-3,15-dioxo-1,2,5,6,7,9-hexahydrocyclopenta[a]phenanthrene-14-carboxylate
Class: Natural Product; Fungal metabolite
Formula: C26H36O5
Exact mass: 428.25629
SMILES: CC1=C[C@H]2[C@@]3(CCC(=O)C([C@H]3CC[C@@]2([C@]4([C@@]1(C(=C(C4=O)C)O)C)C(=O)OC)C)(C)C)C
InChI: InChI=1S/C26H36O5/c1-14-13-17-23(5)11-10-18(27)22(3,4)16(23)9-12-24(17,6)26(21(30)31-8)20(29)15(2)19(28)25(14,26)7/h13,16-17,28H,9-12H2,1-8H3/t16-,17+,23-,24+,25+,26-/m1/s1
Instrument: Q-Exactive Orbitrap Thermo Scientific
Instrument type: LC-ESI-ITFT
Ms type: MS2
Ion mode: POSITIVE
Ionization: ESI
Fragmentation mode: HCD
Collision energy: 40(NCE)
Resolution: 17500
Column name: Agilent RRHD Eclipse 50 x 2 mm, 1.8 uM
Retention time: 3.95
Base peak: 121.1014
Precursor m/z: 429.263
Precursor type: [M+H]+
m/z	relative intensity	assigned
56.9656	38	
57.0708	47	
67.055	119	
69.0342	40	
69.0706	286	
71.0499	52	
79.0542	76	
81.0699	279	
83.0128	476	
83.0491	117	
83.0855	162	
85.0284	36	
85.0648	40	
91.0542	81	
93.0699	319	
95.0491	110	
95.0855	435	
97.0648	131	
97.1012	82	
99.0804	78	
105.0699	233	
107.0855	923	
109.0648	106	
109.1012	535	
111.0804	75	
111.1168	33	
117.0699	37	
119.0855	568	
121.0648	118	
121.1012	999	
123.0804	188	
123.1168	347	
125.0597	53	
125.0961	82	
127.1118	32	C8H15O1+
131.0855	171	
133.1012	878	
135.0804	277	
135.1168	571	
137.0597	39	
137.0961	284	C9H13O1+
137.1325	64	
139.0754	33	
139.1118	33	
143.0855	56	
145.1012	450	C11H13+
147.0804	145	
147.1168	437	C11H15+
149.0597	45	
149.0961	350	C10H13O1+
149.1325	149	
151.039	777	C8H7O3+
151.0754	70	
151.1118	265	C10H15O1+
153.0546	85	
157.1012	175	
159.0804	31	
159.1168	751	C12H15+
161.0961	184	
161.1325	417	
163.0754	70	
163.1118	833	
163.1481	230	
165.091	131	C10H13O2+
165.1274	470	
169.0177	58	
169.0495	318	
169.1012	31	
171.1168	352	
173.0961	77	
173.1325	417	
175.0754	97	
175.1118	237	
175.1481	141	
177.0546	58	
177.091	278	C11H13O2+
177.1274	248	
177.1638	56	
179.0703	627	
179.1067	44	
179.1431	52	
183.0652	114	
183.1168	50	
185.0961	34	
185.1325	255	
187.1118	101	
187.1481	388	C14H19+
189.091	195	C12H13O2+
189.1274	267	
191.0703	52	
191.1067	283	
191.1431	171	
193.0859	186	
193.1587	70	
197.0808	33	
197.1325	43	
199.1118	78	
199.1481	82	C15H19+
201.091	49	
201.1274	85	
201.1638	96	C15H21+
202.0988	75	
203.1067	144	C13H15O2+
203.1431	148	
203.1795	92	
205.0859	85	
205.1223	402	
205.1587	286	
207.0652	159	C11H11O4+
207.1016	102	
211.0965	150	
211.1481	44	
213.1274	57	
215.1067	70	
215.1431	50	
217.1223	553	C14H17O2+
217.1587	38	
217.1951	33	
219.1016	131	
219.138	129	
219.1744	34	
221.1172	36	
223.0965	42	
225.1274	38	
225.1638	59	
227.1067	45	
227.1431	40	
227.1795	379	
229.1223	88	
231.1016	47	
231.138	164	C15H19O2+
233.1172	35	
233.1536	67	
237.1121	106	
241.1223	64	
243.138	118	C16H19O2+
245.1172	131	
245.19	319	C17H25O1+
247.1329	65	
253.1587	35	
255.138	36	
257.1536	98	
259.1329	71	
265.1587	34	
271.1693	35	
282.174	39	
283.1693	100	
295.1693	41	
295.2057	39	
300.1873	51	
323.2006	42	
323.237	36	
327.2319	39	
337.2162	38	
351.2319	101	
355.2268	31	
361.2162	41	
369.2424	132	
379.2268	96	
397.2374	81	
