Mass spectrum: Satratoxin F; LC-ESI-ITFT; MS2; CE: 55; R=17500; [M+Na]+
Name: Satratoxin F
Class: Natural Product; Fungal metabolite
Formula: C29H34O10
Exact mass: 542.21518
SMILES: CC1=CC2C3(CC1)COC(=O)C4C5(O4)CCOC(C5O)(/C=C\C=C/C(=O)OC6C3(C7(CO7)C(C6)O2)C)C(=O)C
InChI: InChI=1S/C29H34O10/c1-16-7-9-26-14-34-23(32)22-28(39-22)10-11-35-27(17(2)30,24(28)33)8-5-4-6-21(31)38-18-13-20(37-19(26)12-16)29(15-36-29)25(18,26)3/h4-6,8,12,18-20,22,24,33H,7,9-11,13-15H2,1-3H3/b6-4-,8-5-
Instrument: Q-Exactive Orbitrap Thermo Scientific
Instrument type: LC-ESI-ITFT
Ms type: MS2
Ion mode: POSITIVE
Ionization: ESI
Fragmentation mode: HCD
Collision energy: 55(NCE)
Resolution: 17500
Column name: Agilent RRHD Eclipse 50 x 2 mm, 1.8 uM
Retention time: 3.45
Base peak: 95.0501
Precursor m/z: 565.2039
Precursor type: [M+Na]+
m/z	relative intensity	assigned
54.9316	77	
55.0553	89	
55.7132	62	
55.949	65	
62.7537	82	
67.0553	668	
71.0501	76	
79.0552	467	
81.0708	621	
88.1666	83	
91.0542	594	
93.0699	460	
95.0501	999	
95.0855	415	
105.0699	925	
107.0855	179	
109.0648	101	
117.0699	175	
119.0855	803	
121.0648	313	
121.1012	119	
128.0621	98	
129.0699	83	
131.0855	632	
133.1012	136	
142.0777	192	
143.0855	395	
144.0934	85	
145.1012	132	C11H13+
149.0961	188	
155.0855	99	
159.1168	154	
161.0961	137	
185.1359	87	
201.5862	92	
204.2644	77	
221.4227	100	
222.8134	93	
226.5578	95	
231.138	111	
303.6488	87	
476.4576	95	
498.3077	86	
