Mass spectrum: Satratoxin H; LC-ESI-ITFT; MS2; CE: 55; R=17500; [M+H]+
Name: Satratoxin H
Class: Natural Product; Fungal metabolite
Formula: C29H36O9
Exact mass: 528.23593
SMILES: CC1=C[C@@H]2[C@@]3(CC1)COC(=O)/C=C/4\CCO[C@@]([C@@H]4O)(/C=C/C=C/C(=O)OC5[C@]3([C@]6(CO6)[C@@H](C5)O2)C)[C@H](C)O
InChI: InChI=1S/C29H36O9/c1-17-7-10-27-15-34-24(32)13-19-8-11-35-28(18(2)30,25(19)33)9-5-4-6-23(31)38-20-14-22(37-21(27)12-17)29(16-36-29)26(20,27)3/h4-6,9,12-13,18,20-22,25,30,33H,7-8,10-11,14-16H2,1-3H3/b6-4+,9-5+,19-13+/t18-,20?,21+,22+,25+,26+,27+,28-,29-/m0/s1
Instrument: Q-Exactive Orbitrap Thermo Scientific
Instrument type: LC-ESI-ITFT
Ms type: MS2
Ion mode: POSITIVE
Ionization: ESI
Fragmentation mode: HCD
Collision energy: 55(NCE)
Resolution: 17500
Column name: Agilent RRHD Eclipse 50 x 2 mm, 1.8 uM
Retention time: 3.25
Base peak: 105.0707
Precursor m/z: 529.2427
Precursor type: [M+H]+
m/z	relative intensity	assigned
55.0554	127	
58.9604	93	
65.0979	103	
69.0342	98	
79.0552	487	
81.0708	187	
83.0503	144	
91.0542	772	
93.0699	456	
94.9832	121	
95.0491	223	
105.0699	999	
107.0491	133	
109.0648	141	
111.8211	120	
117.0699	169	
119.0855	209	
129.0699	122	
133.0648	268	
142.0777	127	
143.0855	162	
144.6812	104	
145.1012	138	
148.2863	115	
173.0597	504	
246.9985	109	
271.9398	111	
