Mass spectrum: T-2 Toxin; LC-ESI-ITFT; MS2; CE: 30; R=17500; [M+H]+
Name: T-2 Toxin
Name: Fusariotoxin T 2
Name: Insariotoxin
Name: T-2 mycotoxin
Name: (2alpha,3alpha,4beta,8alpha)-4,15-bis(acetyloxy)-3-hydroxy-12,13-epoxytrichothec-9-en-8-yl 3-methylbutanoate
Class: Natural Product; Fungal metabolite
Formula: C24H34O9
Exact mass: 466.22027
SMILES: CC1=C[C@@H]2[C@](C[C@@H]1OC(=O)CC(C)C)([C@]3([C@@H]([C@H]([C@H]([C@@]34CO4)O2)O)OC(=O)C)C)COC(=O)C
InChI: InChI=1S/C24H34O9/c1-12(2)7-18(27)32-16-9-23(10-29-14(4)25)17(8-13(16)3)33-21-19(28)20(31-15(5)26)22(23,6)24(21)11-30-24/h8,12,16-17,19-21,28H,7,9-11H2,1-6H3/t16-,17+,19+,20+,21+,22+,23+,24-/m0/s1
Instrument: Q-Exactive Orbitrap Thermo Scientific
Instrument type: LC-ESI-ITFT
Ms type: MS2
Ion mode: POSITIVE
Ionization: ESI
Fragmentation mode: HCD
Collision energy: 30(NCE)
Resolution: 17500
Column name: Agilent RRHD Eclipse 50 x 2 mm, 1.8 uM
Retention time: 3.56
Base peak: 85.0651
Precursor m/z: 467.227
Precursor type: [M+H]+
m/z	relative intensity	assigned
57.0706	726	
69.0335	44	
85.0648	999	
93.0699	170	
95.0491	230	
95.0855	57	
97.0648	106	
105.0699	433	
107.0491	148	
109.0648	128	
119.0491	63	
119.0855	84	
121.0648	854	
123.0441	149	
123.0804	132	
125.0597	271	
129.0699	81	
131.0855	108	
133.0648	57	
133.1012	88	
135.0804	63	
137.0597	94	
139.0754	47	
141.0546	78	
141.0699	58	
142.0777	66	
143.0855	313	
145.0648	82	
145.1012	260	
147.0804	67	
147.1168	65	
149.0597	51	
149.0961	45	C10H13O1+
155.0855	94	
156.0934	99	
157.1012	466	
159.0804	171	
159.1168	255	
161.0961	174	
163.0754	49	
166.0777	58	C13H10+
167.0836	32	
169.1012	469	
171.0804	80	
171.1168	484	
173.0961	353	
175.1118	175	
179.0855	54	
181.1012	292	
183.0804	45	
185.0961	809	
187.1118	458	
189.1274	151	
191.1067	156	
197.0961	455	
199.1118	928	
203.1067	296	
205.1223	56	
209.0961	211	C15H13O1+
215.1067	717	
217.1223	478	
227.1067	640	
233.1172	235	
235.1329	116	
245.1172	883	
263.1278	436	
287.1278	62	
305.1384	236	
323.1489	88	
