Mass spectrum: 15-Acetyldeoxynivalenol; LC-APCI-ITFT; MS2; CE: 55; R=17500; [M-H2O+H]+
Name: 15-Acetyldeoxynivalenol
Name: 15-monoacetyldeoxynivalenol
Class: Natural Product; Fungal metabolite
Formula: C17H22O7
Exact mass: 338.13654
SMILES: CC1=C[C@@H]2[C@]([C@@H](C1=O)O)([C@]3(C[C@H]([C@H]([C@@]34CO4)O2)O)C)COC(=O)C
InChI: InChI=1S/C17H22O7/c1-8-4-11-16(6-22-9(2)18,13(21)12(8)20)15(3)5-10(19)14(24-11)17(15)7-23-17/h4,10-11,13-14,19,21H,5-7H2,1-3H3/t10-,11-,13-,14-,15-,16-,17+/m1/s1
Instrument: Q-Exactive Orbitrap Thermo Scientific
Instrument type: LC-APCI-ITFT
Ms type: MS2
Ion mode: POSITIVE
Ionization: APCI
Fragmentation mode: HCD
Collision energy: 55(NCE)
Resolution: 17500
Column name: Agilent RRHD Eclipse 50 x 2 mm, 1.8 uM
Retention time: 2.71
Base peak: 93.0705
Precursor m/z: 321.1327
Precursor type: [M-H2O+H]+
m/z	relative intensity	assigned
69.0343	93	
74.4645	63	
79.0542	687	
81.0707	449	
91.0542	487	
93.0699	999	
95.0491	319	
95.0855	100	
97.0648	127	
105.0699	167	
109.0284	293	
109.0659	415	
115.0542	78	
121.0648	86	
123.0441	99	
124.7886	62	
125.0597	73	
128.0621	68	C10H8+
129.0699	327	
131.0855	123	
133.0648	68	C9H9O1+
137.0597	594	
141.0699	135	
142.0777	619	
143.0855	86	
145.0648	82	
145.1012	91	
151.644	66	
157.0648	85	
157.1012	775	
159.0804	125	
161.0597	150	
165.0546	68	
169.1012	79	
170.0726	154	
175.0754	85	
185.0961	487	
197.0961	107	
215.1067	164	
