Mass spectrum: Fumonisin B4; LC-ESI-ITFT; MS2; CE: 30; R=17500; [M+H]+
Name: Fumonisin B4
Class: Natural Product; Fungal metabolite
Formula: C34H59NO13
Exact mass: 689.39863
SMILES: CCCC[C@@H](C)[C@H]([C@H](C[C@@H](C)CCCCCCCC[C@@H]([C@H](C)N)O)OC(=O)C[C@@H](CC(=O)O)C(=O)O)OC(=O)C[C@@H](CC(=O)O)C(=O)O
InChI: InChI=1S/C34H59NO13/c1-5-6-14-22(3)32(48-31(42)20-25(34(45)46)18-29(39)40)27(47-30(41)19-24(33(43)44)17-28(37)38)16-21(2)13-11-9-7-8-10-12-15-26(36)23(4)35/h21-27,32,36H,5-20,35H2,1-4H3,(H,37,38)(H,39,40)(H,43,44)(H,45,46)/t21-,22+,23-,24+,25+,26-,27-,32+/m0/s1
Instrument: Q-Exactive Orbitrap Thermo Scientific
Instrument type: LC-ESI-ITFT
Ms type: MS2
Ion mode: POSITIVE
Ionization: ESI
Fragmentation mode: HCD
Collision energy: 30(NCE)
Resolution: 17500
Column name: Agilent RRHD Eclipse 50 x 2 mm, 1.8 uM
Retention time: 3.02
Base peak: 320.3322
Precursor m/z: 690.4054
Precursor type: [M+H]+
m/z	relative intensity	assigned
69.0709	117	
88.1679	46	
90.1923	51	
97.1012	51	
99.2589	48	
109.1012	72	
153.8286	50	
159.0288	113	
187.7809	58	
210.2217	85	
238.1649	63	
320.3312	999	
338.3418	881	
345.5672	56	
356.3523	83	
363.2741	55	
