Mass spectrum: Deoxynivalenol-3-glucoside; LC-APCI-ITFT; MS2; CE: 20; R=17500; [M+FA]-
Name: Deoxynivalenol-3-glucoside
Name: (3alpha,7beta,12epsilon)-7,15-Dihydroxy-8-oxo-12,13-epoxytrichothec-9-en-3-yl beta-D-glucopyranoside
Class: Natural Product; Fungal metabolite
Formula: C21H30O11
Exact mass: 458.17879
SMILES: CC1=C[C@@H]2[C@]([C@@H](C1=O)O)([C@]3(C[C@H]([C@H]([C@@]34CO4)O2)O[C@H]5[C@@H]([C@H]([C@@H]([C@H](O5)CO)O)O)O)C)CO
InChI: InChI=1S/C21H30O11/c1-8-3-11-20(6-23,16(28)12(8)24)19(2)4-9(17(32-11)21(19)7-29-21)30-18-15(27)14(26)13(25)10(5-22)31-18/h3,9-11,13-18,22-23,25-28H,4-7H2,1-2H3/t9-,10-,11-,13-,14+,15-,16-,17-,18-,19-,20-,21+/m1/s1
Instrument: Q-Exactive Orbitrap Thermo Scientific
Instrument type: LC-APCI-ITFT
Ms type: MS2
Ion mode: NEGATIVE
Ionization: APCI
Fragmentation mode: HCD
Collision energy: 20(NCE)
Resolution: 17500
Column name: Agilent RRHD Eclipse 50 x 2 mm, 1.8 uM
Retention time: 2.2
Base peak: 427.1573
Precursor m/z: 503.177
Precursor type: [M+HCOO]-
m/z	relative intensity	assigned
59.012	71	
71.0124	87	
89.0227	253	
101.0231	124	
113.0229	78	
119.035	180	
143.0332	35	
161.0439	47	
179.0561	77	
205.0848	195	
229.087	51	
247.0976	310	
259.0976	59	
265.1081	53	
277.1081	129	
409.1504	81	
427.1609	999	
439.1609	46	
457.1715	387	
503.177	182	
