Mass spectrum: T-2 tetraol; LC-ESI-ITFT; MS2; CE: 30; R=17500; [M+H]+
Name: T-2 tetraol
Name: T-2 toxin tetraol
Name: 3-alpha,4-beta,8-alpha,15-Tetrahydroxy-12,13-epoxytrichothec-9-ene
Class: Natural Product; Fungal metabolite
Formula: C15H22O6
Exact mass: 298.14163
SMILES: CC1=C[C@@H]2[C@](C[C@@H]1O)([C@]3([C@@H]([C@H]([C@H](C34CO4)O2)O)O)C)CO
InChI: InChI=1S/C15H22O6/c1-7-3-9-14(5-16,4-8(7)17)13(2)11(19)10(18)12(21-9)15(13)6-20-15/h3,8-12,16-19H,4-6H2,1-2H3/t8-,9+,10+,11+,12+,13+,14+,15?/m0/s1
Instrument: Q-Exactive Orbitrap Thermo Scientific
Instrument type: LC-ESI-ITFT
Ms type: MS2
Ion mode: POSITIVE
Ionization: ESI
Fragmentation mode: HCD
Collision energy: 30(NCE)
Resolution: 17500
Column name: Agilent RRHD Eclipse 50 x 2 mm, 1.8 uM
Retention time: 2.26
Base peak: 191.1058
Precursor m/z: 299.1484
Precursor type: [M+H]+
m/z	relative intensity	assigned
51.27	82	
53.6514	81	
57.2511	80	
57.2743	95	
59.9919	82	
64.4842	92	
68.7746	92	
94.6698	101	
95.0491	213	
97.0648	533	
105.0699	144	
109.0648	227	
110.6575	116	
119.0855	114	
121.0648	684	
123.0077	112	
125.0597	249	
145.1012	239	C11H13+
149.0961	191	C10H13O1+
157.1012	123	
163.1118	216	
173.0961	178	
175.1118	531	
179.1067	109	
185.0961	132	
191.1067	999	
199.1118	165	
217.1223	246	
222.5434	116	
245.1172	453	
263.1278	126	
266.5103	121	
