Mass spectrum: Satratoxin H; LC-ESI-ITFT; MS2; CE: 40; R=17500; [M+H]+
Name: Satratoxin H
Class: Natural Product; Fungal metabolite
Formula: C29H36O9
Exact mass: 528.23593
SMILES: CC1=C[C@@H]2[C@@]3(CC1)COC(=O)/C=C/4\CCO[C@@]([C@@H]4O)(/C=C/C=C/C(=O)OC5[C@]3([C@]6(CO6)[C@@H](C5)O2)C)[C@H](C)O
InChI: InChI=1S/C29H36O9/c1-17-7-10-27-15-34-24(32)13-19-8-11-35-28(18(2)30,25(19)33)9-5-4-6-23(31)38-20-14-22(37-21(27)12-17)29(16-36-29)26(20,27)3/h4-6,9,12-13,18,20-22,25,30,33H,7-8,10-11,14-16H2,1-3H3/b6-4+,9-5+,19-13+/t18-,20?,21+,22+,25+,26+,27+,28-,29-/m0/s1
Instrument: Q-Exactive Orbitrap Thermo Scientific
Instrument type: LC-ESI-ITFT
Ms type: MS2
Ion mode: POSITIVE
Ionization: ESI
Fragmentation mode: HCD
Collision energy: 40(NCE)
Resolution: 17500
Column name: Agilent RRHD Eclipse 50 x 2 mm, 1.8 uM
Retention time: 3.25
Base peak: 105.0706
Precursor m/z: 529.2427
Precursor type: [M+H]+
m/z	relative intensity	assigned
60.5828	93	
79.0555	123	
81.0708	540	
83.0502	175	
91.0542	149	
93.0699	197	
95.0491	203	
105.0699	999	
106.543	123	
107.0504	110	
107.0855	187	
109.0648	218	
115.3045	121	
117.0699	166	
121.0648	130	
123.0804	179	
125.0597	99	
127.039	222	
133.0648	203	
133.1012	123	
139.039	135	
143.0855	556	
145.0648	248	
147.0804	223	
149.0597	191	
157.1012	221	
161.0961	427	
175.0754	476	
183.1168	246	
185.1325	211	
189.091	129	
191.0703	189	
195.1168	137	
199.0754	140	
199.1118	198	
201.0546	247	
201.1274	146	
217.0881	157	
219.0652	147	
231.138	185	
