Mass spectrum: 3-Acetyldeoxynivalenol; LC-APCI-ITFT; MS2; CE: 30; R=17500; [M+H]+
Name: 3-Acetyldeoxynivalenol
Name: 3-monoacetyldeoxynivalenol
Class: Natural Product; Fungal metabolite
Formula: C17H22O7
Exact mass: 338.13654
SMILES: CC1=C[C@@H]2[C@]([C@@H](C1=O)O)([C@]3(C[C@H]([C@H]([C@@]34CO4)O2)OC(=O)C)C)CO
InChI: InChI=1S/C17H22O7/c1-8-4-11-16(6-18,13(21)12(8)20)15(3)5-10(23-9(2)19)14(24-11)17(15)7-22-17/h4,10-11,13-14,18,21H,5-7H2,1-3H3/t10-,11-,13-,14-,15-,16-,17+/m1/s1
Instrument: Q-Exactive Orbitrap Thermo Scientific
Instrument type: LC-APCI-ITFT
Ms type: MS2
Ion mode: POSITIVE
Ionization: APCI
Fragmentation mode: HCD
Collision energy: 30(NCE)
Resolution: 17500
Column name: Agilent RRHD Eclipse 50 x 2 mm, 1.8 uM
Retention time: 2.77
Base peak: 231.1024
Precursor m/z: 339.1433
Precursor type: [M+H]+
m/z	relative intensity	assigned
69.0342	74	
79.0542	65	
81.0707	92	
93.0699	38	
95.0491	38	
97.0648	63	
99.0441	34	
107.0491	98	
109.0648	266	
121.0648	57	
123.0441	97	
125.0597	308	
131.0855	48	
133.0648	34	
135.0441	44	
135.0804	58	
137.0597	520	
143.0855	32	
145.0648	58	
145.1012	60	
147.0804	68	
149.0597	37	
149.0961	35	
151.039	37	
153.0546	120	
157.1012	98	
159.0804	113	
159.1168	70	
161.0597	94	
161.0961	65	
163.0754	164	
169.1012	81	
171.0804	51	
173.0961	140	
175.0754	341	
175.1118	70	
177.091	87	
185.0961	244	
187.0754	45	
187.1118	190	
189.091	367	
191.1067	39	
193.0859	82	
195.0804	36	
197.0961	152	
198.0675	51	
201.091	418	C13H13O2+
203.0703	32	
203.1067	805	
205.0859	118	
205.1223	37	
213.091	893	
215.1067	339	
219.1016	234	
223.0965	132	
225.091	71	
231.1016	999	
233.1172	81	
243.1016	162	
249.1121	126	
251.1278	33	
261.1121	205	
279.1227	552	
297.1333	132	
321.1333	117	
339.1438	62	
