Mass spectrum: Marticin; LC-ESI-ITFT; MS2; CE: 30; R=17500; [M-H]-
Name: Marticin
Name: 2,6-Epoxy-2H-naphth(2,3-d)oxocin-4-carboxylic acid, 1,4,5,6,7,12-hexahydro-8,11-dihydroxy-10-methoxy-2-methyl-7,12-dioxo-, (2alpha,4alpha,6alpha)-(+)-
Class: Natural Product; Fungal metabolite
Formula: C18H16O9
Exact mass: 376.07941
SMILES: CC12CC3=C(C4=C(C(=O)C=C(C4=O)OC)C(=C3C(O1)CC(O2)C(=O)O)O)O
InChI: InChI=1S/C18H16O9/c1-18-5-6-11(8(26-18)4-10(27-18)17(23)24)16(22)12-7(19)3-9(25-2)15(21)13(12)14(6)20/h3,8,10,20,22H,4-5H2,1-2H3,(H,23,24)
Instrument: Q-Exactive Orbitrap Thermo Scientific
Instrument type: LC-ESI-ITFT
Ms type: MS2
Ion mode: NEGATIVE
Ionization: ESI
Fragmentation mode: HCD
Collision energy: 30(NCE)
Resolution: 17500
Column name: Agilent RRHD Eclipse 50 x 2 mm, 1.8 uM
Retention time: 3.28
Base peak: 287.0543
Precursor m/z: 375.0727
Precursor type: [M-H]-
m/z	relative intensity	assigned
259.0248	120	
268.0377	35	
269.0455	61	
270.0534	46	
271.0612	40	
272.0326	350	
273.0404	35	
274.0483	168	
283.0612	154	
285.0404	423	
285.0721	33	
286.0483	251	
287.0561	999	
298.0483	263	
300.0639	391	
301.0717	503	
313.0717	322	
316.0588	56	
357.0616	43	
375.0698	221	
