Mass spectrum: Satratoxin F; LC-ESI-ITFT; MS2; CE: 55; R=17500; [M+H]+
Name: Satratoxin F
Class: Natural Product; Fungal metabolite
Formula: C29H34O10
Exact mass: 542.21518
SMILES: CC1=CC2C3(CC1)COC(=O)C4C5(O4)CCOC(C5O)(/C=C\C=C/C(=O)OC6C3(C7(CO7)C(C6)O2)C)C(=O)C
InChI: InChI=1S/C29H34O10/c1-16-7-9-26-14-34-23(32)22-28(39-22)10-11-35-27(17(2)30,24(28)33)8-5-4-6-21(31)38-18-13-20(37-19(26)12-16)29(15-36-29)25(18,26)3/h4-6,8,12,18-20,22,24,33H,7,9-11,13-15H2,1-3H3/b6-4-,8-5-
Instrument: Q-Exactive Orbitrap Thermo Scientific
Instrument type: LC-ESI-ITFT
Ms type: MS2
Ion mode: POSITIVE
Ionization: ESI
Fragmentation mode: HCD
Collision energy: 55(NCE)
Resolution: 17500
Column name: Agilent RRHD Eclipse 50 x 2 mm, 1.8 uM
Retention time: 3.45
Base peak: 105.0707
Precursor m/z: 543.2219
Precursor type: [M+H]+
m/z	relative intensity	assigned
52.5464	32	
53.0397	65	
62.1327	33	
67.0552	155	
69.0344	54	
75.4385	40	
79.0551	338	
81.0347	91	
81.0709	535	
81.9678	39	
83.0501	45	
91.0542	405	
93.0699	439	
95.0491	347	
95.0855	433	
97.0295	63	
99.0441	285	
100.0648	40	
105.0699	999	
107.0491	69	
107.0855	204	
109.0648	102	
115.0542	66	
116.591	36	
117.0699	78	
119.0855	192	
121.0648	243	
123.0441	84	
123.0804	327	
125.0597	46	
125.4863	38	
128.0621	49	
129.0714	123	
131.0855	274	
133.1012	84	
142.0777	250	
143.0855	327	
145.0648	51	
145.1012	67	
147.0804	73	
149.0597	46	
149.0961	64	
151.039	298	
155.0855	89	
157.1012	103	
159.1168	68	
161.0597	86	
161.0961	58	C11H13O1+
168.0934	93	
170.1108	76	
171.1168	51	
231.8004	45	
257.6682	36	
526.1616	43	
