Mass spectrum: Fumonisin B3; LC-ESI-ITFT; MS2; CE: 30; R=17500; [M+H]+
Name: Fumonisin B3
Class: Natural Product; Fungal metabolite
Formula: C34H59NO14
Exact mass: 705.39354
SMILES: CCCC[C@@H](C)[C@H]([C@H](C[C@@H](C)C[C@@H](CCCCCC[C@@H]([C@@H](C)N)O)O)OC(=O)CC(CC(=O)O)C(=O)O)OC(=O)CC(CC(=O)O)C(=O)O
InChI: InChI=1S/C34H59NO14/c1-5-6-11-21(3)32(49-31(43)19-24(34(46)47)17-29(40)41)27(48-30(42)18-23(33(44)45)16-28(38)39)15-20(2)14-25(36)12-9-7-8-10-13-26(37)22(4)35/h20-27,32,36-37H,5-19,35H2,1-4H3,(H,38,39)(H,40,41)(H,44,45)(H,46,47)/t20-,21+,22+,23?,24?,25+,26-,27-,32+/m0/s1
Instrument: Q-Exactive Orbitrap Thermo Scientific
Instrument type: LC-ESI-ITFT
Ms type: MS2
Ion mode: POSITIVE
Ionization: ESI
Fragmentation mode: HCD
Collision energy: 30(NCE)
Resolution: 17500
Column name: Agilent RRHD Eclipse 50 x 2 mm, 1.8 uM
Retention time: 2.83
Base peak: 336.3241
Precursor m/z: 706.4003
Precursor type: [M+H]+
m/z	relative intensity	assigned
57.0705	41	
67.0542	34	
69.0699	79	
70.0651	34	
81.0699	173	
83.0855	52	
85.1012	67	
93.0699	46	C7H9+
95.0855	219	C7H11+
97.1012	63	C7H13+
107.0855	83	
109.1012	170	
111.1168	33	
121.1012	82	
123.1168	115	
127.1118	43	
133.1012	46	
135.1168	84	
137.1325	48	
147.1168	46	
149.1325	57	
151.1481	57	
159.0288	131	
161.1325	36	
163.1481	32	
170.154	100	
177.1638	41	
188.1645	92	
194.1903	63	
203.1795	57	
212.2009	41	
220.206	46	
238.2139	118	
256.2244	67	
301.289	51	
318.3129	441	
336.3234	999	
354.334	279	
494.3449	44	
512.3555	63	
530.3661	36	
670.3797	42	
688.3903	73	
706.4008	38	
