Mass spectrum: Alternariol; LC-ESI-ITFT; MS2; CE: 40; R=17500; [M+H]+
Name: Alternariol
Name: 3,7,9-trihydroxy-1-methylbenzo[c]chromen-6-one
Class: Natural Product; Fungal metabolite
Formula: C14H10O5
Exact mass: 258.05281
SMILES: CC1=CC(=CC2=C1C3=CC(=CC(=C3C(=O)O2)O)O)O
InChI: InChI=1S/C14H10O5/c1-6-2-7(15)5-11-12(6)9-3-8(16)4-10(17)13(9)14(18)19-11/h2-5,15-17H,1H3
Instrument: Q-Exactive Orbitrap Thermo Scientific
Instrument type: LC-ESI-ITFT
Ms type: MS2
Ion mode: POSITIVE
Ionization: ESI
Fragmentation mode: HCD
Collision energy: 40(NCE)
Resolution: 17500
Column name: Agilent RRHD Eclipse 50 x 2 mm, 1.8 uM
Retention time: 3.17
Base peak: 259.0588
Precursor m/z: 259.0595
Precursor type: [M+H]+
m/z	relative intensity	assigned
213.0546	36	
241.0495	51	
259.0601	999	
