Mass spectrum: Griseofulvin; LC-ESI-ITFT; MS2; CE: 50; R=17500; [M+H]+
Name: Griseofulvin
Name: Amudane, Fulvicin, Grisactin
Name: (2S,5'R)-7-chloro-3',4,6-trimethoxy-5'-methylspiro[1-benzofuran-2,4'-cyclohex-2-ene]-1',3-dione
Class: Natural Product; Fungal metabolite
Formula: C17H17ClO6
Exact mass: 352.07135
SMILES: C[C@@H]1CC(=O)C=C([C@]12C(=O)C3=C(O2)C(=C(C=C3OC)OC)Cl)OC
InChI: InChI=1S/C17H17ClO6/c1-8-5-9(19)6-12(23-4)17(8)16(20)13-10(21-2)7-11(22-3)14(18)15(13)24-17/h6-8H,5H2,1-4H3/t8-,17+/m1/s1
Instrument: Q-Exactive Orbitrap Thermo Scientific
Instrument type: LC-ESI-ITFT
Ms type: MS2
Ion mode: POSITIVE
Ionization: ESI
Fragmentation mode: HCD
Collision energy: 50(NCE)
Resolution: 17500
Column name: Agilent RRHD Eclipse 50 x 2 mm, 1.8 uM
Retention time: 3.32
Base peak: 69.034
Precursor m/z: 353.0781
Precursor type: [M+H]+
m/z	relative intensity	assigned
69.0335	999	
122.0362	56	
150.0311	33	
165.0546	779	
171.9922	45	
199.9871	66	
215.0106	524	
217.9976	107	
224.0235	58	
270.0289	95	
285.0524	105	
