Mass spectrum: Viridicatumtoxin; LC-ESI-ITFT; MS2; CE: 10; R=17500; [M-H]-
Name: Viridicatumtoxin
Name: (1S,7a'S,11a'R)-5',6',7a',10',11a'-Pentahydroxy-3'-methoxy-2,6,6-trimethyl-7',8',12'-trioxo-7',7a',8',11',11a',12'-hexahydro-1'H-spiro[cyclohex-2-ene-1,2'-cyclopenta[de]tetracene]-9'-carboxamide
Class: Natural Product; Fungal metabolite
Formula: C30H31NO10
Exact mass: 565.19478
SMILES: CC1=CCCC([C@@]12CC3=C4[C@@H]([C@]5(CC(=O)C(=C([C@]5(C(=O)C4=C(C6=C3C2=C(C=C6O)OC)O)O)O)C(=O)N)O)O)(C)C
InChI: InChI=1S/C30H31NO10/c1-11-6-5-7-27(2,3)28(11)9-12-16-18(13(32)8-15(41-4)21(16)28)22(34)20-17(12)23(35)29(39)10-14(33)19(26(31)38)24(36)30(29,40)25(20)37/h6,8,23,32,34-36,39-40H,5,7,9-10H2,1-4H3,(H2,31,38)/t23-,28-,29-,30+/m0/s1
Instrument: Q-Exactive Orbitrap Thermo Scientific
Instrument type: LC-ESI-ITFT
Ms type: MS2
Ion mode: NEGATIVE
Ionization: ESI
Fragmentation mode: HCD
Collision energy: 10(NCE)
Resolution: 17500
Column name: Agilent RRHD Eclipse 50 x 2 mm, 1.8 uM
Retention time: 3.95
Base peak: 564.1865
Precursor m/z: 564.188
Precursor type: [M-H]-
m/z	relative intensity	assigned
502.1871	153	
520.1959	54	
546.1769	67	
547.1609	68	
564.1865	999	
