Mass spectrum: Ergovaline; LC-ESI-ITFT; MS2; CE: 40; R=17500; [M+H]+
Name: Ergovaline
Name: 12'-hydroxy-2'-methyl-5' alpha-(1-methylethyl)-ergotaman-3',6',18-trione
Class: Natural Product; Fungal metabolite
Formula: C29H35N5O5
Exact mass: 533.26381
SMILES: CC(C)[C@H]1C(=O)N2CCC[C@H]2[C@]3(N1C(=O)[C@](O3)(C)NC(=O)[C@H]4CN([C@@H]5CC6=CNC7=CC=CC(=C67)C5=C4)C)O
InChI: InChI=1S/C29H35N5O5/c1-15(2)24-26(36)33-10-6-9-22(33)29(38)34(24)27(37)28(3,39-29)31-25(35)17-11-19-18-7-5-8-20-23(18)16(13-30-20)12-21(19)32(4)14-17/h5,7-8,11,13,15,17,21-22,24,30,38H,6,9-10,12,14H2,1-4H3,(H,31,35)/t17-,21-,22+,24+,28-,29+/m1/s1
Instrument: Q-Exactive Orbitrap Thermo Scientific
Instrument type: LC-ESI-ITFT
Ms type: MS2
Ion mode: POSITIVE
Ionization: ESI
Fragmentation mode: HCD
Collision energy: 40(NCE)
Resolution: 17500
Column name: Agilent RRHD Eclipse 50 x 2 mm, 1.8 uM
Retention time: 2.58
Base peak: 208.0758
Precursor m/z: 534.2705
Precursor type: [M+H]+
m/z	relative intensity	assigned
70.0659	46	
180.0808	132	
192.0808	50	
197.1073	70	
197.1285	42	
208.0757	999	
208.0995	60	
221.1073	47	
223.123	823	C15H15N2+
225.1022	391	C14H13N2O1+
237.1022	31	
249.1009	48	
249.1234	67	
251.1179	49	
268.1444	184	
277.0972	50	
292.1444	32	
