Mass spectrum: Tryprostatin B; LC-ESI-ITFT; MS2; CE: 30; R=17500; [M+H]+
Name: Tryprostatin B
Name: (3S,8aS)-3-[[2-(3-methylbut-2-enyl)-1H-indol-3-yl]methyl]-2,3,6,7,8,8a-hexahydropyrrolo[1,2-a]pyrazine-1,4-dione
Class: Natural Product; Fungal metabolite
Formula: C21H25N3O2
Exact mass: 351.19468
SMILES: CC(=CCC1=C(C2=CC=CC=C2N1)C[C@H]3C(=O)N4CCC[C@H]4C(=O)N3)C
InChI: InChI=1S/C21H25N3O2/c1-13(2)9-10-17-15(14-6-3-4-7-16(14)22-17)12-18-21(26)24-11-5-8-19(24)20(25)23-18/h3-4,6-7,9,18-19,22H,5,8,10-12H2,1-2H3,(H,23,25)/t18-,19-/m0/s1
Instrument: Q-Exactive Orbitrap Thermo Scientific
Instrument type: LC-ESI-ITFT
Ms type: MS2
Ion mode: POSITIVE
Ionization: ESI
Fragmentation mode: HCD
Collision energy: 30(NCE)
Resolution: 17500
Column name: Agilent RRHD Eclipse 50 x 2 mm, 1.8 uM
Retention time: 3.39
Base peak: 198.1278
Precursor m/z: 352.2014
Precursor type: [M+H]+
m/z	relative intensity	assigned
69.0707	183	
107.0491	63	
130.0651	783	
132.0808	62	C9H10N1+
144.0808	42	C10H10N1+
170.06	46	
198.1277	999	
268.1444	59	
284.1394	247	C16H18N3O2+
296.1394	341	
