Mass spectrum: Ergometrinine; LC-ESI-ITFT; MS2; CE: 40; R=17500; [M+H]+
Name: Ergometrinine
Name: Ergonovinine
Name: Ergobasinine
Name: (6aR,9S)-N-[(2S)-1-hydroxypropan-2-yl]-7-methyl-6,6a,8,9-tetrahydro-4H-indolo[4,3-fg]quinoline-9-carboxamide
Class: Natural Product; Fungal metabolite
Formula: C19H23N3O2
Exact mass: 325.17903
SMILES: C[C@@H](CO)NC(=O)[C@@H]1CN([C@@H]2CC3=CNC4=CC=CC(=C34)C2=C1)C
InChI: InChI=1S/C19H23N3O2/c1-11(10-23)21-19(24)13-6-15-14-4-3-5-16-18(14)12(8-20-16)7-17(15)22(2)9-13/h3-6,8,11,13,17,20,23H,7,9-10H2,1-2H3,(H,21,24)/t11-,13-,17+/m0/s1
Instrument: Q-Exactive Orbitrap Thermo Scientific
Instrument type: LC-ESI-ITFT
Ms type: MS2
Ion mode: POSITIVE
Ionization: ESI
Fragmentation mode: HCD
Collision energy: 40(NCE)
Resolution: 17500
Column name: Agilent RRHD Eclipse 50 x 2 mm, 1.8 uM
Retention time: 2.36
Base peak: 208.0755
Precursor m/z: 326.1858
Precursor type: [M+H]+
m/z	relative intensity	assigned
168.0808	40	
180.0808	51	
192.0808	37	
197.1073	98	
208.0757	999	
208.0995	79	
221.1073	41	
223.123	589	
251.1179	101	
265.1335	102	
283.1441	77	
311.1628	39	
326.1863	367	
