Mass spectrum: Verrucarol; LC-ESI-ITFT; MS2; CE: 20; R=17500; [M+H]+
Name: Verrucarol
Class: Natural Product; Fungal metabolite
Formula: C15H22O4
Exact mass: 266.15181
SMILES: CC1=C[C@@H]2[C@](CC1)([C@]3([C@@H](C[C@H]([C@@]34CO4)O2)O)C)CO
InChI: InChI=1S/C15H22O4/c1-9-3-4-14(7-16)11(5-9)19-12-6-10(17)13(14,2)15(12)8-18-15/h5,10-12,16-17H,3-4,6-8H2,1-2H3/t10-,11-,12-,13-,14-,15+/m1/s1
Instrument: Q-Exactive Orbitrap Thermo Scientific
Instrument type: LC-ESI-ITFT
Ms type: MS2
Ion mode: POSITIVE
Ionization: ESI
Fragmentation mode: HCD
Collision energy: 20(NCE)
Resolution: 17500
Column name: Agilent RRHD Eclipse 50 x 2 mm, 1.8 uM
Retention time: 2.52
Base peak: 249.1475
Precursor m/z: 267.1585
Precursor type: [M+H]+
m/z	relative intensity	assigned
81.0699	81	
93.0699	48	
95.0855	64	
97.0648	56	
105.0699	122	
107.0855	122	
109.0648	39	C7H9O1+
109.1012	70	
119.0855	48	
121.0648	64	
121.1012	37	C9H13+
123.0804	37	
127.0754	95	
131.0855	39	
133.1012	59	
135.0804	54	
137.0961	36	
143.0855	62	
145.1012	70	
147.1168	33	
157.1012	73	
159.1168	200	
161.0961	48	
161.1325	90	
171.1168	103	
175.1118	38	
175.1481	56	
177.1274	75	
185.1325	340	
187.1118	42	
187.1481	39	
189.1274	81	
195.1168	79	
201.1274	86	
203.1431	345	
205.1223	47	
213.1274	347	
219.138	196	
221.1536	39	
231.138	763	
237.1485	49	
249.1485	999	
267.1591	763	
