Mass spectrum: Fusaperazine A; LC-ESI-ITFT; MS2; CE: 40; R=17500; [M+H]+
Name: Fusaperazine A
Name: (3S,6S)-3-[(4-hydroxyphenyl)methyl]-3,6-bis(methylsulfanyl)piperazine-2,5-dione
Class: Natural Product; Fungal metabolite
Formula: C13H16N2O3S2
Exact mass: 312.06023
SMILES: CS[C@H]1C(=O)N[C@@](C(=O)N1)(CC2=CC=C(C=C2)O)SC
InChI: InChI=1S/C13H16N2O3S2/c1-19-11-10(17)15-13(20-2,12(18)14-11)7-8-3-5-9(16)6-4-8/h3-6,11,16H,7H2,1-2H3,(H,14,18)(H,15,17)/t11-,13-/m0/s1
Instrument: Q-Exactive Orbitrap Thermo Scientific
Instrument type: LC-ESI-ITFT
Ms type: MS2
Ion mode: POSITIVE
Ionization: ESI
Fragmentation mode: HCD
Collision energy: 40(NCE)
Resolution: 17500
Column name: Agilent RRHD Eclipse 50 x 2 mm, 1.8 uM
Retention time: 3.82
Base peak: 199.0863
Precursor m/z: 313.067
Precursor type: [M+H]+
m/z	relative intensity	assigned
59.0499	38	
172.0757	160	
184.0631	61	
199.0866	999	
213.114	33	
227.0815	592	
239.1177	123	
252.0875	409	
267.1126	358	
295.1076	70	
303.1343	73	
