Mass spectrum: Sambucinol; LC-ESI-ITFT; MS2; CE: 40; R=17500; [M+H]+
Name: Sambucinol
Class: Natural Product; Fungal metabolite
Formula: C15H22O4
Exact mass: 266.15181
SMILES: CC1=C[C@]23[C@](CC1)([C@]4(C[C@@H]([C@H]([C@]4(O2)CO)O3)O)C)C
InChI: InChI=1S/C15H22O4/c1-9-4-5-12(2)13(3)7-10(17)11-14(13,8-16)19-15(12,6-9)18-11/h6,10-11,16-17H,4-5,7-8H2,1-3H3/t10-,11+,12+,13+,14+,15+/m0/s1
Instrument: Q-Exactive Orbitrap Thermo Scientific
Instrument type: LC-ESI-ITFT
Ms type: MS2
Ion mode: POSITIVE
Ionization: ESI
Fragmentation mode: HCD
Collision energy: 40(NCE)
Resolution: 17500
Column name: Agilent RRHD Eclipse 50 x 2 mm, 1.8 uM
Retention time: 2.91
Base peak: 95.0865
Precursor m/z: 267.1585
Precursor type: [M+H]+
m/z	relative intensity	assigned
79.0552	65	
81.0709	314	
91.0542	35	
93.0699	41	
95.0865	999	
97.0648	465	
107.0855	134	
109.0648	215	
119.0855	40	
121.1012	41	
123.0804	515	
124.0883	215	
125.0597	92	
135.0804	58	
145.1012	36	
159.1168	134	
171.1168	37	C13H15+
185.1325	43	
231.138	44	
249.1485	176	
267.1591	294	
