Mass spectrum: Atranone B; LC-ESI-ITFT; MS2; CE: 20; R=17500; [M+H]+
Name: Atranone B
Class: Natural Product; Fungal metabolite
Formula: C25H34O7
Exact mass: 446.23045
SMILES: C/C1=C2[C@H]3[C@H]([C@@](C)(O)O[C@H]3/C(C)=C\C[C@H]4C(C(C)C)=C(OC)C(O[C@]4(C)CC1)=O)C(O/2)=O
InChI: InChI=1S/C25H34O7/c1-12(2)16-15-9-8-13(3)20-17-18(25(6,28)31-20)22(26)30-19(17)14(4)10-11-24(15,5)32-23(27)21(16)29-7/h8,12,15,17-18,20,28H,9-11H2,1-7H3/b13-8-,19-14+/t15-,17+,18-,20-,24+,25-/m0/s1
Instrument: Q-Exactive Orbitrap Thermo Scientific
Instrument type: LC-ESI-ITFT
Ms type: MS2
Ion mode: POSITIVE
Ionization: ESI
Fragmentation mode: HCD
Collision energy: 20(NCE)
Resolution: 17500
Column name: Agilent RRHD Eclipse 50 x 2 mm, 1.8 uM
Retention time: 4.05
Base peak: 195.1007
Precursor m/z: 447.2372
Precursor type: [M+H]+
m/z	relative intensity	assigned
73.0648	41	
83.0491	54	
93.0699	35	
95.0855	92	
99.0804	34	C6H11O1+
107.0855	87	C8H11+
109.0648	54	C7H9O1+
109.1012	35	
111.0804	37	
119.0855	72	
121.0648	86	
121.1012	49	
123.0804	49	
125.0597	41	
125.0961	36	
127.0754	40	
133.1012	52	
135.0804	81	
135.1168	37	
137.0961	39	
139.0754	49	
145.1012	87	
147.0804	57	
147.1168	51	
149.0597	88	
149.0961	62	
151.0754	46	
151.1118	34	
153.0546	86	
153.091	65	
155.0703	200	
155.1067	43	
157.0859	127	
157.1012	39	
159.1168	111	
161.0961	85	
161.1325	51	
163.0754	153	
163.1118	61	
165.091	85	
167.0703	177	
167.1067	184	
169.0859	152	
171.1168	45	
173.0597	33	
173.0961	97	
173.1325	39	
175.0754	55	
175.1118	59	
177.091	56	
177.1274	48	
179.0703	241	
179.1067	56	
181.0859	299	
181.1199	33	
183.1016	89	
185.0961	51	
185.1325	79	
187.1118	95	
187.1481	34	
189.091	141	
189.1274	67	
191.0703	169	
191.1067	135	
193.0859	61	
193.1223	50	
195.1016	999	
197.1172	189	
197.1325	32	
199.1118	52	
201.091	54	
201.1274	82	
203.1067	81	
203.1431	94	
205.1223	314	
207.1016	86	
207.138	39	
209.1172	111	
211.1118	31	
213.091	42	
213.1274	91	
215.1067	56	
215.1431	81	
216.1145	76	
217.1223	73	
219.1016	44	
219.138	101	
221.1172	69	
221.1536	88	
223.1329	223	
225.1274	48	
227.1067	71	
227.1431	31	
229.1223	113	
231.1016	33	
231.138	121	
233.1536	42	
235.1329	68	
235.1693	76	
237.1485	244	
241.1223	46	
243.138	47	
245.1536	121	
247.1693	95	
249.1434	47	
253.1223	40	
255.138	54	
263.1642	135	
267.1339	34	
267.1744	38	
273.1485	37	
285.1516	39	
285.1802	44	
291.1744	44	
293.19	32	
295.1329	45	
295.1693	60	
299.2006	35	
307.2057	31	
309.1849	138	
311.2006	53	
313.1434	35	
313.1798	67	
319.1693	61	
323.2006	58	
325.2162	61	
327.1955	156	
333.1849	75	
335.2006	70	
337.1798	119	
341.1747	55	
341.2111	94	
343.2268	43	
345.206	154	
351.1955	157	
353.2111	41	
355.1904	79	
359.2217	87	
361.1798	62	
363.1802	78	
365.2111	47	
367.2268	126	
369.206	310	
371.2217	36	
373.201	33	
375.1955	33	
379.1904	98	
383.2217	103	
385.2374	128	
387.2166	487	
393.206	185	
397.201	121	
401.2323	122	
403.2479	91	
405.2272	43	
411.2166	426	
419.2428	58	
429.2272	645	
447.2377	159	
