Mass spectrum: Deoxynivalenol-3-glucoside; LC-APCI-ITFT; MS2; CE: 55; R=17500; [M+H]+
Name: Deoxynivalenol-3-glucoside
Name: (3alpha,7beta,12epsilon)-7,15-Dihydroxy-8-oxo-12,13-epoxytrichothec-9-en-3-yl beta-D-glucopyranoside
Class: Natural Product; Fungal metabolite
Formula: C21H30O11
Exact mass: 458.17879
SMILES: CC1=C[C@@H]2[C@]([C@@H](C1=O)O)([C@]3(C[C@H]([C@H]([C@@]34CO4)O2)O[C@H]5[C@@H]([C@H]([C@@H]([C@H](O5)CO)O)O)O)C)CO
InChI: InChI=1S/C21H30O11/c1-8-3-11-20(6-23,16(28)12(8)24)19(2)4-9(17(32-11)21(19)7-29-21)30-18-15(27)14(26)13(25)10(5-22)31-18/h3,9-11,13-18,22-23,25-28H,4-7H2,1-2H3/t9-,10-,11-,13-,14+,15-,16-,17-,18-,19-,20-,21+/m1/s1
Instrument: Q-Exactive Orbitrap Thermo Scientific
Instrument type: LC-APCI-ITFT
Ms type: MS2
Ion mode: POSITIVE
Ionization: APCI
Fragmentation mode: HCD
Collision energy: 55(NCE)
Resolution: 17500
Column name: Agilent RRHD Eclipse 50 x 2 mm, 1.8 uM
Retention time: 2.2
Base peak: 175.0751
Precursor m/z: 459.1855
Precursor type: [M+H]+
m/z	relative intensity	assigned
54.2819	38	
55.0188	102	
57.0344	60	
67.055	80	
67.2796	37	
69.0343	638	
71.0502	49	
79.0542	336	
81.0335	165	
81.0708	364	
83.0491	98	
85.0293	671	
91.0542	279	
93.0699	236	
95.0491	216	
95.0855	68	
97.0284	84	
97.0648	311	
105.0699	317	
107.0491	268	
109.0284	106	
109.0648	455	
111.2961	43	
116.696	39	
117.0699	100	
119.0491	57	
119.0855	273	
121.0648	367	
123.0441	97	
124.0519	40	
125.0597	445	
128.0635	51	
129.0699	94	
131.0855	277	
133.0648	78	C9H9O1+
133.1012	67	C10H13+
135.0804	97	
137.0597	787	
141.0699	59	
142.0777	292	
143.0855	165	
145.0648	86	
145.1012	213	
146.0726	60	
147.0804	286	C10H11O1+
149.0961	92	
151.0754	53	
154.0777	62	
155.0855	57	
157.1012	320	C12H13+
159.0804	351	
159.1168	65	C12H15+
161.0597	462	
161.0961	368	
162.0675	58	
163.0754	81	
165.091	70	
167.0855	46	
169.1012	46	
170.0726	72	
171.0804	163	
173.0961	291	
174.0675	62	
175.0754	999	
175.1118	92	
177.091	274	
185.0961	290	
187.0754	70	
188.0832	87	
189.091	621	
198.0675	223	
201.091	157	
203.1067	211	
213.091	218	
231.1016	215	
292.3377	47	
