Mass spectrum: Ctrinin hydrate; LC-ESI-ITFT; MS2; CE: 20; R=17500; [M-H]-
Name: Ctrinin hydrate
Name: (1S,3R,4S)-1,6,8-trihydroxy-3,4,5-trimethyl-3,4-dihydro-1H-isochromene-7-carboxylic acid
Class: Natural Product; Fungal metabolite
Formula: C13H16O6
Exact mass: 268.09468
SMILES: C[C@@H]1[C@H](O[C@@H](C2=C1C(=C(C(=C2O)C(=O)O)O)C)O)C
InChI: InChI=1S/C13H16O6/c1-4-6(3)19-13(18)8-7(4)5(2)10(14)9(11(8)15)12(16)17/h4,6,13-15,18H,1-3H3,(H,16,17)/t4-,6-,13+/m1/s1
Instrument: Q-Exactive Orbitrap Thermo Scientific
Instrument type: LC-ESI-ITFT
Ms type: MS2
Ion mode: NEGATIVE
Ionization: ESI
Fragmentation mode: HCD
Collision energy: 20(NCE)
Resolution: 17500
Column name: Agilent RRHD Eclipse 50 x 2 mm, 1.8 uM
Retention time: 3.43
Base peak: 267.0868
Precursor m/z: 267.0879
Precursor type: [M-H]-
m/z	relative intensity	assigned
223.0612	60	
249.0768	175	
267.0868	999	
