Mass spectrum: T-2 tetraol; LC-ESI-ITFT; MS2; CE: 35; R=17500; [M+H]+
Name: T-2 tetraol
Name: T-2 toxin tetraol
Name: 3-alpha,4-beta,8-alpha,15-Tetrahydroxy-12,13-epoxytrichothec-9-ene
Class: Natural Product; Fungal metabolite
Formula: C15H22O6
Exact mass: 298.14163
SMILES: CC1=C[C@@H]2[C@](C[C@@H]1O)([C@]3([C@@H]([C@H]([C@H](C34CO4)O2)O)O)C)CO
InChI: InChI=1S/C15H22O6/c1-7-3-9-14(5-16,4-8(7)17)13(2)11(19)10(18)12(21-9)15(13)6-20-15/h3,8-12,16-19H,4-6H2,1-2H3/t8-,9+,10+,11+,12+,13+,14+,15?/m0/s1
Instrument: Q-Exactive Orbitrap Thermo Scientific
Instrument type: LC-ESI-ITFT
Ms type: MS2
Ion mode: POSITIVE
Ionization: ESI
Fragmentation mode: HCD
Collision energy: 35(NCE)
Resolution: 17500
Column name: Agilent RRHD Eclipse 50 x 2 mm, 1.8 uM
Retention time: 2.26
Base peak: 121.0646
Precursor m/z: 299.1484
Precursor type: [M+H]+
m/z	relative intensity	assigned
54.6811	135	
65.5131	120	
68.6955	137	
82.7545	125	
95.0491	201	
97.0648	670	
105.0699	360	
107.0855	209	
109.0648	243	
118.7935	152	
121.0648	999	
124.3814	147	
131.0855	174	
142.3918	134	
145.1012	596	
149.0961	325	
161.0961	316	
163.1118	266	
171.1168	224	
173.0961	286	
175.1118	269	
185.0961	177	
187.1118	179	
191.1067	721	
199.1118	199	
203.1067	330	
215.1067	158	
227.1092	187	
245.1172	181	C15H17O3+
263.1278	266	
