Mass spectrum: Herqueichrysin; LC-ESI-ITFT; MS2; CE: 20; R=17500; [M+H]+
Name: Herqueichrysin
Class: Natural Product; Fungal metabolite
Formula: C20H20O6
Exact mass: 356.12598
SMILES: CC1C(C2=C(O1)C3=C4C(=C2O)C(=CC(=O)C4=C(C(=C3O)O)OC)C)(C)C
InChI: InChI=1S/C20H20O6/c1-7-6-9(21)11-12-10(7)15(22)14-18(26-8(2)20(14,3)4)13(12)16(23)17(24)19(11)25-5/h6,8,22-24H,1-5H3
Instrument: Q-Exactive Orbitrap Thermo Scientific
Instrument type: LC-ESI-ITFT
Ms type: MS2
Ion mode: POSITIVE
Ionization: ESI
Fragmentation mode: HCD
Collision energy: 20(NCE)
Resolution: 17500
Column name: Agilent RRHD Eclipse 50 x 2 mm, 1.8 uM
Retention time: 4.35
Base peak: 357.1342
Precursor m/z: 357.1327
Precursor type: [M+H]+
m/z	relative intensity	assigned
357.1333	999	
