Mass spectrum: Alternaric acid; LC-ESI-ITFT; MS2; CE: 30; R=17500; [M+Na]+
Name: Alternaric acid
Name: (E,2S)-2-hydroxy-2-[(1R,2S)-1-hydroxy-2-methylbutyl]-9-[(6R)-6-methyl-2,4-dioxooxan-3-yl]-6-methylidene-9-oxonon-3-enoic acid
Class: Natural Product; Fungal metabolite
Formula: C21H30O8
Exact mass: 410.19406
SMILES: CC[C@H](C)[C@H]([C@@](/C=C/CC(=C)CCC(=O)C1C(=O)C[C@H](OC1=O)C)(C(=O)O)O)O
InChI: InChI=1S/C21H30O8/c1-5-13(3)18(24)21(28,20(26)27)10-6-7-12(2)8-9-15(22)17-16(23)11-14(4)29-19(17)25/h6,10,13-14,17-18,24,28H,2,5,7-9,11H2,1,3-4H3,(H,26,27)/b10-6+/t13-,14+,17?,18+,21-/m0/s1
Instrument: Q-Exactive Orbitrap Thermo Scientific
Instrument type: LC-ESI-ITFT
Ms type: MS2
Ion mode: POSITIVE
Ionization: ESI
Fragmentation mode: HCD
Collision energy: 30(NCE)
Resolution: 17500
Column name: Agilent RRHD Eclipse 50 x 2 mm, 1.8 uM
Retention time: 3.51
Base peak: 371.1845
Precursor m/z: 433.1827
Precursor type: [M+Na]+
m/z	relative intensity	assigned
151.0366	46	
285.1485	153	
329.0996	39	
329.1384	173	
353.1723	188	
371.1829	999	
397.1622	94	
415.1727	647	
433.1833	35	
