Mass spectrum: Chaetoviridin A; LC-ESI-ITFT; MS2; CE: 30; R=17500; [M+H]+
Name: Chaetoviridin A
Name: (6aS)-5-chloro-9-[(2S,3R)-3-hydroxy-2-methylbutanoyl]-6a-methyl-3-[(E,3S)-3-methylpent-1-enyl]furo[2,3-h]isochromene-6,8-dione
Class: Natural Product; Fungal metabolite
Formula: C23H25ClO6
Exact mass: 432.13396
SMILES: CC[C@H](C)/C=C/C1=CC2=C(C(=O)[C@@]3(C(=C(C(=O)O3)C(=O)[C@@H](C)[C@@H](C)O)C2=CO1)C)Cl
InChI: InChI=1S/C23H25ClO6/c1-6-11(2)7-8-14-9-15-16(10-29-14)18-17(20(26)12(3)13(4)25)22(28)30-23(18,5)21(27)19(15)24/h7-13,25H,6H2,1-5H3/b8-7+/t11-,12-,13+,23-/m0/s1
Instrument: Q-Exactive Orbitrap Thermo Scientific
Instrument type: LC-ESI-ITFT
Ms type: MS2
Ion mode: POSITIVE
Ionization: ESI
Fragmentation mode: HCD
Collision energy: 30(NCE)
Resolution: 17500
Column name: Agilent RRHD Eclipse 50 x 2 mm, 1.8 uM
Retention time: 4.21
Base peak: 333.0874
Precursor m/z: 433.1407
Precursor type: [M+H]+
m/z	relative intensity	assigned
55.055	94	
69.0699	64	
81.0699	44	
83.0491	335	
101.0597	31	C5H9O2+
111.0804	38	
163.0754	34	
195.0207	263	
207.0207	42	
225.0313	66	
229.0262	189	
235.0156	32	
249.0313	31	
253.0626	102	
263.0469	46	
263.0833	147	
275.0106	39	
287.0833	79	
305.0939	170	
331.0732	38	
333.0888	999	
359.0681	290	
387.1358	48	
415.1307	70	
433.1412	49	
