Mass spectrum: Brevianamide A; LC-ESI-ITFT; MS2; CE: 20; R=17500; [M+H]+
Name: Brevianamide A
Name: (1R,3S,5R,7R)-4,4-Dimethyl-13H-spiro[9,14-diazatetracyclo[5.5.2.01,9.03,7]tetradecane-5,2'-indole]-3',8,13(1'H)-trione
Class: Natural Product; Fungal metabolite
Formula: C21H23N3O3
Exact mass: 365.17394
SMILES: CC1([C@@H]2C[C@@]34CCCN3C(=O)[C@]2(C[C@]15C(=O)C6=CC=CC=C6N5)NC4=O)C
InChI: InChI=1S/C21H23N3O3/c1-18(2)14-10-19-8-5-9-24(19)17(27)20(14,23-16(19)26)11-21(18)15(25)12-6-3-4-7-13(12)22-21/h3-4,6-7,14,22H,5,8-11H2,1-2H3,(H,23,26)/t14-,19+,20+,21-/m0/s1
Instrument: Q-Exactive Orbitrap Thermo Scientific
Instrument type: LC-ESI-ITFT
Ms type: MS2
Ion mode: POSITIVE
Ionization: ESI
Fragmentation mode: HCD
Collision energy: 20(NCE)
Resolution: 17500
Column name: Agilent RRHD Eclipse 50 x 2 mm, 1.8 uM
Retention time: 2.92
Base peak: 366.1789
Precursor m/z: 366.1807
Precursor type: [M+H]+
m/z	relative intensity	assigned
176.107	146	
235.1441	389	
280.108	68	
298.1186	47	
303.1492	51	
310.1914	146	
320.1757	42	
321.1598	789	
338.1863	681	
348.1707	260	
366.1812	999	
