Mass spectrum: T-2 Toxin; LC-ESI-ITFT; MS2; CE: 20; R=17500; [M+H]+
Name: T-2 Toxin
Name: Fusariotoxin T 2
Name: Insariotoxin
Name: T-2 mycotoxin
Name: (2alpha,3alpha,4beta,8alpha)-4,15-bis(acetyloxy)-3-hydroxy-12,13-epoxytrichothec-9-en-8-yl 3-methylbutanoate
Class: Natural Product; Fungal metabolite
Formula: C24H34O9
Exact mass: 466.22027
SMILES: CC1=C[C@@H]2[C@](C[C@@H]1OC(=O)CC(C)C)([C@]3([C@@H]([C@H]([C@H]([C@@]34CO4)O2)O)OC(=O)C)C)COC(=O)C
InChI: InChI=1S/C24H34O9/c1-12(2)7-18(27)32-16-9-23(10-29-14(4)25)17(8-13(16)3)33-21-19(28)20(31-15(5)26)22(23,6)24(21)11-30-24/h8,12,16-17,19-21,28H,7,9-11H2,1-6H3/t16-,17+,19+,20+,21+,22+,23+,24-/m0/s1
Instrument: Q-Exactive Orbitrap Thermo Scientific
Instrument type: LC-ESI-ITFT
Ms type: MS2
Ion mode: POSITIVE
Ionization: ESI
Fragmentation mode: HCD
Collision energy: 20(NCE)
Resolution: 17500
Column name: Agilent RRHD Eclipse 50 x 2 mm, 1.8 uM
Retention time: 3.56
Base peak: 245.1162
Precursor m/z: 467.227
Precursor type: [M+H]+
m/z	relative intensity	assigned
57.0705	201	
85.0648	633	
93.0699	48	
95.0491	56	
97.0648	32	
105.0699	188	C8H9+
107.0491	57	
109.0648	44	
121.0648	348	
123.0441	67	
123.0804	50	
125.0597	158	
133.1012	35	
137.0597	47	
141.0546	40	
143.0855	97	
145.1012	72	
157.1012	193	
159.0804	53	
159.1168	76	
161.0961	53	
167.0703	33	
169.1012	234	
171.1168	229	
173.0961	190	
175.1118	57	
181.1012	110	
183.1168	34	
185.0961	580	
187.1118	212	
189.1274	49	
191.1067	79	
197.0961	398	
199.1118	513	
203.1067	208	
205.1223	42	
209.0961	117	
215.1067	706	
217.1223	410	
227.1067	604	
233.1172	215	
235.1329	73	
245.1172	999	
257.1172	57	
262.9224	36	
263.1278	503	
275.1278	84	
277.1434	61	
287.1278	240	
305.1384	592	
323.1489	174	
329.1747	32	
341.1595	45	
347.1489	48	
365.1595	127	
389.1959	54	
407.2064	163	
449.217	64	
467.2276	105	C24H35O9+
