Mass spectrum: AAL toxin TB; LC-ESI-ITFT; MS2; CE: 30; R=17500; [M+H]+
Name: AAL toxin TB
Name: 2-[2-[(3R,4R,5S,7S,14R,16S)-17-amino-4,14,16-trihydroxy-3,7-dimethylheptadecan-5-yl]oxy-2-oxoethyl]butanedioic acid
Class: Natural Product; Fungal metabolite
Formula: C25H47NO9
Exact mass: 505.32508
SMILES: CC[C@@H](C)[C@H]([C@H](C[C@@H](C)CCCCCC[C@H](C[C@@H](CN)O)O)OC(=O)CC(CC(=O)O)C(=O)O)O
InChI: InChI=1S/C25H47NO9/c1-4-17(3)24(32)21(35-23(31)13-18(25(33)34)12-22(29)30)11-16(2)9-7-5-6-8-10-19(27)14-20(28)15-26/h16-21,24,27-28,32H,4-15,26H2,1-3H3,(H,29,30)(H,33,34)/t16-,17+,18?,19+,20-,21-,24+/m0/s1
Instrument: Q-Exactive Orbitrap Thermo Scientific
Instrument type: LC-ESI-ITFT
Ms type: MS2
Ion mode: POSITIVE
Ionization: ESI
Fragmentation mode: HCD
Collision energy: 30(NCE)
Resolution: 17500
Column name: Agilent RRHD Eclipse 50 x 2 mm, 1.8 uM
Retention time: 2.69
Base peak: 294.2779
Precursor m/z: 506.3318
Precursor type: [M+H]+
m/z	relative intensity	assigned
56.0502	42	
57.0706	49	
60.045	98	
69.0699	35	
81.0699	110	
83.0855	69	
95.0855	130	
97.1012	46	C7H13+
107.0855	45	C8H11+
109.1012	91	
121.1012	63	
123.1168	69	
135.1168	40	
159.0288	160	
163.1481	33	
224.2009	66	
242.2115	74	
276.2686	154	
294.2792	999	
312.287	779	
330.2976	69	
488.3218	65	
506.3324	50	
