Mass spectrum: Neoxaline; LC-ESI-ITFT; MS2; CE: 55; R=17500; [M+H]+
Name: Neoxaline
Name: (3E,7aS,12aR)-6-Hydroxy-3-(1H-imidazol-4-ylmethylene)-12-methoxy-7a-(2-methyl-3-buten-2-yl)-6,7,7a,12-tetrahydro-1H,5H-imidazo[1',2':1,2]pyrido[2,3-b]indole-2,5(3H)-dione
Class: Natural Product; Fungal metabolite
Formula: C23H25N5O4
Exact mass: 435.19064
SMILES: C=CC(C)(C)[C@]12C[C@@H](C(=O)N3/C(=C/c4cnc[nH]4)/C(=N[C@@]23N(c2ccccc12)OC)O)O
InChI: InChI=1S/C23H25N5O4/c1-5-21(2,3)22-11-18(29)20(31)27-17(10-14-12-24-13-25-14)19(30)26-23(22,27)28(32-4)16-9-7-6-8-15(16)22/h5-10,12-13,18,29H,1,11H2,2-4H3,(H,24,25)(H,26,30)/b17-10+/t18-,22-,23-/m0/s1
Instrument: Q-Exactive Orbitrap Thermo Scientific
Instrument type: LC-ESI-ITFT
Ms type: MS2
Ion mode: POSITIVE
Ionization: ESI
Fragmentation mode: HCD
Collision energy: 55(NCE)
Resolution: 17500
Column name: Agilent RRHD Eclipse 50 x 2 mm, 1.8 uM
Retention time: 2.68
Base peak: 262.0808
Precursor m/z: 436.1974
Precursor type: [M+H]+
m/z	relative intensity	assigned
81.0447	77	
106.04	42	
107.0491	104	
108.057	110	C7H8O1+
109.0595	51	
119.024	36	
162.0298	36	
163.0336	33	
163.0614	49	
166.0975	88	
207.0764	31	
233.0822	34	
234.0662	36	
234.0887	100	
235.07	69	C9H9N5O3+
235.0951	115	
236.0747	46	
236.0992	112	
237.1022	36	
261.0771	590	
262.0822	999	
263.0855	938	
264.0934	144	
265.1012	91	
278.0726	39	
278.1036	32	
279.0791	44	
279.1088	58	
280.1094	55	
289.072	55	
290.0726	128	
291.0791	192	
294.0747	44	
295.0754	84	
296.0818	81	
