Mass spectrum: Fumonisin B2; LC-ESI-ITFT; MS2; CE: 35; R=17500; [M+H]+
Name: Fumonisin B2
Class: Natural Product; Fungal metabolite
Formula: C34H59NO14
Exact mass: 705.39354
SMILES: CCCC[C@@H](C)[C@H]([C@H](C[C@@H](C)CCCCCC[C@H](C[C@@H]([C@H](C)N)O)O)OC(=O)C[C@@H](CC(=O)O)C(=O)O)OC(=O)C[C@@H](CC(=O)O)C(=O)O
InChI: InChI=1S/C34H59NO14/c1-5-6-12-21(3)32(49-31(43)18-24(34(46)47)16-29(40)41)27(48-30(42)17-23(33(44)45)15-28(38)39)14-20(2)11-9-7-8-10-13-25(36)19-26(37)22(4)35/h20-27,32,36-37H,5-19,35H2,1-4H3,(H,38,39)(H,40,41)(H,44,45)(H,46,47)/t20-,21+,22-,23+,24+,25+,26-,27-,32+/m0/s1
Instrument: Q-Exactive Orbitrap Thermo Scientific
Instrument type: LC-ESI-ITFT
Ms type: MS2
Ion mode: POSITIVE
Ionization: ESI
Fragmentation mode: HCD
Collision energy: 35(NCE)
Resolution: 17500
Column name: Agilent RRHD Eclipse 50 x 2 mm, 1.8 uM
Retention time: 2.88
Base peak: 336.3243
Precursor m/z: 706.4003
Precursor type: [M+H]+
m/z	relative intensity	assigned
57.0705	53	
67.0542	61	
69.0699	271	
70.0651	139	
74.06	369	
81.0699	211	
83.0855	100	
85.1012	81	
93.0699	72	
95.0855	258	
97.1012	85	
107.0855	87	
109.1012	184	
111.1168	59	
113.0233	34	
121.1012	80	
123.1168	92	
133.1012	34	
135.1168	78	
137.1325	37	
141.0182	47	
147.1168	41	
149.1325	63	
159.0288	231	
208.206	39	
220.206	45	
238.2166	54	
318.3129	709	
336.3234	999	
354.334	173	
