Mass spectrum: Roquefortine L; LC-ESI-ITFT; MS2; CE: 10; R=17500; [M+H]+
Name: Roquefortine L
Name: (3E,10bR,11aS)-3-(1H-Imidazol-5-ylmethylene)-10b-(2-methyl-3-buten-2-yl)-11,11a-dihydro-2H-pyrazino[1',2':1,5]pyrrolo[2,3-b]indole-1,4(3H,10bH)-dione 6-oxide
Class: Natural Product; Fungal metabolite
Formula: C22H21N5O3
Exact mass: 403.16443
SMILES: CC(C)(C=C)C12CC3C(=O)N/C(=C/C4=CN=CN4)/C(=O)N3C1=[N+](C5=CC=CC=C25)[O-]
InChI: InChI=1S/C22H21N5O3/c1-4-21(2,3)22-10-17-18(28)25-15(9-13-11-23-12-24-13)19(29)26(17)20(22)27(30)16-8-6-5-7-14(16)22/h4-9,11-12,17H,1,10H2,2-3H3,(H,23,24)(H,25,28)/b15-9+
Instrument: Q-Exactive Orbitrap Thermo Scientific
Instrument type: LC-ESI-ITFT
Ms type: MS2
Ion mode: POSITIVE
Ionization: ESI
Fragmentation mode: HCD
Collision energy: 10(NCE)
Resolution: 17500
Column name: Agilent RRHD Eclipse 50 x 2 mm, 1.8 uM
Retention time: 2.5
Base peak: 404.172
Precursor m/z: 404.1712
Precursor type: [M+H]+
m/z	relative intensity	assigned
162.0298	47	
191.0563	83	
205.072	73	
214.1226	102	
252.1019	47	
319.1077	194	
320.1142	33	
334.0934	89	
336.1091	243	
348.1091	32	C18H14N5O3+
386.1611	33	
387.169	53	
404.1717	999	
