Mass spectrum: Ergotamine; LC-ESI-ITFT; MS2; CE: 55; R=17500; [M+H]+
Name: Ergotamine
Name: Ergotamin
Name: ergotaminum
Name: 12'-Hydroxy-2'-methyl-5'alpha-(phenylmethyl)ergotaman-3',6',18-trione
Class: Natural Product; Fungal metabolite
Formula: C33H35N5O5
Exact mass: 581.26381
SMILES: C[C@@]1(C(=O)N2[C@H](C(=O)N3CCC[C@H]3[C@@]2(O1)O)CC4=CC=CC=C4)NC(=O)[C@H]5CN([C@@H]6CC7=CNC8=CC=CC(=C78)C6=C5)C
InChI: InChI=1S/C33H35N5O5/c1-32(35-29(39)21-15-23-22-10-6-11-24-28(22)20(17-34-24)16-25(23)36(2)18-21)31(41)38-26(14-19-8-4-3-5-9-19)30(40)37-13-7-12-27(37)33(38,42)43-32/h3-6,8-11,15,17,21,25-27,34,42H,7,12-14,16,18H2,1-2H3,(H,35,39)/t21-,25-,26+,27+,32-,33+/m1/s1
Instrument: Q-Exactive Orbitrap Thermo Scientific
Instrument type: LC-ESI-ITFT
Ms type: MS2
Ion mode: POSITIVE
Ionization: ESI
Fragmentation mode: HCD
Collision energy: 55(NCE)
Resolution: 17500
Column name: Agilent RRHD Eclipse 50 x 2 mm, 1.8 uM
Retention time: 2.7
Base peak: 208.0757
Precursor m/z: 582.2705
Precursor type: [M+H]+
m/z	relative intensity	assigned
70.0659	88	
120.0808	80	
167.073	39	
180.0808	395	
182.0964	47	
190.0651	40	C14H8N1+
191.073	162	
192.0808	183	
194.0964	50	
197.1073	42	C13H13N2+
207.0679	195	C14H9N1O1+
207.0917	111	
208.0757	999	C14H10N1O1+
208.0995	192	
221.1073	139	C15H13N2+
223.123	391	
225.1022	80	C14H13N2O1+
