Mass spectrum: Averufin; LC-ESI-ITFT; MS2; CE: 10; R=17500; [M+H]+
Name: Averufin
Name: Averufine
Class: Natural Product; Fungal metabolite
Formula: C20H16O7
Exact mass: 368.08959
SMILES: C[C@]12CCC[C@H](O1)C3=C(O2)C=C4C(=C3O)C(=O)C5=C(C=C(C=C5C4=O)O)O
InChI: InChI=1S/C20H16O7/c1-20-4-2-3-12(26-20)16-13(27-20)7-10-15(19(16)25)18(24)14-9(17(10)23)5-8(21)6-11(14)22/h5-7,12,21-22,25H,2-4H2,1H3/t12-,20-/m0/s1
Instrument: Q-Exactive Orbitrap Thermo Scientific
Instrument type: LC-ESI-ITFT
Ms type: MS2
Ion mode: POSITIVE
Ionization: ESI
Fragmentation mode: HCD
Collision energy: 10(NCE)
Resolution: 17500
Column name: Agilent RRHD Eclipse 50 x 2 mm, 1.8 uM
Retention time: 4.27
Base peak: 369.0962
Precursor m/z: 369.0963
Precursor type: [M+H]+
m/z	relative intensity	assigned
285.0393	82	
299.055	105	
311.055	311	
327.0863	55	
351.0863	131	
369.0969	999	
