Mass spectrum: Tenuazonic acid; LC-ESI-ITFT; MS2; CE: 20; R=17500; [M+H]+
Name: Tenuazonic acid
Name: (2S)-4-acetyl-2-[(2S)-butan-2-yl]-3-hydroxy-1,2-dihydropyrrol-5-one
Class: Natural Product; Fungal metabolite
Formula: C10H15NO3
Exact mass: 197.10519
SMILES: CC[C@H](C)[C@H]1C(=C(C(=O)N1)C(=O)C)O
InChI: InChI=1S/C10H15NO3/c1-4-5(2)8-9(13)7(6(3)12)10(14)11-8/h5,8,13H,4H2,1-3H3,(H,11,14)/t5-,8-/m0/s1
Instrument: Q-Exactive Orbitrap Thermo Scientific
Instrument type: LC-ESI-ITFT
Ms type: MS2
Ion mode: POSITIVE
Ionization: ESI
Fragmentation mode: HCD
Collision energy: 20(NCE)
Resolution: 17500
Column name: Agilent RRHD Eclipse 50 x 2 mm, 1.8 uM
Retention time: 3.16
Base peak: 198.1134
Precursor m/z: 198.1119
Precursor type: [M+H]+
m/z	relative intensity	assigned
83.0865	70	
97.1012	54	
114.0913	36	
153.091	63	
163.1485	131	
181.0859	48	
181.1591	108	
198.1125	457	
