Mass spectrum: Alantrypinone; LC-ESI-ITFT; MS2; CE: 30; R=17500; [M+Na]+
Name: Alantrypinone
Name: (1'S,3S,12'S)-12'-Methyl-3'H,15'H-spiro[indole-3,13'-[2,10,16]triazatetracyclo[10.2.2.02,11.04,9]hexadeca[4,6,8,10]tetraene]-2,3',15'(1H)-trione
Class: Natural Product; Fungal metabolite
Formula: C21H16N4O3
Exact mass: 372.12223
SMILES: C[C@]12C3=NC4=CC=CC=C4C(=O)N3[C@H](C[C@@]15C6=CC=CC=C6NC5=O)C(=O)N2
InChI: InChI=1S/C21H16N4O3/c1-20-18-22-13-8-4-2-6-11(13)17(27)25(18)15(16(26)24-20)10-21(20)12-7-3-5-9-14(12)23-19(21)28/h2-9,15H,10H2,1H3,(H,23,28)(H,24,26)/t15-,20+,21+/m1/s1
Instrument: Q-Exactive Orbitrap Thermo Scientific
Instrument type: LC-ESI-ITFT
Ms type: MS2
Ion mode: POSITIVE
Ionization: ESI
Fragmentation mode: HCD
Collision energy: 30(NCE)
Resolution: 17500
Column name: Agilent RRHD Eclipse 50 x 2 mm, 1.8 uM
Retention time: 2.74
Base peak: 250.0595
Precursor m/z: 395.1109
Precursor type: [M+Na]+
m/z	relative intensity	assigned
50.0571	36	
63.5181	38	
65.3046	36	
68.5693	38	
73.2315	39	
84.8343	48	
84.9605	50	
106.8584	44	
111.6836	43	
127.1776	42	
130.5009	52	
153.5867	43	
250.06	999	
331.0376	52	
395.1115	726	
