Mass spectrum: Aflatoxin B1; LC-ESI-ITFT; MS2; CE: 35; R=17500; [M+H]+
Name: Aflatoxin B1
Name: (6aR,9aS)-4-Methoxy-2,3,6a,9a-tetrahydrocyclopenta[c]furo[3',2':4,5]furo[2,3-h]chromene-1,11-dione
Class: Natural Product; Fungal metabolite
Formula: C17H12O6
Exact mass: 312.06337
SMILES: COC1=C2C3=C(C(=O)CC3)C(=O)OC2=C4[C@@H]5C=CO[C@@H]5OC4=C1
InChI: InChI=1S/C17H12O6/c1-20-10-6-11-14(8-4-5-21-17(8)22-11)15-13(10)7-2-3-9(18)12(7)16(19)23-15/h4-6,8,17H,2-3H2,1H3/t8-,17+/m0/s1
Instrument: Q-Exactive Orbitrap Thermo Scientific
Instrument type: LC-ESI-ITFT
Ms type: MS2
Ion mode: POSITIVE
Ionization: ESI
Fragmentation mode: HCD
Collision energy: 35(NCE)
Resolution: 17500
Column name: Agilent RRHD Eclipse 50 x 2 mm, 1.8 uM
Retention time: 3.1
Base peak: 313.0691
Precursor m/z: 313.0701
Precursor type: [M+H]+
m/z	relative intensity	assigned
257.0808	52	
270.0523	68	
284.0679	96	
285.0757	318	
298.0472	64	
313.0707	999	
