Mass spectrum: 15-Acetyldeoxynivalenol; LC-APCI-ITFT; MS2; CE: 30; R=17500; [M-H2O+H]+
Name: 15-Acetyldeoxynivalenol
Name: 15-monoacetyldeoxynivalenol
Class: Natural Product; Fungal metabolite
Formula: C17H22O7
Exact mass: 338.13654
SMILES: CC1=C[C@@H]2[C@]([C@@H](C1=O)O)([C@]3(C[C@H]([C@H]([C@@]34CO4)O2)O)C)COC(=O)C
InChI: InChI=1S/C17H22O7/c1-8-4-11-16(6-22-9(2)18,13(21)12(8)20)15(3)5-10(19)14(24-11)17(15)7-23-17/h4,10-11,13-14,19,21H,5-7H2,1-3H3/t10-,11-,13-,14-,15-,16-,17+/m1/s1
Instrument: Q-Exactive Orbitrap Thermo Scientific
Instrument type: LC-APCI-ITFT
Ms type: MS2
Ion mode: POSITIVE
Ionization: APCI
Fragmentation mode: HCD
Collision energy: 30(NCE)
Resolution: 17500
Column name: Agilent RRHD Eclipse 50 x 2 mm, 1.8 uM
Retention time: 2.71
Base peak: 93.0704
Precursor m/z: 321.1327
Precursor type: [M-H2O+H]+
m/z	relative intensity	assigned
51.3733	34	
51.7342	32	
79.0542	183	
81.0707	40	
84.831	33	
89.1794	34	
91.0554	46	
93.0699	999	
95.0855	41	
97.0648	81	
107.2743	39	
109.0659	160	
121.0648	41	
125.0597	82	
137.0597	488	
153.0546	46	
157.1012	168	
159.0804	44	
161.0597	80	
173.0961	61	
175.0754	56	
185.0961	422	
187.1118	214	
189.091	48	
197.0961	160	
201.091	73	
213.8833	42	
215.1067	868	
217.1223	476	
231.1016	60	
233.1172	39	
243.1016	63	
261.1121	850	
279.1227	86	
321.1333	176	
