Mass spectrum: Roquefortine L; LC-ESI-ITFT; MS2; CE: 20; R=17500; [M+H]+
Name: Roquefortine L
Name: (3E,10bR,11aS)-3-(1H-Imidazol-5-ylmethylene)-10b-(2-methyl-3-buten-2-yl)-11,11a-dihydro-2H-pyrazino[1',2':1,5]pyrrolo[2,3-b]indole-1,4(3H,10bH)-dione 6-oxide
Class: Natural Product; Fungal metabolite
Formula: C22H21N5O3
Exact mass: 403.16443
SMILES: CC(C)(C=C)C12CC3C(=O)N/C(=C/C4=CN=CN4)/C(=O)N3C1=[N+](C5=CC=CC=C25)[O-]
InChI: InChI=1S/C22H21N5O3/c1-4-21(2,3)22-10-17-18(28)25-15(9-13-11-23-12-24-13)19(29)26(17)20(22)27(30)16-8-6-5-7-14(16)22/h4-9,11-12,17H,1,10H2,2-3H3,(H,23,24)(H,25,28)/b15-9+
Instrument: Q-Exactive Orbitrap Thermo Scientific
Instrument type: LC-ESI-ITFT
Ms type: MS2
Ion mode: POSITIVE
Ionization: ESI
Fragmentation mode: HCD
Collision energy: 20(NCE)
Resolution: 17500
Column name: Agilent RRHD Eclipse 50 x 2 mm, 1.8 uM
Retention time: 2.5
Base peak: 319.1067
Precursor m/z: 404.1712
Precursor type: [M+H]+
m/z	relative intensity	assigned
69.0709	160	
108.0556	31	
136.0505	77	
155.0604	65	
157.076	54	
162.0298	410	
163.0614	170	
163.074	37	
191.0563	433	
192.0642	113	
193.0733	136	
196.1121	33	
198.0913	32	C13H12N1O1+
205.072	270	
212.107	59	
214.1226	261	
241.1335	32	
252.1019	183	
318.0985	97	
319.1064	999	
320.1142	36	
334.0934	113	
335.1013	353	
336.1091	484	C17H14N5O3+
348.1091	66	
387.169	236	
404.1717	986	
