Mass spectrum: Roridin A; LC-ESI-ITFT; MS2; CE: 50; R=17500; [M+H]+
Name: Roridin A
Class: Natural Product; Fungal metabolite
Formula: C29H40O9
Exact mass: 532.26723
SMILES: C[C@@H]1CCO[C@H](/C=C/C=C\C(=O)O[C@@H]2C[C@@H]3[C@]4([C@]2([C@]5(CCC(=C[C@H]5O3)C)COC(=O)[C@H]1O)C)CO4)[C@@H](C)O
InChI: InChI=1S/C29H40O9/c1-17-9-11-28-15-35-26(33)25(32)18(2)10-12-34-20(19(3)30)7-5-6-8-24(31)38-21-14-23(37-22(28)13-17)29(16-36-29)27(21,28)4/h5-8,13,18-23,25,30,32H,9-12,14-16H2,1-4H3/b7-5+,8-6-/t18-,19-,20-,21-,22-,23-,25+,27-,28-,29+/m1/s1
Instrument: Q-Exactive Orbitrap Thermo Scientific
Instrument type: LC-ESI-ITFT
Ms type: MS2
Ion mode: POSITIVE
Ionization: ESI
Fragmentation mode: HCD
Collision energy: 50(NCE)
Resolution: 17500
Column name: Agilent RRHD Eclipse 50 x 2 mm, 1.8 uM
Retention time: 3.46
Base peak: 81.0702
Precursor m/z: 533.274
Precursor type: [M+H]+
m/z	relative intensity	assigned
67.0542	93	
69.0335	42	
79.0542	238	
81.0699	999	
83.0491	36	
85.0648	703	
91.0542	221	
93.0699	474	
95.0491	310	
95.0855	309	
97.0648	100	C6H9O1+
105.0699	929	
107.0491	84	C7H7O1+
107.0855	522	
109.0648	351	
111.0804	45	
117.0699	94	
119.0491	79	
119.0855	263	
121.0648	171	
121.1012	44	
123.0804	517	
125.0597	181	
128.0621	64	
129.0699	103	
131.0855	295	
133.0648	45	
133.1012	594	
135.0804	45	
135.1168	43	
137.0597	46	
139.0754	58	
141.0699	34	
142.0777	146	
143.0855	438	
145.1012	235	
147.0804	58	
147.1168	175	
149.0961	70	
155.0855	75	
156.0934	106	
157.1012	373	
159.0804	39	
159.1168	198	
161.0961	363	
161.1325	43	
163.1118	59	
165.0699	98	
168.0934	60	
169.1012	96	
170.109	97	
171.0804	34	
171.1168	130	
173.0961	42	
173.1325	94	
175.1118	115	
180.0934	121	
183.1168	95	
185.1325	180	
187.1118	43	
189.1274	78	
193.1223	97	
195.1168	133	
201.1274	116	
203.1431	63	
213.1274	61	
231.138	98	
