Mass spectrum: Trichoverrol A; LC-ESI-ITFT; MS2; CE: 20; R=17500; [M+H]+
Name: Trichoverrol A
Name: [4b(2Z,4E,6S,7S)]-4-(6,7-dihydroxy-2,4-octadienoate) 12,13-Epoxy-trichothec-9-ene-4,15-diol
Class: Natural Product; Fungal metabolite
Formula: C23H32O7
Exact mass: 420.2148
SMILES: CC1=C[C@@H]2[C@](CC1)([C@]3([C@@H](C[C@H]([C@@]34CO4)O2)OC(=O)/C=C\C=C\[C@@H]([C@H](C)O)O)C)CO
InChI: InChI=1S/C23H32O7/c1-14-8-9-22(12-24)18(10-14)29-19-11-17(21(22,3)23(19)13-28-23)30-20(27)7-5-4-6-16(26)15(2)25/h4-7,10,15-19,24-26H,8-9,11-13H2,1-3H3/b6-4+,7-5-/t15-,16-,17+,18+,19+,21+,22+,23-/m0/s1
Instrument: Q-Exactive Orbitrap Thermo Scientific
Instrument type: LC-ESI-ITFT
Ms type: MS2
Ion mode: POSITIVE
Ionization: ESI
Fragmentation mode: HCD
Collision energy: 20(NCE)
Resolution: 17500
Column name: Agilent RRHD Eclipse 50 x 2 mm, 1.8 uM
Retention time: 3.3
Base peak: 249.1476
Precursor m/z: 421.2215
Precursor type: [M+H]+
m/z	relative intensity	assigned
81.0699	112	
83.0491	59	
105.0699	94	
107.0855	175	
109.0648	210	C7H9O1+
123.0804	85	
125.0597	88	
137.0597	105	
157.1012	46	
161.0961	87	
185.1325	163	
189.1274	31	
193.1223	262	
195.1168	85	
201.1274	90	
203.1431	81	
213.1274	134	
219.138	72	
231.138	649	
249.1485	999	
