Mass spectrum: 15-Acetyldeoxynivalenol; LC-APCI-ITFT; MS2; CE: 40; R=17500; [M+H]+
Name: 15-Acetyldeoxynivalenol
Name: 15-monoacetyldeoxynivalenol
Class: Natural Product; Fungal metabolite
Formula: C17H22O7
Exact mass: 338.13654
SMILES: CC1=C[C@@H]2[C@]([C@@H](C1=O)O)([C@]3(C[C@H]([C@H]([C@@]34CO4)O2)O)C)COC(=O)C
InChI: InChI=1S/C17H22O7/c1-8-4-11-16(6-22-9(2)18,13(21)12(8)20)15(3)5-10(19)14(24-11)17(15)7-23-17/h4,10-11,13-14,19,21H,5-7H2,1-3H3/t10-,11-,13-,14-,15-,16-,17+/m1/s1
Instrument: Q-Exactive Orbitrap Thermo Scientific
Instrument type: LC-APCI-ITFT
Ms type: MS2
Ion mode: POSITIVE
Ionization: APCI
Fragmentation mode: HCD
Collision energy: 40(NCE)
Resolution: 17500
Column name: Agilent RRHD Eclipse 50 x 2 mm, 1.8 uM
Retention time: 2.71
Base peak: 137.0602
Precursor m/z: 339.1433
Precursor type: [M+H]+
m/z	relative intensity	assigned
51.5368	44	
54.5266	36	
67.055	61	
69.0343	276	
69.0708	60	
71.6809	50	
76.5345	56	
79.0542	109	
81.0707	93	
83.0505	70	
91.0554	74	
91.4523	47	
93.1638	48	
95.0491	103	
97.0648	81	
97.5708	47	
105.0699	195	
109.0659	199	
110.5316	57	
119.0855	55	
119.7227	52	
121.0648	126	
125.0597	260	
131.0855	122	
137.0597	999	
141.0716	50	
142.0777	67	
143.0855	89	
145.0648	66	
145.1012	99	
157.1012	80	
158.0726	99	
159.0804	65	
159.1168	99	C12H15+
161.0597	66	
161.0961	80	C11H13O1+
172.0883	58	
173.0961	283	
175.0754	374	
177.091	85	
185.0961	189	
187.1118	108	
189.091	340	
197.0961	92	
201.091	112	
203.1067	210	
213.091	245	
215.1067	119	
219.1041	59	
231.1016	228	
249.1121	80	
261.1121	126	
274.026	48	
