Mass spectrum: 3,15-Diacetyldeoxynivalenol; LC-ESI-ITFT; MS2; CE: 20; R=17500; [M+H]+
Name: 3,15-Diacetyldeoxynivalenol
Name: 3,15-Bis(acetyloxy)-12,13-epoxy-7-hydroxytrichothec-9-en-8-one (3alpha)-
Class: Natural Product; Fungal metabolite
Formula: C19H24O8
Exact mass: 380.1471
SMILES: CC1=C[C@@H]2[C@](C(C1=O)O)([C@]3(C[C@H]([C@H]([C@@]34CO4)O2)OC(=O)C)C)COC(=O)C
InChI: InChI=1S/C19H24O8/c1-9-5-13-18(7-24-10(2)20,15(23)14(9)22)17(4)6-12(26-11(3)21)16(27-13)19(17)8-25-19/h5,12-13,15-16,23H,6-8H2,1-4H3/t12-,13-,15?,16-,17-,18-,19+/m1/s1
Instrument: Q-Exactive Orbitrap Thermo Scientific
Instrument type: LC-ESI-ITFT
Ms type: MS2
Ion mode: POSITIVE
Ionization: ESI
Fragmentation mode: HCD
Collision energy: 20(NCE)
Resolution: 17500
Column name: Agilent RRHD Eclipse 50 x 2 mm, 1.8 uM
Retention time: 3.2
Base peak: 231.1005
Precursor m/z: 381.1538
Precursor type: [M+H]+
m/z	relative intensity	assigned
79.0542	58	
81.0699	88	
95.0491	48	
97.0648	63	
107.0491	54	C7H7O1+
109.0648	162	
113.0597	73	
125.0597	289	
133.0648	128	
135.0441	65	
137.0597	510	
143.0703	39	
153.0546	95	
159.0804	32	
159.1168	35	
163.0754	44	
173.0961	156	
175.0754	65	
179.0703	58	
185.0961	88	
187.1118	131	
189.091	159	
197.0961	118	
201.091	78	
203.1067	316	
205.0859	47	
213.091	436	
215.1067	381	
217.0859	34	
219.1016	54	
225.091	93	
231.1016	999	
233.1172	65	
243.1016	384	
249.1121	33	
261.1121	321	
265.107	36	
273.1121	56	
279.1227	485	
303.1227	44	
321.1333	89	
381.1544	330	
