Mass spectrum: Austin; LC-ESI-ITFT; MS2; CE: 40; R=17500; [M+H]+
Name: Austin
Class: Natural Product; Fungal metabolite
Formula: C27H32O9
Exact mass: 500.20462
SMILES: C[C@H]1[C@@]2(C(=O)O[C@]3([C@@H](C4=C([C@]5(CC[C@]4([C@@]2(C3=C)C(=O)O1)C)C=CC(=O)OC5(C)C)C)OC(=O)C)C)O
InChI: InChI=1S/C27H32O9/c1-13-18-19(34-16(4)28)24(8)14(2)26(20(30)33-15(3)27(26,32)21(31)36-24)23(18,7)11-12-25(13)10-9-17(29)35-22(25,5)6/h9-10,15,19,32H,2,11-12H2,1,3-8H3/t15-,19+,23+,24+,25+,26+,27-/m0/s1
Instrument: Q-Exactive Orbitrap Thermo Scientific
Instrument type: LC-ESI-ITFT
Ms type: MS2
Ion mode: POSITIVE
Ionization: ESI
Fragmentation mode: HCD
Collision energy: 40(NCE)
Resolution: 17500
Column name: Agilent RRHD Eclipse 50 x 2 mm, 1.8 uM
Retention time: 3.5
Base peak: 211.148
Precursor m/z: 501.2114
Precursor type: [M+H]+
m/z	relative intensity	assigned
67.0552	61	
69.0342	52	
69.0707	87	
79.0542	33	
81.0708	65	
83.0128	715	
83.0491	54	
85.0284	85	
91.0542	61	
93.0699	98	
95.0491	85	
95.0855	191	
97.0648	46	
99.0441	40	
105.0699	82	
107.0855	316	
109.0648	76	
109.1012	81	C8H13+
111.0804	35	
117.0699	39	C9H9+
119.0855	677	
121.0648	78	
121.1012	300	
123.0441	36	
123.0804	63	
125.0597	115	
125.0961	42	
131.0855	296	
133.0648	49	
133.1012	257	
135.0441	86	
135.0804	119	
135.1168	57	
137.0597	76	
137.0961	73	
139.0754	39	
143.0855	209	
145.1012	456	C11H13+
147.0441	41	C9H7O2+
147.0804	107	
147.1168	61	C11H15+
149.0961	136	C10H13O1+
151.039	512	C8H7O3+
151.0754	113	
153.0546	338	
155.0703	47	
155.0855	83	
156.0934	67	
157.1012	436	
159.0804	74	C11H11O1+
159.1168	563	C12H15+
161.0597	68	C10H9O2+
161.0961	121	
161.1325	198	
163.0754	451	
163.1118	37	C11H15O1+
165.091	330	C10H13O2+
167.1067	35	
169.0495	107	
169.1012	214	
170.109	90	
171.0804	50	
171.1168	652	C13H15+
172.1247	49	
173.0961	69	
173.1325	555	
175.0754	242	
175.1118	130	
175.1481	38	
177.091	493	C11H13O2+
177.1274	76	
179.0703	702	
179.1067	35	
181.1012	63	
183.0652	33	
183.1168	421	
185.0961	99	
185.1325	425	C14H17+
187.0754	51	
187.1118	248	
187.1481	252	
189.091	102	
189.1274	169	
191.0703	94	
191.1067	82	
193.0859	94	
193.1012	31	
195.1016	61	
195.1168	99	
196.1247	175	
197.0961	38	C14H13O1+
197.1325	246	
199.1118	172	
199.1481	180	
201.091	126	
201.1274	121	
201.1638	37	
202.0988	59	
203.0703	46	
203.1067	586	
203.1431	54	
205.0859	76	
205.1223	297	
207.1168	107	
208.1247	34	
209.1325	227	C16H17+
211.0939	82	
211.1118	86	
211.1481	999	
212.156	72	
213.1304	82	
213.1638	491	
215.1067	125	
215.1431	44	
217.1223	994	C14H17O2+
221.0808	157	
221.1325	409	
223.1142	68	
223.1481	205	
225.1274	126	
225.1638	37	
227.1067	65	
227.1431	45	
229.1223	161	C15H17O2+
229.1587	60	
231.1016	98	
231.138	49	
235.1481	105	
237.1274	130	
237.1638	85	
239.1067	101	
239.1431	296	
239.1795	54	
241.1223	111	
241.1587	93	
243.138	49	C16H19O2+
245.1172	69	
247.1481	53	
249.1274	83	
249.1638	47	
251.1431	41	
251.1795	121	
253.1223	91	C17H17O2+
253.1587	43	C18H21O1+
253.1951	81	
255.138	111	
257.1172	55	
257.1536	36	
261.1638	151	
263.1431	70	
263.1795	104	
265.1223	109	
265.1587	55	
265.1951	36	
267.138	121	
269.1172	57	
271.1329	73	
274.1716	44	
275.1431	44	
275.1795	36	
276.1509	42	
277.1587	52	
277.1951	38	
279.138	55	
279.1744	424	C20H23O1+
281.1536	67	C19H21O2+
281.19	61	
283.1329	80	
289.1587	145	
289.1951	95	
290.1665	31	
291.1744	159	
291.2108	60	
293.1172	33	
293.1536	91	
293.19	78	
295.1329	75	
295.1693	45	
295.2057	32	
297.1849	44	
299.1795	34	
301.1951	37	
302.1665	53	
307.1329	43	
307.1693	297	
307.2057	151	
309.1849	103	
309.2213	43	
311.2006	80	
314.1665	31	
317.1536	50	
317.19	165	
319.2057	85	
320.1771	50	
321.1485	50	
321.1849	97	
325.1798	161	
325.2162	50	
327.1744	33	
330.1614	60	
335.1642	120	
335.2006	509	
337.2162	216	
339.1955	34	
345.1849	258	
347.2006	91	
348.172	73	
353.2111	187	
358.1564	33	
363.1955	585	
365.2111	97	
373.1798	96	
381.206	181	
391.1904	221	
409.201	81	
