Mass spectrum: Satratoxin G; LC-ESI-ITFT; MS2; CE: 30; R=17500; [M+H]+
Name: Satratoxin G
Class: Natural Product; Fungal metabolite
Formula: C29H36O10
Exact mass: 544.23084
SMILES: CC1=CC2C3(CC1)COC(=O)C4C5(O4)CCOC(C5O)(/C=C/C=C\C(=O)OC6C3(C7(CO7)C(C6)O2)C)C(C)O
InChI: InChI=1S/C29H36O10/c1-16-7-9-26-14-34-23(32)22-28(39-22)10-11-35-27(17(2)30,24(28)33)8-5-4-6-21(31)38-18-13-20(37-19(26)12-16)29(15-36-29)25(18,26)3/h4-6,8,12,17-20,22,24,30,33H,7,9-11,13-15H2,1-3H3/b6-4-,8-5+
Instrument: Q-Exactive Orbitrap Thermo Scientific
Instrument type: LC-ESI-ITFT
Ms type: MS2
Ion mode: POSITIVE
Ionization: ESI
Fragmentation mode: HCD
Collision energy: 30(NCE)
Resolution: 17500
Column name: Agilent RRHD Eclipse 50 x 2 mm, 1.8 uM
Retention time: 3.18
Base peak: 231.1387
Precursor m/z: 545.2376
Precursor type: [M+H]+
m/z	relative intensity	assigned
58.8737	31	
59.732	35	
60.6383	36	
78.2858	39	
79.0554	39	
81.0709	265	
93.0709	353	
95.0502	60	
95.0855	95	
97.0648	42	
99.0441	77	
105.0699	985	
107.0855	161	
109.0648	350	
111.0441	37	
117.0699	48	
119.0855	66	
121.0648	349	
123.0804	467	
125.0597	60	
131.0855	132	
133.0648	59	
133.1012	42	
135.0804	54	
139.0754	48	
143.0855	192	
145.1012	73	
149.0961	42	
157.1012	196	
159.0804	48	
159.1168	86	
161.0597	76	
161.0961	66	
162.4074	40	
165.9045	40	
171.1168	197	
175.1118	88	
177.6301	46	
183.1168	193	
185.1325	351	
189.0546	53	
189.1274	52	
195.1168	160	
201.1274	366	
203.1431	86	
213.1274	273	
219.138	55	
231.138	999	
233.0835	78	
235.0601	61	
249.1485	422	
311.9089	42	
403.5657	46	
404.2832	43	
502.0456	39	
545.2381	63	
