Mass spectrum: iso-Roridine E; LC-ESI-ITFT; MS2; CE: 35; R=17500; [M+H]+
Name: iso-Roridine E
Class: Natural Product; Fungal metabolite
Formula: C29H38O8
Exact mass: 514.25667
SMILES: CC1=C[C@@H]2[C@@]3(CC1)COC(=O)/C=C(/CCO[C@@H](/C=C/C=C\C(=O)O[C@H]4[C@]3([C@]5(CO5)[C@@H](C4)O2)C)[C@H](C)O)\C
InChI: InChI=1S/C29H38O8/c1-18-9-11-28-16-34-26(32)14-19(2)10-12-33-21(20(3)30)7-5-6-8-25(31)37-22-15-24(36-23(28)13-18)29(17-35-29)27(22,28)4/h5-8,13-14,20-24,30H,9-12,15-17H2,1-4H3/b7-5+,8-6-,19-14+/t20-,21-,22+,23+,24+,27+,28+,29-/m0/s1
Instrument: Q-Exactive Orbitrap Thermo Scientific
Instrument type: LC-ESI-ITFT
Ms type: MS2
Ion mode: POSITIVE
Ionization: ESI
Fragmentation mode: HCD
Collision energy: 35(NCE)
Resolution: 17500
Column name: Agilent RRHD Eclipse 50 x 2 mm, 1.8 uM
Retention time: 3.78
Base peak: 113.0595
Precursor m/z: 515.2634
Precursor type: [M+H]+
m/z	relative intensity	assigned
67.0542	200	
71.0491	104	
81.0699	42	
83.0491	168	
85.0648	151	
93.0699	36	
95.0491	470	
105.0699	58	
109.0648	54	
113.0597	999	
119.0491	40	
131.0855	36	
137.0597	152	
141.0546	40	
143.0855	35	
157.1012	32	
159.0804	44	
159.1168	35	
185.1325	43	
187.1118	47	
231.138	58	
