Mass spectrum: Roquefortine C; LC-ESI-ITFT; MS2; CE: 50; R=17500; [M+Na]+
Name: Roquefortine C
Name: Roquefortine
Name: 2H-Pyrazino(1',2':1,5)pyrrolo(2,3-b)indole-1,4(3H,5aH)-dione, 10b-(1,1-dimethyl-2-propenyl)-6,10b,11,11a-tetrahydro-3-(1H-imidazol-4-ylmethylene)-
Class: Natural Product; Fungal metabolite
Formula: C22H23N5O2
Exact mass: 389.18517
SMILES: CC(C)(C=C)[C@@]12C[C@H]3C(=O)N/C(=C/C4=CN=CN4)/C(=O)N3[C@@H]1NC5=CC=CC=C25
InChI: InChI=1S/C22H23N5O2/c1-4-21(2,3)22-10-17-18(28)25-16(9-13-11-23-12-24-13)19(29)27(17)20(22)26-15-8-6-5-7-14(15)22/h4-9,11-12,17,20,26H,1,10H2,2-3H3,(H,23,24)(H,25,28)/b16-9+/t17-,20-,22+/m0/s1
Instrument: Q-Exactive Orbitrap Thermo Scientific
Instrument type: LC-ESI-ITFT
Ms type: MS2
Ion mode: POSITIVE
Ionization: ESI
Fragmentation mode: HCD
Collision energy: 50(NCE)
Resolution: 17500
Column name: Agilent RRHD Eclipse 50 x 2 mm, 1.8 uM
Retention time: 2.77
Base peak: 214.0455
Precursor m/z: 412.1738
Precursor type: [M+Na]+
m/z	relative intensity	assigned
130.0651	65	
213.0383	652	
214.0461	999	
344.1118	52	C17H15N5O2Na1+
412.1744	57	
