Mass spectrum: 3-Acetyldeoxynivalenol; LC-APCI-ITFT; MS2; CE: 40; R=17500; [M+H]+
Name: 3-Acetyldeoxynivalenol
Name: 3-monoacetyldeoxynivalenol
Class: Natural Product; Fungal metabolite
Formula: C17H22O7
Exact mass: 338.13654
SMILES: CC1=C[C@@H]2[C@]([C@@H](C1=O)O)([C@]3(C[C@H]([C@H]([C@@]34CO4)O2)OC(=O)C)C)CO
InChI: InChI=1S/C17H22O7/c1-8-4-11-16(6-18,13(21)12(8)20)15(3)5-10(23-9(2)19)14(24-11)17(15)7-22-17/h4,10-11,13-14,18,21H,5-7H2,1-3H3/t10-,11-,13-,14-,15-,16-,17+/m1/s1
Instrument: Q-Exactive Orbitrap Thermo Scientific
Instrument type: LC-APCI-ITFT
Ms type: MS2
Ion mode: POSITIVE
Ionization: APCI
Fragmentation mode: HCD
Collision energy: 40(NCE)
Resolution: 17500
Column name: Agilent RRHD Eclipse 50 x 2 mm, 1.8 uM
Retention time: 2.77
Base peak: 213.0904
Precursor m/z: 339.1433
Precursor type: [M+H]+
m/z	relative intensity	assigned
69.0343	189	
79.0542	221	
81.0707	237	
83.0491	53	
91.0542	91	
93.0699	107	
95.0491	152	
97.0648	155	
99.0441	59	
105.0699	133	
107.0491	236	
107.0855	54	
109.0648	344	
111.0441	48	
113.0597	40	
117.0699	89	
119.0855	77	
121.0648	123	
123.0441	191	
125.0597	512	
128.0621	43	C10H8+
129.0699	107	
131.0855	107	C10H11+
133.0648	116	
135.0441	62	
135.0804	178	
136.0519	69	
137.0597	817	
141.0699	68	
142.0777	91	
143.0855	127	
145.0648	128	
145.1012	151	
147.0804	171	C10H11O1+
149.0597	90	
149.0961	75	
151.039	86	
151.0754	49	
153.0546	139	
154.0777	49	
155.0855	91	
157.0648	73	
157.1012	354	
158.0726	57	
159.0804	314	
159.1168	156	
161.0597	278	
161.0961	149	
162.0675	40	
163.0754	272	
165.091	50	
167.0855	144	
169.1012	155	
170.0726	43	
171.0804	122	
172.0883	57	
173.0961	361	
174.0675	141	
175.0754	807	
175.1118	187	
177.091	213	
179.0703	41	
179.0855	41	
182.0726	63	
183.0804	63	
185.0961	522	
187.0754	114	
187.1118	252	
188.0832	86	
189.091	517	
191.0703	49	
191.1067	68	
193.0859	93	
195.0804	128	
197.0961	200	
198.0675	220	
201.091	573	
203.1067	867	
205.0859	141	
213.091	999	
215.1067	263	
219.1016	215	
223.0965	47	
225.091	74	
231.1016	743	
233.1172	69	
243.1016	101	
249.1121	78	
261.1121	103	
279.1227	373	
