Mass spectrum: Ochratoxin B; LC-ESI-ITFT; MS2; CE: 30; R=17500; [M+H]+
Name: Ochratoxin B
Name: (2S)-2-[[(3R)-8-hydroxy-3-methyl-1-oxo-3,4-dihydroisochromene-7-carbonyl]amino]-3-phenylpropanoic acid
Class: Natural Product; Fungal metabolite
Formula: C20H19NO6
Exact mass: 369.12122
SMILES: C[C@@H]1CC2=C(C(=C(C=C2)C(=O)N[C@@H](CC3=CC=CC=C3)C(=O)O)O)C(=O)O1
InChI: InChI=1S/C20H19NO6/c1-11-9-13-7-8-14(17(22)16(13)20(26)27-11)18(23)21-15(19(24)25)10-12-5-3-2-4-6-12/h2-8,11,15,22H,9-10H2,1H3,(H,21,23)(H,24,25)/t11-,15+/m1/s1
Instrument: Q-Exactive Orbitrap Thermo Scientific
Instrument type: LC-ESI-ITFT
Ms type: MS2
Ion mode: POSITIVE
Ionization: ESI
Fragmentation mode: HCD
Collision energy: 30(NCE)
Resolution: 17500
Column name: Agilent RRHD Eclipse 50 x 2 mm, 1.8 uM
Retention time: 3.35
Base peak: 211.1447
Precursor m/z: 370.128
Precursor type: [M+H]+
m/z	relative intensity	assigned
55.845	53	
75.0266	66	
82.7977	63	
86.0964	444	
105.4606	63	
120.8132	74	
121.0663	89	
143.0815	92	
157.097	127	
179.8499	78	
202.7455	73	
205.0495	442	
211.1447	999	
216.1019	286	
223.0601	153	
225.1603	292	
286.071	88	
345.6024	62	
351.3104	69	
352.1563	108	
