Mass spectrum: Ergocryptinine; LC-ESI-ITFT; MS2; CE: 50; R=17500; [M+H]+
Name: Ergocryptinine
Class: Natural Product; Fungal metabolite
Formula: C32H41N5O5
Exact mass: 575.31077
SMILES: CC(C)C[C@H]1C(=O)N2CCC[C@H]2[C@]3(N1C(=O)[C@](O3)(C(C)C)NC(=O)[C@@H]4CN([C@@H]5CC6=CNC7=CC=CC(=C67)C5=C4)C)O
InChI: InChI=1S/C32H41N5O5/c1-17(2)12-25-29(39)36-11-7-10-26(36)32(41)37(25)30(40)31(42-32,18(3)4)34-28(38)20-13-22-21-8-6-9-23-27(21)19(15-33-23)14-24(22)35(5)16-20/h6,8-9,13,15,17-18,20,24-26,33,41H,7,10-12,14,16H2,1-5H3,(H,34,38)/t20-,24+,25-,26-,31+,32-/m0/s1
Instrument: Q-Exactive Orbitrap Thermo Scientific
Instrument type: LC-ESI-ITFT
Ms type: MS2
Ion mode: POSITIVE
Ionization: ESI
Fragmentation mode: HCD
Collision energy: 50(NCE)
Resolution: 17500
Column name: Agilent RRHD Eclipse 50 x 2 mm, 1.8 uM
Retention time: 2.8
Base peak: 223.1218
Precursor m/z: 576.3175
Precursor type: [M+H]+
m/z	relative intensity	assigned
70.0651	34	
83.0491	122	
153.1386	171	
154.0651	59	
167.073	93	
168.0808	54	
178.0651	35	
180.0808	234	
181.0886	72	
181.1322	231	
182.0964	55	
191.073	192	
192.0808	511	
194.0964	112	
207.0665	69	
207.0917	54	
208.0743	607	
208.0968	153	
209.0822	43	
209.1271	67	
211.1428	32	
221.1073	520	
223.123	999	
224.1308	80	
249.1386	63	
277.1322	221	
305.1271	65	
