Mass spectrum: Verruculogen; LC-ESI-ITFT; MS2; CE: 30; R=17500; [M+H]+
Name: Verruculogen
Name: TR toxin
Name: (5R,10S,10aR,14aS,15bS)-10,10a-dihydroxy-6-methoxy-2,2-dimethyl-5-(2-methylprop-1-en-1-yl)-1,10,10a,14,14a,15b-hexahydro-12H-3,4-dioxa-5a,11a,15a-triazacycloocta[1,2,3-lm]indeno[5,6-b]fluorene-11,15(2H,13H)-dione
Class: Natural Product; Fungal metabolite
Formula: C27H33N3O7
Exact mass: 511.23184
SMILES: CC(=C[C@@H]1N2C3=C(C=CC(=C3)OC)C4=C2[C@H](CC(OO1)(C)C)N5C(=O)[C@@H]6CCCN6C(=O)[C@@]5([C@H]4O)O)C
InChI: InChI=1S/C27H33N3O7/c1-14(2)11-20-29-18-12-15(35-5)8-9-16(18)21-22(29)19(13-26(3,4)37-36-20)30-24(32)17-7-6-10-28(17)25(33)27(30,34)23(21)31/h8-9,11-12,17,19-20,23,31,34H,6-7,10,13H2,1-5H3/t17-,19-,20+,23-,27+/m0/s1
Instrument: Q-Exactive Orbitrap Thermo Scientific
Instrument type: LC-ESI-ITFT
Ms type: MS2
Ion mode: POSITIVE
Ionization: ESI
Fragmentation mode: HCD
Collision energy: 30(NCE)
Resolution: 17500
Column name: Agilent RRHD Eclipse 50 x 2 mm, 1.8 uM
Retention time: 3.77
Base peak: 198.0911
Precursor m/z: 512.2386
Precursor type: [M+H]+
m/z	relative intensity	assigned
70.0651	726	
125.0709	41	
141.0658	47	
148.0757	48	
153.0658	69	
154.0499	32	
160.0757	76	
169.0608	54	C7H9N2O3+
172.0757	133	
174.0913	111	
176.0706	80	
184.0757	67	
188.0706	103	
189.1022	39	
190.0863	34	C11H12N1O2+
191.0577	61	
192.0615	37	
197.0835	60	
198.0913	999	
199.0866	391	
200.0706	68	
200.107	60	
201.0784	41	
202.0499	35	
202.0863	171	
202.1226	189	
210.0913	76	
211.0839	58	
212.107	39	
213.0658	97	
217.0972	92	
227.0815	435	
228.1019	68	
230.0839	35	
230.1176	255	
231.0764	33	
240.1019	210	
241.0608	76	
242.1176	73	
245.0921	88	
253.0972	53	
255.0764	601	
259.0713	130	
267.1128	112	
273.087	53	
281.0921	42	
285.1234	52	
294.1237	31	C17H16N3O2+
295.105	104	
296.1394	92	
297.1207	39	
303.1339	38	
306.1237	61	
310.1186	236	
313.1183	113	
321.1081	37	
322.1101	87	
323.1264	192	
324.1343	229	
338.1135	80	
352.1292	293	
370.1397	260	
372.119	55	
379.0435	59	
397.0581	47	
