Mass spectrum: Satratoxin G; LC-ESI-ITFT; MS2; CE: 55; R=17500; [M+Na]+
Name: Satratoxin G
Class: Natural Product; Fungal metabolite
Formula: C29H36O10
Exact mass: 544.23084
SMILES: CC1=CC2C3(CC1)COC(=O)C4C5(O4)CCOC(C5O)(/C=C/C=C\C(=O)OC6C3(C7(CO7)C(C6)O2)C)C(C)O
InChI: InChI=1S/C29H36O10/c1-16-7-9-26-14-34-23(32)22-28(39-22)10-11-35-27(17(2)30,24(28)33)8-5-4-6-21(31)38-18-13-20(37-19(26)12-16)29(15-36-29)25(18,26)3/h4-6,8,12,17-20,22,24,30,33H,7,9-11,13-15H2,1-3H3/b6-4-,8-5+
Instrument: Q-Exactive Orbitrap Thermo Scientific
Instrument type: LC-ESI-ITFT
Ms type: MS2
Ion mode: POSITIVE
Ionization: ESI
Fragmentation mode: HCD
Collision energy: 55(NCE)
Resolution: 17500
Column name: Agilent RRHD Eclipse 50 x 2 mm, 1.8 uM
Retention time: 3.18
Base peak: 105.0707
Precursor m/z: 567.2195
Precursor type: [M+Na]+
m/z	relative intensity	assigned
58.2636	48	
64.2411	52	
65.0393	67	
67.0553	383	
69.0346	139	
71.6084	56	
79.0552	418	
81.071	557	
91.0542	509	
93.0699	734	
95.0491	810	
95.0855	256	
105.0699	999	
107.0491	81	
107.0855	291	
109.0648	73	
115.0542	70	
117.0699	154	
119.0855	822	
121.0648	147	
123.0804	100	
128.0621	112	
129.0699	147	
131.0855	305	
133.0648	101	
133.1012	272	
135.0804	145	
136.0155	63	C7H4O3+
142.0777	85	
143.0855	417	
145.1012	106	
147.0804	249	
149.0961	112	
157.1012	100	
159.078	67	
159.1168	361	
171.1168	86	
231.138	131	
273.0182	60	
326.0632	76	
353.0937	80	
382.7841	69	
