Mass spectrum: Traversianal; LC-ESI-ITFT; MS2; CE: 35; R=17500; [M+H]+
Name: Traversianal
Name: (1R,3aR,4E,6aS,7S,9aR,10aR)-3a-Hydroxy-7-isopropenyl-1,9a-dimethyl-3-oxo-1,2,3,3a,6,6a,7,8,9,9a,10,10a-dodecahydrodicyclopenta[a,d][8]annulene-4-carbaldehyde
Class: Natural Product; Fungal metabolite
Formula: C20H28O3
Exact mass: 316.20386
SMILES: C[C@@H]1CC(=O)[C@]/2([C@@H]1C[C@]3(CC[C@@H]([C@@H]3C/C=C2/C=O)C(=C)C)C)O
InChI: InChI=1S/C20H28O3/c1-12(2)15-7-8-19(4)10-17-13(3)9-18(22)20(17,23)14(11-21)5-6-16(15)19/h5,11,13,15-17,23H,1,6-10H2,2-4H3/b14-5-/t13-,15-,16+,17-,19-,20+/m1/s1
Instrument: Q-Exactive Orbitrap Thermo Scientific
Instrument type: LC-ESI-ITFT
Ms type: MS2
Ion mode: POSITIVE
Ionization: ESI
Fragmentation mode: HCD
Collision energy: 35(NCE)
Resolution: 17500
Column name: Agilent RRHD Eclipse 50 x 2 mm, 1.8 uM
Retention time: 4.55
Base peak: 299.1995
Precursor m/z: 317.2106
Precursor type: [M+H]+
m/z	relative intensity	assigned
67.0542	32	
69.0335	206	
69.0699	87	
81.0699	159	
83.0855	58	
91.0542	42	
93.0699	165	
95.0855	196	
97.0648	42	
105.0699	146	C8H9+
107.0855	218	C8H11+
109.0648	47	
109.1012	98	C8H13+
113.0597	100	C6H9O2+
119.0855	246	
121.1012	174	
123.0804	40	
123.1168	52	
125.0597	43	
127.0754	36	
131.0855	114	
133.1012	163	
135.1168	144	
137.0961	35	
141.0546	76	
143.0855	92	
145.1012	185	
147.1168	148	
149.0961	32	
149.1325	45	
155.0703	42	
155.0855	53	
157.1012	165	
159.0804	35	
159.1168	162	
161.0961	35	
161.1325	98	
163.1118	31	
163.1481	52	
165.091	37	
169.1012	141	
171.1168	148	
173.0961	51	
173.1325	239	
175.1118	114	
175.1481	455	
177.091	42	
177.1638	35	
183.1168	210	
185.1325	412	
187.1118	87	
187.1481	95	
189.1274	79	
195.1168	49	
197.1325	189	
199.1118	65	
201.1274	84	
203.1431	31	
207.1168	57	
211.1118	41	
211.1481	172	
213.1274	58	
213.1638	32	
215.1067	53	C14H15O2+
215.1431	48	
217.1223	250	
221.1325	61	
225.1274	72	
229.1223	96	
229.1587	66	
229.1951	58	
231.138	95	
237.1638	175	
239.1431	116	
239.1795	485	
243.138	51	
243.2108	39	
253.1951	228	
255.1744	113	
257.1536	121	
257.19	56	
263.1795	79	
271.1693	36	
271.2057	386	
281.19	382	
299.2006	999	
317.2111	106	
