Mass spectrum: Atranone B; LC-ESI-ITFT; MS2; CE: 10; R=17500; [M+H]+
Name: Atranone B
Class: Natural Product; Fungal metabolite
Formula: C25H34O7
Exact mass: 446.23045
SMILES: C/C1=C2[C@H]3[C@H]([C@@](C)(O)O[C@H]3/C(C)=C\C[C@H]4C(C(C)C)=C(OC)C(O[C@]4(C)CC1)=O)C(O/2)=O
InChI: InChI=1S/C25H34O7/c1-12(2)16-15-9-8-13(3)20-17-18(25(6,28)31-20)22(26)30-19(17)14(4)10-11-24(15,5)32-23(27)21(16)29-7/h8,12,15,17-18,20,28H,9-11H2,1-7H3/b13-8-,19-14+/t15-,17+,18-,20-,24+,25-/m0/s1
Instrument: Q-Exactive Orbitrap Thermo Scientific
Instrument type: LC-ESI-ITFT
Ms type: MS2
Ion mode: POSITIVE
Ionization: ESI
Fragmentation mode: HCD
Collision energy: 10(NCE)
Resolution: 17500
Column name: Agilent RRHD Eclipse 50 x 2 mm, 1.8 uM
Retention time: 4.05
Base peak: 429.2253
Precursor m/z: 447.2372
Precursor type: [M+H]+
m/z	relative intensity	assigned
163.0754	44	
181.0859	42	
195.1016	177	
205.1223	38	
223.1329	44	
237.1485	98	
263.1642	48	
281.1747	46	
313.1798	42	
327.1955	45	
337.1798	32	
345.206	73	
351.1955	36	
355.1904	31	
359.2217	34	
363.1802	38	
367.2268	82	
369.206	127	
379.1904	40	
383.2217	32	
385.2374	111	
387.2166	221	
393.206	71	
397.201	92	
401.2323	62	
403.2479	55	
411.2166	390	
415.2115	44	
419.2428	91	
429.2272	999	
447.2377	827	
