Mass spectrum: Frequentin; LC-ESI-ITFT; MS2; CE: 30; R=17500; [M+H]+
Name: Frequentin
Name: Frequentine
Name: 6-[(1E,3E)-hepta-1,3-dienyl]-3,4-dihydroxy-2-oxocyclohexane-1-carbaldehyde
Class: Natural Product; Fungal metabolite
Formula: C14H20O4
Exact mass: 252.13616
SMILES: CCC/C=C/C=C/[C@@H]1C[C@H]([C@H](C(=O)[C@H]1C=O)O)O
InChI: InChI=1S/C14H20O4/c1-2-3-4-5-6-7-10-8-12(16)14(18)13(17)11(10)9-15/h4-7,9-12,14,16,18H,2-3,8H2,1H3/b5-4+,7-6+/t10-,11+,12-,14-/m1/s1
Instrument: Q-Exactive Orbitrap Thermo Scientific
Instrument type: LC-ESI-ITFT
Ms type: MS2
Ion mode: POSITIVE
Ionization: ESI
Fragmentation mode: HCD
Collision energy: 30(NCE)
Resolution: 17500
Column name: Agilent RRHD Eclipse 50 x 2 mm, 1.8 uM
Retention time: 3.68
Base peak: 111.0439
Precursor m/z: 253.1429
Precursor type: [M+H]+
m/z	relative intensity	assigned
81.0699	32	
83.0491	93	
93.0699	35	C7H9+
95.0855	55	
97.0284	287	
97.1012	35	C7H13+
105.0699	34	
107.0491	39	C7H7O1+
107.0855	46	C8H11+
109.0648	35	
109.1012	32	
111.0441	999	
119.0855	56	
121.1012	81	
123.1168	42	
133.0648	94	
133.1012	56	
139.039	328	
147.0804	45	
147.1168	59	
149.0961	55	
151.0754	33	
157.0495	662	
161.1325	61	
163.1118	33	
175.1481	40	
179.1067	56	
189.1274	70	
193.1223	45	
207.138	72	
217.1223	46	
235.168	32	
253.1434	40	
