Mass spectrum: Mycophenolic acid; LC-ESI-ITFT; MS2; CE: 55; R=17500; [M-H]-
Name: Mycophenolic acid
Name: Mycophenolate
Name: Myfortic
Name: Melbex
Name: (E)-6-(4-hydroxy-6-methoxy-7-methyl-3-oxo-1H-2-benzofuran-5-yl)-4-methylhex-4-enoic acid
Class: Natural Product; Fungal metabolite
Formula: C17H20O6
Exact mass: 320.12598
SMILES: CC1=C(C(=C(C2=C1COC2=O)O)C/C=C(\C)/CCC(=O)O)OC
InChI: InChI=1S/C17H20O6/c1-9(5-7-13(18)19)4-6-11-15(20)14-12(8-23-17(14)21)10(2)16(11)22-3/h4,20H,5-8H2,1-3H3,(H,18,19)/b9-4+
Instrument: Q-Exactive Orbitrap Thermo Scientific
Instrument type: LC-ESI-ITFT
Ms type: MS2
Ion mode: NEGATIVE
Ionization: ESI
Fragmentation mode: HCD
Collision energy: 55(NCE)
Resolution: 17500
Column name: Agilent RRHD Eclipse 50 x 2 mm, 1.8 uM
Retention time: 3.36
Base peak: 191.0329
Precursor m/z: 319.1192
Precursor type: [M-H]-
m/z	relative intensity	assigned
73.0275	55	
95.0482	150	
107.0481	83	
119.0483	58	
121.0635	47	
133.0636	37	
135.0431	128	
147.0427	59	
148.0509	47	
149.0585	66	
160.0506	60	
161.0585	54	
161.0951	83	
163.0375	56	
164.046	39	
173.0586	194	
174.0686	31	
178.0253	37	
179.033	225	
187.0744	140	
191.0329	999	
192.0407	178	
201.0921	91	
203.035	293	
205.0506	300	
215.1078	39	
231.0663	156	
233.0819	38	
245.0819	115	
