Mass spectrum: Koninginin A; LC-ESI-ITFT; MS2; CE: 35; R=17500; [M+H]+
Name: Koninginin A
Class: Natural Product; Fungal metabolite
Formula: C16H28O4
Exact mass: 284.19877
SMILES: CCCCCC[C@H]1[C@@H]2CC[C@H]3[C@H](CC[C@H]([C@]3(O2)O1)O)O
InChI: InChI=1S/C16H28O4/c1-2-3-4-5-6-13-14-9-7-11-12(17)8-10-15(18)16(11,19-13)20-14/h11-15,17-18H,2-10H2,1H3/t11-,12-,13-,14-,15+,16-/m0/s1
Instrument: Q-Exactive Orbitrap Thermo Scientific
Instrument type: LC-ESI-ITFT
Ms type: MS2
Ion mode: POSITIVE
Ionization: ESI
Fragmentation mode: HCD
Collision energy: 35(NCE)
Resolution: 17500
Column name: Agilent RRHD Eclipse 50 x 2 mm, 1.8 uM
Retention time: 3.5
Base peak: 107.0492
Precursor m/z: 285.2055
Precursor type: [M+H]+
m/z	relative intensity	assigned
54.1058	70	
54.3577	75	
54.7629	70	
57.0706	613	
67.0542	330	
69.0699	205	
70.7227	102	
71.0491	147	
73.2859	85	
75.6932	76	
79.0542	306	
81.0699	220	
84.9591	85	
85.0648	99	
85.1012	413	
91.0542	441	
93.0699	142	
95.0855	367	
97.0648	88	
105.0699	157	C8H9+
107.0491	999	
109.0648	158	C7H9O1+
109.1012	104	
113.0961	163	
117.0699	84	
119.0855	650	
121.0648	109	
123.0804	360	
125.0597	110	
125.0961	386	
127.1118	163	
129.3605	89	
133.0648	420	
133.1012	116	
137.0961	92	
147.0804	394	
155.1431	141	
189.1638	210	
205.1587	160	
221.19	113	
249.1849	596	
