Mass spectrum: Ochratoxin B ethyl ester; LC-ESI-ITFT; MS2; CE: 55; R=17500; [M+H]+
Name: Ochratoxin B ethyl ester
Name: Ethyl 2-[(8-hydroxy-3-methyl-1-oxo-isochroman-7-carbonyl)amino]-3-phenyl-propanoate
Class: Natural Product; Fungal metabolite
Formula: C22H23NO6
Exact mass: 397.15253
SMILES: CCOC(=O)C(CC1=CC=CC=C1)NC(=O)C2=C(C3=C(CC(OC3=O)C)C=C2)O
InChI: InChI=1S/C22H23NO6/c1-3-28-21(26)17(12-14-7-5-4-6-8-14)23-20(25)16-10-9-15-11-13(2)29-22(27)18(15)19(16)24/h4-10,13,17,24H,3,11-12H2,1-2H3,(H,23,25)
Instrument: Q-Exactive Orbitrap Thermo Scientific
Instrument type: LC-ESI-ITFT
Ms type: MS2
Ion mode: POSITIVE
Ionization: ESI
Fragmentation mode: HCD
Collision energy: 55(NCE)
Resolution: 17500
Column name: Agilent RRHD Eclipse 50 x 2 mm, 1.8 uM
Retention time: 3.2
Base peak: 190.0865
Precursor m/z: 398.1593
Precursor type: [M+H]+
m/z	relative intensity	assigned
56.1132	78	
56.4247	70	
74.6511	112	
78.4145	75	
90.7357	79	
99.0558	81	
103.0542	204	
106.0651	365	
111.7314	88	
120.0808	717	
130.0651	387	
131.073	113	C9H9N1+
148.6646	99	
163.0754	138	
164.0832	114	
172.0757	127	
179.0941	193	
186.7493	80	
190.0863	999	
201.7836	89	
208.0968	121	
210.2095	101	
217.0859	155	
236.0917	435	
257.0319	99	
264.1145	145	
