Mass spectrum: Deoxynivalenol 3-glucuronide; LC-ESI-ITFT; MS2; CE: 50; R=17500; [M-H]-
Name: Deoxynivalenol 3-glucuronide
Class: Fungal metabolite; urinary conjugate
Formula: C21H28O12
Exact mass: 472.15805
SMILES: CC1=C[C@@H]2[C@]([C@@H](C1=O)O)([C@]3(C[C@H]([C@H]([C@@]34CO4)O2)O[C@H]5[C@@H]([C@H]([C@@H]([C@H](O5)C(=O)O)O)O)O)C)CO
InChI: InChI=1S/C21H28O12/c1-7-3-9-20(5-22,15(27)10(7)23)19(2)4-8(16(32-9)21(19)6-30-21)31-18-13(26)11(24)12(25)14(33-18)17(28)29/h3,8-9,11-16,18,22,24-27H,4-6H2,1-2H3,(H,28,29)/t8-,9-,11+,12+,13-,14+,15-,16-,18-,19-,20-,21+/m1/s1
Instrument: Q-Exactive Orbitrap Thermo Scientific
Instrument type: LC-ESI-ITFT
Ms type: MS2
Ion mode: NEGATIVE
Ionization: ESI
Fragmentation mode: HCD
Collision energy: 50(NCE)
Resolution: 17500
Column name: Agilent RRHD Eclipse 50 x 2 mm, 1.8 uM
Retention time: 2.22
Base peak: 85.028
Precursor m/z: 471.1513
Precursor type: [M-H]-
m/z	relative intensity	assigned
57.0331	80	
59.0124	465	
71.0123	880	
72.9916	502	
73.028	132	
75.0072	902	
83.0124	40	
85.028	999	
87.0073	305	
89.0229	161	
95.0124	130	
99.0073	167	
101.0229	103	
103.0022	101	
107.0488	44	
113.023	558	
115.0022	59	
117.0179	60	
122.0359	85	
123.0438	126	
133.0128	32	
138.0322	38	
139.0401	33	
150.0322	332	
160.053	76	
163.0765	71	
168.0428	58	
173.0608	58	
175.0765	248	
187.0765	65	
189.0921	76	
199.0765	85	
201.0921	59	
202.0635	47	
203.0714	50	
205.087	31	
214.0635	70	
217.087	187	
229.087	120	
247.0976	42	
265.1081	54	
