Mass spectrum: Ochratoxin B; LC-ESI-ITFT; MS2; CE: 40; R=17500; [M+H]+
Name: Ochratoxin B
Name: (2S)-2-[[(3R)-8-hydroxy-3-methyl-1-oxo-3,4-dihydroisochromene-7-carbonyl]amino]-3-phenylpropanoic acid
Class: Natural Product; Fungal metabolite
Formula: C20H19NO6
Exact mass: 369.12122
SMILES: C[C@@H]1CC2=C(C(=C(C=C2)C(=O)N[C@@H](CC3=CC=CC=C3)C(=O)O)O)C(=O)O1
InChI: InChI=1S/C20H19NO6/c1-11-9-13-7-8-14(17(22)16(13)20(26)27-11)18(23)21-15(19(24)25)10-12-5-3-2-4-6-12/h2-8,11,15,22H,9-10H2,1H3,(H,21,23)(H,24,25)/t11-,15+/m1/s1
Instrument: Q-Exactive Orbitrap Thermo Scientific
Instrument type: LC-ESI-ITFT
Ms type: MS2
Ion mode: POSITIVE
Ionization: ESI
Fragmentation mode: HCD
Collision energy: 40(NCE)
Resolution: 17500
Column name: Agilent RRHD Eclipse 50 x 2 mm, 1.8 uM
Retention time: 3.35
Base peak: 211.144
Precursor m/z: 370.128
Precursor type: [M+H]+
m/z	relative intensity	assigned
59.5561	107	
62.6089	107	
63.1393	95	
72.0816	119	
80.8296	97	
84.0219	100	
86.0964	512	
99.8447	107	
120.0901	103	
141.1026	119	
142.071	105	
143.0816	523	
146.8225	120	
157.0971	588	
205.0495	857	
211.144	999	
216.1019	214	
223.0601	164	
231.0652	118	
337.9971	130	
