Mass spectrum: Zearalenone; LC-ESI-ITFT; MS2; CE: 50; R=17500; [M+H]+
Name: Zearalenone
Name: F2 Toxin
Name: (2E,11S)-15,17-dihydroxy-11-methyl-12-oxabicyclo[12.4.0]octadeca-1(14),2,15,17-tetraene-7,13-dione
Class: Natural Product; Fungal metabolite
Formula: C18H22O5
Exact mass: 318.14672
SMILES: C[C@H]1CCCC(=O)CCC/C=C/C2=CC(=CC(=C2C(=O)O1)O)O
InChI: InChI=1S/C18H22O5/c1-12-6-5-9-14(19)8-4-2-3-7-13-10-15(20)11-16(21)17(13)18(22)23-12/h3,7,10-12,20-21H,2,4-6,8-9H2,1H3/b7-3+/t12-/m0/s1
Instrument: Q-Exactive Orbitrap Thermo Scientific
Instrument type: LC-ESI-ITFT
Ms type: MS2
Ion mode: POSITIVE
Ionization: ESI
Fragmentation mode: HCD
Collision energy: 50(NCE)
Resolution: 17500
Column name: Agilent RRHD Eclipse 50 x 2 mm, 1.8 uM
Retention time: 3.65
Base peak: 185.0589
Precursor m/z: 319.1535
Precursor type: [M+H]+
m/z	relative intensity	assigned
55.0185	114	
67.0542	76	
68.9971	40	
69.0699	838	
71.0491	32	
79.0542	62	
81.0699	55	
83.0491	40	
85.0648	122	
91.0542	94	
93.0699	51	
95.0491	32	
95.0855	56	
97.0648	237	C6H9O1+
105.0699	79	
107.0855	47	
115.0542	53	
117.0699	81	
119.0855	59	
123.0441	103	
125.0961	45	
129.0699	111	
131.0855	133	
133.0648	40	
141.0699	207	
145.0648	39	
147.0441	70	
147.0804	64	
149.0597	68	
157.0648	453	
159.0804	78	
160.0519	68	
161.0597	314	
163.039	60	
163.0754	56	
165.0182	130	
169.0648	119	
173.0597	98	
175.039	214	
175.0754	356	
177.0546	128	
177.091	108	
185.0597	999	
187.0754	895	
189.0546	481	
197.0597	63	
199.0754	106	
201.091	77	
203.0703	802	
205.0495	75	
205.0859	122	
211.0754	42	
213.0546	159	
213.091	123	
214.0624	37	
215.0703	112	
215.1067	43	
217.0859	41	
223.0754	54	
225.091	73	
226.0624	33	
227.0703	121	
228.0781	36	
229.0859	91	
231.0652	55	
241.0859	89	
241.1223	36	
243.1016	41	
250.0988	46	
255.138	39	
265.1223	86	
283.1329	44	
