Mass spectrum: 3-Acetyldeoxynivalenol; LC-APCI-ITFT; MS2; CE: 30; R=17500; [M-H2O+H]+
Name: 3-Acetyldeoxynivalenol
Name: 3-monoacetyldeoxynivalenol
Class: Natural Product; Fungal metabolite
Formula: C17H22O7
Exact mass: 338.13654
SMILES: CC1=C[C@@H]2[C@]([C@@H](C1=O)O)([C@]3(C[C@H]([C@H]([C@@]34CO4)O2)OC(=O)C)C)CO
InChI: InChI=1S/C17H22O7/c1-8-4-11-16(6-18,13(21)12(8)20)15(3)5-10(23-9(2)19)14(24-11)17(15)7-22-17/h4,10-11,13-14,18,21H,5-7H2,1-3H3/t10-,11-,13-,14-,15-,16-,17+/m1/s1
Instrument: Q-Exactive Orbitrap Thermo Scientific
Instrument type: LC-APCI-ITFT
Ms type: MS2
Ion mode: POSITIVE
Ionization: APCI
Fragmentation mode: HCD
Collision energy: 30(NCE)
Resolution: 17500
Column name: Agilent RRHD Eclipse 50 x 2 mm, 1.8 uM
Retention time: 2.77
Base peak: 215.1082
Precursor m/z: 321.1327
Precursor type: [M-H2O+H]+
m/z	relative intensity	assigned
69.0343	55	
79.0542	181	
81.0707	166	
91.0542	46	
93.0699	276	
95.0491	108	
97.0648	46	
105.0699	111	
107.0491	51	
107.0855	67	
109.0284	342	
109.0648	270	
111.0441	58	
121.0648	130	
123.0441	174	
125.0597	153	
129.0699	41	
131.0855	52	
133.0648	44	C9H9O1+
133.1012	31	C10H13+
135.0441	46	
135.0804	151	
137.0597	250	
139.0754	31	
143.0855	57	
145.1012	176	
147.0804	277	C10H11O1+
149.0612	32	
151.0754	50	
153.0546	69	
155.0855	33	
156.0934	40	
157.1012	235	
159.0804	185	
159.1168	179	C12H15+
161.0597	39	
161.0961	53	C11H13O1+
163.0754	256	
169.1012	223	
171.1168	213	
173.0961	426	
175.0754	219	
175.1118	266	C12H15O1+
177.091	56	
179.0703	39	
181.0859	110	
185.0961	349	
187.1118	386	
189.091	161	
191.1067	51	
197.0961	213	
199.1118	145	
201.091	194	
203.1067	630	
205.0859	128	
205.1223	59	
213.091	162	
215.1067	999	
217.1223	48	
219.1016	137	
225.091	43	
231.1016	348	
233.1172	315	
243.1016	230	
249.1121	58	
251.1278	120	
261.1121	768	
263.1278	68	
279.1227	499	
321.1333	304	
