Mass spectrum: Roquefortine M; LC-ESI-ITFT; MS2; CE: 55; R=17500; [M+H]+
Name: Roquefortine M
Class: Natural Product; Fungal metabolite
Formula: C22H23N5O4
Exact mass: 421.17499
SMILES: CC(C=C)(C1(C(N(O)C2=CC=CC=C12)=O)CC3C(N/C(C(N3)=O)=C/C4=CN=CN4)=O)C
InChI: InChI=1S/C22H23N5O4/c1-4-21(2,3)22(14-7-5-6-8-17(14)27(31)20(22)30)10-16-19(29)25-15(18(28)26-16)9-13-11-23-12-24-13/h4-9,11-12,16,31H,1,10H2,2-3H3,(H,23,24)(H,25,29)(H,26,28)/b15-9+
Instrument: Q-Exactive Orbitrap Thermo Scientific
Instrument type: LC-ESI-ITFT
Ms type: MS2
Ion mode: POSITIVE
Ionization: ESI
Fragmentation mode: HCD
Collision energy: 55(NCE)
Resolution: 17500
Column name: Agilent RRHD Eclipse 50 x 2 mm, 1.8 uM
Retention time: 2.5
Base peak: 192.0643
Precursor m/z: 422.1817
Precursor type: [M+H]+
m/z	relative intensity	assigned
82.0525	49	
107.0478	79	
108.0556	74	
109.0634	604	
137.0584	69	
163.0614	33	C7H7N4O1+
164.0693	79	
192.0642	999	
