Mass spectrum: Neoxaline; LC-ESI-ITFT; MS2; CE: 40; R=17500; [M+H]+
Name: Neoxaline
Name: (3E,7aS,12aR)-6-Hydroxy-3-(1H-imidazol-4-ylmethylene)-12-methoxy-7a-(2-methyl-3-buten-2-yl)-6,7,7a,12-tetrahydro-1H,5H-imidazo[1',2':1,2]pyrido[2,3-b]indole-2,5(3H)-dione
Class: Natural Product; Fungal metabolite
Formula: C23H25N5O4
Exact mass: 435.19064
SMILES: C=CC(C)(C)[C@]12C[C@@H](C(=O)N3/C(=C/c4cnc[nH]4)/C(=N[C@@]23N(c2ccccc12)OC)O)O
InChI: InChI=1S/C23H25N5O4/c1-5-21(2,3)22-11-18(29)20(31)27-17(10-14-12-24-13-25-14)19(30)26-23(22,27)28(32-4)16-9-7-6-8-15(16)22/h5-10,12-13,18,29H,1,11H2,2-4H3,(H,24,25)(H,26,30)/b17-10+/t18-,22-,23-/m0/s1
Instrument: Q-Exactive Orbitrap Thermo Scientific
Instrument type: LC-ESI-ITFT
Ms type: MS2
Ion mode: POSITIVE
Ionization: ESI
Fragmentation mode: HCD
Collision energy: 40(NCE)
Resolution: 17500
Column name: Agilent RRHD Eclipse 50 x 2 mm, 1.8 uM
Retention time: 2.68
Base peak: 291.0786
Precursor m/z: 436.1974
Precursor type: [M+H]+
m/z	relative intensity	assigned
108.057	36	
162.0311	33	
163.0614	69	
164.0666	36	
166.0975	93	
214.1226	33	
215.1264	52	
216.13	35	
235.0951	40	
236.0973	34	
261.0771	191	
262.0822	331	
263.0855	348	
264.0934	158	
265.1012	126	
277.072	35	
278.0726	55	
278.1036	36	
279.0791	46	
279.1088	86	
280.1094	77	
281.0872	36	
282.09	34	
289.072	302	
290.0756	713	
291.0791	999	
292.0842	115	
306.0985	32	
307.1064	67	
308.107	90	
318.0747	42	
319.0754	120	
320.0818	205	
334.0934	74	
335.0941	244	
336.1006	473	
337.1084	64	
376.202	31	
388.1656	57	
