Mass spectrum: Deoxynivalenol; LC-ESI-ITFT; MS2; CE: 50; R=17500; [M+H]+
Name: Deoxynivalenol
Name: Vomitoxin
Name: 12,13-Epoxy-3-alpha,7-alpha,15-trihydroxy-9-trichothecen-8-one
Class: Natural Product; Fungal metabolite
Formula: C15H20O6
Exact mass: 296.12598
SMILES: CC1=C[C@@H]2[C@]([C@@H](C1=O)O)([C@]3(C[C@H]([C@H]([C@@]34CO4)O2)O)C)CO
InChI: InChI=1S/C15H20O6/c1-7-3-9-14(5-16,11(19)10(7)18)13(2)4-8(17)12(21-9)15(13)6-20-15/h3,8-9,11-12,16-17,19H,4-6H2,1-2H3/t8-,9-,11-,12-,13-,14-,15+/m1/s1
Instrument: Q-Exactive Orbitrap Thermo Scientific
Instrument type: LC-ESI-ITFT
Ms type: MS2
Ion mode: POSITIVE
Ionization: ESI
Fragmentation mode: HCD
Collision energy: 50(NCE)
Resolution: 17500
Column name: Agilent RRHD Eclipse 50 x 2 mm, 1.8 uM
Retention time: 2.3
Base peak: 175.0748
Precursor m/z: 297.1327
Precursor type: [M+H]+
m/z	relative intensity	assigned
55.0186	190	
55.0549	150	
57.0342	68	
65.0386	48	
67.0542	383	
69.0335	545	
69.0706	38	
71.0491	62	
75.8226	31	
77.0386	31	
79.0542	807	
81.0335	42	
81.0699	434	
83.0491	213	
84.9601	839	
85.0284	195	
91.0542	649	
93.0699	386	
95.0491	556	
95.0855	36	
97.0284	41	C5H5O2+
97.0648	531	
102.9704	245	
103.039	156	
103.0542	38	
105.045	45	
105.0699	669	C8H9+
107.0491	340	C7H7O1+
107.0855	189	
109.0284	42	
109.0648	505	
109.1012	32	
111.0441	74	
113.0597	42	
115.0542	138	
117.0699	276	
119.0491	52	
119.0855	312	
120.9812	41	
121.0648	697	
121.1012	58	
123.0441	272	
123.0804	75	C8H11O1+
124.0519	35	
125.0597	531	
128.0621	277	
129.0699	426	
130.0777	40	
131.0855	418	
133.0648	275	
133.1012	206	
135.0441	68	
135.0804	310	
137.0597	574	
141.0699	226	
142.0777	430	
143.0855	264	
144.0934	47	
145.0648	314	
145.1012	422	
146.0726	145	
147.0804	354	
147.1168	46	C11H15+
149.0597	71	
149.0961	210	
151.039	72	C8H7O3+
153.0699	56	
154.0777	148	
155.0855	136	
156.0934	50	
157.0648	140	
157.1012	414	
158.0726	263	
158.9275	262	
159.0804	549	
159.1168	60	
160.0883	150	
161.0597	559	
161.0961	399	
162.0675	149	
163.0754	150	
167.0855	63	
169.1012	71	
170.0726	45	
171.0804	67	
172.0883	182	
173.0597	53	
173.0961	359	
174.0675	252	
175.0754	999	
175.1118	210	
176.9377	783	
177.091	164	
181.0648	41	
182.0726	61	
185.0961	218	
187.0754	69	
187.1118	57	
188.0832	157	
189.091	231	
194.9484	485	
198.0675	69	
201.091	188	
203.0703	67	
203.1067	194	
204.9326	307	
213.091	129	
219.2034	38	
222.9431	189	
231.1016	209	
232.9273	70	
250.9387	72	
