Mass spectrum: Fumonisin B2; LC-ESI-ITFT; MS2; CE: 30; R=17500; [M+H]+
Name: Fumonisin B2
Class: Natural Product; Fungal metabolite
Formula: C34H59NO14
Exact mass: 705.39354
SMILES: CCCC[C@@H](C)[C@H]([C@H](C[C@@H](C)CCCCCC[C@H](C[C@@H]([C@H](C)N)O)O)OC(=O)C[C@@H](CC(=O)O)C(=O)O)OC(=O)C[C@@H](CC(=O)O)C(=O)O
InChI: InChI=1S/C34H59NO14/c1-5-6-12-21(3)32(49-31(43)18-24(34(46)47)16-29(40)41)27(48-30(42)17-23(33(44)45)15-28(38)39)14-20(2)11-9-7-8-10-13-25(36)19-26(37)22(4)35/h20-27,32,36-37H,5-19,35H2,1-4H3,(H,38,39)(H,40,41)(H,44,45)(H,46,47)/t20-,21+,22-,23+,24+,25+,26-,27-,32+/m0/s1
Instrument: Q-Exactive Orbitrap Thermo Scientific
Instrument type: LC-ESI-ITFT
Ms type: MS2
Ion mode: POSITIVE
Ionization: ESI
Fragmentation mode: HCD
Collision energy: 30(NCE)
Resolution: 17500
Column name: Agilent RRHD Eclipse 50 x 2 mm, 1.8 uM
Retention time: 2.88
Base peak: 336.3243
Precursor m/z: 706.4003
Precursor type: [M+H]+
m/z	relative intensity	assigned
69.0699	126	
70.0651	51	
74.06	287	
81.0699	106	
83.0855	59	
85.1012	43	
95.0855	137	
97.1012	56	C7H13+
107.0855	39	
109.1012	99	
111.1168	48	
121.1012	43	
123.1168	62	
135.1168	50	
149.1325	49	
159.0288	150	
238.2166	34	
318.3129	563	
336.3234	999	
354.334	294	
494.3449	36	
512.3555	98	
688.3903	49	
