Mass spectrum: Ergocristine; LC-ESI-ITFT; MS2; CE: 30; R=17500; [M+H]+
Name: Ergocristine
Name: 12'-hydroxy-2'-(1-methyl)-5'alpha-(phenylmethyl)ergotaman-3',6',18-trione
Class: Natural Product; Fungal metabolite
Formula: C35H39N5O5
Exact mass: 609.29511
SMILES: CC(C)[C@@]1(C(=O)N2[C@H](C(=O)N3CCC[C@H]3[C@@]2(O1)O)CC4=CC=CC=C4)NC(=O)[C@H]5CN([C@@H]6CC7=CNC8=CC=CC(=C78)C6=C5)C
InChI: InChI=1S/C35H39N5O5/c1-20(2)34(37-31(41)23-16-25-24-11-7-12-26-30(24)22(18-36-26)17-27(25)38(3)19-23)33(43)40-28(15-21-9-5-4-6-10-21)32(42)39-14-8-13-29(39)35(40,44)45-34/h4-7,9-12,16,18,20,23,27-29,36,44H,8,13-15,17,19H2,1-3H3,(H,37,41)/t23-,27-,28+,29+,34-,35+/m1/s1
Instrument: Q-Exactive Orbitrap Thermo Scientific
Instrument type: LC-ESI-ITFT
Ms type: MS2
Ion mode: POSITIVE
Ionization: ESI
Fragmentation mode: HCD
Collision energy: 30(NCE)
Resolution: 17500
Column name: Agilent RRHD Eclipse 50 x 2 mm, 1.8 uM
Retention time: 2.78
Base peak: 268.1443
Precursor m/z: 610.3018
Precursor type: [M+H]+
m/z	relative intensity	assigned
70.0659	54	
180.0808	32	
197.1073	102	C13H13N2+
208.0757	573	C14H10N1O1+
223.123	640	
225.1022	553	
243.1128	34	
245.1285	68	
251.1179	61	
268.1444	999	
277.1335	60	
305.1285	155	
320.1757	35	
325.1547	107	C19H21N2O3+
348.1707	133	
