Mass spectrum: Fumonisin B2; LC-ESI-ITFT; MS2; CE: 50; R=17500; [M+H]+
Name: Fumonisin B2
Class: Natural Product; Fungal metabolite
Formula: C34H59NO14
Exact mass: 705.39354
SMILES: CCCC[C@@H](C)[C@H]([C@H](C[C@@H](C)CCCCCC[C@H](C[C@@H]([C@H](C)N)O)O)OC(=O)C[C@@H](CC(=O)O)C(=O)O)OC(=O)C[C@@H](CC(=O)O)C(=O)O
InChI: InChI=1S/C34H59NO14/c1-5-6-12-21(3)32(49-31(43)18-24(34(46)47)16-29(40)41)27(48-30(42)17-23(33(44)45)15-28(38)39)14-20(2)11-9-7-8-10-13-25(36)19-26(37)22(4)35/h20-27,32,36-37H,5-19,35H2,1-4H3,(H,38,39)(H,40,41)(H,44,45)(H,46,47)/t20-,21+,22-,23+,24+,25+,26-,27-,32+/m0/s1
Instrument: Q-Exactive Orbitrap Thermo Scientific
Instrument type: LC-ESI-ITFT
Ms type: MS2
Ion mode: POSITIVE
Ionization: ESI
Fragmentation mode: HCD
Collision energy: 50(NCE)
Resolution: 17500
Column name: Agilent RRHD Eclipse 50 x 2 mm, 1.8 uM
Retention time: 2.88
Base peak: 69.0704
Precursor m/z: 706.4003
Precursor type: [M+H]+
m/z	relative intensity	assigned
56.0502	71	
57.0341	59	
57.0705	158	
58.0658	93	
67.0542	471	
69.0699	999	
70.0651	697	
72.0808	34	
74.06	635	
79.0542	240	
81.0699	913	
82.0651	111	
83.0855	244	
84.0808	93	
85.0284	153	
85.0648	46	
85.1012	161	
91.0542	84	
93.0699	365	
94.0651	64	
95.0855	844	
96.0808	131	C6H10N1+
97.1012	115	C7H13+
98.0964	41	
99.0077	42	
105.0699	113	
107.0855	283	
109.1012	426	
110.0964	64	C7H12N1+
113.0233	396	
119.0855	72	
121.1012	154	
123.1168	115	
133.1012	60	
135.1168	105	
137.1325	31	
138.1277	33	
141.0182	102	
147.1168	56	
149.1325	47	
159.0288	413	
194.1903	51	
208.206	67	
220.206	57	
238.2166	53	
318.3129	270	
336.3234	286	
