Mass spectrum: Stachybocin C; LC-ESI-ITFT; MS2; CE: 50; R=17500; [M+H]+
Name: Stachybocin C
Name: (2S)-2-[(3R,7R,8R,8aS)-3,4'-dihydroxy-4,4,7,8a-tetramethyl-6'-oxospiro[2,3,4a,5,6,7-hexahydro-1H-naphthalene-8,2'-3,8-dihydrofuro[2,3-e]isoindole]-7'-yl]-6-[(2R,3S,7R,8R,8aS)-2,3,4'-trihydroxy-4,4,7,8a-tetramethyl-6'-oxospiro[2,3,4a,5,6,7-hexahydro-1H-naphthalene-8,2'-3,8-dihydrofuro[2,3-e]isoindole]-7'-yl]hexanoic acid
Class: Natural Product; Fungal metabolite
Formula: C52H70N2O11
Exact mass: 898.49797
SMILES: C[C@@H]1CCC2[C@@]([C@@]13CC4=C(C=C5C(=C4O3)CN(C5=O)[C@@H](CCCCN6CC7=C8C(=C(C=C7C6=O)O)C[C@@]9(O8)[C@@H](CCC1[C@@]9(C[C@H]([C@H](C1(C)C)O)O)C)C)C(=O)O)O)(CC[C@H](C2(C)C)O)C
InChI: InChI=1S/C52H70N2O11/c1-26-12-14-38-47(3,4)40(58)16-17-49(38,7)51(26)21-30-36(56)20-29-33(42(30)64-51)25-54(45(29)61)34(46(62)63)11-9-10-18-53-24-32-28(44(53)60)19-35(55)31-22-52(65-41(31)32)27(2)13-15-39-48(5,6)43(59)37(57)23-50(39,52)8/h19-20,26-27,34,37-40,43,55-59H,9-18,21-25H2,1-8H3,(H,62,63)/t26-,27-,34+,37-,38?,39?,40-,43-,49+,50+,51-,52-/m1/s1
Instrument: Q-Exactive Orbitrap Thermo Scientific
Instrument type: LC-ESI-ITFT
Ms type: MS2
Ion mode: POSITIVE
Ionization: ESI
Fragmentation mode: HCD
Collision energy: 50(NCE)
Resolution: 17500
Column name: Agilent RRHD Eclipse 50 x 2 mm, 1.8 uM
Retention time: 4.07
Base peak: 244.0955
Precursor m/z: 899.5047
Precursor type: [M+H]+
m/z	relative intensity	assigned
81.0699	50	
82.0651	40	
84.0808	47	
93.0699	38	
95.0855	93	
107.0855	81	
109.1012	75	
119.0855	62	
121.1012	89	
133.1012	132	
135.1168	48	
147.1168	41	
149.1325	57	
175.1481	31	
178.0499	326	
180.0655	60	
187.1481	40	
189.1638	151	
190.0499	225	
191.0577	57	
192.0655	325	
205.1587	35	
216.0655	65	
216.0992	72	
218.0812	73	
226.0836	62	
228.0992	42	
230.0812	107	
232.0968	71	
242.0812	89	
243.0863	106	
244.0968	999	
245.102	84	
246.1098	114	
256.0968	43	
282.1125	31	
296.1254	39	
366.2064	34	
368.2193	245	
380.2193	266	
384.2143	114	
396.2143	368	
398.2299	34	
408.2507	37	
414.2248	75	
421.1367	126	
432.2507	55	
434.2663	138	
448.2456	32	
450.2612	67	
