Mass spectrum: 3-Acetyldeoxynivalenol; LC-APCI-ITFT; MS2; CE: 20; R=17500; [M+H]+
Name: 3-Acetyldeoxynivalenol
Name: 3-monoacetyldeoxynivalenol
Class: Natural Product; Fungal metabolite
Formula: C17H22O7
Exact mass: 338.13654
SMILES: CC1=C[C@@H]2[C@]([C@@H](C1=O)O)([C@]3(C[C@H]([C@H]([C@@]34CO4)O2)OC(=O)C)C)CO
InChI: InChI=1S/C17H22O7/c1-8-4-11-16(6-18,13(21)12(8)20)15(3)5-10(23-9(2)19)14(24-11)17(15)7-22-17/h4,10-11,13-14,18,21H,5-7H2,1-3H3/t10-,11-,13-,14-,15-,16-,17+/m1/s1
Instrument: Q-Exactive Orbitrap Thermo Scientific
Instrument type: LC-APCI-ITFT
Ms type: MS2
Ion mode: POSITIVE
Ionization: APCI
Fragmentation mode: HCD
Collision energy: 20(NCE)
Resolution: 17500
Column name: Agilent RRHD Eclipse 50 x 2 mm, 1.8 uM
Retention time: 2.77
Base peak: 231.1023
Precursor m/z: 339.1433
Precursor type: [M+H]+
m/z	relative intensity	assigned
109.0648	95	
125.0597	125	
137.0597	195	
153.0546	64	
163.0754	48	
173.0961	40	
175.0754	83	
185.0961	47	
187.1118	70	
189.091	143	
197.0961	54	
201.091	176	C13H13O2+
203.1067	286	
205.0859	41	C12H13O3+
213.091	389	
215.1067	201	
219.1016	102	
223.0965	85	
225.091	39	
231.1016	999	
233.1172	56	
243.1016	179	
249.1121	129	
261.1121	286	
279.1227	433	
291.1227	49	
297.1333	236	
321.1333	244	
339.1438	572	
