Mass spectrum: AAL toxin TB; LC-ESI-ITFT; MS2; CE: 50; R=17500; [M+H]+
Name: AAL toxin TB
Name: 2-[2-[(3R,4R,5S,7S,14R,16S)-17-amino-4,14,16-trihydroxy-3,7-dimethylheptadecan-5-yl]oxy-2-oxoethyl]butanedioic acid
Class: Natural Product; Fungal metabolite
Formula: C25H47NO9
Exact mass: 505.32508
SMILES: CC[C@@H](C)[C@H]([C@H](C[C@@H](C)CCCCCC[C@H](C[C@@H](CN)O)O)OC(=O)CC(CC(=O)O)C(=O)O)O
InChI: InChI=1S/C25H47NO9/c1-4-17(3)24(32)21(35-23(31)13-18(25(33)34)12-22(29)30)11-16(2)9-7-5-6-8-10-19(27)14-20(28)15-26/h16-21,24,27-28,32H,4-15,26H2,1-3H3,(H,29,30)(H,33,34)/t16-,17+,18?,19+,20-,21-,24+/m0/s1
Instrument: Q-Exactive Orbitrap Thermo Scientific
Instrument type: LC-ESI-ITFT
Ms type: MS2
Ion mode: POSITIVE
Ionization: ESI
Fragmentation mode: HCD
Collision energy: 50(NCE)
Resolution: 17500
Column name: Agilent RRHD Eclipse 50 x 2 mm, 1.8 uM
Retention time: 2.69
Base peak: 81.0702
Precursor m/z: 506.3318
Precursor type: [M+H]+
m/z	relative intensity	assigned
56.0502	371	
57.0706	380	
60.045	450	
67.0542	556	
69.0699	396	
70.0651	168	
71.0491	37	
71.0855	213	
79.0542	294	
80.0495	49	
81.0699	999	
82.0651	83	
83.0855	370	
84.0808	88	
85.0284	83	
85.0648	54	
91.0542	132	
93.0699	411	
95.0855	988	
96.0808	73	
97.1012	133	
99.0804	59	
105.0699	109	
107.0855	329	C8H11+
109.1012	417	
110.0964	39	
113.0233	302	
119.0855	79	
121.1012	233	
123.1168	174	
124.1121	41	
133.1012	82	
135.1168	98	
137.1325	45	
141.0182	147	
147.1168	52	
149.1325	46	
159.0288	488	
224.2009	82	
276.2686	62	
294.2792	244	
