Mass spectrum: Gentisyl alcohol; LC-ESI-ITFT; MS2; CE: 10; R=17500; [M+H]+
Name: Gentisyl alcohol
Name: 2-(hydroxymethyl)benzene-1,4-diol
Class: Natural Product; Fungal metabolite
Formula: C7H8O3
Exact mass: 140.04734
SMILES: C1=CC(=C(C=C1O)CO)O
InChI: InChI=1S/C7H8O3/c8-4-5-3-6(9)1-2-7(5)10/h1-3,8-10H,4H2
Instrument: Q-Exactive Orbitrap Thermo Scientific
Instrument type: LC-ESI-ITFT
Ms type: MS2
Ion mode: POSITIVE
Ionization: ESI
Fragmentation mode: HCD
Collision energy: 10(NCE)
Resolution: 17500
Column name: Agilent RRHD Eclipse 50 x 2 mm, 1.8 uM
Retention time: 2.35
Base peak: 141.0545
Precursor m/z: 141.0541
Precursor type: [M+H]+
m/z	relative intensity	assigned
126.0311	164	
141.0546	999	
