Mass spectrum: Malformin A2; LC-ESI-ITFT; MS2; CE: 20; R=17500; [M-H]-
Name: Malformin A2
Name: cyclo[D-Cys(1)-D-Cys(1)-Val-D-Leu-Val]
Name: (1S,4S,7R,10S,13S)-7-(2-methylpropyl)-4,10-di(propan-2-yl)-15,16-dithia-3,6,9,12,18-pentazabicyclo[11.4.2]nonadecane-2,5,8,11,19-pentone
Class: Natural Product; Fungal metabolite
Formula: C22H37N5O5S2
Exact mass: 515.2236
SMILES: CC(C)C[C@@H]1C(=O)N[C@H](C(=O)N[C@@H]2CSSC[C@H](C(=O)N[C@H](C(=O)N1)C(C)C)NC2=O)C(C)C
InChI: InChI=1S/C22H37N5O5S2/c1-10(2)7-13-18(28)26-17(12(5)6)22(32)25-14-8-33-34-9-15(24-19(14)29)20(30)27-16(11(3)4)21(31)23-13/h10-17H,7-9H2,1-6H3,(H,23,31)(H,24,29)(H,25,32)(H,26,28)(H,27,30)/t13-,14-,15-,16+,17+/m1/s1
Instrument: Q-Exactive Orbitrap Thermo Scientific
Instrument type: LC-ESI-ITFT
Ms type: MS2
Ion mode: NEGATIVE
Ionization: ESI
Fragmentation mode: HCD
Collision energy: 20(NCE)
Resolution: 17500
Column name: Agilent RRHD Eclipse 50 x 2 mm, 1.8 uM
Retention time: 3.26
Base peak: 480.2281
Precursor m/z: 514.2169
Precursor type: [M-H]-
m/z	relative intensity	assigned
91.8257	39	
100.021	118	
109.0394	55	
126.0005	98	
141.0656	574	
143.0271	494	
174.9556	380	
242.9427	487	
310.9318	43	
336.1929	146	
353.2176	525	
405.2143	36	
437.2228	723	
446.2409	515	
448.2565	452	
480.2286	999	
514.2159	622	
