Mass spectrum: Roquefortine H; LC-ESI-ITFT; MS2; CE: 30; R=17500; [M+H]+
Name: Roquefortine H
Name: (3E,5aS,10bR,11aS)-5a-Methyl-10b-(2-methyl-3-buten-2-yl)-3-{[1-(2-methyl-4-oxo-2-pentanyl)-1H-imidazol-4-yl]methylene}-6,10b,11,11a-tetrahydro-2H-pyrazino[1',2':1,5]pyrrolo[2,3-b]indole-1,4(3H,5aH)-di one
Class: Natural Product; Fungal metabolite
Formula: C28H33N5O3
Exact mass: 487.25834
SMILES: CC(=O)CC(C)(C)N1C=C(N=C1)/C=C\2/C(=O)N3[C@H](C[C@@]4([C@H]3NC5=CC=CC=C54)C(C)(C)C=C)C(=O)N2
InChI: InChI=1S/C28H33N5O3/c1-7-26(3,4)28-14-22-23(35)30-21(12-18-15-32(16-29-18)27(5,6)13-17(2)34)24(36)33(22)25(28)31-20-11-9-8-10-19(20)28/h7-12,15-16,22,25,31H,1,13-14H2,2-6H3,(H,30,35)/b21-12-/t22-,25+,28-/m1/s1
Instrument: Q-Exactive Orbitrap Thermo Scientific
Instrument type: LC-ESI-ITFT
Ms type: MS2
Ion mode: POSITIVE
Ionization: ESI
Fragmentation mode: HCD
Collision energy: 30(NCE)
Resolution: 17500
Column name: Agilent RRHD Eclipse 50 x 2 mm, 1.8 uM
Retention time: 3.45
Base peak: 173.021
Precursor m/z: 488.2651
Precursor type: [M+H]+
m/z	relative intensity	assigned
173.022	516	
174.0243	186	
205.0482	258	
206.0504	107	
213.1022	92	
217.0459	42	
247.0578	39	
248.0648	239	
249.0699	179	
250.0737	35	
428.2458	40	
456.2394	126	
