Mass spectrum: Satratoxin G; LC-ESI-ITFT; MS2; CE: 40; R=17500; [M+Na]+
Name: Satratoxin G
Class: Natural Product; Fungal metabolite
Formula: C29H36O10
Exact mass: 544.23084
SMILES: CC1=CC2C3(CC1)COC(=O)C4C5(O4)CCOC(C5O)(/C=C/C=C\C(=O)OC6C3(C7(CO7)C(C6)O2)C)C(C)O
InChI: InChI=1S/C29H36O10/c1-16-7-9-26-14-34-23(32)22-28(39-22)10-11-35-27(17(2)30,24(28)33)8-5-4-6-21(31)38-18-13-20(37-19(26)12-16)29(15-36-29)25(18,26)3/h4-6,8,12,17-20,22,24,30,33H,7,9-11,13-15H2,1-3H3/b6-4-,8-5+
Instrument: Q-Exactive Orbitrap Thermo Scientific
Instrument type: LC-ESI-ITFT
Ms type: MS2
Ion mode: POSITIVE
Ionization: ESI
Fragmentation mode: HCD
Collision energy: 40(NCE)
Resolution: 17500
Column name: Agilent RRHD Eclipse 50 x 2 mm, 1.8 uM
Retention time: 3.18
Base peak: 231.1389
Precursor m/z: 567.2195
Precursor type: [M+Na]+
m/z	relative intensity	assigned
67.0551	39	
69.0345	35	
79.0553	96	
81.0708	200	
91.0552	43	
93.0699	159	
95.0502	197	
95.0865	146	
105.0699	221	
107.0855	111	
109.0648	37	
117.0699	40	
119.0855	252	
121.0648	146	
121.1012	46	
123.0804	37	
131.0855	127	
133.1012	100	
135.0804	41	
143.0855	173	
145.1012	82	
147.0804	136	
147.1168	95	
149.0961	91	
157.1012	99	
159.1168	230	
161.0961	92	
161.1325	45	
167.0315	38	
175.1481	107	
185.1325	117	
187.1118	37	C13H15O1+
189.1274	36	
193.0471	89	
203.1431	128	
219.0628	243	
231.138	999	
245.0784	36	
249.0733	43	
253.1223	72	
263.089	675	
271.1305	32	
275.0526	272	
293.0632	86	
293.0996	42	
319.0788	77	
523.1963	270	
567.2201	182	
