Mass spectrum: Fumonisin B1; LC-ESI-ITFT; MS2; CE: 35; R=17500; [M+H]+
Name: Fumonisin B1
Name: Macrofusine
Class: Natural Product; Fungal metabolite
Formula: C34H59NO15
Exact mass: 721.38845
SMILES: CCCC[C@@H](C)[C@H]([C@H](C[C@@H](C)C[C@@H](CCCC[C@H](C[C@@H]([C@H](C)N)O)O)O)OC(=O)C[C@@H](CC(=O)O)C(=O)O)OC(=O)C[C@@H](CC(=O)O)C(=O)O
InChI: InChI=1S/C34H59NO15/c1-5-6-9-20(3)32(50-31(44)17-23(34(47)48)15-29(41)42)27(49-30(43)16-22(33(45)46)14-28(39)40)13-19(2)12-24(36)10-7-8-11-25(37)18-26(38)21(4)35/h19-27,32,36-38H,5-18,35H2,1-4H3,(H,39,40)(H,41,42)(H,45,46)(H,47,48)/t19-,20+,21-,22+,23+,24+,25+,26-,27-,32+/m0/s1
Instrument: Q-Exactive Orbitrap Thermo Scientific
Instrument type: LC-ESI-ITFT
Ms type: MS2
Ion mode: POSITIVE
Ionization: ESI
Fragmentation mode: HCD
Collision energy: 35(NCE)
Resolution: 17500
Column name: Agilent RRHD Eclipse 50 x 2 mm, 1.8 uM
Retention time: 2.71
Base peak: 334.3087
Precursor m/z: 722.3952
Precursor type: [M+H]+
m/z	relative intensity	assigned
57.0705	77	
67.0542	71	
69.0699	148	
70.0651	223	
72.0808	33	
74.06	365	
79.0542	61	
81.0699	290	
83.0855	77	
85.0648	39	
85.1012	129	
91.0542	34	
93.0699	138	
94.0651	35	
95.0855	332	
96.0808	48	C6H10N1+
97.1012	56	C7H13+
100.0757	90	C5H10N1O1+
105.0699	94	
107.0855	173	
109.1012	207	
111.1168	31	
119.0855	77	
121.1012	128	
123.1168	109	
127.1118	43	
133.1012	122	
135.1168	152	
137.1325	42	
145.1012	62	
147.1168	116	
149.1325	84	
151.1481	76	
159.0288	235	
159.1168	42	
161.1325	86	
163.1481	51	
168.1383	91	
175.1481	68	
177.1638	31	
186.1489	156	
189.1638	35	
192.1747	36	
201.1638	47	
210.1853	45	
236.2009	73	
254.2115	56	
316.2972	257	
334.3078	999	
352.3183	570	
370.3289	60	
510.3399	34	
