Mass spectrum: 3,15-Diacetyldeoxynivalenol; LC-ESI-ITFT; MS2; CE: 30; R=17500; [M+H]+
Name: 3,15-Diacetyldeoxynivalenol
Name: 3,15-Bis(acetyloxy)-12,13-epoxy-7-hydroxytrichothec-9-en-8-one (3alpha)-
Class: Natural Product; Fungal metabolite
Formula: C19H24O8
Exact mass: 380.1471
SMILES: CC1=C[C@@H]2[C@](C(C1=O)O)([C@]3(C[C@H]([C@H]([C@@]34CO4)O2)OC(=O)C)C)COC(=O)C
InChI: InChI=1S/C19H24O8/c1-9-5-13-18(7-24-10(2)20,15(23)14(9)22)17(4)6-12(26-11(3)21)16(27-13)19(17)8-25-19/h5,12-13,15-16,23H,6-8H2,1-4H3/t12-,13-,15?,16-,17-,18-,19+/m1/s1
Instrument: Q-Exactive Orbitrap Thermo Scientific
Instrument type: LC-ESI-ITFT
Ms type: MS2
Ion mode: POSITIVE
Ionization: ESI
Fragmentation mode: HCD
Collision energy: 30(NCE)
Resolution: 17500
Column name: Agilent RRHD Eclipse 50 x 2 mm, 1.8 uM
Retention time: 3.2
Base peak: 137.0592
Precursor m/z: 381.1538
Precursor type: [M+H]+
m/z	relative intensity	assigned
69.0335	51	
79.0542	170	
81.0699	211	
91.0542	35	
93.0699	39	
95.0491	104	
97.0648	168	
105.0699	54	
107.0491	162	C7H7O1+
109.0648	368	
113.0597	162	
121.0648	76	
123.0441	109	
125.0597	510	
131.0855	47	
133.0648	193	
135.0441	139	
135.0804	54	
137.0597	999	
143.0703	49	
143.0855	41	
145.0648	44	
145.1012	96	
147.0804	40	
149.0597	33	
153.0546	184	
157.1012	118	
159.0804	123	
159.1168	118	
161.0597	56	
161.0961	72	
163.0754	159	
167.0855	38	
169.1012	128	
171.0804	70	
173.0961	374	
175.0754	215	
175.1118	73	
177.091	83	
179.0703	67	
185.0961	286	
187.0754	57	
187.1118	285	
189.091	365	
191.1067	31	
195.0804	60	
197.0961	296	
198.0675	74	
201.091	156	
203.1067	746	
205.0859	95	
213.091	812	
215.1067	563	
217.0859	77	
219.1016	102	
225.091	147	
231.1016	997	
233.1172	74	
243.1016	352	
249.1121	38	
261.1121	223	
279.1227	205	
