Mass spectrum: Koninginin A; LC-ESI-ITFT; MS2; CE: 20; R=17500; [M+H]+
Name: Koninginin A
Class: Natural Product; Fungal metabolite
Formula: C16H28O4
Exact mass: 284.19877
SMILES: CCCCCC[C@H]1[C@@H]2CC[C@H]3[C@H](CC[C@H]([C@]3(O2)O1)O)O
InChI: InChI=1S/C16H28O4/c1-2-3-4-5-6-13-14-9-7-11-12(17)8-10-15(18)16(11,19-13)20-14/h11-15,17-18H,2-10H2,1H3/t11-,12-,13-,14-,15+,16-/m0/s1
Instrument: Q-Exactive Orbitrap Thermo Scientific
Instrument type: LC-ESI-ITFT
Ms type: MS2
Ion mode: POSITIVE
Ionization: ESI
Fragmentation mode: HCD
Collision energy: 20(NCE)
Resolution: 17500
Column name: Agilent RRHD Eclipse 50 x 2 mm, 1.8 uM
Retention time: 3.5
Base peak: 249.1841
Precursor m/z: 285.2055
Precursor type: [M+H]+
m/z	relative intensity	assigned
57.0706	34	
81.0699	65	
85.1012	47	C6H13+
95.0855	43	
107.0491	255	
113.0597	64	
113.0961	235	C7H13O1+
119.0855	299	
121.2632	32	
123.0804	69	
125.0961	46	
127.1118	171	
133.0648	162	
135.0804	58	
137.0961	60	
147.0804	187	
151.0754	41	
155.1431	147	
167.1431	39	
189.1638	159	
203.1795	246	
213.1638	151	
221.19	181	
231.1744	454	
249.1849	999	
267.1955	969	
279.6932	40	
