Mass spectrum: Glandicoline B; LC-ESI-ITFT; MS2; CE: 30; R=17500; [M+H]+
Name: Glandicoline B
Name: (3E)-2,6,12-Trihydroxy-3-(1H-imidazol-5-ylmethylene)-7a-(2-methyl-3-buten-2-yl)-7a,12-dihydro-3H,5H-imidazo[1',2':1,2]pyrido[2,3-b]indol-5-one
Class: Natural Product; Fungal metabolite
Formula: C22H21N5O4
Exact mass: 419.15934
SMILES: C=CC(C)(C)[C@]12C=C(C(=O)N3/C(=C/c4cnc[nH]4)/C(=N[C@@]23N(c2ccccc12)O)O)O
InChI: InChI=1S/C22H21N5O4/c1-4-20(2,3)21-10-17(28)19(30)26-16(9-13-11-23-12-24-13)18(29)25-22(21,26)27(31)15-8-6-5-7-14(15)21/h4-12,28,31H,1H2,2-3H3,(H,23,24)(H,25,29)/b16-9+/t21-,22-/m0/s1
Instrument: Q-Exactive Orbitrap Thermo Scientific
Instrument type: LC-ESI-ITFT
Ms type: MS2
Ion mode: POSITIVE
Ionization: ESI
Fragmentation mode: HCD
Collision energy: 30(NCE)
Resolution: 17500
Column name: Agilent RRHD Eclipse 50 x 2 mm, 1.8 uM
Retention time: 2.6
Base peak: 289.0722
Precursor m/z: 420.1661
Precursor type: [M+H]+
m/z	relative intensity	assigned
234.09	86	
261.0771	351	
262.0849	82	
263.0927	58	
289.072	999	
290.0798	49	
306.0999	49	C18H14N2O3+
307.0826	52	
318.0747	208	
334.0948	246	
335.1026	287	
351.0962	95	
