Mass spectrum: Aflatoxin M1; LC-ESI-ITFT; MS2; CE: 35; R=17500; [M+H]+
Name: Aflatoxin M1
Name: (6aR,9aR)-9a-Hydroxy-4-methoxy-2,3,6a,9a-tetrahydrocyclopenta[c]furo[3',2':4,5]furo[2,3-h]chromene-1,11-dione
Class: Natural Product; Fungal metabolite
Formula: C17H12O7
Exact mass: 328.05828
SMILES: COC1=C2C3=C(C(=O)CC3)C(=O)OC2=C4C(=C1)O[C@@H]5[C@]4(C=CO5)O
InChI: InChI=1S/C17H12O7/c1-21-9-6-10-13(17(20)4-5-22-16(17)23-10)14-12(9)7-2-3-8(18)11(7)15(19)24-14/h4-6,16,20H,2-3H2,1H3/t16-,17-/m1/s1
Instrument: Q-Exactive Orbitrap Thermo Scientific
Instrument type: LC-ESI-ITFT
Ms type: MS2
Ion mode: POSITIVE
Ionization: ESI
Fragmentation mode: HCD
Collision energy: 35(NCE)
Resolution: 17500
Column name: Agilent RRHD Eclipse 50 x 2 mm, 1.8 uM
Retention time: 2.8
Base peak: 273.0743
Precursor m/z: 329.065
Precursor type: [M+H]+
m/z	relative intensity	assigned
255.0652	39	
257.0808	96	
258.0523	37	
259.0601	387	
273.0757	999	
283.0601	99	
285.0393	58	
287.055	43	
301.0707	288	
329.0656	375	
