Mass spectrum: Marticin; LC-ESI-ITFT; MS2; CE: 30; R=17500; [M+H]+
Name: Marticin
Name: 2,6-Epoxy-2H-naphth(2,3-d)oxocin-4-carboxylic acid, 1,4,5,6,7,12-hexahydro-8,11-dihydroxy-10-methoxy-2-methyl-7,12-dioxo-, (2alpha,4alpha,6alpha)-(+)-
Class: Natural Product; Fungal metabolite
Formula: C18H16O9
Exact mass: 376.07941
SMILES: CC12CC3=C(C4=C(C(=O)C=C(C4=O)OC)C(=C3C(O1)CC(O2)C(=O)O)O)O
InChI: InChI=1S/C18H16O9/c1-18-5-6-11(8(26-18)4-10(27-18)17(23)24)16(22)12-7(19)3-9(25-2)15(21)13(12)14(6)20/h3,8,10,20,22H,4-5H2,1-2H3,(H,23,24)
Instrument: Q-Exactive Orbitrap Thermo Scientific
Instrument type: LC-ESI-ITFT
Ms type: MS2
Ion mode: POSITIVE
Ionization: ESI
Fragmentation mode: HCD
Collision energy: 30(NCE)
Resolution: 17500
Column name: Agilent RRHD Eclipse 50 x 2 mm, 1.8 uM
Retention time: 3.28
Base peak: 313.0719
Precursor m/z: 377.0861
Precursor type: [M+H]+
m/z	relative intensity	assigned
245.0444	211	
253.0495	94	
259.0601	157	
261.0757	48	
271.0601	488	
285.0757	316	
287.055	368	
288.0628	42	
289.0707	175	
295.0601	46	
299.055	171	
302.0785	368	
303.0863	35	
313.0707	999	
315.0863	121	
317.0656	252	
331.0812	515	
335.0761	49	
341.0656	434	
359.0761	539	
377.0867	234	
