Mass spectrum: Oxaline; LC-ESI-ITFT; MS2; CE: 40; R=17500; [M+H]+
Name: Oxaline
Class: Natural Product; Fungal metabolite
Formula: C24H25N5O4
Exact mass: 447.19064
SMILES: C=CC(C)(C)[C@]12C=C(C(=O)N3/C(=C/c4cnc[nH]4)/C(=N[C@@]23N(c2ccccc12)OC)O)OC
InChI: InChI=1S/C24H25N5O4/c1-6-22(2,3)23-12-19(32-4)21(31)28-18(11-15-13-25-14-26-15)20(30)27-24(23,28)29(33-5)17-10-8-7-9-16(17)23/h6-14H,1H2,2-5H3,(H,25,26)(H,27,30)/b18-11+/t23-,24-/m0/s1
Instrument: Q-Exactive Orbitrap Thermo Scientific
Instrument type: LC-ESI-ITFT
Ms type: MS2
Ion mode: POSITIVE
Ionization: ESI
Fragmentation mode: HCD
Collision energy: 40(NCE)
Resolution: 17500
Column name: Agilent RRHD Eclipse 50 x 2 mm, 1.8 uM
Retention time: 2.73
Base peak: 348.1085
Precursor m/z: 448.1974
Precursor type: [M+H]+
m/z	relative intensity	assigned
108.0556	43	
111.0553	34	
119.024	44	
161.0458	49	
162.0298	32	
197.0709	92	
204.0516	135	
214.0737	64	
214.1226	153	
256.1332	106	
260.0931	39	
261.0771	133	
263.0927	80	
274.0849	211	
275.0927	34	
277.1084	205	
281.1285	37	
288.088	92	
289.072	571	
305.1033	202	
306.0985	54	
316.0829	448	
317.0907	380	
318.0985	62	
320.1142	87	
330.0985	58	
332.0904	393	
333.087	93	
334.0934	42	
342.1349	49	
344.1506	40	
348.1091	999	
349.1169	96	
358.1662	137	
370.1298	66	C21H16N5O2+
374.1611	249	
386.1611	223	
402.1561	68	
