Mass spectrum: Fumonisin La4; LC-ESI-ITFT; MS2; CE: 55; R=17500; [M-H]-
Name: Fumonisin La4
Class: Natural Product; Fungal metabolite
Formula: C34H58O14
Exact mass: 690.38265
SMILES: CCCC[C@H]([C@@H](OC(C[C@H](C(O)=O)CC(O)=O)=O)[C@@H](OC(C[C@H](C(O)=O)CC(O)=O)=O)C[C@H](CCCCCCCC[C@H](O)C(O)C)C)C
InChI: InChI=1S/C34H58O14/c1-5-6-14-22(3)32(48-31(42)20-25(34(45)46)18-29(39)40)27(47-30(41)19-24(33(43)44)17-28(37)38)16-21(2)13-11-9-7-8-10-12-15-26(36)23(4)35/h21-27,32,35-36H,5-20H2,1-4H3,(H,37,38)(H,39,40)(H,43,44)(H,45,46)/t21-,22+,23?,24+,25+,26-,27-,32+/m0/s1
Instrument: Q-Exactive Orbitrap Thermo Scientific
Instrument type: LC-ESI-ITFT
Ms type: MS2
Ion mode: NEGATIVE
Ionization: ESI
Fragmentation mode: HCD
Collision energy: 55(NCE)
Resolution: 17500
Column name: Agilent RRHD Eclipse 50 x 2 mm, 1.8 uM
Retention time: 3.64
Base peak: 69.0328
Precursor m/z: 689.3759
Precursor type: [M-H]-
m/z	relative intensity	assigned
51.6054	65	
69.0328	999	
71.0121	88	
75.7627	60	
87.1582	73	
112.7982	69	
113.0225	384	
157.0124	607	
176.0326	92	
190.0483	76	
329.6878	86	
424.8189	83	
684.9815	94	
