Mass spectrum: Progesterone; LC-ESI-QQQ; MS; [M+H]+
Name: Progesterone
Class: Steroids
Formula: C21H30O2
Exact mass: 314.4721
SMILES: CC(=O)C1CCC2C3CCC4=CC(=O)CC[C@]4(C)C3CC[C@]12C
InChI: InChI=1S/C21H30O2/c1-13(22)17-6-7-18-16-5-4-14-12-15(23)8-10-20(14,2)19(16)9-11-21(17,18)3/h12,16-19H,4-11H2,1-3H3/t16?,17?,18?,19?,20-,21+/m0/s1
Instrument: ABSciex API3200 LC/MS system
Instrument type: LC-ESI-QQQ
Ms type: MS
Ion mode: POSITIVE
Precursor type: [M+H]+
m/z	relative intensity
100.6000	38
100.7000	53
100.8000	77
100.9000	67
101.0000	54
101.1000	54
101.2000	41
101.3000	25
108.5000	67
108.6000	120
108.7000	142
108.8000	141
108.9000	142
109.0000	147
109.1000	151
109.2000	123
109.3000	115
109.4000	101
109.5000	56
122.9000	22
215.1000	22
254.8000	23
255.0000	22
255.2000	22
278.7000	23
278.8000	26
278.9000	26
279.0000	29
279.1000	29
279.2000	29
279.3000	25
279.4000	23
279.5000	21
296.6000	54
296.7000	74
296.8000	80
296.9000	85
297.0000	93
297.1000	75
297.2000	78
297.3000	85
297.4000	65
297.5000	75
297.6000	36
297.7000	25
314.4000	65
314.5000	378
314.6000	785
314.7000	960
314.8000	980
314.9000	977
315.0000	999
315.1000	958
315.2000	971
315.3000	892
315.4000	821
315.5000	715
315.6000	439
315.7000	425
315.8000	429
315.9000	444
316.0000	500
316.1000	421
316.2000	506
316.3000	422
316.4000	313
316.5000	275
316.6000	122
316.7000	93
316.8000	93
316.9000	80
317.0000	94
317.1000	76
317.2000	80
317.3000	75
317.4000	66
317.5000	53
317.6000	21
355.5000	27
355.6000	57
355.7000	89
355.8000	116
355.9000	105
356.0000	100
356.1000	92
356.2000	87
356.3000	73
356.4000	69
356.5000	63
356.6000	35
356.7000	22
356.8000	25
356.9000	24
357.0000	27
357.1000	23
357.2000	24
357.3000	22
628.7000	45
628.8000	127
628.9000	93
629.0000	86
629.1000	84
629.2000	86
629.3000	80
629.4000	66
629.5000	68
629.6000	34
629.7000	30
629.8000	27
629.9000	38
630.0000	43
630.1000	43
630.2000	35
630.3000	36
630.4000	32
630.5000	25
