Mass spectrum: 3-Isoreserpine; LC-ESI-QQQ; MS; [M+H]+
Name: 3-Epireserpine
Name: 3-Isoreserpine
Name: Mepireserpate
Name: (1S,13bS,14aS,4aS,2R,3R)-2,11-dimethoxy-1-(methoxycarbonyl)-1,2,3,4,5,8,14,13b,14a,4a-decahydrobenzo(3,4-g)indolo(2,3-a)quinolizin-3-yl 3,4,5-trimethoxybenzoate
Class: Alkaloids
Formula: C33H40N2O9
Exact mass: 608.6947
SMILES: COC(=O)[C@H]1[C@H]2C[C@H]3c4[nH]c5cc(OC)ccc5c4CCN3C[C@H]2C[C@@H](OC(=O)c2cc(OC)c(OC)c(OC)c2)[C@@H]1OC
InChI: InChI=1S/C33H40N2O9/c1-38-19-7-8-20-21-9-10-35-16-18-13-27(44-32(36)17-11-25(39-2)30(41-4)26(12-17)40-3)31(42-5)28(33(37)43-6)22(18)15-24(35)29(21)34-23(20)14-19/h7-8,11-12,14,18,22,24,27-28,31,34H,9-10,13,15-16H2,1-6H3/t18-,22+,24+,27-,28+,31+/m1/s1
Instrument: ABSciex API3200 LC/MS system
Instrument type: LC-ESI-QQQ
Ms type: MS
Ion mode: POSITIVE
Precursor type: [M+H]+
m/z	relative intensity
101.2000	36
101.3000	39
101.4000	40
101.5000	33
101.6000	31
608.8000	28
608.9000	25
609.3000	197
609.4000	701
609.5000	867
609.6000	942
609.7000	981
609.8000	999
609.9000	871
610.0000	390
610.1000	172
610.2000	77
610.3000	62
610.4000	258
610.5000	453
610.6000	547
610.7000	626
610.8000	644
610.9000	488
611.0000	174
611.1000	65
611.2000	32
611.3000	24
611.4000	87
611.5000	134
611.6000	173
611.7000	215
611.8000	209
611.9000	155
612.0000	52
612.5000	29
612.6000	33
612.7000	40
612.8000	50
612.9000	33
627.7000	29
627.8000	29
641.5000	35
641.6000	41
641.7000	52
641.8000	55
641.9000	30
1217.9000	28
1218.0000	24
1218.1000	46
1218.2000	66
1218.3000	50
1219.0000	21
1219.1000	38
1219.2000	51
1219.3000	42
1220.2000	21
