Mass spectrum: Convolidine; LC-ESI-QQQ; MS; [M+H]+
Name: (5S,1R)-8-azabicyclo(3.2.1)oct-3-yl 4-hydroxy-3-methoxybenzoate
Name: Convolidine
Class: Alkaloids
Formula: C15H19NO4
Exact mass: 277.323
SMILES: COc1cc(C(=O)O[C@@H]2C[C@@H]3CC[C@H](C2)N3)ccc1O
InChI: InChI=1S/C15H19NO4/c1-19-14-6-9(2-5-13(14)17)15(18)20-12-7-10-3-4-11(8-12)16-10/h2,5-6,10-12,16-17H,3-4,7-8H2,1H3/t10-,11+,12+
Instrument: ABSciex API3200 LC/MS system
Instrument type: LC-ESI-QQQ
Ms type: MS
Ion mode: POSITIVE
Precursor type: [M+H]+
m/z	relative intensity
109.5000	35
109.6000	80
109.7000	124
109.8000	112
109.9000	177
110.0000	121
110.1000	154
110.2000	136
110.3000	168
110.4000	127
110.5000	60
110.8000	24
123.8000	29
123.9000	33
124.0000	21
124.2000	21
124.3000	23
142.1000	28
142.2000	22
150.7000	23
150.8000	25
150.9000	25
151.0000	31
151.1000	28
151.2000	25
151.4000	26
277.4000	193
277.5000	506
277.6000	865
277.7000	929
277.8000	973
277.9000	999
278.0000	973
278.1000	958
278.2000	862
278.3000	879
278.4000	814
278.5000	529
278.6000	380
278.7000	359
278.8000	310
278.9000	316
279.0000	299
279.1000	329
279.2000	302
279.3000	268
279.4000	253
279.5000	146
279.6000	66
279.7000	55
279.8000	47
279.9000	43
280.0000	53
280.1000	36
280.2000	49
280.3000	33
280.4000	34
291.5000	43
291.6000	92
291.7000	105
291.8000	137
291.9000	157
292.0000	148
292.1000	141
292.2000	151
292.3000	116
292.4000	104
292.5000	68
292.6000	29
292.7000	30
292.8000	37
292.9000	30
293.0000	39
293.1000	29
293.2000	24
293.3000	29
