Mass spectrum: 1alpha-Hydroxy-1-desoxotamirin; LC-ESI-QQQ; MS; [M+H]+
Name: 1alpha-Hydroxy-1-desoxotamirin
Class: Terpenoids
Formula: C15H20O4
Exact mass: 264.3243
SMILES: C=C1C(=O)O[C@H]2CC(=C)[C@H](O)CC/C(C)=C/[C@@H](O)C12
InChI: InChI=1S/C15H20O4/c1-8-4-5-11(16)9(2)7-13-14(12(17)6-8)10(3)15(18)19-13/h6,11-14,16-17H,2-5,7H2,1H3/b8-6+/t11-,12-,13+,14?/m1/s1
Instrument: ABSciex API3200 LC/MS system
Instrument type: LC-ESI-QQQ
Ms type: MS
Ion mode: POSITIVE
Precursor type: [M+H]+
m/z	relative intensity
100.8000	207
100.9000	152
101.0000	238
101.1000	120
101.2000	109
104.5000	30
104.6000	86
104.7000	94
104.8000	111
104.9000	107
105.0000	130
105.1000	117
105.2000	125
105.3000	98
105.4000	85
105.5000	60
106.5000	45
106.6000	60
106.7000	72
106.8000	67
106.9000	72
107.0000	100
107.1000	95
107.2000	79
107.3000	79
107.4000	50
107.5000	30
108.7000	27
108.8000	29
109.0000	25
109.2000	28
114.0000	31
114.2000	42
114.6000	33
114.7000	23
114.8000	39
114.9000	30
115.0000	33
115.1000	35
115.2000	37
115.3000	28
116.8000	28
117.0000	23
117.1000	25
117.2000	28
119.3000	55
119.5000	34
120.5000	22
120.6000	21
120.8000	28
121.0000	22
121.1000	36
121.3000	22
122.5000	60
122.6000	111
122.7000	138
122.8000	176
122.9000	165
123.0000	179
123.1000	180
123.2000	137
123.3000	136
123.4000	140
123.5000	64
127.6000	29
127.9000	23
128.1000	23
128.6000	22
128.7000	35
128.8000	28
128.9000	29
129.1000	36
129.2000	22
129.3000	21
130.6000	72
130.7000	81
130.8000	78
130.9000	95
131.0000	89
131.1000	100
131.2000	98
131.3000	89
131.4000	70
131.5000	47
132.1000	31
132.4000	39
132.5000	297
132.6000	525
132.7000	714
132.8000	705
132.9000	772
133.0000	832
133.1000	884
133.2000	798
133.3000	701
133.4000	551
133.5000	384
133.6000	117
133.7000	68
133.8000	96
133.9000	73
134.0000	105
134.1000	104
134.2000	106
134.3000	84
134.4000	73
134.5000	32
134.8000	28
134.9000	57
135.0000	57
135.1000	33
135.2000	37
136.6000	63
136.7000	77
136.8000	86
136.9000	67
137.0000	30
137.1000	31
137.2000	22
137.3000	23
137.4000	23
137.5000	21
140.5000	34
140.6000	29
140.7000	42
140.8000	36
140.9000	46
141.0000	59
141.1000	37
141.2000	44
141.3000	29
141.4000	53
141.5000	40
141.6000	46
141.7000	69
141.8000	42
142.2000	27
142.4000	72
142.5000	69
142.6000	103
142.7000	116
142.8000	149
142.9000	165
143.0000	173
143.1000	173
143.2000	127
143.3000	95
143.4000	84
143.5000	57
143.6000	28
143.8000	22
144.2000	21
144.5000	27
144.6000	58
144.7000	62
144.8000	85
144.9000	98
145.0000	105
145.1000	103
145.2000	66
145.3000	72
145.4000	47
145.5000	34
146.7000	26
146.9000	35
147.1000	33
147.2000	32
147.3000	32
147.4000	21
148.8000	31
149.9000	23
150.0000	40
150.2000	27
150.5000	90
150.6000	251
150.7000	270
150.8000	340
150.9000	288
151.0000	324
151.1000	281
151.2000	316
151.3000	269
151.4000	247
151.5000	154
151.6000	49
151.7000	43
151.8000	49
151.9000	41
152.0000	43
152.1000	53
152.2000	34
152.3000	49
152.5000	49
153.1000	23
154.5000	31
154.6000	44
154.7000	76
154.8000	48
154.9000	43
155.0000	63
155.1000	45
155.2000	46
155.3000	44
155.4000	26
156.6000	51
156.7000	67
156.8000	99
156.9000	78
157.0000	104
157.1000	95
157.2000	74
157.3000	67
157.4000	47
157.5000	38
157.9000	28
158.5000	32
158.6000	46
158.7000	64
158.8000	87
158.9000	77
159.0000	63
159.1000	83
159.2000	64
159.3000	51
159.4000	65
159.5000	21
160.7000	38
160.8000	43
160.9000	44
161.0000	24
161.1000	26
161.2000	39
161.3000	29
167.6000	54
167.7000	52
167.8000	45
167.9000	42
168.0000	57
168.1000	56
168.2000	40
168.3000	36
168.4000	39
168.5000	25
168.6000	21
168.7000	24
168.8000	27
168.9000	27
169.0000	37
169.1000	28
169.2000	25
170.8000	23
170.9000	24
171.0000	24
172.5000	52
172.6000	107
172.7000	139
172.8000	167
172.9000	195
173.0000	196
173.1000	155
173.2000	138
173.3000	132
173.4000	107
173.5000	50
173.6000	21
173.7000	28
174.4000	22
174.7000	21
174.9000	21
175.0000	21
182.4000	32
182.5000	139
182.6000	280
182.7000	305
182.8000	350
182.9000	335
183.0000	337
183.1000	361
183.2000	471
183.3000	311
183.4000	227
183.5000	134
183.6000	65
183.7000	51
183.8000	46
183.9000	40
184.0000	42
184.1000	41
184.2000	50
184.3000	43
184.4000	44
184.5000	25
184.6000	57
184.7000	56
184.8000	59
184.9000	51
185.0000	65
185.1000	56
185.2000	33
185.3000	49
185.4000	50
185.5000	32
186.6000	37
186.7000	51
186.8000	57
186.9000	53
187.0000	58
187.1000	42
187.2000	42
187.3000	60
187.4000	33
187.5000	21
188.5000	38
188.6000	40
188.7000	30
188.8000	31
188.9000	34
189.0000	46
189.1000	33
189.2000	30
189.3000	28
189.4000	27
192.7000	22
192.8000	25
192.9000	43
193.0000	41
193.1000	35
193.2000	24
193.4000	26
200.5000	129
200.6000	366
200.7000	459
200.8000	503
200.9000	623
201.0000	546
201.1000	753
201.2000	694
201.3000	497
201.4000	434
201.5000	311
201.6000	95
201.7000	82
201.8000	94
201.9000	81
202.0000	87
202.1000	82
202.2000	86
202.3000	91
202.4000	83
202.5000	71
202.6000	56
202.7000	66
202.8000	70
202.9000	67
203.0000	85
203.1000	79
203.2000	72
203.3000	70
203.4000	65
203.5000	37
203.6000	22
204.0000	21
204.2000	23
210.5000	54
210.6000	99
210.7000	131
210.8000	121
210.9000	112
211.0000	149
211.1000	147
211.2000	123
211.3000	117
211.4000	104
211.5000	75
211.6000	28
211.7000	23
212.0000	22
212.2000	25
218.5000	61
218.6000	122
218.7000	190
218.8000	219
218.9000	171
219.0000	224
219.1000	214
219.2000	199
219.3000	250
219.4000	152
219.5000	88
219.6000	36
219.7000	31
219.8000	29
219.9000	24
220.0000	23
220.3000	27
220.7000	25
220.8000	42
228.4000	33
228.5000	301
228.6000	678
228.7000	850
228.8000	847
228.9000	885
229.0000	966
229.1000	905
229.2000	999
229.3000	860
229.4000	814
229.5000	425
229.6000	192
229.7000	149
229.8000	161
229.9000	174
230.0000	165
230.1000	183
230.2000	254
230.3000	169
230.4000	127
230.5000	66
230.6000	30
230.7000	26
230.9000	26
231.0000	28
231.1000	28
231.2000	29
231.4000	22
246.4000	75
246.5000	357
246.6000	582
246.7000	736
246.8000	727
246.9000	751
247.0000	831
247.1000	777
247.2000	771
247.3000	720
247.4000	616
247.5000	396
247.6000	188
247.7000	143
247.8000	149
247.9000	105
248.0000	116
248.1000	131
248.2000	126
248.3000	118
248.4000	112
248.5000	43
248.6000	21
248.9000	27
249.1000	26
264.4000	28
264.5000	174
264.6000	373
264.7000	520
264.8000	582
264.9000	711
265.0000	632
265.1000	659
265.2000	633
265.3000	566
265.4000	505
265.5000	245
265.6000	144
265.7000	117
265.8000	84
265.9000	102
266.0000	126
266.1000	116
266.2000	97
266.3000	90
266.4000	83
266.5000	52
266.8000	23
267.0000	21
281.5000	138
281.6000	361
281.7000	476
281.8000	510
281.9000	660
282.0000	615
282.1000	560
282.2000	556
282.3000	509
282.4000	464
282.5000	327
282.6000	183
282.7000	137
282.8000	84
282.9000	98
283.0000	103
283.1000	116
283.2000	121
283.3000	104
283.4000	81
283.5000	71
283.6000	24
283.7000	27
284.4000	27
296.8000	21
305.5000	157
305.6000	344
305.7000	480
305.8000	467
305.9000	508
306.0000	512
306.1000	496
306.2000	472
306.3000	423
306.4000	334
306.5000	145
306.6000	67
306.7000	91
306.8000	98
306.9000	94
307.0000	85
307.1000	79
307.2000	69
307.3000	83
307.4000	63
307.5000	31
307.7000	28
309.9000	24
310.1000	26
310.2000	24
323.9000	26
324.0000	30
343.2000	24
432.7000	22
510.7000	29
510.8000	29
510.9000	47
511.0000	39
511.1000	40
511.2000	30
511.3000	27
511.4000	31
528.5000	83
528.6000	335
528.7000	560
528.8000	557
528.9000	786
529.0000	669
529.1000	615
529.2000	538
529.3000	518
529.4000	487
529.5000	214
529.6000	162
529.7000	196
529.8000	232
529.9000	266
530.0000	215
530.1000	216
530.2000	224
530.3000	190
530.4000	184
530.5000	90
530.6000	38
530.7000	59
530.8000	51
530.9000	60
531.0000	77
531.1000	67
531.2000	51
531.3000	37
531.4000	29
531.5000	24
545.5000	21
545.6000	63
545.7000	140
545.8000	140
545.9000	174
546.0000	161
546.1000	178
546.2000	168
546.3000	155
546.4000	114
546.5000	72
546.6000	37
546.7000	64
546.8000	105
546.9000	85
547.0000	55
547.1000	78
547.2000	76
547.3000	60
547.4000	57
547.5000	33
547.9000	24
548.2000	21
809.7000	26
809.8000	23
809.9000	24
810.0000	25
810.1000	22
