Mass spectrum: Guan-fu base Y; LC-ESI-QQQ; MS; [M+H]+
Name: Guanfu base Y
Name: 11,13,14-trihydroxyhetisan-2-yl acetate
Name: (1S,3S,16S,19S,10R,14R)-9,10,19-trihydroxy-5-methyl-12-methylene-7-azaheptacyclo(9.6.2.0(1,8).0(5,17).0(7,16).0(9,14).0(14,18))nonadec-3-yl acetate
Name: Guan-fu base Y
Class: Alkaloids
Formula: C22H29NO5
Exact mass: 387.4801
SMILES: C=C1C[C@@]23CC4C5C6(C)C[C@H](OC(C)=O)CC57C2[C@H](O)C1[C@@H](O)[C@]3(O)[C@H]7N4C6
InChI: InChI=1S/C22H29NO5/c1-9-4-20-7-12-15-19(3)5-11(28-10(2)24)6-21(15)16(20)14(25)13(9)17(26)22(20,27)18(21)23(12)8-19/h11-18,25-27H,1,4-8H2,2-3H3/t11-,12?,13?,14+,15?,16?,17+,18-,19?,20+,21?,22-/m0/s1
Instrument: ABSciex API3200 LC/MS system
Instrument type: LC-ESI-QQQ
Ms type: MS
Ion mode: POSITIVE
Precursor type: [M+H]+
m/z	relative intensity
291.6000	27
291.7000	32
291.8000	39
291.9000	45
292.0000	48
292.1000	41
292.2000	39
292.3000	40
292.4000	38
327.8000	24
327.9000	24
328.1000	24
351.6000	21
351.7000	32
351.8000	34
351.9000	30
352.0000	29
352.1000	28
352.2000	26
352.3000	22
352.4000	25
387.3000	23
387.4000	282
387.5000	687
387.6000	917
387.7000	966
387.8000	991
387.9000	997
388.0000	999
388.1000	994
388.2000	974
388.3000	902
388.4000	893
388.5000	727
388.6000	409
388.7000	421
388.8000	407
388.9000	438
389.0000	449
389.1000	450
389.2000	464
389.3000	419
389.4000	409
389.5000	218
389.6000	151
389.7000	129
389.8000	118
389.9000	124
390.0000	140
390.1000	121
390.2000	122
390.3000	111
390.4000	98
390.5000	60
390.6000	25
390.7000	21
