Mass spectrum: Lasalocid A Na salt; LC-ESI-QQQ; MS; [M+H]+
Name: Lasalocid A Na salt
Class: Polyketide
Formula: C34H53NaO8
Exact mass: 612.7865
SMILES: CC[C@@H](C(=O)[C@@H](C)[C@@H](O)[C@H](C)CCc1ccc(C)c([O-])c1C(=O)O)[C@H]1O[C@](CC)([C@H]2CC[C@](O)(CC)[C@H](C)O2)C[C@@H]1C.[Na+]
InChI: InChI=1S/C34H54O8.Na/c1-9-25(31-21(6)18-34(11-3,42-31)26-16-17-33(40,10-2)23(8)41-26)30(37)22(7)28(35)19(4)12-14-24-15-13-20(5)29(36)27(24)32(38)39;/h13,15,19,21-23,25-26,28,31,35-36,40H,9-12,14,16-18H2,1-8H3,(H,38,39);/q;+1/p-1/t19-,21+,22+,23+,25+,26-,28+,31+,33-,34+;/m1./s1
Instrument: ABSciex API3200 LC/MS system
Instrument type: LC-ESI-QQQ
Ms type: MS
Ion mode: POSITIVE
Precursor type: [M+H]+
m/z	relative intensity
136.7000	22
136.8000	28
137.0000	22
137.1000	21
200.7000	26
200.9000	26
201.0000	23
201.2000	23
201.3000	21
218.5000	34
218.6000	53
218.7000	81
218.8000	91
218.9000	70
219.0000	88
219.1000	85
219.2000	83
219.3000	68
219.4000	100
219.5000	63
219.6000	23
219.8000	22
236.5000	79
236.6000	218
236.7000	272
236.8000	294
236.9000	273
237.0000	295
237.1000	270
237.2000	256
237.3000	227
237.4000	220
237.5000	196
237.6000	80
237.7000	52
237.8000	34
237.9000	50
238.0000	53
238.1000	58
238.2000	53
238.3000	49
238.4000	65
238.5000	32
254.5000	37
254.6000	45
254.7000	73
254.8000	71
254.9000	117
255.0000	88
255.1000	66
255.2000	102
255.3000	69
255.4000	90
255.5000	82
255.6000	37
255.7000	22
255.9000	23
262.8000	23
263.3000	25
280.7000	27
280.8000	26
280.9000	42
281.0000	41
281.1000	43
281.2000	50
281.3000	43
281.4000	23
281.5000	37
281.6000	21
301.0000	24
318.6000	71
318.7000	95
318.8000	115
318.9000	121
319.0000	103
319.1000	108
319.2000	102
319.3000	86
319.4000	82
319.5000	65
319.6000	45
319.9000	24
320.0000	27
320.2000	24
336.5000	82
336.6000	231
336.7000	398
336.8000	499
336.9000	490
337.0000	551
337.1000	520
337.2000	479
337.3000	361
337.4000	411
337.5000	387
337.6000	190
337.7000	121
337.8000	149
337.9000	160
338.0000	127
338.1000	128
338.2000	114
338.3000	139
338.4000	102
338.5000	82
338.6000	53
338.7000	29
338.8000	26
338.9000	25
354.6000	21
354.7000	35
354.8000	37
354.9000	35
355.0000	37
355.1000	46
355.2000	49
355.3000	24
355.4000	30
355.5000	24
536.7000	31
536.8000	41
536.9000	46
537.0000	46
537.1000	32
537.2000	49
537.3000	51
537.4000	42
537.5000	28
537.9000	26
554.6000	69
554.7000	135
554.8000	189
554.9000	222
555.0000	262
555.1000	219
555.2000	247
555.3000	212
555.4000	179
555.5000	129
555.6000	57
555.7000	90
555.8000	77
555.9000	116
556.0000	93
556.1000	92
556.2000	97
556.3000	98
556.4000	80
556.5000	36
557.0000	23
557.1000	22
557.2000	23
557.3000	46
557.4000	39
572.5000	43
572.6000	149
572.7000	330
572.8000	284
572.9000	367
573.0000	388
573.1000	381
573.2000	409
573.3000	388
573.4000	313
573.5000	244
573.6000	116
573.7000	141
573.8000	162
573.9000	173
574.0000	179
574.1000	138
574.2000	160
574.3000	155
574.4000	108
574.5000	88
574.6000	29
574.7000	35
574.8000	34
574.9000	40
575.0000	37
575.1000	40
575.2000	26
575.3000	40
575.4000	32
590.5000	52
590.6000	194
590.7000	387
590.8000	516
590.9000	573
591.0000	619
591.1000	577
591.2000	586
591.3000	565
591.4000	454
591.5000	314
591.6000	139
591.7000	166
591.8000	229
591.9000	205
592.0000	255
592.1000	243
592.2000	251
592.3000	228
592.4000	202
592.5000	135
592.6000	70
592.7000	53
592.8000	67
592.9000	64
593.0000	76
593.1000	57
593.2000	59
593.3000	63
593.4000	60
593.5000	32
607.4000	30
607.5000	97
607.6000	323
607.7000	629
607.8000	823
607.9000	890
608.0000	947
608.1000	999
608.2000	875
608.3000	891
608.4000	810
608.5000	539
608.6000	275
608.7000	338
608.8000	313
608.9000	373
609.0000	420
609.1000	352
609.2000	348
609.3000	369
609.4000	288
609.5000	256
609.6000	95
609.7000	79
609.8000	73
609.9000	83
610.0000	98
610.1000	90
610.2000	104
610.3000	97
610.4000	59
610.5000	50
611.0000	25
611.1000	27
612.6000	44
612.7000	98
612.8000	86
612.9000	106
613.0000	109
613.1000	106
613.2000	115
613.3000	113
613.4000	77
613.5000	39
613.6000	21
613.7000	38
613.8000	45
613.9000	43
614.0000	39
614.1000	37
614.2000	46
614.3000	45
614.4000	38
621.9000	27
622.3000	21
1180.9000	23
1181.2000	26
1181.3000	21
1181.4000	27
1181.6000	21
1181.7000	23
1182.0000	22
1182.3000	21
1197.4000	36
1197.5000	86
1197.6000	91
1197.7000	130
1197.8000	169
1197.9000	185
1198.0000	172
1198.1000	203
1198.2000	199
1198.3000	206
1198.4000	233
1198.5000	232
1198.6000	235
1198.7000	160
1198.8000	169
1198.9000	171
1199.0000	150
1199.1000	159
1199.2000	148
1199.3000	162
1199.4000	181
1199.5000	149
1199.6000	138
1199.7000	136
1199.8000	77
1199.9000	88
1200.0000	65
1200.1000	80
1200.2000	68
1200.3000	73
1200.4000	80
1200.5000	56
1200.6000	54
1200.7000	62
1200.8000	27
1200.9000	21
1201.0000	39
1201.1000	25
1201.2000	24
1201.3000	21
1201.4000	27
1201.5000	30
1201.7000	21
