Mass spectrum: Salutaridine; LC-ESI-QQQ; MS; [M+H]+
Name: Salutaridine
Class: Alkaloids
Formula: C19H21NO4
Exact mass: 327.3835
SMILES: COC1=CC23CCN(C)C(Cc4ccc(OC)c(O)c42)C3=CC1=O
InChI: InChI=1S/C19H21NO4/c1-20-7-6-19-10-16(24-3)14(21)9-12(19)13(20)8-11-4-5-15(23-2)18(22)17(11)19/h4-5,9-10,13,22H,6-8H2,1-3H3
Instrument: ABSciex API3200 LC/MS system
Instrument type: LC-ESI-QQQ
Ms type: MS
Ion mode: POSITIVE
Precursor type: [M+H]+
m/z	relative intensity
101.1000	35
101.2000	48
101.3000	60
101.4000	37
191.6000	28
191.7000	39
191.8000	44
191.9000	50
192.0000	45
192.1000	42
192.2000	47
192.3000	39
192.4000	31
206.7000	28
206.8000	23
206.9000	25
207.0000	27
207.1000	27
207.2000	27
207.3000	29
210.6000	26
210.7000	25
210.8000	22
210.9000	26
211.0000	29
211.1000	34
211.2000	27
211.3000	24
211.4000	25
236.5000	37
236.6000	42
236.7000	39
236.8000	52
236.9000	62
237.0000	49
237.1000	45
237.2000	47
237.3000	40
237.4000	37
238.5000	31
238.6000	40
238.7000	44
238.8000	40
238.9000	49
239.0000	50
239.1000	48
239.2000	44
239.3000	38
239.4000	36
264.5000	25
264.6000	43
264.7000	48
264.8000	51
264.9000	54
265.0000	62
265.1000	55
265.2000	47
265.3000	38
265.4000	41
269.8000	21
270.0000	23
270.1000	28
270.2000	21
271.1000	21
284.5000	21
284.6000	48
284.7000	64
284.8000	40
284.9000	38
285.0000	38
285.1000	43
285.2000	42
285.3000	45
285.4000	38
296.7000	23
296.8000	23
297.0000	26
297.2000	23
327.3000	23
327.4000	257
327.5000	664
327.6000	903
327.7000	950
327.8000	935
327.9000	999
328.0000	870
328.1000	867
328.2000	831
328.3000	740
328.4000	695
328.5000	401
328.6000	317
328.7000	284
328.8000	330
328.9000	317
329.0000	304
329.1000	334
329.2000	353
329.3000	297
329.4000	278
329.5000	134
329.6000	74
329.7000	80
329.8000	72
329.9000	72
330.0000	75
330.1000	61
330.2000	70
330.3000	62
330.4000	55
330.5000	26
368.6000	21
368.7000	33
368.8000	39
368.9000	52
369.0000	35
369.1000	31
369.2000	34
369.3000	32
369.4000	36
654.6000	24
654.7000	28
654.8000	28
654.9000	39
655.0000	34
655.1000	33
655.2000	37
655.3000	25
