Mass spectrum: Songorine; LC-ESI-QQQ; MS; [M+H]+
Name: Songorine
Class: Alkaloids
Formula: C22H31NO3
Exact mass: 357.49727000000007
SMILES: C=C1[C@H]2C[C@]3(C4C[C@@H]5[C@@]6(C)CC[C@H](O)[C@@]5(C4N(CC)C6)[C@@H]3CC2=O)[C@@H]1O
InChI: InChI=1S/C22H31NO3/c1-4-23-10-20(3)6-5-17(25)22-15(20)7-13(18(22)23)21-9-12(11(2)19(21)26)14(24)8-16(21)22/h12-13,15-19,25-26H,2,4-10H2,1,3H3/t12-,13?,15-,16-,17+,18?,19-,20+,21-,22+/m1/s1
Instrument: ABSciex API3200 LC/MS system
Instrument type: LC-ESI-QQQ
Ms type: MS
Ion mode: POSITIVE
Precursor type: [M+H]+
m/z	relative intensity
220.6000	23
220.7000	26
220.9000	23
339.5000	100
339.6000	97
339.7000	104
339.8000	115
339.9000	93
340.0000	111
340.1000	110
340.2000	112
340.3000	114
340.4000	125
340.5000	68
340.6000	32
340.7000	37
340.8000	28
340.9000	31
341.0000	33
341.1000	31
341.2000	26
341.3000	31
341.4000	22
341.5000	26
357.4000	27
357.5000	379
357.6000	635
357.7000	837
357.8000	864
357.9000	895
358.0000	962
358.1000	999
358.2000	968
358.3000	876
358.4000	809
358.5000	666
358.6000	363
358.7000	361
358.8000	320
358.9000	327
359.0000	328
359.1000	322
359.2000	305
359.3000	317
359.4000	260
359.5000	211
359.6000	86
359.7000	62
359.8000	54
359.9000	65
360.0000	57
360.1000	63
360.2000	68
360.3000	53
360.4000	41
360.5000	42
