Mass spectrum: Amygdalin; LC-ESI-QQQ; MS; [M+H]+
Name: Amygdaloside
Name: Laenitrile
Name: Mandelonitrile-beta-gentiobioside
Name: Amygdalin
Class: Carbohydrates
Formula: C20H27NO11
Exact mass: 457.4383
SMILES: N#CC(O[C@@H]1O[C@H](CO[C@@H]2O[C@H](CO)[C@@H](O)[C@H](O)[C@H]2O)[C@@H](O)[C@H](O)[C@H]1O)c1ccccc1
InChI: InChI=1S/C20H27NO11/c21-6-10(9-4-2-1-3-5-9)30-20-18(28)16(26)14(24)12(32-20)8-29-19-17(27)15(25)13(23)11(7-22)31-19/h1-5,10-20,22-28H,7-8H2/t10?,11-,12-,13-,14-,15+,16+,17-,18-,19-,20-/m1/s1
Instrument: ABSciex API3200 LC/MS system
Instrument type: LC-ESI-QQQ
Ms type: MS
Ion mode: POSITIVE
Precursor type: [M+H]+
m/z	relative intensity
100.1000	49
100.2000	100
101.2000	74
106.2000	41
106.4000	25
107.3000	89
107.5000	117
107.6000	90
109.2000	38
109.3000	89
109.6000	21
110.3000	36
111.7000	24
113.2000	37
114.1000	152
114.6000	84
114.7000	56
115.2000	31
115.4000	43
115.6000	47
115.8000	22
116.3000	22
119.5000	52
119.6000	54
119.7000	62
120.1000	38
120.4000	43
120.5000	73
120.6000	59
125.1000	31
125.2000	81
125.3000	74
125.4000	27
125.5000	56
125.6000	77
125.7000	80
126.6000	23
126.8000	26
127.1000	155
127.2000	389
127.3000	518
127.4000	612
127.5000	427
127.6000	437
127.7000	389
127.8000	59
129.5000	34
129.6000	32
130.3000	56
130.8000	21
132.3000	105
132.6000	43
132.7000	24
133.4000	46
133.5000	35
133.7000	22
134.7000	30
135.6000	123
136.5000	32
137.3000	26
145.3000	218
145.4000	139
145.5000	69
145.6000	48
145.7000	128
147.4000	44
149.2000	44
153.2000	44
153.3000	145
153.5000	24
153.6000	49
153.7000	78
163.2000	26
163.3000	216
163.4000	160
163.5000	132
163.6000	264
164.5000	36
167.6000	42
171.3000	36
171.4000	35
171.5000	74
177.6000	29
181.3000	26
184.6000	22
186.3000	27
188.6000	28
189.4000	24
192.5000	22
195.4000	27
204.7000	43
208.3000	37
211.8000	22
214.3000	35
215.4000	36
216.7000	28
217.6000	154
217.7000	21
217.8000	38
218.7000	31
219.6000	35
219.7000	22
225.4000	50
227.4000	32
227.6000	51
232.6000	27
235.3000	33
235.5000	93
236.0000	25
239.3000	176
239.4000	23
239.6000	33
240.4000	90
240.6000	103
240.9000	24
241.5000	27
241.6000	35
241.7000	26
251.5000	21
253.3000	30
253.4000	42
253.5000	41
253.6000	52
253.7000	33
257.3000	33
257.5000	55
257.8000	30
260.6000	21
269.6000	32
272.0000	28
275.4000	22
276.5000	54
278.5000	35
279.5000	26
279.7000	36
289.4000	39
289.8000	28
295.4000	67
296.2000	157
296.3000	371
296.4000	406
296.5000	548
296.6000	447
296.7000	480
296.8000	177
296.9000	30
297.2000	38
297.3000	85
297.4000	87
297.5000	41
297.6000	43
297.7000	39
298.6000	23
299.4000	27
307.6000	23
310.8000	58
311.5000	43
312.7000	26
313.3000	97
313.5000	68
313.6000	54
313.8000	79
314.2000	77
314.3000	249
314.4000	432
314.5000	446
314.6000	437
314.7000	390
314.8000	177
314.9000	69
315.3000	53
315.4000	68
315.5000	115
315.6000	63
315.7000	84
315.8000	24
316.6000	27
325.3000	36
325.4000	79
325.5000	99
325.6000	73
325.7000	54
328.3000	46
329.3000	22
329.4000	81
330.4000	31
331.5000	32
331.8000	35
332.3000	53
332.4000	111
332.5000	230
332.6000	264
332.7000	213
332.8000	146
332.9000	29
333.4000	57
333.5000	54
333.6000	53
333.7000	85
333.8000	29
333.9000	29
337.4000	27
337.5000	45
337.6000	31
337.7000	41
347.4000	47
347.6000	55
348.6000	66
349.7000	27
350.3000	56
350.4000	52
350.5000	119
350.6000	105
350.7000	84
350.8000	97
365.5000	25
367.5000	24
368.4000	36
368.5000	49
368.6000	54
368.7000	24
368.8000	37
369.6000	23
371.6000	49
371.9000	21
372.2000	36
372.6000	37
373.4000	27
379.8000	21
383.7000	52
384.5000	21
385.5000	35
386.3000	31
386.4000	49
386.5000	51
386.7000	64
386.8000	34
388.7000	46
391.5000	63
392.7000	32
404.4000	42
404.5000	30
404.6000	22
404.7000	36
422.5000	21
422.6000	39
422.8000	22
430.4000	27
440.5000	32
440.6000	42
440.8000	47
458.3000	132
458.4000	249
458.5000	443
458.6000	472
458.7000	407
458.8000	286
458.9000	52
459.3000	22
459.4000	83
459.5000	104
459.6000	50
459.7000	96
459.8000	84
460.5000	25
475.3000	211
475.4000	517
475.5000	714
475.6000	975
475.7000	999
475.8000	882
475.9000	296
476.0000	90
476.1000	35
476.2000	22
476.3000	105
476.4000	239
476.5000	288
476.6000	302
476.7000	355
476.8000	316
476.9000	111
477.0000	25
477.3000	33
477.4000	99
477.5000	86
477.6000	70
477.7000	27
477.8000	72
480.5000	37
480.6000	43
480.7000	34
480.8000	26
493.3000	22
493.5000	53
493.6000	35
493.7000	42
493.8000	26
494.5000	34
494.6000	38
494.7000	54
494.8000	54
503.4000	28
503.6000	29
503.7000	37
503.8000	27
511.4000	34
511.5000	35
511.6000	23
511.7000	37
512.4000	22
512.5000	26
512.6000	45
512.7000	56
512.8000	44
512.9000	33
530.5000	37
530.7000	29
531.7000	22
533.7000	25
536.6000	49
536.7000	45
547.6000	36
547.7000	36
547.8000	36
566.6000	23
566.8000	25
584.7000	27
584.8000	28
591.7000	21
592.6000	41
592.7000	28
592.9000	30
601.6000	27
607.7000	23
619.8000	33
620.4000	24
620.5000	38
620.6000	27
620.7000	57
620.8000	35
620.9000	23
621.4000	30
621.5000	21
638.5000	22
638.8000	32
656.8000	21
753.5000	30
753.6000	57
753.7000	49
753.8000	22
753.9000	26
754.5000	24
915.5000	34
915.6000	184
915.7000	256
915.8000	364
915.9000	387
916.0000	313
916.1000	88
916.2000	37
916.5000	23
916.6000	97
916.7000	101
916.8000	146
916.9000	178
917.0000	138
917.1000	43
917.5000	23
917.6000	41
917.7000	46
917.8000	45
917.9000	60
918.0000	47
932.6000	102
932.7000	147
932.8000	214
932.9000	272
933.0000	278
933.1000	120
933.2000	25
933.6000	74
933.7000	84
933.8000	138
933.9000	167
934.0000	186
934.1000	89
934.6000	34
934.7000	46
934.8000	54
934.9000	66
935.0000	48
935.1000	21
936.0000	21
937.8000	21
951.8000	29
951.9000	29
952.0000	34
970.1000	23
1042.0000	23
1153.7000	24
1373.3000	21
1374.1000	36
1374.2000	22
