Mass spectrum: Glycoperine; LC-ESI-QQQ; MS; [M+H]+
Name: Glycoperine
Class: Alkaloids
Formula: C19H21NO8
Exact mass: 391.3811
SMILES: COc1c2ccoc2nc2c(OC)c(O[C@H]3O[C@H](C)[C@@H](O)[C@H](O)[C@@H]3O)ccc12
InChI: InChI=1S/C19H21NO8/c1-8-13(21)14(22)15(23)19(27-8)28-11-5-4-9-12(17(11)25-3)20-18-10(6-7-26-18)16(9)24-2/h4-8,13-15,19,21-23H,1-3H3/t8-,13-,14+,15+,19-/m1/s1
Instrument: ABSciex API3200 LC/MS system
Instrument type: LC-ESI-QQQ
Ms type: MS
Ion mode: POSITIVE
Precursor type: [M+H]+
m/z	relative intensity
100.4000	47
100.5000	66
100.6000	82
100.7000	107
100.8000	102
141.6000	31
141.7000	26
230.4000	69
230.5000	178
230.6000	190
230.7000	199
230.8000	230
230.9000	289
231.0000	206
231.1000	216
231.2000	203
231.3000	182
231.4000	120
231.5000	53
231.6000	31
231.7000	32
231.8000	41
231.9000	41
232.0000	41
232.1000	39
232.2000	45
232.3000	36
232.4000	31
245.3000	26
245.4000	403
245.5000	811
245.6000	863
245.7000	909
245.8000	937
245.9000	999
246.0000	922
246.1000	854
246.2000	850
246.3000	774
246.4000	664
246.5000	308
246.6000	249
246.7000	226
246.8000	205
246.9000	215
247.0000	244
247.1000	235
247.2000	230
247.3000	211
247.4000	181
247.5000	60
247.6000	39
247.7000	37
247.8000	33
247.9000	57
248.0000	36
248.1000	29
248.2000	25
248.3000	26
391.4000	190
391.5000	391
391.6000	503
391.7000	517
391.8000	522
391.9000	518
392.0000	510
392.1000	536
392.2000	474
392.3000	420
392.4000	280
392.5000	146
392.6000	210
392.7000	155
392.8000	135
392.9000	136
393.0000	152
393.1000	160
393.2000	156
393.3000	151
393.4000	70
393.5000	27
393.6000	28
393.7000	33
393.8000	25
393.9000	32
394.0000	40
394.1000	38
394.2000	34
394.3000	31
