Mass spectrum: 2'-N-denrthyl-N-3'-methylaplysinopsin; LC-ESI-QQQ; MS; [M+H]+
Name: 2'-N-denrthyl-N-3'-methylaplysinopsin
Class: Aminoacids and peptides
Formula: C12H9N3O2
Exact mass: 227.2244
SMILES: OC1=N/C(=C\c2c[nH]c3ccccc23)C(O)=N1
InChI: InChI=1S/C12H9N3O2/c16-11-10(14-12(17)15-11)5-7-6-13-9-4-2-1-3-8(7)9/h1-6,13H,(H2,14,15,16,17)/b10-5-
Instrument: ABSciex API3200 LC/MS system
Instrument type: LC-ESI-QQQ
Ms type: MS
Ion mode: POSITIVE
Precursor type: [M+H]+
m/z	relative intensity
109.8000	21
114.4000	31
114.5000	32
114.6000	30
114.8000	27
117.7000	29
118.3000	27
129.6000	32
129.7000	49
129.8000	24
129.9000	38
130.5000	21
130.9000	25
145.7000	38
146.3000	21
149.4000	25
154.3000	27
154.4000	51
154.5000	100
154.6000	107
154.7000	100
154.8000	102
154.9000	88
155.0000	86
155.1000	123
155.2000	119
155.3000	65
155.4000	70
155.5000	69
155.6000	58
155.7000	51
155.8000	68
155.9000	55
156.0000	60
156.1000	46
156.2000	34
156.3000	59
156.4000	99
156.5000	96
156.6000	172
156.7000	243
156.8000	166
156.9000	184
157.0000	166
157.1000	180
157.2000	151
157.3000	141
157.4000	149
157.5000	46
157.6000	32
157.7000	22
157.9000	49
158.5000	24
166.6000	22
166.8000	114
170.5000	43
170.6000	44
170.7000	52
170.8000	33
170.9000	36
171.0000	89
171.1000	26
171.2000	43
171.3000	56
171.4000	57
171.5000	56
182.4000	45
182.5000	46
182.6000	40
182.7000	38
182.8000	54
182.9000	33
183.0000	46
183.1000	34
183.2000	39
183.3000	146
183.4000	98
184.4000	26
184.5000	23
184.6000	47
184.7000	62
184.8000	87
184.9000	63
185.0000	55
185.1000	41
185.2000	63
185.3000	66
185.4000	37
197.6000	148
197.7000	23
207.9000	25
225.4000	33
225.5000	108
225.6000	49
225.7000	35
225.8000	49
225.9000	37
226.0000	35
226.1000	52
226.2000	24
226.3000	96
226.4000	157
226.5000	200
226.6000	204
226.7000	205
226.8000	155
226.9000	209
227.0000	242
227.1000	227
227.2000	175
227.3000	290
227.4000	501
227.5000	689
227.6000	901
227.7000	891
227.8000	923
227.9000	842
228.0000	951
228.1000	999
228.2000	966
228.3000	770
228.4000	616
228.5000	237
228.6000	213
228.7000	157
228.8000	167
228.9000	167
229.0000	133
229.1000	209
229.2000	149
229.3000	133
229.4000	167
229.5000	27
229.7000	25
229.8000	22
230.4000	26
238.5000	32
241.3000	33
241.4000	77
241.5000	74
241.6000	67
241.7000	73
241.8000	85
241.9000	64
242.0000	76
242.1000	87
242.2000	77
242.3000	99
242.4000	65
242.5000	51
242.6000	39
242.7000	27
242.9000	24
243.5000	25
243.6000	63
243.7000	75
259.6000	29
259.7000	41
259.9000	25
261.9000	24
262.0000	27
268.3000	30
268.4000	89
268.5000	101
268.6000	146
268.7000	173
268.8000	250
268.9000	145
269.0000	138
269.1000	124
269.2000	125
269.3000	132
269.4000	101
269.5000	30
269.6000	23
270.1000	29
270.2000	29
270.3000	47
368.7000	23
454.3000	31
454.4000	33
454.5000	102
454.6000	149
454.7000	114
454.8000	159
454.9000	146
455.0000	71
455.1000	121
455.2000	99
455.3000	69
455.4000	33
455.5000	73
455.6000	25
455.7000	24
455.8000	38
456.0000	52
456.1000	21
681.5000	24
682.0000	22
682.1000	48
682.7000	40
682.8000	27
682.9000	36
908.8000	23
909.0000	23
1136.7000	24
