Mass spectrum: Piceid; LC-ESI-QQQ; MS; [M+H]+
Name: Piceid
Class: Carbohydrates
Formula: C20H22O8
Exact mass: 390.3935
SMILES: OCC1OC(Oc2cc(O)cc(/C=C/c3ccc(O)cc3)c2)C(O)C(O)C1O
InChI: InChI=1S/C20H22O8/c21-10-16-17(24)18(25)19(26)20(28-16)27-15-8-12(7-14(23)9-15)2-1-11-3-5-13(22)6-4-11/h1-9,16-26H,10H2/b2-1+
Instrument: ABSciex API3200 LC/MS system
Instrument type: LC-ESI-QQQ
Ms type: MS
Ion mode: POSITIVE
Precursor type: [M+H]+
m/z	relative intensity
100.3000	51
100.4000	75
100.5000	131
100.6000	167
100.7000	165
100.8000	156
100.9000	93
101.0000	49
101.2000	22
114.0000	25
120.4000	21
134.5000	37
134.6000	38
134.7000	73
134.8000	85
134.9000	45
135.0000	53
135.1000	62
135.2000	60
135.4000	25
141.4000	69
141.5000	270
141.6000	309
141.7000	253
141.8000	195
141.9000	216
142.0000	169
142.1000	154
142.2000	107
142.3000	81
142.4000	27
142.5000	46
228.2000	25
228.3000	134
228.4000	359
228.5000	677
228.6000	739
228.7000	878
228.8000	999
228.9000	986
229.0000	969
229.1000	865
229.2000	936
229.3000	792
229.4000	671
229.5000	272
229.6000	216
229.7000	159
229.8000	165
229.9000	150
230.0000	133
230.1000	131
230.2000	159
230.3000	136
230.4000	125
230.5000	45
230.8000	23
231.2000	26
238.7000	67
243.1000	49
390.3000	30
390.4000	163
390.5000	224
390.6000	328
390.7000	334
390.8000	294
390.9000	310
391.0000	305
391.1000	362
391.2000	241
391.3000	247
391.4000	120
391.5000	90
391.6000	80
391.7000	66
391.8000	70
391.9000	44
392.0000	43
392.1000	49
392.2000	90
392.3000	31
392.4000	38
407.8000	26
408.0000	22
408.2000	27
408.3000	35
431.7000	24
780.4000	50
780.5000	102
780.6000	66
780.7000	137
780.8000	121
780.9000	72
781.0000	147
781.1000	117
781.2000	134
781.3000	66
781.4000	40
781.5000	69
781.6000	56
781.7000	41
781.8000	40
781.9000	89
782.0000	73
782.1000	69
782.2000	56
782.7000	24
783.0000	21
