Mass spectrum: Nor-C-fluorocurarine; LC-ESI-QQQ; MS; [M+H]+
Name: Nor-C-fluorocurarine
Class: Alkaloids
Formula: C19H20N2O
Exact mass: 292.3841
SMILES: C/C=C1/CN2CCC34C(=C(C=O)[C@H]1CC23)Nc1ccccc14
InChI: InChI=1S/C19H20N2O/c1-2-12-10-21-8-7-19-15-5-3-4-6-16(15)20-18(19)14(11-22)13(12)9-17(19)21/h2-6,11,13,17,20H,7-10H2,1H3/b12-2-/t13-,17?,19?/m0/s1
Instrument: ABSciex API3200 LC/MS system
Instrument type: LC-ESI-QQQ
Ms type: MS
Ion mode: POSITIVE
Precursor type: [M+H]+
m/z	relative intensity
144.0000	23
144.1000	21
167.4000	26
167.5000	37
167.6000	47
167.7000	48
167.8000	46
167.9000	54
168.0000	47
168.1000	52
168.2000	42
168.3000	36
168.4000	46
168.5000	36
168.6000	35
168.7000	34
168.8000	35
168.9000	37
169.0000	33
169.1000	29
169.2000	25
169.3000	23
170.6000	24
170.7000	27
170.8000	30
170.9000	28
171.0000	27
171.1000	26
171.2000	22
171.4000	21
179.5000	21
179.6000	21
179.7000	24
179.8000	26
179.9000	25
180.0000	31
180.1000	30
180.4000	22
185.5000	25
185.6000	33
185.7000	42
185.8000	41
185.9000	40
186.0000	39
186.1000	38
186.2000	36
186.3000	34
186.4000	33
195.9000	22
196.0000	21
196.1000	21
198.5000	27
198.6000	37
198.7000	46
198.8000	52
198.9000	48
199.0000	48
199.1000	47
199.2000	46
199.3000	38
199.4000	33
207.4000	22
207.5000	21
207.6000	29
207.7000	32
207.8000	32
207.9000	34
208.0000	32
208.1000	33
208.2000	32
208.3000	28
208.4000	30
208.5000	23
209.0000	24
209.1000	22
209.2000	21
209.6000	23
209.7000	25
209.8000	23
209.9000	25
210.0000	25
210.1000	26
210.2000	27
210.3000	27
210.4000	30
218.5000	23
219.5000	33
219.6000	49
219.7000	55
219.8000	59
219.9000	59
220.0000	60
220.1000	56
220.2000	58
220.3000	51
220.4000	47
220.5000	29
220.9000	26
221.0000	24
221.1000	21
221.2000	21
221.3000	25
221.4000	30
221.5000	41
221.6000	51
221.7000	59
221.8000	61
221.9000	59
222.0000	60
222.1000	57
222.2000	58
222.3000	55
222.4000	50
222.5000	29
232.1000	23
232.4000	23
233.4000	21
233.5000	22
233.8000	21
233.9000	22
234.1000	25
234.2000	29
235.5000	21
235.6000	31
235.7000	43
235.8000	41
235.9000	38
236.0000	39
236.1000	41
236.2000	36
236.3000	31
236.4000	35
236.5000	25
236.6000	21
236.7000	23
236.8000	26
236.9000	24
237.0000	24
237.2000	22
237.3000	22
237.4000	25
237.5000	29
237.6000	36
237.7000	40
237.8000	43
237.9000	44
238.0000	43
238.1000	45
238.2000	43
238.3000	37
238.4000	36
238.5000	21
247.4000	22
247.5000	35
247.6000	42
247.7000	46
247.8000	50
247.9000	50
248.0000	53
248.1000	52
248.2000	48
248.3000	38
248.4000	38
248.5000	28
248.6000	26
249.2000	21
249.4000	27
249.5000	48
249.6000	58
249.7000	63
249.8000	61
249.9000	62
250.0000	65
250.1000	72
250.2000	57
250.3000	53
250.4000	52
250.5000	33
250.6000	30
250.7000	31
250.8000	38
250.9000	24
251.0000	25
251.1000	26
251.2000	26
251.3000	23
251.4000	24
263.5000	22
263.6000	29
263.7000	37
263.8000	44
263.9000	40
264.0000	42
264.1000	41
264.2000	38
264.3000	35
264.4000	41
264.5000	42
264.6000	53
264.7000	56
264.8000	59
264.9000	70
265.0000	62
265.1000	56
265.2000	71
265.3000	50
265.4000	45
265.5000	38
274.6000	22
274.7000	31
274.8000	33
274.9000	40
275.0000	28
275.1000	25
275.2000	26
275.3000	23
275.4000	23
275.5000	21
275.8000	24
292.2000	23
292.3000	67
292.4000	433
292.5000	825
292.6000	933
292.7000	960
292.8000	950
292.9000	984
293.0000	999
293.1000	988
293.2000	958
293.3000	950
293.4000	933
293.5000	653
293.6000	521
293.7000	519
293.8000	481
293.9000	503
294.0000	517
294.1000	528
294.2000	529
294.3000	501
294.4000	449
294.5000	276
294.6000	155
294.7000	136
294.8000	107
294.9000	100
295.0000	105
295.1000	107
295.2000	110
295.3000	111
295.4000	81
295.5000	44
