Mass spectrum: allopregnanolone; LC-ESI-QQQ; MS; [M+H]+
Name: allopregnanolone
Class: Steroids
Formula: C21H34O2
Exact mass: 318.5039
SMILES: CC(=O)C1CCC2C3CC[C@H]4C[C@H](O)CC[C@]4(C)C3CC[C@]12C
InChI: InChI=1S/C21H34O2/c1-13(22)17-6-7-18-16-5-4-14-12-15(23)8-10-20(14,2)19(16)9-11-21(17,18)3/h14-19,23H,4-12H2,1-3H3/t14-,15+,16?,17?,18?,19?,20-,21+/m0/s1
Instrument: ABSciex API3200 LC/MS system
Instrument type: LC-ESI-QQQ
Ms type: MS
Ion mode: POSITIVE
Precursor type: [M+H]+
m/z	relative intensity
149.2000	30
186.7000	25
189.1000	23
198.2000	29
226.7000	36
226.8000	27
226.9000	22
227.1000	38
227.2000	25
227.3000	28
227.4000	25
256.6000	28
256.7000	38
256.8000	34
256.9000	24
257.0000	38
257.1000	34
257.2000	40
257.4000	34
257.5000	28
282.5000	57
282.6000	93
282.7000	151
282.8000	151
282.9000	193
283.0000	186
283.1000	312
283.2000	999
283.3000	248
283.4000	142
283.5000	148
283.6000	74
283.7000	42
283.8000	33
283.9000	41
284.0000	35
284.1000	43
284.2000	43
284.3000	29
284.4000	21
284.5000	21
284.6000	22
300.5000	69
300.6000	232
300.7000	369
300.8000	451
300.9000	423
301.0000	414
301.1000	505
301.2000	358
301.3000	397
301.4000	321
301.5000	349
301.6000	192
301.7000	136
301.8000	124
301.9000	101
302.0000	91
302.1000	132
302.2000	104
302.3000	88
302.4000	75
302.5000	110
302.6000	80
302.7000	41
302.8000	28
318.5000	55
318.6000	110
318.7000	130
318.8000	172
318.9000	159
319.0000	153
319.1000	166
319.2000	175
319.3000	114
319.4000	98
319.5000	95
319.6000	80
319.7000	48
319.8000	52
319.9000	176
320.0000	77
320.1000	45
320.2000	41
320.3000	35
320.4000	120
320.5000	106
320.6000	28
341.7000	34
341.8000	33
341.9000	28
342.0000	49
342.1000	31
342.2000	34
342.3000	32
342.5000	35
342.6000	25
359.6000	52
359.7000	131
359.8000	93
359.9000	93
360.0000	92
360.1000	96
360.2000	82
360.3000	106
360.4000	88
360.5000	66
360.7000	22
360.9000	45
361.0000	22
361.1000	37
361.2000	31
361.3000	38
361.4000	33
636.8000	26
637.1000	26
637.2000	25
637.3000	43
637.4000	37
637.5000	49
637.6000	23
