Mass spectrum: Lyxoflavin; LC-ESI-QQQ; MS; [M+H]+
Name: Lyxoflavin
Class: Alkaloids
Formula: C17H20N4O6
Exact mass: 376.3721
SMILES: Cc1cc2nc3c(O)nc(=O)nc-3n(CC(O)C(O)C(O)CO)c2cc1C
InChI: InChI=1S/C17H20N4O6/c1-7-3-9-10(4-8(7)2)21(5-11(23)14(25)12(24)6-22)15-13(18-9)16(26)20-17(27)19-15/h3-4,11-12,14,22-25H,5-6H2,1-2H3,(H,20,26,27)
Instrument: ABSciex API3200 LC/MS system
Instrument type: LC-ESI-QQQ
Ms type: MS
Ion mode: POSITIVE
Precursor type: [M+H]+
m/z	relative intensity
220.6000	24
221.2000	22
242.4000	47
242.5000	96
242.6000	130
242.7000	152
242.8000	159
242.9000	151
243.0000	140
243.1000	137
243.2000	128
243.3000	121
243.4000	103
243.5000	39
243.6000	43
243.7000	23
243.8000	22
243.9000	23
244.0000	23
376.3000	285
376.4000	583
376.5000	766
376.6000	808
376.7000	912
376.8000	917
376.9000	939
377.0000	939
377.1000	999
377.2000	809
377.3000	741
377.4000	555
377.5000	305
377.6000	299
377.7000	266
377.8000	265
377.9000	224
378.0000	236
378.1000	246
378.2000	213
378.3000	198
378.4000	135
378.5000	63
378.6000	61
378.7000	38
378.8000	34
378.9000	38
379.0000	41
379.1000	33
379.2000	29
379.3000	31
379.4000	21
752.6000	25
752.7000	29
752.8000	28
752.9000	26
753.0000	28
753.1000	27
753.2000	28
753.3000	29
