Mass spectrum: Cinchonine; LC-ESI-QQQ; MS; [M+H]+
Name: (1R)((5R)-5-vinylquinuclidin-2-yl)-4-quinolylmethan-1-ol
Name: Cinchonan-9-ol
Name: alpha-4-Quinolyl(5-vinyl-1-azabicyclo(2.2.2)oct-2-yl)methanol
Name: Cinchonine
Class: Alkaloids
Formula: C19H22N2O
Exact mass: 294.4
SMILES: C=C[C@H]1CN2CCC1CC2[C@H](O)c1ccnc2ccccc12
InChI: InChI=1S/C19H22N2O/c1-2-13-12-21-10-8-14(13)11-18(21)19(22)16-7-9-20-17-6-4-3-5-15(16)17/h2-7,9,13-14,18-19,22H,1,8,10-12H2/t13-,14?,18?,19+/m0/s1
Instrument: ABSciex API3200 LC/MS system
Instrument type: LC-ESI-QQQ
Ms type: MS
Ion mode: POSITIVE
Precursor type: [M+H]+
m/z	relative intensity
100.0000	28
100.2000	28
100.5000	27
100.8000	26
108.1000	21
108.6000	21
108.7000	21
109.0000	39
109.1000	39
109.2000	30
109.3000	24
119.0000	29
121.7000	24
121.8000	21
122.0000	33
128.6000	27
128.7000	21
128.8000	42
128.9000	38
129.0000	30
129.1000	21
129.2000	25
129.3000	26
129.4000	81
129.5000	145
129.6000	167
129.7000	194
129.8000	182
129.9000	201
130.0000	207
130.1000	167
130.2000	166
130.3000	140
130.4000	114
130.5000	54
130.6000	25
130.8000	29
131.0000	37
135.5000	22
135.6000	31
135.7000	25
135.9000	33
136.1000	22
136.2000	25
136.5000	22
147.3000	48
147.4000	371
147.5000	674
147.6000	716
147.7000	845
147.8000	894
147.9000	955
148.0000	934
148.1000	999
148.2000	914
148.3000	839
148.4000	789
148.5000	507
148.6000	273
148.7000	297
148.8000	169
148.9000	161
149.0000	87
149.1000	45
153.8000	26
154.3000	25
157.4000	46
157.5000	67
157.6000	97
157.7000	111
157.8000	96
157.9000	80
158.0000	95
158.1000	88
158.2000	74
158.3000	63
158.4000	169
158.5000	230
158.6000	264
158.7000	325
158.8000	303
158.9000	352
159.0000	313
159.1000	281
159.2000	251
159.3000	255
159.4000	220
159.5000	117
159.6000	79
159.7000	81
159.8000	92
159.9000	62
160.0000	101
160.1000	104
160.2000	62
160.3000	84
160.4000	68
160.5000	30
167.9000	25
168.0000	48
168.1000	22
168.2000	32
168.3000	34
168.4000	27
168.5000	31
168.6000	51
168.7000	44
168.8000	39
168.9000	27
169.0000	24
169.8000	27
186.4000	76
186.5000	121
186.6000	135
186.7000	134
186.8000	155
186.9000	154
187.0000	122
187.1000	108
187.2000	103
187.3000	113
187.4000	92
187.5000	41
187.6000	23
276.5000	33
276.6000	32
276.7000	47
276.8000	52
276.9000	65
277.0000	57
277.1000	54
277.2000	38
277.3000	47
277.4000	43
294.4000	144
294.5000	527
294.6000	698
294.7000	787
294.8000	827
294.9000	833
295.0000	871
295.1000	784
295.2000	842
295.3000	662
295.4000	753
295.5000	546
295.6000	373
295.7000	342
295.8000	297
295.9000	276
296.0000	291
296.1000	290
296.2000	249
296.3000	196
296.4000	224
296.5000	126
296.6000	58
296.7000	51
296.9000	27
297.0000	44
297.1000	41
297.2000	34
312.4000	22
