Mass spectrum: Cyclosporin H; LC-ESI-QQQ; MS; [M+H]+
Name: Cyclosporin H
Class: Aminoacids and peptides
Formula: C62H111N11O12
Exact mass: 1202.6425
SMILES: C/C=C/CC(C)C(O)C1C(O)=NC(CC)C(=O)N(C)CC(=O)N(C)C(CC(C)C)C(O)=NC(C(C)C)C(=O)N(C)C(CC(C)C)C(O)=NC(C)C(O)=NC(C)C(=O)N(C)C(CC(C)C)C(=O)N(C)C(CC(C)C)C(=O)N(C)C(C(C)C)C(=O)N1C
InChI: InChI=1S/C62H111N11O12/c1-25-27-28-40(15)52(75)51-56(79)65-43(26-2)58(81)67(18)33-48(74)68(19)44(29-34(3)4)55(78)66-49(38(11)12)61(84)69(20)45(30-35(5)6)54(77)63-41(16)53(76)64-42(17)57(80)70(21)46(31-36(7)8)59(82)71(22)47(32-37(9)10)60(83)72(23)50(39(13)14)62(85)73(51)24/h25,27,34-47,49-52,75H,26,28-33H2,1-24H3,(H,63,77)(H,64,76)(H,65,79)(H,66,78)/b27-25+
Instrument: ABSciex API3200 LC/MS system
Instrument type: LC-ESI-QQQ
Ms type: MS
Ion mode: POSITIVE
Precursor type: [M+H]+
m/z	relative intensity
100.5000	34
227.3000	21
269.9000	26
270.0000	26
270.4000	21
282.9000	38
396.6000	31
467.9000	45
509.9000	24
510.0000	34
510.2000	31
510.5000	24
546.0000	24
601.1000	29
601.2000	50
601.3000	87
601.4000	78
601.5000	108
601.6000	96
601.7000	124
601.8000	174
601.9000	202
602.0000	165
602.1000	148
602.2000	118
602.3000	132
602.4000	94
602.5000	90
602.6000	52
602.7000	40
602.8000	43
602.9000	42
603.0000	45
1185.0000	22
1201.6000	79
1201.7000	170
1201.8000	264
1201.9000	325
1202.0000	358
1202.1000	385
1202.2000	350
1202.3000	392
1202.4000	419
1202.5000	458
1202.6000	492
1202.7000	494
1202.8000	362
1202.9000	313
1203.0000	301
1203.1000	296
1203.2000	284
1203.3000	277
1203.4000	324
1203.5000	343
1203.6000	309
1203.7000	254
1203.8000	337
1203.9000	999
1204.0000	295
1204.1000	134
1204.2000	103
1204.3000	76
1204.4000	116
1204.5000	78
1204.6000	80
1204.7000	73
1204.8000	54
1204.9000	26
1205.1000	22
1205.5000	26
1205.6000	27
1205.7000	41
1218.6000	29
1218.7000	57
1218.8000	43
1218.9000	88
1219.0000	87
1219.1000	80
1219.2000	92
1219.3000	115
1219.4000	89
1219.5000	134
1219.6000	139
1219.7000	92
1219.8000	101
1219.9000	45
1220.0000	61
1220.1000	85
1220.2000	71
1220.3000	80
1220.4000	92
1220.5000	75
1220.6000	92
1220.7000	80
1220.8000	45
1220.9000	24
1221.0000	43
1221.1000	38
1221.2000	24
1221.3000	38
1221.4000	50
1221.5000	55
1221.6000	24
1221.7000	38
1221.8000	26
