Mass spectrum: Versicoside; LC-ESI-QQQ; MS; [M+H]+
Name: Versicoside
Class: Steroids
Formula: C32H42O15
Exact mass: 666.6825
SMILES: COc1cc(C2OC[C@@H]3C(c4ccc(O[C@@H]5O[C@H](CO[C@@H]6O[C@@H](C)[C@H](O)[C@@H](O)[C@H]6O)[C@@H](O)[C@H](O)[C@H]5O)c(OC)c4)OC[C@H]23)ccc1O
InChI: InChI=1S/C32H42O15/c1-13-23(34)25(36)27(38)31(45-13)44-12-22-24(35)26(37)28(39)32(47-22)46-19-7-5-15(9-21(19)41-3)30-17-11-42-29(16(17)10-43-30)14-4-6-18(33)20(8-14)40-2/h4-9,13,16-17,22-39H,10-12H2,1-3H3/t13-,16-,17-,22+,23-,24+,25+,26-,27+,28+,29?,30?,31+,32+/m0/s1
Instrument: ABSciex API3200 LC/MS system
Instrument type: LC-ESI-QQQ
Ms type: MS
Ion mode: POSITIVE
Precursor type: [M+H]+
m/z	relative intensity
111.5000	38
121.3000	24
127.3000	29
127.4000	39
127.6000	61
135.4000	45
136.7000	21
145.3000	50
145.4000	22
145.5000	28
145.6000	29
147.6000	33
150.4000	39
150.6000	41
177.5000	21
221.4000	27
221.7000	40
222.4000	23
222.7000	28
235.2000	38
235.3000	34
235.4000	91
235.5000	50
235.6000	83
235.7000	39
235.8000	35
240.5000	27
241.5000	37
257.7000	24
309.4000	26
309.5000	24
309.6000	31
309.7000	35
311.3000	40
312.2000	30
312.4000	38
312.6000	70
312.7000	58
313.6000	21
341.3000	39
341.4000	53
341.5000	74
341.6000	101
341.7000	86
341.8000	40
342.6000	23
347.7000	23
359.3000	41
359.4000	77
359.5000	108
359.6000	129
359.7000	113
359.8000	56
360.4000	21
360.5000	25
360.6000	31
371.3000	38
521.4000	24
521.5000	34
521.6000	50
521.7000	52
521.8000	36
665.7000	23
665.8000	21
667.3000	98
667.4000	362
667.5000	677
667.6000	973
667.7000	999
667.8000	898
667.9000	537
668.0000	109
668.1000	70
668.3000	33
668.4000	160
668.5000	246
668.6000	327
668.7000	399
668.8000	336
668.9000	201
669.0000	56
669.4000	35
669.5000	74
669.6000	89
669.7000	100
669.8000	106
669.9000	51
681.7000	21
684.4000	93
684.5000	142
684.6000	246
684.7000	258
684.8000	244
684.9000	188
685.0000	51
685.3000	23
685.4000	100
685.5000	152
685.6000	178
685.7000	242
685.8000	204
685.9000	129
686.0000	35
686.5000	37
686.6000	65
686.7000	63
686.8000	73
686.9000	52
703.5000	27
703.6000	30
703.7000	72
703.8000	51
703.9000	37
721.6000	26
721.7000	23
721.8000	31
721.9000	31
757.8000	24
1333.8000	57
1333.9000	46
1334.0000	86
1334.1000	140
1334.2000	114
1334.3000	57
1334.4000	37
1334.7000	23
1334.8000	33
1334.9000	45
1335.0000	76
1335.1000	96
1335.2000	109
1335.3000	47
1336.0000	26
1336.1000	54
1336.2000	40
1351.1000	25
1351.2000	29
1351.3000	25
1352.0000	21
1352.1000	25
