Mass spectrum: Reserpinine; LC-ESI-QQQ; MS; [M+H]+
Name: Reserpinine
Class: Alkaloids
Formula: C22H26N2O4
Exact mass: 382.4635
SMILES: COC(=O)C1=CO[C@@H](C)[C@@H]2CN3CCc4c([nH]c5cc(OC)ccc45)[C@@H]3C[C@H]12
InChI: InChI=1S/C22H26N2O4/c1-12-17-10-24-7-6-15-14-5-4-13(26-2)8-19(14)23-21(15)20(24)9-16(17)18(11-28-12)22(25)27-3/h4-5,8,11-12,16-17,20,23H,6-7,9-10H2,1-3H3/t12-,16-,17-,20-/m0/s1
Instrument: ABSciex API3200 LC/MS system
Instrument type: LC-ESI-QQQ
Ms type: MS
Ion mode: POSITIVE
Precursor type: [M+H]+
m/z	relative intensity
119.1000	29
119.2000	41
119.3000	91
119.4000	143
141.5000	34
141.6000	57
141.7000	69
141.8000	41
141.9000	45
142.0000	22
144.0000	28
144.1000	36
173.4000	26
173.5000	193
173.6000	347
173.7000	280
173.8000	345
173.9000	325
174.0000	298
174.1000	256
174.2000	227
174.3000	229
174.4000	225
174.5000	100
174.6000	44
174.7000	35
174.8000	36
174.9000	30
175.0000	33
175.1000	33
175.2000	30
175.3000	27
175.4000	22
209.6000	29
209.7000	37
209.8000	50
209.9000	36
210.0000	30
210.1000	33
210.2000	41
210.3000	34
210.4000	24
221.5000	50
221.6000	131
221.7000	124
221.8000	144
221.9000	140
222.0000	133
222.1000	152
222.2000	180
222.3000	128
222.4000	104
222.5000	58
222.6000	24
222.7000	21
223.2000	28
223.3000	25
352.5000	23
352.6000	48
352.7000	78
352.8000	94
352.9000	89
353.0000	84
353.1000	89
353.2000	76
353.3000	72
353.4000	57
353.5000	33
353.6000	31
382.4000	59
382.5000	357
382.6000	723
382.7000	867
382.8000	951
382.9000	898
383.0000	914
383.1000	999
383.2000	815
383.3000	736
383.4000	704
383.5000	427
383.6000	302
383.7000	382
383.8000	424
383.9000	294
384.0000	301
384.1000	306
384.2000	305
384.3000	293
384.4000	295
384.5000	135
384.6000	77
384.7000	74
384.8000	68
384.9000	62
385.0000	76
385.1000	70
385.2000	82
385.3000	65
385.4000	52
385.5000	33
399.2000	21
414.5000	22
414.6000	43
414.7000	40
414.8000	46
414.9000	48
415.0000	34
415.1000	45
415.2000	49
415.3000	46
415.4000	33
423.7000	29
423.8000	36
423.9000	62
424.0000	53
424.1000	54
424.2000	50
424.3000	41
424.4000	34
