Mass spectrum: Strophanthidinic acid; LC-ESI-QQQ; MS; [M+H]+
Name: Strophanthidinic acid
Class: Steroids
Formula: C23H32O7
Exact mass: 420.50729
SMILES: C[C@]12CCC3C(CCC4(O)CC(O)CC[C@]34C(=O)O)C1(O)CCC2C1=CC(=O)OC1
InChI: InChI=1S/C23H32O7/c1-20-6-3-16-17(23(20,29)9-5-15(20)13-10-18(25)30-12-13)4-7-21(28)11-14(24)2-8-22(16,21)19(26)27/h10,14-17,24,28-29H,2-9,11-12H2,1H3,(H,26,27)/t14?,15?,16?,17?,20-,21?,22-,23?/m1/s1
Instrument: ABSciex API3200 LC/MS system
Instrument type: LC-ESI-QQQ
Ms type: MS
Ion mode: POSITIVE
Precursor type: [M+H]+
m/z	relative intensity
100.4000	70
100.5000	172
100.6000	164
100.7000	195
100.8000	186
100.9000	165
101.0000	126
101.1000	124
101.2000	76
101.3000	49
101.4000	40
119.4000	21
119.5000	27
338.8000	25
338.9000	22
339.0000	25
339.1000	25
339.9000	43
366.5000	32
366.6000	52
366.7000	54
366.8000	36
366.9000	70
367.0000	49
367.1000	54
367.2000	60
367.3000	49
367.4000	50
367.5000	46
367.6000	21
367.8000	21
384.6000	36
384.7000	43
384.8000	35
384.9000	48
385.0000	56
385.1000	46
385.2000	38
385.3000	41
385.4000	41
402.5000	22
402.6000	33
402.7000	33
402.8000	45
402.9000	41
403.0000	42
403.1000	40
403.2000	49
403.3000	42
403.4000	34
420.3000	23
420.4000	114
420.5000	253
420.6000	300
420.7000	332
420.8000	333
420.9000	291
421.0000	310
421.1000	328
421.2000	310
421.3000	999
421.4000	370
421.5000	89
421.6000	61
421.7000	45
421.8000	33
421.9000	30
422.0000	24
422.1000	40
422.2000	45
422.3000	53
422.4000	34
461.5000	27
461.6000	41
461.7000	53
461.8000	68
461.9000	55
462.0000	73
462.1000	68
462.2000	58
462.3000	56
462.4000	41
462.5000	43
462.6000	25
462.7000	28
462.8000	24
463.1000	27
463.4000	21
840.4000	86
840.5000	171
840.6000	161
840.7000	186
840.8000	215
840.9000	226
841.0000	221
841.1000	219
841.2000	236
841.3000	190
841.4000	187
841.5000	133
841.6000	116
841.7000	119
841.8000	126
841.9000	105
842.0000	126
842.1000	136
842.2000	111
842.3000	99
842.4000	92
842.5000	57
842.6000	37
842.7000	38
842.8000	41
842.9000	52
843.0000	40
843.1000	52
843.2000	41
843.3000	34
843.4000	21
1261.3000	22
1261.9000	23
