Mass spectrum: Auraptene; LC-ESI-QQQ; MS; [M+H]+
Name: Auraptene
Class: Benzopyranoids
Formula: C19H22O3
Exact mass: 298.3854
SMILES: CC(C)=CCC/C(C)=C/COc1ccc2ccc(=O)oc2c1
InChI: InChI=1S/C19H22O3/c1-14(2)5-4-6-15(3)11-12-21-17-9-7-16-8-10-19(20)22-18(16)13-17/h5,7-11,13H,4,6,12H2,1-3H3/b15-11+
Instrument: ABSciex API3200 LC/MS system
Instrument type: LC-ESI-QQQ
Ms type: MS
Ion mode: POSITIVE
Precursor type: [M+H]+
m/z	relative intensity
106.5000	42
106.6000	58
106.7000	63
106.8000	62
106.9000	68
107.0000	70
107.1000	68
107.2000	63
107.3000	54
107.4000	42
118.4000	22
118.5000	61
118.6000	78
118.7000	88
118.8000	89
118.9000	84
119.0000	88
119.1000	86
119.2000	82
119.3000	72
119.4000	65
119.5000	26
136.5000	88
136.6000	199
136.7000	241
136.8000	270
136.9000	265
137.0000	269
137.1000	264
137.2000	237
137.3000	224
137.4000	195
137.5000	172
137.6000	66
137.7000	29
137.8000	30
137.9000	32
138.0000	32
138.1000	34
138.2000	33
138.3000	27
138.4000	26
162.3000	43
162.4000	602
162.5000	849
162.6000	906
162.7000	959
162.8000	999
162.9000	973
163.0000	941
163.1000	924
163.2000	910
163.3000	834
163.4000	642
163.5000	307
163.6000	236
163.7000	222
163.8000	242
163.9000	229
164.0000	223
164.1000	226
164.2000	198
164.3000	177
164.4000	147
164.5000	49
164.6000	33
164.7000	33
164.8000	35
164.9000	32
165.0000	30
165.1000	28
165.2000	27
165.3000	23
188.4000	21
188.5000	41
188.6000	45
188.7000	51
188.8000	55
188.9000	49
189.0000	49
189.1000	53
189.2000	49
189.3000	34
189.4000	27
202.5000	38
202.6000	50
202.7000	56
202.8000	52
202.9000	56
203.0000	55
203.1000	50
203.2000	48
203.3000	43
203.4000	41
298.4000	122
298.5000	293
298.6000	425
298.7000	470
298.8000	472
298.9000	475
299.0000	477
299.1000	464
299.2000	441
299.3000	405
299.4000	385
299.5000	243
299.6000	148
299.7000	143
299.8000	135
299.9000	149
300.0000	146
300.1000	135
300.2000	132
300.3000	111
300.4000	103
300.5000	54
300.6000	29
300.7000	22
596.7000	37
596.8000	30
596.9000	29
597.0000	30
597.1000	30
597.2000	30
597.3000	27
597.4000	24
