Mass spectrum: Convoline; LC-ESI-QQQ; MS; [M+H]+
Name: Convoline
Class: Alkaloids
Formula: C16H21NO5
Exact mass: 307.3495
SMILES: COc1ccc(C(=O)OC2C[C@@H]3CC[C@H](C2)N3O)cc1OC
InChI: InChI=1S/C16H21NO5/c1-20-14-6-3-10(7-15(14)21-2)16(18)22-13-8-11-4-5-12(9-13)17(11)19/h3,6-7,11-13,19H,4-5,8-9H2,1-2H3/t11-,12+,13?
Instrument: ABSciex API3200 LC/MS system
Instrument type: LC-ESI-QQQ
Ms type: MS
Ion mode: POSITIVE
Precursor type: [M+H]+
m/z	relative intensity
100.6000	97
100.7000	196
100.8000	258
100.9000	279
101.0000	258
101.1000	247
101.2000	209
101.3000	162
101.4000	122
101.5000	34
125.5000	59
125.6000	74
125.7000	93
125.8000	100
125.9000	123
126.0000	98
126.1000	99
126.2000	82
126.3000	85
126.4000	75
126.5000	53
126.6000	23
307.4000	110
307.5000	371
307.6000	633
307.7000	755
307.8000	775
307.9000	810
308.0000	783
308.1000	778
308.2000	742
308.3000	799
308.4000	999
308.5000	339
308.6000	192
308.7000	206
308.8000	173
308.9000	176
309.0000	185
309.1000	166
309.2000	160
309.3000	164
309.4000	161
309.5000	58
309.6000	41
309.7000	31
309.8000	40
309.9000	26
310.0000	27
310.1000	30
310.2000	26
310.4000	21
348.5000	32
348.6000	97
348.7000	72
348.8000	61
348.9000	57
349.0000	43
349.1000	48
349.2000	44
349.3000	47
349.4000	45
