Mass spectrum: Ergocalciferol; LC-ESI-QQQ; MS; [M+H]+
Name: Vitamin D2
Name: Ergocalciferol
Name: Viosterin
Name: Osteil
Name: Viosterol
Name: Ercalciol
Name: Irradiated ergosterol
Name: Condacaps
Name: Condocaps
Name: Condol
Name: Crtron
Name: Crystallina
Name: Daral
Name: (5Z,7E,22E)-(3S)-9,10-Secoergosta-5,7,10(19),22-tetraen-3-ol
Name: Davitin
Name: Deltalin
Name: Deratol
Name: Diactol
Name: Drisdol
Name: Ergorone
Name: Ertron
Name: Fortodyl
Name: Geltabs
Name: Hyperkil
Name: Irradiated ergosta-5,7,22-trien-3-beta-ol
Name: Metadee
Name: Mulsiferol
Name: Mykostin
Name: Oleovitamin D2
Name: Ostelin
Name: Rodinec
Name: Radsterin
Name: Sterogyl
Name: Vigantol
Class: Steroids
Formula: C28H44O
Exact mass: 396.6623
SMILES: C=C1CC[C@H](O)C/C1=C/C=C1\CCC[C@@]2(C)C1CCC2[C@H](C)/C=C/[C@H](C)C(C)C
InChI: InChI=1S/C28H44O/c1-19(2)20(3)9-10-22(5)26-15-16-27-23(8-7-17-28(26,27)6)12-13-24-18-25(29)14-11-21(24)4/h9-10,12-13,19-20,22,25-27,29H,4,7-8,11,14-18H2,1-3,5-6H3/b10-9+,23-12+,24-13-/t20-,22+,25-,26?,27?,28+/m0/s1
Instrument: ABSciex API3200 LC/MS system
Instrument type: LC-ESI-QQQ
Ms type: MS
Ion mode: POSITIVE
Precursor type: [M+H]+
m/z	relative intensity
100.9000	29
101.0000	46
101.1000	36
101.5000	25
101.6000	25
101.7000	27
111.8000	22
113.7000	25
114.0000	29
114.8000	31
135.7000	24
135.9000	21
136.0000	27
136.3000	26
146.5000	66
146.6000	65
146.7000	111
146.8000	131
146.9000	98
147.0000	81
147.1000	83
147.2000	95
147.3000	45
147.4000	69
147.9000	30
148.1000	21
148.2000	27
148.4000	27
148.7000	61
148.8000	25
148.9000	40
149.1000	31
149.2000	39
149.3000	22
149.7000	21
187.5000	36
187.6000	65
187.7000	71
187.8000	57
187.9000	76
188.0000	71
188.1000	52
188.2000	52
188.3000	21
188.4000	25
188.6000	27
189.7000	22
189.9000	22
197.6000	80
197.7000	42
197.8000	30
197.9000	34
198.1000	25
198.3000	51
220.5000	50
220.6000	54
220.7000	83
220.8000	95
220.9000	105
221.0000	85
221.1000	81
221.2000	56
221.3000	84
221.4000	62
221.5000	32
221.8000	26
221.9000	27
222.1000	31
222.5000	37
222.6000	24
222.7000	27
222.8000	35
222.9000	49
223.0000	39
223.2000	55
223.3000	46
223.4000	24
261.9000	25
264.4000	35
264.8000	34
264.9000	31
265.1000	32
279.2000	25
280.3000	100
280.4000	382
280.5000	611
280.6000	918
280.7000	999
280.8000	848
280.9000	893
281.0000	936
281.1000	814
281.2000	745
281.3000	724
281.4000	455
281.5000	350
281.6000	316
281.7000	286
281.8000	233
281.9000	357
282.0000	228
282.1000	306
282.2000	216
282.3000	253
282.4000	147
282.5000	179
282.6000	111
282.7000	169
282.8000	201
282.9000	204
283.0000	167
283.1000	143
283.2000	137
283.3000	149
283.4000	42
283.5000	40
283.6000	31
283.7000	30
283.8000	30
283.9000	42
284.0000	31
284.1000	46
284.3000	35
296.6000	35
296.8000	30
297.1000	29
297.2000	21
297.3000	21
298.4000	52
298.5000	70
298.6000	51
298.7000	66
298.8000	88
298.9000	74
299.0000	64
299.1000	80
299.2000	68
299.3000	46
299.6000	32
299.7000	52
299.9000	31
300.7000	22
321.3000	25
321.4000	113
321.5000	178
321.6000	297
321.7000	357
321.8000	365
321.9000	259
322.0000	321
322.1000	301
322.2000	155
322.3000	202
322.4000	109
322.5000	114
322.6000	124
322.7000	81
322.8000	89
322.9000	123
323.0000	91
323.1000	98
323.2000	100
323.3000	52
323.4000	59
323.5000	50
323.6000	54
323.7000	54
323.8000	59
323.9000	50
324.0000	46
324.1000	59
324.2000	29
324.3000	21
324.5000	26
324.7000	24
324.8000	21
325.3000	25
326.3000	49
326.4000	47
326.5000	93
326.6000	52
326.7000	31
326.8000	76
326.9000	68
327.0000	51
327.1000	40
327.2000	39
327.3000	25
327.5000	24
327.6000	34
328.9000	26
329.0000	25
340.4000	69
340.5000	56
340.6000	68
340.7000	74
340.8000	93
340.9000	75
341.0000	85
341.1000	100
341.2000	71
341.3000	29
341.4000	31
341.5000	36
341.6000	35
341.7000	31
341.9000	31
342.0000	27
342.2000	21
342.3000	27
342.5000	21
342.9000	25
343.0000	24
354.6000	34
354.7000	71
354.8000	27
354.9000	46
355.0000	34
355.1000	32
355.2000	40
355.3000	45
355.6000	22
356.2000	22
356.7000	21
367.5000	21
367.6000	26
367.7000	26
367.8000	27
367.9000	30
368.0000	32
368.1000	42
368.2000	21
371.0000	27
371.4000	24
381.5000	29
381.8000	32
381.9000	30
382.0000	41
382.1000	27
414.2000	25
414.3000	137
414.4000	133
414.5000	188
414.6000	212
414.7000	247
414.8000	233
414.9000	168
415.0000	185
415.1000	144
415.2000	150
415.3000	109
415.4000	65
415.5000	105
415.6000	80
415.7000	89
415.8000	89
415.9000	54
416.0000	56
416.1000	49
416.2000	55
416.3000	46
416.4000	47
416.5000	61
416.6000	62
416.7000	54
416.8000	44
416.9000	45
417.0000	51
417.1000	44
417.2000	36
417.9000	29
428.4000	31
428.5000	34
428.8000	35
428.9000	34
429.1000	46
429.2000	21
429.4000	21
430.0000	36
444.6000	29
502.3000	68
502.4000	111
502.5000	137
502.6000	189
502.7000	232
502.8000	271
502.9000	249
503.0000	227
503.1000	194
503.2000	193
503.3000	90
503.4000	93
503.5000	66
503.6000	105
503.7000	119
503.8000	226
503.9000	168
504.0000	131
504.1000	84
504.2000	93
504.3000	42
504.4000	51
504.5000	93
504.6000	65
504.7000	94
504.8000	68
504.9000	78
505.0000	66
505.1000	70
505.2000	101
505.3000	29
505.5000	32
505.6000	26
505.7000	37
505.8000	36
506.0000	44
506.1000	26
506.2000	21
518.4000	35
518.5000	129
518.6000	197
518.7000	187
518.8000	204
518.9000	193
519.0000	130
519.1000	160
519.2000	133
519.3000	100
519.4000	59
519.5000	73
519.6000	100
519.7000	135
519.8000	73
519.9000	80
520.0000	75
520.1000	89
520.2000	68
520.3000	49
520.4000	35
520.5000	32
520.6000	49
520.7000	37
520.8000	85
520.9000	32
521.0000	60
521.1000	81
521.2000	71
521.3000	39
521.5000	26
521.6000	25
521.8000	40
521.9000	25
522.0000	24
522.1000	29
535.3000	49
535.4000	234
535.5000	380
535.6000	495
535.7000	568
535.8000	625
535.9000	617
536.0000	616
536.1000	616
536.2000	504
536.3000	365
536.4000	189
536.5000	251
536.6000	258
536.7000	359
536.8000	351
536.9000	296
537.0000	254
537.1000	277
537.2000	233
537.3000	173
537.4000	165
537.5000	194
537.6000	227
537.7000	247
537.8000	232
537.9000	175
538.0000	201
538.1000	234
538.2000	174
538.3000	93
538.4000	30
538.5000	68
538.6000	68
538.7000	104
538.8000	86
538.9000	60
539.0000	90
539.1000	56
539.2000	61
539.3000	52
539.5000	31
539.6000	30
539.7000	37
539.8000	36
539.9000	51
540.0000	47
540.1000	22
540.2000	39
757.6000	25
757.8000	30
758.4000	22
759.2000	37
759.7000	34
760.0000	26
760.2000	21
1071.6000	22
1072.6000	30
