Mass spectrum: Anthranoyllycoctonine; LC-ESI-QQQ; MS; [M+H]+
Name: Anthranoyllycoctonine
Class: Alkaloids
Formula: C32H46N2O8
Exact mass: 586.73202
SMILES: CCN1C[C@]2(COC(=O)c3ccccc3N)CC[C@@H](OC)[C@]34C5C[C@@H]6[C@@H](OC)C[C@@](O)(C5[C@H]6OC)[C@](O)(C13)[C@@H](OC)C24
InChI: InChI=1S/C32H46N2O8/c1-6-34-15-29(16-42-27(35)17-9-7-8-10-20(17)33)12-11-22(39-3)31-19-13-18-21(38-2)14-30(36,23(19)24(18)40-4)32(37,28(31)34)26(41-5)25(29)31/h7-10,18-19,21-26,28,36-37H,6,11-16,33H2,1-5H3/t18-,19?,21+,22-,23?,24+,25?,26+,28?,29+,30-,31+,32-/m1/s1
Instrument: ABSciex API3200 LC/MS system
Instrument type: LC-ESI-QQQ
Ms type: MS
Ion mode: POSITIVE
Precursor type: [M+H]+
m/z	relative intensity
100.4000	83
100.5000	147
100.6000	227
100.7000	160
100.8000	159
100.9000	125
101.0000	140
101.1000	114
101.2000	85
101.3000	58
101.4000	44
101.5000	25
135.1000	21
523.1000	21
555.0000	23
584.6000	23
584.7000	45
584.8000	70
584.9000	55
585.0000	65
585.1000	61
585.2000	57
585.3000	50
585.4000	43
585.5000	23
585.8000	28
586.2000	22
586.3000	31
586.4000	123
586.5000	321
586.6000	649
586.7000	927
586.8000	995
586.9000	975
587.0000	986
587.1000	999
587.2000	987
587.3000	980
587.4000	856
587.5000	598
587.6000	407
587.7000	516
587.8000	570
587.9000	545
588.0000	609
588.1000	610
588.2000	620
588.3000	597
588.4000	543
588.5000	304
588.6000	136
588.7000	182
588.8000	245
588.9000	247
589.0000	244
589.1000	256
589.2000	249
589.3000	223
589.4000	181
589.5000	94
589.6000	39
589.7000	39
589.8000	47
589.9000	38
590.0000	53
590.1000	52
590.2000	50
590.3000	53
590.4000	39
590.5000	22
