Mass spectrum: Ormosanine; LC-ESI-QQQ; MS; [M+H]+
Name: Ormosanine
Class: Alkaloids
Formula: C20H35N3
Exact mass: 317.52205000000004
SMILES: C1CCC([C@@]23CC(CC4CCCN[C@H]42)[C@@H]2CCCCN2C3)NC1
InChI: InChI=1S/C20H35N3/c1-3-9-21-18(8-1)20-13-16(12-15-6-5-10-22-19(15)20)17-7-2-4-11-23(17)14-20/h15-19,21-22H,1-14H2/t15?,16?,17-,18?,19+,20-/m0/s1
Instrument: ABSciex API3200 LC/MS system
Instrument type: LC-ESI-QQQ
Ms type: MS
Ion mode: POSITIVE
Precursor type: [M+H]+
m/z	relative intensity
100.4000	38
100.7000	181
100.8000	181
100.9000	337
101.0000	197
101.1000	164
101.2000	142
101.3000	97
101.4000	102
101.7000	51
110.8000	21
114.9000	81
115.0000	92
115.1000	27
115.2000	36
119.0000	65
120.0000	45
120.1000	56
132.4000	38
132.7000	29
134.5000	32
134.7000	55
135.9000	36
141.7000	33
148.7000	36
149.1000	93
150.7000	31
150.9000	28
151.0000	27
151.2000	38
151.3000	29
151.4000	28
151.5000	39
159.0000	333
159.1000	612
159.2000	885
159.3000	884
159.4000	938
159.5000	900
159.6000	999
159.7000	976
159.8000	940
159.9000	848
160.0000	672
160.1000	359
160.2000	240
160.3000	284
160.4000	243
160.5000	113
160.6000	32
160.7000	26
179.6000	41
179.7000	42
179.8000	50
179.9000	65
180.0000	42
180.1000	40
180.2000	68
180.3000	43
180.4000	29
180.5000	30
180.6000	35
198.0000	26
198.7000	21
198.8000	57
199.3000	35
206.5000	61
206.9000	73
207.3000	21
214.1000	22
217.6000	22
217.8000	28
217.9000	38
218.3000	27
218.5000	38
220.4000	30
220.5000	198
220.6000	51
220.8000	43
221.1000	142
221.4000	38
221.5000	98
222.1000	39
222.4000	27
222.5000	22
223.2000	26
234.6000	34
234.7000	64
234.8000	90
234.9000	106
235.0000	99
235.1000	176
235.2000	138
235.3000	68
235.4000	117
235.5000	76
235.6000	44
235.7000	21
238.6000	74
238.7000	32
238.9000	33
239.0000	46
239.1000	33
239.2000	23
239.4000	38
301.1000	35
301.2000	33
310.6000	80
311.0000	38
311.1000	41
312.3000	26
312.7000	31
317.6000	107
317.7000	270
317.8000	305
317.9000	354
318.0000	362
318.1000	402
318.2000	398
318.3000	366
318.4000	312
318.5000	290
318.6000	217
318.7000	118
318.8000	105
318.9000	88
319.0000	96
319.1000	102
319.2000	77
319.3000	89
319.4000	75
319.5000	48
319.6000	47
319.7000	23
320.2000	24
433.1000	32
