Mass spectrum: hordenine; LC-ESI-QQQ; MS; [M+H]+
Name: Anhalin
Name: Anhaline
Name: Cactine
Name: N,N-dimethyltyramine
Name: 4-(2-(dimethylamino)ethyl)phenol
Name: 4-Hydroxy-N,N-dimethylphenethylamine
Name: hordenine
Class: Alkaloids
Formula: C10H15NO
Exact mass: 165.2372
SMILES: CN(C)CCc1ccc(O)cc1
InChI: InChI=1S/C10H15NO/c1-11(2)8-7-9-3-5-10(12)6-4-9/h3-6,12H,7-8H2,1-2H3
Instrument: ABSciex API3200 LC/MS system
Instrument type: LC-ESI-QQQ
Ms type: MS
Ion mode: POSITIVE
Precursor type: [M+H]+
m/z	relative intensity
101.2000	22
101.3000	47
101.4000	71
101.5000	73
101.8000	21
102.0000	23
102.5000	38
102.6000	46
102.7000	28
102.8000	46
102.9000	48
103.0000	40
103.1000	48
103.2000	65
103.3000	55
103.4000	45
118.9000	25
119.1000	23
119.4000	21
119.5000	46
119.6000	72
119.7000	60
119.8000	49
119.9000	27
120.0000	31
120.1000	45
120.2000	25
120.4000	517
120.5000	929
120.6000	999
120.7000	963
120.8000	952
120.9000	931
121.0000	890
121.1000	856
121.2000	823
121.3000	775
121.4000	612
121.5000	327
121.6000	136
121.7000	110
121.8000	128
121.9000	135
122.0000	142
122.1000	134
122.2000	144
122.3000	102
122.4000	89
122.5000	47
165.4000	287
165.5000	514
165.6000	721
165.7000	809
165.8000	827
165.9000	841
166.0000	873
166.1000	803
166.2000	737
166.3000	631
166.4000	592
166.5000	356
166.6000	221
166.7000	120
166.8000	124
166.9000	133
167.0000	452
167.1000	110
167.2000	48
167.3000	44
167.4000	43
179.8000	21
391.2000	30
