Mass spectrum: Monticoline; LC-ESI-QQQ; MS; [M+H]+
Name: Monticoline
Class: Alkaloids
Formula: C22H33NO6
Exact mass: 407.51141000000007
SMILES: CCN1C[C@]23O[C@H]2C[C@H](O)[C@@]24C5C[C@@H]6[C@@H](OC)C[C@@](O)(C5[C@H]6OC)[C@@](O)(CC32)C14
InChI: InChI=1S/C22H33NO6/c1-4-23-9-19-13-8-21(26)18(23)22(13,14(24)6-15(19)29-19)11-5-10-12(27-2)7-20(21,25)16(11)17(10)28-3/h10-18,24-26H,4-9H2,1-3H3/t10-,11?,12+,13?,14+,15+,16?,17+,18?,19-,20-,21-,22-/m1/s1
Instrument: ABSciex API3200 LC/MS system
Instrument type: LC-ESI-QQQ
Ms type: MS
Ion mode: POSITIVE
Precursor type: [M+H]+
m/z	relative intensity
100.6000	28
100.7000	75
100.8000	97
100.9000	99
101.0000	99
101.1000	43
101.2000	48
101.3000	37
101.4000	33
220.6000	24
407.3000	83
407.4000	430
407.5000	801
407.6000	983
407.7000	922
407.8000	963
407.9000	966
408.0000	999
408.1000	862
408.2000	876
408.3000	861
408.4000	757
408.5000	492
408.6000	313
408.7000	342
408.8000	324
408.9000	337
409.0000	334
409.1000	330
409.2000	331
409.3000	296
409.4000	259
409.5000	138
409.6000	96
409.7000	89
409.8000	47
409.9000	70
410.0000	62
410.1000	75
410.2000	66
410.3000	55
410.4000	57
410.5000	22
