Mass spectrum: Trachelanthine; LC-ESI-QQQ; MS; [M+H]+
Name: Trachelanthamine oxide
Name: Trachelanthamine N-oxide
Name: ((7aS,1R)-4-hydroxyperhydropyrrolizinyl)methyl 2,3-dihydroxy-2-(methylethyl)butanoate
Name: Trachelanthine
Class: Alkaloids
Formula: C15H27NO5
Exact mass: 301.3861
SMILES: CC(C)C(O)(C(=O)OC[C@@H]1CC[N+]2([O-])CCC[C@@H]12)C(C)O
InChI: InChI=1S/C15H27NO5/c1-10(2)15(19,11(3)17)14(18)21-9-12-6-8-16(20)7-4-5-13(12)16/h10-13,17,19H,4-9H2,1-3H3/t11?,12-,13-,15?,16?/m0/s1
Instrument: ABSciex API3200 LC/MS system
Instrument type: LC-ESI-QQQ
Ms type: MS
Ion mode: POSITIVE
Precursor type: [M+H]+
m/z	relative intensity
139.8000	22
140.6000	32
140.7000	24
140.8000	31
140.9000	25
141.0000	21
141.1000	26
141.2000	21
141.3000	29
141.4000	24
157.5000	261
157.6000	382
157.7000	467
157.8000	472
157.9000	506
158.0000	483
158.1000	443
158.2000	429
158.3000	387
158.4000	322
158.5000	226
158.6000	79
158.7000	50
158.8000	54
158.9000	61
159.0000	61
159.1000	51
159.2000	55
159.3000	40
159.4000	33
159.5000	24
284.4000	22
301.4000	133
301.5000	483
301.6000	839
301.7000	948
301.8000	972
301.9000	981
302.0000	999
302.1000	960
302.2000	940
302.3000	896
302.4000	743
302.5000	596
302.6000	368
302.7000	342
302.8000	318
302.9000	314
303.0000	324
303.1000	325
303.2000	320
303.3000	294
303.4000	263
303.5000	189
303.6000	92
303.7000	69
303.8000	57
303.9000	55
304.0000	62
304.1000	55
304.2000	60
304.3000	50
304.4000	43
304.5000	27
