Mass spectrum: Cryptotanshinone; LC-ESI-QQQ; MS; [M+H]+
Name: Cryptotanshinone
Class: Polycyclic aromatic natural products
Formula: C19H20O3
Exact mass: 296.3695
SMILES: C[C@H]1COC2=C1C(=O)C(=O)c1c2ccc2c1CCCC2(C)C
InChI: InChI=1S/C19H20O3/c1-10-9-22-18-12-6-7-13-11(5-4-8-19(13,2)3)15(12)17(21)16(20)14(10)18/h6-7,10H,4-5,8-9H2,1-3H3/t10-/m0/s1
Instrument: ABSciex API3200 LC/MS system
Instrument type: LC-ESI-QQQ
Ms type: MS
Ion mode: POSITIVE
Precursor type: [M+H]+
m/z	relative intensity
101.2000	29
101.3000	45
101.4000	52
101.5000	27
237.2000	21
238.4000	28
250.5000	37
250.6000	64
250.7000	79
250.8000	74
250.9000	64
251.0000	70
251.1000	67
251.2000	68
251.3000	58
251.4000	70
251.5000	27
251.7000	26
253.4000	26
253.5000	37
253.6000	32
253.7000	51
253.8000	78
253.9000	83
254.0000	44
254.1000	40
254.2000	43
254.3000	33
254.4000	32
255.1000	21
267.7000	23
267.9000	21
278.5000	38
278.6000	43
278.7000	63
278.8000	62
278.9000	48
279.0000	73
279.1000	42
279.2000	54
279.3000	50
279.4000	48
279.5000	26
281.8000	25
282.0000	23
282.1000	21
282.2000	29
282.3000	21
296.3000	83
296.4000	568
296.5000	835
296.6000	914
296.7000	965
296.8000	933
296.9000	946
297.0000	999
297.1000	974
297.2000	956
297.3000	907
297.4000	873
297.5000	596
297.6000	471
297.7000	430
297.8000	416
297.9000	442
298.0000	443
298.1000	443
298.2000	406
298.3000	398
298.4000	385
298.5000	179
298.6000	114
298.7000	84
298.8000	69
298.9000	72
299.0000	87
299.1000	98
299.2000	74
299.3000	73
299.4000	55
299.5000	35
592.6000	30
592.7000	39
592.8000	39
592.9000	43
593.0000	39
593.1000	31
593.2000	38
593.3000	28
593.4000	22
593.8000	21
610.2000	44
610.3000	60
