Mass spectrum: Convolamine; LC-ESI-QQQ; MS; [M+H]+
Name: Convolamine
Class: Alkaloids
Formula: C17H23NO4
Exact mass: 305.3772
SMILES: COc1ccc(C(=O)O[C@@H]2C[C@@H]3CC[C@H](C2)N3C)cc1OC
InChI: InChI=1S/C17H23NO4/c1-18-12-5-6-13(18)10-14(9-12)22-17(19)11-4-7-15(20-2)16(8-11)21-3/h4,7-8,12-14H,5-6,9-10H2,1-3H3/t12-,13+,14+
Instrument: ABSciex API3200 LC/MS system
Instrument type: LC-ESI-QQQ
Ms type: MS
Ion mode: POSITIVE
Precursor type: [M+H]+
m/z	relative intensity
101.1000	22
101.2000	25
101.3000	37
101.4000	43
101.5000	22
123.5000	209
123.6000	411
123.7000	476
123.8000	417
123.9000	362
124.0000	418
124.1000	448
124.2000	432
124.3000	402
124.4000	378
124.5000	298
124.6000	90
124.7000	48
124.8000	57
124.9000	67
125.0000	52
125.1000	60
125.2000	45
125.3000	37
125.4000	38
125.5000	21
291.7000	26
291.8000	38
291.9000	37
292.0000	24
292.1000	27
292.2000	24
305.4000	392
305.5000	779
305.6000	955
305.7000	959
305.8000	991
305.9000	997
306.0000	999
306.1000	992
306.2000	935
306.3000	906
306.4000	847
306.5000	559
306.6000	393
306.7000	416
306.8000	391
306.9000	407
307.0000	440
307.1000	432
307.2000	420
307.3000	403
307.4000	350
307.5000	233
307.6000	122
307.7000	112
307.8000	93
307.9000	91
308.0000	105
308.1000	96
308.2000	82
308.3000	83
308.4000	103
308.5000	58
