Mass spectrum: Napelline; LC-ESI-QQQ; MS; [M+H]+
Name: Luciculine
Name: (5S,6S,10S,1R,2R,3R,9R,13R)-15-ethyl-13-methyl-4-methylene-15-azahexacyclo(7.7.2.1(2,5).0(2,8).0(9,16).0(13,18))nonadecane-3,6,10-triol
Name: Napelline
Class: Alkaloids
Formula: C22H33NO3
Exact mass: 359.5132
SMILES: C=C1[C@@H]2C[C@]3(C(C[C@@H]2O)[C@]24C5C[C@H]3[C@H]2N(CC)C[C@]5(C)CC[C@@H]4O)[C@@H]1O
InChI: InChI=1S/C22H33NO3/c1-4-23-10-20(3)6-5-17(25)22-15(20)7-13(18(22)23)21-9-12(11(2)19(21)26)14(24)8-16(21)22/h12-19,24-26H,2,4-10H2,1,3H3/t12-,13-,14-,15?,16?,17-,18+,19+,20-,21-,22-/m0/s1
Instrument: ABSciex API3200 LC/MS system
Instrument type: LC-ESI-QQQ
Ms type: MS
Ion mode: POSITIVE
Precursor type: [M+H]+
m/z	relative intensity
341.4000	45
341.5000	135
341.6000	231
341.7000	270
341.8000	282
341.9000	301
342.0000	314
342.1000	338
342.2000	288
342.3000	281
342.4000	247
342.5000	198
342.6000	111
342.7000	98
342.8000	86
342.9000	87
343.0000	82
343.1000	86
343.2000	85
343.3000	80
343.4000	68
343.5000	55
343.6000	25
358.2000	29
358.3000	37
359.3000	31
359.4000	177
359.5000	623
359.6000	905
359.7000	997
359.8000	972
359.9000	990
360.0000	999
360.1000	988
360.2000	967
360.3000	965
360.4000	912
360.5000	856
360.6000	552
360.7000	476
360.8000	455
360.9000	462
361.0000	487
361.1000	488
361.2000	495
361.3000	449
361.4000	424
361.5000	378
361.6000	177
361.7000	148
361.8000	136
361.9000	144
362.0000	141
362.1000	99
362.2000	98
362.3000	93
362.4000	79
362.5000	69
362.6000	29
375.6000	38
375.7000	59
375.8000	61
375.9000	61
376.0000	65
376.1000	61
376.2000	56
376.3000	55
376.4000	53
376.5000	36
