Mass spectrum: Diversolide A.; LC-ESI-QQQ; MS; [M+H]+
Name: Diversolide A.
Class: Terpenoids
Formula: C25H30O7
Exact mass: 442.5136
SMILES: C/C=C(\C)C(=O)O[C@H]1CC(C)=C2C(=O)C=C(C)[C@@H]2[C@H]2OC(=O)[C@](C)(OC(=O)/C(C)=C/C)[C@H]12
InChI: InChI=1S/C25H30O7/c1-8-12(3)22(27)30-17-11-15(6)18-16(26)10-14(5)19(18)21-20(17)25(7,24(29)31-21)32-23(28)13(4)9-2/h8-10,17,19-21H,11H2,1-7H3/b12-8+,13-9+/t17-,19-,20+,21+,25+/m0/s1
Instrument: ABSciex API3200 LC/MS system
Instrument type: LC-ESI-QQQ
Ms type: MS
Ion mode: POSITIVE
Precursor type: [M+H]+
m/z	relative intensity
100.6000	93
100.7000	166
100.8000	330
100.9000	364
101.0000	427
101.1000	312
101.2000	332
101.3000	223
101.4000	133
101.5000	41
102.1000	21
116.8000	24
169.2000	31
186.8000	24
186.9000	27
187.1000	27
196.5000	22
196.7000	22
196.8000	21
196.9000	35
197.0000	44
197.1000	36
197.2000	27
197.4000	51
197.5000	46
197.8000	44
198.7000	34
198.8000	25
214.8000	30
214.9000	29
215.0000	25
215.2000	30
221.0000	24
224.5000	29
224.6000	29
224.7000	21
224.8000	49
224.9000	29
225.1000	28
225.2000	33
225.3000	24
242.3000	28
242.4000	247
242.5000	468
242.6000	558
242.7000	597
242.8000	575
242.9000	582
243.0000	636
243.1000	714
243.2000	579
243.3000	668
243.4000	584
243.5000	265
243.6000	146
243.7000	124
243.8000	125
243.9000	218
244.0000	200
244.1000	75
244.2000	83
244.3000	115
244.4000	79
244.5000	35
244.6000	26
244.9000	53
245.1000	105
245.2000	44
261.0000	22
261.4000	83
261.5000	66
342.4000	36
342.5000	82
342.6000	92
342.7000	122
342.8000	120
342.9000	114
343.0000	108
343.1000	131
343.2000	99
343.3000	91
343.4000	62
343.5000	35
343.6000	23
343.7000	31
343.8000	24
343.9000	32
344.0000	23
344.1000	31
344.2000	45
345.3000	36
360.6000	28
360.7000	74
360.8000	42
361.0000	52
361.1000	53
361.2000	36
361.3000	41
361.4000	22
433.3000	26
442.3000	59
442.4000	187
442.5000	480
442.6000	696
442.7000	888
442.8000	995
442.9000	874
443.0000	999
443.1000	944
443.2000	961
443.3000	722
443.4000	673
443.5000	310
443.6000	309
443.7000	342
443.8000	340
443.9000	253
444.0000	240
444.1000	253
444.2000	250
444.3000	229
444.4000	184
444.5000	76
444.6000	28
444.7000	65
444.8000	85
444.9000	65
445.0000	38
445.1000	44
445.3000	51
458.9000	23
460.0000	24
460.8000	29
483.6000	33
483.8000	58
483.9000	76
484.0000	58
484.1000	67
484.2000	49
484.3000	59
484.4000	63
484.5000	28
484.6000	37
484.7000	24
485.1000	28
884.4000	81
884.5000	63
884.6000	146
884.7000	120
884.8000	137
884.9000	153
885.0000	202
885.1000	203
885.2000	181
885.3000	116
885.4000	89
885.5000	107
885.6000	63
885.7000	76
885.8000	67
885.9000	59
886.0000	89
886.1000	89
886.2000	67
886.3000	72
886.4000	55
886.6000	29
886.8000	59
886.9000	46
887.0000	42
887.1000	50
887.2000	28
887.3000	38
887.4000	25
901.5000	41
901.6000	32
901.7000	72
901.8000	50
901.9000	81
902.0000	71
902.1000	54
902.2000	37
902.3000	32
902.4000	50
902.5000	42
902.7000	28
902.8000	46
902.9000	24
903.1000	37
903.2000	37
903.3000	24
903.4000	33
