Mass spectrum: Asiaticoside; LC-ESI-QQQ; MS; [M+H]+
Name: Asiaticoside
Class: Terpenoids
Formula: C48H78O19
Exact mass: 959.1455
SMILES: C[C@@H]1[C@H]2C3=CCC4[C@@]5(C)C[C@@H](O)[C@@H](O)[C@@](C)(CO)C5CC[C@@]4(C)[C@]3(C)CC[C@@]2(C(=O)O[C@@H]2O[C@@H](CO[C@@H]3O[C@H](CO)[C@@H](O[C@@H]4O[C@H](C)[C@@H](O)[C@H](O)[C@H]4O)[C@H](O)[C@H]3O)[C@H](O)[C@@H](O)[C@H]2O)CC[C@H]1C
InChI: InChI=1S/C48H78O19/c1-20-10-13-48(15-14-46(6)23(29(48)21(20)2)8-9-28-44(4)16-24(51)39(60)45(5,19-50)27(44)11-12-47(28,46)7)43(61)67-42-36(58)33(55)31(53)26(65-42)18-62-40-37(59)34(56)38(25(17-49)64-40)66-41-35(57)32(54)30(52)22(3)63-41/h8,20-22,24-42,49-60H,9-19H2,1-7H3/t20-,21+,22-,24-,25-,26+,27?,28?,29+,30-,31+,32+,33-,34-,35-,36-,37-,38-,39-,40-,41+,42+,44+,45+,46-,47-,48+/m1/s1
Instrument: ABSciex API3200 LC/MS system
Instrument type: LC-ESI-QQQ
Ms type: MS
Ion mode: POSITIVE
Precursor type: [M+H]+
m/z	relative intensity
100.4000	71
100.5000	237
100.6000	244
100.7000	83
100.8000	49
100.9000	73
118.6000	32
118.7000	59
118.8000	52
118.9000	490
119.0000	156
119.4000	24
119.8000	24
142.2000	174
142.3000	39
197.9000	34
239.2000	21
309.0000	26
310.7000	30
452.7000	21
452.9000	29
453.0000	64
453.1000	35
453.3000	21
470.9000	24
488.9000	36
489.0000	28
489.1000	38
489.3000	34
599.0000	22
634.7000	30
634.8000	40
634.9000	47
635.0000	54
635.1000	49
635.2000	43
635.3000	44
635.4000	52
635.5000	29
635.9000	22
636.1000	21
636.3000	26
636.4000	24
796.7000	29
796.8000	32
796.9000	38
797.0000	26
797.1000	25
797.2000	32
797.3000	27
797.4000	25
797.5000	23
798.1000	23
958.4000	46
958.5000	161
958.6000	239
958.7000	322
958.8000	379
958.9000	473
959.0000	453
959.1000	682
959.2000	999
959.3000	577
959.4000	388
959.5000	330
959.6000	234
959.7000	190
959.8000	209
959.9000	223
960.0000	217
960.1000	291
960.2000	318
960.3000	196
960.4000	168
960.5000	139
960.6000	85
960.7000	79
960.8000	85
960.9000	61
961.0000	68
961.1000	80
961.2000	78
961.3000	60
961.4000	53
961.5000	43
961.6000	25
961.8000	21
975.7000	21
976.0000	31
976.1000	34
976.2000	27
976.3000	29
976.4000	28
976.5000	26
976.8000	28
976.9000	25
977.0000	37
977.1000	33
977.2000	31
977.3000	25
977.4000	38
977.5000	41
1438.1000	33
1438.2000	34
1438.3000	32
1438.4000	34
1438.5000	39
1438.6000	42
1438.7000	28
1438.8000	49
1438.9000	36
1439.0000	47
1439.1000	29
1439.2000	45
1439.3000	23
1439.4000	26
1439.5000	25
1439.6000	23
1447.6000	28
