Mass spectrum: Acarbose; LC-ESI-QQQ; MS; [M+H]+
Name: Acarbose
Class: Carbohydrates
Formula: C25H43NO18
Exact mass: 645.6174
SMILES: C[C@H]1OC(OC2[C@@H](CO)OC(OC3[C@@H](CO)OC(O)[C@H](O)[C@H]3O)[C@H](O)[C@H]2O)[C@H](O)[C@@H](O)C1N[C@H]1C=C(CO)[C@@H](O)[C@H](O)[C@H]1O
InChI: InChI=1S/C25H43NO18/c1-6-11(26-8-2-7(3-27)12(30)15(33)13(8)31)14(32)19(37)24(40-6)43-22-10(5-29)42-25(20(38)17(22)35)44-21-9(4-28)41-23(39)18(36)16(21)34/h2,6,8-39H,3-5H2,1H3/t6-,8+,9-,10-,11?,12-,13+,14+,15+,16-,17-,18-,19-,20-,21?,22?,23?,24?,25?/m1/s1
Instrument: ABSciex API3200 LC/MS system
Instrument type: LC-ESI-QQQ
Ms type: MS
Ion mode: POSITIVE
Precursor type: [M+H]+
m/z	relative intensity
100.6000	22
100.7000	42
118.6000	24
118.7000	43
118.8000	36
118.9000	30
119.1000	26
141.7000	40
141.8000	43
141.9000	57
142.0000	51
142.1000	63
142.2000	71
142.3000	46
142.4000	43
148.4000	23
148.6000	45
148.7000	45
148.8000	43
148.9000	35
149.1000	29
149.2000	41
166.7000	22
220.4000	25
220.5000	64
220.6000	60
220.7000	73
220.8000	91
220.9000	69
221.0000	65
221.1000	73
221.2000	46
221.3000	57
221.4000	64
221.6000	29
222.1000	30
222.2000	29
222.4000	24
223.1000	25
238.4000	24
238.5000	32
238.6000	32
238.7000	72
238.8000	66
238.9000	26
239.0000	25
239.1000	75
239.2000	37
239.4000	45
294.7000	36
294.8000	66
303.3000	24
303.4000	114
303.5000	280
303.6000	204
303.7000	224
303.8000	234
303.9000	215
304.0000	235
304.1000	202
304.2000	186
304.3000	221
304.4000	154
304.5000	74
304.6000	56
304.7000	47
304.8000	35
304.9000	41
305.0000	39
305.1000	47
305.2000	25
305.3000	36
305.4000	21
310.5000	26
310.6000	34
310.7000	51
310.8000	25
310.9000	27
311.1000	41
311.4000	25
313.2000	44
483.7000	25
483.9000	34
484.0000	23
484.1000	29
645.2000	64
645.3000	190
645.4000	490
645.5000	709
645.6000	690
645.7000	809
645.8000	999
645.9000	931
646.0000	886
646.1000	919
646.2000	667
646.3000	550
646.4000	346
646.5000	315
646.6000	313
646.7000	307
646.8000	342
646.9000	349
647.0000	372
647.1000	729
647.2000	367
647.3000	186
647.4000	126
647.5000	97
647.6000	98
647.7000	86
647.8000	92
647.9000	99
648.0000	79
648.1000	54
648.2000	90
648.3000	53
648.4000	22
648.5000	22
649.6000	21
1291.1000	28
1291.2000	31
