Mass spectrum: Palmatine; LC-ESI-QQQ; MS; [M+H]+
Name: Palmatin
Name: Berbericine
Name: 2,3,9,10-Tetramethoxyprotoberberin
Name: O,O-Dimethyldemethyleneberberine
Name: Palmatine
Class: Alkaloids
Formula: [C21H22NO4]+
Exact mass: 352.4138
SMILES: COc1cc2c(cc1OC)-c1cc3ccc(OC)c(OC)c3c[n+]1CC2
InChI: InChI=1S/C21H22NO4/c1-23-18-6-5-13-9-17-15-11-20(25-3)19(24-2)10-14(15)7-8-22(17)12-16(13)21(18)26-4/h5-6,9-12H,7-8H2,1-4H3/q+1
Instrument: ABSciex API3200 LC/MS system
Instrument type: LC-ESI-QQQ
Ms type: MS
Ion mode: POSITIVE
Precursor type: [M]+
m/z	relative intensity
290.5000	31
290.6000	36
290.7000	39
290.8000	53
290.9000	41
291.0000	52
291.1000	36
291.2000	71
291.3000	89
291.4000	65
291.5000	74
291.6000	79
291.7000	63
291.8000	56
291.9000	82
292.0000	83
292.1000	60
292.2000	83
292.3000	56
292.4000	46
292.5000	43
292.6000	61
292.7000	45
292.8000	42
292.9000	34
293.0000	44
293.1000	24
293.2000	35
293.3000	39
293.4000	44
293.5000	61
293.6000	77
293.7000	83
293.8000	77
293.9000	92
294.0000	96
294.1000	67
294.2000	85
294.3000	57
294.4000	55
294.5000	27
306.6000	23
306.7000	29
306.8000	26
306.9000	29
307.0000	34
307.1000	28
307.2000	23
307.3000	29
307.4000	127
307.5000	257
307.6000	307
307.7000	324
307.8000	344
307.9000	339
308.0000	315
308.1000	307
308.2000	292
308.3000	269
308.4000	236
308.5000	110
308.6000	106
308.7000	119
308.8000	87
308.9000	93
309.0000	86
309.1000	90
309.2000	89
309.3000	80
309.4000	55
319.3000	23
319.4000	72
319.5000	116
319.6000	149
319.7000	135
319.8000	165
319.9000	218
320.0000	168
320.1000	139
320.2000	150
320.3000	118
320.4000	119
320.5000	91
320.6000	75
320.7000	54
320.8000	63
320.9000	61
321.0000	73
321.1000	45
321.2000	56
321.3000	63
321.4000	101
321.5000	158
321.6000	209
321.7000	199
321.8000	211
321.9000	204
322.0000	180
322.1000	183
322.2000	131
322.3000	153
322.4000	100
322.5000	51
322.6000	46
322.7000	35
322.8000	33
322.9000	37
323.0000	30
323.1000	30
323.2000	27
323.3000	34
333.7000	21
335.3000	44
335.4000	190
335.5000	383
335.6000	435
335.7000	495
335.8000	455
335.9000	426
336.0000	428
336.1000	447
336.2000	442
336.3000	420
336.4000	462
336.5000	513
336.6000	548
336.7000	567
336.8000	546
336.9000	582
337.0000	497
337.1000	497
337.2000	492
337.3000	462
337.4000	393
337.5000	206
337.6000	232
337.7000	163
337.8000	157
337.9000	248
338.0000	374
338.1000	131
338.2000	131
338.3000	109
338.4000	95
338.5000	37
338.6000	34
338.7000	49
338.9000	30
339.1000	24
351.2000	55
351.3000	443
351.4000	977
351.5000	964
351.6000	945
351.7000	922
351.8000	987
351.9000	990
352.0000	999
352.1000	992
352.2000	972
352.3000	954
352.4000	907
352.5000	624
352.6000	611
352.7000	621
352.8000	562
352.9000	585
353.0000	592
353.1000	596
353.2000	571
353.3000	546
353.4000	552
353.5000	444
353.6000	198
353.7000	155
353.8000	129
353.9000	133
354.0000	123
354.1000	159
354.2000	138
354.3000	116
354.4000	110
354.5000	62
354.6000	32
354.7000	23
354.8000	26
354.9000	32
