Mass spectrum: Rizinsan A; LC-ESI-QQQ; MS; [M+H]+
Name: Rizinsan A
Class: Terpenoids
Formula: C42H65NO16
Exact mass: 839.9835
SMILES: CC1(C)C2CC[C@]3(C)C(C(=O)C=C4[C@@H]5C[C@@](C)(C(=O)O)CC[C@]5(C)CC[C@]43C)[C@@]2(C)CC[C@@H]1O[C@H]1O[C@H](C(=O)O)[C@@H](O)[C@H](O)[C@H]1O[C@H]1O[C@@H](C(=O)O)[C@H](O)[C@@H](O)C1O.N
InChI: InChI=1S/C42H62O16.H3N/c1-37(2)21-8-11-42(7)31(20(43)16-18-19-17-39(4,36(53)54)13-12-38(19,3)14-15-41(18,42)6)40(21,5)10-9-22(37)55-35-30(26(47)25(46)29(57-35)33(51)52)58-34-27(48)23(44)24(45)28(56-34)32(49)50;/h16,19,21-31,34-35,44-48H,8-15,17H2,1-7H3,(H,49,50)(H,51,52)(H,53,54);1H3/t19-,21?,22-,23+,24+,25-,26-,27?,28+,29-,30+,31?,34+,35-,38+,39-,40-,41+,42+;/m0./s1
Instrument: ABSciex API3200 LC/MS system
Instrument type: LC-ESI-QQQ
Ms type: MS
Ion mode: POSITIVE
Precursor type: [M+H]+
m/z	relative intensity
100.4000	36
100.5000	99
100.6000	128
100.7000	109
100.8000	95
100.9000	80
101.0000	43
101.1000	23
101.3000	43
115.1000	21
118.8000	45
118.9000	84
119.0000	211
119.1000	292
119.2000	215
119.3000	212
119.4000	136
119.5000	131
119.6000	56
119.7000	62
119.8000	39
119.9000	22
141.4000	30
141.5000	71
141.6000	53
141.7000	25
141.9000	33
142.0000	60
142.1000	59
142.2000	42
149.1000	71
176.6000	22
197.7000	25
197.8000	71
198.1000	33
220.8000	23
221.2000	28
221.3000	32
452.4000	31
452.5000	117
452.6000	330
452.7000	421
452.8000	471
452.9000	528
453.0000	586
453.1000	527
453.2000	461
453.3000	486
453.4000	439
453.5000	349
453.6000	184
453.7000	168
453.8000	202
453.9000	177
454.0000	177
454.1000	162
454.2000	234
454.3000	177
454.4000	171
454.5000	132
454.6000	63
454.7000	42
454.8000	39
454.9000	35
455.0000	45
455.1000	38
455.2000	43
455.3000	32
455.4000	29
470.7000	26
470.8000	33
470.9000	56
471.0000	42
471.1000	36
471.2000	41
471.3000	34
471.4000	34
471.5000	34
471.8000	21
472.1000	22
646.5000	76
646.6000	118
646.7000	169
646.8000	168
646.9000	196
647.0000	138
647.1000	184
647.2000	169
647.3000	147
647.4000	147
647.5000	76
647.6000	174
647.7000	99
647.8000	72
647.9000	76
648.0000	108
648.1000	86
648.2000	57
648.3000	52
648.4000	38
648.5000	30
648.6000	24
649.0000	26
649.1000	22
822.3000	81
822.4000	291
822.5000	673
822.6000	755
822.7000	862
822.8000	907
822.9000	905
823.0000	999
823.1000	971
823.2000	967
823.3000	910
823.4000	820
823.5000	552
823.6000	463
823.7000	489
823.8000	506
823.9000	484
824.0000	483
824.1000	701
824.2000	902
824.3000	436
824.4000	308
824.5000	161
824.6000	140
824.7000	114
824.8000	164
824.9000	152
825.0000	122
825.1000	166
825.2000	155
825.3000	123
825.4000	92
825.5000	32
825.7000	24
825.9000	33
826.0000	33
826.3000	43
826.4000	52
863.9000	22
1233.3000	26
1233.5000	34
1233.6000	37
1233.7000	66
1233.8000	66
1233.9000	71
1234.0000	88
1234.1000	104
1234.2000	92
1234.3000	97
1234.4000	101
1234.5000	96
1234.6000	105
1234.7000	112
1234.8000	91
1234.9000	88
1235.0000	80
1235.1000	86
1235.2000	80
1235.3000	63
1235.4000	69
1235.5000	46
1235.6000	31
1235.7000	30
1235.8000	46
1235.9000	43
1236.0000	22
1242.5000	25
1242.6000	28
1242.7000	23
1242.8000	22
1242.9000	24
1243.1000	30
1243.2000	28
1243.3000	38
1243.5000	24
1292.9000	21
1293.0000	36
1293.1000	24
1293.3000	30
1293.5000	23
1294.1000	25
1294.2000	21
1294.5000	21
1294.8000	22
