Mass spectrum: 16-Deethylindanomycin; LC-ESI-QQQ; MS; [M+H]+
Name: 16-Deethylindanomycin
Class: Carbohydrates
Formula: C29H39NO4
Exact mass: 465.6385
SMILES: CC/C(=C\C=C\C1C=CC2CCCC2C1C(=O)c1ccc[nH]1)C1OC(C(C)C(=O)O)CCC1C
InChI: InChI=1S/C29H39NO4/c1-4-20(28-18(2)13-16-25(34-28)19(3)29(32)33)8-5-10-22-15-14-21-9-6-11-23(21)26(22)27(31)24-12-7-17-30-24/h5,7-8,10,12,14-15,17-19,21-23,25-26,28,30H,4,6,9,11,13,16H2,1-3H3,(H,32,33)/b10-5+,20-8+
Instrument: ABSciex API3200 LC/MS system
Instrument type: LC-ESI-QQQ
Ms type: MS
Ion mode: POSITIVE
Precursor type: [M+H]+
m/z	relative intensity
156.5000	21
156.6000	30
156.7000	33
156.8000	36
156.9000	34
157.0000	33
157.1000	35
157.2000	27
157.3000	25
225.4000	27
225.5000	39
225.6000	54
225.7000	58
225.8000	58
225.9000	60
226.0000	61
226.1000	68
226.2000	56
226.3000	56
226.4000	58
226.5000	31
403.5000	26
403.6000	61
403.7000	90
403.8000	93
403.9000	102
404.0000	97
404.1000	99
404.2000	94
404.3000	92
404.4000	85
404.5000	72
404.6000	42
404.7000	37
404.8000	31
404.9000	32
405.0000	33
405.1000	30
405.2000	31
405.3000	28
405.4000	25
405.5000	24
421.7000	22
421.8000	23
421.9000	24
422.0000	30
422.1000	26
422.2000	27
422.3000	27
422.4000	23
447.5000	39
447.6000	65
447.7000	83
447.8000	103
447.9000	109
448.0000	95
448.1000	93
448.2000	90
448.3000	87
448.4000	78
448.5000	56
448.6000	37
448.7000	33
448.8000	35
448.9000	34
449.0000	28
449.1000	29
449.2000	42
449.3000	44
449.4000	23
465.4000	118
465.5000	321
465.6000	651
465.7000	894
465.8000	939
465.9000	975
466.0000	999
466.1000	968
466.2000	947
466.3000	878
466.4000	834
466.5000	546
466.6000	402
466.7000	412
466.8000	442
466.9000	434
467.0000	443
467.1000	425
467.2000	420
467.3000	397
467.4000	350
467.5000	213
467.6000	119
467.7000	106
467.8000	123
467.9000	113
468.0000	99
468.1000	93
468.2000	93
468.3000	87
468.4000	70
468.5000	40
468.6000	33
468.7000	23
931.5000	21
947.5000	34
947.6000	53
947.7000	59
947.8000	72
947.9000	80
948.0000	89
948.1000	87
948.2000	87
948.3000	94
948.4000	80
948.5000	86
948.6000	61
948.7000	52
948.8000	51
948.9000	52
949.0000	51
949.1000	55
949.2000	55
949.3000	61
949.4000	45
949.5000	43
949.6000	26
