Mass spectrum: Ajmaline; LC-ESI-QQQ; MS; [M+H]+
Name: Ajmaline
Class: Alkaloids
Formula: C20H26N2O2
Exact mass: 326.44242
SMILES: CCC1[C@@H]2CC3C4N(C)c5ccccc5C45C[C@@H](C2[C@@H]5O)N3[C@@H]1O
InChI: InChI=1S/C20H26N2O2/c1-3-10-11-8-14-17-20(12-6-4-5-7-13(12)21(17)2)9-15(16(11)18(20)23)22(14)19(10)24/h4-7,10-11,14-19,23-24H,3,8-9H2,1-2H3/t10?,11-,14?,15-,16?,17?,18-,19+,20?/m0/s1
Instrument: ABSciex API3200 LC/MS system
Instrument type: LC-ESI-QQQ
Ms type: MS
Ion mode: POSITIVE
Precursor type: [M+H]+
m/z	relative intensity
325.4000	42
325.5000	57
325.6000	63
325.7000	63
325.8000	50
326.8000	48
326.9000	63
327.2000	107
327.3000	757
327.4000	999
327.5000	926
327.6000	880
327.7000	874
327.8000	987
327.9000	768
328.0000	293
328.1000	124
328.3000	136
328.4000	384
328.5000	567
328.6000	660
328.7000	708
328.8000	633
328.9000	267
329.0000	80
329.1000	37
329.3000	24
329.4000	55
329.5000	104
329.6000	118
329.7000	125
329.8000	123
329.9000	43
345.3000	34
345.4000	129
345.5000	238
345.6000	306
345.7000	335
345.8000	287
345.9000	117
346.0000	27
346.4000	30
346.5000	67
346.6000	80
346.7000	91
346.8000	82
346.9000	33
363.4000	52
363.5000	103
363.6000	123
363.7000	130
363.8000	114
363.9000	61
364.5000	21
364.6000	28
364.7000	34
364.8000	29
368.6000	22
368.7000	23
368.8000	24
381.4000	39
381.5000	57
381.6000	59
381.7000	57
381.8000	53
381.9000	29
399.4000	22
399.5000	43
399.6000	49
399.7000	57
399.8000	48
399.9000	30
417.5000	31
417.6000	31
417.7000	31
417.8000	32
435.7000	21
653.5000	21
653.6000	47
653.7000	65
653.8000	80
653.9000	85
654.0000	59
654.1000	22
654.7000	31
654.8000	38
654.9000	38
655.0000	32
