Mass spectrum: Cyclosporin A; LC-ESI-QQQ; MS; [M+H]+
Name: Cyclosporin A
Class: Aminoacids and peptides
Formula: C62H111N11O12
Exact mass: 1202.6425
SMILES: C/C=C/C[C@@H](C)[C@@H](O)C1C(O)=NC(CC)C(=O)N(C)CC(=O)N(C)C(CC(C)C)C(O)=NC(C(C)C)C(=O)N(C)C(CC(C)C)C(O)=NC(C)C(O)=N[C@H](C)C(=O)N(C)C(CC(C)C)C(=O)N(C)C(CC(C)C)C(=O)N(C)C(C(C)C)C(=O)N1C
InChI: InChI=1S/C62H111N11O12/c1-25-27-28-40(15)52(75)51-56(79)65-43(26-2)58(81)67(18)33-48(74)68(19)44(29-34(3)4)55(78)66-49(38(11)12)61(84)69(20)45(30-35(5)6)54(77)63-41(16)53(76)64-42(17)57(80)70(21)46(31-36(7)8)59(82)71(22)47(32-37(9)10)60(83)72(23)50(39(13)14)62(85)73(51)24/h25,27,34-47,49-52,75H,26,28-33H2,1-24H3,(H,63,77)(H,64,76)(H,65,79)(H,66,78)/b27-25+/t40-,41?,42-,43?,44?,45?,46?,47?,49?,50?,51?,52-/m1/s1
Instrument: ABSciex API3200 LC/MS system
Instrument type: LC-ESI-QQQ
Ms type: MS
Ion mode: POSITIVE
Precursor type: [M+H]+
m/z	relative intensity
148.4000	26
165.9000	28
270.2000	25
397.1000	21
509.8000	21
510.0000	21
510.1000	23
510.2000	44
510.3000	26
545.7000	21
601.2000	28
601.3000	38
601.4000	83
601.5000	68
601.6000	86
601.7000	90
601.8000	111
601.9000	118
602.0000	85
602.1000	65
602.2000	81
602.3000	78
602.4000	71
602.5000	60
602.6000	38
602.7000	23
602.8000	28
1189.9000	36
1201.5000	26
1201.6000	104
1201.7000	149
1201.8000	163
1201.9000	171
1202.0000	239
1202.1000	271
1202.2000	258
1202.3000	291
1202.4000	334
1202.5000	271
1202.6000	286
1202.7000	303
1202.8000	181
1202.9000	174
1203.0000	181
1203.1000	584
1203.2000	999
1203.3000	352
1203.4000	309
1203.5000	224
1203.6000	171
1203.7000	153
1203.8000	110
1203.9000	73
1204.0000	60
1204.1000	56
1204.2000	58
1204.3000	71
1204.4000	78
1204.5000	78
1204.6000	58
1204.7000	53
1204.8000	23
1204.9000	33
1205.1000	26
1205.2000	23
1205.3000	21
1205.4000	26
1205.5000	21
1205.6000	31
1218.7000	25
1218.8000	53
1218.9000	61
1219.0000	75
1219.1000	76
1219.2000	116
1219.3000	96
1219.4000	103
1219.5000	88
1219.6000	78
1219.7000	88
1219.8000	68
1219.9000	53
1220.0000	48
1220.1000	64
1220.2000	61
1220.3000	51
1220.4000	56
1220.5000	86
1220.6000	46
1220.7000	50
1220.8000	64
1220.9000	34
1221.0000	36
1221.1000	21
1221.3000	21
1221.4000	26
1221.5000	33
1221.7000	23
1221.8000	21
