Mass spectrum: Methyl galbanate; LC-ESI-QQQ; MS; [M+H]+
Name: Methyl galbanate
Class: Benzopyranoids
Formula: C25H32O5
Exact mass: 412.5308
SMILES: COC(=O)CC[C@H]1C(=C(C)C)CC[C@H](C)[C@]1(C)COc1ccc2ccc(=O)oc2c1
InChI: InChI=1S/C25H32O5/c1-16(2)20-10-6-17(3)25(4,21(20)11-13-23(26)28-5)15-29-19-9-7-18-8-12-24(27)30-22(18)14-19/h7-9,12,14,17,21H,6,10-11,13,15H2,1-5H3/t17-,21-,25-/m0/s1
Instrument: ABSciex API3200 LC/MS system
Instrument type: LC-ESI-QQQ
Ms type: MS
Ion mode: POSITIVE
Precursor type: [M+H]+
m/z	relative intensity
106.5000	33
106.6000	34
106.7000	41
106.8000	47
106.9000	50
107.0000	33
107.1000	48
107.2000	38
107.3000	45
107.4000	28
107.5000	23
108.4000	29
108.5000	43
108.6000	117
108.7000	155
108.8000	147
108.9000	163
109.0000	157
109.1000	150
109.2000	160
109.3000	114
109.4000	109
109.5000	76
118.6000	22
119.2000	25
120.5000	27
120.6000	54
120.7000	81
120.8000	51
120.9000	90
121.0000	78
121.1000	66
121.2000	60
121.3000	67
121.4000	55
121.5000	49
122.5000	33
122.6000	52
122.7000	58
122.8000	48
122.9000	63
123.0000	60
123.1000	79
123.2000	51
123.3000	66
123.4000	44
123.5000	36
134.5000	31
134.6000	31
134.7000	55
134.8000	70
134.9000	49
135.0000	68
135.1000	40
135.2000	45
135.3000	52
135.4000	46
135.5000	29
148.6000	31
148.7000	43
148.8000	58
148.9000	48
149.0000	25
149.1000	33
149.2000	43
149.3000	38
149.4000	50
162.4000	361
162.5000	595
162.6000	739
162.7000	798
162.8000	763
162.9000	941
163.0000	700
163.1000	759
163.2000	644
163.3000	501
163.4000	425
163.5000	152
163.6000	92
163.7000	70
163.8000	100
163.9000	91
164.0000	97
164.1000	83
164.2000	78
164.3000	71
164.4000	57
164.5000	22
166.4000	28
166.5000	57
166.6000	99
166.7000	93
166.8000	83
166.9000	89
167.0000	85
167.1000	71
167.2000	76
167.3000	78
167.4000	57
167.5000	44
167.6000	25
176.5000	50
176.6000	67
176.7000	87
176.8000	74
176.9000	81
177.0000	82
177.1000	98
177.2000	77
177.3000	57
177.4000	71
177.5000	33
180.4000	32
180.5000	74
180.6000	118
180.7000	112
180.8000	125
180.9000	127
181.0000	101
181.1000	129
181.2000	119
181.3000	93
181.4000	90
181.5000	42
181.6000	30
181.7000	21
188.4000	102
188.5000	130
188.6000	159
188.7000	186
188.8000	213
188.9000	205
189.0000	197
189.1000	162
189.2000	162
189.3000	155
189.4000	111
189.5000	34
189.6000	36
189.7000	30
189.8000	27
190.0000	26
190.6000	26
191.1000	22
191.3000	22
194.4000	27
194.5000	85
194.6000	137
194.7000	118
194.8000	150
194.9000	139
195.0000	126
195.1000	154
195.2000	110
195.3000	146
195.4000	96
195.5000	74
195.6000	39
195.9000	23
196.0000	24
196.3000	25
200.6000	22
200.7000	40
200.8000	33
200.9000	21
201.0000	55
201.1000	43
201.2000	43
201.3000	30
201.4000	34
218.4000	33
218.5000	79
218.6000	116
218.7000	162
218.8000	179
218.9000	178
219.0000	171
219.1000	149
219.2000	124
219.3000	233
219.4000	115
219.5000	85
219.6000	35
219.8000	22
220.0000	21
220.1000	31
220.3000	22
220.4000	22
220.5000	21
250.4000	50
250.5000	261
250.6000	583
250.7000	765
250.8000	705
250.9000	694
251.0000	746
251.1000	721
251.2000	687
251.3000	616
251.4000	547
251.5000	481
251.6000	243
251.7000	200
251.8000	88
251.9000	139
252.0000	125
252.1000	147
252.2000	92
252.3000	109
252.4000	94
252.5000	104
252.6000	30
338.7000	22
338.8000	104
338.9000	107
380.7000	25
380.8000	24
380.9000	24
381.2000	22
381.3000	24
412.3000	40
412.4000	206
412.5000	605
412.6000	833
412.7000	874
412.8000	929
412.9000	911
413.0000	960
413.1000	969
413.2000	999
413.3000	897
413.4000	788
413.5000	552
413.6000	458
413.7000	398
413.8000	437
413.9000	336
414.0000	339
414.1000	370
414.2000	350
414.3000	377
414.4000	343
414.5000	165
414.6000	116
414.7000	90
414.8000	70
414.9000	65
415.0000	72
415.1000	294
415.2000	178
415.3000	57
415.4000	46
415.5000	24
429.5000	21
429.6000	43
429.7000	50
429.8000	60
429.9000	49
430.0000	62
430.1000	72
430.2000	59
430.3000	46
430.4000	60
430.5000	25
430.8000	21
431.1000	22
453.7000	26
453.9000	24
454.0000	21
454.1000	27
454.2000	26
454.4000	22
824.5000	74
824.6000	103
824.7000	135
824.8000	174
824.9000	146
825.0000	156
825.1000	130
825.2000	145
825.3000	116
825.4000	132
825.5000	100
825.6000	82
825.7000	74
825.8000	92
825.9000	63
826.0000	103
826.1000	97
826.2000	90
826.3000	95
826.4000	85
826.5000	48
826.6000	35
826.7000	32
826.8000	23
826.9000	32
827.0000	48
827.1000	34
827.2000	21
