Mass spectrum: Diffractic acid; LC-ESI-QQQ; MS; [M+H]+
Name: Diffractic acid
Class: Carbohydrates
Formula: C20H22O7
Exact mass: 374.3941
SMILES: COc1cc(C)c(C(=O)Oc2cc(C)c(C(=O)O)c(O)c2C)c(OC)c1C
InChI: InChI=1S/C20H22O7/c1-9-8-14(11(3)17(21)15(9)19(22)23)27-20(24)16-10(2)7-13(25-5)12(4)18(16)26-6/h7-8,21H,1-6H3,(H,22,23)
Instrument: ABSciex API3200 LC/MS system
Instrument type: LC-ESI-QQQ
Ms type: MS
Ion mode: POSITIVE
Precursor type: [M+H]+
m/z	relative intensity
107.3000	31
109.5000	28
114.2000	36
114.3000	48
114.4000	38
114.5000	38
127.2000	25
193.2000	41
193.3000	272
193.4000	376
193.5000	464
193.6000	454
193.7000	391
193.8000	112
194.3000	30
194.4000	50
194.5000	54
194.6000	50
194.7000	44
211.2000	44
211.3000	117
211.4000	160
211.5000	164
211.6000	158
211.7000	150
211.8000	48
212.4000	22
212.5000	25
212.6000	23
212.7000	21
229.5000	26
229.6000	22
375.2000	81
375.3000	496
375.4000	793
375.5000	967
375.6000	999
375.7000	927
375.8000	575
375.9000	118
376.0000	46
376.3000	109
376.4000	209
376.5000	242
376.6000	268
376.7000	238
376.8000	133
376.9000	32
377.4000	25
377.5000	47
377.6000	39
377.7000	38
377.8000	24
393.4000	32
393.5000	26
393.6000	38
393.7000	35
393.8000	21
429.3000	21
429.4000	51
429.5000	61
429.6000	68
429.7000	69
429.8000	37
447.4000	21
447.5000	21
447.7000	30
766.6000	35
766.7000	48
766.8000	55
766.9000	49
767.8000	23
