Mass spectrum: Subcusine; LC-ESI-QQQ; MS; [M+H]+
Name: Subcusine
Class: Alkaloids
Formula: C24H39NO6
Exact mass: 437.58153000000004
SMILES: CCN1C[C@]2(COC)CC[C@H](O)[C@]34C5C[C@@H]6[C@@H](OC)C[C@@](O)(C5[C@H]6O)[C@H](C13)[C@@H](OC)C24
InChI: InChI=1S/C24H39NO6/c1-5-25-10-22(11-29-2)7-6-15(26)24-13-8-12-14(30-3)9-23(28,16(13)18(12)27)17(21(24)25)19(31-4)20(22)24/h12-21,26-28H,5-11H2,1-4H3/t12-,13?,14+,15+,16?,17+,18+,19-,20?,21?,22+,23-,24+/m1/s1
Instrument: ABSciex API3200 LC/MS system
Instrument type: LC-ESI-QQQ
Ms type: MS
Ion mode: POSITIVE
Precursor type: [M+H]+
m/z	relative intensity
118.6000	21
387.7000	30
387.8000	37
387.9000	35
388.0000	36
388.1000	36
388.2000	48
388.3000	27
388.4000	28
419.6000	44
419.7000	66
419.8000	87
419.9000	78
420.0000	94
420.1000	80
420.2000	79
420.3000	73
420.4000	63
420.5000	57
420.6000	28
420.7000	27
420.8000	28
420.9000	23
421.0000	24
421.1000	31
421.2000	25
421.3000	22
437.4000	66
437.5000	419
437.6000	799
437.7000	923
437.8000	973
437.9000	988
438.0000	999
438.1000	980
438.2000	964
438.3000	955
438.4000	895
438.5000	718
438.6000	496
438.7000	506
438.8000	521
438.9000	513
439.0000	532
439.1000	545
439.2000	521
439.3000	507
439.4000	473
439.5000	373
439.6000	217
439.7000	185
439.8000	173
439.9000	179
440.0000	164
440.1000	174
440.2000	168
440.3000	156
440.4000	150
440.5000	105
440.6000	52
440.7000	36
440.8000	33
440.9000	27
441.0000	28
441.1000	26
441.2000	23
441.3000	24
441.4000	22
