Mass spectrum: osajin; LC-ESI-QQQ; MS; [M+H]+
Name: osajin
Class: Flavonoids
Formula: C25H24O5
Exact mass: 404.467
SMILES: CC(C)=CCc1c2c(c3occ(-c4ccc(O)cc4)c(=O)c3c1O)C=CC(C)(C)O2
InChI: InChI=1S/C25H24O5/c1-14(2)5-10-17-21(27)20-22(28)19(15-6-8-16(26)9-7-15)13-29-24(20)18-11-12-25(3,4)30-23(17)18/h5-9,11-13,26-27H,10H2,1-4H3
Instrument: ABSciex API3200 LC/MS system
Instrument type: LC-ESI-QQQ
Ms type: MS
Ion mode: POSITIVE
Precursor type: [M+H]+
m/z	relative intensity
120.8000	22
212.9000	28
213.1000	27
213.2000	45
330.5000	37
330.6000	46
330.7000	42
330.8000	28
330.9000	64
331.0000	61
331.1000	31
331.2000	39
331.6000	26
348.2000	43
348.3000	249
348.4000	416
348.5000	805
348.6000	893
348.7000	903
348.8000	951
348.9000	963
349.0000	999
349.1000	822
349.2000	749
349.3000	798
349.4000	530
349.5000	265
349.6000	292
349.7000	259
349.8000	213
349.9000	215
350.0000	225
350.1000	177
350.2000	182
350.3000	189
350.4000	103
350.5000	47
350.6000	41
350.7000	50
350.8000	64
350.9000	39
351.0000	36
351.1000	45
351.2000	39
351.3000	22
404.2000	46
404.3000	278
404.4000	281
404.5000	385
404.6000	418
404.7000	432
404.8000	500
404.9000	505
405.0000	463
405.1000	515
405.2000	431
405.3000	391
405.4000	377
405.5000	164
405.6000	188
405.7000	167
405.8000	141
405.9000	142
406.0000	120
406.1000	172
406.2000	127
406.3000	116
406.4000	112
406.5000	37
406.6000	83
406.7000	53
406.8000	36
406.9000	30
407.2000	31
407.3000	48
