Mass spectrum: Dihydrostreptomycin; LC-ESI-QQQ; MS; [M+H]+
Name: Dihydrostreptomycin
Class: Carbohydrates
Formula: C21H41N7O12
Exact mass: 583.6006
SMILES: CNC1C(O)[C@@H](O)C(CO)O[C@H]1OC1[C@H](OC2C(O)[C@@H](O)C(NC(=N)N)C(O)[C@@H]2NC(=N)N)O[C@@H](C)C1(O)CO
InChI: InChI=1S/C21H41N7O12/c1-5-21(36,4-30)16(40-17-9(26-2)13(34)10(31)6(3-29)38-17)18(37-5)39-15-8(28-20(24)25)11(32)7(27-19(22)23)12(33)14(15)35/h5-18,26,29-36H,3-4H2,1-2H3,(H4,22,23,27)(H4,24,25,28)/t5-,6?,7?,8-,9?,10-,11?,12-,13?,14?,15?,16?,17-,18-,21?/m0/s1
Instrument: ABSciex API3200 LC/MS system
Instrument type: LC-ESI-QQQ
Ms type: MS
Ion mode: POSITIVE
Precursor type: [M+H]+
m/z	relative intensity
100.1000	26
100.4000	103
100.5000	88
100.6000	228
100.7000	273
100.8000	341
100.9000	422
101.0000	367
101.1000	479
101.2000	307
101.3000	225
101.4000	166
101.5000	54
101.6000	35
101.8000	41
101.9000	42
102.0000	50
102.5000	22
109.0000	23
109.6000	30
109.7000	34
109.8000	40
109.9000	33
110.0000	32
110.1000	54
110.2000	51
110.3000	22
110.4000	34
110.5000	58
110.6000	25
110.7000	43
110.8000	46
110.9000	46
111.0000	45
111.1000	36
111.2000	48
111.4000	42
111.5000	36
111.7000	21
111.9000	21
112.0000	21
112.3000	27
112.9000	22
113.1000	31
113.8000	33
118.4000	44
118.5000	100
118.6000	63
126.7000	30
127.8000	22
128.2000	22
128.5000	51
128.6000	59
128.7000	45
128.8000	95
128.9000	83
129.0000	37
129.1000	76
129.2000	64
129.3000	101
129.4000	71
129.5000	22
129.7000	26
130.2000	22
130.3000	44
131.5000	36
131.6000	53
131.7000	76
131.8000	61
131.9000	74
132.0000	50
132.1000	40
132.2000	67
132.3000	55
132.4000	45
134.8000	22
134.9000	53
135.0000	43
135.3000	27
139.9000	24
140.6000	33
140.7000	23
146.7000	43
146.9000	59
147.0000	22
147.1000	33
147.2000	28
147.3000	27
147.4000	33
148.5000	25
148.6000	78
148.7000	84
148.8000	41
148.9000	93
149.0000	29
149.1000	81
149.2000	120
149.3000	56
149.4000	62
150.2000	43
150.3000	33
150.4000	32
151.2000	21
157.9000	28
158.1000	27
158.2000	40
158.3000	39
166.8000	30
166.9000	30
173.1000	28
175.4000	37
175.5000	403
175.6000	418
175.7000	414
175.8000	452
175.9000	417
176.0000	426
176.1000	385
176.2000	392
176.3000	386
176.4000	327
176.5000	114
176.6000	75
176.7000	52
176.8000	38
177.0000	21
177.3000	29
177.4000	32
186.2000	29
186.3000	24
186.4000	24
190.2000	32
194.7000	75
194.8000	286
194.9000	485
195.0000	597
195.1000	616
195.2000	709
195.3000	800
195.4000	850
195.5000	697
195.6000	660
195.7000	576
195.8000	458
195.9000	193
196.0000	170
196.1000	103
196.2000	90
196.3000	34
196.4000	45
196.5000	24
200.2000	31
203.4000	34
203.5000	63
203.6000	152
203.7000	57
203.8000	62
203.9000	57
204.0000	56
204.1000	65
204.2000	41
204.3000	37
204.4000	60
204.5000	43
204.6000	40
204.7000	46
204.8000	52
204.9000	40
205.0000	30
205.1000	41
205.2000	44
205.3000	40
205.4000	39
205.5000	26
206.4000	25
206.5000	28
206.6000	36
206.7000	38
206.9000	73
207.0000	54
207.1000	35
207.2000	69
207.3000	62
207.4000	40
208.5000	52
208.6000	73
208.7000	79
208.8000	79
208.9000	40
209.0000	51
209.1000	64
209.2000	48
209.3000	71
209.4000	73
209.5000	105
209.6000	35
216.8000	26
217.0000	21
217.1000	48
220.4000	60
220.5000	172
220.6000	213
220.7000	215
220.8000	307
220.9000	330
221.0000	339
221.1000	328
221.2000	377
221.3000	419
221.4000	220
221.5000	140
221.6000	52
221.7000	76
221.8000	77
221.9000	50
222.0000	90
222.1000	125
222.2000	74
222.3000	51
222.4000	81
222.5000	60
222.6000	87
222.7000	78
222.8000	52
222.9000	26
223.0000	29
223.1000	47
223.2000	62
223.3000	68
223.4000	37
223.6000	21
223.8000	23
224.4000	38
224.5000	36
224.6000	59
224.7000	38
224.8000	66
224.9000	31
225.0000	60
225.1000	61
225.2000	66
225.3000	23
225.4000	39
225.7000	24
225.8000	28
226.9000	33
238.4000	24
238.6000	102
238.7000	70
238.9000	38
240.4000	23
240.5000	24
245.4000	46
245.5000	118
245.6000	148
245.7000	134
245.8000	136
245.9000	171
246.0000	167
246.1000	154
246.2000	138
246.3000	139
246.4000	99
246.5000	32
246.6000	24
246.8000	28
262.4000	129
262.5000	451
262.6000	761
262.7000	653
262.8000	691
262.9000	744
263.0000	688
263.1000	982
263.2000	816
263.3000	595
263.4000	624
263.5000	437
263.6000	109
263.7000	75
263.8000	63
263.9000	43
264.0000	75
264.1000	57
264.2000	73
264.3000	93
264.4000	91
264.5000	30
281.3000	21
291.9000	69
292.0000	306
292.1000	438
292.2000	585
292.3000	635
292.4000	728
292.5000	765
292.6000	796
292.7000	998
292.8000	999
292.9000	892
293.0000	494
293.1000	369
293.2000	277
293.3000	243
293.4000	230
293.5000	117
293.6000	61
293.7000	50
293.8000	53
293.9000	35
294.0000	27
294.6000	35
294.7000	47
294.8000	41
294.9000	24
295.1000	30
295.3000	28
295.9000	22
296.0000	33
299.4000	25
299.7000	39
299.9000	27
310.3000	21
310.4000	24
310.5000	81
310.6000	106
310.7000	139
310.8000	192
310.9000	100
311.0000	190
311.1000	89
311.2000	119
311.3000	106
311.4000	85
311.5000	29
311.6000	37
312.1000	39
312.2000	85
312.3000	55
312.4000	22
312.6000	21
312.9000	26
313.1000	31
313.4000	25
313.8000	23
355.1000	21
355.2000	22
367.1000	22
368.8000	25
370.6000	29
373.1000	28
408.4000	43
408.5000	196
408.6000	302
408.7000	334
408.8000	382
408.9000	413
409.0000	427
409.1000	370
409.2000	386
409.3000	388
409.4000	309
409.5000	130
409.6000	81
409.7000	100
409.8000	90
409.9000	86
410.0000	99
410.1000	80
410.2000	76
410.3000	70
410.4000	48
410.5000	37
410.6000	22
410.7000	24
583.4000	22
583.5000	84
583.6000	154
583.7000	248
583.8000	265
583.9000	271
584.0000	272
584.1000	259
584.2000	253
584.3000	235
584.4000	175
584.5000	65
584.6000	50
584.7000	62
584.8000	94
584.9000	61
585.0000	68
585.1000	58
585.2000	104
585.3000	76
585.4000	66
585.6000	21
619.8000	30
620.0000	23
