Mass spectrum: Ergosta-4,22-dien-3-one ; LC-ESI-QQQ; MS; [M+H]+
Name: Ergosta-4,22-dien-3-one 
Class: Steroids
Formula: C28H44O
Exact mass: 396.66228
SMILES: CC(C)C(C)/C=C/C(C)C1CCC2C3CCC4=CC(=O)CC[C@]4(C)C3CC[C@]12C
InChI: InChI=1S/C28H44O/c1-18(2)19(3)7-8-20(4)24-11-12-25-23-10-9-21-17-22(29)13-15-27(21,5)26(23)14-16-28(24,25)6/h7-8,17-20,23-26H,9-16H2,1-6H3/b8-7+/t19?,20?,23?,24?,25?,26?,27-,28+/m0/s1
Instrument: ABSciex API3200 LC/MS system
Instrument type: LC-ESI-QQQ
Ms type: MS
Ion mode: POSITIVE
Precursor type: [M+H]+
m/z	relative intensity
109.2000	22
124.6000	44
124.7000	24
124.9000	25
125.0000	47
125.1000	37
125.2000	28
125.3000	27
125.5000	26
396.5000	22
396.6000	131
396.7000	503
396.8000	771
396.9000	946
397.0000	940
397.1000	954
397.2000	940
397.3000	999
397.4000	878
397.5000	748
397.6000	552
397.7000	327
397.8000	310
397.9000	281
398.0000	261
398.1000	345
398.2000	321
398.3000	326
398.4000	253
398.5000	237
398.6000	186
398.7000	50
398.8000	70
398.9000	53
399.0000	44
399.1000	35
399.2000	40
399.3000	38
399.4000	45
399.5000	46
399.6000	24
437.7000	41
437.8000	96
437.9000	109
438.0000	115
438.1000	129
438.2000	142
438.3000	126
438.4000	149
438.5000	77
438.6000	40
438.7000	30
438.8000	34
438.9000	42
439.0000	49
439.1000	54
439.2000	33
439.3000	44
439.4000	46
439.5000	31
792.9000	46
793.0000	58
793.1000	46
793.2000	81
793.3000	78
793.4000	76
793.5000	65
793.6000	53
793.7000	36
793.8000	31
793.9000	27
794.1000	26
794.2000	32
794.3000	30
794.4000	51
794.5000	37
794.6000	42
795.4000	22
