Mass spectrum: isoosajin; LC-ESI-QQQ; MS; [M+H]+
Name: isoosajin
Class: Flavonoids
Formula: C25H24O5
Exact mass: 404.467
SMILES: CC1(C)C=Cc2c(c3c(c4c(=O)c(-c5ccc(O)cc5)coc24)OC(C)(C)CC3)O1
InChI: InChI=1S/C25H24O5/c1-24(2)11-9-16-21(29-24)17-10-12-25(3,4)30-23(17)19-20(27)18(13-28-22(16)19)14-5-7-15(26)8-6-14/h5-9,11,13,26H,10,12H2,1-4H3
Instrument: ABSciex API3200 LC/MS system
Instrument type: LC-ESI-QQQ
Ms type: MS
Ion mode: POSITIVE
Precursor type: [M+H]+
m/z	relative intensity
212.5000	41
212.6000	52
212.7000	55
212.8000	57
212.9000	75
213.0000	78
213.1000	67
213.2000	64
213.3000	61
213.4000	46
330.3000	21
330.4000	55
330.5000	79
330.6000	84
330.7000	94
330.8000	109
330.9000	89
331.0000	100
331.1000	99
331.2000	79
331.3000	64
331.4000	42
331.5000	26
331.6000	22
331.7000	23
332.0000	21
332.1000	22
348.2000	113
348.3000	419
348.4000	693
348.5000	815
348.6000	880
348.7000	841
348.8000	849
348.9000	827
349.0000	854
349.1000	829
349.2000	780
349.3000	748
349.4000	557
349.5000	675
349.6000	857
349.7000	182
349.8000	124
349.9000	157
350.0000	211
350.1000	165
350.2000	193
350.3000	232
350.4000	130
350.5000	69
350.6000	74
350.7000	52
350.8000	49
350.9000	62
351.0000	68
351.1000	47
351.2000	50
351.3000	49
351.4000	27
351.5000	26
404.2000	44
404.3000	240
404.4000	609
404.5000	835
404.6000	905
404.7000	915
404.8000	917
404.9000	941
405.0000	962
405.1000	999
405.2000	898
405.3000	858
405.4000	683
405.5000	518
405.6000	521
405.7000	509
405.8000	533
405.9000	528
406.0000	534
406.1000	511
406.2000	511
406.3000	499
406.4000	370
406.5000	190
406.6000	141
406.7000	153
406.8000	160
406.9000	155
407.0000	142
407.1000	205
407.2000	192
407.3000	196
407.4000	84
407.5000	38
407.8000	25
422.6000	32
422.7000	33
422.8000	33
423.0000	28
423.1000	24
423.2000	30
423.3000	28
809.0000	23
1214.3000	28
