Mass spectrum: Oxymatrine; LC-ESI-QQQ; MS; [M+H]+
Name: Oxymatrine
Class: Alkaloids
Formula: C15H24N2O2
Exact mass: 264.3707
SMILES: O=C1CCC[C@@H]2[C@H]3CCC[N+]4([O-])CCC[C@@H](CN12)[C@@H]34
InChI: InChI=1S/C15H24N2O2/c18-14-7-1-6-13-12-5-3-9-17(19)8-2-4-11(15(12)17)10-16(13)14/h11-13,15H,1-10H2/t11-,12+,13+,15-,17?/m0/s1
Instrument: ABSciex API3200 LC/MS system
Instrument type: LC-ESI-QQQ
Ms type: MS
Ion mode: POSITIVE
Precursor type: [M+H]+
m/z	relative intensity
147.6000	22
147.7000	26
147.8000	24
147.9000	26
148.0000	30
148.1000	27
148.2000	21
148.8000	23
149.7000	22
204.6000	25
204.7000	25
204.8000	30
204.9000	25
205.0000	25
205.1000	30
205.2000	27
205.3000	23
205.4000	23
221.1000	26
246.5000	27
246.6000	41
246.7000	41
246.8000	50
246.9000	45
247.0000	56
247.1000	45
247.2000	56
247.3000	45
247.4000	99
247.5000	68
247.6000	30
247.7000	29
247.8000	24
247.9000	22
248.0000	26
248.1000	25
248.2000	25
248.3000	22
248.4000	24
264.3000	28
264.4000	271
264.5000	722
264.6000	906
264.7000	981
264.8000	960
264.9000	959
265.0000	964
265.1000	971
265.2000	947
265.3000	949
265.4000	999
265.5000	747
265.6000	445
265.7000	417
265.8000	340
265.9000	367
266.0000	357
266.1000	362
266.2000	339
266.3000	337
266.4000	352
266.5000	244
266.6000	110
266.7000	73
266.8000	54
266.9000	52
267.0000	56
267.1000	52
267.2000	47
267.3000	45
267.4000	41
267.5000	27
