Mass spectrum: Tetrahydropalmatine; LC-ESI-QQQ; MS; [M+H]+
Name: Tetrahydropalmatine
Class: Alkaloids
Formula: C21H25NO4
Exact mass: 355.4377
SMILES: COc1cc2c(cc1OC)[C@H]1Cc3ccc(OC)c(OC)c3CN1CC2
InChI: InChI=1S/C21H25NO4/c1-23-18-6-5-13-9-17-15-11-20(25-3)19(24-2)10-14(15)7-8-22(17)12-16(13)21(18)26-4/h5-6,10-11,17H,7-9,12H2,1-4H3/t17-/m1/s1
Instrument: ABSciex API3200 LC/MS system
Instrument type: LC-ESI-QQQ
Ms type: MS
Ion mode: POSITIVE
Precursor type: [M+H]+
m/z	relative intensity
149.8000	21
164.4000	60
164.5000	96
164.6000	168
164.7000	165
164.8000	142
164.9000	167
165.0000	159
165.1000	146
165.2000	138
165.3000	116
165.4000	104
165.5000	45
165.8000	22
165.9000	41
175.6000	21
175.7000	27
175.9000	24
176.0000	25
176.5000	28
176.6000	33
176.7000	32
176.8000	39
176.9000	35
177.0000	51
177.1000	25
177.2000	28
177.3000	25
177.4000	23
189.5000	28
189.6000	24
189.7000	39
189.8000	35
189.9000	34
190.0000	38
190.1000	27
190.2000	29
191.4000	194
191.5000	407
191.6000	531
191.7000	598
191.8000	609
191.9000	553
192.0000	575
192.1000	542
192.2000	495
192.3000	485
192.4000	678
192.5000	429
192.6000	90
192.7000	76
192.8000	62
192.9000	70
193.0000	78
193.1000	79
193.2000	131
193.3000	130
193.4000	53
193.5000	31
353.4000	31
353.5000	47
353.6000	61
353.7000	71
353.8000	70
353.9000	77
354.0000	80
354.1000	72
354.2000	68
354.3000	72
354.4000	56
354.5000	28
354.6000	24
355.2000	53
355.3000	263
355.4000	711
355.5000	930
355.6000	926
355.7000	984
355.8000	965
355.9000	992
356.0000	992
356.1000	999
356.2000	986
356.3000	941
356.4000	894
356.5000	720
356.6000	535
356.7000	522
356.8000	550
356.9000	544
357.0000	496
357.1000	485
357.2000	483
357.3000	442
357.4000	417
357.5000	216
357.6000	169
357.7000	135
357.8000	138
357.9000	93
358.0000	130
358.1000	137
358.2000	134
358.3000	129
358.4000	105
358.5000	41
358.6000	21
