Mass spectrum: Rizinsan A; LC-ESI-QQQ; MS; [M+H]+
Name: Rizinsan A
Class: Terpenoids
Formula: C42H65NO16
Exact mass: 839.9835
SMILES: CC12CC[C@](C)(C(=O)O)CC1C1=CC(=O)[C@@H]3C4(C)CC[C@H](O[C@@H]5O[C@@H](C(=O)O)[C@H](O)[C@@H](O)[C@@H]5O[C@H]5O[C@@H](C(=O)O)[C@H](O)[C@@H](O)[C@@H]5O)C(C)(C)[C@@H]4CCC3(C)[C@]1(C)CC2.N
InChI: InChI=1S/C42H62O16.H3N/c1-37(2)21-8-11-42(7)31(20(43)16-18-19-17-39(4,36(53)54)13-12-38(19,3)14-15-41(18,42)6)40(21,5)10-9-22(37)55-35-30(26(47)25(46)29(57-35)33(51)52)58-34-27(48)23(44)24(45)28(56-34)32(49)50;/h16,19,21-31,34-35,44-48H,8-15,17H2,1-7H3,(H,49,50)(H,51,52)(H,53,54);1H3/t19?,21-,22-,23+,24+,25+,26+,27-,28+,29+,30-,31+,34+,35+,38?,39-,40?,41+,42?;/m0./s1
Instrument: ABSciex API3200 LC/MS system
Instrument type: LC-ESI-QQQ
Ms type: MS
Ion mode: POSITIVE
Precursor type: [M+H]+
m/z	relative intensity
100.4000	85
100.5000	161
100.6000	180
100.7000	89
100.8000	162
100.9000	79
101.0000	52
101.5000	28
118.5000	115
118.6000	117
118.7000	93
118.8000	63
118.9000	61
120.2000	24
131.7000	23
141.5000	45
142.0000	36
142.1000	57
142.2000	76
142.3000	38
142.4000	40
198.1000	30
220.7000	29
221.1000	37
221.2000	37
238.7000	21
238.9000	21
278.9000	21
310.8000	23
452.5000	35
452.6000	116
452.7000	240
452.8000	362
452.9000	387
453.0000	462
453.1000	462
453.2000	347
453.3000	400
453.4000	410
453.5000	309
453.6000	137
453.7000	116
453.8000	175
453.9000	284
454.0000	152
454.1000	129
454.2000	121
454.3000	134
454.4000	103
454.5000	100
454.6000	123
454.7000	40
454.9000	46
455.1000	26
470.8000	24
471.0000	32
471.1000	38
471.2000	53
471.3000	30
646.6000	40
646.7000	61
646.8000	87
646.9000	80
647.0000	82
647.1000	121
647.2000	107
647.3000	91
647.4000	88
647.5000	75
647.6000	26
647.7000	39
647.8000	22
647.9000	36
648.0000	44
648.1000	54
648.2000	39
648.3000	42
648.4000	36
648.5000	25
822.4000	73
822.5000	304
822.6000	524
822.7000	664
822.8000	818
822.9000	780
823.0000	865
823.1000	943
823.2000	890
823.3000	821
823.4000	609
823.5000	426
823.6000	353
823.7000	403
823.8000	442
823.9000	999
824.0000	522
824.1000	415
824.2000	387
824.3000	361
824.4000	263
824.5000	159
824.6000	107
824.7000	128
824.8000	136
824.9000	88
825.0000	97
825.1000	103
825.2000	96
825.3000	104
825.4000	84
825.5000	46
825.6000	26
825.7000	23
825.9000	30
826.0000	32
826.1000	34
826.2000	24
840.2000	25
841.0000	32
863.9000	30
864.1000	25
1233.5000	22
1233.7000	22
1233.8000	28
1233.9000	52
1234.0000	65
1234.1000	66
1234.2000	87
1234.3000	80
1234.4000	93
1234.5000	99
1234.6000	71
1234.7000	116
1234.8000	94
1234.9000	96
1235.0000	82
1235.1000	78
1235.2000	63
1235.3000	71
1235.4000	70
1235.5000	69
1235.6000	34
1235.7000	29
1235.8000	34
1235.9000	32
1236.0000	61
1236.1000	21
1242.1000	29
1242.4000	23
1242.5000	29
1242.6000	28
1242.7000	34
1242.8000	39
1242.9000	36
1243.0000	56
1243.1000	50
1243.2000	53
1243.3000	45
1243.4000	51
1243.5000	53
1243.6000	45
1243.7000	33
1243.8000	32
1243.9000	23
1244.0000	24
1244.5000	23
1251.4000	29
1251.5000	23
1251.6000	22
1251.8000	30
1252.0000	29
1252.3000	26
1252.5000	29
1293.7000	25
