Mass spectrum: 1alpha-Hydroxy-1-desoxotamirin; LC-ESI-QQQ; MS; [M+H]+
Name: 1alpha-Hydroxy-1-desoxotamirin
Class: Terpenoids
Formula: C15H20O4
Exact mass: 264.3243
SMILES: C=C1C(=O)O[C@H]2CC(=C)[C@@H](O)CC/C(C)=C/[C@@H](O)C12
InChI: InChI=1S/C15H20O4/c1-8-4-5-11(16)9(2)7-13-14(12(17)6-8)10(3)15(18)19-13/h6,11-14,16-17H,2-5,7H2,1H3/b8-6+/t11-,12+,13-,14?/m0/s1
Instrument: ABSciex API3200 LC/MS system
Instrument type: LC-ESI-QQQ
Ms type: MS
Ion mode: POSITIVE
Precursor type: [M+H]+
m/z	relative intensity
104.5000	50
104.6000	76
104.7000	96
104.8000	89
104.9000	100
105.0000	122
105.1000	98
105.2000	99
105.3000	81
105.4000	73
105.5000	39
106.5000	35
106.6000	66
106.7000	66
106.8000	75
106.9000	78
107.0000	80
107.1000	61
107.2000	54
107.3000	66
107.4000	53
107.5000	36
108.6000	21
108.7000	23
108.9000	36
109.0000	22
109.1000	22
109.2000	25
109.3000	28
109.4000	23
114.7000	35
114.8000	27
114.9000	34
115.0000	25
115.1000	48
115.2000	53
115.3000	25
115.4000	30
117.1000	30
120.7000	29
120.8000	25
121.0000	31
121.1000	23
122.5000	69
122.6000	146
122.7000	134
122.8000	130
122.9000	159
123.0000	116
123.1000	128
123.2000	111
123.3000	119
123.4000	78
123.5000	50
128.0000	22
128.1000	29
128.6000	22
128.7000	23
129.0000	21
130.5000	28
130.6000	53
130.7000	65
130.8000	62
130.9000	69
131.0000	56
131.1000	65
131.2000	59
131.3000	71
131.4000	51
131.5000	23
132.4000	112
132.5000	392
132.6000	534
132.7000	548
132.8000	645
132.9000	631
133.0000	699
133.1000	745
133.2000	587
133.3000	580
133.4000	600
133.5000	290
133.6000	121
133.7000	55
133.8000	70
133.9000	61
134.0000	89
134.1000	101
134.2000	74
134.3000	45
134.4000	42
134.5000	33
134.6000	37
134.8000	27
135.2000	23
136.5000	22
136.6000	47
136.7000	44
136.8000	34
137.0000	36
140.6000	22
140.7000	27
140.8000	40
140.9000	43
141.0000	31
141.1000	35
141.2000	28
141.3000	26
142.5000	57
142.6000	57
142.7000	79
142.8000	98
142.9000	82
143.0000	86
143.1000	130
143.2000	126
143.3000	76
143.4000	46
143.5000	44
144.5000	51
144.6000	31
144.7000	55
144.8000	58
144.9000	61
145.0000	77
145.1000	45
145.2000	50
145.3000	52
145.4000	43
145.5000	43
145.6000	24
146.8000	25
146.9000	33
150.4000	40
150.5000	98
150.6000	185
150.7000	423
150.8000	367
150.9000	256
151.0000	230
151.1000	263
151.2000	247
151.3000	236
151.4000	205
151.5000	133
151.6000	43
151.7000	27
151.8000	33
151.9000	74
152.0000	28
152.4000	30
152.8000	22
154.5000	24
154.6000	42
154.7000	38
154.8000	56
154.9000	52
155.0000	42
155.1000	86
155.2000	37
155.3000	27
155.4000	22
156.5000	50
156.6000	58
156.7000	64
156.8000	58
156.9000	83
157.0000	69
157.1000	82
157.2000	75
157.3000	56
157.4000	55
157.5000	25
158.5000	44
158.6000	56
158.7000	94
158.8000	109
158.9000	103
159.0000	57
159.1000	63
159.2000	56
159.3000	60
159.4000	46
159.5000	24
160.4000	21
160.5000	23
160.7000	36
160.8000	48
160.9000	30
161.0000	29
161.1000	21
166.8000	22
167.5000	27
167.6000	54
167.7000	65
167.8000	80
167.9000	64
168.0000	36
168.1000	35
168.2000	34
168.3000	27
168.4000	47
168.5000	28
168.6000	29
168.7000	24
169.0000	23
170.6000	37
170.7000	25
170.8000	22
172.4000	25
172.5000	93
172.6000	115
172.7000	189
172.8000	196
172.9000	122
173.0000	128
173.1000	240
173.2000	159
173.3000	70
173.4000	51
173.5000	40
177.0000	26
182.4000	73
182.5000	261
182.6000	383
182.7000	322
182.8000	391
182.9000	356
183.0000	331
183.1000	350
183.2000	324
183.3000	321
183.4000	220
183.5000	150
183.6000	59
183.7000	46
183.8000	43
183.9000	49
184.0000	44
184.1000	61
184.2000	52
184.3000	43
184.4000	35
184.5000	38
184.6000	70
184.7000	57
184.8000	54
184.9000	54
185.0000	65
185.1000	68
185.2000	59
185.3000	52
185.4000	49
185.5000	27
186.3000	23
186.4000	26
186.5000	29
186.6000	47
186.7000	56
186.8000	55
186.9000	65
187.0000	64
187.1000	38
187.2000	61
187.3000	43
187.4000	44
187.5000	22
188.5000	28
188.6000	23
188.7000	43
188.8000	55
188.9000	40
189.0000	39
189.1000	27
189.2000	25
189.3000	25
192.6000	26
192.7000	29
192.8000	29
192.9000	34
193.0000	34
193.1000	45
193.2000	29
193.4000	28
200.4000	57
200.5000	270
200.6000	426
200.7000	516
200.8000	544
200.9000	560
201.0000	532
201.1000	497
201.2000	485
201.3000	449
201.4000	446
201.5000	265
201.6000	104
201.7000	96
201.8000	112
201.9000	80
202.0000	84
202.1000	77
202.2000	77
202.3000	81
202.4000	92
202.5000	84
202.6000	74
202.7000	92
202.8000	95
202.9000	76
203.0000	79
203.1000	69
203.2000	77
203.3000	40
203.4000	47
203.5000	42
204.4000	23
210.4000	32
210.5000	57
210.6000	130
210.7000	134
210.8000	147
210.9000	165
211.0000	125
211.1000	133
211.2000	127
211.3000	114
211.4000	124
211.5000	109
211.6000	33
211.9000	22
212.3000	32
218.4000	39
218.5000	99
218.6000	140
218.7000	183
218.8000	163
218.9000	168
219.0000	180
219.1000	185
219.2000	198
219.3000	144
219.4000	152
219.5000	106
219.6000	32
219.7000	28
219.8000	33
219.9000	32
220.0000	23
220.1000	22
220.2000	22
220.4000	26
221.0000	29
228.4000	192
228.5000	495
228.6000	732
228.7000	875
228.8000	911
228.9000	999
229.0000	929
229.1000	923
229.2000	885
229.3000	806
229.4000	798
229.5000	442
229.6000	222
229.7000	164
229.8000	188
229.9000	212
230.0000	170
230.1000	203
230.2000	293
230.3000	123
230.4000	112
230.5000	104
230.6000	51
230.7000	21
230.8000	22
231.2000	23
246.4000	191
246.5000	477
246.6000	672
246.7000	723
246.8000	709
246.9000	798
247.0000	789
247.1000	747
247.2000	742
247.3000	609
247.4000	647
247.5000	399
247.6000	200
247.7000	182
247.8000	129
247.9000	138
248.0000	157
248.1000	150
248.2000	249
248.3000	129
248.4000	126
248.5000	49
248.7000	33
248.8000	23
249.0000	24
249.3000	24
264.4000	97
264.5000	384
264.6000	439
264.7000	574
264.8000	790
264.9000	595
265.0000	568
265.1000	539
265.2000	500
265.3000	438
265.4000	399
265.5000	215
265.6000	169
265.7000	127
265.8000	90
265.9000	88
266.0000	103
266.1000	96
266.2000	88
266.3000	75
266.4000	78
266.5000	56
281.4000	31
281.5000	135
281.6000	259
281.7000	340
281.8000	319
281.9000	301
282.0000	356
282.1000	344
282.2000	327
282.3000	279
282.4000	258
282.5000	191
282.6000	101
282.7000	87
282.8000	81
282.9000	151
283.0000	77
283.1000	50
283.2000	58
283.3000	58
283.4000	57
283.5000	38
283.6000	25
305.4000	70
305.5000	210
305.6000	332
305.7000	413
305.8000	425
305.9000	466
306.0000	406
306.1000	406
306.2000	372
306.3000	338
306.4000	297
306.5000	165
306.6000	75
306.7000	90
306.8000	88
306.9000	76
307.0000	83
307.1000	70
307.2000	64
307.3000	77
307.4000	68
307.5000	27
310.3000	23
324.4000	30
342.9000	23
343.0000	25
343.1000	22
343.2000	29
510.7000	48
510.8000	48
510.9000	36
511.0000	61
511.1000	78
511.2000	35
511.3000	44
511.4000	35
511.5000	22
512.0000	22
512.3000	35
528.4000	99
528.5000	270
528.6000	568
528.7000	754
528.8000	802
528.9000	855
529.0000	876
529.1000	927
529.2000	857
529.3000	736
529.4000	645
529.5000	395
529.6000	322
529.7000	324
529.8000	331
529.9000	336
530.0000	330
530.1000	351
530.2000	323
530.3000	520
530.4000	532
530.5000	106
530.6000	67
530.7000	71
530.8000	68
530.9000	72
531.0000	63
531.1000	96
531.2000	99
531.3000	60
531.4000	49
545.6000	84
545.7000	139
545.8000	101
545.9000	109
546.0000	134
546.1000	110
546.2000	111
546.3000	94
546.4000	215
546.5000	68
546.6000	23
546.7000	27
546.8000	41
546.9000	41
547.0000	37
547.1000	40
547.2000	22
547.3000	27
547.4000	27
792.9000	35
793.0000	23
810.0000	22
810.3000	23
