Mass spectrum: Ursinoic acid; LC-ESI-QQQ; MS; [M+H]+
Name: Ursinoic acid
Class: Terpenoids
Formula: C15H16O5
Exact mass: 276.2918
SMILES: COc1ccc(C(=O)CC(=O)O)c2c1C=CC(C)(C)O2
InChI: InChI=1S/C15H16O5/c1-15(2)7-6-10-12(19-3)5-4-9(14(10)20-15)11(16)8-13(17)18/h4-7H,8H2,1-3H3,(H,17,18)
Instrument: ABSciex API3200 LC/MS system
Instrument type: LC-ESI-QQQ
Ms type: MS
Ion mode: POSITIVE
Precursor type: [M+H]+
m/z	relative intensity
142.4000	25
159.4000	32
159.5000	51
159.6000	82
159.7000	55
159.8000	48
159.9000	40
160.0000	49
160.1000	43
160.2000	33
160.3000	29
174.4000	36
174.5000	57
174.6000	87
174.7000	82
174.8000	85
174.9000	80
175.0000	73
175.1000	66
175.2000	59
175.3000	53
175.4000	45
176.4000	26
176.5000	89
176.6000	122
176.7000	104
176.8000	109
176.9000	115
177.0000	114
177.1000	200
177.2000	97
177.3000	66
177.4000	62
177.5000	21
178.0000	43
187.6000	22
187.7000	22
202.3000	64
202.4000	384
202.5000	524
202.6000	642
202.7000	601
202.8000	675
202.9000	625
203.0000	575
203.1000	616
203.2000	585
203.3000	483
203.4000	587
203.5000	175
203.6000	91
203.7000	76
203.8000	86
203.9000	81
204.0000	88
204.1000	71
204.2000	70
204.3000	57
204.4000	44
204.5000	23
220.4000	26
220.5000	41
220.6000	59
220.7000	52
220.8000	61
220.9000	60
221.0000	63
221.1000	63
221.2000	55
221.3000	44
221.4000	42
276.3000	203
276.4000	696
276.5000	923
276.6000	951
276.7000	989
276.8000	966
276.9000	999
277.0000	931
277.1000	981
277.2000	914
277.3000	847
277.4000	704
277.5000	384
277.6000	317
277.7000	283
277.8000	282
277.9000	331
278.0000	312
278.1000	294
278.2000	339
278.3000	271
278.4000	217
278.5000	102
278.6000	86
278.7000	58
278.8000	54
278.9000	51
279.0000	73
279.1000	53
279.2000	55
279.3000	48
279.4000	35
552.6000	23
569.6000	26
569.7000	27
569.8000	32
569.9000	30
570.0000	26
570.1000	29
570.2000	23
570.3000	24
