Mass spectrum: Perforine; LC-ESI-QQQ; MS; [M+H]+
Name: Perforine
Class: Alkaloids
Formula: C18H25NO5
Exact mass: 335.4037
SMILES: COc1c2c(nc3occc13)C(CCC(C)(C)O)(OC)C(O)CC2
InChI: InChI=1S/C18H25NO5/c1-17(2,21)8-9-18(23-4)13(20)6-5-11-14(22-3)12-7-10-24-16(12)19-15(11)18/h7,10,13,20-21H,5-6,8-9H2,1-4H3
Instrument: ABSciex API3200 LC/MS system
Instrument type: LC-ESI-QQQ
Ms type: MS
Ion mode: POSITIVE
Precursor type: [M+H]+
m/z	relative intensity
175.8000	22
176.0000	22
176.1000	21
185.7000	21
185.9000	21
186.6000	21
186.7000	22
186.8000	24
186.9000	22
187.0000	21
187.1000	21
187.4000	64
187.5000	119
187.6000	153
187.7000	211
187.8000	131
187.9000	139
188.0000	142
188.1000	136
188.2000	126
188.3000	114
188.4000	108
188.5000	61
188.6000	41
188.7000	28
188.8000	30
188.9000	32
189.0000	27
189.1000	28
189.2000	30
189.3000	26
189.4000	26
199.5000	23
199.6000	34
199.7000	39
199.8000	39
199.9000	41
200.0000	39
200.1000	37
200.2000	33
200.3000	28
200.4000	27
201.4000	84
201.5000	179
201.6000	167
201.7000	170
201.8000	178
201.9000	193
202.0000	189
202.1000	188
202.2000	172
202.3000	156
202.4000	147
202.5000	71
202.6000	39
202.7000	42
202.8000	33
202.9000	30
203.0000	28
203.1000	29
203.2000	26
203.3000	25
203.4000	24
215.7000	21
215.9000	26
216.0000	22
216.1000	25
216.2000	22
217.1000	21
217.2000	30
217.3000	95
217.4000	476
217.5000	718
217.6000	825
217.7000	838
217.8000	830
217.9000	831
218.0000	807
218.1000	882
218.2000	739
218.3000	719
218.4000	677
218.5000	307
218.6000	213
218.7000	169
218.8000	168
218.9000	181
219.0000	186
219.1000	190
219.2000	190
219.3000	171
219.4000	145
219.5000	66
219.6000	38
219.9000	23
220.0000	23
220.1000	24
226.0000	21
227.5000	42
227.6000	55
227.7000	71
227.8000	73
227.9000	69
228.0000	73
228.1000	65
228.2000	66
228.3000	53
228.4000	51
229.2000	21
229.3000	36
229.4000	241
229.5000	474
229.6000	568
229.7000	579
229.8000	621
229.9000	633
230.0000	609
230.1000	586
230.2000	555
230.3000	516
230.4000	421
230.5000	202
230.6000	151
230.7000	124
230.8000	121
230.9000	128
231.0000	130
231.1000	121
231.2000	121
231.3000	106
231.4000	85
231.5000	32
232.0000	22
239.6000	24
239.7000	29
239.8000	36
239.9000	33
240.0000	29
240.1000	31
240.2000	28
240.3000	26
240.4000	24
267.4000	78
267.5000	176
267.6000	230
267.7000	221
267.8000	228
267.9000	251
268.0000	243
268.1000	231
268.2000	225
268.3000	205
268.4000	198
268.5000	106
268.6000	78
268.7000	66
268.8000	47
268.9000	55
269.0000	58
269.1000	49
269.2000	49
269.3000	48
269.4000	42
269.5000	22
285.4000	327
285.5000	721
285.6000	911
285.7000	977
285.8000	999
285.9000	980
286.0000	993
286.1000	990
286.2000	952
286.3000	880
286.4000	844
286.5000	519
286.6000	433
286.7000	381
286.8000	367
286.9000	388
287.0000	407
287.1000	404
287.2000	397
287.3000	357
287.4000	333
287.5000	169
287.6000	104
287.7000	90
287.8000	68
287.9000	83
288.0000	71
288.1000	68
288.2000	68
288.3000	74
288.4000	53
288.5000	26
303.4000	316
303.5000	668
303.6000	776
303.7000	803
303.8000	843
303.9000	878
304.0000	812
304.1000	804
304.2000	800
304.3000	726
304.4000	690
304.5000	424
304.6000	314
304.7000	300
304.8000	285
304.9000	299
305.0000	291
305.1000	303
305.2000	305
305.3000	259
305.4000	248
305.5000	138
305.6000	82
305.7000	72
305.8000	67
305.9000	70
306.0000	51
306.1000	49
306.2000	54
306.3000	44
306.4000	38
317.6000	28
317.7000	31
317.8000	32
317.9000	37
318.0000	41
318.1000	40
318.2000	32
318.3000	33
318.4000	30
335.4000	86
335.5000	240
335.6000	413
335.7000	469
335.8000	515
335.9000	566
336.0000	584
336.1000	480
336.2000	450
336.3000	412
336.4000	402
336.5000	224
336.6000	180
336.7000	176
336.8000	151
336.9000	140
337.0000	136
337.1000	133
337.2000	124
337.3000	99
337.4000	92
337.5000	49
337.6000	28
337.7000	26
337.8000	24
337.9000	21
338.3000	22
