Mass spectrum: Acetylenoxolone; LC-ESI-QQQ; MS; [M+H]+
Name: Acetylenoxolone
Class: Terpenoids
Formula: C32H48O5
Exact mass: 512.7364
SMILES: CC(=O)O[C@H]1CC[C@@]2(C)C(CC[C@]3(C)C2C(=O)C=C2C4C[C@@](C)(C(=O)O)CC[C@]4(C)CC[C@]23C)C1(C)C
InChI: InChI=1S/C32H48O5/c1-19(33)37-24-10-11-30(6)23(27(24,2)3)9-12-32(8)25(30)22(34)17-20-21-18-29(5,26(35)36)14-13-28(21,4)15-16-31(20,32)7/h17,21,23-25H,9-16,18H2,1-8H3,(H,35,36)/t21?,23?,24-,25?,28+,29-,30-,31+,32+/m0/s1
Instrument: ABSciex API3200 LC/MS system
Instrument type: LC-ESI-QQQ
Ms type: MS
Ion mode: POSITIVE
Precursor type: [M+H]+
m/z	relative intensity
512.5000	28
512.6000	190
512.7000	584
512.8000	730
512.9000	842
513.0000	999
513.1000	873
513.2000	807
513.3000	776
513.4000	730
513.5000	693
513.6000	273
513.7000	279
513.8000	298
513.9000	262
514.0000	273
514.1000	300
514.2000	280
514.3000	261
514.4000	247
514.5000	207
514.6000	103
514.7000	72
514.8000	75
514.9000	70
515.0000	69
515.1000	71
515.2000	72
515.3000	81
515.4000	56
515.5000	48
515.6000	23
1024.6000	59
1024.7000	163
1024.8000	242
1024.9000	271
1025.0000	300
1025.1000	303
1025.2000	332
1025.3000	323
1025.4000	342
1025.5000	303
1025.6000	327
1025.7000	253
1025.8000	189
1025.9000	193
1026.0000	207
1026.1000	204
1026.2000	255
1026.3000	228
1026.4000	249
1026.5000	242
1026.6000	198
1026.7000	145
1026.8000	93
1026.9000	100
1027.0000	89
1027.1000	83
1027.2000	92
1027.3000	75
1027.4000	97
1027.5000	101
1027.6000	65
1027.7000	55
1027.8000	23
1028.0000	27
1028.1000	28
1028.4000	30
1028.5000	22
1028.6000	23
