Mass spectrum: Foliosidine acetonide; LC-ESI-QQQ; MS; [M+H]+
Name: Foliosidine acetonide
Class: Alkaloids
Formula: C19H25NO5
Exact mass: 347.4148
SMILES: COc1cc(=O)n(C)c2c(OCC3OC(C)(C)OC3(C)C)cccc12
InChI: InChI=1S/C19H25NO5/c1-18(2)15(24-19(3,4)25-18)11-23-13-9-7-8-12-14(22-6)10-16(21)20(5)17(12)13/h7-10,15H,11H2,1-6H3
Instrument: ABSciex API3200 LC/MS system
Instrument type: LC-ESI-QQQ
Ms type: MS
Ion mode: POSITIVE
Precursor type: [M+H]+
m/z	relative intensity
173.6000	32
189.5000	90
189.6000	22
190.8000	24
191.6000	50
191.7000	31
191.8000	32
191.9000	39
192.0000	22
192.1000	35
192.2000	26
192.3000	28
201.7000	22
201.8000	22
203.4000	75
203.5000	60
203.6000	81
203.7000	95
203.8000	91
203.9000	79
204.0000	91
204.1000	77
204.2000	95
204.3000	103
204.4000	173
204.5000	256
204.6000	282
204.7000	360
204.8000	319
204.9000	302
205.0000	309
205.1000	325
205.2000	371
205.3000	312
205.4000	251
205.5000	172
205.6000	203
205.7000	231
205.8000	231
205.9000	232
206.0000	213
206.1000	198
206.2000	207
206.3000	178
206.4000	160
206.5000	71
206.6000	35
206.7000	25
206.8000	36
206.9000	36
207.0000	28
217.5000	41
217.6000	61
217.7000	61
217.8000	59
217.9000	61
218.0000	71
218.1000	66
218.2000	75
218.3000	62
218.4000	45
219.1000	22
229.4000	29
229.5000	78
229.6000	97
229.7000	98
229.8000	94
229.9000	108
230.0000	92
230.1000	108
230.2000	97
230.3000	85
230.4000	99
230.5000	33
231.1000	24
243.6000	27
243.7000	32
243.8000	32
243.9000	27
244.1000	34
244.2000	21
259.8000	28
260.1000	21
271.5000	97
271.6000	145
271.7000	185
271.8000	199
271.9000	187
272.0000	200
272.1000	185
272.2000	174
272.3000	141
272.4000	141
272.5000	73
272.6000	43
272.7000	34
272.8000	38
272.9000	33
273.0000	36
273.1000	43
273.2000	37
273.3000	29
273.4000	25
289.2000	28
289.3000	80
289.4000	570
289.5000	864
289.6000	922
289.7000	977
289.8000	980
289.9000	999
290.0000	987
290.1000	969
290.2000	945
290.3000	892
290.4000	823
290.5000	488
290.6000	421
290.7000	414
290.8000	391
290.9000	465
291.0000	474
291.1000	452
291.2000	459
291.3000	435
291.4000	414
291.5000	261
291.6000	143
291.7000	120
291.8000	90
291.9000	87
292.0000	113
292.1000	128
292.2000	120
292.3000	90
292.4000	81
292.5000	34
347.3000	137
347.4000	452
347.5000	745
347.6000	865
347.7000	932
347.8000	945
347.9000	937
348.0000	897
348.1000	946
348.2000	871
348.3000	857
348.4000	834
348.5000	567
348.6000	471
348.7000	452
348.8000	435
348.9000	475
349.0000	471
349.1000	441
349.2000	457
349.3000	419
349.4000	375
349.5000	252
349.6000	152
349.7000	131
349.8000	114
349.9000	116
350.0000	117
350.1000	116
350.2000	104
350.3000	79
350.4000	89
350.5000	45
350.6000	28
694.5000	53
694.6000	120
694.7000	153
694.8000	153
694.9000	164
695.0000	166
695.1000	147
695.2000	175
695.3000	175
695.4000	83
695.5000	57
695.6000	78
695.7000	61
695.8000	67
695.9000	67
696.0000	80
696.1000	70
696.2000	69
696.3000	54
696.4000	36
696.6000	21
