Mass spectrum: Lasiocarpine; LC-ESI-QQQ; MS; [M+H]+
Name: Lasiocarpine
Class: Alkaloids
Formula: C21H33NO7
Exact mass: 411.4997
SMILES: C/C=C(/C)C(=O)O[C@H]1CCN2CC=C(COC(=O)C(O)(C(C)OC)C(C)(C)O)[C@H]12
InChI: InChI=1S/C21H33NO7/c1-7-13(2)18(23)29-16-9-11-22-10-8-15(17(16)22)12-28-19(24)21(26,14(3)27-6)20(4,5)25/h7-8,14,16-17,25-26H,9-12H2,1-6H3/b13-7-/t14?,16-,17+,21?/m0/s1
Instrument: ABSciex API3200 LC/MS system
Instrument type: LC-ESI-QQQ
Ms type: MS
Ion mode: POSITIVE
Precursor type: [M+H]+
m/z	relative intensity
100.8000	21
100.9000	58
119.4000	73
119.5000	359
119.6000	524
119.7000	303
119.8000	364
119.9000	358
120.0000	415
120.1000	437
120.2000	493
120.3000	314
120.4000	266
120.5000	191
120.6000	56
120.7000	47
120.8000	50
120.9000	61
121.0000	65
121.1000	44
121.2000	47
121.3000	40
121.4000	34
219.5000	106
219.6000	260
219.7000	290
219.8000	342
219.9000	356
220.0000	342
220.1000	323
220.2000	310
220.3000	283
220.4000	280
220.5000	178
220.6000	79
220.7000	67
220.8000	70
220.9000	73
221.0000	74
221.1000	66
221.2000	73
221.3000	60
221.4000	67
221.5000	40
237.5000	41
237.6000	73
237.7000	77
237.8000	81
237.9000	86
238.0000	81
238.1000	78
238.2000	90
238.3000	72
238.4000	67
238.5000	47
335.5000	150
335.6000	288
335.7000	324
335.8000	364
335.9000	373
336.0000	360
336.1000	359
336.2000	349
336.3000	313
336.4000	272
336.5000	160
336.6000	107
336.7000	108
336.8000	91
336.9000	90
337.0000	95
337.1000	94
337.2000	103
337.3000	122
337.4000	74
337.5000	36
393.6000	30
393.7000	59
393.8000	57
393.9000	56
394.0000	61
394.1000	68
394.2000	71
394.3000	56
394.4000	48
394.5000	30
411.3000	32
411.4000	235
411.5000	602
411.6000	891
411.7000	949
411.8000	971
411.9000	967
412.0000	999
412.1000	985
412.2000	961
412.3000	916
412.4000	910
412.5000	617
412.6000	485
412.7000	476
412.8000	497
412.9000	513
413.0000	494
413.1000	519
413.2000	523
413.3000	459
413.4000	438
413.5000	294
413.6000	189
413.7000	172
413.8000	156
413.9000	170
414.0000	154
414.1000	152
414.2000	164
414.3000	153
414.4000	139
414.5000	89
414.6000	47
414.7000	31
414.8000	29
414.9000	27
415.0000	25
415.1000	23
822.7000	35
822.8000	40
822.9000	43
823.0000	46
823.1000	39
823.2000	47
823.3000	42
823.4000	29
823.5000	27
823.9000	22
824.0000	23
824.1000	23
824.2000	26
824.3000	21
