Mass spectrum: Lycaconitine; LC-ESI-QQQ; MS; [M+H]+
Name: Lycaconitine
Class: Alkaloids
Formula: C36H48N2O10
Exact mass: 668.7914
SMILES: CCN1C[C@]2(COC(=O)c3ccccc3N3C(=O)CCC3=O)CC[C@H](OC)[C@]34C5C[C@@H]6[C@@H](OC)C[C@@](O)(C5[C@H]6OC)[C@](O)(C13)[C@@H](OC)C24
InChI: InChI=1S/C36H48N2O10/c1-6-37-17-33(18-48-31(41)19-9-7-8-10-22(19)38-25(39)11-12-26(38)40)14-13-24(45-3)35-21-15-20-23(44-2)16-34(42,27(21)28(20)46-4)36(43,32(35)37)30(47-5)29(33)35/h7-10,20-21,23-24,27-30,32,42-43H,6,11-18H2,1-5H3/t20-,21?,23+,24+,27?,28+,29?,30+,32?,33+,34-,35+,36-/m1/s1
Instrument: ABSciex API3200 LC/MS system
Instrument type: LC-ESI-QQQ
Ms type: MS
Ion mode: POSITIVE
Precursor type: [M+H]+
m/z	relative intensity
148.4000	22
668.3000	138
668.4000	467
668.5000	811
668.6000	929
668.7000	931
668.8000	894
668.9000	981
669.0000	999
669.1000	988
669.2000	962
669.3000	825
669.4000	649
669.5000	456
669.6000	550
669.7000	588
669.8000	573
669.9000	592
670.0000	651
670.1000	600
670.2000	595
670.3000	509
670.4000	391
670.5000	250
670.6000	251
670.7000	251
670.8000	289
670.9000	295
671.0000	290
671.1000	282
671.2000	294
671.3000	234
671.4000	162
671.5000	198
671.6000	76
671.7000	61
671.8000	70
671.9000	74
672.0000	66
672.1000	56
672.2000	58
672.3000	45
672.4000	38
672.9000	24
