Mass spectrum: Lycoctonine; LC-ESI-QQQ; MS; [M+H]+
Name: Lycoctonine
Class: Alkaloids
Formula: C25H41NO7
Exact mass: 467.60802
SMILES: CCN1C[C@]2(CO)CC[C@H](OC)[C@]34C5C[C@@H]6[C@@H](OC)C[C@@](O)(C5[C@H]6OC)[C@](O)(C13)[C@@H](OC)C24
InChI: InChI=1S/C25H41NO7/c1-6-26-11-22(12-27)8-7-16(31-3)24-14-9-13-15(30-2)10-23(28,17(14)18(13)32-4)25(29,21(24)26)20(33-5)19(22)24/h13-21,27-29H,6-12H2,1-5H3/t13-,14?,15+,16+,17?,18+,19?,20+,21?,22+,23-,24+,25-/m1/s1
Instrument: ABSciex API3200 LC/MS system
Instrument type: LC-ESI-QQQ
Ms type: MS
Ion mode: POSITIVE
Precursor type: [M+H]+
m/z	relative intensity
403.6000	23
403.7000	29
403.8000	32
403.9000	37
404.0000	35
404.1000	31
404.2000	34
404.3000	29
404.4000	32
435.6000	26
435.7000	41
435.8000	45
435.9000	44
436.0000	52
436.1000	48
436.2000	49
436.3000	46
436.4000	43
436.5000	36
467.4000	88
467.5000	377
467.6000	699
467.7000	897
467.8000	954
467.9000	976
468.0000	993
468.1000	999
468.2000	978
468.3000	966
468.4000	874
468.5000	700
468.6000	463
468.7000	485
468.8000	529
468.9000	514
469.0000	520
469.1000	527
469.2000	524
469.3000	520
469.4000	472
469.5000	405
469.6000	253
469.7000	156
469.8000	160
469.9000	155
470.0000	166
470.1000	162
470.2000	162
470.3000	170
470.4000	145
470.5000	103
470.6000	44
470.7000	40
470.8000	31
470.9000	31
471.0000	27
471.1000	26
471.2000	28
471.3000	30
471.4000	40
