Mass spectrum: Vincadifformine; LC-ESI-QQQ; MS; [M+H]+
Name: Vincadifformine
Class: Alkaloids
Formula: C21H26N2O2
Exact mass: 338.4536
SMILES: CC[C@]12CCCN3CCC4(C(=C(C(=O)OC)C1)Nc1ccccc14)C32
InChI: InChI=1S/C21H26N2O2/c1-3-20-9-6-11-23-12-10-21(19(20)23)15-7-4-5-8-16(15)22-17(21)14(13-20)18(24)25-2/h4-5,7-8,19,22H,3,6,9-13H2,1-2H3/t19?,20-,21?/m0/s1
Instrument: ABSciex API3200 LC/MS system
Instrument type: LC-ESI-QQQ
Ms type: MS
Ion mode: POSITIVE
Precursor type: [M+H]+
m/z	relative intensity
123.6000	34
123.7000	43
123.8000	37
123.9000	51
124.0000	42
124.1000	46
124.2000	45
124.3000	44
124.4000	39
124.5000	26
137.5000	34
137.6000	71
137.7000	90
137.8000	92
137.9000	105
138.0000	127
138.1000	110
138.2000	92
138.3000	84
138.4000	71
138.5000	55
138.6000	24
278.5000	23
278.6000	51
278.7000	79
278.8000	104
278.9000	83
279.0000	83
279.1000	91
279.2000	82
279.3000	69
279.4000	64
279.5000	46
279.6000	23
280.1000	21
306.4000	84
306.5000	286
306.6000	501
306.7000	616
306.8000	633
306.9000	630
307.0000	660
307.1000	614
307.2000	600
307.3000	613
307.4000	535
307.5000	360
307.6000	291
307.7000	306
307.8000	204
307.9000	224
308.0000	228
308.1000	232
308.2000	234
308.3000	224
308.4000	191
308.5000	118
308.6000	50
308.7000	46
308.8000	39
308.9000	34
309.0000	39
309.1000	42
309.2000	57
309.3000	42
309.4000	22
338.3000	39
338.4000	331
338.5000	717
338.6000	840
338.7000	913
338.8000	988
338.9000	993
339.0000	987
339.1000	999
339.2000	976
339.3000	984
339.4000	910
339.5000	749
339.6000	513
339.7000	540
339.8000	565
339.9000	579
340.0000	552
340.1000	575
340.2000	578
340.3000	558
340.4000	492
340.5000	373
340.6000	199
340.7000	171
340.8000	161
340.9000	154
341.0000	145
341.1000	153
341.2000	146
341.3000	151
341.4000	117
341.5000	80
341.6000	31
341.7000	22
370.7000	22
370.8000	21
370.9000	34
371.0000	36
371.1000	30
371.2000	24
371.3000	25
379.8000	56
379.9000	45
380.0000	34
380.1000	39
380.2000	47
380.3000	36
380.4000	22
