Mass spectrum: Delsemine A; LC-ESI-QQQ; MS; [M+H]+
Name: Delsemine A
Class: Alkaloids
Formula: C37H53N3O10
Exact mass: 699.8491
SMILES: CCN1CC2(COC(=O)c3ccccc3N=C(O)C(C)CC(=N)O)CC[C@@H](OC)C34C5C[C@@H]6C(OC)C[C@@](O)(C5[C@H]6OC)C(O)([C@@H](OC)C23)[C@@H]14
InChI: InChI=1S/C37H53N3O10/c1-7-40-17-34(18-50-32(43)20-10-8-9-11-23(20)39-31(42)19(2)14-26(38)41)13-12-25(47-4)36-22-15-21-24(46-3)16-35(44,27(22)28(21)48-5)37(45,33(36)40)30(49-6)29(34)36/h8-11,19,21-22,24-25,27-30,33,44-45H,7,12-18H2,1-6H3,(H2,38,41)(H,39,42)/t19?,21-,22?,24?,25-,27?,28+,29?,30+,33+,34?,35-,36?,37?/m1/s1
Instrument: ABSciex API3200 LC/MS system
Instrument type: LC-ESI-QQQ
Ms type: MS
Ion mode: POSITIVE
Precursor type: [M+H]+
m/z	relative intensity
113.4000	25
113.5000	52
113.6000	64
113.7000	75
113.8000	72
113.9000	89
114.0000	94
114.1000	90
114.2000	76
114.3000	87
114.4000	79
118.5000	42
118.6000	104
118.7000	114
118.8000	134
118.9000	110
119.0000	82
119.1000	47
119.2000	25
141.7000	21
141.9000	28
142.0000	23
142.1000	22
142.2000	42
148.5000	27
188.1000	28
215.5000	37
215.6000	30
215.7000	37
215.8000	34
215.9000	35
216.0000	33
216.1000	43
216.2000	31
216.3000	26
216.4000	35
341.5000	22
341.6000	41
341.7000	30
341.8000	40
341.9000	47
342.0000	51
342.1000	61
342.2000	49
342.3000	61
342.4000	48
342.5000	33
342.6000	26
342.7000	27
350.1000	31
350.2000	39
350.3000	44
350.4000	35
350.5000	44
350.6000	55
350.7000	57
350.8000	59
350.9000	54
351.0000	37
351.1000	36
351.2000	24
351.3000	22
351.4000	23
355.7000	34
387.8000	29
387.9000	26
388.0000	26
388.1000	28
388.2000	29
388.3000	28
388.4000	61
586.6000	42
586.7000	73
586.8000	102
586.9000	102
587.0000	173
587.1000	110
587.2000	103
587.3000	131
587.4000	91
587.5000	43
587.6000	33
587.7000	34
587.8000	32
587.9000	34
588.0000	35
588.1000	39
588.2000	35
588.3000	33
588.4000	25
683.0000	21
684.2000	24
699.4000	85
699.5000	175
699.6000	484
699.7000	769
699.8000	909
699.9000	977
700.0000	988
700.1000	979
700.2000	999
700.3000	894
700.4000	769
700.5000	398
700.6000	326
700.7000	400
700.8000	445
700.9000	491
701.0000	495
701.1000	508
701.2000	491
701.3000	472
701.4000	404
701.5000	199
701.6000	114
701.7000	138
701.8000	153
701.9000	131
702.0000	149
702.1000	150
702.2000	135
702.3000	171
702.4000	146
702.5000	52
702.6000	37
702.7000	23
702.8000	29
702.9000	25
703.0000	32
703.1000	72
703.2000	41
703.3000	24
703.4000	57
