Mass spectrum: Brevicarine; LC-ESI-QQQ; MS; [M+H]+
Name: Brevicarine
Class: Alkaloids
Formula: C17H21N3
Exact mass: 267.377
SMILES: CNCCCCc1cnc(C)c2[nH]c3ccccc3c12
InChI: InChI=1S/C17H21N3/c1-12-17-16(14-8-3-4-9-15(14)20-17)13(11-19-12)7-5-6-10-18-2/h3-4,8-9,11,18,20H,5-7,10H2,1-2H3
Instrument: ABSciex API3200 LC/MS system
Instrument type: LC-ESI-QQQ
Ms type: MS
Ion mode: POSITIVE
Precursor type: [M+H]+
m/z	relative intensity
105.1000	21
105.2000	21
113.7000	24
113.8000	41
113.9000	56
114.0000	29
118.1000	24
118.2000	21
118.3000	21
118.4000	23
118.5000	27
126.8000	23
127.0000	24
133.9000	547
134.0000	634
134.1000	861
134.2000	940
134.3000	836
134.4000	880
134.5000	869
134.6000	851
134.7000	785
134.8000	732
134.9000	793
135.0000	461
135.1000	206
135.2000	131
135.3000	155
135.4000	141
135.5000	82
135.6000	31
135.7000	21
141.7000	45
142.2000	26
142.3000	65
153.4000	57
153.5000	57
153.6000	51
153.7000	44
153.8000	48
153.9000	56
154.0000	63
154.1000	45
154.2000	61
154.3000	46
154.4000	54
154.5000	43
154.6000	56
154.7000	52
154.8000	60
154.9000	63
155.0000	74
155.1000	72
155.2000	65
155.3000	60
155.4000	66
155.5000	26
155.6000	24
166.5000	38
166.6000	56
166.7000	48
166.8000	46
166.9000	54
167.0000	53
167.1000	37
167.2000	39
167.3000	46
167.4000	65
167.5000	57
167.6000	70
167.7000	89
167.8000	93
167.9000	71
168.0000	81
168.1000	63
168.2000	54
168.3000	75
168.4000	66
168.5000	37
168.6000	23
168.7000	25
169.1000	63
180.4000	40
180.5000	56
180.6000	54
180.7000	65
180.8000	66
180.9000	61
181.0000	66
181.1000	54
181.2000	65
181.3000	48
181.4000	52
181.5000	26
181.7000	21
181.8000	24
182.1000	26
182.4000	40
182.5000	55
182.6000	66
182.7000	50
182.8000	57
182.9000	43
183.0000	62
183.1000	69
183.2000	44
183.3000	48
183.4000	39
194.4000	86
194.5000	141
194.6000	167
194.7000	182
194.8000	171
194.9000	207
195.0000	195
195.1000	184
195.2000	154
195.3000	171
195.4000	562
195.5000	841
195.6000	589
195.7000	662
195.8000	699
195.9000	694
196.0000	693
196.1000	657
196.2000	617
196.3000	560
196.4000	516
196.5000	286
196.6000	133
196.7000	122
196.8000	119
196.9000	113
197.0000	130
197.1000	107
197.2000	117
197.3000	102
197.4000	98
197.5000	29
198.0000	27
208.4000	28
208.5000	107
208.6000	142
208.7000	155
208.8000	133
208.9000	165
209.0000	177
209.1000	186
209.2000	156
209.3000	136
209.4000	144
209.5000	81
209.6000	108
209.7000	76
209.8000	28
210.2000	26
220.6000	55
220.7000	46
220.8000	46
220.9000	45
221.0000	36
221.1000	54
221.2000	68
221.3000	37
221.4000	53
221.5000	32
221.9000	22
222.4000	63
236.4000	112
236.5000	393
236.6000	487
236.7000	411
236.8000	466
236.9000	503
237.0000	490
237.1000	546
237.2000	473
237.3000	484
237.4000	481
237.5000	305
237.6000	184
237.7000	176
237.8000	129
237.9000	166
238.0000	119
238.1000	170
238.2000	155
238.3000	136
238.4000	116
238.5000	43
238.6000	39
238.9000	21
239.1000	24
267.4000	102
267.5000	268
267.6000	403
267.7000	451
267.8000	470
267.9000	401
268.0000	999
268.1000	474
268.2000	302
268.3000	269
268.4000	337
268.5000	240
268.6000	117
268.7000	136
268.8000	98
268.9000	81
269.0000	85
269.1000	112
269.2000	101
269.3000	77
269.4000	88
269.5000	53
269.6000	21
269.7000	24
