Mass spectrum: Dubinidine; LC-ESI-QQQ; MS; [M+H]+
Name: Dubinidine
Class: Alkaloids
Formula: C15H17NO4
Exact mass: 275.307
SMILES: COc1c2c(nc3ccccc13)OC(C(C)(O)CO)C2
InChI: InChI=1S/C15H17NO4/c1-15(18,8-17)12-7-10-13(19-2)9-5-3-4-6-11(9)16-14(10)20-12/h3-6,12,17-18H,7-8H2,1-2H3
Instrument: ABSciex API3200 LC/MS system
Instrument type: LC-ESI-QQQ
Ms type: MS
Ion mode: POSITIVE
Precursor type: [M+H]+
m/z	relative intensity
129.5000	42
129.6000	55
129.7000	60
129.8000	71
129.9000	172
130.0000	69
130.1000	57
130.2000	51
130.3000	48
130.4000	43
157.4000	32
157.5000	50
157.6000	66
157.7000	55
157.8000	61
157.9000	51
158.0000	58
158.1000	55
158.2000	47
158.3000	35
158.4000	33
175.5000	28
175.6000	30
175.7000	25
175.8000	31
175.9000	30
176.0000	26
176.1000	26
176.2000	31
176.3000	25
176.4000	48
185.8000	21
186.1000	24
186.3000	22
187.3000	43
187.4000	200
187.5000	373
187.6000	371
187.7000	379
187.8000	381
187.9000	407
188.0000	371
188.1000	314
188.2000	353
188.3000	336
188.4000	273
188.5000	141
188.6000	105
188.7000	80
188.8000	78
188.9000	66
189.0000	81
189.1000	76
189.2000	80
189.3000	83
189.4000	69
189.5000	21
201.4000	35
201.5000	68
201.6000	81
201.7000	70
201.8000	76
201.9000	81
202.0000	93
202.1000	82
202.2000	74
202.3000	84
202.4000	71
202.5000	34
202.6000	23
207.4000	24
207.5000	34
207.9000	25
208.0000	27
208.2000	24
208.4000	25
215.3000	42
215.4000	205
215.5000	436
215.6000	459
215.7000	517
215.8000	522
215.9000	543
216.0000	539
216.1000	557
216.2000	484
216.3000	457
216.4000	457
216.5000	201
216.6000	131
216.7000	97
216.8000	107
216.9000	107
217.0000	106
217.1000	105
217.2000	113
217.3000	103
217.4000	111
217.5000	91
217.6000	88
217.7000	93
217.8000	93
217.9000	101
218.0000	100
218.1000	104
218.2000	89
218.3000	65
218.4000	73
224.5000	21
224.6000	23
224.9000	26
225.1000	22
225.4000	22
229.4000	32
229.5000	110
229.6000	145
229.7000	137
229.8000	164
229.9000	170
230.0000	163
230.1000	182
230.2000	152
230.3000	144
230.4000	181
230.5000	63
230.6000	36
230.7000	26
230.8000	26
230.9000	31
231.0000	34
231.1000	36
231.2000	30
231.3000	29
239.4000	28
239.5000	44
239.6000	55
239.7000	69
239.8000	62
239.9000	51
240.0000	46
240.1000	52
240.2000	54
240.3000	47
240.4000	38
245.4000	68
245.5000	116
245.6000	159
245.7000	179
245.8000	176
245.9000	193
246.0000	184
246.1000	184
246.2000	198
246.3000	169
246.4000	148
246.5000	76
246.6000	49
246.7000	53
246.8000	32
246.9000	33
247.0000	41
247.1000	40
247.2000	37
247.3000	32
247.4000	25
257.3000	54
257.4000	283
257.5000	472
257.6000	530
257.7000	553
257.8000	559
257.9000	524
258.0000	567
258.1000	500
258.2000	472
258.3000	458
258.4000	517
258.5000	211
258.6000	157
258.7000	148
258.8000	149
258.9000	133
259.0000	131
259.1000	117
259.2000	121
259.3000	111
259.4000	88
259.5000	39
259.6000	25
259.7000	26
275.2000	76
275.3000	294
275.4000	770
275.5000	891
275.6000	894
275.7000	927
275.8000	958
275.9000	968
276.0000	991
276.1000	999
276.2000	984
276.3000	926
276.4000	916
276.5000	598
276.6000	555
276.7000	392
276.8000	354
276.9000	386
277.0000	423
277.1000	437
277.2000	384
277.3000	338
277.4000	295
277.5000	126
277.6000	103
277.7000	72
277.8000	53
277.9000	60
278.0000	68
278.1000	125
278.2000	41
278.3000	39
278.4000	29
550.5000	30
550.6000	43
550.7000	39
550.8000	40
550.9000	47
551.0000	40
551.1000	38
551.2000	45
551.3000	39
551.4000	25
551.6000	21
551.9000	25
