Mass spectrum: Lycoctonine; LC-ESI-QQQ; MS; [M+H]+
Name: Lycoctonine
Class: Alkaloids
Formula: C25H41NO7
Exact mass: 467.60802
SMILES: CCN1C[C@]2(CO)CC[C@H](OC)C34C5C[C@@H]6[C@@H](OC)C[C@@](O)(C5[C@H]6OC)C(O)([C@@H](OC)C32)[C@@H]14
InChI: InChI=1S/C25H41NO7/c1-6-26-11-22(12-27)8-7-16(31-3)24-14-9-13-15(30-2)10-23(28,17(14)18(13)32-4)25(29,21(24)26)20(33-5)19(22)24/h13-21,27-29H,6-12H2,1-5H3/t13-,14?,15+,16+,17?,18+,19?,20+,21+,22+,23-,24?,25?/m1/s1
Instrument: ABSciex API3200 LC/MS system
Instrument type: LC-ESI-QQQ
Ms type: MS
Ion mode: POSITIVE
Precursor type: [M+H]+
m/z	relative intensity
403.6000	24
403.7000	37
403.8000	40
403.9000	38
404.0000	37
404.1000	34
404.2000	38
404.3000	35
404.4000	35
435.5000	22
435.6000	40
435.7000	50
435.8000	53
435.9000	53
436.0000	55
436.1000	53
436.2000	57
436.3000	46
436.4000	46
436.5000	34
467.3000	21
467.4000	162
467.5000	538
467.6000	777
467.7000	859
467.8000	946
467.9000	968
468.0000	999
468.1000	985
468.2000	973
468.3000	955
468.4000	913
468.5000	704
468.6000	469
468.7000	557
468.8000	568
468.9000	560
469.0000	552
469.1000	565
469.2000	554
469.3000	526
469.4000	490
469.5000	373
469.6000	213
469.7000	201
469.8000	200
469.9000	206
470.0000	187
470.1000	203
470.2000	209
470.3000	202
470.4000	163
470.5000	115
470.6000	54
470.7000	41
470.8000	40
470.9000	35
471.0000	34
471.1000	33
471.2000	35
471.3000	36
471.4000	26
