Mass spectrum: taxifolin; LC-ESI-QQQ; MS; [M+H]+
Name: Dihydro-Quer
Name: Taxifolin
Name: (2R,3R)-3,3',4',5,7-Pentahydroxyflavanone
Name: trans-Dihydroquercetin
Name: Distylin
Name: Taxifoliol
Name: Catechin
Name: taxifolin
Class: Flavonoids
Formula: C15H12O7
Exact mass: 304.2587
SMILES: O=C1c2c(O)cc(O)cc2OC(c2ccc(O)c(O)c2)C1O
InChI: InChI=1S/C15H12O7/c16-7-4-10(19)12-11(5-7)22-15(14(21)13(12)20)6-1-2-8(17)9(18)3-6/h1-5,14-19,21H
Instrument: ABSciex API3200 LC/MS system
Instrument type: LC-ESI-QQQ
Ms type: MS
Ion mode: POSITIVE
Precursor type: [M+H]+
m/z	relative intensity
100.2000	104
110.4000	53
110.7000	22
123.1000	37
123.4000	32
127.2000	22
127.3000	32
127.4000	31
129.0000	51
134.4000	40
142.8000	21
143.6000	25
148.6000	216
149.4000	29
152.4000	70
152.5000	165
152.6000	256
152.7000	999
152.8000	61
152.9000	47
153.1000	97
153.2000	98
153.3000	140
153.4000	61
153.8000	35
154.7000	23
166.5000	27
166.8000	49
175.3000	26
185.1000	25
185.2000	35
194.5000	44
194.6000	60
194.7000	64
194.8000	34
195.0000	33
195.1000	23
195.2000	34
195.3000	53
202.8000	26
204.0000	56
204.1000	25
205.3000	23
207.3000	22
210.5000	27
213.2000	25
213.3000	24
213.5000	114
221.1000	21
222.2000	44
224.3000	29
225.1000	29
225.9000	23
227.2000	39
230.5000	74
230.6000	72
230.7000	23
230.8000	149
230.9000	94
231.0000	42
231.1000	82
231.2000	43
231.3000	104
231.4000	54
231.5000	44
232.1000	46
233.2000	25
238.3000	21
239.5000	43
240.4000	46
240.6000	30
240.9000	67
247.5000	30
258.0000	46
258.1000	27
258.3000	85
258.4000	134
258.5000	128
258.6000	131
258.7000	138
258.8000	217
258.9000	189
259.0000	195
259.1000	193
259.2000	212
259.3000	176
259.4000	105
259.5000	55
259.6000	34
259.7000	27
259.8000	64
259.9000	36
260.1000	26
260.2000	27
260.3000	134
261.4000	29
280.6000	22
286.3000	75
286.4000	95
286.5000	84
286.6000	83
286.7000	89
286.8000	101
286.9000	62
287.0000	188
287.1000	79
287.2000	53
287.4000	56
287.6000	25
287.8000	37
288.0000	36
288.1000	36
289.2000	25
295.1000	72
297.3000	21
302.9000	27
304.3000	145
304.4000	394
304.5000	422
304.6000	690
304.7000	746
304.8000	872
304.9000	861
305.0000	883
305.1000	674
305.2000	795
305.3000	661
305.4000	377
305.5000	280
305.6000	169
305.7000	171
305.8000	120
305.9000	108
306.0000	122
306.1000	102
306.2000	102
306.3000	93
306.4000	56
306.5000	27
306.6000	34
306.8000	36
307.0000	47
307.3000	36
311.0000	61
311.9000	23
319.7000	26
321.5000	28
322.1000	27
322.3000	25
346.0000	27
346.9000	46
432.5000	29
432.7000	29
496.8000	47
532.7000	27
965.2000	28
