Mass spectrum: Amorphin; LC-ESI-QQQ; MS; [M+H]+
Name: Amorphin
Class: Flavonoids
Formula: C34H40O16
Exact mass: 704.6883
SMILES: C=C(CO[C@@H]1O[C@@H](CO[C@@H]2OC[C@H](O)[C@H](O)[C@H]2O)[C@@H](O)[C@H](O)[C@H]1O)[C@@H]1Cc2c(ccc3c2OC2COc4cc(OC)c(OC)cc4C2C3=O)O1
InChI: InChI=1S/C34H40O16/c1-13(9-45-34-31(41)29(39)28(38)24(50-34)12-47-33-30(40)27(37)17(35)10-46-33)19-7-16-18(48-19)5-4-14-26(36)25-15-6-21(42-2)22(43-3)8-20(15)44-11-23(25)49-32(14)16/h4-6,8,17,19,23-25,27-31,33-35,37-41H,1,7,9-12H2,2-3H3/t17-,19-,23?,24-,25?,27-,28+,29-,30+,31+,33-,34+/m0/s1
Instrument: ABSciex API3200 LC/MS system
Instrument type: LC-ESI-QQQ
Ms type: MS
Ion mode: POSITIVE
Precursor type: [M+H]+
m/z	relative intensity
101.8000	21
101.9000	29
102.0000	26
102.1000	35
102.2000	32
102.3000	43
121.1000	53
127.2000	28
134.4000	21
134.5000	36
134.6000	46
134.7000	56
135.1000	28
135.4000	146
135.5000	394
141.5000	47
141.6000	626
148.4000	33
149.1000	134
197.7000	33
198.0000	28
208.8000	34
220.7000	26
223.0000	22
225.2000	44
239.0000	22
247.9000	22
295.4000	22
410.3000	42
410.4000	153
410.5000	332
410.6000	346
410.7000	381
410.8000	354
410.9000	365
411.0000	531
411.1000	246
411.2000	323
411.3000	352
411.4000	225
411.5000	83
411.6000	92
411.7000	57
411.8000	58
411.9000	81
412.0000	41
412.1000	81
412.2000	74
412.3000	76
412.6000	32
412.7000	31
412.8000	21
413.0000	37
413.2000	21
542.6000	26
542.7000	21
542.8000	56
542.9000	44
543.0000	32
543.3000	43
544.0000	21
572.4000	59
572.5000	113
572.6000	324
572.7000	306
572.8000	269
572.9000	257
573.0000	304
573.1000	327
573.2000	244
573.3000	182
573.4000	59
573.5000	66
573.6000	40
573.7000	99
573.8000	105
573.9000	93
574.0000	80
574.1000	64
574.2000	106
574.3000	77
574.4000	27
574.8000	21
574.9000	38
575.0000	44
575.1000	44
704.2000	49
704.3000	158
704.4000	477
704.5000	699
704.6000	778
704.7000	869
704.8000	787
704.9000	768
705.0000	914
705.1000	999
705.2000	864
705.3000	430
705.4000	375
705.5000	397
705.6000	387
705.7000	390
705.8000	391
705.9000	339
706.0000	299
706.1000	382
706.2000	272
706.3000	180
706.4000	118
706.5000	112
706.6000	193
706.7000	100
706.8000	82
706.9000	124
707.0000	89
707.1000	119
707.2000	95
707.3000	38
707.4000	27
707.5000	27
707.8000	27
708.1000	27
708.2000	21
721.2000	38
721.3000	37
721.4000	37
721.5000	31
721.6000	65
721.7000	77
721.8000	75
721.9000	52
722.0000	70
722.1000	54
722.3000	37
722.8000	31
722.9000	32
723.2000	27
1408.1000	22
1408.2000	27
1408.4000	62
1408.5000	27
1408.6000	50
1408.7000	33
1408.8000	45
1408.9000	33
1409.0000	56
1409.1000	27
1409.2000	39
1409.4000	56
1409.5000	45
1409.7000	22
1409.8000	27
1409.9000	27
1410.0000	39
1410.1000	22
1410.2000	22
1410.4000	22
1410.7000	22
1425.4000	27
1425.5000	27
1425.9000	45
1426.0000	50
1426.1000	22
1426.2000	21
1426.3000	27
1426.6000	39
1426.7000	27
1426.8000	22
1426.9000	22
1427.0000	22
1427.1000	22
