Mass spectrum: Sipeimone; LC-ESI-QQQ; MS; [M+H]+
Name: Sipeimone
Class: Alkaloids
Formula: C27H41NO3
Exact mass: 427.6327
SMILES: C[C@H]1CC[C@@H]2N(CC3[C@H](CC[C@H]4C5CC(=O)[C@H]6CC(=O)CC[C@]6(C)[C@H]5C[C@@H]34)[C@]2(C)O)C1
InChI: InChI=1S/C27H41NO3/c1-15-4-7-25-27(3,31)21-6-5-17-18(20(21)14-28(25)13-15)11-22-19(17)12-24(30)23-10-16(29)8-9-26(22,23)2/h15,17-23,25,31H,4-14H2,1-3H3/t15-,17+,18+,19?,20?,21-,22-,23+,25-,26+,27-/m0/s1
Instrument: ABSciex API3200 LC/MS system
Instrument type: LC-ESI-QQQ
Ms type: MS
Ion mode: POSITIVE
Precursor type: [M+H]+
m/z	relative intensity
100.6000	33
100.7000	34
100.8000	59
100.9000	45
101.0000	54
101.3000	32
118.5000	62
118.6000	123
118.7000	121
118.8000	106
118.9000	100
119.0000	68
119.1000	43
119.2000	26
148.8000	40
409.6000	47
409.7000	71
409.8000	96
409.9000	106
410.0000	112
410.1000	111
410.2000	119
410.3000	103
410.4000	97
410.5000	97
410.6000	45
410.7000	41
410.8000	36
410.9000	30
411.0000	35
411.1000	28
411.2000	22
411.3000	21
411.4000	23
411.5000	21
427.4000	49
427.5000	233
427.6000	636
427.7000	963
427.8000	977
427.9000	989
428.0000	946
428.1000	936
428.2000	990
428.3000	999
428.4000	953
428.5000	901
428.6000	619
428.7000	482
428.8000	448
428.9000	467
429.0000	704
429.1000	527
429.2000	448
429.3000	393
429.4000	339
429.5000	288
429.6000	148
429.7000	104
429.8000	103
429.9000	92
430.0000	76
430.1000	91
430.2000	95
430.3000	87
430.4000	70
430.5000	58
430.6000	28
445.7000	28
445.8000	34
445.9000	22
446.0000	42
446.1000	30
446.2000	31
446.3000	34
446.4000	28
446.5000	22
