Mass spectrum: Carmine red; LC-ESI-QQQ; MS; [M+H]+
Name: Carmine red
Class: Polycyclic aromatic natural products
Formula: C22H20O13
Exact mass: 492.3969
SMILES: Cc1c(C(=O)O)c(O)cc2c1C(=O)c1c(O)c([C@H]3O[C@H](CO)[C@@H](O)[C@H](O)[C@H]3O)c(O)c(O)c1C2=O
InChI: InChI=1S/C22H20O13/c1-4-8-5(2-6(24)9(4)22(33)34)13(25)10-11(15(8)27)16(28)12(18(30)17(10)29)21-20(32)19(31)14(26)7(3-23)35-21/h2,7,14,19-21,23-24,26,28-32H,3H2,1H3,(H,33,34)/t7-,14-,19+,20-,21-/m1/s1
Instrument: ABSciex API3200 LC/MS system
Instrument type: LC-ESI-QQQ
Ms type: MS
Ion mode: POSITIVE
Precursor type: [M+H]+
m/z	relative intensity
100.0000	125
102.1000	86
102.2000	72
102.3000	62
102.4000	193
102.5000	73
102.6000	26
102.7000	33
103.7000	25
104.5000	32
106.8000	36
106.9000	34
107.3000	26
108.7000	29
111.0000	47
112.9000	25
114.9000	34
115.1000	21
115.4000	43
117.8000	28
118.1000	62
118.3000	55
120.6000	32
120.8000	29
121.0000	27
121.1000	26
122.8000	41
125.9000	22
132.0000	42
132.1000	60
132.2000	58
132.3000	50
132.4000	23
132.6000	29
134.6000	46
135.1000	29
137.1000	26
137.2000	61
137.3000	111
137.4000	49
137.5000	27
137.6000	27
139.1000	32
141.0000	24
144.5000	33
148.4000	151
148.5000	93
148.7000	80
148.9000	102
149.2000	49
149.3000	67
149.6000	47
149.7000	34
150.1000	76
150.2000	24
150.4000	53
152.4000	34
155.0000	42
155.2000	23
155.3000	50
157.6000	30
157.9000	53
158.3000	23
159.3000	22
160.9000	30
161.3000	26
163.0000	24
163.3000	30
163.4000	24
163.6000	25
167.0000	37
167.4000	37
168.0000	51
170.8000	31
171.2000	30
173.4000	30
175.8000	26
176.3000	25
188.2000	24
194.5000	22
196.6000	26
197.9000	105
198.3000	21
198.6000	45
199.0000	40
200.1000	28
200.8000	44
203.3000	32
204.1000	30
206.6000	22
207.2000	50
207.4000	22
208.0000	29
209.2000	32
209.4000	46
209.6000	38
210.6000	36
210.7000	64
214.4000	24
214.6000	24
214.8000	22
215.2000	23
217.2000	23
220.4000	77
220.5000	75
220.8000	109
220.9000	267
221.2000	32
221.5000	27
221.6000	33
221.9000	35
222.0000	81
222.1000	28
222.4000	73
222.6000	41
223.2000	78
223.3000	52
223.4000	54
223.5000	26
224.8000	32
224.9000	28
225.3000	33
226.5000	51
226.9000	33
229.1000	28
235.6000	24
238.4000	40
238.6000	73
238.7000	59
238.8000	78
238.9000	66
239.0000	30
239.1000	84
239.3000	38
239.6000	25
240.0000	30
240.1000	22
247.8000	24
261.5000	24
266.9000	25
275.7000	25
278.6000	25
279.2000	31
280.6000	22
283.0000	21
294.5000	22
294.6000	22
294.9000	32
295.0000	25
295.2000	31
295.3000	37
295.5000	22
313.1000	26
325.0000	64
335.2000	29
338.5000	34
338.6000	26
338.9000	29
339.0000	40
339.1000	42
339.2000	39
352.7000	27
354.4000	64
354.5000	84
354.6000	38
354.7000	62
354.8000	81
354.9000	43
355.0000	42
355.1000	27
355.3000	40
355.4000	29
355.5000	23
355.8000	30
356.7000	28
356.8000	54
356.9000	69
357.0000	53
357.1000	40
357.2000	38
357.3000	42
370.7000	34
372.2000	27
372.4000	51
372.7000	50
372.9000	44
373.1000	33
373.3000	37
373.5000	36
373.9000	58
374.0000	36
379.3000	23
380.6000	37
381.0000	21
388.9000	23
390.7000	48
390.8000	55
392.0000	23
396.4000	34
396.5000	33
396.6000	43
397.0000	33
397.3000	22
409.2000	44
410.7000	27
422.7000	35
426.5000	36
426.7000	109
427.3000	30
427.9000	34
433.3000	28
433.6000	23
433.8000	24
438.5000	21
439.0000	70
454.6000	22
458.5000	21
476.3000	25
476.4000	59
476.5000	95
476.6000	99
476.7000	154
476.8000	161
476.9000	130
477.0000	249
477.1000	204
477.2000	121
477.3000	53
477.4000	29
477.6000	55
477.7000	92
477.8000	92
477.9000	76
478.0000	21
478.1000	50
478.2000	45
478.3000	21
478.6000	42
478.9000	25
492.2000	26
492.4000	152
492.5000	315
492.6000	384
492.7000	538
492.8000	999
492.9000	430
493.0000	360
493.1000	492
493.2000	333
493.3000	136
493.4000	140
493.5000	90
493.6000	73
493.7000	70
493.8000	183
493.9000	105
494.0000	80
494.1000	64
494.2000	79
494.3000	43
494.4000	22
494.6000	26
494.7000	21
495.0000	21
495.2000	26
507.8000	21
508.6000	22
509.9000	21
533.6000	21
968.5000	31
968.7000	37
968.9000	29
969.1000	21
969.9000	21
984.2000	27
984.3000	37
984.4000	50
984.5000	40
984.6000	41
984.7000	54
984.8000	72
984.9000	48
985.0000	46
985.1000	32
985.2000	43
985.4000	44
985.5000	25
986.3000	22
986.4000	21
986.6000	38
1001.6000	35
1002.5000	23
1494.4000	21
