Mass spectrum: Pseudojervine; LC-ESI-QQQ; MS; [M+H]+
Name: Pseudojervine
Class: Alkaloids
Formula: C33H49NO8
Exact mass: 587.7604
SMILES: CC1=C2C(=O)[C@H]3C(CC=C4C[C@@H](OC5O[C@H](CO)[C@@H](O)[C@H](O)[C@H]5O)CC[C@@]43C)[C@@H]2CC[C@]12OC1C[C@H](C)CN[C@H]1[C@H]2C
InChI: InChI=1S/C33H49NO8/c1-15-11-22-26(34-13-15)17(3)33(42-22)10-8-20-21-6-5-18-12-19(40-31-30(39)29(38)27(36)23(14-35)41-31)7-9-32(18,4)25(21)28(37)24(20)16(33)2/h5,15,17,19-23,25-27,29-31,34-36,38-39H,6-14H2,1-4H3/t15-,17+,19-,20-,21?,22?,23+,25+,26-,27+,29-,30+,31?,32-,33-/m0/s1
Instrument: ABSciex API3200 LC/MS system
Instrument type: LC-ESI-QQQ
Ms type: MS
Ion mode: POSITIVE
Precursor type: [M+H]+
m/z	relative intensity
142.1000	48
142.2000	33
142.3000	66
142.4000	37
142.5000	26
587.3000	94
587.4000	368
587.5000	640
587.6000	867
587.7000	878
587.8000	919
587.9000	975
588.0000	997
588.1000	999
588.2000	997
588.3000	905
588.4000	825
588.5000	446
588.6000	397
588.7000	492
588.8000	577
588.9000	620
589.0000	628
589.1000	643
589.2000	612
589.3000	603
589.4000	492
589.5000	254
589.6000	159
589.7000	208
589.8000	214
589.9000	235
590.0000	258
590.1000	265
590.2000	247
590.3000	190
590.4000	187
590.5000	79
590.6000	45
590.7000	48
590.8000	57
590.9000	49
591.0000	52
591.1000	51
591.2000	42
591.3000	38
591.4000	39
628.5000	69
628.6000	125
628.7000	182
628.8000	190
628.9000	210
629.0000	208
629.1000	200
629.2000	174
629.3000	157
629.4000	121
629.5000	70
629.6000	43
629.7000	64
629.8000	80
629.9000	67
630.0000	74
630.1000	81
630.2000	76
630.3000	74
630.4000	60
630.5000	34
630.7000	23
630.8000	27
