Mass spectrum: physostigmine; LC-ESI-QQQ; MS; [M+H]+
Name: Physostigmine
Name: Physostol
Name: Antilirium
Name: Esromiotin
Name: Ezerin
Name: Calabarine
Name: Fysostigmin
Name: ((3aS,8aR)-1,8,3a-trimethylpyrrolidino(2,3-b)indolin-5-yloxy)-N-methylcarboxamide / Eserine
Name: Cogmine
Name: physostigmine
Class: Alkaloids
Formula: C15H21N3O2
Exact mass: 275.3535
SMILES: CN=C(O)Oc1ccc2c(c1)[C@]1(C)CCN(C)[C@@H]1N2C
InChI: InChI=1S/C15H21N3O2/c1-15-7-8-17(3)13(15)18(4)12-6-5-10(9-11(12)15)20-14(19)16-2/h5-6,9,13H,7-8H2,1-4H3,(H,16,19)/t13-,15+/m1/s1
Instrument: ABSciex API3200 LC/MS system
Instrument type: LC-ESI-QQQ
Ms type: MS
Ion mode: POSITIVE
Precursor type: [M+H]+
m/z	relative intensity
100.3000	25
100.4000	29
100.5000	87
100.6000	75
100.7000	66
100.8000	53
100.9000	45
101.0000	36
101.1000	31
101.2000	21
130.8000	34
133.6000	23
133.7000	26
133.8000	34
133.9000	27
134.0000	21
134.1000	26
134.2000	27
134.3000	24
134.4000	23
145.4000	37
145.5000	37
145.6000	76
145.7000	97
145.8000	96
145.9000	96
146.0000	101
146.1000	102
146.2000	96
146.3000	78
146.4000	116
146.5000	119
146.6000	115
146.7000	129
146.8000	129
146.9000	138
147.0000	135
147.1000	121
147.2000	122
147.3000	123
147.4000	101
147.5000	55
147.6000	27
147.8000	29
148.0000	29
159.4000	22
159.5000	31
159.6000	51
159.7000	64
159.8000	71
159.9000	64
160.0000	58
160.1000	77
160.2000	67
160.3000	41
160.4000	74
160.5000	82
160.6000	117
160.7000	86
160.8000	87
160.9000	94
161.0000	94
161.1000	105
161.2000	82
161.3000	135
161.4000	633
161.5000	979
161.6000	999
161.7000	906
161.8000	867
161.9000	898
162.0000	892
162.1000	868
162.2000	784
162.3000	806
162.4000	723
162.5000	395
162.6000	212
162.7000	209
162.8000	185
162.9000	216
163.0000	217
163.1000	199
163.2000	194
163.3000	201
163.4000	153
163.5000	74
163.6000	30
175.4000	66
175.5000	194
175.6000	312
175.7000	279
175.8000	303
175.9000	310
176.0000	322
176.1000	299
176.2000	265
176.3000	228
176.4000	214
176.5000	101
176.6000	51
176.7000	36
176.8000	50
176.9000	46
177.0000	43
177.1000	35
177.2000	49
177.3000	35
177.4000	26
187.4000	46
187.5000	78
187.6000	74
187.7000	88
187.8000	91
187.9000	80
188.0000	106
188.1000	88
188.2000	96
188.3000	77
188.4000	69
188.5000	44
188.7000	22
202.5000	21
202.6000	31
202.7000	32
202.8000	35
202.9000	37
203.0000	33
203.1000	42
203.2000	38
203.3000	38
203.4000	31
203.5000	27
216.5000	22
216.6000	33
216.7000	36
216.8000	28
216.9000	34
217.0000	43
217.1000	48
217.2000	45
217.3000	38
217.4000	32
217.5000	25
217.6000	21
217.7000	23
217.8000	34
217.9000	29
218.0000	30
218.1000	37
218.2000	48
218.3000	123
218.4000	547
218.5000	719
218.6000	774
218.7000	856
218.8000	848
218.9000	844
219.0000	882
219.1000	838
219.2000	855
219.3000	792
219.4000	649
219.5000	406
219.6000	231
219.7000	240
219.8000	220
219.9000	241
220.0000	222
220.1000	247
220.2000	251
220.3000	385
220.4000	347
220.5000	58
220.6000	24
220.8000	22
221.2000	22
232.4000	77
232.5000	170
232.6000	205
232.7000	235
232.8000	205
232.9000	216
233.0000	227
233.1000	246
233.2000	233
233.3000	147
233.4000	171
233.5000	90
233.6000	61
233.7000	42
233.8000	27
233.9000	33
234.0000	36
234.1000	35
234.2000	36
234.3000	31
234.4000	38
244.5000	35
244.6000	45
244.7000	66
244.8000	58
244.9000	67
245.0000	67
245.1000	43
245.2000	53
245.3000	43
245.4000	40
245.5000	22
275.2000	29
275.3000	51
275.4000	296
275.5000	519
275.6000	655
275.7000	645
275.8000	687
275.9000	691
276.0000	664
276.1000	695
276.2000	654
276.3000	615
276.4000	577
276.5000	430
276.6000	344
276.7000	471
276.8000	347
276.9000	125
277.0000	121
277.1000	126
277.2000	141
277.3000	147
277.4000	153
277.5000	75
277.6000	48
277.7000	43
277.8000	26
277.9000	39
278.0000	31
278.1000	24
278.2000	30
278.3000	27
278.4000	23
551.2000	22
