Mass spectrum: Crassicauline A; LC-ESI-QQQ; MS; [M+H]+
Name: Crassicauline A
Class: Alkaloids
Formula: C35H49NO10
Exact mass: 643.7815
SMILES: CCN1C[C@]2(COC)CCC(OC)[C@@]34C5C[C@]6(O)C(OC)C[C@@](OC(C)=O)(C5[C@H]6OC(=O)c5ccc(OC)cc5)C(C(OC)C23)[C@@H]14
InChI: InChI=1S/C35H49NO10/c1-8-36-17-32(18-40-3)14-13-23(42-5)35-22-15-33(39)24(43-6)16-34(46-19(2)37,26(29(35)36)27(44-7)28(32)35)25(22)30(33)45-31(38)20-9-11-21(41-4)12-10-20/h9-12,22-30,39H,8,13-18H2,1-7H3/t22?,23?,24?,25?,26?,27?,28?,29-,30-,32+,33+,34-,35+/m1/s1
Instrument: ABSciex API3200 LC/MS system
Instrument type: LC-ESI-QQQ
Ms type: MS
Ion mode: POSITIVE
Precursor type: [M+H]+
m/z	relative intensity
551.5000	33
551.6000	53
551.7000	78
551.8000	68
551.9000	61
552.0000	61
552.1000	56
552.2000	52
552.3000	48
552.4000	31
552.9000	21
583.4000	22
583.5000	59
583.6000	113
583.7000	125
583.8000	133
583.9000	145
584.0000	149
584.1000	145
584.2000	140
584.3000	121
584.4000	95
584.5000	53
584.6000	88
584.7000	55
584.8000	56
584.9000	77
585.0000	51
585.1000	48
585.2000	50
585.3000	43
585.4000	33
643.2000	23
643.3000	187
643.4000	439
643.5000	753
643.6000	902
643.7000	944
643.8000	976
643.9000	988
644.0000	993
644.1000	999
644.2000	981
644.3000	940
644.4000	764
644.5000	529
644.6000	604
644.7000	645
644.8000	655
644.9000	680
645.0000	682
645.1000	683
645.2000	655
645.3000	606
645.4000	525
645.5000	295
645.6000	297
645.7000	307
645.8000	299
645.9000	311
646.0000	372
646.1000	351
646.2000	283
646.3000	254
646.4000	200
646.5000	97
646.6000	85
646.7000	76
646.8000	78
646.9000	77
647.0000	69
647.1000	73
647.2000	70
647.3000	64
647.4000	44
647.5000	21
