Mass spectrum: Phlorizin; LC-ESI-QQQ; MS; [M+H]+
Name: Phlr-2p-Glc
Name: Phloridzin
Name: Phlorhizin
Name: Phlorizin
Name: Phlorizoside
Name: Phlorrhizin
Name: Phlorrhizen
Name: 2'-(beta-D-Glucopyranosyloxy)-4',6'-dihydroxy-3-(4-hydroxyphenyl)propiophenone
Class: Carbohydrates
Formula: C21H24O10
Exact mass: 436.4194
SMILES: O=C(CCc1ccc(O)cc1)c1c(O)cc(O)cc1O[C@@H]1OC(CO)[C@@H](O)C(O)C1O
InChI: InChI=1S/C21H24O10/c22-9-16-18(27)19(28)20(29)21(31-16)30-15-8-12(24)7-14(26)17(15)13(25)6-3-10-1-4-11(23)5-2-10/h1-2,4-5,7-8,16,18-24,26-29H,3,6,9H2/t16?,18-,19?,20?,21-/m1/s1
Instrument: ABSciex API3200 LC/MS system
Instrument type: LC-ESI-QQQ
Ms type: MS
Ion mode: POSITIVE
Precursor type: [M+H]+
m/z	relative intensity
100.6000	25
100.9000	22
101.0000	60
101.1000	58
101.2000	63
101.3000	82
101.4000	50
106.4000	64
106.5000	150
106.6000	225
106.7000	259
106.8000	264
106.9000	263
107.0000	246
107.1000	259
107.2000	251
107.3000	297
107.4000	158
107.5000	45
107.7000	26
107.8000	23
108.0000	21
119.1000	32
119.2000	48
119.4000	23
141.5000	71
141.6000	144
141.7000	205
141.8000	210
141.9000	176
142.0000	152
142.1000	132
142.2000	115
142.3000	97
142.4000	57
142.5000	22
143.3000	25
148.7000	22
148.8000	56
148.9000	78
149.2000	33
149.3000	33
168.4000	42
168.5000	80
168.6000	101
168.7000	94
168.8000	89
168.9000	80
169.0000	96
169.1000	75
169.2000	50
169.3000	57
169.4000	41
274.3000	60
274.4000	312
274.5000	633
274.6000	842
274.7000	954
274.8000	984
274.9000	972
275.0000	953
275.1000	998
275.2000	999
275.3000	830
275.4000	646
275.5000	276
275.6000	289
275.7000	197
275.8000	180
275.9000	167
276.0000	194
276.1000	176
276.2000	159
276.3000	152
276.4000	121
276.5000	60
276.6000	36
276.7000	28
276.8000	27
276.9000	24
277.0000	23
277.1000	21
277.2000	21
277.3000	29
436.3000	22
436.4000	72
436.5000	121
436.6000	138
436.7000	172
436.8000	152
436.9000	156
437.0000	165
437.1000	181
437.2000	121
437.3000	95
437.4000	43
437.5000	41
437.6000	64
437.7000	42
437.8000	29
437.9000	31
438.0000	32
438.1000	35
438.2000	25
438.3000	22
598.8000	25
598.9000	41
599.0000	22
872.3000	33
872.4000	31
872.5000	51
872.6000	54
872.7000	83
872.8000	70
872.9000	57
873.0000	54
873.1000	45
873.2000	54
873.3000	29
873.4000	23
873.6000	24
873.7000	24
873.8000	25
873.9000	23
1309.2000	21
