Mass spectrum: Harpagoside; LC-ESI-QQQ; MS; [M+H]+
Name: Harpagoside
Class: Terpenoids
Formula: C24H30O11
Exact mass: 494.5001
SMILES: CC1(OC(=O)/C=C/c2ccccc2)C[C@@H](O)[C@]2(O)C=COC(O[C@@H]3OC(CO)[C@H](O)C(O)C3O)[C@H]12
InChI: InChI=1S/C24H30O11/c1-23(35-16(27)8-7-13-5-3-2-4-6-13)11-15(26)24(31)9-10-32-22(20(23)24)34-21-19(30)18(29)17(28)14(12-25)33-21/h2-10,14-15,17-22,25-26,28-31H,11-12H2,1H3/b8-7+/t14?,15-,17+,18?,19?,20-,21+,22?,23?,24-/m1/s1
Instrument: ABSciex API3200 LC/MS system
Instrument type: LC-ESI-QQQ
Ms type: MS
Ion mode: POSITIVE
Precursor type: [M+H]+
m/z	relative intensity
120.3000	31
120.4000	28
120.5000	88
120.6000	107
120.7000	98
120.8000	130
120.9000	172
121.0000	147
121.1000	117
121.2000	102
121.3000	90
121.4000	90
121.5000	36
130.4000	21
130.8000	22
130.9000	23
131.1000	25
141.5000	22
141.6000	47
141.7000	57
141.8000	44
141.9000	34
148.5000	83
148.6000	139
148.7000	172
148.8000	163
148.9000	169
149.0000	162
149.1000	142
149.2000	147
149.3000	113
149.4000	94
149.5000	45
149.6000	32
149.9000	25
150.1000	23
166.3000	40
166.4000	266
166.5000	549
166.6000	791
166.7000	786
166.8000	733
166.9000	830
167.0000	999
167.1000	740
167.2000	682
167.3000	507
167.4000	429
167.5000	202
167.6000	107
167.7000	102
167.8000	160
167.9000	103
168.0000	65
168.1000	58
168.2000	52
168.3000	45
168.4000	60
296.5000	29
296.6000	39
296.7000	42
296.8000	56
296.9000	63
297.0000	43
297.1000	48
297.2000	42
297.3000	29
297.4000	40
328.3000	37
328.4000	218
328.5000	391
328.6000	597
328.7000	569
328.8000	607
328.9000	628
329.0000	582
329.1000	530
329.2000	512
329.3000	477
329.4000	505
329.5000	135
329.6000	136
329.7000	133
329.8000	295
329.9000	168
330.0000	115
330.1000	79
330.2000	99
330.3000	59
330.4000	60
330.6000	21
330.8000	21
331.1000	24
494.4000	26
494.5000	115
494.6000	181
494.7000	169
494.8000	173
494.9000	187
495.0000	194
495.1000	169
495.2000	161
495.3000	189
495.4000	77
495.5000	34
495.6000	39
495.7000	40
495.8000	46
495.9000	36
496.0000	33
496.1000	42
496.2000	45
496.3000	40
511.5000	62
511.6000	121
511.7000	159
511.8000	157
511.9000	181
512.0000	146
512.1000	175
512.2000	139
512.3000	122
512.4000	69
512.5000	35
512.6000	39
512.7000	41
512.8000	39
512.9000	44
513.0000	48
513.1000	41
513.2000	39
513.3000	37
540.1000	26
540.2000	22
624.6000	24
625.0000	23
625.1000	21
642.5000	43
642.6000	67
642.7000	74
642.8000	79
642.9000	121
643.0000	114
643.1000	103
643.2000	96
643.3000	48
643.4000	22
643.5000	28
643.6000	32
643.7000	29
643.8000	33
643.9000	40
644.0000	31
644.1000	31
644.2000	25
644.3000	31
988.3000	37
988.4000	124
988.5000	185
988.6000	198
988.7000	210
988.8000	236
988.9000	216
989.0000	223
989.1000	231
989.2000	218
989.3000	193
989.4000	162
989.5000	125
989.6000	123
989.7000	112
989.8000	110
989.9000	129
990.0000	118
990.1000	132
990.2000	121
990.3000	81
990.4000	46
990.5000	44
990.6000	42
990.7000	37
990.8000	35
990.9000	49
991.0000	40
991.1000	42
991.2000	33
991.3000	32
1005.3000	26
1005.4000	63
1005.5000	68
1005.6000	92
1005.7000	105
1005.8000	94
1005.9000	122
1006.0000	113
1006.1000	114
1006.2000	95
1006.3000	84
1006.4000	80
1006.5000	59
1006.6000	70
1006.7000	48
1006.8000	53
1006.9000	55
1007.0000	55
1007.1000	51
1007.2000	62
1007.3000	55
1007.4000	40
1007.5000	25
1007.7000	23
1008.0000	26
