Mass spectrum: Aconosine; LC-ESI-QQQ; MS; [M+H]+
Name: Aconosine
Class: Alkaloids
Formula: C22H35NO4
Exact mass: 377.5286
SMILES: CCN1C[C@@H]2CCC(OC)C34C5C[C@@H]6[C@@H](OC)C[C@@](O)(C5[C@H]6O)C(CC23)[C@@H]14
InChI: InChI=1S/C22H35NO4/c1-4-23-10-11-5-6-17(27-3)22-13(11)8-15(20(22)23)21(25)9-16(26-2)12-7-14(22)18(21)19(12)24/h11-20,24-25H,4-10H2,1-3H3/t11-,12+,13?,14?,15?,16-,17?,18?,19-,20+,21-,22?/m0/s1
Instrument: ABSciex API3200 LC/MS system
Instrument type: LC-ESI-QQQ
Ms type: MS
Ion mode: POSITIVE
Precursor type: [M+H]+
m/z	relative intensity
345.5000	40
345.6000	113
345.7000	173
345.8000	208
345.9000	208
346.0000	202
346.1000	193
346.2000	186
346.3000	185
346.4000	166
346.5000	133
346.6000	74
346.7000	79
346.8000	77
346.9000	56
347.0000	49
347.1000	49
347.2000	50
347.3000	54
347.4000	43
347.5000	36
377.4000	96
377.5000	557
377.6000	864
377.7000	983
377.8000	973
377.9000	989
378.0000	980
378.1000	999
378.2000	992
378.3000	973
378.4000	892
378.5000	828
378.6000	492
378.7000	443
378.8000	465
378.9000	451
379.0000	475
379.1000	497
379.2000	493
379.3000	466
379.4000	437
379.5000	367
379.6000	170
379.7000	122
379.8000	120
379.9000	127
380.0000	129
380.1000	134
380.2000	119
380.3000	103
380.4000	95
380.5000	85
380.6000	30
