Mass spectrum: Fellutanine A; LC-ESI-QQQ; MS; [M+H]+
Name: Fellutanine A
Class: Aminoacids and peptides
Formula: C22H20N4O2
Exact mass: 372.43030000000005
SMILES: OC1=N[C@@H](Cc2c[nH]c3ccccc23)C(O)=NC1Cc1c[nH]c2ccccc12
InChI: InChI=1S/C22H20N4O2/c27-21-19(9-13-11-23-17-7-3-1-5-15(13)17)25-22(28)20(26-21)10-14-12-24-18-8-4-2-6-16(14)18/h1-8,11-12,19-20,23-24H,9-10H2,(H,25,28)(H,26,27)/t19-,20?/m0/s1
Instrument: ABSciex API3200 LC/MS system
Instrument type: LC-ESI-QQQ
Ms type: MS
Ion mode: POSITIVE
Precursor type: [M+H]+
m/z	relative intensity
100.9000	31
101.0000	110
101.1000	143
101.2000	163
101.3000	59
101.4000	81
101.5000	26
102.2000	23
118.1000	21
129.5000	157
129.6000	319
129.7000	413
129.8000	436
129.9000	479
130.0000	407
130.1000	372
130.2000	357
130.3000	298
130.4000	244
130.5000	169
130.6000	35
130.8000	30
130.9000	72
131.0000	46
131.1000	58
131.2000	50
131.3000	30
131.4000	31
131.5000	33
158.3000	21
197.9000	43
198.0000	58
198.2000	33
199.3000	22
213.8000	28
213.9000	28
214.3000	25
241.5000	55
241.6000	66
241.7000	108
241.8000	135
241.9000	143
242.0000	194
242.1000	329
242.2000	124
242.3000	67
242.4000	76
242.5000	32
242.9000	27
243.0000	38
243.1000	38
243.3000	25
243.4000	36
243.9000	27
244.2000	21
244.3000	24
244.4000	26
255.8000	24
372.4000	44
372.5000	275
372.6000	658
372.7000	937
372.8000	994
372.9000	893
373.0000	952
373.1000	999
373.2000	969
373.3000	880
373.4000	718
373.5000	307
373.6000	199
373.7000	219
373.8000	279
373.9000	270
374.0000	299
374.1000	285
374.2000	328
374.3000	249
374.4000	153
374.5000	76
374.6000	48
374.7000	26
374.8000	48
374.9000	38
375.0000	41
375.1000	42
375.2000	25
375.3000	34
375.4000	26
386.6000	21
388.9000	21
389.6000	25
389.7000	48
389.8000	76
389.9000	41
390.2000	27
390.3000	30
390.4000	21
404.5000	23
404.6000	31
404.8000	50
404.9000	34
405.0000	67
405.1000	50
405.2000	29
405.3000	48
405.4000	23
413.9000	29
414.0000	26
414.2000	29
744.5000	110
744.6000	157
744.7000	245
744.8000	217
744.9000	295
745.0000	298
745.1000	313
745.2000	284
745.3000	265
745.4000	179
745.5000	90
745.6000	72
745.7000	149
745.8000	142
745.9000	187
746.0000	199
746.1000	158
746.2000	149
746.3000	123
746.4000	63
746.5000	41
746.7000	34
746.8000	43
746.9000	27
747.0000	48
747.1000	58
747.2000	31
747.3000	34
747.4000	28
777.0000	29
1117.0000	36
1117.1000	23
1117.7000	29
1118.2000	23
