Mass spectrum: Vincanidine; LC-ESI-QQQ; MS; [M+H]+
Name: Vincanidine
Class: Alkaloids
Formula: C19H20N2O2
Exact mass: 308.38345000000004
SMILES: C/C=C1/CN2CCC34C(=C(C=O)[C@H]1C[C@H]23)Nc1c(O)cccc14
InChI: InChI=1S/C19H20N2O2/c1-2-11-9-21-7-6-19-14-4-3-5-15(23)17(14)20-18(19)13(10-22)12(11)8-16(19)21/h2-5,10,12,16,20,23H,6-9H2,1H3/b11-2-/t12-,16-,19?/m0/s1
Instrument: ABSciex API3200 LC/MS system
Instrument type: LC-ESI-QQQ
Ms type: MS
Ion mode: POSITIVE
Precursor type: [M+H]+
m/z	relative intensity
183.6000	21
183.8000	24
183.9000	26
184.0000	27
184.1000	27
184.2000	30
184.4000	24
184.5000	25
184.6000	22
184.7000	21
184.8000	22
185.0000	29
199.5000	29
201.4000	22
201.5000	40
201.6000	44
201.7000	40
201.8000	43
201.9000	51
202.0000	54
202.1000	52
202.2000	54
202.3000	30
210.4000	26
211.9000	24
212.1000	24
212.2000	22
214.5000	37
214.6000	58
214.7000	71
214.8000	53
214.9000	44
215.0000	58
215.1000	44
215.2000	52
215.3000	39
215.4000	36
222.8000	22
223.0000	21
223.2000	21
223.5000	27
223.6000	49
223.7000	41
223.8000	26
223.9000	34
224.0000	73
224.1000	58
224.4000	26
226.0000	22
226.1000	22
226.2000	21
234.7000	27
234.8000	28
234.9000	22
235.1000	22
235.2000	21
235.3000	25
235.4000	49
235.5000	63
235.6000	84
235.7000	99
235.8000	78
235.9000	76
236.0000	73
236.1000	79
236.2000	61
236.3000	73
236.4000	70
236.5000	42
236.6000	43
236.7000	33
236.8000	29
236.9000	34
237.0000	40
237.1000	32
237.2000	29
237.3000	35
237.4000	51
237.5000	48
237.6000	53
237.7000	65
237.8000	53
237.9000	78
238.0000	55
238.1000	67
238.2000	44
238.3000	50
238.4000	31
240.4000	26
248.6000	28
249.4000	21
249.9000	27
250.2000	21
250.4000	23
250.5000	21
251.2000	36
251.6000	26
251.7000	22
251.8000	29
251.9000	26
252.1000	36
252.2000	21
252.3000	27
252.4000	44
253.4000	21
253.5000	32
253.6000	34
253.7000	33
253.8000	31
253.9000	31
254.0000	23
254.1000	26
254.2000	28
254.3000	26
254.4000	26
261.6000	23
262.3000	23
263.4000	31
263.5000	38
263.6000	52
263.7000	45
263.8000	65
263.9000	54
264.0000	56
264.1000	90
264.2000	56
264.3000	42
264.4000	51
264.5000	30
264.6000	23
264.7000	24
264.8000	24
265.1000	87
265.6000	55
265.7000	45
265.8000	43
265.9000	51
266.0000	46
266.1000	55
266.2000	36
266.3000	34
266.4000	56
266.5000	28
279.6000	33
279.7000	31
279.8000	35
279.9000	40
280.0000	30
280.1000	24
280.2000	30
280.3000	36
280.4000	24
280.5000	25
280.6000	32
280.7000	35
280.8000	48
280.9000	45
281.0000	40
281.1000	41
281.2000	33
281.3000	33
281.4000	34
290.8000	24
291.1000	28
306.5000	38
306.6000	37
306.7000	54
306.8000	64
306.9000	65
307.0000	61
307.1000	56
307.2000	49
307.3000	48
307.4000	37
307.6000	21
307.7000	30
307.8000	24
308.2000	39
308.3000	128
308.4000	441
308.5000	805
308.6000	914
308.7000	968
308.8000	973
308.9000	978
309.0000	970
309.1000	999
309.2000	943
309.3000	898
309.4000	877
309.5000	625
309.6000	512
309.7000	481
309.8000	462
309.9000	470
310.0000	427
310.1000	475
310.2000	439
310.3000	418
310.4000	397
310.5000	188
310.6000	125
310.7000	97
310.8000	87
310.9000	72
311.0000	85
311.1000	92
311.2000	90
311.3000	87
311.4000	82
311.5000	36
