Mass spectrum: Cryptopine; LC-ESI-QQQ; MS; [M+H]+
Name: Cryptopine
Class: Alkaloids
Formula: C21H23NO5
Exact mass: 369.4212
SMILES: COc1cc2c(cc1OC)C(=O)Cc1ccc3c(c1CN(C)CC2)OCO3
InChI: InChI=1S/C21H23NO5/c1-22-7-6-14-9-19(24-2)20(25-3)10-15(14)17(23)8-13-4-5-18-21(16(13)11-22)27-12-26-18/h4-5,9-10H,6-8,11-12H2,1-3H3
Instrument: ABSciex API3200 LC/MS system
Instrument type: LC-ESI-QQQ
Ms type: MS
Ion mode: POSITIVE
Precursor type: [M+H]+
m/z	relative intensity
135.0000	75
149.0000	24
164.4000	32
164.5000	49
164.6000	74
164.7000	100
164.8000	127
164.9000	81
165.0000	93
165.1000	107
165.2000	102
165.3000	55
165.4000	78
165.5000	33
189.6000	46
189.7000	31
189.8000	32
189.9000	36
190.0000	42
190.1000	30
203.5000	33
203.6000	54
203.7000	64
203.8000	91
203.9000	115
204.0000	134
204.1000	134
204.2000	113
204.3000	143
204.4000	137
204.5000	97
204.6000	89
204.7000	79
204.8000	97
204.9000	102
205.0000	108
205.1000	103
205.2000	72
205.3000	71
205.4000	74
205.5000	29
205.8000	27
205.9000	21
206.0000	23
206.5000	25
221.6000	27
221.8000	22
222.0000	22
222.4000	24
290.5000	61
320.6000	22
320.9000	23
321.1000	26
338.6000	62
351.7000	28
351.8000	30
351.9000	35
352.0000	22
352.1000	32
352.2000	21
369.3000	111
369.4000	381
369.5000	733
369.6000	917
369.7000	964
369.8000	986
369.9000	973
370.0000	999
370.1000	958
370.2000	914
370.3000	801
370.4000	845
370.5000	485
370.6000	369
370.7000	374
370.8000	392
370.9000	334
371.0000	385
371.1000	411
371.2000	305
371.3000	311
371.4000	231
371.5000	99
371.6000	71
371.7000	89
371.8000	63
371.9000	72
372.0000	66
372.1000	64
372.2000	72
372.3000	46
372.4000	47
