Mass spectrum: Isoguanosine; LC-ESI-QQQ; MS; [M+H]+
Name: Isoguanosine
Class: Carbohydrates
Formula: C10H13N5O5
Exact mass: 283.2456
SMILES: Nc1nc(O)nc2c1ncn2C1OC(CO)C(O)C1O
InChI: InChI=1S/C10H13N5O5/c11-7-4-8(14-10(19)13-7)15(2-12-4)9-6(18)5(17)3(1-16)20-9/h2-3,5-6,9,16-18H,1H2,(H3,11,13,14,19)
Instrument: ABSciex API3200 LC/MS system
Instrument type: LC-ESI-QQQ
Ms type: MS
Ion mode: POSITIVE
Precursor type: [M+H]+
m/z	relative intensity
134.4000	21
134.5000	29
134.6000	22
134.7000	37
134.8000	43
134.9000	32
135.0000	47
135.1000	31
135.2000	37
135.3000	27
135.4000	21
151.4000	227
151.5000	603
151.6000	625
151.7000	649
151.8000	583
151.9000	657
152.0000	674
152.1000	599
152.2000	532
152.3000	485
152.4000	394
152.5000	166
152.6000	59
152.7000	44
152.8000	52
152.9000	40
153.0000	77
153.1000	44
153.2000	46
153.3000	44
153.4000	37
283.3000	298
283.4000	467
283.5000	442
283.6000	583
283.7000	635
283.8000	729
283.9000	602
284.0000	672
284.1000	630
284.2000	633
284.3000	999
284.4000	296
284.5000	156
284.6000	119
284.7000	96
284.8000	81
284.9000	98
285.0000	87
285.1000	127
285.2000	84
285.3000	70
285.4000	50
285.5000	22
285.8000	21
294.7000	52
310.9000	54
361.5000	31
361.6000	25
361.7000	35
361.8000	40
361.9000	30
362.0000	53
362.1000	48
362.2000	28
362.3000	38
566.5000	27
566.6000	41
566.7000	46
566.8000	44
566.9000	58
567.0000	27
567.1000	35
567.2000	25
567.3000	26
