Mass spectrum: Lincomycin; LC-ESI-QQQ; MS; [M+H]+
Name: Lincomycin
Class: Carbohydrates
Formula: C18H34N2O6S
Exact mass: 406.54548000000005
SMILES: CCC[C@H]1C[C@H](C(O)=NC(C(C)O)[C@H]2O[C@H](SC)[C@H](O)[C@@H](O)[C@H]2O)N(C)C1
InChI: InChI=1S/C18H34N2O6S/c1-5-6-10-7-11(20(3)8-10)17(25)19-12(9(2)21)16-14(23)13(22)15(24)18(26-16)27-4/h9-16,18,21-24H,5-8H2,1-4H3,(H,19,25)/t9?,10-,11+,12?,13-,14+,15+,16+,18+/m0/s1
Instrument: ABSciex API3200 LC/MS system
Instrument type: LC-ESI-QQQ
Ms type: MS
Ion mode: POSITIVE
Precursor type: [M+H]+
m/z	relative intensity
100.5000	30
100.6000	39
100.7000	40
100.8000	31
100.9000	37
101.0000	50
101.1000	60
101.2000	74
101.3000	76
101.4000	65
125.5000	178
125.6000	351
125.7000	419
125.8000	468
125.9000	404
126.0000	431
126.1000	445
126.2000	428
126.3000	439
126.4000	325
126.5000	281
126.6000	101
126.7000	56
126.8000	52
126.9000	47
127.0000	55
127.1000	51
127.2000	50
127.3000	46
127.4000	34
127.5000	29
358.5000	43
358.6000	71
358.7000	84
358.8000	98
358.9000	90
359.0000	95
359.1000	102
359.2000	96
359.3000	91
359.4000	88
359.5000	106
359.6000	25
388.7000	28
388.8000	38
388.9000	28
389.0000	24
389.1000	26
389.2000	27
389.3000	22
389.4000	21
406.3000	48
406.4000	287
406.5000	693
406.6000	900
406.7000	993
406.8000	971
406.9000	983
407.0000	999
407.1000	962
407.2000	928
407.3000	816
407.4000	759
407.5000	557
407.6000	354
407.7000	322
407.8000	318
407.9000	305
408.0000	325
408.1000	329
408.2000	324
408.3000	302
408.4000	266
408.5000	158
408.6000	135
408.7000	148
408.8000	141
408.9000	139
409.0000	136
409.1000	151
409.2000	133
409.3000	138
409.4000	103
409.5000	49
409.6000	33
409.7000	27
409.8000	27
409.9000	22
410.0000	30
410.1000	28
410.2000	27
