Mass spectrum: Aucubin; LC-ESI-QQQ; MS; [M+H]+
Name: Aucubin
Class: Terpenoids
Formula: C15H22O9
Exact mass: 346.3372
SMILES: OCC1=C[C@@H](O)[C@@H]2C=COC(OC3OC(CO)C(O)C(O)C3O)[C@H]12
InChI: InChI=1S/C15H22O9/c16-4-6-3-8(18)7-1-2-22-14(10(6)7)24-15-13(21)12(20)11(19)9(5-17)23-15/h1-3,7-21H,4-5H2/t7-,8+,9?,10+,11?,12?,13?,14?,15?/m0/s1
Instrument: ABSciex API3200 LC/MS system
Instrument type: LC-ESI-QQQ
Ms type: MS
Ion mode: POSITIVE
Precursor type: [M+H]+
m/z	relative intensity
100.3000	39
100.4000	239
100.5000	227
100.6000	346
100.7000	368
100.8000	669
100.9000	999
101.0000	186
101.1000	131
101.2000	84
101.3000	182
101.4000	162
101.5000	48
101.7000	23
101.8000	24
101.9000	25
102.0000	32
102.1000	42
102.3000	38
102.4000	24
102.9000	32
103.0000	23
103.1000	29
103.3000	34
108.8000	44
114.4000	38
118.5000	122
118.6000	292
118.7000	389
118.8000	418
118.9000	283
119.0000	241
119.1000	141
119.2000	117
119.3000	44
119.5000	46
119.6000	68
119.7000	100
119.9000	68
120.0000	66
120.1000	46
120.2000	35
120.4000	63
120.5000	106
120.6000	142
120.7000	133
120.8000	134
120.9000	128
121.0000	127
121.1000	103
121.2000	119
121.3000	104
121.4000	88
121.5000	32
122.8000	24
123.1000	24
130.4000	58
130.5000	114
130.6000	174
130.7000	195
130.8000	186
130.9000	190
131.0000	246
131.1000	237
131.2000	232
131.3000	189
131.4000	144
131.5000	48
131.6000	22
133.3000	26
133.4000	24
141.5000	22
146.6000	44
146.7000	27
147.0000	24
148.4000	133
148.5000	270
148.6000	403
148.7000	409
148.8000	416
148.9000	434
149.0000	422
149.1000	396
149.2000	370
149.3000	304
149.4000	248
149.5000	144
149.6000	60
149.7000	29
149.8000	49
149.9000	39
150.1000	23
150.2000	25
150.3000	30
150.4000	30
166.4000	52
166.5000	122
166.6000	133
166.7000	134
166.8000	180
166.9000	191
167.0000	174
167.1000	172
167.2000	129
167.3000	156
167.4000	182
167.5000	86
190.7000	24
199.1000	24
207.0000	31
220.8000	58
220.9000	301
221.0000	55
221.1000	47
221.2000	55
221.3000	61
221.4000	402
221.5000	129
222.2000	39
223.0000	55
223.1000	84
225.3000	67
225.4000	106
225.8000	25
226.9000	29
238.5000	39
238.6000	45
239.7000	24
239.8000	30
267.0000	23
274.7000	28
292.6000	46
292.7000	37
292.8000	71
292.9000	71
293.0000	39
293.1000	46
293.2000	28
293.3000	36
293.4000	29
294.8000	21
295.2000	21
295.3000	26
295.4000	28
295.8000	27
296.8000	26
297.0000	38
297.2000	40
297.3000	31
297.4000	39
310.4000	123
310.5000	189
310.6000	135
310.7000	212
310.8000	169
310.9000	300
311.0000	224
311.1000	132
311.2000	197
311.3000	158
311.4000	237
311.5000	97
311.6000	129
311.7000	189
311.8000	26
311.9000	37
312.0000	32
312.4000	33
314.7000	27
315.0000	24
328.4000	59
328.5000	230
328.6000	280
328.7000	161
328.8000	137
328.9000	225
329.0000	295
329.1000	154
329.2000	108
329.3000	88
329.4000	83
329.5000	40
329.6000	28
329.7000	26
329.8000	30
330.0000	29
330.1000	21
346.4000	152
346.5000	142
346.6000	83
346.7000	124
346.8000	156
346.9000	142
347.0000	87
347.1000	106
347.2000	101
347.3000	74
347.4000	170
347.5000	29
347.7000	25
347.8000	47
363.4000	81
363.5000	167
363.6000	196
363.7000	227
363.8000	254
363.9000	294
364.0000	287
364.1000	287
364.2000	295
364.3000	217
364.4000	216
364.5000	92
364.6000	50
364.7000	55
364.8000	48
364.9000	56
365.0000	60
365.1000	78
365.2000	57
365.3000	65
365.4000	28
370.6000	25
388.3000	28
406.9000	21
407.0000	26
424.5000	26
424.6000	25
424.7000	25
424.8000	32
425.0000	27
425.1000	25
425.2000	33
441.6000	28
458.6000	39
458.7000	50
458.8000	36
458.9000	59
459.0000	60
459.1000	62
459.2000	37
459.3000	33
460.0000	28
476.5000	34
476.6000	41
476.7000	62
476.8000	42
476.9000	65
477.0000	66
477.1000	88
477.2000	78
477.3000	44
477.4000	38
478.0000	23
478.3000	24
621.1000	32
656.7000	24
656.8000	21
656.9000	30
674.5000	26
674.6000	88
674.7000	61
674.8000	45
675.0000	46
675.1000	42
675.2000	28
675.3000	25
676.3000	21
692.4000	49
692.5000	139
692.6000	208
692.7000	175
692.8000	303
692.9000	258
693.0000	264
693.1000	295
693.2000	251
693.3000	281
693.4000	238
693.5000	68
693.6000	72
693.7000	88
693.8000	143
693.9000	175
694.0000	75
694.1000	96
694.2000	61
694.3000	51
694.4000	33
694.7000	28
694.8000	21
694.9000	21
695.0000	23
695.1000	21
709.5000	47
709.6000	152
709.7000	213
709.8000	123
709.9000	141
710.0000	101
710.1000	104
710.2000	90
710.3000	128
710.4000	48
710.5000	41
710.6000	38
710.7000	54
710.8000	55
710.9000	49
711.0000	40
711.1000	43
711.2000	51
711.3000	23
711.7000	21
712.0000	28
745.6000	25
745.9000	23
746.1000	21
1056.1000	33
