Mass spectrum: Anthranoyllycoctonine; LC-ESI-QQQ; MS; [M+H]+
Name: Anthranoyllycoctonine
Class: Alkaloids
Formula: C32H46N2O8
Exact mass: 586.73202
SMILES: CCN1C[C@]2(COC(=O)c3ccccc3N)CC[C@H](OC)C34C5C[C@@H]6[C@@H](OC)C[C@@](O)(C5[C@H]6OC)C(O)([C@@H](OC)C32)[C@@H]14
InChI: InChI=1S/C32H46N2O8/c1-6-34-15-29(16-42-27(35)17-9-7-8-10-20(17)33)12-11-22(39-3)31-19-13-18-21(38-2)14-30(36,23(19)24(18)40-4)32(37,28(31)34)26(41-5)25(29)31/h7-10,18-19,21-26,28,36-37H,6,11-16,33H2,1-5H3/t18-,19?,21+,22+,23?,24+,25?,26+,28+,29+,30-,31?,32?/m1/s1
Instrument: ABSciex API3200 LC/MS system
Instrument type: LC-ESI-QQQ
Ms type: MS
Ion mode: POSITIVE
Precursor type: [M+H]+
m/z	relative intensity
101.1000	26
101.2000	22
101.3000	21
101.4000	21
584.7000	21
584.8000	25
584.9000	26
585.0000	27
585.1000	24
585.2000	26
585.4000	21
586.3000	38
586.4000	219
586.5000	471
586.6000	755
586.7000	907
586.8000	947
586.9000	974
587.0000	987
587.1000	999
587.2000	983
587.3000	951
587.4000	910
587.5000	576
587.6000	439
587.7000	512
587.8000	602
587.9000	584
588.0000	610
588.1000	602
588.2000	602
588.3000	563
588.4000	503
588.5000	255
588.6000	160
588.7000	205
588.8000	210
588.9000	233
589.0000	256
589.1000	299
589.2000	240
589.3000	206
589.4000	178
589.5000	92
589.6000	37
589.7000	42
589.8000	49
589.9000	50
590.0000	49
590.1000	44
590.2000	51
590.3000	44
590.4000	41
