Mass spectrum: Strychnine; LC-ESI-QQQ; MS; [M+H]+
Name: Strychnin
Name: strychnidin-10-one
Name: Certox
Name: Strychnine
Class: Alkaloids
Formula: C21H22N2O2
Exact mass: 334.4217
SMILES: O=C1CC2OCC=C3CN4CC[C@]56c7ccccc7N1C5[C@H]2[C@H]3C[C@H]46
InChI: InChI=1S/C21H22N2O2/c24-18-10-16-19-13-9-17-21(6-7-22(17)11-12(13)5-8-25-16)14-3-1-2-4-15(14)23(18)20(19)21/h1-5,13,16-17,19-20H,6-11H2/t13-,16?,17-,19-,20?,21+/m0/s1
Instrument: ABSciex API3200 LC/MS system
Instrument type: LC-ESI-QQQ
Ms type: MS
Ion mode: POSITIVE
Precursor type: [M+H]+
m/z	relative intensity
100.6000	39
100.7000	34
100.8000	38
100.9000	60
101.0000	44
101.1000	29
101.2000	38
101.3000	39
101.4000	33
118.8000	45
118.9000	52
119.0000	70
119.1000	51
119.2000	36
119.3000	24
119.4000	24
148.7000	21
148.8000	40
334.3000	379
334.4000	616
334.5000	666
334.6000	726
334.7000	732
334.8000	722
334.9000	745
335.0000	713
335.1000	752
335.2000	760
335.3000	999
335.4000	618
335.5000	321
335.6000	267
335.7000	240
335.8000	227
335.9000	260
336.0000	222
336.1000	242
336.2000	246
336.3000	218
336.4000	183
336.5000	79
336.6000	71
336.7000	53
336.8000	38
336.9000	35
337.0000	56
337.1000	51
337.2000	34
337.3000	26
337.4000	26
337.8000	50
