Mass spectrum: angelicin; LC-ESI-QQQ; MS; [M+H]+
Name: angelicin
Class: Benzopyranoids
Formula: C11H6O3
Exact mass: 186.1687
SMILES: O=c1ccc2ccc3occc3c2o1
InChI: InChI=1S/C11H6O3/c12-10-4-2-7-1-3-9-8(5-6-13-9)11(7)14-10/h1-6H
Instrument: ABSciex API3200 LC/MS system
Instrument type: LC-ESI-QQQ
Ms type: MS
Ion mode: POSITIVE
Precursor type: [M+H]+
m/z	relative intensity
100.5000	52
130.3000	31
130.6000	47
130.7000	94
130.8000	137
130.9000	60
131.0000	117
131.1000	78
131.2000	86
131.3000	112
131.4000	62
143.1000	45
158.5000	24
158.6000	29
158.7000	29
158.8000	27
158.9000	39
159.0000	53
159.1000	28
159.2000	21
186.3000	42
186.4000	278
186.5000	371
186.6000	393
186.7000	428
186.8000	436
186.9000	506
187.0000	999
187.1000	288
187.2000	166
187.3000	153
187.4000	118
187.5000	74
187.6000	51
187.7000	61
187.8000	58
187.9000	60
188.0000	69
188.1000	66
188.2000	52
188.3000	48
188.4000	39
227.5000	23
227.6000	23
227.7000	66
227.8000	36
227.9000	23
228.0000	26
