Mass spectrum: Hupehemonoside; LC-ESI-QQQ; MS; [M+H]+
Name: Hupehemonoside
Class: Alkaloids
Formula: C33H53NO8
Exact mass: 591.79226
SMILES: CC1CC[C@@H]2N(C1)CC1C(CC[C@H]3[C@@H]4CC(=O)[C@H]5CC(O[C@@H]6O[C@H](CO)[C@@H](O)[C@H](O)[C@H]6O)CC[C@]5(C)[C@H]4C[C@@H]13)[C@]2(C)O
InChI: InChI=1S/C33H53NO8/c1-16-4-7-27-33(3,40)22-6-5-18-19(21(22)14-34(27)13-16)11-23-20(18)12-25(36)24-10-17(8-9-32(23,24)2)41-31-30(39)29(38)28(37)26(15-35)42-31/h16-24,26-31,35,37-40H,4-15H2,1-3H3/t16?,17?,18-,19-,20+,21?,22?,23+,24-,26-,27+,28-,29+,30-,31-,32-,33+/m1/s1
Instrument: ABSciex API3200 LC/MS system
Instrument type: LC-ESI-QQQ
Ms type: MS
Ion mode: POSITIVE
Precursor type: [M+H]+
m/z	relative intensity
100.5000	42
100.6000	58
100.7000	85
100.8000	49
100.9000	81
101.0000	27
141.9000	23
142.0000	26
573.9000	21
574.0000	24
574.1000	28
574.2000	21
574.3000	24
591.4000	97
591.5000	204
591.6000	470
591.7000	823
591.8000	948
591.9000	951
592.0000	978
592.1000	999
592.2000	961
592.3000	962
592.4000	837
592.5000	667
592.6000	367
592.7000	429
592.8000	499
592.9000	580
593.0000	583
593.1000	702
593.2000	786
593.3000	647
593.4000	480
593.5000	322
593.6000	143
593.7000	139
593.8000	160
593.9000	153
594.0000	194
594.1000	201
594.2000	195
594.3000	189
594.4000	181
594.5000	117
594.6000	39
594.7000	32
594.8000	41
594.9000	41
595.0000	42
595.1000	50
595.2000	41
595.3000	39
595.4000	36
595.5000	21
633.2000	23
633.3000	22
