Mass spectrum: Nudicauline; LC-ESI-QQQ; MS; [M+H]+
Name: Nudicauline
Class: Alkaloids
Formula: C38H50N2O11
Exact mass: 710.829
SMILES: CCN1C[C@]2(COC(=O)c3ccccc3N3C(=O)CC(C)C3=O)CCC(OC)C34C5C[C@@H]6[C@@H](OC)C[C@@](O)(C5[C@H]6OC(C)=O)[C@](O)(C13)[C@@H](OC)C42
InChI: InChI=1S/C38H50N2O11/c1-7-39-17-35(18-50-33(44)21-10-8-9-11-24(21)40-27(42)14-19(2)32(40)43)13-12-26(48-5)37-23-15-22-25(47-4)16-36(45,28(23)29(22)51-20(3)41)38(46,34(37)39)31(49-6)30(35)37/h8-11,19,22-23,25-26,28-31,34,45-46H,7,12-18H2,1-6H3/t19?,22-,23?,25+,26?,28?,29+,30?,31+,34?,35+,36-,37?,38-/m1/s1
Instrument: ABSciex API3200 LC/MS system
Instrument type: LC-ESI-QQQ
Ms type: MS
Ion mode: POSITIVE
Precursor type: [M+H]+
m/z	relative intensity
154.5000	24
678.9000	26
694.3000	34
694.6000	39
694.7000	45
694.8000	29
694.9000	35
695.0000	41
695.1000	41
695.2000	30
695.3000	41
710.3000	95
710.4000	460
710.5000	623
710.6000	680
710.7000	820
710.8000	874
710.9000	912
711.0000	999
711.1000	960
711.2000	958
711.3000	875
711.4000	580
711.5000	441
711.6000	437
711.7000	457
711.8000	462
711.9000	511
712.0000	532
712.1000	498
712.2000	494
712.3000	465
712.4000	331
712.5000	159
712.6000	146
712.7000	127
712.8000	170
712.9000	169
713.0000	175
713.1000	178
713.2000	183
713.3000	137
713.4000	78
713.5000	48
713.6000	28
713.7000	28
713.8000	38
713.9000	32
714.0000	34
714.1000	25
714.2000	28
714.3000	25
715.0000	27
