Mass spectrum: Phellamurin; LC-ESI-QQQ; MS; [M+H]+
Name: Phellamurin
Class: Flavonoids
Formula: C26H30O11
Exact mass: 518.5224
SMILES: CC(C)=CCc1c(O[C@@H]2O[C@H](CO)[C@@H](O)[C@H](O)[C@H]2O)cc(O)c2c1OC(c1ccc(O)cc1)C(O)C2=O
InChI: InChI=1S/C26H30O11/c1-11(2)3-8-14-16(35-26-23(34)21(32)19(30)17(10-27)36-26)9-15(29)18-20(31)22(33)24(37-25(14)18)12-4-6-13(28)7-5-12/h3-7,9,17,19,21-24,26-30,32-34H,8,10H2,1-2H3/t17-,19-,21+,22?,23-,24?,26-/m1/s1
Instrument: ABSciex API3200 LC/MS system
Instrument type: LC-ESI-QQQ
Ms type: MS
Ion mode: POSITIVE
Precursor type: [M+H]+
m/z	relative intensity
100.0000	30
100.4000	261
100.5000	467
100.6000	830
100.7000	949
100.8000	999
100.9000	752
101.0000	681
101.1000	620
101.2000	397
101.3000	234
101.4000	219
101.5000	34
101.7000	40
101.8000	32
101.9000	54
102.0000	34
102.2000	21
102.3000	27
119.0000	52
119.2000	60
135.3000	94
141.6000	46
141.7000	55
148.8000	22
197.8000	25
199.4000	25
220.6000	32
238.4000	28
311.1000	34
339.4000	23
355.6000	21
355.7000	23
355.8000	35
355.9000	22
356.0000	35
356.1000	26
356.3000	45
356.4000	121
356.5000	207
356.6000	228
356.7000	265
356.8000	250
356.9000	277
357.0000	279
357.1000	285
357.2000	262
357.3000	221
357.4000	187
357.5000	46
357.6000	46
357.7000	21
357.8000	50
357.9000	42
358.0000	88
358.1000	50
358.2000	51
358.3000	50
358.7000	23
518.3000	41
518.4000	137
518.5000	232
518.6000	258
518.7000	243
518.8000	301
518.9000	326
519.0000	254
519.1000	309
519.2000	330
519.3000	242
519.4000	111
519.5000	82
519.6000	71
519.7000	87
519.8000	95
519.9000	71
520.0000	133
520.1000	86
520.2000	65
520.3000	44
520.4000	35
520.5000	23
520.6000	26
520.7000	22
520.8000	35
520.9000	31
521.1000	35
521.2000	27
1036.2000	57
1036.3000	89
1036.4000	114
1036.5000	110
1036.6000	98
1036.7000	160
1036.8000	135
1036.9000	193
1037.0000	139
1037.1000	139
1037.2000	98
1037.3000	93
1037.4000	73
1037.5000	60
1037.6000	127
1037.7000	114
1037.8000	89
1037.9000	77
1038.0000	94
1038.1000	68
1038.2000	65
1038.3000	52
1038.4000	40
1038.7000	23
1038.9000	44
1039.0000	65
1039.1000	23
1039.3000	32
1039.5000	23
