Mass spectrum: Glycoperine; LC-ESI-QQQ; MS; [M+H]+
Name: Glycoperine
Class: Alkaloids
Formula: C19H21NO8
Exact mass: 391.3811
SMILES: COc1c2ccoc2nc2c(OC)c(O[C@@H]3O[C@H](C)[C@@H](O)[C@@H](O)[C@H]3O)ccc12
InChI: InChI=1S/C19H21NO8/c1-8-13(21)14(22)15(23)19(27-8)28-11-5-4-9-12(17(11)25-3)20-18-10(6-7-26-18)16(9)24-2/h4-8,13-15,19,21-23H,1-3H3/t8-,13-,14-,15-,19+/m1/s1
Instrument: ABSciex API3200 LC/MS system
Instrument type: LC-ESI-QQQ
Ms type: MS
Ion mode: POSITIVE
Precursor type: [M+H]+
m/z	relative intensity
100.4000	154
100.5000	300
100.6000	421
100.7000	410
100.8000	354
100.9000	386
101.0000	308
101.1000	247
101.2000	219
101.3000	136
101.4000	98
101.5000	22
215.4000	32
230.3000	40
230.4000	186
230.5000	260
230.6000	342
230.7000	400
230.8000	404
230.9000	397
231.0000	371
231.1000	377
231.2000	342
231.3000	391
231.4000	236
231.5000	99
231.6000	80
231.7000	74
231.8000	73
231.9000	80
232.0000	75
232.1000	71
232.2000	63
232.3000	61
232.4000	44
232.5000	23
245.1000	23
245.2000	99
245.3000	24
245.4000	330
245.5000	800
245.6000	888
245.7000	927
245.8000	964
245.9000	982
246.0000	956
246.1000	999
246.2000	969
246.3000	951
246.4000	809
246.5000	458
246.6000	410
246.7000	315
246.8000	346
246.9000	316
247.0000	341
247.1000	357
247.2000	326
247.3000	287
247.4000	219
247.5000	98
247.6000	135
247.7000	51
247.8000	50
247.9000	57
248.0000	38
248.1000	48
248.2000	53
248.3000	31
391.3000	121
391.4000	285
391.5000	563
391.6000	597
391.7000	635
391.8000	657
391.9000	625
392.0000	683
392.1000	720
392.2000	733
392.3000	552
392.4000	328
392.5000	217
392.6000	232
392.7000	239
392.8000	270
392.9000	245
393.0000	264
393.1000	273
393.2000	238
393.3000	200
393.4000	115
393.5000	49
393.6000	63
393.7000	66
393.8000	43
393.9000	53
394.0000	58
394.1000	54
394.2000	52
394.3000	47
394.4000	26
