Mass spectrum: Fraxin; LC-ESI-QQQ; MS; [M+H]+
Name: Fraxin
Class: Benzopyranoids
Formula: C16H18O10
Exact mass: 370.3159
SMILES: COc1cc2ccc(=O)oc2c(O[C@@H]2O[C@H](CO)[C@@H](O)[C@H](O)[C@H]2O)c1O
InChI: InChI=1S/C16H18O10/c1-23-7-4-6-2-3-9(18)25-14(6)15(11(7)20)26-16-13(22)12(21)10(19)8(5-17)24-16/h2-4,8,10,12-13,16-17,19-22H,5H2,1H3/t8-,10-,12+,13-,16+/m1/s1
Instrument: ABSciex API3200 LC/MS system
Instrument type: LC-ESI-QQQ
Ms type: MS
Ion mode: POSITIVE
Precursor type: [M+H]+
m/z	relative intensity
100.5000	83
100.6000	105
100.7000	160
100.8000	149
100.9000	158
101.0000	143
101.1000	64
101.2000	32
118.6000	71
118.7000	186
118.8000	255
118.9000	245
119.0000	239
119.1000	209
119.2000	156
119.3000	74
119.4000	62
119.5000	24
141.5000	28
141.6000	50
141.7000	24
163.0000	65
163.1000	21
208.3000	37
208.4000	419
208.5000	712
208.6000	931
208.7000	999
208.8000	998
208.9000	949
209.0000	907
209.1000	945
209.2000	960
209.3000	821
209.4000	647
209.5000	232
209.6000	168
209.7000	124
209.8000	125
209.9000	151
210.0000	157
210.1000	161
210.2000	121
210.3000	100
210.4000	87
210.5000	35
210.6000	27
210.7000	26
210.9000	21
211.0000	21
211.1000	22
370.3000	25
370.4000	116
370.5000	137
370.6000	165
370.7000	169
370.8000	169
370.9000	213
371.0000	278
371.1000	143
371.2000	118
371.3000	113
371.4000	47
371.5000	27
371.6000	37
371.7000	24
371.8000	35
371.9000	21
372.0000	34
372.1000	33
372.2000	28
387.4000	28
387.5000	65
387.6000	80
387.7000	77
387.8000	112
387.9000	78
388.0000	92
388.1000	88
388.2000	64
388.3000	73
388.4000	38
388.5000	25
388.9000	28
389.0000	66
389.1000	24
533.1000	21
740.4000	41
740.5000	68
740.6000	77
740.7000	69
740.8000	73
740.9000	71
741.0000	74
741.1000	63
741.2000	42
741.3000	25
741.4000	27
741.5000	30
741.6000	33
741.7000	26
741.8000	38
741.9000	45
742.0000	34
742.1000	24
757.4000	24
757.5000	27
757.6000	30
757.7000	32
757.8000	24
757.9000	42
758.0000	43
758.1000	26
758.2000	25
758.4000	36
