Mass spectrum: Aconine; LC-ESI-QQQ; MS; [M+H]+
Name: Aconine
Class: Alkaloids
Formula: C25H41NO9
Exact mass: 499.6068
SMILES: CCN1C[C@@]2(COC)C3[C@@H](OC)[C@H]4[C@@H]1[C@@]3(C1C[C@]3(O)[C@@H](OC)[C@H](O)[C@@]4(O)C1[C@H]3O)[C@@H](OC)C[C@H]2O
InChI: InChI=1S/C25H41NO9/c1-6-26-9-22(10-32-2)12(27)7-13(33-3)24-11-8-23(30)19(28)14(11)25(31,20(29)21(23)35-5)15(18(24)26)16(34-4)17(22)24/h11-21,27-31H,6-10H2,1-5H3/t11?,12-,13+,14?,15+,16+,17?,18-,19-,20+,21+,22+,23-,24+,25-/m1/s1
Instrument: ABSciex API3200 LC/MS system
Instrument type: LC-ESI-QQQ
Ms type: MS
Ion mode: POSITIVE
Precursor type: [M+H]+
m/z	relative intensity
449.6000	21
449.7000	25
449.8000	25
449.9000	30
450.0000	31
450.1000	28
450.2000	25
450.3000	26
450.4000	24
483.7000	24
483.8000	29
483.9000	29
484.0000	38
484.1000	35
484.2000	34
484.3000	30
484.4000	27
499.3000	51
499.4000	240
499.5000	515
499.6000	787
499.7000	930
499.8000	973
499.9000	965
500.0000	999
500.1000	990
500.2000	983
500.3000	919
500.4000	876
500.5000	654
500.6000	482
500.7000	533
500.8000	532
500.9000	550
501.0000	596
501.1000	545
501.2000	552
501.3000	521
501.4000	478
501.5000	320
501.6000	192
501.7000	170
501.8000	185
501.9000	183
502.0000	176
502.1000	167
502.2000	173
502.3000	162
502.4000	135
502.5000	68
502.6000	34
502.7000	36
502.8000	35
502.9000	28
503.0000	35
503.1000	31
503.2000	32
503.3000	31
503.4000	25
