Mass spectrum: norbraylin; LC-ESI-QQQ; MS; [M+H]+
Name: norbraylin
Class: Benzopyranoids
Formula: C14H12O4
Exact mass: 244.2493
SMILES: CC1(C)Oc2ccc3ccc(=O)oc3c2CC1=O
InChI: InChI=1S/C14H12O4/c1-14(2)11(15)7-9-10(18-14)5-3-8-4-6-12(16)17-13(8)9/h3-6H,7H2,1-2H3
Instrument: ABSciex API3200 LC/MS system
Instrument type: LC-ESI-QQQ
Ms type: MS
Ion mode: POSITIVE
Precursor type: [M+H]+
m/z	relative intensity
128.1000	24
146.5000	27
149.2000	52
174.4000	86
174.5000	127
174.6000	119
174.7000	145
174.8000	151
174.9000	145
175.0000	123
175.1000	116
175.2000	148
175.3000	137
175.4000	81
175.5000	31
175.8000	27
175.9000	23
176.1000	23
176.2000	25
176.3000	50
176.4000	50
216.4000	23
216.5000	26
216.6000	30
216.7000	43
216.8000	43
216.9000	44
217.0000	46
217.1000	49
217.2000	44
226.4000	24
226.5000	26
226.6000	36
226.7000	45
226.8000	35
226.9000	42
227.0000	39
227.1000	33
227.2000	32
227.3000	27
244.3000	73
244.4000	491
244.5000	706
244.6000	837
244.7000	783
244.8000	810
244.9000	818
245.0000	826
245.1000	936
245.2000	999
245.3000	636
245.4000	600
245.5000	348
245.6000	227
245.7000	222
245.8000	224
245.9000	185
246.0000	203
246.1000	217
246.2000	348
246.3000	188
246.4000	130
246.5000	45
246.6000	45
246.7000	31
246.8000	29
246.9000	30
247.0000	22
247.1000	32
247.3000	21
247.4000	22
262.4000	24
262.6000	25
262.7000	33
262.8000	37
262.9000	29
263.0000	33
263.1000	41
263.2000	26
263.3000	24
276.6000	21
285.5000	24
285.6000	39
285.7000	60
285.8000	58
285.9000	43
286.0000	47
286.1000	53
286.2000	39
286.3000	35
286.4000	30
488.6000	28
488.7000	28
488.9000	22
489.0000	30
489.1000	28
489.2000	26
489.3000	22
