Mass spectrum: Linichlorin A; LC-ESI-QQQ; MS; [M+H]+
Name: Linichlorin A
Class: Terpenoids
Formula: C19H23ClO6
Exact mass: 382.84456
SMILES: C=C(C)C(=O)O[C@H]1CC(=C)C2C[C@@H](O)[C@@](O)(CCl)C2[C@H]2OC(=O)C(=C)C12
InChI: InChI=1S/C19H23ClO6/c1-8(2)17(22)25-12-5-9(3)11-6-13(21)19(24,7-20)15(11)16-14(12)10(4)18(23)26-16/h11-16,21,24H,1,3-7H2,2H3/t11?,12-,13+,14?,15?,16-,19-/m0/s1
Instrument: ABSciex API3200 LC/MS system
Instrument type: LC-ESI-QQQ
Ms type: MS
Ion mode: POSITIVE
Precursor type: [M+H]+
m/z	relative intensity
100.9000	62
101.0000	96
101.1000	132
101.2000	166
101.3000	151
101.4000	129
101.5000	58
118.7000	22
118.8000	22
118.9000	29
119.0000	32
119.1000	35
119.2000	28
146.7000	30
149.1000	41
168.9000	34
169.1000	37
169.2000	40
169.3000	21
182.4000	60
182.5000	113
182.6000	146
182.7000	97
182.8000	119
182.9000	116
183.0000	110
183.1000	107
183.2000	89
183.3000	104
183.4000	80
184.5000	34
184.6000	38
184.7000	45
184.8000	49
184.9000	44
185.0000	38
185.1000	46
185.2000	45
185.3000	31
185.4000	27
186.9000	24
196.5000	52
196.6000	30
196.8000	38
196.9000	24
197.0000	25
197.1000	28
201.1000	27
214.5000	30
214.6000	38
214.7000	38
214.8000	42
214.9000	49
215.0000	68
215.1000	59
215.2000	41
215.3000	37
215.4000	24
223.1000	23
223.2000	21
224.5000	24
224.6000	80
224.7000	62
224.8000	34
224.9000	46
225.0000	41
225.1000	26
225.2000	37
225.3000	31
225.4000	31
232.4000	27
232.5000	50
232.6000	52
232.7000	62
232.8000	56
232.9000	51
233.0000	52
233.1000	46
233.2000	51
233.3000	40
233.4000	33
234.8000	27
234.9000	21
235.0000	26
235.1000	29
235.2000	22
242.4000	67
242.5000	56
242.6000	71
242.7000	77
242.8000	132
242.9000	104
243.0000	76
243.1000	82
243.2000	81
243.3000	61
243.4000	51
243.6000	22
250.4000	21
250.5000	32
250.6000	27
250.7000	31
250.8000	45
250.9000	46
251.0000	47
251.1000	39
251.2000	31
251.3000	39
251.4000	23
252.7000	23
260.4000	47
260.5000	65
260.6000	77
260.7000	90
260.8000	69
260.9000	74
261.0000	84
261.1000	88
261.2000	59
261.3000	52
261.4000	42
261.9000	24
263.0000	36
263.1000	34
263.2000	26
263.3000	23
268.3000	28
268.4000	83
268.5000	122
268.6000	163
268.7000	173
268.8000	158
268.9000	163
269.0000	152
269.1000	161
269.2000	148
269.3000	145
269.4000	96
269.5000	49
269.6000	36
269.7000	27
269.8000	23
269.9000	22
270.0000	25
270.1000	27
270.4000	33
270.5000	32
270.6000	39
270.7000	47
270.8000	33
270.9000	41
271.0000	44
271.1000	38
271.2000	32
271.3000	37
278.3000	26
278.4000	102
278.5000	175
278.6000	204
278.7000	220
278.8000	239
278.9000	237
279.0000	242
279.1000	212
279.2000	217
279.3000	223
279.4000	131
279.5000	58
279.6000	51
279.7000	35
279.8000	56
279.9000	47
280.0000	47
280.1000	45
280.2000	47
280.3000	49
280.4000	59
280.5000	80
280.6000	94
280.7000	107
280.8000	85
280.9000	104
281.0000	109
281.1000	105
281.2000	82
281.3000	75
281.4000	53
281.5000	28
281.6000	22
296.3000	21
296.4000	75
296.5000	125
296.6000	156
296.7000	159
296.8000	158
296.9000	170
297.0000	151
297.1000	151
297.2000	137
297.3000	127
297.4000	83
297.5000	34
297.6000	24
297.7000	23
297.8000	23
297.9000	38
298.0000	29
298.1000	22
298.2000	23
298.3000	28
298.4000	43
298.5000	66
298.6000	59
298.7000	47
298.8000	54
298.9000	57
299.0000	42
299.1000	45
299.2000	51
299.3000	46
337.5000	23
339.9000	24
364.6000	24
364.7000	30
364.8000	27
364.9000	27
365.0000	32
365.1000	29
365.2000	59
365.3000	28
382.3000	63
382.4000	239
382.5000	387
382.6000	441
382.7000	476
382.8000	497
382.9000	516
383.0000	449
383.1000	450
383.2000	434
383.3000	530
383.4000	318
383.5000	131
383.6000	109
383.7000	96
383.8000	103
383.9000	102
384.0000	101
384.1000	92
384.2000	92
384.3000	182
384.4000	160
384.5000	128
384.6000	126
384.7000	145
384.8000	152
384.9000	248
385.0000	134
385.1000	141
385.2000	143
385.3000	124
385.4000	76
385.5000	46
385.6000	42
385.7000	34
385.8000	25
385.9000	28
386.0000	30
386.1000	27
386.2000	24
386.3000	26
399.3000	34
399.4000	153
399.5000	236
399.6000	316
399.7000	347
399.8000	333
399.9000	340
400.0000	312
400.1000	300
400.2000	287
400.3000	264
400.4000	189
400.5000	167
400.6000	168
400.7000	71
400.8000	71
400.9000	61
401.0000	69
401.1000	81
401.2000	53
401.3000	63
401.4000	51
401.5000	71
401.6000	104
401.7000	105
401.8000	104
401.9000	107
402.0000	107
402.1000	73
402.2000	86
402.3000	81
402.4000	46
402.5000	31
402.6000	65
402.7000	34
402.8000	23
402.9000	26
403.0000	42
423.4000	55
423.5000	58
423.6000	78
423.7000	92
423.8000	83
423.9000	91
424.0000	89
424.1000	105
424.2000	78
424.3000	72
424.4000	33
424.5000	29
424.6000	30
424.7000	27
424.8000	24
424.9000	22
425.0000	22
425.2000	22
425.3000	21
425.5000	34
425.6000	28
425.7000	44
425.8000	25
425.9000	28
426.0000	24
426.1000	27
426.2000	28
764.2000	38
764.3000	126
764.4000	592
764.5000	999
764.6000	630
764.7000	528
764.8000	465
764.9000	469
765.0000	452
765.1000	408
765.2000	364
765.3000	249
765.4000	180
765.5000	188
765.6000	213
765.7000	401
765.8000	347
765.9000	257
766.0000	234
766.1000	239
766.2000	449
766.3000	191
766.4000	263
766.5000	313
766.6000	318
766.7000	349
766.8000	342
766.9000	398
767.0000	353
767.1000	331
767.2000	283
767.3000	181
767.4000	140
767.5000	118
767.6000	168
767.7000	144
767.8000	166
767.9000	157
768.0000	160
768.1000	153
768.2000	135
768.3000	93
768.4000	64
768.5000	71
768.6000	100
768.7000	121
768.8000	96
768.9000	101
769.0000	81
769.1000	103
769.2000	194
769.3000	76
769.4000	29
769.5000	25
769.6000	23
769.7000	33
769.8000	29
769.9000	28
770.0000	22
770.2000	25
781.4000	23
781.5000	31
781.6000	54
781.7000	60
781.8000	48
781.9000	49
782.0000	45
782.1000	45
782.2000	42
782.3000	36
782.5000	24
782.7000	21
782.8000	26
783.0000	31
783.4000	25
783.5000	32
783.6000	35
783.7000	43
783.8000	44
783.9000	62
784.0000	139
784.1000	44
784.2000	25
784.3000	27
785.0000	24
