Mass spectrum: Na-Desacetylisoretuline; LC-ESI-QQQ; MS; [M+H]+
Name: Na-Desacetylisoretuline
Class: Alkaloids
Formula: C19H24N2O
Exact mass: 296.41593
SMILES: C/C=C1/CN2CCC34c5ccccc5NC3[C@H](CO)[C@H]1CC24
InChI: InChI=1S/C19H24N2O/c1-2-12-10-21-8-7-19-15-5-3-4-6-16(15)20-18(19)14(11-22)13(12)9-17(19)21/h2-6,13-14,17-18,20,22H,7-11H2,1H3/b12-2-/t13-,14+,17?,18?,19?/m0/s1
Instrument: ABSciex API3200 LC/MS system
Instrument type: LC-ESI-QQQ
Ms type: MS
Ion mode: POSITIVE
Precursor type: [M+H]+
m/z	relative intensity
100.5000	30
100.6000	42
100.8000	22
106.2000	28
107.5000	31
107.6000	71
107.7000	79
107.8000	83
107.9000	101
108.0000	97
108.1000	95
108.2000	80
108.3000	77
108.4000	52
108.5000	30
143.5000	33
143.6000	46
143.7000	41
143.8000	56
143.9000	58
144.0000	36
144.1000	41
144.2000	39
144.3000	40
144.4000	35
148.5000	48
148.6000	42
148.7000	70
148.8000	84
148.9000	86
149.0000	65
149.1000	67
149.2000	60
149.3000	54
149.4000	51
149.5000	40
149.6000	25
156.1000	21
296.3000	26
296.4000	182
296.5000	671
296.6000	824
296.7000	910
296.8000	902
296.9000	916
297.0000	864
297.1000	945
297.2000	999
297.3000	808
297.4000	762
297.5000	624
297.6000	414
297.7000	395
297.8000	366
297.9000	406
298.0000	410
298.1000	410
298.2000	414
298.3000	374
298.4000	377
298.5000	300
298.6000	125
298.7000	98
298.8000	71
298.9000	169
299.0000	249
299.1000	49
299.2000	37
299.3000	30
299.4000	29
299.5000	28
310.6000	36
310.7000	36
310.8000	41
310.9000	49
311.0000	52
311.1000	37
311.2000	36
311.3000	33
311.4000	32
