Mass spectrum: cotarnine; LC-ESI-QQQ; MS; [M+H]+
Name: cotarnine
Class: Alkaloids
Formula: [C12H14NO3]+
Exact mass: 220.2503
SMILES: C[O+]=C1C2=CN(C)CCC2=CC2=C1OCO2
InChI: InChI=1S/C12H14NO3/c1-13-4-3-8-5-10-12(16-7-15-10)11(14-2)9(8)6-13/h5-6H,3-4,7H2,1-2H3/q+1
Instrument: ABSciex API3200 LC/MS system
Instrument type: LC-ESI-QQQ
Ms type: MS
Ion mode: POSITIVE
Precursor type: [M]+
m/z	relative intensity
117.7000	23
117.8000	23
117.9000	22
118.1000	23
118.6000	22
118.7000	23
118.8000	30
118.9000	31
119.0000	34
119.1000	37
119.2000	30
119.3000	21
119.4000	31
119.5000	36
119.6000	29
119.7000	31
119.8000	28
119.9000	27
120.0000	24
120.1000	28
120.2000	21
120.4000	23
120.5000	25
120.6000	29
120.7000	29
120.8000	31
120.9000	32
121.0000	29
121.1000	28
121.2000	25
121.3000	22
129.5000	24
129.6000	28
129.7000	32
129.8000	44
129.9000	32
130.0000	31
130.1000	33
130.2000	31
130.3000	21
130.4000	26
130.7000	24
130.8000	29
130.9000	25
131.0000	34
131.1000	31
131.8000	21
146.1000	22
146.4000	41
146.5000	57
146.6000	71
146.7000	72
146.8000	75
146.9000	74
147.0000	74
147.1000	66
147.2000	61
147.3000	62
147.4000	81
147.5000	79
147.6000	70
147.7000	77
147.8000	74
147.9000	78
148.0000	73
148.1000	77
148.2000	68
148.3000	59
148.4000	48
148.5000	23
148.7000	21
148.8000	21
148.9000	25
159.7000	24
159.8000	27
159.9000	21
160.1000	25
160.2000	26
162.0000	21
173.6000	21
173.8000	23
173.9000	28
174.0000	32
174.1000	23
174.3000	21
174.4000	29
174.5000	38
174.6000	44
174.7000	52
174.8000	34
174.9000	35
175.0000	34
175.1000	31
175.2000	28
175.3000	31
175.4000	45
175.5000	45
175.6000	68
175.7000	60
175.8000	65
175.9000	63
176.0000	63
176.1000	63
176.2000	55
176.3000	49
176.4000	63
176.5000	68
176.6000	74
176.7000	83
176.8000	83
176.9000	86
177.0000	79
177.1000	71
177.2000	65
177.3000	70
177.4000	50
178.6000	22
187.4000	41
187.5000	51
187.6000	66
187.7000	95
187.8000	73
187.9000	69
188.0000	64
188.1000	59
188.2000	58
188.3000	56
188.4000	44
203.4000	31
203.5000	46
203.6000	46
203.7000	69
203.8000	58
203.9000	81
204.0000	55
204.1000	54
204.2000	57
204.3000	210
204.4000	536
204.5000	667
204.6000	732
204.7000	755
204.8000	760
204.9000	782
205.0000	823
205.1000	795
205.2000	741
205.3000	767
205.4000	536
205.5000	222
205.6000	139
205.7000	141
205.8000	144
205.9000	174
206.0000	182
206.1000	140
206.2000	142
206.3000	109
206.4000	105
206.5000	36
206.6000	24
206.7000	26
206.8000	29
207.2000	22
219.3000	79
219.4000	443
219.5000	763
219.6000	902
219.7000	989
219.8000	934
219.9000	980
220.0000	972
220.1000	995
220.2000	999
220.3000	894
220.4000	789
220.5000	355
220.6000	224
220.7000	193
220.8000	206
220.9000	246
221.0000	268
221.1000	231
221.2000	230
221.3000	207
221.4000	223
221.5000	77
221.6000	40
221.7000	37
221.8000	35
221.9000	40
222.0000	41
222.1000	35
222.2000	35
222.3000	31
222.4000	30
