Mass spectrum: Vinervine; LC-ESI-QQQ; MS; [M+H]+
Name: Vinervine
Class: Alkaloids
Formula: C20H22N2O3
Exact mass: 338.40994
SMILES: C/C=C1\CN2CCC34C(=C(C(=O)OC)[C@H]1C[C@@H]23)Nc1c(O)cccc14
InChI: InChI=1S/C20H22N2O3/c1-3-11-10-22-8-7-20-13-5-4-6-14(23)17(13)21-18(20)16(19(24)25-2)12(11)9-15(20)22/h3-6,12,15,21,23H,7-10H2,1-2H3/b11-3+/t12-,15+,20?/m0/s1
Instrument: ABSciex API3200 LC/MS system
Instrument type: LC-ESI-QQQ
Ms type: MS
Ion mode: POSITIVE
Precursor type: [M+H]+
m/z	relative intensity
195.8000	24
245.0000	22
264.1000	65
264.2000	42
306.4000	117
306.5000	292
306.6000	494
306.7000	574
306.8000	573
306.9000	596
307.0000	538
307.1000	524
307.2000	478
307.3000	486
307.4000	431
307.5000	233
307.6000	164
307.7000	177
307.8000	169
307.9000	185
308.0000	166
308.1000	187
308.2000	180
308.3000	145
308.4000	151
308.5000	46
308.6000	35
308.7000	37
308.8000	25
308.9000	25
309.0000	27
309.2000	30
309.3000	21
309.4000	27
336.5000	25
336.6000	36
336.7000	42
336.8000	58
336.9000	58
337.0000	39
337.1000	53
337.2000	59
337.3000	33
337.4000	44
337.5000	32
337.6000	31
337.8000	42
337.9000	34
338.0000	27
338.1000	53
338.2000	67
338.3000	213
338.4000	541
338.5000	816
338.6000	952
338.7000	946
338.8000	979
338.9000	955
339.0000	999
339.1000	946
339.2000	919
339.3000	866
339.4000	825
339.5000	551
339.6000	462
339.7000	419
339.8000	399
339.9000	373
340.0000	412
340.1000	443
340.2000	407
340.3000	335
340.4000	329
340.5000	166
340.6000	114
340.7000	106
340.8000	71
340.9000	53
341.0000	78
341.1000	67
341.2000	66
341.3000	57
341.4000	49
341.5000	29
353.9000	21
