Mass spectrum: Norlaudanosoline; LC-ESI-QQQ; MS; [M+H]+
Name: Norlaudanosoline
Class: Alkaloids
Formula: C16H17NO4
Exact mass: 287.3182
SMILES: Oc1ccc(CC2NCCc3cc(O)c(O)cc32)cc1O
InChI: InChI=1S/C16H17NO4/c18-13-2-1-9(6-14(13)19)5-12-11-8-16(21)15(20)7-10(11)3-4-17-12/h1-2,6-8,12,17-21H,3-5H2
Instrument: ABSciex API3200 LC/MS system
Instrument type: LC-ESI-QQQ
Ms type: MS
Ion mode: POSITIVE
Precursor type: [M+H]+
m/z	relative intensity
122.4000	24
122.5000	57
122.6000	53
122.7000	58
122.8000	82
122.9000	75
123.0000	48
123.1000	84
123.2000	93
123.3000	54
123.4000	49
123.5000	26
141.8000	46
141.9000	21
142.6000	41
142.7000	23
149.9000	26
160.4000	44
160.5000	86
160.6000	101
160.7000	109
160.8000	92
160.9000	66
161.0000	83
161.1000	40
161.2000	63
161.3000	72
161.4000	56
161.5000	29
161.6000	26
162.0000	24
162.2000	36
163.4000	98
163.5000	187
163.6000	263
163.7000	289
163.8000	285
163.9000	294
164.0000	244
164.1000	237
164.2000	230
164.3000	160
164.4000	187
164.5000	72
164.6000	47
164.7000	23
164.8000	38
164.9000	52
165.0000	31
165.1000	29
165.2000	28
165.4000	24
220.4000	99
221.4000	25
221.6000	26
239.1000	39
239.2000	142
239.3000	304
270.4000	40
270.5000	64
270.6000	85
270.7000	74
270.8000	79
270.9000	82
271.0000	68
271.1000	73
271.2000	75
271.3000	87
271.4000	239
271.6000	25
271.8000	21
272.1000	24
285.7000	28
286.2000	22
286.3000	21
287.3000	26
287.4000	341
287.5000	605
287.6000	899
287.7000	935
287.8000	777
287.9000	758
288.0000	858
288.1000	999
288.2000	843
288.3000	880
288.4000	667
288.5000	313
288.6000	321
288.7000	223
288.8000	160
288.9000	223
289.0000	210
289.1000	249
289.2000	236
289.3000	197
289.4000	162
289.5000	67
289.6000	57
289.7000	40
289.8000	33
289.9000	31
290.2000	35
290.3000	29
290.4000	29
574.5000	35
574.8000	33
575.1000	22
575.2000	37
