Mass spectrum: Lapidin; LC-ESI-QQQ; MS; [M+H]+
Name: Lapidin
Class: Terpenoids
Formula: C20H30O4
Exact mass: 334.4597
SMILES: C/C=C(\C)C(=O)O[C@H]1CC(C)=CC(=O)[C@@]2(C)CC[C@@](O)(C(C)C)[C@H]12
InChI: InChI=1S/C20H30O4/c1-7-14(5)18(22)24-15-10-13(4)11-16(21)19(6)8-9-20(23,12(2)3)17(15)19/h7,11-12,15,17,23H,8-10H2,1-6H3/b14-7+/t15-,17+,19+,20+/m0/s1
Instrument: ABSciex API3200 LC/MS system
Instrument type: LC-ESI-QQQ
Ms type: MS
Ion mode: POSITIVE
Precursor type: [M+H]+
m/z	relative intensity
104.5000	62
104.6000	76
104.7000	91
104.8000	111
104.9000	115
105.0000	101
105.1000	99
105.2000	84
105.3000	97
105.4000	83
105.5000	57
105.7000	22
106.6000	30
106.7000	45
106.8000	51
106.9000	44
107.0000	33
107.1000	28
107.3000	25
108.5000	35
108.6000	46
108.7000	103
108.8000	92
108.9000	84
109.0000	97
109.1000	93
109.2000	91
109.3000	83
109.4000	76
109.5000	41
118.0000	25
118.5000	41
118.6000	54
118.7000	58
118.8000	46
118.9000	208
119.0000	77
119.1000	41
119.2000	40
119.3000	37
119.4000	27
119.5000	22
120.4000	44
120.5000	121
120.6000	200
120.7000	208
120.8000	202
120.9000	215
121.0000	196
121.1000	248
121.2000	181
121.3000	185
121.4000	145
121.5000	90
127.0000	28
127.1000	27
130.9000	23
131.0000	60
132.5000	23
132.6000	34
132.7000	39
132.8000	40
132.9000	36
133.0000	39
133.1000	50
133.2000	37
133.3000	30
133.4000	46
133.5000	21
134.5000	41
134.6000	47
134.7000	42
134.8000	58
134.9000	45
135.0000	44
135.1000	40
135.2000	44
135.3000	33
135.4000	31
136.8000	26
136.9000	23
137.2000	25
142.5000	70
142.6000	85
142.7000	85
142.8000	119
142.9000	107
143.0000	81
143.1000	81
143.2000	94
143.3000	60
143.4000	57
143.5000	34
144.5000	22
144.7000	35
144.8000	33
144.9000	35
145.0000	33
145.1000	32
145.2000	29
145.3000	24
145.4000	22
145.5000	21
145.6000	26
146.1000	23
146.4000	28
146.5000	43
146.6000	50
146.7000	61
146.8000	76
146.9000	78
147.0000	67
147.1000	56
147.2000	53
147.3000	269
147.4000	30
154.6000	51
154.7000	25
154.8000	26
155.0000	22
156.4000	34
156.5000	71
156.6000	97
156.7000	127
156.8000	109
156.9000	121
157.0000	149
157.1000	128
157.2000	106
157.3000	92
157.4000	91
157.5000	55
157.6000	32
158.5000	29
158.6000	47
158.7000	47
158.8000	29
158.9000	28
159.0000	32
159.3000	26
159.4000	39
159.5000	37
160.4000	115
160.5000	193
160.6000	281
160.7000	285
160.8000	310
160.9000	331
161.0000	300
161.1000	318
161.2000	238
161.3000	220
161.4000	253
161.5000	136
161.6000	129
161.7000	47
161.8000	42
161.9000	33
162.0000	35
162.1000	42
162.2000	46
162.3000	24
162.4000	30
163.0000	30
172.8000	24
174.4000	26
174.5000	75
174.6000	94
174.7000	91
174.8000	93
174.9000	75
175.0000	87
175.1000	66
175.2000	59
175.3000	67
175.4000	53
175.5000	26
188.6000	63
188.7000	65
188.8000	71
188.9000	75
189.0000	65
189.1000	56
189.2000	54
189.3000	57
189.4000	55
189.5000	35
189.6000	22
198.4000	24
198.5000	61
198.6000	146
198.7000	189
198.8000	257
198.9000	193
199.0000	187
199.1000	228
199.2000	189
199.3000	183
199.4000	157
199.5000	151
199.6000	50
199.7000	46
199.8000	36
199.9000	37
200.0000	40
200.1000	35
200.2000	37
200.3000	37
200.4000	34
200.5000	21
216.4000	71
216.5000	224
216.6000	361
216.7000	622
216.8000	484
216.9000	458
217.0000	480
217.1000	449
217.2000	403
217.3000	331
217.4000	415
217.5000	374
217.6000	137
217.7000	91
217.8000	100
217.9000	98
218.0000	90
218.1000	87
218.2000	96
218.3000	94
218.4000	91
218.5000	54
218.6000	24
234.4000	86
234.5000	355
234.6000	792
234.7000	879
234.8000	746
234.9000	989
235.0000	879
235.1000	822
235.2000	970
235.3000	999
235.4000	982
235.5000	584
235.6000	296
235.7000	189
235.8000	176
235.9000	192
236.0000	212
236.1000	202
236.2000	195
236.3000	173
236.4000	133
236.5000	317
236.6000	42
236.7000	35
236.8000	21
236.9000	31
237.1000	31
237.2000	23
237.3000	21
316.5000	40
316.6000	53
316.7000	65
316.8000	80
316.9000	82
317.0000	76
317.1000	67
317.2000	61
317.3000	76
317.4000	45
317.5000	57
334.6000	31
334.8000	33
334.9000	30
335.0000	28
335.1000	30
335.2000	38
335.3000	26
335.4000	32
550.8000	23
551.0000	24
668.7000	21
668.8000	29
668.9000	36
669.0000	45
669.1000	24
669.2000	30
669.3000	36
669.4000	22
