Mass spectrum: Majdine; LC-ESI-QQQ; MS; [M+H]+
Name: Majdine
Class: Alkaloids
Formula: C23H28N2O6
Exact mass: 428.48941
SMILES: COC(=O)C1=CO[C@@H](C)C2CN3CC[C@]4(C(O)=Nc5c4ccc(OC)c5OC)C3CC12
InChI: InChI=1S/C23H28N2O6/c1-12-14-10-25-8-7-23(18(25)9-13(14)15(11-31-12)21(26)30-4)16-5-6-17(28-2)20(29-3)19(16)24-22(23)27/h5-6,11-14,18H,7-10H2,1-4H3,(H,24,27)/t12-,13?,14?,18?,23+/m0/s1
Instrument: ABSciex API3200 LC/MS system
Instrument type: LC-ESI-QQQ
Ms type: MS
Ion mode: POSITIVE
Precursor type: [M+H]+
m/z	relative intensity
100.4000	33
100.5000	51
100.6000	60
100.7000	72
100.8000	85
100.9000	106
101.0000	132
101.1000	137
101.2000	146
101.3000	134
101.4000	129
101.5000	41
101.7000	28
217.5000	21
217.6000	31
217.7000	25
217.8000	22
217.9000	24
218.0000	32
218.1000	33
218.2000	24
218.3000	29
219.4000	25
219.5000	41
219.6000	47
219.7000	75
219.8000	78
219.9000	67
220.0000	84
220.1000	63
220.2000	67
220.3000	68
220.4000	69
220.5000	22
260.4000	48
260.5000	69
260.6000	53
260.7000	56
260.8000	56
260.9000	60
261.0000	54
261.1000	62
261.2000	44
261.3000	36
261.4000	128
261.5000	96
272.6000	24
272.7000	32
272.8000	35
272.9000	30
273.0000	31
273.1000	32
273.2000	34
273.3000	24
273.4000	21
324.5000	23
324.6000	30
324.7000	26
324.8000	31
324.9000	26
325.0000	21
325.1000	27
325.2000	26
327.0000	21
327.2000	23
352.6000	34
352.7000	27
352.9000	21
353.0000	26
353.1000	23
368.6000	23
368.7000	24
396.3000	53
396.4000	125
396.5000	307
396.6000	361
396.7000	376
396.8000	375
396.9000	374
397.0000	382
397.1000	372
397.2000	358
397.3000	304
397.4000	301
397.5000	156
397.6000	137
397.7000	121
397.8000	118
397.9000	101
398.0000	110
398.1000	153
398.2000	123
398.3000	107
398.4000	77
398.5000	38
398.6000	21
398.9000	25
399.0000	21
399.2000	23
426.5000	27
426.6000	33
426.7000	30
426.8000	25
426.9000	36
427.0000	36
427.1000	37
427.2000	35
427.3000	24
428.2000	120
428.3000	459
428.4000	779
428.5000	888
428.6000	947
428.7000	985
428.8000	988
428.9000	990
429.0000	999
429.1000	954
429.2000	950
429.3000	905
429.4000	771
429.5000	571
429.6000	531
429.7000	547
429.8000	483
429.9000	543
430.0000	571
430.1000	549
430.2000	539
430.3000	517
430.4000	443
430.5000	262
430.6000	216
430.7000	207
430.8000	204
430.9000	186
431.0000	169
431.1000	181
431.2000	182
431.3000	164
431.4000	110
431.5000	55
431.6000	36
431.7000	38
431.8000	27
431.9000	34
432.0000	31
432.1000	31
432.2000	30
432.3000	27
