Mass spectrum: Floridanine; LC-ESI-QQQ; MS; [M+H]+
Name: Floridanine
Class: Alkaloids
Formula: C21H31NO9
Exact mass: 441.4825
SMILES: CC(=O)O[C@@]1(C)C(=O)OC/C2=C/CN(C)CCC(OC(=O)[C@@](O)([C@H](C)O)C[C@H]1C)C2=O
InChI: InChI=1S/C21H31NO9/c1-12-10-21(28,13(2)23)19(27)30-16-7-9-22(5)8-6-15(17(16)25)11-29-18(26)20(12,4)31-14(3)24/h6,12-13,16,23,28H,7-11H2,1-5H3/b15-6-/t12-,13+,16?,20-,21+/m1/s1
Instrument: ABSciex API3200 LC/MS system
Instrument type: LC-ESI-QQQ
Ms type: MS
Ion mode: POSITIVE
Precursor type: [M+H]+
m/z	relative intensity
100.6000	25
167.5000	41
167.6000	44
167.7000	39
167.8000	54
167.9000	49
168.0000	45
168.1000	35
168.2000	28
168.3000	39
168.4000	25
381.4000	34
381.5000	27
381.6000	40
381.7000	57
381.8000	53
381.9000	61
382.0000	67
382.1000	61
382.2000	64
382.3000	57
382.4000	50
382.5000	22
382.6000	33
397.7000	25
397.8000	24
397.9000	22
398.0000	24
441.2000	32
441.3000	149
441.4000	567
441.5000	782
441.6000	917
441.7000	956
441.8000	968
441.9000	972
442.0000	952
442.1000	964
442.2000	999
442.3000	932
442.4000	842
442.5000	606
442.6000	570
442.7000	585
442.8000	521
442.9000	506
443.0000	519
443.1000	549
443.2000	537
443.3000	496
443.4000	436
443.5000	264
443.6000	227
443.7000	231
443.8000	222
443.9000	237
444.0000	291
444.1000	182
444.2000	183
444.3000	171
444.4000	161
444.5000	56
444.6000	38
444.7000	34
444.8000	26
444.9000	30
445.0000	24
445.1000	26
445.2000	26
445.3000	22
882.4000	41
882.5000	55
882.6000	75
882.7000	75
882.8000	82
882.9000	82
883.0000	95
883.1000	99
883.2000	75
883.3000	60
883.4000	41
883.5000	25
883.6000	34
883.7000	26
883.8000	33
883.9000	34
884.0000	34
884.1000	29
884.2000	30
884.3000	26
