Mass spectrum: Physodic acid; LC-ESI-QQQ; MS; [M+H]+
Name: Physodic acid
Class: Carbohydrates
Formula: C26H30O8
Exact mass: 470.5242
SMILES: CCCCCC(=O)Cc1cc(O)cc2c1C(=O)Oc1cc(O)c(C(=O)O)c(CCCCC)c1O2
InChI: InChI=1S/C26H30O8/c1-3-5-7-9-16(27)11-15-12-17(28)13-20-22(15)26(32)34-21-14-19(29)23(25(30)31)18(24(21)33-20)10-8-6-4-2/h12-14,28-29H,3-11H2,1-2H3,(H,30,31)
Instrument: ABSciex API3200 LC/MS system
Instrument type: LC-ESI-QQQ
Ms type: MS
Ion mode: POSITIVE
Precursor type: [M+H]+
m/z	relative intensity
100.8000	41
100.9000	53
101.0000	68
101.1000	68
101.2000	63
101.3000	34
101.4000	21
148.7000	21
356.7000	21
356.8000	30
356.9000	32
357.0000	28
357.1000	22
357.2000	24
357.3000	28
382.5000	21
382.6000	30
382.7000	32
382.8000	30
382.9000	24
383.0000	29
383.1000	32
383.2000	38
383.3000	22
384.5000	22
384.6000	23
384.7000	33
384.8000	37
384.9000	48
385.0000	90
385.1000	35
385.2000	38
385.3000	36
385.4000	43
410.4000	38
410.5000	124
410.6000	191
410.7000	215
410.8000	184
410.9000	280
411.0000	211
411.1000	219
411.2000	197
411.3000	164
411.4000	135
411.5000	70
411.6000	62
411.7000	63
411.8000	54
411.9000	57
412.0000	50
412.1000	63
412.2000	66
412.3000	46
412.4000	38
426.5000	33
426.6000	43
426.7000	50
426.8000	59
426.9000	51
427.0000	52
427.1000	50
427.2000	49
427.3000	54
427.4000	34
427.5000	24
427.6000	21
452.5000	50
452.6000	91
452.7000	96
452.8000	106
452.9000	93
453.0000	105
453.1000	105
453.2000	101
453.3000	96
453.4000	73
453.5000	62
453.6000	34
453.7000	29
453.8000	24
453.9000	28
454.0000	30
454.1000	40
454.2000	48
454.3000	24
454.4000	21
470.3000	91
470.4000	260
470.5000	500
470.6000	712
470.7000	841
470.8000	899
470.9000	867
471.0000	791
471.1000	999
471.2000	841
471.3000	713
471.4000	484
471.5000	309
471.6000	309
471.7000	311
471.8000	308
471.9000	301
472.0000	291
472.1000	281
472.2000	252
472.3000	244
472.4000	172
472.5000	101
472.6000	87
472.7000	73
472.8000	65
472.9000	67
473.0000	66
473.1000	67
473.2000	59
473.3000	43
473.4000	25
940.3000	23
940.4000	46
940.5000	55
940.6000	62
940.7000	66
940.8000	86
940.9000	90
941.0000	85
941.1000	59
941.2000	54
941.3000	55
941.4000	46
941.5000	40
941.6000	41
941.7000	41
941.8000	47
941.9000	40
942.0000	45
942.1000	45
942.2000	39
942.3000	41
942.4000	22
