Mass spectrum: Narcotine; LC-ESI-QQQ; MS; [M+H]+
Name: Narcotine
Class: Alkaloids
Formula: C22H23NO7
Exact mass: 413.4311
SMILES: COc1ccc2c(c1OC)C(=O)O[C@H]2[C@H]1c2c(cc3c(c2OC)OCO3)CCN1C
InChI: InChI=1S/C22H23NO7/c1-23-8-7-11-9-14-20(29-10-28-14)21(27-4)15(11)17(23)18-12-5-6-13(25-2)19(26-3)16(12)22(24)30-18/h5-6,9,17-18H,7-8,10H2,1-4H3/t17-,18-/m1/s1
Instrument: ABSciex API3200 LC/MS system
Instrument type: LC-ESI-QQQ
Ms type: MS
Ion mode: POSITIVE
Precursor type: [M+H]+
m/z	relative intensity
178.6000	39
178.7000	36
178.8000	31
178.9000	26
179.0000	28
179.1000	31
179.2000	22
179.3000	31
204.6000	35
204.7000	26
204.8000	42
204.9000	31
205.0000	32
205.1000	36
205.2000	34
205.3000	26
205.4000	26
205.5000	21
205.9000	22
206.0000	28
206.4000	23
219.4000	198
219.5000	483
219.6000	655
219.7000	716
219.8000	787
219.9000	794
220.0000	636
220.1000	649
220.2000	627
220.3000	544
220.4000	531
220.5000	252
220.6000	172
220.7000	141
220.8000	110
220.9000	105
221.0000	124
221.1000	123
221.2000	130
221.3000	117
221.4000	113
221.5000	37
247.6000	23
306.5000	40
322.5000	40
322.7000	22
350.3000	21
352.3000	27
352.4000	77
352.5000	119
352.6000	162
352.7000	155
352.8000	165
352.9000	165
353.0000	155
353.1000	174
353.2000	137
353.3000	140
353.4000	92
353.5000	49
353.6000	54
353.7000	41
353.8000	44
353.9000	40
354.0000	36
354.1000	36
354.2000	39
354.3000	31
364.5000	29
364.6000	46
364.7000	35
364.8000	40
364.9000	35
365.0000	41
365.1000	49
365.2000	32
365.3000	26
365.4000	22
396.0000	24
396.2000	22
413.2000	27
413.3000	202
413.4000	588
413.5000	895
413.6000	980
413.7000	947
413.8000	869
413.9000	936
414.0000	889
414.1000	937
414.2000	970
414.3000	999
414.4000	881
414.5000	428
414.6000	464
414.7000	446
414.8000	419
414.9000	510
415.0000	421
415.1000	437
415.2000	419
415.3000	390
415.4000	271
415.5000	141
415.6000	137
415.7000	118
415.8000	118
415.9000	147
416.0000	146
416.1000	117
416.2000	122
416.3000	120
416.4000	56
416.5000	34
416.6000	34
416.7000	21
416.8000	23
