Mass spectrum: Heliotrine; LC-ESI-QQQ; MS; [M+H]+
Name: Heliotrine
Class: Alkaloids
Formula: C16H27NO5
Exact mass: 313.3973
SMILES: COC(C)C(O)(C(=O)OCC1=CCN2CCC(O)[C@@H]12)C(C)C
InChI: InChI=1S/C16H27NO5/c1-10(2)16(20,11(3)21-4)15(19)22-9-12-5-7-17-8-6-13(18)14(12)17/h5,10-11,13-14,18,20H,6-9H2,1-4H3/t11?,13?,14-,16?/m1/s1
Instrument: ABSciex API3200 LC/MS system
Instrument type: LC-ESI-QQQ
Ms type: MS
Ion mode: POSITIVE
Precursor type: [M+H]+
m/z	relative intensity
119.4000	61
119.7000	30
119.8000	48
119.9000	41
120.0000	50
120.1000	57
120.2000	42
120.3000	52
120.4000	38
120.5000	26
137.4000	102
137.5000	318
137.6000	431
137.7000	496
137.8000	476
137.9000	487
138.0000	467
138.1000	435
138.2000	449
138.3000	426
138.4000	427
138.5000	722
138.6000	119
138.9000	24
139.1000	29
139.2000	36
139.3000	35
139.4000	30
139.5000	35
155.5000	39
155.6000	86
155.7000	79
155.8000	81
155.9000	91
156.0000	106
156.1000	75
156.2000	88
156.3000	79
156.4000	78
156.5000	28
313.4000	388
313.5000	916
313.6000	977
313.7000	990
313.8000	954
313.9000	938
314.0000	964
314.1000	999
314.2000	983
314.3000	931
314.4000	799
314.5000	634
314.6000	550
314.7000	500
314.8000	154
314.9000	315
315.0000	328
315.1000	351
315.2000	364
315.3000	329
315.4000	312
315.5000	251
315.6000	107
315.7000	86
315.8000	74
315.9000	70
316.0000	80
316.1000	65
316.2000	76
316.3000	63
316.4000	53
316.5000	30
354.8000	28
354.9000	31
626.9000	24
627.0000	25
627.1000	29
627.2000	36
627.3000	28
627.4000	27
