Mass spectrum: sophoramine; LC-ESI-QQQ; MS; [M+H]+
Name: sophoramine
Class: Alkaloids
Formula: C15H20N2O
Exact mass: 244.3395
SMILES: O=c1cccc2n1C[C@@H]1CCCN3CCC[C@H]2[C@H]13
InChI: InChI=1S/C15H20N2O/c18-14-7-1-6-13-12-5-3-9-16-8-2-4-11(15(12)16)10-17(13)14/h1,6-7,11-12,15H,2-5,8-10H2/t11-,12+,15-/m0/s1
Instrument: ABSciex API3200 LC/MS system
Instrument type: LC-ESI-QQQ
Ms type: MS
Ion mode: POSITIVE
Precursor type: [M+H]+
m/z	relative intensity
158.8000	29
158.9000	28
159.0000	27
159.1000	57
159.2000	79
159.3000	73
159.4000	61
244.3000	32
244.4000	283
244.5000	574
244.6000	786
244.7000	842
244.8000	886
244.9000	792
245.0000	832
245.1000	918
245.2000	864
245.3000	843
245.4000	778
245.5000	999
245.6000	317
245.7000	229
245.8000	208
245.9000	212
246.0000	165
246.1000	185
246.2000	182
246.3000	207
246.4000	173
246.5000	119
246.6000	71
246.7000	30
246.9000	21
247.0000	24
247.1000	28
247.4000	25
488.6000	33
488.7000	223
488.8000	83
488.9000	22
