Mass spectrum: ellagic acid; LC-ESI-QQQ; MS; [M+H]+
Name: ellagic acid
Class: Tannins
Formula: C14H6O8
Exact mass: 302.1991
SMILES: O=c1oc2c(O)c(O)cc3c(=O)oc4c(O)c(O)cc1c4c23
InChI: InChI=1S/C14H6O8/c15-5-1-3-7-8-4(14(20)22-11(7)9(5)17)2-6(16)10(18)12(8)21-13(3)19/h1-2,15-18H
Instrument: ABSciex API3200 LC/MS system
Instrument type: LC-ESI-QQQ
Ms type: MS
Ion mode: POSITIVE
Precursor type: [M+H]+
m/z	relative intensity
100.0000	60
100.1000	116
100.3000	193
100.4000	646
100.5000	999
100.6000	716
100.7000	876
100.8000	788
100.9000	467
101.0000	571
101.1000	158
101.2000	37
101.3000	169
101.5000	30
101.7000	80
101.8000	53
101.9000	107
102.0000	50
102.1000	97
102.2000	49
102.3000	68
102.4000	84
102.5000	24
110.7000	25
110.9000	24
113.9000	22
114.0000	22
116.2000	22
119.6000	40
121.0000	45
132.1000	30
136.4000	93
136.5000	251
136.6000	315
136.7000	561
136.8000	452
136.9000	563
137.0000	350
137.1000	176
137.2000	93
137.3000	76
137.4000	24
140.9000	22
141.2000	30
141.3000	24
141.4000	304
141.5000	462
141.6000	353
141.7000	288
141.8000	181
141.9000	215
142.0000	324
142.1000	211
142.2000	136
142.3000	22
142.4000	141
142.5000	72
142.6000	30
142.7000	40
142.8000	167
142.9000	64
143.0000	92
143.1000	72
143.2000	52
148.7000	317
148.8000	110
149.0000	61
149.5000	34
150.1000	24
153.2000	35
154.4000	36
154.5000	96
154.6000	126
154.7000	153
154.8000	105
158.2000	30
162.7000	57
166.9000	44
168.2000	27
168.4000	38
168.5000	25
171.1000	29
173.4000	23
175.5000	29
185.5000	30
185.9000	24
198.0000	61
198.2000	52
198.4000	29
198.5000	82
198.7000	33
206.9000	41
207.8000	32
220.5000	28
220.6000	118
220.7000	60
220.9000	65
221.1000	99
221.2000	83
221.3000	39
221.4000	138
221.5000	24
221.6000	31
221.7000	25
221.9000	23
222.4000	31
222.7000	29
223.0000	30
223.1000	38
224.5000	214
224.6000	52
224.7000	22
247.9000	26
251.1000	23
262.5000	22
294.4000	43
294.7000	24
294.8000	28
297.3000	29
302.3000	49
302.4000	45
302.5000	41
302.6000	30
302.7000	95
302.8000	87
302.9000	100
303.0000	62
303.1000	86
303.2000	74
303.3000	54
303.4000	75
303.6000	40
303.7000	24
304.2000	86
304.3000	40
305.0000	24
310.8000	25
312.4000	22
312.9000	31
317.0000	23
320.0000	25
320.2000	39
354.4000	30
354.5000	21
354.6000	26
354.8000	28
354.9000	22
355.0000	49
355.1000	53
355.3000	21
370.9000	21
371.2000	58
391.1000	37
391.3000	52
391.4000	53
392.2000	22
604.8000	24
621.5000	21
