Mass spectrum: Novobiocin; LC-ESI-QQQ; MS; [M+H]+
Name: Novobiocin
Class: Benzopyranoids
Formula: C31H36N2O11
Exact mass: 612.23191
SMILES: CC1=C(C=CC2=C1OC(=O)C(=C2O)NC(=O)C3=CC(=C(C=C3)O)CC=C(C)C)O[C@H]4[C@@H]([C@@H]([C@H](C(O4)(C)C)OC)OC(=O)N)O
InChI: InChI=1S/C31H36N2O11/c1-14(2)7-8-16-13-17(9-11-19(16)34)27(37)33-21-22(35)18-10-12-20(15(3)24(18)42-28(21)38)41-29-23(36)25(43-30(32)39)26(40-6)31(4,5)44-29/h7,9-13,23,25-26,29,34-36H,8H2,1-6H3,(H2,32,39)(H,33,37)/t23-,25+,26-,29-/m1/s1
Instrument: ABSciex API3200 LC/MS system
Instrument type: LC-ESI-QQQ
Ms type: MS
Ion mode: POSITIVE
Precursor type: [M+H]+
m/z	relative intensity
100.5000	55
100.6000	30
100.7000	56
100.8000	83
100.9000	95
101.0000	66
101.1000	24
124.5000	31
124.6000	47
124.7000	68
124.8000	72
124.9000	62
125.0000	57
125.1000	80
125.2000	57
125.3000	41
125.4000	43
125.5000	25
141.5000	22
141.6000	67
141.7000	82
141.8000	123
141.9000	134
142.0000	206
142.1000	157
142.2000	188
142.3000	97
142.4000	75
148.4000	36
156.5000	40
156.6000	59
156.7000	56
156.8000	90
156.9000	70
157.0000	46
157.1000	49
157.2000	41
157.3000	38
157.4000	39
185.5000	33
185.6000	36
185.7000	43
185.8000	64
185.9000	49
186.0000	56
186.1000	40
186.2000	41
186.3000	48
186.4000	29
188.4000	82
188.5000	162
188.6000	260
188.7000	259
188.8000	260
188.9000	232
189.0000	248
189.1000	232
189.2000	197
189.3000	199
189.4000	190
189.5000	97
189.6000	58
189.7000	39
189.8000	38
189.9000	43
190.0000	57
190.1000	25
190.2000	40
190.3000	29
190.4000	21
199.7000	34
199.8000	50
199.9000	24
200.0000	38
206.4000	30
206.5000	32
206.6000	43
206.7000	48
206.8000	34
206.9000	48
207.0000	39
207.1000	30
207.2000	37
207.3000	28
207.4000	25
209.2000	23
217.4000	64
217.5000	155
217.6000	235
217.7000	361
217.8000	412
217.9000	420
218.0000	267
218.1000	285
218.2000	280
218.3000	234
218.4000	376
218.5000	110
218.6000	41
218.7000	24
218.8000	23
218.9000	40
219.0000	26
219.1000	32
219.4000	29
221.1000	32
222.5000	72
222.6000	52
222.7000	87
222.8000	85
222.9000	74
223.0000	114
223.1000	107
223.2000	120
223.3000	106
223.4000	98
223.5000	41
223.6000	32
224.5000	38
224.8000	32
224.9000	47
225.1000	32
247.9000	25
280.8000	40
280.9000	31
281.0000	32
281.1000	28
281.3000	30
296.9000	35
344.8000	21
344.9000	25
345.0000	23
345.2000	22
395.4000	48
395.5000	115
395.6000	137
395.7000	140
395.8000	137
395.9000	151
396.0000	156
396.1000	161
396.2000	154
396.3000	134
396.4000	72
396.5000	45
396.6000	47
396.7000	58
396.8000	60
396.9000	41
397.0000	30
397.1000	35
397.2000	36
397.3000	36
569.5000	28
569.6000	73
569.7000	77
569.8000	60
569.9000	104
570.0000	102
570.1000	93
570.2000	74
570.3000	47
570.6000	29
570.7000	37
570.8000	28
571.2000	23
571.3000	30
612.3000	44
612.4000	125
612.5000	382
612.6000	613
612.7000	739
612.8000	819
612.9000	999
613.0000	891
613.1000	832
613.2000	766
613.3000	802
613.4000	270
613.5000	237
613.6000	257
613.7000	284
613.8000	275
613.9000	354
614.0000	310
614.1000	297
614.2000	256
614.3000	246
614.4000	73
614.5000	56
614.6000	66
614.7000	73
614.8000	91
614.9000	94
615.0000	80
615.1000	91
615.2000	80
615.3000	59
615.4000	25
1224.2000	47
1224.3000	32
1224.4000	70
1224.5000	83
1224.6000	113
1224.7000	89
1224.8000	97
1224.9000	98
1225.0000	107
1225.1000	123
1225.2000	123
1225.3000	138
1225.4000	85
1225.5000	96
1225.6000	77
1225.7000	74
1225.8000	81
1225.9000	97
1226.0000	86
1226.1000	81
1226.2000	66
1226.3000	70
1226.4000	43
1226.5000	28
1226.6000	38
1226.7000	33
1226.8000	46
1226.9000	40
1227.0000	26
1227.1000	47
1227.2000	36
1227.3000	29
