Mass spectrum: 9(11)-Dehydroglycyrrhetic acid; LC-ESI-QQQ; MS; [M+H]+
Name: 9(11)-Dehydroglycyrrhetic acid
Class: Terpenoids
Formula: C30H46O3
Exact mass: 454.6993
SMILES: CC1(C)C2CC[C@]3(C)C(=CC=C4C5C[C@@](C)(C(=O)O)CC[C@]5(C)CC[C@]43C)[C@@]2(C)CC[C@@H]1O
InChI: InChI=1S/C30H46O3/c1-25(2)21-10-13-30(7)22(28(21,5)12-11-23(25)31)9-8-19-20-18-27(4,24(32)33)15-14-26(20,3)16-17-29(19,30)6/h8-9,20-21,23,31H,10-18H2,1-7H3,(H,32,33)/t20?,21?,23-,26+,27-,28-,29+,30+/m0/s1
Instrument: ABSciex API3200 LC/MS system
Instrument type: LC-ESI-QQQ
Ms type: MS
Ion mode: POSITIVE
Precursor type: [M+H]+
m/z	relative intensity
100.6000	48
100.7000	42
105.2000	35
108.6000	29
108.8000	27
110.6000	51
110.7000	33
112.7000	23
112.9000	59
113.0000	24
113.9000	33
115.8000	22
117.0000	21
117.5000	27
118.7000	28
119.0000	41
119.3000	28
119.4000	50
119.8000	28
120.5000	32
120.9000	34
121.0000	51
121.1000	25
121.4000	39
122.8000	25
123.2000	42
127.1000	23
128.6000	35
130.9000	36
133.2000	32
134.5000	25
134.6000	57
135.1000	27
135.2000	25
135.5000	42
136.8000	23
139.1000	22
142.3000	45
142.5000	23
143.0000	26
143.1000	43
145.1000	39
147.0000	24
148.5000	72
148.6000	109
148.7000	250
148.9000	23
149.0000	127
149.1000	177
149.2000	56
149.3000	44
149.7000	24
150.2000	25
152.6000	21
154.8000	38
155.4000	22
157.0000	40
159.0000	27
159.2000	58
159.4000	22
160.6000	22
160.9000	27
162.7000	22
162.8000	32
163.0000	45
163.3000	33
163.4000	34
164.5000	25
167.1000	22
175.0000	48
175.2000	30
175.3000	29
175.4000	52
176.9000	36
179.0000	24
186.6000	22
186.8000	24
186.9000	34
187.2000	45
187.3000	49
188.3000	23
188.6000	61
188.7000	73
188.8000	62
188.9000	81
189.0000	64
189.1000	90
189.2000	147
189.3000	43
189.4000	73
189.5000	34
190.2000	25
190.8000	26
191.0000	35
192.8000	21
197.5000	28
198.0000	86
198.5000	73
199.9000	21
201.0000	38
201.3000	39
202.6000	29
202.8000	25
203.0000	26
203.3000	25
206.9000	25
207.0000	28
207.4000	35
214.6000	25
214.7000	25
214.8000	29
214.9000	29
215.2000	26
215.6000	21
216.5000	25
217.1000	34
217.2000	45
228.9000	22
229.0000	42
229.2000	32
230.9000	23
231.0000	31
234.4000	22
235.2000	24
247.1000	29
247.2000	31
247.3000	24
247.4000	29
248.6000	26
248.8000	29
248.9000	55
249.0000	41
249.5000	23
250.5000	21
250.9000	23
254.8000	23
255.2000	40
255.3000	22
255.4000	30
255.6000	22
256.1000	36
256.2000	32
256.3000	24
256.4000	22
256.5000	46
256.8000	21
258.8000	32
258.9000	33
259.0000	43
259.1000	32
260.7000	25
260.8000	61
261.0000	21
261.5000	35
269.2000	22
273.0000	21
274.5000	38
274.6000	21
274.7000	48
274.8000	97
274.9000	95
275.0000	66
275.1000	100
275.2000	110
275.3000	103
275.4000	63
275.5000	78
275.6000	38
276.0000	23
276.1000	21
276.3000	24
283.2000	22
284.7000	24
289.4000	23
296.5000	22
301.0000	32
326.8000	28
327.1000	23
390.9000	37
391.1000	23
391.2000	47
391.7000	22
408.6000	27
408.7000	122
408.8000	197
408.9000	226
409.0000	185
409.1000	294
409.2000	317
409.3000	205
409.4000	258
409.5000	202
409.6000	85
409.7000	71
409.8000	56
409.9000	85
410.0000	94
410.1000	82
410.2000	64
410.3000	89
410.4000	56
410.5000	70
410.6000	81
410.7000	21
421.5000	21
432.7000	58
433.1000	67
433.2000	48
434.1000	30
434.6000	21
434.8000	38
435.0000	24
435.2000	27
435.5000	28
436.5000	54
436.6000	259
436.7000	555
436.8000	705
436.9000	941
437.0000	912
437.1000	858
437.2000	999
437.3000	784
437.4000	818
437.5000	632
437.6000	328
437.7000	245
437.8000	284
437.9000	274
438.0000	283
438.1000	319
438.2000	260
438.3000	296
438.4000	206
438.5000	248
438.6000	74
438.7000	40
438.8000	36
438.9000	87
439.0000	53
439.2000	41
439.5000	23
439.7000	28
449.3000	43
451.0000	21
451.3000	22
452.4000	21
452.6000	70
452.7000	131
452.8000	117
452.9000	124
453.0000	167
453.1000	213
453.2000	148
453.3000	75
453.4000	75
453.5000	121
453.6000	61
453.7000	36
453.8000	59
453.9000	60
454.0000	88
454.1000	90
454.2000	68
454.3000	127
454.4000	60
454.5000	92
454.6000	161
454.7000	232
454.8000	468
454.9000	628
455.0000	654
455.1000	613
455.2000	599
455.3000	523
455.4000	502
455.5000	574
455.6000	237
455.7000	166
455.8000	181
455.9000	162
456.0000	190
456.1000	248
456.2000	251
456.3000	187
456.4000	243
456.5000	178
456.6000	85
456.7000	28
456.8000	41
456.9000	64
457.0000	49
457.2000	42
457.3000	26
457.5000	36
467.2000	42
467.3000	31
467.6000	21
468.9000	37
469.0000	77
469.1000	84
469.2000	93
469.3000	55
469.4000	30
469.7000	31
470.1000	26
470.2000	35
470.3000	30
470.4000	21
470.5000	22
470.7000	56
470.8000	26
470.9000	109
471.0000	44
471.1000	46
471.2000	66
471.3000	67
471.4000	25
471.8000	33
471.9000	44
472.0000	52
472.1000	96
472.2000	96
472.3000	26
472.4000	59
472.5000	65
472.6000	26
472.9000	32
473.4000	27
482.8000	24
482.9000	25
483.3000	36
483.5000	40
495.8000	38
495.9000	27
496.0000	36
496.1000	27
496.2000	37
496.3000	44
499.0000	22
499.3000	27
543.2000	22
543.4000	28
690.4000	25
690.6000	38
691.6000	26
908.8000	24
909.0000	37
909.2000	42
909.3000	63
909.4000	37
909.5000	105
909.6000	56
909.7000	50
909.8000	57
909.9000	56
910.0000	33
910.1000	26
910.2000	23
910.6000	24
918.0000	37
918.1000	29
918.4000	22
925.9000	33
926.4000	22
926.5000	24
926.6000	41
926.7000	29
927.3000	22
927.6000	27
1136.2000	30
1136.3000	37
1136.4000	57
1136.5000	79
1136.6000	44
1136.7000	70
1136.8000	78
1136.9000	81
1137.0000	41
1137.1000	64
1137.2000	40
1137.3000	53
1137.4000	72
1137.5000	57
1137.6000	34
1137.7000	63
1137.8000	21
1137.9000	31
1138.1000	35
1138.2000	33
1138.3000	34
1145.5000	26
1145.6000	22
1153.9000	24
1363.2000	24
1363.3000	35
1363.4000	41
1363.5000	26
1363.6000	37
1363.7000	53
1363.8000	31
1363.9000	34
1364.0000	48
1364.1000	57
1364.2000	79
1364.3000	45
1364.4000	33
1364.5000	41
1364.6000	42
1364.7000	27
1364.8000	42
1364.9000	35
1365.0000	30
1365.3000	42
1365.5000	31
1365.6000	26
1372.2000	26
1372.3000	24
1373.2000	30
