Mass spectrum: Rotenone; LC-ESI-QQQ; MS; [M+H]+
Name: Rotenone
Class: Flavonoids
Formula: C23H22O6
Exact mass: 394.4282
SMILES: C=C(C)C1Cc2c(ccc3c2OC2COc4cc(OC)c(OC)cc4C2C3=O)O1
InChI: InChI=1S/C23H22O6/c1-11(2)16-8-14-15(28-16)6-5-12-22(24)21-13-7-18(25-3)19(26-4)9-17(13)27-10-20(21)29-23(12)14/h5-7,9,16,20-21H,1,8,10H2,2-4H3
Instrument: ABSciex API3200 LC/MS system
Instrument type: LC-ESI-QQQ
Ms type: MS
Ion mode: POSITIVE
Precursor type: [M+H]+
m/z	relative intensity
100.9000	70
101.0000	76
101.1000	80
101.2000	64
101.3000	70
101.4000	44
149.3000	28
190.8000	56
190.9000	34
191.6000	30
191.7000	49
191.8000	42
191.9000	25
192.0000	25
192.1000	32
192.2000	41
192.3000	32
192.4000	36
202.7000	32
202.8000	23
203.0000	24
203.3000	22
212.5000	22
212.6000	54
212.7000	109
212.8000	62
212.9000	60
213.0000	53
213.1000	73
213.2000	82
213.3000	38
213.4000	61
240.6000	30
240.8000	24
240.9000	22
241.2000	35
241.3000	25
366.7000	27
366.9000	28
394.2000	33
394.3000	51
394.4000	325
394.5000	663
394.6000	903
394.7000	818
394.8000	962
394.9000	937
395.0000	973
395.1000	999
395.2000	919
395.3000	703
395.4000	420
395.5000	370
395.6000	302
395.7000	269
395.8000	317
395.9000	284
396.0000	265
396.1000	486
396.2000	263
396.3000	184
396.4000	138
396.5000	84
396.6000	60
396.7000	66
396.8000	43
396.9000	60
397.0000	83
397.1000	92
397.2000	38
397.3000	28
397.4000	33
411.8000	27
788.5000	37
788.6000	28
788.7000	26
788.8000	31
788.9000	40
789.0000	37
789.1000	27
789.2000	35
789.6000	24
789.7000	26
789.9000	36
790.0000	28
790.1000	35
790.2000	21
790.3000	21
806.8000	37
