Mass spectrum: Laevopimaric acid; LC-ESI-QQQ; MS; [M+H]+
Name: Laevopimaric acid
Class: Terpenoids
Formula: C20H30O2
Exact mass: 302.4609
SMILES: CC(C)C1=CCC2C(=C1)CCC1[C@](C)(C(=O)O)CCC[C@]21C
InChI: InChI=1S/C20H30O2/c1-13(2)14-6-8-16-15(12-14)7-9-17-19(16,3)10-5-11-20(17,4)18(21)22/h6,12-13,16-17H,5,7-11H2,1-4H3,(H,21,22)/t16?,17?,19-,20-/m1/s1
Instrument: ABSciex API3200 LC/MS system
Instrument type: LC-ESI-QQQ
Ms type: MS
Ion mode: POSITIVE
Precursor type: [M+H]+
m/z	relative intensity
100.3000	44
104.8000	23
106.6000	40
106.7000	28
106.8000	44
106.9000	29
107.0000	39
107.1000	37
107.2000	46
107.3000	26
107.4000	36
108.6000	44
108.7000	43
108.8000	51
108.9000	67
109.0000	41
109.1000	50
109.2000	63
109.3000	77
109.4000	45
109.5000	46
117.8000	28
118.2000	23
120.5000	21
120.6000	28
120.7000	76
120.8000	76
120.9000	73
121.0000	69
121.1000	54
121.2000	82
121.3000	68
121.4000	49
121.5000	25
122.5000	48
122.6000	147
122.7000	177
122.8000	264
122.9000	291
123.0000	382
123.1000	247
123.2000	202
123.3000	215
123.4000	183
123.5000	151
123.6000	38
123.9000	24
124.2000	25
124.3000	24
132.7000	45
132.8000	60
132.9000	52
133.0000	51
133.1000	34
133.2000	27
133.3000	38
133.4000	34
134.5000	49
134.6000	79
134.7000	97
134.8000	90
134.9000	99
135.0000	116
135.1000	109
135.2000	122
135.3000	83
135.4000	66
135.5000	37
136.6000	28
136.7000	40
136.8000	39
136.9000	45
137.0000	35
137.1000	35
137.2000	38
137.3000	55
137.4000	34
137.5000	25
138.7000	34
138.8000	22
139.0000	28
139.2000	22
139.4000	22
145.2000	22
146.6000	32
146.8000	25
146.9000	25
147.0000	23
147.2000	27
147.4000	23
147.5000	21
148.6000	76
148.7000	121
148.8000	103
148.9000	144
149.0000	160
149.1000	199
149.2000	219
149.3000	141
149.4000	148
149.5000	70
149.7000	25
150.0000	27
150.2000	23
158.8000	22
159.0000	24
159.4000	21
166.7000	42
166.8000	34
166.9000	30
167.0000	21
167.1000	50
167.2000	23
172.7000	45
172.8000	62
172.9000	54
173.0000	40
173.1000	52
173.2000	48
173.3000	46
173.4000	27
193.1000	27
193.2000	22
200.7000	31
200.8000	38
200.9000	25
201.0000	37
201.2000	57
201.3000	37
201.4000	22
201.5000	28
255.0000	34
255.1000	44
255.2000	28
255.3000	27
255.4000	28
255.5000	32
256.6000	82
256.7000	125
256.8000	190
256.9000	242
257.0000	246
257.1000	226
257.2000	277
257.3000	249
257.4000	200
257.5000	206
257.6000	97
257.7000	64
257.8000	33
257.9000	41
258.0000	45
258.1000	58
258.2000	32
258.3000	61
258.4000	49
258.5000	34
284.7000	30
284.8000	45
284.9000	56
285.0000	47
285.1000	60
285.2000	68
285.3000	64
285.4000	58
285.5000	32
300.6000	22
300.7000	78
300.8000	99
300.9000	101
301.0000	117
301.1000	136
301.2000	127
301.3000	59
301.4000	81
301.5000	77
301.7000	23
301.8000	25
301.9000	38
302.0000	25
302.1000	21
302.2000	30
302.5000	80
302.6000	276
302.7000	606
302.8000	767
302.9000	864
303.0000	866
303.1000	784
303.2000	698
303.3000	790
303.4000	999
303.5000	534
303.6000	227
303.7000	197
303.8000	154
303.9000	160
304.0000	145
304.1000	137
304.2000	155
304.3000	139
304.4000	129
304.5000	101
304.6000	37
304.7000	21
304.9000	23
305.3000	24
305.5000	29
343.7000	32
343.8000	49
343.9000	36
344.0000	42
344.1000	31
344.2000	50
344.3000	35
344.4000	56
344.5000	34
352.3000	23
352.5000	22
376.3000	21
391.4000	25
