Mass spectrum: Karakoline; LC-ESI-QQQ; MS; [M+H]+
Name: Karacoline
Name: Carmicheline
Name: 20-ethyl-16beta-methoxy-4-methylaconitane-1alpha,8,14alpha-triol
Name: Karakoline
Class: Alkaloids
Formula: C22H35NO4
Exact mass: 377.5286
SMILES: CCN1C[C@]2(C)CC[C@H](O)[C@@]34C5C[C@@H]6[C@@H](OC)C[C@@](O)(C5[C@H]6O)[C@@H](CC32)C14
InChI: InChI=1S/C22H35NO4/c1-4-23-10-20(2)6-5-16(24)22-12-7-11-14(27-3)9-21(26,17(12)18(11)25)13(19(22)23)8-15(20)22/h11-19,24-26H,4-10H2,1-3H3/t11-,12?,13+,14+,15?,16+,17?,18+,19?,20+,21+,22-/m1/s1
Instrument: ABSciex API3200 LC/MS system
Instrument type: LC-ESI-QQQ
Ms type: MS
Ion mode: POSITIVE
Precursor type: [M+H]+
m/z	relative intensity
220.8000	36
359.4000	24
359.5000	30
359.6000	91
359.7000	158
359.8000	148
359.9000	117
360.0000	125
360.1000	95
360.2000	122
360.3000	256
360.4000	503
360.5000	106
360.6000	50
360.7000	96
360.8000	25
377.3000	48
377.4000	246
377.5000	532
377.6000	776
377.7000	835
377.8000	811
377.9000	785
378.0000	804
378.1000	808
378.2000	790
378.3000	790
378.4000	737
378.5000	999
378.6000	953
378.7000	415
378.8000	242
378.9000	223
379.0000	435
379.1000	845
379.2000	248
379.3000	173
379.4000	164
379.5000	146
379.6000	73
379.7000	66
379.8000	50
379.9000	56
380.0000	52
380.1000	54
380.2000	62
380.3000	65
380.4000	54
380.5000	42
