Mass spectrum: liquiritigenin; LC-ESI-QQQ; MS; [M+H]+
Name: Liquiritigenin
Name: (2S)-7-hydroxy-2-(4-hydroxyphenyl)-2,3-dihydrochromen-4-one
Name: liquiritigenin
Class: Flavonoids
Formula: C15H12O4
Exact mass: 256.2605
SMILES: O=C1C[C@@H](c2ccc(O)cc2)Oc2cc(O)ccc21
InChI: InChI=1S/C15H12O4/c16-10-3-1-9(2-4-10)14-8-13(18)12-6-5-11(17)7-15(12)19-14/h1-7,14,16-17H,8H2/t14-/m0/s1
Instrument: ABSciex API3200 LC/MS system
Instrument type: LC-ESI-QQQ
Ms type: MS
Ion mode: POSITIVE
Precursor type: [M+H]+
m/z	relative intensity
100.2000	27
118.6000	22
118.8000	32
119.0000	24
119.1000	22
119.2000	27
136.4000	96
136.5000	117
136.6000	132
136.7000	195
136.8000	194
136.9000	203
137.0000	369
137.1000	229
137.2000	141
137.3000	133
137.4000	136
137.5000	32
137.7000	23
137.9000	27
138.0000	39
146.3000	23
146.4000	30
146.5000	70
146.6000	67
146.7000	99
146.8000	79
146.9000	73
147.0000	75
147.1000	67
147.2000	73
147.3000	79
147.4000	60
162.7000	59
210.6000	21
210.8000	24
211.1000	40
211.2000	23
211.4000	23
220.5000	36
238.4000	31
238.5000	52
238.6000	49
238.7000	57
238.8000	59
238.9000	59
239.0000	62
239.1000	44
239.2000	43
239.3000	33
241.7000	23
241.9000	25
242.0000	25
242.1000	30
256.3000	110
256.4000	439
256.5000	698
256.6000	786
256.7000	777
256.8000	741
256.9000	641
257.0000	713
257.1000	679
257.2000	732
257.3000	999
257.4000	568
257.5000	250
257.6000	322
257.7000	297
257.8000	159
257.9000	168
258.0000	200
258.1000	158
258.2000	145
258.3000	145
258.4000	142
258.5000	57
258.6000	45
258.7000	25
258.8000	32
258.9000	31
259.0000	30
259.1000	31
259.2000	23
