Mass spectrum: Magnoflorine; LC-ESI-QQQ; MS; [M+H]+
Name: Magnoflorine
Class: Alkaloids
Formula: [C20H24NO4]+
Exact mass: 342.4186
SMILES: COc1ccc2c(c1O)-c1c(O)c(OC)cc3c1C(C2)[N+](C)(C)CC3
InChI: InChI=1S/C20H23NO4/c1-21(2)8-7-12-10-15(25-4)20(23)18-16(12)13(21)9-11-5-6-14(24-3)19(22)17(11)18/h5-6,10,13H,7-9H2,1-4H3,(H-,22,23)/p+1
Instrument: ABSciex API3200 LC/MS system
Instrument type: LC-ESI-QQQ
Ms type: MS
Ion mode: POSITIVE
Precursor type: [M]+
m/z	relative intensity
134.8000	24
236.6000	30
236.7000	32
236.8000	32
236.9000	43
237.0000	40
237.1000	35
237.2000	37
237.4000	32
264.4000	23
264.5000	87
264.6000	107
264.7000	162
264.8000	173
264.9000	168
265.0000	145
265.1000	228
265.2000	156
265.3000	109
265.4000	65
265.5000	62
265.6000	30
265.7000	32
265.8000	42
265.9000	32
266.0000	44
266.1000	47
266.2000	32
266.3000	34
266.4000	25
267.0000	33
267.1000	28
279.3000	21
281.4000	57
281.5000	21
281.6000	37
281.7000	42
281.8000	45
281.9000	38
282.0000	37
282.1000	49
282.2000	31
282.3000	45
282.4000	32
296.4000	63
296.5000	189
296.6000	285
296.7000	308
296.8000	300
296.9000	313
297.0000	297
297.1000	307
297.2000	260
297.3000	264
297.4000	195
297.5000	101
297.6000	59
297.7000	55
297.8000	67
297.9000	73
298.0000	76
298.1000	47
298.2000	49
298.3000	50
298.4000	50
298.5000	45
298.6000	47
298.7000	63
298.8000	39
298.9000	50
299.0000	50
299.1000	63
299.2000	49
299.3000	48
299.4000	36
310.6000	21
340.5000	23
340.6000	28
340.7000	43
340.8000	35
340.9000	33
341.0000	47
341.1000	40
341.2000	43
341.3000	52
341.4000	303
341.5000	568
341.6000	880
341.7000	978
341.8000	908
341.9000	991
342.0000	999
342.1000	989
342.2000	939
342.3000	851
342.4000	763
342.5000	332
342.6000	288
342.7000	356
342.8000	255
342.9000	300
343.0000	269
343.1000	274
343.2000	280
343.3000	265
343.4000	326
343.5000	96
343.6000	66
343.7000	64
343.8000	37
343.9000	47
344.0000	59
344.1000	47
344.2000	32
344.3000	29
344.4000	49
355.9000	25
374.0000	23
374.2000	23
