Mass spectrum: 3,6-Cevanediol; LC-ESI-QQQ; MS; [M+H]+
Name: 3,6-Cevanediol
Class: Alkaloids
Formula: C27H45NO2
Exact mass: 415.6652
SMILES: C[C@@H]1CC[C@H]2[C@H](C)[C@H]3CC[C@H]4C5C[C@H](O)[C@H]6C[C@H](O)CC[C@]6(C)[C@H]5C[C@H]4C3CN2C1
InChI: InChI=1S/C27H45NO2/c1-15-4-7-25-16(2)18-5-6-19-20(22(18)14-28(25)13-15)11-23-21(19)12-26(30)24-10-17(29)8-9-27(23,24)3/h15-26,29-30H,4-14H2,1-3H3/t15-,16-,17-,18-,19-,20-,21?,22?,23+,24-,25+,26+,27-/m1/s1
Instrument: ABSciex API3200 LC/MS system
Instrument type: LC-ESI-QQQ
Ms type: MS
Ion mode: POSITIVE
Precursor type: [M+H]+
m/z	relative intensity
100.6000	41
100.7000	38
100.8000	57
100.9000	77
101.0000	53
101.1000	95
101.2000	113
414.5000	25
415.4000	33
415.5000	246
415.6000	658
415.7000	881
415.8000	961
415.9000	986
416.0000	986
416.1000	999
416.2000	992
416.3000	991
416.4000	940
416.5000	914
416.6000	634
416.7000	536
416.8000	596
416.9000	596
417.0000	575
417.1000	604
417.2000	570
417.3000	594
417.4000	583
417.5000	540
417.6000	334
417.7000	211
417.8000	193
417.9000	206
418.0000	184
418.1000	182
418.2000	177
418.3000	206
418.4000	160
418.5000	156
418.6000	92
418.7000	38
418.8000	31
418.9000	26
419.0000	22
419.1000	23
419.2000	23
419.3000	22
457.1000	25
457.3000	42
457.4000	54
866.9000	26
867.0000	25
867.1000	37
867.2000	28
867.3000	37
867.4000	31
867.5000	29
867.6000	30
868.4000	21
869.3000	25
