Mass spectrum: Vinblastine sulfate; LC-ESI-QQQ; MS; [M+H]+
Name: Vinblastine sulfate
Class: Alkaloids
Formula: C46H60N4O13S
Exact mass: 909.0741
SMILES: CC[C@]1(O)C[C@H]2CN(CCc3c([nH]c4ccccc34)[C@@](C(=O)OC)(c3cc4c(cc3OC)N(C)[C@H]3[C@@](O)(C(=O)OC)[C@H](OC(C)=O)[C@]5(CC)C=CCN6CC[C@]43[C@@H]65)C2)C1.O=S(=O)(O)O
InChI: InChI=1S/C46H58N4O9.H2O4S/c1-8-42(54)23-28-24-45(40(52)57-6,36-30(15-19-49(25-28)26-42)29-13-10-11-14-33(29)47-36)32-21-31-34(22-35(32)56-5)48(4)38-44(31)17-20-50-18-12-16-43(9-2,37(44)50)39(59-27(3)51)46(38,55)41(53)58-7;1-5(2,3)4/h10-14,16,21-22,28,37-39,47,54-55H,8-9,15,17-20,23-26H2,1-7H3;(H2,1,2,3,4)/t28-,37+,38-,39-,42+,43-,44-,45+,46+;/m1./s1
Instrument: ABSciex API3200 LC/MS system
Instrument type: LC-ESI-QQQ
Ms type: MS
Ion mode: POSITIVE
Precursor type: [M+H]+
m/z	relative intensity
139.8000	22
209.5000	23
209.6000	31
209.7000	34
209.8000	42
209.9000	34
210.0000	39
210.1000	38
210.2000	34
210.3000	31
210.4000	33
262.1000	23
262.2000	35
262.3000	42
262.4000	26
262.5000	26
262.6000	28
262.7000	26
262.8000	29
262.9000	22
270.9000	48
271.0000	90
271.1000	116
271.2000	143
271.3000	137
271.4000	153
271.5000	168
271.6000	169
271.7000	192
271.8000	172
271.9000	160
272.0000	132
272.1000	87
272.2000	76
272.3000	77
272.4000	60
272.5000	38
272.6000	24
272.7000	23
324.8000	25
324.9000	25
325.0000	28
325.1000	30
325.2000	33
325.3000	37
325.4000	30
345.5000	39
345.6000	51
345.7000	51
345.8000	59
345.9000	76
346.0000	63
346.1000	70
346.2000	70
346.3000	69
346.4000	79
346.5000	57
346.6000	36
346.7000	32
346.8000	30
346.9000	24
354.4000	21
354.5000	36
354.6000	54
354.7000	66
354.8000	67
354.9000	62
355.0000	64
355.1000	68
355.2000	72
355.3000	65
355.4000	63
355.5000	53
355.6000	42
355.7000	31
355.8000	26
355.9000	26
356.0000	23
366.6000	22
366.7000	26
366.8000	25
366.9000	27
367.0000	28
367.1000	34
367.2000	30
367.3000	32
367.4000	30
375.3000	42
375.4000	84
375.5000	165
375.6000	272
375.7000	220
375.8000	236
375.9000	263
376.0000	314
376.1000	419
376.2000	370
376.3000	277
376.4000	277
376.5000	195
376.6000	159
376.7000	148
376.8000	146
376.9000	131
377.0000	71
377.1000	52
377.2000	44
377.3000	42
377.4000	43
384.5000	28
384.6000	37
384.7000	42
384.8000	47
384.9000	71
385.0000	68
385.1000	60
385.2000	58
385.3000	53
385.4000	49
385.5000	38
385.6000	28
385.7000	25
385.8000	29
396.5000	31
396.6000	40
396.7000	46
396.8000	47
396.9000	47
397.0000	60
397.1000	62
397.2000	64
397.3000	59
397.4000	59
397.5000	29
397.6000	21
397.7000	23
404.5000	28
404.6000	31
404.7000	38
404.8000	39
404.9000	42
405.0000	45
405.1000	52
405.2000	57
405.3000	148
405.4000	397
405.5000	648
405.6000	809
405.7000	831
405.8000	829
405.9000	884
406.0000	935
406.1000	995
406.2000	999
406.3000	985
406.4000	942
406.5000	771
406.6000	724
406.7000	635
406.8000	547
406.9000	522
407.0000	345
407.1000	275
407.2000	253
407.3000	228
407.4000	194
407.5000	109
407.6000	72
407.7000	63
407.8000	50
407.9000	42
529.7000	21
529.9000	23
530.0000	21
541.6000	25
541.7000	33
541.8000	30
541.9000	33
542.0000	35
542.1000	31
542.2000	31
542.3000	26
810.3000	28
810.4000	63
810.5000	147
810.6000	182
810.7000	191
810.8000	219
810.9000	213
811.0000	222
811.1000	228
811.2000	225
811.3000	192
811.4000	166
811.5000	115
811.6000	111
811.7000	129
811.8000	136
811.9000	131
812.0000	136
812.1000	137
812.2000	131
812.3000	110
812.4000	90
812.5000	50
812.6000	46
812.7000	40
812.8000	46
812.9000	48
813.0000	44
813.1000	44
813.2000	43
813.3000	35
813.4000	27
