Mass spectrum: Ugaferin; LC-ESI-QQQ; MS; [M+H]+
Name: Ugaferin
Class: Polycyclic aromatic natural products
Formula: C25H36O7
Exact mass: 448.56147
SMILES: COc1cc(C(=O)O[C@H]2C/C(C)=C\CC[C@]3(C)O[C@@H]3C(O)C2C(C)C)cc(OC)c1OC
InChI: InChI=1S/C25H36O7/c1-14(2)20-17(11-15(3)9-8-10-25(4)23(32-25)21(20)26)31-24(27)16-12-18(28-5)22(30-7)19(13-16)29-6/h9,12-14,17,20-21,23,26H,8,10-11H2,1-7H3/b15-9-/t17-,20?,21?,23+,25-/m0/s1
Instrument: ABSciex API3200 LC/MS system
Instrument type: LC-ESI-QQQ
Ms type: MS
Ion mode: POSITIVE
Precursor type: [M+H]+
m/z	relative intensity
104.6000	29
104.7000	29
104.8000	53
104.9000	46
105.0000	63
105.1000	59
105.2000	72
105.3000	50
105.4000	53
105.5000	27
106.5000	33
106.6000	38
106.7000	57
106.8000	44
106.9000	55
107.0000	42
107.1000	44
107.2000	37
107.3000	39
107.4000	45
107.5000	21
108.6000	31
108.7000	37
108.8000	40
108.9000	80
109.0000	120
109.1000	27
109.2000	32
109.3000	40
109.4000	21
118.6000	32
118.7000	34
118.8000	35
118.9000	38
119.0000	36
119.1000	35
119.2000	29
119.4000	21
120.5000	59
120.6000	76
120.7000	75
120.8000	50
120.9000	64
121.0000	76
121.1000	65
121.2000	60
121.3000	65
121.4000	45
121.5000	51
122.5000	28
122.6000	49
122.7000	47
122.8000	60
122.9000	67
123.0000	62
123.1000	62
123.2000	65
123.3000	58
123.4000	40
123.5000	51
124.8000	21
125.0000	26
130.5000	23
130.6000	32
130.7000	38
130.8000	32
130.9000	33
131.0000	34
131.1000	24
131.2000	25
131.3000	29
132.9000	22
133.0000	24
133.2000	23
134.5000	44
134.6000	42
134.7000	47
134.8000	56
134.9000	51
135.0000	43
135.1000	43
135.2000	45
135.3000	44
135.4000	55
135.5000	86
136.7000	23
137.2000	48
144.4000	28
144.5000	81
144.6000	113
144.7000	133
144.8000	132
144.9000	143
145.0000	146
145.1000	143
145.2000	102
145.3000	107
145.4000	100
145.5000	56
145.6000	26
145.8000	34
145.9000	38
146.0000	43
146.8000	49
147.0000	23
147.1000	60
147.2000	89
150.7000	27
150.8000	23
150.9000	22
151.0000	23
151.2000	26
151.4000	24
158.5000	77
158.6000	129
158.7000	167
158.8000	164
158.9000	189
159.0000	154
159.1000	150
159.2000	156
159.3000	101
159.4000	144
159.5000	79
159.6000	30
159.7000	26
159.8000	26
159.9000	24
160.0000	23
160.1000	26
160.2000	31
160.3000	26
160.4000	89
160.5000	58
160.6000	67
160.7000	90
160.8000	75
160.9000	79
161.0000	89
161.1000	59
161.2000	69
161.3000	70
161.4000	61
161.5000	46
161.6000	27
162.5000	45
162.6000	39
162.7000	44
162.8000	39
162.9000	37
163.0000	43
163.1000	47
163.2000	57
163.3000	52
163.4000	37
172.8000	24
172.9000	30
173.0000	23
174.7000	32
174.9000	21
175.2000	27
176.8000	29
176.9000	31
177.1000	29
177.2000	34
177.3000	28
177.4000	22
190.5000	33
190.6000	93
190.7000	102
190.8000	87
190.9000	106
191.0000	114
191.1000	114
191.2000	126
191.3000	109
191.4000	74
191.5000	60
191.6000	27
191.7000	25
191.8000	27
191.9000	21
192.1000	24
194.4000	78
194.5000	110
194.6000	115
194.7000	102
194.8000	96
194.9000	83
195.0000	72
195.1000	94
195.2000	96
195.3000	82
195.4000	77
195.5000	31
200.4000	90
200.5000	378
200.6000	642
200.7000	727
200.8000	799
200.9000	788
201.0000	789
201.1000	672
201.2000	710
201.3000	662
201.4000	581
201.5000	450
201.6000	242
201.7000	155
201.8000	174
201.9000	170
202.0000	132
202.1000	160
202.2000	128
202.3000	131
202.4000	169
202.5000	155
202.6000	41
212.5000	30
212.6000	28
212.7000	35
212.8000	38
212.9000	41
213.0000	32
213.1000	28
213.2000	37
213.3000	30
213.4000	35
218.4000	86
218.5000	316
218.6000	463
218.7000	461
218.8000	463
218.9000	511
219.0000	494
219.1000	537
219.2000	443
219.3000	518
219.4000	432
219.5000	382
219.6000	149
219.7000	96
219.8000	86
219.9000	90
220.0000	127
220.1000	118
220.2000	114
220.3000	103
220.4000	87
220.5000	107
220.6000	22
220.7000	22
220.9000	40
236.5000	60
236.6000	74
236.7000	105
236.8000	128
236.9000	132
237.0000	135
237.1000	111
237.2000	131
237.3000	280
237.4000	88
237.5000	76
237.6000	27
237.7000	25
237.8000	26
237.9000	22
238.1000	25
412.4000	27
412.5000	91
412.6000	129
412.7000	145
412.8000	157
412.9000	136
413.0000	151
413.1000	132
413.2000	134
413.3000	132
413.4000	111
413.5000	81
413.6000	46
413.7000	48
413.8000	43
413.9000	46
414.0000	44
414.1000	50
414.2000	47
414.3000	24
414.4000	40
430.4000	38
430.5000	82
430.6000	157
430.7000	158
430.8000	164
430.9000	177
431.0000	153
431.1000	168
431.2000	134
431.3000	123
431.4000	156
431.5000	71
431.6000	57
431.7000	47
431.8000	41
431.9000	49
432.0000	49
432.1000	39
432.2000	34
432.3000	42
432.4000	32
433.0000	27
448.3000	61
448.4000	293
448.5000	554
448.6000	724
448.7000	862
448.8000	891
448.9000	891
449.0000	951
449.1000	865
449.2000	870
449.3000	857
449.4000	999
449.5000	441
449.6000	542
449.7000	306
449.8000	337
449.9000	360
450.0000	331
450.1000	373
450.2000	337
450.3000	323
450.4000	290
450.5000	182
450.6000	127
450.7000	96
450.8000	104
450.9000	78
451.0000	80
451.1000	84
451.2000	74
451.3000	56
451.4000	60
451.5000	27
648.6000	38
648.7000	42
648.8000	43
648.9000	53
649.0000	54
649.1000	54
649.2000	34
649.3000	40
649.4000	36
649.5000	35
649.7000	27
649.9000	21
650.0000	32
650.1000	23
650.2000	26
896.4000	42
896.5000	100
896.6000	143
896.7000	153
896.8000	180
896.9000	174
897.0000	180
897.1000	181
897.2000	178
897.3000	171
897.4000	146
897.5000	134
897.6000	85
897.7000	111
897.8000	96
897.9000	99
898.0000	96
898.1000	99
898.2000	94
898.3000	76
898.4000	95
898.5000	68
898.6000	49
898.7000	33
898.8000	29
898.9000	40
899.1000	27
899.2000	34
899.3000	27
899.4000	28
913.4000	23
913.5000	28
913.6000	44
913.7000	53
913.8000	49
913.9000	54
914.0000	48
914.1000	67
914.2000	56
914.3000	60
914.4000	76
914.5000	50
914.6000	35
914.7000	35
914.8000	28
914.9000	36
915.0000	27
915.1000	23
915.2000	23
915.3000	28
915.4000	32
1344.7000	33
1344.8000	24
1345.0000	21
1345.2000	32
1345.3000	39
1345.4000	34
1345.5000	23
1345.7000	22
1346.0000	21
1346.1000	35
1346.2000	27
1346.3000	25
1346.4000	33
1362.2000	29
1362.3000	23
1362.9000	23
1363.3000	22
