Mass spectrum: Lauberine; LC-ESI-QQQ; MS; [M+H]+
Name: Lauberine
Class: Alkaloids
Formula: C37H40N2O6
Exact mass: 608.7412
SMILES: COc1ccc2cc1Oc1ccc(cc1)C[C@H]1c3cc(OC)c(O)c(c3CCN1C)Oc1cc3c(cc1OC)CCN(C)[C@@H]3C2
InChI: InChI=1S/C37H40N2O6/c1-38-14-12-24-19-32(42-4)34-20-27(24)29(38)17-23-8-11-31(41-3)33(18-23)44-25-9-6-22(7-10-25)16-30-28-21-35(43-5)36(40)37(45-34)26(28)13-15-39(30)2/h6-11,18-21,29-30,40H,12-17H2,1-5H3/t29-,30+/m1/s1
Instrument: ABSciex API3200 LC/MS system
Instrument type: LC-ESI-QQQ
Ms type: MS
Ion mode: POSITIVE
Precursor type: [M+H]+
m/z	relative intensity
100.4000	129
100.5000	326
100.6000	343
100.7000	301
100.8000	314
100.9000	328
101.0000	177
101.1000	150
101.2000	105
101.3000	77
101.4000	46
190.7000	28
190.8000	22
190.9000	28
191.0000	24
191.1000	27
191.2000	24
191.3000	28
191.4000	49
191.5000	78
289.2000	25
289.3000	23
289.4000	32
289.5000	37
289.6000	35
289.7000	29
289.9000	42
290.0000	28
290.1000	27
297.9000	22
304.4000	104
304.5000	304
304.6000	574
304.7000	904
304.8000	885
304.9000	955
305.0000	992
305.1000	999
305.2000	983
305.3000	915
305.4000	994
305.5000	663
305.6000	521
305.7000	458
305.8000	399
305.9000	355
306.0000	187
306.1000	93
306.2000	108
306.3000	96
306.4000	91
306.5000	32
306.6000	30
306.7000	21
325.5000	25
325.7000	30
565.5000	31
565.6000	60
565.7000	73
565.8000	98
565.9000	103
566.0000	90
566.1000	113
566.2000	95
566.3000	83
566.4000	53
566.5000	25
566.6000	24
566.7000	31
566.8000	40
566.9000	54
567.0000	44
567.1000	55
567.2000	34
567.3000	27
567.4000	22
608.6000	68
608.7000	120
608.8000	120
608.9000	131
609.0000	148
609.1000	123
609.2000	138
609.3000	123
609.4000	96
609.5000	36
609.6000	36
609.7000	48
609.8000	38
609.9000	50
610.0000	59
610.1000	51
610.2000	46
610.3000	41
610.4000	37
