Mass spectrum: Kopsinine; LC-ESI-QQQ; MS; [M+H]+
Name: methyl(2|A,3|A,5|A)-aspidofractinine-3-carboxylate
Name: Aspidofractinine-3-carboxylic acid, methyl ester, (2alpha,3beta,5alpha)-
Name: Kopsinine
Class: Alkaloids
Formula: C21H26N2O2
Exact mass: 338.4536
SMILES: COC(=O)C1CC23CCCN4CCC5(c6ccccc6NC15CC2)[C@@H]43
InChI: InChI=1S/C21H26N2O2/c1-25-17(24)15-13-19-7-4-11-23-12-10-20(18(19)23)14-5-2-3-6-16(14)22-21(15,20)9-8-19/h2-3,5-6,15,18,22H,4,7-13H2,1H3/t15?,18-,19?,20?,21?/m0/s1
Instrument: ABSciex API3200 LC/MS system
Instrument type: LC-ESI-QQQ
Ms type: MS
Ion mode: POSITIVE
Precursor type: [M+H]+
m/z	relative intensity
197.7000	21
224.6000	29
224.7000	31
224.8000	37
224.9000	44
225.0000	43
225.1000	40
225.2000	40
225.3000	29
225.4000	33
338.3000	67
338.4000	485
338.5000	844
338.6000	924
338.7000	990
338.8000	963
338.9000	963
339.0000	958
339.1000	935
339.2000	999
339.3000	787
339.4000	831
339.5000	666
339.6000	522
339.7000	492
339.8000	483
339.9000	474
340.0000	483
340.1000	497
340.2000	485
340.3000	452
340.4000	403
340.5000	295
340.6000	159
340.7000	125
340.8000	104
340.9000	103
341.0000	206
341.1000	104
341.2000	87
341.3000	72
341.4000	64
341.5000	42
352.5000	23
352.6000	39
352.7000	47
352.8000	39
352.9000	50
353.0000	48
353.1000	52
353.2000	47
353.3000	36
353.4000	39
713.0000	22
