Mass spectrum: Peucedanin; LC-ESI-QQQ; MS; [M+H]+
Name: Peucedanin
Class: Benzopyranoids
Formula: C15H14O4
Exact mass: 258.2764
SMILES: COc1c(C(C)C)oc2cc3oc(=O)ccc3cc12
InChI: InChI=1S/C15H14O4/c1-8(2)14-15(17-3)10-6-9-4-5-13(16)18-11(9)7-12(10)19-14/h4-8H,1-3H3
Instrument: ABSciex API3200 LC/MS system
Instrument type: LC-ESI-QQQ
Ms type: MS
Ion mode: POSITIVE
Precursor type: [M+H]+
m/z	relative intensity
184.9000	23
214.5000	26
214.6000	30
214.7000	36
214.8000	37
214.9000	37
215.0000	32
215.1000	30
215.2000	32
215.3000	34
215.4000	23
228.3000	33
228.4000	180
228.5000	304
228.6000	357
228.7000	388
228.8000	400
228.9000	402
229.0000	430
229.1000	451
229.2000	375
229.3000	359
229.4000	255
229.5000	111
229.6000	77
229.7000	68
229.8000	73
229.9000	82
230.0000	75
230.1000	71
230.2000	67
230.3000	61
230.4000	43
243.4000	33
243.5000	65
243.6000	99
243.7000	109
243.8000	115
243.9000	109
244.0000	100
244.1000	105
244.2000	90
244.3000	84
244.4000	58
244.5000	28
244.6000	33
245.1000	21
258.2000	32
258.3000	146
258.4000	820
258.5000	896
258.6000	916
258.7000	932
258.8000	951
258.9000	999
259.0000	971
259.1000	965
259.2000	928
259.3000	891
259.4000	716
259.5000	497
259.6000	449
259.7000	351
259.8000	357
259.9000	353
260.0000	390
260.1000	450
260.2000	364
260.3000	336
260.4000	281
260.5000	131
260.6000	101
260.7000	89
260.8000	72
260.9000	77
261.0000	77
261.1000	73
261.2000	56
261.3000	65
261.4000	52
261.5000	22
275.8000	22
275.9000	21
288.7000	24
288.9000	22
289.0000	23
289.1000	23
289.2000	24
299.5000	35
299.6000	53
299.7000	62
299.8000	56
299.9000	51
300.0000	67
300.1000	57
300.2000	61
300.3000	58
300.4000	44
