Mass spectrum: Korseveriline; LC-ESI-QQQ; MS; [M+H]+
Name: Korseveriline
Class: Alkaloids
Formula: C27H45NO3
Exact mass: 431.6646
SMILES: C[C@@H]1CC[C@H]2[C@H](C)[C@H]3CC[C@]4(O)[C@@H](C[C@H]5[C@H]4C[C@@H](O)[C@H]4C[C@H](O)CC[C@@]45C)[C@@H]3CN2C1
InChI: InChI=1S/C27H45NO3/c1-15-4-5-24-16(2)18-7-9-27(31)20(19(18)14-28(24)13-15)11-21-22(27)12-25(30)23-10-17(29)6-8-26(21,23)3/h15-25,29-31H,4-14H2,1-3H3/t15-,16-,17-,18-,19-,20+,21+,22-,23-,24+,25-,26-,27+/m1/s1
Instrument: ABSciex API3200 LC/MS system
Instrument type: LC-ESI-QQQ
Ms type: MS
Ion mode: POSITIVE
Precursor type: [M+H]+
m/z	relative intensity
431.4000	21
431.5000	255
431.6000	640
431.7000	899
431.8000	944
431.9000	980
432.0000	999
432.1000	981
432.2000	989
432.3000	975
432.4000	929
432.5000	904
432.6000	653
432.7000	568
432.8000	571
432.9000	559
433.0000	576
433.1000	565
433.2000	560
433.3000	565
433.4000	563
433.5000	547
433.6000	420
433.7000	244
433.8000	201
433.9000	198
434.0000	184
434.1000	197
434.2000	186
434.3000	169
434.4000	167
434.5000	169
434.6000	110
434.7000	45
434.8000	39
434.9000	31
435.0000	26
435.1000	24
435.2000	24
435.3000	24
435.4000	25
435.5000	21
473.0000	27
473.1000	29
473.2000	28
473.3000	31
473.4000	21
898.8000	21
898.9000	27
899.0000	35
899.1000	36
899.2000	31
899.3000	36
899.4000	36
899.5000	33
899.6000	28
900.1000	22
900.2000	23
900.3000	21
900.4000	24
900.5000	21
901.0000	28
