Mass spectrum: Austricin; LC-ESI-QQQ; MS; [M+H]+
Name: Austricin
Class: Terpenoids
Formula: C15H18O4
Exact mass: 262.3083
SMILES: CC1=CC(=O)C2=C(C)C[C@H](O)C3[C@H](C)C(=O)O[C@@H]3C12
InChI: InChI=1S/C15H18O4/c1-6-4-10(17)13-8(3)15(18)19-14(13)12-7(2)5-9(16)11(6)12/h5,8,10,12-14,17H,4H2,1-3H3/t8-,10-,12?,13?,14+/m0/s1
Instrument: ABSciex API3200 LC/MS system
Instrument type: LC-ESI-QQQ
Ms type: MS
Ion mode: POSITIVE
Precursor type: [M+H]+
m/z	relative intensity
118.4000	25
118.5000	99
118.6000	96
118.7000	88
118.8000	55
118.9000	65
119.0000	37
119.1000	27
119.2000	31
119.3000	43
119.4000	61
119.5000	29
120.8000	22
134.7000	24
137.3000	23
141.4000	52
141.5000	107
141.6000	127
141.7000	118
141.8000	115
141.9000	97
142.0000	70
142.1000	51
142.2000	48
149.3000	45
149.4000	138
170.7000	28
170.8000	31
170.9000	34
171.0000	27
171.1000	22
171.2000	29
171.3000	30
171.4000	32
171.5000	29
171.6000	23
171.8000	22
172.0000	26
198.5000	23
198.6000	34
198.7000	39
198.8000	32
198.9000	46
199.0000	46
199.1000	56
199.2000	56
199.3000	34
199.4000	32
216.8000	21
217.1000	25
262.3000	91
262.4000	334
262.5000	576
262.6000	691
262.7000	851
262.8000	836
262.9000	868
263.0000	898
263.1000	999
263.2000	781
263.3000	715
263.4000	631
263.5000	304
263.6000	268
263.7000	172
263.8000	195
263.9000	159
264.0000	177
264.1000	151
264.2000	161
264.3000	201
264.4000	146
264.5000	52
264.6000	108
264.7000	41
280.9000	29
281.0000	27
303.4000	38
303.5000	106
303.6000	130
303.7000	138
303.8000	163
303.9000	152
304.0000	153
304.1000	136
304.2000	170
304.3000	191
304.4000	102
304.5000	60
304.6000	49
304.7000	31
304.8000	23
304.9000	29
305.1000	32
