Mass spectrum: Vulgarin; LC-ESI-QQQ; MS; [M+H]+
Name: Vulgarin
Class: Terpenoids
Formula: C15H20O4
Exact mass: 264.3243
SMILES: C[C@@H]1C(=O)O[C@H]2C1CC[C@@]1(C)C(=O)C=C[C@@](C)(O)[C@H]21
InChI: InChI=1S/C15H20O4/c1-8-9-4-6-14(2)10(16)5-7-15(3,18)12(14)11(9)19-13(8)17/h5,7-9,11-12,18H,4,6H2,1-3H3/t8-,9?,11-,12+,14-,15+/m0/s1
Instrument: ABSciex API3200 LC/MS system
Instrument type: LC-ESI-QQQ
Ms type: MS
Ion mode: POSITIVE
Precursor type: [M+H]+
m/z	relative intensity
118.6000	28
144.8000	44
148.6000	38
149.1000	55
149.2000	250
172.4000	45
172.5000	152
172.6000	254
172.7000	239
172.8000	260
172.9000	304
173.0000	210
173.1000	267
173.2000	196
173.3000	179
173.4000	201
173.5000	142
173.6000	38
173.7000	21
173.8000	39
173.9000	42
174.0000	37
174.1000	26
174.2000	45
174.3000	34
200.6000	25
200.7000	34
200.8000	50
200.9000	44
201.0000	62
201.1000	67
201.2000	59
201.3000	41
201.4000	55
201.5000	24
218.8000	24
218.9000	36
219.0000	27
219.1000	27
219.2000	37
220.7000	23
221.1000	31
228.5000	28
228.6000	64
228.7000	60
228.8000	40
228.9000	72
229.0000	61
229.1000	55
229.2000	50
229.3000	51
229.4000	57
246.4000	264
246.5000	547
246.6000	939
246.7000	878
246.8000	921
246.9000	886
247.0000	834
247.1000	999
247.2000	833
247.3000	663
247.4000	648
247.5000	385
247.6000	184
247.7000	154
247.8000	122
247.9000	122
248.0000	101
248.1000	131
248.2000	150
248.3000	117
248.4000	104
248.5000	87
248.6000	22
249.3000	22
264.4000	47
264.5000	131
264.6000	235
264.7000	283
264.8000	303
264.9000	302
265.0000	293
265.1000	334
265.2000	326
265.3000	277
265.4000	266
265.5000	141
265.6000	71
265.7000	37
265.8000	59
265.9000	57
266.0000	46
266.1000	74
266.2000	60
266.3000	41
266.4000	37
281.4000	39
281.5000	109
281.6000	215
281.7000	192
281.8000	229
281.9000	287
282.0000	228
282.1000	215
282.2000	207
282.3000	194
282.4000	172
282.5000	122
282.6000	56
282.7000	41
282.8000	39
282.9000	31
283.0000	42
283.1000	67
283.2000	39
283.3000	38
283.4000	34
283.5000	26
287.8000	28
287.9000	22
288.1000	37
288.3000	25
305.7000	27
305.9000	26
306.0000	36
306.1000	24
306.2000	27
311.0000	33
391.0000	25
492.6000	23
492.7000	32
492.8000	30
492.9000	37
493.0000	34
493.2000	32
493.3000	30
510.5000	21
510.6000	76
510.7000	92
510.8000	126
510.9000	131
511.0000	127
511.1000	123
511.2000	115
511.3000	80
511.4000	66
511.5000	40
511.6000	31
511.7000	47
511.8000	55
511.9000	46
512.0000	46
512.1000	55
512.2000	30
512.3000	36
512.4000	33
528.4000	38
528.5000	121
528.6000	285
528.7000	365
528.8000	388
528.9000	356
529.0000	333
529.1000	632
529.2000	399
529.3000	268
529.4000	268
529.5000	102
529.6000	127
529.7000	127
529.8000	106
529.9000	108
530.0000	125
530.1000	110
530.2000	92
530.3000	108
530.4000	68
530.5000	61
530.6000	22
530.7000	33
530.8000	35
531.0000	26
531.2000	24
545.7000	38
545.8000	58
545.9000	34
546.0000	41
546.1000	40
546.2000	52
546.3000	31
546.4000	25
546.6000	26
546.7000	37
546.9000	50
547.0000	43
547.1000	41
547.2000	32
547.4000	25
547.5000	23
548.2000	22
