Mass spectrum: Alloside B; LC-ESI-QQQ; MS; [M+H]+
Name: Alloside B
Class: Steroids
Formula: C39H66O14
Exact mass: 758.95247
SMILES: CC(C)CCC(O)[C@@H](C)C1C(O[C@@H]2OC(CO)[C@@H](O)C(O)C2O)CC2C3CC=C4C[C@@H](O)CC(O[C@@H]5OC(CO)[C@@H](O)C(O)C5O)[C@]4(C)C3CC[C@@]21C
InChI: InChI=1S/C39H66O14/c1-17(2)6-9-24(43)18(3)29-25(50-36-34(48)32(46)30(44)26(15-40)51-36)14-23-21-8-7-19-12-20(42)13-28(39(19,5)22(21)10-11-38(23,29)4)53-37-35(49)33(47)31(45)27(16-41)52-37/h7,17-18,20-37,40-49H,6,8-16H2,1-5H3/t18-,20-,21?,22?,23?,24?,25?,26?,27?,28?,29?,30-,31-,32?,33?,34?,35?,36-,37+,38+,39+/m1/s1
Instrument: ABSciex API3200 LC/MS system
Instrument type: LC-ESI-QQQ
Ms type: MS
Ion mode: POSITIVE
Precursor type: [M+H]+
m/z	relative intensity
100.9000	439
101.0000	199
101.1000	404
101.2000	266
101.3000	321
101.4000	331
101.5000	129
101.6000	25
102.4000	24
117.1000	34
120.7000	23
134.6000	22
135.0000	38
141.8000	37
141.9000	430
142.0000	590
146.6000	21
149.3000	21
161.5000	22
199.5000	47
220.6000	228
221.3000	177
221.4000	99
224.9000	28
238.5000	21
238.8000	45
252.7000	22
270.9000	23
271.0000	22
271.1000	35
271.2000	60
271.3000	24
271.4000	29
279.5000	21
279.8000	25
311.2000	21
324.9000	33
330.2000	41
330.3000	30
356.3000	22
363.3000	22
363.5000	22
364.9000	37
365.0000	32
365.1000	21
365.2000	33
365.4000	46
365.5000	25
365.6000	22
365.9000	27
380.6000	59
380.7000	136
380.8000	106
380.9000	119
381.0000	141
381.1000	134
381.2000	140
381.3000	98
381.4000	113
381.5000	90
381.6000	66
381.7000	34
381.8000	50
381.9000	38
382.0000	63
382.1000	72
382.2000	44
382.3000	59
382.4000	22
382.5000	51
382.6000	54
382.7000	145
382.8000	153
382.9000	150
383.0000	135
383.1000	150
383.2000	272
383.3000	649
383.4000	169
383.5000	130
383.6000	60
383.7000	103
383.8000	111
383.9000	63
384.0000	86
384.1000	58
384.2000	24
384.3000	29
384.5000	51
398.6000	52
398.7000	133
398.8000	195
398.9000	176
399.0000	171
399.1000	194
399.2000	186
399.3000	201
399.4000	176
399.5000	137
399.6000	82
399.7000	55
399.8000	38
399.9000	66
400.0000	71
400.1000	41
400.2000	25
400.3000	62
400.4000	38
400.5000	46
400.9000	22
401.0000	30
401.1000	21
401.2000	25
401.3000	30
401.4000	29
402.1000	22
416.8000	37
417.0000	69
417.1000	107
417.2000	48
417.3000	28
417.4000	42
417.5000	41
418.0000	22
433.1000	52
507.3000	22
543.1000	22
543.3000	23
560.7000	26
560.8000	91
560.9000	49
561.0000	73
561.1000	52
561.2000	56
561.3000	62
561.4000	65
561.5000	42
561.7000	27
561.8000	30
562.0000	35
562.3000	23
562.4000	26
563.3000	22
578.7000	53
578.8000	72
578.9000	54
579.0000	69
579.1000	60
579.2000	51
579.3000	61
579.4000	28
579.5000	43
579.8000	47
579.9000	30
580.0000	34
580.2000	23
580.3000	22
580.4000	22
580.5000	22
722.8000	51
723.1000	98
723.2000	44
740.7000	22
740.8000	43
740.9000	55
741.0000	26
741.1000	54
741.2000	46
741.3000	50
741.4000	30
742.0000	35
742.3000	31
758.5000	47
758.6000	205
758.7000	402
758.8000	446
758.9000	628
759.0000	682
759.1000	627
759.2000	649
759.3000	596
759.4000	433
759.5000	396
759.6000	189
759.7000	220
759.8000	238
759.9000	412
760.0000	999
760.1000	293
760.2000	257
760.3000	219
760.4000	183
760.5000	143
760.6000	54
760.7000	43
760.8000	67
760.9000	106
761.0000	74
761.1000	104
761.2000	84
761.3000	31
761.4000	74
761.6000	30
762.1000	34
775.6000	80
775.7000	78
775.8000	99
775.9000	86
776.0000	139
776.1000	149
776.2000	147
776.3000	352
776.4000	183
776.5000	54
776.6000	64
776.7000	86
776.8000	70
776.9000	65
777.0000	47
777.1000	60
777.2000	59
777.3000	59
777.4000	57
777.5000	36
777.6000	28
778.0000	21
778.1000	42
778.3000	42
