Mass spectrum: Lobeline; LC-ESI-QQQ; MS; [M+H]+
Name: Lobron
Name: Lobelina
Name: Lobelinum
Name: 2-(6-((2S)-2-hydroxy-2-phenylethyl)-1-methyl(2-piperidyl))-1-phenylethan-1-one
Name: Lobeline
Class: Alkaloids
Formula: C22H27NO2
Exact mass: 337.466
SMILES: CN1C(CC(=O)c2ccccc2)CCCC1C[C@H](O)c1ccccc1
InChI: InChI=1S/C22H27NO2/c1-23-19(15-21(24)17-9-4-2-5-10-17)13-8-14-20(23)16-22(25)18-11-6-3-7-12-18/h2-7,9-12,19-21,24H,8,13-16H2,1H3/t19?,20?,21-/m0/s1
Instrument: ABSciex API3200 LC/MS system
Instrument type: LC-ESI-QQQ
Ms type: MS
Ion mode: POSITIVE
Precursor type: [M+H]+
m/z	relative intensity
100.8000	29
100.9000	49
101.0000	33
101.2000	26
101.3000	21
104.5000	41
104.6000	46
104.7000	61
104.8000	61
104.9000	62
105.0000	67
105.1000	72
105.2000	74
105.3000	53
105.4000	45
199.5000	53
199.6000	92
199.7000	123
199.8000	111
199.9000	108
200.0000	115
200.1000	117
200.2000	105
200.3000	114
200.4000	99
200.5000	71
200.6000	24
201.1000	24
215.4000	51
215.5000	173
215.6000	288
215.7000	360
215.8000	360
215.9000	396
216.0000	347
216.1000	323
216.2000	301
216.3000	259
216.4000	182
216.5000	204
216.6000	77
216.7000	68
216.8000	48
216.9000	46
217.0000	57
217.1000	59
217.2000	59
217.3000	42
217.4000	77
217.5000	144
217.6000	187
217.7000	230
217.8000	251
217.9000	251
218.0000	258
218.1000	261
218.2000	246
218.3000	202
218.4000	201
218.5000	186
218.6000	64
218.7000	48
218.8000	46
218.9000	54
219.0000	49
219.1000	53
219.2000	41
219.3000	39
219.4000	31
219.5000	29
319.5000	60
319.6000	140
319.7000	182
319.8000	187
319.9000	178
320.0000	196
320.1000	177
320.2000	162
320.3000	191
320.4000	140
320.5000	100
320.6000	74
320.7000	45
320.8000	53
320.9000	56
321.0000	49
321.1000	45
321.2000	43
321.3000	40
321.4000	39
321.5000	28
337.4000	153
337.5000	493
337.6000	882
337.7000	965
337.8000	924
337.9000	973
338.0000	945
338.1000	961
338.2000	999
338.3000	875
338.4000	837
338.5000	671
338.6000	521
338.7000	432
338.8000	451
338.9000	474
339.0000	481
339.1000	473
339.2000	449
339.3000	446
339.4000	391
339.5000	288
339.6000	167
339.7000	155
339.8000	90
339.9000	78
340.0000	109
340.1000	79
340.2000	74
340.3000	96
340.4000	74
340.5000	45
