Mass spectrum: lomatin; LC-ESI-QQQ; MS; [M+H]+
Name: lomatin
Class: Benzopyranoids
Formula: C14H14O4
Exact mass: 246.2653
SMILES: CC1(C)Oc2ccc3ccc(=O)oc3c2CC1O
InChI: InChI=1S/C14H14O4/c1-14(2)11(15)7-9-10(18-14)5-3-8-4-6-12(16)17-13(8)9/h3-6,11,15H,7H2,1-2H3
Instrument: ABSciex API3200 LC/MS system
Instrument type: LC-ESI-QQQ
Ms type: MS
Ion mode: POSITIVE
Precursor type: [M+H]+
m/z	relative intensity
100.4000	21
100.5000	34
100.6000	25
100.7000	27
100.8000	26
174.3000	21
174.4000	94
174.5000	120
174.6000	145
174.7000	135
174.8000	164
174.9000	192
175.0000	143
175.1000	131
175.2000	105
175.3000	93
175.4000	53
175.5000	21
186.5000	24
186.6000	33
186.7000	30
186.8000	35
186.9000	23
187.0000	26
187.1000	29
187.2000	34
187.3000	26
200.6000	32
200.7000	29
200.8000	32
200.9000	26
201.0000	28
201.1000	23
201.2000	35
201.4000	31
228.4000	40
228.5000	108
228.6000	135
228.7000	142
228.8000	152
228.9000	156
229.0000	172
229.1000	147
229.2000	126
229.3000	136
229.4000	118
229.5000	47
229.6000	24
229.7000	25
229.8000	29
229.9000	22
230.0000	25
230.1000	21
246.2000	36
246.3000	251
246.4000	714
246.5000	848
246.6000	881
246.7000	888
246.8000	877
246.9000	909
247.0000	999
247.1000	791
247.2000	840
247.3000	785
247.4000	710
247.5000	456
247.6000	348
247.7000	300
247.8000	312
247.9000	334
248.0000	405
248.1000	263
248.2000	236
248.3000	257
248.4000	193
248.5000	89
248.6000	54
248.7000	42
248.8000	34
248.9000	32
249.0000	46
249.1000	52
249.2000	31
249.3000	57
249.4000	33
288.0000	22
288.1000	22
288.2000	24
288.3000	27
288.4000	24
492.4000	27
492.5000	48
492.6000	72
492.7000	67
492.8000	73
492.9000	86
493.0000	84
493.1000	77
493.2000	66
493.3000	67
493.4000	30
493.5000	27
493.6000	29
493.8000	25
494.0000	27
