Mass spectrum: 2,3,14,20,22,25-Hexahydroxycholest-7-en-6-one; LC-ESI-QQQ; MS; [M+H]+
Name: 2,3,14,20,22,25-Hexahydroxycholest-7-en-6-one
Class: Steroids
Formula: C27H44O7
Exact mass: 480.6475
SMILES: CC(C)(O)CC[C@H](O)[C@](C)(O)C1CC[C@@]2(O)C3=CC(=O)C4CC(O)C(O)C[C@]4(C)C3CC[C@]12C
InChI: InChI=1S/C27H44O7/c1-23(2,32)9-8-22(31)26(5,33)21-7-11-27(34)16-12-18(28)17-13-19(29)20(30)14-24(17,3)15(16)6-10-25(21,27)4/h12,15,17,19-22,29-34H,6-11,13-14H2,1-5H3/t15?,17?,19?,20?,21?,22-,24+,25+,26+,27+/m0/s1
Instrument: ABSciex API3200 LC/MS system
Instrument type: LC-ESI-QQQ
Ms type: MS
Ion mode: POSITIVE
Precursor type: [M+H]+
m/z	relative intensity
302.7000	27
302.8000	23
302.9000	26
303.0000	22
303.1000	27
303.2000	26
346.9000	22
370.5000	34
370.6000	36
370.7000	48
370.8000	64
370.9000	52
371.0000	62
371.1000	49
371.2000	61
371.3000	49
371.4000	44
371.5000	28
426.6000	50
426.7000	68
426.8000	78
426.9000	83
427.0000	98
427.1000	85
427.2000	82
427.3000	81
427.4000	70
427.5000	52
427.6000	35
427.7000	37
427.8000	27
427.9000	23
428.0000	25
428.1000	21
444.5000	41
444.6000	113
444.7000	189
444.8000	225
444.9000	260
445.0000	231
445.1000	263
445.2000	250
445.3000	233
445.4000	206
445.5000	158
445.6000	71
445.7000	71
445.8000	78
445.9000	77
446.0000	81
446.1000	151
446.2000	93
446.3000	76
446.4000	62
446.5000	43
462.6000	56
462.7000	124
462.8000	149
462.9000	163
463.0000	171
463.1000	161
463.2000	157
463.3000	160
463.4000	141
463.5000	106
463.6000	80
463.7000	49
463.8000	48
463.9000	57
464.0000	50
464.1000	56
464.2000	42
464.3000	48
464.4000	43
464.5000	30
480.5000	48
480.6000	152
480.7000	326
480.8000	473
480.9000	501
481.0000	526
481.1000	536
481.2000	784
481.3000	999
481.4000	531
481.5000	258
481.6000	109
481.7000	117
481.8000	121
481.9000	129
482.0000	132
482.1000	126
482.2000	141
482.3000	134
482.4000	120
482.5000	94
482.6000	33
482.7000	33
482.8000	32
482.9000	46
483.0000	34
483.1000	34
483.2000	30
483.3000	31
483.4000	27
483.5000	21
496.7000	27
496.8000	36
496.9000	29
497.0000	30
497.1000	29
497.2000	30
497.3000	30
497.4000	25
497.7000	24
497.8000	30
497.9000	38
498.0000	41
498.1000	38
498.2000	32
498.3000	28
498.4000	27
498.9000	25
521.6000	23
521.7000	66
521.8000	88
521.9000	91
522.0000	107
522.1000	110
522.2000	117
522.3000	104
522.4000	87
522.5000	66
522.6000	30
522.7000	34
522.8000	34
522.9000	38
523.0000	33
523.1000	80
523.2000	36
523.3000	24
523.4000	23
942.8000	22
942.9000	43
943.0000	30
943.1000	35
943.2000	30
943.3000	29
943.4000	36
943.5000	26
943.6000	23
943.7000	23
960.6000	46
960.7000	67
960.8000	83
960.9000	86
961.0000	95
961.1000	91
961.2000	102
961.3000	103
961.4000	96
961.5000	94
961.6000	81
961.7000	62
961.8000	49
961.9000	56
962.0000	59
962.1000	62
962.2000	57
962.3000	68
962.4000	61
962.5000	53
962.6000	38
962.7000	25
963.1000	25
963.2000	23
963.3000	21
