Mass spectrum: Yuccagenin; LC-ESI-QQQ; MS; [M+H]+
Name: Yuccagenin
Class: Steroids
Formula: C27H42O4
Exact mass: 430.6334
SMILES: CC1CC[C@@]2(OC1)OC1CC3C4CC=C5CC(O)[C@H](O)C[C@]5(C)C4CC[C@]3(C)C1[C@@H]2C
InChI: InChI=1S/C27H42O4/c1-15-7-10-27(30-14-15)16(2)24-23(31-27)12-20-18-6-5-17-11-21(28)22(29)13-26(17,4)19(18)8-9-25(20,24)3/h5,15-16,18-24,28-29H,6-14H2,1-4H3/t15?,16-,18?,19?,20?,21?,22+,23?,24?,25-,26-,27+/m0/s1
Instrument: ABSciex API3200 LC/MS system
Instrument type: LC-ESI-QQQ
Ms type: MS
Ion mode: POSITIVE
Precursor type: [M+H]+
m/z	relative intensity
100.0000	69
100.1000	37
100.2000	29
100.7000	83
100.8000	75
100.9000	104
101.0000	28
101.1000	184
101.2000	70
101.3000	30
102.4000	28
115.1000	21
118.3000	25
121.0000	33
121.1000	88
133.5000	23
135.1000	22
141.0000	22
141.4000	156
141.5000	479
141.6000	543
141.7000	593
141.8000	496
141.9000	462
142.0000	999
142.1000	185
142.2000	156
142.3000	205
142.4000	117
142.5000	61
143.4000	30
143.5000	32
148.5000	21
148.6000	92
148.9000	70
149.1000	49
149.2000	40
149.3000	67
149.4000	74
149.9000	22
154.6000	26
154.7000	22
154.8000	36
155.4000	21
166.6000	35
167.0000	22
173.0000	42
173.2000	22
194.3000	21
198.7000	33
198.9000	26
220.9000	23
238.6000	24
268.5000	30
268.7000	58
268.8000	44
268.9000	112
269.0000	66
269.1000	26
269.2000	28
269.3000	27
269.4000	38
269.5000	21
270.7000	21
278.8000	27
286.5000	32
286.6000	46
286.7000	264
286.8000	607
286.9000	125
287.0000	92
287.1000	29
287.2000	104
287.3000	87
287.4000	44
287.5000	33
287.6000	24
287.7000	33
287.9000	27
288.0000	24
299.1000	29
299.4000	38
299.5000	25
335.9000	21
336.0000	30
394.7000	32
394.8000	46
394.9000	48
395.0000	43
395.1000	54
395.5000	31
395.9000	35
412.5000	31
412.6000	28
412.7000	209
412.8000	355
412.9000	233
413.0000	255
413.1000	276
413.2000	296
413.3000	268
413.4000	204
413.5000	264
413.6000	138
413.7000	116
413.8000	62
413.9000	45
414.0000	120
414.1000	70
414.2000	101
414.3000	115
414.4000	104
414.5000	46
414.6000	38
414.7000	30
415.4000	25
430.5000	24
430.6000	116
430.7000	275
430.8000	309
430.9000	270
431.0000	356
431.1000	296
431.2000	318
431.3000	287
431.4000	984
431.5000	465
431.6000	139
431.7000	82
431.8000	52
431.9000	63
432.0000	65
432.1000	51
432.2000	32
432.3000	94
432.4000	67
432.5000	26
432.6000	45
432.8000	25
433.0000	35
433.2000	22
448.3000	26
448.7000	21
449.3000	24
471.6000	42
471.8000	55
471.9000	118
472.0000	69
472.1000	72
472.2000	79
472.3000	119
472.4000	80
472.5000	63
472.6000	44
472.7000	42
472.8000	41
472.9000	26
473.1000	51
473.3000	29
473.4000	22
