Mass spectrum: O-Methylcassyfiline; LC-ESI-QQQ; MS; [M+H]+
Name: O-Methylcassyfiline
Class: Alkaloids
Formula: C20H21NO5
Exact mass: 355.3941
SMILES: COc1cc2c(cc1OC)-c1c3c(c(OC)c4c1C(C2)NCC4)OCO3
InChI: InChI=1S/C20H21NO5/c1-22-14-7-10-6-13-16-11(4-5-21-13)18(24-3)20-19(25-9-26-20)17(16)12(10)8-15(14)23-2/h7-8,13,21H,4-6,9H2,1-3H3
Instrument: ABSciex API3200 LC/MS system
Instrument type: LC-ESI-QQQ
Ms type: MS
Ion mode: POSITIVE
Precursor type: [M+H]+
m/z	relative intensity
249.5000	21
249.6000	27
249.7000	32
249.8000	33
249.9000	30
250.0000	29
250.1000	29
250.2000	30
250.3000	26
250.4000	27
250.6000	21
250.8000	21
254.4000	23
254.5000	38
254.6000	42
254.7000	37
254.8000	42
254.9000	40
255.0000	43
255.1000	43
255.2000	37
255.3000	35
255.4000	39
263.1000	22
263.2000	22
265.5000	30
265.6000	32
265.7000	34
265.8000	36
265.9000	35
266.0000	39
266.1000	39
266.2000	35
266.3000	27
266.4000	25
268.2000	21
268.4000	25
268.5000	27
268.6000	30
268.7000	38
268.8000	41
268.9000	38
269.0000	38
269.1000	37
269.2000	33
269.3000	30
269.4000	29
270.6000	21
270.7000	25
270.8000	24
270.9000	28
271.0000	27
271.1000	28
271.2000	24
271.3000	21
276.6000	23
276.7000	23
276.8000	23
277.0000	23
277.1000	21
277.2000	22
277.3000	21
277.6000	22
277.7000	23
277.8000	30
277.9000	27
278.0000	26
278.1000	27
278.2000	22
278.6000	25
279.0000	21
280.4000	24
280.5000	52
280.6000	63
280.7000	73
280.8000	77
280.9000	82
281.0000	78
281.1000	76
281.2000	76
281.3000	89
281.4000	65
281.5000	34
281.6000	22
281.7000	21
282.0000	24
292.8000	22
293.6000	25
293.7000	26
293.8000	27
293.9000	30
294.0000	30
294.1000	28
294.2000	24
294.3000	21
296.7000	21
296.8000	25
296.9000	26
297.0000	26
297.1000	24
297.2000	26
307.5000	47
307.6000	75
307.7000	77
307.8000	87
307.9000	87
308.0000	88
308.1000	90
308.2000	102
308.3000	78
308.4000	162
308.5000	297
308.6000	439
308.7000	508
308.8000	478
308.9000	459
309.0000	447
309.1000	445
309.2000	409
309.3000	377
309.4000	352
309.5000	188
309.6000	122
309.7000	123
309.8000	104
309.9000	109
310.0000	116
310.1000	117
310.2000	99
310.3000	92
310.4000	78
310.5000	40
310.6000	34
310.7000	30
310.8000	29
310.9000	35
311.0000	34
311.1000	34
311.2000	30
311.3000	22
311.4000	24
312.6000	21
312.8000	23
312.9000	23
313.0000	21
313.2000	21
314.2000	21
323.5000	42
323.6000	60
323.7000	62
323.8000	65
323.9000	59
324.0000	61
324.1000	57
324.2000	55
324.3000	49
324.4000	32
326.8000	21
326.9000	21
327.8000	22
327.9000	22
328.0000	21
328.1000	25
328.2000	23
331.7000	21
331.9000	23
332.0000	25
338.3000	104
338.4000	454
338.5000	813
338.6000	970
338.7000	985
338.8000	981
338.9000	999
339.0000	992
339.1000	938
339.2000	797
339.3000	749
339.4000	655
339.5000	393
339.6000	353
339.7000	367
339.8000	350
339.9000	365
340.0000	378
340.1000	383
340.2000	358
340.3000	325
340.4000	258
340.5000	135
340.6000	105
340.7000	91
340.8000	74
340.9000	77
341.0000	73
341.1000	76
341.2000	70
341.3000	58
341.4000	47
343.6000	35
343.7000	41
343.8000	44
343.9000	46
344.0000	42
344.1000	42
344.2000	40
344.3000	35
344.4000	25
355.3000	48
355.4000	301
355.5000	619
355.6000	779
355.7000	815
355.8000	833
355.9000	828
356.0000	791
356.1000	760
356.2000	718
356.3000	682
356.4000	615
356.5000	363
356.6000	287
356.7000	298
356.8000	272
356.9000	284
357.0000	287
357.1000	293
357.2000	262
357.3000	231
357.4000	203
357.5000	88
357.6000	60
357.7000	56
357.8000	57
357.9000	53
358.0000	55
358.1000	54
358.2000	56
358.3000	50
358.4000	40
359.5000	26
359.6000	36
359.7000	40
359.8000	39
359.9000	42
360.0000	39
360.1000	39
360.2000	40
360.3000	33
360.4000	36
396.6000	33
396.7000	47
396.8000	50
396.9000	51
397.0000	47
397.1000	42
397.2000	40
397.3000	38
397.4000	32
710.6000	22
710.7000	27
710.8000	30
710.9000	35
711.0000	31
711.1000	33
711.2000	31
711.3000	22
712.1000	21
