Mass spectrum: 9,10,16-Trihydroxyhexadecanoic acid; LC-ESI-QQQ; MS; [M+H]+
Name: 9,10,16-Trihydroxyhexadecanoic acid
Class: Aliphatic natural products
Formula: C16H32O5
Exact mass: 304.4304
SMILES: O=C(O)CCCCCCCC(O)C(O)CCCCCCO
InChI: InChI=1S/C16H32O5/c17-13-9-5-4-7-11-15(19)14(18)10-6-2-1-3-8-12-16(20)21/h14-15,17-19H,1-13H2,(H,20,21)
Instrument: ABSciex API3200 LC/MS system
Instrument type: LC-ESI-QQQ
Ms type: MS
Ion mode: POSITIVE
Precursor type: [M+H]+
m/z	relative intensity
108.5000	30
108.6000	44
108.7000	51
108.8000	54
108.9000	65
109.0000	71
109.1000	44
109.2000	71
109.3000	59
109.4000	59
109.5000	42
120.9000	30
121.1000	32
121.2000	27
122.6000	27
122.7000	32
122.8000	28
122.9000	26
123.0000	43
123.1000	41
123.2000	25
123.3000	21
123.5000	42
123.6000	21
132.8000	60
132.9000	38
136.9000	21
150.5000	21
195.0000	26
214.5000	114
214.8000	21
214.9000	27
215.0000	30
215.1000	31
215.2000	40
215.3000	30
215.4000	28
215.5000	37
232.7000	44
232.8000	76
232.9000	68
233.0000	70
233.1000	77
233.2000	68
233.3000	65
233.4000	70
233.5000	56
250.4000	41
250.5000	338
250.6000	502
250.7000	648
250.8000	609
250.9000	604
251.0000	607
251.1000	585
251.2000	568
251.3000	515
251.4000	599
251.5000	498
251.6000	216
251.7000	160
251.8000	145
251.9000	119
252.0000	128
252.1000	126
252.2000	100
252.3000	98
252.4000	95
252.5000	73
252.6000	30
268.4000	103
268.5000	275
268.6000	471
268.7000	525
268.8000	556
268.9000	541
269.0000	544
269.1000	546
269.2000	492
269.3000	415
269.4000	458
269.5000	324
269.6000	177
269.7000	158
269.8000	84
269.9000	93
270.0000	96
270.1000	101
270.2000	92
270.3000	130
270.4000	125
270.5000	65
270.6000	28
270.7000	23
286.5000	32
286.6000	273
286.8000	27
286.9000	35
287.0000	30
287.1000	54
287.2000	57
287.3000	56
287.4000	32
287.5000	44
304.4000	219
304.5000	495
304.6000	744
304.7000	891
304.8000	972
304.9000	974
305.0000	999
305.1000	875
305.2000	891
305.3000	987
305.4000	688
305.5000	707
305.6000	563
305.7000	668
305.8000	168
305.9000	183
306.0000	182
306.1000	201
306.2000	181
306.3000	199
306.4000	155
306.5000	132
306.6000	45
306.7000	54
306.8000	60
306.9000	46
307.0000	32
307.1000	36
307.2000	33
307.4000	29
307.5000	22
321.6000	33
321.7000	41
321.8000	61
321.9000	62
322.0000	64
322.1000	47
322.2000	64
322.3000	59
322.4000	40
322.5000	49
322.6000	21
608.5000	26
608.6000	101
608.7000	204
608.8000	207
608.9000	230
609.0000	267
609.1000	287
609.2000	236
609.3000	258
609.4000	263
609.5000	211
609.6000	97
609.7000	101
609.8000	105
609.9000	124
610.0000	134
610.1000	96
610.2000	99
610.3000	89
610.4000	77
610.5000	65
610.6000	26
610.8000	24
610.9000	27
611.0000	23
611.2000	23
625.9000	21
626.0000	23
626.1000	23
626.5000	21
627.3000	21
