Mass spectrum: osthol; LC-ESI-QQQ; MS; [M+H]+
Name: osthol
Class: Benzopyranoids
Formula: C15H16O3
Exact mass: 244.293
SMILES: COc1ccc2ccc(=O)oc2c1CC=C(C)C
InChI: InChI=1S/C15H16O3/c1-10(2)4-7-12-13(17-3)8-5-11-6-9-14(16)18-15(11)12/h4-6,8-9H,7H2,1-3H3
Instrument: ABSciex API3200 LC/MS system
Instrument type: LC-ESI-QQQ
Ms type: MS
Ion mode: POSITIVE
Precursor type: [M+H]+
m/z	relative intensity
102.6000	26
102.7000	31
102.8000	29
102.9000	31
103.0000	27
103.1000	30
105.4000	21
130.4000	136
130.5000	266
130.6000	371
130.7000	326
130.8000	366
130.9000	389
131.0000	368
131.1000	355
131.2000	344
131.3000	294
131.4000	295
131.5000	133
131.6000	68
131.7000	60
131.8000	62
131.9000	60
132.0000	62
132.1000	68
132.2000	88
132.3000	47
132.4000	49
132.5000	30
132.7000	21
132.8000	27
132.9000	25
158.4000	33
158.5000	66
158.6000	87
158.7000	61
158.8000	202
158.9000	240
159.0000	36
159.1000	36
159.2000	43
159.3000	30
159.4000	28
160.4000	37
160.5000	65
160.6000	46
160.7000	134
160.8000	65
160.9000	32
161.0000	65
161.1000	25
161.2000	30
161.3000	26
161.4000	26
188.1000	23
188.2000	74
188.3000	477
188.4000	843
188.5000	927
188.6000	957
188.7000	980
188.8000	999
188.9000	997
189.0000	949
189.1000	964
189.2000	943
189.3000	880
189.4000	771
189.5000	478
189.6000	326
189.7000	281
189.8000	316
189.9000	320
190.0000	291
190.1000	311
190.2000	273
190.3000	248
190.4000	232
190.5000	73
190.6000	50
190.7000	46
190.8000	42
190.9000	38
191.0000	35
191.1000	36
191.2000	24
191.3000	26
191.4000	30
202.6000	28
202.7000	24
202.8000	30
202.9000	28
203.0000	28
203.1000	29
203.2000	25
203.3000	22
203.4000	24
218.6000	23
218.7000	30
218.8000	28
218.9000	36
219.0000	30
219.1000	31
219.2000	27
219.3000	28
244.2000	40
244.3000	81
244.4000	394
244.5000	647
244.6000	744
244.7000	730
244.8000	737
244.9000	737
245.0000	747
245.1000	798
245.2000	724
245.3000	724
245.4000	707
245.5000	473
245.6000	310
245.7000	254
245.8000	271
245.9000	287
246.0000	289
246.1000	246
246.2000	243
246.3000	256
246.4000	235
246.5000	126
246.6000	49
246.7000	43
246.8000	40
246.9000	38
247.0000	42
247.1000	36
247.2000	39
247.3000	27
247.4000	22
