Mass spectrum: Tschimganin; LC-ESI-QQQ; MS; [M+H]+
Name: Tschimganin
Class: Terpenoids
Formula: C18H24O4
Exact mass: 304.3896
SMILES: COc1cc(C(=O)OC2CC3CCC2(C)C3(C)C)ccc1O
InChI: InChI=1S/C18H24O4/c1-17(2)12-7-8-18(17,3)15(10-12)22-16(20)11-5-6-13(19)14(9-11)21-4/h5-6,9,12,15,19H,7-8,10H2,1-4H3
Instrument: ABSciex API3200 LC/MS system
Instrument type: LC-ESI-QQQ
Ms type: MS
Ion mode: POSITIVE
Precursor type: [M+H]+
m/z	relative intensity
136.4000	21
136.5000	294
136.6000	512
136.7000	875
136.8000	999
136.9000	809
137.0000	890
137.1000	864
137.2000	820
137.3000	764
137.4000	659
137.5000	558
137.6000	250
137.7000	174
137.8000	111
137.9000	112
138.0000	118
138.1000	102
138.2000	93
138.3000	89
138.4000	82
138.5000	55
168.4000	21
168.5000	27
168.6000	35
168.7000	40
168.8000	33
168.9000	36
169.0000	28
169.1000	33
169.2000	26
169.3000	27
304.4000	51
304.5000	146
304.6000	232
304.7000	308
304.8000	331
304.9000	350
305.0000	348
305.1000	353
305.2000	328
305.3000	308
305.4000	304
305.5000	177
305.6000	97
305.7000	95
305.8000	103
305.9000	84
306.0000	79
306.1000	75
306.2000	65
306.3000	69
306.4000	46
306.5000	27
345.7000	31
345.8000	27
345.9000	25
346.0000	26
346.1000	30
346.2000	69
346.3000	33
346.4000	21
608.6000	24
608.7000	29
608.8000	39
608.9000	43
609.0000	51
609.1000	39
609.2000	40
609.3000	36
609.4000	27
