Mass spectrum: Scopolamine; LC-ESI-QQQ; MS; [M+H]+
Name: Scopolamine
Class: Alkaloids
Formula: C17H21NO4
Exact mass: 303.3612
SMILES: CN1C2CC(OC(=O)C(CO)c3ccccc3)CC1[C@H]1OC21
InChI: InChI=1S/C17H21NO4/c1-18-13-7-11(8-14(18)16-15(13)22-16)21-17(20)12(9-19)10-5-3-2-4-6-10/h2-6,11-16,19H,7-9H2,1H3/t11?,12?,13?,14?,15-,16?/m1/s1
Instrument: ABSciex API3200 LC/MS system
Instrument type: LC-ESI-QQQ
Ms type: MS
Ion mode: POSITIVE
Precursor type: [M+H]+
m/z	relative intensity
102.5000	26
102.6000	39
102.7000	34
102.8000	45
102.9000	48
103.0000	44
103.1000	61
103.2000	49
103.3000	37
103.4000	30
109.5000	33
109.6000	54
109.7000	107
109.8000	58
109.9000	99
110.0000	109
110.1000	81
110.2000	51
110.3000	50
110.4000	34
110.5000	26
119.9000	29
120.4000	27
120.5000	65
120.6000	97
120.7000	91
120.8000	84
120.9000	89
121.0000	100
121.1000	87
121.2000	81
121.3000	70
121.4000	71
121.5000	41
137.4000	114
137.5000	242
137.6000	310
137.7000	406
137.8000	386
137.9000	412
138.0000	398
138.1000	425
138.2000	351
138.3000	298
138.4000	196
138.5000	134
138.6000	51
138.7000	31
138.8000	36
138.9000	27
139.0000	30
139.1000	40
139.2000	27
139.3000	35
139.4000	21
155.4000	47
155.5000	220
155.6000	373
155.7000	429
155.8000	469
155.9000	497
156.0000	461
156.1000	472
156.2000	433
156.3000	390
156.4000	337
156.5000	185
156.6000	74
156.7000	36
156.8000	39
156.9000	37
157.0000	52
157.1000	47
157.2000	34
157.3000	43
157.4000	36
157.5000	24
303.3000	61
303.4000	282
303.5000	566
303.6000	848
303.7000	979
303.8000	961
303.9000	969
304.0000	955
304.1000	999
304.2000	979
304.3000	912
304.4000	925
304.5000	482
304.6000	398
304.7000	386
304.8000	341
304.9000	349
305.0000	344
305.1000	344
305.2000	350
305.3000	269
305.4000	259
305.5000	152
305.6000	71
305.7000	64
305.8000	46
305.9000	49
306.0000	55
306.1000	44
306.2000	37
306.3000	40
306.4000	31
