Mass spectrum: Galbanic acid; LC-ESI-QQQ; MS; [M+H]+
Name: Galbanic acid
Class: Benzopyranoids
Formula: C24H30O5
Exact mass: 398.5037
SMILES: CC(C)=C1CC[C@H](C)[C@](C)(COc2ccc3ccc(=O)oc3c2)[C@H]1CCC(=O)O
InChI: InChI=1S/C24H30O5/c1-15(2)19-9-5-16(3)24(4,20(19)10-11-22(25)26)14-28-18-8-6-17-7-12-23(27)29-21(17)13-18/h6-8,12-13,16,20H,5,9-11,14H2,1-4H3,(H,25,26)/t16-,20-,24-/m0/s1
Instrument: ABSciex API3200 LC/MS system
Instrument type: LC-ESI-QQQ
Ms type: MS
Ion mode: POSITIVE
Precursor type: [M+H]+
m/z	relative intensity
106.6000	24
108.7000	51
108.8000	107
108.9000	68
109.0000	22
109.5000	21
118.4000	33
120.7000	35
122.5000	24
122.8000	28
133.1000	30
148.9000	28
149.3000	21
152.5000	22
152.7000	34
152.8000	25
152.9000	29
153.0000	27
153.1000	31
153.2000	34
153.3000	33
160.7000	25
160.8000	22
162.4000	172
162.5000	273
162.6000	370
162.7000	291
162.8000	365
162.9000	476
163.0000	411
163.1000	424
163.2000	354
163.3000	291
163.4000	222
163.5000	101
163.6000	43
163.7000	44
163.8000	37
163.9000	52
164.0000	36
164.1000	39
164.2000	27
164.3000	27
166.6000	30
166.7000	51
166.8000	50
166.9000	57
167.0000	35
167.1000	27
167.2000	49
167.3000	40
167.4000	34
176.8000	29
176.9000	32
177.2000	28
177.4000	23
180.4000	27
180.5000	78
180.6000	86
180.7000	88
180.8000	112
180.9000	116
181.0000	90
181.1000	83
181.2000	99
181.3000	82
181.4000	114
181.5000	63
181.9000	27
188.3000	22
188.4000	63
188.5000	114
188.6000	106
188.7000	156
188.8000	132
188.9000	162
189.0000	122
189.1000	179
189.2000	182
189.3000	153
189.4000	146
189.5000	60
189.6000	36
189.7000	30
189.8000	33
189.9000	30
190.1000	26
200.8000	26
200.9000	21
201.1000	22
201.2000	25
218.5000	25
218.7000	40
218.8000	63
218.9000	27
219.0000	45
219.1000	34
219.2000	46
219.3000	34
219.4000	29
219.5000	32
236.4000	49
236.5000	111
236.6000	281
236.7000	66
236.8000	158
236.9000	149
237.0000	247
237.1000	188
237.2000	201
237.3000	193
237.4000	204
237.5000	141
237.6000	74
237.7000	53
237.8000	34
237.9000	30
238.0000	26
238.1000	39
238.2000	36
238.3000	28
238.4000	30
238.5000	27
380.6000	26
380.7000	43
380.8000	28
380.9000	28
381.0000	30
381.2000	58
381.3000	30
381.4000	26
398.3000	79
398.4000	290
398.5000	557
398.6000	732
398.7000	872
398.8000	928
398.9000	882
399.0000	913
399.1000	937
399.2000	934
399.3000	999
399.4000	772
399.5000	525
399.6000	371
399.7000	355
399.8000	319
399.9000	334
400.0000	351
400.1000	334
400.2000	351
400.3000	308
400.4000	286
400.5000	112
400.6000	99
400.7000	88
400.8000	85
400.9000	76
401.0000	57
401.1000	55
401.2000	115
401.3000	55
401.4000	41
415.5000	32
415.6000	52
415.7000	51
415.8000	59
415.9000	78
416.0000	49
416.1000	57
416.2000	47
416.3000	55
416.4000	53
416.5000	22
416.6000	28
416.7000	33
416.8000	29
417.0000	32
417.1000	25
417.2000	22
417.3000	22
439.5000	28
439.6000	30
439.7000	51
439.8000	68
439.9000	56
440.0000	52
440.1000	58
440.2000	43
440.3000	33
440.4000	40
440.5000	21
796.4000	27
796.5000	52
796.6000	111
796.7000	140
796.8000	149
796.9000	162
797.0000	143
797.1000	177
797.2000	156
797.3000	134
797.4000	110
797.5000	93
797.6000	60
797.7000	92
797.8000	75
797.9000	83
798.0000	85
798.1000	94
798.2000	90
798.3000	76
798.4000	62
798.5000	28
798.6000	37
798.7000	36
798.8000	34
798.9000	23
799.0000	37
799.1000	32
799.2000	26
799.3000	34
799.4000	29
813.6000	37
813.7000	30
813.8000	46
813.9000	29
814.0000	39
814.1000	26
814.2000	37
814.3000	37
814.4000	40
815.1000	21
815.2000	21
815.3000	23
