Mass spectrum: 19,28-Epoxy-3-oleananol; LC-ESI-QQQ; MS; [M+H]+
Name: 19,28-Epoxy-3-oleananol
Class: Terpenoids
Formula: C30H50O2
Exact mass: 442.7318
SMILES: CC1(C)CCC23CC[C@]4(C)C(CCC5[C@@]6(C)CCC(O)C(C)(C)C6CC[C@]54C)C2C1OC3
InChI: InChI=1S/C30H50O2/c1-25(2)14-16-30-17-15-28(6)19(23(30)24(25)32-18-30)8-9-21-27(5)12-11-22(31)26(3,4)20(27)10-13-29(21,28)7/h19-24,31H,8-18H2,1-7H3/t19?,20?,21?,22?,23?,24?,27-,28+,29+,30?/m0/s1
Instrument: ABSciex API3200 LC/MS system
Instrument type: LC-ESI-QQQ
Ms type: MS
Ion mode: POSITIVE
Precursor type: [M+H]+
m/z	relative intensity
100.0000	42
100.1000	108
100.3000	219
100.4000	137
101.0000	146
101.5000	31
102.0000	41
102.6000	42
102.9000	30
103.0000	36
103.4000	36
103.6000	33
105.6000	45
105.7000	21
105.9000	21
107.1000	34
107.7000	22
108.2000	26
108.6000	26
108.8000	42
109.1000	110
109.3000	61
110.1000	21
110.2000	55
111.3000	65
111.7000	73
112.1000	66
112.2000	91
112.5000	90
112.7000	36
113.6000	37
113.8000	109
114.0000	76
114.1000	160
114.3000	88
114.4000	96
115.1000	38
116.0000	60
116.1000	45
116.4000	31
116.9000	54
117.2000	26
117.8000	71
118.2000	44
119.3000	26
119.5000	24
119.7000	36
120.4000	44
120.5000	44
120.7000	25
121.1000	81
121.6000	31
121.9000	41
122.8000	48
123.4000	68
123.6000	34
123.7000	32
123.9000	24
124.0000	38
124.2000	34
124.4000	24
124.6000	36
125.7000	95
125.9000	85
126.1000	61
126.2000	35
126.3000	63
126.6000	41
126.8000	68
127.1000	53
127.4000	22
127.7000	26
127.8000	38
128.1000	45
128.2000	73
128.4000	38
128.7000	36
129.0000	85
129.9000	120
131.2000	60
131.6000	26
132.0000	36
132.2000	26
133.3000	46
133.5000	41
134.4000	114
134.5000	102
134.6000	66
134.8000	34
135.2000	75
135.3000	55
135.5000	73
135.8000	37
136.0000	54
136.3000	39
136.9000	26
137.8000	24
138.1000	36
138.7000	45
138.8000	48
139.1000	21
141.4000	34
141.8000	34
141.9000	45
142.0000	21
142.4000	94
142.8000	36
142.9000	45
143.3000	21
143.5000	36
143.9000	58
144.1000	24
144.5000	32
144.8000	33
144.9000	84
145.2000	28
145.4000	22
145.5000	46
145.8000	28
146.1000	26
146.3000	33
146.6000	28
146.8000	73
147.0000	70
147.1000	21
147.2000	28
148.7000	27
149.2000	192
149.3000	67
149.4000	57
150.1000	26
150.6000	36
151.0000	61
151.4000	43
151.7000	28
153.3000	28
154.1000	26
154.2000	26
154.6000	26
154.7000	21
155.0000	35
156.3000	34
156.6000	36
156.9000	31
158.5000	21
158.8000	21
160.0000	26
160.5000	60
160.7000	26
161.0000	60
161.1000	48
162.5000	70
162.7000	53
162.8000	41
163.0000	65
163.1000	21
163.2000	21
163.3000	38
163.4000	36
163.5000	21
164.7000	36
165.5000	33
166.6000	81
166.7000	30
167.0000	57
167.6000	28
168.0000	38
168.2000	36
170.6000	38
170.7000	45
171.0000	38
171.8000	94
172.5000	21
173.5000	21
175.2000	55
175.3000	38
175.8000	33
176.3000	33
176.6000	41
176.7000	54
176.8000	29
176.9000	85
177.3000	75
177.4000	48
177.8000	53
178.0000	53
178.4000	43
178.5000	31
178.7000	31
179.1000	87
179.3000	28
180.9000	38
181.1000	26
181.8000	28
182.7000	26
183.3000	36
184.5000	43
184.6000	63
185.6000	33
186.8000	21
187.3000	50
187.5000	77
187.9000	34
188.0000	63
188.2000	43
188.3000	26
188.6000	36
188.7000	50
189.2000	21
189.3000	45
189.8000	31
190.1000	45
190.3000	24
190.6000	73
190.7000	234
190.8000	212
190.9000	272
191.0000	232
191.1000	261
191.2000	134
191.3000	266
191.4000	266
191.5000	138
191.6000	36
191.7000	90
191.8000	28
191.9000	28
192.1000	53
192.2000	43
192.4000	43
192.5000	80
192.6000	36
192.7000	53
193.2000	77
193.5000	24
193.9000	36
195.6000	24
195.9000	21
196.1000	24
196.3000	65
196.4000	95
197.1000	33
197.3000	63
197.5000	75
198.6000	29
198.7000	134
198.8000	119
198.9000	116
199.3000	33
199.9000	38
201.0000	46
201.3000	75
202.6000	55
202.9000	65
203.0000	38
203.1000	28
203.2000	36
203.3000	45
203.5000	33
204.5000	77
204.6000	26
204.7000	28
204.8000	26
204.9000	104
205.1000	28
205.3000	70
205.4000	43
205.8000	26
206.8000	41
206.9000	38
207.3000	26
207.5000	73
209.0000	63
209.2000	28
209.7000	67
211.8000	26
212.2000	33
212.7000	33
213.8000	33
214.6000	34
214.8000	21
215.2000	36
216.5000	55
216.6000	24
216.7000	214
216.8000	71
216.9000	164
217.0000	181
217.1000	95
217.2000	220
217.3000	164
217.4000	26
217.6000	36
217.7000	128
218.3000	33
218.4000	26
218.9000	33
219.7000	33
220.4000	134
220.5000	52
220.6000	51
220.7000	116
220.9000	166
221.0000	82
221.1000	82
221.2000	183
221.3000	152
221.4000	48
221.5000	65
221.6000	82
221.7000	80
221.9000	38
222.1000	53
222.2000	36
222.6000	82
222.7000	48
222.8000	68
223.4000	36
223.9000	36
224.6000	50
225.0000	36
225.1000	26
225.3000	28
225.8000	26
226.7000	75
226.8000	22
227.1000	75
227.2000	55
227.4000	53
230.1000	26
230.9000	53
231.2000	26
232.7000	65
232.8000	31
233.1000	24
233.3000	41
233.4000	21
234.1000	43
234.6000	138
234.7000	227
234.8000	165
234.9000	138
235.0000	131
235.1000	190
235.2000	148
235.3000	48
235.4000	148
235.5000	114
235.6000	119
235.9000	26
236.0000	43
236.1000	50
236.4000	43
237.2000	45
238.5000	61
239.2000	35
239.3000	26
240.1000	38
240.4000	80
240.6000	28
241.1000	36
241.7000	63
242.3000	45
243.1000	28
243.2000	36
243.5000	26
244.8000	33
245.2000	80
245.4000	48
245.5000	50
246.0000	33
246.6000	45
246.8000	36
247.2000	55
247.3000	63
247.6000	21
247.8000	97
248.0000	38
248.8000	21
248.9000	28
249.1000	38
249.5000	43
250.4000	28
250.6000	21
252.5000	60
252.7000	36
252.8000	24
253.3000	36
254.4000	45
254.9000	21
255.4000	121
256.1000	31
257.0000	36
257.4000	26
257.5000	26
257.6000	26
257.8000	21
258.2000	26
258.8000	43
259.4000	26
260.6000	55
261.6000	73
262.0000	26
262.1000	127
262.2000	36
262.7000	28
263.1000	70
263.4000	38
263.5000	55
263.6000	60
263.8000	26
263.9000	38
264.4000	36
264.5000	60
266.0000	26
266.5000	48
266.8000	55
266.9000	31
267.0000	51
267.3000	48
267.8000	36
268.1000	60
268.5000	21
268.7000	36
269.6000	45
269.7000	28
269.8000	31
269.9000	28
270.7000	28
270.9000	36
271.6000	33
272.0000	50
272.6000	43
273.0000	26
274.4000	33
274.9000	36
275.2000	26
275.4000	33
276.6000	26
279.9000	123
280.3000	57
280.4000	44
280.7000	128
280.8000	69
280.9000	40
281.0000	37
281.1000	96
281.2000	25
281.3000	48
281.4000	99
281.9000	42
282.0000	32
282.1000	108
282.3000	56
282.4000	168
282.5000	36
282.9000	35
283.0000	89
283.1000	78
283.3000	178
283.8000	97
284.3000	75
284.4000	26
284.5000	21
284.8000	28
284.9000	24
285.0000	21
285.6000	26
285.9000	28
286.2000	33
286.8000	26
286.9000	24
287.2000	28
288.4000	67
289.3000	70
291.1000	41
291.3000	28
292.4000	43
293.1000	38
294.4000	48
294.7000	44
294.9000	32
295.0000	35
295.2000	82
295.6000	26
296.5000	63
296.6000	26
296.7000	34
297.0000	41
298.1000	31
298.3000	38
298.5000	25
298.8000	105
299.1000	49
299.2000	82
299.3000	30
299.5000	55
299.8000	28
300.3000	28
300.7000	60
300.9000	21
303.7000	33
304.4000	50
305.2000	21
305.6000	26
307.6000	38
307.7000	41
307.8000	31
307.9000	55
308.0000	55
308.2000	28
308.8000	24
308.9000	87
309.0000	24
309.1000	21
309.2000	24
309.9000	26
310.0000	36
310.1000	26
310.4000	50
310.6000	43
311.5000	28
311.9000	24
312.1000	56
312.2000	58
312.4000	31
313.2000	38
313.7000	36
313.9000	26
314.9000	36
315.9000	26
316.3000	50
316.6000	26
319.2000	26
320.8000	21
321.3000	29
321.5000	256
321.6000	103
321.7000	85
321.8000	161
321.9000	34
322.1000	70
322.2000	34
322.3000	68
322.4000	98
322.7000	34
323.2000	41
323.4000	21
323.5000	28
323.6000	63
323.8000	31
323.9000	80
324.0000	63
324.1000	45
324.3000	55
324.7000	38
325.1000	28
325.3000	28
325.6000	53
326.2000	80
326.5000	35
326.6000	152
326.7000	118
326.8000	256
326.9000	205
327.0000	109
327.1000	56
327.2000	118
327.3000	201
327.4000	178
327.5000	166
327.6000	53
327.8000	87
327.9000	73
328.0000	45
328.9000	36
330.7000	33
331.3000	26
331.6000	33
334.6000	50
335.2000	26
335.4000	87
336.7000	81
336.8000	21
339.8000	26
340.1000	36
340.2000	50
340.5000	36
340.9000	81
341.1000	68
341.2000	34
341.6000	48
342.3000	36
343.9000	26
344.8000	26
348.5000	26
353.2000	26
354.0000	21
354.3000	152
354.4000	468
354.5000	479
354.6000	508
354.7000	778
354.8000	665
354.9000	657
355.0000	999
355.1000	859
355.2000	216
355.3000	562
355.4000	137
355.5000	239
355.6000	233
355.7000	92
355.8000	271
355.9000	247
356.0000	233
356.1000	99
356.2000	438
356.3000	242
356.4000	164
356.6000	227
356.7000	84
356.8000	157
356.9000	117
357.0000	266
357.1000	156
357.2000	110
357.3000	149
357.4000	37
357.9000	48
358.1000	36
358.6000	21
358.9000	55
359.1000	31
359.2000	51
359.3000	28
359.5000	26
361.3000	36
361.4000	28
362.9000	33
366.7000	36
368.1000	43
368.5000	70
369.4000	80
370.1000	84
370.4000	42
370.5000	23
370.6000	63
370.9000	167
371.0000	126
371.1000	33
371.2000	63
371.8000	58
371.9000	48
372.6000	73
372.7000	38
373.1000	100
373.2000	28
373.4000	28
373.8000	26
374.1000	36
375.1000	33
377.2000	26
378.5000	60
378.7000	33
378.8000	36
380.3000	26
381.7000	73
381.8000	58
381.9000	34
382.0000	137
382.2000	70
382.5000	21
382.7000	21
382.8000	44
382.9000	31
383.5000	24
383.7000	28
383.9000	21
384.1000	45
385.2000	28
385.5000	101
386.0000	26
390.6000	32
390.8000	108
391.0000	23
391.1000	21
391.2000	22
391.9000	54
392.0000	21
392.3000	45
392.4000	48
392.9000	33
394.7000	63
394.8000	43
395.0000	70
395.1000	43
395.2000	43
395.3000	26
395.6000	28
395.7000	45
395.8000	60
395.9000	45
396.3000	26
396.5000	26
397.0000	53
397.3000	43
397.4000	43
398.2000	33
398.5000	36
400.0000	33
400.6000	60
402.0000	33
405.4000	50
406.6000	43
406.7000	28
406.8000	67
406.9000	21
407.1000	28
407.2000	94
407.4000	21
407.5000	94
407.6000	28
408.4000	26
408.9000	26
409.0000	26
409.3000	36
412.6000	63
412.7000	94
412.8000	156
413.0000	21
413.1000	75
413.2000	38
413.3000	55
413.5000	84
413.6000	63
413.7000	53
413.9000	26
414.1000	48
414.2000	87
414.5000	24
414.6000	45
414.7000	29
414.9000	46
415.0000	63
415.1000	52
415.2000	95
416.1000	26
416.4000	53
418.2000	43
418.4000	26
418.6000	28
418.7000	77
418.9000	38
419.3000	43
419.4000	38
419.5000	87
420.0000	26
420.1000	26
420.2000	77
424.5000	94
424.6000	324
424.7000	548
424.8000	834
424.9000	827
425.0000	714
425.1000	834
425.2000	727
425.3000	877
425.4000	675
425.5000	961
425.6000	460
425.7000	317
425.8000	268
425.9000	244
426.0000	234
426.1000	283
426.2000	210
426.3000	271
426.4000	163
426.5000	205
426.6000	55
426.7000	36
426.9000	28
427.0000	36
427.2000	41
427.5000	38
427.6000	26
427.7000	33
427.9000	77
428.2000	51
428.3000	91
428.4000	100
428.5000	53
428.6000	35
428.8000	67
429.0000	33
429.1000	147
429.4000	80
429.5000	65
429.7000	33
429.8000	157
429.9000	155
430.0000	79
430.4000	31
430.6000	36
430.7000	22
430.9000	54
431.0000	110
431.2000	35
431.3000	63
431.5000	36
431.6000	26
432.0000	26
432.4000	48
433.1000	108
433.3000	59
433.4000	58
434.1000	26
437.4000	33
437.5000	26
438.1000	28
439.1000	60
439.4000	28
440.1000	26
441.0000	73
442.0000	38
442.1000	67
442.3000	36
442.5000	173
442.6000	324
442.7000	653
442.8000	798
442.9000	981
443.0000	781
443.1000	952
443.2000	947
443.3000	604
443.4000	619
443.5000	587
443.6000	499
443.7000	266
443.8000	447
443.9000	258
444.0000	195
444.1000	378
444.2000	207
444.3000	371
444.4000	247
444.5000	279
444.6000	201
444.7000	120
444.9000	73
445.0000	85
445.4000	73
445.6000	38
446.2000	77
446.3000	28
447.1000	41
447.2000	24
447.9000	38
448.9000	75
449.1000	123
450.1000	62
451.1000	45
452.4000	28
453.5000	36
455.0000	26
455.1000	36
455.2000	36
460.2000	36
460.3000	33
461.4000	36
464.0000	33
464.5000	33
464.6000	33
466.5000	43
466.6000	26
467.2000	28
469.0000	21
469.6000	26
470.2000	45
475.3000	36
480.0000	50
481.0000	33
483.2000	26
483.5000	53
483.6000	170
483.7000	234
483.8000	344
483.9000	430
484.0000	521
484.1000	381
484.2000	587
484.3000	484
484.4000	413
484.5000	533
484.6000	310
484.7000	121
484.8000	51
484.9000	101
485.0000	300
485.1000	258
485.2000	168
485.3000	190
485.4000	128
485.5000	224
485.6000	121
485.7000	53
485.8000	26
485.9000	84
486.0000	26
486.2000	43
486.3000	36
486.4000	87
486.6000	26
486.8000	43
487.7000	53
487.9000	87
488.1000	26
488.2000	65
488.3000	80
489.1000	45
489.4000	26
489.6000	33
491.3000	33
492.9000	50
498.3000	26
502.3000	21
502.4000	25
502.5000	96
502.8000	184
502.9000	80
503.0000	192
503.1000	78
503.4000	22
503.5000	72
503.7000	209
503.8000	164
503.9000	159
504.0000	86
504.2000	52
504.3000	46
504.5000	26
504.7000	127
504.8000	48
504.9000	41
505.1000	85
505.7000	55
505.8000	44
506.0000	28
506.1000	41
506.9000	26
507.1000	26
509.1000	26
509.6000	33
512.2000	28
513.6000	26
517.5000	50
518.7000	28
518.9000	53
520.1000	36
521.7000	28
522.2000	38
522.4000	53
523.1000	38
525.8000	43
527.5000	33
537.4000	70
540.4000	43
541.2000	53
541.6000	67
548.5000	26
549.4000	26
550.1000	55
550.3000	53
550.7000	26
551.5000	33
552.6000	33
553.3000	33
556.2000	33
564.1000	26
564.6000	33
565.0000	67
565.2000	33
566.1000	33
576.1000	26
576.6000	28
576.7000	48
576.8000	65
577.1000	24
577.4000	24
577.5000	31
577.7000	48
578.6000	28
580.8000	28
582.0000	50
583.8000	21
586.2000	33
588.3000	50
590.0000	33
592.4000	53
593.4000	43
595.1000	26
605.7000	33
606.0000	26
608.0000	26
611.5000	33
611.6000	50
614.2000	26
619.6000	26
620.4000	26
621.6000	33
629.0000	33
630.2000	33
631.3000	33
631.6000	26
633.8000	33
634.8000	26
635.2000	26
638.4000	26
641.6000	50
644.1000	50
644.3000	33
645.5000	45
645.9000	28
646.3000	36
650.3000	33
654.9000	33
655.4000	33
656.8000	50
657.5000	50
660.1000	36
660.3000	33
661.6000	26
662.4000	33
664.0000	26
667.2000	33
670.7000	33
670.8000	33
671.8000	43
672.1000	36
672.2000	26
673.0000	26
678.2000	33
686.2000	33
689.3000	26
692.1000	26
702.5000	26
713.2000	36
721.7000	26
722.9000	33
724.2000	26
726.6000	43
727.7000	26
731.2000	33
736.3000	26
738.2000	50
745.3000	33
755.9000	26
757.6000	26
760.5000	33
762.9000	26
766.5000	26
767.3000	50
769.7000	33
777.5000	26
784.4000	26
792.6000	26
793.1000	33
794.6000	21
796.6000	33
802.3000	26
803.1000	33
806.9000	33
808.9000	26
809.1000	26
813.2000	33
814.1000	33
814.5000	41
814.9000	73
815.0000	24
815.2000	26
815.3000	34
815.4000	77
815.9000	26
816.0000	41
816.4000	45
816.7000	26
816.9000	24
817.1000	70
817.5000	60
817.6000	28
818.1000	21
818.3000	28
819.9000	28
821.9000	33
822.7000	33
823.2000	33
831.0000	26
831.3000	341
831.4000	568
831.5000	685
831.6000	692
831.7000	895
831.8000	790
831.9000	980
832.0000	729
832.1000	710
832.2000	599
832.3000	439
832.4000	777
832.5000	435
832.6000	748
832.7000	865
832.8000	821
832.9000	675
833.0000	483
833.1000	248
833.2000	890
833.3000	479
833.4000	785
833.5000	791
833.6000	230
833.7000	969
833.8000	741
833.9000	757
834.0000	765
834.1000	573
834.2000	427
834.3000	485
834.4000	193
834.5000	292
834.6000	360
834.7000	200
834.8000	276
834.9000	471
835.0000	120
835.1000	375
835.2000	216
835.5000	46
835.6000	102
835.7000	176
835.8000	205
835.9000	177
836.0000	166
836.1000	137
836.2000	88
836.4000	102
836.5000	244
836.6000	68
836.7000	75
836.8000	99
837.0000	64
837.1000	72
837.2000	26
837.5000	119
837.8000	24
837.9000	38
838.0000	36
838.1000	87
838.2000	21
838.8000	26
839.1000	28
843.0000	33
844.7000	26
845.5000	43
845.7000	36
845.9000	38
846.7000	28
846.8000	53
847.8000	26
847.9000	36
848.3000	21
848.4000	21
852.2000	26
853.1000	26
853.7000	53
854.4000	26
859.2000	43
859.7000	45
859.8000	26
860.3000	33
860.4000	26
860.5000	26
861.1000	33
861.2000	26
861.4000	26
861.8000	36
862.0000	55
862.2000	26
862.9000	26
863.2000	36
864.6000	26
866.8000	50
867.7000	33
868.2000	26
868.5000	26
869.9000	33
872.4000	26
872.5000	33
873.4000	33
873.8000	26
874.3000	26
874.8000	36
875.1000	50
875.5000	26
875.8000	28
877.5000	26
877.9000	33
878.1000	33
878.3000	33
879.8000	26
880.1000	26
882.2000	129
882.3000	148
882.4000	268
882.5000	282
882.6000	366
882.7000	256
882.8000	398
882.9000	226
883.0000	124
883.1000	196
883.2000	181
883.3000	170
883.4000	170
883.5000	180
883.6000	100
883.7000	88
883.8000	243
883.9000	205
884.0000	108
884.1000	57
884.2000	78
884.3000	241
884.4000	190
884.5000	220
884.6000	344
884.7000	327
884.8000	343
884.9000	683
885.0000	730
885.1000	448
885.2000	741
885.3000	452
885.4000	477
885.5000	702
885.6000	483
885.7000	493
885.8000	287
885.9000	400
886.0000	498
886.1000	407
886.2000	376
886.3000	333
886.4000	451
886.5000	524
886.6000	418
886.7000	489
886.8000	230
886.9000	186
887.0000	149
887.1000	235
887.2000	118
887.3000	227
887.4000	127
887.5000	205
887.6000	61
887.7000	100
887.8000	141
887.9000	112
888.0000	90
888.1000	85
888.2000	124
888.4000	78
888.6000	48
888.7000	28
888.8000	60
888.9000	38
889.0000	28
889.1000	53
889.2000	67
890.2000	43
892.0000	33
893.6000	33
894.9000	50
896.3000	26
897.1000	50
898.4000	31
898.7000	21
898.9000	21
899.3000	26
899.6000	55
899.7000	50
899.9000	28
900.2000	28
900.5000	28
900.7000	28
900.9000	36
901.1000	45
901.2000	77
901.3000	43
901.4000	45
901.9000	50
902.3000	43
902.8000	50
903.2000	50
903.3000	33
903.6000	33
904.2000	43
906.8000	26
907.9000	26
908.3000	26
908.6000	33
911.1000	33
914.8000	84
914.9000	60
915.0000	31
915.1000	60
915.2000	21
915.5000	28
915.7000	53
916.0000	50
916.5000	28
916.6000	45
916.7000	26
916.8000	38
916.9000	33
917.0000	43
917.2000	43
917.6000	26
917.7000	36
918.1000	33
918.9000	33
919.1000	33
923.1000	33
924.4000	33
926.5000	26
930.9000	33
942.1000	26
942.7000	33
948.1000	33
948.6000	36
948.9000	43
950.0000	26
956.5000	33
956.8000	33
958.7000	26
959.0000	26
962.6000	70
962.7000	28
962.8000	94
962.9000	36
963.0000	45
963.1000	43
963.2000	67
963.3000	53
963.6000	26
963.7000	60
963.8000	60
964.5000	50
964.8000	87
964.9000	94
965.0000	60
965.6000	63
965.7000	26
965.8000	60
966.0000	70
966.5000	26
966.7000	60
966.8000	33
966.9000	50
969.1000	26
969.9000	33
979.1000	67
988.1000	26
992.9000	26
993.4000	26
994.8000	28
995.2000	33
996.2000	26
996.7000	33
996.8000	33
997.1000	26
997.2000	70
997.3000	97
997.4000	75
997.5000	138
997.6000	134
997.7000	128
997.8000	148
997.9000	104
998.0000	224
998.1000	195
998.2000	212
998.3000	200
998.4000	97
998.5000	102
998.6000	147
998.7000	165
998.8000	110
998.9000	151
999.0000	173
999.1000	173
999.2000	134
999.3000	158
999.4000	153
999.5000	45
999.6000	121
999.7000	121
999.8000	117
999.9000	163
1000.0000	190
1000.1000	138
1000.2000	80
1000.3000	36
1000.4000	48
1000.5000	60
1000.6000	70
1000.7000	43
1000.8000	38
1000.9000	146
1001.0000	84
1001.1000	80
1001.2000	50
1001.3000	33
1001.4000	26
1001.5000	84
1001.7000	84
1001.8000	28
1002.0000	38
1002.1000	26
1002.2000	36
1002.5000	67
1002.7000	77
1003.0000	26
1003.1000	33
1003.8000	33
1004.3000	33
1005.2000	26
1008.4000	26
1013.8000	50
1016.4000	36
1027.5000	26
1036.2000	26
1036.4000	26
1038.9000	26
1039.5000	26
1041.6000	33
1048.2000	50
1048.4000	33
1049.0000	50
1049.1000	50
1049.6000	50
1049.8000	50
1050.0000	50
1050.1000	26
1050.6000	26
1051.1000	50
1051.9000	43
1052.0000	33
1052.1000	33
1052.3000	26
1053.6000	32
1053.8000	24
1053.9000	26
1054.2000	28
1056.2000	38
1057.6000	36
1059.0000	50
1067.2000	26
1070.1000	26
1071.0000	33
1071.7000	34
1072.3000	28
1072.9000	28
1073.2000	21
1074.8000	26
1074.9000	26
1075.7000	26
1076.7000	33
1077.3000	33
1080.1000	33
1080.9000	26
1081.4000	33
1081.5000	26
1082.1000	33
1082.3000	60
1082.9000	26
1083.2000	26
1085.3000	26
1093.8000	33
1111.8000	26
1112.2000	26
1123.5000	53
1124.0000	26
1129.7000	33
1131.4000	33
1145.4000	22
1146.5000	90
1147.1000	85
1147.2000	36
1148.2000	34
1150.3000	31
1150.7000	36
1150.8000	26
1151.4000	26
1151.8000	26
1152.9000	36
1153.5000	26
1161.7000	26
1162.8000	26
1171.2000	33
1181.2000	33
1181.7000	33
1188.4000	33
1193.7000	26
1196.9000	33
1198.2000	38
1199.5000	26
1199.8000	33
1203.3000	33
1220.1000	26
1226.2000	33
1228.2000	33
1228.3000	26
1229.5000	26
1232.2000	26
1236.1000	33
1245.8000	33
1269.4000	33
1270.8000	33
1299.1000	33
1369.5000	33
1371.0000	33
1398.8000	33
1443.2000	26
1446.5000	33
1452.0000	33
