Mass spectrum: Diphyllin; LC-ESI-QQQ; MS; [M+H]+
Name: Diphyllin
Class: Lignans
Formula: C21H16O7
Exact mass: 380.3575
SMILES: COc1cc2c(O)c3c(c(-c4ccc5c(c4)OCO5)c2cc1OC)C(=O)OC3
InChI: InChI=1S/C21H16O7/c1-24-15-6-11-12(7-16(15)25-2)20(22)13-8-26-21(23)19(13)18(11)10-3-4-14-17(5-10)28-9-27-14/h3-7,22H,8-9H2,1-2H3
Instrument: ABSciex API3200 LC/MS system
Instrument type: LC-ESI-QQQ
Ms type: MS
Ion mode: POSITIVE
Precursor type: [M+H]+
m/z	relative intensity
119.3000	25
119.4000	65
119.5000	43
119.6000	26
119.9000	38
332.5000	21
332.6000	40
332.7000	28
332.8000	49
332.9000	43
333.0000	37
333.1000	27
333.2000	23
333.3000	29
334.5000	22
336.5000	21
336.6000	23
336.7000	27
336.8000	28
336.9000	26
337.0000	34
337.1000	22
350.8000	23
351.1000	21
362.4000	21
362.5000	29
362.6000	27
362.7000	27
362.8000	41
362.9000	28
363.0000	41
363.1000	35
363.2000	26
379.7000	22
379.9000	26
380.2000	52
380.3000	170
380.4000	474
380.5000	751
380.6000	770
380.7000	866
380.8000	842
380.9000	902
381.0000	835
381.1000	999
381.2000	703
381.3000	679
381.4000	335
381.5000	246
381.6000	224
381.7000	217
381.8000	209
381.9000	238
382.0000	199
382.1000	198
382.2000	194
382.3000	181
382.4000	88
382.5000	74
382.6000	38
382.7000	49
382.8000	63
382.9000	47
383.0000	40
383.1000	44
383.2000	41
383.3000	25
760.4000	27
760.5000	37
760.6000	34
760.7000	44
760.8000	28
760.9000	33
761.0000	26
761.1000	31
761.6000	25
761.7000	22
778.1000	22
