Mass spectrum: 9(11)-dehydrohecogenin; LC-ESI-QQQ; MS; [M+H]+
Name: 9(11)-dehydrohecogenin
Class: Steroids
Formula: C27H40O4
Exact mass: 428.6175
SMILES: CC1CC[C@@]2(OC1)OC1CC3C4CC[C@H]5CC(O)CC[C@]5(C)C4=CC(=O)[C@]3(C)C1[C@@H]2C
InChI: InChI=1S/C27H40O4/c1-15-7-10-27(30-14-15)16(2)24-22(31-27)12-21-19-6-5-17-11-18(28)8-9-25(17,3)20(19)13-23(29)26(21,24)4/h13,15-19,21-22,24,28H,5-12,14H2,1-4H3/t15?,16-,17-,18?,19?,21?,22?,24?,25-,26+,27+/m0/s1
Instrument: ABSciex API3200 LC/MS system
Instrument type: LC-ESI-QQQ
Ms type: MS
Ion mode: POSITIVE
Precursor type: [M+H]+
m/z	relative intensity
392.6000	22
392.7000	45
392.8000	36
392.9000	32
393.0000	27
393.1000	41
393.2000	29
393.4000	25
410.5000	30
410.6000	88
410.7000	142
410.8000	121
410.9000	139
411.0000	274
411.1000	154
411.2000	120
411.3000	131
411.4000	105
411.5000	73
411.6000	54
411.7000	43
411.8000	41
411.9000	39
412.0000	34
412.1000	37
412.2000	27
412.3000	29
412.4000	23
428.4000	155
428.5000	505
428.6000	654
428.7000	660
428.8000	759
428.9000	728
429.0000	721
429.1000	710
429.2000	657
429.3000	687
429.4000	703
429.5000	999
429.6000	349
429.7000	302
429.8000	287
429.9000	310
430.0000	307
430.1000	287
430.2000	286
430.3000	262
430.4000	242
430.5000	178
430.6000	106
430.7000	92
430.8000	87
430.9000	75
431.0000	55
431.1000	73
431.2000	69
431.3000	59
431.4000	54
431.5000	29
856.5000	26
856.6000	78
856.7000	120
856.8000	137
856.9000	151
857.0000	146
857.1000	162
857.2000	163
857.3000	163
857.4000	135
857.5000	157
857.6000	194
857.7000	79
857.8000	74
857.9000	72
858.0000	71
858.1000	97
858.2000	94
858.3000	71
858.4000	70
858.5000	63
858.6000	69
858.7000	39
858.8000	23
858.9000	24
859.0000	23
859.1000	27
859.2000	25
859.3000	30
859.4000	29
859.5000	21
