Mass spectrum: Heteratisine; LC-ESI-QQQ; MS; [M+H]+
Name: Heteratisine
Class: Alkaloids
Formula: C22H33NO5
Exact mass: 391.512
SMILES: CCN1C[C@]2(C)CC[C@H](OC)[C@@]34C5C[C@@H]6CC[C@@](O)(C5C(=O)O6)C([C@@H](O)C32)[C@@H]14
InChI: InChI=1S/C22H33NO5/c1-4-23-10-20(2)7-6-13(27-3)22-12-9-11-5-8-21(26,14(12)19(25)28-11)15(18(22)23)16(24)17(20)22/h11-18,24,26H,4-10H2,1-3H3/t11-,12?,13-,14?,15?,16+,17?,18+,20-,21+,22-/m0/s1
Instrument: ABSciex API3200 LC/MS system
Instrument type: LC-ESI-QQQ
Ms type: MS
Ion mode: POSITIVE
Precursor type: [M+H]+
m/z	relative intensity
118.6000	25
341.6000	27
341.7000	30
341.8000	37
341.9000	36
342.0000	35
342.1000	35
342.2000	36
342.3000	65
342.4000	22
359.6000	21
359.7000	30
359.8000	30
359.9000	32
360.0000	30
360.1000	38
360.2000	37
360.3000	40
360.4000	24
391.4000	157
391.5000	524
391.6000	862
391.7000	979
391.8000	986
391.9000	971
392.0000	998
392.1000	999
392.2000	940
392.3000	919
392.4000	876
392.5000	681
392.6000	498
392.7000	457
392.8000	402
392.9000	362
393.0000	366
393.1000	396
393.2000	396
393.3000	378
393.4000	339
393.5000	226
393.6000	115
393.7000	104
393.8000	95
393.9000	107
394.0000	91
394.1000	85
394.2000	79
394.3000	73
394.4000	68
394.5000	48
