Mass spectrum: Monocrotaline; LC-ESI-QQQ; MS; [M+H]+
Name: Monocrotaline
Class: Alkaloids
Formula: C16H23NO6
Exact mass: 325.3648
SMILES: C[C@H]1C(=O)O[C@@H]2CCN3CC=C(COC(=O)C(C)(O)C1(C)O)C23
InChI: InChI=1S/C16H23NO6/c1-9-13(18)23-11-5-7-17-6-4-10(12(11)17)8-22-14(19)16(3,21)15(9,2)20/h4,9,11-12,20-21H,5-8H2,1-3H3/t9-,11+,12?,15?,16?/m0/s1
Instrument: ABSciex API3200 LC/MS system
Instrument type: LC-ESI-QQQ
Ms type: MS
Ion mode: POSITIVE
Precursor type: [M+H]+
m/z	relative intensity
100.7000	128
100.8000	395
100.9000	636
101.0000	999
101.1000	988
101.2000	893
101.3000	702
101.4000	564
101.5000	143
101.6000	26
101.7000	26
101.8000	40
106.8000	71
108.1000	27
110.9000	24
111.2000	26
117.5000	33
117.8000	30
117.9000	88
118.1000	21
118.5000	27
118.6000	120
118.7000	185
118.8000	74
118.9000	84
119.0000	58
119.1000	108
119.2000	88
119.3000	134
119.4000	304
119.5000	330
119.6000	145
119.7000	390
119.8000	167
119.9000	134
120.0000	50
120.1000	109
120.2000	77
120.3000	35
120.5000	37
135.4000	33
137.5000	23
142.1000	38
142.2000	22
142.3000	58
142.4000	54
142.5000	39
142.6000	25
144.5000	21
144.6000	27
144.8000	33
148.4000	25
149.2000	50
153.2000	24
156.2000	26
156.7000	41
167.2000	49
167.3000	31
170.8000	21
173.1000	27
173.4000	25
178.8000	21
195.9000	25
198.0000	24
198.1000	46
198.3000	47
206.8000	23
207.0000	34
207.4000	64
207.7000	44
208.7000	29
209.0000	22
214.0000	24
220.5000	23
220.7000	49
220.8000	46
222.8000	35
223.4000	74
225.0000	25
226.2000	35
239.1000	83
239.3000	60
240.5000	32
241.3000	23
249.8000	21
253.7000	21
279.7000	24
295.8000	36
297.3000	41
298.6000	22
311.4000	36
312.4000	27
312.6000	32
313.0000	125
313.1000	45
325.5000	67
325.6000	366
325.7000	205
325.8000	566
325.9000	599
326.0000	694
326.1000	238
326.2000	310
326.3000	400
326.4000	331
327.5000	39
367.5000	34
384.3000	24
432.9000	26
715.9000	22
