Mass spectrum: Thalictropine; LC-ESI-QQQ; MS; [M+H]+
Name: Thalictropine
Class: Alkaloids
Formula: C40H46N2O8
Exact mass: 682.8212
SMILES: COc1cc(C[C@@H]2c3cc(OC)c(OC)cc3CCN2C)c(Oc2cc3c(cc2OC)-c2c(O)c(OC)cc4c2[C@H](C3)N(C)CC4)cc1OC
InChI: InChI=1S/C40H46N2O8/c1-41-11-9-22-15-31(44-3)33(46-5)19-26(22)28(41)14-25-18-32(45-4)35(48-7)21-30(25)50-36-17-24-13-29-38-23(10-12-42(29)2)16-37(49-8)40(43)39(38)27(24)20-34(36)47-6/h15-21,28-29,43H,9-14H2,1-8H3/t28-,29+/m1/s1
Instrument: ABSciex API3200 LC/MS system
Instrument type: LC-ESI-QQQ
Ms type: MS
Ion mode: POSITIVE
Precursor type: [M+H]+
m/z	relative intensity
151.0000	22
164.5000	48
164.6000	55
164.7000	70
164.8000	61
164.9000	67
165.0000	64
165.1000	60
165.2000	52
165.3000	46
165.4000	44
166.5000	21
166.6000	23
166.7000	27
166.8000	25
166.9000	24
167.0000	26
167.1000	29
167.2000	30
188.6000	26
188.7000	23
188.8000	25
188.9000	28
189.0000	28
189.1000	26
189.2000	25
189.4000	23
205.4000	23
205.5000	92
205.6000	120
205.7000	147
205.8000	168
205.9000	182
206.0000	168
206.1000	173
206.2000	157
206.3000	135
206.4000	135
206.5000	86
206.6000	42
206.7000	34
206.8000	39
206.9000	49
207.0000	37
207.1000	42
207.2000	35
207.3000	36
207.4000	32
207.5000	22
209.0000	23
209.1000	28
222.5000	32
222.6000	35
222.7000	30
222.8000	31
222.9000	33
223.0000	36
223.1000	36
223.2000	36
223.3000	31
223.4000	33
235.9000	21
247.6000	22
247.7000	24
247.8000	24
247.9000	24
248.1000	21
249.9000	22
250.0000	22
250.1000	22
251.6000	23
251.7000	30
251.8000	22
251.9000	23
252.0000	22
252.2000	21
252.4000	22
264.4000	24
264.5000	43
264.6000	54
264.7000	55
264.8000	60
264.9000	55
265.0000	56
265.1000	57
265.2000	51
265.3000	42
265.4000	36
266.3000	21
266.4000	26
266.5000	28
266.6000	37
266.7000	28
266.8000	32
266.9000	30
267.0000	30
267.1000	30
267.2000	27
267.3000	24
267.4000	24
279.4000	40
279.5000	76
279.6000	85
279.7000	102
279.8000	108
279.9000	106
280.0000	105
280.1000	98
280.2000	92
280.3000	83
280.4000	74
280.5000	38
280.6000	38
280.7000	34
280.8000	30
280.9000	30
281.0000	34
281.1000	35
281.2000	30
281.3000	34
281.4000	27
294.5000	23
294.6000	24
294.7000	30
294.8000	34
294.9000	39
295.0000	35
295.1000	50
295.2000	43
295.3000	35
295.4000	40
295.5000	36
295.6000	35
295.7000	32
295.8000	33
295.9000	32
296.0000	28
296.1000	26
296.2000	32
296.3000	25
296.4000	21
303.1000	26
303.2000	30
303.3000	32
303.4000	35
303.5000	35
303.6000	35
303.7000	33
303.8000	36
303.9000	31
304.0000	25
304.1000	30
304.2000	35
304.3000	33
304.4000	32
304.5000	29
304.6000	33
304.7000	43
304.8000	49
304.9000	37
305.0000	29
305.1000	33
305.2000	34
305.3000	26
305.4000	21
309.9000	21
310.0000	46
310.1000	61
310.2000	65
310.3000	90
310.4000	143
310.5000	243
310.6000	261
310.7000	238
310.8000	249
310.9000	267
311.0000	254
311.1000	280
311.2000	279
311.3000	261
311.4000	266
311.5000	154
311.6000	136
311.7000	134
311.8000	107
311.9000	97
312.0000	71
312.1000	87
312.2000	44
312.3000	39
312.4000	37
312.5000	24
312.6000	21
313.5000	24
313.6000	28
313.7000	28
313.8000	24
325.8000	88
325.9000	267
326.0000	474
326.1000	590
326.2000	600
326.3000	641
326.4000	724
326.5000	763
326.6000	854
326.7000	746
326.8000	717
326.9000	687
327.0000	484
327.1000	423
327.2000	385
327.3000	340
327.4000	310
327.5000	186
327.6000	142
327.7000	127
327.8000	101
327.9000	84
328.0000	52
328.1000	35
328.2000	28
328.3000	24
328.4000	22
341.1000	27
341.2000	44
341.3000	133
341.4000	338
341.5000	634
341.6000	834
341.7000	883
341.8000	916
341.9000	981
342.0000	911
342.1000	980
342.2000	999
342.3000	938
342.4000	943
342.5000	714
342.6000	600
342.7000	559
342.8000	480
342.9000	422
343.0000	252
343.1000	192
343.2000	171
343.3000	139
343.4000	131
343.5000	65
343.6000	45
343.7000	33
343.8000	28
343.9000	23
362.4000	21
362.5000	23
362.6000	22
362.7000	22
414.9000	21
432.5000	24
432.6000	31
432.7000	28
432.8000	28
432.9000	36
433.0000	28
433.1000	24
433.2000	25
433.3000	23
442.3000	41
442.4000	93
442.5000	182
442.6000	177
442.7000	206
442.8000	173
442.9000	172
443.0000	169
443.1000	164
443.2000	146
443.3000	141
443.4000	100
443.5000	85
443.6000	80
443.7000	73
443.8000	68
443.9000	72
444.0000	66
444.1000	68
444.2000	63
444.3000	53
444.4000	30
444.5000	23
444.6000	24
444.7000	24
444.9000	21
445.0000	23
445.2000	22
445.3000	31
639.5000	48
639.6000	72
639.7000	78
639.8000	86
639.9000	91
640.0000	94
640.1000	92
640.2000	74
640.3000	74
640.4000	47
640.5000	33
640.6000	34
640.7000	42
640.8000	37
640.9000	42
641.0000	37
641.1000	35
641.2000	35
641.3000	27
682.4000	30
682.5000	79
682.6000	143
682.7000	178
682.8000	187
682.9000	192
683.0000	255
683.1000	224
683.2000	181
683.3000	155
683.4000	105
683.5000	61
683.6000	73
683.7000	86
683.8000	91
683.9000	92
684.0000	99
684.1000	90
684.2000	92
684.3000	79
684.4000	52
684.5000	31
684.6000	41
684.7000	29
684.8000	26
684.9000	25
685.0000	27
685.1000	27
685.2000	22
