Mass spectrum: Zearalenol; LC-ESI-QQQ; MS; [M+H]+
Name: Zearalenol
Class: Carbohydrates
Formula: C18H24O5
Exact mass: 320.389
SMILES: C[C@H]1CCCC(O)CCC/C=C/c2cc(O)cc(O)c2C(=O)O1
InChI: InChI=1S/C18H24O5/c1-12-6-5-9-14(19)8-4-2-3-7-13-10-15(20)11-16(21)17(13)18(22)23-12/h3,7,10-12,14,19-21H,2,4-6,8-9H2,1H3/b7-3+/t12-,14?/m0/s1
Instrument: ABSciex API3200 LC/MS system
Instrument type: LC-ESI-QQQ
Ms type: MS
Ion mode: POSITIVE
Precursor type: [M+H]+
m/z	relative intensity
108.7000	40
108.8000	44
109.0000	24
109.3000	44
109.4000	22
120.5000	31
120.6000	81
120.7000	77
120.8000	81
120.9000	76
121.0000	258
121.1000	117
121.2000	43
121.3000	24
122.5000	35
122.6000	35
122.7000	44
122.8000	68
122.9000	73
123.0000	50
123.1000	41
123.2000	64
123.3000	44
123.4000	45
124.2000	21
134.4000	26
134.5000	65
134.6000	87
134.7000	69
134.8000	94
134.9000	109
135.0000	46
135.1000	79
135.2000	90
135.3000	65
135.4000	56
135.5000	33
136.2000	21
136.5000	24
146.8000	25
147.1000	29
148.7000	49
148.8000	21
148.9000	40
149.0000	42
149.3000	26
149.5000	27
151.1000	24
153.1000	21
160.4000	26
160.5000	38
160.6000	35
160.7000	89
160.8000	66
160.9000	64
161.0000	42
161.1000	41
161.2000	60
161.3000	60
161.4000	35
162.4000	23
162.6000	27
162.7000	42
162.8000	122
162.9000	48
163.0000	49
163.1000	27
163.2000	29
164.4000	23
164.5000	80
164.6000	45
164.7000	83
164.8000	70
164.9000	80
165.0000	79
165.1000	51
165.2000	55
165.3000	41
165.4000	29
165.5000	27
166.4000	25
166.5000	41
166.6000	35
166.7000	26
166.8000	30
167.0000	42
167.1000	21
167.2000	29
167.4000	23
172.5000	21
172.8000	36
173.0000	30
173.2000	27
173.4000	25
174.4000	77
174.5000	61
174.6000	89
174.7000	105
174.8000	85
174.9000	150
175.0000	111
175.1000	82
175.2000	68
175.3000	76
175.4000	51
176.1000	26
176.4000	89
176.5000	134
176.6000	171
176.7000	130
176.8000	129
176.9000	113
177.0000	95
177.1000	107
177.2000	72
177.3000	43
177.4000	49
177.9000	26
178.4000	32
180.9000	26
186.5000	39
186.6000	32
186.7000	23
186.8000	33
187.1000	58
187.2000	36
187.3000	23
187.4000	26
188.4000	42
188.5000	131
188.6000	127
188.7000	169
188.8000	163
188.9000	152
189.0000	178
189.1000	144
189.2000	147
189.3000	111
189.4000	85
189.5000	41
189.7000	25
189.9000	44
190.1000	25
190.4000	35
190.5000	48
190.6000	51
190.7000	40
190.8000	51
190.9000	31
191.0000	49
191.1000	43
191.2000	25
192.4000	26
192.5000	29
192.6000	29
192.8000	29
192.9000	32
193.0000	26
193.1000	33
194.5000	36
196.5000	41
196.6000	48
196.7000	39
196.8000	23
196.9000	39
197.0000	30
197.1000	54
197.2000	62
197.3000	42
200.5000	44
200.6000	50
200.7000	60
200.8000	57
200.9000	41
201.0000	63
201.1000	31
201.2000	32
201.3000	35
201.4000	41
201.5000	23
201.8000	36
202.4000	39
202.5000	35
202.6000	38
202.7000	48
202.8000	64
202.9000	64
203.0000	84
203.1000	77
203.2000	68
203.3000	45
203.4000	64
203.5000	106
204.4000	23
204.6000	33
204.8000	22
205.1000	25
205.2000	26
207.3000	30
210.4000	23
210.5000	39
210.6000	26
210.7000	39
210.8000	29
210.9000	29
211.0000	42
211.1000	26
211.2000	23
211.3000	39
212.5000	23
212.7000	33
214.4000	43
214.5000	63
214.6000	70
214.7000	115
214.8000	105
214.9000	118
215.0000	126
215.1000	104
215.2000	111
215.3000	60
215.4000	102
215.5000	45
215.6000	30
215.9000	30
216.0000	30
216.4000	67
216.5000	70
216.6000	55
216.7000	70
216.8000	122
216.9000	106
217.0000	119
217.1000	113
217.2000	93
217.3000	68
217.4000	71
217.5000	28
217.6000	23
217.8000	29
217.9000	23
218.5000	36
218.6000	29
219.0000	29
220.7000	25
220.8000	29
224.5000	30
224.7000	22
224.8000	28
224.9000	27
225.1000	23
226.9000	24
227.0000	31
227.1000	24
227.3000	77
227.4000	35
228.4000	29
228.5000	83
228.6000	93
228.7000	99
228.8000	61
228.9000	92
229.0000	79
229.1000	163
229.2000	86
229.3000	99
229.4000	93
229.5000	35
229.6000	33
229.7000	21
229.9000	30
230.1000	37
230.2000	30
230.4000	33
230.7000	27
230.8000	26
230.9000	39
231.0000	126
231.1000	84
232.4000	39
232.5000	35
232.6000	51
232.7000	44
232.8000	51
232.9000	70
233.0000	60
233.1000	92
233.2000	71
233.3000	54
233.4000	52
233.9000	24
234.2000	23
239.0000	24
239.3000	27
242.5000	36
242.6000	38
242.7000	45
242.8000	61
242.9000	58
243.0000	49
243.1000	49
243.2000	58
243.3000	62
243.4000	42
243.6000	36
246.5000	36
246.7000	42
246.9000	36
247.2000	23
247.4000	25
248.1000	26
256.5000	93
256.6000	147
256.7000	173
256.8000	182
256.9000	163
257.0000	154
257.1000	141
257.2000	173
257.3000	161
257.4000	74
257.5000	71
257.6000	40
257.7000	23
257.8000	37
258.0000	36
258.1000	21
258.2000	26
258.3000	27
258.4000	24
258.5000	52
258.6000	55
258.7000	68
258.8000	55
258.9000	77
259.0000	67
259.1000	119
259.2000	65
259.3000	64
259.4000	42
259.5000	39
259.6000	30
260.4000	21
266.4000	71
266.5000	143
266.6000	243
266.7000	242
266.8000	296
266.9000	290
267.0000	294
267.1000	331
267.2000	313
267.3000	232
267.4000	249
267.5000	129
267.6000	100
267.7000	72
267.8000	71
267.9000	65
268.0000	52
268.1000	84
268.2000	68
268.3000	52
268.4000	58
268.5000	26
274.9000	23
276.5000	23
276.8000	27
276.9000	30
277.0000	46
277.4000	37
278.6000	23
278.7000	55
284.4000	318
284.5000	527
284.6000	765
284.7000	884
284.8000	891
284.9000	884
285.0000	846
285.1000	789
285.2000	757
285.3000	642
285.4000	618
285.5000	242
285.6000	218
285.7000	202
285.8000	182
285.9000	215
286.0000	167
286.1000	138
286.2000	173
286.3000	170
286.4000	102
286.5000	86
286.6000	29
286.7000	41
287.2000	48
287.4000	23
302.4000	201
302.5000	494
302.6000	612
302.7000	727
302.8000	825
302.9000	751
303.0000	732
303.1000	726
303.2000	666
303.3000	736
303.4000	580
303.5000	348
303.6000	224
303.7000	199
303.8000	208
303.9000	180
304.0000	180
304.1000	180
304.2000	196
304.3000	221
304.4000	144
304.5000	58
304.6000	48
304.7000	42
304.8000	23
305.1000	26
305.2000	29
305.4000	33
320.3000	94
320.4000	360
320.5000	532
320.6000	760
320.7000	787
320.8000	841
320.9000	864
321.0000	999
321.1000	730
321.2000	792
321.3000	575
321.4000	687
321.5000	319
321.6000	214
321.7000	220
321.8000	162
321.9000	204
322.0000	167
322.1000	163
322.2000	147
322.3000	237
322.4000	260
322.5000	71
322.6000	29
322.7000	42
322.8000	30
322.9000	29
323.0000	39
323.1000	36
323.3000	29
323.4000	33
640.4000	62
640.5000	120
640.6000	168
640.7000	238
640.8000	216
640.9000	216
641.0000	232
641.1000	219
641.2000	206
641.3000	210
641.4000	126
641.5000	104
641.6000	101
641.7000	94
641.8000	110
641.9000	98
642.0000	94
642.1000	85
642.2000	85
642.3000	72
642.4000	43
642.6000	27
643.0000	24
643.3000	21
961.0000	21
