Mass spectrum: Mesaconitine; LC-ESI-QQQ; MS; [M+H]+
Name: Mesaconitine
Class: Alkaloids
Formula: C33H45NO11
Exact mass: 631.7267
SMILES: COC[C@]12CN(C)[C@@H]3[C@@H]4[C@H](OC)C1[C@]3(C1C[C@]3(O)[C@@H](OC)[C@H](O)[C@@]4(OC(C)=O)C1[C@H]3OC(=O)c1ccccc1)[C@@H](OC)C[C@H]2O
InChI: InChI=1S/C33H45NO11/c1-16(35)45-33-21-18(13-31(39,28(43-6)26(33)37)27(21)44-29(38)17-10-8-7-9-11-17)32-20(41-4)12-19(36)30(15-40-3)14-34(2)25(32)22(33)23(42-5)24(30)32/h7-11,18-28,36-37,39H,12-15H2,1-6H3/t18?,19-,20+,21?,22+,23+,24?,25-,26+,27-,28+,30+,31-,32+,33-/m1/s1
Instrument: ABSciex API3200 LC/MS system
Instrument type: LC-ESI-QQQ
Ms type: MS
Ion mode: POSITIVE
Precursor type: [M+H]+
m/z	relative intensity
512.1000	22
512.2000	28
571.5000	41
571.6000	74
571.7000	78
571.8000	182
571.9000	233
572.0000	99
572.1000	80
572.2000	79
572.3000	66
572.4000	61
572.5000	36
572.6000	28
572.7000	32
572.8000	45
572.9000	37
573.0000	34
573.1000	44
573.2000	32
573.3000	33
573.4000	23
631.2000	53
631.3000	287
631.4000	669
631.5000	907
631.6000	990
631.7000	939
631.8000	995
631.9000	979
632.0000	989
632.1000	999
632.2000	937
632.3000	948
632.4000	681
632.5000	607
632.6000	635
632.7000	612
632.8000	629
632.9000	636
633.0000	667
633.1000	644
633.2000	673
633.3000	593
633.4000	419
633.5000	293
633.6000	274
633.7000	262
633.8000	250
633.9000	270
634.0000	271
634.1000	298
634.2000	286
634.3000	214
634.4000	133
634.5000	72
634.6000	67
634.7000	71
634.8000	64
634.9000	80
635.0000	79
635.1000	74
635.2000	60
635.3000	59
635.4000	28
