Mass spectrum: 6-Benzoylheteratisine; LC-ESI-QQQ; MS; [M+H]+
Name: 6-Benzoylheteratisine
Class: Alkaloids
Formula: C29H37NO6
Exact mass: 495.6213
SMILES: CCN1C[C@]2(C)CC[C@H](OC)[C@]34C5C[C@@H]6CC[C@@](O)(C5C(=O)O6)[C@H](C13)[C@@H](OC(=O)c1ccccc1)C42
InChI: InChI=1S/C29H37NO6/c1-4-30-15-27(2)12-11-19(34-3)29-18-14-17-10-13-28(33,20(18)26(32)35-17)21(24(29)30)22(23(27)29)36-25(31)16-8-6-5-7-9-16/h5-9,17-24,33H,4,10-15H2,1-3H3/t17-,18?,19-,20?,21-,22+,23?,24?,27-,28+,29-/m0/s1
Instrument: ABSciex API3200 LC/MS system
Instrument type: LC-ESI-QQQ
Ms type: MS
Ion mode: POSITIVE
Precursor type: [M+H]+
m/z	relative intensity
141.8000	37
341.6000	30
341.7000	39
341.8000	40
341.9000	45
342.0000	46
342.1000	45
342.2000	42
342.3000	37
342.4000	31
463.6000	22
463.7000	31
463.8000	33
463.9000	29
464.0000	36
464.1000	32
464.2000	41
464.3000	27
464.4000	26
495.3000	23
495.4000	177
495.5000	526
495.6000	777
495.7000	879
495.8000	959
495.9000	962
496.0000	973
496.1000	999
496.2000	947
496.3000	928
496.4000	924
496.5000	544
496.6000	442
496.7000	520
496.8000	665
496.9000	625
497.0000	590
497.1000	597
497.2000	578
497.3000	531
497.4000	556
497.5000	289
497.6000	197
497.7000	204
497.8000	215
497.9000	225
498.0000	223
498.1000	236
498.2000	242
498.3000	215
498.4000	200
498.5000	100
498.6000	54
498.7000	46
498.8000	47
498.9000	47
499.0000	47
499.1000	46
499.2000	65
499.3000	54
499.4000	32
