Mass spectrum: Hydrocortisone acetate; LC-ESI-QQQ; MS; [M+H]+
Name: Hydrocortisone acetate
Class: Steroids
Formula: C23H32O6
Exact mass: 404.5079
SMILES: CC(=O)OCC(=O)[C@@]1(O)CCC2C3CCC4=CC(=O)CC[C@]4(C)C3C(O)C[C@@]21C
InChI: InChI=1S/C23H32O6/c1-13(24)29-12-19(27)23(28)9-7-17-16-5-4-14-10-15(25)6-8-21(14,2)20(16)18(26)11-22(17,23)3/h10,16-18,20,26,28H,4-9,11-12H2,1-3H3/t16?,17?,18?,20?,21-,22-,23-/m0/s1
Instrument: ABSciex API3200 LC/MS system
Instrument type: LC-ESI-QQQ
Ms type: MS
Ion mode: POSITIVE
Precursor type: [M+H]+
m/z	relative intensity
121.1000	25
134.8000	30
134.9000	40
135.0000	41
135.1000	21
135.2000	33
135.4000	21
148.5000	27
186.8000	23
189.0000	26
220.8000	32
220.9000	77
221.2000	36
240.6000	26
251.2000	29
266.8000	22
279.1000	30
280.6000	33
280.8000	21
290.7000	23
290.8000	29
290.9000	23
291.1000	26
308.5000	29
308.6000	50
308.7000	107
308.8000	67
308.9000	127
309.0000	93
309.1000	97
309.2000	100
309.3000	60
309.4000	98
309.5000	39
309.6000	30
310.3000	26
326.5000	36
326.6000	80
326.7000	67
326.8000	98
326.9000	74
327.0000	38
327.1000	75
327.2000	70
327.3000	57
327.4000	74
327.7000	22
327.8000	23
327.9000	22
328.0000	23
344.9000	22
345.3000	26
368.7000	21
368.8000	27
369.0000	32
369.3000	25
384.9000	57
385.0000	40
404.3000	52
404.4000	133
404.5000	519
404.6000	762
404.7000	861
404.8000	734
404.9000	851
405.0000	999
405.1000	808
405.2000	964
405.3000	891
405.4000	820
405.5000	492
405.6000	284
405.7000	324
405.8000	295
405.9000	288
406.0000	279
406.1000	295
406.2000	260
406.3000	243
406.4000	239
406.5000	149
406.6000	60
406.7000	49
406.8000	54
406.9000	44
407.0000	58
407.1000	50
407.2000	65
407.3000	33
407.4000	29
420.7000	23
421.4000	27
445.5000	27
445.6000	39
445.7000	42
445.8000	41
446.0000	37
446.1000	31
446.2000	40
446.4000	23
808.4000	27
808.5000	79
808.6000	144
808.7000	122
808.8000	235
808.9000	151
809.0000	166
809.1000	191
809.2000	194
809.3000	151
809.4000	137
809.5000	108
809.6000	74
809.7000	79
809.8000	104
809.9000	97
810.0000	97
810.1000	126
810.2000	86
810.3000	60
810.4000	60
810.5000	35
810.7000	41
810.8000	31
810.9000	116
811.0000	39
811.1000	46
811.3000	24
