Mass spectrum: Centaurepensin; LC-ESI-QQQ; MS; [M+H]+
Name: Centaurepensin
Class: Terpenoids
Formula: C19H24Cl2O7
Exact mass: 435.3049
SMILES: C=C1C[C@H](OC(=O)C(C)(O)CCl)C2C(=C)C(=O)O[C@@H]2C2C1C[C@H](O)[C@]2(O)CCl
InChI: InChI=1S/C19H24Cl2O7/c1-8-4-11(27-17(24)18(3,25)6-20)13-9(2)16(23)28-15(13)14-10(8)5-12(22)19(14,26)7-21/h10-15,22,25-26H,1-2,4-7H2,3H3/t10?,11-,12-,13?,14?,15-,18?,19+/m0/s1
Instrument: ABSciex API3200 LC/MS system
Instrument type: LC-ESI-QQQ
Ms type: MS
Ion mode: POSITIVE
Precursor type: [M+H]+
m/z	relative intensity
101.4000	132
101.5000	91
101.6000	37
114.1000	40
118.5000	93
118.6000	30
118.7000	30
118.9000	21
131.7000	27
136.8000	37
137.0000	31
141.5000	63
141.6000	240
141.7000	416
141.8000	420
141.9000	456
142.0000	428
142.1000	338
142.2000	345
142.3000	326
142.4000	228
142.5000	157
142.6000	27
149.2000	211
154.8000	30
155.0000	52
155.3000	24
156.7000	27
166.7000	22
167.7000	23
169.5000	26
177.1000	27
182.4000	21
182.6000	36
182.7000	24
183.0000	23
183.2000	23
197.4000	26
200.3000	37
200.4000	136
200.5000	285
200.6000	395
200.7000	418
200.8000	436
200.9000	440
201.0000	528
201.1000	487
201.2000	354
201.3000	376
201.4000	263
201.5000	127
201.6000	48
201.7000	72
201.8000	55
201.9000	47
202.0000	21
202.1000	36
202.2000	26
202.3000	43
202.4000	129
202.5000	134
202.6000	150
202.7000	133
202.8000	165
202.9000	180
203.0000	162
203.1000	138
203.2000	123
203.3000	132
203.4000	122
203.5000	23
203.6000	24
203.8000	24
204.3000	31
206.5000	30
206.8000	27
207.4000	25
208.7000	34
214.4000	30
217.0000	39
217.2000	21
220.4000	25
220.6000	24
220.9000	21
221.5000	35
221.6000	48
221.9000	29
222.0000	28
222.6000	27
223.6000	27
225.0000	23
232.6000	61
232.7000	37
232.8000	73
232.9000	46
233.0000	44
233.1000	52
233.2000	34
233.3000	63
233.4000	51
233.5000	23
235.3000	27
235.4000	23
235.5000	26
239.4000	35
250.8000	33
250.9000	34
251.0000	23
262.9000	31
263.1000	31
263.2000	114
278.3000	46
278.4000	64
278.5000	192
278.6000	270
278.7000	229
278.8000	294
278.9000	227
279.0000	270
279.1000	197
279.2000	245
279.3000	177
279.4000	123
279.5000	34
279.6000	26
279.7000	66
279.8000	38
279.9000	47
280.0000	37
280.1000	24
280.2000	91
280.3000	105
280.4000	50
280.5000	52
280.6000	85
280.7000	82
280.8000	121
280.9000	75
281.0000	86
281.1000	46
281.2000	54
281.3000	42
281.6000	25
281.8000	26
294.5000	25
296.3000	33
296.4000	89
296.5000	162
296.6000	174
296.7000	185
296.8000	217
296.9000	234
297.0000	184
297.1000	176
297.2000	180
297.3000	161
297.4000	120
297.5000	67
297.6000	41
297.7000	39
297.8000	29
297.9000	47
298.0000	107
298.1000	42
298.2000	30
298.3000	45
298.4000	52
298.5000	64
298.6000	86
298.7000	67
298.8000	57
298.9000	55
299.0000	76
299.1000	76
299.2000	49
299.3000	39
299.4000	33
299.5000	21
314.5000	61
314.6000	75
314.7000	75
314.8000	106
314.9000	72
315.0000	77
315.1000	80
315.2000	83
315.3000	71
315.4000	38
315.6000	22
315.9000	45
316.0000	26
316.5000	32
316.6000	34
316.7000	31
316.8000	27
316.9000	29
317.0000	22
317.1000	36
317.2000	23
317.3000	27
338.0000	21
390.9000	23
391.5000	21
391.9000	34
433.1000	27
434.2000	183
434.3000	215
434.4000	326
434.5000	454
434.6000	489
434.7000	576
434.8000	586
434.9000	625
435.0000	528
435.1000	554
435.2000	469
435.3000	420
435.4000	216
435.5000	166
435.6000	157
435.7000	128
435.8000	159
435.9000	162
436.0000	109
436.1000	173
436.2000	126
436.3000	235
436.4000	304
436.5000	406
436.6000	476
436.7000	402
436.8000	313
436.9000	427
437.0000	440
437.1000	382
437.2000	471
437.3000	220
437.4000	100
437.5000	109
437.6000	89
437.7000	121
437.8000	111
437.9000	142
438.0000	162
438.1000	95
438.2000	75
438.3000	46
438.4000	65
438.5000	55
438.6000	64
438.7000	65
438.8000	91
438.9000	52
439.0000	97
439.1000	66
439.2000	72
439.3000	42
451.3000	101
451.4000	197
451.5000	343
451.6000	729
451.7000	623
451.8000	457
451.9000	456
452.0000	430
452.1000	525
452.2000	458
452.3000	278
452.4000	98
452.5000	121
452.6000	115
452.7000	100
452.8000	77
452.9000	123
453.0000	100
453.1000	83
453.2000	111
453.3000	200
453.4000	776
453.5000	409
453.6000	281
453.7000	186
453.8000	215
453.9000	318
454.0000	242
454.1000	257
454.2000	192
454.3000	150
454.4000	97
454.5000	38
454.6000	82
454.7000	75
454.8000	65
454.9000	64
455.0000	75
455.1000	72
455.2000	36
455.3000	45
455.4000	43
455.5000	44
455.6000	81
455.7000	42
455.8000	66
455.9000	39
456.0000	34
456.1000	42
456.2000	41
456.3000	36
456.5000	28
456.9000	31
457.0000	34
457.1000	29
475.3000	89
475.4000	99
475.5000	69
475.6000	211
475.7000	238
475.8000	190
475.9000	194
476.0000	125
476.1000	112
476.2000	114
476.3000	86
476.5000	48
476.6000	29
476.7000	33
476.8000	25
476.9000	35
477.0000	29
477.1000	32
477.2000	63
477.3000	86
477.4000	68
477.5000	91
477.6000	76
477.7000	94
477.8000	98
477.9000	114
478.0000	95
478.1000	108
478.2000	70
478.3000	101
478.4000	72
478.6000	34
478.7000	32
478.8000	22
479.2000	37
479.3000	40
479.6000	33
479.8000	37
479.9000	34
480.0000	44
480.1000	31
480.2000	24
868.1000	63
868.2000	204
868.3000	435
868.4000	491
868.5000	561
868.6000	496
868.7000	632
868.8000	670
868.9000	688
869.0000	529
869.1000	458
869.2000	422
869.3000	337
869.4000	244
869.5000	295
869.6000	330
869.7000	308
869.8000	257
869.9000	258
870.0000	287
870.1000	329
870.2000	510
870.3000	592
870.4000	758
870.5000	893
870.6000	974
870.7000	885
870.8000	999
870.9000	957
871.0000	855
871.1000	789
871.2000	582
871.3000	385
871.4000	333
871.5000	358
871.6000	316
871.7000	410
871.8000	424
871.9000	403
872.0000	407
872.1000	746
872.2000	507
872.3000	381
872.4000	377
872.5000	437
872.6000	528
872.7000	530
872.8000	511
872.9000	521
873.0000	513
873.1000	457
873.2000	360
873.3000	187
873.4000	188
873.5000	192
873.6000	193
873.7000	222
873.8000	219
873.9000	180
874.0000	176
874.1000	201
874.2000	197
874.3000	126
874.4000	119
874.5000	169
874.6000	114
874.7000	152
874.8000	153
874.9000	133
875.0000	163
875.1000	93
875.2000	80
875.3000	51
875.4000	66
875.5000	29
875.6000	47
875.7000	46
875.8000	96
875.9000	50
876.0000	101
876.1000	26
876.6000	21
885.2000	31
885.3000	47
885.4000	51
885.5000	48
885.6000	54
885.7000	106
885.8000	105
885.9000	50
886.0000	79
886.1000	41
886.2000	31
886.3000	22
886.4000	38
886.6000	31
886.7000	31
886.8000	22
886.9000	27
887.0000	23
887.1000	38
887.2000	56
887.3000	69
887.4000	66
887.5000	97
887.6000	82
887.7000	73
887.8000	76
887.9000	104
888.0000	73
888.1000	45
888.2000	48
888.3000	28
888.4000	31
888.6000	32
888.7000	57
888.8000	25
888.9000	54
889.0000	31
889.1000	34
889.2000	36
889.4000	37
889.5000	28
889.6000	52
889.7000	42
889.8000	43
889.9000	56
890.0000	43
890.1000	45
890.2000	45
890.3000	54
890.8000	30
891.5000	26
891.7000	25
929.8000	21
