Mass spectrum: Conferone; LC-ESI-QQQ; MS; [M+H]+
Name: Conferone
Class: Benzopyranoids
Formula: C24H28O4
Exact mass: 380.4884
SMILES: CC1=CC[C@@H]2C(C)(C)C(=O)CC[C@@]2(C)[C@@H]1COc1ccc2ccc(=O)oc2c1
InChI: InChI=1S/C24H28O4/c1-15-5-9-20-23(2,3)21(25)11-12-24(20,4)18(15)14-27-17-8-6-16-7-10-22(26)28-19(16)13-17/h5-8,10,13,18,20H,9,11-12,14H2,1-4H3/t18-,20-,24+/m1/s1
Instrument: ABSciex API3200 LC/MS system
Instrument type: LC-ESI-QQQ
Ms type: MS
Ion mode: POSITIVE
Precursor type: [M+H]+
m/z	relative intensity
144.6000	21
144.7000	25
144.8000	26
144.9000	25
145.0000	30
145.1000	25
145.2000	24
158.8000	21
159.1000	21
159.2000	33
160.6000	28
160.7000	32
160.8000	34
160.9000	30
161.0000	29
161.1000	25
161.2000	26
161.3000	28
161.4000	24
162.4000	67
162.5000	125
162.6000	196
162.7000	243
162.8000	151
162.9000	161
163.0000	155
163.1000	159
163.2000	145
163.3000	105
163.4000	74
163.5000	28
200.5000	38
200.6000	65
200.7000	86
200.8000	93
200.9000	95
201.0000	103
201.1000	90
201.2000	106
201.3000	144
201.4000	82
201.5000	62
201.6000	26
218.6000	27
218.7000	36
218.8000	28
218.9000	36
219.0000	36
219.1000	45
219.2000	44
219.3000	33
219.4000	32
219.5000	23
362.6000	21
362.7000	25
362.8000	27
362.9000	23
363.0000	21
363.1000	25
363.2000	24
363.3000	23
380.3000	28
380.4000	197
380.5000	509
380.6000	830
380.7000	960
380.8000	976
380.9000	987
381.0000	998
381.1000	995
381.2000	999
381.3000	969
381.4000	770
381.5000	435
381.6000	320
381.7000	319
381.8000	381
381.9000	366
382.0000	321
382.1000	314
382.2000	315
382.3000	284
382.4000	259
382.5000	157
382.6000	95
382.7000	66
382.8000	60
382.9000	59
383.0000	54
383.1000	55
383.2000	57
383.3000	47
383.4000	43
397.5000	41
397.6000	67
397.7000	87
397.8000	88
397.9000	93
398.0000	88
398.1000	94
398.2000	83
398.3000	87
398.4000	73
398.5000	51
398.6000	41
398.7000	46
398.8000	50
398.9000	44
399.0000	41
399.1000	40
399.2000	48
399.3000	45
399.4000	27
421.5000	43
421.6000	89
421.7000	70
421.8000	65
421.9000	74
422.0000	71
422.1000	68
422.2000	68
422.3000	57
422.4000	53
422.5000	28
422.6000	24
422.8000	21
422.9000	22
423.0000	24
760.5000	40
760.6000	78
760.7000	99
760.8000	125
760.9000	120
761.0000	118
761.1000	117
761.2000	115
761.3000	102
761.4000	78
761.5000	46
761.6000	55
761.7000	57
761.8000	87
761.9000	123
762.0000	61
762.1000	60
762.2000	52
762.3000	51
762.4000	37
778.2000	21
