Mass spectrum: anabasamine; LC-ESI-QQQ; MS; [M+H]+
Name: anabasamine
Class: Alkaloids
Formula: C16H22Cl3N3
Exact mass: 362.7328
SMILES: CN1CCCCC1c1ccc(-c2cccnc2)nc1.Cl.Cl.Cl
InChI: InChI=1S/C16H19N3.3ClH/c1-19-10-3-2-6-16(19)14-7-8-15(18-12-14)13-5-4-9-17-11-13;;;/h4-5,7-9,11-12,16H,2-3,6,10H2,1H3;3*1H
Instrument: ABSciex API3200 LC/MS system
Instrument type: LC-ESI-QQQ
Ms type: MS
Ion mode: POSITIVE
Precursor type: [M+H]+
m/z	relative intensity
100.4000	88
100.5000	121
100.6000	133
100.7000	132
100.8000	147
100.9000	119
101.0000	88
101.1000	69
101.2000	38
116.6000	33
116.9000	29
117.0000	24
117.1000	24
117.2000	30
117.3000	27
118.9000	43
119.7000	28
120.1000	23
126.9000	191
127.0000	353
127.1000	507
127.2000	537
127.3000	629
127.4000	663
127.5000	555
127.6000	660
127.7000	698
127.8000	638
127.9000	532
128.0000	418
128.1000	168
128.2000	113
128.3000	100
128.4000	86
128.5000	49
168.6000	35
168.7000	36
168.8000	25
168.9000	22
169.0000	31
169.2000	96
169.3000	59
169.4000	32
169.5000	47
169.6000	230
169.7000	113
169.8000	60
169.9000	81
170.0000	70
170.1000	69
170.2000	54
170.3000	45
170.4000	64
170.5000	46
170.6000	56
170.7000	73
170.8000	57
170.9000	57
171.0000	48
171.1000	47
171.2000	43
171.3000	50
171.4000	57
182.4000	30
182.5000	37
182.6000	73
182.7000	56
182.8000	65
182.9000	60
183.0000	60
183.1000	51
183.2000	42
183.3000	51
183.4000	51
193.5000	56
194.5000	30
194.6000	31
194.7000	38
194.8000	33
194.9000	32
195.0000	33
195.1000	45
195.2000	42
195.3000	261
196.5000	39
196.6000	41
196.7000	29
196.8000	47
196.9000	39
197.0000	59
197.1000	33
197.2000	35
197.3000	37
197.4000	25
206.4000	21
206.5000	212
206.6000	134
207.1000	29
207.2000	45
207.3000	24
207.4000	34
210.5000	35
210.6000	50
210.7000	187
210.8000	45
210.9000	40
211.0000	48
211.1000	56
211.2000	52
211.3000	30
211.4000	44
211.5000	25
220.4000	38
220.5000	172
222.4000	27
222.5000	46
222.6000	71
222.7000	105
222.8000	124
222.9000	124
223.0000	126
223.1000	118
223.2000	112
223.3000	113
223.4000	112
223.5000	66
223.6000	24
223.7000	28
223.8000	31
223.9000	23
224.1000	27
224.2000	22
224.3000	35
224.4000	37
253.3000	35
253.4000	374
253.5000	710
253.6000	879
253.7000	952
253.8000	975
253.9000	999
254.0000	976
254.1000	869
254.2000	877
254.3000	857
254.4000	822
254.5000	687
254.6000	362
254.7000	378
254.8000	270
254.9000	240
255.0000	230
255.1000	280
255.2000	377
255.3000	194
255.4000	204
255.5000	156
255.6000	257
255.7000	48
255.8000	24
255.9000	24
256.0000	21
256.1000	25
