Mass spectrum: Pseudojervine; LC-ESI-QQQ; MS; [M+H]+
Name: Pseudojervine
Class: Alkaloids
Formula: C33H49NO8
Exact mass: 587.7604
SMILES: CC1=C2C(=O)[C@H]3C(CC=C4CC(O[C@@H]5O[C@H](CO)[C@@H](O)[C@H](O)[C@H]5O)CCC43C)[C@@H]2CC[C@]12O[C@@H]1CC(C)CN[C@H]1[C@H]2C
InChI: InChI=1S/C33H49NO8/c1-15-11-22-26(34-13-15)17(3)33(42-22)10-8-20-21-6-5-18-12-19(40-31-30(39)29(38)27(36)23(14-35)41-31)7-9-32(18,4)25(21)28(37)24(20)16(33)2/h5,15,17,19-23,25-27,29-31,34-36,38-39H,6-14H2,1-4H3/t15?,17-,19?,20+,21?,22-,23-,25-,26+,27-,29+,30-,31-,32?,33+/m1/s1
Instrument: ABSciex API3200 LC/MS system
Instrument type: LC-ESI-QQQ
Ms type: MS
Ion mode: POSITIVE
Precursor type: [M+H]+
m/z	relative intensity
113.5000	24
113.6000	23
134.7000	101
134.8000	103
148.5000	64
221.0000	26
587.4000	78
587.5000	155
587.6000	548
587.7000	865
587.8000	929
587.9000	972
588.0000	964
588.1000	999
588.2000	979
588.3000	901
588.4000	766
588.5000	458
588.6000	300
588.7000	404
588.8000	424
588.9000	495
589.0000	533
589.1000	522
589.2000	499
589.3000	466
589.4000	449
589.5000	205
589.6000	78
589.7000	110
589.8000	152
589.9000	165
590.0000	145
590.1000	158
590.2000	173
590.3000	134
590.4000	114
590.5000	58
590.7000	27
590.8000	49
590.9000	221
591.0000	87
591.1000	21
628.6000	54
628.7000	124
628.8000	133
628.9000	145
629.0000	138
629.1000	154
629.2000	149
629.3000	147
629.4000	124
629.5000	69
629.6000	25
629.7000	85
629.8000	57
629.9000	56
630.0000	43
630.1000	71
630.2000	68
630.3000	51
630.4000	37
631.0000	23
631.1000	24
631.2000	34
631.3000	29
