Mass spectrum: Canescein,(3,5,11,14,19-Pentahydroxycard-20(22)-enolide,19-aldehyde, 3-O-(6-deoxy-beta-D-gulopyranoside)); LC-ESI-QQQ; MS; [M+H]+
Name: Canescein,(3,5,11,14,19-Pentahydroxycard-20(22)-enolide,19-aldehyde, 3-O-(6-deoxy-beta-D-gulopyranoside))
Class: Steroids
Formula: C29H42O11
Exact mass: 566.6515
SMILES: CC1OC(OC2CC[C@]3(C=O)[C@@H]4C(CCC3(O)C2)C2(O)CC[C@@H](C3=CC(=O)OC3)[C@@]2(C)C[C@H]4O)C(O)C(O)C1O
InChI: InChI=1S/C29H42O11/c1-14-22(33)23(34)24(35)25(39-14)40-16-3-6-27(13-30)21-18(4-7-28(27,36)10-16)29(37)8-5-17(15-9-20(32)38-12-15)26(29,2)11-19(21)31/h9,13-14,16-19,21-25,31,33-37H,3-8,10-12H2,1-2H3/t14?,16?,17-,18?,19+,21+,22?,23?,24?,25?,26+,27-,28?,29?/m0/s1
Instrument: ABSciex API3200 LC/MS system
Instrument type: LC-ESI-QQQ
Ms type: MS
Ion mode: POSITIVE
Precursor type: [M+H]+
m/z	relative intensity
100.4000	140
100.5000	101
100.6000	59
100.7000	68
100.8000	99
100.9000	43
101.0000	147
101.1000	187
101.2000	150
101.3000	121
101.4000	51
101.5000	27
135.5000	27
141.7000	63
149.7000	43
152.8000	21
184.7000	41
206.4000	70
206.5000	26
221.2000	271
222.4000	21
223.3000	53
232.9000	32
310.7000	22
320.5000	29
320.6000	22
320.8000	29
320.9000	49
321.1000	37
338.4000	53
338.5000	80
338.6000	187
338.7000	127
338.8000	162
338.9000	162
339.0000	138
339.1000	206
339.2000	167
339.3000	163
339.4000	100
339.5000	85
339.6000	88
339.7000	57
339.8000	45
339.9000	45
340.0000	61
340.1000	45
340.2000	73
340.3000	53
340.4000	22
340.5000	25
340.6000	37
340.7000	37
340.8000	61
340.9000	21
341.1000	48
341.2000	33
341.3000	33
341.4000	33
341.7000	22
348.6000	33
348.7000	33
348.8000	29
348.9000	45
349.0000	26
349.1000	26
349.3000	30
349.4000	22
349.5000	38
356.4000	32
356.5000	79
356.6000	118
356.7000	82
356.8000	129
356.9000	165
357.0000	102
357.1000	58
357.2000	122
357.3000	107
357.4000	147
357.5000	29
357.6000	41
357.7000	45
357.8000	61
357.9000	29
358.0000	45
358.1000	45
358.2000	33
358.3000	37
358.4000	22
358.5000	29
366.5000	33
366.6000	53
366.7000	37
366.8000	85
366.9000	61
367.0000	88
367.1000	57
367.2000	72
367.3000	44
367.4000	56
367.5000	22
371.0000	33
374.4000	22
374.5000	54
374.6000	112
374.7000	72
374.8000	104
374.9000	140
375.0000	84
375.1000	99
375.2000	72
375.3000	57
375.4000	68
375.5000	41
375.6000	25
375.9000	26
376.0000	37
376.1000	46
376.2000	26
376.4000	34
376.7000	30
384.4000	65
384.5000	72
384.6000	103
384.7000	118
384.8000	135
384.9000	136
385.0000	139
385.1000	191
385.2000	100
385.3000	151
385.4000	115
385.5000	45
385.6000	38
385.7000	49
385.8000	38
385.9000	25
386.0000	45
386.2000	26
386.3000	42
386.4000	26
386.5000	26
386.6000	21
402.5000	29
402.6000	81
402.7000	100
402.8000	96
402.9000	97
403.0000	105
403.1000	123
403.2000	72
403.3000	113
403.4000	84
403.5000	41
403.8000	30
403.9000	34
404.2000	26
404.4000	34
420.3000	88
420.4000	362
420.5000	573
420.6000	777
420.7000	929
420.8000	944
420.9000	899
421.0000	999
421.1000	903
421.2000	774
421.3000	789
421.4000	641
421.5000	372
421.6000	294
421.7000	346
421.8000	244
421.9000	208
422.0000	157
422.1000	169
422.2000	230
422.3000	218
422.4000	107
422.5000	52
422.6000	24
422.7000	48
422.8000	155
422.9000	81
423.1000	21
423.2000	45
423.3000	53
461.6000	40
461.7000	44
461.8000	51
461.9000	56
462.0000	69
462.1000	44
462.2000	56
462.3000	44
462.4000	56
462.6000	33
462.8000	57
462.9000	21
463.1000	49
548.8000	121
548.9000	38
566.3000	54
566.4000	94
566.5000	429
566.6000	543
566.7000	591
566.8000	617
566.9000	692
567.0000	757
567.1000	705
567.2000	609
567.3000	513
567.4000	358
567.5000	178
567.6000	255
567.7000	208
567.8000	292
567.9000	276
568.0000	265
568.1000	189
568.2000	214
568.3000	169
568.4000	135
568.5000	49
568.6000	43
568.7000	68
568.8000	41
568.9000	61
569.0000	49
569.1000	37
569.2000	77
569.4000	34
583.7000	22
583.9000	25
584.0000	34
584.2000	27
584.4000	28
607.5000	99
607.6000	186
607.7000	163
607.8000	194
607.9000	233
608.0000	281
608.1000	233
608.2000	238
608.3000	238
608.4000	171
608.5000	69
608.6000	61
608.7000	40
608.8000	80
608.9000	84
609.0000	45
609.1000	53
609.2000	129
609.3000	112
609.4000	53
609.7000	22
610.0000	38
713.0000	22
713.1000	30
714.2000	30
714.3000	26
804.9000	30
805.0000	34
805.2000	50
805.3000	22
805.9000	38
822.6000	26
822.7000	34
822.8000	34
822.9000	22
823.0000	46
823.1000	38
823.2000	30
823.3000	34
823.5000	22
823.7000	26
823.9000	30
824.0000	22
824.1000	22
840.5000	46
840.6000	26
840.7000	30
840.8000	42
840.9000	34
841.1000	46
841.2000	42
841.3000	42
841.4000	22
841.7000	30
842.1000	22
850.4000	30
968.4000	26
968.8000	22
969.0000	34
969.1000	22
969.2000	30
969.7000	30
986.3000	22
986.5000	22
986.7000	30
986.8000	34
986.9000	46
987.0000	57
987.1000	34
987.2000	26
987.3000	30
987.5000	22
987.9000	22
988.1000	34
988.3000	34
1115.8000	22
1132.3000	34
1132.4000	58
1132.5000	46
1132.6000	54
1132.7000	42
1132.8000	45
1132.9000	73
1133.0000	78
1133.1000	78
1133.2000	61
1133.3000	97
1133.4000	89
1133.5000	34
1133.6000	42
1133.7000	54
1133.8000	46
1133.9000	38
1134.0000	50
1134.1000	54
1134.2000	57
1134.3000	30
1134.4000	57
1134.6000	38
1134.9000	22
1135.4000	22
