Mass spectrum: Aconifine; LC-ESI-QQQ; MS; [M+H]+
Name: Aconifine
Class: Alkaloids
Formula: C34H47NO12
Exact mass: 661.7532
SMILES: CCN1C[C@@]2(COC)C3[C@@H](OC)[C@H]4[C@@H]1[C@]3([C@@H](OC)C[C@H]2O)[C@]1(O)C[C@]2(O)[C@@H](OC)[C@H](O)[C@@]4(OC(C)=O)C1[C@H]2OC(=O)c1ccccc1
InChI: InChI=1S/C34H47NO12/c1-7-35-15-30(16-42-3)19(37)13-20(43-4)33-23(30)22(44-5)21(25(33)35)34(47-17(2)36)24-27(46-29(39)18-11-9-8-10-12-18)31(40,14-32(24,33)41)28(45-6)26(34)38/h8-12,19-28,37-38,40-41H,7,13-16H2,1-6H3/t19-,20+,21+,22+,23?,24?,25-,26+,27-,28+,30+,31-,32+,33-,34+/m1/s1
Instrument: ABSciex API3200 LC/MS system
Instrument type: LC-ESI-QQQ
Ms type: MS
Ion mode: POSITIVE
Precursor type: [M+H]+
m/z	relative intensity
570.0000	23
601.5000	25
601.6000	49
601.7000	66
601.8000	82
601.9000	81
602.0000	85
602.1000	83
602.2000	75
602.3000	78
602.4000	53
602.5000	26
602.6000	26
602.7000	25
602.8000	24
602.9000	30
603.0000	51
603.1000	31
603.2000	30
603.3000	27
661.3000	126
661.4000	440
661.5000	746
661.6000	905
661.7000	915
661.8000	954
661.9000	979
662.0000	960
662.1000	999
662.2000	970
662.3000	926
662.4000	759
662.5000	511
662.6000	570
662.7000	642
662.8000	678
662.9000	685
663.0000	694
663.1000	681
663.2000	662
663.3000	626
663.4000	482
663.5000	289
663.6000	310
663.7000	332
663.8000	339
663.9000	335
664.0000	326
664.1000	333
664.2000	331
664.3000	295
664.4000	196
664.5000	102
664.6000	97
664.7000	128
664.8000	147
664.9000	96
665.0000	87
665.1000	81
665.2000	66
665.3000	70
665.4000	43
