Mass spectrum: 6-Hydroxyhyoscyamine; LC-ESI-QQQ; MS; [M+H]+
Name: 6-Hydroxyhyoscyamine
Class: Alkaloids
Formula: C17H23NO4
Exact mass: 305.3772
SMILES: CN1C2CC(OC(=O)C(CO)c3ccccc3)CC1C(O)C2
InChI: InChI=1S/C17H23NO4/c1-18-12-7-13(9-15(18)16(20)8-12)22-17(21)14(10-19)11-5-3-2-4-6-11/h2-6,12-16,19-20H,7-10H2,1H3
Instrument: ABSciex API3200 LC/MS system
Instrument type: LC-ESI-QQQ
Ms type: MS
Ion mode: POSITIVE
Precursor type: [M+H]+
m/z	relative intensity
121.5000	23
121.6000	24
121.7000	39
121.8000	40
121.9000	51
122.0000	79
122.1000	95
122.2000	26
122.3000	24
139.4000	103
139.5000	269
139.6000	360
139.7000	423
139.8000	413
139.9000	404
140.0000	410
140.1000	397
140.2000	364
140.3000	325
140.4000	318
140.5000	312
140.6000	87
140.7000	46
140.8000	45
140.9000	57
141.0000	45
141.1000	38
141.2000	35
141.3000	26
141.4000	41
141.5000	30
141.6000	21
141.7000	23
305.3000	73
305.4000	418
305.5000	789
305.6000	921
305.7000	998
305.8000	942
305.9000	971
306.0000	970
306.1000	999
306.2000	941
306.3000	975
306.4000	789
306.5000	490
306.6000	432
306.7000	408
306.8000	357
306.9000	390
307.0000	399
307.1000	405
307.2000	386
307.3000	363
307.4000	330
307.5000	166
307.6000	106
307.7000	91
307.8000	85
307.9000	92
308.0000	86
308.1000	75
308.2000	58
308.3000	56
308.4000	42
308.5000	25
346.5000	31
346.6000	29
346.7000	46
346.8000	33
346.9000	31
347.0000	24
647.1000	21
