Mass spectrum: N-succinoylanthranilic acid; LC-ESI-QQQ; MS; [M+H]+
Name: N-succinoylanthranilic acid
Class: Polycyclic aromatic natural products
Formula: C11H11NO5
Exact mass: 237.214
SMILES: O=C(O)CCC(O)=Nc1ccccc1C(=O)O
InChI: InChI=1S/C11H11NO5/c13-9(5-6-10(14)15)12-8-4-2-1-3-7(8)11(16)17/h1-4H,5-6H2,(H,12,13)(H,14,15)(H,16,17)
Instrument: ABSciex API3200 LC/MS system
Instrument type: LC-ESI-QQQ
Ms type: MS
Ion mode: POSITIVE
Precursor type: [M+H]+
m/z	relative intensity
100.3000	22
118.6000	41
118.7000	56
118.8000	47
118.9000	70
119.0000	26
119.1000	28
119.2000	37
119.3000	117
119.4000	274
119.5000	777
119.6000	913
119.7000	917
119.8000	952
119.9000	884
120.0000	890
120.1000	760
120.2000	778
120.3000	717
120.4000	549
120.5000	241
120.6000	69
120.7000	76
120.8000	76
120.9000	120
121.0000	69
121.1000	96
121.2000	80
121.3000	58
121.4000	40
121.5000	52
137.4000	259
137.5000	403
137.6000	458
137.7000	671
137.8000	651
137.9000	660
138.0000	698
138.1000	620
138.2000	612
138.3000	460
138.4000	514
138.5000	178
138.6000	110
138.7000	38
138.8000	45
138.9000	81
139.0000	78
139.1000	49
139.2000	77
139.3000	48
139.4000	34
155.6000	24
173.4000	23
173.5000	24
173.6000	111
173.7000	22
173.8000	34
173.9000	23
174.0000	37
174.1000	29
174.3000	26
201.4000	35
201.5000	129
201.6000	125
201.7000	147
201.8000	152
201.9000	154
202.0000	116
202.1000	157
202.2000	120
202.3000	122
202.4000	70
202.5000	42
202.6000	27
203.0000	26
203.2000	27
219.3000	24
219.4000	58
219.5000	122
219.6000	143
219.7000	158
219.8000	142
219.9000	318
220.0000	148
220.1000	134
220.2000	121
220.3000	91
220.4000	116
220.5000	21
221.0000	23
237.3000	103
237.4000	302
237.5000	457
237.6000	696
237.7000	677
237.8000	797
237.9000	742
238.0000	999
238.1000	583
238.2000	561
238.3000	580
238.4000	455
238.5000	169
238.6000	152
238.7000	98
238.8000	89
238.9000	72
239.0000	98
239.1000	88
239.2000	72
239.3000	104
239.4000	66
239.5000	24
239.9000	21
254.6000	29
255.0000	24
255.3000	23
260.0000	22
474.5000	41
474.6000	25
474.7000	30
474.8000	40
474.9000	37
475.0000	40
475.1000	22
475.2000	41
475.3000	38
491.5000	24
491.6000	30
491.7000	54
491.8000	48
491.9000	36
492.0000	29
492.1000	35
492.2000	43
492.3000	27
493.0000	25
711.8000	52
711.9000	28
728.6000	28
