Mass spectrum: 2'-Hydroxy-2,4,4'-trimethoxychalcone; LC-ESI-QQQ; MS; [M+H]+
Name: 2'-Hydroxy-2,4,4'-trimethoxychalcone
Class: Flavonoids
Formula: C18H18O5
Exact mass: 314.3412
SMILES: COc1ccc(C(=O)/C=C/c2ccc(OC)cc2OC)c(O)c1
InChI: InChI=1S/C18H18O5/c1-21-13-7-8-15(17(20)10-13)16(19)9-5-12-4-6-14(22-2)11-18(12)23-3/h4-11,20H,1-3H3/b9-5+
Instrument: ABSciex API3200 LC/MS system
Instrument type: LC-ESI-QQQ
Ms type: MS
Ion mode: POSITIVE
Precursor type: [M+H]+
m/z	relative intensity
132.7000	21
134.5000	24
134.7000	27
134.8000	24
134.9000	36
135.1000	22
135.2000	28
135.3000	21
136.5000	29
136.6000	42
136.7000	42
136.8000	43
136.9000	45
137.0000	54
137.1000	47
137.2000	39
137.3000	43
137.4000	24
147.4000	36
147.5000	71
147.6000	70
147.7000	75
147.8000	88
147.9000	107
148.0000	76
148.1000	67
148.2000	74
148.3000	47
148.4000	46
148.5000	32
150.3000	73
150.4000	293
150.5000	452
150.6000	554
150.7000	610
150.8000	602
150.9000	601
151.0000	647
151.1000	616
151.2000	574
151.3000	461
151.4000	327
151.5000	174
151.6000	74
151.7000	69
151.8000	61
151.9000	69
152.0000	52
152.1000	72
152.2000	57
152.3000	42
152.4000	30
164.8000	22
165.0000	24
175.4000	74
175.5000	117
175.6000	227
175.7000	587
175.8000	66
175.9000	41
176.0000	74
176.1000	59
176.2000	82
176.3000	53
176.4000	59
176.5000	22
176.6000	37
176.7000	29
176.8000	28
176.9000	30
177.0000	29
177.2000	26
177.3000	29
190.3000	22
190.4000	362
190.5000	544
190.6000	794
190.7000	885
190.8000	806
190.9000	778
191.0000	756
191.1000	636
191.2000	664
191.3000	579
191.4000	524
191.5000	193
191.6000	111
191.7000	115
191.8000	114
191.9000	117
192.0000	110
192.1000	114
192.2000	86
192.3000	77
192.4000	69
192.5000	29
212.6000	28
212.7000	46
212.8000	41
212.9000	52
213.0000	33
213.1000	49
213.2000	36
213.3000	29
213.4000	32
240.4000	28
240.5000	39
240.6000	45
240.7000	47
240.8000	38
240.9000	52
241.0000	52
241.1000	51
241.2000	32
241.3000	39
241.4000	24
272.4000	37
272.5000	99
272.6000	109
272.7000	136
272.8000	122
272.9000	136
273.0000	112
273.1000	133
273.2000	110
273.3000	126
273.4000	84
273.5000	30
273.6000	24
274.2000	24
314.3000	30
314.4000	225
314.5000	486
314.6000	628
314.7000	565
314.8000	667
314.9000	698
315.0000	634
315.1000	999
315.2000	599
315.3000	664
315.4000	436
315.5000	202
315.6000	209
315.7000	146
315.8000	158
315.9000	156
316.0000	157
316.1000	136
316.2000	143
316.3000	125
316.4000	97
316.5000	50
316.6000	35
316.7000	24
316.8000	29
316.9000	29
317.1000	28
317.2000	22
317.3000	23
