Mass spectrum: Oxiglutathione; LC-ESI-QQQ; MS; [M+H]+
Name: GSSG
Name: Glutathiol
Name: Glutathione (oxidized form)
Name: Oxigluthione
Name: Oxidized glutathione
Name: (gamma-Glu-Cys-Gly) (gamma-Glu-Cys-Gly)(Disulfide bridge: 2a-2b)
Name: Oxiglutathione
Class: Aminoacids and peptides
Formula: C20H32N6O12S2
Exact mass: 612.639
SMILES: NC(CCC(O)=NC(CSSCC(N=C(O)CCC(N)C(=O)O)C(O)=NCC(=O)O)C(O)=NCC(=O)O)C(=O)O
InChI: InChI=1S/C20H32N6O12S2/c21-9(19(35)36)1-3-13(27)25-11(17(33)23-5-15(29)30)7-39-40-8-12(18(34)24-6-16(31)32)26-14(28)4-2-10(22)20(37)38/h9-12H,1-8,21-22H2,(H,23,33)(H,24,34)(H,25,27)(H,26,28)(H,29,30)(H,31,32)(H,35,36)(H,37,38)
Instrument: ABSciex API3200 LC/MS system
Instrument type: LC-ESI-QQQ
Ms type: MS
Ion mode: POSITIVE
Precursor type: [M+H]+
m/z	relative intensity
100.7000	21
100.8000	22
101.0000	28
129.4000	63
129.5000	180
129.6000	212
129.7000	201
129.8000	264
129.9000	271
130.0000	243
130.1000	239
130.2000	260
130.3000	235
130.4000	201
130.5000	97
130.6000	37
130.7000	40
130.8000	32
130.9000	25
131.0000	24
131.1000	25
131.2000	23
131.3000	28
131.4000	24
157.0000	36
157.1000	246
157.2000	407
157.3000	315
157.4000	236
157.5000	100
157.6000	46
157.7000	21
157.9000	25
158.0000	25
176.5000	27
176.6000	27
176.7000	23
176.8000	28
176.9000	23
177.0000	23
177.1000	21
177.2000	25
178.4000	22
178.5000	35
178.6000	27
178.7000	32
178.9000	27
179.0000	24
179.1000	25
179.2000	28
188.5000	25
209.0000	21
210.3000	30
210.4000	22
211.1000	25
230.4000	77
230.5000	103
230.6000	115
230.7000	145
230.8000	145
230.9000	134
231.0000	139
231.1000	134
231.2000	125
231.3000	122
231.4000	78
231.5000	22
232.7000	26
232.8000	26
232.9000	30
233.1000	21
233.2000	49
234.4000	34
234.5000	38
234.6000	47
234.7000	59
234.8000	66
234.9000	58
235.0000	48
235.1000	52
235.2000	48
235.3000	41
235.4000	26
236.0000	23
237.0000	33
242.3000	24
242.4000	29
242.5000	59
242.6000	51
242.7000	60
242.8000	70
242.9000	64
243.0000	55
243.1000	42
243.2000	39
243.3000	35
256.4000	24
256.5000	28
256.6000	42
256.7000	52
256.8000	47
256.9000	53
257.0000	36
257.1000	38
257.2000	34
257.3000	21
257.4000	22
264.7000	21
267.1000	28
269.0000	25
269.1000	37
269.2000	24
269.3000	30
269.4000	23
269.5000	22
269.6000	21
269.7000	21
269.8000	23
269.9000	57
270.0000	80
274.8000	21
274.9000	46
275.0000	55
275.1000	59
275.2000	51
275.3000	80
275.4000	69
275.5000	86
275.6000	80
275.7000	66
275.8000	83
275.9000	55
276.0000	33
276.2000	22
276.3000	22
289.7000	23
289.9000	53
297.5000	22
297.7000	22
297.8000	34
297.9000	51
298.0000	49
298.1000	64
298.2000	76
298.3000	54
298.4000	54
298.5000	64
298.6000	52
298.7000	51
298.8000	42
298.9000	29
305.4000	31
306.3000	84
306.4000	389
306.5000	634
306.6000	729
306.7000	703
306.8000	699
306.9000	867
307.0000	998
307.1000	999
307.2000	995
307.3000	960
307.4000	745
307.5000	634
307.6000	560
307.7000	511
307.8000	497
307.9000	351
308.0000	298
308.1000	328
308.2000	259
308.3000	273
308.4000	152
308.5000	97
308.6000	93
308.7000	67
308.8000	54
308.9000	36
309.0000	27
309.1000	21
309.2000	24
309.3000	23
320.5000	75
320.6000	21
345.4000	22
345.5000	30
345.6000	54
345.7000	54
345.8000	42
345.9000	46
346.0000	24
346.1000	42
346.2000	37
346.3000	21
346.4000	26
354.3000	58
354.4000	99
354.5000	150
354.6000	167
354.7000	161
354.8000	152
354.9000	129
355.0000	128
355.1000	152
355.2000	116
355.3000	112
355.4000	57
355.5000	42
355.6000	108
355.8000	21
356.0000	23
356.1000	22
356.3000	36
356.6000	22
384.3000	66
384.4000	36
385.3000	21
408.4000	31
408.5000	31
408.6000	26
408.7000	44
408.8000	26
408.9000	31
409.0000	28
409.1000	50
409.2000	30
462.5000	22
483.4000	47
483.5000	94
483.6000	93
483.7000	110
483.8000	115
483.9000	115
484.0000	129
484.1000	108
484.2000	85
484.3000	79
484.4000	33
484.5000	30
484.6000	28
484.7000	34
484.8000	26
484.9000	28
485.0000	27
537.8000	21
537.9000	24
612.3000	104
612.4000	226
612.5000	291
612.6000	285
612.7000	301
612.8000	323
612.9000	336
613.0000	369
613.1000	272
613.2000	251
613.3000	121
613.4000	83
613.5000	74
613.6000	73
613.7000	113
613.8000	111
613.9000	105
614.0000	102
614.1000	85
614.2000	73
614.3000	49
614.4000	44
614.5000	44
614.6000	46
614.7000	63
614.8000	70
614.9000	50
615.0000	59
615.1000	46
615.2000	57
615.9000	21
