Mass spectrum: cyclocarposide; LC-ESI-QQQ; MS; [M+H]+
Name: cyclocarposide
Class: Terpenoids
Formula: C41H68O13
Exact mass: 768.9913
SMILES: C[C@H]1O[C@H](O[C@H]2CC3[C@]4(C)C[C@H](O)C([C@@]5(C)CC[C@@H](C(C)(C)O)O5)[C@@]4(C)CC[C@]34C[C@@]43CCC(O[C@@H]4OC[C@@H](O)[C@H](O)[C@H]4O)C(C)(C)C23)[C@@H](O)[C@@H](O)[C@@H]1O
InChI: InChI=1S/C41H68O13/c1-19-26(44)28(46)30(48)34(51-19)52-22-15-23-38(7)16-20(42)31(39(8)11-9-25(54-39)36(4,5)49)37(38,6)13-14-40(23)18-41(40)12-10-24(35(2,3)32(22)41)53-33-29(47)27(45)21(43)17-50-33/h19-34,42-49H,9-18H2,1-8H3/t19-,20+,21-,22+,23?,24?,25+,26-,27+,28+,29-,30+,31?,32?,33+,34-,37-,38+,39-,40+,41-/m1/s1
Instrument: ABSciex API3200 LC/MS system
Instrument type: LC-ESI-QQQ
Ms type: MS
Ion mode: POSITIVE
Precursor type: [M+H]+
m/z	relative intensity
101.0000	40
114.8000	36
114.9000	25
115.0000	29
115.1000	30
115.2000	21
119.0000	118
119.1000	162
119.2000	153
119.3000	131
119.4000	107
119.5000	57
124.5000	21
124.9000	27
125.0000	39
125.1000	21
142.5000	234
142.6000	435
142.7000	666
142.8000	903
142.9000	637
143.0000	577
143.1000	589
143.2000	620
143.3000	470
143.4000	500
143.5000	269
143.6000	75
143.7000	79
143.8000	134
143.9000	75
144.0000	63
144.1000	48
144.2000	35
144.3000	91
144.4000	58
144.5000	32
198.6000	24
279.2000	30
289.2000	22
418.6000	27
418.7000	51
418.8000	50
418.9000	32
419.0000	55
419.1000	49
419.2000	37
419.3000	63
419.4000	42
419.5000	64
419.6000	43
419.7000	27
420.4000	22
436.5000	57
436.6000	125
436.7000	109
436.8000	113
436.9000	163
437.0000	207
437.1000	179
437.2000	218
437.3000	172
437.4000	180
437.5000	139
437.6000	78
437.7000	58
437.8000	81
437.9000	101
438.0000	80
438.1000	82
438.2000	95
438.3000	65
438.4000	62
438.5000	37
454.5000	51
454.6000	100
454.7000	201
454.8000	193
454.9000	191
455.0000	236
455.1000	231
455.2000	348
455.3000	269
455.4000	189
455.5000	185
455.6000	106
455.7000	71
455.8000	73
455.9000	49
456.0000	158
456.1000	71
456.2000	78
456.3000	94
456.4000	77
456.5000	30
456.6000	21
457.0000	47
457.4000	24
472.5000	22
472.6000	31
472.7000	76
472.8000	110
472.9000	102
473.0000	86
473.1000	104
473.2000	101
473.3000	135
473.4000	327
473.5000	135
473.6000	37
473.7000	31
473.8000	26
473.9000	31
474.0000	46
474.1000	31
474.2000	35
474.3000	34
474.5000	22
569.0000	25
569.1000	22
582.9000	112
583.0000	38
583.1000	33
583.3000	21
586.5000	58
586.6000	56
586.7000	74
586.8000	85
586.9000	120
587.0000	93
587.1000	128
587.2000	87
587.3000	108
587.4000	72
587.5000	53
587.6000	31
587.8000	36
587.9000	50
588.0000	57
588.1000	34
588.2000	38
588.3000	31
588.4000	27
600.6000	22
600.7000	26
600.8000	45
600.9000	53
601.0000	34
601.1000	38
601.2000	23
601.3000	56
601.4000	22
601.5000	34
601.8000	29
601.9000	21
604.9000	23
605.1000	27
605.2000	22
605.9000	21
618.6000	37
618.7000	78
618.8000	101
618.9000	139
619.0000	172
619.1000	168
619.2000	162
619.3000	138
619.4000	134
619.5000	104
619.7000	38
619.8000	60
619.9000	55
620.0000	72
620.1000	84
620.2000	63
620.3000	107
620.4000	73
620.5000	30
620.8000	23
636.7000	29
636.8000	40
636.9000	22
637.4000	21
732.6000	33
732.7000	31
732.8000	38
732.9000	45
733.0000	43
733.1000	55
733.2000	38
733.3000	136
733.4000	58
733.5000	22
734.2000	24
750.5000	26
750.6000	67
750.7000	84
750.8000	83
750.9000	138
751.0000	134
751.1000	153
751.2000	100
751.3000	117
751.4000	92
751.5000	59
751.6000	43
751.7000	52
751.8000	57
751.9000	57
752.0000	62
752.1000	74
752.2000	56
752.3000	54
752.4000	55
752.5000	72
752.6000	28
752.8000	21
752.9000	21
753.0000	28
753.1000	25
753.3000	21
768.4000	62
768.5000	201
768.6000	618
768.7000	753
768.8000	759
768.9000	909
769.0000	956
769.1000	999
769.2000	968
769.3000	959
769.4000	831
769.5000	604
769.6000	470
769.7000	434
769.8000	495
769.9000	495
770.0000	519
770.1000	557
770.2000	498
770.3000	475
770.4000	380
770.5000	240
770.6000	147
770.7000	106
770.8000	131
770.9000	104
771.0000	181
771.1000	173
771.2000	179
771.3000	156
771.4000	89
771.5000	82
771.6000	28
771.7000	30
771.8000	30
772.0000	38
772.1000	40
772.2000	31
772.3000	23
772.4000	26
786.1000	23
786.2000	26
786.3000	23
786.5000	21
786.6000	43
786.7000	40
786.8000	51
786.9000	60
787.0000	77
787.1000	87
787.2000	106
787.3000	86
787.4000	54
787.5000	26
787.6000	23
787.7000	35
787.8000	51
787.9000	44
788.0000	42
788.1000	33
788.2000	41
788.3000	28
788.4000	39
788.5000	37
809.6000	79
809.7000	125
809.8000	115
809.9000	163
810.0000	171
810.1000	152
810.2000	162
810.3000	146
810.4000	154
810.5000	125
810.6000	77
810.7000	36
810.8000	65
810.9000	81
811.0000	56
811.1000	68
811.2000	46
811.3000	71
811.4000	55
811.5000	23
812.0000	25
812.2000	25
812.3000	29
914.6000	24
915.1000	35
915.2000	21
915.3000	31
1025.2000	25
1025.3000	35
1025.4000	28
1025.5000	30
1025.6000	37
1025.8000	25
1025.9000	26
1026.2000	26
1026.4000	21
1152.6000	34
1152.7000	34
1152.8000	30
1152.9000	38
1153.0000	63
1153.1000	80
1153.2000	113
1153.3000	103
1153.4000	131
1153.5000	132
1153.6000	90
1153.7000	98
1153.8000	99
1153.9000	92
1154.0000	94
1154.1000	85
1154.2000	88
1154.3000	84
1154.4000	64
1154.5000	77
1154.6000	72
1154.7000	47
1154.8000	40
1154.9000	29
1155.0000	27
1155.1000	22
1155.2000	30
1280.9000	26
1281.1000	21
1281.2000	28
1281.3000	24
1281.4000	38
1281.5000	46
1281.6000	72
1281.7000	42
1281.8000	70
1281.9000	62
1282.0000	55
1282.1000	61
1282.2000	42
1282.3000	27
1282.4000	51
1282.5000	42
1282.6000	26
1282.7000	27
1282.8000	27
1282.9000	26
1283.2000	22
