Mass spectrum: Mangiferin; LC-ESI-QQQ; MS; [M+H]+
Name: Mangiferin
Class: Polyketides
Formula: C19H18O11
Exact mass: 422.3487
SMILES: O=c1c2cc(O)c(O)cc2oc2cc(O)c([C@@H]3O[C@H](CO)[C@@H](O)[C@H](O)[C@H]3O)c(O)c12
InChI: InChI=1S/C19H18O11/c20-4-11-15(25)17(27)18(28)19(30-11)12-8(23)3-10-13(16(12)26)14(24)5-1-6(21)7(22)2-9(5)29-10/h1-3,11,15,17-23,25-28H,4H2/t11-,15-,17+,18-,19+/m1/s1
Instrument: ABSciex API3200 LC/MS system
Instrument type: LC-ESI-QQQ
Ms type: MS
Ion mode: POSITIVE
Precursor type: [M+H]+
m/z	relative intensity
100.0000	25
118.5000	69
118.6000	52
118.7000	109
118.8000	41
118.9000	26
135.3000	21
142.2000	39
142.3000	134
142.4000	230
142.5000	135
142.6000	48
142.7000	21
198.1000	51
198.2000	205
198.3000	32
199.3000	35
220.5000	53
220.6000	73
220.7000	466
220.8000	117
220.9000	23
221.0000	35
221.1000	37
221.2000	32
238.8000	36
270.8000	21
272.3000	22
272.4000	51
272.5000	95
272.6000	114
272.7000	133
272.8000	104
272.9000	110
273.0000	92
273.1000	113
273.2000	89
273.3000	75
273.4000	35
273.5000	23
273.6000	28
284.5000	29
285.2000	22
299.0000	29
302.4000	58
302.5000	131
302.6000	95
302.7000	109
302.8000	137
302.9000	152
303.0000	116
303.1000	123
303.2000	105
303.3000	81
303.4000	38
303.6000	21
303.7000	25
304.0000	29
304.1000	31
326.3000	23
326.4000	39
326.5000	53
326.6000	78
326.7000	60
326.8000	100
326.9000	80
327.0000	79
327.1000	55
327.2000	60
327.3000	71
327.4000	31
327.6000	23
327.8000	27
328.0000	24
328.6000	21
338.8000	25
350.5000	23
350.8000	30
351.2000	21
356.3000	31
356.4000	103
356.5000	74
356.6000	60
356.7000	60
356.8000	67
356.9000	53
357.0000	48
357.1000	42
357.2000	43
357.3000	40
358.2000	27
368.4000	32
368.5000	28
368.6000	54
368.7000	48
368.8000	70
368.9000	56
369.0000	43
369.1000	46
369.2000	106
369.3000	26
386.4000	26
386.5000	46
386.6000	71
386.7000	51
386.8000	55
386.9000	49
387.0000	87
387.1000	75
387.2000	51
387.3000	24
387.7000	32
387.8000	55
404.3000	40
404.4000	61
404.5000	90
404.6000	92
404.7000	109
404.8000	92
404.9000	126
405.0000	80
405.1000	67
405.2000	72
405.3000	80
405.4000	57
405.5000	31
405.7000	25
406.0000	23
422.3000	115
422.4000	324
422.5000	377
422.6000	523
422.7000	560
422.8000	476
422.9000	466
423.0000	999
423.1000	533
423.2000	879
423.3000	501
423.4000	149
423.5000	124
423.6000	115
423.7000	118
423.8000	104
423.9000	85
424.0000	109
424.1000	78
424.2000	108
424.3000	81
424.4000	42
424.5000	54
424.8000	22
424.9000	26
425.0000	24
845.0000	30
845.9000	23
