Mass spectrum: Cepharanthine; LC-ESI-QQQ; MS; [M+H]+
Name: Cepharanthine
Class: Alkaloids
Formula: C37H38N2O6
Exact mass: 606.7252
SMILES: COc1ccc2cc1Oc1ccc(cc1)C[C@H]1c3c(cc4c(c3Oc3cc5c(cc3OC)CCN(C)[C@@H]5C2)OCO4)CCN1C
InChI: InChI=1S/C37H38N2O6/c1-38-13-11-24-18-31(41-4)33-20-27(24)28(38)16-23-7-10-30(40-3)32(17-23)44-26-8-5-22(6-9-26)15-29-35-25(12-14-39(29)2)19-34-36(37(35)45-33)43-21-42-34/h5-10,17-20,28-29H,11-16,21H2,1-4H3/t28-,29+/m1/s1
Instrument: ABSciex API3200 LC/MS system
Instrument type: LC-ESI-QQQ
Ms type: MS
Ion mode: POSITIVE
Precursor type: [M+H]+
m/z	relative intensity
109.1000	25
109.2000	35
121.7000	25
121.8000	34
121.9000	25
122.0000	27
122.1000	24
122.2000	33
122.3000	21
157.5000	25
157.6000	74
181.4000	52
188.6000	21
188.8000	115
189.6000	27
189.7000	29
189.8000	34
189.9000	37
190.0000	43
190.1000	47
190.2000	41
190.3000	48
190.4000	49
190.5000	28
190.6000	27
190.8000	21
191.6000	43
191.7000	46
196.8000	25
212.6000	23
226.7000	65
233.9000	31
240.5000	23
240.6000	21
240.7000	27
240.8000	26
240.9000	22
241.0000	29
241.1000	23
241.2000	33
252.9000	21
268.0000	26
287.9000	27
288.0000	50
288.1000	68
288.2000	66
288.3000	76
288.4000	84
288.5000	94
288.6000	83
288.7000	86
288.8000	82
288.9000	82
289.0000	65
289.1000	46
289.2000	47
289.3000	45
289.4000	42
289.5000	33
289.6000	27
289.8000	22
295.8000	23
296.0000	22
296.3000	23
296.9000	22
303.3000	131
303.4000	493
303.5000	736
303.6000	816
303.7000	863
303.8000	870
303.9000	917
304.0000	935
304.1000	934
304.2000	999
304.3000	930
304.4000	909
304.5000	780
304.6000	734
304.7000	587
304.8000	590
304.9000	564
305.0000	366
305.1000	297
305.2000	272
305.3000	261
305.4000	203
305.5000	111
305.6000	76
305.7000	49
305.8000	41
305.9000	35
306.0000	21
310.7000	30
324.1000	24
324.5000	22
324.6000	22
324.9000	21
349.4000	23
349.5000	30
349.6000	25
349.7000	25
349.9000	29
350.0000	25
350.1000	22
350.2000	21
366.6000	27
366.7000	26
366.8000	31
366.9000	33
367.0000	42
367.1000	37
367.2000	59
424.8000	24
427.0000	31
439.5000	27
439.6000	25
439.7000	33
439.8000	30
439.9000	31
440.0000	31
440.1000	34
440.2000	29
440.3000	27
441.7000	23
441.9000	21
442.0000	24
532.5000	31
532.6000	42
532.7000	45
532.8000	44
532.9000	47
533.0000	48
533.1000	43
533.2000	48
533.3000	42
533.6000	27
533.7000	21
548.6000	21
548.7000	38
563.4000	39
563.5000	111
563.6000	164
563.7000	152
563.8000	160
563.9000	169
564.0000	165
564.1000	162
564.2000	145
564.3000	144
564.4000	85
564.5000	66
564.6000	76
564.7000	77
564.8000	88
564.9000	73
565.0000	70
565.1000	80
565.2000	69
565.3000	59
565.4000	28
565.7000	25
565.8000	21
566.1000	23
606.4000	35
606.5000	85
606.6000	144
606.7000	167
606.8000	167
606.9000	159
607.0000	176
607.1000	177
607.2000	175
607.3000	140
607.4000	85
607.5000	73
607.6000	65
607.7000	84
607.8000	74
607.9000	64
608.0000	72
608.1000	75
608.2000	76
608.3000	62
608.4000	35
608.5000	31
608.6000	36
608.7000	35
608.8000	35
608.9000	30
609.0000	27
609.1000	24
609.2000	25
609.3000	21
