Mass spectrum: Visnadine; LC-ESI-QQQ; MS; [M+H]+
Name: Visnadine
Class: Benzopyranoids
Formula: C21H24O7
Exact mass: 388.4212
SMILES: CCC(C)C(=O)O[C@@H]1[C@H](OC(C)=O)c2c(ccc3ccc(=O)oc23)OC1(C)C
InChI: InChI=1S/C21H24O7/c1-6-11(2)20(24)27-19-18(25-12(3)22)16-14(28-21(19,4)5)9-7-13-8-10-15(23)26-17(13)16/h7-11,18-19H,6H2,1-5H3/t11?,18-,19-/m1/s1
Instrument: ABSciex API3200 LC/MS system
Instrument type: LC-ESI-QQQ
Ms type: MS
Ion mode: POSITIVE
Precursor type: [M+H]+
m/z	relative intensity
142.4000	35
226.3000	68
226.4000	129
226.5000	164
226.6000	200
226.7000	214
226.8000	295
226.9000	252
227.0000	320
227.1000	217
227.2000	202
227.3000	170
227.4000	130
227.5000	57
227.6000	41
227.7000	44
227.8000	39
227.9000	45
228.0000	47
228.1000	48
228.2000	46
228.3000	31
228.4000	31
244.3000	42
244.4000	266
244.5000	487
244.6000	558
244.7000	570
244.8000	563
244.9000	569
245.0000	547
245.1000	534
245.2000	578
245.3000	589
245.4000	317
245.5000	152
245.6000	130
245.7000	106
245.8000	130
245.9000	104
246.0000	107
246.1000	89
246.2000	88
246.3000	87
246.4000	62
246.5000	29
328.3000	39
328.4000	392
328.5000	740
328.6000	957
328.7000	985
328.8000	999
328.9000	979
329.0000	997
329.1000	972
329.2000	900
329.3000	816
329.4000	672
329.5000	384
329.6000	344
329.7000	325
329.8000	334
329.9000	356
330.0000	361
330.1000	339
330.2000	314
330.3000	280
330.4000	235
330.5000	105
330.6000	69
330.7000	71
330.8000	62
330.9000	86
331.0000	85
331.1000	50
331.2000	62
331.3000	50
331.4000	40
388.5000	27
388.6000	37
388.7000	44
388.8000	48
388.9000	58
389.0000	54
389.1000	65
389.2000	52
389.3000	42
389.4000	34
389.5000	26
405.4000	77
405.5000	214
405.6000	333
405.7000	352
405.8000	376
405.9000	376
406.0000	383
406.1000	355
406.2000	343
406.3000	302
406.4000	246
406.5000	129
406.6000	107
406.7000	94
406.8000	101
406.9000	97
407.0000	105
407.1000	105
407.2000	109
407.3000	118
407.4000	83
407.5000	28
407.6000	21
410.7000	26
433.9000	21
776.5000	30
776.6000	34
776.7000	39
776.8000	40
776.9000	43
777.0000	43
777.1000	42
777.2000	35
777.3000	23
778.0000	25
778.1000	25
793.5000	29
793.6000	51
793.7000	91
793.8000	104
793.9000	67
794.0000	63
794.1000	64
794.2000	51
794.3000	44
794.6000	26
794.7000	38
794.8000	38
794.9000	34
795.0000	33
795.1000	35
795.2000	31
795.3000	21
