Mass spectrum: 7-Hydroxy-4-methyl-2H-1-benzopyran-2-one, 9CI, O-beta-D-Glucopyranoside; LC-ESI-QQQ; MS; [M+H]+
Name: 7-Hydroxy-4-methyl-2H-1-benzopyran-2-one, 9CI, O-beta-D-Glucopyranoside
Class: Benzopyranoids
Formula: C16H18O8
Exact mass: 338.3171
SMILES: Cc1cc(=O)oc2cc(O[C@@H]3O[C@H](CO)[C@@H](O)[C@H](O)[C@H]3O)ccc12
InChI: InChI=1S/C16H18O8/c1-7-4-12(18)23-10-5-8(2-3-9(7)10)22-16-15(21)14(20)13(19)11(6-17)24-16/h2-5,11,13-17,19-21H,6H2,1H3/t11-,13-,14+,15-,16-/m1/s1
Instrument: ABSciex API3200 LC/MS system
Instrument type: LC-ESI-QQQ
Ms type: MS
Ion mode: POSITIVE
Precursor type: [M+H]+
m/z	relative intensity
101.2000	21
101.3000	28
101.5000	36
101.8000	22
118.4000	42
118.5000	53
118.6000	58
118.7000	62
118.8000	128
118.9000	196
119.0000	174
119.1000	200
119.2000	185
119.3000	95
119.4000	123
119.5000	47
119.6000	66
119.7000	62
128.9000	33
134.8000	46
141.4000	62
141.5000	98
141.6000	94
141.7000	92
141.8000	298
141.9000	63
142.0000	38
142.1000	21
142.4000	43
176.3000	51
176.4000	288
176.5000	593
176.6000	643
176.7000	647
176.8000	646
176.9000	643
177.0000	631
177.1000	589
177.2000	693
177.3000	999
177.4000	553
177.5000	149
177.6000	86
177.7000	44
177.8000	57
177.9000	104
178.0000	64
178.1000	99
178.2000	83
178.3000	39
178.4000	37
198.0000	24
220.8000	31
221.1000	45
221.3000	108
221.6000	25
221.7000	51
222.7000	21
227.0000	21
338.2000	24
338.3000	182
338.4000	503
338.5000	756
338.6000	701
338.7000	853
338.8000	735
338.9000	741
339.0000	960
339.1000	803
339.2000	998
339.3000	594
339.4000	389
339.5000	195
339.6000	427
339.7000	388
339.8000	124
339.9000	132
340.0000	120
340.1000	104
340.2000	90
340.3000	94
340.4000	68
340.5000	28
340.6000	27
340.7000	25
341.0000	27
341.3000	24
355.7000	29
355.8000	24
355.9000	22
356.0000	37
356.1000	24
356.3000	29
380.2000	22
380.3000	51
390.5000	33
676.3000	44
676.4000	90
676.5000	154
676.6000	134
676.7000	126
676.8000	144
676.9000	168
677.0000	124
677.1000	99
677.2000	101
677.3000	44
677.4000	71
677.5000	51
677.6000	53
677.7000	52
677.8000	59
677.9000	92
678.0000	71
678.1000	51
678.2000	54
693.4000	27
693.5000	22
693.6000	24
693.7000	25
693.8000	21
693.9000	33
694.0000	31
694.1000	38
694.2000	40
