Mass spectrum: Pseudokopsinine; LC-ESI-QQQ; MS; [M+H]+
Name: methyl (4S,19S,1R,20R)-20-methyl-5,15-diazahexacyclo(10.6.1.1(1,4).0(4,12).0(6,11).0(5,19))icosa-6(11),7,9-triene-3-carboxylate
Name: Pseudokopsinine
Class: Alkaloids
Formula: C21H26N2O2
Exact mass: 338.4536
SMILES: COC(=O)C1C[C@]23CCCN4CCC5(c6ccccc6N[C@@]15C2C)[C@@H]43
InChI: InChI=1S/C21H26N2O2/c1-13-19-8-5-10-23-11-9-20(18(19)23)14-6-3-4-7-16(14)22-21(13,20)15(12-19)17(24)25-2/h3-4,6-7,13,15,18,22H,5,8-12H2,1-2H3/t13?,15?,18-,19+,20?,21-/m0/s1
Instrument: ABSciex API3200 LC/MS system
Instrument type: LC-ESI-QQQ
Ms type: MS
Ion mode: POSITIVE
Precursor type: [M+H]+
m/z	relative intensity
100.4000	67
100.5000	137
100.6000	128
100.7000	99
100.8000	65
100.9000	70
101.0000	41
101.1000	31
319.5000	38
319.6000	43
319.7000	41
319.8000	43
319.9000	42
320.0000	51
320.1000	38
320.2000	35
320.3000	45
320.4000	42
320.5000	23
321.1000	43
321.2000	29
336.4000	22
336.5000	54
336.6000	68
336.7000	71
336.8000	80
336.9000	116
337.0000	78
337.1000	87
337.2000	261
337.3000	84
337.4000	50
337.5000	23
337.6000	23
337.8000	31
337.9000	23
338.1000	24
338.2000	51
338.3000	117
338.4000	616
338.5000	747
338.6000	887
338.7000	930
338.8000	952
338.9000	920
339.0000	962
339.1000	999
339.2000	958
339.3000	913
339.4000	932
339.5000	672
339.6000	567
339.7000	563
339.8000	508
339.9000	542
340.0000	536
340.1000	521
340.2000	522
340.3000	426
340.4000	449
340.5000	290
340.6000	193
340.7000	171
340.8000	146
340.9000	119
341.0000	130
341.1000	141
341.2000	128
341.3000	120
341.4000	106
341.5000	67
341.6000	26
341.7000	23
341.8000	22
342.1000	21
352.5000	24
352.6000	37
352.7000	54
352.8000	44
352.9000	42
353.0000	50
353.1000	32
353.2000	43
353.3000	36
353.4000	39
353.5000	22
712.8000	23
712.9000	21
713.0000	22
713.1000	28
713.2000	22
713.3000	23
714.0000	21
