Mass spectrum: Poststerone; LC-ESI-QQQ; MS; [M+H]+
Name: Poststerone
Class: Steroids
Formula: C21H30O5
Exact mass: 362.47025
SMILES: CC(=O)C1CC[C@@]2(O)C3=CC(=O)C4CC(O)C(O)C[C@]4(C)C3CC[C@]12C
InChI: InChI=1S/C21H30O5/c1-11(22)12-5-7-21(26)14-8-16(23)15-9-17(24)18(25)10-19(15,2)13(14)4-6-20(12,21)3/h8,12-13,15,17-18,24-26H,4-7,9-10H2,1-3H3/t12?,13?,15?,17?,18?,19-,20-,21-/m1/s1
Instrument: ABSciex API3200 LC/MS system
Instrument type: LC-ESI-QQQ
Ms type: MS
Ion mode: POSITIVE
Precursor type: [M+H]+
m/z	relative intensity
148.9000	32
149.7000	23
173.0000	33
214.6000	28
214.7000	33
214.8000	34
214.9000	55
215.0000	33
215.1000	33
215.2000	23
215.3000	26
215.4000	31
232.6000	27
232.7000	30
232.8000	30
232.9000	31
233.0000	30
233.1000	27
233.2000	31
233.3000	33
233.4000	29
233.5000	23
233.8000	34
266.8000	50
266.9000	23
267.2000	23
284.9000	23
285.0000	22
308.6000	26
308.7000	43
308.8000	24
308.9000	24
309.0000	21
309.2000	25
326.5000	30
326.6000	41
326.7000	30
326.8000	38
326.9000	39
327.0000	41
327.1000	41
327.2000	58
327.3000	57
327.4000	41
344.5000	63
344.6000	97
344.7000	126
344.8000	135
344.9000	163
345.0000	168
345.1000	235
345.2000	138
345.3000	125
345.4000	118
345.5000	86
345.6000	42
345.7000	38
345.8000	36
345.9000	40
346.0000	45
346.1000	34
346.2000	54
346.3000	120
346.4000	90
362.3000	29
362.4000	208
362.5000	558
362.6000	820
362.7000	957
362.8000	939
362.9000	972
363.0000	999
363.1000	947
363.2000	882
363.3000	929
363.4000	841
363.5000	628
363.6000	304
363.7000	293
363.8000	276
363.9000	267
364.0000	260
364.1000	264
364.2000	274
364.3000	228
364.4000	214
364.5000	126
364.6000	48
364.7000	47
364.8000	61
364.9000	46
365.0000	50
365.1000	45
365.2000	46
365.3000	32
365.4000	33
365.5000	27
379.0000	21
379.1000	26
379.2000	26
379.4000	22
379.5000	56
379.6000	26
380.2000	24
403.5000	72
403.6000	132
403.7000	160
403.8000	199
403.9000	195
404.0000	206
404.1000	192
404.2000	199
404.3000	173
404.4000	155
404.5000	88
404.6000	45
404.7000	46
404.8000	46
404.9000	49
405.0000	49
405.1000	40
405.2000	37
405.3000	46
405.4000	35
405.5000	21
405.9000	29
708.0000	41
724.5000	33
724.6000	84
724.7000	129
724.8000	160
724.9000	177
725.0000	179
725.1000	208
725.2000	176
725.3000	156
725.4000	132
725.5000	80
725.6000	48
725.7000	74
725.8000	76
725.9000	87
726.0000	82
726.1000	73
726.2000	83
726.3000	76
726.4000	61
726.5000	33
726.6000	25
726.7000	22
726.8000	21
726.9000	31
727.0000	22
