Mass spectrum: T2 Toxin; LC-ESI-QQQ; MS; [M+H]+
Name: T2 Toxin
Class: Terpenoids
Formula: C24H34O9
Exact mass: 466.5332
SMILES: CC(=O)OC[C@]12C[C@H](OC(=O)CC(C)C)C(C)=C[C@H]1OC1[C@H](O)[C@@H](OC(C)=O)[C@@]2(C)[C@@]12CO2
InChI: InChI=1S/C24H34O9/c1-12(2)7-18(27)32-16-9-23(10-29-14(4)25)17(8-13(16)3)33-21-19(28)20(31-15(5)26)22(23,6)24(21)11-30-24/h8,12,16-17,19-21,28H,7,9-11H2,1-6H3/t16-,17+,19+,20+,21?,22+,23+,24+/m0/s1
Instrument: ABSciex API3200 LC/MS system
Instrument type: LC-ESI-QQQ
Ms type: MS
Ion mode: POSITIVE
Precursor type: [M+H]+
m/z	relative intensity
104.5000	52
104.6000	67
104.7000	76
104.8000	73
104.9000	80
105.0000	117
105.1000	74
105.2000	85
105.3000	87
105.4000	57
105.5000	25
118.6000	31
118.7000	38
118.8000	39
118.9000	26
119.0000	36
119.1000	22
119.2000	31
119.3000	52
119.4000	21
120.7000	22
120.8000	31
120.9000	30
121.0000	36
121.2000	23
122.6000	26
122.7000	30
122.8000	36
122.9000	47
123.0000	43
123.1000	34
123.2000	27
123.3000	24
124.6000	23
124.8000	22
125.0000	23
125.1000	22
125.2000	25
128.7000	36
128.9000	27
129.0000	21
129.1000	32
129.2000	28
129.4000	22
130.7000	31
130.8000	47
131.0000	24
131.1000	22
131.2000	21
132.7000	21
132.8000	22
132.9000	26
133.0000	24
133.3000	21
140.5000	45
140.6000	39
140.7000	31
140.8000	38
140.9000	39
141.0000	38
141.1000	41
141.2000	33
141.3000	33
141.4000	61
141.5000	82
141.6000	69
141.7000	47
141.9000	24
142.0000	69
142.1000	91
142.2000	89
142.3000	97
142.4000	177
142.5000	96
142.6000	75
142.7000	74
142.8000	85
142.9000	87
143.0000	69
143.1000	90
143.2000	80
143.3000	82
143.4000	55
143.5000	24
144.1000	22
144.3000	23
144.4000	32
144.5000	71
144.6000	76
144.7000	85
144.8000	100
144.9000	92
145.0000	95
145.1000	96
145.2000	80
145.3000	71
145.4000	53
145.5000	30
146.7000	29
146.8000	27
146.9000	24
147.0000	34
147.2000	21
152.7000	21
153.3000	28
153.4000	38
153.5000	79
153.6000	69
153.7000	84
153.8000	61
153.9000	71
154.0000	63
154.1000	55
154.2000	61
154.3000	40
154.4000	42
154.5000	35
154.6000	22
154.7000	29
154.8000	43
154.9000	35
155.0000	35
155.1000	28
155.2000	28
155.3000	29
155.4000	26
155.5000	28
155.6000	25
155.7000	40
155.8000	36
155.9000	32
156.0000	34
156.1000	32
156.2000	26
156.3000	27
156.4000	53
156.5000	125
156.6000	163
156.7000	242
156.8000	265
156.9000	197
157.0000	189
157.1000	179
157.2000	157
157.3000	157
157.4000	138
157.5000	81
157.6000	43
157.7000	39
157.8000	47
157.9000	28
158.0000	32
158.1000	38
158.2000	27
158.3000	32
158.4000	60
158.5000	100
158.6000	114
158.7000	107
158.8000	120
158.9000	131
159.0000	125
159.1000	109
159.2000	107
159.3000	113
159.4000	149
159.5000	47
160.4000	22
160.5000	29
160.6000	30
160.7000	32
160.8000	24
160.9000	44
161.0000	39
161.1000	46
161.2000	27
161.3000	25
161.4000	23
165.7000	23
165.8000	23
165.9000	21
166.4000	22
166.5000	22
166.6000	26
166.8000	25
166.9000	27
167.1000	26
167.4000	21
168.3000	35
168.4000	127
168.5000	302
168.6000	244
168.7000	271
168.8000	263
168.9000	301
169.0000	230
169.1000	260
169.2000	243
169.3000	272
169.4000	243
169.5000	101
169.6000	78
169.7000	50
169.8000	51
169.9000	60
170.0000	76
170.1000	53
170.2000	38
170.3000	36
170.4000	61
170.5000	69
170.6000	108
170.7000	121
170.8000	100
170.9000	100
171.0000	120
171.1000	118
171.2000	98
171.3000	87
171.4000	74
171.5000	52
171.6000	34
171.7000	27
171.8000	21
172.0000	26
172.1000	24
172.2000	31
172.3000	26
172.4000	48
172.5000	63
172.6000	102
172.7000	106
172.8000	99
172.9000	106
173.0000	107
173.1000	92
173.2000	89
173.3000	79
173.4000	66
173.5000	34
174.4000	21
174.6000	22
174.8000	26
175.0000	21
175.2000	21
179.0000	24
179.1000	24
179.2000	33
180.4000	35
180.5000	66
180.6000	101
180.7000	106
180.8000	91
180.9000	97
181.0000	79
181.1000	85
181.2000	67
181.3000	67
181.4000	92
181.5000	52
181.6000	46
181.7000	54
181.8000	51
181.9000	46
182.0000	39
182.1000	35
182.2000	42
182.3000	38
182.4000	40
182.5000	27
182.6000	33
182.7000	28
182.8000	37
182.9000	32
183.0000	29
183.1000	29
183.2000	24
183.4000	22
184.3000	26
184.4000	166
184.5000	373
184.6000	472
184.7000	516
184.8000	533
184.9000	618
185.0000	570
185.1000	635
185.2000	433
185.3000	461
185.4000	369
185.5000	176
185.6000	122
185.7000	74
185.8000	87
185.9000	78
186.0000	78
186.1000	67
186.2000	67
186.3000	58
186.4000	81
186.5000	110
186.6000	139
186.7000	182
186.8000	141
186.9000	159
187.0000	146
187.1000	174
187.2000	118
187.3000	119
187.4000	107
187.5000	55
187.6000	30
188.1000	30
188.3000	22
189.0000	23
196.3000	41
196.4000	180
196.5000	279
196.6000	401
196.7000	447
196.8000	405
196.9000	382
197.0000	402
197.1000	370
197.2000	350
197.3000	319
197.4000	326
197.5000	158
197.6000	64
197.7000	84
197.8000	62
197.9000	42
198.0000	34
198.1000	28
198.2000	29
198.3000	37
198.4000	72
198.5000	126
198.6000	150
198.7000	178
198.8000	327
198.9000	315
199.0000	168
199.1000	160
199.2000	120
199.3000	121
199.4000	132
199.5000	64
199.6000	36
199.7000	23
199.8000	38
199.9000	27
200.0000	39
200.1000	36
200.3000	27
200.4000	37
200.5000	38
200.8000	25
202.4000	54
202.5000	142
202.6000	171
202.7000	198
202.8000	178
202.9000	193
203.0000	193
203.1000	170
203.2000	181
203.3000	151
203.4000	146
203.5000	89
203.6000	37
203.7000	34
203.8000	31
203.9000	22
204.0000	31
204.1000	28
204.2000	25
204.3000	22
208.4000	21
208.5000	43
208.6000	61
208.7000	59
208.8000	72
208.9000	72
209.0000	69
209.1000	82
209.2000	64
209.3000	58
209.4000	66
209.5000	27
214.3000	21
214.4000	191
214.5000	449
214.6000	563
214.7000	669
214.8000	695
214.9000	671
215.0000	662
215.1000	687
215.2000	684
215.3000	594
215.4000	568
215.5000	249
215.6000	135
215.7000	105
215.8000	119
215.9000	117
216.0000	122
216.1000	118
216.2000	111
216.3000	98
216.4000	93
216.5000	58
216.6000	39
216.7000	37
216.8000	30
216.9000	51
217.0000	27
217.1000	36
217.2000	38
217.3000	28
217.4000	25
226.3000	41
226.4000	131
226.5000	244
226.6000	278
226.7000	333
226.8000	392
226.9000	455
227.0000	310
227.1000	318
227.2000	287
227.3000	266
227.4000	233
227.5000	97
227.6000	74
227.7000	57
227.8000	59
227.9000	59
228.0000	50
228.1000	55
228.2000	51
228.3000	45
228.4000	39
228.5000	38
228.6000	21
232.4000	58
232.5000	76
232.6000	110
232.7000	121
232.8000	134
232.9000	132
233.0000	142
233.1000	126
233.2000	140
233.3000	122
233.4000	118
233.5000	46
233.6000	24
233.9000	32
234.1000	21
244.3000	35
244.4000	221
244.5000	454
244.6000	577
244.7000	687
244.8000	622
244.9000	654
245.0000	609
245.1000	632
245.2000	572
245.3000	627
245.4000	499
245.5000	235
245.6000	168
245.7000	113
245.8000	133
245.9000	107
246.0000	112
246.1000	120
246.2000	102
246.3000	90
246.4000	83
246.5000	49
246.6000	28
256.4000	105
256.5000	174
256.6000	216
256.7000	241
256.8000	292
256.9000	284
257.0000	267
257.1000	249
257.2000	237
257.3000	201
257.4000	177
257.5000	82
257.6000	60
257.7000	55
257.8000	51
257.9000	37
258.0000	47
258.1000	35
258.2000	42
258.3000	42
258.4000	32
262.4000	44
262.5000	36
262.6000	37
262.7000	32
262.8000	43
262.9000	40
263.0000	66
263.1000	46
263.2000	36
263.3000	33
263.4000	24
268.4000	21
268.5000	29
268.6000	45
268.7000	44
268.8000	41
268.9000	47
269.0000	47
269.1000	47
269.2000	35
269.3000	31
269.4000	34
274.3000	22
274.4000	80
274.5000	152
274.6000	182
274.7000	203
274.8000	197
274.9000	199
275.0000	207
275.1000	181
275.2000	206
275.3000	159
275.4000	139
275.5000	66
275.6000	42
275.7000	48
275.8000	39
275.9000	37
276.0000	32
276.1000	25
276.2000	36
276.3000	32
276.4000	28
286.4000	89
286.5000	179
286.6000	219
286.7000	231
286.8000	259
286.9000	284
287.0000	292
287.1000	248
287.2000	229
287.3000	199
287.4000	177
287.5000	80
287.6000	63
287.7000	57
287.8000	41
287.9000	52
288.0000	55
288.1000	51
288.2000	41
288.3000	34
288.4000	36
292.6000	23
292.7000	30
292.8000	33
292.9000	27
293.2000	23
304.3000	110
304.4000	345
304.5000	596
304.6000	713
304.7000	852
304.8000	828
304.9000	812
305.0000	905
305.1000	999
305.2000	693
305.3000	673
305.4000	529
305.5000	233
305.6000	186
305.7000	181
305.8000	157
305.9000	153
306.0000	155
306.1000	142
306.2000	189
306.3000	140
306.4000	89
306.5000	36
306.6000	29
306.7000	28
306.9000	25
307.0000	22
316.4000	25
316.5000	44
316.6000	62
316.7000	56
316.8000	72
316.9000	65
317.0000	44
317.1000	50
317.2000	44
317.3000	53
317.4000	35
322.5000	28
322.6000	50
322.7000	52
322.8000	45
322.9000	48
323.0000	55
323.1000	45
323.2000	42
323.3000	35
323.4000	34
328.5000	21
328.6000	39
328.7000	38
328.8000	30
328.9000	34
329.0000	32
329.1000	42
329.2000	38
329.3000	23
329.4000	26
334.6000	33
334.7000	29
334.8000	32
334.9000	33
335.0000	33
335.1000	31
335.2000	31
345.5000	22
345.6000	24
345.7000	32
345.8000	22
345.9000	29
346.0000	33
346.1000	26
346.2000	26
346.3000	51
346.4000	111
346.5000	163
346.6000	193
346.7000	199
346.8000	208
346.9000	203
347.0000	207
347.1000	195
347.2000	175
347.3000	159
347.4000	131
347.5000	80
347.6000	59
347.7000	78
347.8000	47
347.9000	45
348.0000	46
348.1000	39
348.2000	40
348.3000	37
348.4000	24
364.3000	43
364.4000	164
364.5000	303
364.6000	407
364.7000	429
364.8000	447
364.9000	476
365.0000	500
365.1000	456
365.2000	410
365.3000	380
365.4000	303
365.5000	138
365.6000	119
365.7000	125
365.8000	150
365.9000	112
366.0000	102
366.1000	106
366.2000	93
366.3000	81
366.4000	69
366.5000	27
366.6000	23
388.5000	31
388.6000	26
388.7000	24
388.8000	29
388.9000	24
389.0000	34
389.1000	30
389.3000	27
406.4000	39
406.5000	59
406.6000	76
406.7000	85
406.8000	75
406.9000	85
407.0000	86
407.1000	75
407.2000	86
407.3000	77
407.4000	58
407.5000	30
407.6000	26
407.7000	26
407.8000	26
407.9000	24
448.4000	46
448.5000	87
448.6000	129
448.7000	135
448.8000	124
448.9000	140
449.0000	136
449.1000	122
449.2000	123
449.3000	121
449.4000	74
449.5000	48
449.6000	35
449.7000	40
449.8000	44
449.9000	31
450.0000	42
450.1000	41
450.2000	23
450.3000	29
450.4000	25
466.4000	65
466.5000	128
466.6000	229
466.7000	257
466.8000	280
466.9000	300
467.0000	293
467.1000	311
467.2000	302
467.3000	239
467.4000	180
467.5000	95
467.6000	85
467.7000	81
467.8000	100
467.9000	80
468.0000	76
468.1000	70
468.2000	73
468.3000	73
468.4000	48
468.5000	23
468.6000	23
468.7000	27
483.3000	59
483.4000	175
483.5000	449
483.6000	656
483.7000	746
483.8000	839
483.9000	922
484.0000	900
484.1000	811
484.2000	776
484.3000	709
484.4000	574
484.5000	297
484.6000	260
484.7000	262
484.8000	268
484.9000	251
485.0000	241
485.1000	234
485.2000	248
485.3000	207
485.4000	157
485.5000	88
485.6000	62
485.7000	63
485.8000	70
485.9000	53
486.0000	61
486.1000	55
486.2000	68
486.3000	30
486.4000	39
488.6000	26
488.7000	36
488.8000	38
488.9000	39
489.0000	30
489.1000	35
489.2000	37
489.3000	29
508.5000	22
508.6000	33
508.7000	28
508.8000	48
508.9000	37
509.0000	41
509.1000	47
509.2000	30
509.3000	21
511.6000	25
511.7000	25
511.8000	37
511.9000	25
512.0000	32
512.1000	37
512.2000	36
512.3000	53
512.4000	27
538.7000	23
538.8000	26
538.9000	25
539.0000	23
539.2000	21
539.3000	21
711.1000	22
728.3000	40
728.4000	91
728.5000	140
728.6000	172
728.7000	178
728.8000	207
728.9000	191
729.0000	193
729.1000	176
729.2000	167
729.3000	157
729.4000	99
729.5000	90
729.6000	82
729.7000	82
729.8000	84
729.9000	78
730.0000	94
730.1000	76
730.2000	77
730.3000	47
730.4000	26
730.5000	25
730.6000	21
730.7000	26
730.9000	29
731.0000	23
731.1000	21
731.3000	25
812.6000	21
812.7000	25
812.8000	31
812.9000	31
813.0000	73
813.1000	41
813.2000	27
830.3000	25
830.4000	73
830.5000	106
830.6000	120
830.7000	125
830.8000	124
830.9000	134
831.0000	148
831.1000	138
831.2000	121
831.3000	119
831.4000	87
831.5000	67
831.6000	64
831.7000	67
831.8000	68
831.9000	65
832.0000	77
832.1000	99
832.2000	68
832.3000	56
832.4000	34
832.5000	25
832.6000	27
832.9000	23
833.0000	23
833.1000	27
932.3000	31
932.4000	67
932.5000	85
932.6000	94
932.7000	111
932.8000	117
932.9000	142
933.0000	138
933.1000	136
933.2000	131
933.3000	109
933.4000	84
933.5000	86
933.6000	57
933.7000	59
933.8000	59
933.9000	69
934.0000	59
934.1000	60
934.2000	64
934.3000	43
934.4000	43
934.5000	23
949.4000	45
949.5000	63
949.6000	65
949.7000	80
949.8000	77
949.9000	83
950.0000	90
950.1000	86
950.2000	94
950.3000	80
950.4000	73
950.5000	59
950.6000	49
950.7000	49
950.8000	53
950.9000	50
951.0000	53
951.1000	56
951.2000	51
951.3000	44
951.4000	44
951.9000	23
952.1000	23
952.2000	27
