Mass spectrum: Erythromycin propionate; LC-ESI-QQQ; MS; [M+H]+
Name: Erythromycin propionate
Class: Polyketides
Formula: C40H71NO14
Exact mass: 790.01017
SMILES: CCC(=O)OC1C(O[C@@H]2C(C)[C@H](OC3CC(C)(OC)[C@H](O)[C@@H](C)O3)[C@@H](C)C(=O)OC(CC)[C@@](C)(O)[C@H](O)[C@@H](C)C(=O)[C@H](C)C[C@]2(C)O)OC(C)CC1N(C)C
InChI: InChI=1S/C40H71NO14/c1-15-27-40(11,48)33(44)22(5)30(43)20(3)18-38(9,47)35(55-37-32(53-28(42)16-2)26(41(12)13)17-21(4)50-37)23(6)31(24(7)36(46)52-27)54-29-19-39(10,49-14)34(45)25(8)51-29/h20-27,29,31-35,37,44-45,47-48H,15-19H2,1-14H3/t20-,21?,22+,23?,24-,25-,26?,27?,29?,31+,32?,33-,34-,35-,37?,38+,39?,40-/m1/s1
Instrument: ABSciex API3200 LC/MS system
Instrument type: LC-ESI-QQQ
Ms type: MS
Ion mode: POSITIVE
Precursor type: [M+H]+
m/z	relative intensity
157.9000	22
213.5000	105
213.6000	181
213.7000	233
213.8000	276
213.9000	282
214.0000	293
214.1000	292
214.2000	269
214.3000	268
214.4000	223
214.5000	175
214.6000	68
214.7000	40
214.8000	33
214.9000	33
215.0000	33
215.1000	35
215.2000	24
215.3000	27
215.4000	25
613.8000	33
613.9000	35
614.0000	38
614.1000	36
614.2000	39
614.3000	35
614.4000	33
614.5000	23
631.7000	24
631.8000	26
631.9000	22
632.0000	28
632.1000	42
632.2000	57
632.3000	27
715.8000	21
715.9000	31
716.0000	41
716.1000	26
716.2000	27
716.3000	29
716.4000	22
772.1000	25
772.2000	27
789.4000	44
789.5000	188
789.6000	514
789.7000	832
789.8000	939
789.9000	948
790.0000	998
790.1000	991
790.2000	999
790.3000	990
790.4000	869
790.5000	727
790.6000	449
790.7000	447
790.8000	532
790.9000	573
791.0000	636
791.1000	605
791.2000	624
791.3000	605
791.4000	565
791.5000	466
791.6000	242
791.7000	228
791.8000	233
791.9000	230
792.0000	240
792.1000	261
792.2000	262
792.3000	239
792.4000	222
792.5000	206
792.6000	95
792.7000	62
792.8000	62
792.9000	63
793.0000	65
793.1000	65
793.2000	65
793.3000	73
793.4000	53
793.5000	44
