Mass spectrum: Napelline N-oxide; LC-ESI-QQQ; MS; [M+H]+
Name: Napelline N-oxide
Class: Alkaloids
Formula: C22H33NO4
Exact mass: 375.5126
SMILES: C=C1[C@H]2C[C@]3(C4CC5[C@@]6(C)CC[C@H](O)[C@]5(C3C[C@@H]2O)C4[N+]([O-])(CC)C6)[C@@H]1O
InChI: InChI=1S/C22H33NO4/c1-4-23(27)10-20(3)6-5-17(25)22-15(20)7-13(18(22)23)21-9-12(11(2)19(21)26)14(24)8-16(21)22/h12-19,24-26H,2,4-10H2,1,3H3/t12-,13?,14+,15?,16?,17+,18?,19-,20+,21-,22+,23?/m1/s1
Instrument: ABSciex API3200 LC/MS system
Instrument type: LC-ESI-QQQ
Ms type: MS
Ion mode: POSITIVE
Precursor type: [M+H]+
m/z	relative intensity
113.9000	22
114.0000	74
114.1000	155
114.2000	100
114.3000	66
114.4000	57
114.5000	28
357.7000	39
357.8000	42
358.2000	22
358.4000	21
358.8000	21
359.7000	23
359.9000	22
373.5000	26
373.6000	31
373.7000	43
373.8000	80
373.9000	60
374.0000	45
374.1000	48
374.2000	63
374.3000	55
374.4000	71
374.5000	43
375.4000	131
375.5000	439
375.6000	837
375.7000	934
375.8000	964
375.9000	997
376.0000	999
376.1000	939
376.2000	909
376.3000	884
376.4000	781
376.5000	702
376.6000	404
376.7000	352
376.8000	380
376.9000	374
377.0000	382
377.1000	317
377.2000	341
377.3000	325
377.4000	299
377.5000	281
377.6000	82
377.7000	83
377.8000	74
377.9000	78
378.0000	68
378.1000	72
378.2000	50
378.3000	80
378.4000	47
378.5000	43
378.7000	27
379.2000	27
379.3000	31
