Mass spectrum: Flaconitine; LC-ESI-QQQ; MS; [M+H]+
Name: Flaconitine
Class: Alkaloids
Formula: C36H49NO12
Exact mass: 687.79143
SMILES: CCN1C[C@@]2(COC)C3[C@@H](OC)[C@H]4C1[C@@]3(C1C[C@]3(O)[C@@H](OC)[C@H](O)[C@@]4(OC(C)=O)C1[C@H]3OC(=O)c1ccccc1)[C@@H](OC)C[C@H]2OC(C)=O
InChI: InChI=1S/C36H49NO12/c1-8-37-16-33(17-43-4)22(47-18(2)38)14-23(44-5)35-21-15-34(42)30(48-32(41)20-12-10-9-11-13-20)24(21)36(49-19(3)39,29(40)31(34)46-7)25(28(35)37)26(45-6)27(33)35/h9-13,21-31,40,42H,8,14-17H2,1-7H3/t21?,22-,23+,24?,25+,26+,27?,28?,29+,30-,31+,33+,34-,35+,36-/m1/s1
Instrument: ABSciex API3200 LC/MS system
Instrument type: LC-ESI-QQQ
Ms type: MS
Ion mode: POSITIVE
Precursor type: [M+H]+
m/z	relative intensity
100.4000	104
100.5000	177
100.6000	194
100.7000	231
100.8000	271
100.9000	293
101.0000	315
101.1000	305
101.2000	259
101.3000	244
101.4000	180
101.5000	58
627.6000	25
627.7000	37
627.8000	34
627.9000	46
628.0000	51
628.1000	42
628.2000	40
628.3000	49
628.4000	26
671.8000	25
671.9000	24
672.0000	21
672.1000	30
672.2000	24
672.3000	23
687.3000	55
687.4000	182
687.5000	387
687.6000	744
687.7000	884
687.8000	921
687.9000	988
688.0000	963
688.1000	935
688.2000	999
688.3000	831
688.4000	613
688.5000	337
688.6000	371
688.7000	416
688.8000	484
688.9000	562
689.0000	565
689.1000	456
689.2000	431
689.3000	376
689.4000	285
689.5000	139
689.6000	128
689.7000	141
689.8000	153
689.9000	148
690.0000	138
690.1000	134
690.2000	128
690.3000	103
690.4000	85
690.5000	28
690.6000	33
690.7000	32
690.8000	30
690.9000	36
691.0000	29
691.1000	25
691.2000	22
691.3000	25
