Mass spectrum: astragaloside IV; LC-ESI-QQQ; MS; [M+H]+
Name: astragaloside IV
Class: Terpenoids
Formula: C41H68O14
Exact mass: 784.9907
SMILES: CC1(C)C(OC2OCC(O)C(O)C2O)CC[C@]23C[C@]24CC[C@]2(C)C([C@@]5(C)CC[C@@H](C(C)(C)O)O5)[C@@H](O)C[C@@]2(C)C4C[C@H](OC2OC(CO)C(O)C(O)C2O)C13
InChI: InChI=1S/C41H68O14/c1-35(2)24(54-33-29(48)26(45)20(44)17-51-33)9-11-41-18-40(41)13-12-37(5)31(39(7)10-8-25(55-39)36(3,4)50)19(43)15-38(37,6)23(40)14-21(32(35)41)52-34-30(49)28(47)27(46)22(16-42)53-34/h19-34,42-50H,8-18H2,1-7H3/t19-,20?,21-,22?,23?,24?,25-,26?,27?,28?,29?,30?,31?,32?,33?,34?,37+,38-,39+,40-,41+/m0/s1
Instrument: ABSciex API3200 LC/MS system
Instrument type: LC-ESI-QQQ
Ms type: MS
Ion mode: POSITIVE
Precursor type: [M+H]+
m/z	relative intensity
100.8000	27
100.9000	228
101.0000	403
101.1000	705
101.2000	777
101.3000	936
101.4000	678
101.5000	187
101.6000	37
101.7000	63
101.8000	45
101.9000	47
102.0000	90
102.1000	90
102.2000	27
106.6000	23
114.8000	33
141.4000	112
141.5000	127
141.6000	111
141.7000	130
141.8000	122
141.9000	92
142.0000	76
142.1000	64
142.2000	47
142.3000	45
142.5000	69
142.6000	73
142.7000	88
142.8000	163
142.9000	161
143.0000	99
143.1000	137
143.2000	85
143.3000	108
143.4000	74
143.5000	86
143.6000	33
143.7000	27
144.0000	23
144.1000	32
144.2000	24
144.3000	29
144.4000	23
149.5000	30
149.7000	22
220.7000	52
220.8000	353
220.9000	27
224.4000	22
224.5000	52
239.7000	21
331.0000	25
418.7000	32
418.8000	60
420.4000	25
436.5000	23
436.6000	62
436.7000	71
436.8000	56
436.9000	92
437.0000	46
437.1000	99
437.2000	124
437.3000	82
437.4000	57
437.5000	54
437.6000	55
437.8000	37
437.9000	28
438.0000	41
438.1000	28
438.3000	33
438.4000	24
454.5000	38
454.6000	22
454.7000	97
454.8000	81
454.9000	95
455.0000	131
455.1000	145
455.2000	79
455.3000	130
455.4000	102
455.5000	54
455.6000	85
455.7000	51
455.8000	28
455.9000	78
456.0000	27
456.1000	32
456.2000	46
456.3000	39
456.4000	37
456.5000	33
472.7000	21
472.8000	41
472.9000	25
473.0000	40
473.1000	58
473.2000	93
473.3000	48
473.4000	60
473.5000	39
473.9000	208
474.0000	137
474.1000	55
474.2000	51
568.7000	34
568.9000	29
569.2000	24
586.5000	30
586.6000	46
586.7000	102
586.8000	111
586.9000	99
587.0000	127
587.1000	83
587.2000	79
587.3000	110
587.4000	92
587.5000	43
587.6000	42
587.8000	54
587.9000	32
588.0000	29
588.1000	45
588.2000	23
588.3000	36
588.4000	37
588.5000	34
604.6000	28
604.7000	71
604.8000	81
604.9000	53
605.0000	77
605.1000	130
605.2000	58
605.3000	85
605.4000	50
605.5000	49
605.7000	32
605.8000	32
605.9000	22
606.0000	40
606.1000	50
606.2000	59
606.3000	30
606.4000	33
606.5000	23
606.8000	29
634.9000	56
635.0000	32
635.1000	23
635.2000	64
635.3000	52
635.6000	21
635.7000	25
635.9000	43
636.0000	25
766.9000	42
767.0000	29
767.1000	47
767.2000	28
767.3000	24
768.3000	30
784.3000	83
784.4000	202
784.5000	449
784.6000	665
784.7000	815
784.8000	907
784.9000	937
785.0000	975
785.1000	999
785.2000	910
785.3000	823
785.4000	773
785.5000	711
785.6000	450
785.7000	380
785.8000	513
785.9000	483
786.0000	502
786.1000	540
786.2000	489
786.3000	407
786.4000	324
786.5000	136
786.6000	155
786.7000	108
786.8000	174
786.9000	179
787.0000	160
787.1000	174
787.2000	156
787.3000	182
787.4000	72
787.5000	28
787.6000	24
787.8000	33
787.9000	29
788.0000	37
788.1000	38
788.2000	34
788.3000	29
788.4000	29
788.5000	25
801.8000	23
802.0000	50
802.1000	28
802.3000	27
802.5000	30
802.8000	39
802.9000	39
803.0000	27
803.2000	44
803.5000	32
805.3000	26
826.3000	26
1176.9000	21
1177.0000	25
1177.1000	21
1177.3000	30
1177.9000	39
1178.2000	25
1307.6000	26
1307.8000	26
1308.1000	21
1308.2000	21
1308.8000	21
1309.0000	21
1309.2000	21
