Mass spectrum: Suksdorfin; LC-ESI-QQQ; MS; [M+H]+
Name: Suksdorfin
Class: Benzopyranoids
Formula: C21H24O7
Exact mass: 388.4212
SMILES: CC(=O)OC1C(OC(=O)CC(C)C)c2c(ccc3ccc(=O)oc23)OC1(C)C
InChI: InChI=1S/C21H24O7/c1-11(2)10-16(24)27-19-17-14(28-21(4,5)20(19)25-12(3)22)8-6-13-7-9-15(23)26-18(13)17/h6-9,11,19-20H,10H2,1-5H3
Instrument: ABSciex API3200 LC/MS system
Instrument type: LC-ESI-QQQ
Ms type: MS
Ion mode: POSITIVE
Precursor type: [M+H]+
m/z	relative intensity
174.4000	39
174.5000	54
174.6000	69
174.7000	66
174.8000	65
174.9000	62
175.0000	52
175.1000	53
175.2000	43
175.3000	38
175.4000	26
216.5000	28
216.6000	34
216.7000	39
216.8000	41
216.9000	39
217.0000	42
217.1000	41
217.2000	37
217.3000	33
217.4000	31
226.3000	91
226.4000	266
226.5000	383
226.6000	431
226.7000	519
226.8000	456
226.9000	427
227.0000	412
227.1000	369
227.2000	341
227.3000	309
227.4000	237
227.5000	110
227.6000	87
227.7000	80
227.8000	77
227.9000	83
228.0000	76
228.1000	87
228.2000	82
228.3000	65
228.4000	50
244.3000	131
244.4000	462
244.5000	662
244.6000	715
244.7000	714
244.8000	706
244.9000	730
245.0000	741
245.1000	685
245.2000	650
245.3000	614
245.4000	520
245.5000	295
245.6000	233
245.7000	198
245.8000	203
245.9000	200
246.0000	195
246.1000	193
246.2000	183
246.3000	177
246.4000	141
246.5000	62
246.6000	45
246.7000	39
246.8000	28
246.9000	29
247.0000	26
247.1000	28
247.2000	26
247.3000	22
286.2000	34
286.3000	254
286.4000	692
286.5000	875
286.6000	928
286.7000	969
286.8000	999
286.9000	995
287.0000	975
287.1000	936
287.2000	905
287.3000	867
287.4000	708
287.5000	444
287.6000	393
287.7000	352
287.8000	360
287.9000	386
288.0000	379
288.1000	363
288.2000	355
288.3000	323
288.4000	242
288.5000	125
288.6000	100
288.7000	81
288.8000	73
288.9000	77
289.0000	74
289.1000	72
289.2000	67
289.3000	61
289.4000	44
388.5000	23
388.6000	32
388.7000	34
388.8000	35
388.9000	30
389.0000	28
389.1000	32
389.2000	25
389.3000	23
405.3000	31
405.4000	106
405.5000	197
405.6000	266
405.7000	284
405.8000	297
405.9000	299
406.0000	282
406.1000	278
406.2000	269
406.3000	251
406.4000	206
406.5000	116
406.6000	96
406.7000	88
406.8000	93
406.9000	87
407.0000	85
407.1000	79
407.2000	78
407.3000	69
407.4000	57
407.5000	23
674.4000	35
674.5000	76
674.6000	83
674.7000	86
674.8000	93
674.9000	93
675.0000	98
675.1000	90
675.2000	77
675.3000	53
675.4000	29
675.5000	35
675.6000	40
675.7000	42
675.8000	39
675.9000	41
676.0000	42
676.1000	42
676.2000	29
776.5000	31
776.6000	40
776.7000	44
776.8000	47
776.9000	49
777.0000	42
777.1000	38
777.2000	38
777.3000	29
793.4000	29
793.5000	43
793.6000	46
793.7000	55
793.8000	57
793.9000	59
794.0000	58
794.1000	54
794.2000	48
794.3000	42
794.4000	27
794.5000	21
794.6000	22
794.7000	21
794.8000	26
794.9000	25
795.0000	28
795.1000	25
795.2000	22
