Mass spectrum: 3-O-Acetyldiosgenin; LC-ESI-QQQ; MS; [M+H]+
Name: 3-O-Acetyldiosgenin
Class: Steroids
Formula: C29H44O4
Exact mass: 456.67163
SMILES: CC(=O)OC1CC[C@@]2(C)C(=CCC3C4CC5O[C@]6(CCC(C)CO6)C(C)C5[C@@]4(C)CCC32)C1
InChI: InChI=1S/C29H44O4/c1-17-8-13-29(31-16-17)18(2)26-25(33-29)15-24-22-7-6-20-14-21(32-19(3)30)9-11-27(20,4)23(22)10-12-28(24,26)5/h6,17-18,21-26H,7-16H2,1-5H3/t17?,18?,21?,22?,23?,24?,25?,26?,27-,28-,29+/m0/s1
Instrument: ABSciex API3200 LC/MS system
Instrument type: LC-ESI-QQQ
Ms type: MS
Ion mode: POSITIVE
Precursor type: [M+H]+
m/z	relative intensity
100.0000	123
101.6000	136
101.7000	122
101.9000	164
102.8000	33
103.2000	35
103.4000	33
105.7000	27
106.8000	53
107.0000	21
107.4000	23
108.2000	22
108.9000	29
109.1000	60
111.3000	27
112.1000	23
113.3000	28
113.4000	74
113.9000	39
114.0000	45
114.2000	77
114.7000	54
115.0000	45
115.1000	31
116.4000	21
116.5000	28
116.6000	34
118.1000	39
119.1000	31
119.9000	24
120.8000	33
121.0000	26
121.1000	43
121.5000	36
121.7000	28
122.2000	27
122.3000	47
122.7000	21
123.5000	23
124.9000	28
125.8000	28
126.3000	58
127.3000	47
127.6000	36
127.8000	23
128.2000	55
128.3000	24
129.0000	25
129.5000	31
129.7000	27
129.8000	47
130.1000	56
130.2000	31
130.4000	23
131.0000	27
131.3000	37
133.1000	33
133.7000	37
134.7000	30
135.5000	46
135.7000	62
135.8000	35
136.2000	47
136.4000	54
136.6000	49
137.0000	47
137.1000	31
138.8000	24
139.0000	27
142.8000	27
144.7000	32
144.8000	30
145.5000	33
146.4000	36
146.9000	21
147.0000	27
147.7000	30
147.9000	26
148.5000	109
148.7000	151
148.8000	35
149.0000	129
149.1000	181
149.2000	47
149.3000	169
149.4000	25
149.6000	40
150.2000	21
151.3000	45
152.1000	23
152.7000	43
154.9000	27
156.6000	89
156.7000	24
156.8000	41
156.9000	41
157.1000	36
157.4000	22
157.5000	28
157.9000	39
158.4000	21
159.0000	23
159.1000	40
161.1000	23
161.3000	50
161.4000	30
161.8000	23
164.8000	33
166.6000	64
166.7000	26
166.8000	25
166.9000	41
167.1000	51
167.4000	24
168.4000	27
168.7000	29
169.7000	24
171.9000	36
173.8000	24
174.4000	33
177.7000	23
179.4000	23
180.0000	39
181.4000	29
182.8000	30
183.7000	23
183.8000	30
184.4000	26
189.0000	24
192.5000	23
196.7000	30
197.4000	45
197.6000	32
197.8000	57
198.1000	100
198.3000	335
198.5000	195
198.6000	112
198.7000	50
199.0000	57
199.4000	40
199.5000	53
199.7000	28
199.9000	37
200.6000	53
200.8000	50
201.7000	23
203.3000	21
209.8000	46
210.0000	40
210.4000	50
211.1000	39
211.2000	37
211.3000	29
211.9000	29
213.2000	27
213.4000	23
217.1000	27
223.2000	33
224.1000	26
227.2000	33
229.3000	26
238.6000	34
238.9000	43
239.0000	35
240.1000	23
241.5000	27
241.8000	33
248.4000	26
249.0000	30
249.5000	26
252.5000	53
252.6000	98
252.7000	119
252.8000	110
252.9000	104
253.0000	120
253.1000	200
253.2000	159
253.3000	50
253.4000	146
253.5000	154
253.6000	85
253.7000	37
253.8000	36
253.9000	43
254.0000	26
254.1000	47
254.3000	50
256.2000	26
256.5000	29
260.9000	21
267.9000	23
268.7000	23
269.3000	23
270.7000	45
276.7000	23
279.1000	59
279.3000	99
279.8000	27
281.0000	27
281.1000	43
281.3000	27
282.5000	24
282.7000	25
282.9000	21
283.0000	107
283.1000	69
283.2000	37
283.3000	76
283.4000	42
283.5000	40
283.6000	34
284.2000	24
284.6000	21
292.8000	28
298.9000	33
299.1000	26
299.8000	23
305.7000	27
312.5000	59
312.6000	78
312.7000	169
312.8000	74
312.9000	153
313.0000	136
313.1000	139
313.2000	94
313.3000	150
313.4000	107
313.5000	27
313.6000	40
313.8000	33
313.9000	42
314.1000	29
314.2000	61
314.4000	49
322.8000	39
327.3000	34
335.8000	135
335.9000	26
336.2000	93
336.3000	155
336.4000	66
336.5000	30
336.9000	49
337.0000	27
337.2000	70
337.9000	28
338.2000	21
339.2000	37
340.5000	59
340.6000	30
340.8000	47
341.0000	24
341.1000	27
341.3000	53
341.7000	26
351.9000	36
352.0000	53
352.1000	43
352.2000	23
354.8000	61
354.9000	24
355.2000	30
355.9000	33
356.4000	36
357.1000	26
361.0000	23
366.6000	23
370.7000	43
370.8000	29
371.3000	27
372.7000	33
373.4000	23
378.6000	26
379.0000	33
379.1000	23
379.4000	39
379.5000	36
380.9000	26
381.9000	33
382.8000	36
383.6000	29
390.9000	51
391.1000	45
396.6000	116
396.7000	207
396.8000	310
396.9000	210
397.0000	175
397.1000	278
397.2000	261
397.3000	279
397.4000	197
397.5000	192
397.6000	74
397.7000	152
397.8000	98
397.9000	133
398.0000	49
398.1000	46
398.2000	88
398.4000	33
398.5000	77
399.3000	40
403.4000	26
410.5000	23
411.9000	26
412.8000	26
413.2000	23
427.2000	23
427.5000	30
428.0000	26
428.5000	30
428.6000	33
428.8000	27
428.9000	43
429.0000	43
429.2000	33
430.4000	26
431.1000	23
432.2000	29
432.9000	114
433.6000	25
433.7000	24
434.1000	24
434.3000	25
444.5000	71
444.8000	36
444.9000	43
445.0000	21
445.1000	33
445.2000	39
445.3000	64
446.5000	23
446.7000	27
446.9000	23
448.4000	24
448.6000	74
448.7000	139
448.8000	122
449.0000	80
449.1000	43
449.2000	47
449.4000	214
449.5000	99
449.8000	53
450.1000	25
450.3000	62
450.7000	21
455.6000	26
455.8000	26
456.5000	101
456.6000	564
456.7000	603
456.8000	827
456.9000	912
457.0000	999
457.1000	919
457.2000	899
457.3000	992
457.4000	924
457.5000	687
457.6000	318
457.7000	236
457.8000	230
457.9000	401
458.0000	385
458.1000	363
458.2000	318
458.3000	352
458.4000	219
458.5000	217
458.6000	132
458.7000	77
458.8000	85
458.9000	74
459.0000	47
459.1000	64
459.2000	87
459.3000	40
459.4000	40
459.5000	49
468.5000	23
470.3000	24
470.7000	21
471.8000	33
471.9000	23
472.1000	39
472.9000	30
474.2000	46
474.5000	23
478.8000	26
488.8000	36
497.7000	46
497.8000	33
498.0000	65
498.1000	43
498.2000	26
498.3000	26
498.4000	40
498.8000	26
499.4000	29
502.5000	26
503.2000	29
503.3000	26
503.9000	29
505.1000	36
506.7000	26
515.7000	33
516.2000	36
522.2000	37
523.2000	25
523.6000	40
535.9000	27
546.8000	23
547.0000	23
547.3000	43
547.4000	36
547.5000	104
548.1000	23
548.4000	39
548.5000	27
548.7000	27
550.2000	28
551.2000	36
551.3000	27
551.6000	23
552.4000	23
560.6000	26
624.3000	29
631.7000	26
638.9000	23
667.0000	29
694.0000	23
702.6000	23
717.1000	29
741.3000	26
745.5000	29
772.6000	29
775.6000	26
775.8000	49
776.0000	26
776.4000	39
777.1000	26
780.8000	26
830.2000	36
835.9000	26
913.4000	23
923.0000	33
929.9000	56
930.0000	50
930.1000	61
930.3000	36
930.5000	59
930.6000	27
930.7000	36
930.8000	46
930.9000	40
931.0000	33
931.3000	56
931.4000	33
931.6000	23
931.7000	27
932.3000	30
984.9000	23
1026.4000	29
1095.1000	29
1274.2000	29
1386.0000	29
1386.2000	26
1386.4000	29
1386.7000	26
1387.2000	39
