Mass spectrum: Tavicone; LC-ESI-QQQ; MS; [M+H]+
Name: Tavicone
Class: Benzopyranoids
Formula: C23H26O4
Exact mass: 366.4613
SMILES: CC1=CCC2C(C)(C)C(=O)CC2(C)C1COc1ccc2ccc(=O)oc2c1
InChI: InChI=1S/C23H26O4/c1-14-5-9-19-22(2,3)20(24)12-23(19,4)17(14)13-26-16-8-6-15-7-10-21(25)27-18(15)11-16/h5-8,10-11,17,19H,9,12-13H2,1-4H3
Instrument: ABSciex API3200 LC/MS system
Instrument type: LC-ESI-QQQ
Ms type: MS
Ion mode: POSITIVE
Precursor type: [M+H]+
m/z	relative intensity
141.9000	25
142.3000	36
145.0000	25
145.1000	24
162.4000	45
162.5000	77
162.6000	110
162.7000	108
162.8000	102
162.9000	104
163.0000	108
163.1000	112
163.2000	91
163.3000	70
163.4000	55
186.5000	40
186.6000	68
186.7000	82
186.8000	81
186.9000	88
187.0000	99
187.1000	73
187.2000	76
187.3000	68
187.4000	65
187.5000	138
187.6000	27
348.8000	23
349.1000	22
366.3000	58
366.4000	204
366.5000	492
366.6000	674
366.7000	738
366.8000	740
366.9000	738
367.0000	895
367.1000	999
367.2000	696
367.3000	569
367.4000	524
367.5000	319
367.6000	242
367.7000	235
367.8000	228
367.9000	228
368.0000	242
368.1000	295
368.2000	246
368.3000	207
368.4000	190
368.5000	94
368.6000	58
368.7000	49
368.8000	48
368.9000	46
369.0000	86
369.1000	43
369.2000	41
369.3000	34
369.4000	38
383.5000	64
383.6000	96
383.7000	121
383.8000	127
383.9000	116
384.0000	120
384.1000	119
384.2000	114
384.3000	107
384.4000	100
384.5000	70
384.6000	42
384.7000	39
384.8000	32
384.9000	33
385.0000	33
385.1000	31
385.2000	31
385.3000	29
385.4000	28
407.4000	26
407.5000	65
407.6000	80
407.7000	70
407.8000	74
407.9000	82
408.0000	74
408.1000	75
408.2000	83
408.3000	64
408.4000	62
408.5000	34
408.6000	26
408.7000	22
408.8000	26
408.9000	22
409.2000	21
732.5000	73
732.6000	98
732.7000	150
732.8000	136
732.9000	153
733.0000	162
733.1000	145
733.2000	133
733.3000	131
733.4000	91
733.5000	49
733.6000	64
733.7000	79
733.8000	72
733.9000	82
734.0000	75
734.1000	68
734.2000	65
734.3000	59
734.4000	42
734.8000	22
735.1000	21
749.7000	24
749.8000	30
749.9000	29
750.0000	29
750.1000	31
750.2000	27
750.3000	24
750.4000	21
