Mass spectrum: Testosterone; LC-ESI-QQQ; MS; [M+H]+
Name: Testosterone
Class: Steroids
Formula: C19H28O2
Exact mass: 288.4338
SMILES: C[C@]12CC[C@H]3[C@@H](CCC4=CC(=O)CC[C@@]43C)[C@@H]1CC[C@@H]2O
InChI: InChI=1S/C19H28O2/c1-18-9-7-13(20)11-12(18)3-4-14-15-5-6-17(21)19(15,2)10-8-16(14)18/h11,14-17,21H,3-10H2,1-2H3/t14-,15-,16-,17-,18-,19-/m0/s1
Instrument: ABSciex API3200 LC/MS system
Instrument type: LC-ESI-QQQ
Ms type: MS
Ion mode: POSITIVE
Precursor type: [M+H]+
m/z	relative intensity
108.5000	24
108.6000	71
108.7000	88
108.8000	66
108.9000	98
109.0000	96
109.1000	91
109.2000	58
109.3000	57
109.4000	50
109.5000	26
252.6000	23
252.7000	36
252.8000	42
252.9000	42
253.0000	44
253.1000	43
253.2000	46
253.3000	38
253.4000	24
253.5000	32
270.7000	29
270.8000	27
270.9000	25
271.0000	27
271.1000	29
271.2000	36
271.3000	33
271.4000	31
288.4000	110
288.5000	545
288.6000	864
288.7000	926
288.8000	985
288.9000	951
289.0000	838
289.1000	717
289.2000	999
289.3000	982
289.4000	970
289.5000	717
289.6000	480
289.7000	400
289.8000	401
289.9000	412
290.0000	426
290.1000	410
290.2000	402
290.3000	389
290.4000	325
290.5000	311
290.6000	154
290.7000	96
290.8000	73
290.9000	58
291.0000	63
291.1000	67
291.2000	54
291.3000	80
291.4000	64
291.5000	37
291.6000	21
329.5000	60
329.6000	120
329.7000	231
329.8000	271
329.9000	242
330.0000	263
330.1000	261
330.2000	363
330.3000	169
330.4000	164
330.5000	128
330.6000	45
330.7000	39
330.8000	41
330.9000	31
331.0000	32
331.1000	27
331.2000	30
331.3000	25
331.5000	21
576.6000	29
576.7000	79
576.8000	103
576.9000	119
577.0000	125
577.1000	141
577.2000	134
577.3000	148
577.4000	105
577.5000	99
577.6000	49
577.7000	52
577.8000	56
577.9000	52
578.0000	58
578.1000	61
578.2000	66
578.3000	63
578.4000	53
578.5000	49
