Mass spectrum: Lappaconitine; LC-ESI-QQQ; MS; [M+H]+
Name: Lappaconitine
Class: Alkaloids
Formula: C32H44N2O8
Exact mass: 584.7161
SMILES: CCN1C[C@]2(OC(=O)c3ccccc3N=C(C)O)CC[C@H](OC)[C@]34C1[C@H](CC23)[C@@]1(O)C[C@H](OC)[C@H]2CC4[C@]1(O)[C@H]2OC
InChI: InChI=1S/C32H44N2O8/c1-6-34-16-29(42-28(36)18-9-7-8-10-21(18)33-17(2)35)12-11-25(40-4)31-23(29)14-20(26(31)34)30(37)15-22(39-3)19-13-24(31)32(30,38)27(19)41-5/h7-10,19-20,22-27,37-38H,6,11-16H2,1-5H3,(H,33,35)/t19-,20+,22+,23?,24?,25+,26?,27+,29-,30+,31+,32+/m1/s1
Instrument: ABSciex API3200 LC/MS system
Instrument type: LC-ESI-QQQ
Ms type: MS
Ion mode: POSITIVE
Precursor type: [M+H]+
m/z	relative intensity
141.5000	43
141.6000	67
141.7000	64
141.8000	59
141.9000	42
142.0000	43
142.1000	35
142.2000	31
142.3000	26
567.0000	22
567.1000	24
584.3000	35
584.4000	317
584.5000	378
584.6000	761
584.7000	936
584.8000	984
584.9000	990
585.0000	999
585.1000	997
585.2000	971
585.3000	903
585.4000	858
585.5000	433
585.6000	426
585.7000	490
585.8000	519
585.9000	581
586.0000	587
586.1000	599
586.2000	577
586.3000	532
586.4000	425
586.5000	393
586.6000	202
586.7000	157
586.8000	148
586.9000	171
587.0000	166
587.1000	164
587.2000	166
587.3000	154
587.4000	142
587.5000	53
587.6000	36
587.7000	26
587.8000	41
587.9000	28
588.0000	32
588.1000	47
588.2000	38
588.3000	29
588.4000	25
600.7000	38
600.8000	49
600.9000	39
601.0000	45
601.1000	37
601.2000	57
601.3000	45
601.4000	29
602.2000	22
