Mass spectrum: alloyohimbine; LC-ESI-QQQ; MS; [M+H]+
Name: alloyohimbine
Class: Alkaloids
Formula: C21H26N2O3
Exact mass: 354.453
SMILES: COC(=O)[C@H]1[C@@H](O)CC[C@@H]2CN3CCc4c([nH]c5ccccc45)[C@@H]3C[C@@H]21
InChI: InChI=1S/C21H26N2O3/c1-26-21(25)19-15-10-17-20-14(13-4-2-3-5-16(13)22-20)8-9-23(17)11-12(15)6-7-18(19)24/h2-5,12,15,17-19,22,24H,6-11H2,1H3/t12-,15+,17+,18+,19-/m1/s1
Instrument: ABSciex API3200 LC/MS system
Instrument type: LC-ESI-QQQ
Ms type: MS
Ion mode: POSITIVE
Precursor type: [M+H]+
m/z	relative intensity
143.4000	52
143.5000	110
143.6000	175
143.7000	297
143.8000	120
143.9000	155
144.0000	167
144.1000	160
144.2000	150
144.3000	135
144.4000	131
144.5000	78
144.6000	34
144.7000	23
144.8000	22
144.9000	35
145.0000	48
145.1000	26
145.3000	24
211.4000	64
211.5000	154
211.6000	203
211.7000	218
211.8000	232
211.9000	233
212.0000	221
212.1000	203
212.2000	238
212.3000	233
212.4000	208
212.5000	107
212.6000	57
212.7000	36
212.8000	104
212.9000	25
213.1000	28
213.2000	34
213.3000	22
223.5000	28
223.6000	47
223.7000	50
223.8000	67
223.9000	60
224.0000	74
224.1000	73
224.2000	57
224.3000	53
224.4000	50
224.5000	35
224.8000	30
354.2000	29
354.3000	163
354.4000	575
354.5000	806
354.6000	925
354.7000	985
354.8000	972
354.9000	983
355.0000	999
355.1000	974
355.2000	959
355.3000	920
355.4000	895
355.5000	727
355.6000	664
355.7000	793
355.8000	627
355.9000	410
356.0000	456
356.1000	483
356.2000	499
356.3000	488
356.4000	432
356.5000	295
356.6000	176
356.7000	161
356.8000	134
356.9000	118
357.0000	120
357.1000	131
357.2000	117
357.3000	118
357.4000	108
357.5000	75
357.6000	62
357.7000	24
370.6000	22
370.9000	26
371.0000	21
371.1000	28
386.5000	47
386.6000	88
386.7000	95
386.8000	84
386.9000	82
387.0000	101
387.1000	96
387.2000	87
387.3000	81
387.4000	72
387.5000	25
387.6000	26
387.7000	25
387.8000	27
395.7000	23
395.8000	27
395.9000	29
396.0000	49
396.1000	43
396.2000	33
396.3000	33
396.4000	34
396.5000	25
