Mass spectrum: Acetyldiphyllin; LC-ESI-QQQ; MS; [M+H]+
Name: Acetyldiphyllin
Class: Lignans
Formula: C23H18O8
Exact mass: 422.3951
SMILES: COc1cc2c(OC(C)=O)c3c(c(-c4ccc5c(c4)OCO5)c2cc1OC)C(=O)OC3
InChI: InChI=1S/C23H18O8/c1-11(24)31-22-14-8-18(27-3)17(26-2)7-13(14)20(21-15(22)9-28-23(21)25)12-4-5-16-19(6-12)30-10-29-16/h4-8H,9-10H2,1-3H3
Instrument: ABSciex API3200 LC/MS system
Instrument type: LC-ESI-QQQ
Ms type: MS
Ion mode: POSITIVE
Precursor type: [M+H]+
m/z	relative intensity
100.5000	25
100.6000	26
100.7000	24
100.8000	27
101.3000	22
101.4000	27
332.6000	23
332.7000	23
333.0000	21
333.1000	23
350.8000	21
350.9000	35
362.4000	32
362.5000	73
362.6000	84
362.7000	87
362.8000	93
362.9000	111
363.0000	74
363.1000	76
363.2000	57
363.3000	69
363.4000	39
363.5000	22
363.9000	23
380.3000	25
380.4000	83
380.5000	184
380.6000	241
380.7000	254
380.8000	250
380.9000	274
381.0000	257
381.1000	351
381.2000	262
381.3000	204
381.4000	104
381.5000	63
381.6000	68
381.7000	119
381.8000	73
381.9000	68
382.0000	60
382.1000	66
382.2000	57
382.3000	47
382.4000	26
422.3000	99
422.4000	419
422.5000	807
422.6000	872
422.7000	787
422.8000	844
422.9000	999
423.0000	793
423.1000	667
423.2000	627
423.3000	534
423.4000	279
423.5000	247
423.6000	285
423.7000	248
423.8000	250
423.9000	250
424.0000	277
424.1000	237
424.2000	236
424.3000	181
424.4000	101
424.5000	67
424.6000	64
424.7000	54
424.8000	57
424.9000	50
425.0000	53
425.1000	58
425.2000	44
425.3000	42
844.4000	43
844.5000	51
844.6000	59
844.7000	65
844.8000	69
844.9000	59
845.0000	65
845.1000	59
845.2000	41
845.3000	26
845.4000	25
845.5000	27
845.6000	25
845.7000	34
845.8000	32
845.9000	34
846.0000	28
846.1000	22
861.4000	25
861.5000	29
861.6000	36
861.7000	37
861.8000	40
861.9000	45
862.0000	34
862.1000	32
862.2000	24
862.3000	22
862.7000	21
862.9000	22
863.0000	22
