Mass spectrum: Lagohirsin; LC-ESI-QQQ; MS; [M+H]+
Name: Lagohirsin
Class: Terpenoids
Formula: C20H32O5
Exact mass: 352.475
SMILES: C[C@@H]1CCC2[C@](C)(CC[C@H](O)[C@@]2(C)CO)[C@@]12CCC1(COC(=O)C1)O2
InChI: InChI=1S/C20H32O5/c1-13-4-5-14-17(2,11-21)15(22)6-7-18(14,3)20(13)9-8-19(25-20)10-16(23)24-12-19/h13-15,21-22H,4-12H2,1-3H3/t13-,14?,15+,17+,18+,19?,20-/m1/s1
Instrument: ABSciex API3200 LC/MS system
Instrument type: LC-ESI-QQQ
Ms type: MS
Ion mode: POSITIVE
Precursor type: [M+H]+
m/z	relative intensity
101.3000	74
101.4000	63
101.5000	32
132.5000	27
132.6000	58
132.7000	63
132.8000	81
132.9000	78
133.0000	75
133.1000	59
133.2000	56
133.3000	56
133.4000	52
133.5000	49
141.7000	22
141.8000	26
141.9000	28
142.0000	65
142.1000	62
142.2000	68
142.3000	73
142.4000	63
142.5000	29
172.7000	24
172.8000	32
172.9000	24
173.0000	22
173.1000	22
180.4000	25
180.5000	86
180.6000	75
180.7000	85
180.8000	93
180.9000	88
181.0000	83
181.1000	83
181.2000	82
181.3000	58
181.4000	56
181.5000	26
186.6000	34
186.7000	40
186.8000	45
186.9000	48
187.0000	41
187.1000	54
187.2000	43
187.3000	39
187.4000	37
187.5000	26
238.6000	26
238.7000	41
238.8000	35
238.9000	46
239.0000	45
239.1000	52
239.2000	36
239.3000	41
239.4000	44
239.5000	40
258.6000	24
258.7000	28
258.8000	24
258.9000	30
259.0000	33
259.1000	25
259.2000	30
259.3000	31
259.4000	22
276.5000	32
276.6000	57
276.7000	63
276.8000	60
276.9000	75
277.0000	75
277.1000	75
277.2000	72
277.3000	90
277.4000	68
277.5000	41
280.7000	21
280.8000	29
280.9000	29
281.0000	28
281.1000	52
281.2000	45
281.3000	33
298.5000	31
298.6000	73
298.7000	103
298.8000	109
298.9000	111
299.0000	109
299.1000	104
299.2000	102
299.3000	101
299.4000	151
299.5000	71
299.6000	24
299.7000	27
299.8000	25
299.9000	22
300.0000	27
300.1000	25
300.2000	23
304.5000	23
304.6000	39
304.7000	55
304.8000	68
304.9000	69
305.0000	65
305.1000	57
305.2000	58
305.3000	67
305.4000	58
305.5000	44
316.5000	100
316.6000	222
316.7000	316
316.8000	342
316.9000	355
317.0000	428
317.1000	529
317.2000	397
317.3000	321
317.4000	269
317.5000	203
317.6000	93
317.7000	98
317.8000	83
317.9000	80
318.0000	77
318.1000	79
318.2000	78
318.3000	74
318.4000	62
318.5000	56
318.6000	22
334.4000	61
334.5000	270
334.6000	584
334.7000	758
334.8000	762
334.9000	715
335.0000	713
335.1000	679
335.2000	647
335.3000	598
335.4000	505
335.5000	375
335.6000	183
335.7000	181
335.8000	173
335.9000	170
336.0000	164
336.1000	206
336.2000	206
336.3000	158
336.4000	125
336.5000	89
336.6000	44
336.7000	39
336.8000	40
336.9000	35
337.0000	32
337.1000	28
337.2000	24
337.3000	28
337.4000	26
352.5000	69
352.6000	186
352.7000	261
352.8000	312
352.9000	314
353.0000	348
353.1000	299
353.2000	300
353.3000	286
353.4000	224
353.5000	182
353.6000	97
353.7000	77
353.8000	86
353.9000	80
354.0000	144
354.1000	78
354.2000	67
354.3000	66
354.4000	59
354.5000	35
366.8000	27
366.9000	28
367.0000	23
367.1000	27
369.5000	84
369.6000	217
369.7000	327
369.8000	365
369.9000	392
370.0000	393
370.1000	407
370.2000	416
370.3000	364
370.4000	353
370.5000	281
370.6000	137
370.7000	114
370.8000	103
370.9000	107
371.0000	104
371.1000	104
371.2000	109
371.3000	111
371.4000	81
371.5000	77
371.6000	27
375.6000	61
375.7000	96
375.8000	108
375.9000	99
376.0000	111
376.1000	148
376.2000	119
376.3000	102
376.4000	88
376.5000	66
376.6000	25
376.7000	27
376.8000	29
376.9000	24
377.0000	23
377.1000	27
377.2000	21
377.3000	25
384.6000	36
384.7000	46
384.8000	45
384.9000	55
385.0000	42
385.1000	68
385.2000	50
385.3000	45
385.4000	35
385.5000	31
393.5000	80
393.6000	223
393.7000	376
393.8000	415
393.9000	447
394.0000	491
394.1000	543
394.2000	473
394.3000	435
394.4000	362
394.5000	265
394.6000	122
394.7000	113
394.8000	111
394.9000	136
395.0000	134
395.1000	138
395.2000	130
395.3000	133
395.4000	111
395.5000	115
395.6000	42
395.7000	22
395.9000	21
396.0000	21
396.1000	25
396.4000	29
401.7000	34
401.8000	44
401.9000	43
402.0000	46
402.1000	41
402.2000	43
402.3000	47
402.4000	39
402.5000	35
402.8000	23
412.3000	21
430.8000	21
430.9000	23
431.1000	22
431.2000	22
669.0000	21
669.1000	25
669.2000	23
686.7000	25
686.8000	34
686.9000	41
687.0000	40
687.1000	45
687.2000	45
687.3000	40
687.4000	40
687.5000	32
687.8000	22
687.9000	24
688.0000	22
688.1000	21
688.2000	22
704.4000	23
704.5000	79
704.6000	274
704.7000	622
704.8000	839
704.9000	927
705.0000	963
705.1000	974
705.2000	975
705.3000	999
705.4000	831
705.5000	698
705.6000	367
705.7000	406
705.8000	483
705.9000	513
706.0000	559
706.1000	543
706.2000	506
706.3000	511
706.4000	459
706.5000	329
706.6000	141
706.7000	105
706.8000	131
706.9000	144
707.0000	151
707.1000	162
707.2000	159
707.3000	157
707.4000	126
707.5000	96
707.6000	35
707.7000	33
707.8000	27
707.9000	31
708.0000	31
708.1000	33
708.2000	35
708.3000	31
708.4000	24
721.6000	56
721.7000	167
721.8000	232
721.9000	257
722.0000	276
722.1000	285
722.2000	275
722.3000	263
722.4000	253
722.5000	177
722.6000	78
722.7000	78
722.8000	102
722.9000	101
723.0000	119
723.1000	129
723.2000	129
723.3000	138
723.4000	116
723.5000	98
723.6000	31
723.7000	26
723.8000	27
723.9000	33
724.0000	38
724.1000	45
724.2000	38
724.3000	34
724.4000	37
724.5000	23
736.8000	29
736.9000	35
737.0000	45
737.1000	44
737.2000	47
737.3000	39
737.4000	29
737.5000	29
753.9000	21
754.0000	22
754.1000	25
1056.5000	36
1056.6000	85
1056.7000	124
1056.8000	192
1056.9000	193
1057.0000	215
1057.1000	229
1057.2000	235
1057.3000	245
1057.4000	238
1057.5000	213
1057.6000	187
1057.7000	145
1057.8000	141
1057.9000	151
1058.0000	150
1058.1000	174
1058.2000	178
1058.3000	174
1058.4000	167
1058.5000	144
1058.6000	131
1058.7000	73
1058.8000	71
1058.9000	53
1059.0000	70
1059.1000	55
1059.2000	64
1059.3000	70
1059.4000	68
1059.5000	59
1059.6000	39
1059.7000	25
1060.1000	23
1073.9000	24
1074.0000	31
1074.1000	33
1074.2000	40
1074.3000	34
1074.4000	31
1074.5000	34
1074.6000	29
1074.7000	25
1074.8000	26
1074.9000	33
1075.0000	28
1075.1000	31
1075.2000	36
1075.3000	37
1075.4000	29
1075.5000	26
1075.6000	26
