Mass spectrum: Clarithromycin; LC-ESI-QQQ; MS; [M+H]+
Name: Clarithromycin
Class: Polyketides
Formula: C38H69NO13
Exact mass: 747.9725
SMILES: CC[C@H]1OC(=O)[C@H](C)[C@@H](O[C@H]2C[C@@](C)(OC)[C@@H](O)[C@H](C)O2)[C@H](C)[C@@H](O[C@@H]2O[C@H](C)C[C@H](N(C)C)[C@H]2O)[C@](C)(OC)C[C@@H](C)C(=O)[C@H](C)[C@@H](O)[C@]1(C)O
InChI: InChI=1S/C38H69NO13/c1-15-26-38(10,45)31(42)21(4)28(40)19(2)17-37(9,47-14)33(52-35-29(41)25(39(11)12)16-20(3)48-35)22(5)30(23(6)34(44)50-26)51-27-18-36(8,46-13)32(43)24(7)49-27/h19-27,29-33,35,41-43,45H,15-18H2,1-14H3/t19-,20-,21+,22+,23-,24+,25+,26-,27+,29-,30+,31-,32+,33-,35+,36-,37-,38-/m1/s1
Instrument: ABSciex API3200 LC/MS system
Instrument type: LC-ESI-QQQ
Ms type: MS
Ion mode: POSITIVE
Precursor type: [M+H]+
m/z	relative intensity
100.7000	31
100.8000	59
100.9000	78
101.0000	100
101.1000	74
101.2000	78
101.3000	41
101.4000	36
115.6000	28
141.6000	25
141.7000	31
141.8000	37
141.9000	29
142.0000	24
142.2000	27
142.3000	31
157.4000	26
157.5000	85
157.6000	149
157.7000	179
157.8000	179
157.9000	193
158.0000	197
158.1000	185
158.2000	167
158.3000	215
158.4000	139
158.5000	90
158.6000	32
158.7000	21
159.1000	21
557.7000	37
557.8000	51
557.9000	62
558.0000	65
558.1000	66
558.2000	75
558.3000	64
558.4000	52
558.5000	43
558.8000	23
558.9000	23
559.0000	21
559.1000	26
559.2000	22
589.5000	34
589.6000	71
589.7000	186
589.8000	268
589.9000	308
590.0000	319
590.1000	316
590.2000	362
590.3000	325
590.4000	281
590.5000	234
590.6000	97
590.7000	95
590.8000	110
590.9000	119
591.0000	120
591.1000	128
591.2000	120
591.3000	156
591.4000	101
591.5000	79
591.6000	33
591.7000	27
591.8000	30
591.9000	30
592.0000	28
592.1000	30
592.2000	31
592.3000	35
747.4000	35
747.5000	173
747.6000	431
747.7000	774
747.8000	924
747.9000	960
748.0000	999
748.1000	996
748.2000	975
748.3000	944
748.4000	914
748.5000	798
748.6000	535
748.7000	458
748.8000	629
748.9000	819
749.0000	742
749.1000	573
749.2000	519
749.3000	522
749.4000	503
749.5000	417
749.6000	241
749.7000	178
749.8000	188
749.9000	210
750.0000	228
750.1000	228
750.2000	246
750.3000	241
750.4000	213
750.5000	183
750.6000	104
750.7000	58
750.8000	63
750.9000	58
751.0000	61
751.1000	58
751.2000	67
751.3000	52
751.4000	48
751.5000	46
751.6000	22
