Mass spectrum: Aconitine; LC-ESI-QQQ; MS; [M+H]+
Name: Aconitine
Class: Alkaloids
Formula: C34H47NO11
Exact mass: 645.7538
SMILES: CCN1C[C@@]2(COC)C3[C@@H](OC)[C@H]4C1[C@@]3(C1C[C@]3(O)[C@@H](OC)[C@H](O)[C@@]4(OC(C)=O)C1[C@H]3OC(=O)c1ccccc1)[C@@H](OC)C[C@H]2O
InChI: InChI=1S/C34H47NO11/c1-7-35-15-31(16-41-3)20(37)13-21(42-4)33-19-14-32(40)28(45-30(39)18-11-9-8-10-12-18)22(19)34(46-17(2)36,27(38)29(32)44-6)23(26(33)35)24(43-5)25(31)33/h8-12,19-29,37-38,40H,7,13-16H2,1-6H3/t19?,20-,21+,22?,23+,24+,25?,26?,27+,28-,29+,31+,32-,33+,34-/m1/s1
Instrument: ABSciex API3200 LC/MS system
Instrument type: LC-ESI-QQQ
Ms type: MS
Ion mode: POSITIVE
Precursor type: [M+H]+
m/z	relative intensity
142.3000	29
142.4000	23
585.6000	29
585.7000	56
585.8000	65
585.9000	61
586.0000	76
586.1000	72
586.2000	62
586.3000	60
586.4000	50
586.7000	21
586.8000	26
586.9000	24
587.0000	23
587.1000	26
587.2000	26
587.3000	24
645.3000	27
645.4000	149
645.5000	433
645.6000	790
645.7000	998
645.8000	952
645.9000	991
646.0000	999
646.1000	980
646.2000	958
646.3000	941
646.4000	722
646.5000	380
646.6000	425
646.7000	517
646.8000	559
646.9000	592
647.0000	605
647.1000	574
647.2000	562
647.3000	538
647.4000	426
647.5000	220
647.6000	189
647.7000	198
647.8000	212
647.9000	236
648.0000	241
648.1000	231
648.2000	222
648.3000	204
648.4000	166
648.5000	68
648.6000	56
648.7000	48
648.8000	52
648.9000	55
649.0000	53
649.1000	48
649.2000	47
649.3000	41
649.4000	33
