Mass spectrum: Verticinone; LC-ESI-QQQ; MS; [M+H]+
Name: Verticinone
Class: Alkaloids
Formula: C27H45NO4
Exact mass: 447.66400000000004
SMILES: CC1CCC2N(C1)CC1C3CC4C(CC(=O)C5CC(O)CCC54C)C3CCC1[C@]2(C)O.O
InChI: InChI=1S/C27H43NO3.H2O/c1-15-4-7-25-27(3,31)21-6-5-17-18(20(21)14-28(25)13-15)11-22-19(17)12-24(30)23-10-16(29)8-9-26(22,23)2;/h15-23,25,29,31H,4-14H2,1-3H3;1H2/t15?,16?,17?,18?,19?,20?,21?,22?,23?,25?,26?,27-;/m0./s1
Instrument: ABSciex API3200 LC/MS system
Instrument type: LC-ESI-QQQ
Ms type: MS
Ion mode: POSITIVE
Precursor type: [M+H]+
m/z	relative intensity
100.5000	42
100.6000	143
141.9000	29
142.0000	21
142.1000	28
142.2000	27
142.3000	22
142.4000	25
411.6000	34
411.7000	54
411.8000	58
411.9000	77
412.0000	60
412.1000	63
412.2000	65
412.3000	58
412.4000	62
412.5000	45
412.6000	29
412.7000	28
412.8000	22
412.9000	23
429.4000	25
429.5000	162
429.6000	530
429.7000	786
429.8000	850
429.9000	876
430.0000	999
430.1000	914
430.2000	831
430.3000	801
430.4000	743
430.5000	671
430.6000	381
430.7000	364
430.8000	358
430.9000	367
431.0000	327
431.1000	344
431.2000	361
431.3000	313
431.4000	303
431.5000	249
431.6000	130
431.7000	93
431.8000	82
431.9000	80
432.0000	53
432.1000	61
432.2000	56
432.3000	54
432.4000	49
432.5000	40
