Mass spectrum: Quebrachidine; LC-ESI-QQQ; MS; [M+H]+
Name: Quebrachidine
Class: Alkaloids
Formula: C21H24N2O3
Exact mass: 352.43703
SMILES: C/C=C1/CN2[C@H]3C[C@@H]1C1(C(=O)OC)[C@@H]2C[C@]2(c4ccccc4NC32)[C@H]1O
InChI: InChI=1S/C21H24N2O3/c1-3-11-10-23-15-8-13(11)21(19(25)26-2)16(23)9-20(18(21)24)12-6-4-5-7-14(12)22-17(15)20/h3-7,13,15-18,22,24H,8-10H2,1-2H3/b11-3-/t13-,15-,16-,17?,18+,20+,21?/m0/s1
Instrument: ABSciex API3200 LC/MS system
Instrument type: LC-ESI-QQQ
Ms type: MS
Ion mode: POSITIVE
Precursor type: [M+H]+
m/z	relative intensity
350.6000	26
350.7000	25
350.8000	27
350.9000	34
351.0000	32
351.1000	34
351.2000	28
351.3000	68
351.4000	32
352.0000	22
352.2000	26
352.3000	112
352.4000	524
352.5000	810
352.6000	960
352.7000	945
352.8000	990
352.9000	971
353.0000	999
353.1000	988
353.2000	953
353.3000	923
353.4000	907
353.5000	619
353.6000	548
353.7000	558
353.8000	513
353.9000	505
354.0000	522
354.1000	505
354.2000	507
354.3000	461
354.4000	452
354.5000	252
354.6000	163
354.7000	135
354.8000	115
354.9000	120
355.0000	127
355.1000	131
355.2000	134
355.3000	103
355.4000	101
355.5000	50
355.6000	26
366.6000	30
366.7000	37
366.8000	37
366.9000	33
367.0000	42
367.1000	78
367.2000	37
367.3000	24
393.8000	25
393.9000	25
394.0000	28
394.1000	29
394.2000	21
