Mass spectrum: Nitrarine; LC-ESI-QQQ; MS; [M+H]+
Name: Nitrarine
Class: Alkaloids
Formula: C20H25N3
Exact mass: 307.4424
SMILES: c1ccc2c3c([nH]c2c1)[C@@H]1C2CCC([C@H]4CCCN[C@@H]24)N1CC3
InChI: InChI=1S/C20H25N3/c1-2-6-16-12(4-1)13-9-11-23-17-8-7-15(20(23)19(13)22-16)18-14(17)5-3-10-21-18/h1-2,4,6,14-15,17-18,20-22H,3,5,7-11H2/t14-,15?,17?,18-,20+/m1/s1
Instrument: ABSciex API3200 LC/MS system
Instrument type: LC-ESI-QQQ
Ms type: MS
Ion mode: POSITIVE
Precursor type: [M+H]+
m/z	relative intensity
100.4000	70
100.5000	27
100.6000	75
101.2000	38
116.7000	59
117.1000	22
118.1000	21
118.2000	27
118.4000	46
118.5000	177
118.6000	52
118.7000	26
129.6000	30
129.7000	54
129.8000	21
129.9000	46
130.0000	48
130.1000	32
130.2000	59
130.3000	36
130.4000	46
130.5000	32
130.8000	22
131.0000	32
131.5000	26
131.6000	33
132.1000	29
133.4000	28
133.5000	91
133.6000	112
133.7000	126
133.8000	183
133.9000	148
134.0000	140
134.1000	123
134.2000	132
134.3000	89
134.4000	82
134.5000	54
134.9000	28
135.5000	31
135.6000	21
135.7000	47
135.8000	42
135.9000	31
136.0000	39
136.1000	53
136.2000	45
136.3000	29
136.4000	21
136.6000	23
136.7000	29
136.9000	38
137.0000	28
137.1000	25
137.2000	31
137.6000	21
138.5000	32
139.9000	52
141.7000	46
141.8000	87
141.9000	83
142.0000	53
142.2000	35
142.6000	29
142.7000	39
142.8000	25
142.9000	25
143.0000	40
143.3000	22
143.4000	48
143.5000	173
143.6000	295
143.7000	299
143.8000	395
143.9000	335
144.0000	375
144.1000	409
144.2000	335
144.3000	290
144.4000	279
144.5000	110
144.6000	39
144.7000	48
144.8000	40
144.9000	42
145.0000	43
145.1000	25
145.2000	23
145.4000	33
145.5000	25
145.6000	28
146.0000	26
146.4000	22
147.9000	21
148.2000	21
149.2000	139
149.3000	27
149.8000	22
153.4000	43
153.8000	48
153.9000	81
154.0000	357
154.1000	464
154.2000	716
154.3000	690
154.4000	527
154.5000	601
154.6000	649
154.7000	545
154.8000	592
154.9000	548
155.0000	367
155.1000	190
155.2000	137
155.3000	129
155.4000	103
155.5000	75
155.6000	45
155.7000	67
164.5000	71
164.6000	127
164.7000	153
164.8000	118
164.9000	156
165.0000	169
165.1000	130
165.2000	131
165.3000	92
165.4000	105
165.5000	114
165.6000	34
165.9000	31
166.0000	32
172.8000	21
174.5000	77
174.6000	107
174.7000	129
174.8000	282
174.9000	163
175.0000	108
175.1000	133
175.2000	118
175.3000	101
175.4000	116
175.5000	79
175.6000	33
175.8000	30
175.9000	26
181.8000	27
195.1000	23
195.3000	28
195.4000	22
195.5000	41
195.7000	31
195.8000	36
195.9000	34
196.0000	27
220.7000	170
221.0000	25
222.8000	26
224.6000	38
224.7000	24
224.8000	66
224.9000	47
225.0000	32
225.1000	26
225.2000	25
225.3000	41
227.1000	21
307.5000	90
307.6000	275
307.7000	439
307.8000	381
307.9000	424
308.0000	999
308.1000	572
308.2000	332
308.3000	516
308.4000	426
308.5000	237
308.6000	102
308.7000	72
308.8000	88
308.9000	83
309.0000	85
309.1000	82
309.2000	76
309.3000	98
309.4000	78
309.5000	60
309.6000	22
309.7000	51
310.9000	51
312.3000	34
312.4000	24
651.1000	27
