Mass spectrum: Lasalocid A, Na salt; LC-ESI-QQQ; MS; [M+H]+
Name: Lasalocid A, Na salt
Class: Polyketide
Formula: C34H53NaO8
Exact mass: 612.7865
SMILES: CC[C@H](C(=O)[C@H](C)[C@H](O)[C@@H](C)CCc1ccc(C)c([O-])c1C(=O)O)[C@@H]1O[C@@](CC)([C@@H]2CC[C@@](O)(CC)[C@@H](C)O2)C[C@H]1C.[Na+]
InChI: InChI=1S/C34H54O8.Na/c1-9-25(31-21(6)18-34(11-3,42-31)26-16-17-33(40,10-2)23(8)41-26)30(37)22(7)28(35)19(4)12-14-24-15-13-20(5)29(36)27(24)32(38)39;/h13,15,19,21-23,25-26,28,31,35-36,40H,9-12,14,16-18H2,1-8H3,(H,38,39);/q;+1/p-1/t19-,21+,22+,23+,25+,26-,28+,31+,33-,34+;/m0./s1
Instrument: ABSciex API3200 LC/MS system
Instrument type: LC-ESI-QQQ
Ms type: MS
Ion mode: POSITIVE
Precursor type: [M+H]+
m/z	relative intensity
218.5000	23
218.6000	28
218.7000	29
218.8000	32
218.9000	37
219.0000	42
219.1000	36
219.2000	34
219.3000	35
219.4000	32
219.5000	27
236.5000	62
236.6000	116
236.7000	149
236.8000	146
236.9000	152
237.0000	153
237.1000	138
237.2000	148
237.3000	149
237.4000	126
237.5000	103
237.6000	49
237.7000	39
237.8000	34
237.9000	23
238.0000	23
238.1000	27
238.2000	27
238.3000	22
254.5000	23
254.6000	31
254.7000	48
254.8000	43
254.9000	50
255.0000	42
255.1000	41
255.2000	53
255.3000	35
255.4000	33
255.5000	29
280.9000	21
318.5000	23
318.6000	44
318.7000	62
318.8000	74
318.9000	74
319.0000	74
319.1000	69
319.2000	66
319.3000	63
319.4000	51
319.5000	53
319.6000	25
319.7000	22
336.5000	81
336.6000	172
336.7000	251
336.8000	287
336.9000	286
337.0000	297
337.1000	287
337.2000	260
337.3000	278
337.4000	229
337.5000	224
337.6000	106
337.7000	94
337.8000	76
337.9000	68
338.0000	71
338.1000	74
338.2000	78
338.3000	63
338.4000	61
338.5000	50
338.6000	22
354.8000	23
355.2000	24
536.7000	32
536.8000	25
536.9000	29
537.0000	34
537.1000	32
537.2000	28
537.3000	30
537.4000	24
554.5000	23
554.6000	79
554.7000	128
554.8000	144
554.9000	150
555.0000	159
555.1000	155
555.2000	151
555.3000	163
555.4000	125
555.5000	84
555.6000	42
555.7000	58
555.8000	61
555.9000	62
556.0000	64
556.1000	63
556.2000	51
556.3000	51
556.4000	57
556.5000	30
572.4000	26
572.5000	65
572.6000	159
572.7000	235
572.8000	282
572.9000	319
573.0000	333
573.1000	327
573.2000	306
573.3000	268
573.4000	245
573.5000	182
573.6000	94
573.7000	110
573.8000	110
573.9000	107
574.0000	113
574.1000	124
574.2000	113
574.3000	115
574.4000	84
574.5000	54
574.7000	24
574.8000	26
574.9000	27
575.0000	27
575.1000	28
575.2000	24
590.5000	64
590.6000	188
590.7000	320
590.8000	392
590.9000	438
591.0000	441
591.1000	437
591.2000	443
591.3000	408
591.4000	351
591.5000	257
591.6000	124
591.7000	150
591.8000	171
591.9000	166
592.0000	178
592.1000	181
592.2000	165
592.3000	156
592.4000	139
592.5000	96
592.6000	42
592.7000	37
592.8000	33
592.9000	38
593.0000	35
593.1000	44
593.2000	31
593.3000	42
593.4000	23
607.4000	47
607.5000	142
607.6000	383
607.7000	630
607.8000	715
607.9000	803
608.0000	999
608.1000	919
608.2000	839
608.3000	757
608.4000	663
608.5000	540
608.6000	280
608.7000	296
608.8000	311
608.9000	334
609.0000	325
609.1000	334
609.2000	331
609.3000	320
609.4000	257
609.5000	200
609.6000	101
609.7000	73
609.8000	75
609.9000	76
610.0000	88
610.1000	77
610.2000	62
610.3000	66
610.4000	58
610.5000	48
621.8000	23
621.9000	27
622.0000	25
622.1000	28
622.2000	24
622.3000	25
635.7000	21
635.8000	37
635.9000	40
636.0000	27
636.1000	36
636.2000	27
636.3000	36
636.4000	28
658.8000	24
658.9000	23
659.0000	30
659.1000	26
659.2000	28
659.3000	25
660.7000	22
660.8000	22
660.9000	27
661.0000	29
661.1000	27
661.2000	30
661.3000	30
661.4000	21
690.7000	23
690.9000	22
691.0000	24
691.1000	26
691.2000	23
691.3000	29
691.4000	21
691.7000	26
691.8000	33
691.9000	29
692.0000	31
692.1000	30
692.2000	31
692.3000	31
1195.7000	23
1195.8000	27
1195.9000	34
1196.0000	30
1196.1000	35
1196.2000	27
1196.3000	35
1196.4000	40
1196.5000	36
1196.6000	33
1196.7000	29
1196.8000	26
1196.9000	26
1197.0000	22
1197.1000	26
1197.2000	29
1197.3000	51
1197.4000	101
1197.5000	140
1197.6000	156
1197.7000	183
1197.8000	213
1197.9000	233
1198.0000	264
1198.1000	257
1198.2000	251
1198.3000	288
1198.4000	284
1198.5000	295
1198.6000	304
1198.7000	226
1198.8000	184
1198.9000	188
1199.0000	191
1199.1000	190
1199.2000	207
1199.3000	210
1199.4000	203
1199.5000	185
1199.6000	183
1199.7000	135
1199.8000	91
1199.9000	92
1200.0000	88
1200.1000	82
1200.2000	83
1200.3000	85
1200.4000	91
1200.5000	76
1200.6000	72
1200.7000	49
1200.8000	28
1200.9000	22
1201.0000	25
1201.1000	26
1201.2000	24
1201.4000	25
1201.5000	22
