Mass spectrum: Tubeimoside I; LC-ESI-QQQ; MS; [M+H]+
Name: Tubeimoside I
Class: Terpenoids
Formula: C63H98O29
Exact mass: 1319.4661
SMILES: CC1O[C@H]2OC3[C@@H](OC[C@H](O)[C@H]3O)OC(=O)[C@]34CCC(C)(C)C[C@H]3C3=CCC5[C@@]6(C)C[C@H](O)[C@H](O[C@@H]7OC(CO)[C@@H](O)[C@@H](O)C7O[C@@H]7OC[C@H](OC(=O)C[C@@](C)(O)CC(=O)O[C@@H]1[C@H](O[C@@H]1OC[C@@H](O)[C@@H](O)C1O)C2O)[C@@H](O)C7O)[C@@](C)(CO)C6CC[C@@]5(C)[C@]3(C)CC4
InChI: InChI=1S/C63H98O29/c1-26-46-47(88-51-43(76)38(71)30(67)22-81-51)45(78)53(84-26)90-48-39(72)31(68)23-82-54(48)92-56(79)63-15-13-57(2,3)17-28(63)27-9-10-35-59(5)18-29(66)50(60(6,25-65)34(59)11-12-62(35,8)61(27,7)14-16-63)91-55-49(42(75)40(73)32(21-64)86-55)89-52-44(77)41(74)33(24-83-52)85-36(69)19-58(4,80)20-37(70)87-46/h9,26,28-35,38-55,64-68,71-78,80H,10-25H2,1-8H3/t26?,28-,29-,30+,31-,32?,33-,34?,35?,38+,39+,40+,41+,42+,43?,44?,45?,46-,47+,48?,49?,50-,51-,52-,53-,54-,55-,58+,59-,60-,61+,62+,63-/m0/s1
Instrument: ABSciex API3200 LC/MS system
Instrument type: LC-ESI-QQQ
Ms type: MS
Ion mode: POSITIVE
Precursor type: [M+H]+
m/z	relative intensity
100.0000	74
100.6000	135
100.7000	329
100.8000	355
100.9000	296
101.0000	143
106.5000	40
109.2000	24
111.4000	21
114.0000	43
118.0000	31
118.2000	179
118.3000	30
118.4000	50
118.5000	236
118.6000	244
118.7000	214
118.8000	184
118.9000	279
119.0000	159
119.1000	42
119.2000	81
119.6000	53
119.8000	31
119.9000	61
120.0000	31
120.2000	54
120.3000	45
120.4000	50
120.5000	37
120.8000	61
121.3000	27
127.7000	28
128.3000	29
128.6000	27
132.4000	28
136.0000	24
140.2000	27
140.6000	21
145.4000	35
146.5000	28
147.5000	27
148.9000	593
149.8000	63
149.9000	36
158.0000	54
158.1000	46
162.5000	22
166.0000	26
167.0000	36
167.8000	35
171.3000	33
174.3000	23
177.1000	25
178.9000	22
180.9000	21
186.4000	31
190.7000	26
193.0000	40
197.7000	59
198.4000	44
201.3000	21
206.4000	39
207.4000	27
207.5000	21
209.1000	24
209.3000	21
214.4000	27
214.5000	27
220.5000	73
220.6000	27
220.7000	31
221.0000	86
221.1000	42
221.3000	38
221.4000	120
221.5000	56
221.8000	74
222.2000	53
222.3000	32
222.5000	25
222.6000	22
223.4000	84
225.1000	66
225.3000	23
238.6000	31
238.9000	40
239.2000	46
239.3000	21
241.1000	28
249.8000	21
262.0000	21
262.1000	27
262.8000	23
277.2000	26
278.7000	157
295.4000	28
296.9000	26
310.9000	35
311.2000	75
311.3000	80
341.2000	22
369.1000	27
390.7000	25
392.3000	34
422.9000	21
423.5000	22
432.8000	88
432.9000	38
433.3000	24
433.7000	35
453.0000	28
471.2000	38
530.6000	21
536.7000	37
537.1000	22
548.5000	21
548.6000	22
548.7000	35
548.8000	28
549.1000	21
549.2000	21
549.7000	29
566.7000	29
566.9000	61
567.0000	28
620.9000	21
679.7000	30
679.8000	29
681.1000	21
681.2000	53
698.6000	33
698.7000	22
698.8000	47
698.9000	48
699.0000	22
699.1000	34
699.6000	28
875.3000	22
1007.3000	30
1007.5000	22
1024.8000	21
1025.0000	22
1036.6000	53
1036.9000	22
1037.4000	28
1054.3000	22
1054.5000	22
1055.8000	30
1056.0000	22
1168.4000	29
1168.7000	22
1169.0000	36
1169.1000	22
1169.2000	29
1169.3000	36
1169.4000	22
1169.7000	30
1170.2000	30
1171.4000	21
1186.2000	87
1186.3000	169
1186.4000	112
1186.5000	210
1186.6000	302
1186.7000	614
1186.8000	907
1186.9000	464
1187.0000	373
1187.1000	401
1187.2000	321
1187.3000	275
1187.4000	240
1187.5000	260
1187.6000	151
1187.7000	192
1187.8000	232
1187.9000	214
1188.0000	204
1188.1000	186
1188.2000	229
1188.3000	230
1188.4000	155
1188.5000	137
1188.6000	86
1188.7000	71
1188.8000	89
1188.9000	82
1189.0000	115
1189.1000	73
1189.2000	347
1189.3000	167
1189.4000	115
1189.5000	53
1189.9000	37
1190.0000	22
1190.1000	37
1190.3000	22
1252.7000	21
1253.1000	22
1253.2000	30
1253.3000	38
1253.5000	30
1253.8000	44
1253.9000	61
1254.0000	85
1254.1000	30
1254.2000	53
1254.3000	30
1254.4000	22
1254.5000	22
1261.8000	30
1317.8000	56
1318.0000	37
1318.1000	61
1318.2000	139
1318.3000	267
1318.4000	440
1318.5000	528
1318.6000	635
1318.7000	726
1318.8000	760
1318.9000	861
1319.0000	999
1319.1000	854
1319.2000	911
1319.3000	888
1319.4000	916
1319.5000	706
1319.6000	744
1319.7000	789
1319.8000	692
1319.9000	631
1320.0000	607
1320.1000	672
1320.2000	779
1320.3000	591
1320.4000	459
1320.5000	364
1320.6000	246
1320.7000	339
1320.8000	280
1320.9000	189
1321.0000	332
1321.1000	252
1321.2000	220
1321.3000	350
1321.4000	213
1321.5000	55
1321.6000	87
1321.7000	85
1321.8000	118
1321.9000	130
1322.0000	59
1322.1000	114
1322.2000	66
1322.3000	56
1322.4000	52
1322.6000	29
1322.7000	28
1323.0000	61
1323.1000	37
1323.3000	30
1327.2000	22
1327.4000	30
1327.6000	45
1327.7000	29
1327.9000	38
1328.0000	30
1328.1000	54
1328.2000	30
1328.4000	28
1328.5000	29
1328.6000	29
1328.7000	21
1328.8000	28
1328.9000	30
1329.1000	30
1329.3000	22
1329.5000	22
1329.7000	22
1332.4000	22
1335.2000	41
1335.3000	47
1335.4000	85
1335.5000	57
1335.6000	95
1335.7000	83
1335.8000	100
1335.9000	73
1336.0000	123
1336.1000	185
1336.2000	92
1336.3000	103
1336.4000	137
1336.5000	84
1336.6000	80
1336.7000	57
1336.8000	94
1336.9000	137
1337.0000	47
1337.1000	133
1337.2000	80
1337.3000	93
1337.4000	72
1337.5000	73
1337.6000	28
1337.7000	30
1337.9000	81
1338.0000	54
1338.1000	27
1338.2000	31
1338.3000	56
1338.4000	22
1338.8000	34
1338.9000	47
1339.5000	29
1340.7000	22
1343.3000	22
1346.4000	22
1364.2000	21
1389.2000	30
1450.7000	22
1451.1000	22
