Mass spectrum: Aesculin; LC-ESI-QQQ; MS; [M+H]+
Name: Esculin
Name: Esculoside
Name: Aesculin
Name: Esculetin-6-beta-D-glucopyranoside
Name: Aesculinum
Class: Benzopyranoids
Formula: C15H16O9
Exact mass: 340.2894
SMILES: O=c1ccc2cc(O[C@@H]3O[C@@H](CO)[C@H](O)[C@@H](O)[C@@H]3O)c(O)cc2o1
InChI: InChI=1S/C15H16O9/c16-5-10-12(19)13(20)14(21)15(24-10)23-9-3-6-1-2-11(18)22-8(6)4-7(9)17/h1-4,10,12-17,19-21H,5H2/t10-,12-,13+,14-,15+/m0/s1
Instrument: ABSciex API3200 LC/MS system
Instrument type: LC-ESI-QQQ
Ms type: MS
Ion mode: POSITIVE
Precursor type: [M+H]+
m/z	relative intensity
119.2000	76
119.3000	148
119.4000	227
119.5000	186
119.6000	62
119.7000	48
119.8000	40
120.0000	56
120.1000	26
122.8000	24
132.7000	25
178.3000	40
178.4000	294
178.5000	645
178.6000	808
178.7000	801
178.8000	863
178.9000	999
179.0000	862
179.1000	811
179.2000	737
179.3000	616
179.4000	494
179.5000	186
179.6000	104
179.7000	88
179.8000	118
179.9000	101
180.0000	75
180.1000	106
180.2000	84
180.3000	86
180.4000	49
198.0000	48
221.5000	60
340.3000	145
340.4000	360
340.5000	689
340.6000	816
340.7000	907
340.8000	949
340.9000	914
341.0000	957
341.1000	891
341.2000	782
341.3000	850
341.4000	356
341.5000	282
341.6000	208
341.7000	171
341.8000	158
341.9000	191
342.0000	187
342.1000	177
342.2000	133
342.3000	298
342.4000	144
342.5000	31
342.6000	39
342.7000	37
342.8000	47
342.9000	25
343.0000	26
343.1000	36
343.3000	21
357.6000	22
357.8000	35
357.9000	40
358.0000	29
358.1000	25
381.8000	27
432.9000	30
680.3000	50
680.4000	92
680.5000	157
680.6000	183
680.7000	173
680.8000	174
680.9000	139
681.0000	148
681.1000	111
681.2000	108
681.3000	53
681.4000	33
681.5000	47
681.6000	48
681.7000	40
681.8000	62
681.9000	121
682.0000	97
682.1000	46
682.2000	22
682.8000	21
697.4000	27
697.5000	21
697.6000	95
697.7000	69
697.8000	59
697.9000	49
698.0000	29
698.1000	32
698.2000	22
