Mass spectrum: Galanthamine; LC-ESI-QQQ; MS; [M+H]+
Name: Galanthamine
Class: Alkaloids
Formula: C17H21NO3
Exact mass: 287.3618
SMILES: COc1ccc2c3c1O[C@H]1C[C@@H](O)C=C[C@@]31CCN(C)C2
InChI: InChI=1S/C17H21NO3/c1-18-8-7-17-6-5-12(19)9-14(17)21-16-13(20-2)4-3-11(10-18)15(16)17/h3-6,12,14,19H,7-10H2,1-2H3/t12-,14-,17-/m0/s1
Instrument: ABSciex API3200 LC/MS system
Instrument type: LC-ESI-QQQ
Ms type: MS
Ion mode: POSITIVE
Precursor type: [M+H]+
m/z	relative intensity
100.2000	22
100.3000	25
100.4000	99
100.5000	172
100.6000	176
100.7000	238
100.8000	294
100.9000	295
101.0000	283
101.1000	270
101.2000	237
101.3000	199
101.4000	117
101.5000	49
119.5000	44
133.3000	21
149.2000	43
166.3000	49
166.4000	21
180.7000	21
180.8000	22
181.0000	47
196.6000	40
196.7000	41
196.8000	48
196.9000	33
197.0000	43
197.1000	35
197.3000	36
197.4000	61
197.5000	67
197.6000	59
197.7000	69
197.8000	62
197.9000	72
198.0000	60
198.1000	70
198.2000	50
198.3000	40
198.4000	47
198.5000	187
198.6000	60
208.5000	23
208.6000	40
208.7000	53
208.8000	52
208.9000	42
209.0000	64
209.1000	55
209.2000	34
209.3000	39
209.4000	39
209.5000	26
209.8000	23
210.1000	32
210.2000	21
212.4000	61
212.5000	195
212.6000	257
212.7000	237
212.8000	262
212.9000	304
213.0000	317
213.1000	227
213.2000	325
213.3000	264
213.4000	210
213.5000	82
213.6000	38
213.7000	60
213.8000	35
213.9000	67
214.0000	51
214.1000	54
214.2000	43
214.3000	46
214.4000	45
220.9000	31
224.4000	45
224.5000	74
224.6000	88
224.7000	96
224.8000	115
224.9000	95
225.0000	116
225.1000	113
225.2000	124
225.3000	126
225.4000	103
225.5000	32
225.6000	35
225.7000	21
225.8000	35
226.0000	22
226.1000	23
226.6000	22
227.0000	31
230.4000	105
230.5000	142
230.6000	215
230.7000	208
230.8000	212
230.9000	241
231.0000	173
231.1000	255
231.2000	217
231.3000	194
231.4000	177
231.5000	110
231.6000	56
231.7000	37
231.8000	41
231.9000	49
232.0000	40
232.1000	37
232.2000	49
232.3000	29
232.4000	45
232.5000	28
237.9000	26
238.0000	29
254.5000	33
254.6000	41
254.8000	40
254.9000	120
255.0000	86
255.1000	26
255.2000	29
255.4000	31
255.6000	27
269.4000	61
269.5000	145
269.6000	156
269.7000	177
269.8000	175
269.9000	192
270.0000	196
270.1000	298
270.2000	169
270.3000	131
270.4000	128
270.5000	53
270.6000	50
270.7000	37
270.8000	43
270.9000	27
271.0000	38
271.1000	30
271.2000	30
271.3000	30
271.4000	26
285.5000	35
285.6000	38
285.7000	50
285.8000	69
285.9000	74
286.0000	63
286.1000	79
286.2000	74
286.3000	42
286.4000	60
286.5000	23
286.6000	25
286.7000	109
286.8000	58
287.3000	55
287.4000	194
287.5000	546
287.6000	795
287.7000	821
287.8000	926
287.9000	950
288.0000	992
288.1000	999
288.2000	952
288.3000	867
288.4000	805
288.5000	454
288.6000	303
288.7000	307
288.8000	244
288.9000	322
289.0000	285
289.1000	332
289.2000	329
289.3000	258
289.4000	287
289.5000	152
289.6000	59
289.7000	62
289.8000	45
289.9000	49
290.0000	49
290.1000	37
290.2000	34
290.3000	38
290.4000	34
290.5000	26
305.7000	26
306.3000	21
