Mass spectrum: laudanosine; LC-ESI-QQQ; MS; [M+H]+
Name: Laudanoside
Name: N-Methyltetrahydropapaverine
Name: 6,7-Dimethoxy-2-methyl-1-veratryl-1,2,3,4-tetrahydroisoquinoline
Name: 1-((3,4-dimethoxyphenyl)methyl)-6,7-dimethoxy-2-methyl-1,2,3,4-tetrahydroisoquinoline
Name: laudanosine
Class: Alkaloids
Formula: C21H27NO4
Exact mass: 357.4536
SMILES: COc1ccc(CC2c3cc(OC)c(OC)cc3CCN2C)cc1OC
InChI: InChI=1S/C21H27NO4/c1-22-9-8-15-12-20(25-4)21(26-5)13-16(15)17(22)10-14-6-7-18(23-2)19(11-14)24-3/h6-7,11-13,17H,8-10H2,1-5H3
Instrument: ABSciex API3200 LC/MS system
Instrument type: LC-ESI-QQQ
Ms type: MS
Ion mode: POSITIVE
Precursor type: [M+H]+
m/z	relative intensity
150.4000	67
150.5000	122
150.6000	153
150.7000	160
150.8000	191
150.9000	171
151.0000	179
151.1000	149
151.2000	148
151.3000	125
151.4000	133
151.5000	54
151.6000	28
152.1000	21
157.5000	23
157.6000	30
157.7000	34
157.8000	35
157.9000	29
158.0000	30
158.1000	30
158.2000	34
158.3000	33
158.4000	28
161.5000	23
161.6000	26
161.7000	27
161.8000	27
161.9000	23
162.0000	25
162.1000	23
162.2000	24
162.3000	21
164.4000	32
164.5000	57
164.6000	71
164.7000	80
164.8000	68
164.9000	86
165.0000	79
165.1000	71
165.2000	64
165.3000	64
165.4000	50
165.5000	22
173.4000	37
173.5000	50
173.6000	115
173.7000	61
173.8000	48
173.9000	56
174.0000	59
174.1000	40
174.2000	38
174.3000	32
174.4000	27
188.4000	149
188.5000	213
188.6000	284
188.7000	276
188.8000	290
188.9000	309
189.0000	275
189.1000	283
189.2000	247
189.3000	227
189.4000	259
189.5000	163
189.6000	176
189.7000	129
189.8000	129
189.9000	123
190.0000	210
190.1000	111
190.2000	87
190.3000	76
190.4000	90
190.5000	70
190.6000	71
190.7000	71
190.8000	76
190.9000	75
191.0000	88
191.1000	92
191.2000	63
191.3000	71
191.4000	69
191.5000	34
205.3000	34
205.4000	322
205.5000	763
205.6000	883
205.7000	943
205.8000	963
205.9000	984
206.0000	957
206.1000	971
206.2000	926
206.3000	884
206.4000	881
206.5000	517
206.6000	301
206.7000	263
206.8000	260
206.9000	273
207.0000	280
207.1000	272
207.2000	278
207.3000	248
207.4000	275
207.5000	135
207.6000	44
207.7000	29
207.8000	28
207.9000	37
208.0000	33
208.1000	34
208.2000	31
208.3000	30
208.4000	27
280.9000	21
295.4000	22
295.5000	27
295.6000	41
295.7000	38
295.8000	41
295.9000	47
296.0000	44
296.1000	40
296.2000	63
296.3000	39
296.4000	31
314.6000	29
314.7000	33
314.8000	35
314.9000	40
315.0000	32
315.1000	28
315.2000	29
315.3000	22
315.4000	24
326.3000	32
326.4000	107
326.5000	168
326.6000	221
326.7000	238
326.8000	233
326.9000	221
327.0000	216
327.1000	229
327.2000	205
327.3000	171
327.4000	173
327.5000	108
327.6000	63
327.7000	53
327.8000	58
327.9000	57
328.0000	73
328.1000	107
328.2000	55
328.3000	43
328.4000	25
328.8000	22
357.3000	81
357.4000	390
357.5000	665
357.6000	887
357.7000	953
357.8000	952
357.9000	975
358.0000	999
358.1000	981
358.2000	978
358.3000	892
358.4000	837
358.5000	621
358.6000	472
358.7000	500
358.8000	482
358.9000	492
359.0000	497
359.1000	507
359.2000	504
359.3000	472
359.4000	430
359.5000	270
359.6000	150
359.7000	155
359.8000	135
359.9000	126
360.0000	132
360.1000	126
360.2000	122
360.3000	107
360.4000	112
360.5000	54
360.6000	25
