Mass spectrum: O-Acetylsolasodine; LC-ESI-QQQ; MS; [M+H]+
Name: O-Acetylsolasodine
Class: Alkaloids
Formula: C29H45NO3
Exact mass: 455.68690000000004
SMILES: CC(=O)OC1CC[C@@]2(C)C(=CCC3C4CC5O[C@]6(CCC(C)CN6)C(C)C5[C@@]4(C)CCC32)C1
InChI: InChI=1S/C29H45NO3/c1-17-8-13-29(30-16-17)18(2)26-25(33-29)15-24-22-7-6-20-14-21(32-19(3)31)9-11-27(20,4)23(22)10-12-28(24,26)5/h6,17-18,21-26,30H,7-16H2,1-5H3/t17?,18?,21?,22?,23?,24?,25?,26?,27-,28-,29+/m0/s1
Instrument: ABSciex API3200 LC/MS system
Instrument type: LC-ESI-QQQ
Ms type: MS
Ion mode: POSITIVE
Precursor type: [M+H]+
m/z	relative intensity
141.9000	21
142.0000	49
437.7000	26
437.8000	35
437.9000	38
438.0000	36
438.1000	40
438.2000	38
438.3000	37
438.4000	40
438.5000	22
455.4000	123
455.5000	594
455.6000	631
455.7000	926
455.8000	967
455.9000	990
456.0000	981
456.1000	962
456.2000	999
456.3000	994
456.4000	920
456.5000	853
456.6000	571
456.7000	562
456.8000	561
456.9000	554
457.0000	557
457.1000	543
457.2000	587
457.3000	577
457.4000	567
457.5000	474
457.6000	267
457.7000	180
457.8000	170
457.9000	157
458.0000	203
458.1000	386
458.2000	231
458.3000	121
458.4000	134
458.5000	116
458.6000	46
458.7000	22
459.1000	22
