Mass spectrum: testolactone; LC-ESI-QQQ; MS; [M+H]+
Name: testolactone
Class: Steroids
Formula: C19H24O3
Exact mass: 300.4013
SMILES: C[C@]12CCC3C(CCC4=CC(=O)C=C[C@@]43C)C1CCC(=O)O2
InChI: InChI=1S/C19H24O3/c1-18-9-7-13(20)11-12(18)3-4-14-15(18)8-10-19(2)16(14)5-6-17(21)22-19/h7,9,11,14-16H,3-6,8,10H2,1-2H3/t14?,15?,16?,18-,19-/m0/s1
Instrument: ABSciex API3200 LC/MS system
Instrument type: LC-ESI-QQQ
Ms type: MS
Ion mode: POSITIVE
Precursor type: [M+H]+
m/z	relative intensity
100.1000	21
100.4000	39
100.5000	78
100.6000	50
100.7000	71
120.4000	126
120.5000	196
120.6000	270
120.7000	281
120.8000	291
120.9000	290
121.0000	237
121.1000	230
121.2000	195
121.3000	205
121.4000	149
121.5000	65
121.6000	26
121.7000	23
135.1000	21
146.5000	63
146.6000	116
146.7000	124
146.8000	115
146.9000	140
147.0000	120
147.1000	119
147.2000	123
147.3000	96
147.4000	72
147.5000	41
148.2000	51
148.3000	27
163.1000	24
163.2000	43
166.7000	24
166.8000	23
167.1000	25
167.3000	26
172.5000	25
172.7000	38
172.8000	50
172.9000	39
173.0000	42
173.1000	28
173.2000	32
173.4000	28
180.6000	27
180.7000	24
180.8000	21
180.9000	28
181.0000	30
181.1000	35
181.4000	21
218.9000	22
224.8000	23
264.5000	29
264.6000	49
264.7000	55
264.8000	37
264.9000	54
265.0000	49
265.1000	35
265.2000	32
265.3000	33
265.4000	32
282.5000	62
282.6000	78
282.7000	84
282.8000	80
282.9000	93
283.0000	94
283.1000	85
283.2000	78
283.3000	82
283.4000	79
283.5000	46
283.6000	34
283.7000	26
284.0000	35
300.4000	140
300.5000	524
300.6000	738
300.7000	857
300.8000	911
300.9000	880
301.0000	968
301.1000	999
301.2000	842
301.3000	791
301.4000	712
301.5000	505
301.6000	326
301.7000	405
301.8000	260
301.9000	266
302.0000	278
302.1000	314
302.2000	273
302.3000	231
302.4000	215
302.5000	139
302.6000	73
302.7000	52
302.8000	44
302.9000	29
303.0000	37
303.1000	41
303.2000	37
303.3000	22
303.4000	39
341.4000	21
341.5000	79
341.6000	125
341.7000	182
341.8000	152
341.9000	117
342.0000	148
342.1000	123
342.2000	133
342.3000	95
342.4000	48
342.5000	23
342.6000	28
342.7000	41
342.8000	24
342.9000	25
343.0000	27
343.1000	30
343.2000	24
343.3000	23
600.5000	30
600.6000	51
600.7000	96
600.8000	90
600.9000	89
601.0000	115
601.1000	112
601.2000	105
601.3000	93
601.4000	69
601.5000	44
601.6000	27
601.7000	51
601.8000	37
601.9000	52
602.0000	41
602.1000	50
602.2000	50
602.3000	35
602.4000	44
