Mass spectrum: Solanidine; LC-ESI-QQQ; MS; [M+H]+
Name: Solanidine
Class: Steroids
Formula: C27H43NO
Exact mass: 397.64986000000005
SMILES: C[C@H]1CCC2[C@@H](C)[C@H]3[C@H](CC4[C@@H]5CC=C6CC(O)CC[C@]6(C)[C@H]5CC[C@@]43C)N2C1
InChI: InChI=1S/C27H43NO/c1-16-5-8-23-17(2)25-24(28(23)15-16)14-22-20-7-6-18-13-19(29)9-11-26(18,3)21(20)10-12-27(22,25)4/h6,16-17,19-25,29H,5,7-15H2,1-4H3/t16-,17+,19?,20+,21-,22?,23?,24-,25-,26-,27-/m0/s1
Instrument: ABSciex API3200 LC/MS system
Instrument type: LC-ESI-QQQ
Ms type: MS
Ion mode: POSITIVE
Precursor type: [M+H]+
m/z	relative intensity
395.7000	22
395.8000	24
395.9000	25
396.0000	29
396.1000	37
396.2000	27
396.3000	25
396.4000	23
396.5000	25
397.4000	91
397.5000	398
397.6000	801
397.7000	900
397.8000	930
397.9000	949
398.0000	941
398.1000	975
398.2000	999
398.3000	974
398.4000	923
398.5000	894
398.6000	692
398.7000	563
398.8000	565
398.9000	598
399.0000	574
399.1000	579
399.2000	590
399.3000	574
399.4000	558
399.5000	538
399.6000	371
399.7000	213
399.8000	175
399.9000	165
400.0000	163
400.1000	161
400.2000	174
400.3000	185
400.4000	168
400.5000	136
400.6000	69
400.7000	33
400.8000	28
400.9000	22
830.7000	26
830.8000	35
830.9000	40
831.0000	49
831.1000	45
831.2000	46
831.3000	49
831.4000	48
831.5000	42
831.6000	38
831.7000	29
831.8000	25
831.9000	24
832.0000	28
832.1000	29
832.2000	30
832.3000	29
832.4000	33
832.5000	25
832.6000	23
832.7000	22
833.0000	21
833.1000	23
833.2000	24
833.3000	26
833.4000	22
