Mass spectrum: glucoluteolin; LC-ESI-QQQ; MS; [M+H]+
Name: glucoluteolin
Name: Homoorientin
Name: luteolin-7-O-glucoside
Name: Orientin
Class: Flavonoids
Formula: C21H20O11
Exact mass: 448.387
SMILES: O=c1cc(-c2ccc(O)c(O)c2)oc2cc(O[C@@H]3O[C@H](CO)[C@@H](O)[C@H](O)[C@H]3O)cc(O)c12
InChI: InChI=1S/C21H20O11/c22-7-16-18(27)19(28)20(29)21(32-16)30-9-4-12(25)17-13(26)6-14(31-15(17)5-9)8-1-2-10(23)11(24)3-8/h1-6,16,18-25,27-29H,7H2/t16-,18-,19+,20-,21-/m1/s1
Instrument: ABSciex API3200 LC/MS system
Instrument type: LC-ESI-QQQ
Ms type: MS
Ion mode: POSITIVE
Precursor type: [M+H]+
m/z	relative intensity
100.7000	151
100.8000	354
100.9000	531
101.0000	655
101.1000	525
101.2000	414
101.3000	413
101.4000	328
101.5000	121
101.8000	23
101.9000	50
102.0000	68
102.1000	102
102.2000	105
102.3000	73
102.4000	100
102.5000	28
117.4000	27
120.4000	23
120.5000	39
140.3000	22
141.9000	63
142.0000	290
142.1000	254
148.9000	32
149.2000	50
149.3000	47
155.4000	62
155.5000	64
157.7000	46
197.5000	91
197.6000	56
197.7000	33
214.0000	22
220.5000	26
222.2000	28
222.3000	35
238.9000	25
240.4000	23
286.2000	22
286.3000	169
286.4000	450
286.5000	727
286.6000	801
286.7000	999
286.8000	880
286.9000	950
287.0000	857
287.1000	730
287.2000	509
287.3000	651
287.4000	392
287.5000	181
287.6000	182
287.7000	126
287.8000	149
287.9000	136
288.0000	84
288.1000	165
288.2000	110
288.3000	98
288.4000	29
288.5000	41
288.6000	28
288.8000	22
289.0000	32
289.1000	42
289.3000	23
310.3000	89
310.4000	68
371.3000	46
448.2000	121
448.3000	235
448.4000	526
448.5000	712
448.6000	711
448.7000	774
448.8000	762
448.9000	754
449.0000	801
449.1000	645
449.2000	629
449.3000	400
449.4000	155
449.5000	195
449.6000	183
449.7000	209
449.8000	205
449.9000	210
450.0000	198
450.1000	202
450.2000	207
450.3000	133
450.4000	76
450.5000	42
450.6000	46
450.7000	37
450.9000	62
451.0000	41
451.2000	23
452.1000	24
896.1000	54
896.2000	38
896.3000	69
896.4000	53
896.5000	104
896.6000	60
896.7000	67
896.8000	89
896.9000	58
897.0000	79
897.1000	37
897.2000	22
897.3000	60
897.4000	37
897.5000	33
897.6000	65
897.7000	38
897.9000	44
898.0000	50
898.3000	24
1344.8000	24
1345.4000	40
