Mass spectrum: Methyllycaconitine; LC-ESI-QQQ; MS; [M+H]+
Name: Methyllycaconitine
Class: Alkaloids
Formula: C37H50N2O10
Exact mass: 682.8185
SMILES: CCN1C[C@]2(COC(=O)c3ccccc3N3C(=O)CC(C)C3=O)CC[C@H](OC)[C@@]34C5C[C@@H]6[C@@H](OC)C[C@@](O)(C5[C@H]6OC)[C@@](O)(C(OC)C23)C14
InChI: InChI=1S/C37H50N2O10/c1-7-38-17-34(18-49-32(42)20-10-8-9-11-23(20)39-26(40)14-19(2)31(39)41)13-12-25(46-4)36-22-15-21-24(45-3)16-35(43,27(22)28(21)47-5)37(44,33(36)38)30(48-6)29(34)36/h8-11,19,21-22,24-25,27-30,33,43-44H,7,12-18H2,1-6H3/t19?,21-,22?,24+,25+,27?,28+,29?,30?,33?,34+,35-,36+,37-/m1/s1
Instrument: ABSciex API3200 LC/MS system
Instrument type: LC-ESI-QQQ
Ms type: MS
Ion mode: POSITIVE
Precursor type: [M+H]+
m/z	relative intensity
682.3000	26
682.4000	163
682.5000	411
682.6000	720
682.7000	886
682.8000	881
682.9000	900
683.0000	876
683.1000	936
683.2000	999
683.3000	846
683.4000	691
683.5000	372
683.6000	393
683.7000	531
683.8000	518
683.9000	529
684.0000	604
684.1000	656
684.2000	516
684.3000	488
684.4000	402
684.5000	177
684.6000	180
684.7000	198
684.8000	208
684.9000	216
685.0000	224
685.1000	249
685.2000	300
685.3000	211
685.4000	168
685.5000	58
685.6000	49
685.7000	49
685.8000	53
685.9000	45
686.0000	54
686.1000	47
686.2000	46
686.3000	44
686.4000	35
