Mass spectrum: Zearalenone; LC-ESI-QQQ; MS; [M+H]+
Name: FES
Name: Fusarium toxin
Name: Mycotoxin F2
Name: Benzoxacyclotetradecin-1,7(8H)-dione
Name: Zenone
Name: 6-(10-Hydroxy-6-oxo-trans-1-undecenyl)-beta-resorcylic acid-N-lactone
Name: Zearalenone
Class: Polyketides
Formula: C18H22O5
Exact mass: 318.373
SMILES: C[C@H]1CCCC(=O)CCC/C=C/c2cc(O)cc(O)c2C(=O)O1
InChI: InChI=1S/C18H22O5/c1-12-6-5-9-14(19)8-4-2-3-7-13-10-15(20)11-16(21)17(13)18(22)23-12/h3,7,10-12,20-21H,2,4-6,8-9H2,1H3/b7-3+/t12-/m0/s1
Instrument: ABSciex API3200 LC/MS system
Instrument type: LC-ESI-QQQ
Ms type: MS
Ion mode: POSITIVE
Precursor type: [M+H]+
m/z	relative intensity
100.0000	257
100.5000	32
100.6000	26
100.7000	32
118.5000	24
122.6000	29
122.7000	32
124.6000	30
125.3000	40
125.5000	36
130.9000	21
131.0000	25
131.1000	21
133.0000	25
133.4000	25
134.9000	22
135.1000	22
142.9000	21
143.2000	30
147.0000	21
148.4000	26
148.5000	31
148.7000	91
148.9000	35
149.1000	30
149.2000	33
149.3000	24
156.5000	25
156.7000	25
156.8000	49
157.0000	25
157.2000	25
160.6000	31
160.7000	36
160.9000	21
161.5000	21
162.9000	53
163.3000	21
164.5000	26
164.6000	31
164.7000	21
164.8000	40
164.9000	59
165.1000	30
165.2000	31
168.5000	40
168.6000	40
168.7000	30
168.8000	50
168.9000	25
169.0000	25
169.1000	36
169.4000	31
172.6000	86
172.7000	24
174.5000	21
174.6000	25
174.8000	50
175.0000	40
175.1000	25
175.3000	26
175.4000	21
176.6000	25
176.7000	35
176.8000	21
176.9000	35
177.2000	27
184.6000	35
184.7000	50
184.8000	59
184.9000	40
185.0000	85
185.1000	41
185.2000	60
185.3000	41
185.4000	50
185.6000	26
185.7000	37
186.4000	46
186.5000	99
186.6000	127
186.7000	108
186.8000	161
186.9000	180
187.0000	214
187.1000	151
187.2000	97
187.3000	98
187.4000	74
187.5000	80
187.6000	26
187.7000	26
187.9000	22
188.1000	21
188.2000	27
188.3000	50
188.4000	36
188.5000	40
188.6000	31
188.7000	31
188.9000	35
189.0000	65
189.1000	40
189.3000	25
189.4000	30
190.5000	22
196.6000	21
200.6000	30
200.7000	30
200.8000	25
201.2000	25
201.4000	25
202.4000	36
202.5000	51
202.6000	50
202.7000	104
202.8000	50
202.9000	40
203.0000	36
203.1000	22
203.2000	45
203.3000	56
203.4000	153
204.4000	21
204.5000	26
204.6000	31
204.7000	21
204.8000	40
204.9000	25
205.0000	36
205.1000	35
205.2000	41
212.5000	36
212.6000	65
212.7000	40
212.8000	75
212.9000	65
213.0000	51
213.1000	75
213.2000	46
213.3000	51
213.4000	25
214.1000	23
214.4000	43
214.5000	30
214.6000	79
214.7000	60
214.9000	75
215.0000	74
215.1000	50
215.2000	60
215.3000	45
215.4000	36
215.5000	32
215.9000	27
216.0000	27
216.2000	27
216.4000	35
216.5000	67
216.6000	42
216.7000	46
216.8000	41
216.9000	93
217.0000	124
217.1000	89
217.2000	75
217.3000	81
217.4000	47
217.8000	21
221.3000	32
224.7000	23
226.0000	21
226.6000	25
226.7000	35
226.9000	40
227.0000	44
227.2000	23
227.3000	21
227.4000	21
228.4000	31
228.5000	21
228.6000	41
228.7000	60
228.8000	51
228.9000	80
229.0000	55
229.1000	21
229.2000	56
229.3000	55
229.4000	41
230.3000	23
230.4000	75
230.5000	66
230.6000	109
230.7000	114
230.8000	104
230.9000	123
231.0000	102
231.1000	109
231.2000	93
231.3000	75
231.4000	65
231.5000	22
231.6000	36
232.2000	31
232.5000	26
236.4000	47
240.6000	24
240.7000	26
240.8000	30
240.9000	53
241.0000	29
241.1000	45
241.2000	40
241.3000	49
241.8000	26
242.3000	27
243.2000	41
244.5000	22
244.7000	21
246.8000	37
248.4000	30
248.5000	26
248.6000	26
248.7000	64
248.8000	25
248.9000	45
249.0000	55
249.1000	31
249.2000	45
249.3000	31
249.4000	30
249.6000	35
249.8000	21
250.2000	31
250.4000	21
254.4000	27
254.5000	36
254.6000	89
254.7000	75
254.8000	21
254.9000	59
255.0000	79
255.1000	74
255.2000	50
255.3000	59
255.4000	51
255.5000	46
256.4000	27
256.6000	46
256.7000	36
256.8000	26
256.9000	22
257.0000	70
257.1000	32
257.3000	36
257.4000	61
257.6000	22
258.3000	37
258.4000	22
258.5000	22
258.8000	21
258.9000	22
259.0000	26
259.3000	41
261.4000	23
264.4000	31
264.5000	41
264.6000	84
264.7000	75
264.8000	119
264.9000	80
265.0000	74
265.1000	84
265.2000	85
265.3000	95
265.4000	84
265.5000	32
265.6000	36
265.8000	27
265.9000	22
266.2000	37
266.3000	27
266.4000	22
266.5000	26
266.8000	56
267.2000	36
267.3000	26
267.4000	22
282.3000	32
282.4000	216
282.5000	447
282.6000	563
282.7000	636
282.8000	590
282.9000	585
283.0000	587
283.1000	544
283.2000	685
283.3000	403
283.4000	404
283.5000	244
283.6000	240
283.7000	143
283.8000	142
283.9000	187
284.0000	89
284.1000	74
284.2000	94
284.3000	74
284.4000	99
284.5000	35
284.8000	21
285.1000	21
285.2000	21
300.4000	60
300.5000	191
300.6000	213
300.7000	355
300.8000	301
300.9000	432
301.0000	374
301.1000	369
301.2000	363
301.3000	306
301.4000	292
301.5000	148
301.6000	221
301.7000	90
301.8000	66
301.9000	56
302.0000	71
302.1000	56
302.2000	55
302.3000	60
302.4000	61
302.5000	22
302.9000	32
303.1000	27
318.3000	66
318.4000	235
318.5000	557
318.6000	755
318.7000	857
318.8000	890
318.9000	785
319.0000	784
319.1000	778
319.2000	999
319.3000	571
319.4000	506
319.5000	292
319.6000	201
319.7000	176
319.8000	196
319.9000	118
320.0000	153
320.1000	119
320.2000	109
320.3000	123
320.4000	138
320.5000	56
320.6000	42
320.7000	22
320.8000	27
320.9000	27
321.1000	32
321.4000	21
336.1000	46
336.2000	22
359.5000	28
359.8000	28
360.0000	22
636.6000	42
636.7000	23
636.8000	28
636.9000	23
637.1000	28
