Mass spectrum: Ginkgolide B; LC-ESI-QQQ; MS; [M+H]+
Name: Ginkgolide B
Class: Terpenoids
Formula: C20H24O10
Exact mass: 424.4083
SMILES: C[C@@H]1C(=O)O[C@H]2[C@H](O)[C@@]34[C@H]5C[C@@H](C(C)(C)C)[C@]36[C@@H](OC(=O)[C@@H]6O)O[C@@]4(C(=O)O5)[C@@]12O
InChI: InChI=1S/C20H24O10/c1-6-12(23)28-11-9(21)18-8-5-7(16(2,3)4)17(18)10(22)13(24)29-15(17)30-20(18,14(25)27-8)19(6,11)26/h6-11,15,21-22,26H,5H2,1-4H3/t6-,7+,8-,9+,10+,11+,15+,17+,18+,19-,20-/m1/s1
Instrument: ABSciex API3200 LC/MS system
Instrument type: LC-ESI-QQQ
Ms type: MS
Ion mode: POSITIVE
Precursor type: [M+H]+
m/z	relative intensity
100.3000	37
101.2000	222
101.3000	287
101.4000	271
101.5000	179
101.6000	35
101.7000	24
101.8000	28
102.2000	32
118.4000	100
118.6000	27
141.4000	31
141.5000	263
141.6000	858
141.7000	867
141.8000	885
141.9000	860
142.0000	614
142.1000	621
142.2000	693
142.3000	695
142.4000	559
142.5000	493
142.6000	174
142.7000	72
142.8000	61
142.9000	100
143.0000	45
143.1000	45
143.3000	26
143.4000	59
148.8000	28
148.9000	32
149.1000	55
173.4000	21
221.2000	26
221.3000	30
222.9000	29
224.6000	42
225.8000	29
238.6000	32
262.1000	39
275.3000	33
279.2000	44
294.7000	37
299.0000	24
314.8000	25
334.6000	25
360.8000	33
361.8000	27
408.4000	240
408.5000	40
408.6000	97
408.7000	54
408.8000	75
408.9000	75
409.0000	83
409.1000	69
409.2000	83
409.3000	119
409.4000	26
409.6000	48
409.7000	70
409.9000	27
410.1000	34
424.2000	27
424.3000	60
424.4000	212
424.5000	349
424.6000	455
424.7000	527
424.8000	538
424.9000	618
425.0000	676
425.1000	726
425.2000	611
425.3000	648
425.4000	653
425.5000	276
425.6000	159
425.7000	172
425.8000	150
425.9000	179
426.0000	144
426.1000	137
426.2000	100
426.3000	94
426.4000	130
426.5000	68
426.6000	119
426.7000	126
426.8000	40
426.9000	76
427.0000	61
427.1000	90
427.2000	39
427.3000	76
427.4000	26
427.7000	27
427.8000	34
427.9000	34
428.1000	26
428.3000	55
441.4000	78
441.5000	112
441.6000	232
441.7000	236
441.8000	193
441.9000	224
442.0000	378
442.1000	175
442.2000	144
442.3000	121
442.4000	152
442.5000	181
442.6000	140
442.7000	115
442.8000	118
442.9000	147
443.0000	141
443.1000	101
443.2000	111
443.3000	106
443.4000	50
443.5000	38
443.6000	31
443.7000	46
443.9000	32
444.0000	40
465.3000	55
465.4000	159
465.5000	326
465.6000	432
465.7000	422
465.8000	630
465.9000	399
466.0000	441
466.1000	459
466.2000	396
466.3000	293
466.4000	145
466.5000	145
466.6000	74
466.7000	137
466.8000	74
466.9000	145
467.0000	68
467.1000	154
467.2000	103
467.3000	131
467.4000	39
467.5000	48
467.6000	55
467.8000	69
468.0000	47
468.1000	41
468.2000	33
468.4000	27
469.6000	34
469.7000	34
469.8000	48
469.9000	34
470.0000	34
470.3000	27
470.5000	27
483.4000	27
483.5000	62
483.6000	120
483.7000	98
483.8000	90
483.9000	104
484.0000	126
484.1000	76
484.2000	141
484.3000	34
484.4000	34
502.6000	34
502.7000	26
502.8000	47
502.9000	26
503.0000	33
503.3000	34
504.4000	27
832.5000	34
832.6000	34
832.9000	27
833.6000	34
833.9000	27
848.2000	219
848.3000	532
848.4000	859
848.5000	744
848.6000	999
848.7000	951
848.8000	801
848.9000	914
849.0000	871
849.1000	958
849.2000	859
849.3000	623
849.4000	423
849.5000	568
849.6000	310
849.7000	433
849.8000	396
849.9000	425
850.0000	624
850.1000	452
850.2000	412
850.3000	273
850.4000	97
850.5000	141
850.6000	148
850.7000	184
850.8000	163
850.9000	119
851.0000	155
851.1000	155
851.2000	84
851.3000	62
851.4000	55
851.5000	27
851.6000	41
851.8000	34
852.1000	62
852.2000	56
865.3000	68
865.4000	103
865.5000	146
865.6000	109
865.7000	100
865.8000	120
865.9000	179
866.0000	191
866.1000	93
866.2000	114
866.3000	187
866.4000	117
866.5000	54
866.6000	67
866.7000	160
866.8000	111
866.9000	95
867.0000	88
867.1000	89
867.2000	117
867.3000	26
867.4000	69
867.6000	40
867.7000	26
867.8000	33
867.9000	55
868.0000	34
868.1000	62
868.2000	69
868.4000	27
868.8000	27
869.0000	27
907.4000	27
907.5000	55
907.9000	34
908.0000	34
908.1000	27
908.3000	27
909.0000	27
1272.1000	48
1272.2000	56
1272.3000	56
1272.4000	55
1272.5000	84
1272.6000	120
1272.7000	98
1272.8000	69
1272.9000	134
1273.0000	170
1273.1000	170
1273.2000	184
1273.3000	48
1273.4000	48
1273.5000	48
1273.6000	62
1273.7000	112
1273.8000	48
1273.9000	98
1274.0000	84
1274.1000	91
1274.2000	91
1274.3000	41
1274.4000	48
1274.5000	48
1274.6000	41
1274.7000	41
1274.8000	27
1274.9000	41
1275.0000	48
1275.1000	48
1275.2000	34
1289.5000	27
1289.6000	41
1289.7000	26
1289.8000	26
1290.0000	26
1290.1000	27
1290.2000	55
1290.4000	41
1290.6000	91
1290.7000	41
1290.8000	62
1290.9000	76
1291.1000	69
1291.2000	34
1291.4000	34
1291.5000	34
1292.0000	55
1292.5000	27
1293.0000	27
1293.1000	27
