Mass spectrum: Androstenedione; LC-ESI-QQQ; MS; [M+H]+
Name: Androstenedione
Class: Steroids
Formula: C19H26O2
Exact mass: 286.4179
SMILES: C[C@]12CCC3C(CCC4=CC(=O)CC[C@@]43C)C1CCC2=O
InChI: InChI=1S/C19H26O2/c1-18-9-7-13(20)11-12(18)3-4-14-15-5-6-17(21)19(15,2)10-8-16(14)18/h11,14-16H,3-10H2,1-2H3/t14?,15?,16?,18-,19-/m0/s1
Instrument: ABSciex API3200 LC/MS system
Instrument type: LC-ESI-QQQ
Ms type: MS
Ion mode: POSITIVE
Precursor type: [M+H]+
m/z	relative intensity
101.1000	34
101.2000	27
101.3000	26
101.4000	24
108.5000	61
108.6000	101
108.7000	127
108.8000	220
108.9000	107
109.0000	108
109.1000	114
109.2000	110
109.3000	122
109.4000	132
109.5000	45
110.1000	22
123.3000	21
172.7000	22
172.8000	25
210.6000	21
210.7000	26
250.9000	29
268.6000	23
268.7000	31
268.8000	57
268.9000	31
269.4000	24
269.5000	24
286.4000	119
286.5000	638
286.6000	845
286.7000	982
286.8000	985
286.9000	975
287.0000	999
287.1000	960
287.2000	954
287.3000	913
287.4000	846
287.5000	728
287.6000	450
287.7000	385
287.8000	378
287.9000	426
288.0000	414
288.1000	418
288.2000	405
288.3000	385
288.4000	354
288.5000	298
288.6000	126
288.7000	101
288.8000	84
288.9000	63
289.0000	76
289.1000	63
289.2000	71
289.3000	68
289.4000	60
289.5000	51
327.5000	77
327.6000	141
327.7000	160
327.8000	161
327.9000	151
328.0000	176
328.1000	155
328.2000	162
328.3000	147
328.4000	152
328.5000	120
328.6000	61
328.7000	47
328.8000	44
328.9000	40
329.0000	34
329.1000	41
329.2000	37
329.3000	35
329.4000	24
572.6000	25
572.7000	66
572.8000	97
572.9000	104
573.0000	110
573.1000	106
573.2000	98
573.3000	99
573.4000	74
573.5000	51
573.6000	28
573.7000	29
573.8000	41
573.9000	31
574.0000	37
574.1000	41
574.2000	42
574.3000	40
574.4000	33
574.5000	21
