Mass spectrum: Glycocitridine; LC-ESI-QQQ; MS; [M+H]+
Name: Glycocitridine
Class: Alkaloids
Formula: C13H13NO5
Exact mass: 263.2523
SMILES: COc1ccc2c(OC)c(C=O)c(O)nc2c1OC
InChI: InChI=1S/C13H13NO5/c1-17-9-5-4-7-10(12(9)19-3)14-13(16)8(6-15)11(7)18-2/h4-6H,1-3H3,(H,14,16)
Instrument: ABSciex API3200 LC/MS system
Instrument type: LC-ESI-QQQ
Ms type: MS
Ion mode: POSITIVE
Precursor type: [M+H]+
m/z	relative intensity
109.2000	26
109.3000	37
109.4000	53
125.2000	25
125.3000	26
130.3000	21
220.4000	22
220.5000	28
220.6000	25
234.2000	33
234.3000	44
234.4000	41
234.5000	56
234.6000	43
234.7000	26
249.3000	39
249.4000	37
249.5000	37
249.6000	35
249.7000	27
264.1000	24
264.2000	448
264.3000	815
264.4000	934
264.5000	999
264.6000	970
264.7000	771
264.8000	255
264.9000	77
265.2000	63
265.3000	144
265.4000	176
265.5000	186
265.6000	154
265.7000	146
265.8000	36
266.3000	23
266.4000	21
266.5000	21
266.6000	25
286.3000	28
286.4000	39
286.5000	34
286.6000	40
286.7000	23
311.2000	22
549.5000	21
549.6000	37
549.7000	34
