Mass spectrum: Purpurin; LC-ESI-QQQ; MS; [M+H]+
Name: Purpurin
Class: Polycyclic aromatic natural products
Formula: C14H8O5
Exact mass: 256.2169
SMILES: O=C1c2ccccc2C(=O)c2c(O)c(O)cc(O)c21
InChI: InChI=1S/C14H8O5/c15-8-5-9(16)14(19)11-10(8)12(17)6-3-1-2-4-7(6)13(11)18/h1-5,15-16,19H
Instrument: ABSciex API3200 LC/MS system
Instrument type: LC-ESI-QQQ
Ms type: MS
Ion mode: POSITIVE
Precursor type: [M+H]+
m/z	relative intensity
100.4000	96
114.2000	24
117.4000	21
118.1000	22
118.7000	41
118.8000	38
118.9000	38
119.0000	27
119.1000	28
120.4000	30
121.1000	30
131.2000	21
134.9000	53
135.1000	24
142.9000	30
143.2000	33
143.3000	27
148.6000	29
148.7000	65
148.8000	96
148.9000	39
149.0000	53
149.1000	61
149.2000	30
149.3000	79
149.4000	30
149.7000	31
150.4000	22
154.7000	22
155.0000	24
158.5000	22
159.4000	24
166.9000	28
167.1000	27
176.7000	21
186.4000	28
186.5000	33
186.6000	53
186.7000	37
186.8000	62
186.9000	52
187.0000	45
187.1000	41
187.2000	54
187.3000	33
187.4000	39
197.7000	74
197.8000	113
198.3000	24
198.8000	27
208.9000	27
217.1000	27
217.2000	25
220.7000	21
221.4000	61
221.5000	22
221.6000	25
221.9000	36
224.9000	21
226.4000	61
226.5000	84
226.6000	85
226.7000	100
226.8000	88
226.9000	97
227.0000	91
227.1000	99
227.2000	74
227.3000	145
227.4000	65
227.5000	23
227.6000	25
227.9000	26
228.4000	54
228.5000	83
228.6000	107
228.7000	112
228.8000	69
228.9000	99
229.0000	151
229.1000	139
229.2000	84
229.3000	85
229.4000	81
229.5000	24
229.6000	21
254.3000	62
254.4000	210
254.5000	231
254.6000	179
254.7000	218
254.8000	244
254.9000	179
255.0000	191
255.1000	188
255.2000	208
255.3000	169
255.4000	109
255.5000	49
255.6000	53
255.7000	37
255.8000	52
255.9000	41
256.0000	33
256.1000	37
256.2000	43
256.3000	123
256.4000	498
256.5000	735
256.6000	944
256.7000	966
256.8000	898
256.9000	999
257.0000	947
257.1000	932
257.2000	851
257.3000	843
257.4000	418
257.5000	255
257.6000	170
257.7000	167
257.8000	223
257.9000	177
258.0000	138
258.1000	116
258.2000	137
258.3000	121
258.4000	72
258.5000	29
258.7000	24
258.8000	23
259.1000	27
259.2000	21
261.1000	22
272.3000	28
272.6000	38
272.7000	50
272.8000	23
273.0000	25
273.1000	25
273.2000	60
278.6000	22
280.8000	21
390.6000	23
390.9000	21
391.0000	26
391.1000	32
391.2000	40
391.5000	33
391.8000	26
410.5000	31
410.6000	38
410.7000	32
410.8000	34
411.0000	29
411.1000	25
411.7000	25
412.6000	28
412.7000	27
433.2000	52
526.9000	23
565.4000	21
565.7000	28
565.8000	26
565.9000	21
