Mass spectrum: Bucharaine; LC-ESI-QQQ; MS; [M+H]+
Name: Bucharaine
Class: Alkaloids
Formula: C19H25NO4
Exact mass: 331.4154
SMILES: C/C(=C\COc1cc(O)nc2ccccc12)CCC(O)C(C)(C)O
InChI: InChI=1S/C19H25NO4/c1-13(8-9-17(21)19(2,3)23)10-11-24-16-12-18(22)20-15-7-5-4-6-14(15)16/h4-7,10,12,17,21,23H,8-9,11H2,1-3H3,(H,20,22)/b13-10+
Instrument: ABSciex API3200 LC/MS system
Instrument type: LC-ESI-QQQ
Ms type: MS
Ion mode: POSITIVE
Precursor type: [M+H]+
m/z	relative intensity
143.5000	31
143.6000	34
143.7000	41
143.8000	55
143.9000	58
144.0000	74
144.1000	56
144.2000	58
144.3000	39
144.4000	26
152.5000	57
152.6000	44
152.7000	69
152.8000	73
152.9000	76
153.0000	75
153.1000	94
153.2000	166
153.3000	23
153.4000	38
153.5000	27
161.3000	259
161.4000	716
161.5000	887
161.6000	969
161.7000	999
161.8000	944
161.9000	956
162.0000	970
162.1000	952
162.2000	871
162.3000	802
162.4000	696
162.5000	347
162.6000	217
162.7000	190
162.8000	212
162.9000	218
163.0000	227
163.1000	208
163.2000	208
163.3000	186
163.4000	157
163.5000	49
163.6000	36
163.7000	28
163.8000	27
163.9000	24
164.0000	31
164.1000	24
164.2000	23
164.3000	21
164.4000	27
313.8000	24
331.3000	23
331.4000	218
331.5000	477
331.6000	548
331.7000	536
331.8000	550
331.9000	564
332.0000	588
332.1000	565
332.2000	547
332.3000	519
332.4000	524
332.5000	323
332.6000	655
332.7000	363
332.8000	54
332.9000	56
333.0000	107
333.1000	115
333.2000	144
333.3000	128
333.4000	130
333.5000	63
333.6000	48
333.7000	40
333.8000	33
333.9000	40
334.0000	42
334.1000	39
334.2000	30
334.3000	30
334.4000	30
662.4000	25
662.5000	70
662.6000	162
662.7000	177
662.8000	190
662.9000	215
663.0000	209
663.1000	160
663.2000	208
663.3000	181
663.4000	158
663.5000	96
663.6000	83
663.7000	85
663.8000	81
663.9000	82
664.0000	86
664.1000	76
664.2000	80
664.3000	70
664.4000	62
664.5000	33
664.8000	23
664.9000	24
665.0000	25
665.1000	30
665.3000	122
665.4000	63
993.8000	22
993.9000	25
994.0000	24
994.1000	30
994.2000	32
994.3000	25
994.4000	27
