Mass spectrum: Vincadifformine; LC-ESI-QQQ; MS; [M+H]+
Name: Vincadifformine
Class: Alkaloids
Formula: [C21H27N2O2]+
Exact mass: 339.46154
SMILES: CCC12CCCN3CCC4(C(=C(C(=O)OC)C1)[NH2+]c1ccccc14)[C@@H]32
InChI: InChI=1S/C21H26N2O2/c1-3-20-9-6-11-23-12-10-21(19(20)23)15-7-4-5-8-16(15)22-17(21)14(13-20)18(24)25-2/h4-5,7-8,19,22H,3,6,9-13H2,1-2H3/p+1/t19-,20?,21?/m0/s1
Instrument: ABSciex API3200 LC/MS system
Instrument type: LC-ESI-QQQ
Ms type: MS
Ion mode: POSITIVE
Precursor type: [M]+
m/z	relative intensity
123.5000	26
123.6000	52
123.7000	60
123.8000	66
123.9000	74
124.0000	75
124.1000	103
124.2000	225
124.3000	120
124.5000	35
137.5000	80
137.6000	139
137.7000	153
137.8000	174
137.9000	197
138.0000	182
138.1000	163
138.2000	150
138.3000	142
138.4000	122
138.5000	97
138.6000	37
139.2000	24
167.7000	24
167.8000	25
168.0000	23
278.5000	62
278.6000	92
278.7000	136
278.8000	152
278.9000	142
279.0000	151
279.1000	145
279.2000	131
279.3000	128
279.4000	116
279.5000	82
279.6000	44
279.7000	36
279.8000	38
279.9000	30
280.0000	22
280.1000	35
280.2000	27
280.3000	29
280.4000	32
280.5000	35
306.4000	258
306.5000	554
306.6000	738
306.7000	731
306.8000	762
306.9000	733
307.0000	732
307.1000	733
307.2000	732
307.3000	696
307.4000	678
307.5000	478
307.6000	366
307.7000	349
307.8000	329
307.9000	326
308.0000	357
308.1000	348
308.2000	387
308.3000	256
308.4000	299
308.5000	139
308.6000	81
308.7000	64
308.8000	53
308.9000	57
309.0000	42
309.1000	53
309.2000	48
309.3000	45
309.4000	53
309.5000	27
338.3000	122
338.4000	588
338.5000	864
338.6000	943
338.7000	978
338.8000	980
338.9000	972
339.0000	958
339.1000	942
339.2000	959
339.3000	999
339.4000	970
339.5000	916
339.6000	644
339.7000	584
339.8000	607
339.9000	593
340.0000	591
340.1000	601
340.2000	580
340.3000	576
340.4000	518
340.5000	413
340.6000	230
340.7000	223
340.8000	192
340.9000	173
341.0000	174
341.1000	154
341.2000	169
341.3000	168
341.4000	129
341.5000	95
341.6000	40
341.7000	32
341.8000	29
342.0000	23
342.2000	22
370.5000	25
370.6000	26
370.7000	35
370.8000	29
370.9000	38
371.0000	28
371.1000	44
371.2000	30
371.3000	32
371.4000	26
