Mass spectrum: Ajmaline; LC-ESI-QQQ; MS; [M+H]+
Name: Ajmalin
Name: Cardiorythmine
Name: Raugalline
Name: Rauwolfine
Name: Tachmalin
Name: Ajmalan-17,21-diol
Name: (13S,16S,18S,1R,14R,17R)-13-ethyl-8-methyl-8,15-diazahexacyclo(14.2.1.0(1,9).0(2,7).0(10,15).0(12,17))nonadeca-2(7),3,5-triene-14,18-diol
Name: Ajmaline
Class: Alkaloids
Formula: C20H26N2O2
Exact mass: 326.4424
SMILES: CC[C@H]1C2CC3C4N(C)c5ccccc5[C@]45C[C@@H](C2C5O)N3[C@@H]1O
InChI: InChI=1S/C20H26N2O2/c1-3-10-11-8-14-17-20(12-6-4-5-7-13(12)21(17)2)9-15(16(11)18(20)23)22(14)19(10)24/h4-7,10-11,14-19,23-24H,3,8-9H2,1-2H3/t10-,11?,14?,15-,16?,17?,18?,19+,20+/m0/s1
Instrument: ABSciex API3200 LC/MS system
Instrument type: LC-ESI-QQQ
Ms type: MS
Ion mode: POSITIVE
Precursor type: [M+H]+
m/z	relative intensity
324.5000	21
324.6000	25
324.7000	39
324.8000	43
324.9000	34
325.0000	37
325.1000	41
325.2000	34
325.3000	30
325.4000	34
326.2000	33
326.3000	127
326.4000	570
326.5000	865
326.6000	970
326.7000	956
326.8000	936
326.9000	945
327.0000	955
327.1000	948
327.2000	953
327.3000	969
327.4000	999
327.5000	857
327.6000	655
327.7000	621
327.8000	594
327.9000	570
328.0000	632
328.1000	624
328.2000	589
328.3000	583
328.4000	488
328.5000	374
328.6000	219
328.7000	189
328.8000	168
328.9000	160
329.0000	152
329.1000	137
329.2000	136
329.3000	199
329.4000	92
329.5000	65
329.6000	28
329.7000	26
356.5000	26
368.4000	29
368.5000	34
368.7000	25
653.0000	34
688.8000	24
