Mass spectrum: Lambertianic acid; LC-ESI-QQQ; MS; [M+H]+
Name: Lambertianic acid
Class: Polycyclic aromatic natural products
Formula: C20H28O3
Exact mass: 316.4444
SMILES: C=C1CCC2[C@@](C)(C(=O)O)CCC[C@]2(C)[C@H]1CCc1ccoc1
InChI: InChI=1S/C20H28O3/c1-14-5-8-17-19(2,10-4-11-20(17,3)18(21)22)16(14)7-6-15-9-12-23-13-15/h9,12-13,16-17H,1,4-8,10-11H2,2-3H3,(H,21,22)/t16-,17?,19+,20-/m0/s1
Instrument: ABSciex API3200 LC/MS system
Instrument type: LC-ESI-QQQ
Ms type: MS
Ion mode: POSITIVE
Precursor type: [M+H]+
m/z	relative intensity
100.3000	141
106.9000	34
107.1000	35
108.0000	21
108.7000	34
108.9000	27
109.1000	34
117.0000	26
117.1000	24
117.3000	27
117.4000	36
118.9000	34
120.5000	47
120.6000	42
120.7000	56
120.8000	60
120.9000	46
121.0000	116
121.1000	36
121.2000	58
121.3000	34
123.1000	26
123.2000	35
123.4000	28
129.3000	27
130.5000	27
130.6000	29
130.7000	28
134.5000	31
134.6000	62
134.7000	29
134.8000	72
134.9000	246
135.0000	56
135.2000	27
135.4000	40
136.4000	45
138.2000	21
142.6000	27
144.5000	36
144.6000	59
144.7000	64
144.8000	49
145.0000	64
145.1000	71
145.2000	42
145.3000	74
145.6000	21
146.6000	27
146.7000	27
146.8000	27
146.9000	35
147.1000	36
147.2000	34
147.3000	29
148.3000	25
148.4000	276
148.5000	410
148.6000	999
148.7000	976
148.8000	543
148.9000	471
149.0000	673
149.1000	482
149.2000	491
149.3000	350
149.4000	332
149.5000	46
149.6000	73
149.7000	33
149.8000	27
149.9000	92
150.0000	52
150.1000	60
150.2000	62
150.3000	35
150.6000	26
150.8000	67
151.0000	33
151.1000	26
151.2000	34
151.3000	26
155.0000	23
157.1000	26
158.8000	36
158.9000	28
159.2000	43
159.5000	21
160.4000	21
161.1000	21
162.6000	67
162.7000	74
162.8000	26
162.9000	50
163.0000	65
163.1000	51
163.2000	51
163.3000	28
163.4000	43
163.5000	21
163.9000	29
168.6000	21
170.8000	27
170.9000	26
173.4000	51
176.7000	46
176.9000	39
177.0000	53
177.1000	49
177.2000	48
177.3000	24
177.7000	21
178.0000	37
178.4000	21
179.1000	21
179.3000	29
182.4000	21
189.6000	46
189.7000	36
189.8000	37
189.9000	29
190.2000	21
192.5000	45
192.7000	21
195.1000	21
196.4000	27
196.7000	28
196.8000	29
197.1000	28
197.5000	34
198.0000	119
198.1000	94
198.5000	38
198.8000	22
199.3000	41
199.4000	28
204.5000	80
204.6000	65
204.7000	26
204.8000	90
204.9000	42
205.0000	49
205.1000	59
205.2000	44
205.3000	35
205.7000	21
209.3000	27
210.7000	21
211.2000	29
211.4000	28
220.7000	46
220.8000	41
221.0000	31
221.2000	40
221.3000	74
221.4000	30
222.6000	31
222.7000	37
222.8000	39
222.9000	71
223.0000	35
223.1000	38
223.2000	22
223.3000	22
223.4000	31
223.5000	35
224.9000	31
225.0000	24
229.2000	21
242.6000	45
242.9000	37
243.0000	37
243.2000	53
243.3000	21
246.8000	21
246.9000	21
247.5000	31
252.4000	53
252.5000	195
252.6000	183
252.7000	178
252.8000	225
252.9000	183
253.0000	216
253.1000	201
253.2000	186
253.3000	114
253.4000	105
253.5000	155
253.6000	124
253.7000	37
253.8000	61
253.9000	52
254.0000	22
254.1000	60
254.2000	45
254.3000	28
254.4000	29
254.5000	51
254.6000	44
255.0000	29
255.2000	28
255.3000	29
257.3000	27
270.6000	154
270.7000	114
270.8000	138
270.9000	199
271.0000	178
271.1000	145
271.2000	162
271.3000	68
271.4000	108
271.5000	116
271.6000	29
271.7000	45
271.8000	37
271.9000	69
272.1000	21
272.3000	22
272.4000	37
272.5000	37
272.7000	27
272.8000	35
276.4000	28
280.6000	42
280.8000	34
281.0000	25
283.3000	27
288.4000	22
292.5000	21
298.4000	41
298.5000	145
298.6000	209
298.7000	215
298.8000	276
298.9000	256
299.0000	152
299.1000	176
299.2000	278
299.3000	200
299.4000	114
299.5000	116
299.6000	76
299.7000	51
299.8000	37
299.9000	37
300.0000	61
300.1000	60
300.2000	60
300.3000	53
300.4000	29
300.5000	76
300.6000	43
300.7000	115
300.8000	92
300.9000	92
301.0000	67
301.1000	44
301.2000	76
301.3000	52
301.4000	100
301.5000	45
301.8000	22
302.0000	29
302.2000	30
302.4000	29
314.8000	35
315.0000	42
315.1000	50
315.2000	41
315.3000	66
316.4000	139
316.5000	303
316.6000	612
316.7000	888
316.8000	857
316.9000	918
317.0000	982
317.1000	882
317.2000	770
317.3000	779
317.4000	754
317.5000	542
317.6000	298
317.7000	298
317.8000	203
317.9000	283
318.0000	179
318.1000	140
318.2000	179
318.3000	179
318.4000	186
318.5000	123
318.6000	36
318.8000	52
318.9000	21
319.0000	29
319.2000	45
329.0000	21
330.4000	22
330.7000	26
357.4000	21
357.5000	22
357.6000	21
357.7000	37
357.9000	30
358.0000	53
358.1000	37
358.2000	21
358.4000	30
358.5000	30
359.4000	22
372.8000	22
448.8000	62
455.8000	21
456.3000	37
456.8000	21
568.8000	22
568.9000	30
569.0000	30
569.1000	38
569.2000	22
569.4000	54
569.8000	22
569.9000	21
570.0000	30
570.1000	22
570.3000	22
571.0000	22
586.8000	38
586.9000	54
587.0000	21
587.1000	61
587.2000	46
587.4000	46
587.9000	38
588.8000	133
589.1000	22
596.8000	62
596.9000	69
597.0000	30
614.5000	30
614.6000	38
614.7000	109
614.8000	125
614.9000	148
615.0000	164
615.1000	196
615.2000	125
615.3000	164
615.4000	141
615.5000	94
615.6000	46
615.7000	70
615.8000	93
615.9000	30
616.0000	94
616.1000	54
616.2000	61
616.3000	62
616.4000	69
616.5000	30
616.6000	22
616.9000	30
617.0000	22
617.1000	30
617.2000	38
630.8000	30
631.4000	22
631.7000	22
632.4000	93
632.5000	93
632.6000	163
632.7000	249
632.8000	296
632.9000	386
633.0000	330
633.1000	329
633.2000	352
633.3000	402
633.4000	305
633.5000	346
633.6000	172
633.7000	132
633.8000	163
633.9000	188
634.0000	92
634.1000	133
634.2000	171
634.3000	195
634.4000	133
634.5000	61
634.6000	21
634.7000	45
634.8000	69
634.9000	38
635.0000	22
635.2000	21
635.3000	30
635.4000	21
635.5000	30
636.2000	22
636.3000	38
636.4000	38
675.5000	22
930.5000	22
930.6000	38
930.7000	37
930.8000	62
930.9000	30
931.0000	37
931.1000	30
931.2000	38
931.3000	30
931.4000	38
931.5000	46
932.0000	37
932.2000	22
932.3000	22
932.9000	22
947.7000	22
948.4000	22
948.5000	46
948.6000	69
948.7000	46
948.8000	94
948.9000	54
949.0000	94
949.1000	93
949.2000	94
949.3000	85
949.4000	85
949.5000	46
949.6000	70
949.7000	30
949.8000	46
949.9000	38
950.1000	86
950.2000	62
950.3000	38
950.4000	46
950.5000	69
950.8000	30
950.9000	30
951.1000	30
951.3000	22
951.4000	22
952.1000	22
1265.2000	22
1265.3000	22
1265.5000	30
1265.9000	22
1266.2000	22
1266.4000	38
