Mass spectrum: Resistomycin; LC-ESI-QQQ; MS; [M+H]+
Name: Resistomycin
Class: Polycyclic aromatic natural products
Formula: C22H16O6
Exact mass: 376.3692
SMILES: Cc1cc(O)c2c3c4c(cc(O)c13)C(C)(C)C(=O)c1c(O)cc(O)c(c1-4)C2=O
InChI: InChI=1S/C22H16O6/c1-7-4-9(23)15-18-13(7)10(24)5-8-14(18)19-16(20(15)27)11(25)6-12(26)17(19)21(28)22(8,2)3/h4-6,23-26H,1-3H3
Instrument: ABSciex API3200 LC/MS system
Instrument type: LC-ESI-QQQ
Ms type: MS
Ion mode: POSITIVE
Precursor type: [M+H]+
m/z	relative intensity
100.6000	23
100.7000	40
100.9000	29
101.0000	30
101.1000	28
101.4000	30
361.4000	45
361.5000	104
361.6000	112
361.7000	97
361.8000	125
361.9000	86
362.0000	86
362.1000	75
362.2000	75
362.3000	92
362.5000	30
362.7000	36
362.8000	27
362.9000	43
363.0000	27
376.3000	116
376.4000	449
376.5000	559
376.6000	748
376.7000	757
376.8000	834
376.9000	860
377.0000	999
377.1000	893
377.2000	932
377.3000	667
377.4000	521
377.5000	186
377.6000	189
377.7000	211
377.8000	173
377.9000	203
378.0000	207
378.1000	216
378.2000	160
378.3000	169
378.4000	78
378.5000	44
378.6000	30
378.7000	53
378.8000	46
379.1000	30
379.2000	31
379.3000	28
