Mass spectrum: Retrorsine; LC-ESI-QQQ; MS; [M+H]+
Name: Retrorsine
Class: Alkaloids
Formula: C18H25NO6
Exact mass: 351.4031
SMILES: C/C=C1/C[C@H](C)[C@](O)(CO)C(=O)OCC2=CCN3CC[C@@H](OC1=O)[C@@H]23
InChI: InChI=1S/C18H25NO6/c1-3-12-8-11(2)18(23,10-20)17(22)24-9-13-4-6-19-7-5-14(15(13)19)25-16(12)21/h3-4,11,14-15,20,23H,5-10H2,1-2H3/b12-3-/t11-,14+,15+,18+/m0/s1
Instrument: ABSciex API3200 LC/MS system
Instrument type: LC-ESI-QQQ
Ms type: MS
Ion mode: POSITIVE
Precursor type: [M+H]+
m/z	relative intensity
119.5000	23
119.6000	41
119.7000	34
119.8000	46
119.9000	40
120.0000	42
120.1000	44
120.2000	41
120.3000	37
120.4000	38
137.6000	28
137.7000	42
137.8000	33
137.9000	30
138.0000	32
138.1000	32
138.2000	26
138.3000	24
307.7000	22
307.8000	22
307.9000	29
308.0000	30
308.1000	26
308.2000	27
308.3000	22
323.5000	23
323.6000	28
323.7000	38
323.8000	39
323.9000	39
324.0000	41
324.1000	40
324.2000	35
324.3000	31
324.4000	25
351.3000	63
351.4000	383
351.5000	845
351.6000	948
351.7000	983
351.8000	996
351.9000	996
352.0000	999
352.1000	957
352.2000	955
352.3000	882
352.4000	838
352.5000	626
352.6000	478
352.7000	408
352.8000	405
352.9000	428
353.0000	431
353.1000	452
353.2000	438
353.3000	429
353.4000	410
353.5000	216
353.6000	134
353.7000	130
353.8000	130
353.9000	130
354.0000	117
354.1000	147
354.2000	124
354.3000	106
354.4000	83
354.5000	47
354.6000	22
354.7000	23
392.5000	25
392.6000	33
392.7000	37
392.8000	40
392.9000	42
393.0000	46
393.1000	43
393.2000	40
393.3000	35
393.4000	35
