Mass spectrum: Convolicine; LC-ESI-QQQ; MS; [M+H]+
Name: Convolicine
Class: Alkaloids
Formula: C18H23NO5
Exact mass: 333.3877
SMILES: COc1ccc(C(=O)OC2CC3CCC(C2)N3C(C)=O)cc1OC
InChI: InChI=1S/C18H23NO5/c1-11(20)19-13-5-6-14(19)10-15(9-13)24-18(21)12-4-7-16(22-2)17(8-12)23-3/h4,7-8,13-15H,5-6,9-10H2,1-3H3
Instrument: ABSciex API3200 LC/MS system
Instrument type: LC-ESI-QQQ
Ms type: MS
Ion mode: POSITIVE
Precursor type: [M+H]+
m/z	relative intensity
109.4000	63
109.5000	238
109.6000	365
109.7000	477
109.8000	523
109.9000	470
110.0000	478
110.1000	497
110.2000	466
110.3000	443
110.4000	399
110.5000	278
110.6000	93
110.7000	45
110.8000	43
110.9000	53
111.0000	55
111.1000	53
111.2000	53
111.3000	41
111.4000	38
111.5000	22
138.8000	25
138.9000	28
139.0000	21
151.3000	25
151.4000	283
151.5000	621
151.6000	756
151.7000	829
151.8000	856
151.9000	832
152.0000	868
152.1000	808
152.2000	799
152.3000	717
152.4000	656
152.5000	520
152.6000	204
152.7000	130
152.8000	135
152.9000	136
153.0000	154
153.1000	141
153.2000	129
153.3000	111
153.4000	105
153.5000	73
153.6000	29
182.4000	27
182.5000	43
182.6000	50
182.7000	56
182.8000	56
182.9000	54
183.0000	56
183.1000	46
183.2000	39
183.3000	34
183.4000	32
292.1000	21
292.2000	27
333.3000	174
333.4000	552
333.5000	831
333.6000	928
333.7000	953
333.8000	976
333.9000	999
334.0000	948
334.1000	927
334.2000	899
334.3000	839
334.4000	812
334.5000	501
334.6000	397
334.7000	361
334.8000	333
334.9000	350
335.0000	352
335.1000	341
335.2000	326
335.3000	298
335.4000	292
335.5000	144
335.6000	86
335.7000	75
335.8000	64
335.9000	69
336.0000	63
336.1000	64
336.2000	65
336.3000	52
336.4000	46
374.5000	40
374.6000	65
374.7000	63
374.8000	70
374.9000	78
375.0000	81
375.1000	84
375.2000	76
375.3000	65
375.4000	61
375.5000	30
666.4000	32
666.5000	87
666.6000	146
666.7000	164
666.8000	176
666.9000	177
667.0000	179
667.1000	183
667.2000	165
667.3000	164
667.4000	93
667.5000	64
667.6000	76
667.7000	81
667.8000	85
667.9000	87
668.0000	82
668.1000	82
668.2000	78
668.3000	65
668.4000	40
668.5000	21
668.6000	21
668.8000	22
668.9000	22
669.0000	24
