Mass spectrum: Cortisone; LC-ESI-QQQ; MS; [M+H]+
Name: Cortisone
Class: Steroids
Formula: C21H28O5
Exact mass: 360.4543
SMILES: C[C@]12CC(=O)C3C(CCC4=CC(=O)CC[C@@]43C)C1CC[C@]2(O)C(=O)CO
InChI: InChI=1S/C21H28O5/c1-19-7-5-13(23)9-12(19)3-4-14-15-6-8-21(26,17(25)11-22)20(15,2)10-16(24)18(14)19/h9,14-15,18,22,26H,3-8,10-11H2,1-2H3/t14?,15?,18?,19-,20-,21-/m0/s1
Instrument: ABSciex API3200 LC/MS system
Instrument type: LC-ESI-QQQ
Ms type: MS
Ion mode: POSITIVE
Precursor type: [M+H]+
m/z	relative intensity
100.4000	47
100.5000	57
100.6000	160
100.7000	58
100.8000	61
100.9000	71
101.0000	31
101.1000	27
101.2000	22
137.1000	21
137.2000	23
148.6000	25
162.6000	39
162.7000	51
162.8000	52
162.9000	40
163.0000	49
163.1000	39
163.2000	36
163.3000	26
163.4000	27
342.8000	23
343.0000	23
343.1000	22
343.2000	24
346.4000	21
346.5000	80
346.6000	120
346.7000	155
346.8000	166
346.9000	138
347.0000	121
347.1000	137
347.2000	131
347.3000	131
347.4000	110
347.5000	55
347.6000	40
347.7000	37
347.8000	34
347.9000	28
348.0000	32
348.1000	54
348.2000	28
348.3000	25
360.3000	89
360.4000	510
360.5000	649
360.6000	776
360.7000	841
360.8000	895
360.9000	890
361.0000	910
361.1000	887
361.2000	962
361.3000	999
361.4000	692
361.5000	435
361.6000	347
361.7000	315
361.8000	276
361.9000	303
362.0000	274
362.1000	273
362.2000	258
362.3000	258
362.4000	234
362.5000	130
362.6000	62
362.7000	56
362.8000	52
362.9000	63
363.0000	50
363.1000	54
363.2000	44
363.3000	38
363.4000	43
401.5000	70
401.6000	123
401.7000	145
401.8000	164
401.9000	162
402.0000	153
402.1000	147
402.2000	159
402.3000	143
402.4000	117
402.5000	66
402.6000	36
402.7000	35
402.8000	38
402.9000	47
403.0000	32
403.1000	34
403.2000	30
403.3000	30
706.8000	21
706.9000	26
707.0000	23
707.2000	27
720.5000	58
720.6000	84
720.7000	102
720.8000	126
720.9000	133
721.0000	137
721.1000	131
721.2000	127
721.3000	122
721.4000	93
721.5000	64
721.6000	59
721.7000	55
721.8000	53
721.9000	55
722.0000	65
722.1000	63
722.2000	59
722.3000	43
722.4000	42
722.5000	21
