Mass spectrum: Puberanidine; LC-ESI-QQQ; MS; [M+H]+
Name: Puberanidine
Class: Alkaloids
Formula: C30H42N2O7
Exact mass: 542.67844
SMILES: CCN1C[C@]2(OC(=O)c3ccccc3N)CC[C@H](OC)[C@]34C1[C@H](CC23)[C@@]1(O)C[C@H](OC)[C@H]2CC4[C@]1(O)[C@H]2OC
InChI: InChI=1S/C30H42N2O7/c1-5-32-15-27(39-26(33)16-8-6-7-9-19(16)31)11-10-23(37-3)29-21(27)13-18(24(29)32)28(34)14-20(36-2)17-12-22(29)30(28,35)25(17)38-4/h6-9,17-18,20-25,34-35H,5,10-15,31H2,1-4H3/t17-,18+,20+,21?,22?,23+,24?,25+,27-,28+,29+,30+/m1/s1
Instrument: ABSciex API3200 LC/MS system
Instrument type: LC-ESI-QQQ
Ms type: MS
Ion mode: POSITIVE
Precursor type: [M+H]+
m/z	relative intensity
100.6000	35
100.7000	38
100.8000	31
100.9000	43
101.0000	39
101.1000	35
101.2000	26
119.7000	22
119.8000	22
272.1000	26
355.8000	23
355.9000	22
356.0000	22
356.1000	24
356.2000	27
356.3000	25
356.4000	32
356.5000	21
374.1000	21
374.2000	21
387.7000	21
387.8000	23
387.9000	22
388.0000	30
388.1000	26
388.2000	26
388.3000	33
405.6000	42
405.7000	53
405.8000	73
405.9000	72
406.0000	65
406.1000	66
406.2000	56
406.3000	55
406.4000	49
406.5000	37
406.7000	22
407.0000	21
407.2000	21
524.8000	25
524.9000	23
525.0000	21
525.1000	22
525.3000	22
542.4000	170
542.5000	456
542.6000	727
542.7000	899
542.8000	931
542.9000	935
543.0000	988
543.1000	999
543.2000	969
543.3000	912
543.4000	835
543.5000	544
543.6000	452
543.7000	543
543.8000	573
543.9000	631
544.0000	595
544.1000	599
544.2000	589
544.3000	536
544.4000	490
544.5000	426
544.6000	194
544.7000	165
544.8000	181
544.9000	173
545.0000	177
545.1000	168
545.2000	186
545.3000	173
545.4000	147
545.5000	63
545.6000	32
545.7000	31
545.8000	38
545.9000	53
546.0000	39
546.1000	34
546.2000	28
546.3000	31
546.4000	26
558.6000	61
558.7000	64
558.8000	84
558.9000	89
559.0000	105
559.1000	92
559.2000	86
559.3000	88
559.4000	60
559.5000	31
559.7000	27
559.8000	27
559.9000	41
560.0000	28
560.1000	30
560.2000	33
560.3000	32
