Mass spectrum: Hymecromone, O-(2-Acetamido-2-deoxy-beta-D-glucopyranoside); LC-ESI-QQQ; MS; [M+H]+
Name: Hymecromone, O-(2-Acetamido-2-deoxy-beta-D-glucopyranoside)
Class: Benzopyranoids
Formula: C18H21NO8
Exact mass: 379.37
SMILES: CC(O)=NC1C(O)[C@H](O)C(CO)O[C@H]1Oc1ccc2c(C)cc(=O)oc2c1
InChI: InChI=1S/C18H21NO8/c1-8-5-14(22)26-12-6-10(3-4-11(8)12)25-18-15(19-9(2)21)17(24)16(23)13(7-20)27-18/h3-6,13,15-18,20,23-24H,7H2,1-2H3,(H,19,21)/t13?,15?,16-,17?,18-/m1/s1
Instrument: ABSciex API3200 LC/MS system
Instrument type: LC-ESI-QQQ
Ms type: MS
Ion mode: POSITIVE
Precursor type: [M+H]+
m/z	relative intensity
125.5000	24
125.6000	26
125.7000	21
125.8000	25
125.9000	24
126.1000	24
126.2000	29
137.4000	35
137.5000	122
137.6000	208
137.7000	237
137.8000	217
137.9000	230
138.0000	245
138.1000	309
138.2000	231
138.3000	203
138.4000	144
138.5000	47
138.9000	23
139.0000	23
139.1000	21
143.5000	21
143.6000	35
143.7000	55
143.8000	34
143.9000	50
144.0000	48
144.1000	42
144.2000	45
144.3000	26
144.4000	37
167.4000	70
167.5000	132
167.6000	144
167.7000	155
167.8000	158
167.9000	179
168.0000	151
168.1000	134
168.2000	152
168.3000	124
168.4000	93
168.5000	56
168.6000	24
168.7000	30
176.5000	45
176.6000	104
176.7000	49
176.8000	65
176.9000	70
177.0000	159
177.1000	50
177.2000	31
177.3000	32
177.4000	39
185.4000	65
185.5000	123
185.6000	211
185.7000	207
185.8000	210
185.9000	235
186.0000	238
186.1000	209
186.2000	196
186.3000	172
186.4000	151
186.5000	51
186.6000	38
186.8000	21
187.2000	26
203.4000	250
203.5000	589
203.6000	844
203.7000	967
203.8000	999
203.9000	796
204.0000	779
204.1000	872
204.2000	738
204.3000	758
204.4000	649
204.5000	260
204.6000	118
204.7000	93
204.8000	78
204.9000	93
205.0000	99
205.1000	111
205.2000	87
205.3000	62
205.4000	58
205.5000	23
206.1000	24
379.4000	66
379.5000	223
379.6000	354
379.7000	375
379.8000	404
379.9000	386
380.0000	423
380.1000	409
380.2000	364
380.3000	312
380.4000	193
380.5000	75
380.6000	100
380.7000	75
380.8000	82
380.9000	79
381.0000	81
381.1000	82
381.2000	67
381.3000	69
381.4000	39
381.7000	30
381.9000	24
397.2000	23
582.5000	66
582.6000	115
582.7000	139
582.8000	170
582.9000	175
583.0000	155
583.1000	176
583.2000	104
583.3000	95
583.4000	42
583.5000	21
583.6000	35
583.7000	47
583.8000	38
583.9000	56
584.0000	39
584.1000	47
584.2000	97
584.3000	32
758.3000	48
758.4000	164
758.5000	273
758.6000	327
758.7000	332
758.8000	342
758.9000	336
759.0000	356
759.1000	303
759.2000	264
759.3000	202
759.4000	148
759.5000	146
759.6000	145
759.7000	146
759.8000	172
759.9000	146
760.0000	263
760.1000	382
760.2000	116
760.3000	45
760.4000	27
760.5000	24
760.6000	33
760.7000	29
760.8000	21
760.9000	35
761.0000	38
761.1000	30
761.2000	35
761.3000	24
1137.6000	26
1137.7000	23
1137.8000	21
1138.1000	21
1138.3000	24
