Mass spectrum: Isotalatizidine; LC-ESI-QQQ; MS; [M+H]+
Name: (1S,4S,5S,6S,8S,9S,10S,13S,16S)-11-ethyl-6-methoxy-13-(methoxymethyl)-11-azahexacyclo(7.7.2.1(2,5).0(1,10).0(3,8).0(13,17))nonadecane-4,8,16-triol
Name: Isotalatizidine
Class: Alkaloids
Formula: C23H37NO5
Exact mass: 407.555
SMILES: CCN1C[C@]2(COC)CC[C@H](O)[C@@]34C5C[C@@H]6[C@@H](OC)C[C@@](O)(C5[C@H]6O)[C@@H](CC23)C14
InChI: InChI=1S/C23H37NO5/c1-4-24-10-21(11-28-2)6-5-17(25)23-13-7-12-15(29-3)9-22(27,18(13)19(12)26)14(20(23)24)8-16(21)23/h12-20,25-27H,4-11H2,1-3H3/t12-,13?,14+,15+,16?,17+,18?,19+,20?,21+,22+,23-/m1/s1
Instrument: ABSciex API3200 LC/MS system
Instrument type: LC-ESI-QQQ
Ms type: MS
Ion mode: POSITIVE
Precursor type: [M+H]+
m/z	relative intensity
100.4000	22
100.5000	75
100.6000	120
100.7000	139
100.8000	123
100.9000	127
101.0000	110
101.1000	82
101.2000	58
101.3000	28
118.6000	28
118.7000	27
118.8000	37
118.9000	21
358.1000	25
389.5000	23
389.6000	51
389.7000	84
389.8000	78
389.9000	88
390.0000	87
390.1000	100
390.2000	89
390.3000	89
390.4000	71
390.5000	51
390.6000	33
390.7000	31
390.8000	30
390.9000	24
391.0000	24
407.3000	34
407.4000	284
407.5000	711
407.6000	817
407.7000	865
407.8000	804
407.9000	870
408.0000	856
408.1000	999
408.2000	937
408.3000	848
408.4000	769
408.5000	573
408.6000	417
408.7000	406
408.8000	445
408.9000	436
409.0000	439
409.1000	459
409.2000	474
409.3000	445
409.4000	441
409.5000	336
409.6000	170
409.7000	142
409.8000	137
409.9000	133
410.0000	138
410.1000	128
410.2000	122
410.3000	118
410.4000	95
410.5000	72
410.6000	32
410.7000	21
