Mass spectrum: 8-Acetylharpagide; LC-ESI-QQQ; MS; [M+H]+
Name: 8-Acetylharpagide
Class: Terpenoids
Formula: C17H26O11
Exact mass: 406.39017
SMILES: CC(=O)O[C@@]1(C)CC(O)C2(O)C=COC(O[C@@H]3O[C@H](CO)[C@@H](O)[C@H](O)[C@H]3O)C21
InChI: InChI=1S/C17H26O11/c1-7(19)28-16(2)5-9(20)17(24)3-4-25-15(13(16)17)27-14-12(23)11(22)10(21)8(6-18)26-14/h3-4,8-15,18,20-24H,5-6H2,1-2H3/t8-,9?,10-,11+,12-,13?,14+,15?,16+,17?/m1/s1
Instrument: ABSciex API3200 LC/MS system
Instrument type: LC-ESI-QQQ
Ms type: MS
Ion mode: POSITIVE
Precursor type: [M+H]+
m/z	relative intensity
101.3000	61
101.4000	148
101.5000	46
106.9000	28
107.0000	23
114.0000	32
114.2000	26
120.4000	41
120.5000	113
120.6000	159
120.7000	167
120.8000	212
120.9000	203
121.0000	188
121.1000	211
121.2000	183
121.3000	180
121.4000	158
121.5000	49
121.7000	26
121.9000	21
122.0000	27
122.1000	24
138.7000	24
138.8000	29
138.9000	30
139.1000	21
139.4000	22
142.2000	31
142.3000	35
142.4000	34
142.5000	35
148.4000	47
148.5000	214
148.6000	303
148.7000	332
148.8000	351
148.9000	340
149.0000	328
149.1000	297
149.2000	277
149.3000	234
149.4000	239
149.5000	67
149.6000	42
149.7000	35
149.8000	51
149.9000	37
150.0000	32
150.1000	30
150.2000	35
150.3000	25
154.7000	23
166.4000	334
166.5000	669
166.6000	872
166.7000	999
166.8000	932
166.9000	954
167.0000	873
167.1000	827
167.2000	732
167.3000	630
167.4000	605
167.5000	238
167.6000	114
167.7000	92
167.8000	105
167.9000	100
168.0000	99
168.1000	92
168.2000	107
168.3000	69
168.4000	62
208.5000	24
208.7000	23
208.8000	36
208.9000	23
209.0000	26
209.1000	43
209.2000	24
220.7000	34
221.7000	22
224.8000	40
310.7000	24
328.4000	117
328.5000	267
328.6000	404
328.7000	562
328.8000	554
328.9000	499
329.0000	495
329.1000	478
329.2000	489
329.3000	419
329.4000	309
329.5000	131
329.6000	124
329.7000	104
329.8000	81
329.9000	93
330.0000	74
330.1000	92
330.2000	71
330.3000	77
330.4000	53
330.5000	22
330.6000	25
330.8000	21
406.5000	43
406.6000	56
406.7000	60
406.8000	49
406.9000	42
407.0000	56
407.1000	54
407.2000	56
407.3000	47
407.4000	31
423.4000	44
423.5000	109
423.6000	188
423.7000	223
423.8000	194
423.9000	241
424.0000	216
424.1000	219
424.2000	213
424.3000	189
424.4000	122
424.5000	63
424.6000	68
424.7000	55
424.8000	55
424.9000	51
425.0000	46
425.1000	53
425.2000	37
425.3000	38
425.4000	33
425.5000	21
451.7000	24
451.8000	26
451.9000	33
452.0000	22
452.2000	22
452.3000	24
490.9000	22
536.5000	41
536.6000	62
536.7000	63
536.8000	73
536.9000	60
537.0000	80
537.1000	67
537.2000	60
537.3000	57
537.4000	23
537.6000	31
554.5000	23
554.6000	46
554.7000	55
554.8000	48
554.9000	52
555.0000	59
555.1000	66
555.2000	47
555.3000	31
556.3000	22
614.7000	41
614.8000	48
614.9000	27
615.0000	30
615.1000	29
615.2000	30
615.3000	22
794.7000	24
794.8000	29
795.0000	21
795.1000	21
812.3000	38
812.4000	126
812.5000	276
812.6000	370
812.7000	400
812.8000	476
812.9000	474
813.0000	494
813.1000	494
813.2000	429
813.3000	322
813.4000	221
813.5000	252
813.6000	158
813.7000	156
813.8000	186
813.9000	158
814.0000	179
814.1000	161
814.2000	158
814.3000	105
814.4000	82
814.5000	48
814.6000	40
814.7000	59
814.8000	54
814.9000	65
815.0000	52
815.1000	46
815.2000	47
815.3000	34
829.4000	56
829.5000	116
829.6000	211
829.7000	213
829.8000	198
829.9000	211
830.0000	229
830.1000	247
830.2000	182
830.3000	167
830.4000	107
830.5000	72
830.6000	88
830.7000	94
830.8000	84
830.9000	106
831.0000	89
831.1000	110
831.2000	73
831.3000	59
831.4000	42
831.5000	27
831.6000	33
831.7000	22
831.8000	21
831.9000	23
832.0000	28
832.1000	27
832.2000	32
832.3000	25
1218.3000	23
1218.4000	50
1218.5000	39
1218.6000	57
1218.7000	60
1218.8000	60
1218.9000	70
1219.0000	64
1219.1000	55
1219.2000	65
1219.3000	66
1219.4000	48
1219.5000	54
1219.6000	42
1219.7000	39
1219.8000	47
1219.9000	50
1220.0000	49
1220.1000	64
1220.2000	54
1220.3000	43
1220.4000	27
1220.5000	21
1221.1000	31
