Mass spectrum: Carminomycin I; LC-ESI-QQQ; MS; [M+H]+
Name: Carminomycin I
Class: Polycyclic aromatic natural products
Formula: C26H27NO10
Exact mass: 513.5058
SMILES: CC(=O)[C@]1(O)Cc2c(O)c3c(c(O)c2[C@@H](O[C@H]2C[C@H](N)[C@H](O)[C@H](C)O2)C1)C(=O)c1c(O)cccc1C3=O
InChI: InChI=1S/C26H27NO10/c1-9-21(30)13(27)6-16(36-9)37-15-8-26(35,10(2)28)7-12-18(15)25(34)20-19(23(12)32)22(31)11-4-3-5-14(29)17(11)24(20)33/h3-5,9,13,15-16,21,29-30,32,34-35H,6-8,27H2,1-2H3/t9-,13-,15-,16-,21+,26-/m0/s1
Instrument: ABSciex API3200 LC/MS system
Instrument type: LC-ESI-QQQ
Ms type: MS
Ion mode: POSITIVE
Precursor type: [M+H]+
m/z	relative intensity
100.4000	26
100.5000	53
100.6000	54
100.7000	47
100.8000	24
112.5000	46
112.6000	68
112.7000	74
112.8000	72
112.9000	72
113.0000	82
113.1000	90
113.2000	91
113.3000	86
113.4000	62
113.5000	33
129.4000	75
129.5000	523
129.6000	699
129.7000	832
129.8000	877
129.9000	999
130.0000	839
130.1000	803
130.2000	747
130.3000	712
130.4000	604
130.5000	404
130.6000	136
130.7000	81
130.8000	81
130.9000	80
131.0000	84
131.1000	97
131.2000	85
131.3000	76
131.4000	60
131.5000	41
306.3000	26
306.4000	75
306.5000	154
306.6000	194
306.7000	197
306.8000	207
306.9000	217
307.0000	209
307.1000	235
307.2000	222
307.3000	159
307.4000	70
307.5000	48
307.6000	55
307.7000	44
307.8000	52
307.9000	52
308.0000	38
308.1000	45
308.2000	37
308.3000	30
348.3000	37
348.4000	111
348.5000	154
348.6000	219
348.7000	150
348.8000	139
348.9000	154
349.0000	156
349.1000	165
349.2000	126
349.3000	110
349.4000	57
349.5000	41
349.6000	41
349.7000	37
349.8000	36
349.9000	28
350.0000	32
350.1000	29
350.2000	28
350.3000	29
366.4000	23
366.5000	63
366.6000	56
366.7000	55
366.8000	62
366.9000	64
367.0000	54
367.1000	57
367.2000	51
367.3000	41
368.1000	21
513.2000	39
513.3000	157
513.4000	452
513.5000	762
513.6000	895
513.7000	906
513.8000	955
513.9000	937
514.0000	813
514.1000	781
514.2000	725
514.3000	650
514.4000	382
514.5000	306
514.6000	355
514.7000	377
514.8000	362
514.9000	368
515.0000	361
515.1000	355
515.2000	344
515.3000	263
515.4000	126
515.5000	113
515.6000	102
515.7000	104
515.8000	92
515.9000	96
516.0000	97
516.1000	93
516.2000	79
516.3000	51
516.6000	30
554.4000	21
554.5000	53
554.6000	90
554.7000	112
554.8000	120
554.9000	113
555.0000	110
555.1000	110
555.2000	90
555.3000	76
555.4000	25
555.5000	28
555.6000	36
555.7000	38
555.8000	53
555.9000	40
556.0000	42
556.1000	38
556.2000	30
556.3000	24
1026.2000	37
1026.3000	60
1026.4000	79
1026.5000	89
1026.6000	101
1026.7000	103
1026.8000	104
1026.9000	116
1027.0000	108
1027.1000	93
1027.2000	97
1027.3000	73
1027.4000	58
1027.5000	61
1027.6000	64
1027.7000	72
1027.8000	69
1027.9000	69
1028.0000	65
1028.1000	53
1028.2000	53
1028.3000	37
1028.4000	27
1028.5000	26
1028.6000	27
1028.7000	30
1028.8000	24
1028.9000	23
1029.0000	26
1029.1000	27
