Mass spectrum: Cuscutamine; LC-ESI-QQQ; MS; [M+H]+
Name: Cuscutamine
Class: Alkaloids
Formula: C15H14N2O3
Exact mass: 270.2904
SMILES: O=C(O)[C@@H]1Cc2c([nH]c3ccccc23)C2CCC(=O)N21
InChI: InChI=1S/C15H14N2O3/c18-13-6-5-11-14-9(7-12(15(19)20)17(11)13)8-3-1-2-4-10(8)16-14/h1-4,11-12,16H,5-7H2,(H,19,20)/t11?,12-/m0/s1
Instrument: ABSciex API3200 LC/MS system
Instrument type: LC-ESI-QQQ
Ms type: MS
Ion mode: POSITIVE
Precursor type: [M+H]+
m/z	relative intensity
100.5000	55
187.6000	23
222.5000	36
222.6000	52
222.7000	53
222.8000	50
222.9000	53
223.0000	56
223.1000	54
223.2000	35
223.3000	42
223.4000	46
224.3000	31
224.4000	248
224.5000	550
224.6000	609
224.7000	655
224.8000	693
224.9000	736
225.0000	703
225.1000	645
225.2000	669
225.3000	562
225.4000	582
225.5000	333
225.6000	176
225.7000	165
225.8000	166
225.9000	181
226.0000	223
226.1000	139
226.2000	139
226.3000	145
226.4000	236
226.5000	56
226.7000	22
240.6000	24
240.7000	31
241.6000	21
252.7000	35
252.8000	36
253.1000	32
268.5000	41
268.6000	28
268.7000	24
268.8000	27
268.9000	31
269.0000	41
269.1000	38
269.3000	22
269.4000	31
270.2000	32
270.3000	47
270.4000	436
270.5000	732
270.6000	856
270.7000	983
270.8000	934
270.9000	951
271.0000	999
271.1000	970
271.2000	952
271.3000	825
271.4000	652
271.5000	346
271.6000	318
271.7000	287
271.8000	243
271.9000	253
272.0000	239
272.1000	294
272.2000	738
272.3000	111
272.4000	50
272.5000	42
272.6000	36
272.7000	32
272.9000	25
273.0000	28
273.2000	29
303.1000	33
311.5000	33
311.6000	45
311.7000	41
311.8000	43
311.9000	61
312.0000	45
312.1000	46
312.2000	268
312.3000	201
540.3000	35
540.4000	72
540.5000	166
540.6000	277
540.7000	233
540.8000	228
540.9000	206
541.0000	221
541.1000	229
541.2000	202
541.3000	202
541.4000	82
541.5000	84
541.6000	101
541.7000	82
541.8000	86
541.9000	76
542.0000	91
542.1000	93
542.2000	77
542.3000	58
542.4000	26
542.5000	23
542.6000	22
542.8000	35
542.9000	208
543.0000	121
