Mass spectrum: 10-hydroxycamptothecin; LC-ESI-QQQ; MS; [M+H]+
Name: 10-hydroxycamptothecin
Class: Alkaloids
Formula: C20H16N2O5
Exact mass: 364.3609
SMILES: CCC1(O)C(=O)OCc2c1cc1n(c2=O)Cc2cc3cc(O)ccc3nc2-1
InChI: InChI=1S/C20H16N2O5/c1-2-20(26)14-7-16-17-11(5-10-6-12(23)3-4-15(10)21-17)8-22(16)18(24)13(14)9-27-19(20)25/h3-7,23,26H,2,8-9H2,1H3
Instrument: ABSciex API3200 LC/MS system
Instrument type: LC-ESI-QQQ
Ms type: MS
Ion mode: POSITIVE
Precursor type: [M+H]+
m/z	relative intensity
119.4000	27
119.5000	27
320.3000	40
320.4000	61
320.5000	174
320.6000	136
320.7000	80
320.8000	88
320.9000	82
321.0000	87
321.1000	95
321.2000	76
321.3000	63
321.4000	54
321.5000	29
321.6000	25
321.7000	23
322.1000	47
322.2000	26
364.3000	167
364.4000	432
364.5000	718
364.6000	827
364.7000	859
364.8000	892
364.9000	924
365.0000	999
365.1000	829
365.2000	758
365.3000	673
365.4000	442
365.5000	302
365.6000	277
365.7000	256
365.8000	431
365.9000	635
366.0000	266
366.1000	213
366.2000	186
366.3000	167
366.4000	102
366.5000	60
366.6000	55
366.7000	39
366.8000	39
366.9000	36
367.0000	35
367.1000	37
367.2000	34
367.3000	26
405.6000	22
405.7000	21
405.9000	27
406.0000	24
728.3000	41
728.4000	66
728.5000	96
728.6000	106
728.7000	111
728.8000	115
728.9000	125
729.0000	118
729.1000	115
729.2000	87
729.3000	52
729.4000	50
729.5000	49
729.6000	50
729.7000	58
729.8000	61
729.9000	53
730.0000	50
730.1000	48
730.2000	37
1092.9000	33
1093.0000	24
