Mass spectrum: Quinine; LC-ESI-QQQ; MS; [M+H]+
Name: Quinine
Class: Alkaloids
Formula: C20H24N2O2
Exact mass: 324.4265
SMILES: C=CC1CN2CCC1CC2[C@H](O)c1ccnc2ccc(OC)cc12
InChI: InChI=1S/C20H24N2O2/c1-3-13-12-22-9-7-14(13)10-19(22)20(23)16-6-8-21-18-5-4-15(24-2)11-17(16)18/h3-6,8,11,13-14,19-20,23H,1,7,9-10,12H2,2H3/t13?,14?,19?,20-/m1/s1
Instrument: ABSciex API3200 LC/MS system
Instrument type: LC-ESI-QQQ
Ms type: MS
Ion mode: POSITIVE
Precursor type: [M+H]+
m/z	relative intensity
100.7000	22
100.8000	44
100.9000	43
101.0000	42
101.1000	36
101.2000	32
107.6000	36
107.7000	44
107.8000	50
107.9000	59
108.0000	55
108.1000	51
108.2000	45
108.3000	38
108.4000	35
108.5000	33
108.7000	27
108.8000	33
108.9000	29
109.0000	32
109.1000	34
109.2000	34
109.3000	27
109.4000	26
114.6000	29
114.7000	40
114.8000	32
114.9000	35
115.0000	40
115.1000	41
115.2000	42
115.3000	30
115.4000	38
115.5000	46
115.6000	46
115.7000	55
115.8000	57
115.9000	58
116.0000	66
116.1000	66
116.2000	60
116.3000	55
116.4000	49
116.5000	32
116.6000	24
116.7000	23
116.8000	21
121.7000	25
121.8000	28
121.9000	30
122.0000	27
122.1000	28
122.2000	27
135.6000	27
135.7000	33
135.8000	37
135.9000	37
136.0000	42
136.1000	38
136.2000	39
136.3000	33
136.4000	24
136.5000	22
144.9000	21
145.4000	22
145.6000	21
145.7000	31
145.8000	31
145.9000	27
146.0000	28
146.1000	26
146.2000	25
146.3000	22
157.5000	22
157.6000	38
157.7000	42
157.8000	43
157.9000	42
158.0000	42
158.1000	40
158.2000	39
158.3000	31
158.4000	28
158.5000	26
158.6000	38
158.7000	42
158.8000	43
158.9000	45
159.0000	44
159.1000	38
159.2000	45
159.3000	36
159.4000	72
159.5000	122
159.6000	161
159.7000	191
159.8000	192
159.9000	211
160.0000	199
160.1000	219
160.2000	180
160.3000	149
160.4000	130
160.5000	64
160.6000	31
160.7000	24
160.8000	26
160.9000	24
161.0000	28
161.1000	26
161.2000	23
162.4000	106
162.5000	495
162.6000	774
162.7000	889
162.8000	999
162.9000	957
163.0000	968
163.1000	989
163.2000	921
163.3000	885
163.4000	885
163.5000	558
163.6000	347
163.7000	292
163.8000	237
163.9000	209
164.0000	122
164.1000	41
164.2000	31
164.3000	29
164.4000	30
173.4000	53
173.5000	92
173.6000	118
173.7000	116
173.8000	116
173.9000	118
174.0000	117
174.1000	106
174.2000	98
174.3000	89
174.4000	75
174.5000	27
183.0000	24
183.1000	35
183.2000	40
183.3000	41
183.4000	44
183.5000	59
183.6000	62
183.7000	61
183.8000	63
183.9000	64
184.0000	51
184.1000	35
184.2000	31
184.3000	26
184.4000	23
187.4000	45
187.5000	95
187.6000	142
187.7000	166
187.8000	149
187.9000	143
188.0000	128
188.1000	126
188.2000	121
188.3000	115
188.4000	177
188.5000	267
188.6000	328
188.7000	360
188.8000	380
188.9000	374
189.0000	386
189.1000	335
189.2000	306
189.3000	276
189.4000	276
189.5000	154
189.6000	94
189.7000	80
189.8000	93
189.9000	91
190.0000	83
190.1000	83
190.2000	72
190.3000	66
190.4000	64
190.5000	23
216.4000	41
216.5000	86
216.6000	115
216.7000	135
216.8000	142
216.9000	145
217.0000	153
217.1000	136
217.2000	122
217.3000	111
217.4000	113
217.5000	43
217.6000	23
217.7000	21
217.9000	21
218.0000	25
218.1000	22
306.9000	22
307.0000	24
307.2000	22
324.4000	76
324.5000	263
324.6000	450
324.7000	564
324.8000	557
324.9000	557
325.0000	572
325.1000	546
325.2000	541
325.3000	489
325.4000	448
325.5000	299
325.6000	203
325.7000	206
325.8000	201
325.9000	198
326.0000	199
326.1000	233
326.2000	183
326.3000	168
326.4000	160
326.5000	95
326.6000	46
326.7000	38
326.8000	31
326.9000	24
327.0000	25
327.1000	27
327.2000	25
327.3000	24
