Mass spectrum: Songorine; LC-ESI-QQQ; MS; [M+H]+
Name: Songorine
Class: Alkaloids
Formula: C22H31NO3
Exact mass: 357.4973
SMILES: C=C1[C@@H]2C[C@]3(C(CC2=O)[C@@]24C(O)CC[C@@]5(C)CN(CC)C2[C@@H]3CC54)[C@@H]1O
InChI: InChI=1S/C22H31NO3/c1-4-23-10-20(3)6-5-17(25)22-15(20)7-13(18(22)23)21-9-12(11(2)19(21)26)14(24)8-16(21)22/h12-13,15-19,25-26H,2,4-10H2,1,3H3/t12-,13-,15?,16?,17?,18?,19+,20-,21-,22-/m0/s1
Instrument: ABSciex API3200 LC/MS system
Instrument type: LC-ESI-QQQ
Ms type: MS
Ion mode: POSITIVE
Precursor type: [M+H]+
m/z	relative intensity
101.1000	22
221.2000	23
339.5000	79
339.6000	170
339.7000	238
339.8000	278
339.9000	332
340.0000	287
340.1000	293
340.2000	263
340.3000	242
340.4000	229
340.5000	182
340.6000	102
340.7000	93
340.8000	198
340.9000	137
341.0000	55
341.1000	55
341.2000	51
341.3000	55
341.4000	47
341.5000	43
357.4000	64
357.5000	352
357.6000	735
357.7000	918
357.8000	995
357.9000	967
358.0000	999
358.1000	977
358.2000	988
358.3000	939
358.4000	818
358.5000	718
358.6000	398
358.7000	410
358.8000	433
358.9000	445
359.0000	459
359.1000	452
359.2000	454
359.3000	457
359.4000	411
359.5000	330
359.6000	141
359.7000	109
359.8000	110
359.9000	154
360.0000	102
360.1000	85
360.2000	92
360.3000	84
360.4000	72
360.5000	68
360.6000	25
