Mass spectrum: 3-Hydroxy-12-ursen-28-oic acid; LC-ESI-QQQ; MS; [M+H]+
Name: 3-Hydroxy-12-ursen-28-oic acid
Class: Terpenoids
Formula: C30H48O3
Exact mass: 456.7153
SMILES: C[C@@H]1C2C3=CC[C@@H]4[C@@]5(C)CCC(O)C(C)(C)[C@@H]5CC[C@@]4(C)[C@]3(C)CCC2(C(=O)O)CC[C@H]1C
InChI: InChI=1S/C30H48O3/c1-18-10-15-30(25(32)33)17-16-28(6)20(24(30)19(18)2)8-9-22-27(5)13-12-23(31)26(3,4)21(27)11-14-29(22,28)7/h8,18-19,21-24,31H,9-17H2,1-7H3,(H,32,33)/t18-,19+,21+,22-,23?,24?,27+,28-,29-,30?/m1/s1
Instrument: ABSciex API3200 LC/MS system
Instrument type: LC-ESI-QQQ
Ms type: MS
Ion mode: POSITIVE
Precursor type: [M+H]+
m/z	relative intensity
134.7000	27
135.5000	23
150.1000	23
162.8000	39
162.9000	46
163.2000	29
163.3000	26
163.4000	26
188.8000	27
190.5000	55
190.6000	121
190.7000	156
190.8000	157
190.9000	160
191.0000	142
191.1000	143
191.2000	120
191.3000	185
191.4000	87
191.5000	87
191.6000	30
191.7000	35
192.0000	33
192.4000	23
192.6000	23
197.5000	87
202.6000	26
202.7000	37
202.8000	43
202.9000	59
203.0000	71
203.1000	51
203.2000	79
203.3000	73
203.4000	53
203.5000	39
205.0000	37
205.2000	29
205.4000	24
220.5000	23
220.7000	61
221.0000	32
221.1000	32
221.2000	38
221.3000	24
222.1000	36
231.1000	23
235.1000	24
248.7000	55
248.8000	75
248.9000	45
249.0000	51
249.1000	70
249.2000	39
249.3000	33
249.4000	35
393.1000	29
393.4000	22
393.5000	26
410.5000	24
410.6000	81
410.7000	99
410.8000	377
410.9000	497
411.0000	314
411.1000	192
411.2000	190
411.3000	199
411.4000	163
411.5000	133
411.6000	106
411.7000	89
411.8000	69
411.9000	35
412.0000	62
412.1000	77
412.2000	82
412.3000	40
412.4000	60
412.5000	42
413.4000	21
427.3000	24
427.4000	38
438.5000	33
438.6000	195
438.7000	231
438.8000	271
438.9000	614
439.0000	999
439.1000	327
439.2000	291
439.3000	266
439.4000	281
439.5000	260
439.6000	135
439.7000	109
439.8000	133
439.9000	121
440.0000	85
440.1000	90
440.2000	93
440.3000	93
440.4000	73
440.5000	89
440.6000	166
440.7000	61
440.8000	47
440.9000	24
441.0000	45
441.1000	41
441.2000	60
441.3000	48
441.4000	40
441.5000	38
441.6000	37
442.9000	23
456.5000	33
456.6000	88
456.7000	241
456.8000	239
456.9000	202
457.0000	247
457.1000	259
457.2000	266
457.3000	248
457.4000	216
457.5000	154
457.6000	180
457.7000	72
457.8000	128
457.9000	116
458.0000	97
458.1000	80
458.2000	90
458.3000	46
458.4000	113
458.5000	67
458.6000	51
458.7000	44
458.9000	22
459.0000	22
459.1000	21
459.3000	31
459.4000	26
459.5000	29
473.0000	24
497.7000	45
497.8000	73
497.9000	72
498.0000	68
498.1000	98
498.2000	75
498.3000	56
498.4000	81
498.5000	57
498.6000	27
498.7000	31
498.8000	24
498.9000	25
499.1000	25
499.2000	32
499.3000	36
499.4000	25
