Mass spectrum: Retrorsine; LC-ESI-QQQ; MS2; Frag=135.0V CID@10.0; [M+H]+
Name: Retrorsine
Class: Alkaloids
Formula: C18H25NO6
Exact mass: 351.4031
SMILES: C/C=C1/C[C@H](C)[C@](O)(CO)C(=O)OCC2=CCN3CC[C@@H](OC1=O)[C@@H]23
InChI: InChI=1S/C18H25NO6/c1-3-12-8-11(2)18(23,10-20)17(22)24-9-13-4-6-19-7-5-14(15(13)19)25-16(12)21/h3-4,11,14-15,20,23H,5-10H2,1-2H3/b12-3-/t11-,14+,15+,18+/m0/s1
Instrument: Agilent 6410 Triple Quadrupole LC/MS system
Instrument type: LC-ESI-QQQ
Ms type: MS2
Ion mode: POSITIVE
Precursor type: [M+H]+
m/z	relative intensity
351.3	0
351.4	2
351.5	4
351.6	8
351.7	16
351.8	29
351.9	48
352.0	70
352.1	89
352.2	99
352.3	97
352.4	80
352.5	53
352.6	25
352.7	4
