Mass spectrum: Austricin; LC-ESI-QQQ; MS2; Frag=135.0V CID@15.0; [M+H]+
Name: Austricin
Class: Terpenoids
Formula: C15H18O4
Exact mass: 262.3083
SMILES: CC1=CC(=O)C2=C(C)C[C@H](O)C3[C@H](C)C(=O)O[C@@H]3C12
InChI: InChI=1S/C15H18O4/c1-6-4-10(17)13-8(3)15(18)19-14(13)12-7(2)5-9(16)11(6)12/h5,8,10,12-14,17H,4H2,1-3H3/t8-,10-,12?,13?,14+/m0/s1
Instrument: Agilent 6410 Triple Quadrupole LC/MS system
Instrument type: LC-ESI-QQQ
Ms type: MS2
Ion mode: POSITIVE
Precursor type: [M+H]+
m/z	relative intensity
68.3	1
68.4	2
68.5	5
68.6	9
68.7	16
68.8	23
68.9	30
69.0	33
69.1	33
69.2	29
69.3	22
69.4	12
69.5	4
94.7	1
94.8	4
94.9	6
95.0	7
95.1	7
95.2	5
95.3	3
108.7	2
108.8	3
108.9	5
109.0	6
109.1	6
109.2	5
109.3	3
118.6	1
118.7	3
118.8	4
118.9	5
119.0	6
119.1	6
119.2	5
119.3	5
119.4	3
120.6	1
120.7	3
120.8	4
120.9	6
121.0	6
121.1	6
121.2	5
121.3	4
121.4	2
122.7	3
122.8	4
122.9	6
123.0	8
123.1	9
123.2	7
123.3	5
123.4	2
132.6	1
132.7	3
132.8	5
132.9	6
133.0	8
133.1	9
133.2	10
133.3	9
133.4	7
133.5	3
136.6	3
136.7	4
136.8	6
136.9	9
137.0	11
137.1	12
137.2	12
137.3	10
137.4	7
137.5	3
142.6	1
142.7	2
142.8	4
142.9	6
143.0	7
143.1	7
143.2	7
143.3	5
143.4	3
146.4	2
146.5	4
146.6	6
146.7	11
146.8	19
146.9	27
147.0	31
147.1	31
147.2	29
147.3	25
147.4	18
147.5	9
147.6	1
148.8	3
148.9	5
149.0	7
149.1	7
149.2	6
149.3	3
160.5	3
160.6	4
160.7	6
160.8	12
160.9	20
161.0	27
161.1	30
161.2	28
161.3	23
161.4	16
161.5	9
161.6	3
164.6	1
164.7	2
164.8	5
164.9	7
165.0	9
165.1	9
165.2	8
165.3	7
165.4	5
165.5	2
170.2	2
170.3	3
170.4	6
170.5	11
170.6	19
170.7	33
170.8	52
170.9	71
171.0	86
171.1	93
171.2	91
171.3	80
171.4	61
171.5	38
171.8	22
171.9	33
172.0	41
172.1	43
172.2	41
172.3	38
172.4	31
172.5	20
172.6	9
172.9	3
173.0	5
173.1	6
173.2	7
173.3	6
173.4	4
174.5	1
174.6	2
174.7	4
174.8	8
174.9	11
175.0	14
175.1	15
175.2	15
175.3	12
175.4	7
175.5	3
183.6	3
183.7	5
183.8	7
183.9	8
184.0	9
184.1	10
184.2	9
184.3	8
184.4	6
184.5	2
188.3	2
188.4	4
188.5	5
188.6	8
188.7	11
188.8	18
188.9	29
189.0	40
189.1	47
189.2	48
189.3	44
189.4	34
189.5	21
189.6	7
189.7	0
198.3	1
198.4	2
198.5	4
198.6	7
198.7	13
198.8	26
198.9	43
199.0	58
199.1	64
199.2	61
199.3	53
199.4	42
199.5	27
199.6	12
199.7	1
216.4	2
216.5	3
216.6	5
216.7	8
216.8	14
216.9	21
217.0	27
217.1	31
217.2	32
217.3	31
217.4	24
217.5	13
217.6	3
226.8	2
226.9	3
227.0	5
227.1	5
227.2	5
227.3	3
234.8	2
234.9	4
235.0	6
235.1	8
235.2	8
235.3	7
235.4	4
235.5	1
244.6	1
244.7	3
244.8	4
244.9	5
245.0	5
245.1	5
245.2	5
245.3	3
245.4	2
262.2	1
262.3	2
262.4	5
262.5	9
262.6	14
262.7	23
262.8	40
262.9	64
263.0	87
263.1	99
263.2	99
263.3	86
263.4	63
263.5	34
263.6	11
263.7	1
