Mass spectrum: Samarcandin; LC-ESI-QQQ; MS2; Frag=135.0V CID@15.0; [M+H]+
Name: Samarcandin
Class: Benzopyranoids
Formula: C24H32O5
Exact mass: 400.5196
SMILES: CC1(C)[C@@H](O)CC[C@]2(C)[C@@H]1CC[C@](C)(O)[C@H]2COc1ccc2ccc(=O)oc2c1
InChI: InChI=1S/C24H32O5/c1-22(2)18-9-12-24(4,27)19(23(18,3)11-10-20(22)25)14-28-16-7-5-15-6-8-21(26)29-17(15)13-16/h5-8,13,18-20,25,27H,9-12,14H2,1-4H3/t18-,19+,20+,23-,24+/m1/s1
Instrument: Agilent 6410 Triple Quadrupole LC/MS system
Instrument type: LC-ESI-QQQ
Ms type: MS2
Ion mode: POSITIVE
Precursor type: [M+H]+
m/z	relative intensity
94.5	1
94.6	2
94.7	5
94.8	9
94.9	13
95.0	16
95.1	16
95.2	15
95.3	11
95.4	6
95.5	2
108.5	2
108.6	3
108.7	5
108.8	10
108.9	16
109.0	20
109.1	22
109.2	20
109.3	17
109.4	12
109.5	5
109.6	1
118.6	1
118.7	3
118.8	5
118.9	8
119.0	10
119.1	10
119.2	9
119.3	7
119.4	5
119.5	2
120.7	1
120.8	3
120.9	4
121.0	6
121.1	6
121.2	5
121.3	4
121.4	3
132.6	3
132.7	5
132.8	8
132.9	11
133.0	15
133.1	16
133.2	16
133.3	14
133.4	10
133.5	5
133.6	1
134.7	2
134.8	4
134.9	6
135.0	7
135.1	8
135.2	7
135.3	6
135.4	4
135.5	2
146.5	2
146.6	3
146.7	6
146.8	9
146.9	13
147.0	16
147.1	18
147.2	18
147.3	17
147.4	13
147.5	7
147.6	2
160.6	1
160.7	3
160.8	5
160.9	7
161.0	9
161.1	10
161.2	11
161.3	11
161.4	8
161.5	5
161.6	2
162.2	2
162.3	4
162.4	7
162.5	10
162.6	17
162.7	31
162.8	50
162.9	69
163.0	80
163.1	81
163.2	76
163.3	64
163.4	46
163.5	25
163.6	7
163.7	0
174.8	3
174.9	5
175.0	5
175.1	7
175.2	7
175.3	7
175.4	5
175.5	2
202.4	2
202.5	4
202.6	7
202.7	14
202.8	27
202.9	49
203.0	73
203.1	92
203.2	99
203.3	94
203.4	79
203.5	55
203.6	29
203.7	7
203.8	0
214.8	2
214.9	4
215.0	5
215.1	6
215.2	4
215.3	2
364.7	4
364.8	6
364.9	10
365.0	15
365.1	19
365.2	21
365.3	20
365.4	16
365.5	10
365.6	4
400.7	2
400.8	3
400.9	6
401.0	10
401.1	13
401.2	15
401.3	15
401.4	12
401.5	8
401.6	3
