Mass spectrum: Lincomycin; LC-ESI-QQQ; MS; [M+H]+
Name: Lincomycin
Class: Carbohydrates
Formula: C18H34N2O6S
Exact mass: 406.5455
SMILES: CCC[C@@H]1C[C@@H](C(O)=NC(C(C)O)[C@H]2O[C@H](SC)[C@H](O)[C@@H](O)[C@H]2O)N(C)C1
InChI: InChI=1S/C18H34N2O6S/c1-5-6-10-7-11(20(3)8-10)17(25)19-12(9(2)21)16-14(23)13(22)15(24)18(26-16)27-4/h9-16,18,21-24H,5-8H2,1-4H3,(H,19,25)/t9?,10-,11+,12?,13+,14-,15-,16-,18-/m1/s1
Instrument: ABSciex API3200 LC/MS system
Instrument type: LC-ESI-QQQ
Ms type: MS
Ion mode: POSITIVE
Precursor type: [M+H]+
m/z	relative intensity
100.4000	51
100.5000	86
100.6000	87
100.7000	83
100.8000	76
125.5000	134
125.6000	282
125.7000	354
125.8000	367
125.9000	382
126.0000	399
126.1000	394
126.2000	397
126.3000	329
126.4000	264
126.5000	215
126.6000	82
126.7000	31
126.8000	31
126.9000	32
127.0000	26
127.1000	29
127.2000	25
127.3000	22
127.4000	22
220.9000	28
221.9000	28
238.7000	29
358.5000	32
358.6000	48
358.7000	56
358.8000	64
358.9000	57
359.0000	78
359.1000	108
359.2000	148
359.3000	51
359.4000	29
359.5000	30
359.6000	50
393.3000	37
406.3000	31
406.4000	133
406.5000	515
406.6000	695
406.7000	745
406.8000	901
406.9000	882
407.0000	910
407.1000	944
407.2000	999
407.3000	945
407.4000	699
407.5000	382
407.6000	253
407.7000	241
407.8000	222
407.9000	208
408.0000	213
408.1000	224
408.2000	240
408.3000	207
408.4000	203
408.5000	111
408.6000	81
408.7000	101
408.8000	95
408.9000	98
409.0000	98
409.1000	108
409.2000	92
409.3000	80
409.4000	75
409.5000	32
409.6000	23
409.7000	30
409.9000	21
410.3000	21
