Mass spectrum: Polyanthinin; LC-ESI-QQQ; MS; [M+H]+
Name: Polyanthinin
Class: Benzopyranoids
Formula: C26H32O5
Exact mass: 424.5419
SMILES: C=C1CC[C@@H]2C(C)(C)[C@@H](OC(C)=O)CC[C@@]2(C)[C@H]1COc1ccc2ccc(=O)oc2c1
InChI: InChI=1S/C26H32O5/c1-16-6-10-22-25(3,4)23(30-17(2)27)12-13-26(22,5)20(16)15-29-19-9-7-18-8-11-24(28)31-21(18)14-19/h7-9,11,14,20,22-23H,1,6,10,12-13,15H2,2-5H3/t20-,22+,23-,26-/m0/s1
Instrument: ABSciex API3200 LC/MS system
Instrument type: LC-ESI-QQQ
Ms type: MS
Ion mode: POSITIVE
Precursor type: [M+H]+
m/z	relative intensity
106.8000	24
106.9000	23
107.0000	23
107.4000	21
108.5000	21
108.8000	22
108.9000	28
109.0000	26
109.1000	38
109.2000	44
109.3000	35
109.4000	29
118.6000	25
118.8000	34
119.0000	35
120.5000	31
132.5000	21
132.6000	32
132.7000	28
132.8000	26
132.9000	22
133.0000	21
133.2000	24
133.3000	26
147.1000	23
147.2000	29
162.4000	65
162.5000	250
162.6000	249
162.7000	276
162.8000	268
162.9000	324
163.0000	260
163.1000	273
163.2000	216
163.3000	201
163.4000	140
163.5000	52
163.6000	39
163.7000	37
164.1000	22
174.4000	21
174.6000	31
174.7000	38
174.8000	37
175.0000	24
175.1000	33
175.2000	32
188.5000	25
200.7000	28
201.2000	29
202.4000	23
202.5000	76
202.6000	122
202.7000	178
202.8000	211
202.9000	179
203.0000	171
203.1000	181
203.2000	182
203.3000	205
203.4000	140
203.5000	149
203.6000	56
203.7000	22
203.8000	39
203.9000	30
204.2000	25
204.3000	25
204.4000	33
204.5000	36
212.6000	33
212.8000	45
213.0000	21
213.1000	31
214.5000	22
214.6000	47
214.7000	40
214.8000	39
214.9000	35
215.0000	42
215.1000	22
215.2000	31
215.3000	26
215.4000	25
254.6000	21
254.7000	22
254.8000	27
254.9000	33
255.0000	27
255.2000	31
255.3000	31
268.7000	25
268.8000	27
268.9000	35
269.0000	27
269.1000	24
269.2000	26
269.3000	31
295.1000	75
308.9000	21
364.3000	24
364.4000	158
364.5000	464
364.6000	799
364.7000	837
364.8000	898
364.9000	901
365.0000	999
365.1000	988
365.2000	898
365.3000	784
365.4000	755
365.5000	499
365.6000	337
365.7000	312
365.8000	290
365.9000	345
366.0000	306
366.1000	292
366.2000	308
366.3000	225
366.4000	240
366.5000	106
366.6000	54
366.7000	43
366.8000	46
366.9000	37
367.0000	37
367.1000	57
367.2000	59
367.3000	51
367.4000	30
424.4000	111
424.5000	224
424.6000	395
424.7000	406
424.8000	483
424.9000	488
425.0000	483
425.1000	501
425.2000	518
425.3000	421
425.4000	383
425.5000	227
425.6000	159
425.7000	232
425.8000	183
425.9000	176
426.0000	183
426.1000	127
426.2000	135
426.3000	155
426.4000	118
426.5000	50
426.6000	35
426.7000	48
426.8000	39
427.0000	25
427.1000	30
427.3000	26
427.4000	29
441.4000	27
441.5000	45
441.6000	57
441.7000	68
441.8000	67
441.9000	106
442.0000	119
442.1000	95
442.2000	71
442.3000	75
442.4000	43
442.5000	42
442.6000	44
442.7000	35
442.8000	25
443.1000	23
443.3000	23
443.4000	29
848.5000	38
848.6000	42
848.7000	42
848.8000	57
848.9000	36
849.0000	63
849.1000	38
849.2000	40
849.3000	62
849.4000	58
849.7000	34
849.8000	24
849.9000	22
850.0000	22
850.1000	32
850.2000	48
850.3000	34
