Mass spectrum: Androst-5-ene-3,17-diol; LC-ESI-QQQ; MS2; Frag=135.0V CID@15.0; [M+H]+
Name: Androst-5-ene-3,17-diol
Class: Steroids
Formula: C19H30O2
Exact mass: 290.4498
SMILES: C[C@]12CCC3C(CC=C4CC(O)CC[C@@]43C)C1CCC2O
InChI: InChI=1S/C19H30O2/c1-18-9-7-13(20)11-12(18)3-4-14-15-5-6-17(21)19(15,2)10-8-16(14)18/h3,13-17,20-21H,4-11H2,1-2H3/t13?,14?,15?,16?,17?,18-,19-/m0/s1
Instrument: Agilent 6410 Triple Quadrupole LC/MS system
Instrument type: LC-ESI-QQQ
Ms type: MS2
Ion mode: POSITIVE
Precursor type: [M+H]+
m/z	relative intensity
120.5	3
120.6	6
120.7	12
120.8	21
120.9	26
121.0	23
121.1	13
121.2	5
132.8	5
132.9	8
133.0	13
133.1	16
133.2	15
133.3	10
133.4	6
158.8	6
158.9	9
159.0	11
159.1	12
159.2	11
159.3	9
159.4	7
160.4	4
160.5	7
160.6	10
160.7	12
160.8	11
160.9	9
161.0	9
161.1	11
161.2	11
161.3	9
172.5	5
172.6	8
172.7	11
172.8	16
172.9	21
173.0	23
173.1	19
173.2	12
173.3	6
200.5	4
200.6	5
200.7	10
200.8	17
200.9	23
201.0	23
201.1	17
201.2	8
254.7	7
254.8	9
254.9	15
255.0	36
255.1	69
255.2	98
255.3	98
255.4	66
255.5	25
255.6	4
272.7	4
272.8	6
272.9	14
273.0	23
273.1	28
273.2	23
273.3	14
273.4	6
290.7	7
290.8	9
290.9	12
291.0	14
291.1	13
291.2	9
