Mass spectrum: Komarovicine; LC-ESI-QQQ; MS2; Frag=135.0V CID@10.0; [M+H]+
Name: Komarovicine
Class: Alkaloids
Formula: C20H17N3
Exact mass: 299.3786
SMILES: c1cnc2c(C3NCCc4c3[nH]c3ccccc43)cccc2c1
InChI: InChI=1S/C20H17N3/c1-2-9-17-14(7-1)15-10-12-22-19(20(15)23-17)16-8-3-5-13-6-4-11-21-18(13)16/h1-9,11,19,22-23H,10,12H2
Instrument: Agilent 6410 Triple Quadrupole LC/MS system
Instrument type: LC-ESI-QQQ
Ms type: MS2
Ion mode: POSITIVE
Precursor type: [M+H]+
m/z	relative intensity
143.7	2
143.8	3
143.9	4
144.0	6
144.1	6
144.2	6
144.3	5
144.4	4
144.5	2
156.7	1
156.8	3
156.9	4
157.0	5
157.1	5
157.2	5
157.3	4
157.4	3
270.3	1
270.4	3
270.5	7
270.6	13
270.7	23
270.8	41
270.9	63
271.0	85
271.1	97
271.2	99
271.3	91
271.4	71
271.5	42
271.6	15
271.7	0
299.5	1
299.6	3
299.7	6
299.8	12
299.9	19
300.0	28
300.1	34
300.2	37
300.3	36
300.4	29
300.5	18
300.6	7
300.7	0
