Mass spectrum: 16-Deethylindanomycin; LC-ESI-QQQ; MS2; Frag=135.0V CID@15.0; [M+H]+
Name: 16-Deethylindanomycin
Class: Carbohydrates
Formula: C29H39NO4
Exact mass: 465.6385
SMILES: CC/C(=C\C=C\C1C=CC2CCCC2C1C(=O)c1ccc[nH]1)C1OC(C(C)C(=O)O)CCC1C
InChI: InChI=1S/C29H39NO4/c1-4-20(28-18(2)13-16-25(34-28)19(3)29(32)33)8-5-10-22-15-14-21-9-6-11-23(21)26(22)27(31)24-12-7-17-30-24/h5,7-8,10,12,14-15,17-19,21-23,25-26,28,30H,4,6,9,11,13,16H2,1-3H3,(H,32,33)/b10-5+,20-8+
Instrument: Agilent 6410 Triple Quadrupole LC/MS system
Instrument type: LC-ESI-QQQ
Ms type: MS2
Ion mode: POSITIVE
Precursor type: [M+H]+
m/z	relative intensity
93.3	1
93.4	3
93.5	6
93.6	9
93.7	14
93.8	20
93.9	26
94.0	30
94.1	30
94.2	27
94.3	23
94.4	17
94.5	9
94.6	2
156.4	1
156.5	3
156.6	6
156.7	10
156.8	16
156.9	24
157.0	32
157.1	36
157.2	35
157.3	28
157.4	18
157.5	8
157.6	1
225.4	3
225.5	5
225.6	8
225.7	12
225.8	18
225.9	29
226.0	39
226.1	44
226.2	45
226.3	40
226.4	32
226.5	20
226.6	8
226.7	0
237.7	2
237.8	3
237.9	5
238.0	7
238.1	8
238.2	8
238.3	7
238.4	5
238.5	2
251.7	2
251.8	3
251.9	5
252.0	6
252.1	6
252.2	5
252.3	4
252.4	3
252.5	2
293.9	1
294.0	3
294.1	4
294.2	5
294.3	5
294.4	4
294.5	2
403.4	1
403.5	2
403.6	4
403.7	7
403.8	12
403.9	22
404.0	36
404.1	50
404.2	64
404.3	72
404.4	71
404.5	59
404.6	39
404.7	19
404.8	5
404.9	0
421.8	0
421.9	2
422.0	4
422.1	6
422.2	7
422.3	8
422.4	7
422.5	5
422.6	3
429.7	1
429.8	2
429.9	4
430.0	5
430.1	6
430.2	6
430.3	7
430.4	6
430.5	5
430.6	2
447.5	0
447.6	2
447.7	4
447.8	8
447.9	13
448.0	18
448.1	23
448.2	28
448.3	31
448.4	30
448.5	25
448.6	16
448.7	6
448.8	0
465.4	1
465.5	3
465.6	6
465.7	11
465.8	19
465.9	33
466.0	53
466.1	74
466.2	91
466.3	99
466.4	98
466.5	84
466.6	57
466.7	27
466.8	5
466.9	0
