Mass spectrum: Delsoline; LC-ESI-QQQ; MS; [M+H]+
Name: Delsoline
Class: Alkaloids
Formula: C25H41NO7
Exact mass: 467.608
SMILES: CCN1C[C@]2(COC)CC[C@H](O)[C@@]34C5C[C@@H]6[C@@H](OC)C[C@@](O)(C5[C@H]6OC)[C@@](O)([C@@H](OC)C23)[C@@H]14
InChI: InChI=1S/C25H41NO7/c1-6-26-11-22(12-30-2)8-7-16(27)24-14-9-13-15(31-3)10-23(28,17(14)18(13)32-4)25(29,21(24)26)20(33-5)19(22)24/h13-21,27-29H,6-12H2,1-5H3/t13-,14?,15+,16+,17?,18+,19?,20+,21+,22+,23-,24+,25-/m1/s1
Instrument: ABSciex API3200 LC/MS system
Instrument type: LC-ESI-QQQ
Ms type: MS
Ion mode: POSITIVE
Precursor type: [M+H]+
m/z	relative intensity
118.6000	21
118.7000	31
118.8000	24
118.9000	23
467.4000	92
467.5000	334
467.6000	633
467.7000	850
467.8000	920
467.9000	950
468.0000	927
468.1000	999
468.2000	909
468.3000	870
468.4000	805
468.5000	570
468.6000	390
468.7000	399
468.8000	338
468.9000	359
469.0000	324
469.1000	337
469.2000	335
469.3000	329
469.4000	280
469.5000	192
469.6000	90
469.7000	86
469.8000	77
469.9000	74
470.0000	86
470.1000	75
470.2000	63
470.3000	63
470.4000	54
470.5000	36
470.8000	22
