Mass spectrum: Michepressine; LC-ESI-QQQ; MS; [M+H]+
Name: Michepressine
Class: Alkaloids
Formula: [C19H20NO3]+
Exact mass: 310.3762
SMILES: C[N+]1(C)CCc2cc3c(c4c2C1Cc1ccc(O)cc1-4)OCO3
InChI: InChI=1S/C19H19NO3/c1-20(2)6-5-12-8-16-19(23-10-22-16)18-14-9-13(21)4-3-11(14)7-15(20)17(12)18/h3-4,8-9,15H,5-7,10H2,1-2H3/p+1
Instrument: ABSciex API3200 LC/MS system
Instrument type: LC-ESI-QQQ
Ms type: MS
Ion mode: POSITIVE
Precursor type: [M]+
m/z	relative intensity
113.6000	29
113.7000	35
113.8000	23
119.0000	76
119.1000	82
119.2000	108
119.3000	74
119.4000	66
119.5000	26
141.9000	22
142.0000	31
142.1000	36
142.2000	31
142.3000	29
142.4000	26
206.5000	36
206.6000	88
206.7000	89
206.8000	96
206.9000	95
207.0000	105
207.1000	112
207.2000	107
207.3000	92
207.4000	99
207.5000	39
207.9000	22
216.9000	22
217.2000	21
234.4000	47
234.5000	150
234.6000	266
234.7000	282
234.8000	379
234.9000	332
235.0000	360
235.1000	352
235.2000	335
235.3000	302
235.4000	246
235.5000	103
235.6000	74
235.7000	58
235.8000	52
235.9000	63
236.0000	62
236.1000	62
236.2000	65
236.3000	69
236.4000	55
236.5000	23
264.4000	170
264.5000	350
264.6000	496
264.7000	572
264.8000	656
264.9000	640
265.0000	632
265.1000	603
265.2000	600
265.3000	575
265.4000	454
265.5000	210
265.6000	176
265.7000	145
265.8000	151
265.9000	161
266.0000	152
266.1000	164
266.2000	156
266.3000	142
266.4000	124
266.5000	44
266.6000	37
266.8000	38
266.9000	31
267.0000	33
267.1000	33
267.2000	28
267.3000	32
295.6000	25
295.7000	32
295.8000	38
295.9000	40
296.0000	39
296.1000	40
296.2000	32
296.3000	29
296.4000	24
309.4000	114
309.5000	427
309.6000	799
309.7000	939
309.8000	974
309.9000	959
310.0000	984
310.1000	935
310.2000	999
310.3000	824
310.4000	685
310.5000	471
310.6000	298
310.7000	285
310.8000	289
310.9000	324
311.0000	320
311.1000	338
311.2000	345
311.3000	286
311.4000	273
311.5000	122
311.6000	71
311.7000	65
311.8000	50
311.9000	47
312.0000	45
312.1000	52
312.2000	58
312.3000	97
312.4000	31
