Mass spectrum: Lapidin; LC-ESI-QQQ; MS2; Frag=135.0V CID@10.0; [M+Na]+
Name: Lapidin
Class: Terpenoids
Formula: C20H30O4
Exact mass: 334.4597
SMILES: C/C=C(\C)C(=O)O[C@H]1CC(C)=CC(=O)[C@@]2(C)CC[C@@](O)(C(C)C)[C@H]12
InChI: InChI=1S/C20H30O4/c1-7-14(5)18(22)24-15-10-13(4)11-16(21)19(6)8-9-20(23,12(2)3)17(15)19/h7,11-12,15,17,23H,8-10H2,1-6H3/b14-7+/t15-,17+,19+,20+/m0/s1
Instrument: Agilent 6410 Triple Quadrupole LC/MS system
Instrument type: LC-ESI-QQQ
Ms type: MS2
Ion mode: POSITIVE
Precursor type: [M+Na]+
m/z	relative intensity
256.7	4
256.8	4
256.9	8
257.0	13
257.1	15
257.2	14
257.3	9
257.4	5
356.2	3
356.3	5
356.4	8
356.5	10
356.6	9
356.7	13
356.8	28
356.9	47
357.0	64
357.1	78
357.2	90
357.3	94
357.4	78
357.5	45
357.6	15
357.7	0
