Mass spectrum: Hinokitiol; LC-ESI-QQQ; MS2; Frag=135.0V CID@25.0; [M+H]+
Name: beta-Thujaplicin
Name: beta.-Thujaplicine
Name: 2-Hydroxy-4-isopropyl-2,4,6-cycloheptatrien-1-one
Name: 4-Isopropyltropolon
Name: Hinokitiol
Class: Terpenoids
Formula: C10H12O2
Exact mass: 164.2059
SMILES: CC(C)c1cccc(O)c(=O)c1
InChI: InChI=1S/C10H12O2/c1-7(2)8-4-3-5-9(11)10(12)6-8/h3-7H,1-2H3,(H,11,12)
Instrument: Agilent 6410 Triple Quadrupole LC/MS system
Instrument type: LC-ESI-QQQ
Ms type: MS2
Ion mode: POSITIVE
Precursor type: [M+H]+
m/z	relative intensity
54.3	2
54.4	4
54.5	6
54.6	10
54.7	17
54.8	27
54.9	38
55.0	46
55.1	49
55.2	48
55.3	41
55.4	29
55.5	14
55.6	3
64.5	1
64.6	2
64.7	4
64.8	7
64.9	9
65.0	11
65.1	10
65.2	10
65.3	9
65.4	6
65.7	3
65.8	5
65.9	9
66.0	12
66.1	13
66.2	13
66.3	10
66.4	6
66.7	3
66.8	6
66.9	9
67.0	11
67.1	11
67.2	11
67.3	9
67.4	6
67.5	3
76.4	3
76.5	4
76.6	8
76.7	14
76.8	24
76.9	33
77.0	38
77.1	40
77.2	39
77.3	34
77.4	24
77.5	12
77.8	6
77.9	10
78.0	12
78.1	12
78.2	12
78.3	10
78.4	7
78.7	4
78.8	6
78.9	8
79.0	11
79.1	12
79.2	12
79.3	10
79.4	7
79.5	3
80.7	2
80.8	4
80.9	6
81.0	7
81.1	7
81.2	6
81.3	5
81.4	4
90.1	0
90.2	1
90.3	4
90.4	8
90.5	12
90.6	17
90.7	28
90.8	49
90.9	75
91.0	94
91.1	99
91.2	89
91.3	68
91.4	41
91.5	16
91.6	0
92.7	1
92.8	3
92.9	5
93.0	6
93.1	7
93.2	7
93.3	7
93.7	5
93.8	9
93.9	14
94.0	17
94.1	18
94.2	17
94.3	13
94.4	9
94.7	4
94.8	8
94.9	11
95.0	12
95.1	13
95.2	11
95.3	9
95.4	6
95.5	2
102.4	1
102.5	3
102.6	5
102.7	10
102.8	17
102.9	24
103.0	29
103.1	29
103.2	28
103.3	25
103.6	17
103.7	26
103.8	45
103.9	66
104.0	80
104.1	84
104.2	80
104.3	68
104.4	48
104.5	25
104.6	7
104.8	6
104.9	12
105.0	15
105.1	15
105.2	13
105.3	10
105.4	7
105.5	3
106.6	2
106.7	4
106.8	7
106.9	10
107.0	12
107.1	12
107.2	12
107.3	10
107.4	7
107.5	3
114.7	2
114.8	3
114.9	5
115.0	6
115.1	6
115.2	6
115.3	5
115.4	3
116.6	1
116.7	3
116.8	6
116.9	8
117.0	10
117.1	10
117.2	11
117.3	10
117.4	7
117.5	3
118.5	1
118.6	2
118.7	5
118.8	8
118.9	11
119.0	13
119.1	13
119.2	13
119.3	12
119.4	9
119.5	5
119.6	1
120.8	3
120.9	4
121.0	5
121.1	6
121.2	7
121.3	7
121.4	6
121.5	7
121.6	10
121.7	16
121.8	27
121.9	38
122.0	44
122.1	44
122.2	40
122.3	33
122.4	24
122.6	16
122.7	25
122.8	42
122.9	60
123.0	70
123.1	71
123.2	65
123.3	53
123.4	35
123.5	16
123.6	2
130.3	1
130.4	3
130.5	6
130.6	11
130.7	21
130.8	34
130.9	46
131.0	52
131.1	53
131.2	48
131.3	41
131.4	30
131.5	18
131.7	8
131.8	14
131.9	22
132.0	25
132.1	26
132.2	25
132.3	23
132.5	18
132.6	19
132.7	30
132.8	49
132.9	68
133.0	82
133.1	86
133.2	80
133.3	66
133.4	45
133.5	22
133.6	4
148.2	1
148.3	3
148.4	6
148.5	10
148.6	17
148.7	30
148.8	52
148.9	77
149.0	94
149.1	99
149.2	94
149.3	77
149.4	53
149.5	29
149.7	20
149.8	37
149.9	55
150.0	66
150.1	68
150.2	64
150.3	54
150.4	38
150.5	19
150.6	4
164.4	2
164.5	3
164.6	5
164.7	7
164.8	12
164.9	19
165.0	26
165.1	30
165.2	30
165.3	26
165.4	20
165.5	11
165.6	3
