Mass spectrum: Cortisone; LC-ESI-QQQ; MS2; Frag=135.0V CID@5.0; [M+H]+
Name: Cortisone
Class: Steroids
Formula: C21H28O5
Exact mass: 360.4543
SMILES: C[C@]12CC(=O)C3C(CCC4=CC(=O)CC[C@@]43C)C1CC[C@]2(O)C(=O)CO
InChI: InChI=1S/C21H28O5/c1-19-7-5-13(23)9-12(19)3-4-14-15-6-8-21(26,17(25)11-22)20(15,2)10-16(24)18(14)19/h9,14-15,18,22,26H,3-8,10-11H2,1-2H3/t14?,15?,18?,19-,20-,21-/m0/s1
Instrument: Agilent 6410 Triple Quadrupole LC/MS system
Instrument type: LC-ESI-QQQ
Ms type: MS2
Ion mode: POSITIVE
Precursor type: [M+H]+
m/z	relative intensity
360.3	0
360.4	1
360.5	4
360.6	7
360.7	12
360.8	22
360.9	40
361.0	62
361.1	83
361.2	96
361.3	99
361.4	91
361.5	71
361.6	43
361.7	16
361.8	0
