Mass spectrum: Amygdalin; LC-ESI-QQQ; MS2; Frag=135.0V CID@15.0; [M+H]+
Name: Amygdaloside
Name: Laenitrile
Name: Mandelonitrile-beta-gentiobioside
Name: Amygdalin
Class: Carbohydrates
Formula: C20H27NO11
Exact mass: 457.4383
SMILES: N#CC(O[C@@H]1O[C@H](CO[C@@H]2O[C@H](CO)[C@@H](O)[C@H](O)[C@H]2O)[C@@H](O)[C@H](O)[C@H]1O)c1ccccc1
InChI: InChI=1S/C20H27NO11/c21-6-10(9-4-2-1-3-5-9)30-20-18(28)16(26)14(24)12(32-20)8-29-19-17(27)15(25)13(23)11(7-22)31-19/h1-5,10-20,22-28H,7-8H2/t10?,11-,12-,13-,14-,15+,16+,17-,18-,19-,20-/m1/s1
Instrument: Agilent 6410 Triple Quadrupole LC/MS system
Instrument type: LC-ESI-QQQ
Ms type: MS2
Ion mode: POSITIVE
Precursor type: [M+H]+
m/z	relative intensity
157.5	1
157.6	3
157.7	4
157.8	4
157.9	4
158.0	4
158.1	5
158.2	5
158.3	4
158.4	2
295.2	2
295.3	4
295.4	5
295.5	8
295.6	13
295.7	24
295.8	43
295.9	66
296.0	87
296.1	99
296.2	99
296.3	85
296.4	56
296.5	23
296.6	1
457.7	3
457.8	6
457.9	10
458.0	12
458.1	13
458.2	12
458.3	8
458.4	4
458.5	1
