Mass spectrum: Ajugalide E; LC-ESI-QQQ; MS2; Frag=135.0V CID@15.0; [M+HCOO]-
Name: Ajugalide E
Class: Terpenoids
Formula: C31H46O9
Exact mass: 562.7069
SMILES: CC(=O)O[C@H](CC1C(C)OC(=O)C1C)[C@](C)(O)C1CC[C@@]2(O)C3=CC(=O)[C@@H]4C[C@@H](O)C(O)C[C@]4(C)C3CC[C@]12C
InChI: InChI=1S/C31H46O9/c1-15-18(16(2)39-27(15)36)11-26(40-17(3)32)30(6,37)25-8-10-31(38)20-12-22(33)21-13-23(34)24(35)14-28(21,4)19(20)7-9-29(25,31)5/h12,15-16,18-19,21,23-26,34-35,37-38H,7-11,13-14H2,1-6H3/t15?,16?,18?,19?,21-,23+,24?,25?,26+,28+,29+,30+,31+/m0/s1
Instrument: Agilent 6410 Triple Quadrupole LC/MS system
Instrument type: LC-ESI-QQQ
Ms type: MS2
Ion mode: NEGATIVE
Precursor type: [M+HCOO]-
m/z	relative intensity
500.3	0
500.4	1
500.5	8
500.6	20
500.7	35
500.8	48
500.9	57
501.0	66
501.1	76
501.2	87
501.3	98
501.4	99
501.5	79
501.6	43
501.7	10
501.8	0
518.6	0
518.7	1
518.8	4
518.9	7
519.0	6
519.1	4
519.2	1
560.8	0
560.9	2
561.0	5
561.1	10
561.2	12
561.3	10
561.4	8
561.5	7
561.6	6
561.7	5
561.8	3
606.2	0
606.3	1
606.4	8
606.5	19
606.6	28
606.7	32
606.8	37
606.9	49
607.0	67
607.1	83
607.2	88
607.3	76
607.4	53
607.5	29
607.6	12
607.7	2
