Mass spectrum: Pantoyl lactone; LC-ESI-QQQ; MS2; Frag=135.0V CID@15.0; [M+H]+
Name: Pantoyl lactone
Class: Oxygen heterocycles
Formula: C6H10O3
Exact mass: 130.1448
SMILES: CC1(C)COC(=O)C1O
InChI: InChI=1S/C6H10O3/c1-6(2)3-9-5(8)4(6)7/h4,7H,3H2,1-2H3
Instrument: Agilent 6410 Triple Quadrupole LC/MS system
Instrument type: LC-ESI-QQQ
Ms type: MS2
Ion mode: POSITIVE
Precursor type: [M+H]+
m/z	relative intensity
56.2	1
56.3	3
56.4	7
56.5	10
56.6	14
56.7	20
56.8	27
56.9	35
57.0	42
57.1	48
57.2	51
57.3	47
57.4	35
57.5	18
57.6	5
57.7	0
64.7	2
64.8	4
64.9	8
65.0	11
65.1	11
65.2	8
65.3	5
65.4	4
65.5	3
66.2	0
66.3	1
66.4	4
66.5	12
66.6	25
66.7	43
66.8	62
66.9	80
67.0	94
67.1	99
67.2	93
67.3	76
67.4	54
67.5	29
67.6	10
67.7	0
70.6	2
70.7	3
70.8	5
70.9	10
71.0	13
71.1	14
71.2	11
71.3	8
71.4	5
71.5	2
84.6	1
84.7	3
84.8	4
84.9	5
85.0	4
85.1	3
85.2	3
85.3	4
85.4	4
85.5	2
94.4	1
94.5	3
94.6	6
94.7	9
94.8	14
94.9	19
95.0	22
95.1	22
95.2	19
95.3	15
95.4	11
95.5	6
95.6	1
112.8	1
112.9	2
113.0	4
113.1	6
113.2	5
113.3	3
