Mass spectrum: 9,13-Epoxy-3,15,16,18-labdanetetrol; LC-ESI-QQQ; MS2; Frag=135.0V CID@5.0; [M+HCOO]-
Name: 9,13-Epoxy-3,15,16,18-labdanetetrol
Class: Terpenoids
Formula: C20H36O5
Exact mass: 356.5069
SMILES: C[C@H]1CCC2[C@](C)(CC[C@H](O)[C@@]2(C)CO)[C@@]12CCC(CO)(CCO)O2
InChI: InChI=1S/C20H36O5/c1-14-4-5-15-17(2,12-22)16(24)6-7-18(15,3)20(14)9-8-19(13-23,25-20)10-11-21/h14-16,21-24H,4-13H2,1-3H3/t14-,15?,16-,17-,18-,19?,20+/m0/s1
Instrument: Agilent 6410 Triple Quadrupole LC/MS system
Instrument type: LC-ESI-QQQ
Ms type: MS2
Ion mode: NEGATIVE
Precursor type: [M+HCOO]-
m/z	relative intensity
400.4	1
400.5	3
400.6	11
400.7	26
400.8	46
400.9	65
401.0	80
401.1	90
401.2	96
401.3	99
401.4	93
401.5	70
401.6	36
401.7	7
401.8	0
