Mass spectrum: Echinatine; LC-ESI-QQQ; MS2; Frag=135.0V CID@10.0; [M+H]+
Name: Echinatine
Class: Alkaloids
Formula: C15H25NO5
Exact mass: 299.3702
SMILES: CC(C)C(O)(C(=O)OCC1=CCN2CC[C@H](O)[C@@H]12)C(C)O
InChI: InChI=1S/C15H25NO5/c1-9(2)15(20,10(3)17)14(19)21-8-11-4-6-16-7-5-12(18)13(11)16/h4,9-10,12-13,17-18,20H,5-8H2,1-3H3/t10?,12-,13+,15?/m0/s1
Instrument: Agilent 6410 Triple Quadrupole LC/MS system
Instrument type: LC-ESI-QQQ
Ms type: MS2
Ion mode: POSITIVE
Precursor type: [M+H]+
m/z	relative intensity
137.5	1
137.6	2
137.7	4
137.8	8
137.9	12
138.0	14
138.1	15
138.2	15
138.3	13
138.4	9
138.5	5
138.6	2
299.3	1
299.4	3
299.5	5
299.6	9
299.7	16
299.8	30
299.9	50
300.0	73
300.1	91
300.2	99
300.3	96
300.4	81
300.5	57
300.6	29
300.7	7
300.8	0
