Mass spectrum: Mangiferin; LC-ESI-QQQ; MS2; Frag=135.0V CID@25.0; [M+H]+
Name: Mangiferin
Class: Polyketides
Formula: C19H18O11
Exact mass: 422.3487
SMILES: O=c1c2cc(O)c(O)cc2oc2cc(O)c([C@@H]3O[C@H](CO)[C@@H](O)[C@H](O)[C@H]3O)c(O)c12
InChI: InChI=1S/C19H18O11/c20-4-11-15(25)17(27)18(28)19(30-11)12-8(23)3-10-13(16(12)26)14(24)5-1-6(21)7(22)2-9(5)29-10/h1-3,11,15,17-23,25-28H,4H2/t11-,15-,17+,18-,19+/m1/s1
Instrument: Agilent 6410 Triple Quadrupole LC/MS system
Instrument type: LC-ESI-QQQ
Ms type: MS2
Ion mode: POSITIVE
Precursor type: [M+H]+
m/z	relative intensity
260.7	2
260.8	3
260.9	5
261.0	6
261.1	5
261.2	4
261.3	2
272.1	1
272.2	3
272.3	7
272.4	12
272.5	17
272.6	24
272.7	37
272.8	57
272.9	80
273.0	96
273.1	99
273.2	90
273.3	70
273.4	42
273.5	16
273.6	1
284.5	1
284.6	2
284.7	4
284.8	8
284.9	11
285.0	13
285.1	12
285.2	8
285.3	4
298.3	2
298.4	4
298.5	6
298.6	8
298.7	12
298.8	18
298.9	26
299.0	31
299.1	32
299.2	28
299.3	20
299.4	10
299.5	2
302.2	1
302.3	3
302.4	5
302.5	8
302.6	13
302.7	25
302.8	41
302.9	57
303.0	66
303.1	64
303.2	52
303.3	33
303.4	14
303.5	2
312.5	1
312.6	3
312.7	5
312.8	8
312.9	11
313.0	13
313.1	13
313.2	10
313.3	7
313.4	3
322.8	3
322.9	4
323.0	5
323.1	6
323.2	5
323.3	3
326.2	1
326.3	2
326.4	4
326.5	6
326.6	7
326.7	10
326.8	15
326.9	23
327.0	30
327.1	34
327.2	31
327.3	22
327.4	12
327.5	3
338.4	3
338.5	4
338.6	5
338.7	9
338.8	14
338.9	18
339.0	22
339.1	25
339.2	24
339.3	19
339.4	10
339.5	3
350.5	2
350.6	3
350.7	6
350.8	10
350.9	13
351.0	14
351.1	13
351.2	11
351.3	8
351.4	5
351.5	2
368.5	2
368.6	3
368.7	5
368.8	7
368.9	8
369.0	8
369.1	8
369.2	6
369.3	4
369.4	2
