Mass spectrum: 7-Dehydroxy-4-demethylpodophyllotoxin; LC-ESI-QQQ; MS2; Frag=135.0V CID@25.0; [M+H]+
Name: 7-Dehydroxy-4-demethylpodophyllotoxin
Class: Polycyclic aromatic natural products
Formula: C21H20O7
Exact mass: 384.3894
SMILES: COc1cc([C@@H]2c3cc4c(cc3C[C@H]3COC(=O)[C@@H]32)OCO4)cc(OC)c1O
InChI: InChI=1S/C21H20O7/c1-24-16-5-11(6-17(25-2)20(16)22)18-13-7-15-14(27-9-28-15)4-10(13)3-12-8-26-21(23)19(12)18/h4-7,12,18-19,22H,3,8-9H2,1-2H3/t12-,18+,19-/m0/s1
Instrument: Agilent 6410 Triple Quadrupole LC/MS system
Instrument type: LC-ESI-QQQ
Ms type: MS2
Ion mode: POSITIVE
Precursor type: [M+H]+
m/z	relative intensity
84.5	3
84.6	4
84.7	12
84.8	23
84.9	29
85.0	27
85.1	20
85.2	13
85.3	8
86.9	5
87.0	7
87.1	9
87.2	10
87.3	9
87.4	8
168.9	6
169.0	8
169.1	12
169.2	14
169.3	12
169.4	8
184.6	5
184.7	7
184.8	12
184.9	19
185.0	24
185.1	24
185.2	20
185.3	14
185.4	10
186.4	3
186.5	6
186.6	14
186.7	26
186.8	33
186.9	28
187.0	17
187.1	8
210.3	5
210.4	7
210.5	11
210.6	15
210.7	16
210.8	13
210.9	9
222.9	4
223.0	8
223.1	17
223.2	26
223.3	27
223.4	19
223.5	9
238.4	6
238.5	8
238.6	13
238.7	26
238.8	44
238.9	51
239.0	39
239.1	18
239.2	5
239.9	5
240.0	8
240.1	18
240.2	28
240.3	27
240.6	11
240.7	29
240.8	49
240.9	56
241.0	43
241.1	21
241.2	6
248.8	4
248.9	6
249.0	10
249.1	13
249.2	12
249.3	9
249.4	9
249.5	13
249.6	17
249.7	17
249.8	11
266.5	1
266.6	3
266.7	17
266.8	47
266.9	78
267.0	91
267.1	75
267.2	45
267.3	20
267.4	7
268.4	1
268.5	2
268.6	15
268.7	41
268.8	61
268.9	57
269.0	36
269.1	19
269.2	17
269.3	20
269.4	17
269.5	10
269.6	5
276.5	5
276.6	8
276.7	14
276.8	18
276.9	18
277.0	13
277.1	8
277.2	6
277.5	2
277.6	6
277.7	19
277.8	34
277.9	38
278.0	27
278.1	12
291.7	4
291.8	6
291.9	15
292.0	30
292.1	43
292.2	41
292.3	25
292.4	9
294.8	4
294.9	5
295.0	10
295.1	19
295.2	28
295.3	29
295.4	20
295.5	9
297.4	2
297.5	3
297.6	12
297.7	31
297.8	49
297.9	49
298.0	30
298.1	9
298.8	4
298.9	11
299.0	25
299.1	38
299.2	38
299.3	25
299.4	11
299.7	6
299.8	9
299.9	20
300.0	42
300.1	58
300.2	54
300.3	31
300.4	9
300.7	3
300.8	5
300.9	9
301.0	14
301.1	18
301.2	16
301.3	10
306.5	2
306.6	9
306.7	25
306.8	42
306.9	46
307.0	36
307.1	33
307.2	50
307.3	76
307.4	85
307.5	62
307.6	27
307.7	3
319.7	6
319.8	9
319.9	11
320.0	11
320.1	8
322.6	3
322.7	5
322.8	12
322.9	21
323.0	23
323.1	17
323.2	9
334.8	3
334.9	10
335.0	22
335.1	34
335.2	34
335.3	22
335.4	9
384.8	5
384.9	7
385.0	10
385.1	14
385.2	16
385.3	15
385.4	11
385.5	6
