Mass spectrum: turkesterone; LC-ESI-QQQ; MS2; Frag=135.0V CID@25.0; [M+H]+
Name: turkesterone
Class: Steroids
Formula: C27H44O8
Exact mass: 496.6469
SMILES: CC(C)(O)CC[C@H](O)[C@](C)(O)C1CC[C@@]2(O)C3=CC(=O)C4CC(O)C(O)C[C@]4(C)C3[C@H](O)C[C@]12C
InChI: InChI=1S/C27H44O8/c1-23(2,33)8-7-21(32)26(5,34)20-6-9-27(35)15-11-16(28)14-10-17(29)18(30)12-24(14,3)22(15)19(31)13-25(20,27)4/h11,14,17-22,29-35H,6-10,12-13H2,1-5H3/t14?,17?,18?,19-,20?,21+,22?,24+,25-,26-,27-/m1/s1
Instrument: Agilent 6410 Triple Quadrupole LC/MS system
Instrument type: LC-ESI-QQQ
Ms type: MS2
Ion mode: POSITIVE
Precursor type: [M+H]+
m/z	relative intensity
68.5	5
68.6	7
68.7	13
68.8	23
68.9	33
69.0	36
69.1	31
69.2	21
69.3	12
69.4	6
69.5	3
80.3	3
80.4	4
80.5	6
80.6	10
80.7	16
80.8	22
80.9	25
81.0	24
81.1	21
81.2	20
81.3	22
81.4	20
81.5	13
81.6	5
96.5	2
96.6	4
96.7	8
96.8	13
96.9	20
97.0	25
97.1	25
97.2	19
97.3	12
97.4	7
97.5	4
98.3	0
98.4	2
98.5	10
98.6	27
98.7	50
98.8	73
98.9	91
99.0	99
99.1	92
99.2	70
99.3	40
99.4	15
99.5	2
108.5	2
108.6	3
108.7	6
108.8	8
108.9	9
109.0	7
109.1	4
122.7	1
122.8	3
122.9	6
123.0	10
123.1	13
123.2	12
123.3	9
123.4	4
124.5	3
124.6	5
124.7	8
124.8	9
124.9	9
125.0	10
125.1	11
125.2	10
125.3	7
125.4	4
142.7	5
142.8	7
142.9	12
143.0	17
143.1	21
143.2	20
143.3	13
143.4	6
148.7	3
148.8	4
148.9	7
149.0	9
149.1	9
149.2	8
149.3	6
149.4	4
160.6	2
160.7	4
160.8	9
160.9	16
161.0	21
161.1	20
161.2	14
161.3	6
164.5	2
164.6	3
164.7	8
164.8	20
164.9	36
165.0	50
165.1	55
165.2	49
165.3	34
165.4	17
165.5	4
170.6	2
170.7	4
170.8	7
170.9	11
171.0	13
171.1	12
171.2	8
171.3	4
172.4	3
172.5	4
172.6	6
172.7	8
172.8	9
172.9	7
173.0	4
176.7	3
176.8	4
176.9	7
177.0	11
177.1	14
177.2	13
177.3	8
177.4	3
184.4	1
184.5	3
184.6	7
184.7	13
184.8	18
184.9	18
185.0	14
185.1	9
185.2	5
186.7	2
186.8	3
186.9	6
187.0	10
187.1	12
187.2	14
187.3	12
187.4	7
187.5	3
188.4	3
188.5	5
188.6	8
188.7	14
188.8	25
188.9	37
189.0	39
189.1	31
189.2	16
189.3	5
196.6	3
196.7	5
196.8	6
196.9	7
197.0	6
197.1	4
206.8	2
206.9	4
207.0	7
207.1	9
207.2	8
207.3	5
212.4	2
212.5	4
212.6	7
212.7	12
212.8	15
212.9	14
213.0	10
213.1	6
220.7	2
220.8	4
220.9	7
221.0	11
221.1	12
221.2	9
221.3	4
222.7	1
222.8	3
222.9	9
223.0	15
223.1	17
223.2	13
223.3	6
226.9	3
227.0	5
227.1	8
227.2	10
227.3	8
227.4	5
228.2	3
228.3	5
228.4	6
228.5	8
228.6	9
228.7	9
230.4	2
230.5	4
230.6	7
230.7	8
230.8	7
230.9	5
231.0	4
231.1	6
231.2	10
231.3	11
231.4	9
231.5	5
236.6	2
236.7	6
236.8	11
236.9	16
237.0	17
237.1	13
237.2	9
237.3	6
238.9	2
239.0	4
239.1	7
239.2	9
239.3	8
239.4	5
245.0	3
245.1	4
245.2	6
245.3	6
245.4	5
252.4	3
252.5	5
252.6	7
252.7	9
252.8	9
252.9	7
253.0	5
254.5	2
254.6	3
254.7	6
254.8	10
254.9	13
255.0	13
255.1	10
255.2	7
255.3	5
258.6	3
258.7	5
258.8	8
258.9	8
259.0	7
259.1	4
264.6	3
264.7	5
264.8	10
264.9	13
265.0	12
265.1	9
265.2	5
268.6	2
268.7	4
268.8	5
268.9	7
269.0	9
269.1	9
269.2	7
269.3	4
272.5	2
272.6	6
272.7	13
272.8	20
272.9	20
273.0	14
273.1	6
273.2	2
278.7	2
278.8	5
278.9	7
279.0	9
279.1	7
279.2	4
280.5	4
280.6	7
280.7	12
280.8	16
280.9	18
281.0	18
281.1	16
281.2	13
281.3	9
281.4	5
282.7	2
282.8	4
282.9	6
283.0	7
283.1	6
283.2	4
298.4	6
298.5	9
298.6	14
298.7	21
298.8	28
298.9	32
299.0	36
299.1	40
299.2	43
299.3	42
299.4	32
299.5	18
299.6	5
308.5	3
308.6	5
308.7	8
308.8	10
308.9	9
309.0	7
309.1	3
310.6	1
310.7	3
310.8	8
310.9	16
311.0	23
311.1	24
311.2	18
311.3	10
311.4	5
316.5	2
316.6	3
316.7	7
316.8	10
316.9	11
317.0	11
317.1	11
317.2	10
317.3	7
317.4	4
326.8	2
326.9	5
327.0	18
327.1	39
327.2	55
327.3	56
327.4	38
327.5	16
327.6	2
328.7	1
328.8	3
328.9	10
329.0	16
329.1	18
329.2	14
329.3	8
329.4	4
332.9	1
333.0	3
333.1	8
333.2	11
333.3	11
333.4	8
333.5	3
338.8	1
338.9	3
339.0	8
339.1	15
339.2	20
339.3	17
339.4	10
339.5	4
346.4	2
346.5	4
346.6	7
346.7	8
346.8	8
346.9	5
350.8	3
350.9	6
351.0	9
351.1	12
351.2	14
351.3	15
351.4	13
351.5	8
351.6	3
364.6	2
364.7	4
364.8	5
364.9	6
365.0	5
368.7	4
368.8	6
368.9	8
369.0	11
369.1	11
369.2	9
369.3	5
386.2	1
386.3	3
386.4	6
386.5	13
386.6	21
386.7	30
386.8	38
386.9	44
387.0	47
387.1	47
387.2	45
387.3	41
387.4	31
387.5	19
387.6	7
387.7	1
388.8	1
388.9	3
389.0	6
389.1	12
389.2	16
389.3	17
389.4	13
389.5	7
389.6	3
406.4	4
406.5	5
406.6	7
406.7	10
406.8	18
406.9	28
407.0	34
407.1	34
407.2	28
407.3	22
407.4	16
407.5	8
407.6	2
424.3	2
424.4	4
424.5	6
424.6	10
424.7	14
424.8	20
424.9	24
425.0	26
425.1	24
425.2	19
425.3	12
425.4	7
425.5	4
442.5	2
442.6	4
442.7	8
442.8	12
442.9	19
443.0	25
443.1	27
443.2	21
443.3	11
443.4	3
460.8	2
460.9	3
461.0	6
461.1	11
461.2	14
461.3	15
461.4	12
461.5	7
461.6	3
