Mass spectrum: 18alpha-Glycyrrhetic acid; LC-ESI-QQQ; MS2; Frag=135.0V CID@15.0; [M+H]+
Name: 18alpha-Glycyrrhetic acid
Class: Terpenoids
Formula: C30H46O4
Exact mass: 470.6987
SMILES: CC1(C)C2CC[C@]3(C)C(C(=O)C=C4[C@H]5C[C@@](C)(C(=O)O)CC[C@]5(C)CC[C@]43C)[C@@]2(C)CC[C@@H]1O
InChI: InChI=1S/C30H46O4/c1-25(2)21-8-11-30(7)23(28(21,5)10-9-22(25)32)20(31)16-18-19-17-27(4,24(33)34)13-12-26(19,3)14-15-29(18,30)6/h16,19,21-23,32H,8-15,17H2,1-7H3,(H,33,34)/t19-,21?,22+,23?,26-,27+,28+,29-,30-/m1/s1
Instrument: Agilent 6410 Triple Quadrupole LC/MS system
Instrument type: LC-ESI-QQQ
Ms type: MS2
Ion mode: POSITIVE
Precursor type: [M+H]+
m/z	relative intensity
470.3	0
470.4	1
470.5	3
470.6	8
470.7	15
470.8	23
470.9	35
471.0	51
471.1	70
471.2	87
471.3	98
471.4	99
471.5	91
471.6	71
471.7	43
471.8	16
471.9	0
