Mass spectrum: Lagohirsin; LC-ESI-QQQ; MS2; Frag=135.0V CID@5.0; [M+Na]+
Name: Lagohirsin
Class: Terpenoids
Formula: C20H32O5
Exact mass: 352.475
SMILES: C[C@@H]1CCC2[C@](C)(CC[C@H](O)[C@@]2(C)CO)[C@@]12CCC1(COC(=O)C1)O2
InChI: InChI=1S/C20H32O5/c1-13-4-5-14-17(2,11-21)15(22)6-7-18(14,3)20(13)9-8-19(25-20)10-16(23)24-12-19/h13-15,21-22H,4-12H2,1-3H3/t13-,14?,15+,17+,18+,19?,20-/m1/s1
Instrument: Agilent 6410 Triple Quadrupole LC/MS system
Instrument type: LC-ESI-QQQ
Ms type: MS2
Ion mode: POSITIVE
Precursor type: [M+Na]+
m/z	relative intensity
316.6	1
316.7	3
316.8	5
316.9	9
317.0	13
317.1	17
317.2	20
317.3	22
317.4	21
317.5	15
317.6	6
317.7	0
334.4	1
334.5	2
334.6	4
334.7	7
334.8	10
334.9	16
335.0	24
335.1	33
335.2	40
335.3	42
335.4	39
335.5	28
335.6	14
335.7	2
369.4	0
369.5	1
369.6	4
369.7	9
369.8	17
369.9	31
370.0	52
370.1	75
370.2	92
370.3	99
370.4	97
370.5	83
370.6	57
370.7	25
370.8	3
