Mass spectrum: Stepharine; LC-ESI-QQQ; MS2; Frag=135.0V CID@5.0; [M+H]+
Name: Stepharine
Class: Alkaloids
Formula: C18H19NO3
Exact mass: 297.357
SMILES: COc1cc2c3c(c1OC)C1(C=CC(=O)C=C1)CC3NCC2
InChI: InChI=1S/C18H19NO3/c1-21-14-9-11-5-8-19-13-10-18(6-3-12(20)4-7-18)16(15(11)13)17(14)22-2/h3-4,6-7,9,13,19H,5,8,10H2,1-2H3
Instrument: Agilent 6410 Triple Quadrupole LC/MS system
Instrument type: LC-ESI-QQQ
Ms type: MS2
Ion mode: POSITIVE
Precursor type: [M+H]+
m/z	relative intensity
191.7	2
191.8	3
191.9	5
192.0	6
192.1	7
192.2	7
192.3	6
192.4	5
192.5	3
297.3	1
297.4	2
297.5	5
297.6	11
297.7	21
297.8	38
297.9	60
298.0	80
298.1	94
298.2	99
298.3	94
298.4	78
298.5	53
298.6	25
298.7	4
298.8	0
