Mass spectrum: Centaurepensin; LC-ESI-QQQ; MS2; Frag=135.0V CID@10.0; [M+H]+
Name: Centaurepensin
Class: Terpenoids
Formula: C19H24Cl2O7
Exact mass: 435.3049
SMILES: C=C1C[C@H](OC(=O)C(C)(O)CCl)C2C(=C)C(=O)O[C@@H]2C2C1C[C@H](O)[C@]2(O)CCl
InChI: InChI=1S/C19H24Cl2O7/c1-8-4-11(27-17(24)18(3,25)6-20)13-9(2)16(23)28-15(13)14-10(8)5-12(22)19(14,26)7-21/h10-15,22,25-26H,1-2,4-7H2,3H3/t10?,11-,12-,13?,14?,15-,18?,19+/m0/s1
Instrument: Agilent 6410 Triple Quadrupole LC/MS system
Instrument type: LC-ESI-QQQ
Ms type: MS2
Ion mode: POSITIVE
Precursor type: [M+H]+
m/z	relative intensity
92.4	2
92.5	3
92.6	6
92.7	8
92.8	10
92.9	10
93.0	8
93.1	7
93.2	7
93.3	7
93.4	5
93.5	2
164.5	1
164.6	2
164.7	4
164.8	5
164.9	4
165.0	2
168.5	1
168.6	2
168.7	4
168.8	8
168.9	11
169.0	12
169.1	9
169.2	6
169.3	4
169.4	3
178.6	1
178.7	3
178.8	6
178.9	9
179.0	10
179.1	8
179.2	5
179.3	2
180.8	3
180.9	4
181.0	6
181.1	7
181.2	6
181.3	3
182.5	1
182.6	2
182.7	5
182.8	8
182.9	9
183.0	9
183.1	8
183.2	7
183.3	5
183.4	3
186.6	1
186.7	3
186.8	5
186.9	6
187.0	6
187.1	5
187.2	4
188.7	1
188.8	3
188.9	5
189.0	7
189.1	8
189.2	7
189.3	5
189.4	2
196.4	0
196.5	1
196.6	4
196.7	7
196.8	10
196.9	11
197.0	11
197.1	10
197.2	8
197.3	5
197.4	2
200.2	1
200.3	3
200.4	6
200.5	12
200.6	20
200.7	31
200.8	47
200.9	68
201.0	88
201.1	99
201.2	96
201.3	79
201.4	52
201.5	24
201.6	5
201.7	0
204.8	1
204.9	3
205.0	4
205.1	4
205.2	3
206.4	2
206.5	3
206.6	5
206.7	5
206.8	6
206.9	7
207.0	10
207.1	11
207.2	10
207.3	7
207.4	4
214.5	3
214.6	4
214.7	7
214.8	10
214.9	13
215.0	15
215.1	16
215.2	14
215.3	10
215.4	6
215.5	2
224.6	2
224.7	3
224.8	5
224.9	7
225.0	7
232.5	3
232.6	5
232.7	10
232.8	17
232.9	22
233.0	24
233.1	25
233.2	25
233.3	22
233.4	15
233.5	6
233.6	1
242.5	2
242.6	4
242.7	7
242.8	12
242.9	15
243.0	14
243.1	11
243.2	7
243.3	3
250.7	2
250.8	3
250.9	6
251.0	7
251.1	7
251.2	4
251.3	2
260.5	3
260.6	4
260.7	8
260.8	17
260.9	28
261.0	36
261.1	37
261.2	30
261.3	20
261.4	9
261.5	1
278.2	1
278.3	2
278.4	4
278.5	9
278.6	17
278.7	28
278.8	42
278.9	62
279.0	82
279.1	95
279.2	92
279.3	72
279.4	42
279.5	14
279.6	1
296.5	1
296.6	3
296.7	7
296.8	13
296.9	19
297.0	23
297.1	25
297.2	24
297.3	19
297.4	12
297.5	5
297.6	0
