Mass spectrum: Dihydrosamidin; LC-ESI-QQQ; MS2; Frag=135.0V CID@5.0; [M+NH4]+
Name: Dihydrosamidin
Class: Benzopyranoids
Formula: C21H24O7
Exact mass: 388.4212
SMILES: CC(=O)OC1c2c(ccc3ccc(=O)oc23)OC(C)(C)C1OC(=O)CC(C)C
InChI: InChI=1S/C21H24O7/c1-11(2)10-16(24)27-20-19(25-12(3)22)17-14(28-21(20,4)5)8-6-13-7-9-15(23)26-18(13)17/h6-9,11,19-20H,10H2,1-5H3
Instrument: Agilent 6410 Triple Quadrupole LC/MS system
Instrument type: LC-ESI-QQQ
Ms type: MS2
Ion mode: POSITIVE
Precursor type: [M+NH4]+
m/z	relative intensity
328.3	1
328.4	3
328.5	5
328.6	7
328.7	13
328.8	27
328.9	50
329.0	74
329.1	91
329.2	99
329.3	98
329.4	84
329.5	58
329.6	27
329.7	3
406.0	2
406.1	3
406.2	5
406.3	5
406.4	4
406.5	2
