Mass spectrum: Dihydroergocristine; LC-ESI-QQQ; MS2; Frag=135.0V CID@5.0; [M+H]+
Name: Dihydroergocristine
Class: Alkaloids
Formula: C35H41N5O5
Exact mass: 611.7475
SMILES: CC(C)[C@@]1(N=C(O)[C@@H]2C[C@@H]3c4cccc5[nH]cc(c45)C[C@H]3N(C)C2)O[C@@]2(O)[C@@H]3CCCN3C(=O)[C@H](Cc3ccccc3)N2C1=O
InChI: InChI=1S/C35H41N5O5/c1-20(2)34(37-31(41)23-16-25-24-11-7-12-26-30(24)22(18-36-26)17-27(25)38(3)19-23)33(43)40-28(15-21-9-5-4-6-10-21)32(42)39-14-8-13-29(39)35(40,44)45-34/h4-7,9-12,18,20,23,25,27-29,36,44H,8,13-17,19H2,1-3H3,(H,37,41)/t23-,25-,27-,28+,29+,34-,35+/m1/s1
Instrument: Agilent 6410 Triple Quadrupole LC/MS system
Instrument type: LC-ESI-QQQ
Ms type: MS2
Ion mode: POSITIVE
Precursor type: [M+H]+
m/z	relative intensity
611.3	0
611.4	1
611.5	4
611.6	9
611.7	18
611.8	31
611.9	48
612.0	66
612.1	82
612.2	94
612.3	99
612.4	97
612.5	85
612.6	60
612.7	32
612.8	9
612.9	0
