Mass spectrum: Eudesmin; LC-ESI-QQQ; MS; [M+H]+
Name: Eudesmin
Class: Lignans
Formula: C22H26O6
Exact mass: 386.4489
SMILES: COc1ccc([C@H]2OC[C@@H]3[C@@H](c4ccc(OC)c(OC)c4)OC[C@H]23)cc1OC
InChI: InChI=1S/C22H26O6/c1-23-17-7-5-13(9-19(17)25-3)21-15-11-28-22(16(15)12-27-21)14-6-8-18(24-2)20(10-14)26-4/h5-10,15-16,21-22H,11-12H2,1-4H3/t15-,16-,21+,22+/m0/s1
Instrument: ABSciex API3200 LC/MS system
Instrument type: LC-ESI-QQQ
Ms type: MS
Ion mode: POSITIVE
Precursor type: [M+H]+
m/z	relative intensity
101.2000	24
101.3000	26
101.4000	24
118.8000	27
118.9000	30
119.0000	25
135.7000	26
150.4000	76
150.5000	207
150.6000	274
150.7000	380
150.8000	285
150.9000	274
151.0000	288
151.1000	287
151.2000	251
151.3000	231
151.4000	209
151.5000	79
151.6000	38
151.7000	21
151.8000	24
151.9000	30
152.0000	28
152.1000	28
152.2000	30
152.3000	22
152.4000	23
171.6000	34
171.7000	24
172.0000	28
173.4000	42
173.5000	86
173.6000	131
173.7000	222
173.8000	97
173.9000	103
174.0000	90
174.1000	82
174.2000	85
174.3000	76
174.4000	74
174.5000	35
174.6000	21
174.7000	24
174.8000	27
174.9000	22
175.0000	21
187.5000	24
187.6000	26
187.7000	30
187.8000	31
187.9000	30
188.0000	26
188.1000	27
188.2000	43
188.3000	96
188.4000	215
188.5000	444
188.6000	574
188.7000	645
188.8000	692
188.9000	716
189.0000	662
189.1000	604
189.2000	617
189.3000	529
189.4000	509
189.5000	309
189.6000	142
189.7000	110
189.8000	121
189.9000	116
190.0000	106
190.1000	100
190.2000	90
190.3000	88
190.4000	83
190.5000	40
190.6000	27
190.7000	30
190.8000	30
190.9000	31
191.0000	29
191.1000	21
200.4000	42
200.5000	126
200.6000	176
200.7000	199
200.8000	222
200.9000	213
201.0000	216
201.1000	205
201.2000	232
201.3000	179
201.4000	174
201.5000	95
201.6000	38
201.7000	31
201.8000	35
201.9000	32
202.0000	27
202.1000	36
202.2000	32
202.3000	28
202.4000	59
202.5000	115
202.6000	184
202.7000	141
202.8000	163
202.9000	171
203.0000	167
203.1000	170
203.2000	152
203.3000	125
203.4000	139
203.5000	84
203.6000	27
203.7000	31
203.8000	30
203.9000	24
204.0000	23
204.1000	26
204.2000	21
204.3000	21
204.4000	23
218.4000	75
218.5000	161
218.6000	178
218.7000	194
218.8000	231
218.9000	259
219.0000	234
219.1000	238
219.2000	220
219.3000	198
219.4000	177
219.5000	79
219.6000	44
219.7000	30
219.8000	38
219.9000	38
220.0000	31
220.1000	30
220.2000	34
220.3000	53
220.4000	45
230.4000	28
230.5000	72
230.6000	93
230.7000	109
230.8000	115
230.9000	110
231.0000	109
231.1000	144
231.2000	119
231.3000	91
231.4000	93
231.5000	38
231.6000	22
248.4000	161
248.5000	500
248.6000	704
248.7000	772
248.8000	965
248.9000	792
249.0000	707
249.1000	696
249.2000	691
249.3000	613
249.4000	532
249.5000	257
249.6000	194
249.7000	154
249.8000	177
249.9000	200
250.0000	129
250.1000	136
250.2000	121
250.3000	110
250.4000	88
250.5000	47
250.6000	30
267.6000	40
267.7000	28
267.8000	28
267.9000	22
268.0000	23
268.2000	21
282.5000	24
282.6000	31
282.7000	22
282.8000	21
282.9000	22
283.2000	25
283.3000	26
297.3000	28
297.4000	93
297.5000	175
297.6000	211
297.7000	243
297.8000	251
297.9000	258
298.0000	273
298.1000	251
298.2000	258
298.3000	213
298.4000	230
298.5000	159
298.6000	174
298.7000	155
298.8000	169
298.9000	307
299.0000	190
299.1000	141
299.2000	133
299.3000	133
299.4000	113
299.5000	49
299.6000	44
299.7000	27
299.8000	29
299.9000	29
300.0000	31
300.1000	24
300.2000	31
304.8000	21
305.0000	21
310.7000	27
310.8000	21
310.9000	25
311.0000	22
311.1000	23
311.2000	21
311.3000	23
311.4000	23
318.5000	37
318.6000	32
318.7000	37
318.8000	33
318.9000	34
319.0000	31
319.1000	28
319.2000	33
319.3000	31
319.4000	51
319.5000	54
319.6000	81
319.7000	74
319.8000	78
319.9000	97
320.0000	87
320.1000	87
320.2000	73
320.3000	61
320.4000	58
320.5000	36
320.6000	27
320.7000	29
320.8000	31
320.9000	26
321.0000	30
321.1000	48
321.2000	26
321.3000	21
323.6000	35
323.8000	21
324.2000	23
335.6000	25
335.7000	28
335.8000	29
335.9000	29
336.0000	30
336.1000	33
336.2000	49
336.3000	25
336.6000	21
338.4000	26
338.5000	43
338.6000	61
338.7000	75
338.8000	66
338.9000	65
339.0000	59
339.1000	63
339.2000	67
339.3000	50
339.4000	50
339.5000	24
340.8000	29
340.9000	30
341.0000	21
350.4000	63
350.5000	154
350.6000	224
350.7000	282
350.8000	320
350.9000	312
351.0000	320
351.1000	323
351.2000	294
351.3000	274
351.4000	279
351.5000	114
351.6000	92
351.7000	94
351.8000	75
351.9000	77
352.0000	76
352.1000	82
352.2000	77
352.3000	66
352.4000	53
353.2000	22
368.3000	73
368.4000	261
368.5000	588
368.6000	775
368.7000	913
368.8000	944
368.9000	992
369.0000	999
369.1000	943
369.2000	929
369.3000	825
369.4000	762
369.5000	404
369.6000	306
369.7000	304
369.8000	328
369.9000	299
370.0000	302
370.1000	296
370.2000	263
370.3000	246
370.4000	228
370.5000	94
370.6000	72
370.7000	57
370.8000	47
370.9000	50
371.0000	51
371.1000	46
371.2000	49
371.3000	54
371.4000	38
384.6000	29
384.7000	31
384.8000	32
384.9000	32
385.0000	31
385.1000	28
385.2000	26
385.3000	21
385.9000	23
386.4000	48
386.5000	126
386.6000	253
386.7000	302
386.8000	315
386.9000	324
387.0000	346
387.1000	317
387.2000	321
387.3000	297
387.4000	253
387.5000	106
387.6000	100
387.7000	98
387.8000	91
387.9000	90
388.0000	92
388.1000	91
388.2000	93
388.3000	77
388.4000	62
388.5000	28
403.5000	25
403.6000	32
403.7000	39
403.8000	48
403.9000	48
404.0000	47
404.1000	50
404.2000	46
404.3000	38
404.4000	31
427.6000	26
427.7000	22
427.8000	30
427.9000	30
428.0000	27
428.1000	25
428.2000	28
428.3000	24
428.4000	23
772.4000	51
772.5000	133
772.6000	221
772.7000	261
772.8000	299
772.9000	314
773.0000	329
773.1000	319
773.2000	306
773.3000	246
773.4000	159
773.5000	105
773.6000	129
773.7000	138
773.8000	148
773.9000	161
774.0000	171
774.1000	301
774.2000	183
774.3000	136
774.4000	81
774.5000	36
774.6000	41
774.7000	47
774.8000	45
774.9000	38
775.0000	47
775.1000	48
775.2000	40
775.3000	33
789.9000	22
790.0000	24
