Mass spectrum: Tazettine; LC-ESI-QQQ; MS2; Frag=135.0V CID@10.0; [M+H]+
Name: Tazettine
Class: Alkaloids
Formula: C18H21NO5
Exact mass: 331.3718
SMILES: CO[C@@H]1C=C[C@@]23c4cc5c(cc4CO[C@]2(O)CN(C)[C@@H]3C1)OCO5
InChI: InChI=1S/C18H21NO5/c1-19-9-18(20)17(4-3-12(21-2)6-16(17)19)13-7-15-14(22-10-23-15)5-11(13)8-24-18/h3-5,7,12,16,20H,6,8-10H2,1-2H3/t12-,16-,17+,18-/m1/s1
Instrument: Agilent 6410 Triple Quadrupole LC/MS system
Instrument type: LC-ESI-QQQ
Ms type: MS2
Ion mode: POSITIVE
Precursor type: [M+H]+
m/z	relative intensity
313.3	0
313.4	2
313.5	5
313.6	9
313.7	17
313.8	32
313.9	55
314.0	78
314.1	94
314.2	99
314.3	92
314.4	71
314.5	43
314.6	15
314.7	0
331.6	2
331.7	3
331.8	7
331.9	12
332.0	17
332.1	21
332.2	22
332.3	21
332.4	18
332.5	12
332.6	5
332.7	0
