Mass spectrum: Adrenoglomerulotropin; LC-ESI-QQQ; MS2; Frag=135.0V CID@15.0; [M+H]+
Name: Adrenoglomerulotropin
Class: Alkaloids
Formula: C13H16N2O
Exact mass: 216.2853
SMILES: COc1ccc2[nH]c3c(c2c1)CCN[C@H]3C
InChI: InChI=1S/C13H16N2O/c1-8-13-10(5-6-14-8)11-7-9(16-2)3-4-12(11)15-13/h3-4,7-8,14-15H,5-6H2,1-2H3/t8-/m0/s1
Instrument: Agilent 6410 Triple Quadrupole LC/MS system
Instrument type: LC-ESI-QQQ
Ms type: MS2
Ion mode: POSITIVE
Precursor type: [M+H]+
m/z	relative intensity
156.7	2
156.8	3
156.9	4
157.0	6
157.1	6
157.2	5
157.3	4
168.7	3
168.8	4
168.9	7
169.0	9
169.1	10
169.2	10
169.3	9
169.4	8
169.5	5
172.5	1
172.6	2
172.7	4
172.8	7
172.9	10
173.0	11
173.1	12
173.2	12
173.3	11
173.4	10
173.5	9
173.6	9
173.7	11
173.8	17
173.9	24
174.0	30
174.1	34
174.2	35
174.3	32
174.4	26
174.5	16
174.6	6
174.7	0
184.5	2
184.6	3
184.7	5
184.8	8
184.9	12
185.0	15
185.1	16
185.2	17
185.3	16
185.4	12
185.5	6
185.6	1
187.3	0
187.4	2
187.5	6
187.6	13
187.7	24
187.8	40
187.9	57
188.0	74
188.1	85
188.2	89
188.3	83
188.4	67
188.5	41
188.6	16
188.7	1
199.3	0
199.4	3
199.5	9
199.6	18
199.7	32
199.8	49
199.9	68
200.0	86
200.1	98
200.2	99
200.3	89
200.4	68
200.5	39
200.6	13
200.7	0
