Mass spectrum: Steviobioside; LC-ESI-QQQ; MS; [M+H]+
Name: Steviobioside
Class: Terpenoids
Formula: C32H50O13
Exact mass: 642.7475
SMILES: C=C1CC23CCC4[C@@](C)(C(=O)O)CCC[C@]4(C)C2CCC1(O[C@@H]1O[C@H](CO)[C@@H](O)[C@H](O)[C@H]1O[C@@H]1O[C@H](CO)[C@@H](O)[C@H](O)[C@H]1O)C3
InChI: InChI=1S/C32H50O13/c1-15-11-31-9-5-18-29(2,7-4-8-30(18,3)28(40)41)19(31)6-10-32(15,14-31)45-27-25(23(38)21(36)17(13-34)43-27)44-26-24(39)22(37)20(35)16(12-33)42-26/h16-27,33-39H,1,4-14H2,2-3H3,(H,40,41)/t16-,17-,18?,19?,20-,21-,22+,23+,24-,25-,26+,27+,29+,30+,31?,32?/m1/s1
Instrument: ABSciex API3200 LC/MS system
Instrument type: LC-ESI-QQQ
Ms type: MS
Ion mode: POSITIVE
Precursor type: [M+H]+
m/z	relative intensity
101.5000	42
101.6000	26
101.7000	24
126.6000	21
126.7000	25
126.8000	43
126.9000	23
127.0000	36
127.1000	24
127.2000	24
127.3000	26
127.4000	33
144.5000	71
144.6000	84
144.7000	93
144.8000	137
144.9000	182
145.0000	82
145.1000	88
145.2000	101
145.3000	68
145.4000	58
145.5000	27
148.6000	24
148.8000	54
159.9000	21
160.0000	22
162.5000	92
162.6000	138
162.7000	174
162.8000	169
162.9000	163
163.0000	183
163.1000	170
163.2000	152
163.3000	136
163.4000	101
163.5000	40
225.7000	34
225.9000	26
226.1000	27
271.0000	23
288.8000	25
288.9000	28
289.4000	22
300.7000	21
301.0000	32
301.1000	25
301.4000	27
310.6000	21
318.5000	43
318.6000	84
318.7000	207
318.8000	295
318.9000	285
319.0000	284
319.1000	285
319.2000	278
319.3000	276
319.4000	246
319.5000	287
319.6000	78
319.7000	49
319.8000	60
319.9000	47
320.0000	85
320.1000	51
320.2000	85
320.3000	90
320.4000	68
320.5000	80
320.6000	26
324.4000	134
324.5000	358
324.6000	662
324.7000	814
324.8000	999
324.9000	813
325.0000	830
325.1000	732
325.2000	697
325.3000	551
325.4000	366
325.5000	202
325.6000	142
325.7000	93
325.8000	88
325.9000	95
326.0000	88
326.1000	74
326.2000	114
326.3000	95
326.4000	75
326.6000	39
326.7000	37
326.8000	26
326.9000	29
327.1000	33
327.2000	35
342.0000	29
359.8000	37
359.9000	28
360.0000	23
360.1000	30
360.3000	26
360.4000	22
360.5000	21
365.6000	31
365.7000	56
365.8000	63
365.9000	65
366.0000	42
366.1000	41
366.2000	44
366.3000	41
366.4000	34
390.9000	25
432.9000	69
480.6000	38
480.7000	79
480.8000	96
480.9000	158
481.0000	145
481.1000	138
481.2000	105
481.3000	124
481.4000	94
481.5000	52
481.6000	25
481.7000	26
481.8000	37
481.9000	34
482.0000	36
482.2000	35
482.3000	28
482.4000	38
486.7000	32
486.8000	29
486.9000	28
487.0000	35
487.1000	26
487.4000	21
642.5000	34
642.6000	151
642.7000	327
642.8000	478
642.9000	534
643.0000	495
643.1000	658
643.2000	683
643.3000	513
643.4000	334
643.5000	122
643.6000	101
643.7000	159
643.8000	162
643.9000	183
644.0000	201
644.1000	201
644.2000	185
644.3000	163
644.4000	112
644.5000	41
644.6000	41
644.7000	62
644.8000	41
644.9000	44
645.0000	47
645.1000	51
645.2000	48
645.3000	34
645.4000	45
648.5000	30
648.6000	44
648.7000	26
648.8000	59
648.9000	135
649.0000	84
649.1000	39
649.2000	44
649.3000	28
659.5000	25
659.6000	59
659.7000	126
659.8000	125
659.9000	146
660.0000	201
660.1000	148
660.2000	169
660.3000	145
660.4000	113
660.5000	46
660.6000	65
660.7000	107
660.8000	79
660.9000	88
661.0000	100
661.1000	98
661.2000	103
661.3000	84
661.4000	71
661.5000	35
661.7000	27
661.8000	33
661.9000	35
662.0000	42
662.1000	35
662.3000	28
662.4000	38
966.6000	32
966.7000	45
966.8000	56
966.9000	92
967.0000	78
967.1000	63
967.2000	76
967.3000	43
967.4000	61
967.5000	31
967.6000	31
967.7000	33
967.8000	30
967.9000	21
968.0000	23
968.1000	33
968.2000	29
968.4000	40
1284.4000	41
1284.5000	44
1284.6000	78
1284.7000	104
1284.8000	127
1284.9000	120
1285.0000	131
1285.1000	150
1285.2000	183
1285.3000	173
1285.4000	192
1285.5000	187
1285.6000	123
1285.7000	124
1285.8000	132
1285.9000	138
1286.0000	120
1286.1000	117
1286.2000	126
1286.3000	126
1286.4000	141
1286.5000	115
1286.6000	92
1286.7000	58
1286.8000	53
1286.9000	71
1287.0000	53
1287.1000	44
1287.2000	45
1287.3000	51
1287.4000	31
1287.5000	47
1287.6000	31
1288.0000	21
1288.1000	31
1288.3000	25
1288.4000	35
1288.5000	27
1293.8000	23
1293.9000	23
1294.0000	21
1294.1000	25
1294.3000	21
1294.4000	29
1301.9000	33
1302.1000	39
1302.2000	43
1302.3000	41
1302.4000	47
1302.5000	42
1302.6000	22
1302.8000	39
1303.0000	38
1303.1000	25
1303.3000	31
1303.4000	35
1303.6000	24
1303.7000	35
1304.4000	21
