Mass spectrum: N-Methylisothebainium; LC-ESI-QQQ; MS; [M+H]+
Name: N-Methylisothebainium
Class: Alkaloids
Formula: [C20H24NO3]+
Exact mass: 326.4192
SMILES: COc1cc2c3c(c1O)-c1c(cccc1OC)CC3[N+](C)(C)CC2
InChI: InChI=1S/C20H23NO3/c1-21(2)9-8-13-11-16(24-4)20(22)19-17(13)14(21)10-12-6-5-7-15(23-3)18(12)19/h5-7,11,14H,8-10H2,1-4H3/p+1
Instrument: ABSciex API3200 LC/MS system
Instrument type: LC-ESI-QQQ
Ms type: MS
Ion mode: POSITIVE
Precursor type: [M]+
m/z	relative intensity
206.6000	24
206.7000	30
206.8000	27
206.9000	32
207.0000	29
207.1000	35
207.2000	31
207.3000	36
207.4000	27
220.7000	23
248.5000	25
248.6000	53
248.7000	59
248.8000	67
248.9000	58
249.0000	70
249.1000	62
249.2000	57
249.3000	50
249.4000	46
249.5000	21
250.6000	27
250.7000	31
250.8000	31
250.9000	30
251.0000	31
251.1000	38
251.2000	31
251.3000	26
251.4000	24
252.6000	22
252.9000	22
253.1000	24
253.2000	26
253.3000	22
253.4000	25
265.5000	29
265.6000	40
265.7000	52
265.8000	52
265.9000	60
266.0000	60
266.1000	58
266.2000	56
266.3000	53
266.4000	43
267.6000	26
267.7000	30
267.8000	31
267.9000	33
268.0000	33
268.1000	35
268.2000	25
268.3000	24
280.4000	33
280.5000	115
280.6000	196
280.7000	252
280.8000	264
280.9000	312
281.0000	272
281.1000	286
281.2000	276
281.3000	208
281.4000	180
281.5000	84
281.6000	74
281.7000	57
281.8000	52
281.9000	54
282.0000	52
282.1000	49
282.2000	57
282.3000	47
282.4000	53
282.5000	91
282.6000	109
282.7000	149
282.8000	167
282.9000	161
283.0000	144
283.1000	155
283.2000	180
283.3000	155
283.4000	102
283.5000	44
283.6000	31
283.7000	29
283.8000	28
283.9000	31
284.0000	27
284.1000	31
284.2000	38
284.3000	27
294.7000	23
294.8000	25
294.9000	25
295.0000	22
295.1000	29
295.2000	25
295.3000	22
307.8000	27
307.9000	26
308.0000	25
308.1000	25
308.2000	27
308.3000	22
324.6000	22
324.7000	24
324.8000	26
324.9000	27
325.0000	33
325.1000	30
325.2000	57
325.3000	33
325.4000	130
325.5000	495
325.6000	850
325.7000	971
325.8000	985
325.9000	999
326.0000	967
326.1000	921
326.2000	924
326.3000	930
326.4000	783
326.5000	502
326.6000	340
326.7000	374
326.8000	371
326.9000	369
327.0000	400
327.1000	422
327.2000	355
327.3000	350
327.4000	320
327.5000	201
327.6000	99
327.7000	81
327.8000	81
327.9000	85
328.0000	78
328.1000	93
328.2000	72
328.3000	69
328.4000	54
328.5000	23
357.7000	24
357.8000	23
357.9000	28
358.0000	27
358.1000	24
358.2000	24
358.3000	23
358.4000	22
