Mass spectrum: 3,3',4,4'-tetrahydroxylignan; LC-ESI-QQQ; MS2; Frag=135.0V CID@15.0; [M+H]+
Name: 3,3',4,4'-tetrahydroxylignan
Class: Lignans
Formula: C18H22O4
Exact mass: 302.3736
SMILES: CC(Cc1ccc(O)c(O)c1)C(C)Cc1ccc(O)c(O)c1
InChI: InChI=1S/C18H22O4/c1-11(7-13-3-5-15(19)17(21)9-13)12(2)8-14-4-6-16(20)18(22)10-14/h3-6,9-12,19-22H,7-8H2,1-2H3
Instrument: Agilent 6410 Triple Quadrupole LC/MS system
Instrument type: LC-ESI-QQQ
Ms type: MS2
Ion mode: POSITIVE
Precursor type: [M+H]+
m/z	relative intensity
122.2	1
122.3	2
122.4	6
122.5	14
122.6	28
122.7	46
122.8	67
122.9	88
123.0	99
123.1	98
123.2	87
123.3	69
123.4	46
123.5	23
123.6	5
132.5	1
132.6	2
132.7	3
132.8	5
132.9	6
133.0	7
133.1	6
133.2	5
133.3	4
133.4	2
174.5	0
174.6	2
174.7	5
174.8	11
174.9	15
175.0	18
175.1	17
175.2	15
175.3	12
175.4	8
175.5	4
175.6	1
192.5	2
192.6	3
192.7	4
192.8	7
192.9	10
193.0	14
193.1	16
193.2	15
193.3	13
193.4	10
193.5	5
193.6	1
