Mass spectrum: Rosamicin; LC-ESI-QQQ; MS2; Frag=135.0V CID@25.0; [M+H]+
Name: Rosamicin
Class: Polyketides
Formula: C31H51NO9
Exact mass: 581.7534
SMILES: CC[C@H]1OC(=O)C[C@@H](O)[C@H](C)[C@@H](O[C@@H]2O[C@H](C)C[C@H](N(C)C)C2O)[C@@H](CC=O)C[C@@H](C)C(=O)/C=C/[C@]2(C)O[C@H]2[C@@H]1C
InChI: InChI=1S/C31H51NO9/c1-9-25-20(5)29-31(6,41-29)12-10-23(34)17(2)14-21(11-13-33)28(19(4)24(35)16-26(36)39-25)40-30-27(37)22(32(7)8)15-18(3)38-30/h10,12-13,17-22,24-25,27-30,35,37H,9,11,14-16H2,1-8H3/b12-10+/t17-,18-,19+,20-,21+,22+,24-,25-,27?,28-,29+,30+,31+/m1/s1
Instrument: Agilent 6410 Triple Quadrupole LC/MS system
Instrument type: LC-ESI-QQQ
Ms type: MS2
Ion mode: POSITIVE
Precursor type: [M+H]+
m/z	relative intensity
97.6	1
97.7	3
97.8	4
97.9	5
98.0	6
98.1	7
98.2	6
98.3	5
98.4	4
98.5	2
115.4	1
115.5	2
115.6	4
115.7	8
115.8	11
115.9	15
116.0	18
116.1	19
116.2	18
116.3	15
116.4	11
116.5	6
116.6	2
157.3	0
157.4	3
157.5	8
157.6	16
157.7	29
157.8	47
157.9	68
158.0	87
158.1	98
158.2	99
158.3	91
158.4	74
158.5	49
158.6	23
158.7	4
