Mass spectrum: taxifolin; LC-ESI-QQQ; MS2; Frag=135.0V CID@10.0; [M+H]+
Name: Dihydro-Quer
Name: Taxifolin
Name: (2R,3R)-3,3',4',5,7-Pentahydroxyflavanone
Name: trans-Dihydroquercetin
Name: Distylin
Name: Taxifoliol
Name: Catechin
Name: taxifolin
Class: Flavonoids
Formula: C15H12O7
Exact mass: 304.2587
SMILES: O=C1c2c(O)cc(O)cc2OC(c2ccc(O)c(O)c2)C1O
InChI: InChI=1S/C15H12O7/c16-7-4-10(19)12-11(5-7)22-15(14(21)13(12)20)6-1-2-8(17)9(18)3-6/h1-5,14-19,21H
Instrument: Agilent 6410 Triple Quadrupole LC/MS system
Instrument type: LC-ESI-QQQ
Ms type: MS2
Ion mode: POSITIVE
Precursor type: [M+H]+
m/z	relative intensity
122.3	0
122.4	2
122.5	5
122.6	7
122.7	10
122.8	13
122.9	16
123.0	20
123.1	21
123.2	20
123.3	16
123.4	9
123.5	3
148.3	0
148.4	1
148.5	4
148.6	10
148.7	17
148.8	24
148.9	29
149.0	30
149.1	30
149.2	29
149.3	24
149.4	16
149.5	6
149.6	1
152.2	0
152.3	2
152.4	5
152.5	12
152.6	23
152.7	38
152.8	56
152.9	69
153.0	75
153.1	75
153.2	71
153.3	62
153.4	46
153.5	25
153.6	7
153.7	0
160.6	1
160.7	3
160.8	4
160.9	5
161.0	6
161.1	6
161.2	4
161.3	2
166.6	1
166.7	3
166.8	5
166.9	7
167.0	8
167.1	9
167.2	9
167.3	8
167.4	4
167.5	1
178.6	2
178.7	3
178.8	4
178.9	5
179.0	6
179.1	6
179.2	6
179.3	4
179.4	2
194.4	2
194.5	3
194.6	6
194.7	11
194.8	18
194.9	26
195.0	32
195.1	34
195.2	33
195.3	29
195.4	19
195.5	8
195.6	0
230.4	1
230.5	3
230.6	5
230.7	9
230.8	15
230.9	21
231.0	27
231.1	29
231.2	28
231.3	24
231.4	17
231.5	8
231.6	2
258.2	1
258.3	3
258.4	7
258.5	14
258.6	25
258.7	40
258.8	60
258.9	79
259.0	93
259.1	99
259.2	96
259.3	81
259.4	55
259.5	26
259.6	4
286.3	0
286.4	2
286.5	4
286.6	7
286.7	10
286.8	16
286.9	22
287.0	27
287.1	30
287.2	28
287.3	23
287.4	14
287.5	6
287.6	0
304.3	0
304.4	2
304.5	4
304.6	7
304.7	10
304.8	13
304.9	17
305.0	21
305.1	26
305.2	28
305.3	25
305.4	16
305.5	6
305.6	0
