Mass spectrum: 11-Deoxy-PGE1.; LC-ESI-QQQ; MS2; Frag=135.0V CID@5.0; [M+Na]+
Name: 11-Deoxy-PGE1.
Class: Aliphatic natural products
Formula: C20H34O4
Exact mass: 338.4916
SMILES: CCCCC[C@H](O)/C=C/[C@H]1CCC(=O)[C@@H]1CCCCCCC(=O)O
InChI: InChI=1S/C20H34O4/c1-2-3-6-9-17(21)14-12-16-13-15-19(22)18(16)10-7-4-5-8-11-20(23)24/h12,14,16-18,21H,2-11,13,15H2,1H3,(H,23,24)/b14-12+/t16-,17-,18+/m0/s1
Instrument: Agilent 6410 Triple Quadrupole LC/MS system
Instrument type: LC-ESI-QQQ
Ms type: MS2
Ion mode: POSITIVE
Precursor type: [M+Na]+
m/z	relative intensity
360.4	0
360.5	3
360.6	6
360.7	14
360.8	26
360.9	44
361.0	64
361.1	82
361.2	95
361.3	99
361.4	92
361.5	70
361.6	40
361.7	12
361.8	0
