Mass spectrum: 3,3',4,4'-tetrahydroxylignan; LC-ESI-QQQ; MS2; Frag=135.0V CID@10.0; [M+H]+
Name: 3,3',4,4'-tetrahydroxylignan
Class: Lignans
Formula: C18H22O4
Exact mass: 302.3736
SMILES: CC(Cc1ccc(O)c(O)c1)C(C)Cc1ccc(O)c(O)c1
InChI: InChI=1S/C18H22O4/c1-11(7-13-3-5-15(19)17(21)9-13)12(2)8-14-4-6-16(20)18(22)10-14/h3-6,9-12,19-22H,7-8H2,1-2H3
Instrument: Agilent 6410 Triple Quadrupole LC/MS system
Instrument type: LC-ESI-QQQ
Ms type: MS2
Ion mode: POSITIVE
Precursor type: [M+H]+
m/z	relative intensity
122.2	0
122.3	3
122.4	10
122.5	21
122.6	35
122.7	51
122.8	70
122.9	88
123.0	99
123.1	99
123.2	91
123.3	77
123.4	56
123.5	31
123.6	10
123.7	0
132.5	0
132.6	1
132.7	4
132.8	7
132.9	9
133.0	8
133.1	7
133.2	6
133.3	4
133.4	3
133.5	2
174.3	0
174.4	1
174.5	3
174.6	6
174.7	10
174.8	15
174.9	20
175.0	24
175.1	27
175.2	30
175.3	29
175.4	25
175.5	16
175.6	6
175.7	0
192.2	1
192.3	2
192.4	3
192.5	6
192.6	10
192.7	19
192.8	33
192.9	49
193.0	65
193.1	78
193.2	86
193.3	86
193.4	75
193.5	52
193.6	25
193.7	4
193.8	0
