Mass spectrum: Speciosine; LC-ESI-QQQ; MS; [M+H]+
Name: Speciozine
Name: Speciosin
Name: Speciozin
Name: (7S)-7-(((2-hydroxyphenyl)methyl)methylamino)-1,2,3,10-tetramethoxy-5,6,7-trihydrobenzo(a)heptalen-9-one
Name: Speciosine
Class: Alkaloids
Formula: C28H31NO6
Exact mass: 477.5624
SMILES: COc1cc2c(c(OC)c1OC)-c1ccc(OC)c(=O)cc1[C@@H](N(C)Cc1ccccc1O)CC2
InChI: InChI=1S/C28H31NO6/c1-29(16-18-8-6-7-9-22(18)30)21-12-10-17-14-25(33-3)27(34-4)28(35-5)26(17)19-11-13-24(32-2)23(31)15-20(19)21/h6-9,11,13-15,21,30H,10,12,16H2,1-5H3/t21-/m0/s1
Instrument: ABSciex API3200 LC/MS system
Instrument type: LC-ESI-QQQ
Ms type: MS
Ion mode: POSITIVE
Precursor type: [M+H]+
m/z	relative intensity
135.5000	21
135.6000	27
135.7000	25
135.8000	41
135.9000	34
136.0000	28
136.1000	32
136.2000	21
136.3000	29
269.5000	29
269.6000	26
281.5000	22
281.6000	21
281.7000	23
281.8000	34
281.9000	23
282.0000	23
282.1000	23
282.3000	30
282.4000	22
293.5000	25
299.7000	21
301.3000	40
308.6000	27
308.7000	34
308.8000	32
308.9000	31
309.0000	23
309.1000	28
309.2000	32
309.3000	37
309.4000	51
309.5000	66
309.6000	98
309.7000	113
309.8000	102
309.9000	105
310.0000	99
310.1000	119
310.2000	101
310.3000	69
310.4000	82
310.5000	51
310.6000	59
310.7000	59
310.8000	52
310.9000	52
311.0000	50
311.1000	66
311.2000	45
311.3000	56
311.4000	46
311.5000	41
311.6000	51
311.7000	48
311.8000	56
311.9000	64
312.0000	58
312.1000	51
312.2000	54
312.3000	42
312.4000	45
312.5000	40
312.6000	40
312.7000	36
312.8000	34
312.9000	50
313.0000	27
313.1000	30
313.2000	27
313.3000	25
313.4000	32
313.5000	23
314.4000	25
314.5000	36
314.6000	58
314.7000	53
314.8000	61
314.9000	61
315.0000	69
315.1000	61
315.2000	64
315.3000	39
315.4000	43
315.5000	27
315.6000	23
315.7000	21
323.7000	23
323.8000	21
324.1000	24
324.3000	28
324.4000	30
324.5000	39
324.6000	36
324.7000	45
324.8000	49
324.9000	47
325.0000	36
325.1000	42
325.2000	31
325.3000	37
325.4000	62
325.5000	69
325.6000	88
325.7000	144
325.8000	74
325.9000	61
326.0000	54
326.1000	58
326.2000	48
326.3000	43
326.4000	47
326.5000	22
327.1000	32
339.3000	26
339.4000	61
339.5000	129
339.6000	127
339.7000	144
339.8000	140
339.9000	231
340.0000	159
340.1000	157
340.2000	141
340.3000	144
340.4000	166
340.5000	143
340.6000	182
340.7000	172
340.8000	171
340.9000	167
341.0000	157
341.1000	174
341.2000	164
341.3000	142
341.4000	129
341.5000	67
341.6000	55
341.7000	63
341.8000	52
341.9000	73
342.0000	52
342.1000	142
342.2000	183
342.3000	33
342.6000	34
342.7000	37
342.8000	32
342.9000	31
343.0000	36
343.1000	42
343.2000	38
343.3000	34
343.4000	34
343.5000	34
343.6000	33
343.7000	43
343.8000	40
343.9000	48
344.0000	74
344.1000	44
344.2000	34
344.3000	32
344.4000	21
353.7000	21
353.9000	21
356.6000	25
356.8000	24
371.3000	68
371.4000	342
371.5000	692
371.6000	793
371.7000	852
371.8000	907
371.9000	913
372.0000	892
372.1000	879
372.2000	919
372.3000	802
372.4000	718
372.5000	442
372.6000	403
372.7000	412
372.8000	437
372.9000	465
373.0000	426
373.1000	441
373.2000	429
373.3000	390
373.4000	369
373.5000	175
373.6000	135
373.7000	112
373.8000	120
373.9000	103
374.0000	111
374.1000	115
374.2000	108
374.3000	91
374.4000	86
374.5000	32
477.3000	208
477.4000	545
477.5000	748
477.6000	839
477.7000	892
477.8000	927
477.9000	983
478.0000	999
478.1000	978
478.2000	969
478.3000	907
478.4000	730
478.5000	580
478.6000	602
478.7000	522
478.8000	554
478.9000	590
479.0000	593
479.1000	562
479.2000	528
479.3000	506
479.4000	384
479.5000	232
479.6000	220
479.7000	210
479.8000	190
479.9000	177
480.0000	180
480.1000	183
480.2000	161
480.3000	142
480.4000	98
480.5000	38
480.6000	36
480.7000	37
480.8000	33
480.9000	25
481.0000	28
481.1000	22
481.2000	26
518.6000	35
518.7000	56
518.8000	57
518.9000	78
519.0000	70
519.1000	67
519.2000	50
519.3000	35
954.4000	23
954.5000	43
954.6000	40
954.7000	45
954.8000	58
954.9000	59
955.0000	59
955.1000	56
955.2000	56
955.3000	50
955.4000	50
955.5000	36
955.6000	32
955.7000	35
955.8000	39
955.9000	25
956.0000	40
956.1000	26
956.2000	29
956.3000	23
