Mass spectrum: Echisoside; LC-ESI-QQQ; MS2; Frag=135.0V CID@10.0; [M+H]+
Name: Echisoside
Class: Carbohydrates
Formula: C21H30O14
Exact mass: 506.4649
SMILES: COc1cc(O)c(C(C)=O)c(O[C@@H]2O[C@H](CO[C@@H]3O[C@H](CO)[C@@H](O)[C@H](O)[C@H]3O)[C@@H](O)[C@H](O)[C@H]2O)c1
InChI: InChI=1S/C21H30O14/c1-7(23)13-9(24)3-8(31-2)4-10(13)33-21-19(30)17(28)15(26)12(35-21)6-32-20-18(29)16(27)14(25)11(5-22)34-20/h3-4,11-12,14-22,24-30H,5-6H2,1-2H3/t11-,12-,14-,15-,16+,17+,18-,19-,20-,21-/m1/s1
Instrument: Agilent 6410 Triple Quadrupole LC/MS system
Instrument type: LC-ESI-QQQ
Ms type: MS2
Ion mode: POSITIVE
Precursor type: [M+H]+
m/z	relative intensity
182.3	0
182.4	1
182.5	7
182.6	19
182.7	36
182.8	56
182.9	76
183.0	90
183.1	90
183.2	72
183.3	44
183.4	18
183.5	3
194.7	4
194.8	6
194.9	8
195.0	10
195.1	10
195.2	8
195.3	4
206.5	2
206.6	4
206.7	10
206.8	20
206.9	28
207.0	31
207.1	26
207.2	17
207.3	9
207.4	2
224.2	1
224.3	4
224.4	8
224.5	13
224.6	20
224.7	34
224.8	58
224.9	85
225.0	99
225.1	98
225.2	87
225.3	69
225.4	43
225.5	16
225.6	0
248.4	1
248.5	4
248.6	9
248.7	20
248.8	34
248.9	49
249.0	59
249.1	59
249.2	47
249.3	25
249.4	7
249.5	0
260.4	2
260.5	4
260.6	8
260.7	11
260.8	12
260.9	12
261.0	12
261.1	11
261.2	9
261.3	6
261.4	3
290.4	0
290.5	2
290.6	6
290.7	11
290.8	16
290.9	19
291.0	19
291.1	14
291.2	9
291.3	4
308.5	1
308.6	2
308.7	6
308.8	13
308.9	21
309.0	27
309.1	29
309.2	26
309.3	20
309.4	12
309.5	5
309.6	1
326.0	0
326.1	2
326.2	7
326.3	11
326.4	14
326.5	15
326.6	18
326.7	29
326.8	45
326.9	62
327.0	71
327.1	72
327.2	68
327.3	61
327.4	45
327.5	23
327.6	4
344.5	1
344.6	2
344.7	6
344.8	11
344.9	16
345.0	16
345.1	11
345.2	6
345.3	3
