Mass spectrum: Foetoside C; LC-ESI-QQQ; MS2; Frag=135.0V CID@5.0; [M+Na]+
Name: Foetoside C
Class: Terpenoids
Formula: C58H94O25
Exact mass: 1191.3809
SMILES: CC1OC(OC2C(OC3CC[C@@]4(C)C(CC[C@]5(C)C4CC=C4C6CC(C)(C)CCC6(C(=O)OC6OC(COC7OC(CO)C(O)C(O)C7O)C(O)C(O)C6O)CC[C@]45C)C3(C)C)OCC(O)C2O)C(O)C(OC2OCC(O)C(O)C2O)C1O
InChI: InChI=1S/C58H94O25/c1-24-34(62)45(81-48-41(69)35(63)27(60)21-74-48)44(72)50(77-24)82-46-36(64)28(61)22-75-51(46)80-33-12-13-55(6)31(54(33,4)5)11-14-57(8)32(55)10-9-25-26-19-53(2,3)15-17-58(26,18-16-56(25,57)7)52(73)83-49-43(71)40(68)38(66)30(79-49)23-76-47-42(70)39(67)37(65)29(20-59)78-47/h9,24,26-51,59-72H,10-23H2,1-8H3/t24?,26?,27?,28?,29?,30?,31?,32?,33?,34?,35?,36?,37?,38?,39?,40?,41?,42?,43?,44?,45?,46?,47?,48?,49?,50?,51?,55-,56+,57+,58?/m0/s1
Instrument: Agilent 6410 Triple Quadrupole LC/MS system
Instrument type: LC-ESI-QQQ
Ms type: MS2
Ion mode: POSITIVE
Precursor type: [M+Na]+
m/z	relative intensity
51.2	13
51.3	15
51.4	16
51.5	17
51.6	17
51.9	15
52.0	16
52.1	18
52.2	20
52.3	21
52.4	21
52.5	20
52.6	18
52.7	16
52.9	13
53.0	15
53.1	17
53.2	20
53.3	22
53.4	22
53.5	21
53.6	18
53.7	14
53.8	12
54.0	11
54.1	13
54.2	16
54.3	19
54.4	20
54.5	19
54.6	17
54.7	15
54.8	14
55.0	12
55.1	13
55.2	16
55.3	19
55.4	20
55.5	21
55.6	20
55.7	19
55.8	18
56.5	16
56.6	17
56.7	19
56.8	21
56.9	21
57.0	19
57.3	18
57.4	19
57.5	20
57.6	20
57.7	20
57.8	20
57.9	19
58.2	17
58.3	18
58.4	19
58.5	19
58.8	17
58.9	19
59.0	21
59.1	22
59.2	21
59.3	20
59.4	18
59.7	17
59.8	18
59.9	19
60.0	21
60.1	21
60.2	20
60.3	17
60.4	15
60.5	12
60.7	11
60.8	13
60.9	17
61.0	21
61.1	22
61.2	22
61.3	20
61.4	19
62.1	17
62.2	18
62.3	20
62.4	20
62.5	19
62.6	17
62.9	15
63.0	18
63.1	20
63.2	21
63.3	21
63.4	21
63.5	22
63.6	24
63.7	24
63.8	24
63.9	22
64.0	19
64.1	17
64.6	14
64.7	16
64.8	18
64.9	21
65.0	22
65.1	23
65.2	22
65.3	21
65.6	19
65.7	21
65.8	22
65.9	21
66.0	21
66.1	21
66.2	22
66.3	22
66.4	21
66.5	19
66.6	18
66.9	17
67.0	19
67.1	21
67.2	24
67.3	25
67.4	25
67.5	23
67.7	20
67.8	22
67.9	25
68.0	27
68.1	26
68.2	23
68.3	21
69.0	17
69.1	18
69.2	21
69.3	25
69.4	29
69.5	30
69.6	28
69.7	24
69.8	19
69.9	16
70.1	14
70.2	15
70.3	17
70.4	18
70.5	19
70.6	20
70.7	20
70.8	21
70.9	21
71.0	21
71.1	19
71.3	17
71.4	19
71.5	21
71.6	21
71.7	21
71.8	20
71.9	19
72.1	17
72.2	18
72.3	20
72.4	21
72.5	21
72.6	21
72.7	21
72.8	19
73.1	19
73.2	20
73.3	21
73.4	21
74.7	10
74.8	11
74.9	14
75.0	18
75.1	22
75.2	24
75.3	23
75.4	20
75.5	18
75.7	17
75.8	18
75.9	19
76.0	22
76.1	25
76.2	27
76.3	27
76.4	24
76.5	21
76.6	19
77.2	18
77.3	19
77.4	20
77.5	22
77.6	23
77.7	23
77.8	22
77.9	21
78.0	19
78.1	16
78.3	15
78.4	18
78.5	23
78.6	25
78.7	24
78.8	22
78.9	19
79.0	17
79.2	14
79.3	16
79.4	19
79.5	23
79.6	26
79.7	25
79.8	22
79.9	18
80.0	16
80.1	15
80.5	14
80.6	15
80.7	17
80.8	20
80.9	21
81.0	21
81.1	21
81.2	20
81.3	20
81.4	19
81.5	19
81.8	18
81.9	19
82.0	20
82.1	21
82.2	20
82.3	19
82.4	19
82.7	18
82.8	19
82.9	20
83.0	20
83.1	20
83.2	20
83.3	20
83.4	21
83.5	22
83.6	22
83.7	20
84.0	18
84.1	19
84.2	21
84.3	21
85.3	15
85.4	17
85.5	20
85.6	22
85.7	22
85.8	22
85.9	21
86.0	19
86.1	17
86.4	14
86.5	18
86.6	23
86.7	27
86.8	28
86.9	27
87.0	25
87.1	22
87.2	20
87.3	19
87.6	17
87.7	18
87.8	19
87.9	19
88.0	18
88.1	17
88.8	16
88.9	17
89.0	18
89.1	19
89.2	18
89.3	15
89.4	14
89.7	13
89.8	14
89.9	16
90.0	18
90.1	19
90.2	20
90.3	22
90.4	23
90.5	22
90.6	20
90.7	18
91.0	18
91.1	19
91.2	20
91.3	20
91.4	19
91.7	17
91.8	19
91.9	21
92.0	22
92.1	23
92.2	23
92.3	21
92.4	19
92.5	16
92.8	13
92.9	15
93.0	18
93.1	20
93.2	20
93.3	18
93.4	18
93.5	20
93.6	23
93.7	24
93.8	21
93.9	17
94.1	14
94.2	16
94.3	18
94.4	20
94.5	20
94.6	19
94.9	18
95.0	19
95.1	19
95.2	20
95.3	20
95.4	19
95.5	17
96.1	16
96.2	16
96.3	18
96.4	19
96.5	21
96.6	21
96.7	22
96.8	23
96.9	24
97.0	24
97.1	23
97.2	24
97.3	25
97.4	26
97.5	24
97.6	21
97.7	17
97.8	13
98.0	12
98.1	13
98.2	15
98.3	17
98.4	18
98.5	19
98.6	20
98.7	22
98.8	23
98.9	21
99.0	18
99.3	13
99.4	18
99.5	23
99.6	25
99.7	24
99.8	21
99.9	18
100.2	16
100.3	17
100.4	20
100.5	23
100.6	25
100.7	25
100.8	23
100.9	20
101.0	18
101.3	18
101.4	19
101.5	20
101.6	21
101.7	21
101.8	20
102.7	15
102.8	17
102.9	19
103.0	20
103.1	20
103.2	18
104.0	15
104.1	15
104.2	17
104.3	19
104.4	20
104.5	19
104.6	19
104.7	18
104.8	16
105.0	14
105.1	16
105.2	19
105.3	22
105.4	22
105.5	23
105.6	25
105.7	25
105.8	24
105.9	21
106.0	17
106.1	13
106.3	12
106.4	14
106.5	17
106.6	20
106.7	21
106.8	21
106.9	20
107.4	19
107.5	19
107.6	21
107.7	21
107.8	21
107.9	19
108.0	17
108.1	15
108.2	13
108.3	11
108.5	11
108.6	11
108.7	13
108.8	16
108.9	20
109.0	23
109.1	24
109.2	23
109.3	20
109.4	16
109.5	12
109.7	11
109.8	13
109.9	14
110.0	14
110.1	14
110.2	15
110.3	16
110.4	16
110.7	14
110.8	17
110.9	19
111.0	21
111.1	21
111.2	20
112.2	10
112.3	12
112.4	15
112.5	17
112.6	18
112.7	18
112.8	17
112.9	15
113.1	14
113.2	16
113.3	17
113.4	17
113.7	16
113.8	17
113.9	17
114.0	17
114.1	14
114.4	11
114.5	15
114.6	19
114.7	20
114.8	19
114.9	19
115.0	20
115.1	21
115.2	20
115.3	17
115.4	15
115.5	12
115.7	12
115.8	13
115.9	15
116.0	16
116.1	16
116.2	17
116.3	18
116.4	19
116.5	19
116.6	18
116.7	18
116.8	19
116.9	19
117.0	19
117.1	19
117.2	18
117.3	16
117.4	14
117.5	12
117.6	11
117.8	9
117.9	10
118.0	13
118.1	16
118.2	18
118.3	19
118.4	21
118.5	22
118.6	23
118.7	21
118.8	17
119.1	14
119.2	17
119.3	19
119.4	19
119.5	17
119.6	14
120.4	13
120.5	15
120.6	16
120.7	18
120.8	18
120.9	18
121.0	16
121.1	15
121.4	14
121.5	15
121.6	16
121.7	18
121.8	19
121.9	20
122.0	19
122.1	16
122.2	13
122.4	12
122.5	13
122.6	15
122.7	17
122.8	19
122.9	20
123.0	20
123.1	18
123.2	15
123.5	13
123.6	15
123.7	15
123.8	15
123.9	15
124.0	15
124.1	15
124.2	17
124.3	19
124.4	19
124.5	17
124.6	15
124.8	12
124.9	13
125.0	16
125.1	18
125.2	18
125.3	18
125.4	17
125.5	18
125.6	20
125.7	21
125.8	20
125.9	19
126.8	15
126.9	18
127.0	21
127.1	23
127.2	22
127.3	21
127.4	21
127.5	20
127.6	19
127.7	18
127.8	16
127.9	14
128.0	12
128.3	10
128.4	12
128.5	13
128.6	15
128.7	16
128.8	17
128.9	18
129.0	17
129.1	16
129.2	15
129.4	13
129.5	14
129.6	16
129.7	19
129.8	21
129.9	21
130.0	20
130.1	19
130.2	19
130.3	19
130.4	18
130.5	16
130.7	15
130.8	17
130.9	19
131.0	20
131.1	18
131.2	16
131.3	14
131.4	13
131.7	11
131.8	14
131.9	17
132.0	21
132.1	23
132.2	24
132.3	24
132.4	22
132.5	17
132.6	12
132.8	8
132.9	11
133.0	14
133.1	16
133.2	17
133.3	18
133.4	18
133.5	18
133.6	18
133.7	16
133.8	13
134.0	11
134.1	13
134.2	17
134.3	19
134.4	21
134.5	21
134.6	20
134.7	18
134.8	16
134.9	14
135.0	13
135.3	11
135.4	12
135.5	15
135.6	16
135.7	16
135.8	16
135.9	16
136.0	16
136.1	16
136.4	14
136.5	15
136.6	17
136.7	17
136.8	15
136.9	13
137.2	12
137.3	13
137.4	13
137.5	14
137.6	13
137.9	12
138.0	14
138.1	17
138.2	20
138.3	22
138.4	21
138.5	19
138.6	16
138.9	14
139.0	17
139.1	18
139.2	17
139.3	15
139.4	12
139.6	11
139.7	12
139.8	13
139.9	14
140.0	14
140.1	15
140.2	14
140.3	14
140.4	15
140.5	17
140.6	19
140.7	19
140.8	17
140.9	15
141.1	14
141.2	15
141.3	17
141.4	19
141.5	20
141.6	21
141.7	19
141.8	17
142.6	14
142.7	14
142.8	17
142.9	21
143.0	23
143.1	23
143.2	20
143.3	16
143.5	13
143.6	16
143.7	20
143.8	21
143.9	20
144.0	17
144.1	15
144.2	13
144.5	13
144.6	14
144.7	16
144.8	18
144.9	19
145.0	19
145.1	18
145.2	17
145.3	16
145.7	15
145.8	16
145.9	16
146.0	17
146.1	18
146.2	19
146.3	19
146.4	18
146.5	17
146.8	17
146.9	17
147.0	18
147.1	19
147.2	18
147.3	18
147.4	18
147.5	18
147.6	18
147.7	17
147.8	16
148.1	16
148.2	16
148.3	17
148.4	19
148.5	19
148.6	19
148.7	17
148.8	14
149.1	12
149.2	13
149.3	13
149.4	13
149.5	14
149.6	15
149.9	12
150.0	14
150.1	16
150.2	16
150.3	17
150.4	17
150.5	18
150.6	18
150.7	16
150.8	15
150.9	14
151.0	14
151.1	13
151.3	11
151.4	12
151.5	14
151.6	16
151.7	16
151.8	15
152.1	14
152.2	16
152.3	17
152.4	17
152.9	16
153.0	16
153.1	17
153.2	18
153.3	19
153.4	17
153.5	15
153.7	14
153.8	16
153.9	18
154.0	20
154.1	20
154.2	18
154.3	16
154.4	14
154.5	14
154.6	15
154.9	13
155.0	15
155.1	17
155.2	19
155.3	19
155.4	19
155.5	19
155.6	18
155.7	17
156.3	14
156.4	16
156.5	18
156.6	18
156.7	18
157.0	17
157.1	17
157.2	19
157.3	20
157.4	20
157.5	19
158.5	12
158.6	13
158.7	15
158.8	17
158.9	19
159.0	19
159.1	18
159.2	15
159.5	14
159.6	16
159.7	18
159.8	19
159.9	18
160.0	18
160.1	18
160.2	17
160.3	16
160.4	14
160.6	12
160.7	14
160.8	16
160.9	18
161.0	19
161.1	18
161.2	20
161.3	22
161.4	25
161.5	26
161.6	24
161.7	20
161.8	17
162.1	16
162.2	17
162.3	19
162.4	19
162.5	19
162.6	18
163.1	17
163.2	17
163.3	18
163.4	19
163.5	21
163.6	22
163.7	21
163.8	19
163.9	17
164.0	16
164.1	16
164.2	15
164.5	14
164.6	15
164.7	17
164.8	20
164.9	22
165.0	22
165.1	22
165.2	21
165.3	19
165.4	16
165.7	15
165.8	16
165.9	18
166.0	20
166.1	22
166.2	22
166.3	19
166.4	16
166.6	12
166.7	15
166.8	18
166.9	20
167.0	21
167.1	20
167.2	20
167.3	19
167.4	18
167.5	17
167.8	15
167.9	17
168.0	21
168.1	23
168.2	22
168.3	20
168.4	17
168.5	16
168.8	15
168.9	16
169.0	17
169.1	19
169.2	22
169.3	24
169.4	24
169.5	22
169.6	20
169.7	18
169.8	17
169.9	17
170.0	17
170.1	16
170.2	15
170.3	14
170.6	12
170.7	14
170.8	15
170.9	16
171.0	17
171.1	18
171.2	19
171.3	18
171.6	15
171.7	18
171.8	20
171.9	22
172.0	23
172.1	23
172.2	21
172.3	18
172.4	15
172.6	13
172.7	14
172.8	16
172.9	19
173.0	20
173.1	20
173.2	17
173.5	15
173.6	18
173.7	21
173.8	22
173.9	20
174.0	18
174.1	16
174.2	15
174.3	15
174.4	12
174.7	9
174.8	12
174.9	17
175.0	20
175.1	21
175.2	21
175.3	20
175.4	19
175.5	17
175.6	16
175.7	14
175.9	13
176.0	14
176.1	16
176.2	18
176.3	20
176.4	18
176.6	14
176.7	17
176.8	20
176.9	22
177.0	20
177.1	16
177.3	14
177.4	17
177.5	19
177.6	20
177.7	21
177.8	21
177.9	20
178.0	17
179.7	14
179.8	14
179.9	16
180.0	17
180.1	17
180.2	17
180.3	16
180.4	16
180.5	17
180.6	18
180.7	20
180.8	21
180.9	21
181.0	20
181.2	18
181.3	19
181.4	21
181.5	21
181.6	19
181.7	18
181.8	16
181.9	16
182.2	15
182.3	16
182.4	17
182.5	17
182.6	16
182.7	16
182.8	16
182.9	18
183.0	20
183.1	20
183.2	20
183.3	19
183.4	18
184.0	16
184.1	17
184.2	20
184.3	22
184.4	22
184.5	20
184.6	17
184.7	14
185.0	14
185.1	15
185.2	15
185.3	17
185.4	19
185.5	23
185.6	24
185.7	25
185.8	25
185.9	25
186.0	24
186.1	23
186.2	20
186.3	18
186.6	16
186.7	18
186.8	19
186.9	19
187.0	18
187.3	16
187.4	19
187.5	21
187.6	23
187.7	24
187.8	24
187.9	23
188.0	22
188.2	21
188.3	22
188.4	23
188.5	23
188.6	22
188.7	20
188.8	19
189.3	19
189.4	20
189.5	21
189.6	22
189.7	21
189.8	19
190.0	17
190.1	19
190.2	20
190.5	18
190.6	21
190.7	22
190.8	21
190.9	19
191.0	18
191.3	17
191.4	19
191.5	20
191.6	22
191.7	24
191.8	24
191.9	23
192.0	21
192.1	19
192.2	18
192.5	16
192.6	17
192.7	19
192.8	21
192.9	22
193.0	21
193.1	18
193.3	16
193.4	18
193.5	21
193.6	23
193.7	23
193.8	21
193.9	20
194.0	18
194.1	17
194.4	17
194.5	18
194.6	20
194.7	22
194.8	21
194.9	19
195.0	18
195.1	16
195.2	15
195.4	13
195.5	15
195.6	19
195.7	22
195.8	23
195.9	21
196.0	19
196.1	17
196.3	15
196.4	17
196.5	19
196.6	20
196.7	18
196.8	15
197.0	14
197.1	16
197.2	18
197.3	18
197.4	19
197.5	22
197.6	24
197.7	25
197.8	24
197.9	21
198.0	19
198.3	18
198.4	19
198.5	20
198.6	20
198.7	19
198.8	18
198.9	15
199.1	12
199.2	14
199.3	17
199.4	18
199.5	19
199.6	20
199.7	21
199.8	21
199.9	21
200.0	21
200.1	22
200.2	21
200.3	19
200.5	16
200.6	18
200.7	20
200.8	22
200.9	22
201.0	22
201.1	21
201.2	21
201.3	20
201.4	19
201.5	17
201.7	16
201.8	17
201.9	18
202.0	20
202.1	23
202.2	26
202.3	26
202.4	23
202.5	20
202.6	17
202.9	16
203.0	17
203.1	17
203.2	18
203.3	18
203.4	18
203.5	18
203.6	19
203.7	20
203.8	20
203.9	19
204.0	16
204.2	15
204.3	16
204.4	18
204.5	19
204.6	19
204.7	19
204.8	19
204.9	20
205.0	19
205.3	18
205.4	19
205.5	21
205.6	21
205.7	19
205.8	16
206.1	14
206.2	17
206.3	20
206.4	22
206.5	21
206.6	18
206.9	15
207.0	18
207.1	21
207.2	22
207.3	23
207.4	22
207.5	21
207.6	19
207.9	16
208.0	18
208.1	19
208.2	20
208.3	19
208.4	17
208.5	14
208.8	14
208.9	15
209.0	16
209.1	18
209.2	19
209.3	19
209.4	19
209.5	19
209.6	19
209.7	19
209.8	17
209.9	15
210.1	13
210.2	16
210.3	18
210.4	20
210.5	19
210.6	16
210.8	15
210.9	17
211.0	18
211.1	18
211.2	17
211.3	18
211.4	19
211.5	20
211.6	18
211.7	15
211.9	13
212.0	15
212.1	18
212.2	19
212.3	19
212.4	19
212.5	19
212.6	17
213.1	16
213.2	17
213.3	18
213.4	19
213.5	20
213.6	21
213.7	22
213.8	23
213.9	22
214.0	20
214.1	17
214.2	15
214.5	13
214.6	16
214.7	19
214.8	20
214.9	20
215.0	18
215.1	15
215.3	13
215.4	14
215.5	17
215.6	22
215.7	26
215.8	27
215.9	25
216.0	22
216.1	18
216.2	15
216.5	14
216.6	16
216.7	19
216.8	22
216.9	22
217.0	21
217.1	19
217.2	17
217.8	17
217.9	18
218.0	18
218.1	18
218.2	18
218.3	16
218.4	14
218.7	13
218.8	15
218.9	17
219.0	21
219.1	24
219.2	25
219.3	24
219.4	22
219.5	19
219.6	14
219.9	11
220.0	15
220.1	17
220.2	19
220.3	20
220.4	20
220.7	18
220.8	19
220.9	21
221.0	20
221.1	19
222.8	13
222.9	15
223.0	17
223.1	18
223.2	19
223.3	19
223.4	19
223.7	17
223.8	19
223.9	21
224.0	23
224.1	23
224.2	20
224.3	16
224.6	13
224.7	15
224.8	18
224.9	20
225.0	21
225.1	21
225.2	20
225.3	20
225.4	20
225.5	20
225.6	18
225.9	17
226.0	18
226.1	20
226.2	21
226.3	20
226.4	17
226.5	14
226.8	12
226.9	14
227.0	17
227.1	20
227.2	23
227.3	25
227.4	25
227.5	22
227.6	20
227.7	19
227.8	19
227.9	18
228.0	18
228.1	17
228.2	16
228.5	14
228.6	16
228.7	17
228.8	18
228.9	18
229.0	18
229.1	18
229.2	18
229.3	19
229.4	19
229.5	20
229.6	20
229.7	20
229.8	19
229.9	17
230.1	16
230.2	17
230.3	19
230.4	19
230.5	19
230.6	16
230.7	13
231.0	12
231.1	13
231.2	14
231.3	15
231.4	16
231.5	16
231.6	16
231.7	17
231.8	17
231.9	18
232.0	19
232.1	19
232.2	19
232.3	18
232.4	16
232.5	16
232.6	15
232.7	15
232.8	15
232.9	14
233.2	12
233.3	13
233.4	15
233.5	17
233.6	17
233.7	16
233.8	14
234.1	13
234.2	15
234.3	16
234.4	16
234.5	14
234.7	11
234.8	13
234.9	18
235.0	20
235.1	19
235.2	16
235.4	14
235.5	15
235.6	17
235.7	18
235.8	18
235.9	18
236.0	19
236.1	19
236.2	17
236.3	14
236.5	12
236.6	14
236.7	15
236.8	17
236.9	18
237.0	18
237.1	17
237.4	15
237.5	16
237.6	18
237.7	20
237.8	21
237.9	21
238.0	21
238.1	19
238.8	15
238.9	17
239.0	20
239.1	21
239.2	20
239.3	19
240.2	11
240.3	13
240.4	16
240.5	18
240.6	19
240.7	18
240.8	17
241.0	15
241.1	16
241.2	19
241.3	20
241.4	19
241.7	19
241.8	20
241.9	22
242.0	22
242.1	20
242.2	18
242.4	16
242.5	18
242.6	20
242.7	21
242.8	20
242.9	19
243.0	16
243.3	14
243.4	16
243.5	17
243.6	18
243.7	19
243.8	20
243.9	21
244.0	22
244.1	21
244.2	18
244.3	14
244.6	11
244.7	15
244.8	18
244.9	21
245.0	20
245.1	19
245.2	18
245.3	17
245.4	16
245.5	15
245.8	14
245.9	15
246.0	17
246.1	17
246.2	17
246.3	17
246.4	18
246.5	19
246.6	20
246.7	20
246.8	20
246.9	19
247.0	18
247.1	16
247.2	15
247.5	14
247.6	15
247.7	16
247.8	17
247.9	18
248.0	19
248.1	20
248.2	21
248.3	21
248.4	20
248.5	18
248.6	15
248.9	13
249.0	15
249.1	18
249.2	19
249.3	19
249.4	17
249.5	14
250.0	13
250.1	14
250.2	15
250.3	16
250.4	16
250.5	16
250.6	17
250.7	16
250.8	15
250.9	13
251.0	13
251.1	13
251.4	11
251.5	13
251.6	16
251.7	18
251.8	19
251.9	19
252.0	18
252.1	17
252.2	17
252.3	16
252.4	14
252.6	12
252.7	13
252.8	16
252.9	18
253.0	18
253.1	17
253.2	16
253.3	15
253.4	14
254.8	4
254.9	6
255.0	10
255.1	15
255.2	20
255.3	24
255.4	28
255.5	29
255.6	25
255.7	18
255.8	12
256.1	10
256.2	11
256.3	14
256.4	17
256.5	20
256.6	21
256.7	20
256.8	19
256.9	16
257.0	13
257.2	12
257.3	15
257.4	18
257.5	20
257.6	21
257.7	21
257.8	20
257.9	18
258.0	15
258.1	13
258.3	12
258.4	14
258.5	16
258.6	17
258.7	17
258.8	15
258.9	13
259.0	11
259.1	9
259.2	8
259.4	6
259.5	7
259.6	9
259.7	13
259.8	17
259.9	19
260.0	17
260.1	14
260.4	10
260.5	14
260.6	17
260.7	19
260.8	19
260.9	17
261.7	15
261.8	16
261.9	17
262.0	16
262.1	16
262.2	15
262.3	15
263.0	13
263.1	15
263.2	17
263.3	18
263.4	18
263.5	19
263.6	19
263.7	19
263.8	17
263.9	15
264.0	14
264.1	14
264.2	14
264.4	12
264.5	13
264.6	17
264.7	20
264.8	21
264.9	20
265.0	16
265.1	11
265.3	8
265.4	11
265.5	16
265.6	20
265.7	22
265.8	23
265.9	23
266.0	23
266.1	23
266.2	22
266.3	21
266.4	21
266.5	20
268.6	9
268.7	9
268.8	12
268.9	16
269.0	20
269.1	21
269.2	20
269.3	18
269.4	16
269.7	15
269.8	16
269.9	17
270.0	17
270.1	16
270.2	14
270.3	12
270.6	11
270.7	12
270.8	14
270.9	16
271.0	16
271.1	16
271.4	14
271.5	16
271.6	19
271.7	21
271.8	22
271.9	20
272.0	17
272.1	14
273.3	9
273.4	10
273.5	13
273.6	16
273.7	17
273.8	17
273.9	15
274.0	12
274.3	10
274.4	12
274.5	12
274.6	12
274.7	14
274.8	17
274.9	20
275.0	21
275.1	19
275.4	16
275.5	17
275.6	19
275.7	19
275.8	20
275.9	21
276.0	21
276.1	20
276.2	19
276.3	16
276.9	13
277.0	14
277.1	17
277.2	19
277.3	20
277.4	21
277.5	22
277.6	23
277.7	22
277.8	20
277.9	16
278.0	12
278.3	9
278.4	13
278.5	17
278.6	19
278.7	18
278.8	17
278.9	16
279.0	16
279.1	14
279.2	11
279.4	10
279.5	12
279.6	15
279.7	17
279.8	18
279.9	18
280.0	17
280.1	16
280.8	13
280.9	16
281.0	21
281.1	26
281.2	30
281.3	29
281.4	26
281.5	21
281.6	18
281.7	16
282.3	15
282.4	16
282.5	18
282.6	21
282.7	22
282.8	22
282.9	20
283.2	18
283.3	19
283.4	21
283.5	21
283.6	21
283.7	21
283.8	22
283.9	22
284.0	21
284.1	20
284.2	19
284.3	18
284.4	17
284.6	15
284.7	17
284.8	19
284.9	20
285.0	19
285.3	18
285.4	19
285.5	21
285.6	22
285.7	23
285.8	23
285.9	24
286.0	24
286.1	23
286.2	21
286.3	18
286.5	16
286.6	19
286.7	22
286.8	23
286.9	22
287.0	21
287.1	20
287.2	20
287.5	18
287.6	20
287.7	23
287.8	24
287.9	22
288.0	20
288.1	17
288.2	15
288.5	12
288.6	15
288.7	19
288.8	21
288.9	23
289.0	24
289.1	24
289.2	23
289.3	22
289.4	20
289.5	19
289.6	17
289.9	17
290.0	18
290.1	19
290.2	20
290.3	21
290.4	21
290.5	21
290.6	19
290.9	17
291.0	19
291.1	20
291.2	20
291.3	19
291.6	17
291.7	19
291.8	20
291.9	20
292.2	18
292.3	19
292.4	21
292.5	23
292.6	24
292.7	23
292.8	22
292.9	21
293.0	19
293.3	17
293.4	20
293.5	23
293.6	25
293.7	25
293.8	25
293.9	23
294.0	20
294.3	16
294.4	20
294.5	24
294.6	27
294.7	27
294.8	23
294.9	19
295.4	20
295.5	20
295.6	22
295.7	23
295.8	23
295.9	23
297.1	18
297.2	19
297.3	20
297.4	22
297.5	23
297.6	22
297.9	21
298.0	23
298.1	24
298.2	24
298.3	23
298.4	23
298.5	22
298.6	21
298.7	18
299.0	15
299.1	18
299.2	22
299.3	25
299.4	25
299.5	25
299.6	23
299.7	21
299.8	20
299.9	20
300.0	20
300.1	18
300.4	16
300.5	18
300.6	20
300.7	22
300.8	23
300.9	23
301.0	21
301.1	19
301.3	18
301.4	20
301.5	20
301.6	20
301.7	21
301.8	23
301.9	23
302.0	21
302.1	18
302.4	17
302.5	17
302.6	18
302.7	20
302.8	23
302.9	24
303.0	25
303.1	24
303.2	23
303.3	21
303.4	20
304.9	12
305.0	16
305.1	21
305.2	25
305.3	27
305.4	27
305.5	25
305.6	22
306.4	18
306.5	21
306.6	23
306.7	22
306.8	20
306.9	18
307.1	17
307.2	18
307.3	19
307.4	20
307.5	20
307.6	20
307.7	21
307.8	22
307.9	23
308.0	22
308.1	20
308.2	19
308.3	19
308.4	18
308.5	18
308.6	17
308.9	15
309.0	16
309.1	18
309.2	20
309.3	20
309.4	18
309.7	16
309.8	19
309.9	21
310.0	23
310.1	23
310.2	22
310.3	20
310.4	19
310.5	18
311.9	15
312.0	17
312.1	22
312.2	27
312.3	30
312.4	29
312.5	25
312.6	22
312.7	19
313.0	17
313.1	19
313.2	22
313.3	23
313.4	22
313.5	20
313.6	19
313.7	17
314.0	15
314.1	17
314.2	18
314.3	19
314.4	19
314.5	19
314.6	18
314.7	16
314.8	15
314.9	14
315.2	13
315.3	14
315.4	15
315.5	17
315.6	18
315.7	19
315.8	19
315.9	17
316.1	15
316.2	17
316.3	19
316.4	21
316.5	22
316.6	21
316.7	19
316.8	17
317.0	17
317.1	18
317.2	19
317.3	18
317.4	17
317.7	15
317.8	18
317.9	20
318.0	22
318.1	22
318.2	20
318.3	18
318.4	15
318.6	12
318.7	14
318.8	17
318.9	19
319.0	19
319.1	19
319.2	18
319.3	18
319.4	18
319.5	18
319.6	18
319.7	18
319.8	16
320.1	14
320.2	15
320.3	17
320.4	19
320.5	19
320.6	19
320.7	17
320.8	16
321.0	14
321.1	15
321.2	18
321.3	20
321.4	22
321.5	22
321.6	21
321.7	19
321.9	18
322.0	19
322.1	20
322.2	20
322.5	19
322.6	20
322.7	21
322.8	22
322.9	21
323.0	20
323.1	19
323.7	18
323.8	19
323.9	21
324.0	23
324.1	23
324.2	22
324.3	19
324.6	17
324.7	18
324.8	19
324.9	20
325.0	21
325.1	22
325.2	23
325.3	23
325.4	22
325.5	21
325.6	19
325.9	17
326.0	19
326.1	22
326.2	23
326.3	23
326.4	21
326.5	20
326.6	19
326.7	19
326.8	19
326.9	17
327.1	15
327.2	16
327.3	20
327.4	23
327.5	25
327.6	24
327.7	21
327.8	18
327.9	15
328.2	12
328.3	14
328.4	16
328.5	17
328.6	18
328.7	18
328.8	17
328.9	16
329.1	13
329.2	14
329.3	17
329.4	20
329.5	23
329.6	25
329.7	24
329.8	22
329.9	19
330.9	14
331.0	15
331.1	17
331.2	19
331.3	20
331.4	19
331.7	16
331.8	19
331.9	22
332.0	24
332.1	23
332.2	21
332.3	18
332.4	15
332.5	13
332.8	11
332.9	12
333.0	15
333.1	18
333.2	21
333.3	21
333.4	21
333.5	19
335.0	9
335.1	10
335.2	12
335.3	14
335.4	17
335.5	20
335.6	22
335.7	21
335.8	20
335.9	18
336.0	18
336.1	18
336.2	18
336.6	17
336.7	18
336.8	19
336.9	19
337.0	18
337.1	15
337.4	14
337.5	16
337.6	16
337.7	18
337.8	20
337.9	22
338.0	22
338.1	21
338.2	19
338.3	17
338.4	14
338.5	11
338.6	9
338.8	7
338.9	9
339.0	11
339.1	12
339.2	14
339.3	15
339.4	15
339.5	16
339.6	16
339.7	17
339.8	19
339.9	21
340.0	23
340.1	23
340.2	23
340.3	23
340.4	22
340.5	22
340.6	20
340.7	19
340.8	18
340.9	19
341.0	18
341.3	16
341.4	18
341.5	20
341.6	21
341.7	22
341.8	21
341.9	20
342.0	19
343.5	13
343.6	14
343.7	16
343.8	18
343.9	19
344.0	19
344.1	18
344.2	16
344.4	14
344.5	16
344.6	18
344.7	20
344.8	20
344.9	18
345.0	17
345.1	17
345.2	17
345.3	15
345.5	12
345.6	14
345.7	17
345.8	20
345.9	21
346.0	20
346.1	18
346.4	17
346.5	19
346.6	20
346.7	19
346.8	19
346.9	18
347.0	18
347.1	17
347.4	13
347.5	16
347.6	19
347.7	20
347.8	18
347.9	15
349.2	14
349.3	15
349.4	16
349.5	16
349.6	15
349.9	13
350.0	14
350.1	15
350.2	16
350.3	17
350.4	20
350.5	22
350.6	22
350.7	18
350.8	14
351.0	12
351.1	14
351.2	17
351.3	20
351.4	23
351.5	24
351.6	23
351.7	20
351.8	16
351.9	13
352.1	11
352.2	13
352.3	13
352.4	14
352.5	14
352.6	15
352.7	16
352.8	17
352.9	16
353.0	16
353.1	15
353.2	13
353.3	11
353.5	8
353.6	10
353.7	13
353.8	16
353.9	17
354.0	16
354.1	15
354.2	16
354.3	19
354.4	22
354.5	23
354.6	20
354.7	16
355.0	13
355.1	15
355.2	17
355.3	18
355.4	18
355.5	19
355.6	19
355.7	18
355.8	18
355.9	17
356.8	15
356.9	15
357.0	16
357.1	17
357.2	19
357.3	19
357.4	19
357.5	18
357.6	17
357.7	16
357.8	15
358.2	15
358.3	15
358.4	16
358.5	17
358.6	18
358.7	18
358.8	18
358.9	18
359.0	19
359.1	20
359.2	19
359.3	18
359.4	16
359.5	15
359.6	14
359.7	13
359.8	12
359.9	11
360.1	10
360.2	11
360.3	12
360.4	14
360.5	16
360.6	19
360.7	22
360.8	22
360.9	21
361.0	20
361.1	18
362.1	14
362.2	16
362.3	18
362.4	19
362.5	17
362.6	15
362.7	12
362.9	10
363.0	13
363.1	16
363.2	18
363.3	19
363.4	18
363.5	16
363.6	14
363.7	11
363.9	10
364.0	11
364.1	14
364.2	17
364.3	20
364.4	23
364.5	24
364.6	23
364.7	21
364.8	19
364.9	15
365.0	12
365.2	9
365.3	11
365.4	17
365.5	22
365.6	25
365.7	24
365.8	21
365.9	18
366.0	15
366.1	12
366.3	10
366.4	12
366.5	16
366.6	19
366.7	21
366.8	21
366.9	19
367.0	16
367.2	12
367.3	15
367.4	18
367.5	21
367.6	23
367.7	23
367.8	22
367.9	20
368.0	19
368.1	17
368.2	15
368.3	13
368.5	11
368.6	12
368.7	14
368.8	16
368.9	17
369.0	16
369.1	16
369.2	16
369.3	17
369.4	16
369.5	14
369.6	11
369.9	8
370.0	11
370.1	14
370.2	17
370.3	18
370.4	19
370.5	20
370.6	20
370.7	19
370.8	16
370.9	12
371.1	9
371.2	12
371.3	15
371.4	19
371.5	21
371.6	21
371.7	19
371.8	17
371.9	15
372.0	12
372.1	10
372.3	9
372.4	10
372.5	12
372.6	14
372.7	15
372.8	15
372.9	14
373.0	14
373.1	15
373.2	15
373.3	15
374.2	11
374.3	13
374.4	14
374.5	14
374.6	13
374.9	12
375.0	14
375.1	17
375.2	19
375.3	20
375.4	19
375.5	16
375.6	14
375.8	12
375.9	13
376.0	15
376.1	17
376.2	19
376.3	20
376.4	20
376.5	20
376.6	19
376.7	18
376.8	15
377.0	13
377.1	15
377.2	18
377.3	21
377.4	22
377.5	22
378.5	12
378.6	14
378.7	14
378.8	13
379.1	11
379.2	12
379.3	13
379.4	13
379.5	14
379.6	17
379.7	20
379.8	23
379.9	23
380.0	21
380.1	17
380.4	14
380.5	17
380.6	20
380.7	24
380.8	26
380.9	24
381.0	19
381.3	15
381.4	19
381.5	22
381.6	23
381.7	23
381.8	21
381.9	19
382.0	16
382.7	15
382.8	15
382.9	16
383.0	18
383.1	22
383.2	25
383.3	26
383.4	25
383.5	22
383.6	19
383.7	16
383.9	16
384.0	17
384.1	18
384.2	19
384.3	18
384.4	16
384.5	13
384.6	10
384.8	9
384.9	11
385.0	13
385.1	15
385.2	16
385.3	18
385.4	19
385.5	20
385.6	19
385.9	17
386.0	18
386.1	20
386.2	21
386.3	22
386.4	23
386.5	23
386.6	21
386.7	19
387.4	16
387.5	17
387.6	18
387.7	19
387.8	19
387.9	19
388.0	18
388.1	18
388.4	17
388.5	18
388.6	19
388.7	20
388.8	20
388.9	20
389.0	19
389.1	18
389.2	17
389.3	15
389.6	15
389.7	15
389.8	16
389.9	17
390.0	20
390.1	22
390.2	22
390.3	21
390.4	20
390.5	19
390.6	18
390.7	17
390.8	15
391.1	13
391.2	15
391.3	19
391.4	21
391.5	21
391.6	19
391.7	18
391.9	17
392.0	17
392.1	20
392.2	23
392.3	25
392.4	23
392.5	20
392.6	16
392.7	14
392.8	13
392.9	10
393.1	7
393.2	10
393.3	14
393.4	18
393.5	20
393.6	20
393.7	18
393.9	17
394.0	19
394.1	21
394.2	20
394.3	18
394.4	16
394.6	15
394.7	17
394.8	19
394.9	19
395.0	18
395.1	16
395.2	14
395.3	12
395.6	10
395.7	12
395.8	14
395.9	17
396.0	20
396.1	22
396.2	23
396.3	21
396.4	18
396.7	16
396.8	19
396.9	22
397.0	23
397.1	22
397.2	20
397.3	19
397.6	17
397.7	18
397.8	19
397.9	19
398.0	18
398.1	19
398.2	20
398.3	21
398.4	22
398.5	21
398.6	18
398.7	15
399.0	13
399.1	15
399.2	16
399.3	18
399.4	19
399.5	20
399.6	21
399.7	21
399.8	20
399.9	19
400.0	18
400.1	15
400.4	12
400.5	16
400.6	20
400.7	23
400.8	24
400.9	23
401.0	21
402.6	14
402.7	16
402.8	17
402.9	18
403.0	17
403.3	16
403.4	18
403.5	20
403.6	20
403.7	20
403.8	19
403.9	18
404.0	16
404.2	15
404.3	16
404.4	17
404.5	16
404.6	16
404.7	17
404.8	19
404.9	20
405.0	19
405.1	18
405.4	16
405.5	17
405.6	19
405.7	21
405.8	22
405.9	23
406.0	22
406.1	21
406.2	23
406.3	25
406.4	25
406.5	23
406.6	20
406.8	19
406.9	21
407.0	21
407.1	20
407.2	19
407.6	18
407.7	19
407.8	20
407.9	22
408.0	23
408.1	22
408.2	20
408.3	17
408.4	14
408.6	13
408.7	16
408.8	19
408.9	21
409.0	20
409.1	17
409.3	13
409.4	15
409.5	20
409.6	23
409.7	24
409.8	21
409.9	17
410.0	14
410.3	15
410.4	15
410.5	16
410.6	18
410.7	20
410.8	23
410.9	25
411.0	26
411.1	25
411.2	22
411.3	18
411.4	16
411.6	15
411.7	16
411.8	17
411.9	18
412.0	19
412.1	18
412.2	19
412.3	20
412.4	20
412.5	19
412.6	18
412.7	18
412.8	18
412.9	17
413.0	17
413.1	16
413.2	16
413.3	16
413.6	14
413.7	16
413.8	19
413.9	20
414.2	18
414.3	20
414.4	22
414.5	23
414.6	23
414.7	23
414.8	22
414.9	21
415.0	21
415.1	20
415.2	18
415.3	16
415.6	15
415.7	17
415.8	18
415.9	20
416.0	20
416.1	17
416.2	15
416.5	12
416.6	15
416.7	19
416.8	24
416.9	26
417.0	26
417.1	26
417.2	24
417.3	22
417.4	19
417.7	17
417.8	20
417.9	23
418.0	25
418.1	24
418.2	23
418.3	21
418.4	19
418.5	17
418.6	14
418.9	12
419.0	13
419.1	16
419.2	18
419.3	19
419.4	19
419.5	18
419.8	17
419.9	18
420.0	19
420.1	20
420.2	19
420.3	18
420.6	16
420.7	18
420.8	19
420.9	20
421.0	19
421.2	17
421.3	19
421.4	20
421.5	21
421.6	20
421.7	20
421.8	20
421.9	19
422.0	17
422.3	13
422.4	16
422.5	21
422.6	25
422.7	26
422.8	26
422.9	24
423.0	22
423.1	19
423.2	17
423.5	15
423.6	17
423.7	19
423.8	21
423.9	22
424.0	22
424.1	21
424.2	19
424.3	17
424.5	15
424.6	16
424.7	19
424.8	22
424.9	24
425.0	24
425.1	23
425.2	22
425.3	20
425.6	18
425.7	20
425.8	22
425.9	23
426.0	23
426.1	23
426.2	23
426.3	21
426.4	20
426.5	18
426.6	17
426.9	16
427.0	18
427.1	21
427.2	24
427.3	25
427.4	24
427.5	22
427.6	21
427.7	20
427.8	19
427.9	17
428.2	14
428.3	16
428.4	18
428.5	20
428.6	21
428.7	21
428.8	21
428.9	19
429.0	17
429.1	14
429.3	13
429.4	14
429.5	17
429.6	19
429.7	21
429.8	21
429.9	19
430.0	16
430.2	14
430.3	16
430.4	19
430.5	21
430.6	22
430.7	20
430.8	18
431.1	14
431.2	17
431.3	18
431.4	17
431.7	14
431.8	16
431.9	19
432.0	20
432.1	20
432.2	20
432.3	19
432.4	16
432.7	13
432.8	15
432.9	17
433.0	18
433.1	18
433.2	16
433.5	14
433.6	15
433.7	16
433.8	17
433.9	18
434.0	20
434.1	21
434.2	22
434.3	21
434.4	18
434.5	14
434.6	11
434.8	10
434.9	13
435.0	16
435.1	19
435.2	22
435.3	24
435.4	25
435.5	24
435.6	23
435.7	22
435.8	21
435.9	19
436.0	17
436.2	16
436.3	18
436.4	19
436.5	18
436.6	18
436.7	18
436.8	20
436.9	21
437.0	21
437.8	19
437.9	21
438.0	22
438.1	22
438.2	20
438.3	17
438.6	15
438.7	17
438.8	19
438.9	20
439.0	20
439.1	18
439.2	16
439.3	16
439.4	15
439.5	14
439.7	11
439.8	14
439.9	18
440.0	22
440.1	24
440.2	26
440.3	26
440.4	24
440.5	21
440.6	18
440.7	16
440.9	14
441.0	16
441.1	18
441.2	19
441.3	19
441.4	18
441.5	17
441.8	16
441.9	18
442.0	19
442.1	19
442.2	19
442.3	20
442.4	21
442.5	21
442.6	21
442.7	21
442.8	20
442.9	19
443.0	17
443.2	17
443.3	18
443.4	18
443.5	18
443.6	19
443.7	20
443.8	20
443.9	20
444.0	18
444.1	16
444.9	14
445.0	15
445.1	17
445.2	19
445.3	20
445.4	20
445.5	19
445.6	20
445.7	21
445.8	22
445.9	23
446.0	23
446.1	22
446.2	20
446.3	18
446.6	16
446.7	18
446.8	20
446.9	23
447.0	23
447.1	21
447.2	17
447.5	15
447.6	16
447.7	17
447.8	17
447.9	17
448.0	18
448.1	20
448.2	22
448.3	23
448.4	21
448.5	17
448.6	14
448.9	13
449.0	15
449.1	17
449.2	18
449.3	19
449.4	20
449.5	19
449.6	16
449.7	13
449.9	13
450.0	15
450.1	16
450.2	16
450.3	15
450.4	16
450.5	17
450.6	17
450.7	17
451.0	16
451.1	16
451.2	17
451.3	19
451.4	20
451.5	21
451.6	20
451.7	18
451.8	18
451.9	18
452.0	17
452.1	15
452.4	13
452.5	14
452.6	16
452.7	19
452.8	22
452.9	24
453.0	23
453.1	20
453.2	17
453.3	14
453.6	12
453.7	13
453.8	14
453.9	15
454.0	17
454.1	19
454.2	20
454.3	20
454.4	19
454.5	16
454.6	13
454.8	10
454.9	12
455.0	15
455.1	18
455.2	20
455.3	19
455.4	17
455.5	14
455.7	13
455.8	14
455.9	16
456.0	18
456.1	20
456.2	21
456.3	20
456.4	17
456.7	15
456.8	16
456.9	17
457.0	17
457.1	17
457.2	17
457.3	16
458.5	11
458.6	12
458.7	15
458.8	17
458.9	16
459.0	15
459.1	14
459.4	12
459.5	14
459.6	18
459.7	22
459.8	25
459.9	25
460.0	23
460.1	20
460.2	18
461.0	14
461.1	16
461.2	17
461.3	18
461.4	17
461.5	15
461.6	12
461.9	10
462.0	13
462.1	16
462.2	18
462.3	19
462.4	21
462.5	22
462.6	23
462.7	23
462.8	22
462.9	20
463.0	18
463.8	12
463.9	14
464.0	15
464.1	17
464.2	19
464.3	21
464.4	22
464.5	21
464.6	20
464.7	19
464.8	19
464.9	18
465.0	17
465.3	14
465.4	16
465.5	19
465.6	21
465.7	21
465.8	20
466.1	18
466.2	19
466.3	21
466.4	22
466.5	23
466.6	24
466.7	25
466.8	25
466.9	22
467.0	17
467.1	14
467.4	13
467.5	13
467.6	14
467.7	16
467.8	19
467.9	20
468.0	20
468.1	19
468.2	17
468.3	16
468.4	15
468.7	15
468.8	15
468.9	17
469.0	20
469.1	23
469.2	23
469.3	21
469.4	18
469.5	14
469.6	12
469.8	11
469.9	13
470.0	16
470.1	18
470.2	19
470.3	17
470.4	15
470.9	15
471.0	15
471.1	17
471.2	19
471.3	22
471.4	22
471.5	21
471.6	19
471.7	19
471.8	18
471.9	17
472.0	16
472.2	15
472.3	16
472.4	18
472.5	19
472.6	21
472.7	21
472.8	19
472.9	17
473.0	14
473.1	12
473.4	11
473.5	12
473.6	13
473.7	14
473.8	15
473.9	15
474.0	15
474.1	16
474.2	19
474.3	21
474.4	22
474.5	21
474.6	20
474.7	18
475.9	10
476.0	11
476.1	14
476.2	16
476.3	15
476.4	12
476.6	8
476.7	10
476.8	13
476.9	15
477.0	17
477.1	17
477.2	19
477.3	21
477.4	21
477.5	20
477.6	17
477.7	13
477.9	12
478.0	14
478.1	16
478.2	18
478.3	19
478.4	20
478.5	19
478.6	18
478.7	16
478.8	14
478.9	12
479.1	10
479.2	12
479.3	15
479.4	17
479.5	18
479.6	17
479.7	15
480.0	13
480.1	15
480.2	15
480.3	16
480.4	17
480.5	18
480.6	20
480.7	21
480.8	20
480.9	18
481.0	16
481.1	15
481.4	14
481.5	15
481.6	17
481.7	19
481.8	20
481.9	19
482.0	18
482.1	18
482.2	17
482.3	17
482.4	16
482.5	15
482.8	13
482.9	16
483.0	20
483.1	23
483.2	23
483.3	22
483.4	20
483.5	17
483.6	14
483.8	14
483.9	15
484.0	15
484.1	16
484.2	18
484.3	21
484.4	21
484.5	18
484.6	14
484.7	8
484.9	4
485.0	7
485.1	12
485.2	17
485.3	20
485.4	19
485.5	18
485.6	16
485.7	16
485.8	16
485.9	16
486.0	14
486.1	13
486.3	11
486.4	13
486.5	16
486.6	18
486.7	20
486.8	22
486.9	21
487.0	18
487.1	14
487.4	12
487.5	13
487.6	14
487.7	15
487.8	16
487.9	17
488.0	17
488.1	16
488.2	14
488.3	13
488.4	14
488.5	14
488.6	13
488.9	12
489.0	13
489.1	15
489.2	18
489.3	20
489.4	19
489.5	16
489.6	14
489.9	13
490.0	14
490.1	15
490.2	17
490.3	20
490.4	22
490.5	20
490.6	16
490.7	11
491.0	10
491.1	11
491.2	13
491.3	17
491.4	20
491.5	22
491.6	22
491.7	20
491.8	17
492.1	14
492.2	15
492.3	16
492.4	16
492.5	16
492.6	16
492.7	17
492.8	17
492.9	17
493.2	16
493.3	17
493.4	17
493.5	17
493.6	16
493.7	15
494.4	13
494.5	16
494.6	20
494.7	23
494.8	22
494.9	20
495.0	17
495.1	15
495.2	13
495.4	11
495.5	12
495.6	15
495.7	18
495.8	21
495.9	21
496.0	21
496.1	21
496.2	21
496.3	20
496.4	18
496.7	15
496.8	18
496.9	21
497.0	21
497.1	19
497.2	16
498.1	14
498.2	15
498.3	16
498.4	15
498.5	14
498.8	14
498.9	15
499.0	16
499.1	17
499.2	17
499.3	17
499.4	18
499.5	18
499.6	16
500.3	15
500.4	16
500.5	18
500.6	19
500.7	19
500.8	18
500.9	19
501.0	18
501.3	17
501.4	18
501.5	20
501.6	22
501.7	23
501.8	23
501.9	23
502.0	21
502.1	18
502.2	14
502.4	11
502.5	14
502.6	19
502.7	23
502.8	24
502.9	24
503.0	23
503.1	22
503.2	20
503.3	17
503.4	14
503.6	13
503.7	15
503.8	18
503.9	21
504.0	22
504.1	22
504.2	20
504.3	18
504.6	17
504.7	18
504.8	19
504.9	20
505.0	21
505.1	21
505.2	21
505.3	20
505.4	19
505.5	18
505.6	18
505.7	17
505.9	16
506.0	17
506.1	19
506.2	23
506.3	26
506.4	27
506.5	26
506.6	23
506.7	20
506.8	18
507.1	16
507.2	17
507.3	19
507.4	21
507.5	23
507.6	23
507.7	21
507.8	19
509.3	15
509.4	16
509.5	17
509.6	18
509.7	19
509.8	20
509.9	19
510.1	17
510.2	18
510.3	20
510.4	22
510.5	21
510.6	18
510.7	15
510.9	12
511.0	14
511.1	16
511.2	17
511.3	17
511.4	18
511.5	19
511.6	20
511.7	20
511.8	19
511.9	18
512.0	17
512.7	15
512.8	16
512.9	17
513.0	18
513.1	18
513.2	18
513.3	18
513.4	17
513.5	17
513.6	16
513.7	16
514.0	15
514.1	15
514.2	17
514.3	18
514.4	18
514.5	18
514.6	17
514.7	16
514.8	15
514.9	15
515.0	13
515.2	11
515.3	13
515.4	16
515.5	19
515.6	20
515.7	18
516.0	17
516.1	19
516.2	20
516.3	20
516.4	21
516.5	22
516.6	23
516.7	24
516.8	23
516.9	22
517.0	20
517.1	19
517.2	18
517.3	16
517.6	14
517.7	17
517.8	19
517.9	20
518.0	20
518.9	15
519.0	16
519.1	17
519.2	19
519.3	21
519.4	22
519.5	22
519.6	22
519.7	23
519.8	23
519.9	21
520.0	18
520.2	14
520.3	16
520.4	20
520.5	23
520.6	24
520.7	22
520.8	20
520.9	18
521.1	17
521.2	18
521.3	20
521.4	20
521.5	21
521.6	22
521.7	24
521.8	26
521.9	26
522.0	25
522.1	22
522.2	19
522.3	17
523.1	15
523.2	17
523.3	19
523.4	21
523.5	22
523.6	22
523.7	22
523.8	23
523.9	23
524.0	23
524.1	23
524.2	21
524.4	20
524.5	22
524.6	25
524.7	26
524.8	27
524.9	27
525.0	25
525.1	23
525.2	21
525.3	20
525.4	20
525.5	19
525.8	17
525.9	18
526.0	21
526.1	24
526.2	25
526.3	25
526.4	23
526.5	21
526.6	19
528.1	15
528.2	17
528.3	19
528.4	20
528.5	21
528.6	21
528.7	21
528.8	21
528.9	21
529.0	21
529.1	20
529.4	19
529.5	20
529.6	21
529.7	21
529.8	20
529.9	21
530.0	21
530.1	21
530.2	19
530.3	18
530.6	18
530.7	19
530.8	21
530.9	24
531.0	27
531.1	28
531.2	27
531.3	24
531.4	21
531.5	17
531.6	14
531.8	13
531.9	15
532.0	17
532.1	21
532.2	24
532.3	25
532.4	23
532.5	19
532.6	16
532.8	16
532.9	17
533.0	18
533.1	18
533.2	17
533.3	15
533.4	13
533.6	11
533.7	12
533.8	15
533.9	19
534.0	22
534.1	23
534.2	21
534.3	19
534.5	18
534.6	20
534.7	22
534.8	22
534.9	21
535.0	20
535.1	19
535.9	13
536.0	16
536.1	19
536.2	23
536.3	24
536.4	23
536.5	21
536.6	18
538.5	16
538.6	17
538.7	19
538.8	21
538.9	22
539.0	20
539.1	17
539.7	17
539.8	17
539.9	18
540.0	19
540.1	19
540.2	20
540.3	21
540.4	22
540.5	23
540.6	22
540.7	18
540.8	15
541.0	14
541.1	17
541.2	20
541.3	23
541.4	24
541.5	24
541.6	24
541.7	24
541.8	24
541.9	23
543.0	12
543.1	13
543.2	15
543.3	17
543.4	19
543.5	21
543.6	22
543.7	22
543.8	21
543.9	20
544.0	19
544.2	17
544.3	19
544.4	20
544.5	21
544.6	21
544.7	20
544.8	19
544.9	18
545.0	17
545.1	15
545.4	14
545.5	15
545.6	17
545.7	20
545.8	23
545.9	22
546.7	19
546.8	20
546.9	21
547.0	21
547.1	20
547.2	18
547.3	17
547.4	16
547.5	16
547.6	15
547.9	14
548.0	16
548.1	17
548.2	19
548.3	19
548.4	19
548.5	17
548.6	16
548.7	15
549.0	14
549.1	16
549.2	21
549.3	24
549.4	25
549.5	23
549.6	21
549.7	19
550.0	17
550.1	18
550.2	19
550.3	21
550.4	23
550.5	24
550.6	23
550.7	20
550.8	16
551.0	14
551.1	16
551.2	18
551.3	20
551.4	21
551.5	20
551.6	19
551.7	18
551.8	16
551.9	15
552.0	14
552.2	13
552.3	14
552.4	15
552.5	15
552.6	15
552.7	15
552.8	16
552.9	17
553.0	18
553.1	16
553.2	14
553.3	12
553.6	11
553.7	13
553.8	17
553.9	22
554.0	24
554.1	23
554.2	20
554.3	17
554.4	15
554.7	14
554.8	16
554.9	18
555.0	20
555.1	20
555.2	19
555.3	19
555.4	20
555.5	21
555.6	21
555.7	20
555.8	17
555.9	15
556.0	14
556.1	14
556.3	12
556.4	13
556.5	15
556.6	17
556.7	19
556.8	19
556.9	18
557.3	17
557.4	18
557.5	20
557.6	21
557.7	23
557.8	22
557.9	20
558.0	16
558.1	13
558.4	10
558.5	13
558.6	16
558.7	17
558.8	18
558.9	19
559.0	22
559.1	24
559.2	22
559.3	19
559.4	16
559.5	14
560.3	9
560.4	12
560.5	16
560.6	19
560.7	20
560.8	19
560.9	18
561.9	14
562.0	16
562.1	17
562.2	17
562.3	16
562.5	15
562.6	16
562.7	18
562.8	19
562.9	20
563.0	19
563.3	18
563.4	19
563.5	20
563.6	19
563.7	17
564.0	14
564.1	17
564.2	20
564.3	23
564.4	25
564.5	27
564.6	27
564.7	23
564.8	19
564.9	16
565.2	14
565.3	15
565.4	17
565.5	20
565.6	22
565.7	23
565.8	23
565.9	21
566.0	19
566.3	16
566.4	19
566.5	22
566.6	24
566.7	26
566.8	28
566.9	29
567.0	26
567.1	20
567.2	15
567.4	12
567.5	13
567.6	16
567.7	20
567.8	23
567.9	25
568.0	23
568.1	19
568.2	13
568.4	11
568.5	13
568.6	16
568.7	19
568.8	20
568.9	20
569.0	18
569.2	16
569.3	18
569.4	20
569.5	21
569.6	19
569.7	16
570.0	15
570.1	17
570.2	18
570.3	20
570.4	20
570.5	20
570.6	18
570.7	14
570.8	11
571.0	8
571.1	9
571.2	12
571.3	15
571.4	16
571.5	17
571.6	17
571.7	17
571.8	17
571.9	17
572.0	18
572.1	18
572.2	17
572.3	17
573.3	10
573.4	11
573.5	13
573.6	13
573.7	12
573.8	13
573.9	14
574.0	17
574.1	18
574.2	18
574.3	19
574.4	18
574.5	17
575.3	16
575.4	17
575.5	18
575.6	18
575.9	16
576.0	17
576.1	19
576.2	20
576.3	20
576.4	19
576.5	18
576.6	18
576.7	18
576.8	17
576.9	15
577.1	14
577.2	15
577.3	16
577.4	17
577.5	18
577.6	18
577.7	17
577.8	15
577.9	13
578.2	11
578.3	13
578.4	14
578.5	15
578.6	14
578.7	14
578.8	13
579.1	12
579.2	13
579.3	16
579.4	19
579.5	22
579.6	22
579.7	20
579.8	18
579.9	16
580.0	16
580.1	16
580.2	16
580.3	14
580.5	13
580.6	14
580.7	16
580.8	18
580.9	19
581.0	19
581.3	18
581.4	18
581.5	19
581.6	20
581.7	20
581.8	20
581.9	18
582.0	16
582.3	15
582.4	16
582.5	16
582.6	17
582.7	18
582.8	19
582.9	20
583.0	20
583.1	20
583.2	20
583.3	19
583.4	17
583.7	15
583.8	17
583.9	18
584.0	17
584.1	16
584.2	15
584.3	14
584.6	13
584.7	14
584.8	16
584.9	17
585.0	17
585.1	17
585.2	18
585.3	19
585.4	19
585.5	18
585.6	15
585.7	11
585.9	9
586.0	13
586.1	17
586.2	20
586.3	22
586.4	25
586.5	26
586.6	26
586.7	24
586.8	21
586.9	19
587.0	18
587.1	17
587.2	16
587.3	14
587.5	13
587.6	14
587.7	15
587.8	16
587.9	17
588.0	15
588.1	12
588.2	10
588.4	9
588.5	10
588.6	13
588.7	16
588.8	19
588.9	19
589.0	18
589.1	18
589.2	17
589.3	16
589.4	13
589.7	13
589.8	14
589.9	14
590.0	15
590.1	17
590.2	17
590.3	17
590.4	15
590.5	12
590.7	10
590.8	12
590.9	14
591.0	16
591.1	17
591.2	17
591.3	15
591.4	13
591.6	10
591.7	12
591.8	14
591.9	17
592.0	18
592.1	18
592.2	18
592.3	18
592.4	18
592.5	18
592.6	18
592.7	16
592.8	14
594.2	12
594.3	15
594.4	18
594.5	19
594.6	19
594.7	17
594.8	16
595.0	15
595.1	17
595.2	19
595.3	21
595.4	21
595.5	20
595.6	18
595.7	15
596.0	14
596.1	15
596.2	17
596.3	17
596.4	17
596.5	15
596.6	15
596.7	15
596.8	15
596.9	14
597.1	12
597.2	14
597.3	16
597.4	18
597.5	19
597.6	18
597.7	14
598.0	10
598.1	13
598.2	18
598.3	21
598.4	22
598.5	19
598.6	16
598.7	14
598.8	14
598.9	13
599.0	12
599.3	10
599.4	12
599.5	15
599.6	17
599.7	19
599.8	20
599.9	19
600.0	16
600.7	14
600.8	15
600.9	16
601.0	17
601.1	17
601.2	17
601.3	16
601.4	15
601.5	14
601.8	13
601.9	14
602.0	15
602.1	16
602.2	15
602.5	14
602.6	16
602.7	17
602.8	18
602.9	20
603.0	22
603.1	22
603.2	20
603.3	16
603.4	13
603.5	11
603.7	10
603.8	12
603.9	15
604.0	19
604.1	22
604.2	24
604.3	25
604.4	25
604.5	24
604.6	22
604.7	19
604.9	15
605.0	17
605.1	20
605.2	22
605.3	22
605.4	22
605.5	22
605.6	20
605.7	18
605.8	15
606.0	13
606.1	14
606.2	16
606.3	20
606.4	24
606.5	26
606.6	25
606.7	21
606.8	16
606.9	13
607.2	12
607.3	13
607.4	15
607.5	18
607.6	20
607.7	20
607.8	20
607.9	18
608.0	16
608.1	13
608.3	12
608.4	13
608.5	16
608.6	19
608.7	23
608.8	24
608.9	23
609.0	20
609.1	17
609.2	14
609.3	11
609.5	9
609.6	10
609.7	12
609.8	15
609.9	17
610.0	16
610.8	14
610.9	16
611.0	17
611.1	18
611.2	19
611.3	19
611.4	20
611.5	20
611.6	17
611.7	13
611.9	11
612.0	14
612.1	17
612.2	20
612.3	21
612.4	20
612.5	18
612.6	15
612.8	12
612.9	15
613.0	20
613.1	22
613.2	23
613.3	22
613.4	19
613.5	16
613.7	13
613.8	15
613.9	18
614.0	21
614.1	21
614.2	20
614.3	19
614.4	17
615.1	17
615.2	18
615.3	20
615.4	20
615.5	19
615.8	17
615.9	20
616.0	22
616.1	23
616.2	21
616.3	19
616.4	17
616.7	15
616.8	18
616.9	21
617.0	21
617.1	20
617.2	19
618.8	12
618.9	13
619.0	16
619.1	18
619.2	18
619.3	18
619.4	17
619.5	18
619.6	20
619.7	21
619.8	20
619.9	17
620.0	14
620.3	14
620.4	14
620.5	15
620.6	16
620.7	17
620.8	19
620.9	20
621.0	21
621.1	22
621.2	23
621.3	24
621.4	23
621.5	20
621.8	18
621.9	20
622.0	21
622.1	21
622.2	20
623.3	9
623.4	11
623.5	14
623.6	17
623.7	21
623.8	25
623.9	28
624.0	28
624.1	24
624.2	20
624.3	17
624.4	14
624.6	12
624.7	16
624.8	20
624.9	24
625.0	26
625.1	26
625.2	24
625.3	21
625.4	18
625.6	16
625.7	17
625.8	19
625.9	21
626.0	23
626.1	25
626.2	25
626.3	23
626.4	18
626.5	14
626.6	11
626.8	10
626.9	11
627.0	12
627.1	15
627.2	19
627.3	22
627.4	24
627.5	25
627.6	24
627.7	23
627.8	21
627.9	18
628.0	16
628.2	15
628.3	17
628.4	19
628.5	22
628.6	21
628.7	17
628.8	13
629.0	13
629.1	15
629.2	17
629.3	17
629.4	16
629.5	16
629.6	17
629.7	18
629.8	17
629.9	17
630.0	17
630.1	17
630.4	15
630.5	17
630.6	18
630.7	18
630.8	17
630.9	17
631.0	19
631.1	20
631.2	21
631.3	21
631.4	19
631.5	16
631.7	13
631.8	16
631.9	20
632.0	22
632.1	24
632.2	25
632.3	25
632.4	24
632.5	21
632.6	19
632.8	17
632.9	19
633.0	19
633.1	19
633.2	19
633.3	19
633.4	19
633.5	18
633.6	17
633.7	15
633.8	13
634.1	13
634.2	15
634.3	17
634.4	20
634.5	21
634.6	20
634.7	18
635.0	16
635.1	18
635.2	21
635.3	23
635.4	24
635.5	23
635.6	22
635.7	22
635.8	21
635.9	21
636.0	20
636.2	18
636.3	20
636.4	22
636.5	24
636.6	23
636.7	22
636.8	20
636.9	20
637.0	20
637.1	20
637.2	19
637.5	17
637.6	19
637.7	23
637.8	26
637.9	25
638.0	22
638.1	17
638.3	13
638.4	15
638.5	18
638.6	19
638.7	18
638.8	17
638.9	17
639.0	19
639.1	22
639.2	23
639.3	23
639.4	21
639.5	19
639.6	18
639.7	16
639.9	13
640.0	15
640.1	17
640.2	18
640.3	18
640.4	18
640.5	20
640.6	22
640.7	24
640.8	24
640.9	23
641.0	21
642.1	14
642.2	16
642.3	20
642.4	26
642.5	29
642.6	30
642.7	28
642.8	24
642.9	20
643.0	17
643.3	14
643.4	17
643.5	20
643.6	22
643.7	23
643.8	22
643.9	21
644.0	19
644.1	18
644.2	17
644.5	16
644.6	17
644.7	18
644.8	19
644.9	19
645.0	19
645.1	19
645.2	19
645.3	20
645.4	20
645.5	19
645.6	19
645.7	20
645.8	21
645.9	23
646.0	24
646.1	23
646.2	22
646.3	21
646.4	22
646.5	22
646.6	21
646.9	18
647.0	20
647.1	23
647.2	25
647.3	25
647.4	23
647.5	20
647.6	17
647.7	15
648.0	13
648.1	15
648.2	17
648.3	18
648.4	18
648.5	19
648.6	22
648.7	23
648.8	23
648.9	20
649.0	17
649.3	16
649.4	17
649.5	18
649.6	19
649.7	19
649.8	18
649.9	16
650.0	14
650.2	13
650.3	14
650.4	16
650.5	19
650.6	21
650.7	23
650.8	24
650.9	22
651.0	19
651.1	15
651.3	13
651.4	16
651.5	19
651.6	21
651.7	22
651.8	21
651.9	18
652.8	15
652.9	17
653.0	19
653.1	20
653.2	20
653.3	19
653.4	16
653.5	13
653.8	10
653.9	12
654.0	14
654.1	18
654.2	21
654.3	22
654.4	21
654.5	19
654.6	18
654.7	16
654.8	15
655.1	15
655.2	16
655.3	17
655.4	18
655.5	17
655.6	16
655.7	13
656.0	10
656.1	14
656.2	20
656.3	24
656.4	26
656.5	24
656.6	22
656.7	19
656.8	17
656.9	15
657.0	15
657.1	14
657.2	12
657.5	9
657.6	14
657.7	19
657.8	22
657.9	23
658.0	22
658.1	19
658.2	16
658.5	13
658.6	16
658.7	19
658.8	23
658.9	24
659.0	22
659.1	18
659.2	14
659.4	12
659.5	15
659.6	18
659.7	18
659.8	18
659.9	17
660.0	16
660.1	16
660.2	15
660.3	15
660.6	14
660.7	14
660.8	17
660.9	20
661.0	22
661.1	22
661.2	21
662.2	19
662.3	19
662.4	21
662.5	21
662.6	21
662.7	21
662.8	19
662.9	16
663.2	11
663.3	15
663.4	20
663.5	24
663.6	24
663.7	23
663.8	23
663.9	24
664.0	23
664.1	22
664.2	19
664.4	19
664.5	20
664.6	22
664.7	23
664.8	21
664.9	20
665.0	18
665.3	17
665.4	18
665.5	19
665.6	20
665.7	21
665.8	22
665.9	22
666.0	21
666.3	18
666.4	20
666.5	23
666.6	24
666.7	24
666.8	23
666.9	22
667.0	20
667.1	18
667.3	15
667.4	18
667.5	22
667.6	25
667.7	25
667.8	23
667.9	19
668.0	16
669.0	13
669.1	14
669.2	16
669.3	16
669.4	15
669.7	15
669.8	16
669.9	18
670.0	20
670.1	21
670.2	21
671.3	14
671.4	15
671.5	15
671.6	16
671.7	17
671.8	17
671.9	16
672.0	15
672.3	15
672.4	16
672.5	16
672.6	17
672.7	18
672.8	20
672.9	20
673.0	19
673.1	18
673.2	19
673.3	21
673.4	22
673.5	20
673.6	16
673.7	12
673.8	8
674.0	7
674.1	9
674.2	11
674.3	12
674.4	12
674.5	12
674.6	13
674.7	14
674.8	15
674.9	14
675.0	15
675.1	17
675.2	19
675.3	20
675.4	20
675.5	19
675.6	18
675.7	16
676.0	15
676.1	17
676.2	18
676.3	18
677.0	17
677.1	18
677.2	18
677.3	19
677.4	19
677.5	19
677.6	19
677.7	17
677.8	15
677.9	13
678.0	11
678.2	10
678.3	11
678.4	14
678.5	17
678.6	19
678.7	20
678.8	19
678.9	19
679.0	19
679.1	19
679.2	18
679.3	16
679.5	15
679.6	16
679.7	19
679.8	21
679.9	21
680.0	20
680.1	18
680.2	16
680.3	15
680.4	15
680.7	14
680.8	16
680.9	18
681.0	18
681.1	18
681.2	18
681.3	18
681.4	19
681.5	19
681.6	19
681.7	17
681.9	14
682.0	16
682.1	19
682.2	21
682.3	22
682.4	22
682.5	21
682.6	19
682.7	18
682.8	17
682.9	16
683.0	16
683.3	14
683.4	16
683.5	19
683.6	21
683.7	20
683.8	17
683.9	13
684.2	10
684.3	15
684.4	20
684.5	23
684.6	23
684.7	21
684.8	18
684.9	15
685.1	15
685.2	16
685.3	17
685.4	17
685.5	17
685.6	18
685.7	20
685.8	22
685.9	23
686.0	21
686.1	16
686.2	11
686.4	7
686.5	9
686.6	12
686.7	17
686.8	20
686.9	22
687.0	21
688.9	13
689.0	16
689.1	18
689.2	19
689.3	19
689.4	17
689.5	14
689.6	11
689.8	10
689.9	12
690.0	15
690.1	18
690.2	19
690.3	19
690.4	18
690.5	15
691.1	14
691.2	16
691.3	18
691.4	20
691.5	20
691.6	19
691.7	18
692.5	15
692.6	16
692.7	18
692.8	20
692.9	20
693.0	18
693.1	15
693.4	12
693.5	16
693.6	19
693.7	20
693.8	20
693.9	18
694.8	16
694.9	17
695.0	18
695.1	19
695.2	20
695.3	18
695.4	14
695.5	10
695.7	9
695.8	12
695.9	15
696.0	19
696.1	21
696.2	22
696.3	20
696.4	18
696.5	15
696.8	14
696.9	15
697.0	17
697.1	18
697.2	19
697.3	18
697.4	17
697.5	16
697.6	16
697.7	15
698.0	12
698.1	15
698.2	18
698.3	20
698.4	21
698.5	19
698.6	16
698.7	13
698.9	12
699.0	13
699.1	14
699.2	16
699.3	17
699.4	17
699.5	18
699.6	18
699.7	18
699.8	18
699.9	18
700.0	19
700.1	20
700.2	19
700.3	15
700.6	11
700.7	16
700.8	22
700.9	26
701.0	26
701.1	24
701.2	21
701.3	19
701.4	17
701.5	15
701.6	13
701.9	12
702.0	14
702.1	15
702.2	15
702.3	16
702.4	16
702.5	17
702.6	17
702.7	17
702.8	17
702.9	18
703.0	19
703.1	19
703.2	17
704.3	14
704.4	15
704.5	17
704.6	19
704.7	20
704.8	20
704.9	19
706.2	13
706.3	15
706.4	19
706.5	21
706.6	21
706.7	20
706.8	18
707.0	18
707.1	19
707.2	20
707.3	20
707.4	20
707.5	18
707.6	16
707.7	13
708.0	12
708.1	13
708.2	14
708.3	14
708.4	14
708.5	14
708.6	14
708.7	14
708.8	15
708.9	16
709.0	17
709.1	19
709.2	19
709.3	17
709.4	13
709.5	10
709.7	9
709.8	10
709.9	11
710.0	13
710.1	16
710.2	19
710.3	21
710.4	19
710.5	16
712.0	6
712.1	8
712.2	12
712.3	16
712.4	19
712.5	19
712.6	18
712.7	16
712.8	15
712.9	14
713.0	13
713.1	11
713.4	11
713.5	12
713.6	15
713.7	17
713.8	18
713.9	18
714.0	17
714.1	15
714.2	13
714.3	13
714.4	12
714.7	11
714.8	12
714.9	15
715.0	17
715.1	18
715.2	18
715.3	18
716.6	11
716.7	12
716.8	14
716.9	16
717.0	15
717.3	14
717.4	15
717.5	16
717.6	16
717.9	15
718.0	16
718.1	18
718.2	19
718.3	20
718.4	21
718.5	21
718.6	20
718.7	18
718.8	16
719.6	11
719.7	13
719.8	14
719.9	15
720.0	14
720.1	13
720.4	11
720.5	12
720.6	14
720.7	17
720.8	19
720.9	22
721.0	22
721.1	21
721.8	14
721.9	16
722.0	18
722.1	18
722.2	16
722.3	14
722.5	13
722.6	15
722.7	17
722.8	17
722.9	16
723.0	15
723.3	15
723.4	16
723.5	17
723.6	17
723.7	16
724.4	12
724.5	14
724.6	18
724.7	20
724.8	19
724.9	17
725.2	15
725.3	18
725.4	19
725.5	19
725.6	18
725.7	18
725.8	18
725.9	17
726.0	14
726.3	12
726.4	15
726.5	19
726.6	23
726.7	26
726.8	25
726.9	21
727.0	16
727.1	12
727.3	10
727.4	12
727.5	15
727.6	18
727.7	19
727.8	19
727.9	17
728.0	16
729.1	15
729.2	16
729.3	17
729.4	19
729.5	19
729.6	19
729.7	19
729.8	19
729.9	19
730.0	18
730.1	16
730.2	15
730.3	15
730.4	14
730.7	11
730.8	13
730.9	15
731.0	17
731.1	19
731.2	20
731.3	19
731.4	18
731.5	17
731.6	17
731.7	16
731.8	15
732.0	13
732.1	14
732.2	17
732.3	21
732.4	22
732.5	22
732.6	20
732.7	18
732.8	16
732.9	14
733.1	12
733.2	13
733.3	16
733.4	18
733.5	19
733.8	17
733.9	18
734.0	19
734.1	19
734.2	18
734.3	17
734.4	15
734.5	14
734.7	12
734.8	13
734.9	15
735.0	17
735.1	18
735.2	18
735.3	19
735.4	20
735.5	21
735.6	22
735.7	23
735.8	22
735.9	20
736.0	17
736.2	16
736.3	18
736.4	20
736.5	21
736.6	21
736.7	23
736.8	25
736.9	26
737.0	24
737.2	21
737.3	23
737.4	27
737.5	27
737.6	22
737.7	15
737.9	12
738.0	14
738.1	16
738.2	17
738.3	18
738.4	19
738.5	19
738.6	18
739.0	17
739.1	17
739.2	19
739.3	20
739.4	21
739.5	20
739.6	18
739.7	14
740.0	10
740.1	13
740.2	16
740.3	20
740.4	23
740.5	25
740.6	25
740.7	24
740.8	21
740.9	19
741.2	18
741.3	19
741.4	21
741.5	24
741.6	24
741.7	22
741.8	17
742.0	15
742.1	16
742.2	18
742.3	19
742.4	19
742.7	17
742.8	18
742.9	19
743.0	20
743.1	20
743.2	19
743.6	18
743.7	19
743.8	20
743.9	20
744.0	20
744.1	21
744.2	21
744.3	21
744.4	20
744.5	19
744.6	17
745.0	16
745.1	16
745.2	18
745.3	19
745.4	19
745.5	20
745.6	21
745.7	23
745.8	24
745.9	23
746.0	21
746.2	19
746.3	21
746.4	23
746.5	24
746.6	23
746.7	22
746.8	20
746.9	19
748.0	17
748.1	17
748.2	19
748.3	20
748.4	21
748.5	20
748.6	20
748.7	20
748.8	20
748.9	20
749.0	20
749.1	20
749.2	21
749.3	20
749.4	19
749.6	18
749.7	19
749.8	21
749.9	22
750.0	21
750.1	18
750.2	15
750.4	14
750.5	15
750.6	19
750.7	24
750.8	28
750.9	29
751.0	27
751.1	25
751.2	24
751.3	23
751.4	21
751.5	20
751.6	20
751.7	19
751.8	17
751.9	16
752.2	15
752.3	16
752.4	19
752.5	21
752.6	22
752.7	22
752.8	20
752.9	17
753.1	15
753.2	17
753.3	19
753.4	20
753.5	20
753.6	21
753.7	22
753.8	22
753.9	20
754.0	18
754.3	17
754.4	19
754.5	21
754.6	22
754.7	22
754.8	21
755.7	20
755.8	21
755.9	23
756.0	24
756.1	24
756.2	24
756.3	23
756.4	23
756.5	23
756.6	24
756.7	25
756.8	25
756.9	24
757.0	23
757.1	23
757.2	22
757.3	21
757.4	19
757.5	16
757.7	14
757.8	16
757.9	19
758.0	21
758.1	23
758.2	23
758.3	22
758.4	19
758.5	16
758.7	14
758.8	16
758.9	19
759.0	21
759.1	23
759.2	23
760.9	18
761.0	19
761.1	20
761.2	20
761.3	20
761.4	20
761.5	20
761.6	20
761.7	23
761.8	25
761.9	26
762.0	25
762.1	23
762.2	22
762.3	22
762.6	20
762.7	22
762.8	24
762.9	24
763.0	21
763.1	17
763.5	18
763.6	18
763.7	19
763.8	21
763.9	24
764.0	25
764.1	25
764.2	23
764.3	22
764.4	21
764.7	19
764.8	21
764.9	24
765.0	27
765.1	27
765.2	26
765.3	23
765.4	22
766.0	19
766.1	20
766.2	23
766.3	27
766.4	29
766.5	27
766.6	24
766.7	20
766.8	16
767.0	15
767.1	17
767.2	19
767.3	20
767.4	20
767.5	18
767.6	17
767.7	17
767.8	17
768.1	16
768.2	17
768.3	18
768.4	19
768.5	20
768.6	22
768.7	24
768.8	24
768.9	23
769.0	19
769.1	17
769.4	15
769.5	16
769.6	17
769.7	18
769.8	19
769.9	17
770.0	14
770.3	13
770.4	14
770.5	15
770.6	17
770.7	21
770.8	24
770.9	25
771.0	25
771.1	23
771.2	20
771.3	17
771.4	15
771.7	14
771.8	16
771.9	19
772.0	23
772.1	25
772.2	26
772.3	25
772.4	22
772.5	19
772.6	16
773.3	14
773.4	15
773.5	17
773.6	18
773.7	18
773.8	16
774.0	14
774.1	15
774.2	18
774.3	21
774.4	23
774.5	25
774.6	24
774.7	23
774.8	20
774.9	18
775.2	16
775.3	17
775.4	19
775.5	21
775.6	23
775.7	23
775.8	21
775.9	18
776.0	17
776.3	17
776.4	17
776.5	18
776.6	19
776.7	20
776.8	19
776.9	18
777.0	15
777.1	14
777.3	14
777.4	14
777.5	16
777.6	18
777.7	19
777.8	19
777.9	18
778.0	19
778.1	20
778.2	20
778.3	18
778.4	16
778.5	15
778.8	15
778.9	16
779.0	18
779.1	19
779.2	20
779.3	19
779.4	18
779.7	17
779.8	19
779.9	20
780.0	20
780.1	18
780.2	17
780.3	17
780.4	17
780.5	17
780.6	15
780.8	14
780.9	16
781.0	18
781.1	20
781.2	21
781.3	21
781.4	20
781.7	19
781.8	20
781.9	21
782.0	23
782.1	23
782.2	21
782.3	19
782.4	18
782.7	18
782.8	19
782.9	21
783.0	23
783.1	22
783.2	19
783.4	17
783.5	19
783.6	20
783.7	20
783.8	21
783.9	23
784.0	24
784.1	21
784.2	17
784.3	12
784.5	10
784.6	12
784.7	16
784.8	18
784.9	18
785.0	17
785.1	17
785.2	18
785.3	20
785.4	21
785.5	21
785.6	21
785.9	20
786.0	21
786.1	22
786.2	22
786.3	21
786.4	19
786.5	16
786.6	14
786.8	12
786.9	14
787.0	16
787.1	18
787.2	19
787.3	19
787.4	19
787.5	18
787.6	16
787.9	15
788.0	16
788.1	17
788.2	17
788.3	17
788.4	17
788.6	15
788.7	16
788.8	18
788.9	18
789.0	17
789.3	15
789.4	16
789.5	17
789.6	19
789.7	21
789.8	21
789.9	20
790.0	17
790.3	15
790.4	16
790.5	17
790.6	19
790.7	19
790.8	20
790.9	20
791.0	18
791.1	16
791.2	15
791.4	14
791.5	15
791.6	16
791.7	18
791.8	19
791.9	19
792.0	20
792.1	21
792.2	22
792.3	22
792.4	19
792.5	15
792.7	12
792.8	14
792.9	16
793.0	17
793.1	16
793.2	16
793.3	17
793.4	20
793.5	21
793.6	20
793.7	17
793.8	14
794.1	13
794.2	13
794.3	14
794.4	16
794.5	17
794.6	18
794.7	18
794.8	17
794.9	14
795.2	13
795.3	15
795.4	16
795.5	17
795.6	18
795.7	19
795.8	18
795.9	15
796.1	13
796.2	16
796.3	19
796.4	21
796.5	22
796.6	21
796.7	20
796.8	20
796.9	20
797.0	19
797.1	18
797.2	16
797.4	15
797.5	16
797.6	17
797.7	17
797.8	16
797.9	14
798.0	12
798.3	10
798.4	12
798.5	13
798.6	15
798.7	15
798.8	16
798.9	15
799.0	14
799.6	12
799.7	12
799.8	14
799.9	17
800.0	20
800.1	22
800.2	21
800.3	19
800.4	17
801.1	17
801.2	17
801.3	18
801.4	19
801.5	20
801.6	19
801.7	18
801.8	17
801.9	16
802.1	15
802.2	16
802.3	19
802.4	22
802.5	21
802.6	18
802.9	14
803.0	17
803.1	19
803.2	19
803.3	19
803.4	18
803.5	18
803.6	17
803.7	17
803.8	17
803.9	15
804.1	14
804.2	16
804.3	17
804.4	17
804.5	18
804.6	18
804.7	17
804.8	17
804.9	16
805.2	15
805.3	16
805.4	17
805.5	18
805.6	17
805.8	15
805.9	16
806.0	19
806.1	22
806.2	22
806.3	20
806.4	18
806.6	17
806.7	18
806.8	20
806.9	21
807.0	22
807.1	21
807.2	20
807.3	20
807.4	21
807.5	20
807.6	17
807.9	15
808.0	16
808.1	16
808.2	17
808.3	16
808.4	14
808.7	10
808.8	14
808.9	17
809.0	18
809.1	18
809.2	18
809.3	17
809.4	16
809.7	14
809.8	16
809.9	17
810.0	18
810.1	19
810.2	19
810.3	19
810.4	17
810.5	14
811.4	13
811.5	14
811.6	16
811.7	17
811.8	19
811.9	20
812.0	19
812.1	16
812.2	14
812.3	12
812.6	11
812.7	12
812.8	14
812.9	15
813.0	15
813.1	14
813.4	12
813.5	15
813.6	18
813.7	19
813.8	19
813.9	19
814.0	18
814.1	16
814.2	14
814.3	12
814.4	10
814.6	8
814.7	9
814.8	12
814.9	16
815.0	21
815.1	24
815.2	25
815.3	23
815.4	20
815.5	17
815.6	13
815.8	12
815.9	14
816.0	16
816.1	16
816.2	16
816.3	17
816.4	19
816.5	21
816.6	21
816.7	19
816.8	16
816.9	12
817.0	9
817.2	8
817.3	10
817.4	15
817.5	18
817.6	20
817.7	21
817.8	20
817.9	17
818.0	14
818.2	11
818.3	13
818.4	16
818.5	19
818.6	20
818.7	19
818.8	17
818.9	14
819.0	11
819.2	11
819.3	13
819.4	15
819.5	16
819.6	18
819.7	19
819.8	21
819.9	20
820.0	18
820.1	14
820.2	11
820.4	10
820.5	11
820.6	14
820.7	17
820.8	19
820.9	20
821.0	18
821.3	18
821.4	19
821.5	20
821.6	20
821.7	19
822.0	16
822.1	19
822.2	22
822.3	23
822.4	21
822.5	18
822.6	14
822.9	13
823.0	14
823.1	15
823.2	18
823.3	21
823.4	23
823.5	22
823.6	17
823.7	12
823.9	8
824.0	10
824.1	13
824.2	15
824.3	17
824.4	18
824.5	19
824.6	18
824.7	18
824.8	20
824.9	22
825.0	22
825.1	20
825.4	17
825.5	19
825.6	20
825.7	20
825.8	19
825.9	18
826.0	18
826.1	18
826.2	17
826.3	15
826.5	13
826.6	14
826.7	16
826.8	16
826.9	14
827.1	12
827.2	14
827.3	16
827.4	17
827.5	16
827.6	15
827.7	14
828.1	13
828.2	15
828.3	18
828.4	20
828.5	20
828.6	19
828.7	16
828.8	14
829.0	14
829.1	15
829.2	17
829.3	18
829.4	18
829.5	17
829.6	15
830.3	13
830.4	14
830.5	15
830.6	15
830.7	16
830.8	16
830.9	16
831.0	15
831.2	12
831.3	14
831.4	18
831.5	22
831.6	22
831.7	20
831.8	16
831.9	14
832.2	14
832.3	14
832.4	15
832.5	15
832.6	16
832.7	16
832.8	16
832.9	16
833.0	16
833.1	16
833.2	14
833.5	13
833.6	15
833.7	16
833.8	17
833.9	16
834.0	15
834.1	14
834.4	12
834.5	13
834.6	15
834.7	16
834.8	16
834.9	16
835.0	16
835.1	17
835.2	19
835.3	19
835.4	18
835.5	15
835.6	12
835.9	11
836.0	12
836.1	14
836.2	16
836.3	16
836.4	16
836.7	15
836.8	16
836.9	17
837.0	18
837.1	18
837.2	19
837.3	18
837.4	16
837.5	14
837.7	12
837.8	14
837.9	16
838.0	16
838.1	15
838.3	13
838.4	15
838.5	17
838.6	17
838.7	15
839.4	13
839.5	15
839.6	17
839.7	18
839.8	18
839.9	17
840.0	16
840.1	15
840.4	14
840.5	15
840.6	16
840.7	16
840.8	17
840.9	16
841.3	16
841.4	16
841.5	17
841.6	18
841.7	18
841.8	19
841.9	19
842.0	18
842.1	18
842.2	18
842.3	20
842.4	21
842.5	23
842.6	23
842.7	22
842.8	19
842.9	16
843.2	14
843.3	15
843.4	17
843.5	18
843.6	17
843.7	17
843.8	16
843.9	13
844.6	12
844.7	13
844.8	15
844.9	17
845.0	17
845.3	16
845.4	18
845.5	21
845.6	22
845.7	21
845.8	19
845.9	18
846.2	18
846.3	18
846.4	19
846.5	20
846.6	19
846.7	17
847.0	14
847.1	16
847.2	18
847.3	20
847.4	20
847.5	21
847.6	22
847.7	22
847.8	23
847.9	21
848.0	17
848.1	13
848.3	13
848.4	15
848.5	16
848.6	16
848.7	15
848.8	15
848.9	15
849.0	17
849.1	19
849.2	20
849.3	19
849.4	16
849.5	12
849.7	9
849.8	13
849.9	17
850.0	21
850.1	23
850.2	22
850.3	19
850.4	18
850.5	17
850.6	17
850.7	17
851.0	16
851.1	17
851.2	19
851.3	20
851.4	20
851.5	19
851.6	19
851.7	19
851.8	19
851.9	18
852.0	18
853.2	11
853.3	13
853.4	16
853.5	19
853.6	20
853.7	19
853.8	18
853.9	17
854.0	16
854.3	14
854.4	16
854.5	18
854.6	19
854.7	19
854.8	20
854.9	20
855.0	17
855.1	14
855.3	12
855.4	14
855.5	14
855.6	15
855.7	17
855.8	19
855.9	20
856.0	20
856.1	20
856.2	20
856.3	19
856.4	18
856.5	17
856.9	17
857.0	18
857.1	20
857.2	21
857.3	20
857.4	17
857.5	14
857.8	13
857.9	15
858.0	17
858.1	17
858.2	17
858.3	17
858.4	18
858.5	21
858.6	23
858.7	22
858.8	19
859.1	15
859.2	19
859.3	24
859.4	26
859.5	25
859.6	21
859.7	16
859.8	13
860.1	13
860.2	13
860.3	15
860.4	17
860.5	20
860.6	22
860.7	23
860.8	23
860.9	22
861.0	22
861.1	21
861.2	20
862.6	16
862.7	18
862.8	21
862.9	24
863.0	25
863.1	23
863.2	21
863.3	19
863.8	18
863.9	18
864.0	20
864.1	22
864.2	23
864.3	22
864.4	20
865.9	19
866.0	20
866.1	20
866.2	20
866.3	21
866.4	23
866.5	24
866.6	23
866.7	20
866.8	17
866.9	14
867.1	11
867.2	12
867.3	15
867.4	20
867.5	25
867.6	29
867.7	31
867.8	31
867.9	30
868.0	26
868.1	20
868.2	16
868.4	14
868.5	15
868.6	17
868.7	20
868.8	22
868.9	21
869.0	19
869.9	16
870.0	17
870.1	18
870.2	19
870.3	20
870.4	20
870.5	18
870.6	15
870.8	12
870.9	14
871.0	19
871.1	24
871.2	28
871.3	29
871.4	27
871.5	24
871.6	20
871.7	19
871.8	18
871.9	18
872.0	16
872.1	15
872.4	14
872.5	15
872.6	16
872.7	18
872.8	19
872.9	19
873.0	19
873.1	19
873.2	20
873.3	20
873.4	19
873.5	18
873.7	16
873.8	18
873.9	20
874.0	22
874.1	21
874.2	18
874.5	15
874.6	19
874.7	23
874.8	24
874.9	21
875.0	18
875.2	17
875.3	19
875.4	20
875.5	19
875.6	19
875.7	19
875.8	20
875.9	22
876.0	24
876.1	25
876.2	25
876.3	22
876.4	18
876.5	14
876.7	14
876.8	16
876.9	18
877.0	19
877.1	19
877.2	20
877.3	21
877.4	20
877.5	18
877.8	17
877.9	18
878.0	20
878.1	22
878.2	24
878.3	25
878.4	24
878.5	21
878.6	18
878.7	15
878.9	15
879.0	16
879.1	17
879.2	18
879.3	20
879.4	21
879.5	20
879.9	19
880.0	19
880.1	20
880.2	21
880.3	22
880.4	22
880.5	21
880.6	20
880.7	18
880.8	16
880.9	15
881.1	13
881.2	14
881.3	17
881.4	20
881.5	24
881.6	27
881.7	28
881.8	26
881.9	23
882.0	19
882.1	16
882.4	14
882.5	16
882.6	20
882.7	23
882.8	23
882.9	20
883.0	17
883.1	16
883.5	15
883.6	16
883.7	17
883.8	18
883.9	18
884.0	18
884.1	18
884.2	19
884.3	18
884.4	16
884.6	14
884.7	16
884.8	20
884.9	23
885.0	25
885.1	25
885.2	24
885.3	23
885.4	21
885.5	19
885.7	18
885.8	19
885.9	21
886.0	22
886.1	22
886.2	22
886.3	22
886.4	22
886.5	21
886.6	19
886.7	17
886.8	15
887.2	14
887.3	15
887.4	18
887.5	22
887.6	26
887.7	26
887.8	25
887.9	22
888.0	19
888.2	17
888.3	18
888.4	20
888.5	22
888.6	22
888.7	22
888.8	21
889.7	17
889.8	19
889.9	20
890.0	20
890.1	17
890.2	14
890.4	13
890.5	15
890.6	18
890.7	20
890.8	21
890.9	21
891.0	20
892.0	15
892.1	17
892.2	21
892.3	23
892.4	23
892.5	21
892.6	18
893.2	16
893.3	17
893.4	18
893.5	19
893.6	19
893.7	19
893.8	17
893.9	16
894.0	14
894.2	13
894.3	15
894.4	18
894.5	20
894.6	22
894.7	21
894.8	19
894.9	17
895.0	16
895.1	15
895.3	14
895.4	14
895.5	17
895.6	19
895.7	21
895.8	21
895.9	22
896.0	21
896.1	20
896.2	17
896.4	14
896.5	16
896.6	18
896.7	20
896.8	19
896.9	17
897.4	16
897.5	17
897.6	18
897.7	21
897.8	22
897.9	21
898.0	18
898.1	15
898.3	14
898.4	15
898.5	17
898.6	19
898.7	21
898.8	22
898.9	22
899.0	20
899.1	18
899.2	16
899.5	16
899.6	16
899.7	17
899.8	17
900.1	16
900.2	17
900.3	18
900.4	18
900.7	16
900.8	19
900.9	22
901.0	23
901.1	23
901.2	22
901.3	21
901.4	20
901.5	19
901.6	18
901.7	17
901.8	15
901.9	14
902.2	13
902.3	14
902.4	17
902.5	20
902.6	22
902.7	22
902.8	21
902.9	21
903.0	20
903.1	18
903.2	16
903.4	16
903.5	17
903.6	19
903.7	19
903.8	19
903.9	19
904.0	19
904.1	19
904.2	17
904.5	17
904.6	18
904.7	19
904.8	21
904.9	23
905.0	23
905.1	23
905.2	22
905.3	21
905.4	20
905.5	18
905.7	16
905.8	19
905.9	23
906.0	25
906.1	24
906.2	21
907.1	16
907.2	18
907.3	21
907.4	22
907.5	21
907.6	19
908.4	17
908.5	18
908.6	19
908.7	19
908.8	17
908.9	16
909.0	15
909.1	14
909.4	11
909.5	14
909.6	18
909.7	21
909.8	21
909.9	19
910.0	16
910.3	14
910.4	15
910.5	17
910.6	20
910.7	23
910.8	24
910.9	23
911.0	20
911.1	17
911.2	14
911.3	12
911.6	11
911.7	12
911.8	14
911.9	16
912.0	16
912.1	16
912.2	16
912.3	16
912.4	16
912.5	14
912.6	12
912.8	10
912.9	11
913.0	14
913.1	16
913.2	17
913.3	17
913.4	17
913.5	17
913.6	16
913.7	15
913.9	13
914.0	14
914.1	17
914.2	18
914.3	19
914.4	17
914.5	15
914.8	12
914.9	15
915.0	20
915.1	26
915.2	30
915.3	29
915.4	25
915.5	20
916.3	16
916.4	17
916.5	18
916.6	18
916.7	17
917.4	15
917.5	17
917.6	22
917.7	25
917.8	24
917.9	20
918.0	15
918.1	13
918.4	12
918.5	13
918.6	14
918.7	15
918.8	16
918.9	18
919.0	19
919.1	19
919.2	18
919.3	15
919.4	13
919.6	11
919.7	14
919.8	17
919.9	21
920.0	23
920.1	22
920.2	20
920.3	17
920.6	16
920.7	17
920.8	19
920.9	20
921.0	20
921.1	18
921.2	16
921.5	15
921.6	16
921.7	16
921.8	16
921.9	16
922.0	16
922.1	16
922.2	17
922.3	16
922.4	16
922.5	16
922.6	16
922.7	17
922.8	18
922.9	18
923.0	18
923.1	17
923.2	15
923.5	13
923.6	16
923.7	19
923.8	22
923.9	22
924.0	20
924.1	18
924.4	16
924.5	17
924.6	18
924.7	20
924.8	20
924.9	19
925.0	18
925.1	16
925.2	16
925.3	16
925.6	15
925.7	16
925.8	19
925.9	21
926.0	22
926.1	21
926.2	19
926.3	16
926.4	13
926.6	12
926.7	14
926.8	16
926.9	18
927.0	20
927.1	21
927.2	21
927.3	19
927.4	17
927.5	16
927.8	15
927.9	15
928.0	16
928.1	16
928.2	17
928.3	18
928.4	18
928.5	17
928.6	16
928.7	14
928.8	12
929.1	9
929.2	12
929.3	16
929.4	19
929.5	21
929.6	21
929.7	19
929.8	17
929.9	15
930.3	14
930.4	15
930.5	16
930.6	18
930.7	19
930.8	18
930.9	15
931.0	14
931.1	13
931.2	12
931.3	10
931.5	8
931.6	9
931.7	12
931.8	15
931.9	19
932.0	22
932.1	21
932.2	19
932.3	16
932.4	14
932.6	14
932.7	14
932.8	15
932.9	16
933.0	16
933.1	15
933.2	12
933.7	12
933.8	12
933.9	13
934.0	13
934.1	12
934.4	10
934.5	12
934.6	13
934.7	13
934.8	13
934.9	14
935.0	16
935.1	18
935.2	19
935.3	18
935.4	16
935.5	13
935.7	12
935.8	13
935.9	15
936.0	17
936.1	18
936.2	18
936.3	16
936.4	14
936.5	12
936.6	10
936.7	9
937.1	9
937.2	9
937.3	11
937.4	13
937.5	14
937.6	16
937.7	16
937.8	15
937.9	13
938.2	12
938.3	13
938.4	14
938.5	15
938.6	15
938.7	15
938.8	14
938.9	13
939.0	11
939.3	10
939.4	11
939.5	12
939.6	13
939.7	13
940.0	12
940.1	13
940.2	14
940.3	15
940.4	16
940.5	15
941.2	13
941.3	14
941.4	17
941.5	20
941.6	21
941.7	20
941.8	17
942.0	13
942.1	16
942.2	19
942.3	21
942.4	20
942.5	17
942.6	13
942.7	12
942.8	12
943.1	10
943.2	11
943.3	14
943.4	17
943.5	19
943.6	21
943.7	21
943.8	21
943.9	22
944.0	22
944.1	22
944.2	19
944.3	15
944.5	14
944.6	16
944.7	16
944.9	14
945.0	15
945.1	18
945.2	22
945.3	24
945.4	25
945.5	25
945.6	24
945.7	22
945.8	19
945.9	16
946.1	15
946.2	17
946.3	19
946.4	22
946.5	23
946.6	22
946.7	19
946.8	16
947.0	15
947.1	17
947.2	20
947.3	21
947.4	20
947.5	19
947.7	18
947.8	19
947.9	20
948.0	21
948.1	21
948.2	19
948.3	16
948.4	13
948.6	13
948.7	14
948.8	14
948.9	14
949.0	15
949.1	18
949.2	20
949.3	19
949.4	17
950.0	14
950.1	15
950.2	18
950.3	21
950.4	22
950.5	20
950.6	17
950.7	15
950.8	14
950.9	13
951.1	11
951.2	13
951.3	15
951.4	16
951.5	17
951.6	18
951.7	18
951.8	18
951.9	17
952.0	16
952.3	14
952.4	16
952.5	17
952.6	17
952.7	18
952.8	19
952.9	20
953.0	19
953.1	18
953.2	16
953.3	14
953.6	12
953.7	13
953.8	15
953.9	16
954.0	16
954.1	15
954.4	15
954.5	15
954.6	16
954.7	17
954.8	19
954.9	21
955.0	22
955.1	21
955.2	19
956.6	14
956.7	16
956.8	19
956.9	21
957.0	21
957.1	21
957.2	21
957.3	20
957.4	19
957.5	17
957.6	15
957.7	13
957.8	10
958.0	9
958.1	12
958.2	16
958.3	21
958.4	23
958.5	22
958.6	19
958.7	16
959.4	15
959.5	16
959.6	17
959.7	18
959.8	19
959.9	19
960.0	18
960.1	17
960.2	15
960.3	12
960.5	11
960.6	13
960.7	17
960.8	20
960.9	21
961.0	21
961.1	19
961.2	17
961.3	15
961.5	14
961.6	15
961.7	16
961.8	16
961.9	16
962.0	17
962.1	19
962.2	21
962.3	23
962.4	23
962.5	20
962.6	16
962.8	15
962.9	18
963.0	21
963.1	23
963.2	23
963.3	23
963.4	22
963.5	20
963.6	18
963.7	17
964.2	16
964.3	17
964.4	19
964.5	21
964.6	21
965.9	18
966.0	19
966.1	20
966.2	21
966.3	21
966.4	21
966.5	21
966.6	22
966.7	21
966.8	19
967.1	16
967.2	19
967.3	21
967.4	22
967.5	20
967.6	18
967.9	16
968.0	18
968.1	20
968.2	20
968.3	19
968.4	17
968.5	14
968.6	11
968.9	10
969.0	12
969.1	15
969.2	18
969.3	20
969.4	22
969.5	22
969.6	19
969.7	15
969.9	14
970.0	17
970.1	19
970.2	20
970.3	20
970.4	19
970.5	18
970.6	16
970.7	13
970.9	11
971.0	15
971.1	19
971.2	19
971.3	19
971.4	19
971.5	20
971.6	21
971.7	21
971.8	20
971.9	19
972.2	18
972.3	18
972.4	20
972.5	21
972.6	22
972.7	19
972.8	17
972.9	15
973.0	15
973.1	15
973.2	15
973.3	14
973.6	13
973.7	14
973.8	16
973.9	18
974.0	19
974.1	19
974.2	17
974.3	15
974.5	14
974.6	16
974.7	19
974.8	22
974.9	22
975.0	23
975.1	22
975.2	21
975.3	18
975.4	15
975.6	14
975.7	17
975.8	20
975.9	21
976.0	22
976.1	23
976.2	23
976.3	23
976.4	21
976.5	18
976.7	17
976.8	19
976.9	20
977.0	21
977.1	21
977.2	21
977.3	21
977.4	22
977.5	23
977.6	24
977.7	23
977.8	22
977.9	19
978.0	16
978.9	16
979.0	18
979.1	20
979.2	19
979.3	17
979.5	15
979.6	17
979.7	19
979.8	22
979.9	24
980.0	23
980.1	20
980.2	16
980.4	14
980.5	16
980.6	18
980.7	20
980.8	21
980.9	22
981.0	22
981.1	23
981.2	22
981.3	20
981.4	17
981.6	16
981.7	18
981.8	20
981.9	21
982.0	22
982.1	22
982.2	21
982.3	19
983.1	19
983.2	21
983.3	23
983.4	25
983.5	24
983.6	21
983.7	16
984.0	14
984.1	17
984.2	21
984.3	25
984.4	27
984.5	27
984.6	25
984.7	23
984.8	20
984.9	18
985.8	18
985.9	20
986.0	22
986.1	24
986.2	25
986.3	25
986.4	23
986.5	21
986.6	20
986.7	19
986.8	19
986.9	18
987.2	18
987.3	19
987.4	21
987.5	23
987.6	22
987.7	20
987.8	17
987.9	15
988.1	14
988.2	15
988.3	16
988.4	17
988.5	18
988.6	19
988.7	20
988.8	21
988.9	23
989.0	24
989.1	24
989.2	23
989.3	20
989.4	18
989.5	17
989.6	17
989.7	16
990.0	14
990.1	16
990.2	17
990.3	19
990.4	20
990.5	20
990.6	19
990.7	17
990.9	16
991.0	18
991.1	20
991.2	21
991.3	22
991.4	22
991.5	22
991.6	22
991.7	22
992.0	20
992.1	22
992.2	24
992.3	25
992.4	25
992.5	24
992.6	21
992.7	19
994.4	16
994.5	17
994.6	19
994.7	22
994.8	24
994.9	23
995.0	20
995.1	17
995.2	15
995.4	14
995.5	16
995.6	18
995.7	20
995.8	21
995.9	21
996.0	20
996.1	20
996.2	19
996.5	17
996.6	18
996.7	19
996.8	19
996.9	19
997.0	20
997.1	22
997.2	22
997.3	21
997.4	18
997.6	17
997.7	18
997.8	19
997.9	20
998.0	20
998.1	20
998.2	20
998.3	20
998.4	19
998.5	17
998.6	14
998.8	13
998.9	15
999.0	18
999.1	19
999.2	19
999.3	17
999.6	16
999.7	18
999.8	19
999.9	18
1000.0	18
1000.1	18
1000.2	19
1000.3	20
1000.4	21
1000.5	21
1000.6	21
1000.7	20
1001.0	19
1001.1	20
1001.2	23
1001.3	24
1001.4	25
1001.5	24
1001.6	22
1001.7	22
1001.8	21
1001.9	20
1002.0	19
1002.2	17
1002.3	19
1002.4	21
1002.5	22
1002.6	22
1002.7	20
1002.8	17
1002.9	14
1003.1	14
1003.2	15
1003.3	16
1003.4	17
1003.5	17
1003.6	16
1003.8	15
1003.9	16
1004.0	19
1004.1	22
1004.2	24
1004.3	23
1004.4	20
1004.5	18
1004.6	17
1005.0	16
1005.1	17
1005.2	19
1005.3	21
1005.4	21
1005.5	20
1005.6	20
1005.7	21
1005.8	22
1005.9	23
1006.0	23
1007.2	18
1007.3	19
1007.4	20
1007.5	20
1007.6	20
1007.7	20
1007.8	20
1007.9	19
1008.0	20
1008.1	20
1008.2	19
1008.3	17
1008.4	14
1008.6	9
1008.7	12
1008.8	16
1008.9	21
1009.0	25
1009.1	25
1009.2	22
1009.3	18
1009.5	17
1009.6	19
1009.7	20
1009.8	19
1009.9	17
1010.0	14
1010.2	13
1010.3	14
1010.4	16
1010.5	17
1010.6	17
1010.7	17
1011.1	17
1011.2	17
1011.3	18
1011.4	18
1011.5	17
1011.6	16
1011.9	14
1012.0	16
1012.1	19
1012.2	23
1012.3	26
1012.4	26
1012.5	25
1012.6	22
1012.7	18
1012.8	15
1013.1	12
1013.2	14
1013.3	17
1013.4	20
1013.5	21
1013.6	20
1013.7	19
1013.8	17
1013.9	16
1014.0	14
1014.3	13
1014.4	14
1014.5	16
1014.6	18
1014.7	19
1014.8	19
1014.9	18
1015.0	16
1015.1	14
1015.2	11
1015.4	10
1015.5	13
1015.6	16
1015.7	19
1015.8	21
1015.9	22
1016.0	22
1016.1	21
1016.2	21
1016.3	20
1016.4	19
1016.5	18
1016.8	16
1016.9	18
1017.0	21
1017.1	21
1017.2	20
1017.3	18
1017.4	15
1017.5	12
1017.7	9
1017.8	12
1017.9	16
1018.0	19
1018.1	21
1018.2	21
1018.3	18
1018.4	16
1018.6	14
1018.7	16
1018.8	17
1018.9	17
1019.0	16
1019.1	16
1019.2	17
1019.3	19
1019.4	21
1019.5	21
1019.6	19
1019.7	16
1019.8	13
1020.0	11
1020.1	12
1020.2	15
1020.3	18
1020.4	19
1020.5	19
1020.6	19
1020.7	18
1020.8	17
1021.1	14
1021.2	16
1021.3	19
1021.4	21
1021.5	22
1021.6	21
1021.7	20
1021.8	19
1021.9	18
1022.2	15
1022.3	17
1022.4	18
1022.5	18
1022.6	19
1022.7	20
1022.8	21
1022.9	20
1023.0	19
1023.1	18
1023.2	17
1023.3	17
1023.4	16
1023.5	15
1023.7	13
1023.8	15
1023.9	17
1024.0	18
1024.1	18
1024.2	18
1024.3	18
1024.4	18
1024.5	17
1024.6	14
1024.8	12
1024.9	14
1025.0	19
1025.1	23
1025.2	25
1025.3	24
1025.4	21
1025.5	17
1025.6	13
1025.8	13
1025.9	15
1026.0	17
1026.1	18
1026.2	19
1026.3	20
1026.4	21
1026.5	20
1026.6	18
1026.7	16
1026.8	14
1026.9	14
1027.0	14
1027.3	12
1027.4	14
1027.5	16
1027.6	17
1027.7	17
1027.8	17
1027.9	18
1028.0	19
1028.3	16
1028.4	18
1028.5	21
1028.6	22
1028.7	22
1028.8	21
1028.9	18
1029.0	14
1029.1	10
1029.3	9
1029.4	11
1029.5	13
1029.6	16
1029.7	19
1029.8	22
1029.9	24
1030.0	23
1030.1	21
1030.2	18
1030.3	17
1030.4	16
1030.5	15
1030.7	13
1030.8	15
1030.9	18
1031.0	20
1031.1	20
1031.2	18
1031.3	15
1031.4	14
1031.6	13
1031.7	14
1031.8	15
1031.9	15
1032.0	15
1032.1	16
1032.2	17
1032.3	18
1032.4	16
1032.5	14
1032.6	11
1032.8	10
1032.9	12
1033.0	16
1033.1	19
1033.2	22
1033.3	23
1033.4	22
1033.5	17
1033.6	11
1033.8	7
1033.9	10
1034.0	12
1034.1	13
1034.2	12
1034.3	12
1034.4	14
1034.5	17
1034.6	20
1034.7	22
1034.8	21
1034.9	18
1035.0	14
1035.1	12
1035.9	12
1036.0	14
1036.1	16
1036.2	18
1036.3	17
1037.3	13
1037.4	14
1037.5	15
1037.6	16
1037.7	15
1037.8	15
1037.9	15
1038.0	17
1038.1	18
1038.2	19
1038.3	18
1038.4	16
1038.6	12
1038.7	14
1038.8	18
1038.9	22
1039.0	22
1039.1	19
1040.3	15
1040.4	16
1040.5	17
1040.6	19
1040.7	21
1040.8	21
1040.9	20
1041.8	17
1041.9	18
1042.0	19
1042.1	19
1042.2	16
1042.3	13
1042.5	11
1042.6	12
1042.7	15
1042.8	19
1042.9	21
1043.0	21
1043.1	20
1043.2	18
1043.3	16
1043.5	14
1043.6	16
1043.7	18
1043.8	19
1043.9	19
1044.0	19
1044.1	20
1044.2	21
1044.3	20
1044.4	19
1044.5	16
1044.6	13
1044.8	11
1044.9	13
1045.0	16
1045.1	17
1045.2	18
1045.3	18
1045.4	17
1045.6	15
1045.7	16
1045.8	19
1045.9	20
1046.0	21
1046.1	20
1046.2	20
1046.3	20
1046.4	19
1046.5	18
1046.8	16
1046.9	17
1047.0	18
1047.1	19
1047.2	20
1047.3	20
1047.4	19
1047.5	17
1048.1	16
1048.2	18
1048.3	18
1048.4	18
1048.5	17
1049.4	12
1049.5	14
1049.6	18
1049.7	22
1049.8	24
1049.9	23
1050.0	22
1050.1	21
1050.2	20
1050.3	18
1050.4	15
1050.5	12
1050.7	12
1050.8	13
1050.9	14
1051.0	15
1051.1	17
1051.2	19
1051.3	19
1051.4	15
1051.5	11
1051.7	9
1051.8	12
1051.9	16
1052.0	17
1052.1	17
1052.2	17
1052.3	17
1052.4	16
1052.5	15
1052.6	12
1052.8	12
1052.9	13
1053.0	15
1053.1	14
1053.2	13
1053.3	10
1053.4	8
1053.6	7
1053.7	9
1053.8	11
1053.9	12
1054.0	13
1054.1	14
1054.2	15
1054.3	15
1054.6	13
1054.7	15
1054.8	18
1054.9	19
1055.0	18
1055.1	14
1055.2	11
1055.4	10
1055.5	10
1055.6	12
1055.7	14
1055.8	17
1055.9	19
1056.0	19
1056.1	18
1056.2	16
1056.3	13
1056.8	12
1056.9	13
1057.0	15
1057.1	17
1057.2	20
1057.3	22
1057.4	23
1057.5	23
1057.6	22
1057.7	18
1058.0	15
1058.1	18
1058.2	20
1058.3	20
1058.4	16
1058.5	11
1058.7	9
1058.8	11
1058.9	13
1059.0	15
1059.1	15
1059.2	16
1059.3	17
1059.4	19
1059.5	19
1059.6	17
1059.7	14
1060.0	11
1060.1	13
1060.2	17
1060.3	18
1060.4	19
1060.5	18
1060.6	17
1060.7	16
1061.1	16
1061.2	17
1061.3	19
1061.4	22
1061.5	22
1061.6	21
1061.7	19
1061.8	17
1061.9	15
1062.0	13
1062.2	13
1062.3	14
1062.4	15
1062.5	17
1062.6	18
1062.7	19
1062.8	21
1062.9	21
1063.0	21
1063.1	18
1063.2	15
1063.3	13
1063.6	13
1063.7	13
1063.8	14
1063.9	14
1064.0	17
1064.1	20
1064.2	23
1064.3	25
1064.4	23
1064.5	21
1064.6	18
1064.7	16
1065.7	14
1065.8	15
1065.9	17
1066.0	18
1066.1	20
1066.2	20
1066.3	21
1066.4	23
1066.5	24
1066.6	23
1066.7	21
1066.8	19
1067.7	13
1067.8	16
1067.9	18
1068.0	19
1068.1	18
1069.0	17
1069.1	18
1069.2	20
1069.3	21
1069.4	20
1069.5	17
1069.6	13
1069.7	11
1069.9	10
1070.0	11
1070.1	13
1070.2	16
1070.3	19
1070.4	22
1070.5	23
1070.6	22
1070.7	20
1070.8	18
1070.9	16
1071.2	15
1071.3	17
1071.4	18
1071.5	19
1071.6	20
1071.7	21
1071.8	22
1071.9	22
1072.0	21
1072.1	18
1072.2	15
1072.3	11
1072.6	9
1072.7	11
1072.8	15
1072.9	17
1073.0	17
1073.1	18
1073.2	19
1073.3	21
1073.4	20
1073.5	17
1073.6	14
1073.8	14
1073.9	16
1074.0	16
1074.1	16
1074.2	16
1074.3	17
1074.4	16
1074.5	14
1074.7	12
1074.8	14
1074.9	15
1075.0	16
1075.1	17
1075.2	18
1075.3	19
1075.4	20
1075.5	20
1075.6	20
1075.7	19
1075.8	17
1076.5	14
1076.6	15
1076.7	16
1076.8	19
1076.9	22
1077.0	26
1077.1	29
1077.2	28
1077.3	24
1077.4	19
1077.5	15
1077.7	14
1077.8	16
1077.9	18
1078.0	17
1078.1	15
1078.3	13
1078.4	15
1078.5	18
1078.6	20
1078.7	22
1078.8	22
1078.9	21
1079.0	19
1079.1	17
1079.2	16
1079.3	16
1079.4	16
1079.5	15
1079.7	13
1079.8	15
1079.9	18
1080.0	21
1080.1	22
1080.2	22
1080.3	21
1080.4	20
1080.5	19
1080.6	18
1080.7	17
1080.8	15
1081.0	14
1081.1	15
1081.2	17
1081.3	18
1081.4	19
1081.5	21
1081.6	22
1081.7	22
1081.8	21
1081.9	19
1082.0	16
1082.2	15
1082.3	16
1082.4	17
1082.5	16
1082.7	14
1082.8	16
1082.9	19
1083.0	22
1083.1	23
1083.2	22
1083.3	21
1083.4	21
1083.5	21
1083.6	20
1083.7	20
1083.8	19
1083.9	17
1084.1	14
1084.2	15
1084.3	18
1084.4	21
1084.5	22
1084.6	22
1084.7	22
1084.8	20
1084.9	19
1085.0	18
1085.1	18
1085.2	18
1085.3	17
1085.6	16
1085.7	18
1085.8	21
1085.9	23
1086.0	23
1086.1	22
1086.2	20
1087.1	21
1087.2	22
1087.3	22
1087.4	22
1087.5	22
1087.6	20
1087.7	18
1087.9	17
1088.0	19
1088.1	20
1088.2	21
1088.3	22
1088.4	22
1088.5	20
1088.6	18
1088.8	18
1088.9	19
1089.0	20
1089.1	20
1089.2	21
1089.3	21
1089.4	22
1089.5	22
1089.6	20
1089.7	17
1089.9	17
1090.0	18
1090.1	19
1090.2	18
1090.3	18
1090.4	19
1090.5	21
1090.6	23
1090.7	25
1090.8	25
1090.9	23
1091.0	21
1091.1	19
1091.3	18
1091.4	19
1091.5	21
1091.6	22
1091.7	23
1091.8	21
1091.9	18
1092.8	18
1092.9	18
1093.0	19
1093.1	20
1093.2	21
1093.3	23
1093.4	23
1093.5	22
1093.6	18
1093.9	16
1094.0	19
1094.1	21
1094.2	20
1094.3	16
1094.5	14
1094.6	15
1094.7	18
1094.8	19
1094.9	19
1095.0	19
1095.1	18
1095.3	16
1095.4	18
1095.5	20
1095.6	21
1095.7	21
1095.8	19
1095.9	18
1096.2	16
1096.3	18
1096.4	20
1096.5	20
1096.6	20
1096.7	21
1096.8	22
1096.9	23
1097.0	24
1097.1	24
1097.2	22
1097.3	20
1097.5	18
1097.6	20
1097.7	21
1097.8	22
1097.9	21
1098.0	20
1098.1	18
1098.2	16
1098.4	14
1098.5	16
1098.6	18
1098.7	21
1098.8	23
1098.9	23
1099.0	22
1099.1	21
1099.2	19
1099.3	17
1099.9	17
1100.0	18
1100.1	20
1100.2	21
1100.3	23
1100.4	23
1100.5	22
1100.6	20
1100.7	19
1101.0	16
1101.1	19
1101.2	23
1101.3	27
1101.4	29
1101.5	27
1101.6	23
1101.7	18
1102.0	16
1102.1	19
1102.2	21
1102.3	21
1102.4	21
1102.5	21
1102.6	21
1102.7	21
1102.8	21
1102.9	21
1103.0	20
1103.1	18
1103.4	16
1103.5	17
1103.6	19
1103.7	20
1103.8	19
1103.9	17
1104.2	16
1104.3	17
1104.4	18
1104.5	18
1104.6	20
1104.7	22
1104.8	24
1104.9	23
1105.0	21
1105.1	19
1105.2	17
1105.4	14
1105.5	16
1105.6	19
1105.7	21
1105.8	22
1105.9	22
1106.0	23
1106.1	24
1106.2	25
1106.3	25
1106.4	25
1106.5	24
1106.6	24
1106.7	23
1107.8	17
1107.9	18
1108.0	20
1108.1	22
1108.2	22
1108.3	22
1108.4	21
1108.5	20
1108.6	19
1108.7	17
1108.8	15
1108.9	13
1109.1	12
1109.2	14
1109.3	18
1109.4	22
1109.5	23
1109.6	21
1109.7	20
1109.8	18
1109.9	17
1110.2	16
1110.3	17
1110.4	18
1110.5	18
1110.6	18
1110.7	17
1111.0	15
1111.1	16
1111.2	17
1111.3	18
1111.4	19
1111.5	20
1111.6	20
1111.7	20
1111.8	19
1111.9	18
1112.0	16
1112.1	14
1112.4	13
1112.5	14
1112.6	16
1112.7	19
1112.8	21
1112.9	20
1113.0	18
1113.2	15
1113.3	17
1113.4	20
1113.5	22
1113.6	22
1113.7	20
1113.8	17
1114.0	13
1114.1	15
1114.2	18
1114.3	21
1114.4	21
1114.5	21
1114.6	19
1114.8	17
1114.9	19
1115.0	22
1115.1	25
1115.2	25
1115.3	22
1115.4	19
1115.5	17
1115.6	16
1115.9	15
1116.0	16
1116.1	17
1116.2	19
1116.3	19
1116.4	20
1116.5	19
1116.6	19
1116.7	17
1116.9	16
1117.0	17
1117.1	20
1117.2	22
1117.3	22
1117.4	22
1118.3	15
1118.4	17
1118.5	19
1118.6	20
1118.7	20
1118.8	19
1118.9	18
1119.1	17
1119.2	18
1119.3	20
1119.4	21
1119.5	21
1119.6	21
1119.7	21
1119.8	20
1119.9	18
1120.0	17
1120.3	16
1120.4	16
1120.5	17
1120.6	19
1120.7	20
1120.8	20
1121.0	17
1121.1	19
1121.2	22
1121.3	23
1121.4	23
1121.5	20
1121.6	17
1121.9	15
1122.0	16
1122.1	18
1122.2	19
1122.3	20
1122.4	21
1122.5	22
1122.6	22
1122.7	20
1122.8	17
1122.9	14
1123.1	12
1123.2	14
1123.3	17
1123.4	20
1123.5	23
1123.6	23
1123.7	20
1123.8	17
1123.9	14
1124.2	13
1124.3	14
1124.4	17
1124.5	21
1124.6	24
1124.7	24
1124.8	22
1124.9	20
1125.0	17
1125.2	13
1125.3	15
1125.4	18
1125.5	23
1125.6	28
1125.7	30
1125.8	28
1125.9	23
1126.0	17
1126.3	13
1126.4	15
1126.5	17
1126.6	17
1126.7	18
1126.8	19
1126.9	22
1127.0	24
1127.1	25
1127.2	23
1127.3	20
1127.4	15
1127.7	11
1127.8	16
1127.9	20
1128.0	22
1128.1	21
1128.2	20
1128.3	18
1128.4	15
1128.6	12
1128.7	14
1128.8	17
1128.9	19
1129.0	20
1129.1	19
1129.2	18
1130.2	12
1130.3	14
1130.4	18
1130.5	20
1130.6	22
1130.7	22
1130.8	21
1130.9	19
1131.0	18
1131.3	16
1131.4	17
1131.5	18
1131.6	18
1131.7	18
1131.8	17
1131.9	17
1132.8	16
1132.9	17
1133.0	19
1133.1	20
1133.2	18
1133.3	16
1133.5	14
1133.6	16
1133.7	19
1133.8	21
1133.9	22
1134.0	20
1134.1	16
1134.2	12
1134.4	10
1134.5	12
1134.6	13
1134.7	14
1134.8	16
1134.9	18
1135.0	20
1135.1	19
1135.3	17
1135.4	19
1135.5	20
1135.6	19
1135.7	15
1136.0	12
1136.1	15
1136.2	19
1136.3	21
1136.4	22
1136.5	21
1136.6	17
1136.7	14
1136.9	13
1137.0	16
1137.1	19
1137.2	21
1137.3	21
1137.4	20
1137.5	19
1137.6	19
1137.7	18
1137.8	16
1138.1	14
1138.2	17
1138.3	19
1138.4	19
1138.5	18
1138.6	15
1138.7	13
1139.0	11
1139.1	12
1139.2	14
1139.3	16
1139.4	18
1139.5	20
1139.6	21
1139.7	19
1139.8	17
1139.9	15
1140.0	14
1140.1	13
1140.3	11
1140.4	12
1140.5	15
1140.6	19
1140.7	22
1140.8	23
1140.9	23
1141.0	22
1141.1	22
1141.2	22
1141.3	21
1141.4	18
1141.5	15
1141.7	13
1141.8	17
1141.9	21
1142.0	24
1142.1	24
1142.2	20
1142.3	16
1142.6	14
1142.7	15
1142.8	17
1142.9	19
1143.0	21
1143.1	22
1143.2	21
1143.3	21
1143.4	20
1143.5	19
1143.6	19
1143.9	17
1144.0	19
1144.1	21
1144.2	24
1144.3	25
1144.4	23
1144.5	20
1144.6	16
1144.7	14
1144.9	13
1145.0	15
1145.1	17
1145.2	19
1145.3	19
1145.4	20
1145.5	20
1145.6	19
1145.7	17
1146.4	14
1146.5	16
1146.6	19
1146.7	20
1146.8	19
1147.5	13
1147.6	15
1147.7	18
1147.8	19
1147.9	19
1148.0	17
1148.3	16
1148.4	17
1148.5	18
1148.6	19
1148.7	20
1148.8	19
1148.9	18
1149.0	17
1149.1	16
1150.0	12
1150.1	15
1150.2	17
1150.3	19
1150.4	20
1150.5	19
1150.6	17
1150.7	16
1150.8	15
1150.9	14
1151.0	13
1151.1	13
1151.5	13
1151.6	14
1151.7	15
1151.8	16
1151.9	15
1152.0	15
1152.1	14
1152.4	13
1152.5	14
1152.6	16
1152.7	17
1152.8	16
1152.9	14
1153.4	15
1153.5	15
1153.6	16
1153.7	17
1153.8	17
1153.9	18
1154.0	19
1154.1	20
1154.2	19
1154.3	17
1154.4	16
1154.5	15
1154.6	15
1154.7	14
1155.0	12
1155.1	13
1155.2	15
1155.3	16
1155.4	16
1155.5	15
1155.6	13
1155.8	11
1155.9	14
1156.0	18
1156.1	20
1156.2	21
1156.3	21
1156.4	20
1156.5	19
1156.6	16
1157.6	12
1157.7	13
1157.8	14
1157.9	14
1158.0	14
1158.1	15
1158.2	17
1158.3	19
1158.4	21
1158.5	20
1158.6	17
1158.7	14
1158.8	11
1159.0	10
1159.1	11
1159.2	12
1159.3	13
1159.4	15
1159.5	17
1159.6	19
1159.7	19
1159.8	19
1159.9	18
1160.0	15
1160.1	11
1160.2	7
1160.4	5
1160.5	8
1160.6	11
1160.7	15
1160.8	18
1160.9	19
1161.0	21
1161.1	21
1161.2	20
1161.3	19
1161.4	17
1161.5	17
1161.6	17
1161.7	17
1162.0	15
1162.1	17
1162.2	18
1162.3	17
1162.4	15
1162.6	13
1162.7	14
1162.8	16
1162.9	19
1163.0	21
1163.1	21
1163.2	21
1163.3	20
1163.4	19
1163.5	18
1163.6	17
1163.7	14
1163.9	12
1164.0	13
1164.1	16
1164.2	19
1164.3	21
1164.4	20
1164.5	18
1164.6	15
1164.9	16
1165.0	16
1165.1	17
1165.2	19
1165.3	20
1165.4	20
1165.5	18
1165.6	15
1165.9	14
1166.0	15
1166.1	16
1166.2	18
1166.3	19
1166.4	19
1167.3	14
1167.4	15
1167.5	16
1167.6	17
1167.7	17
1167.8	17
1167.9	18
1168.0	20
1168.1	21
1168.2	21
1168.3	18
1168.4	15
1168.9	15
1169.0	15
1169.1	16
1169.2	17
1169.3	16
1169.4	15
1170.3	12
1170.4	15
1170.5	21
1170.6	24
1170.7	24
1170.8	21
1170.9	18
1171.0	16
1171.1	15
1171.3	12
1171.4	13
1171.5	16
1171.6	20
1171.7	22
1171.8	21
1171.9	20
1172.2	18
1172.3	19
1172.4	21
1172.5	23
1172.6	24
1172.7	22
1172.8	20
1172.9	16
1173.0	13
1173.1	11
1173.3	10
1173.4	11
1173.5	12
1173.6	13
1173.7	14
1173.8	15
1173.9	17
1174.0	17
1174.1	17
1174.2	16
1174.3	15
1174.6	14
1174.7	15
1174.8	16
1174.9	16
1175.0	16
1175.1	16
1175.2	16
1175.3	17
1175.4	17
1175.5	16
1175.8	14
1175.9	16
1176.0	17
1176.1	17
1176.2	16
1176.3	16
1176.4	16
1176.5	15
1176.7	12
1176.8	13
1176.9	17
1177.0	21
1177.1	24
1177.2	24
1177.3	23
1177.4	19
1177.5	15
1177.6	12
1177.9	11
1178.0	12
1178.1	12
1178.2	12
1178.3	12
1178.4	12
1178.5	11
1178.6	13
1178.7	16
1178.8	17
1178.9	16
1179.0	13
1179.2	12
1179.3	14
1179.4	17
1179.5	18
1179.6	18
1179.7	16
1179.8	14
1180.1	13
1180.2	14
1180.3	14
1180.4	14
1180.5	16
1180.6	18
1180.7	19
1180.8	19
1180.9	17
1181.4	16
1181.5	17
1181.6	19
1181.7	21
1181.8	22
1181.9	23
1182.0	22
1182.1	22
1182.2	21
1182.3	19
1182.6	15
1182.7	18
1182.8	22
1182.9	23
1183.0	23
1183.1	21
1183.2	20
1183.3	18
1183.4	16
1183.5	13
1183.7	11
1183.8	14
1183.9	18
1184.0	22
1184.1	25
1184.2	25
1184.3	23
1184.4	19
1184.5	16
1184.6	14
1184.8	13
1184.9	15
1185.0	17
1185.1	19
1185.2	20
1185.3	20
1185.4	19
1186.6	12
1186.7	14
1186.8	17
1186.9	19
1187.0	20
1187.1	20
1187.2	21
1187.3	21
1187.4	21
1188.7	12
1188.8	15
1188.9	19
1189.0	21
1189.1	21
1189.2	20
1189.3	18
1189.4	17
1189.5	17
1189.6	16
1189.7	15
1190.0	14
1190.1	15
1190.2	17
1190.3	20
1190.4	20
1190.5	19
1192.0	15
1192.1	17
1192.2	19
1192.3	20
1192.4	20
1192.5	20
1192.6	20
1192.7	18
1192.8	17
1193.5	14
1193.6	15
1193.7	18
1193.8	19
1193.9	19
1194.0	18
1194.1	17
1194.2	15
1195.6	11
1195.7	12
1195.8	15
1195.9	18
1196.0	21
1196.1	21
1196.2	21
1196.3	20
1196.4	20
1196.5	20
1196.6	19
1196.9	18
1197.0	20
1197.1	22
1197.2	23
1197.3	22
1197.4	20
1197.5	17
1197.6	16
1197.9	15
1198.0	16
1198.1	17
1198.2	20
1198.3	22
1198.4	23
1198.5	23
1198.6	21
1198.7	17
1198.8	14
1199.1	12
1199.2	14
1199.3	16
1199.4	18
1199.5	19
1199.6	20
1199.7	21
1199.8	21
1199.9	19
1200.2	17
1200.3	19
1200.4	20
1200.5	21
1200.6	22
1200.7	23
1200.8	24
1200.9	24
1201.0	23
1201.1	20
1201.2	17
1201.5	16
1201.6	17
1201.7	19
1201.8	21
1201.9	22
1202.0	21
1202.1	20
1202.2	18
1202.5	17
1202.6	19
1202.7	20
1202.8	20
1202.9	19
1203.0	17
1203.2	15
1203.3	17
1203.4	20
1203.5	21
1203.6	20
1203.7	20
1203.8	20
1203.9	22
1204.0	22
1204.1	21
1204.9	17
1205.0	19
1205.1	21
1205.2	22
1205.3	22
1205.4	23
1205.5	23
1205.6	24
1205.7	24
1205.8	22
1205.9	21
1206.0	20
1206.1	20
1206.2	19
1206.3	19
1206.9	18
1207.0	18
1207.1	18
1207.2	19
1207.3	20
1207.4	22
1207.5	23
1207.6	23
1207.7	22
1207.8	23
1207.9	23
1208.0	21
1208.1	18
1208.4	16
1208.5	19
1208.6	22
1208.7	23
1208.8	23
1208.9	20
1209.0	18
1209.3	18
1209.4	18
1209.5	20
1209.6	21
1209.7	22
1209.8	21
1209.9	19
1210.8	17
1210.9	19
1211.0	21
1211.1	22
1211.2	23
1211.3	22
1211.4	19
1211.7	17
1211.8	19
1211.9	20
1212.0	21
1212.1	21
1212.2	18
1212.3	16
1212.5	14
1212.6	15
1212.7	17
1212.8	18
1212.9	18
1213.0	19
1213.1	20
1213.2	21
1213.3	21
1213.4	19
1213.6	18
1213.7	19
1213.8	21
1213.9	21
1214.0	20
1214.1	18
1214.6	17
1214.7	16
1214.8	18
1214.9	21
1215.0	23
1215.1	22
1215.2	20
1215.3	17
1215.4	16
1215.5	15
1215.8	15
1215.9	16
1216.0	17
1216.1	19
1216.2	20
1216.3	20
1216.4	19
1216.8	18
1216.9	19
1217.0	20
1217.1	22
1217.2	22
1217.3	21
1217.4	20
1217.5	18
1217.8	15
1217.9	18
1218.0	22
1218.1	26
1218.2	28
1218.3	27
1218.4	23
1218.5	16
1218.6	9
1218.8	5
1218.9	9
1219.0	16
1219.1	22
1219.2	27
1219.3	29
1219.4	28
1219.5	25
1219.6	22
1219.7	19
1219.8	18
1220.0	17
1220.1	18
1220.2	20
1220.3	22
1220.4	22
1220.5	20
1220.6	17
1220.7	15
1220.8	15
1220.9	15
1221.2	14
1221.3	16
1221.4	18
1221.5	19
1221.6	19
1221.7	19
1222.1	18
1222.2	19
1222.3	20
1222.4	22
1222.5	23
1222.6	22
1222.7	20
1222.8	18
1223.6	14
1223.7	15
1223.8	18
1223.9	20
1224.0	21
1224.1	21
1224.2	19
1224.3	17
1224.5	16
1224.6	17
1224.7	18
1224.8	18
1224.9	17
1225.2	17
1225.3	17
1225.4	18
1225.5	19
1225.6	19
1225.7	20
1225.8	21
1225.9	21
1226.0	22
1226.1	22
1226.2	21
1227.0	18
1227.1	19
1227.2	21
1227.3	23
1227.4	23
1227.5	21
1229.5	14
1229.6	16
1229.7	16
1229.8	16
1230.1	14
1230.2	16
1230.3	17
1230.4	17
1230.7	16
1230.8	18
1230.9	19
1231.0	20
1231.1	21
1231.2	21
1231.3	20
1231.4	18
1231.5	17
1231.8	16
1231.9	17
1232.0	18
1232.1	19
1232.2	19
1232.3	20
1232.4	21
1232.5	21
1232.6	20
1232.7	16
1232.9	12
1233.0	16
1233.1	21
1233.2	24
1233.3	24
1233.4	21
1233.5	18
1235.2	14
1235.3	15
1235.4	17
1235.5	19
1235.6	19
1235.7	19
1235.8	19
1235.9	19
1236.0	20
1236.1	20
1236.2	17
1236.3	13
1236.5	8
1236.6	10
1236.7	14
1236.8	19
1236.9	23
1237.0	25
1237.1	25
1237.2	23
1237.3	21
1237.4	19
1237.5	18
1237.6	18
1237.7	17
1237.8	17
1237.9	17
1238.0	16
1238.2	14
1238.3	16
1238.4	20
1238.5	22
1238.6	22
1238.7	19
1239.0	16
1239.1	18
1239.2	20
1239.3	20
1239.4	20
1239.5	19
1241.1	14
1241.2	15
1241.3	16
1241.4	19
1241.5	22
1241.6	22
1241.7	21
1241.8	18
1241.9	16
1242.3	15
1242.4	16
1242.5	17
1242.6	18
1242.7	19
1242.8	20
1242.9	20
1243.0	21
1243.1	21
1243.2	21
1243.3	20
1243.4	19
1244.6	13
1244.7	15
1244.8	16
1244.9	16
1245.0	15
1245.1	15
1245.4	11
1245.5	14
1245.6	19
1245.7	22
1245.8	23
1245.9	22
1246.0	21
1246.1	19
1246.4	18
1246.5	20
1246.6	21
1246.7	21
1247.5	15
1247.6	18
1247.7	21
1247.8	23
1247.9	23
1248.0	22
1248.1	20
1248.3	19
1248.4	20
1248.5	22
1248.6	22
1248.7	21
1248.8	19
1248.9	17
1249.0	15
1249.3	12
1249.4	14
1249.5	16
1249.6	16
1249.9	15
1250.0	16
1250.1	17
1250.2	16
1250.3	15
1250.6	14
1250.7	17
1250.8	20
1250.9	23
1251.0	24
1251.1	24
1251.2	22
1251.3	19
1251.4	15
1251.5	10
1251.7	8
1251.8	11
1251.9	15
1252.0	17
1252.1	18
1252.2	17
1252.3	16
1252.4	14
1252.7	13
1252.8	14
1252.9	15
1253.0	16
1253.1	16
1253.2	15
1253.5	14
1253.6	15
1253.7	16
1253.8	17
1253.9	16
1254.9	10
1255.0	12
1255.1	15
1255.2	16
1255.3	17
1255.4	17
1255.5	17
1255.6	17
1255.9	16
1256.0	17
1256.1	18
1256.2	19
1256.3	19
1256.4	18
1256.5	17
1256.7	14
1256.8	16
1256.9	19
1257.0	21
1257.1	20
1257.2	17
1257.5	13
1257.6	16
1257.7	20
1257.8	21
1257.9	20
1258.0	19
1258.1	18
1258.2	18
1258.3	18
1258.4	16
1258.7	15
1258.8	16
1258.9	17
1259.0	17
1259.1	17
1259.2	17
1259.3	19
1259.4	20
1259.5	21
1259.6	21
1259.7	19
1259.8	17
1259.9	15
1260.0	13
1260.1	12
1260.9	11
1261.0	13
1261.1	14
1261.2	15
1261.3	15
1261.6	14
1261.7	16
1261.8	18
1261.9	19
1262.0	19
1262.1	19
1262.2	19
1262.3	20
1262.4	21
1262.5	22
1262.6	22
1262.7	20
1263.5	12
1263.6	14
1263.7	16
1263.8	17
1263.9	16
1264.1	13
1264.2	15
1264.3	17
1264.4	20
1264.5	21
1264.6	21
1264.7	20
1264.8	21
1264.9	21
1265.0	20
1265.8	11
1265.9	15
1266.0	21
1266.1	24
1266.2	24
1266.3	23
1266.4	21
1266.7	19
1266.8	20
1266.9	21
1267.0	22
1267.1	20
1267.2	17
1267.4	16
1267.5	18
1267.6	20
1267.7	21
1267.8	22
1267.9	23
1268.0	22
1268.1	21
1268.2	20
1269.1	12
1269.2	14
1269.3	17
1269.4	19
1269.5	19
1269.6	18
1269.7	18
1269.8	18
1269.9	17
1270.0	15
1270.1	13
1270.3	11
1270.4	12
1270.5	15
1270.6	20
1270.7	24
1270.8	25
1270.9	22
1271.0	18
1271.1	12
1271.2	8
1271.4	5
1271.5	7
1271.6	9
1271.7	13
1271.8	17
1271.9	21
1272.0	22
1272.1	21
1272.2	20
1272.3	20
1272.4	19
1272.5	18
1272.6	16
1272.7	13
1272.9	12
1273.0	14
1273.1	16
1273.2	17
1273.3	17
1273.4	15
1273.7	14
1273.8	15
1273.9	16
1274.0	18
1274.1	19
1274.2	19
1274.3	17
1275.1	10
1275.2	12
1275.3	15
1275.4	17
1275.5	17
1275.6	17
1275.7	18
1275.8	19
1275.9	20
1276.0	18
1276.8	14
1276.9	16
1277.0	18
1277.1	19
1277.2	18
1277.3	16
1277.4	14
1277.7	13
1277.8	15
1277.9	17
1278.0	17
1278.1	16
1278.2	15
1279.9	10
1280.0	12
1280.1	14
1280.2	16
1280.3	17
1280.4	17
1280.5	15
1280.6	12
1280.7	10
1280.9	7
1281.0	9
1281.1	12
1281.2	16
1281.3	18
1281.4	19
1281.5	18
1281.6	18
1281.7	17
1281.8	16
1281.9	14
1282.0	12
1282.3	11
1282.4	13
1282.5	16
1282.6	19
1282.7	20
1282.8	19
1282.9	17
1283.0	15
1283.5	15
1283.6	16
1283.7	16
1283.8	17
1283.9	18
1284.0	18
1284.1	19
1284.2	20
1284.3	21
1284.4	22
1284.5	21
1284.6	20
1284.7	21
1284.8	22
1284.9	22
1285.0	21
1285.1	19
1285.2	17
1285.3	16
1285.4	16
1285.5	16
1285.8	15
1285.9	15
1286.0	17
1286.1	19
1286.2	22
1286.3	23
1286.4	21
1286.5	18
1286.6	16
1286.8	15
1286.9	16
1287.0	17
1287.1	16
1287.2	14
1287.5	12
1287.6	14
1287.7	15
1287.8	18
1287.9	19
1288.0	21
1288.1	21
1288.2	21
1288.3	20
1289.1	8
1289.2	10
1289.3	13
1289.4	16
1289.5	17
1289.6	19
1289.7	20
1289.8	21
1289.9	22
1290.0	23
1290.1	22
1290.2	20
1290.3	16
1290.6	13
1290.7	17
1290.8	20
1290.9	22
1291.0	22
1291.1	21
1291.2	18
1291.3	14
1292.5	13
1292.6	14
1292.7	15
1292.8	16
1292.9	17
1293.0	18
1293.1	19
1293.2	19
1293.3	18
1293.4	16
1293.6	14
1293.7	15
1293.8	17
1293.9	18
1294.0	18
1294.1	16
1294.2	15
1294.3	14
1294.4	13
1295.2	14
1295.3	15
1295.4	16
1295.5	17
1295.6	19
1295.7	20
1295.8	21
1295.9	20
1296.0	19
1296.1	17
1296.2	15
1296.4	14
1296.5	15
1296.6	16
1296.7	17
1296.8	17
1296.9	18
1297.0	17
1297.1	17
1297.2	17
1297.3	17
1297.4	17
1297.5	16
1297.6	14
1297.7	11
1297.9	10
1298.0	12
1298.1	17
1298.2	21
1298.3	22
1298.4	21
1298.5	19
1299.8	12
1299.9	14
1300.0	17
1300.1	17
1300.2	16
1300.7	14
1300.8	15
1300.9	16
1301.0	18
1301.1	19
1301.2	19
1301.3	18
1301.4	17
1301.5	16
1301.6	15
1301.9	12
1302.0	15
1302.1	17
1302.2	17
1302.3	17
1302.4	17
1302.5	18
1302.6	19
1302.7	19
1302.8	20
1302.9	20
1303.0	21
1303.1	21
1303.2	19
1303.8	17
1303.9	18
1304.0	20
1304.1	22
1304.2	23
1304.3	21
1304.4	19
1304.5	16
1304.7	14
1304.8	16
1304.9	19
1305.0	21
1305.1	22
1305.2	24
1305.3	25
1305.4	25
1305.5	26
1305.6	26
1305.7	26
1305.8	25
1305.9	23
1306.0	21
1306.1	18
1306.2	16
1306.3	13
1306.5	12
1306.6	14
1306.7	17
1306.8	21
1306.9	22
1307.0	22
1307.1	20
1307.9	17
1308.0	18
1308.1	20
1308.2	22
1308.3	23
1308.4	21
1308.5	19
1308.6	18
1308.7	18
1308.8	17
1309.0	15
1309.1	17
1309.2	19
1309.3	22
1309.4	23
1309.5	22
1309.6	20
1309.7	18
1309.8	17
1309.9	15
1310.0	14
1310.2	12
1310.3	13
1310.4	16
1310.5	19
1310.6	20
1310.7	20
1310.8	18
1310.9	16
1311.5	14
1311.6	17
1311.7	21
1311.8	23
1311.9	23
1312.0	22
1312.1	20
1312.2	18
1312.3	15
1312.7	14
1312.8	14
1312.9	16
1313.0	18
1313.1	19
1313.2	19
1313.3	18
1313.4	17
1313.7	16
1313.8	18
1313.9	19
1314.0	20
1314.1	21
1314.2	21
1314.3	20
1314.4	20
1314.5	19
1314.6	17
1314.9	15
1315.0	17
1315.1	19
1315.2	21
1315.3	21
1315.4	20
1315.5	19
1315.6	18
1315.7	16
1315.8	15
1316.0	14
1316.1	15
1316.2	16
1316.3	16
1316.6	15
1316.7	17
1316.8	20
1316.9	23
1317.0	26
1317.1	28
1317.2	26
1317.3	22
1317.4	19
1317.5	17
1318.3	17
1318.4	17
1318.5	19
1318.6	20
1318.7	21
1318.8	22
1318.9	23
1319.0	22
1319.1	21
1319.2	20
1319.3	19
1319.4	17
1319.5	14
1319.7	10
1319.8	14
1319.9	19
1320.0	22
1320.1	22
1320.2	21
1321.2	15
1321.3	17
1321.4	18
1321.5	18
1321.6	17
1321.7	14
1321.8	12
1322.0	11
1322.1	12
1322.2	15
1322.3	19
1322.4	22
1322.5	26
1322.6	27
1322.7	26
1322.8	23
1322.9	18
1323.1	13
1323.2	16
1323.3	22
1323.4	26
1323.5	27
1323.6	25
1323.7	23
1323.8	22
1323.9	22
1324.0	22
1324.1	21
1324.3	19
1324.4	20
1324.5	22
1324.6	23
1324.7	22
1325.0	20
1325.1	21
1325.2	23
1325.3	23
1325.4	22
1325.5	21
1325.6	20
1326.0	20
1326.1	21
1326.2	23
1326.3	24
1326.4	25
1326.5	24
1327.8	16
1327.9	18
1328.0	21
1328.1	22
1328.2	21
1328.3	21
1328.4	22
1328.5	23
1328.6	22
1328.7	21
1328.8	20
1329.0	19
1329.1	20
1329.2	22
1329.3	23
1329.4	24
1329.5	23
1329.6	22
1331.0	15
1331.1	16
1331.2	17
1331.3	18
1331.4	18
1331.5	18
1331.6	17
1331.7	19
1331.8	20
1331.9	21
1332.0	20
1332.3	19
1332.4	21
1332.5	24
1332.6	27
1332.7	29
1332.8	27
1332.9	24
1333.0	20
1333.1	18
1333.2	17
1333.4	16
1333.5	16
1333.6	18
1333.7	19
1333.8	21
1333.9	22
1334.0	23
1334.1	25
1334.2	25
1334.3	23
1334.4	19
1334.5	15
1334.8	15
1334.9	16
1335.0	17
1335.1	19
1335.2	20
1335.3	20
1335.4	19
1335.5	17
1335.6	15
1335.7	13
1336.0	12
1336.1	14
1336.2	17
1336.3	19
1336.4	19
1336.5	19
1336.6	19
1336.7	18
1336.8	18
1336.9	18
1337.0	17
1337.3	16
1337.4	17
1337.5	18
1337.6	20
1337.7	22
1337.8	23
1337.9	23
1338.0	21
1338.3	19
1338.4	22
1338.5	25
1338.6	28
1338.7	28
1338.8	25
1338.9	20
1339.0	14
1339.3	12
1339.4	14
1339.5	18
1339.6	21
1339.7	23
1339.8	22
1339.9	19
1340.0	15
1340.2	13
1340.3	15
1340.4	17
1340.5	17
1340.6	17
1340.7	18
1340.8	19
1340.9	21
1341.0	23
1341.1	23
1341.2	23
1341.3	23
1341.4	24
1341.5	23
1341.6	23
1341.7	24
1341.8	24
1341.9	23
1342.0	20
1342.1	17
1342.3	15
1342.4	17
1342.5	20
1342.6	22
1342.7	23
1342.8	25
1342.9	25
1343.0	22
1343.1	18
1343.3	16
1343.4	19
1343.5	23
1343.6	24
1343.7	22
1344.0	20
1344.1	21
1344.2	22
1344.3	22
1344.4	22
1344.5	21
1344.6	20
1344.7	19
1344.8	18
1345.6	18
1345.7	19
1345.8	19
1345.9	19
1346.0	18
1346.1	18
1346.2	19
1346.3	21
1346.4	22
1346.5	22
1346.6	21
1346.7	20
1347.0	19
1347.1	20
1347.2	21
1347.3	23
1347.4	24
1347.5	25
1347.6	24
1347.7	20
1347.9	16
1348.0	18
1348.1	21
1348.2	22
1348.3	22
1348.4	21
1348.5	19
1348.6	17
1348.9	14
1349.0	16
1349.1	18
1349.2	20
1349.3	23
1349.4	24
1349.5	24
1349.6	22
1349.7	19
1349.8	17
1349.9	16
1350.0	16
1350.1	16
1350.4	15
1350.5	17
1350.6	19
1350.7	18
1350.8	17
1350.9	16
1351.0	15
1351.1	15
1351.4	13
1351.5	15
1351.6	19
1351.7	22
1351.8	22
1351.9	20
1352.2	18
1352.3	20
1352.4	22
1352.5	23
1352.6	24
1352.7	23
1352.8	22
1352.9	21
1353.0	20
1353.1	19
1353.2	18
1353.3	16
1354.3	16
1354.4	17
1354.5	18
1354.6	18
1354.7	16
1354.9	14
1355.0	16
1355.1	19
1355.2	20
1355.3	20
1356.3	10
1356.4	12
1356.5	15
1356.6	17
1356.7	20
1356.8	22
1356.9	23
1357.0	22
1357.1	20
1357.2	18
1357.4	17
1357.5	18
1357.6	19
1357.7	19
1357.8	18
1357.9	18
1358.0	16
1358.2	16
1358.3	16
1358.4	18
1358.5	20
1358.6	23
1358.7	23
1358.8	21
1358.9	18
1359.0	16
1359.1	15
1359.7	15
1359.8	16
1359.9	18
1360.0	19
1360.1	19
1360.2	18
1360.3	18
1360.4	17
1360.7	15
1360.8	17
1360.9	19
1361.0	21
1361.1	22
1361.2	23
1361.3	23
1361.4	23
1361.5	21
1361.6	18
1362.3	16
1362.4	17
1362.5	19
1362.6	20
1362.7	22
1362.8	23
1362.9	21
1363.0	17
1363.2	15
1363.3	18
1363.4	19
1363.5	19
1363.6	18
1363.7	16
1363.8	15
1363.9	14
1364.5	10
1364.6	12
1364.7	16
1364.8	19
1364.9	21
1365.0	21
1365.1	21
1365.2	21
1365.3	18
1365.4	13
1365.6	11
1365.7	15
1365.8	18
1365.9	18
1366.0	16
1366.8	15
1366.9	16
1367.0	19
1367.1	22
1367.2	23
1367.3	22
1367.4	20
1367.5	19
1367.6	19
1367.7	19
1367.8	16
1367.9	13
1368.1	11
1368.2	14
1368.3	18
1368.4	21
1368.5	23
1368.6	24
1368.7	22
1368.8	19
1368.9	15
1369.0	12
1369.2	11
1369.3	12
1369.4	14
1369.5	15
1369.6	17
1369.7	17
1369.8	17
1369.9	16
1370.2	15
1370.3	16
1370.4	18
1370.5	19
1370.6	20
1370.7	21
1370.8	22
1370.9	23
1371.0	22
1371.1	20
1371.2	16
1371.4	13
1371.5	15
1371.6	19
1371.7	21
1371.8	21
1371.9	20
1372.0	17
1372.1	14
1372.2	12
1372.4	12
1372.5	12
1372.6	14
1372.7	18
1372.8	23
1372.9	25
1373.0	24
1373.1	21
1373.2	18
1373.3	17
1373.4	17
1373.5	17
1373.6	15
1373.9	13
1374.0	16
1374.1	18
1374.2	20
1374.3	20
1374.4	18
1374.5	17
1374.6	16
1374.7	15
1375.0	13
1375.1	15
1375.2	16
1375.3	16
1375.4	14
1375.7	12
1375.8	14
1375.9	16
1376.0	15
1376.1	14
1376.4	12
1376.5	14
1376.6	18
1376.7	21
1376.8	22
1376.9	21
1377.0	19
1377.1	16
1377.2	14
1377.3	12
1377.4	10
1377.6	9
1377.7	11
1377.8	14
1377.9	15
1378.0	13
1378.2	12
1378.3	13
1378.4	16
1378.5	19
1378.6	19
1378.7	19
1378.9	17
1379.0	18
1379.1	20
1379.2	20
1379.3	18
1379.4	15
1380.2	11
1380.3	13
1380.4	15
1380.5	17
1380.6	16
1380.7	15
1380.8	14
1381.0	13
1381.1	14
1381.2	15
1381.3	17
1381.4	18
1381.5	19
1381.6	20
1381.7	20
1381.8	21
1381.9	22
1382.0	20
1382.1	19
1383.2	13
1383.3	14
1383.4	16
1383.5	18
1383.6	21
1383.7	23
1383.8	24
1383.9	22
1384.0	20
1384.1	19
1384.2	18
1384.3	18
1384.4	17
1384.5	16
1384.6	14
1385.3	14
1385.4	14
1385.5	16
1385.6	18
1385.7	20
1385.8	21
1385.9	21
1386.0	19
1386.2	17
1386.3	19
1386.4	21
1386.5	20
1386.6	16
1386.9	14
1387.0	16
1387.1	19
1387.2	21
1387.3	22
1387.4	21
1387.5	18
1387.8	15
1387.9	17
1388.0	21
1388.1	23
1388.2	25
1388.3	26
1388.4	26
1388.5	24
1388.6	22
1388.7	18
1388.8	13
1389.0	8
1389.1	10
1389.2	15
1389.3	22
1389.4	27
1389.5	31
1389.6	31
1389.7	30
1389.8	28
1391.0	12
1391.1	13
1391.2	18
1391.3	25
1391.4	31
1391.5	33
1391.6	32
1391.7	27
1391.8	22
1391.9	17
1392.0	12
1392.1	9
1392.3	6
1392.4	8
1392.5	12
1392.6	17
1392.7	21
1392.8	24
1392.9	26
1393.0	27
1393.1	25
1393.2	19
1393.3	12
1393.4	6
1393.6	3
1393.7	5
1393.8	7
1393.9	11
1394.0	16
1394.1	21
1394.2	27
1394.3	29
1394.4	28
1394.5	25
1394.6	22
1394.7	18
1394.8	13
1394.9	6
1395.1	0
1395.2	3
1395.3	9
1395.4	14
1395.5	17
1395.6	18
1395.7	19
1395.8	21
1395.9	23
1396.0	24
1396.1	22
1396.2	19
1396.3	16
1396.4	11
1396.5	6
1396.7	3
1396.8	7
1396.9	11
1397.0	17
1397.1	21
1397.2	24
1397.3	25
1397.4	25
1397.5	26
1397.6	26
1397.7	24
1397.8	19
1397.9	12
1398.2	7
1398.3	11
1398.4	16
1398.5	19
1398.6	21
1398.7	22
1398.8	24
1398.9	27
1399.0	30
1399.1	30
1399.2	27
1399.3	22
1399.4	15
1399.5	7
1399.6	2
