Mass spectrum: Clarithromycin; LC-ESI-QQQ; MS2; Frag=135.0V CID@5.0; [M+H]+
Name: Clarithromycin
Class: Polyketides
Formula: C38H69NO13
Exact mass: 747.9725
SMILES: CC[C@H]1OC(=O)[C@H](C)[C@@H](O[C@H]2C[C@@](C)(OC)[C@@H](O)[C@H](C)O2)[C@H](C)[C@@H](O[C@@H]2O[C@H](C)C[C@H](N(C)C)[C@H]2O)[C@](C)(OC)C[C@@H](C)C(=O)[C@H](C)[C@@H](O)[C@]1(C)O
InChI: InChI=1S/C38H69NO13/c1-15-26-38(10,45)31(42)21(4)28(40)19(2)17-37(9,47-14)33(52-35-29(41)25(39(11)12)16-20(3)48-35)22(5)30(23(6)34(44)50-26)51-27-18-36(8,46-13)32(43)24(7)49-27/h19-27,29-33,35,41-43,45H,15-18H2,1-14H3/t19-,20-,21+,22+,23-,24+,25+,26-,27+,29-,30+,31-,32+,33-,35+,36-,37-,38-/m1/s1
Instrument: Agilent 6410 Triple Quadrupole LC/MS system
Instrument type: LC-ESI-QQQ
Ms type: MS2
Ion mode: POSITIVE
Precursor type: [M+H]+
m/z	relative intensity
157.5	1
157.6	2
157.7	3
157.8	5
157.9	6
158.0	7
158.1	7
158.2	6
158.3	4
158.4	2
589.7	2
589.8	3
589.9	5
590.0	7
590.1	9
590.2	9
590.3	9
590.4	8
590.5	6
590.6	3
590.7	1
747.3	1
747.4	2
747.5	5
747.6	9
747.7	16
747.8	26
747.9	40
748.0	56
748.1	74
748.2	89
748.3	99
748.4	99
748.5	89
748.6	67
748.7	40
748.8	16
748.9	2
