Mass spectrum: Centaurepensin; LC-ESI-QQQ; MS2; Frag=135.0V CID@5.0; [M+H]+
Name: Centaurepensin
Class: Terpenoids
Formula: C19H24Cl2O7
Exact mass: 435.3049
SMILES: C=C1C[C@H](OC(=O)C(C)(O)CCl)C2C(=C)C(=O)O[C@@H]2C2C1C[C@H](O)[C@]2(O)CCl
InChI: InChI=1S/C19H24Cl2O7/c1-8-4-11(27-17(24)18(3,25)6-20)13-9(2)16(23)28-15(13)14-10(8)5-12(22)19(14,26)7-21/h10-15,22,25-26H,1-2,4-7H2,3H3/t10?,11-,12-,13?,14?,15-,18?,19+/m0/s1
Instrument: Agilent 6410 Triple Quadrupole LC/MS system
Instrument type: LC-ESI-QQQ
Ms type: MS2
Ion mode: POSITIVE
Precursor type: [M+H]+
m/z	relative intensity
168.8	1
168.9	3
169.0	6
169.1	8
169.2	8
169.3	5
169.4	2
200.2	1
200.3	4
200.4	7
200.5	9
200.6	14
200.7	28
200.8	53
200.9	80
201.0	98
201.1	99
201.2	89
201.3	70
201.4	44
201.5	18
201.6	2
232.6	2
232.7	3
232.8	5
232.9	8
233.0	10
233.1	10
233.2	9
233.3	5
233.4	2
260.5	1
260.6	3
260.7	6
260.8	10
260.9	14
261.0	15
261.1	15
261.2	11
261.3	6
261.4	1
278.4	3
278.5	7
278.6	18
278.7	37
278.8	59
278.9	77
279.0	84
279.1	85
279.2	81
279.3	69
279.4	45
279.5	17
279.6	0
296.5	3
296.6	5
296.7	9
296.8	15
296.9	21
297.0	26
297.1	31
297.2	33
297.3	30
297.4	20
297.5	8
297.6	1
434.5	2
434.6	4
434.7	7
434.8	11
434.9	14
435.0	17
435.1	20
435.2	21
435.3	18
435.4	12
435.5	5
