Mass spectrum: Rosamicin; LC-ESI-QQQ; MS2; Frag=135.0V CID@5.0; [M+HCOO]-
Name: Rosamicin
Class: Polyketides
Formula: C31H51NO9
Exact mass: 581.7534
SMILES: CC[C@H]1OC(=O)C[C@@H](O)[C@H](C)[C@@H](O[C@@H]2O[C@H](C)C[C@H](N(C)C)C2O)[C@@H](CC=O)C[C@@H](C)C(=O)/C=C/[C@]2(C)O[C@H]2[C@@H]1C
InChI: InChI=1S/C31H51NO9/c1-9-25-20(5)29-31(6,41-29)12-10-23(34)17(2)14-21(11-13-33)28(19(4)24(35)16-26(36)39-25)40-30-27(37)22(32(7)8)15-18(3)38-30/h10,12-13,17-22,24-25,27-30,35,37H,9,11,14-16H2,1-8H3/b12-10+/t17-,18-,19+,20-,21+,22+,24-,25-,27?,28-,29+,30+,31+/m1/s1
Instrument: Agilent 6410 Triple Quadrupole LC/MS system
Instrument type: LC-ESI-QQQ
Ms type: MS2
Ion mode: NEGATIVE
Precursor type: [M+HCOO]-
m/z	relative intensity
173.6	1
173.7	3
173.8	6
173.9	10
174.0	11
174.1	8
174.2	4
246.6	1
246.7	2
246.8	4
246.9	4
247.0	3
247.1	4
247.2	8
247.3	12
247.4	12
247.5	7
247.6	2
386.3	0
386.4	2
386.5	4
386.6	8
386.7	12
386.8	22
386.9	39
387.0	64
387.1	87
387.2	99
387.3	96
387.4	76
387.5	46
387.6	17
387.7	0
405.1	2
405.2	5
405.3	8
405.4	9
405.5	7
405.6	3
625.5	0
625.6	2
625.7	7
625.8	17
625.9	26
626.0	33
626.1	40
626.2	49
626.3	57
626.4	58
626.5	46
626.6	27
626.7	10
626.8	0
