Mass spectrum: Clarithromycin; LC-ESI-QQQ; MS2; Frag=135.0V CID@10.0; [M+H]+
Name: Clarithromycin
Class: Polyketides
Formula: C38H69NO13
Exact mass: 747.9725
SMILES: CC[C@H]1OC(=O)[C@H](C)[C@@H](O[C@H]2C[C@@](C)(OC)[C@@H](O)[C@H](C)O2)[C@H](C)[C@@H](O[C@@H]2O[C@H](C)C[C@H](N(C)C)[C@H]2O)[C@](C)(OC)C[C@@H](C)C(=O)[C@H](C)[C@@H](O)[C@]1(C)O
InChI: InChI=1S/C38H69NO13/c1-15-26-38(10,45)31(42)21(4)28(40)19(2)17-37(9,47-14)33(52-35-29(41)25(39(11)12)16-20(3)48-35)22(5)30(23(6)34(44)50-26)51-27-18-36(8,46-13)32(43)24(7)49-27/h19-27,29-33,35,41-43,45H,15-18H2,1-14H3/t19-,20-,21+,22+,23-,24+,25+,26-,27+,29-,30+,31-,32+,33-,35+,36-,37-,38-/m1/s1
Instrument: Agilent 6410 Triple Quadrupole LC/MS system
Instrument type: LC-ESI-QQQ
Ms type: MS2
Ion mode: POSITIVE
Precursor type: [M+H]+
m/z	relative intensity
157.2	0
157.3	1
157.4	3
157.5	6
157.6	11
157.7	17
157.8	25
157.9	33
158.0	38
158.1	38
158.2	34
158.3	27
158.4	18
158.5	10
158.6	3
557.8	2
557.9	3
558.0	4
558.1	5
558.2	6
558.3	5
558.4	4
558.5	3
558.6	1
589.3	1
589.4	2
589.5	4
589.6	7
589.7	10
589.8	15
589.9	22
590.0	30
590.1	38
590.2	44
590.3	46
590.4	41
590.5	32
590.6	18
590.7	7
590.8	0
747.3	1
747.4	2
747.5	5
747.6	10
747.7	17
747.8	26
747.9	40
748.0	57
748.1	76
748.2	91
748.3	99
748.4	98
748.5	88
748.6	67
748.7	41
748.8	17
748.9	2
