Mass spectrum: Karakoline; LC-ESI-QQQ; MS2; Frag=135.0V CID@15.0; [M+H]+
Name: Karacoline
Name: Carmicheline
Name: 20-ethyl-16beta-methoxy-4-methylaconitane-1alpha,8,14alpha-triol
Name: Karakoline
Class: Alkaloids
Formula: C22H35NO4
Exact mass: 377.5286
SMILES: CCN1C[C@]2(C)CC[C@H](O)[C@@]34C5C[C@@H]6[C@@H](OC)C[C@@](O)(C5[C@H]6O)[C@@H](CC32)C14
InChI: InChI=1S/C22H35NO4/c1-4-23-10-20(2)6-5-16(24)22-12-7-11-14(27-3)9-21(26,17(12)18(11)25)13(19(22)23)8-15(20)22/h11-19,24-26H,4-10H2,1-3H3/t11-,12?,13+,14+,15?,16+,17?,18+,19?,20+,21+,22-/m1/s1
Instrument: Agilent 6410 Triple Quadrupole LC/MS system
Instrument type: LC-ESI-QQQ
Ms type: MS2
Ion mode: POSITIVE
Precursor type: [M+H]+
m/z	relative intensity
377.3	0
377.4	2
377.5	4
377.6	6
377.7	10
377.8	18
377.9	32
378.0	54
378.1	77
378.2	94
378.3	99
378.4	92
378.5	71
378.6	43
378.7	17
378.8	1
