Mass spectrum: Foetoside C; LC-ESI-QQQ; MS; [M+H]+
Name: Foetoside C
Class: Terpenoids
Formula: C58H94O25
Exact mass: 1191.3809
SMILES: CC1OC(OC2C(OC3CC[C@@]4(C)C(CC[C@]5(C)C4CC=C4C6CC(C)(C)CCC6(C(=O)OC6OC(COC7OC(CO)C(O)C(O)C7O)C(O)C(O)C6O)CC[C@]45C)C3(C)C)OCC(O)C2O)C(O)C(OC2OCC(O)C(O)C2O)C1O
InChI: InChI=1S/C58H94O25/c1-24-34(62)45(81-48-41(69)35(63)27(60)21-74-48)44(72)50(77-24)82-46-36(64)28(61)22-75-51(46)80-33-12-13-55(6)31(54(33,4)5)11-14-57(8)32(55)10-9-25-26-19-53(2,3)15-17-58(26,18-16-56(25,57)7)52(73)83-49-43(71)40(68)38(66)30(79-49)23-76-47-42(70)39(67)37(65)29(20-59)78-47/h9,24,26-51,59-72H,10-23H2,1-8H3/t24?,26?,27?,28?,29?,30?,31?,32?,33?,34?,35?,36?,37?,38?,39?,40?,41?,42?,43?,44?,45?,46?,47?,48?,49?,50?,51?,55-,56+,57+,58?/m0/s1
Instrument: ABSciex API3200 LC/MS system
Instrument type: LC-ESI-QQQ
Ms type: MS
Ion mode: POSITIVE
Precursor type: [M+H]+
m/z	relative intensity
134.8000	21
141.9000	35
142.0000	68
142.1000	73
142.2000	132
142.3000	105
154.7000	24
220.5000	26
220.7000	45
220.9000	69
278.8000	22
279.2000	36
324.8000	25
432.8000	41
438.6000	31
438.7000	44
438.8000	147
438.9000	70
439.0000	64
439.1000	61
439.2000	67
439.3000	59
439.4000	59
439.5000	40
439.6000	33
439.7000	29
439.8000	30
439.9000	29
440.0000	21
440.4000	22
440.5000	38
440.6000	41
440.7000	35
440.8000	45
440.9000	44
441.0000	41
441.1000	45
441.2000	46
441.3000	24
456.8000	26
457.0000	24
470.6000	28
573.0000	27
602.4000	24
602.6000	47
602.7000	46
602.8000	59
602.9000	32
603.0000	65
603.1000	54
603.2000	46
603.3000	37
603.5000	23
603.8000	23
734.5000	26
734.6000	30
734.7000	52
734.8000	91
734.9000	81
735.0000	58
735.1000	51
735.2000	36
735.3000	54
735.9000	24
866.9000	38
1028.8000	25
1029.0000	21
1029.1000	54
1029.2000	38
1029.3000	24
1029.4000	40
1029.5000	24
1029.7000	26
1029.8000	22
1030.0000	21
1030.2000	23
1030.3000	30
1058.5000	27
1058.6000	21
1058.7000	30
1058.8000	57
1058.9000	45
1059.0000	45
1059.1000	36
1059.2000	35
1059.3000	48
1059.4000	50
1059.5000	28
1059.6000	37
1060.1000	25
1125.5000	22
1126.0000	21
1134.0000	31
1190.3000	43
1190.4000	122
1190.5000	179
1190.6000	233
1190.7000	279
1190.8000	343
1190.9000	484
1191.0000	398
1191.1000	460
1191.2000	466
1191.3000	501
1191.4000	999
1191.5000	553
1191.6000	352
1191.7000	320
1191.8000	314
1191.9000	308
1192.0000	316
1192.1000	304
1192.2000	272
1192.3000	264
1192.4000	259
1192.5000	248
1192.6000	190
1192.7000	139
1192.8000	128
1192.9000	126
1193.0000	181
1193.1000	108
1193.2000	116
1193.3000	171
1193.4000	103
1193.5000	62
1193.6000	50
1193.7000	35
1193.8000	36
1193.9000	46
1194.0000	35
1194.1000	35
1194.2000	29
1194.3000	29
1194.4000	27
1194.5000	28
1199.4000	28
1199.5000	26
1199.6000	55
1199.7000	24
1199.8000	53
1199.9000	42
1200.0000	40
1200.1000	38
1200.2000	32
1200.3000	31
1200.4000	34
1200.5000	47
1200.6000	22
1200.7000	21
1200.8000	41
1200.9000	30
1201.0000	25
1201.1000	21
1201.4000	28
1207.6000	64
1207.7000	41
1207.8000	53
1207.9000	64
1208.0000	65
1208.1000	34
1208.2000	57
1208.3000	56
1208.4000	62
1208.5000	96
1208.6000	78
1208.7000	88
1208.8000	53
1208.9000	72
1209.0000	53
1209.1000	88
1209.2000	59
1209.3000	77
1209.4000	39
1209.5000	49
1209.6000	36
1209.7000	27
1209.9000	25
1210.1000	35
1210.2000	24
1210.3000	21
1210.4000	33
1210.5000	26
