Mass spectrum: Usnone A; LC-ESI-QQQ; MS2; Frag=135.0V CID@10.0; [M+H]+
Name: Usnone A
Class: Terpenoids
Formula: C18H16O7
Exact mass: 344.324
SMILES: CC(=O)c1c(O)c(C)c(O)c2c1OC1=CC(=O)C(C(C)=O)C(=O)[C@@]12C
InChI: InChI=1S/C18H16O7/c1-6-14(22)12(8(3)20)16-13(15(6)23)18(4)10(25-16)5-9(21)11(7(2)19)17(18)24/h5,11,22-23H,1-4H3/t11?,18-/m0/s1
Instrument: Agilent 6410 Triple Quadrupole LC/MS system
Instrument type: LC-ESI-QQQ
Ms type: MS2
Ion mode: POSITIVE
Precursor type: [M+H]+
m/z	relative intensity
232.8	1
232.9	3
233.0	5
233.1	6
233.2	5
233.3	3
233.4	2
302.6	1
302.7	4
302.8	7
302.9	9
303.0	7
303.1	6
303.2	6
303.3	6
303.4	4
303.5	2
326.4	0
326.5	2
326.6	6
326.7	14
326.8	25
326.9	36
327.0	44
327.1	46
327.2	42
327.3	33
327.4	21
327.5	8
327.6	1
329.5	0
329.6	2
329.7	3
329.8	5
329.9	7
330.0	9
330.1	9
330.2	8
330.3	6
330.4	3
344.2	0
344.3	2
344.4	5
344.5	11
344.6	18
344.7	28
344.8	44
344.9	62
345.0	78
345.1	90
345.2	99
345.3	99
345.4	82
345.5	49
345.6	16
345.7	0
