Mass spectrum: Cinchonidine; LC-ESI-QQQ; MS; [M+H]+
Name: Cinchonidine
Class: Alkaloids
Formula: C19H22N2O
Exact mass: 294.4
SMILES: C=C[C@H]1CN2CC[C@H]1C[C@H]2[C@@H](C3=CC=NC4=CC=CC=C34)O
InChI: InChI=1S/C19H22N2O/c1-2-13-12-21-10-8-14(13)11-18(21)19(22)16-7-9-20-17-6-4-3-5-15(16)17/h2-7,9,13-14,18-19,22H,1,8,10-12H2/t13-,14-,18-,19+/m0/s1
Instrument: ABSciex API3200 LC/MS system
Instrument type: LC-ESI-QQQ
Ms type: MS
Ion mode: POSITIVE
Precursor type: [M+H]+
m/z	relative intensity
100.0000	24
100.1000	26
100.2000	28
100.3000	46
100.4000	31
100.5000	30
100.6000	30
100.7000	28
100.9000	31
101.0000	22
101.2000	21
101.3000	26
101.4000	34
106.9000	22
107.5000	39
107.6000	32
107.7000	48
107.8000	61
107.9000	54
108.0000	107
108.1000	53
108.2000	47
108.3000	43
108.4000	55
108.5000	41
108.6000	31
108.7000	40
108.8000	49
108.9000	37
109.0000	45
109.1000	66
109.2000	53
109.3000	46
109.4000	38
119.1000	27
119.2000	47
119.3000	45
119.4000	36
119.5000	36
119.6000	31
119.7000	25
119.8000	24
119.9000	26
120.0000	33
120.1000	33
120.2000	25
120.3000	30
121.5000	22
121.6000	30
121.7000	31
121.8000	44
121.9000	35
122.0000	33
122.1000	38
122.2000	40
122.3000	36
128.5000	30
128.6000	30
128.7000	66
128.8000	55
128.9000	54
129.0000	46
129.1000	46
129.2000	49
129.3000	31
129.4000	68
129.5000	143
129.6000	174
129.7000	257
129.8000	305
129.9000	306
130.0000	301
130.1000	291
130.2000	342
130.3000	266
130.4000	212
130.5000	131
130.6000	43
130.7000	45
130.8000	53
130.9000	51
131.0000	48
131.1000	51
131.2000	34
131.3000	29
131.4000	41
131.5000	32
131.6000	28
131.7000	24
131.8000	37
131.9000	22
132.0000	31
132.1000	30
132.2000	29
132.4000	23
133.4000	23
135.5000	29
135.6000	45
135.7000	34
135.8000	54
135.9000	48
136.0000	46
136.1000	36
136.2000	44
136.3000	44
136.4000	34
136.5000	23
147.4000	108
147.5000	206
147.6000	234
147.7000	316
147.8000	271
147.9000	387
148.0000	390
148.1000	387
148.2000	419
148.3000	384
148.4000	354
148.5000	279
148.6000	91
148.7000	93
148.8000	93
148.9000	74
149.0000	46
154.0000	29
154.1000	41
156.3000	21
156.4000	29
157.4000	106
157.5000	192
157.6000	232
157.7000	285
157.8000	290
157.9000	293
158.0000	237
158.1000	242
158.2000	221
158.3000	198
158.4000	420
158.5000	443
158.6000	583
158.7000	520
158.8000	503
158.9000	721
159.0000	907
159.1000	337
159.2000	320
159.3000	340
159.4000	325
159.5000	190
159.6000	152
159.7000	141
159.8000	151
159.9000	145
160.0000	156
160.1000	381
160.2000	95
160.3000	74
160.4000	70
160.5000	40
165.8000	24
166.0000	25
166.1000	22
167.5000	22
167.9000	21
168.0000	38
168.1000	34
168.2000	48
168.3000	52
168.4000	36
168.5000	31
168.6000	49
168.7000	59
168.8000	42
168.9000	36
169.0000	32
169.1000	23
169.2000	23
186.4000	65
186.5000	107
186.6000	144
186.7000	142
186.8000	155
186.9000	160
187.0000	151
187.1000	149
187.2000	131
187.3000	107
187.4000	120
187.5000	46
187.7000	24
187.9000	26
200.6000	28
201.1000	24
276.5000	36
276.6000	63
276.7000	74
276.8000	69
276.9000	78
277.0000	86
277.1000	77
277.2000	83
277.3000	69
277.4000	63
277.5000	32
277.6000	21
294.3000	40
294.4000	380
294.5000	702
294.6000	845
294.7000	964
294.8000	962
294.9000	958
295.0000	999
295.1000	983
295.2000	968
295.3000	894
295.4000	870
295.5000	622
295.6000	436
295.7000	443
295.8000	347
295.9000	401
296.0000	420
296.1000	422
296.2000	400
296.3000	374
296.4000	323
296.5000	177
296.6000	94
296.7000	62
296.8000	43
296.9000	46
297.0000	63
297.1000	39
297.2000	39
297.3000	26
297.4000	49
297.5000	21
335.7000	23
335.8000	23
335.9000	24
