Mass spectrum: Esculentic acid; LC-ESI-QQQ; MS; [M+H]+
Name: Esculentic acid
Class: Terpenoids
Formula: C30H48O5
Exact mass: 488.7141
SMILES: C[C@@H]1[C@H]2C3=CCC4[C@@]5(C)C[C@@H](O)[C@@H](O)[C@@](C)(CO)C5CC[C@@]4(C)[C@]3(C)CC[C@@]2(C(=O)O)CC[C@H]1C
InChI: InChI=1S/C30H48O5/c1-17-9-12-30(25(34)35)14-13-28(5)19(23(30)18(17)2)7-8-22-26(3)15-20(32)24(33)27(4,16-31)21(26)10-11-29(22,28)6/h7,17-18,20-24,31-33H,8-16H2,1-6H3,(H,34,35)/t17-,18+,20-,21?,22?,23+,24-,26+,27+,28-,29-,30+/m1/s1
Instrument: ABSciex API3200 LC/MS system
Instrument type: LC-ESI-QQQ
Ms type: MS
Ion mode: POSITIVE
Precursor type: [M+H]+
m/z	relative intensity
107.2000	23
108.7000	22
108.8000	22
109.3000	22
110.4000	25
110.8000	28
111.0000	27
111.3000	23
111.4000	26
111.5000	23
113.7000	25
114.1000	22
116.9000	24
118.0000	27
118.1000	25
118.4000	65
121.2000	97
121.6000	22
123.4000	24
124.7000	80
124.8000	24
124.9000	65
125.1000	51
125.2000	21
125.3000	41
126.6000	23
129.5000	28
130.3000	85
130.5000	23
134.6000	26
135.2000	25
136.1000	42
136.5000	40
136.8000	55
139.1000	21
140.9000	68
141.0000	30
141.5000	171
141.6000	135
141.7000	577
141.8000	273
143.8000	25
146.7000	26
146.9000	23
149.4000	72
149.5000	21
150.4000	46
152.9000	30
154.6000	80
155.3000	21
156.6000	26
157.6000	46
157.8000	43
158.0000	22
159.0000	57
159.5000	27
161.1000	22
161.4000	23
162.9000	38
164.6000	31
169.3000	27
170.5000	21
171.2000	36
172.6000	21
175.0000	21
176.6000	41
177.6000	78
186.5000	21
187.2000	54
188.4000	28
188.5000	22
189.1000	25
189.3000	23
190.6000	24
191.9000	25
193.2000	43
193.8000	22
197.6000	999
199.3000	55
200.4000	27
201.0000	161
201.1000	25
202.1000	27
202.7000	24
203.0000	33
203.3000	23
204.8000	68
205.1000	23
205.2000	21
208.4000	25
214.0000	21
214.2000	23
215.4000	25
216.5000	24
217.3000	48
218.9000	34
220.6000	53
220.7000	46
220.9000	65
221.1000	36
221.2000	52
221.3000	47
221.4000	27
221.5000	23
233.1000	24
234.0000	28
234.4000	26
240.8000	26
241.6000	26
241.8000	28
246.7000	42
246.8000	79
246.9000	40
247.0000	40
247.2000	30
247.3000	36
247.5000	47
247.7000	38
248.1000	21
249.3000	26
250.8000	25
260.4000	27
260.5000	22
260.7000	67
261.3000	23
262.9000	21
279.3000	22
279.7000	22
295.4000	40
310.6000	32
310.7000	26
311.1000	21
312.2000	23
313.2000	23
327.7000	28
340.5000	28
341.1000	24
388.9000	23
391.1000	30
391.7000	22
392.6000	25
406.9000	39
407.0000	68
407.5000	31
407.8000	24
408.0000	21
408.1000	21
408.4000	71
408.7000	25
408.9000	44
409.7000	31
423.0000	25
424.0000	46
424.4000	30
433.1000	22
434.4000	88
434.5000	47
435.4000	67
443.5000	30
452.2000	29
452.4000	45
452.6000	38
452.7000	406
452.8000	399
452.9000	270
453.0000	408
453.1000	272
453.2000	255
453.3000	243
453.4000	311
453.5000	256
453.6000	204
453.7000	176
453.8000	165
453.9000	175
454.0000	167
454.1000	159
454.2000	92
454.3000	188
454.4000	123
454.7000	50
454.9000	94
455.3000	54
455.4000	30
455.5000	33
455.7000	46
470.4000	80
470.8000	154
471.0000	52
471.1000	674
471.2000	79
471.3000	60
471.4000	91
471.5000	78
471.6000	35
471.9000	22
472.1000	59
472.5000	41
473.3000	59
487.4000	25
487.9000	31
488.5000	24
488.6000	30
488.7000	378
488.8000	593
488.9000	301
489.0000	437
489.1000	490
489.2000	496
489.3000	650
489.4000	749
489.5000	462
489.6000	192
489.7000	182
489.8000	156
489.9000	224
490.0000	107
490.1000	111
490.2000	302
490.3000	80
490.4000	122
490.5000	173
490.6000	84
490.7000	63
490.8000	55
491.0000	27
491.2000	38
491.3000	82
491.4000	30
491.5000	55
491.6000	26
492.3000	28
492.4000	29
504.7000	30
505.0000	27
506.0000	43
506.1000	22
506.5000	48
508.4000	30
512.5000	25
529.7000	28
529.8000	188
529.9000	138
530.0000	88
530.1000	109
530.2000	131
530.3000	47
530.4000	181
530.5000	38
530.6000	101
530.7000	109
530.8000	121
530.9000	41
531.0000	145
531.1000	52
531.2000	32
531.4000	82
531.5000	46
531.6000	98
532.1000	22
532.4000	89
571.5000	30
976.6000	28
977.0000	66
977.1000	98
977.2000	59
977.3000	60
977.5000	45
977.6000	67
977.7000	40
977.8000	30
978.2000	56
978.3000	54
978.4000	21
978.5000	70
978.6000	21
978.7000	23
978.8000	62
979.1000	59
979.5000	28
