Mass spectrum: osthol; LC-ESI-QQQ; MS2; Frag=135.0V CID@10.0; [M+H]+
Name: osthol
Class: Benzopyranoids
Formula: C15H16O3
Exact mass: 244.293
SMILES: COc1ccc2ccc(=O)oc2c1CC=C(C)C
InChI: InChI=1S/C15H16O3/c1-10(2)4-7-12-13(17-3)8-5-11-6-9-14(16)18-15(11)12/h4-6,8-9H,7H2,1-3H3
Instrument: Agilent 6410 Triple Quadrupole LC/MS system
Instrument type: LC-ESI-QQQ
Ms type: MS2
Ion mode: POSITIVE
Precursor type: [M+H]+
m/z	relative intensity
130.6	1
130.7	3
130.8	4
130.9	5
131.0	6
131.1	6
131.2	6
131.3	5
131.4	3
188.2	0
188.3	1
188.4	4
188.5	12
188.6	23
188.7	38
188.8	57
188.9	77
189.0	93
189.1	99
189.2	96
189.3	83
189.4	60
189.5	32
189.6	8
189.7	0
