Mass spectrum: Boldine; LC-ESI-QQQ; MS2; Frag=135.0V CID@5.0; [M+H]+
Name: 2,9-Dihydroxy-1,10-dimethoxyaporphine
Name: 1,10-Dimethoxy-6aalpha-aporphine-2,9-diol
Name: 2,6-Dihydroxy-3,5-dimethoxyaporphin
Name: Boldine
Class: Alkaloids
Formula: C19H21NO4
Exact mass: 327.3835
SMILES: CN1CCC2=CC(=C(C3=C2[C@@H]1CC4=CC(=C(C=C43)OC)O)OC)O
InChI: InChI=1S/C19H21NO4/c1-20-5-4-10-7-15(22)19(24-3)18-12-9-16(23-2)14(21)8-11(12)6-13(20)17(10)18/h7-9,13,21-22H,4-6H2,1-3H3/t13-/m0/s1
Instrument: Agilent 6410 Triple Quadrupole LC/MS system
Instrument type: LC-ESI-QQQ
Ms type: MS2
Ion mode: POSITIVE
Precursor type: [M+H]+
m/z	relative intensity
264.6	2
264.7	3
264.8	6
264.9	9
265.0	11
265.1	12
265.2	12
265.3	10
265.4	7
265.5	3
296.6	2
296.7	3
296.8	6
296.9	10
297.0	14
297.1	16
297.2	16
297.3	13
297.4	9
297.5	5
297.6	1
327.3	1
327.4	4
327.5	7
327.6	10
327.7	17
327.8	31
327.9	53
328.0	77
328.1	94
328.2	99
328.3	91
328.4	71
328.5	43
328.6	17
328.7	2
