Mass spectrum: Lysergol; LC-ESI-QQQ; MS2; Frag=135.0V CID@25.0; [M+H]+
Name: Lysergol
Class: Alkaloids
Formula: C16H18N2O
Exact mass: 254.3347
SMILES: CN1C[C@H](CO)C=C2c3cccc4[nH]cc(c34)C[C@H]21
InChI: InChI=1S/C16H18N2O/c1-18-8-10(9-19)5-13-12-3-2-4-14-16(12)11(7-17-14)6-15(13)18/h2-5,7,10,15,17,19H,6,8-9H2,1H3/t10-,15-/m1/s1
Instrument: Agilent 6410 Triple Quadrupole LC/MS system
Instrument type: LC-ESI-QQQ
Ms type: MS2
Ion mode: POSITIVE
Precursor type: [M+H]+
m/z	relative intensity
143.6	2
143.7	3
143.8	5
143.9	7
144.0	9
144.1	9
144.2	7
144.3	5
144.4	3
153.7	3
153.8	5
153.9	6
154.0	7
154.1	8
154.2	9
154.3	8
154.4	5
154.5	2
164.7	2
164.8	3
164.9	4
165.0	5
165.1	6
165.2	6
165.3	4
165.4	2
166.5	2
166.6	3
166.7	5
166.8	8
166.9	10
167.0	11
167.1	11
167.2	11
167.6	8
167.7	12
167.8	20
167.9	28
168.0	35
168.1	40
168.2	41
168.3	37
168.4	27
168.5	14
168.6	3
179.5	5
179.6	6
179.7	10
179.8	15
179.9	21
180.0	27
180.1	31
180.2	29
180.3	23
180.4	15
180.5	7
181.4	7
181.5	8
181.6	10
181.7	16
181.8	27
181.9	42
182.0	56
182.1	65
182.2	65
182.3	55
182.4	36
182.5	17
182.6	3
190.6	2
190.7	3
190.8	5
190.9	6
191.0	7
191.1	7
191.2	7
191.3	6
191.4	6
191.5	5
191.6	5
191.7	9
191.8	15
191.9	23
192.0	28
192.1	31
192.2	29
192.3	24
192.4	16
192.5	8
192.7	5
192.8	9
192.9	13
193.0	17
193.1	19
193.2	20
193.3	19
193.4	15
193.7	11
193.8	18
193.9	26
194.0	31
194.1	35
194.2	37
194.3	35
194.4	26
194.5	14
194.6	3
195.7	2
195.8	4
195.9	5
196.0	6
196.1	6
196.2	5
196.3	5
196.4	7
196.5	9
196.6	14
196.7	23
196.8	39
196.9	59
197.0	78
197.1	89
197.2	92
197.3	85
197.4	67
197.5	41
197.6	15
197.7	0
205.6	1
205.7	3
205.8	6
205.9	9
206.0	12
206.1	12
206.2	11
206.3	8
206.4	5
206.7	2
206.8	4
206.9	7
207.0	9
207.1	9
207.2	8
207.3	5
207.4	3
208.6	3
208.7	5
208.8	8
208.9	12
209.0	14
209.1	16
209.2	16
209.3	15
209.4	11
209.5	6
220.7	2
220.8	4
220.9	6
221.0	7
221.1	7
221.2	7
221.3	5
221.4	3
222.5	4
222.6	6
222.7	9
222.8	16
222.9	26
223.0	36
223.1	42
223.2	43
223.3	39
223.4	30
223.5	19
223.6	11
223.8	10
223.9	14
224.0	19
224.1	22
224.2	24
224.3	22
224.4	16
224.5	8
224.6	2
236.7	1
236.8	3
236.9	4
237.0	5
237.1	5
237.2	4
237.3	4
237.4	3
237.5	2
238.5	2
238.6	3
238.7	4
238.8	8
238.9	14
239.0	18
239.1	21
239.2	21
239.3	19
239.5	15
239.6	17
239.7	26
239.8	44
239.9	66
240.0	87
240.1	98
240.2	99
240.3	89
240.4	69
240.5	41
240.6	15
240.7	1
254.3	1
254.4	3
254.5	5
254.6	6
254.7	8
254.8	13
254.9	21
255.0	30
255.1	35
255.2	36
255.3	32
255.4	24
255.5	14
255.6	5
255.7	0
