Mass spectrum: Mangiferin; LC-ESI-QQQ; MS2; Frag=135.0V CID@15.0; [M+H]+
Name: Mangiferin
Class: Polyketides
Formula: C19H18O11
Exact mass: 422.3487
SMILES: O=c1c2cc(O)c(O)cc2oc2cc(O)c([C@@H]3O[C@H](CO)[C@@H](O)[C@H](O)[C@H]3O)c(O)c12
InChI: InChI=1S/C19H18O11/c20-4-11-15(25)17(27)18(28)19(30-11)12-8(23)3-10-13(16(12)26)14(24)5-1-6(21)7(22)2-9(5)29-10/h1-3,11,15,17-23,25-28H,4H2/t11-,15-,17+,18-,19+/m1/s1
Instrument: Agilent 6410 Triple Quadrupole LC/MS system
Instrument type: LC-ESI-QQQ
Ms type: MS2
Ion mode: POSITIVE
Precursor type: [M+H]+
m/z	relative intensity
272.1	1
272.2	2
272.3	5
272.4	9
272.5	15
272.6	26
272.7	41
272.8	62
272.9	83
273.0	97
273.1	99
273.2	88
273.3	66
273.4	36
273.5	11
273.6	0
284.7	3
284.8	4
284.9	5
285.0	6
285.1	6
285.2	4
285.3	2
298.7	3
298.8	5
298.9	7
299.0	8
299.1	9
299.2	7
299.3	4
299.4	1
302.2	2
302.3	4
302.4	7
302.5	11
302.6	19
302.7	32
302.8	53
302.9	75
303.0	89
303.1	88
303.2	75
303.3	55
303.4	34
303.5	14
303.6	2
326.1	1
326.2	2
326.3	5
326.4	8
326.5	12
326.6	20
326.7	33
326.8	50
326.9	67
327.0	81
327.1	88
327.2	85
327.3	66
327.4	37
327.5	11
327.6	0
338.4	1
338.5	3
338.6	5
338.7	8
338.8	11
338.9	14
339.0	15
339.1	15
339.2	12
339.3	7
339.4	3
350.4	2
350.5	3
350.6	5
350.7	8
350.8	12
350.9	17
351.0	20
351.1	20
351.2	18
351.3	13
351.4	7
351.5	2
356.4	2
356.5	3
356.6	5
356.7	8
356.8	13
356.9	19
357.0	22
357.1	23
357.2	20
357.3	14
357.4	7
357.5	1
368.5	3
368.6	6
368.7	13
368.8	21
368.9	27
369.0	29
369.1	28
369.2	24
369.3	18
369.4	10
369.5	3
386.3	1
386.4	2
386.5	4
386.6	6
386.7	11
386.8	20
386.9	29
387.0	33
387.1	33
387.2	29
387.3	21
387.4	11
387.5	3
404.5	1
404.6	3
404.7	6
404.8	8
404.9	9
405.0	9
405.1	8
405.2	8
405.3	7
405.4	5
405.5	2
