Mass spectrum: Badrakemin acetate; LC-ESI-QQQ; MS2; Frag=135.0V CID@15.0; [M+Na]+
Name: Badrakemin acetate
Class: Benzopyranoids
Formula: C26H32O5
Exact mass: 424.5419
SMILES: C=C1CC[C@@H]2C(C)(C)[C@@H](OC(C)=O)CC[C@@]2(C)[C@@H]1COc1ccc2ccc(=O)oc2c1
InChI: InChI=1S/C26H32O5/c1-16-6-10-22-25(3,4)23(30-17(2)27)12-13-26(22,5)20(16)15-29-19-9-7-18-8-11-24(28)31-21(18)14-19/h7-9,11,14,20,22-23H,1,6,10,12-13,15H2,2-5H3/t20-,22-,23+,26+/m1/s1
Instrument: Agilent 6410 Triple Quadrupole LC/MS system
Instrument type: LC-ESI-QQQ
Ms type: MS2
Ion mode: POSITIVE
Precursor type: [M+Na]+
m/z	relative intensity
386.3	1
386.4	2
386.5	4
386.6	6
386.7	10
386.8	16
386.9	21
387.0	25
387.1	29
387.2	35
387.3	37
387.4	32
387.5	18
387.6	5
387.7	0
446.2	0
446.3	3
446.4	8
446.5	13
446.6	17
446.7	22
446.8	34
446.9	55
447.0	80
447.1	96
447.2	99
447.3	90
447.4	72
447.5	46
447.6	19
447.7	3
