Mass spectrum: Tazettine; LC-ESI-QQQ; MS2; Frag=135.0V CID@25.0; [M+H]+
Name: Tazettine
Class: Alkaloids
Formula: C18H21NO5
Exact mass: 331.3718
SMILES: CO[C@@H]1C=C[C@@]23c4cc5c(cc4CO[C@]2(O)CN(C)[C@@H]3C1)OCO5
InChI: InChI=1S/C18H21NO5/c1-19-9-18(20)17(4-3-12(21-2)6-16(17)19)13-7-15-14(22-10-23-15)5-11(13)8-24-18/h3-5,7,12,16,20H,6,8-10H2,1-2H3/t12-,16-,17+,18-/m1/s1
Instrument: Agilent 6410 Triple Quadrupole LC/MS system
Instrument type: LC-ESI-QQQ
Ms type: MS2
Ion mode: POSITIVE
Precursor type: [M+H]+
m/z	relative intensity
69.7	2
69.8	3
69.9	4
70.0	6
70.1	6
70.2	6
70.3	6
70.4	4
119.7	2
119.8	3
119.9	5
120.0	7
120.1	7
120.2	7
120.3	6
120.4	5
120.5	2
148.7	1
148.8	3
148.9	4
149.0	5
149.1	5
149.2	5
149.3	4
149.4	3
152.7	2
152.8	4
152.9	6
153.0	8
153.1	8
153.2	8
153.3	7
153.4	6
153.5	4
153.6	1
174.7	2
174.8	4
174.9	6
175.0	7
175.1	7
175.2	7
175.3	5
175.4	3
175.5	1
180.2	0
180.3	2
180.4	5
180.5	9
180.6	17
180.7	31
180.8	51
180.9	73
181.0	90
181.1	99
181.2	99
181.3	88
181.4	67
181.5	38
181.6	12
181.7	0
205.8	2
205.9	4
206.0	5
206.1	5
206.2	6
206.3	5
206.4	4
206.5	2
210.5	2
210.6	4
210.7	7
210.8	11
210.9	16
211.0	20
211.1	22
211.2	22
211.3	19
211.4	14
211.5	7
211.6	2
223.7	2
223.8	4
223.9	7
224.0	10
224.1	12
224.2	12
224.3	11
224.4	9
224.5	5
225.8	3
225.9	5
226.0	7
226.1	8
226.2	8
226.3	6
226.4	4
226.5	2
233.7	2
233.8	3
233.9	5
234.0	6
234.1	7
234.2	7
234.3	6
234.4	5
234.5	2
237.8	3
237.9	4
238.0	5
238.1	6
238.2	6
238.3	5
239.6	6
239.7	8
239.8	12
239.9	19
240.0	25
240.1	29
240.2	30
240.3	26
240.4	19
240.5	11
240.6	4
253.6	1
253.7	2
253.8	4
253.9	7
254.0	9
254.1	10
254.2	10
254.3	9
254.4	7
254.5	4
254.6	2
255.8	3
255.9	4
256.0	5
256.1	6
256.2	6
256.3	6
256.4	4
256.5	2
263.6	1
263.7	2
263.8	4
263.9	6
264.0	9
264.1	10
264.2	11
264.3	10
264.4	7
264.5	3
270.6	2
270.7	3
270.8	6
270.9	10
271.0	14
271.1	17
271.2	17
271.3	16
271.4	12
271.5	8
271.6	3
281.7	2
281.8	3
281.9	5
282.0	7
282.1	8
282.2	7
282.3	7
282.4	5
282.5	3
313.4	1
313.5	2
313.6	4
313.7	7
313.8	14
313.9	23
314.0	32
314.1	39
314.2	43
314.3	41
314.4	35
314.5	23
314.6	10
314.7	1
