Mass spectrum: Vincanidine; LC-ESI-QQQ; MS; [M+H]+
Name: (11S,17S)-12-ethylidene-6-hydroxy-8,14-diazapentacyclo(9.5.2.0(1,9).0(2,7).0(14,17))octadeca-2(7),3,5,9-tetraene-10-carbaldehyde
Name: Vincanidine
Class: Alkaloids
Formula: C19H20N2O2
Exact mass: 308.3835
SMILES: C/C=C1/CN2CC[C@]34C(=C(C=O)[C@H]1C[C@H]23)Nc1c(O)cccc14
InChI: InChI=1S/C19H20N2O2/c1-2-11-9-21-7-6-19-14-4-3-5-15(23)17(14)20-18(19)13(10-22)12(11)8-16(19)21/h2-5,10,12,16,20,23H,6-9H2,1H3/b11-2-/t12-,16-,19+/m0/s1
Instrument: ABSciex API3200 LC/MS system
Instrument type: LC-ESI-QQQ
Ms type: MS
Ion mode: POSITIVE
Precursor type: [M+H]+
m/z	relative intensity
183.5000	21
183.6000	26
183.7000	30
183.8000	29
183.9000	27
184.0000	26
184.1000	22
184.2000	21
184.4000	21
184.5000	21
185.3000	24
201.5000	28
201.6000	26
201.7000	37
201.8000	31
201.9000	35
202.0000	35
202.1000	30
202.2000	29
202.3000	25
202.4000	27
214.5000	21
214.6000	23
214.7000	31
214.8000	40
214.9000	36
215.0000	35
215.1000	34
215.2000	36
215.3000	28
215.4000	24
223.6000	21
223.9000	24
225.4000	22
235.4000	27
235.5000	32
235.6000	44
235.7000	43
235.8000	41
235.9000	42
236.0000	43
236.1000	48
236.2000	46
236.3000	34
236.4000	41
236.5000	23
236.6000	23
236.8000	21
236.9000	24
237.2000	24
237.4000	23
237.5000	35
237.6000	44
237.7000	53
237.8000	66
237.9000	48
238.0000	51
238.1000	68
238.2000	50
238.3000	29
238.4000	26
250.4000	26
251.4000	21
251.5000	30
251.6000	37
251.7000	38
251.8000	36
251.9000	45
252.0000	41
252.1000	37
252.2000	41
252.3000	35
252.4000	39
252.5000	27
252.6000	24
252.7000	25
252.8000	23
252.9000	24
253.0000	21
253.3000	22
253.4000	33
253.5000	33
253.6000	33
253.7000	38
253.8000	35
253.9000	44
254.0000	38
254.1000	39
254.2000	32
254.3000	30
254.4000	56
254.5000	34
262.1000	21
263.4000	22
263.5000	36
263.6000	47
263.7000	51
263.8000	49
263.9000	45
264.0000	42
264.1000	42
264.2000	39
264.3000	38
264.4000	34
264.5000	23
265.1000	21
265.4000	37
265.5000	48
265.6000	58
265.7000	57
265.8000	63
265.9000	68
266.0000	65
266.1000	65
266.2000	63
266.3000	62
266.4000	51
266.5000	28
266.6000	28
266.7000	21
266.8000	24
266.9000	27
267.1000	22
279.5000	22
279.6000	31
279.7000	33
279.8000	36
279.9000	40
280.0000	35
280.1000	35
280.2000	28
280.3000	35
280.4000	40
280.5000	36
280.6000	45
280.7000	58
280.8000	46
280.9000	47
281.0000	43
281.1000	46
281.2000	40
281.3000	33
281.4000	39
290.7000	23
290.8000	26
291.0000	24
291.1000	22
291.2000	25
291.3000	68
291.4000	27
306.4000	23
306.5000	47
306.6000	55
306.7000	60
306.8000	63
306.9000	67
307.0000	64
307.1000	61
307.2000	63
307.3000	46
307.4000	47
307.5000	25
307.7000	21
307.8000	22
308.0000	28
308.1000	25
308.2000	40
308.3000	213
308.4000	574
308.5000	826
308.6000	931
308.7000	946
308.8000	948
308.9000	976
309.0000	999
309.1000	966
309.2000	934
309.3000	865
309.4000	881
309.5000	618
309.6000	495
309.7000	466
309.8000	450
309.9000	473
310.0000	479
310.1000	446
310.2000	445
310.3000	427
310.4000	388
310.5000	202
310.6000	121
310.7000	120
310.8000	97
310.9000	89
311.0000	96
311.1000	89
311.2000	83
311.3000	81
311.4000	71
311.5000	37
349.5000	23
349.8000	25
349.9000	35
350.0000	38
350.1000	47
350.2000	38
350.3000	36
350.4000	24
