Mass spectrum: Erythromycin; LC-ESI-QQQ; MS2; Frag=135.0V CID@10.0; [M+H]+
Name: Erythromycin
Class: Polyketides
Formula: C37H67NO13
Exact mass: 733.9454
SMILES: CC[C@@H]1[C@@]([C@@H]([C@H](C(=O)[C@@H](C[C@@]([C@@H]([C@H]([C@@H]([C@H](C(=O)O1)C)O[C@H]2C[C@@]([C@H]([C@@H](O2)C)O)(C)OC)C)O[C@H]3[C@@H]([C@H](C[C@H](O3)C)N(C)C)O)(C)O)C)C)O)(C)O
InChI: InChI=1S/C37H67NO13/c1-14-25-37(10,45)30(41)20(4)27(39)18(2)16-35(8,44)32(51-34-28(40)24(38(11)12)15-19(3)47-34)21(5)29(22(6)33(43)49-25)50-26-17-36(9,46-13)31(42)23(7)48-26/h18-26,28-32,34,40-42,44-45H,14-17H2,1-13H3/t18-,19-,20+,21+,22-,23+,24+,25-,26+,28-,29+,30-,31+,32-,34+,35-,36-,37-/m1/s1
Instrument: Agilent 6410 Triple Quadrupole LC/MS system
Instrument type: LC-ESI-QQQ
Ms type: MS2
Ion mode: POSITIVE
Precursor type: [M+H]+
m/z	relative intensity
157.3	1
157.4	3
157.5	4
157.6	5
157.7	8
157.8	12
157.9	18
158.0	23
158.1	25
158.2	24
158.3	20
158.4	13
158.5	6
158.6	1
521.8	2
521.9	3
522.0	5
522.1	6
522.2	7
522.3	7
522.4	6
522.5	3
522.6	1
539.8	2
539.9	3
540.0	4
540.1	4
540.2	4
540.3	3
540.4	2
557.6	2
557.7	2
557.8	4
557.9	7
558.0	10
558.1	13
558.2	14
558.3	13
558.4	10
558.5	7
558.6	3
575.3	1
575.4	2
575.5	4
575.6	7
575.7	12
575.8	18
575.9	26
576.0	37
576.1	48
576.2	57
576.3	59
576.4	53
576.5	40
576.6	24
576.7	10
576.8	1
715.8	2
715.9	4
716.0	5
716.1	7
716.2	7
716.3	8
716.4	8
716.5	7
716.6	5
716.7	2
733.3	1
733.4	3
733.5	6
733.6	9
733.7	15
733.8	23
733.9	37
734.0	55
734.1	74
734.2	90
734.3	99
734.4	99
734.5	86
734.6	64
734.7	37
734.8	14
734.9	2
