Mass spectrum: Hernandezine; LC-ESI-QQQ; MS; [M+H]+
Name: Hernandezine
Class: Alkaloids
Formula: C39H44N2O7
Exact mass: 652.7947
SMILES: COc1ccc2cc1Oc1ccc(cc1)C[C@H]1c3cc(c(OC)cc3CCN1C)Oc1c(OC)c(OC)c(OC)c3c1[C@H](C2)N(C)CC3
InChI: InChI=1S/C39H44N2O7/c1-40-16-14-25-21-32(43-4)34-22-28(25)29(40)18-23-8-11-26(12-9-23)47-33-20-24(10-13-31(33)42-3)19-30-35-27(15-17-41(30)2)36(44-5)38(45-6)39(46-7)37(35)48-34/h8-13,20-22,29-30H,14-19H2,1-7H3/t29-,30-/m0/s1
Instrument: ABSciex API3200 LC/MS system
Instrument type: LC-ESI-QQQ
Ms type: MS
Ion mode: POSITIVE
Precursor type: [M+H]+
m/z	relative intensity
100.7000	21
100.8000	34
100.9000	34
101.0000	23
121.5000	32
121.6000	57
121.7000	69
121.8000	89
121.9000	74
122.0000	72
122.1000	64
122.2000	58
122.3000	54
122.4000	45
122.5000	25
212.6000	45
212.7000	44
212.8000	53
212.9000	47
213.0000	51
213.1000	54
213.2000	53
213.3000	52
213.4000	49
213.5000	26
217.6000	24
217.7000	25
217.8000	25
217.9000	28
218.0000	25
218.1000	27
218.2000	25
295.9000	23
296.2000	25
296.3000	23
296.4000	32
296.5000	22
303.6000	21
303.7000	31
303.8000	33
303.9000	32
304.0000	38
304.1000	40
304.2000	37
304.3000	36
304.4000	29
311.0000	43
311.1000	69
311.2000	78
311.3000	84
311.4000	85
311.5000	98
311.6000	100
311.7000	101
311.8000	102
311.9000	87
312.0000	60
312.1000	51
312.2000	45
312.3000	38
312.4000	40
312.5000	28
312.6000	22
312.7000	22
326.3000	32
326.4000	239
326.5000	523
326.6000	799
326.7000	850
326.8000	889
326.9000	920
327.0000	953
327.1000	999
327.2000	991
327.3000	945
327.4000	933
327.5000	725
327.6000	632
327.7000	610
327.8000	527
327.9000	479
328.0000	281
328.1000	198
328.2000	179
328.3000	141
328.4000	126
328.5000	71
328.6000	44
328.7000	43
328.8000	35
328.9000	22
347.4000	32
347.5000	39
347.6000	40
347.7000	40
347.8000	31
347.9000	29
609.5000	34
609.6000	67
609.7000	88
609.8000	87
609.9000	92
610.0000	92
610.1000	92
610.2000	84
610.3000	72
610.4000	42
610.6000	24
610.7000	34
610.8000	37
610.9000	41
611.0000	38
611.1000	37
611.2000	35
611.3000	31
652.5000	25
652.6000	62
652.7000	83
652.8000	103
652.9000	100
653.0000	100
653.1000	108
653.2000	97
653.3000	83
653.4000	56
653.5000	28
653.6000	40
653.7000	45
653.8000	43
653.9000	50
654.0000	47
654.1000	49
654.2000	44
654.3000	36
654.4000	30
