Mass spectrum: Clarithromycin; LC-ESI-QQQ; MS2; Frag=135.0V CID@25.0; [M+H]+
Name: Clarithromycin
Class: Polyketides
Formula: C38H69NO13
Exact mass: 747.9725
SMILES: CC[C@H]1OC(=O)[C@H](C)[C@@H](O[C@H]2C[C@@](C)(OC)[C@@H](O)[C@H](C)O2)[C@H](C)[C@@H](O[C@@H]2O[C@H](C)C[C@H](N(C)C)[C@H]2O)[C@](C)(OC)C[C@@H](C)C(=O)[C@H](C)[C@@H](O)[C@]1(C)O
InChI: InChI=1S/C38H69NO13/c1-15-26-38(10,45)31(42)21(4)28(40)19(2)17-37(9,47-14)33(52-35-29(41)25(39(11)12)16-20(3)48-35)22(5)30(23(6)34(44)50-26)51-27-18-36(8,46-13)32(43)24(7)49-27/h19-27,29-33,35,41-43,45H,15-18H2,1-14H3/t19-,20-,21+,22+,23-,24+,25+,26-,27+,29-,30+,31-,32+,33-,35+,36-,37-,38-/m1/s1
Instrument: Agilent 6410 Triple Quadrupole LC/MS system
Instrument type: LC-ESI-QQQ
Ms type: MS2
Ion mode: POSITIVE
Precursor type: [M+H]+
m/z	relative intensity
82.5	2
82.6	3
82.7	5
82.8	6
82.9	7
83.0	7
83.1	6
83.2	4
83.3	3
115.5	3
115.6	4
115.7	7
115.8	9
115.9	10
116.0	11
116.1	10
116.2	9
116.3	7
116.4	4
116.5	1
157.1	0
157.2	1
157.3	4
157.4	8
157.5	16
157.6	27
157.7	42
157.8	62
157.9	82
158.0	96
158.1	99
158.2	91
158.3	72
158.4	48
158.5	23
158.6	6
158.7	0
589.8	2
589.9	3
590.0	5
590.1	6
590.2	7
590.3	7
590.4	6
590.5	4
590.6	2
