Mass spectrum: Vidarabine phosphate; LC-ESI-QQQ; MS2; Frag=135.0V CID@5.0; [M+H]+
Name: Vidarabine phosphate
Class: Carbohydrates
Formula: C10H13N5NaO7P
Exact mass: 369.208
SMILES: Nc1ncnc2c1ncn2[C@H]1O[C@@H](COP(=O)([O-])O)[C@H](O)[C@H]1O.[Na+]
InChI: InChI=1S/C10H14N5O7P.Na/c11-8-5-9(13-2-12-8)15(3-14-5)10-7(17)6(16)4(22-10)1-21-23(18,19)20;/h2-4,6-7,10,16-17H,1H2,(H2,11,12,13)(H2,18,19,20);/q;+1/p-1/t4-,6-,7+,10-;/m0./s1
Instrument: Agilent 6410 Triple Quadrupole LC/MS system
Instrument type: LC-ESI-QQQ
Ms type: MS2
Ion mode: POSITIVE
Precursor type: [M+H]+
m/z	relative intensity
135.3	1
135.4	3
135.5	6
135.6	12
135.7	21
135.8	36
135.9	51
136.0	61
136.1	63
136.2	59
136.3	51
136.4	37
136.5	20
136.6	5
136.7	0
347.2	1
347.3	2
347.4	5
347.5	10
347.6	18
347.7	32
347.8	51
347.9	72
348.0	90
348.1	99
348.2	97
348.3	80
348.4	53
348.5	23
348.6	3
