Mass spectrum: Vanilloside; LC-ESI-QQQ; MS2; Frag=135.0V CID@5.0; [M+Na]+
Name: Vanilloside
Class: Carbohydrates
Formula: C14H18O8
Exact mass: 314.2948
SMILES: COc1cc(C=O)ccc1O[C@@H]1O[C@H](CO)[C@H](O)[C@H](O)[C@H]1O
InChI: InChI=1S/C14H18O8/c1-20-9-4-7(5-15)2-3-8(9)21-14-13(19)12(18)11(17)10(6-16)22-14/h2-5,10-14,16-19H,6H2,1H3/t10-,11+,12+,13-,14-/m1/s1
Instrument: Agilent 6410 Triple Quadrupole LC/MS system
Instrument type: LC-ESI-QQQ
Ms type: MS2
Ion mode: POSITIVE
Precursor type: [M+Na]+
m/z	relative intensity
336.2	0
336.3	1
336.4	6
336.5	12
336.6	21
336.7	31
336.8	46
336.9	63
337.0	80
337.1	94
337.2	99
337.3	91
337.4	66
337.5	33
337.6	7
337.7	0
