Mass spectrum: Polyanthinin; LC-ESI-QQQ; MS2; Frag=135.0V CID@5.0; [M+H]+
Name: Polyanthinin
Class: Benzopyranoids
Formula: C26H32O5
Exact mass: 424.5419
SMILES: C=C1CC[C@@H]2C(C)(C)[C@@H](OC(C)=O)CC[C@@]2(C)[C@H]1COc1ccc2ccc(=O)oc2c1
InChI: InChI=1S/C26H32O5/c1-16-6-10-22-25(3,4)23(30-17(2)27)12-13-26(22,5)20(16)15-29-19-9-7-18-8-11-24(28)31-21(18)14-19/h7-9,11,14,20,22-23H,1,6,10,12-13,15H2,2-5H3/t20-,22+,23-,26-/m0/s1
Instrument: Agilent 6410 Triple Quadrupole LC/MS system
Instrument type: LC-ESI-QQQ
Ms type: MS2
Ion mode: POSITIVE
Precursor type: [M+H]+
m/z	relative intensity
162.6	1
162.7	3
162.8	7
162.9	12
163.0	14
163.1	13
163.2	11
163.3	8
163.4	5
163.5	2
202.3	1
202.4	3
202.5	5
202.6	6
202.7	8
202.8	13
202.9	21
203.0	29
203.1	33
203.2	33
203.3	30
203.4	24
203.5	15
203.6	6
203.7	0
364.3	2
364.4	4
364.5	6
364.6	9
364.7	12
364.8	20
364.9	37
365.0	61
365.1	83
365.2	98
365.3	99
365.4	85
365.5	56
365.6	24
365.7	2
424.7	2
424.8	4
424.9	8
425.0	12
425.1	15
425.2	17
425.3	18
425.4	17
425.5	13
425.6	7
425.7	1
