Mass spectrum: Talatizamine; LC-ESI-QQQ; MS2; Frag=135.0V CID@25.0; [M+H]+
Name: Talatizamine
Class: Alkaloids
Formula: C24H39NO5
Exact mass: 421.5821
SMILES: CCN1C[C@]2(COC)CC[C@H](OC)[C@@]34C5C[C@@H]6[C@@H](OC)C[C@@](O)(C5[C@H]6O)[C@@H](CC23)C14
InChI: InChI=1S/C24H39NO5/c1-5-25-11-22(12-28-2)7-6-18(30-4)24-14-8-13-16(29-3)10-23(27,19(14)20(13)26)15(21(24)25)9-17(22)24/h13-21,26-27H,5-12H2,1-4H3/t13-,14?,15+,16+,17?,18+,19?,20+,21?,22+,23+,24-/m1/s1
Instrument: Agilent 6410 Triple Quadrupole LC/MS system
Instrument type: LC-ESI-QQQ
Ms type: MS2
Ion mode: POSITIVE
Precursor type: [M+H]+
m/z	relative intensity
389.6	2
389.7	3
389.8	5
389.9	9
390.0	14
390.1	19
390.2	24
390.3	26
390.4	25
390.5	19
390.6	12
390.7	5
390.8	0
421.4	1
421.5	2
421.6	6
421.7	11
421.8	19
421.9	32
422.0	51
422.1	74
422.2	92
422.3	99
422.4	94
422.5	75
422.6	46
422.7	18
422.8	1
