Mass spectrum: piperine; LC-ESI-QQQ; MS2; Frag=135.0V CID@10.0; [M+H]+
Name: piperine
Class: Alkaloids
Formula: C17H19NO3
Exact mass: 285.3459
SMILES: O=C(/C=C/C=C/c1ccc2c(c1)OCO2)N1CCCCC1
InChI: InChI=1S/C17H19NO3/c19-17(18-10-4-1-5-11-18)7-3-2-6-14-8-9-15-16(12-14)21-13-20-15/h2-3,6-9,12H,1,4-5,10-11,13H2/b6-2+,7-3+
Instrument: Agilent 6410 Triple Quadrupole LC/MS system
Instrument type: LC-ESI-QQQ
Ms type: MS2
Ion mode: POSITIVE
Precursor type: [M+H]+
m/z	relative intensity
134.7	2
134.8	3
134.9	5
135.0	6
135.1	6
135.2	6
135.3	4
135.4	3
200.3	0
200.4	3
200.5	8
200.6	16
200.7	27
200.8	41
200.9	55
201.0	67
201.1	72
201.2	70
201.3	61
201.4	44
201.5	23
201.6	6
201.7	0
285.3	0
285.4	1
285.5	5
285.6	12
285.7	23
285.8	39
285.9	58
286.0	79
286.1	94
286.2	99
286.3	92
286.4	73
286.5	45
286.6	18
286.7	1
