Mass spectrum: Perfamine; LC-ESI-QQQ; MS2; Frag=135.0V CID@15.0; [M+H]+
Name: Perfamine
Class: Alkaloids
Formula: C18H19NO4
Exact mass: 313.3564
SMILES: COc1c2c(nc3occc13)C(CC=C(C)C)(OC)C(=O)C=C2
InChI: InChI=1S/C18H19NO4/c1-11(2)7-9-18(22-4)14(20)6-5-12-15(21-3)13-8-10-23-17(13)19-16(12)18/h5-8,10H,9H2,1-4H3
Instrument: Agilent 6410 Triple Quadrupole LC/MS system
Instrument type: LC-ESI-QQQ
Ms type: MS2
Ion mode: POSITIVE
Precursor type: [M+H]+
m/z	relative intensity
230.4	1
230.5	3
230.6	6
230.7	10
230.8	16
230.9	22
231.0	27
231.1	28
231.2	25
231.3	20
231.4	12
231.5	5
231.6	1
245.2	0
245.3	3
245.4	6
245.5	12
245.6	21
245.7	36
245.8	57
245.9	78
246.0	93
246.1	99
246.2	97
246.3	84
246.4	61
246.5	32
246.6	8
246.7	0
313.7	2
313.8	3
313.9	6
314.0	7
314.1	9
314.2	9
314.3	8
314.4	7
314.5	4
314.6	1
