Mass spectrum: Papaveraldine; LC-ESI-QQQ; MS2; Frag=135.0V CID@25.0; [M+H]+
Name: Papaveraldine
Class: Alkaloids
Formula: C20H21NO5
Exact mass: 355.3941
SMILES: COc1ccc(C(=O)C2=NCCc3cc(OC)c(OC)cc32)cc1OC
InChI: InChI=1S/C20H21NO5/c1-23-15-6-5-13(10-16(15)24-2)20(22)19-14-11-18(26-4)17(25-3)9-12(14)7-8-21-19/h5-6,9-11H,7-8H2,1-4H3
Instrument: Agilent 6410 Triple Quadrupole LC/MS system
Instrument type: LC-ESI-QQQ
Ms type: MS2
Ion mode: POSITIVE
Precursor type: [M+H]+
m/z	relative intensity
162.7	3
162.8	4
162.9	5
163.0	7
163.1	7
163.2	7
163.3	6
163.4	4
163.5	2
164.5	1
164.6	2
164.7	4
164.8	7
164.9	10
165.0	13
165.1	14
165.2	14
165.3	12
165.4	9
165.5	5
165.6	1
174.5	2
174.6	3
174.7	6
174.8	10
174.9	15
175.0	18
175.1	20
175.2	20
175.3	18
175.4	14
175.5	8
175.6	2
189.2	0
189.3	1
189.4	4
189.5	8
189.6	16
189.7	30
189.8	52
189.9	74
190.0	92
190.1	99
190.2	99
190.3	89
190.4	70
190.5	42
190.6	16
190.7	0
309.7	2
309.8	3
309.9	5
310.0	7
310.1	8
310.2	8
310.3	7
310.4	5
310.5	2
323.8	1
323.9	3
324.0	4
324.1	5
324.2	5
324.3	5
324.4	4
324.5	3
324.6	2
324.7	3
324.8	6
324.9	9
325.0	13
325.1	16
325.2	17
325.3	17
325.4	14
325.5	8
325.6	3
355.7	2
355.8	3
355.9	6
356.0	8
356.1	10
356.2	10
356.3	9
356.4	7
356.5	4
356.6	1
