Mass spectrum: Oleuropein; LC-ESI-QQQ; MS; [M+H]+
Name: Oleuropein
Class: Terpenoids
Formula: C25H32O13
Exact mass: 540.526
SMILES: C/C=C1\C(O[C@@H]2O[C@H](CO)[C@@H](O)[C@H](O)[C@H]2O)OC=C(C(=O)OC)C1CC(=O)OCCc1ccc(O)c(O)c1
InChI: InChI=1S/C25H32O13/c1-3-13-14(9-19(29)35-7-6-12-4-5-16(27)17(28)8-12)15(23(33)34-2)11-36-24(13)38-25-22(32)21(31)20(30)18(10-26)37-25/h3-5,8,11,14,18,20-22,24-28,30-32H,6-7,9-10H2,1-2H3/b13-3-/t14?,18-,20-,21+,22-,24?,25+/m1/s1
Instrument: ABSciex API3200 LC/MS system
Instrument type: LC-ESI-QQQ
Ms type: MS
Ion mode: POSITIVE
Precursor type: [M+H]+
m/z	relative intensity
100.6000	184
100.7000	78
100.8000	72
100.9000	40
101.0000	34
101.1000	65
101.2000	149
101.3000	170
101.4000	92
101.5000	49
113.7000	27
113.8000	59
113.9000	49
114.0000	35
114.1000	33
114.2000	28
134.8000	28
136.4000	72
136.5000	581
136.6000	599
136.7000	863
136.8000	999
136.9000	828
137.0000	897
137.1000	773
137.2000	720
137.3000	751
137.4000	572
137.5000	240
137.6000	85
137.7000	87
137.8000	124
137.9000	101
138.0000	86
138.1000	61
138.2000	74
138.3000	62
138.4000	69
138.5000	30
150.7000	28
150.8000	23
150.9000	36
151.0000	21
151.2000	21
164.4000	32
164.5000	54
164.6000	90
164.7000	107
164.8000	105
164.9000	92
165.0000	97
165.1000	75
165.2000	78
165.3000	47
165.4000	59
206.8000	21
224.6000	37
224.9000	33
225.0000	24
225.1000	38
225.2000	29
225.3000	24
225.4000	25
286.7000	21
286.8000	21
287.1000	34
328.6000	22
328.8000	22
328.9000	21
346.6000	52
346.7000	54
346.8000	21
346.9000	47
347.0000	33
347.1000	30
347.2000	40
347.3000	23
347.4000	25
360.4000	89
360.5000	357
360.6000	546
360.7000	601
360.8000	734
360.9000	705
361.0000	661
361.1000	608
361.2000	572
361.3000	675
361.4000	378
361.5000	222
361.6000	146
361.7000	120
361.8000	118
361.9000	138
362.0000	130
362.1000	113
362.2000	115
362.3000	122
362.4000	148
362.5000	38
362.7000	21
363.1000	24
378.4000	52
378.5000	171
378.6000	205
378.7000	189
378.8000	243
378.9000	198
379.0000	220
379.1000	197
379.2000	188
379.3000	264
379.4000	129
379.5000	48
379.6000	47
379.7000	43
379.8000	57
379.9000	73
380.0000	37
380.1000	52
380.2000	28
380.3000	37
380.4000	21
540.5000	66
540.6000	140
540.7000	182
540.8000	179
540.9000	189
541.0000	149
541.1000	133
541.2000	148
541.3000	105
541.4000	64
541.5000	35
541.6000	53
541.7000	51
541.8000	67
541.9000	50
542.0000	34
542.1000	39
542.2000	43
542.3000	26
557.5000	34
557.6000	80
557.7000	106
557.8000	98
557.9000	128
558.0000	115
558.1000	116
558.2000	118
558.3000	101
558.4000	57
558.5000	24
558.6000	30
558.7000	37
558.8000	34
558.9000	36
559.0000	35
559.1000	34
559.2000	61
559.3000	24
720.6000	22
720.8000	34
720.9000	32
721.0000	32
721.1000	24
721.2000	30
900.6000	21
900.7000	23
900.8000	26
900.9000	23
901.0000	40
901.3000	21
1097.8000	22
1097.9000	28
1098.2000	21
1098.3000	23
1099.1000	21
