Mass spectrum: Ursinoic acid; LC-ESI-QQQ; MS2; Frag=135.0V CID@25.0; [M+H]+
Name: Ursinoic acid
Class: Terpenoids
Formula: C15H16O5
Exact mass: 276.2918
SMILES: COc1ccc(C(=O)CC(=O)O)c2c1C=CC(C)(C)O2
InChI: InChI=1S/C15H16O5/c1-15(2)7-6-10-12(19-3)5-4-9(14(10)20-15)11(16)8-13(17)18/h4-7H,8H2,1-3H3,(H,17,18)
Instrument: Agilent 6410 Triple Quadrupole LC/MS system
Instrument type: LC-ESI-QQQ
Ms type: MS2
Ion mode: POSITIVE
Precursor type: [M+H]+
m/z	relative intensity
159.6	1
159.7	3
159.8	5
159.9	7
160.0	8
160.1	8
160.2	7
160.3	5
160.4	3
174.5	1
174.6	2
174.7	4
174.8	7
174.9	10
175.0	13
175.1	14
175.2	13
175.3	11
175.4	8
175.5	3
176.5	1
176.6	3
176.7	5
176.8	8
176.9	12
177.0	15
177.1	16
177.2	15
177.3	13
177.4	10
177.5	6
177.6	2
202.2	0
202.3	2
202.4	4
202.5	9
202.6	17
202.7	32
202.8	53
202.9	76
203.0	93
203.1	99
203.2	94
203.3	77
203.4	50
203.5	22
203.6	3
