Mass spectrum: Amygdalin; LC-ESI-QQQ; MS2; Frag=135.0V CID@25.0; [M+H]+
Name: Amygdaloside
Name: Laenitrile
Name: Mandelonitrile-beta-gentiobioside
Name: Amygdalin
Class: Carbohydrates
Formula: C20H27NO11
Exact mass: 457.4383
SMILES: N#CC(O[C@@H]1O[C@H](CO[C@@H]2O[C@H](CO)[C@@H](O)[C@H](O)[C@H]2O)[C@@H](O)[C@H](O)[C@H]1O)c1ccccc1
InChI: InChI=1S/C20H27NO11/c21-6-10(9-4-2-1-3-5-9)30-20-18(28)16(26)14(24)12(32-20)8-29-19-17(27)15(25)13(23)11(7-22)31-19/h1-5,10-20,22-28H,7-8H2/t10?,11-,12-,13-,14-,15+,16+,17-,18-,19-,20-/m1/s1
Instrument: Agilent 6410 Triple Quadrupole LC/MS system
Instrument type: LC-ESI-QQQ
Ms type: MS2
Ion mode: POSITIVE
Precursor type: [M+H]+
m/z	relative intensity
68.4	1
68.5	3
68.6	6
68.7	9
68.8	11
68.9	10
69.0	9
69.1	7
69.2	5
69.3	3
84.4	2
84.5	4
84.6	8
84.7	14
84.8	20
84.9	25
85.0	28
85.1	29
85.2	26
85.3	18
85.4	9
85.5	2
90.8	3
90.9	5
91.0	7
91.1	7
91.2	6
91.3	3
96.8	2
96.9	4
97.0	5
97.1	5
97.2	5
97.3	4
98.6	1
98.7	3
98.8	5
98.9	7
99.0	6
99.1	4
102.6	1
102.7	3
102.8	4
102.9	5
103.0	5
103.1	4
108.8	2
108.9	4
109.0	8
109.1	9
109.2	7
109.3	3
126.6	2
126.7	4
126.8	5
126.9	7
127.0	8
127.1	7
127.2	5
127.3	3
133.7	6
133.8	7
133.9	10
134.0	13
134.1	15
134.2	13
134.3	9
134.4	5
134.5	1
144.6	3
144.7	7
144.8	11
144.9	12
145.0	9
145.1	5
157.3	3
157.4	5
157.5	8
157.6	14
157.7	25
157.8	39
157.9	49
158.0	51
158.1	46
158.2	36
158.3	25
158.4	14
158.5	5
158.6	1
159.3	1
159.4	2
159.5	5
159.6	7
159.7	9
159.8	11
159.9	12
160.0	12
160.1	10
160.2	6
160.3	3
161.5	2
161.6	3
161.7	4
161.8	5
161.9	5
162.0	5
162.1	4
162.2	3
162.3	3
162.4	2
162.5	1
162.6	0
162.7	0
162.8	1
162.9	1
163.0	0
163.1	0
163.2	0
163.3	0
163.4	1
163.5	1
163.6	1
163.7	0
163.8	0
163.9	1
164.0	1
164.1	1
164.2	1
164.3	0
164.4	0
164.5	0
164.6	1
164.7	1
164.8	1
164.9	0
165.0	0
165.1	0
165.2	0
165.3	1
165.4	1
165.5	1
165.6	0
165.7	0
165.8	0
165.9	0
166.0	1
166.1	1
166.2	1
166.3	0
166.4	0
166.5	0
166.6	1
166.7	1
166.8	0
166.9	0
167.0	0
167.1	0
167.2	1
167.3	1
167.4	1
167.5	0
167.6	0
167.7	0
167.8	1
167.9	1
168.0	1
168.1	1
168.2	0
168.3	0
168.4	0
168.5	0
168.6	1
168.7	1
168.8	1
168.9	2
169.0	2
169.1	2
169.2	1
169.3	1
169.4	0
169.5	0
169.6	0
169.7	1
169.8	1
169.9	1
170.0	1
170.1	1
170.2	0
170.3	0
170.4	1
170.5	1
170.6	1
170.7	1
170.8	1
170.9	1
171.0	1
171.1	1
171.2	1
171.3	1
171.4	1
171.5	0
171.6	0
171.7	1
171.8	1
171.9	2
172.0	3
172.1	2
172.2	1
172.3	1
172.4	0
172.5	0
172.6	1
172.7	1
172.8	2
172.9	3
173.0	3
173.1	2
173.2	1
173.3	0
173.4	0
173.5	0
173.6	1
173.7	1
173.8	1
173.9	1
174.0	0
174.1	0
174.2	1
174.3	1
174.4	1
174.5	1
174.6	0
174.7	0
174.8	0
174.9	0
175.0	1
175.1	1
175.2	1
175.3	0
175.4	1
175.5	1
175.6	3
175.7	4
175.8	4
175.9	3
176.0	2
176.1	1
176.2	1
176.3	1
176.4	1
176.5	0
176.6	0
176.7	0
176.8	1
176.9	1
177.0	1
177.1	1
177.2	0
177.3	0
177.4	1
177.5	1
177.6	1
177.7	1
177.8	0
177.9	0
178.0	1
178.1	1
178.2	1
178.3	1
178.4	0
178.5	0
178.6	0
178.7	1
178.8	1
178.9	1
179.0	0
179.1	0
179.2	0
179.3	0
179.4	1
179.5	1
179.6	1
179.7	0
179.8	0
179.9	0
180.0	1
180.1	1
180.2	1
180.3	1
180.4	0
180.5	0
180.6	0
180.7	1
180.8	1
180.9	1
181.0	0
181.1	0
181.2	0
181.3	1
181.4	1
181.5	1
181.6	1
181.7	1
181.8	1
181.9	1
182.0	1
182.1	1
182.2	0
182.3	0
182.4	0
182.5	0
182.6	1
182.7	1
182.8	0
182.9	0
183.0	1
183.1	1
183.2	1
183.3	1
183.4	1
183.5	1
183.6	0
183.7	0
183.8	1
183.9	1
184.0	1
184.1	1
184.2	0
184.3	0
184.4	0
184.5	1
184.6	1
184.7	1
184.8	0
184.9	0
185.0	0
185.1	1
185.2	1
185.3	1
185.4	1
185.5	1
185.6	1
185.7	1
185.8	1
185.9	1
186.0	2
186.1	3
186.2	4
186.3	5
186.4	4
186.5	3
186.6	2
186.7	3
186.8	4
186.9	5
187.0	4
199.5	1
199.6	2
199.7	4
199.8	7
199.9	9
200.0	12
200.1	13
200.2	11
200.3	6
200.4	2
295.1	0
295.2	2
295.3	5
295.4	10
295.5	16
295.6	22
295.7	31
295.8	48
295.9	74
296.0	96
296.1	99
296.2	82
296.3	57
296.4	34
296.5	17
296.6	6
296.7	0
