Mass spectrum: 16-Oxo-19-beyeranoic acid; LC-ESI-QQQ; MS2; Frag=135.0V CID@15.0; [M+H]+
Name: 16-Oxo-19-beyeranoic acid
Class: Terpenoids
Formula: C20H30O3
Exact mass: 318.4603
SMILES: C[C@@]12CCC3[C@]4(C)CCC[C@@](C)(C(=O)O)C4CC[C@]3(CC1=O)C2
InChI: InChI=1S/C20H30O3/c1-17-9-5-14-18(2)7-4-8-19(3,16(22)23)13(18)6-10-20(14,12-17)11-15(17)21/h13-14H,4-12H2,1-3H3,(H,22,23)/t13?,14?,17-,18+,19+,20-/m0/s1
Instrument: Agilent 6410 Triple Quadrupole LC/MS system
Instrument type: LC-ESI-QQQ
Ms type: MS2
Ion mode: POSITIVE
Precursor type: [M+H]+
m/z	relative intensity
58.4	0
58.5	2
58.6	4
58.7	6
58.8	9
58.9	11
59.0	12
59.1	12
59.2	9
59.3	6
59.4	2
94.5	1
94.6	2
94.7	4
94.8	8
94.9	10
95.0	12
95.1	12
95.2	10
95.3	9
95.4	6
95.5	2
108.5	2
108.6	3
108.7	5
108.8	8
108.9	13
109.0	17
109.1	19
109.2	19
109.3	17
109.4	14
109.5	9
109.6	4
120.4	1
120.5	3
120.6	3
120.7	5
120.8	8
120.9	12
121.0	16
121.1	18
121.2	17
121.3	15
121.4	10
121.5	5
121.6	0
122.6	0
122.7	2
122.8	5
122.9	8
123.0	11
123.1	13
123.2	13
123.3	10
123.4	6
123.5	2
132.6	0
132.7	2
132.8	4
132.9	6
133.0	8
133.1	9
133.2	8
133.3	7
133.4	4
133.5	1
134.6	1
134.7	3
134.8	6
134.9	10
135.0	11
135.1	10
135.2	9
135.3	8
135.4	6
135.5	3
138.6	2
138.7	3
138.8	6
138.9	11
139.0	15
139.1	16
139.2	13
139.3	8
139.4	4
139.5	1
144.5	0
144.6	2
144.7	4
144.8	6
144.9	7
145.0	7
145.1	7
145.2	7
145.3	6
145.4	5
145.5	2
146.5	2
146.6	3
146.7	5
146.8	7
146.9	10
147.0	12
147.1	13
147.2	13
147.3	13
147.4	10
147.5	6
147.6	2
148.6	1
148.7	3
148.8	5
148.9	7
149.0	9
149.1	9
149.2	9
149.3	7
149.4	5
149.5	3
158.6	1
158.7	3
158.8	5
158.9	8
159.0	9
159.1	9
159.2	9
159.3	8
159.4	7
159.5	4
159.6	1
162.6	0
162.7	2
162.8	3
162.9	4
163.0	4
163.1	4
163.2	4
163.3	5
163.4	4
163.5	2
164.4	1
164.5	2
164.6	4
164.7	7
164.8	10
164.9	14
165.0	17
165.1	19
165.2	20
165.3	20
165.4	17
165.5	11
165.6	5
165.7	0
172.7	2
172.8	4
172.9	7
173.0	8
173.1	7
173.2	6
173.3	4
173.4	3
176.5	1
176.6	2
176.7	4
176.8	6
176.9	6
177.0	6
177.1	7
177.2	7
177.3	7
177.4	6
177.5	4
177.6	1
190.5	1
190.6	3
190.7	5
190.8	9
190.9	13
191.0	17
191.1	19
191.2	21
191.3	21
191.4	17
191.5	10
191.6	3
192.6	1
192.7	2
192.8	4
192.9	6
193.0	7
193.1	7
193.2	7
193.3	7
193.4	6
193.5	3
198.8	2
198.9	4
199.0	5
199.1	7
199.2	8
199.3	8
199.4	5
199.5	2
202.7	0
202.8	2
202.9	3
203.0	5
203.1	6
203.2	6
203.3	4
203.4	2
212.9	2
213.0	4
213.1	6
213.2	6
213.3	5
213.4	3
214.8	2
214.9	3
215.0	6
215.1	8
215.2	9
215.3	8
215.4	6
215.5	4
215.6	2
230.9	1
231.0	3
231.1	5
231.2	5
231.3	4
231.4	2
254.4	0
254.5	2
254.6	6
254.7	11
254.8	19
254.9	32
255.0	50
255.1	67
255.2	77
255.3	77
255.4	69
255.5	53
255.6	32
255.7	11
255.8	0
258.9	3
259.0	5
259.1	8
259.2	10
259.3	10
259.4	7
259.5	4
259.6	1
272.4	1
272.5	4
272.6	9
272.7	15
272.8	25
272.9	42
273.0	64
273.1	83
273.2	91
273.3	89
273.4	78
273.5	60
273.6	35
273.7	12
273.8	0
282.5	1
282.6	2
282.7	5
282.8	9
282.9	14
283.0	20
283.1	23
283.2	24
283.3	23
283.4	20
283.5	13
283.6	5
283.7	0
300.4	0
300.5	1
300.6	4
300.7	11
300.8	20
300.9	31
301.0	42
301.1	52
301.2	59
301.3	60
301.4	52
301.5	34
301.6	14
301.7	1
318.4	1
318.5	2
318.6	5
318.7	12
318.8	23
318.9	41
319.0	62
319.1	83
319.2	97
319.3	99
319.4	89
319.5	67
319.6	39
319.7	14
319.8	0
