Mass spectrum: Sipeimine, 3-Ac; LC-ESI-QQQ; MS2; Frag=135.0V CID@25.0; [M+H]+
Name: Sipeimine, 3-Ac
Class: Alkaloids
Formula: C29H45NO4
Exact mass: 471.6863
SMILES: CC(=O)OC1CC[C@@]2(C)[C@H](C1)C(=O)C[C@H]1[C@@H]3CCC4C(CN5C[C@@H](C)CC[C@H]5[C@@]4(C)O)[C@@H]3C[C@@H]12
InChI: InChI=1S/C29H45NO4/c1-16-5-8-27-29(4,33)23-7-6-19-20(22(23)15-30(27)14-16)12-24-21(19)13-26(32)25-11-18(34-17(2)31)9-10-28(24,25)3/h16,18-25,27,33H,5-15H2,1-4H3/t16-,18?,19+,20+,21-,22?,23?,24-,25+,27-,28+,29-/m0/s1
Instrument: Agilent 6410 Triple Quadrupole LC/MS system
Instrument type: LC-ESI-QQQ
Ms type: MS2
Ion mode: POSITIVE
Precursor type: [M+H]+
m/z	relative intensity
453.4	1
453.5	3
453.6	6
453.7	11
453.8	18
453.9	31
454.0	51
454.1	72
454.2	90
454.3	99
454.4	98
454.5	86
454.6	63
454.7	34
454.8	10
454.9	0
471.4	0
471.5	2
471.6	3
471.7	6
471.8	9
471.9	17
472.0	29
472.1	43
472.2	56
472.3	62
472.4	62
472.5	55
472.6	42
472.7	25
472.8	9
472.9	0
