Mass spectrum: Thalsimine; LC-ESI-QQQ; MS; [M+H]+
Name: 5,6,6',7,12-Pentamethoxy-2-methyl-1',2'-didehydroberbaman
Name: (14R)-9,19,20,21,25-pentamethoxy-15-methyl-7,23-dioxa-15,30-diazaheptacyclo(22.6.2.2(3,6).1(8,12).1(14,18).0(22,36).0(27,31))hexatriaconta-1(30),3(33),4,6(34),8,10,12(35),18(36),19,21,24(32),25,27(31)-tridecaene
Name: Thalsimine
Class: Alkaloids
Formula: C38H40N2O7
Exact mass: 636.7517
SMILES: COc1ccc2cc1Oc1ccc(cc1)CC1=NCCc3cc(OC)c(cc31)Oc1c(OC)c(OC)c(OC)c3c1[C@@H](C2)N(C)CC3
InChI: InChI=1S/C38H40N2O7/c1-40-16-14-26-34-29(40)18-23-9-12-30(41-2)32(19-23)46-25-10-7-22(8-11-25)17-28-27-21-33(31(42-3)20-24(27)13-15-39-28)47-36(34)38(45-6)37(44-5)35(26)43-4/h7-12,19-21,29H,13-18H2,1-6H3/t29-/m1/s1
Instrument: ABSciex API3200 LC/MS system
Instrument type: LC-ESI-QQQ
Ms type: MS
Ion mode: POSITIVE
Precursor type: [M+H]+
m/z	relative intensity
121.5000	25
121.6000	35
121.7000	23
121.8000	26
121.9000	30
122.0000	26
122.1000	23
122.2000	27
122.3000	21
202.5000	33
202.6000	45
202.7000	43
202.8000	52
202.9000	50
203.0000	57
203.1000	48
203.2000	40
203.3000	36
203.4000	41
203.5000	26
203.6000	28
203.7000	30
203.8000	37
203.9000	32
204.0000	29
204.1000	36
204.2000	33
204.3000	27
204.4000	29
204.9000	26
217.4000	24
217.5000	44
217.6000	62
217.7000	73
217.8000	78
217.9000	97
218.0000	87
218.1000	93
218.2000	86
218.3000	77
218.4000	78
218.5000	41
218.6000	25
218.7000	22
218.8000	23
219.0000	24
219.1000	22
219.4000	22
249.6000	21
249.7000	33
249.8000	27
250.0000	23
250.1000	29
250.2000	28
250.3000	24
250.4000	22
253.6000	21
258.2000	21
258.3000	25
258.4000	45
264.9000	22
265.0000	23
265.1000	26
265.2000	25
265.4000	30
265.5000	33
265.6000	44
265.7000	40
265.8000	45
265.9000	42
266.0000	40
266.1000	42
266.2000	39
266.3000	32
266.4000	36
266.5000	21
266.6000	21
266.7000	23
267.0000	27
272.1000	22
272.2000	21
272.6000	23
272.7000	25
273.1000	26
274.2000	23
274.5000	21
274.6000	25
274.7000	24
274.8000	23
279.4000	21
279.5000	21
279.7000	22
279.8000	22
279.9000	35
280.0000	41
280.1000	41
280.2000	52
280.3000	49
280.4000	52
280.5000	64
280.6000	69
280.7000	61
280.8000	67
280.9000	65
281.0000	53
281.1000	57
281.2000	47
281.3000	53
281.4000	45
281.5000	41
281.6000	64
281.7000	44
281.8000	52
281.9000	46
282.0000	44
282.1000	47
282.2000	30
282.3000	26
282.4000	35
282.5000	56
282.6000	33
282.7000	36
282.8000	37
282.9000	40
283.0000	40
283.1000	40
283.2000	40
283.3000	35
283.4000	43
287.1000	21
287.2000	22
287.3000	30
287.4000	27
287.5000	39
287.6000	52
287.7000	58
287.8000	60
287.9000	88
288.0000	95
288.1000	107
288.2000	106
288.3000	112
288.4000	122
288.5000	92
288.6000	98
288.7000	106
288.8000	92
288.9000	87
289.0000	55
289.1000	56
289.2000	45
289.3000	39
289.4000	37
295.4000	47
295.5000	89
295.6000	132
295.7000	112
295.8000	108
295.9000	121
296.0000	127
296.1000	147
296.2000	161
296.3000	121
296.4000	131
296.5000	81
296.6000	64
296.7000	70
296.8000	57
296.9000	48
297.0000	30
297.1000	25
297.2000	27
297.3000	26
302.9000	59
303.0000	112
303.1000	146
303.2000	198
303.3000	211
303.4000	226
303.5000	254
303.6000	238
303.7000	261
303.8000	240
303.9000	218
304.0000	158
304.1000	138
304.2000	120
304.3000	113
304.4000	96
304.5000	52
304.6000	48
304.7000	53
304.8000	36
304.9000	24
311.0000	25
311.1000	30
311.2000	28
311.3000	26
311.4000	24
311.8000	34
318.3000	33
318.4000	268
318.5000	591
318.6000	712
318.7000	843
318.8000	871
318.9000	920
319.0000	944
319.1000	981
319.2000	999
319.3000	988
319.4000	961
319.5000	751
319.6000	652
319.7000	563
319.8000	508
319.9000	501
320.0000	303
320.1000	307
320.2000	220
320.3000	175
320.4000	157
320.5000	92
320.6000	50
320.7000	41
320.8000	24
320.9000	24
359.8000	28
359.9000	21
360.0000	21
360.1000	24
360.2000	21
360.3000	21
387.5000	21
387.6000	29
387.7000	31
387.8000	35
387.9000	34
388.0000	36
388.1000	35
388.2000	29
388.3000	29
388.4000	33
388.5000	50
388.6000	73
388.7000	77
388.8000	81
388.9000	77
389.0000	89
389.1000	73
389.2000	76
389.3000	70
389.4000	52
389.5000	22
389.6000	27
389.7000	22
389.9000	22
390.1000	26
563.6000	36
563.7000	49
563.8000	52
563.9000	54
564.0000	55
564.1000	59
564.2000	47
564.3000	39
564.9000	26
565.1000	21
593.5000	26
593.6000	57
593.7000	75
593.8000	84
593.9000	88
594.0000	86
594.1000	99
594.2000	94
594.3000	70
594.4000	46
594.5000	23
594.6000	31
594.7000	41
594.8000	42
594.9000	45
595.0000	43
595.1000	46
595.2000	33
595.3000	33
636.5000	61
636.6000	131
636.7000	187
636.8000	191
636.9000	205
637.0000	205
637.1000	213
637.2000	180
637.3000	162
637.4000	100
637.5000	56
637.6000	74
637.7000	100
637.8000	102
637.9000	104
638.0000	102
638.1000	87
638.2000	96
638.3000	77
638.4000	43
638.6000	24
638.7000	28
638.8000	25
638.9000	47
639.0000	58
639.1000	25
