Mass spectrum: Ribalinine; LC-ESI-QQQ; MS; [M+H]+
Name: Ribalinine
Class: Alkaloids
Formula: C15H17NO3
Exact mass: 259.3076
SMILES: Cn1c2c(c(=O)c3ccccc31)C[C@@H](O)C(C)(C)O2
InChI: InChI=1S/C15H17NO3/c1-15(2)12(17)8-10-13(18)9-6-4-5-7-11(9)16(3)14(10)19-15/h4-7,12,17H,8H2,1-3H3/t12-/m1/s1
Instrument: ABSciex API3200 LC/MS system
Instrument type: LC-ESI-QQQ
Ms type: MS
Ion mode: POSITIVE
Precursor type: [M+H]+
m/z	relative intensity
133.4000	26
133.5000	93
133.6000	131
133.7000	149
133.8000	144
133.9000	161
134.0000	138
134.1000	148
134.2000	127
134.3000	111
134.4000	94
134.5000	66
134.6000	36
145.5000	23
145.6000	24
145.7000	31
145.8000	37
145.9000	36
146.0000	37
146.1000	31
146.2000	30
146.3000	26
159.5000	44
159.6000	42
159.7000	52
159.8000	40
159.9000	52
160.0000	42
160.1000	61
160.2000	28
160.3000	28
160.4000	33
171.5000	48
171.6000	48
171.7000	52
171.8000	98
171.9000	40
172.0000	31
172.1000	45
172.2000	48
172.3000	43
172.4000	40
175.4000	29
175.5000	93
175.6000	202
175.7000	124
175.8000	124
175.9000	127
176.0000	123
176.1000	127
176.2000	137
176.3000	96
176.4000	95
176.5000	42
176.6000	25
177.1000	22
186.0000	22
187.3000	29
187.4000	355
187.5000	557
187.6000	660
187.7000	597
187.8000	628
187.9000	620
188.0000	551
188.1000	555
188.2000	563
188.3000	478
188.4000	469
188.5000	245
188.6000	152
188.7000	107
188.8000	120
188.9000	122
189.0000	114
189.1000	113
189.2000	87
189.3000	107
189.4000	77
189.5000	41
189.6000	25
199.4000	57
199.5000	92
199.6000	167
199.7000	189
199.8000	200
199.9000	193
200.0000	170
200.1000	168
200.2000	179
200.3000	145
200.4000	129
200.5000	47
200.6000	30
200.7000	24
200.8000	31
200.9000	35
201.0000	25
201.1000	28
201.2000	25
201.3000	26
201.4000	27
213.5000	23
213.6000	45
213.7000	47
213.8000	42
213.9000	37
214.0000	54
214.1000	36
214.2000	49
214.3000	38
214.4000	46
214.5000	22
223.5000	58
223.6000	75
223.7000	81
223.8000	83
223.9000	89
224.0000	103
224.1000	78
224.2000	70
224.3000	71
224.4000	65
224.5000	28
224.6000	24
224.8000	24
224.9000	53
226.5000	26
226.6000	34
226.7000	38
226.8000	32
226.9000	42
227.0000	32
227.1000	28
227.2000	33
227.3000	28
241.4000	293
241.5000	656
241.6000	809
241.7000	786
241.8000	706
241.9000	838
242.0000	748
242.1000	760
242.2000	680
242.3000	661
242.4000	583
242.5000	371
242.6000	267
242.7000	259
242.8000	253
242.9000	253
243.0000	261
243.1000	241
243.2000	227
243.3000	214
243.4000	192
243.5000	100
243.6000	49
243.7000	34
243.8000	30
243.9000	34
244.0000	33
244.1000	32
244.2000	34
244.3000	35
244.4000	22
259.2000	59
259.3000	54
259.4000	354
259.5000	818
259.6000	970
259.7000	950
259.8000	997
259.9000	946
260.0000	956
260.1000	999
260.2000	931
260.3000	967
260.4000	971
260.5000	579
260.6000	479
260.7000	379
260.8000	419
260.9000	412
261.0000	431
261.1000	411
261.2000	386
261.3000	413
261.4000	350
261.5000	240
261.6000	126
261.7000	98
261.8000	75
261.9000	80
262.0000	78
262.1000	94
262.2000	76
262.3000	69
262.4000	129
262.5000	36
518.5000	39
518.6000	79
518.7000	75
518.8000	113
518.9000	103
519.0000	81
519.1000	71
519.2000	84
519.3000	62
519.4000	50
519.5000	23
519.6000	22
519.7000	27
519.8000	28
519.9000	28
520.0000	36
520.1000	29
520.2000	34
520.3000	24
