Mass spectrum: Barbatic acid; LC-ESI-QQQ; MS; [M+H]+
Name: Barbatic acid
Class: Carbohydrates
Formula: C19H20O7
Exact mass: 360.3671
SMILES: COc1cc(C)c(C(=O)Oc2cc(C)c(C(=O)O)c(O)c2C)c(O)c1C
InChI: InChI=1S/C19H20O7/c1-8-7-13(11(4)16(20)14(8)18(22)23)26-19(24)15-9(2)6-12(25-5)10(3)17(15)21/h6-7,20-21H,1-5H3,(H,22,23)
Instrument: ABSciex API3200 LC/MS system
Instrument type: LC-ESI-QQQ
Ms type: MS
Ion mode: POSITIVE
Precursor type: [M+H]+
m/z	relative intensity
100.0000	26
101.0000	39
101.1000	135
101.2000	536
101.3000	749
101.4000	499
101.5000	996
101.6000	999
101.7000	321
101.8000	22
103.5000	42
103.6000	46
107.4000	109
107.5000	77
109.5000	45
109.6000	63
109.7000	60
111.1000	42
111.3000	27
112.2000	33
112.7000	21
113.3000	31
113.7000	27
114.1000	46
114.3000	71
114.4000	47
114.5000	45
114.6000	172
114.7000	113
115.5000	31
116.7000	24
117.3000	36
117.5000	31
118.2000	58
118.4000	68
125.3000	65
125.4000	27
125.5000	79
125.6000	57
126.8000	24
127.1000	36
127.2000	29
127.3000	119
127.4000	111
127.5000	171
127.6000	110
127.7000	94
128.5000	48
129.2000	27
131.4000	55
132.6000	157
133.2000	46
133.3000	31
133.6000	27
133.7000	26
134.8000	34
135.3000	96
135.4000	111
135.5000	162
135.6000	165
135.7000	54
136.3000	31
139.7000	23
142.4000	40
142.5000	39
142.6000	77
142.7000	70
142.8000	41
143.2000	24
143.7000	22
145.3000	114
145.7000	58
147.2000	48
147.7000	36
148.6000	29
149.1000	134
149.2000	135
149.3000	283
149.4000	257
149.5000	302
149.6000	219
149.7000	96
150.3000	24
150.4000	228
150.5000	160
150.6000	158
150.7000	75
153.4000	53
153.6000	36
155.2000	29
155.5000	32
158.5000	27
161.3000	31
161.4000	26
163.3000	50
163.4000	104
163.6000	60
163.7000	70
167.4000	38
167.5000	57
167.7000	28
168.4000	21
170.5000	27
171.4000	58
172.5000	38
172.7000	27
173.4000	25
179.2000	22
179.3000	65
179.4000	113
179.5000	107
179.6000	87
179.7000	22
179.8000	35
180.6000	22
181.2000	34
181.4000	28
181.5000	72
181.7000	32
183.5000	22
183.7000	24
186.6000	30
189.3000	25
193.4000	22
196.7000	21
197.2000	39
197.3000	102
197.4000	105
197.5000	89
197.6000	85
197.7000	98
197.8000	23
198.4000	25
198.6000	43
198.8000	50
199.7000	39
204.4000	30
204.6000	21
205.2000	24
205.3000	119
205.4000	74
205.5000	132
205.6000	79
205.7000	65
205.8000	59
206.4000	31
214.3000	26
214.5000	32
215.3000	35
215.5000	63
215.6000	21
215.7000	57
216.3000	24
217.4000	29
217.5000	89
218.8000	42
219.7000	38
221.2000	23
221.3000	35
222.7000	41
223.3000	67
224.4000	45
224.5000	24
224.7000	28
225.4000	28
225.6000	31
229.4000	26
232.4000	25
233.7000	48
235.3000	33
235.4000	36
241.4000	22
242.6000	28
243.3000	24
243.5000	29
255.7000	22
256.7000	22
257.3000	21
257.4000	38
279.3000	138
279.4000	194
279.5000	141
279.6000	272
279.7000	223
279.8000	73
280.7000	38
285.5000	30
287.4000	36
287.5000	56
289.9000	24
296.4000	55
296.5000	27
296.7000	39
307.6000	25
311.2000	83
311.4000	212
311.5000	372
312.3000	75
312.5000	61
312.6000	65
312.7000	102
312.8000	69
312.9000	26
314.4000	32
315.6000	41
317.3000	25
321.5000	21
327.3000	26
330.6000	30
330.7000	22
347.4000	41
348.7000	47
349.6000	39
355.3000	24
361.2000	22
361.3000	162
361.4000	328
361.5000	397
361.6000	477
361.7000	412
361.8000	240
361.9000	39
362.3000	42
362.5000	91
362.6000	80
362.7000	80
362.8000	26
363.8000	49
371.2000	38
371.3000	28
371.4000	92
371.5000	71
371.6000	39
371.7000	23
371.8000	31
372.3000	48
372.4000	34
372.7000	23
373.3000	32
373.7000	24
374.3000	26
374.7000	27
378.4000	26
378.6000	46
378.7000	46
383.7000	21
384.7000	36
385.6000	26
387.4000	28
389.6000	30
391.4000	45
391.5000	23
391.8000	22
392.7000	30
393.3000	57
393.4000	22
393.5000	27
393.6000	34
393.7000	51
393.8000	28
395.6000	26
397.7000	24
401.4000	25
402.5000	30
406.4000	25
407.6000	21
408.7000	21
410.9000	23
411.5000	21
415.6000	22
419.5000	25
479.5000	26
738.5000	44
