Mass spectrum: Glabranin; LC-ESI-QQQ; MS2; Frag=135.0V CID@5.0; [M+H]+
Name: Glabranin
Class: Flavonoids
Formula: C20H20O4
Exact mass: 324.38
SMILES: CC(C)=CCc1c(O)cc(O)c2c1O[C@H](c1ccccc1)CC2=O
InChI: InChI=1S/C20H20O4/c1-12(2)8-9-14-15(21)10-16(22)19-17(23)11-18(24-20(14)19)13-6-4-3-5-7-13/h3-8,10,18,21-22H,9,11H2,1-2H3/t18-/m0/s1
Instrument: Agilent 6410 Triple Quadrupole LC/MS system
Instrument type: LC-ESI-QQQ
Ms type: MS2
Ion mode: POSITIVE
Precursor type: [M+H]+
m/z	relative intensity
268.5	1
268.6	2
268.7	5
268.8	8
268.9	13
269.0	17
269.1	18
269.2	17
269.3	15
269.4	10
269.5	5
269.6	1
324.3	1
324.4	3
324.5	6
324.6	11
324.7	18
324.8	32
324.9	54
325.0	77
325.1	94
325.2	99
325.3	91
325.4	71
325.5	43
325.6	17
325.7	1
