Mass spectrum: Stictic acid; LC-ESI-QQQ; MS; [M+H]+
Name: Stictic acid
Class: Polycyclic aromatic natural products
Formula: C19H14O9
Exact mass: 386.318
SMILES: COc1cc(C)c2c(c1C=O)Oc1c(c(C)c(O)c3c1C(O)OC3=O)OC2=O
InChI: InChI=1S/C19H14O9/c1-6-4-9(25-3)8(5-20)15-10(6)17(22)27-14-7(2)13(21)11-12(16(14)26-15)19(24)28-18(11)23/h4-5,19,21,24H,1-3H3
Instrument: ABSciex API3200 LC/MS system
Instrument type: LC-ESI-QQQ
Ms type: MS
Ion mode: POSITIVE
Precursor type: [M+H]+
m/z	relative intensity
100.8000	164
100.9000	99
101.0000	618
101.1000	393
101.2000	376
101.3000	523
101.4000	243
101.5000	134
101.6000	87
101.9000	50
102.0000	50
102.1000	29
102.2000	33
102.4000	44
108.7000	31
112.9000	21
113.3000	34
116.8000	21
118.7000	25
118.9000	95
119.0000	244
119.1000	155
119.2000	61
127.2000	24
128.7000	44
128.8000	63
128.9000	29
129.2000	26
129.9000	26
131.2000	28
134.5000	22
134.7000	25
134.8000	21
135.3000	50
136.6000	117
136.7000	278
136.8000	385
136.9000	257
137.0000	301
137.1000	128
137.2000	79
137.3000	61
138.9000	23
140.9000	43
146.8000	26
149.6000	36
152.6000	29
152.7000	21
155.1000	26
155.3000	33
157.9000	34
159.1000	26
162.7000	51
162.9000	32
163.3000	31
166.5000	25
169.0000	24
170.6000	21
172.7000	23
175.5000	23
176.6000	24
186.1000	25
187.5000	24
189.6000	23
190.7000	39
190.8000	24
190.9000	24
191.0000	23
191.2000	23
191.3000	25
191.4000	42
192.0000	21
192.5000	26
192.8000	36
192.9000	21
193.0000	36
193.2000	22
193.3000	35
193.4000	41
193.5000	29
193.7000	31
195.6000	22
197.6000	22
197.8000	113
198.6000	26
198.7000	36
198.9000	21
204.8000	38
207.1000	30
207.3000	28
207.7000	33
207.9000	26
208.5000	25
208.6000	21
216.7000	39
219.4000	21
220.4000	83
220.5000	57
221.0000	112
221.4000	43
222.4000	22
222.5000	57
224.8000	22
224.9000	21
233.2000	27
235.0000	30
238.0000	21
238.7000	45
238.8000	61
239.0000	36
239.2000	21
239.8000	25
240.5000	21
250.8000	23
260.8000	37
261.9000	21
278.6000	31
278.7000	39
278.9000	53
284.7000	27
284.9000	21
285.0000	22
286.4000	27
286.6000	42
286.7000	22
286.9000	23
287.0000	22
287.1000	33
294.6000	33
295.8000	24
295.9000	27
310.9000	28
312.4000	23
312.5000	28
312.6000	21
312.7000	67
312.8000	21
312.9000	24
313.0000	46
313.1000	58
313.2000	41
315.7000	25
317.0000	29
325.2000	21
327.1000	28
327.2000	29
340.7000	24
341.0000	23
341.2000	31
341.8000	24
368.3000	63
368.4000	33
368.5000	78
368.6000	89
368.7000	138
368.8000	155
368.9000	231
369.0000	286
369.1000	221
369.2000	161
369.3000	164
369.4000	34
369.5000	64
369.6000	47
369.7000	71
370.0000	33
370.1000	168
370.2000	93
386.3000	52
386.4000	245
386.5000	416
386.6000	441
386.7000	513
386.8000	999
386.9000	561
387.0000	478
387.1000	324
387.2000	351
387.3000	253
387.4000	145
387.5000	61
387.6000	113
387.7000	100
387.8000	70
387.9000	141
388.0000	62
388.1000	88
388.2000	112
388.3000	75
388.4000	69
388.5000	28
389.0000	23
389.1000	24
390.6000	33
390.7000	75
390.8000	215
391.7000	30
403.5000	80
403.6000	89
403.7000	148
403.8000	62
403.9000	77
404.0000	297
404.1000	101
404.2000	120
404.3000	105
404.4000	57
404.5000	42
404.6000	32
404.7000	36
404.8000	27
404.9000	21
405.0000	49
405.1000	23
405.3000	26
432.4000	30
432.8000	59
433.3000	25
457.1000	26
497.9000	36
498.1000	27
754.4000	28
754.5000	40
754.6000	33
754.7000	29
754.8000	90
754.9000	70
755.0000	32
755.1000	46
755.2000	27
755.4000	57
755.5000	44
755.6000	32
755.7000	23
755.9000	22
756.1000	52
756.8000	23
772.1000	31
772.3000	67
772.4000	117
772.5000	106
772.6000	140
772.7000	160
772.8000	132
772.9000	105
773.0000	69
773.1000	50
773.2000	41
773.3000	42
773.4000	51
773.5000	51
773.6000	26
773.7000	79
773.8000	65
773.9000	32
774.0000	67
774.1000	21
774.8000	25
789.2000	54
789.3000	121
789.4000	132
789.5000	86
789.6000	114
789.7000	90
789.8000	103
789.9000	99
790.0000	65
790.1000	65
790.2000	61
790.3000	53
790.4000	72
790.5000	32
790.6000	28
790.7000	35
790.8000	35
790.9000	78
791.0000	60
791.1000	21
791.2000	48
791.3000	32
1158.1000	31
1158.4000	33
1158.5000	22
1158.7000	24
1158.9000	42
1160.6000	26
1175.6000	33
1175.8000	43
