Mass spectrum: epicatechin; LC-ESI-QQQ; MS2; Frag=135.0V CID@10.0; [M+H]+
Name: EpCt-pl
Name: ent-Epicatechin
Name: Epicatechol
Name: (+)-3,3',4',5,7-Pentahydroxyflavan
Name: (2S,3S)-(+)-Epicatechin / EpCt-mi
Name: (-)-3,3',4',5,7-Pentahydroxyflavan
Name: (2R,3R)-(-)-Epicatechin
Name: epicatechin
Class: Flavonoids
Formula: C15H14O6
Exact mass: 290.2752
SMILES: C1C(C(OC2=CC(=CC(=C21)O)O)C3=CC(=C(C=C3)O)O)O
InChI: InChI=1S/C15H14O6/c16-8-4-11(18)9-6-13(20)15(21-14(9)5-8)7-1-2-10(17)12(19)3-7/h1-5,13,15-20H,6H2
Instrument: Agilent 6410 Triple Quadrupole LC/MS system
Instrument type: LC-ESI-QQQ
Ms type: MS2
Ion mode: POSITIVE
Precursor type: [M+H]+
m/z	relative intensity
122.2	0
122.3	1
122.4	4
122.5	9
122.6	15
122.7	21
122.8	28
122.9	35
123.0	40
123.1	42
123.2	40
123.3	34
123.4	23
123.5	12
123.6	3
138.2	0
138.3	3
138.4	7
138.5	15
138.6	27
138.7	44
138.8	66
138.9	86
139.0	99
139.1	99
139.2	89
139.3	71
139.4	47
139.5	22
139.6	4
146.4	1
146.5	2
146.6	5
146.7	7
146.8	10
146.9	11
147.0	13
147.1	13
147.2	12
147.3	10
147.4	5
147.5	2
164.3	0
164.4	2
164.5	4
164.6	7
164.7	11
164.8	16
164.9	21
165.0	25
165.1	26
165.2	25
165.3	22
165.4	18
165.5	11
165.6	4
206.6	1
206.7	3
206.8	4
206.9	6
207.0	7
207.1	6
207.2	5
207.3	4
207.4	2
290.7	3
290.8	4
290.9	6
291.0	9
291.1	12
291.2	12
291.3	10
291.4	6
291.5	3
