Mass spectrum: Lysergol; LC-ESI-QQQ; MS; [M+H]+
Name: Lysergol
Class: Alkaloids
Formula: C16H18N2O
Exact mass: 254.3347
SMILES: CN1C[C@H](CO)C=C2c3cccc4[nH]cc(c34)C[C@H]21
InChI: InChI=1S/C16H18N2O/c1-18-8-10(9-19)5-13-12-3-2-4-14-16(12)11(7-17-14)6-15(13)18/h2-5,7,10,15,17,19H,6,8-9H2,1H3/t10-,15-/m1/s1
Instrument: ABSciex API3200 LC/MS system
Instrument type: LC-ESI-QQQ
Ms type: MS
Ion mode: POSITIVE
Precursor type: [M+H]+
m/z	relative intensity
167.4000	29
167.5000	43
167.6000	45
167.7000	46
167.8000	44
167.9000	75
168.0000	41
168.1000	45
168.2000	40
168.3000	33
168.4000	32
181.5000	30
181.6000	49
181.7000	32
181.8000	43
181.9000	47
182.0000	35
182.1000	37
182.2000	31
182.3000	26
182.4000	24
192.1000	21
192.4000	21
193.4000	21
193.5000	34
193.6000	52
193.7000	55
193.8000	56
193.9000	64
194.0000	59
194.1000	59
194.2000	58
194.3000	52
194.4000	53
194.5000	36
196.4000	33
196.5000	77
196.6000	85
196.7000	103
196.8000	106
196.9000	99
197.0000	98
197.1000	90
197.2000	87
197.3000	79
197.4000	78
197.5000	47
209.7000	27
209.8000	24
209.9000	29
210.0000	28
210.1000	33
210.2000	27
212.1000	21
212.2000	24
212.3000	23
222.7000	24
222.8000	25
222.9000	27
223.0000	26
223.1000	28
223.2000	23
223.3000	22
223.4000	32
223.5000	41
223.6000	51
223.7000	74
223.8000	69
223.9000	70
224.0000	73
224.1000	72
224.2000	64
224.3000	59
224.4000	60
224.5000	32
238.8000	22
239.4000	65
239.5000	157
239.6000	186
239.7000	222
239.8000	215
239.9000	224
240.0000	236
240.1000	232
240.2000	240
240.3000	212
240.4000	199
240.5000	110
240.6000	56
240.7000	49
240.8000	45
240.9000	44
241.0000	44
241.1000	50
241.2000	37
241.3000	39
241.4000	28
254.2000	33
254.3000	52
254.4000	479
254.5000	864
254.6000	957
254.7000	999
254.8000	996
254.9000	981
255.0000	965
255.1000	925
255.2000	929
255.3000	878
255.4000	835
255.5000	619
255.6000	434
255.7000	381
255.8000	345
255.9000	345
256.0000	348
256.1000	362
256.2000	363
256.3000	330
256.4000	299
256.5000	179
256.6000	86
256.7000	62
256.8000	49
256.9000	50
257.0000	52
257.1000	49
257.2000	44
257.3000	45
257.4000	44
257.5000	23
272.8000	22
272.9000	22
273.0000	21
273.1000	23
273.2000	22
273.3000	22
