Mass spectrum: Lasiocarpine; LC-ESI-QQQ; MS2; Frag=135.0V CID@5.0; [M+H]+
Name: Lasiocarpine
Class: Alkaloids
Formula: C21H33NO7
Exact mass: 411.4997
SMILES: C/C=C(/C)C(=O)O[C@H]1CCN2CC=C(COC(=O)C(O)(C(C)OC)C(C)(C)O)[C@H]12
InChI: InChI=1S/C21H33NO7/c1-7-13(2)18(23)29-16-9-11-22-10-8-15(17(16)22)12-28-19(24)21(26,14(3)27-6)20(4,5)25/h7-8,14,16-17,25-26H,9-12H2,1-6H3/b13-7-/t14?,16-,17+,21?/m0/s1
Instrument: Agilent 6410 Triple Quadrupole LC/MS system
Instrument type: LC-ESI-QQQ
Ms type: MS2
Ion mode: POSITIVE
Precursor type: [M+H]+
m/z	relative intensity
219.8	2
219.9	3
220.0	4
220.1	5
220.2	4
220.3	4
220.4	3
220.5	2
411.3	0
411.4	1
411.5	4
411.6	8
411.7	15
411.8	26
411.9	44
412.0	66
412.1	86
412.2	98
412.3	99
412.4	90
412.5	69
412.6	41
412.7	15
412.8	0
