Mass spectrum: Vanilloside; LC-ESI-QQQ; MS2; Frag=135.0V CID@10.0; [M+Na]+
Name: Vanilloside
Class: Carbohydrates
Formula: C14H18O8
Exact mass: 314.2948
SMILES: COc1cc(C=O)ccc1O[C@@H]1O[C@H](CO)[C@H](O)[C@H](O)[C@H]1O
InChI: InChI=1S/C14H18O8/c1-20-9-4-7(5-15)2-3-8(9)21-14-13(19)12(18)11(17)10(6-16)22-14/h2-5,10-14,16-19H,6H2,1H3/t10-,11+,12+,13-,14-/m1/s1
Instrument: Agilent 6410 Triple Quadrupole LC/MS system
Instrument type: LC-ESI-QQQ
Ms type: MS2
Ion mode: POSITIVE
Precursor type: [M+Na]+
m/z	relative intensity
336.3	1
336.4	3
336.5	7
336.6	14
336.7	28
336.8	50
336.9	75
337.0	93
337.1	99
337.2	98
337.3	87
337.4	64
337.5	31
337.6	5
337.7	0
