Mass spectrum: Vidarabine phosphate; LC-ESI-QQQ; MS; [M+H]+
Name: Vidarabine phosphate
Class: Carbohydrates
Formula: C10H13N5NaO7P
Exact mass: 369.208
SMILES: Nc1ncnc2c1ncn2[C@H]1O[C@@H](COP(=O)([O-])O)[C@H](O)[C@H]1O.[Na+]
InChI: InChI=1S/C10H14N5O7P.Na/c11-8-5-9(13-2-12-8)15(3-14-5)10-7(17)6(16)4(22-10)1-21-23(18,19)20;/h2-4,6-7,10,16-17H,1H2,(H2,11,12,13)(H2,18,19,20);/q;+1/p-1/t4-,6-,7+,10-;/m0./s1
Instrument: ABSciex API3200 LC/MS system
Instrument type: LC-ESI-QQQ
Ms type: MS
Ion mode: POSITIVE
Precursor type: [M+H]+
m/z	relative intensity
100.1000	26
100.2000	30
100.3000	64
100.4000	105
100.5000	168
100.6000	132
100.7000	140
100.8000	131
100.9000	119
101.0000	167
101.1000	107
101.2000	54
101.3000	91
101.4000	33
114.4000	22
123.9000	25
135.4000	107
135.5000	396
135.6000	727
135.7000	738
135.8000	723
135.9000	795
136.0000	719
136.1000	637
136.2000	609
136.3000	493
136.4000	457
136.5000	186
136.6000	61
136.7000	54
136.8000	41
137.0000	58
137.1000	52
137.2000	53
137.3000	32
137.4000	65
137.5000	25
178.4000	28
178.5000	27
178.6000	57
178.7000	45
178.8000	99
179.0000	29
267.5000	48
267.6000	68
267.7000	93
267.8000	57
267.9000	40
268.0000	80
268.1000	57
268.2000	83
268.3000	99
268.4000	36
268.5000	25
332.1000	39
347.2000	42
347.3000	210
347.4000	557
347.5000	925
347.6000	936
347.7000	888
347.8000	929
347.9000	999
348.0000	933
348.1000	937
348.2000	719
348.3000	728
348.4000	361
348.5000	220
348.6000	161
348.7000	145
348.8000	168
348.9000	137
349.0000	156
349.1000	153
349.2000	123
349.3000	125
349.4000	64
349.5000	47
349.6000	31
349.7000	22
349.9000	39
350.2000	27
425.3000	41
425.4000	136
425.5000	192
425.6000	204
425.7000	176
425.8000	158
425.9000	107
426.0000	170
426.1000	169
426.2000	128
426.3000	99
426.4000	35
426.6000	23
426.7000	22
426.8000	22
426.9000	26
427.0000	22
694.4000	41
694.5000	52
694.6000	33
694.7000	42
694.8000	71
694.9000	44
695.0000	48
695.1000	28
695.2000	26
695.7000	21
1041.5000	25
