Mass spectrum: harmine; LC-ESI-QQQ; MS2; Frag=135.0V CID@25.0; [M+H]+
Name: harmine
Class: Alkaloids
Formula: C13H12N2O
Exact mass: 212.2534
SMILES: COc1ccc2c(c1)[nH]c1c(C)nccc12
InChI: InChI=1S/C13H12N2O/c1-8-13-11(5-6-14-8)10-4-3-9(16-2)7-12(10)15-13/h3-7,15H,1-2H3
Instrument: Agilent 6410 Triple Quadrupole LC/MS system
Instrument type: LC-ESI-QQQ
Ms type: MS2
Ion mode: POSITIVE
Precursor type: [M+H]+
m/z	relative intensity
168.6	2
168.7	3
168.8	4
168.9	6
169.0	7
169.1	8
169.2	8
169.3	8
169.4	9
169.5	12
169.6	20
169.7	34
169.8	54
169.9	75
170.0	92
170.1	99
170.2	97
170.3	83
170.4	60
170.5	31
170.6	8
170.7	0
197.2	0
197.3	1
197.4	4
197.5	9
197.6	17
197.7	28
197.8	42
197.9	57
198.0	68
198.1	75
198.2	76
198.3	68
198.4	51
198.5	28
198.6	9
198.7	0
212.4	1
212.5	3
212.6	6
212.7	9
212.8	14
212.9	20
213.0	25
213.1	29
213.2	29
213.3	26
213.4	21
213.5	13
213.6	5
213.7	0
