Mass spectrum: 14-Benzoyltalatizamine; LC-ESI-QQQ; MS2; Frag=135.0V CID@15.0; [M+H]+
Name: 14-Benzoyltalatizamine
Class: Alkaloids
Formula: C31H43NO6
Exact mass: 525.6915
SMILES: CCN1C[C@]2(COC)CC[C@H](OC)[C@@]34C5C[C@@H]6[C@@H](OC)C[C@@](O)(C5[C@H]6OC(=O)c5ccccc5)[C@@H](CC23)C14
InChI: InChI=1S/C31H43NO6/c1-5-32-16-29(17-35-2)12-11-24(37-4)31-20-13-19-22(36-3)15-30(34,21(27(31)32)14-23(29)31)25(20)26(19)38-28(33)18-9-7-6-8-10-18/h6-10,19-27,34H,5,11-17H2,1-4H3/t19-,20?,21+,22+,23?,24+,25?,26+,27?,29+,30+,31-/m1/s1
Instrument: Agilent 6410 Triple Quadrupole LC/MS system
Instrument type: LC-ESI-QQQ
Ms type: MS2
Ion mode: POSITIVE
Precursor type: [M+H]+
m/z	relative intensity
525.3	0
525.4	1
525.5	4
525.6	8
525.7	13
525.8	23
525.9	39
526.0	59
526.1	78
526.2	92
526.3	99
526.4	97
526.5	82
526.6	56
526.7	28
526.8	7
526.9	0
