Mass spectrum: Cinchonine; LC-ESI-QQQ; MS2; Frag=135.0V CID@15.0; [M+H]+
Name: (1R)((5R)-5-vinylquinuclidin-2-yl)-4-quinolylmethan-1-ol
Name: Cinchonan-9-ol
Name: alpha-4-Quinolyl(5-vinyl-1-azabicyclo(2.2.2)oct-2-yl)methanol
Name: Cinchonine
Class: Alkaloids
Formula: C19H22N2O
Exact mass: 294.4
SMILES: C=C[C@H]1CN2CC[C@H]1C[C@@H]2[C@H](C3=CC=NC4=CC=CC=C34)O
InChI: InChI=1S/C19H22N2O/c1-2-13-12-21-10-8-14(13)11-18(21)19(22)16-7-9-20-17-6-4-3-5-15(16)17/h2-7,9,13-14,18-19,22H,1,8,10-12H2/t13-,14-,18+,19-/m0/s1
Instrument: Agilent 6410 Triple Quadrupole LC/MS system
Instrument type: LC-ESI-QQQ
Ms type: MS2
Ion mode: POSITIVE
Precursor type: [M+H]+
m/z	relative intensity
276.7	2
276.8	3
276.9	5
277.0	6
277.1	7
277.2	7
277.3	5
277.4	4
277.5	2
294.2	0
294.3	1
294.4	4
294.5	8
294.6	12
294.7	19
294.8	31
294.9	51
295.0	74
295.1	92
295.2	99
295.3	96
295.4	80
295.5	55
295.6	26
295.7	5
295.8	0
