Mass spectrum: Galantamine; LC-ESI-QQQ; MS2; Frag=135.0V CID@5.0; [M+H]+
Name: Galantamine
Class: Benzopyranoids
Formula: C17H21NO3
Exact mass: 287.3618
SMILES: COc1ccc2c3c1OC1CC(O)C=C[C@@]31CCN(C)C2
InChI: InChI=1S/C17H21NO3/c1-18-8-7-17-6-5-12(19)9-14(17)21-16-13(20-2)4-3-11(10-18)15(16)17/h3-6,12,14,19H,7-10H2,1-2H3/t12?,14?,17-/m0/s1
Instrument: Agilent 6410 Triple Quadrupole LC/MS system
Instrument type: LC-ESI-QQQ
Ms type: MS2
Ion mode: POSITIVE
Precursor type: [M+H]+
m/z	relative intensity
287.3	0
287.4	3
287.5	6
287.6	11
287.7	19
287.8	34
287.9	55
288.0	77
288.1	94
288.2	99
288.3	93
288.4	75
288.5	48
288.6	21
288.7	2
