Mass spectrum: Roemerine; LC-ESI-QQQ; MS2; Frag=135.0V CID@15.0; [M+H]+
Name: Remerin
Name: Aporheine
Name: Roemerine
Class: Alkaloids
Formula: C18H17NO2
Exact mass: 279.3417
SMILES: CN1CCc2cc3c(c4c2[C@H]1Cc1ccccc1-4)OCO3
InChI: InChI=1S/C18H17NO2/c1-19-7-6-12-9-15-18(21-10-20-15)17-13-5-3-2-4-11(13)8-14(19)16(12)17/h2-5,9,14H,6-8,10H2,1H3/t14-/m1/s1
Instrument: Agilent 6410 Triple Quadrupole LC/MS system
Instrument type: LC-ESI-QQQ
Ms type: MS2
Ion mode: POSITIVE
Precursor type: [M+H]+
m/z	relative intensity
218.6	1
218.7	3
218.8	5
218.9	7
219.0	10
219.1	11
219.2	11
219.3	10
219.4	7
219.5	4
248.2	0
248.3	1
248.4	4
248.5	8
248.6	14
248.7	24
248.8	42
248.9	66
249.0	88
249.1	99
249.2	99
249.3	88
249.4	67
249.5	39
249.6	13
249.7	0
279.7	1
279.8	2
279.9	4
280.0	6
280.1	8
280.2	9
280.3	8
280.4	6
280.5	4
