Mass spectrum: Reserpinine; LC-ESI-QQQ; MS2; Frag=135.0V CID@5.0; [M+H]+
Name: Reserpinine
Class: Alkaloids
Formula: C22H26N2O4
Exact mass: 382.4635
SMILES: COC(=O)C1=CO[C@@H](C)[C@@H]2CN3CCc4c([nH]c5cc(OC)ccc45)[C@@H]3C[C@H]12
InChI: InChI=1S/C22H26N2O4/c1-12-17-10-24-7-6-15-14-5-4-13(26-2)8-19(14)23-21(15)20(24)9-16(17)18(11-28-12)22(25)27-3/h4-5,8,11-12,16-17,20,23H,6-7,9-10H2,1-3H3/t12-,16-,17-,20-/m0/s1
Instrument: Agilent 6410 Triple Quadrupole LC/MS system
Instrument type: LC-ESI-QQQ
Ms type: MS2
Ion mode: POSITIVE
Precursor type: [M+H]+
m/z	relative intensity
382.4	1
382.5	3
382.6	7
382.7	13
382.8	26
382.9	46
383.0	69
383.1	89
383.2	99
383.3	99
383.4	86
383.5	61
383.6	32
383.7	8
383.8	0
