Mass spectrum: (S)-Luteanine; LC-ESI-QQQ; MS2; Frag=135.0V CID@15.0; [M+H]+
Name: Artabotrine
Name: Artabotrin
Name: Luteanine
Name: Luteanin
Name: Uzokoridin
Name: (S)-Luteanine
Class: Alkaloids
Formula: C20H23NO4
Exact mass: 341.4106
SMILES: COc1ccc2c(c1O)-c1c(OC)c(OC)cc3c1[C@H](C2)N(C)CC3
InChI: InChI=1S/C20H23NO4/c1-21-8-7-12-10-15(24-3)20(25-4)18-16(12)13(21)9-11-5-6-14(23-2)19(22)17(11)18/h5-6,10,13,22H,7-9H2,1-4H3/t13-/m0/s1
Instrument: Agilent 6410 Triple Quadrupole LC/MS system
Instrument type: LC-ESI-QQQ
Ms type: MS2
Ion mode: POSITIVE
Precursor type: [M+H]+
m/z	relative intensity
247.6	4
247.7	6
247.8	10
247.9	14
248.0	18
248.1	19
248.2	17
248.3	14
248.4	9
248.5	4
250.7	2
250.8	4
250.9	6
251.0	8
251.1	8
251.2	8
251.3	6
251.4	4
251.5	2
263.6	2
263.7	3
263.8	5
263.9	7
264.0	9
264.1	9
264.2	9
264.3	7
264.4	5
264.5	2
278.2	1
278.3	3
278.4	5
278.5	8
278.6	13
278.7	25
278.8	44
278.9	69
279.0	90
279.1	99
279.2	95
279.3	80
279.4	57
279.5	32
279.6	12
279.8	5
279.9	11
280.0	16
280.1	19
280.2	19
280.3	16
280.4	12
280.5	6
280.6	2
295.5	2
295.6	3
295.7	5
295.8	8
295.9	13
296.0	16
296.1	18
296.2	18
296.3	15
296.4	10
296.5	5
296.6	1
310.4	2
310.5	3
310.6	5
310.7	9
310.8	17
310.9	28
311.0	39
311.1	44
311.2	44
311.3	37
311.4	26
311.5	14
311.6	4
341.5	2
341.6	3
341.7	5
341.8	9
341.9	16
342.0	23
342.1	28
342.2	30
342.3	27
342.4	21
342.5	13
342.6	5
342.7	0
