Mass spectrum: (3R,8aS)-Cyclo(phenylalanylprolyl); LC-ESI-QQQ; MS2; Frag=135.0V CID@15.0; [M+H]+
Name: (3R,8aS)-Cyclo(phenylalanylprolyl)
Class: Aminoacids and peptides
Formula: C14H16N2O2
Exact mass: 244.2958
SMILES: O=C1[C@@H](Cc2ccccc2)N=C(O)[C@@H]2CCCN12
InChI: InChI=1S/C14H16N2O2/c17-13-12-7-4-8-16(12)14(18)11(15-13)9-10-5-2-1-3-6-10/h1-3,5-6,11-12H,4,7-9H2,(H,15,17)/t11-,12+/m1/s1
Instrument: Agilent 6410 Triple Quadrupole LC/MS system
Instrument type: LC-ESI-QQQ
Ms type: MS2
Ion mode: POSITIVE
Precursor type: [M+H]+
m/z	relative intensity
69.2	1
69.3	3
69.4	7
69.5	10
69.6	17
69.7	31
69.8	54
69.9	78
70.0	94
70.1	99
70.2	97
70.3	88
70.4	68
70.5	39
70.6	13
70.7	0
97.7	1
97.8	3
97.9	5
98.0	6
98.1	6
98.2	5
98.3	4
98.4	2
119.2	0
119.3	2
119.4	5
119.5	7
119.6	11
119.7	18
119.8	32
119.9	48
120.0	61
120.1	68
120.2	67
120.3	59
120.4	45
120.5	26
120.6	10
120.7	0
153.5	4
153.6	5
153.7	9
153.8	16
153.9	25
154.0	31
154.1	34
154.2	35
154.3	32
154.4	25
154.5	15
154.6	5
154.7	0
171.6	2
171.7	4
171.8	7
171.9	12
172.0	16
172.1	18
172.2	19
172.3	18
172.4	14
172.5	9
172.6	3
216.6	1
216.7	3
216.8	6
216.9	10
217.0	15
217.1	17
217.2	18
217.3	16
217.4	13
217.5	9
217.6	4
244.5	2
244.6	3
244.7	6
244.8	13
244.9	23
245.0	33
245.1	38
245.2	38
245.3	33
245.4	25
245.5	15
245.6	5
245.7	0
