Mass spectrum: Confoline; LC-ESI-QQQ; MS; [M+H]+
Name: Confoline
Class: Alkaloids
Formula: C17H21NO5
Exact mass: 319.3606
SMILES: COc1ccc(C(=O)OC2C[C@@H]3CC[C@H](C2)N3C=O)cc1OC
InChI: InChI=1S/C17H21NO5/c1-21-15-6-3-11(7-16(15)22-2)17(20)23-14-8-12-4-5-13(9-14)18(12)10-19/h3,6-7,10,12-14H,4-5,8-9H2,1-2H3/t12-,13+,14?
Instrument: ABSciex API3200 LC/MS system
Instrument type: LC-ESI-QQQ
Ms type: MS
Ion mode: POSITIVE
Precursor type: [M+H]+
m/z	relative intensity
109.5000	28
109.6000	60
109.7000	90
109.8000	89
109.9000	79
110.0000	84
110.1000	80
110.2000	71
110.3000	58
110.4000	61
110.5000	39
137.4000	145
137.5000	726
137.6000	641
137.7000	943
137.8000	999
137.9000	763
138.0000	768
138.1000	724
138.2000	700
138.3000	652
138.4000	620
138.5000	401
138.6000	194
138.7000	142
138.8000	191
138.9000	164
139.0000	152
139.1000	180
139.2000	143
139.3000	110
139.4000	118
139.5000	70
182.3000	23
182.4000	79
182.5000	142
182.6000	148
182.7000	167
182.8000	163
182.9000	136
183.0000	154
183.1000	127
183.2000	144
183.3000	95
183.4000	80
291.5000	38
291.6000	68
291.7000	70
291.8000	71
291.9000	97
292.0000	103
292.1000	100
292.2000	75
292.3000	63
292.4000	64
292.5000	29
292.8000	22
319.3000	120
319.4000	453
319.5000	784
319.6000	944
319.7000	976
319.8000	956
319.9000	972
320.0000	985
320.1000	958
320.2000	941
320.3000	870
320.4000	795
320.5000	498
320.6000	430
320.7000	416
320.8000	387
320.9000	351
321.0000	361
321.1000	327
321.2000	370
321.3000	310
321.4000	263
321.5000	118
321.6000	84
321.7000	84
321.8000	63
321.9000	67
322.0000	46
322.1000	65
322.2000	58
322.3000	39
322.4000	26
322.5000	22
360.4000	38
360.5000	82
360.6000	131
360.7000	124
360.8000	129
360.9000	144
361.0000	141
361.1000	150
361.2000	132
361.3000	95
361.4000	87
361.5000	45
361.6000	39
361.7000	38
361.8000	23
361.9000	31
362.0000	28
362.1000	31
362.2000	30
362.3000	26
362.4000	24
638.4000	48
638.5000	126
638.6000	245
638.7000	239
638.8000	243
638.9000	271
639.0000	245
639.1000	281
639.2000	365
639.3000	247
639.4000	152
639.5000	73
639.6000	102
639.7000	103
639.8000	110
639.9000	104
640.0000	110
640.1000	116
640.2000	102
640.3000	93
640.4000	57
640.5000	23
640.6000	40
640.7000	25
640.8000	28
640.9000	33
641.0000	29
641.1000	27
641.2000	27
641.3000	32
