Mass spectrum: Ferocaulicin; LC-ESI-QQQ; MS; [M+H]+
Name: Ferocaulicin
Class: Benzopyranoids
Formula: C26H30O6
Exact mass: 438.5254
SMILES: CC(=O)O[C@@H]1CC[C@@]2(C)[C@H](C(=O)C=C(C)[C@@H]2COc2ccc3ccc(=O)oc3c2)C1(C)C
InChI: InChI=1S/C26H30O6/c1-15-12-20(28)24-25(3,4)22(31-16(2)27)10-11-26(24,5)19(15)14-30-18-8-6-17-7-9-23(29)32-21(17)13-18/h6-9,12-13,19,22,24H,10-11,14H2,1-5H3/t19-,22+,24+,26+/m0/s1
Instrument: ABSciex API3200 LC/MS system
Instrument type: LC-ESI-QQQ
Ms type: MS
Ion mode: POSITIVE
Precursor type: [M+H]+
m/z	relative intensity
101.1000	46
101.2000	29
110.9000	45
111.0000	43
111.2000	27
111.3000	28
118.8000	26
119.1000	29
119.2000	31
119.3000	31
120.5000	33
120.6000	22
120.7000	22
120.8000	22
121.2000	24
121.3000	32
121.4000	30
122.6000	24
122.7000	22
122.8000	38
122.9000	27
123.2000	23
132.6000	27
132.7000	32
132.8000	43
133.1000	23
133.2000	21
133.3000	32
133.4000	22
134.4000	21
134.5000	29
134.6000	58
134.7000	102
134.8000	37
134.9000	60
135.0000	47
135.1000	43
135.2000	54
135.3000	57
135.4000	45
146.5000	23
146.6000	32
146.7000	36
146.8000	34
146.9000	27
147.0000	25
147.1000	23
148.4000	28
149.2000	27
160.7000	37
161.0000	28
162.4000	32
162.5000	45
162.6000	64
162.7000	69
162.8000	49
162.9000	57
163.0000	62
163.1000	45
163.2000	35
163.3000	24
163.4000	24
172.7000	71
172.8000	56
174.6000	38
174.8000	37
175.0000	37
175.1000	31
175.4000	27
188.5000	48
188.6000	105
188.7000	77
188.8000	106
188.9000	93
189.0000	91
189.1000	99
189.2000	72
189.3000	97
189.4000	101
189.5000	67
189.6000	22
189.9000	23
190.0000	22
198.6000	46
198.7000	54
198.8000	79
198.9000	76
199.0000	66
199.1000	50
199.2000	79
199.3000	60
199.4000	106
199.5000	38
200.5000	23
216.4000	68
216.5000	241
216.6000	377
216.7000	463
216.8000	536
216.9000	505
217.0000	454
217.1000	456
217.2000	425
217.3000	432
217.4000	431
217.5000	322
217.6000	97
217.7000	73
217.8000	85
217.9000	87
218.0000	89
218.1000	61
218.2000	96
218.3000	64
218.4000	74
218.5000	67
218.6000	21
282.6000	23
282.9000	23
360.6000	32
360.7000	63
360.8000	46
361.0000	26
361.1000	30
361.2000	35
361.3000	33
361.4000	28
378.3000	120
378.4000	433
378.5000	742
378.6000	803
378.7000	871
378.8000	926
378.9000	999
379.0000	935
379.1000	960
379.2000	895
379.3000	785
379.4000	747
379.5000	334
379.6000	224
379.7000	321
379.8000	308
379.9000	277
380.0000	271
380.1000	300
380.2000	293
380.3000	243
380.4000	178
380.5000	95
380.6000	47
380.7000	51
380.8000	27
380.9000	43
381.0000	82
381.1000	62
381.2000	27
381.3000	25
419.8000	26
420.0000	22
438.4000	94
438.5000	196
438.6000	306
438.7000	342
438.8000	296
438.9000	296
439.0000	290
439.1000	343
439.2000	402
439.3000	276
439.4000	186
439.5000	123
439.6000	140
439.7000	105
439.8000	101
439.9000	154
440.0000	110
440.1000	89
440.2000	83
440.3000	55
440.4000	67
440.5000	41
440.6000	29
440.9000	23
441.0000	26
455.4000	26
455.5000	57
455.6000	92
455.7000	129
455.8000	86
455.9000	131
456.0000	99
456.1000	88
456.2000	103
456.3000	69
456.4000	76
456.5000	37
456.6000	27
456.7000	28
456.8000	32
457.0000	46
457.1000	28
457.2000	26
457.4000	32
876.4000	47
876.5000	45
876.6000	38
876.7000	40
876.8000	73
876.9000	42
877.0000	61
877.1000	59
877.2000	47
877.3000	56
877.4000	45
877.5000	43
877.6000	38
877.7000	45
877.8000	24
877.9000	47
878.0000	29
878.1000	47
878.2000	31
878.3000	31
878.8000	29
878.9000	22
