Mass spectrum: Selinidin; LC-ESI-QQQ; MS2; Frag=135.0V CID@25.0; [M+H]+
Name: Selinidin
Class: Benzopyranoids
Formula: C19H20O5
Exact mass: 328.3683
SMILES: C/C=C(\C)C(=O)OC1Cc2c(ccc3ccc(=O)oc23)OC1(C)C
InChI: InChI=1S/C19H20O5/c1-5-11(2)18(21)22-15-10-13-14(24-19(15,3)4)8-6-12-7-9-16(20)23-17(12)13/h5-9,15H,10H2,1-4H3/b11-5+
Instrument: Agilent 6410 Triple Quadrupole LC/MS system
Instrument type: LC-ESI-QQQ
Ms type: MS2
Ion mode: POSITIVE
Precursor type: [M+H]+
m/z	relative intensity
158.4	1
158.5	2
158.6	4
158.7	8
158.8	12
158.9	17
159.0	19
159.1	19
159.2	17
159.3	13
159.4	8
159.5	3
174.5	1
174.6	3
174.7	5
174.8	7
174.9	10
175.0	12
175.1	13
175.2	12
175.3	10
175.4	6
175.5	2
186.2	1
186.3	2
186.4	6
186.5	10
186.6	18
186.7	31
186.8	50
186.9	72
187.0	91
187.1	99
187.2	94
187.3	75
187.4	48
187.5	21
187.6	3
228.6	1
228.7	2
228.8	4
228.9	7
229.0	9
229.1	11
229.2	10
229.3	9
229.4	6
229.5	2
