Mass spectrum: Dihydrolycorine; LC-ESI-QQQ; MS2; Frag=135.0V CID@25.0; [M+H]+
Name: Dihydrolycorine
Class: Alkaloids
Formula: C16H19NO4
Exact mass: 289.3341
SMILES: O[C@H]1CC2CCN3Cc4cc5c(cc4[C@H]([C@@H]1O)[C@@H]23)OCO5
InChI: InChI=1S/C16H19NO4/c18-11-3-8-1-2-17-6-9-4-12-13(21-7-20-12)5-10(9)14(15(8)17)16(11)19/h4-5,8,11,14-16,18-19H,1-3,6-7H2/t8?,11-,14-,15+,16+/m0/s1
Instrument: Agilent 6410 Triple Quadrupole LC/MS system
Instrument type: LC-ESI-QQQ
Ms type: MS2
Ion mode: POSITIVE
Precursor type: [M+H]+
m/z	relative intensity
67.5	1
67.6	2
67.7	5
67.8	9
67.9	12
68.0	14
68.1	15
68.2	13
68.3	10
68.4	6
68.5	2
81.6	2
81.7	3
81.8	5
81.9	8
82.0	10
82.1	11
82.2	10
82.3	8
82.4	5
82.5	2
111.4	1
111.5	2
111.6	4
111.7	6
111.8	10
111.9	15
112.0	19
112.1	20
112.2	19
112.3	16
112.4	11
112.5	5
112.6	1
135.7	2
135.8	4
135.9	6
136.0	7
136.1	8
136.2	7
136.3	6
136.4	4
136.5	2
148.6	2
148.7	3
148.8	5
148.9	6
149.0	8
149.1	8
149.2	7
149.3	5
149.4	2
213.7	1
213.8	2
213.9	5
214.0	6
214.1	7
214.2	7
214.3	5
214.4	3
253.7	2
253.8	4
253.9	6
254.0	7
254.1	8
254.2	8
254.3	6
254.4	4
254.5	2
271.4	1
271.5	3
271.6	5
271.7	8
271.8	14
271.9	21
272.0	29
272.1	34
272.2	36
272.3	32
272.4	24
272.5	14
272.6	5
272.7	0
289.2	0
289.3	1
289.4	4
289.5	8
289.6	13
289.7	23
289.8	39
289.9	59
290.0	80
290.1	94
290.2	99
290.3	93
290.4	74
290.5	46
290.6	19
290.7	1
