Mass spectrum: Ajugalide E; LC-ESI-QQQ; MS2; Frag=135.0V CID@10.0; [M+HCOO]-
Name: Ajugalide E
Class: Terpenoids
Formula: C31H46O9
Exact mass: 562.7069
SMILES: CC(=O)O[C@H](CC1C(C)OC(=O)C1C)[C@](C)(O)C1CC[C@@]2(O)C3=CC(=O)[C@@H]4C[C@@H](O)C(O)C[C@]4(C)C3CC[C@]12C
InChI: InChI=1S/C31H46O9/c1-15-18(16(2)39-27(15)36)11-26(40-17(3)32)30(6,37)25-8-10-31(38)20-12-22(33)21-13-23(34)24(35)14-28(21,4)19(20)7-9-29(25,31)5/h12,15-16,18-19,21,23-26,34-35,37-38H,7-11,13-14H2,1-6H3/t15?,16?,18?,19?,21-,23+,24?,25?,26+,28+,29+,30+,31+/m0/s1
Instrument: Agilent 6410 Triple Quadrupole LC/MS system
Instrument type: LC-ESI-QQQ
Ms type: MS2
Ion mode: NEGATIVE
Precursor type: [M+HCOO]-
m/z	relative intensity
500.3	0
500.4	2
500.5	4
500.6	7
500.7	10
500.8	14
500.9	18
501.0	21
501.1	22
501.2	26
501.3	34
501.4	40
501.5	33
501.6	17
501.7	2
560.4	0
560.5	2
560.6	6
560.7	9
560.8	10
560.9	10
561.0	10
561.1	8
561.2	7
561.3	9
561.4	11
561.5	10
561.6	6
561.7	1
606.2	0
606.3	1
606.4	3
606.5	6
606.6	13
606.7	27
606.8	48
606.9	67
607.0	75
607.1	76
607.2	82
607.3	94
607.4	99
607.5	86
607.6	55
607.7	21
607.8	0
