Mass spectrum: Ursinoic acid; LC-ESI-QQQ; MS2; Frag=135.0V CID@10.0; [M+H]+
Name: Ursinoic acid
Class: Terpenoids
Formula: C15H16O5
Exact mass: 276.2918
SMILES: COc1ccc(C(=O)CC(=O)O)c2c1C=CC(C)(C)O2
InChI: InChI=1S/C15H16O5/c1-15(2)7-6-10-12(19-3)5-4-9(14(10)20-15)11(16)8-13(17)18/h4-7H,8H2,1-3H3,(H,17,18)
Instrument: Agilent 6410 Triple Quadrupole LC/MS system
Instrument type: LC-ESI-QQQ
Ms type: MS2
Ion mode: POSITIVE
Precursor type: [M+H]+
m/z	relative intensity
202.3	0
202.4	1
202.5	4
202.6	8
202.7	15
202.8	23
202.9	31
203.0	36
203.1	36
203.2	34
203.3	28
203.4	19
203.5	9
203.6	2
276.3	1
276.4	3
276.5	7
276.6	12
276.7	22
276.8	39
276.9	62
277.0	84
277.1	97
277.2	99
277.3	92
277.4	74
277.5	46
277.6	18
277.7	1
