Mass spectrum: Hydrocortisone acetate; LC-ESI-QQQ; MS2; Frag=135.0V CID@15.0; [M+HCOO]-
Name: Hydrocortisone acetate
Class: Steroids
Formula: C23H32O6
Exact mass: 404.5079
SMILES: CC(=O)OCC(=O)[C@@]1(O)CCC2C3CCC4=CC(=O)CC[C@]4(C)C3C(O)C[C@@]21C
InChI: InChI=1S/C23H32O6/c1-13(24)29-12-19(27)23(28)9-7-17-16-5-4-14-10-15(25)6-8-21(14,2)20(16)18(26)11-22(17,23)3/h10,16-18,20,26,28H,4-9,11-12H2,1-3H3/t16?,17?,18?,20?,21-,22-,23-/m0/s1
Instrument: Agilent 6410 Triple Quadrupole LC/MS system
Instrument type: LC-ESI-QQQ
Ms type: MS2
Ion mode: NEGATIVE
Precursor type: [M+HCOO]-
m/z	relative intensity
58.1	1
58.2	4
58.3	8
58.4	14
58.5	21
58.6	31
58.7	45
58.8	64
58.9	82
59.0	92
59.1	85
59.2	63
59.3	35
59.4	11
59.5	0
300.7	1
300.8	3
300.9	6
301.0	8
301.1	7
301.2	5
330.4	0
330.5	0
330.6	8
330.7	30
330.8	59
330.9	84
331.0	95
331.1	97
331.2	99
331.3	99
331.4	84
331.5	52
331.6	18
331.7	0
342.7	4
342.8	5
342.9	12
343.0	22
343.1	30
343.2	31
343.3	22
343.4	9
343.5	1
