Mass spectrum: taxifolin; LC-ESI-QQQ; MS2; Frag=135.0V CID@25.0; [M+H]+
Name: Dihydro-Quer
Name: Taxifolin
Name: (2R,3R)-3,3',4',5,7-Pentahydroxyflavanone
Name: trans-Dihydroquercetin
Name: Distylin
Name: Taxifoliol
Name: Catechin
Name: taxifolin
Class: Flavonoids
Formula: C15H12O7
Exact mass: 304.2587
SMILES: O=C1c2c(O)cc(O)cc2OC(c2ccc(O)c(O)c2)C1O
InChI: InChI=1S/C15H12O7/c16-7-4-10(19)12-11(5-7)22-15(14(21)13(12)20)6-1-2-8(17)9(18)3-6/h1-5,14-19,21H
Instrument: Agilent 6410 Triple Quadrupole LC/MS system
Instrument type: LC-ESI-QQQ
Ms type: MS2
Ion mode: POSITIVE
Precursor type: [M+H]+
m/z	relative intensity
110.6	1
110.7	3
110.8	4
110.9	5
111.0	5
111.1	4
111.2	3
120.6	2
120.7	3
120.8	6
120.9	7
121.0	7
121.1	5
121.2	3
122.2	0
122.3	2
122.4	5
122.5	11
122.6	19
122.7	31
122.8	45
122.9	58
123.0	66
123.1	67
123.2	62
123.3	51
123.4	34
123.5	16
123.6	2
132.8	2
132.9	4
133.0	6
133.1	6
133.2	6
133.3	4
133.4	2
138.6	2
138.7	3
138.8	4
138.9	6
139.0	7
139.1	6
139.2	5
139.3	3
139.4	2
148.2	1
148.3	2
148.4	7
148.5	16
148.6	29
148.7	47
148.8	67
148.9	86
149.0	98
149.1	99
149.2	90
149.3	72
149.4	46
149.5	19
149.6	2
152.3	1
152.4	4
152.5	11
152.6	25
152.7	43
152.8	64
152.9	83
153.0	94
153.1	96
153.2	88
153.3	71
153.4	47
153.5	22
153.6	4
160.6	2
160.7	4
160.8	6
160.9	7
161.0	9
161.1	9
161.2	9
161.3	8
161.4	5
161.5	2
166.6	2
166.7	4
166.8	5
166.9	7
167.0	8
167.1	9
167.2	8
167.3	7
167.4	4
167.5	1
174.8	1
174.9	3
175.0	4
175.1	4
175.2	3
184.5	2
184.6	3
184.7	5
184.8	8
184.9	9
185.0	10
185.1	9
185.2	9
185.3	9
185.4	7
185.5	4
185.6	1
194.6	1
194.7	2
194.8	4
194.9	5
195.0	5
195.1	5
195.2	4
195.3	2
212.5	1
212.6	3
212.7	6
212.8	9
212.9	12
213.0	15
213.1	17
213.2	17
213.3	13
213.4	6
213.5	0
230.3	0
230.4	2
230.5	7
230.6	16
230.7	26
230.8	37
230.9	50
231.0	62
231.1	69
231.2	66
231.3	54
231.4	36
231.5	17
231.6	4
240.9	4
241.0	6
241.1	9
241.2	10
241.3	8
241.4	5
241.5	2
258.8	1
258.9	2
259.0	5
259.1	6
259.2	5
259.3	3
