Mass spectrum: 16-Deethylindanomycin; LC-ESI-QQQ; MS2; Frag=135.0V CID@25.0; [M+H]+
Name: 16-Deethylindanomycin
Class: Carbohydrates
Formula: C29H39NO4
Exact mass: 465.6385
SMILES: CC/C(=C\C=C\C1C=CC2CCCC2C1C(=O)c1ccc[nH]1)C1OC(C(C)C(=O)O)CCC1C
InChI: InChI=1S/C29H39NO4/c1-4-20(28-18(2)13-16-25(34-28)19(3)29(32)33)8-5-10-22-15-14-21-9-6-11-23(21)26(22)27(31)24-12-7-17-30-24/h5,7-8,10,12,14-15,17-19,21-23,25-26,28,30H,4,6,9,11,13,16H2,1-3H3,(H,32,33)/b10-5+,20-8+
Instrument: Agilent 6410 Triple Quadrupole LC/MS system
Instrument type: LC-ESI-QQQ
Ms type: MS2
Ion mode: POSITIVE
Precursor type: [M+H]+
m/z	relative intensity
93.2	5
93.3	6
93.4	11
93.5	18
93.6	28
93.7	44
93.8	66
93.9	87
94.0	99
94.1	99
94.2	90
94.3	74
94.4	51
94.5	26
94.6	7
106.7	1
106.8	3
106.9	5
107.0	6
107.1	6
108.7	3
108.8	6
108.9	9
109.0	10
109.1	9
109.2	7
109.3	5
109.4	3
110.4	1
110.5	2
110.6	4
110.7	7
110.8	12
110.9	17
111.0	21
111.1	23
111.2	23
111.3	18
111.4	11
111.5	5
118.6	1
118.7	3
118.8	5
118.9	6
119.0	7
119.1	7
119.2	7
119.3	6
119.4	4
120.5	2
120.6	3
120.7	4
120.8	6
120.9	8
121.0	10
121.1	12
121.2	13
121.3	12
121.4	9
121.5	5
121.6	1
130.5	1
130.6	3
130.7	4
130.8	6
130.9	8
131.0	11
131.1	12
131.2	12
131.3	10
131.4	6
131.5	3
138.7	3
138.8	5
138.9	8
139.0	12
139.1	14
139.2	13
139.3	10
139.4	6
139.5	2
144.7	2
144.8	3
144.9	5
145.0	6
145.1	7
145.2	6
145.3	4
145.6	2
145.7	4
145.8	7
145.9	9
146.0	10
146.1	10
146.2	8
146.3	6
146.7	4
146.8	6
146.9	7
147.0	8
147.1	8
147.2	8
147.3	8
147.4	7
147.5	4
148.7	1
148.8	3
148.9	5
149.0	8
149.1	10
149.2	9
149.3	6
149.4	4
149.5	2
156.3	1
156.4	2
156.5	4
156.6	8
156.7	12
156.8	18
156.9	25
157.0	32
157.1	37
157.2	37
157.3	33
157.4	24
157.5	12
157.6	3
158.7	2
158.8	5
158.9	9
159.0	11
159.1	11
159.2	9
159.3	6
159.4	4
160.8	3
160.9	5
161.0	7
161.1	8
161.2	7
161.3	5
161.4	2
170.7	2
170.8	4
170.9	6
171.0	7
171.1	7
171.2	4
173.7	4
173.8	6
173.9	8
174.0	10
174.1	12
174.2	11
174.3	9
174.4	6
174.5	2
184.7	1
184.8	2
184.9	5
185.0	6
185.1	7
185.2	6
185.3	5
185.4	4
186.8	2
186.9	3
187.0	5
187.1	6
187.2	6
187.3	5
187.4	4
200.9	2
201.0	4
201.1	6
201.2	7
201.3	6
201.4	4
201.5	2
213.8	2
213.9	3
214.0	4
214.1	5
214.2	4
214.3	4
214.4	3
214.5	2
214.6	1
214.7	1
214.8	1
214.9	1
215.0	1
215.1	1
215.2	1
215.3	0
215.4	0
215.5	0
215.6	0
215.7	0
215.8	0
215.9	0
216.0	0
216.1	0
216.2	0
216.3	0
216.4	0
216.5	0
216.6	0
216.7	0
216.8	0
216.9	0
217.0	0
217.1	0
217.2	0
217.3	0
217.4	0
217.5	0
217.6	0
217.7	0
217.8	0
217.9	0
218.0	0
218.1	0
218.2	0
218.3	0
218.4	0
218.5	0
218.6	0
218.7	0
218.8	0
218.9	0
219.0	0
219.1	0
219.2	0
219.3	0
219.4	0
219.5	0
219.6	0
219.7	0
219.8	0
219.9	0
220.0	1
220.1	1
220.2	1
220.3	1
220.4	1
220.5	0
220.6	0
220.7	0
220.8	0
220.9	1
221.0	2
221.1	2
221.2	1
221.3	1
221.4	0
221.5	0
221.6	0
221.7	0
221.8	0
221.9	1
222.0	1
222.1	1
222.2	1
222.3	1
222.4	0
222.5	0
222.6	0
222.7	1
222.8	2
222.9	4
223.0	4
223.1	3
223.8	2
223.9	3
224.0	5
224.1	5
224.2	4
224.3	3
225.4	5
225.5	6
225.6	8
225.7	12
225.8	20
225.9	33
226.0	47
226.1	57
226.2	60
226.3	53
226.4	38
226.5	19
226.6	5
237.7	3
237.8	5
237.9	7
238.0	10
238.1	11
238.2	10
238.3	7
238.4	4
239.8	1
239.9	2
240.0	4
240.1	5
240.2	4
240.3	3
293.7	1
293.8	2
293.9	4
294.0	6
294.1	7
294.2	6
294.3	4
294.4	2
403.6	2
403.7	4
403.8	9
403.9	17
404.0	28
404.1	38
404.2	45
404.3	48
404.4	46
404.5	39
404.6	27
404.7	13
404.8	3
