Mass spectrum: Kanamycin; LC-ESI-QQQ; MS; [M+H]+
Name: Kanamycin
Class: Carbohydrates
Formula: C18H36N4O11
Exact mass: 484.5078
SMILES: NC[C@@H]1O[C@@H](O[C@@H]2[C@@H](N)C[C@@H](N)[C@H](O[C@@H]3O[C@@H](CO)[C@H](O)[C@@H](N)[C@@H]3O)[C@H]2O)[C@@H](O)[C@H](O)[C@H]1O
InChI: InChI=1S/C18H36N4O11/c19-2-6-10(25)12(27)13(28)18(30-6)33-16-5(21)1-4(20)15(14(16)29)32-17-11(26)8(22)9(24)7(3-23)31-17/h4-18,23-29H,1-3,19-22H2/t4-,5+,6+,7+,8-,9+,10+,11+,12-,13+,14-,15+,16-,17+,18+/m1/s1
Instrument: ABSciex API3200 LC/MS system
Instrument type: LC-ESI-QQQ
Ms type: MS
Ion mode: POSITIVE
Precursor type: [M+H]+
m/z	relative intensity
100.1000	63
101.8000	51
101.9000	32
102.0000	72
102.1000	61
102.2000	44
102.3000	28
102.4000	61
106.5000	27
109.1000	23
109.2000	25
109.5000	28
109.6000	28
109.7000	114
109.9000	48
110.0000	40
110.1000	44
110.3000	51
110.5000	60
113.1000	21
113.5000	24
113.6000	34
113.9000	48
114.2000	35
114.4000	24
114.5000	35
114.6000	23
114.7000	65
115.0000	47
115.1000	26
115.4000	87
115.9000	46
116.0000	52
116.1000	29
116.2000	29
118.2000	22
119.6000	24
119.9000	91
120.0000	23
120.1000	21
120.2000	47
125.6000	23
125.7000	76
125.8000	59
125.9000	29
126.0000	67
126.2000	39
126.3000	38
126.5000	24
126.8000	29
126.9000	37
127.0000	25
128.1000	99
128.2000	36
128.8000	22
129.8000	26
134.6000	33
136.0000	51
136.5000	48
136.6000	107
136.7000	51
141.2000	26
143.5000	84
143.6000	135
143.7000	153
143.8000	165
143.9000	121
144.0000	101
144.1000	80
144.2000	95
144.3000	125
144.4000	99
144.5000	54
144.7000	76
144.8000	29
145.2000	58
145.3000	32
148.5000	96
148.6000	47
148.8000	61
148.9000	45
149.1000	73
149.3000	36
149.4000	22
149.5000	56
149.6000	69
153.7000	44
160.1000	27
161.4000	38
161.5000	96
161.6000	148
161.7000	358
161.8000	368
161.9000	559
162.0000	580
162.1000	697
162.2000	809
162.3000	686
162.4000	821
162.5000	558
162.6000	536
162.7000	577
162.8000	482
162.9000	324
163.0000	332
163.1000	238
163.2000	315
163.3000	766
163.4000	187
163.5000	146
163.6000	142
163.7000	24
164.1000	23
173.2000	24
173.4000	34
175.5000	32
175.6000	83
175.7000	33
175.8000	57
175.9000	66
176.0000	50
176.1000	73
176.2000	65
176.3000	63
176.4000	65
176.5000	43
176.6000	181
180.3000	26
186.5000	21
186.6000	36
186.7000	45
186.8000	22
186.9000	21
187.0000	48
187.1000	72
187.2000	43
187.4000	23
188.8000	24
189.4000	41
189.6000	38
190.1000	31
190.2000	22
190.3000	68
197.8000	22
198.3000	23
203.2000	24
203.6000	34
204.5000	40
204.6000	61
204.7000	71
204.8000	70
204.9000	84
205.0000	61
205.1000	63
205.2000	57
205.3000	53
205.4000	38
205.5000	50
205.6000	26
206.7000	31
206.8000	41
207.4000	48
208.5000	26
213.6000	31
216.7000	40
216.8000	95
216.9000	43
217.2000	39
220.6000	55
220.7000	121
220.8000	109
220.9000	150
221.0000	154
221.1000	115
221.2000	94
221.4000	27
221.5000	62
221.6000	66
221.7000	73
221.9000	32
222.0000	64
222.6000	56
222.8000	35
223.1000	29
223.3000	23
223.4000	35
224.2000	26
224.3000	27
224.4000	29
224.6000	30
224.7000	42
224.8000	44
224.9000	35
225.1000	31
225.3000	101
225.4000	175
225.9000	21
227.2000	21
227.3000	37
238.6000	72
238.7000	29
238.8000	22
238.9000	29
239.0000	61
239.4000	28
239.9000	46
241.3000	30
242.4000	47
242.5000	209
242.6000	223
242.7000	310
242.8000	516
242.9000	296
243.0000	333
243.1000	358
243.2000	272
243.3000	327
243.4000	252
243.5000	173
243.6000	127
243.7000	128
243.8000	132
243.9000	79
244.0000	33
244.1000	34
244.2000	42
256.9000	31
257.2000	28
257.3000	27
262.6000	26
263.1000	39
263.7000	34
264.5000	28
266.6000	26
278.2000	28
281.1000	21
284.9000	29
285.4000	27
285.9000	28
290.9000	27
292.0000	21
294.4000	24
294.5000	45
294.8000	22
295.2000	35
295.4000	21
295.6000	26
295.9000	21
296.1000	23
296.3000	40
298.3000	36
299.1000	22
310.3000	22
310.7000	120
310.8000	999
310.9000	347
312.5000	26
312.6000	47
312.8000	78
312.9000	67
313.1000	45
323.5000	81
323.6000	131
323.7000	114
323.8000	81
323.9000	198
324.0000	611
324.1000	188
324.2000	98
324.3000	107
324.4000	100
324.5000	63
324.6000	24
324.7000	25
324.9000	32
325.2000	27
325.3000	26
325.4000	27
325.7000	22
328.0000	21
354.5000	40
365.4000	22
365.8000	21
371.1000	21
371.8000	24
372.7000	33
372.8000	24
390.7000	27
391.2000	26
393.1000	21
416.9000	22
432.7000	21
433.1000	38
433.5000	31
437.7000	38
448.0000	22
484.6000	82
484.7000	130
484.8000	117
484.9000	98
485.0000	129
485.1000	107
485.2000	119
485.3000	117
485.4000	83
485.5000	61
485.6000	69
485.7000	108
485.8000	60
485.9000	26
486.1000	28
486.3000	50
486.4000	32
486.7000	47
486.8000	30
487.1000	64
513.2000	22
