Mass spectrum: Convolvidine; LC-ESI-QQQ; MS; [M+H]+
Name: Convolvidine
Class: Alkaloids
Formula: C34H44N2O8
Exact mass: 608.7384
SMILES: COc1ccc(C(=O)OC2CC3CCC(C2)N3CCN2C3CCC2CC(OC(=O)c2ccc(OC)c(OC)c2)C3)cc1OC
InChI: InChI=1S/C34H44N2O8/c1-39-29-11-5-21(15-31(29)41-3)33(37)43-27-17-23-7-8-24(18-27)35(23)13-14-36-25-9-10-26(36)20-28(19-25)44-34(38)22-6-12-30(40-2)32(16-22)42-4/h5-6,11-12,15-16,23-28H,7-10,13-14,17-20H2,1-4H3
Instrument: ABSciex API3200 LC/MS system
Instrument type: LC-ESI-QQQ
Ms type: MS
Ion mode: POSITIVE
Precursor type: [M+H]+
m/z	relative intensity
100.3000	46
123.7000	37
123.8000	38
123.9000	36
124.0000	29
124.1000	31
135.7000	21
136.1000	25
138.5000	78
138.6000	121
138.7000	89
138.8000	122
138.9000	134
139.0000	145
139.1000	112
139.2000	92
139.3000	95
139.4000	70
139.5000	51
139.6000	31
141.4000	56
141.5000	62
141.6000	72
141.7000	76
141.8000	64
141.9000	75
142.0000	54
142.9000	38
148.5000	33
148.6000	29
148.8000	75
149.4000	46
149.5000	31
164.5000	28
164.7000	22
164.8000	43
164.9000	37
165.0000	104
165.1000	21
165.3000	21
165.4000	35
166.8000	22
182.4000	107
182.5000	152
182.6000	180
182.7000	246
182.8000	230
182.9000	220
183.0000	216
183.1000	225
183.2000	230
183.3000	192
183.4000	138
183.5000	41
183.6000	41
183.8000	32
184.1000	36
184.2000	24
197.5000	25
198.3000	31
198.4000	22
221.4000	24
221.5000	74
222.7000	22
244.6000	24
244.7000	29
244.8000	33
244.9000	32
245.0000	38
245.1000	41
245.3000	27
245.4000	25
245.5000	27
304.4000	26
304.5000	124
304.6000	180
304.7000	225
304.8000	249
304.9000	274
305.0000	341
305.1000	329
305.2000	485
305.3000	999
305.4000	337
305.5000	209
305.6000	140
305.7000	133
305.8000	98
305.9000	111
306.0000	60
306.1000	63
306.2000	55
310.7000	21
317.5000	68
317.6000	80
317.7000	251
317.8000	90
317.9000	79
318.0000	73
318.1000	61
318.2000	51
318.3000	47
318.4000	50
318.5000	28
324.9000	157
325.0000	117
325.1000	159
325.2000	559
325.3000	196
325.4000	153
325.5000	184
325.6000	214
325.7000	222
325.8000	202
325.9000	164
326.0000	138
326.1000	102
326.2000	104
326.3000	79
326.4000	140
326.5000	61
326.6000	35
326.7000	27
326.8000	25
334.6000	23
334.7000	37
345.5000	26
345.6000	34
345.7000	46
345.8000	41
345.9000	39
346.0000	71
346.1000	62
346.2000	94
346.3000	76
346.4000	66
346.5000	38
346.6000	39
346.7000	31
346.8000	47
346.9000	31
347.3000	23
426.5000	71
426.6000	182
426.7000	165
426.8000	247
426.9000	281
427.0000	254
427.1000	256
427.2000	188
427.3000	251
427.4000	203
427.5000	129
427.6000	94
427.7000	68
427.8000	80
427.9000	68
428.0000	56
428.1000	64
428.2000	70
428.3000	56
428.4000	55
428.5000	48
608.5000	78
608.6000	204
608.7000	295
608.8000	343
608.9000	397
609.0000	440
609.1000	371
609.2000	349
609.3000	369
609.4000	256
609.5000	135
609.6000	123
609.7000	134
609.8000	135
609.9000	130
610.0000	158
610.1000	152
610.2000	185
610.3000	143
610.4000	128
610.5000	38
610.7000	29
610.8000	28
610.9000	31
611.0000	29
611.1000	34
611.2000	29
611.3000	22
