Mass spectrum: allopregnanolone; LC-ESI-QQQ; MS2; Frag=135.0V CID@15.0; [M+H]+
Name: allopregnanolone
Class: Steroids
Formula: C21H34O2
Exact mass: 318.5039
SMILES: CC(=O)C1CCC2C3CC[C@H]4C[C@H](O)CC[C@]4(C)C3CC[C@]12C
InChI: InChI=1S/C21H34O2/c1-13(22)17-6-7-18-16-5-4-14-12-15(23)8-10-20(14,2)19(16)9-11-21(17,18)3/h14-19,23H,4-12H2,1-3H3/t14-,15+,16?,17?,18?,19?,20-,21+/m0/s1
Instrument: Agilent 6410 Triple Quadrupole LC/MS system
Instrument type: LC-ESI-QQQ
Ms type: MS2
Ion mode: POSITIVE
Precursor type: [M+H]+
m/z	relative intensity
70.4	1
70.5	3
70.6	7
70.7	10
70.8	11
70.9	13
71.0	15
71.1	18
71.2	20
71.3	18
71.4	13
71.5	6
71.6	1
80.4	1
80.5	3
80.6	7
80.7	10
80.8	12
80.9	13
81.0	13
81.1	14
81.2	15
81.3	15
81.4	12
81.5	6
81.6	1
94.4	0
94.5	1
94.6	4
94.7	8
94.8	12
94.9	14
95.0	15
95.1	15
95.2	15
95.3	13
95.4	9
95.5	4
95.6	0
104.6	2
104.7	3
104.8	5
104.9	8
105.0	9
105.1	8
105.2	7
105.3	4
105.4	3
106.5	2
106.6	3
106.7	6
106.8	9
106.9	13
107.0	16
107.1	17
107.2	16
107.3	13
107.4	9
107.5	5
107.6	0
108.6	2
108.7	3
108.8	7
108.9	10
109.0	13
109.1	14
109.2	13
109.3	11
109.4	7
109.5	3
118.5	1
118.6	2
118.7	5
118.8	9
118.9	11
119.0	12
119.1	11
119.2	10
119.3	8
119.4	5
119.5	2
120.3	0
120.4	2
120.5	4
120.6	7
120.7	11
120.8	16
120.9	23
121.0	28
121.1	31
121.2	30
121.3	26
121.4	20
121.5	12
121.6	5
121.7	0
122.6	1
122.7	3
122.8	4
122.9	5
123.0	7
123.1	9
123.2	11
123.3	10
123.4	6
123.5	3
132.4	1
132.5	3
132.6	6
132.7	10
132.8	13
132.9	17
133.0	19
133.1	19
133.2	19
133.3	19
133.4	16
133.5	9
133.6	3
134.3	1
134.4	3
134.5	6
134.6	11
134.7	18
134.8	29
134.9	46
135.0	63
135.1	74
135.2	74
135.3	64
135.4	45
135.5	25
135.6	7
135.7	0
136.6	1
136.7	3
136.8	4
136.9	6
137.0	9
137.1	10
137.2	9
137.3	7
137.4	4
137.5	1
144.6	1
144.7	2
144.8	5
144.9	9
145.0	12
145.1	13
145.2	12
145.3	9
145.4	5
145.5	2
146.3	0
146.4	2
146.5	4
146.6	8
146.7	13
146.8	21
146.9	31
147.0	43
147.1	53
147.2	56
147.3	51
147.4	41
147.5	26
147.6	12
147.7	2
148.4	0
148.5	2
148.6	4
148.7	9
148.8	15
148.9	21
149.0	27
149.1	30
149.2	30
149.3	28
149.4	22
149.5	14
149.6	5
149.7	0
150.6	1
150.7	2
150.8	4
150.9	6
151.0	8
151.1	8
151.2	7
151.3	6
151.4	5
151.5	3
158.5	1
158.6	3
158.7	5
158.8	8
158.9	11
159.0	15
159.1	19
159.2	20
159.3	19
159.4	14
159.5	8
159.6	2
160.4	1
160.5	3
160.6	7
160.7	16
160.8	28
160.9	39
161.0	45
161.1	44
161.2	42
161.3	41
161.4	39
161.5	30
161.6	16
161.7	3
162.4	1
162.5	3
162.6	6
162.7	10
162.8	16
162.9	22
163.0	26
163.1	29
163.2	29
163.3	27
163.4	21
163.5	13
163.6	4
163.7	0
172.5	1
172.6	3
172.7	7
172.8	12
172.9	17
173.0	22
173.1	24
173.2	24
173.3	22
173.4	17
173.5	10
173.6	3
174.4	1
174.5	4
174.6	7
174.7	10
174.8	14
174.9	21
175.0	30
175.1	39
175.2	46
175.3	49
175.4	43
175.5	28
175.6	11
175.7	0
176.9	1
177.0	3
177.1	5
177.2	6
177.3	6
177.4	5
177.5	2
186.4	1
186.5	4
186.6	7
186.7	10
186.8	15
186.9	22
187.0	29
187.1	35
187.2	36
187.3	35
187.4	32
187.5	24
187.6	12
187.7	2
188.3	1
188.4	2
188.5	5
188.6	11
188.7	22
188.8	40
188.9	63
189.0	84
189.1	96
189.2	99
189.3	96
189.4	84
189.5	60
189.6	29
189.7	5
189.8	0
200.5	1
200.6	2
200.7	5
200.8	11
200.9	18
201.0	25
201.1	27
201.2	26
201.3	24
201.4	22
201.5	18
201.6	11
201.7	3
204.7	2
204.8	3
204.9	5
205.0	6
205.1	7
205.2	5
205.3	4
205.4	2
212.6	1
212.7	3
212.8	5
212.9	7
213.0	8
213.1	10
213.2	11
213.3	10
213.4	8
213.5	4
213.6	1
218.7	1
218.8	3
218.9	5
219.0	6
219.1	5
219.2	4
219.3	3
219.4	2
226.7	2
226.8	3
226.9	5
227.0	8
227.1	11
227.2	11
227.3	9
227.4	6
227.5	3
230.8	2
230.9	4
231.0	7
231.1	8
231.2	7
231.3	6
231.4	4
231.5	3
242.9	3
243.0	5
243.1	6
243.2	7
243.3	7
243.4	6
243.5	4
243.6	1
256.4	0
256.5	2
256.6	5
256.7	10
256.8	17
256.9	27
257.0	38
257.1	47
257.2	53
257.3	55
257.4	51
257.5	39
257.6	22
257.7	6
257.8	0
282.4	1
282.5	2
282.6	6
282.7	12
282.8	22
282.9	36
283.0	50
283.1	62
283.2	68
283.3	68
283.4	63
283.5	52
283.6	34
283.7	15
283.8	2
300.4	1
300.5	3
300.6	5
300.7	9
300.8	17
300.9	29
301.0	46
301.1	65
301.2	82
301.3	92
301.4	90
301.5	75
301.6	48
301.7	20
301.8	2
