Mass spectrum: Skimmianine; LC-ESI-QQQ; MS2; Frag=135.0V CID@5.0; [M+H]+
Name: Skimmianine
Class: Alkaloids
Formula: C14H13NO4
Exact mass: 259.264
SMILES: COc1ccc2c(OC)c3ccoc3nc2c1OC
InChI: InChI=1S/C14H13NO4/c1-16-10-5-4-8-11(13(10)18-3)15-14-9(6-7-19-14)12(8)17-2/h4-7H,1-3H3
Instrument: Agilent 6410 Triple Quadrupole LC/MS system
Instrument type: LC-ESI-QQQ
Ms type: MS2
Ion mode: POSITIVE
Precursor type: [M+H]+
m/z	relative intensity
259.2	0
259.3	2
259.4	5
259.5	9
259.6	15
259.7	27
259.8	46
259.9	70
260.0	91
260.1	99
260.2	95
260.3	78
260.4	53
260.5	27
260.6	7
260.7	0
