Mass spectrum: 19,28-Epoxy-3-oleananol; LC-ESI-QQQ; MS2; Frag=135.0V CID@25.0; [M+H]+
Name: 19,28-Epoxy-3-oleananol
Class: Terpenoids
Formula: C30H50O2
Exact mass: 442.7318
SMILES: CC1(C)CCC23CC[C@]4(C)C(CCC5[C@@]6(C)CCC(O)C(C)(C)C6CC[C@]54C)C2C1OC3
InChI: InChI=1S/C30H50O2/c1-25(2)14-16-30-17-15-28(6)19(23(30)24(25)32-18-30)8-9-21-27(5)12-11-22(31)26(3,4)20(27)10-13-29(21,28)7/h19-24,31H,8-18H2,1-7H3/t19?,20?,21?,22?,23?,24?,27-,28+,29+,30?/m0/s1
Instrument: Agilent 6410 Triple Quadrupole LC/MS system
Instrument type: LC-ESI-QQQ
Ms type: MS2
Ion mode: POSITIVE
Precursor type: [M+H]+
m/z	relative intensity
94.2	5
94.3	7
94.4	9
94.5	9
94.6	11
94.7	18
94.8	29
94.9	37
95.0	34
95.1	22
95.2	10
108.6	7
108.7	8
108.8	13
108.9	19
109.0	23
109.1	25
109.2	25
109.3	21
109.4	14
109.5	8
120.5	5
120.6	7
120.7	10
120.8	12
120.9	17
121.0	21
121.1	21
121.2	14
121.3	7
122.8	4
122.9	5
123.0	10
123.1	19
123.2	26
123.3	26
123.4	17
123.5	7
146.7	4
146.8	7
146.9	9
147.0	9
148.6	6
148.7	9
148.8	13
148.9	14
149.0	12
149.1	8
162.7	6
162.8	8
162.9	10
163.0	11
163.1	10
163.2	8
176.2	5
176.3	8
176.4	11
176.5	14
176.6	17
176.7	22
176.8	28
176.9	33
177.0	34
177.1	27
177.2	17
178.2	4
178.3	6
178.4	8
178.5	12
178.6	18
178.7	22
178.8	21
178.9	15
179.0	8
188.9	5
189.0	9
189.1	18
189.2	31
189.3	40
189.4	37
189.5	22
189.6	8
190.2	4
190.3	6
190.4	11
190.5	16
190.6	21
190.7	24
190.8	26
190.9	26
191.0	29
191.1	39
191.2	60
191.3	78
191.4	76
191.5	52
191.6	21
191.7	4
202.6	5
202.7	6
202.8	10
202.9	26
203.0	54
203.1	84
203.2	93
203.3	73
203.4	37
203.5	9
424.6	5
424.7	7
424.8	10
424.9	12
425.0	12
425.1	10
425.2	8
