Mass spectrum: Felamidin; LC-ESI-QQQ; MS2; Frag=135.0V CID@25.0; [M+H]+
Name: Felamidin
Class: Benzopyranoids
Formula: C21H18O5
Exact mass: 350.3746
SMILES: CC(C)(OC(=O)c1ccccc1)C1Cc2cc3ccc(=O)oc3cc2O1
InChI: InChI=1S/C21H18O5/c1-21(2,26-20(23)13-6-4-3-5-7-13)18-11-15-10-14-8-9-19(22)25-16(14)12-17(15)24-18/h3-10,12,18H,11H2,1-2H3
Instrument: Agilent 6410 Triple Quadrupole LC/MS system
Instrument type: LC-ESI-QQQ
Ms type: MS2
Ion mode: POSITIVE
Precursor type: [M+H]+
m/z	relative intensity
104.5	2
104.6	3
104.7	6
104.8	9
104.9	12
105.0	14
105.1	13
105.2	12
105.3	10
105.4	7
105.5	3
210.6	1
210.7	2
210.8	5
210.9	7
211.0	9
211.1	9
211.2	9
211.3	7
211.4	5
211.5	2
212.6	1
212.7	3
212.8	5
212.9	7
213.0	9
213.1	10
213.2	10
213.3	9
213.4	7
213.7	3
213.8	6
213.9	8
214.0	11
214.1	12
214.2	11
214.3	9
214.4	5
214.5	2
228.2	1
228.3	3
228.4	6
228.5	9
228.6	13
228.7	21
228.8	39
228.9	65
229.0	88
229.1	99
229.2	95
229.3	79
229.4	56
229.5	30
229.6	10
229.7	0
