Mass spectrum: Hydrocortisone acetate; LC-ESI-QQQ; MS2; Frag=135.0V CID@10.0; [M+HCOO]-
Name: Hydrocortisone acetate
Class: Steroids
Formula: C23H32O6
Exact mass: 404.5079
SMILES: CC(=O)OCC(=O)[C@@]1(O)CCC2C3CCC4=CC(=O)CC[C@]4(C)C3C(O)C[C@@]21C
InChI: InChI=1S/C23H32O6/c1-13(24)29-12-19(27)23(28)9-7-17-16-5-4-14-10-15(25)6-8-21(14,2)20(16)18(26)11-22(17,23)3/h10,16-18,20,26,28H,4-9,11-12H2,1-3H3/t16?,17?,18?,20?,21-,22-,23-/m0/s1
Instrument: Agilent 6410 Triple Quadrupole LC/MS system
Instrument type: LC-ESI-QQQ
Ms type: MS2
Ion mode: NEGATIVE
Precursor type: [M+HCOO]-
m/z	relative intensity
58.1	4
58.2	5
58.3	5
58.4	8
58.5	12
58.6	19
58.7	30
58.8	51
58.9	78
59.0	99
59.1	98
59.2	72
59.3	34
59.4	6
59.5	0
296.8	1
296.9	3
297.0	5
297.1	6
297.2	6
297.3	4
300.7	0
300.8	2
300.9	5
301.0	9
301.1	9
301.2	6
301.3	2
330.3	1
330.4	3
330.5	8
330.6	18
330.7	34
330.8	54
330.9	74
331.0	87
331.1	91
331.2	87
331.3	78
331.4	65
331.5	45
331.6	21
331.7	4
342.4	1
342.5	4
342.6	7
342.7	10
342.8	14
342.9	22
343.0	33
343.1	39
343.2	36
343.3	27
343.4	15
343.5	6
343.6	1
372.4	1
372.5	2
372.6	5
372.7	14
372.8	25
372.9	31
373.0	29
373.1	21
373.2	14
373.3	9
373.4	6
373.5	3
402.4	0
402.5	1
402.6	7
402.7	22
402.8	41
402.9	57
403.0	66
403.1	67
403.2	59
403.3	44
403.4	27
403.5	14
403.6	5
403.7	0
448.5	0
448.6	2
448.7	5
448.8	9
448.9	11
