Mass spectrum: Steviobioside; LC-ESI-QQQ; MS2; Frag=135.0V CID@15.0; [M+Na]+
Name: Steviobioside
Class: Terpenoids
Formula: C32H50O13
Exact mass: 642.7475
SMILES: C=C1CC23CCC4[C@@](C)(C(=O)O)CCC[C@]4(C)C2CCC1(O[C@@H]1O[C@H](CO)[C@@H](O)[C@H](O)[C@H]1O[C@@H]1O[C@H](CO)[C@@H](O)[C@H](O)[C@H]1O)C3
InChI: InChI=1S/C32H50O13/c1-15-11-31-9-5-18-29(2,7-4-8-30(18,3)28(40)41)19(31)6-10-32(15,14-31)45-27-25(23(38)21(36)17(13-34)43-27)44-26-24(39)22(37)20(35)16(12-33)42-26/h16-27,33-39H,1,4-14H2,2-3H3,(H,40,41)/t16-,17-,18?,19?,20-,21-,22+,23+,24-,25-,26+,27+,29+,30+,31?,32?/m1/s1
Instrument: Agilent 6410 Triple Quadrupole LC/MS system
Instrument type: LC-ESI-QQQ
Ms type: MS2
Ion mode: POSITIVE
Precursor type: [M+Na]+
m/z	relative intensity
664.6	4
664.7	5
664.8	9
664.9	25
665.0	50
665.1	78
665.2	95
665.3	97
665.4	84
665.5	60
665.6	33
665.7	14
665.8	4
