Mass spectrum: 10-hydroxycamptothecin; LC-ESI-QQQ; MS2; Frag=135.0V CID@15.0; [M+H]+
Name: 10-hydroxycamptothecin
Class: Alkaloids
Formula: C20H16N2O5
Exact mass: 364.3609
SMILES: CCC1(O)C(=O)OCc2c1cc1n(c2=O)Cc2cc3cc(O)ccc3nc2-1
InChI: InChI=1S/C20H16N2O5/c1-2-20(26)14-7-16-17-11(5-10-6-12(23)3-4-15(10)21-17)8-22(16)18(24)13(14)9-27-19(20)25/h3-7,23,26H,2,8-9H2,1H3
Instrument: Agilent 6410 Triple Quadrupole LC/MS system
Instrument type: LC-ESI-QQQ
Ms type: MS2
Ion mode: POSITIVE
Precursor type: [M+H]+
m/z	relative intensity
320.4	1
320.5	2
320.6	5
320.7	8
320.8	12
320.9	17
321.0	22
321.1	26
321.2	28
321.3	26
321.4	21
321.5	12
321.6	4
321.7	0
364.3	0
364.4	3
364.5	9
364.6	17
364.7	29
364.8	45
364.9	65
365.0	83
365.1	96
365.2	99
365.3	91
365.4	69
365.5	39
365.6	12
365.7	0
