Mass spectrum: Ajugalide E; LC-ESI-QQQ; MS; [M+H]+
Name: Ajugalide E
Class: Terpenoids
Formula: C31H46O9
Exact mass: 562.7069
SMILES: CC(=O)O[C@H](CC1C(C)OC(=O)C1C)[C@](C)(O)C1CC[C@@]2(O)C3=CC(=O)[C@@H]4C[C@@H](O)C(O)C[C@]4(C)C3CC[C@]12C
InChI: InChI=1S/C31H46O9/c1-15-18(16(2)39-27(15)36)11-26(40-17(3)32)30(6,37)25-8-10-31(38)20-12-22(33)21-13-23(34)24(35)14-28(21,4)19(20)7-9-29(25,31)5/h12,15-16,18-19,21,23-26,34-35,37-38H,7-11,13-14H2,1-6H3/t15?,16?,18?,19?,21-,23+,24?,25?,26+,28+,29+,30+,31+/m0/s1
Instrument: ABSciex API3200 LC/MS system
Instrument type: LC-ESI-QQQ
Ms type: MS
Ion mode: POSITIVE
Precursor type: [M+H]+
m/z	relative intensity
100.4000	35
100.5000	36
100.6000	79
100.7000	58
100.8000	33
119.3000	21
119.4000	45
119.5000	152
141.4000	137
141.5000	370
141.6000	499
141.7000	512
141.8000	521
141.9000	518
142.0000	513
142.1000	438
142.2000	399
142.3000	277
142.4000	195
142.5000	85
142.6000	24
149.7000	25
302.5000	48
302.6000	191
302.7000	115
302.8000	59
302.9000	56
303.0000	57
303.1000	56
303.2000	60
303.3000	47
303.4000	57
303.5000	23
303.7000	21
304.1000	22
430.7000	26
430.9000	26
431.0000	46
431.2000	31
431.3000	32
433.1000	26
448.6000	34
448.7000	44
448.8000	44
448.9000	54
449.0000	83
449.1000	48
449.2000	49
449.3000	48
449.4000	40
449.5000	42
449.7000	23
450.3000	21
466.7000	24
466.8000	88
466.9000	26
467.0000	38
467.1000	45
467.2000	35
467.3000	21
485.0000	21
486.3000	24
490.8000	24
526.7000	21
526.8000	26
526.9000	34
527.0000	47
527.1000	29
527.2000	48
527.3000	43
527.4000	36
527.5000	28
544.4000	32
544.5000	81
544.6000	243
544.7000	408
544.8000	523
544.9000	597
545.0000	601
545.1000	594
545.2000	646
545.3000	515
545.4000	447
545.5000	231
545.6000	109
545.7000	162
545.8000	186
545.9000	217
546.0000	215
546.1000	217
546.2000	188
546.3000	194
546.4000	142
546.5000	96
546.7000	40
546.8000	48
546.9000	50
547.0000	59
547.1000	47
547.2000	72
547.3000	47
547.4000	33
562.4000	42
562.5000	280
562.6000	427
562.7000	721
562.8000	787
562.9000	890
563.0000	846
563.1000	849
563.2000	999
563.3000	855
563.4000	587
563.5000	316
563.6000	170
563.7000	253
563.8000	244
563.9000	319
564.0000	320
564.1000	299
564.2000	287
564.3000	287
564.4000	214
564.5000	116
564.6000	44
564.7000	43
564.8000	60
564.9000	64
565.0000	68
565.1000	62
565.2000	53
565.3000	81
565.4000	35
565.5000	37
579.7000	32
579.8000	69
579.9000	40
580.0000	45
580.1000	44
580.2000	38
580.3000	41
580.4000	23
603.6000	38
603.7000	86
603.8000	123
603.9000	161
604.0000	173
604.1000	177
604.2000	179
604.3000	146
604.4000	120
604.5000	38
604.6000	40
604.7000	46
604.8000	45
604.9000	44
605.0000	75
605.1000	68
605.2000	56
605.3000	79
605.4000	54
605.5000	24
1088.5000	22
1088.6000	38
1088.7000	44
1088.8000	49
1088.9000	49
1089.0000	53
1089.1000	75
1089.2000	52
1089.3000	53
1089.4000	58
1089.5000	64
1089.6000	45
1089.7000	28
1089.8000	27
1089.9000	25
1090.0000	33
1090.1000	34
1090.2000	34
1090.3000	44
1090.4000	43
1090.5000	36
1090.6000	45
1106.5000	24
1106.6000	26
1106.8000	26
1106.9000	49
1107.0000	37
1107.1000	40
1107.2000	54
1107.3000	38
1107.4000	43
1107.5000	22
1107.6000	26
1107.7000	22
1107.9000	35
1108.0000	32
1108.1000	26
1108.2000	30
1108.3000	28
1108.4000	23
1108.5000	27
1108.9000	22
1124.5000	26
1124.6000	34
1124.7000	92
1124.8000	125
1124.9000	127
1125.0000	149
1125.1000	133
1125.2000	137
1125.3000	140
1125.4000	134
1125.5000	110
1125.6000	138
1125.7000	72
1125.8000	112
1125.9000	118
1126.0000	107
1126.1000	110
1126.2000	116
1126.3000	91
1126.4000	89
1126.5000	82
1126.6000	75
1126.7000	40
1126.8000	38
1126.9000	27
1127.0000	54
1127.1000	46
1127.2000	39
1127.3000	57
1127.4000	25
1127.5000	26
