Mass spectrum: Eudesmin; LC-ESI-QQQ; MS2; Frag=135.0V CID@25.0; [M+H]+
Name: Eudesmin
Class: Lignans
Formula: C22H26O6
Exact mass: 386.4489
SMILES: COc1ccc([C@H]2OC[C@@H]3[C@@H](c4ccc(OC)c(OC)c4)OC[C@H]23)cc1OC
InChI: InChI=1S/C22H26O6/c1-23-17-7-5-13(9-19(17)25-3)21-15-11-28-22(16(15)12-27-21)14-6-8-18(24-2)20(10-14)26-4/h5-10,15-16,21-22H,11-12H2,1-4H3/t15-,16-,21+,22+/m0/s1
Instrument: Agilent 6410 Triple Quadrupole LC/MS system
Instrument type: LC-ESI-QQQ
Ms type: MS2
Ion mode: POSITIVE
Precursor type: [M+H]+
m/z	relative intensity
135.7	2
135.8	5
135.9	9
136.0	11
136.1	10
136.2	6
136.3	3
138.7	2
138.8	3
138.9	4
139.0	5
139.1	5
139.2	5
139.3	3
150.2	1
150.3	2
150.4	5
150.5	9
150.6	17
150.7	29
150.8	47
150.9	70
151.0	91
151.1	99
151.2	91
151.3	70
151.4	46
151.5	24
151.6	7
151.7	0
164.4	0
164.5	2
164.6	5
164.7	9
164.8	12
164.9	13
165.0	14
165.1	16
165.2	18
165.3	16
165.4	10
165.5	4
165.8	1
165.9	3
166.0	5
166.1	6
166.2	5
166.3	3
173.5	2
173.6	3
173.7	7
173.8	12
173.9	15
174.0	14
174.1	11
174.2	9
174.3	6
174.4	3
176.3	0
176.4	1
176.5	4
176.6	7
176.7	9
176.8	13
176.9	19
177.0	25
177.1	26
177.2	21
177.3	13
177.4	6
177.5	3
187.5	2
187.6	2
187.7	5
187.8	10
187.9	14
188.0	16
188.1	15
188.2	12
188.3	9
188.4	7
188.7	5
188.8	10
188.9	17
189.0	25
189.1	31
189.2	33
189.3	30
189.4	20
189.5	9
189.6	1
200.2	0
200.3	2
200.4	5
200.5	8
200.6	8
200.7	7
200.8	9
200.9	17
201.0	28
201.1	38
201.2	42
201.3	40
201.4	31
201.5	18
201.6	6
201.7	0
202.5	0
202.6	3
202.7	7
202.8	13
202.9	18
203.0	19
203.1	16
203.2	13
203.3	11
203.4	8
203.5	5
203.6	2
230.6	0
230.7	3
230.8	6
230.9	9
231.0	10
231.1	11
231.2	11
231.3	10
231.4	6
231.5	2
267.7	2
267.8	4
267.9	8
268.0	11
268.1	11
268.2	9
268.3	7
268.4	6
268.5	3
282.7	1
282.8	3
282.9	9
283.0	15
283.1	17
283.2	15
283.3	10
283.4	5
283.5	1
283.8	1
283.9	3
284.0	6
284.1	7
284.2	5
284.3	2
288.8	2
288.9	4
289.0	6
289.1	8
289.2	10
289.3	9
289.4	6
289.5	3
292.7	1
292.8	3
292.9	5
293.0	5
293.1	4
297.5	5
297.6	5
297.7	6
297.8	13
297.9	22
298.0	30
298.1	31
298.2	28
298.3	21
298.4	12
298.5	4
304.9	3
305.0	6
305.1	11
305.2	15
305.3	15
305.4	10
305.5	4
305.6	0
307.7	2
307.8	3
307.9	4
308.0	5
308.1	6
308.2	5
308.3	3
310.5	1
310.6	2
310.7	4
310.8	4
310.9	5
311.0	6
311.1	7
311.2	5
311.3	2
319.1	3
319.2	5
319.3	6
319.4	6
319.5	5
319.6	5
319.7	7
319.8	9
319.9	10
320.0	10
320.1	11
320.2	12
320.3	13
320.4	11
320.5	6
320.6	2
323.6	1
323.7	4
323.8	7
323.9	8
324.0	6
324.1	4
350.7	2
350.8	3
350.9	5
351.0	6
351.1	6
351.2	6
351.3	5
351.4	4
351.5	2
