Mass spectrum: Machilin D; LC-ESI-QQQ; MS2; Frag=135.0V CID@25.0; [M+Na]+
Name: Machilin D
Class: Lignans
Formula: C20H24O5
Exact mass: 344.4113
SMILES: C/C=C/c1ccc(OC(C)[C@@H](O)c2ccc(O)c(OC)c2)c(OC)c1
InChI: InChI=1S/C20H24O5/c1-5-6-14-7-10-17(19(11-14)24-4)25-13(2)20(22)15-8-9-16(21)18(12-15)23-3/h5-13,20-22H,1-4H3/b6-5+/t13?,20-/m1/s1
Instrument: Agilent 6410 Triple Quadrupole LC/MS system
Instrument type: LC-ESI-QQQ
Ms type: MS2
Ion mode: POSITIVE
Precursor type: [M+Na]+
m/z	relative intensity
82.1	8
82.2	8
82.3	10
82.4	13
82.5	14
82.6	11
82.7	8
91.1	9
91.2	10
91.3	13
91.4	15
91.5	13
91.6	9
104.5	7
104.6	10
104.7	12
104.8	11
104.9	11
105.0	12
105.1	13
105.2	11
105.3	8
106.9	8
107.0	14
107.1	21
107.2	22
107.3	17
107.4	10
108.4	6
108.5	9
108.6	12
108.7	13
108.8	11
108.9	8
114.2	6
114.3	8
114.4	9
114.5	10
114.6	9
114.7	9
116.9	6
117.0	8
117.1	11
117.2	14
117.3	13
117.4	11
117.5	7
132.7	9
132.8	14
132.9	25
133.0	41
133.1	52
133.2	49
133.3	35
133.4	19
133.5	10
134.7	8
134.8	10
134.9	12
135.0	14
135.1	14
135.2	12
135.3	8
140.6	5
140.7	7
140.8	10
140.9	12
141.0	10
142.7	6
142.8	8
142.9	14
143.0	26
143.1	38
143.2	40
143.3	29
143.4	15
143.5	7
150.8	8
150.9	9
151.0	11
151.1	12
151.2	10
154.0	6
154.1	8
154.2	11
154.3	12
154.4	10
158.4	4
158.5	7
158.6	10
158.7	12
158.8	12
158.9	11
159.0	10
159.1	9
161.0	7
161.1	7
161.2	16
161.3	34
161.4	48
161.5	44
161.7	29
161.8	43
161.9	54
162.0	51
162.1	47
162.2	49
162.3	48
162.4	34
170.5	4
170.6	5
170.7	13
170.8	36
170.9	66
171.0	81
171.1	65
171.2	32
171.3	7
173.5	8
173.6	10
173.7	13
173.8	14
173.9	13
174.0	12
174.1	14
174.2	19
174.3	24
174.4	25
174.5	19
174.6	11
175.9	5
176.0	5
176.1	13
176.2	33
176.3	51
176.4	51
176.5	31
176.6	10
185.6	5
185.7	9
185.8	15
185.9	23
186.0	38
186.1	58
186.2	69
186.3	58
186.4	33
186.5	12
186.6	3
187.2	3
187.3	9
187.4	22
187.5	41
187.6	56
187.7	67
187.8	76
187.9	81
188.0	70
188.1	44
188.2	20
188.3	10
189.9	3
190.0	9
190.1	25
190.2	45
190.3	54
190.4	43
190.5	21
190.6	6
190.8	2
190.9	10
191.0	27
191.1	47
191.2	54
191.3	41
191.4	18
191.5	4
202.1	5
202.2	8
202.3	10
202.4	10
202.5	8
202.6	9
202.7	20
202.8	39
202.9	58
203.0	61
203.1	47
203.2	27
203.3	13
203.8	4
203.9	5
204.0	22
204.1	54
204.2	79
204.3	73
204.4	42
204.5	12
218.7	7
218.8	8
218.9	12
219.0	15
219.1	15
219.2	13
219.3	10
219.4	8
242.7	8
242.8	10
242.9	13
243.0	13
243.1	10
322.4	4
322.5	7
322.6	15
322.7	21
322.8	22
322.9	16
323.0	8
