Mass spectrum: Avermectin B1a; LC-ESI-QQQ; MS; [M+H]+
Name: Avermectin B1a
Class: Polyketides
Formula: C48H72O14
Exact mass: 873.1006
SMILES: CCC(C)[C@H]1O[C@]2(C=C[C@@H]1C)C[C@@H]1C[C@@H](C/C=C(\C)[C@@H](O[C@H]3C[C@H](OC)[C@@H](O[C@H]4C[C@H](OC)[C@@H](O)[C@H](C)O4)[C@H](C)O3)[C@@H](C)/C=C/C=C3\CO[C@@H]4[C@H](O)C(C)=C[C@@H](C(=O)O1)[C@]34O)O2
InChI: InChI=1S/C48H72O14/c1-11-25(2)43-28(5)17-18-47(62-43)23-34-20-33(61-47)16-15-27(4)42(26(3)13-12-14-32-24-55-45-40(49)29(6)19-35(46(51)58-34)48(32,45)52)59-39-22-37(54-10)44(31(8)57-39)60-38-21-36(53-9)41(50)30(7)56-38/h12-15,17-19,25-26,28,30-31,33-45,49-50,52H,11,16,20-24H2,1-10H3/b13-12+,27-15+,32-14+/t25?,26-,28-,30-,31-,33+,34-,35-,36-,37-,38-,39-,40+,41-,42-,43+,44-,45+,47+,48+/m0/s1
Instrument: ABSciex API3200 LC/MS system
Instrument type: LC-ESI-QQQ
Ms type: MS
Ion mode: POSITIVE
Precursor type: [M+H]+
m/z	relative intensity
100.1000	72
100.9000	40
108.5000	35
108.6000	56
108.7000	120
108.9000	38
109.0000	30
109.1000	63
109.2000	29
109.3000	30
109.7000	30
112.6000	61
112.7000	48
113.1000	34
113.2000	56
113.4000	32
113.7000	22
114.2000	21
118.6000	24
118.9000	24
119.2000	36
120.5000	50
120.6000	66
120.7000	26
120.8000	78
120.9000	34
121.0000	79
121.3000	62
122.6000	45
122.7000	62
122.8000	63
122.9000	83
123.1000	61
123.2000	54
123.3000	88
123.4000	75
123.5000	36
132.5000	25
132.8000	64
133.3000	102
134.7000	45
135.1000	25
135.2000	26
135.3000	84
136.6000	47
136.7000	45
136.9000	44
137.3000	48
139.8000	23
140.8000	46
143.1000	25
143.4000	27
144.4000	29
144.5000	189
144.8000	50
144.9000	61
145.0000	59
145.2000	29
145.3000	28
145.4000	42
146.9000	49
147.1000	27
147.2000	27
148.7000	38
148.8000	52
149.3000	49
150.5000	22
150.6000	21
150.7000	77
150.8000	86
150.9000	56
151.0000	31
151.1000	44
151.3000	23
151.4000	25
151.5000	26
151.9000	28
153.3000	27
154.9000	23
155.0000	21
157.0000	24
157.7000	23
158.8000	38
160.9000	27
161.0000	26
161.1000	38
161.8000	29
162.5000	37
162.8000	32
163.0000	46
163.2000	23
163.3000	37
168.6000	33
168.7000	43
168.9000	41
169.1000	45
169.4000	47
170.7000	26
170.8000	24
171.3000	27
172.9000	26
174.5000	27
174.8000	25
175.0000	36
175.1000	26
175.4000	38
176.8000	45
176.9000	21
177.0000	56
177.3000	36
178.8000	35
184.8000	24
192.5000	25
192.6000	85
192.7000	81
192.8000	93
192.9000	90
193.0000	103
193.1000	170
193.2000	124
193.3000	105
193.4000	72
193.5000	139
193.7000	49
193.9000	38
194.0000	26
194.1000	46
194.2000	170
194.9000	28
195.5000	28
196.9000	39
198.6000	84
198.8000	75
198.9000	149
199.0000	44
199.1000	35
199.2000	90
199.5000	67
199.8000	28
200.0000	35
200.1000	49
202.5000	51
205.3000	28
206.7000	34
206.9000	44
207.0000	24
207.1000	135
214.7000	27
214.8000	27
215.0000	26
216.4000	28
216.5000	25
216.6000	68
216.7000	23
216.8000	78
216.9000	23
217.0000	55
217.2000	21
217.3000	32
218.0000	28
218.3000	29
220.6000	40
220.7000	103
220.8000	47
220.9000	46
221.0000	65
221.2000	113
221.3000	29
221.4000	37
221.5000	87
222.0000	25
222.9000	33
224.3000	139
224.4000	37
224.6000	53
224.7000	23
225.1000	22
225.3000	32
225.4000	33
226.1000	30
227.1000	27
235.0000	28
238.7000	30
238.9000	39
239.0000	29
239.1000	73
239.3000	41
239.4000	30
242.3000	28
242.4000	120
242.5000	256
242.6000	297
242.7000	370
242.8000	405
242.9000	370
243.0000	440
243.1000	429
243.2000	281
243.3000	242
243.4000	287
243.5000	174
243.6000	114
243.7000	47
243.8000	47
243.9000	59
244.0000	91
244.1000	48
244.2000	36
244.3000	50
244.4000	60
244.6000	40
244.7000	61
244.8000	37
245.0000	28
253.2000	27
256.6000	40
256.7000	84
256.8000	27
257.0000	29
257.1000	37
257.2000	28
257.3000	64
257.4000	55
260.8000	26
260.9000	46
261.1000	34
261.2000	35
262.9000	28
265.0000	27
269.1000	28
270.9000	28
271.0000	39
271.2000	39
271.5000	30
271.6000	31
275.3000	28
283.0000	39
283.3000	39
286.8000	69
287.0000	25
287.1000	49
287.2000	39
287.4000	26
288.0000	30
288.4000	41
288.5000	28
288.6000	69
288.7000	92
288.8000	122
288.9000	76
289.0000	65
289.1000	68
289.2000	43
289.3000	100
289.4000	35
289.5000	38
289.7000	29
293.1000	27
304.4000	116
304.5000	521
304.6000	844
304.7000	999
304.8000	820
304.9000	862
305.0000	910
305.1000	853
305.2000	916
305.3000	974
305.4000	628
305.5000	514
305.6000	243
305.7000	274
305.8000	253
305.9000	155
306.0000	178
306.1000	236
306.2000	217
306.3000	183
306.4000	86
306.5000	199
306.6000	253
306.7000	348
306.8000	345
306.9000	532
307.0000	397
307.1000	471
307.2000	348
307.3000	427
307.4000	322
307.5000	173
307.6000	81
307.7000	41
307.8000	51
307.9000	72
308.0000	73
308.1000	75
308.2000	33
308.3000	89
308.4000	45
308.5000	47
308.6000	50
308.7000	28
315.4000	49
318.4000	41
319.2000	24
321.3000	27
326.8000	26
328.9000	30
358.4000	31
370.2000	29
374.6000	31
376.0000	31
381.0000	30
381.1000	42
381.4000	53
388.8000	29
401.0000	31
407.1000	29
407.2000	75
417.3000	31
444.7000	30
448.6000	24
450.6000	40
451.1000	28
451.3000	29
451.4000	30
470.2000	31
474.8000	30
476.4000	31
487.1000	31
507.1000	29
512.1000	31
514.9000	31
525.3000	29
525.4000	30
529.3000	21
530.6000	52
530.7000	63
530.8000	73
530.9000	63
531.0000	62
531.1000	50
531.2000	61
531.3000	51
531.4000	85
532.6000	31
532.7000	42
544.3000	21
546.7000	50
546.8000	50
546.9000	82
547.2000	28
548.4000	30
548.5000	62
548.6000	157
548.7000	141
548.8000	263
548.9000	151
549.0000	197
549.1000	249
549.2000	150
549.3000	197
549.4000	127
549.5000	102
549.6000	70
549.7000	26
549.8000	94
549.9000	92
550.0000	49
550.1000	94
550.2000	71
550.3000	116
550.4000	29
550.9000	49
551.0000	26
551.1000	27
551.2000	50
551.3000	51
551.5000	52
564.7000	57
564.8000	21
564.9000	77
565.0000	77
565.1000	66
565.2000	23
565.3000	45
565.4000	45
565.6000	51
566.0000	39
566.3000	51
566.4000	60
566.5000	54
566.6000	125
566.7000	135
566.8000	263
566.9000	748
567.0000	605
567.1000	220
567.2000	205
567.3000	242
567.4000	136
567.5000	125
567.6000	114
567.7000	67
567.8000	32
567.9000	100
568.0000	102
568.1000	44
568.2000	100
568.3000	35
568.4000	135
568.5000	29
568.7000	40
569.0000	51
569.1000	40
569.3000	41
569.4000	41
569.5000	42
569.9000	30
570.1000	53
584.8000	40
585.0000	27
585.1000	118
585.2000	84
585.3000	40
585.4000	40
585.6000	29
585.8000	31
586.3000	31
625.0000	30
626.1000	31
642.6000	41
642.8000	28
642.9000	40
643.0000	40
643.1000	29
643.2000	52
643.3000	62
644.0000	42
644.1000	30
657.1000	42
660.6000	29
660.7000	27
660.8000	49
660.9000	26
661.0000	38
661.1000	35
661.2000	38
661.3000	38
661.4000	71
661.5000	29
661.7000	29
661.8000	29
661.9000	39
662.1000	28
663.6000	21
674.9000	94
675.0000	127
675.1000	39
675.2000	46
675.3000	27
675.6000	41
675.7000	29
676.1000	29
676.2000	30
677.2000	30
678.7000	26
679.4000	26
692.5000	49
692.6000	134
692.7000	173
692.8000	203
692.9000	158
693.0000	178
693.1000	414
693.2000	301
693.3000	182
693.4000	207
693.5000	123
693.6000	69
693.7000	90
693.8000	77
693.9000	166
694.0000	112
694.1000	100
694.2000	77
694.3000	179
694.4000	170
694.5000	62
694.6000	29
694.7000	51
694.9000	61
695.1000	40
695.2000	50
695.3000	29
695.4000	51
696.5000	31
709.1000	30
710.4000	31
710.6000	80
710.7000	34
710.8000	91
710.9000	77
711.0000	64
711.1000	78
711.2000	77
711.3000	44
711.4000	24
711.5000	50
711.6000	60
711.8000	38
712.0000	27
712.1000	36
712.2000	38
712.3000	71
712.5000	39
713.1000	52
713.2000	31
713.4000	31
728.7000	51
728.9000	40
729.1000	72
729.2000	73
729.4000	73
729.6000	31
730.2000	41
804.6000	42
804.9000	39
836.5000	41
836.6000	41
836.9000	28
837.0000	27
837.1000	72
837.2000	92
837.3000	51
837.4000	29
837.6000	29
837.8000	40
837.9000	41
838.0000	30
840.4000	21
854.5000	42
854.6000	41
854.7000	63
854.8000	53
855.1000	29
855.2000	64
855.3000	41
855.4000	75
855.5000	40
855.9000	42
856.1000	30
856.7000	42
857.0000	31
857.2000	31
872.5000	63
872.9000	39
873.0000	28
873.2000	238
873.3000	27
873.5000	29
874.0000	30
875.4000	30
889.5000	35
889.9000	71
890.2000	64
890.3000	116
890.5000	43
890.6000	30
890.7000	22
890.9000	29
891.0000	33
891.4000	23
892.5000	25
906.2000	24
917.9000	30
941.7000	21
962.5000	21
1000.2000	32
1035.4000	21
1114.5000	43
1114.8000	42
1114.9000	42
1115.2000	42
1115.5000	31
1116.1000	31
1117.8000	21
1258.9000	32
1259.7000	32
1259.8000	32
1368.6000	21
1386.6000	21
1402.5000	32
1403.6000	21
1403.7000	21
1404.8000	21
