Mass spectrum: Heliotrine; LC-ESI-QQQ; MS2; Frag=135.0V CID@25.0; [M+H]+
Name: Heliotrine
Class: Alkaloids
Formula: C16H27NO5
Exact mass: 313.3973
SMILES: COC(C)C(O)(C(=O)OCC1=CCN2CCC(O)[C@@H]12)C(C)C
InChI: InChI=1S/C16H27NO5/c1-10(2)16(20,11(3)21-4)15(19)22-9-12-5-7-17-8-6-13(18)14(12)17/h5,10-11,13-14,18,20H,6-9H2,1-4H3/t11?,13?,14-,16?/m1/s1
Instrument: Agilent 6410 Triple Quadrupole LC/MS system
Instrument type: LC-ESI-QQQ
Ms type: MS2
Ion mode: POSITIVE
Precursor type: [M+H]+
m/z	relative intensity
93.5	1
93.6	2
93.7	5
93.8	7
93.9	10
94.0	12
94.1	12
94.2	12
94.3	10
94.4	7
94.5	4
95.6	2
95.7	4
95.8	7
95.9	10
96.0	12
96.1	14
96.2	13
96.3	12
96.4	9
96.5	5
96.6	1
119.5	1
119.6	2
119.7	4
119.8	7
119.9	10
120.0	12
120.1	13
120.2	13
120.3	12
120.4	9
120.5	5
120.6	2
137.3	0
137.4	2
137.5	7
137.6	15
137.7	30
137.8	51
137.9	74
138.0	92
138.1	99
138.2	95
138.3	81
138.4	59
138.5	33
138.6	11
138.7	0
155.4	1
155.5	3
155.6	6
155.7	11
155.8	18
155.9	27
156.0	35
156.1	39
156.2	39
156.3	35
156.4	28
156.5	17
156.6	7
156.7	0
