Mass spectrum: Thalicarpine; LC-ESI-QQQ; MS2; Frag=135.0V CID@25.0; [M+H]+
Name: Thaliblastine
Name: Taliblastine
Name: Thalicarpin
Name: Taliblastin
Name: Thalicarpine
Class: Alkaloids
Formula: C41H48N2O8
Exact mass: 696.8483
SMILES: COc1cc(CC2c3cc(OC)c(OC)cc3CCN2C)c(Oc2cc3c(cc2OC)-c2c(OC)c(OC)cc4c2C(C3)N(C)CC4)cc1OC
InChI: InChI=1S/C41H48N2O8/c1-42-12-10-23-16-32(44-3)34(46-5)20-27(23)29(42)15-26-19-33(45-4)36(48-7)22-31(26)51-37-18-25-14-30-39-24(11-13-43(30)2)17-38(49-8)41(50-9)40(39)28(25)21-35(37)47-6/h16-22,29-30H,10-15H2,1-9H3
Instrument: Agilent 6410 Triple Quadrupole LC/MS system
Instrument type: LC-ESI-QQQ
Ms type: MS2
Ion mode: POSITIVE
Precursor type: [M+H]+
m/z	relative intensity
442.0	3
442.1	4
442.2	10
442.3	21
442.4	33
442.5	40
442.6	40
442.7	32
442.8	21
442.9	11
696.2	4
696.3	8
696.4	12
696.5	13
696.6	10
696.8	1
696.9	9
697.0	30
697.1	62
697.2	92
697.3	98
697.4	74
697.5	35
697.6	6
