Mass spectrum: Lagohirsin; LC-ESI-QQQ; MS2; Frag=135.0V CID@15.0; [M+Na]+
Name: Lagohirsin
Class: Terpenoids
Formula: C20H32O5
Exact mass: 352.475
SMILES: C[C@@H]1CCC2[C@](C)(CC[C@H](O)[C@@]2(C)CO)[C@@]12CCC1(COC(=O)C1)O2
InChI: InChI=1S/C20H32O5/c1-13-4-5-14-17(2,11-21)15(22)6-7-18(14,3)20(13)9-8-19(25-20)10-16(23)24-12-19/h13-15,21-22H,4-12H2,1-3H3/t13-,14?,15+,17+,18+,19?,20-/m1/s1
Instrument: Agilent 6410 Triple Quadrupole LC/MS system
Instrument type: LC-ESI-QQQ
Ms type: MS2
Ion mode: POSITIVE
Precursor type: [M+Na]+
m/z	relative intensity
94.7	2
94.8	3
94.9	5
95.0	5
95.1	5
95.2	3
118.8	1
118.9	3
119.0	4
119.1	4
119.2	3
122.8	1
122.9	3
123.0	4
123.1	4
123.2	2
132.1	0
132.2	1
132.3	4
132.4	6
132.5	7
132.6	7
132.7	13
132.8	25
132.9	41
133.0	53
133.1	55
133.2	48
133.3	32
133.4	15
133.5	3
140.6	1
140.7	2
140.8	4
140.9	6
141.0	7
141.1	7
141.2	6
141.3	5
141.4	4
148.5	0
148.6	1
148.7	5
148.8	13
148.9	23
149.0	33
149.1	38
149.2	39
149.3	35
149.4	27
149.5	17
149.6	6
149.7	0
158.5	2
158.6	3
158.7	4
158.8	6
158.9	11
159.0	15
159.1	15
159.2	11
159.3	5
159.4	1
162.8	2
162.9	4
163.0	5
163.1	6
163.2	4
163.3	2
166.8	1
166.9	3
167.0	5
167.1	6
167.2	6
167.3	4
167.4	3
172.4	1
172.5	2
172.6	4
172.7	9
172.8	14
172.9	18
173.0	21
173.1	21
173.2	21
173.3	20
173.4	17
173.5	11
173.6	4
178.7	0
178.8	2
178.9	4
179.0	7
179.1	8
179.2	6
179.3	2
180.1	0
180.2	1
180.3	6
180.4	12
180.5	16
180.6	21
180.7	34
180.8	56
180.9	78
181.0	91
181.1	98
181.2	99
181.3	89
181.4	64
181.5	31
181.6	6
181.7	0
184.6	1
184.7	3
184.8	5
184.9	5
185.0	4
186.2	1
186.3	4
186.4	6
186.5	7
186.6	7
186.7	8
186.8	12
186.9	19
187.0	28
187.1	34
187.2	37
187.3	36
187.4	29
187.5	17
187.6	6
187.7	0
197.0	3
197.1	6
197.2	11
197.3	13
197.4	10
197.5	5
197.6	1
198.8	2
198.9	4
199.0	6
199.1	6
199.2	5
199.3	3
210.9	1
211.0	3
211.1	6
211.2	8
211.3	6
211.4	4
238.4	0
238.5	2
238.6	5
238.7	9
238.8	12
238.9	17
239.0	25
239.1	34
239.2	38
239.3	35
239.4	26
239.5	15
239.6	5
239.7	0
252.7	2
252.8	3
252.9	5
253.0	5
253.1	5
253.2	4
253.3	4
253.4	3
274.9	1
275.0	3
275.1	4
275.2	4
275.3	3
276.4	2
276.5	3
276.6	4
276.7	6
276.8	9
276.9	14
277.0	23
277.1	33
277.2	38
277.3	33
277.4	20
277.5	7
277.6	1
280.4	0
280.5	2
280.6	5
280.7	7
280.8	7
280.9	6
281.0	8
281.1	10
281.2	11
281.3	9
281.4	7
281.5	5
281.6	3
298.4	1
298.5	3
298.6	6
298.7	9
298.8	13
298.9	16
299.0	18
299.1	23
299.2	30
299.3	36
299.4	32
299.5	21
299.6	8
299.7	1
304.7	3
304.8	7
304.9	17
305.0	35
305.1	53
305.2	61
305.3	55
305.4	41
305.5	24
305.6	11
305.7	2
316.3	0
316.4	2
316.5	5
316.6	10
316.7	15
316.8	24
316.9	38
317.0	56
317.1	76
317.2	90
317.3	92
317.4	75
317.5	45
317.6	16
317.7	2
334.5	1
334.6	2
334.7	7
334.8	18
334.9	35
335.0	51
335.1	64
335.2	73
335.3	79
335.4	78
335.5	61
335.6	32
335.7	6
335.8	0
369.8	2
369.9	6
370.0	11
370.1	15
370.2	15
370.3	14
370.4	13
370.5	12
370.6	8
370.7	3
