Mass spectrum: Testosterone; LC-ESI-QQQ; MS2; Frag=135.0V CID@25.0; [M+H]+
Name: Testosterone
Class: Steroids
Formula: C19H28O2
Exact mass: 288.4338
SMILES: C[C@]12CC[C@H]3[C@@H](CCC4=CC(=O)CC[C@@]43C)[C@@H]1CC[C@@H]2O
InChI: InChI=1S/C19H28O2/c1-18-9-7-13(20)11-12(18)3-4-14-15-5-6-17(21)19(15,2)10-8-16(14)18/h11,14-17,21H,3-10H2,1-2H3/t14-,15-,16-,17-,18-,19-/m0/s1
Instrument: Agilent 6410 Triple Quadrupole LC/MS system
Instrument type: LC-ESI-QQQ
Ms type: MS2
Ion mode: POSITIVE
Precursor type: [M+H]+
m/z	relative intensity
80.6	1
80.7	3
80.8	4
80.9	6
81.0	6
81.1	6
81.2	6
81.3	5
81.4	4
81.5	2
96.2	0
96.3	1
96.4	5
96.5	13
96.6	25
96.7	40
96.8	59
96.9	79
97.0	94
97.1	99
97.2	94
97.3	80
97.4	57
97.5	30
97.6	8
97.7	0
108.2	0
108.3	1
108.4	4
108.5	10
108.6	20
108.7	33
108.8	50
108.9	68
109.0	82
109.1	88
109.2	85
109.3	74
109.4	57
109.5	34
109.6	13
109.7	0
122.6	1
122.7	3
122.8	4
122.9	6
123.0	7
123.1	8
123.2	7
123.3	6
123.4	5
123.5	2
