Mass spectrum: Scopadonnine; LC-ESI-QQQ; MS; [M+H]+
Name: Scopadonnine
Class: Alkaloids
Formula: C34H38N2O6
Exact mass: 570.6918
SMILES: CN1C2CC(OC(=O)C3CCC(C(=O)OC4CC5C6OC6C(C4)N5C)(c4ccccc4)c4ccccc43)CC1C1OC12
InChI: InChI=1S/C34H38N2O6/c1-35-24-14-19(15-25(35)29-28(24)41-29)39-32(37)22-12-13-34(18-8-4-3-5-9-18,23-11-7-6-10-21(22)23)33(38)40-20-16-26-30-31(42-30)27(17-20)36(26)2/h3-11,19-20,22,24-31H,12-17H2,1-2H3
Instrument: ABSciex API3200 LC/MS system
Instrument type: LC-ESI-QQQ
Ms type: MS
Ion mode: POSITIVE
Precursor type: [M+H]+
m/z	relative intensity
109.7000	25
109.8000	22
109.9000	31
110.0000	28
110.1000	34
110.2000	26
110.3000	33
110.4000	25
110.5000	22
118.5000	38
119.5000	26
128.8000	27
128.9000	29
129.0000	28
129.1000	24
129.2000	27
129.3000	26
137.4000	21
137.5000	128
137.6000	232
137.7000	259
137.8000	281
137.9000	317
138.0000	290
138.1000	275
138.2000	260
138.3000	228
138.4000	201
138.5000	129
138.6000	41
138.7000	27
138.9000	27
139.0000	28
139.1000	32
139.2000	42
139.3000	52
141.6000	28
141.7000	23
154.9000	21
155.0000	29
155.1000	29
155.2000	27
155.3000	26
155.4000	26
155.5000	98
155.6000	101
155.7000	105
155.8000	113
155.9000	117
156.0000	97
156.1000	111
156.2000	105
156.3000	131
156.4000	59
156.5000	31
194.0000	50
194.1000	74
194.2000	74
194.3000	86
194.4000	85
194.5000	99
194.6000	97
194.7000	104
194.8000	185
194.9000	71
195.0000	46
195.1000	37
195.2000	49
195.4000	23
204.4000	31
204.5000	54
204.6000	73
204.7000	82
204.8000	77
204.9000	80
205.0000	76
205.1000	80
205.2000	81
205.3000	76
205.4000	74
205.5000	41
206.0000	23
233.0000	22
278.6000	24
278.7000	34
278.8000	48
278.9000	36
279.0000	70
279.1000	44
279.2000	42
279.3000	33
279.4000	37
279.5000	22
279.7000	21
285.4000	38
285.5000	240
285.6000	423
285.7000	546
285.8000	553
285.9000	619
286.0000	677
286.1000	781
286.2000	999
286.3000	997
286.4000	651
286.5000	461
286.6000	336
286.7000	303
286.8000	265
286.9000	246
287.0000	132
287.1000	88
287.2000	76
287.3000	74
287.4000	52
287.5000	32
306.7000	25
306.8000	29
306.9000	28
415.6000	30
415.7000	40
415.8000	39
415.9000	48
416.0000	38
416.1000	48
416.2000	41
416.3000	31
416.4000	28
433.5000	26
433.6000	50
433.7000	64
433.8000	66
433.9000	67
434.0000	65
434.1000	56
434.2000	66
434.3000	53
434.4000	45
434.5000	25
434.6000	27
570.6000	37
570.7000	61
570.8000	63
570.9000	64
571.0000	95
571.1000	84
571.2000	71
571.3000	66
571.4000	49
571.5000	28
571.6000	38
571.8000	26
571.9000	31
572.0000	25
572.1000	24
572.2000	25
