Mass spectrum: Isomajdine; LC-ESI-QQQ; MS; [M+H]+
Name: methyl (10S,15S,16S,18S,22S)-6,7-dimethoxy-22-methyl-2-oxo-21-oxa-12-azaspiro(indoline-3,6'-tricyclo(7.4.0.0(3,7))tridecane)-19-ene-19-carboxylate
Name: Isomajdine
Class: Alkaloids
Formula: C23H28N2O6
Exact mass: 428.4894
SMILES: COC(=O)C1=CO[C@@H](C)[C@@H]2CN3CC[C@@]4(C(O)=Nc5c4ccc(OC)c5OC)[C@@H]3C[C@H]12
InChI: InChI=1S/C23H28N2O6/c1-12-14-10-25-8-7-23(18(25)9-13(14)15(11-31-12)21(26)30-4)16-5-6-17(28-2)20(29-3)19(16)24-22(23)27/h5-6,11-14,18H,7-10H2,1-4H3,(H,24,27)/t12-,13-,14-,18-,23-/m0/s1
Instrument: ABSciex API3200 LC/MS system
Instrument type: LC-ESI-QQQ
Ms type: MS
Ion mode: POSITIVE
Precursor type: [M+H]+
m/z	relative intensity
219.5000	31
219.6000	44
219.7000	50
219.8000	57
219.9000	56
220.0000	60
220.1000	64
220.2000	55
220.3000	59
220.4000	53
260.5000	23
260.6000	37
260.7000	41
260.8000	41
260.9000	47
261.0000	37
261.1000	35
261.2000	34
261.3000	30
261.4000	30
299.0000	24
299.1000	24
352.8000	24
352.9000	23
353.1000	22
396.4000	79
396.5000	186
396.6000	253
396.7000	273
396.8000	295
396.9000	283
397.0000	282
397.1000	277
397.2000	284
397.3000	249
397.4000	201
397.5000	104
397.6000	90
397.7000	89
397.8000	88
397.9000	84
398.0000	82
398.1000	88
398.2000	81
398.3000	70
398.4000	61
398.5000	30
398.6000	24
398.7000	21
398.8000	21
398.9000	22
399.0000	26
399.1000	25
426.6000	23
426.7000	29
426.8000	29
426.9000	29
427.0000	29
427.1000	31
427.2000	28
427.3000	26
428.2000	43
428.3000	231
428.4000	586
428.5000	860
428.6000	965
428.7000	973
428.8000	980
428.9000	998
429.0000	999
429.1000	970
429.2000	930
429.3000	873
429.4000	764
429.5000	488
429.6000	492
429.7000	538
429.8000	534
429.9000	522
430.0000	538
430.1000	524
430.2000	524
430.3000	491
430.4000	411
430.5000	225
430.6000	195
430.7000	182
430.8000	181
430.9000	174
431.0000	207
431.1000	166
431.2000	149
431.3000	137
431.4000	114
431.5000	54
431.6000	37
431.7000	31
431.8000	31
431.9000	29
432.0000	25
432.1000	24
432.2000	22
432.3000	21
