Mass spectrum: Feselol; LC-ESI-QQQ; MS2; Frag=135.0V CID@5.0; [M+H]+
Name: Feselol
Class: Benzopyranoids
Formula: C24H30O4
Exact mass: 382.5043
SMILES: CC1=CC[C@@H]2C(C)(C)[C@H](O)CC[C@@]2(C)[C@@H]1COc1ccc2ccc(=O)oc2c1
InChI: InChI=1S/C24H30O4/c1-15-5-9-20-23(2,3)21(25)11-12-24(20,4)18(15)14-27-17-8-6-16-7-10-22(26)28-19(16)13-17/h5-8,10,13,18,20-21,25H,9,11-12,14H2,1-4H3/t18-,20-,21-,24+/m1/s1
Instrument: Agilent 6410 Triple Quadrupole LC/MS system
Instrument type: LC-ESI-QQQ
Ms type: MS2
Ion mode: POSITIVE
Precursor type: [M+H]+
m/z	relative intensity
106.7	2
106.8	3
106.9	4
107.0	5
107.1	5
107.2	5
107.3	4
107.4	3
108.6	0
108.7	2
108.8	4
108.9	6
109.0	8
109.1	9
109.2	9
109.3	9
109.4	7
109.5	5
109.6	2
132.7	2
132.8	3
132.9	4
133.0	6
133.1	6
133.2	6
133.3	6
133.4	5
133.5	3
146.8	2
146.9	4
147.0	5
147.1	6
147.2	6
147.3	6
147.4	5
147.5	3
162.3	0
162.4	2
162.5	4
162.6	9
162.7	15
162.8	24
162.9	34
163.0	41
163.1	45
163.2	43
163.3	37
163.4	26
163.5	13
163.6	3
202.4	1
202.5	3
202.6	9
202.7	18
202.8	33
202.9	53
203.0	73
203.1	90
203.2	99
203.3	99
203.4	88
203.5	66
203.6	36
203.7	11
203.8	0
254.5	1
254.6	2
254.7	4
254.8	6
254.9	9
255.0	12
255.1	13
255.2	13
255.3	11
255.4	7
255.5	3
268.5	1
268.6	2
268.7	4
268.8	7
268.9	12
269.0	17
269.1	20
269.2	20
269.3	18
269.4	13
269.5	6
269.6	1
364.5	1
364.6	3
364.7	7
364.8	14
364.9	24
365.0	36
365.1	46
365.2	53
365.3	54
365.4	49
365.5	36
365.6	20
365.7	5
365.8	0
382.4	0
382.5	2
382.6	4
382.7	7
382.8	12
382.9	20
383.0	31
383.1	42
383.2	50
383.3	51
383.4	46
383.5	34
383.6	19
383.7	5
383.8	0
