Mass spectrum: Lasalocid A, Na salt; LC-ESI-QQQ; MS2; Frag=135.0V CID@15.0; [M+Na]+
Name: Lasalocid A, Na salt
Class: Polyketide
Formula: C34H53NaO8
Exact mass: 612.7865
SMILES: CC[C@H](C(=O)[C@H](C)[C@H](O)[C@@H](C)CCc1ccc(C)c([O-])c1C(=O)O)[C@@H]1O[C@@](CC)([C@@H]2CC[C@@](O)(CC)[C@@H](C)O2)C[C@H]1C.[Na+]
InChI: InChI=1S/C34H54O8.Na/c1-9-25(31-21(6)18-34(11-3,42-31)26-16-17-33(40,10-2)23(8)41-26)30(37)22(7)28(35)19(4)12-14-24-15-13-20(5)29(36)27(24)32(38)39;/h13,15,19,21-23,25-26,28,31,35-36,40H,9-12,14,16-18H2,1-8H3,(H,38,39);/q;+1/p-1/t19-,21+,22+,23+,25+,26-,28+,31+,33-,34+;/m0./s1
Instrument: Agilent 6410 Triple Quadrupole LC/MS system
Instrument type: LC-ESI-QQQ
Ms type: MS2
Ion mode: POSITIVE
Precursor type: [M+Na]+
m/z	relative intensity
612.3	0
612.4	1
612.5	4
612.6	9
612.7	15
612.8	22
612.9	34
613.0	50
613.1	67
613.2	83
613.3	95
613.4	99
613.5	93
613.6	73
613.7	43
613.8	14
613.9	0
