Mass spectrum: O-Methylcassyfiline; LC-ESI-QQQ; MS2; Frag=135.0V CID@5.0; [M+H]+
Name: O-Methylcassyfiline
Class: Alkaloids
Formula: C20H21NO5
Exact mass: 355.3941
SMILES: COc1cc2c(cc1OC)-c1c3c(c(OC)c4c1C(C2)NCC4)OCO3
InChI: InChI=1S/C20H21NO5/c1-22-14-7-10-6-13-16-11(4-5-21-13)18(24-3)20-19(25-9-26-20)17(16)12(10)8-15(14)23-2/h7-8,13,21H,4-6,9H2,1-3H3
Instrument: Agilent 6410 Triple Quadrupole LC/MS system
Instrument type: LC-ESI-QQQ
Ms type: MS2
Ion mode: POSITIVE
Precursor type: [M+H]+
m/z	relative intensity
308.8	2
308.9	3
309.0	4
309.1	6
309.2	6
309.3	5
309.4	4
309.5	2
338.3	0
338.4	2
338.5	6
338.6	12
338.7	21
338.8	36
338.9	57
339.0	79
339.1	94
339.2	99
339.3	93
339.4	73
339.5	44
339.6	16
339.7	0
355.6	2
355.7	3
355.8	5
355.9	9
356.0	13
356.1	17
356.2	19
356.3	19
356.4	15
356.5	10
356.6	4
