Mass spectrum: 2-dimethylaminoethyl cinnamate; LC-ESI-QQQ; MS; [M+H]+
Name: 2-dimethylaminoethyl cinnamate
Class: Carbohydrates
Formula: C13H17NO2
Exact mass: 219.2859
SMILES: CN(C)CCOC(=O)/C=C/c1ccccc1
InChI: InChI=1S/C13H17NO2/c1-14(2)10-11-16-13(15)9-8-12-6-4-3-5-7-12/h3-9H,10-11H2,1-2H3/b9-8+
Instrument: ABSciex API3200 LC/MS system
Instrument type: LC-ESI-QQQ
Ms type: MS
Ion mode: POSITIVE
Precursor type: [M+H]+
m/z	relative intensity
102.4000	130
102.5000	271
102.6000	379
102.7000	414
102.8000	419
102.9000	509
103.0000	433
103.1000	382
103.2000	355
103.3000	354
103.4000	302
103.5000	86
103.6000	33
103.7000	40
103.8000	36
103.9000	40
104.0000	36
104.1000	32
104.2000	27
104.3000	21
104.4000	22
117.8000	24
130.4000	264
130.5000	517
130.6000	618
130.7000	673
130.8000	618
130.9000	662
131.0000	640
131.1000	592
131.2000	506
131.3000	449
131.4000	456
131.5000	194
131.6000	72
131.7000	89
131.8000	78
131.9000	84
132.0000	80
132.1000	63
132.2000	71
132.3000	51
132.4000	71
174.3000	48
174.4000	271
174.5000	373
174.6000	438
174.7000	473
174.8000	496
174.9000	412
175.0000	366
175.1000	343
175.2000	382
175.3000	337
175.4000	322
175.5000	148
175.6000	68
175.7000	70
175.8000	67
175.9000	74
176.0000	82
176.1000	56
176.2000	70
176.3000	54
176.4000	45
219.4000	148
219.5000	600
219.6000	825
219.7000	927
219.8000	928
219.9000	971
220.0000	994
220.1000	999
220.2000	933
220.3000	895
220.4000	861
220.5000	502
220.6000	257
220.7000	234
220.8000	227
220.9000	207
221.0000	229
221.1000	222
221.2000	200
221.3000	245
221.4000	306
221.5000	109
221.6000	31
221.7000	25
222.0000	43
222.1000	98
222.2000	21
