Mass spectrum: Crustecdysone; LC-ESI-QQQ; MS2; Frag=135.0V CID@10.0; [M+H]+
Name: Crustecdysone
Class: Steroids
Formula: C27H44O7
Exact mass: 480.6475
SMILES: CC(C)(O)CC[C@@H](O)[C@](C)(O)[C@H]1CC[C@@]2(O)C3=CC(=O)[C@@H]4C[C@@H](O)[C@@H](O)C[C@]4(C)[C@H]3CC[C@]12C
InChI: InChI=1S/C27H44O7/c1-23(2,32)9-8-22(31)26(5,33)21-7-11-27(34)16-12-18(28)17-13-19(29)20(30)14-24(17,3)15(16)6-10-25(21,27)4/h12,15,17,19-22,29-34H,6-11,13-14H2,1-5H3/t15-,17-,19+,20-,21-,22+,24+,25+,26+,27+/m0/s1
Instrument: Agilent 6410 Triple Quadrupole LC/MS system
Instrument type: LC-ESI-QQQ
Ms type: MS2
Ion mode: POSITIVE
Precursor type: [M+H]+
m/z	relative intensity
164.8	2
164.9	3
165.0	4
165.1	6
165.2	7
165.3	6
165.4	3
302.6	1
302.7	2
302.8	4
302.9	7
303.0	10
303.1	12
303.2	12
303.3	10
303.4	6
303.5	2
370.3	1
370.4	2
370.5	4
370.6	5
370.7	8
370.8	14
370.9	25
371.0	42
371.1	62
371.2	77
371.3	79
371.4	65
371.5	41
371.6	18
371.7	3
426.5	0
426.6	2
426.7	4
426.8	8
426.9	11
427.0	14
427.1	16
427.2	17
427.3	18
427.4	18
427.5	15
427.6	10
427.7	4
444.4	1
444.5	3
444.6	7
444.7	11
444.8	19
444.9	31
445.0	49
445.1	69
445.2	88
445.3	99
445.4	99
445.5	85
445.6	57
445.7	25
445.8	3
462.8	3
462.9	5
463.0	8
463.1	13
463.2	18
463.3	22
463.4	24
463.5	22
463.6	15
463.7	6
463.8	0
480.7	3
480.8	4
480.9	6
481.0	10
481.1	13
481.2	17
481.3	19
481.4	19
481.5	15
481.6	9
481.7	4
481.8	0
