Mass spectrum: Peuarenin; LC-ESI-QQQ; MS; [M+H]+
Name: Peuarenin
Class: Benzopyranoids
Formula: C24H26O9
Exact mass: 458.4694
SMILES: CC1OC1(C)C(=O)OC1c2cc3ccc(=O)oc3cc2OC(C)(C)C1OC(=O)C1(C)OC1C
InChI: InChI=1S/C24H26O9/c1-11-23(5,31-11)20(26)29-18-14-9-13-7-8-17(25)28-15(13)10-16(14)33-22(3,4)19(18)30-21(27)24(6)12(2)32-24/h7-12,18-19H,1-6H3
Instrument: ABSciex API3200 LC/MS system
Instrument type: LC-ESI-QQQ
Ms type: MS
Ion mode: POSITIVE
Precursor type: [M+H]+
m/z	relative intensity
226.4000	22
226.5000	25
226.6000	30
226.7000	38
226.8000	30
226.9000	39
227.0000	46
227.1000	48
227.2000	32
227.3000	39
227.4000	21
227.7000	88
227.8000	28
242.6000	23
242.7000	28
242.8000	27
242.9000	23
243.2000	34
243.3000	26
244.4000	23
244.5000	35
244.6000	42
244.7000	49
244.8000	57
244.9000	52
245.0000	40
245.1000	49
245.2000	40
245.3000	41
342.4000	87
342.5000	158
342.6000	195
342.7000	238
342.8000	323
342.9000	218
343.0000	208
343.1000	179
343.2000	175
343.3000	166
343.4000	100
343.5000	44
343.6000	44
343.7000	41
343.8000	53
343.9000	59
344.0000	72
344.1000	52
344.2000	34
344.3000	37
458.2000	25
458.3000	227
458.4000	579
458.5000	737
458.6000	805
458.7000	914
458.8000	935
458.9000	954
459.0000	999
459.1000	957
459.2000	835
459.3000	823
459.4000	479
459.5000	372
459.6000	385
459.7000	359
459.8000	371
459.9000	401
460.0000	329
460.1000	364
460.2000	333
460.3000	302
460.4000	165
460.5000	124
460.6000	89
460.7000	96
460.8000	102
460.9000	99
461.0000	102
461.1000	82
461.2000	82
461.3000	70
461.4000	24
461.5000	23
475.4000	21
475.5000	42
475.6000	56
475.7000	79
475.8000	90
475.9000	88
476.0000	82
476.1000	66
476.2000	85
476.3000	66
476.4000	42
476.5000	29
476.7000	33
476.9000	23
477.0000	21
477.1000	25
499.6000	24
499.7000	25
500.0000	25
500.1000	31
500.2000	23
500.3000	31
916.4000	41
916.5000	46
916.6000	62
916.7000	61
916.8000	61
916.9000	63
917.0000	66
917.1000	69
917.2000	46
917.3000	51
917.4000	29
917.5000	29
917.6000	24
917.7000	40
917.8000	30
917.9000	42
918.0000	25
918.1000	23
933.6000	25
933.7000	24
933.8000	25
933.9000	32
934.0000	23
934.1000	26
934.2000	25
934.3000	28
