Mass spectrum: Boldenone; LC-ESI-QQQ; MS2; Frag=135.0V CID@5.0; [M+H]+
Name: Boldenone
Class: Steroids
Formula: C19H26O2
Exact mass: 286.4179
SMILES: C[C@]12C=CC(=O)C=C1CCC1C2CC[C@]2(C)C(O)CCC12
InChI: InChI=1S/C19H26O2/c1-18-9-7-13(20)11-12(18)3-4-14-15-5-6-17(21)19(15,2)10-8-16(14)18/h7,9,11,14-17,21H,3-6,8,10H2,1-2H3/t14?,15?,16?,17?,18-,19-/m0/s1
Instrument: Agilent 6410 Triple Quadrupole LC/MS system
Instrument type: LC-ESI-QQQ
Ms type: MS2
Ion mode: POSITIVE
Precursor type: [M+H]+
m/z	relative intensity
120.4	1
120.5	3
120.6	5
120.7	7
120.8	11
120.9	16
121.0	20
121.1	22
121.2	22
121.3	18
121.4	13
121.5	7
121.6	2
134.4	1
134.5	2
134.6	5
134.7	9
134.8	15
134.9	24
135.0	32
135.1	37
135.2	38
135.3	36
135.4	30
135.5	20
135.6	9
135.7	2
146.7	2
146.8	3
146.9	5
147.0	6
147.1	7
147.2	7
147.3	7
147.4	5
147.5	2
148.8	2
148.9	3
149.0	4
149.1	5
149.2	6
149.3	6
149.4	4
149.5	3
172.6	2
172.7	3
172.8	6
172.9	9
173.0	12
173.1	14
173.2	14
173.3	13
173.4	11
173.5	7
173.6	2
178.8	3
178.9	4
179.0	5
179.1	6
179.2	7
179.3	6
179.4	6
179.5	4
179.6	1
268.6	1
268.7	3
268.8	7
268.9	12
269.0	18
269.1	23
269.2	26
269.3	26
269.4	22
269.5	15
269.6	6
269.7	0
286.4	1
286.5	3
286.6	7
286.7	14
286.8	25
286.9	44
287.0	66
287.1	87
287.2	99
287.3	99
287.4	88
287.5	64
287.6	34
287.7	9
287.8	0
