Mass spectrum: lycoperodine I; LC-ESI-QQQ; MS2; Frag=135.0V CID@25.0; [M+H]+
Name: lycoperodine I
Class: Flavonoids
Formula: C12H12N2O2
Exact mass: 216.2416
SMILES: O=C(O)[C@H]1Cc2c([nH]c3ccccc23)CN1
InChI: InChI=1S/C12H12N2O2/c15-12(16)10-5-8-7-3-1-2-4-9(7)14-11(8)6-13-10/h1-4,10,13-14H,5-6H2,(H,15,16)/t10-/m1/s1
Instrument: Agilent 6410 Triple Quadrupole LC/MS system
Instrument type: LC-ESI-QQQ
Ms type: MS2
Ion mode: POSITIVE
Precursor type: [M+H]+
m/z	relative intensity
73.7	2
73.8	4
73.9	6
74.0	7
74.1	7
74.2	7
74.3	5
74.4	3
142.6	2
142.7	3
142.8	4
142.9	6
143.0	7
143.1	8
143.2	9
143.3	9
143.4	11
143.5	13
143.6	18
143.7	29
143.8	49
143.9	72
144.0	91
144.1	99
144.2	96
144.3	83
144.4	61
144.5	33
144.6	9
144.7	0
