Mass spectrum: Nitrarine; LC-ESI-QQQ; MS2; Frag=135.0V CID@25.0; [M+H]+
Name: Nitrarine
Class: Alkaloids
Formula: C20H25N3
Exact mass: 307.4424
SMILES: c1ccc2c3c([nH]c2c1)[C@@H]1C2CCC([C@H]4CCCN[C@@H]24)N1CC3
InChI: InChI=1S/C20H25N3/c1-2-6-16-12(4-1)13-9-11-23-17-8-7-15(20(23)19(13)22-16)18-14(17)5-3-10-21-18/h1-2,4,6,14-15,17-18,20-22H,3,5,7-11H2/t14-,15?,17?,18-,20+/m1/s1
Instrument: Agilent 6410 Triple Quadrupole LC/MS system
Instrument type: LC-ESI-QQQ
Ms type: MS2
Ion mode: POSITIVE
Precursor type: [M+H]+
m/z	relative intensity
55.7	1
55.8	3
55.9	6
56.0	8
56.1	8
56.2	7
56.3	4
56.4	2
81.6	3
81.7	4
81.8	7
81.9	9
82.0	11
82.1	12
82.2	11
82.3	8
82.4	5
82.5	2
121.9	1
122.0	3
122.1	4
122.2	4
122.3	3
143.2	0
143.3	2
143.4	4
143.5	6
143.6	9
143.7	17
143.8	29
143.9	43
144.0	52
144.1	54
144.2	49
144.3	40
144.4	28
144.5	14
144.6	3
155.8	3
155.9	5
156.0	7
156.1	8
156.2	8
156.3	6
156.4	3
157.3	0
157.4	1
157.5	5
157.6	13
157.7	27
157.8	43
157.9	59
158.0	71
158.1	79
158.2	81
158.3	76
158.4	61
158.5	37
158.6	14
158.7	1
169.3	2
169.4	4
169.5	6
169.6	9
169.7	15
169.8	28
169.9	46
170.0	63
170.1	71
170.2	70
170.3	62
170.4	51
170.5	37
170.8	23
170.9	35
171.0	47
171.1	54
171.2	55
171.3	50
171.4	38
171.5	20
171.6	5
171.7	0
181.3	2
181.4	3
181.5	5
181.6	8
181.7	13
181.8	21
181.9	31
182.0	40
182.1	45
182.2	45
182.3	40
182.4	30
182.5	17
182.6	6
182.7	0
183.7	1
183.8	2
183.9	4
184.0	5
184.1	5
184.2	3
195.6	2
195.7	4
195.8	7
195.9	11
196.0	15
196.1	17
196.2	16
196.3	13
196.4	9
196.5	5
207.7	1
207.8	3
207.9	5
208.0	6
208.1	6
208.2	5
208.3	4
208.4	2
224.3	2
224.4	4
224.5	8
224.6	15
224.7	25
224.8	42
224.9	65
225.0	87
225.1	99
225.2	99
225.3	90
225.4	72
225.5	48
225.6	22
225.7	3
307.4	1
307.5	2
307.6	5
307.7	8
307.8	15
307.9	25
308.0	38
308.1	51
308.2	60
308.3	61
308.4	53
308.5	36
308.6	17
308.7	3
