Mass spectrum: Pantoyl lactone; LC-ESI-QQQ; MS2; Frag=135.0V CID@25.0; [M+H]+
Name: Pantoyl lactone
Class: Oxygen heterocycles
Formula: C6H10O3
Exact mass: 130.1448
SMILES: CC1(C)COC(=O)C1O
InChI: InChI=1S/C6H10O3/c1-6(2)3-9-5(8)4(6)7/h4,7H,3H2,1-2H3
Instrument: Agilent 6410 Triple Quadrupole LC/MS system
Instrument type: LC-ESI-QQQ
Ms type: MS2
Ion mode: POSITIVE
Precursor type: [M+H]+
m/z	relative intensity
56.3	3
56.4	5
56.5	8
56.6	12
56.7	16
56.8	22
56.9	31
57.0	41
57.1	49
57.2	50
57.3	40
57.4	23
57.5	8
57.6	1
64.3	3
64.4	5
64.5	9
64.6	13
64.7	18
64.8	25
64.9	30
65.0	34
65.1	38
65.2	40
65.3	38
65.4	27
65.5	12
65.6	3
66.3	1
66.4	3
66.5	8
66.6	18
66.7	34
66.8	57
66.9	81
67.0	96
67.1	99
67.2	93
67.3	82
67.4	64
67.5	37
67.6	11
67.7	0
70.5	2
70.6	4
70.7	8
70.8	12
70.9	11
71.0	8
71.1	5
94.6	3
94.7	5
94.8	7
94.9	7
95.0	6
