Mass spectrum: Vanilloside; LC-ESI-QQQ; MS2; Frag=135.0V CID@15.0; [M+Na]+
Name: Vanilloside
Class: Carbohydrates
Formula: C14H18O8
Exact mass: 314.2948
SMILES: COc1cc(C=O)ccc1O[C@@H]1O[C@H](CO)[C@H](O)[C@H](O)[C@H]1O
InChI: InChI=1S/C14H18O8/c1-20-9-4-7(5-15)2-3-8(9)21-14-13(19)12(18)11(17)10(6-16)22-14/h2-5,10-14,16-19H,6H2,1H3/t10-,11+,12+,13-,14-/m1/s1
Instrument: Agilent 6410 Triple Quadrupole LC/MS system
Instrument type: LC-ESI-QQQ
Ms type: MS2
Ion mode: POSITIVE
Precursor type: [M+Na]+
m/z	relative intensity
174.7	3
174.8	4
174.9	5
175.0	6
175.1	5
175.2	5
175.3	3
184.3	2
184.4	4
184.5	5
184.6	5
184.7	4
184.8	3
184.9	3
185.0	6
185.1	8
185.2	7
185.3	4
336.3	0
336.4	2
336.5	7
336.6	15
336.7	28
336.8	45
336.9	63
337.0	79
337.1	92
337.2	99
337.3	88
337.4	56
337.5	20
337.6	0
