Mass spectrum: Rizinsan A; LC-ESI-QQQ; MS2; Frag=135.0V CID@10.0; [M+H]+
Name: Rizinsan A
Class: Terpenoids
Formula: C42H65NO16
Exact mass: 839.9835
SMILES: CC12CC[C@](C)(C(=O)O)CC1C1=CC(=O)[C@@H]3C4(C)CC[C@H](O[C@@H]5O[C@@H](C(=O)O)[C@H](O)[C@@H](O)[C@@H]5O[C@H]5O[C@@H](C(=O)O)[C@H](O)[C@@H](O)[C@@H]5O)C(C)(C)[C@@H]4CCC3(C)[C@]1(C)CC2.N
InChI: InChI=1S/C42H62O16.H3N/c1-37(2)21-8-11-42(7)31(20(43)16-18-19-17-39(4,36(53)54)13-12-38(19,3)14-15-41(18,42)6)40(21,5)10-9-22(37)55-35-30(26(47)25(46)29(57-35)33(51)52)58-34-27(48)23(44)24(45)28(56-34)32(49)50;/h16,19,21-31,34-35,44-48H,8-15,17H2,1-7H3,(H,49,50)(H,51,52)(H,53,54);1H3/t19?,21-,22-,23+,24+,25+,26+,27-,28+,29+,30-,31+,34+,35+,38?,39-,40?,41+,42?;/m0./s1
Instrument: Agilent 6410 Triple Quadrupole LC/MS system
Instrument type: LC-ESI-QQQ
Ms type: MS2
Ion mode: POSITIVE
Precursor type: [M+H]+
m/z	relative intensity
452.1	1
452.2	2
452.3	4
452.4	8
452.5	12
452.6	17
452.7	25
452.8	38
452.9	57
453.0	77
453.1	93
453.2	99
453.3	94
453.4	74
453.5	45
453.6	16
453.7	1
470.7	2
470.8	3
470.9	5
471.0	8
471.1	9
471.2	10
471.3	8
471.4	4
471.5	1
646.3	3
646.4	4
646.5	5
646.6	7
646.7	11
646.8	17
646.9	23
647.0	27
647.1	29
647.2	28
647.3	25
647.4	18
647.5	9
647.6	2
822.8	3
822.9	4
823.0	5
823.1	6
823.2	6
823.3	5
823.4	3
823.5	2
