Mass spectrum: Hydrocortisone acetate; LC-ESI-QQQ; MS2; Frag=135.0V CID@5.0; [M+H]+
Name: Hydrocortisone acetate
Class: Steroids
Formula: C23H32O6
Exact mass: 404.5079
SMILES: CC(=O)OCC(=O)[C@@]1(O)CCC2C3CCC4=CC(=O)CC[C@]4(C)C3C(O)C[C@@]21C
InChI: InChI=1S/C23H32O6/c1-13(24)29-12-19(27)23(28)9-7-17-16-5-4-14-10-15(25)6-8-21(14,2)20(16)18(26)11-22(17,23)3/h10,16-18,20,26,28H,4-9,11-12H2,1-3H3/t16?,17?,18?,20?,21-,22-,23-/m0/s1
Instrument: Agilent 6410 Triple Quadrupole LC/MS system
Instrument type: LC-ESI-QQQ
Ms type: MS2
Ion mode: POSITIVE
Precursor type: [M+H]+
m/z	relative intensity
404.3	0
404.4	2
404.5	4
404.6	8
404.7	14
404.8	25
404.9	43
405.0	66
405.1	87
405.2	99
405.3	99
405.4	88
405.5	66
405.6	38
405.7	13
405.8	0
