Mass spectrum: Scopolamine; LC-ESI-QQQ; MS2; Frag=135.0V CID@10.0; [M+H]+
Name: Scopolamine
Class: Alkaloids
Formula: C17H21NO4
Exact mass: 303.3612
SMILES: CN1C2CC(OC(=O)C(CO)c3ccccc3)CC1[C@H]1OC21
InChI: InChI=1S/C17H21NO4/c1-18-13-7-11(8-14(18)16-15(13)22-16)21-17(20)12(9-19)10-5-3-2-4-6-10/h2-6,11-16,19H,7-9H2,1H3/t11?,12?,13?,14?,15-,16?/m1/s1
Instrument: Agilent 6410 Triple Quadrupole LC/MS system
Instrument type: LC-ESI-QQQ
Ms type: MS2
Ion mode: POSITIVE
Precursor type: [M+H]+
m/z	relative intensity
120.6	2
120.7	4
120.8	6
120.9	8
121.0	10
121.1	10
121.2	9
121.3	8
121.4	5
121.5	2
137.2	0
137.3	2
137.4	4
137.5	7
137.6	10
137.7	17
137.8	28
137.9	42
138.0	53
138.1	58
138.2	56
138.3	48
138.4	36
138.5	21
138.6	7
138.7	0
155.3	1
155.4	3
155.5	5
155.6	9
155.7	17
155.8	32
155.9	49
156.0	63
156.1	68
156.2	67
156.3	60
156.4	48
156.5	30
156.6	12
156.7	1
303.3	1
303.4	3
303.5	6
303.6	11
303.7	20
303.8	36
303.9	55
304.0	76
304.1	92
304.2	99
304.3	95
304.4	78
304.5	51
304.6	23
304.7	3
