Mass spectrum: Lambertianic acid; LC-ESI-QQQ; MS2; Frag=135.0V CID@10.0; [M+H]+
Name: Lambertianic acid
Class: Polycyclic aromatic natural products
Formula: C20H28O3
Exact mass: 316.4444
SMILES: C=C1CCC2[C@@](C)(C(=O)O)CCC[C@]2(C)[C@H]1CCc1ccoc1
InChI: InChI=1S/C20H28O3/c1-14-5-8-17-19(2,10-4-11-20(17,3)18(21)22)16(14)7-6-15-9-12-23-13-15/h9,12-13,16-17H,1,4-8,10-11H2,2-3H3,(H,21,22)/t16-,17?,19+,20-/m0/s1
Instrument: Agilent 6410 Triple Quadrupole LC/MS system
Instrument type: LC-ESI-QQQ
Ms type: MS2
Ion mode: POSITIVE
Precursor type: [M+H]+
m/z	relative intensity
80.5	1
80.6	3
80.7	5
80.8	6
80.9	7
81.0	8
81.1	9
81.2	9
81.3	6
81.4	3
94.4	1
94.5	3
94.6	5
94.7	8
94.8	12
94.9	14
95.0	15
95.1	14
95.2	12
95.3	8
95.4	3
120.7	3
120.8	4
120.9	6
121.0	7
121.1	7
121.2	5
121.3	3
132.8	1
132.9	3
133.0	4
133.1	4
133.2	3
133.3	2
133.4	1
133.5	0
133.6	0
133.7	0
133.8	0
133.9	0
134.0	0
134.1	0
134.2	0
134.3	0
134.4	0
134.5	1
134.6	5
134.7	12
134.8	20
134.9	27
135.0	27
135.1	25
135.2	22
135.3	20
135.4	16
135.5	9
135.6	3
136.5	0
136.6	2
136.7	5
136.8	6
136.9	6
137.0	6
137.1	5
137.2	5
137.3	6
137.4	5
137.5	3
148.4	2
148.5	3
148.6	5
148.7	10
148.8	17
148.9	26
149.0	34
149.1	37
149.2	36
149.3	31
149.4	22
149.5	12
149.6	3
162.6	1
162.7	4
162.8	8
162.9	11
163.0	12
163.1	12
163.2	9
163.3	6
163.4	4
163.5	2
176.5	1
176.6	3
176.7	5
176.8	9
176.9	14
177.0	19
177.1	23
177.2	24
177.3	21
177.4	16
177.5	10
177.6	4
193.0	1
193.1	3
193.2	4
193.3	4
193.4	3
222.7	1
222.8	3
222.9	5
223.0	7
223.1	8
223.2	7
223.3	7
223.4	7
223.5	6
223.6	4
252.5	1
252.6	3
252.7	5
252.8	9
252.9	15
253.0	20
253.1	25
253.2	30
253.3	32
253.4	29
253.5	20
253.6	9
253.7	2
270.4	1
270.5	2
270.6	4
270.7	7
270.8	14
270.9	24
271.0	37
271.1	47
271.2	50
271.3	44
271.4	33
271.5	21
271.6	10
271.7	2
298.4	1
298.5	2
298.6	4
298.7	6
298.8	8
298.9	12
299.0	18
299.1	23
299.2	27
299.3	26
299.4	21
299.5	13
299.6	6
299.7	1
316.4	0
316.5	3
316.6	8
316.7	16
316.8	31
316.9	53
317.0	76
317.1	93
317.2	99
317.3	96
317.4	81
317.5	54
317.6	24
317.7	3
