Mass spectrum: Rosamicin; LC-ESI-QQQ; MS2; Frag=135.0V CID@25.0; [M+HCOO]-
Name: Rosamicin
Class: Polyketides
Formula: C31H51NO9
Exact mass: 581.7534
SMILES: CC[C@H]1OC(=O)C[C@@H](O)[C@H](C)[C@@H](O[C@@H]2O[C@H](C)C[C@H](N(C)C)C2O)[C@@H](CC=O)C[C@@H](C)C(=O)/C=C/[C@]2(C)O[C@H]2[C@@H]1C
InChI: InChI=1S/C31H51NO9/c1-9-25-20(5)29-31(6,41-29)12-10-23(34)17(2)14-21(11-13-33)28(19(4)24(35)16-26(36)39-25)40-30-27(37)22(32(7)8)15-18(3)38-30/h10,12-13,17-22,24-25,27-30,35,37H,9,11,14-16H2,1-8H3/b12-10+/t17-,18-,19+,20-,21+,22+,24-,25-,27?,28-,29+,30+,31+/m1/s1
Instrument: Agilent 6410 Triple Quadrupole LC/MS system
Instrument type: LC-ESI-QQQ
Ms type: MS2
Ion mode: NEGATIVE
Precursor type: [M+HCOO]-
m/z	relative intensity
82.6	5
82.7	6
82.8	7
82.9	8
83.0	10
83.1	10
83.2	8
83.3	4
84.7	4
84.8	7
84.9	14
85.0	21
85.1	23
85.2	19
85.3	11
85.4	4
106.5	2
106.6	4
106.7	8
106.8	19
106.9	36
107.0	50
107.1	49
107.2	30
107.3	10
107.4	0
108.6	1
108.7	3
108.8	11
108.9	26
109.0	43
109.1	50
109.2	44
109.3	27
109.4	11
109.5	2
124.3	3
124.4	6
124.5	12
124.6	24
124.7	40
124.8	60
124.9	82
125.0	96
125.1	89
125.2	59
125.3	24
125.4	3
148.7	5
148.8	6
148.9	9
149.0	11
149.1	10
149.2	7
149.3	4
198.8	2
198.9	5
199.0	14
199.1	22
199.2	23
199.3	16
199.4	6
244.4	2
244.5	3
244.6	11
244.7	22
244.8	30
244.9	28
245.0	16
245.1	4
246.7	4
246.8	6
246.9	13
247.0	19
247.1	19
247.2	14
247.3	6
386.3	4
386.4	6
386.5	10
386.6	16
386.7	18
386.8	14
386.9	8
