Mass spectrum: 16-Oxo-19-beyeranoic acid; LC-ESI-QQQ; MS2; Frag=135.0V CID@25.0; [M+H]+
Name: 16-Oxo-19-beyeranoic acid
Class: Terpenoids
Formula: C20H30O3
Exact mass: 318.4603
SMILES: C[C@@]12CCC3[C@]4(C)CCC[C@@](C)(C(=O)O)C4CC[C@]3(CC1=O)C2
InChI: InChI=1S/C20H30O3/c1-17-9-5-14-18(2)7-4-8-19(3,16(22)23)13(18)6-10-20(14,12-17)11-15(17)21/h13-14H,4-12H2,1-3H3,(H,22,23)/t13?,14?,17-,18+,19+,20-/m0/s1
Instrument: Agilent 6410 Triple Quadrupole LC/MS system
Instrument type: LC-ESI-QQQ
Ms type: MS2
Ion mode: POSITIVE
Precursor type: [M+H]+
m/z	relative intensity
54.7	3
54.8	4
54.9	5
55.0	6
55.1	7
55.2	6
55.3	4
55.4	2
58.3	2
58.4	4
58.5	7
58.6	13
58.7	20
58.8	30
58.9	39
59.0	44
59.1	45
59.2	45
59.3	40
59.4	28
59.5	13
59.6	1
66.4	2
66.5	4
66.6	6
66.7	9
66.8	12
66.9	14
67.0	14
67.1	14
67.2	11
67.3	8
67.4	5
67.5	2
78.8	3
78.9	5
79.0	8
79.1	10
79.2	10
79.3	7
79.4	3
80.3	1
80.4	3
80.5	6
80.6	9
80.7	15
80.8	23
80.9	31
81.0	36
81.1	34
81.2	29
81.3	21
81.4	13
81.5	6
81.6	0
82.3	0
82.4	2
82.5	4
82.6	6
82.7	6
82.8	6
82.9	5
83.0	6
83.1	6
83.2	5
83.3	3
90.8	2
90.9	4
91.0	7
91.1	8
91.2	6
91.3	3
92.4	1
92.5	4
92.6	8
92.7	13
92.8	19
92.9	24
93.0	30
93.1	34
93.2	33
93.3	26
93.4	15
93.5	5
93.6	1
94.2	1
94.3	3
94.4	7
94.5	12
94.6	18
94.7	23
94.8	31
94.9	44
95.0	59
95.1	66
95.2	64
95.3	53
95.4	36
95.5	19
95.6	5
96.5	2
96.6	3
96.7	5
96.8	7
96.9	10
97.0	11
97.1	10
97.2	8
97.3	6
97.4	3
104.4	1
104.5	4
104.6	7
104.7	12
104.8	18
104.9	21
105.0	22
105.1	23
105.2	23
105.3	21
105.4	14
105.5	5
105.6	0
106.4	2
106.5	3
106.6	7
106.7	12
106.8	21
106.9	30
107.0	37
107.1	42
107.2	40
107.3	33
107.4	21
107.5	10
107.6	2
108.2	0
108.3	2
108.4	5
108.5	10
108.6	19
108.7	35
108.8	58
108.9	82
109.0	97
109.1	99
109.2	91
109.3	77
109.4	55
109.5	30
109.6	8
109.7	0
110.5	1
110.6	3
110.7	5
110.8	6
110.9	5
118.3	0
118.4	2
118.5	6
118.6	11
118.7	17
118.8	24
118.9	30
119.0	32
119.1	29
119.2	23
119.3	18
119.4	13
119.5	8
119.6	2
120.2	0
120.3	1
120.4	6
120.5	15
120.6	26
120.7	39
120.8	56
120.9	75
121.0	91
121.1	96
121.2	91
121.3	80
121.4	64
121.5	41
121.6	18
121.7	2
122.3	1
122.4	3
122.5	6
122.6	10
122.7	15
122.8	20
122.9	26
123.0	32
123.1	38
123.2	37
123.3	29
123.4	17
123.5	7
123.6	2
124.6	1
124.7	2
124.8	5
124.9	8
125.0	12
125.1	14
125.2	14
125.3	10
125.4	5
125.5	1
130.5	1
130.6	2
130.7	5
130.8	9
130.9	11
131.0	11
131.1	11
131.2	14
131.3	17
131.4	16
131.5	11
131.6	4
132.3	0
132.4	3
132.5	7
132.6	11
132.7	15
132.8	19
132.9	24
133.0	31
133.1	37
133.2	38
133.3	32
133.4	21
133.5	9
133.6	2
134.3	1
134.4	2
134.5	4
134.6	8
134.7	15
134.8	25
134.9	34
135.0	38
135.1	38
135.2	36
135.3	34
135.4	27
135.5	16
135.6	4
136.5	1
136.6	4
136.7	6
136.8	9
136.9	11
137.0	12
137.1	11
137.2	10
137.3	10
137.4	8
137.5	4
137.6	1
138.4	2
138.5	3
138.6	5
138.7	7
138.8	10
138.9	15
139.0	22
139.1	29
139.2	32
139.3	29
139.4	20
139.5	10
139.6	2
142.7	1
142.8	3
142.9	5
143.0	6
143.1	6
143.2	4
143.3	3
144.4	0
144.5	2
144.6	6
144.7	12
144.8	18
144.9	22
145.0	27
145.1	32
145.2	36
145.3	35
145.4	28
145.5	17
145.6	7
145.7	0
146.3	1
146.4	4
146.5	8
146.6	11
146.7	16
146.8	26
146.9	41
147.0	55
147.1	60
147.2	56
147.3	46
147.4	36
147.5	24
147.6	11
147.7	2
148.4	0
148.5	1
148.6	6
148.7	12
148.8	19
148.9	26
149.0	32
149.1	36
149.2	38
149.3	38
149.4	34
149.5	23
149.6	10
149.7	1
150.6	1
150.7	3
150.8	7
150.9	11
151.0	11
151.1	10
151.2	10
151.3	10
151.4	10
151.5	7
151.6	3
156.6	1
156.7	3
156.8	6
156.9	7
157.0	9
157.1	11
157.2	12
157.3	10
157.4	6
157.5	2
158.3	0
158.4	2
158.5	5
158.6	9
158.7	14
158.8	20
158.9	26
159.0	30
159.1	33
159.2	35
159.3	33
159.4	26
159.5	14
159.6	3
160.4	0
160.5	1
160.6	4
160.7	10
160.8	16
160.9	20
161.0	21
161.1	20
161.2	19
161.3	17
161.4	12
161.5	7
161.6	2
162.8	3
162.9	6
163.0	12
163.1	17
163.2	17
163.3	12
163.4	6
163.5	2
164.7	4
164.8	6
164.9	12
165.0	18
165.1	20
165.2	17
165.3	12
165.4	7
165.5	3
170.4	0
170.5	2
170.6	5
170.7	8
170.8	10
170.9	11
171.0	12
171.1	12
171.2	11
171.3	9
171.4	5
171.5	2
172.5	2
172.6	3
172.7	5
172.8	10
172.9	18
173.0	27
173.1	34
173.2	35
173.3	32
173.4	24
173.5	13
173.6	4
174.6	1
174.7	3
174.8	6
174.9	9
175.0	12
175.1	13
175.2	12
175.3	9
175.4	7
175.5	3
177.0	4
177.1	4
177.2	7
177.3	10
177.4	12
177.5	9
177.6	4
184.7	2
184.8	4
184.9	8
185.0	12
185.1	16
185.2	17
185.3	14
185.4	7
185.5	2
186.7	1
186.8	3
186.9	5
187.0	6
187.1	5
187.2	4
187.3	3
188.6	1
188.7	2
188.8	6
188.9	10
189.0	11
189.1	10
189.2	9
189.3	9
189.4	7
189.5	4
190.5	1
190.6	2
190.7	5
190.8	9
190.9	19
191.0	31
191.1	41
191.2	41
191.3	32
191.4	20
191.5	9
191.6	2
192.9	2
193.0	4
193.1	6
193.2	6
193.3	5
193.4	3
198.5	2
198.6	4
198.7	7
198.8	12
198.9	19
199.0	25
199.1	29
199.2	30
199.3	26
199.4	16
199.5	6
199.6	0
202.5	1
202.6	2
202.7	5
202.8	7
202.9	9
203.0	10
203.1	11
203.2	12
203.3	10
203.4	6
203.5	2
212.7	2
212.8	5
212.9	8
213.0	10
213.1	9
213.2	9
213.3	10
213.4	9
213.5	5
213.6	1
214.5	2
214.6	3
214.7	5
214.8	7
214.9	8
215.0	9
215.1	11
215.2	12
215.3	11
215.4	8
215.5	4
215.6	1
216.8	1
216.9	3
217.0	6
217.1	8
217.2	7
217.3	4
226.7	3
226.8	4
226.9	5
227.0	8
227.1	13
227.2	17
227.3	17
227.4	12
227.5	5
227.6	1
228.7	1
228.8	2
228.9	5
229.0	6
229.1	8
229.2	9
229.3	8
229.4	6
229.5	2
241.0	2
241.1	5
241.2	8
241.3	8
241.4	7
241.5	3
244.8	1
244.9	3
245.0	5
245.1	6
245.2	5
245.3	3
254.3	0
254.4	2
254.5	5
254.6	9
254.7	13
254.8	20
254.9	34
255.0	54
255.1	73
255.2	82
255.3	79
255.4	65
255.5	46
255.6	25
255.7	7
255.8	0
258.9	1
259.0	3
259.1	6
259.2	8
259.3	9
259.4	8
259.5	5
259.6	2
272.6	2
272.7	3
272.8	7
272.9	13
273.0	22
273.1	32
273.2	37
273.3	35
273.4	28
273.5	18
273.6	8
273.7	1
282.7	0
282.8	2
282.9	6
283.0	10
283.1	15
283.2	19
283.3	20
283.4	17
283.5	10
283.6	3
300.8	2
300.9	4
301.0	6
301.1	9
301.2	12
301.3	12
301.4	9
301.5	4
