Mass spectrum: Carmine red; LC-ESI-QQQ; MS2; Frag=135.0V CID@10.0; [M+H]+
Name: Carmine red
Class: Polycyclic aromatic natural products
Formula: C22H20O13
Exact mass: 492.3969
SMILES: Cc1c(C(=O)O)c(O)cc2c1C(=O)c1c(O)c([C@H]3O[C@H](CO)[C@@H](O)[C@H](O)[C@H]3O)c(O)c(O)c1C2=O
InChI: InChI=1S/C22H20O13/c1-4-8-5(2-6(24)9(4)22(33)34)13(25)10-11(15(8)27)16(28)12(18(30)17(10)29)21-20(32)19(31)14(26)7(3-23)35-21/h2,7,14,19-21,23-24,26,28-32H,3H2,1H3,(H,33,34)/t7-,14-,19+,20-,21-/m1/s1
Instrument: Agilent 6410 Triple Quadrupole LC/MS system
Instrument type: LC-ESI-QQQ
Ms type: MS2
Ion mode: POSITIVE
Precursor type: [M+H]+
m/z	relative intensity
354.4	1
354.5	3
354.6	7
354.7	11
354.8	14
354.9	15
355.0	15
355.1	15
355.2	12
355.3	7
355.4	2
372.1	0
372.2	2
372.3	5
372.4	7
372.5	9
372.6	15
372.7	30
372.8	54
372.9	78
373.0	94
373.1	99
373.2	93
373.3	74
373.4	45
373.5	16
373.6	0
396.4	0
396.5	2
396.6	6
396.7	11
396.8	16
396.9	19
397.0	22
397.1	24
397.2	22
397.3	14
397.4	4
420.8	2
420.9	4
421.0	6
421.1	7
421.2	7
421.3	4
426.5	1
426.6	3
426.7	6
426.8	9
426.9	11
427.0	14
427.1	15
427.2	14
427.3	9
427.4	4
438.5	1
438.6	3
438.7	5
438.8	7
438.9	8
439.0	9
439.1	9
439.2	9
439.3	7
439.4	3
456.6	2
456.7	3
456.8	4
456.9	5
457.0	6
457.1	6
457.2	4
457.3	2
492.5	5
492.6	6
492.7	10
492.8	17
492.9	27
493.0	34
493.1	37
493.2	34
493.3	27
493.4	16
493.5	6
493.6	0
