Mass spectrum: Galbanic acid; LC-ESI-QQQ; MS2; Frag=135.0V CID@10.0; [M+H]+
Name: Galbanic acid
Class: Benzopyranoids
Formula: C24H30O5
Exact mass: 398.5037
SMILES: CC(C)=C1CC[C@H](C)[C@](C)(COc2ccc3ccc(=O)oc3c2)[C@H]1CCC(=O)O
InChI: InChI=1S/C24H30O5/c1-15(2)19-9-5-16(3)24(4,20(19)10-11-22(25)26)14-28-18-8-6-17-7-12-23(27)29-21(17)13-18/h6-8,12-13,16,20H,5,9-11,14H2,1-4H3,(H,25,26)/t16-,20-,24-/m0/s1
Instrument: Agilent 6410 Triple Quadrupole LC/MS system
Instrument type: LC-ESI-QQQ
Ms type: MS2
Ion mode: POSITIVE
Precursor type: [M+H]+
m/z	relative intensity
108.6	2
108.7	4
108.8	6
108.9	9
109.0	12
109.1	13
109.2	12
109.3	11
109.4	8
109.5	4
109.6	1
152.7	2
152.8	3
152.9	5
153.0	7
153.1	8
153.2	8
153.3	7
153.4	6
153.5	4
153.6	1
162.2	0
162.3	2
162.4	5
162.5	10
162.6	18
162.7	30
162.8	50
162.9	73
163.0	92
163.1	99
163.2	93
163.3	76
163.4	51
163.5	25
163.6	5
163.7	0
166.5	1
166.6	2
166.7	4
166.8	7
166.9	11
167.0	15
167.1	17
167.2	18
167.3	17
167.4	13
167.5	8
167.6	3
176.8	2
176.9	3
177.0	5
177.1	6
177.2	6
177.3	6
177.4	5
177.5	3
177.6	1
180.5	1
180.6	4
180.7	8
180.8	13
180.9	20
181.0	25
181.1	29
181.2	30
181.3	27
181.4	21
181.5	14
181.6	6
181.7	0
188.3	0
188.4	2
188.5	5
188.6	9
188.7	15
188.8	24
188.9	35
189.0	43
189.1	46
189.2	43
189.3	35
189.4	25
189.5	12
189.6	3
218.7	1
218.8	3
218.9	5
219.0	7
219.1	9
219.2	11
219.3	11
219.4	9
219.5	6
219.6	2
236.5	1
236.6	2
236.7	5
236.8	9
236.9	17
237.0	26
237.1	32
237.2	34
237.3	32
237.4	27
237.5	19
237.6	10
237.7	3
380.8	2
380.9	3
381.0	5
381.1	6
381.2	6
381.3	6
381.4	5
381.5	3
398.7	2
398.8	4
398.9	6
399.0	10
399.1	13
399.2	15
399.3	16
399.4	13
399.5	9
399.6	4
399.7	0
