Mass spectrum: Demecolcine; LC-ESI-QQQ; MS2; Frag=135.0V CID@5.0; [M+H]+
Name: Demecolcine
Class: Alkaloids
Formula: C21H25NO5
Exact mass: 371.4371
SMILES: CN[C@H]1CCc2cc(OC)c(OC)c(OC)c2-c2ccc(OC)c(=O)cc21
InChI: InChI=1S/C21H25NO5/c1-22-15-8-6-12-10-18(25-3)20(26-4)21(27-5)19(12)13-7-9-17(24-2)16(23)11-14(13)15/h7,9-11,15,22H,6,8H2,1-5H3/t15-/m0/s1
Instrument: Agilent 6410 Triple Quadrupole LC/MS system
Instrument type: LC-ESI-QQQ
Ms type: MS2
Ion mode: POSITIVE
Precursor type: [M+H]+
m/z	relative intensity
371.3	1
371.4	3
371.5	6
371.6	11
371.7	18
371.8	32
371.9	54
372.0	77
372.1	93
372.2	99
372.3	94
372.4	78
372.5	53
372.6	26
372.7	6
372.8	0
