Mass spectrum: Methyl galbanate; LC-ESI-QQQ; MS2; Frag=135.0V CID@5.0; [M+H]+
Name: Methyl galbanate
Class: Benzopyranoids
Formula: C25H32O5
Exact mass: 412.5308
SMILES: COC(=O)CC[C@H]1C(=C(C)C)CC[C@H](C)[C@]1(C)COc1ccc2ccc(=O)oc2c1
InChI: InChI=1S/C25H32O5/c1-16(2)20-10-6-17(3)25(4,21(20)11-13-23(26)28-5)15-29-19-9-7-18-8-12-24(27)30-22(18)14-19/h7-9,12,14,17,21H,6,10-11,13,15H2,1-5H3/t17-,21-,25-/m0/s1
Instrument: Agilent 6410 Triple Quadrupole LC/MS system
Instrument type: LC-ESI-QQQ
Ms type: MS2
Ion mode: POSITIVE
Precursor type: [M+H]+
m/z	relative intensity
108.5	1
108.6	2
108.7	4
108.8	8
108.9	12
109.0	17
109.1	19
109.2	18
109.3	15
109.4	10
109.5	5
109.6	1
162.2	1
162.3	2
162.4	4
162.5	7
162.6	14
162.7	26
162.8	45
162.9	65
163.0	78
163.1	81
163.2	75
163.3	61
163.4	41
163.5	19
163.6	3
166.6	2
166.7	3
166.8	5
166.9	7
167.0	9
167.1	10
167.2	10
167.3	9
167.4	7
167.5	3
176.9	2
177.0	4
177.1	5
177.2	5
177.3	5
177.4	4
177.5	3
180.6	1
180.7	3
180.8	7
180.9	12
181.0	16
181.1	19
181.2	21
181.3	21
181.4	17
181.5	10
181.6	4
188.5	2
188.6	3
188.7	6
188.8	10
188.9	15
189.0	18
189.1	20
189.2	20
189.3	16
189.4	9
189.5	3
194.5	2
194.6	2
194.7	5
194.8	10
194.9	17
195.0	24
195.1	28
195.2	29
195.3	26
195.4	19
195.5	11
195.6	4
218.6	1
218.7	3
218.8	6
218.9	10
219.0	14
219.1	17
219.2	17
219.3	15
219.4	12
219.5	8
219.6	3
250.3	1
250.4	2
250.5	5
250.6	10
250.7	15
250.8	25
250.9	43
251.0	66
251.1	87
251.2	99
251.3	99
251.4	86
251.5	61
251.6	31
251.7	7
251.8	0
380.9	2
381.0	3
381.1	4
381.2	5
381.3	5
381.4	4
381.5	2
412.4	1
412.5	2
412.6	4
412.7	7
412.8	13
412.9	23
413.0	36
413.1	49
413.2	58
413.3	59
413.4	52
413.5	38
413.6	20
413.7	5
413.8	0
