Mass spectrum: Peucedanin; LC-ESI-QQQ; MS2; Frag=135.0V CID@15.0; [M+H]+
Name: Peucedanin
Class: Benzopyranoids
Formula: C15H14O4
Exact mass: 258.2764
SMILES: COc1c(C(C)C)oc2cc3oc(=O)ccc3cc12
InChI: InChI=1S/C15H14O4/c1-8(2)14-15(17-3)10-6-9-4-5-13(16)18-11(9)7-12(10)19-14/h4-8H,1-3H3
Instrument: Agilent 6410 Triple Quadrupole LC/MS system
Instrument type: LC-ESI-QQQ
Ms type: MS2
Ion mode: POSITIVE
Precursor type: [M+H]+
m/z	relative intensity
228.2	0
228.3	2
228.4	4
228.5	8
228.6	15
228.7	24
228.8	37
228.9	49
229.0	58
229.1	61
229.2	59
229.3	49
229.4	34
229.5	16
229.6	3
243.6	2
243.7	3
243.8	6
243.9	8
244.0	10
244.1	11
244.2	11
244.3	9
244.4	6
244.5	2
258.2	0
258.3	2
258.4	5
258.5	10
258.6	18
258.7	30
258.8	49
258.9	70
259.0	88
259.1	99
259.2	99
259.3	88
259.4	64
259.5	35
259.6	10
259.7	0
