Mass spectrum: O-(3-Hydroxy-7-drimen-11-yl)umbelliferone; LC-ESI-QQQ; MS2; Frag=135.0V CID@5.0; [M+H]+
Name: O-(3-Hydroxy-7-drimen-11-yl)umbelliferone
Class: Benzopyranoids
Formula: C24H30O4
Exact mass: 382.5043
SMILES: CC1=CC[C@H]2C(C)(C)[C@H](O)CC[C@]2(C)[C@@H]1COc1ccc2ccc(=O)oc2c1
InChI: InChI=1S/C24H30O4/c1-15-5-9-20-23(2,3)21(25)11-12-24(20,4)18(15)14-27-17-8-6-16-7-10-22(26)28-19(16)13-17/h5-8,10,13,18,20-21,25H,9,11-12,14H2,1-4H3/t18-,20+,21-,24-/m1/s1
Instrument: Agilent 6410 Triple Quadrupole LC/MS system
Instrument type: LC-ESI-QQQ
Ms type: MS2
Ion mode: POSITIVE
Precursor type: [M+H]+
m/z	relative intensity
162.5	1
162.6	3
162.7	6
162.8	9
162.9	12
163.0	14
163.1	14
163.2	12
163.3	10
163.4	6
163.5	2
202.6	3
202.7	4
202.8	8
202.9	13
203.0	19
203.1	23
203.2	25
203.3	25
203.4	21
203.5	15
203.6	8
203.7	2
382.3	1
382.4	2
382.5	5
382.6	9
382.7	15
382.8	26
382.9	46
383.0	70
383.1	90
383.2	99
383.3	97
383.4	85
383.5	64
383.6	38
383.7	13
383.8	0
