Mass spectrum: liquiritigenin; LC-ESI-QQQ; MS2; Frag=135.0V CID@25.0; [M+H]+
Name: Liquiritigenin
Name: (2S)-7-hydroxy-2-(4-hydroxyphenyl)-2,3-dihydrochromen-4-one
Name: liquiritigenin
Class: Flavonoids
Formula: C15H12O4
Exact mass: 256.2605
SMILES: O=C1C[C@@H](c2ccc(O)cc2)Oc2cc(O)ccc21
InChI: InChI=1S/C15H12O4/c16-10-3-1-9(2-4-10)14-8-13(18)12-6-5-11(17)7-15(12)19-14/h1-7,14,16-17H,8H2/t14-/m0/s1
Instrument: Agilent 6410 Triple Quadrupole LC/MS system
Instrument type: LC-ESI-QQQ
Ms type: MS2
Ion mode: POSITIVE
Precursor type: [M+H]+
m/z	relative intensity
80.5	1
80.6	2
80.7	4
80.8	4
80.9	5
81.0	6
81.1	7
81.2	7
81.3	5
81.4	3
116.8	2
116.9	3
117.0	5
117.1	5
117.2	5
117.3	3
117.4	2
118.4	1
118.5	3
118.6	5
118.7	8
118.8	11
118.9	14
119.0	17
119.1	17
119.2	16
119.3	14
119.4	10
119.5	5
119.6	1
136.2	0
136.3	2
136.4	8
136.5	18
136.6	33
136.7	53
136.8	73
136.9	90
137.0	99
137.1	99
137.2	92
137.3	75
137.4	50
137.5	23
137.6	4
146.4	1
146.5	3
146.6	7
146.7	12
146.8	18
146.9	23
147.0	25
147.1	24
147.2	22
147.3	18
147.4	12
147.5	5
147.6	0
