Mass spectrum: Ecdysterone 22-O-benzoate; LC-ESI-QQQ; MS; [M+H]+
Name: Ecdysterone 22-O-benzoate
Class: Steroids
Formula: C34H48O8
Exact mass: 584.7569
SMILES: CC(C)(O)CC[C@H](OC(=O)c1ccccc1)[C@](C)(O)C1CC[C@@]2(O)C3=CC(=O)C4CC(O)C(O)C[C@]4(C)C3CC[C@]12C
InChI: InChI=1S/C34H48O8/c1-30(2,39)14-13-28(42-29(38)20-9-7-6-8-10-20)33(5,40)27-12-16-34(41)22-17-24(35)23-18-25(36)26(37)19-31(23,3)21(22)11-15-32(27,34)4/h6-10,17,21,23,25-28,36-37,39-41H,11-16,18-19H2,1-5H3/t21?,23?,25?,26?,27?,28-,31+,32+,33+,34+/m0/s1
Instrument: ABSciex API3200 LC/MS system
Instrument type: LC-ESI-QQQ
Ms type: MS
Ion mode: POSITIVE
Precursor type: [M+H]+
m/z	relative intensity
221.0000	23
246.6000	31
246.7000	25
246.8000	33
246.9000	24
247.1000	30
247.2000	24
300.8000	23
301.1000	49
301.2000	22
302.7000	25
302.9000	26
303.1000	21
303.4000	24
352.6000	59
352.7000	75
352.8000	109
352.9000	107
353.0000	90
353.1000	101
353.2000	97
353.3000	118
353.4000	79
353.5000	60
353.6000	30
353.7000	35
353.8000	40
353.9000	29
354.0000	26
354.1000	35
354.2000	28
354.3000	23
391.0000	37
408.5000	24
408.6000	71
408.7000	136
408.8000	131
408.9000	170
409.0000	175
409.1000	152
409.2000	141
409.3000	150
409.4000	122
409.5000	111
409.6000	66
409.7000	42
409.8000	40
409.9000	52
410.0000	42
410.1000	52
410.2000	36
410.3000	47
410.4000	38
410.5000	31
426.5000	42
426.6000	134
426.7000	172
426.8000	205
426.9000	196
427.0000	200
427.1000	184
427.2000	204
427.3000	174
427.4000	184
427.5000	135
427.6000	77
427.7000	75
427.8000	59
427.9000	78
428.0000	68
428.1000	62
428.2000	71
428.3000	57
428.4000	48
428.5000	30
444.7000	35
444.8000	59
444.9000	79
445.0000	69
445.1000	63
445.2000	57
445.3000	63
445.4000	51
445.5000	45
445.6000	24
445.7000	22
530.6000	23
530.7000	62
530.8000	43
530.9000	52
531.0000	42
531.1000	59
531.2000	45
531.3000	40
531.4000	28
531.7000	47
548.6000	76
548.7000	102
548.8000	135
548.9000	139
549.0000	143
549.1000	142
549.2000	146
549.3000	144
549.4000	109
549.5000	70
549.6000	40
549.7000	58
549.8000	63
549.9000	64
550.0000	52
550.1000	63
550.2000	59
550.3000	58
550.4000	49
550.5000	23
566.4000	47
566.5000	113
566.6000	281
566.7000	486
566.8000	775
566.9000	678
567.0000	623
567.1000	637
567.2000	571
567.3000	558
567.4000	463
567.5000	242
567.6000	146
567.7000	189
567.8000	205
567.9000	219
568.0000	242
568.1000	253
568.2000	252
568.3000	251
568.4000	180
568.5000	104
568.6000	38
568.7000	47
568.8000	49
568.9000	41
569.0000	55
569.1000	58
569.2000	49
569.3000	50
569.4000	52
584.4000	38
584.5000	103
584.6000	363
584.7000	678
584.8000	826
584.9000	879
585.0000	909
585.1000	999
585.2000	929
585.3000	873
585.4000	738
585.5000	422
585.6000	220
585.7000	316
585.8000	359
585.9000	396
586.0000	381
586.1000	410
586.2000	402
586.3000	351
586.4000	292
586.5000	177
586.6000	89
586.7000	88
586.8000	109
586.9000	85
587.0000	114
587.1000	110
587.2000	97
587.3000	88
587.4000	65
587.5000	42
588.0000	23
602.1000	21
602.3000	34
625.5000	42
625.6000	81
625.7000	107
625.8000	146
625.9000	166
626.0000	208
626.1000	145
626.2000	159
626.3000	155
626.4000	158
626.5000	71
626.6000	35
626.7000	57
626.8000	58
626.9000	81
627.0000	74
627.1000	55
627.2000	85
627.3000	62
627.4000	60
627.5000	26
628.2000	24
1132.6000	32
1132.7000	34
1132.8000	42
1132.9000	39
1133.0000	47
1133.1000	55
1133.2000	54
1133.3000	56
1133.4000	54
1133.5000	61
1133.6000	49
1133.7000	43
1133.8000	53
1133.9000	77
1134.0000	51
1134.1000	45
1134.2000	47
1134.3000	43
1134.4000	41
1134.5000	31
1134.6000	28
1135.4000	23
1150.6000	49
1150.7000	131
1150.8000	58
1150.9000	58
1151.0000	40
1151.1000	44
1151.2000	54
1151.3000	53
1151.4000	58
1151.5000	44
1151.6000	51
1151.7000	47
1151.8000	34
1151.9000	33
1152.0000	32
1152.1000	43
1152.2000	45
1152.3000	30
1152.4000	33
1152.5000	30
1152.6000	31
1168.6000	35
1168.7000	49
1168.8000	129
1168.9000	76
1169.0000	63
1169.1000	72
1169.2000	78
1169.3000	87
1169.4000	77
1169.5000	67
1169.6000	88
1169.7000	64
1169.8000	61
1169.9000	77
1170.0000	74
1170.1000	76
1170.2000	68
1170.3000	66
1170.4000	59
1170.5000	58
1170.6000	67
1170.7000	36
1170.8000	31
1170.9000	24
1171.1000	22
1171.2000	21
1171.3000	26
1171.4000	24
1171.5000	23
