Mass spectrum: oreoselone; LC-ESI-QQQ; MS2; Frag=135.0V CID@15.0; [M+H]+
Name: oreoselone
Class: Benzopyranoids
Formula: C14H12O4
Exact mass: 244.2493
SMILES: CC(C)C1Oc2cc3oc(=O)ccc3cc2C1=O
InChI: InChI=1S/C14H12O4/c1-7(2)14-13(16)9-5-8-3-4-12(15)17-10(8)6-11(9)18-14/h3-7,14H,1-2H3
Instrument: Agilent 6410 Triple Quadrupole LC/MS system
Instrument type: LC-ESI-QQQ
Ms type: MS2
Ion mode: POSITIVE
Precursor type: [M+H]+
m/z	relative intensity
188.2	0
188.3	2
188.4	6
188.5	15
188.6	27
188.7	42
188.8	60
188.9	79
189.0	94
189.1	99
189.2	94
189.3	76
189.4	49
189.5	21
189.6	2
244.4	1
244.5	2
244.6	5
244.7	8
244.8	13
244.9	18
245.0	23
245.1	26
245.2	25
245.3	21
245.4	14
245.5	7
245.6	1
