Mass spectrum: Melezitose; LC-ESI-QQQ; MS2; Frag=135.0V CID@25.0; [M+Na]+
Name: Glc(alpha1-3)Fruf(beta2-1alpha)Glc
Name: Melizitose
Name: O-alpha-D-Glucopyranosyl-(1-3)-beta-D-fructofuranosyl-alpha-D-glucopyranoside / Glc(alpha1-3)Fruf(beta2-1alpha)Glc
Name: O-alpha-D-Glucopyranosyl-(1-3)-beta-D-fructofuranosyl-alpha-D-glucopyranoside
Name: Melezitose
Class: Carbohydrates
Formula: C18H32O16
Exact mass: 504.4461
SMILES: OC[C@H]1O[C@H](O[C@H]2[C@H](O)[C@@H](CO)O[C@@]2(CO)O[C@H]2O[C@H](CO)[C@@H](O)[C@H](O)[C@H]2O)[C@H](O)[C@@H](O)[C@@H]1O
InChI: InChI=1S/C18H32O16/c19-1-5-8(23)11(26)13(28)16(30-5)32-15-10(25)7(3-21)33-18(15,4-22)34-17-14(29)12(27)9(24)6(2-20)31-17/h5-17,19-29H,1-4H2/t5-,6-,7-,8-,9-,10-,11+,12+,13-,14-,15+,16-,17-,18+/m1/s1
Instrument: Agilent 6410 Triple Quadrupole LC/MS system
Instrument type: LC-ESI-QQQ
Ms type: MS2
Ion mode: POSITIVE
Precursor type: [M+Na]+
m/z	relative intensity
346.3	1
346.4	3
346.5	6
346.6	8
346.7	8
346.8	9
346.9	12
347.0	15
347.1	15
347.2	11
347.3	5
347.4	2
364.2	1
364.3	3
364.4	5
364.5	6
364.6	6
364.7	6
364.8	10
364.9	21
365.0	36
365.1	46
365.2	42
365.3	27
365.4	10
365.5	1
526.3	1
526.4	2
526.5	6
526.6	16
526.7	33
526.8	51
526.9	69
527.0	84
527.1	95
527.2	98
527.3	91
527.4	71
527.5	40
527.6	11
527.7	0
