Mass spectrum: Raffinose; LC-ESI-QQQ; MS2; Frag=135.0V CID@5.0; [M+Na]+
Name: Gal(alpha1-6)Glc(alpha1-2beta)Fruf
Name: 6G-alpha-D-galactosylsucrose
Name: Raffinose
Name: Gossypose
Name: Melitose
Name: Melitriose
Class: Carbohydrates
Formula: C18H32O16
Exact mass: 504.4461
SMILES: OC[C@@H]1O[C@](CO)(O[C@H]2O[C@H](CO[C@H]3O[C@H](CO)[C@H](O)[C@H](O)[C@H]3O)[C@@H](O)[C@H](O)[C@H]2O)[C@H](O)[C@H]1O
InChI: InChI=1S/C18H32O16/c19-1-5-8(22)11(25)13(27)16(31-5)30-3-7-9(23)12(26)14(28)17(32-7)34-18(4-21)15(29)10(24)6(2-20)33-18/h5-17,19-29H,1-4H2/t5-,6+,7-,8+,9-,10+,11+,12+,13-,14-,15-,16+,17-,18-/m1/s1
Instrument: Agilent 6410 Triple Quadrupole LC/MS system
Instrument type: LC-ESI-QQQ
Ms type: MS2
Ion mode: POSITIVE
Precursor type: [M+Na]+
m/z	relative intensity
526.1	1
526.2	3
526.3	5
526.4	6
526.5	9
526.6	20
526.7	42
526.8	68
526.9	86
527.0	94
527.1	98
527.2	99
527.3	89
527.4	63
527.5	30
527.6	5
527.7	0
