Mass spectrum: Grosheimin; LC-ESI-QQQ; MS2; Frag=135.0V CID@25.0; [M+H]+
Name: Grosheimin
Class: Terpenoids
Formula: C15H18O4
Exact mass: 262.3083
SMILES: C=C1C[C@H](O)[C@H]2C(=C)C(=O)O[C@@H]2[C@H]2[C@H](C)C(=O)C[C@@H]12
InChI: InChI=1S/C15H18O4/c1-6-4-11(17)13-8(3)15(18)19-14(13)12-7(2)10(16)5-9(6)12/h7,9,11-14,17H,1,3-5H2,2H3/t7-,9+,11+,12+,13-,14-/m1/s1
Instrument: Agilent 6410 Triple Quadrupole LC/MS system
Instrument type: LC-ESI-QQQ
Ms type: MS2
Ion mode: POSITIVE
Precursor type: [M+H]+
m/z	relative intensity
54.5	3
54.6	4
54.7	5
54.8	6
54.9	6
55.0	6
55.1	4
55.2	3
66.7	3
66.8	4
66.9	5
67.0	7
67.1	8
67.2	7
67.3	4
67.4	2
76.7	3
76.8	5
76.9	8
77.0	12
77.1	14
77.2	14
77.3	10
77.4	5
77.5	1
78.5	2
78.6	4
78.7	7
78.8	10
78.9	13
79.0	16
79.1	16
79.2	14
79.3	9
79.4	4
79.5	1
80.6	1
80.7	3
80.8	4
80.9	5
81.0	4
81.1	2
90.3	1
90.4	3
90.5	6
90.6	10
90.7	15
90.8	22
90.9	31
91.0	39
91.1	43
91.2	38
91.3	26
91.4	12
91.5	3
92.1	1
92.2	3
92.3	6
92.4	9
92.5	12
92.6	16
92.7	22
92.8	32
92.9	43
93.0	51
93.1	54
93.2	51
93.3	39
93.4	23
93.5	8
93.6	0
104.3	1
104.4	3
104.5	5
104.6	8
104.7	10
104.8	13
104.9	18
105.0	25
105.1	30
105.2	29
105.3	22
105.4	12
105.5	5
105.6	1
106.0	1
106.1	2
106.2	4
106.3	5
106.4	8
106.5	15
106.6	26
106.7	41
106.8	61
106.9	81
107.0	96
107.1	99
107.2	91
107.3	74
107.4	51
107.5	26
107.6	7
107.7	0
118.4	1
118.5	2
118.6	5
118.7	8
118.8	10
118.9	10
119.0	8
119.1	6
119.2	5
119.3	3
120.5	2
120.6	3
120.7	9
120.8	18
120.9	24
121.0	25
121.1	22
121.2	19
121.3	16
121.4	12
121.5	6
121.6	2
127.5	2
127.6	4
127.7	7
127.8	12
127.9	16
128.0	17
128.1	17
128.2	14
128.3	10
128.6	8
128.7	13
128.8	19
128.9	23
129.0	23
129.1	23
129.2	22
129.3	21
129.4	15
129.5	8
129.6	2
130.5	2
130.6	6
130.7	10
130.8	12
130.9	11
131.0	10
131.1	11
131.2	10
131.3	7
131.4	3
140.6	2
140.7	4
140.8	7
140.9	11
141.0	12
141.1	10
141.2	8
141.5	6
141.6	9
141.7	13
141.8	16
141.9	18
142.0	19
142.1	21
142.2	20
142.3	15
142.4	9
142.7	7
142.8	9
142.9	10
143.0	11
143.1	13
143.2	14
143.3	12
143.4	7
143.5	3
144.5	1
144.6	3
144.7	8
144.8	13
144.9	17
145.0	19
145.1	17
145.2	14
145.3	11
145.4	8
145.5	5
145.6	3
148.8	4
148.9	5
149.0	6
149.1	7
149.2	7
149.3	5
149.4	3
154.3	1
154.4	2
154.5	4
154.6	5
154.7	6
154.8	7
154.9	7
155.0	7
155.1	6
155.2	4
155.5	1
155.6	3
155.7	6
155.8	11
155.9	14
156.0	14
156.1	11
156.2	9
156.3	6
156.6	3
156.7	6
156.8	13
156.9	23
157.0	28
157.1	26
157.2	21
157.3	14
157.4	9
157.5	6
157.6	3
158.8	2
158.9	3
159.0	5
159.1	5
159.2	5
159.3	3
170.5	1
170.6	3
170.7	6
170.8	10
170.9	14
171.0	19
171.1	24
171.2	26
171.3	25
171.4	18
171.5	9
171.6	3
180.7	2
180.8	3
180.9	4
181.0	6
181.1	7
181.2	6
181.3	4
181.4	1
184.7	1
184.8	4
184.9	7
185.0	8
185.1	8
185.2	7
185.3	5
185.4	3
198.6	2
198.7	4
198.8	5
198.9	6
199.0	5
199.1	3
