Mass spectrum: T2 Toxin; LC-ESI-QQQ; MS2; Frag=135.0V CID@10.0; [M+NH4]+
Name: T2 Toxin
Class: Terpenoids
Formula: C24H34O9
Exact mass: 466.5332
SMILES: CC(=O)OC[C@]12C[C@H](OC(=O)CC(C)C)C(C)=C[C@H]1OC1[C@H](O)[C@@H](OC(C)=O)[C@@]2(C)[C@@]12CO2
InChI: InChI=1S/C24H34O9/c1-12(2)7-18(27)32-16-9-23(10-29-14(4)25)17(8-13(16)3)33-21-19(28)20(31-15(5)26)22(23,6)24(21)11-30-24/h8,12,16-17,19-21,28H,7,9-11H2,1-6H3/t16-,17+,19+,20+,21?,22+,23+,24+/m0/s1
Instrument: Agilent 6410 Triple Quadrupole LC/MS system
Instrument type: LC-ESI-QQQ
Ms type: MS2
Ion mode: POSITIVE
Precursor type: [M+NH4]+
m/z	relative intensity
104.4	1
104.5	2
104.6	4
104.7	5
104.8	7
104.9	8
105.0	8
105.1	9
105.2	8
105.3	6
105.4	3
142.7	1
142.8	2
142.9	4
143.0	4
143.1	4
143.2	3
156.8	4
156.9	6
157.0	10
157.1	13
157.2	12
157.3	8
157.4	4
157.5	1
158.5	1
158.6	3
158.7	5
158.8	6
158.9	7
159.0	7
159.1	6
159.2	5
159.3	4
159.4	2
168.5	3
168.6	3
168.7	6
168.8	10
168.9	14
169.0	16
169.1	19
169.2	21
169.3	20
169.4	14
169.5	6
169.6	0
170.6	2
170.7	3
170.8	5
170.9	6
171.0	8
171.1	9
171.2	8
171.3	6
171.4	3
172.6	2
172.7	3
172.8	5
172.9	7
173.0	9
173.1	9
173.2	7
173.3	5
173.4	2
184.2	1
184.3	2
184.4	6
184.5	12
184.6	20
184.7	31
184.8	46
184.9	62
185.0	74
185.1	80
185.2	80
185.3	72
185.4	55
185.5	32
185.6	10
185.7	0
186.5	2
186.6	3
186.7	5
186.8	8
186.9	12
187.0	16
187.1	18
187.2	18
187.3	15
187.4	10
187.5	4
187.6	1
196.3	1
196.4	4
196.5	7
196.6	12
196.7	17
196.8	24
196.9	33
197.0	43
197.1	50
197.2	51
197.3	43
197.4	29
197.5	13
197.6	2
198.7	2
198.8	4
198.9	7
199.0	11
199.1	14
199.2	14
199.3	11
199.4	6
199.5	2
202.3	1
202.4	3
202.5	5
202.6	6
202.7	7
202.8	9
202.9	12
203.0	16
203.1	17
203.2	16
203.3	12
203.4	6
203.5	2
214.2	1
214.3	2
214.4	4
214.5	8
214.6	17
214.7	32
214.8	48
214.9	64
215.0	77
215.1	86
215.2	85
215.3	71
215.4	45
215.5	18
215.6	1
226.4	2
226.5	3
226.6	4
226.7	7
226.8	12
226.9	17
227.0	21
227.1	21
227.2	17
227.3	12
227.4	7
227.5	2
232.5	3
232.6	4
232.7	8
232.8	14
232.9	17
233.0	17
233.1	16
233.2	16
233.3	16
233.4	13
233.5	7
233.6	2
244.2	0
244.3	2
244.4	6
244.5	12
244.6	18
244.7	25
244.8	34
244.9	44
245.0	49
245.1	50
245.2	46
245.3	39
245.4	28
245.5	14
245.6	3
256.4	1
256.5	3
256.6	5
256.7	9
256.8	16
256.9	23
257.0	29
257.1	31
257.2	29
257.3	23
257.4	15
257.5	6
257.6	1
274.6	2
274.7	3
274.8	4
274.9	7
275.0	10
275.1	13
275.2	13
275.3	9
275.4	5
275.5	1
304.3	2
304.4	3
304.5	7
304.6	14
304.7	30
304.8	51
304.9	72
305.0	89
305.1	98
305.2	99
305.3	90
305.4	68
305.5	38
305.6	12
305.7	0
364.6	1
364.7	3
364.8	6
364.9	8
365.0	9
365.1	8
365.2	6
365.3	5
365.4	3
483.7	3
483.8	4
483.9	8
484.0	11
484.1	13
484.2	12
484.3	9
484.4	7
484.5	5
484.6	2
