Mass spectrum: epicatechin; LC-ESI-QQQ; MS2; Frag=135.0V CID@25.0; [M+H]+
Name: EpCt-pl
Name: ent-Epicatechin
Name: Epicatechol
Name: (+)-3,3',4',5,7-Pentahydroxyflavan
Name: (2S,3S)-(+)-Epicatechin / EpCt-mi
Name: (-)-3,3',4',5,7-Pentahydroxyflavan
Name: (2R,3R)-(-)-Epicatechin
Name: epicatechin
Class: Flavonoids
Formula: C15H14O6
Exact mass: 290.2752
SMILES: C1C(C(OC2=CC(=CC(=C21)O)O)C3=CC(=C(C=C3)O)O)O
InChI: InChI=1S/C15H14O6/c16-8-4-11(18)9-6-13(20)15(21-14(9)5-8)7-1-2-10(17)12(19)3-7/h1-5,13,15-20H,6H2
Instrument: Agilent 6410 Triple Quadrupole LC/MS system
Instrument type: LC-ESI-QQQ
Ms type: MS2
Ion mode: POSITIVE
Precursor type: [M+H]+
m/z	relative intensity
118.5	1
118.6	2
118.7	4
118.8	5
118.9	7
119.0	8
119.1	8
119.2	6
119.3	3
119.4	1
122.2	1
122.3	1
122.4	4
122.5	9
122.6	17
122.7	27
122.8	40
122.9	53
123.0	62
123.1	63
123.2	57
123.3	47
123.4	33
123.5	17
123.6	4
123.7	0
138.2	0
138.3	2
138.4	6
138.5	15
138.6	28
138.7	43
138.8	59
138.9	76
139.0	91
139.1	99
139.2	96
139.3	78
139.4	49
139.5	20
139.6	1
146.3	1
146.4	2
146.5	5
146.6	8
146.7	13
146.8	19
146.9	24
147.0	29
147.1	31
147.2	31
147.3	26
147.4	16
147.5	6
147.6	0
160.4	1
160.5	2
160.6	4
160.7	6
160.8	10
160.9	13
161.0	16
161.1	17
161.2	16
161.3	13
161.4	9
161.5	3
161.6	0
164.5	1
164.6	2
164.7	3
164.8	4
164.9	4
165.0	4
165.1	4
165.2	4
165.3	2
178.6	0
178.7	2
178.8	3
178.9	4
179.0	4
179.1	4
179.2	4
179.3	4
179.4	3
206.7	1
206.8	2
206.9	4
207.0	4
207.1	4
207.2	4
207.3	3
207.4	2
