Mass spectrum: Narcotine; LC-ESI-QQQ; MS2; Frag=135.0V CID@15.0; [M+H]+
Name: Narcotine
Class: Alkaloids
Formula: C22H23NO7
Exact mass: 413.4311
SMILES: CN1CCC2=CC3=C(C(=C2[C@@H]1[C@@H]4C5=C(C(=C(C=C5)OC)OC)C(=O)O4)OC)OCO3
InChI: InChI=1S/C22H23NO7/c1-23-8-7-11-9-14-20(29-10-28-14)21(27-4)15(11)17(23)18-12-5-6-13(25-2)19(26-3)16(12)22(24)30-18/h5-6,9,17-18H,7-8,10H2,1-4H3/t17-,18+/m1/s1
Instrument: Agilent 6410 Triple Quadrupole LC/MS system
Instrument type: LC-ESI-QQQ
Ms type: MS2
Ion mode: POSITIVE
Precursor type: [M+H]+
m/z	relative intensity
219.2	1
219.3	2
219.4	5
219.5	9
219.6	16
219.7	29
219.8	49
219.9	72
220.0	91
220.1	99
220.2	96
220.3	82
220.4	60
220.5	34
220.6	12
220.7	1
352.6	2
352.7	3
352.8	5
352.9	8
353.0	11
353.1	12
353.2	12
353.3	10
353.4	6
353.5	3
413.3	1
413.4	3
413.5	5
413.6	8
413.7	13
413.8	23
413.9	36
414.0	49
414.1	59
414.2	62
414.3	57
414.4	44
414.5	26
414.6	10
414.7	0
