Mass spectrum: Carminomycin I; LC-ESI-QQQ; MS2; Frag=135.0V CID@5.0; [M+H]+
Name: Carminomycin I
Class: Polycyclic aromatic natural products
Formula: C26H27NO10
Exact mass: 513.5058
SMILES: CC(=O)[C@]1(O)Cc2c(O)c3c(c(O)c2[C@@H](O[C@H]2C[C@H](N)[C@H](O)[C@H](C)O2)C1)C(=O)c1c(O)cccc1C3=O
InChI: InChI=1S/C26H27NO10/c1-9-21(30)13(27)6-16(36-9)37-15-8-26(35,10(2)28)7-12-18(15)25(34)20-19(23(12)32)22(31)11-4-3-5-14(29)17(11)24(20)33/h3-5,9,13,15-16,21,29-30,32,34-35H,6-8,27H2,1-2H3/t9-,13-,15-,16-,21+,26-/m0/s1
Instrument: Agilent 6410 Triple Quadrupole LC/MS system
Instrument type: LC-ESI-QQQ
Ms type: MS2
Ion mode: POSITIVE
Precursor type: [M+H]+
m/z	relative intensity
129.2	0
129.3	2
129.4	6
129.5	10
129.6	17
129.7	30
129.8	52
129.9	77
130.0	95
130.1	99
130.2	93
130.3	79
130.4	60
130.5	37
130.6	15
130.7	1
513.5	2
513.6	4
513.7	7
513.8	12
513.9	17
514.0	21
514.1	25
514.2	26
514.3	24
514.4	19
514.5	11
514.6	4
