Mass spectrum: Ursinoic acid; LC-ESI-QQQ; MS2; Frag=135.0V CID@5.0; [M+H]+
Name: Ursinoic acid
Class: Terpenoids
Formula: C15H16O5
Exact mass: 276.2918
SMILES: COc1ccc(C(=O)CC(=O)O)c2c1C=CC(C)(C)O2
InChI: InChI=1S/C15H16O5/c1-15(2)7-6-10-12(19-3)5-4-9(14(10)20-15)11(16)8-13(17)18/h4-7H,8H2,1-3H3,(H,17,18)
Instrument: Agilent 6410 Triple Quadrupole LC/MS system
Instrument type: LC-ESI-QQQ
Ms type: MS2
Ion mode: POSITIVE
Precursor type: [M+H]+
m/z	relative intensity
202.7	2
202.8	4
202.9	5
203.0	6
203.1	7
203.2	6
203.3	5
203.4	3
276.3	1
276.4	3
276.5	7
276.6	13
276.7	23
276.8	41
276.9	64
277.0	86
277.1	99
277.2	99
277.3	89
277.4	69
277.5	41
277.6	15
277.7	0
