Mass spectrum: Glycyrrhetic acid, Me ester; LC-ESI-QQQ; MS2; Frag=135.0V CID@15.0; [M+H]+
Name: Glycyrrhetic acid, Me ester
Class: Terpenoids
Formula: C31H48O4
Exact mass: 484.7258
SMILES: COC(=O)[C@@]1(C)CC[C@]2(C)CC[C@]3(C)C(=CC(=O)C4[C@@]5(C)CCC(O)C(C)(C)C5CC[C@]43C)C2C1
InChI: InChI=1S/C31H48O4/c1-26(2)22-9-12-31(7)24(29(22,5)11-10-23(26)33)21(32)17-19-20-18-28(4,25(34)35-8)14-13-27(20,3)15-16-30(19,31)6/h17,20,22-24,33H,9-16,18H2,1-8H3/t20?,22?,23?,24?,27-,28+,29+,30-,31-/m1/s1
Instrument: Agilent 6410 Triple Quadrupole LC/MS system
Instrument type: LC-ESI-QQQ
Ms type: MS2
Ion mode: POSITIVE
Precursor type: [M+H]+
m/z	relative intensity
484.5	1
484.6	3
484.7	7
484.8	15
484.9	27
485.0	44
485.1	64
485.2	82
485.3	95
485.4	99
485.5	90
485.6	67
485.7	37
485.8	11
485.9	0
