Mass spectrum: Erythromycin; LC-ESI-QQQ; MS; [M+H]+
Name: Erythromycin
Class: Polyketides
Formula: C37H67NO13
Exact mass: 733.9454
SMILES: CC[C@@H]1[C@@]([C@@H]([C@H](C(=O)[C@@H](C[C@@]([C@@H]([C@H]([C@@H]([C@H](C(=O)O1)C)O[C@H]2C[C@@]([C@H]([C@@H](O2)C)O)(C)OC)C)O[C@H]3[C@@H]([C@H](C[C@H](O3)C)N(C)C)O)(C)O)C)C)O)(C)O
InChI: InChI=1S/C37H67NO13/c1-14-25-37(10,45)30(41)20(4)27(39)18(2)16-35(8,44)32(51-34-28(40)24(38(11)12)15-19(3)47-34)21(5)29(22(6)33(43)49-25)50-26-17-36(9,46-13)31(42)23(7)48-26/h18-26,28-32,34,40-42,44-45H,14-17H2,1-13H3/t18-,19-,20+,21+,22-,23+,24+,25-,26+,28-,29+,30-,31+,32-,34+,35-,36-,37-/m1/s1
Instrument: ABSciex API3200 LC/MS system
Instrument type: LC-ESI-QQQ
Ms type: MS
Ion mode: POSITIVE
Precursor type: [M+H]+
m/z	relative intensity
119.1000	32
119.2000	43
119.3000	38
119.4000	34
157.5000	94
157.6000	154
157.7000	216
157.8000	228
157.9000	221
158.0000	224
158.1000	229
158.2000	198
158.3000	213
158.4000	162
158.5000	107
158.6000	43
158.7000	23
158.8000	31
158.9000	21
159.0000	24
159.1000	22
159.2000	26
159.3000	23
159.4000	28
521.6000	42
521.7000	69
521.8000	74
521.9000	86
522.0000	84
522.1000	84
522.2000	85
522.3000	78
522.4000	73
522.5000	46
522.6000	31
522.7000	28
522.8000	27
522.9000	33
523.0000	26
523.1000	26
523.2000	25
523.3000	25
523.4000	25
539.7000	39
539.8000	52
539.9000	62
540.0000	59
540.1000	62
540.2000	59
540.3000	56
540.4000	50
540.5000	24
540.9000	21
541.0000	21
541.2000	21
557.6000	55
557.7000	100
557.8000	113
557.9000	134
558.0000	132
558.1000	130
558.2000	118
558.3000	118
558.4000	100
558.5000	72
558.6000	38
558.7000	40
558.8000	47
558.9000	41
559.0000	39
559.1000	45
559.2000	46
559.3000	42
559.4000	37
559.5000	26
575.4000	63
575.5000	49
575.6000	114
575.7000	227
575.8000	316
575.9000	331
576.0000	337
576.1000	333
576.2000	354
576.3000	334
576.4000	279
576.5000	177
576.6000	87
576.7000	116
576.8000	153
576.9000	158
577.0000	143
577.1000	152
577.2000	148
577.3000	128
577.4000	104
577.5000	73
577.6000	50
577.7000	33
577.8000	33
577.9000	33
578.0000	31
578.1000	26
578.2000	32
578.3000	26
578.4000	26
578.5000	30
697.7000	21
697.8000	24
697.9000	26
698.0000	32
698.1000	29
698.2000	30
698.3000	27
698.4000	22
715.6000	34
715.7000	60
715.8000	84
715.9000	100
716.0000	112
716.1000	99
716.2000	97
716.3000	91
716.4000	76
716.5000	63
716.6000	32
716.7000	33
716.8000	44
716.9000	37
717.0000	43
717.1000	47
717.2000	41
717.3000	40
717.4000	41
717.5000	23
719.8000	21
733.4000	87
733.5000	197
733.6000	565
733.7000	842
733.8000	910
733.9000	961
734.0000	999
734.1000	971
734.2000	981
734.3000	890
734.4000	784
734.5000	615
734.6000	369
734.7000	421
734.8000	472
734.9000	510
735.0000	530
735.1000	545
735.2000	523
735.3000	522
735.4000	452
735.5000	368
735.6000	177
735.7000	181
735.8000	199
735.9000	209
736.0000	299
736.1000	231
736.2000	186
736.3000	164
736.4000	136
736.5000	96
736.6000	53
736.7000	44
736.8000	44
736.9000	42
737.0000	40
737.1000	40
737.2000	45
737.3000	43
737.4000	33
737.5000	22
747.6000	37
747.7000	85
747.8000	90
747.9000	79
748.0000	82
748.1000	88
748.2000	84
748.3000	68
748.4000	61
748.5000	43
748.6000	28
748.7000	31
748.8000	36
748.9000	38
749.0000	34
749.1000	36
749.2000	32
749.3000	32
749.4000	30
