Mass spectrum: glucoluteolin; LC-ESI-QQQ; MS2; Frag=135.0V CID@10.0; [M+H]+
Name: Lutl-6-C-Glc
Name: Homoorientin
Name: Isoorientin
Name: luteolin-6-C-glucoside
Name: luteolin- 6-C-beta-D-glucopyranoside / Lutl-7-Glc
Name: Cynaroside
Name: Cinaroside
Name: Glucoluteolin
Name: 7-Glucosylluteolin
Name: Luteoloside
Name: Luteolin 7-O-beta-D-glucoside
Name: Luteolin 7-O-glucopyranoside
Name: 7-O-beta-D-Glucosyl-5,7,3',4'-tetrahydroxyflavone
Name: 2-(3,4-Dihydroxyphenyl)-7-(beta-D-glucopyranosyloxy)-5-hydroxy-4H-1-benzopyran-4-one / Lutl-8-C-Glc
Name: Orientin
Name: Lutexin
Name: 8-beta-D-glucosylluteolin
Name: luteolin-8-c-beta-d-glucopyranoside
Name: glucoluteolin
Class: Flavonoids
Formula: C21H20O11
Exact mass: 448.387
SMILES: O=c1cc(-c2ccc(O)c(O)c2)oc2cc(O[C@@H]3O[C@H](CO)[C@@H](O)[C@H](O)[C@H]3O)cc(O)c12
InChI: InChI=1S/C21H20O11/c22-7-16-18(27)19(28)20(29)21(32-16)30-9-4-12(25)17-13(26)6-14(31-15(17)5-9)8-1-2-10(23)11(24)3-8/h1-6,16,18-25,27-29H,7H2/t16-,18-,19+,20-,21-/m1/s1
Instrument: Agilent 6410 Triple Quadrupole LC/MS system
Instrument type: LC-ESI-QQQ
Ms type: MS2
Ion mode: POSITIVE
Precursor type: [M+H]+
m/z	relative intensity
286.2	0
286.3	1
286.4	5
286.5	12
286.6	23
286.7	40
286.8	60
286.9	80
287.0	95
287.1	99
287.2	91
287.3	70
287.4	42
287.5	16
287.6	1
448.5	2
448.6	3
448.7	6
448.8	9
448.9	13
449.0	15
449.1	16
449.2	14
449.3	12
449.4	8
449.5	3
