Mass spectrum: ononin; LC-ESI-QQQ; MS; [M+H]+
Name: Fmnn-7-Glc
Name: formononetin-7-O-glucoside
Name: Formononetin-7-O-beta-D-glucopyranoside
Name: 4'-Methoxyisoflavone-7-O-beta-D-glucopyranoside
Name: Glucosyl-7-O-formononetin
Name: calycosin-7-O-beta-D-glucoside
Name: ononin
Class: Flavonoids
Formula: C22H22O9
Exact mass: 430.4152
SMILES: COc1ccc(-c2coc3cc(O[C@@H]4O[C@H](CO)[C@@H](O)[C@H](O)[C@H]4O)ccc3c2=O)cc1
InChI: InChI=1S/C22H22O9/c1-28-12-4-2-11(3-5-12)15-10-29-16-8-13(6-7-14(16)18(15)24)30-22-21(27)20(26)19(25)17(9-23)31-22/h2-8,10,17,19-23,25-27H,9H2,1H3/t17-,19-,20+,21-,22-/m1/s1
Instrument: ABSciex API3200 LC/MS system
Instrument type: LC-ESI-QQQ
Ms type: MS
Ion mode: POSITIVE
Precursor type: [M+H]+
m/z	relative intensity
136.6000	23
141.7000	73
141.8000	115
142.4000	23
268.2000	23
268.3000	198
268.4000	593
268.5000	822
268.6000	999
268.7000	888
268.8000	882
268.9000	833
269.0000	857
269.1000	844
269.2000	778
269.3000	737
269.4000	566
269.5000	332
269.6000	346
269.7000	246
269.8000	258
269.9000	220
270.0000	201
270.1000	206
270.2000	698
270.3000	235
270.4000	91
270.5000	33
270.6000	31
270.9000	35
271.0000	24
271.1000	24
271.2000	30
271.3000	33
430.2000	57
430.3000	142
430.4000	388
430.5000	583
430.6000	628
430.7000	635
430.8000	624
430.9000	646
431.0000	644
431.1000	594
431.2000	536
431.3000	503
431.4000	276
431.5000	263
431.6000	227
431.7000	243
431.8000	189
431.9000	179
432.0000	185
432.1000	186
432.2000	185
432.3000	183
432.4000	65
432.5000	72
432.6000	47
432.7000	71
432.8000	41
432.9000	31
433.0000	41
433.1000	36
433.2000	40
433.3000	38
860.3000	37
860.4000	54
860.5000	56
860.6000	70
860.7000	59
860.8000	75
860.9000	54
861.0000	67
861.1000	46
861.2000	36
861.3000	31
861.4000	34
861.5000	35
861.6000	22
861.7000	33
861.8000	38
861.9000	41
862.0000	26
862.1000	26
862.2000	30
