Mass spectrum: Emamectin; LC-ESI-QQQ; MS; [M+H]+
Name: Emamectin
Class: Polyketides
Formula: C49H75NO13
Exact mass: 886.143
SMILES: CC[C@H](C)[C@H]1O[C@]2(C=C[C@@H]1C)C[C@@H]1C[C@@H](C/C=C(\C)[C@@H](O[C@H]3C[C@H](OC)[C@@H](O[C@H]4C[C@H](OC)[C@H](NC)[C@H](C)O4)[C@H](C)O3)[C@@H](C)/C=C/C=C3\CO[C@@H]4[C@H](O)C(C)=C[C@@H](C(=O)O1)[C@]34O)O2
InChI: InChI=1S/C49H75NO13/c1-12-26(2)44-29(5)18-19-48(63-44)24-35-21-34(62-48)17-16-28(4)43(27(3)14-13-15-33-25-56-46-42(51)30(6)20-36(47(52)59-35)49(33,46)53)60-40-23-38(55-11)45(32(8)58-40)61-39-22-37(54-10)41(50-9)31(7)57-39/h13-16,18-20,26-27,29,31-32,34-46,50-51,53H,12,17,21-25H2,1-11H3/b14-13+,28-16+,33-15+/t26-,27-,29-,31-,32-,34+,35-,36-,37-,38-,39-,40-,41+,42+,43-,44+,45-,46+,48+,49+/m0/s1
Instrument: ABSciex API3200 LC/MS system
Instrument type: LC-ESI-QQQ
Ms type: MS
Ion mode: POSITIVE
Precursor type: [M+H]+
m/z	relative intensity
157.5000	22
157.6000	23
157.7000	22
157.8000	24
157.9000	21
198.0000	25
302.1000	50
885.3000	26
885.4000	242
885.5000	517
885.6000	824
885.7000	896
885.8000	953
885.9000	972
886.0000	991
886.1000	983
886.2000	999
886.3000	988
886.4000	923
886.5000	795
886.6000	703
886.7000	664
886.8000	682
886.9000	746
887.0000	728
887.1000	745
887.2000	764
887.3000	771
887.4000	680
887.5000	616
887.6000	389
887.7000	376
887.8000	378
887.9000	364
888.0000	403
888.1000	404
888.2000	389
888.3000	381
888.4000	352
888.5000	280
888.6000	160
888.7000	134
888.8000	113
888.9000	110
889.0000	109
889.1000	118
889.2000	130
889.3000	137
889.4000	100
889.5000	96
889.6000	43
889.8000	32
889.9000	33
890.0000	22
890.1000	25
890.2000	36
890.3000	26
890.5000	21
917.6000	39
917.7000	33
917.8000	62
917.9000	64
918.0000	66
918.1000	54
918.2000	62
918.3000	70
918.4000	52
918.5000	53
918.6000	41
918.7000	29
918.8000	34
918.9000	30
919.0000	41
919.1000	36
919.2000	46
919.3000	49
919.4000	28
