Mass spectrum: 1-Hydroxy-2-methoxyanthraquinone; LC-ESI-QQQ; MS2; Frag=135.0V CID@15.0; [M+H]+
Name: 1-Hydroxy-2-methoxyanthraquinone
Class: Polycyclic aromatic natural products
Formula: C15H10O4
Exact mass: 254.2446
SMILES: COc1ccc2c(c1O)C(=O)c1ccccc1C2=O
InChI: InChI=1S/C15H10O4/c1-19-11-7-6-10-12(15(11)18)14(17)9-5-3-2-4-8(9)13(10)16/h2-7,18H,1H3
Instrument: Agilent 6410 Triple Quadrupole LC/MS system
Instrument type: LC-ESI-QQQ
Ms type: MS2
Ion mode: POSITIVE
Precursor type: [M+H]+
m/z	relative intensity
180.4	1
180.5	2
180.6	5
180.7	8
180.8	12
180.9	15
181.0	16
181.1	15
181.2	13
181.3	11
181.4	7
181.5	4
208.3	0
208.4	2
208.5	6
208.6	9
208.7	10
208.8	10
208.9	11
209.0	14
209.1	17
209.2	16
209.3	13
209.4	7
209.5	2
239.5	3
239.6	5
239.7	10
239.8	17
239.9	24
240.0	28
240.1	27
240.2	21
240.3	12
240.4	5
240.5	1
254.2	1
254.3	2
254.4	4
254.5	7
254.6	14
254.7	28
254.8	50
254.9	74
255.0	92
255.1	99
255.2	94
255.3	79
255.4	55
255.5	27
255.6	6
255.7	0
