Mass spectrum: Acetyldiphyllin; LC-ESI-QQQ; MS2; Frag=135.0V CID@5.0; [M+H]+
Name: Acetyldiphyllin
Class: Lignans
Formula: C23H18O8
Exact mass: 422.3951
SMILES: COc1cc2c(OC(C)=O)c3c(c(-c4ccc5c(c4)OCO5)c2cc1OC)C(=O)OC3
InChI: InChI=1S/C23H18O8/c1-11(24)31-22-14-8-18(27-3)17(26-2)7-13(14)20(21-15(22)9-28-23(21)25)12-4-5-16-19(6-12)30-10-29-16/h4-8H,9-10H2,1-3H3
Instrument: Agilent 6410 Triple Quadrupole LC/MS system
Instrument type: LC-ESI-QQQ
Ms type: MS2
Ion mode: POSITIVE
Precursor type: [M+H]+
m/z	relative intensity
380.4	1
380.5	2
380.6	4
380.7	7
380.8	11
380.9	16
381.0	21
381.1	23
381.2	23
381.3	19
381.4	12
381.5	6
381.6	1
422.2	0
422.3	2
422.4	5
422.5	9
422.6	17
422.7	31
422.8	51
422.9	73
423.0	91
423.1	99
423.2	97
423.3	83
423.4	57
423.5	29
423.6	7
423.7	0
