Mass spectrum: angelicin; LC-ESI-QQQ; MS2; Frag=135.0V CID@25.0; [M+H]+
Name: angelicin
Class: Benzopyranoids
Formula: C11H6O3
Exact mass: 186.1687
SMILES: O=c1ccc2ccc3occc3c2o1
InChI: InChI=1S/C11H6O3/c12-10-4-2-7-1-3-9-8(5-6-13-9)11(7)14-10/h1-6H
Instrument: Agilent 6410 Triple Quadrupole LC/MS system
Instrument type: LC-ESI-QQQ
Ms type: MS2
Ion mode: POSITIVE
Precursor type: [M+H]+
m/z	relative intensity
76.5	1
76.6	2
76.7	3
76.8	5
76.9	7
77.0	9
77.1	9
77.2	9
77.3	7
77.4	5
77.5	2
114.5	1
114.6	2
114.7	4
114.8	6
114.9	8
115.0	9
115.1	10
115.2	9
115.3	7
115.4	5
115.5	2
130.2	0
130.3	1
130.4	5
130.5	15
130.6	29
130.7	47
130.8	67
130.9	85
131.0	97
131.1	99
131.2	92
131.3	77
131.4	55
131.5	29
131.6	8
131.7	0
186.7	2
186.8	3
186.9	4
187.0	5
187.1	5
187.2	5
187.3	4
187.4	2
