Mass spectrum: Asiaticoside; LC-ESI-QQQ; MS2; Frag=135.0V CID@10.0; [M+H]+
Name: Asiaticoside
Class: Terpenoids
Formula: C48H78O19
Exact mass: 959.1455
SMILES: C[C@@H]1[C@H]2C3=CCC4[C@@]5(C)C[C@@H](O)[C@@H](O)[C@@](C)(CO)C5CC[C@@]4(C)[C@]3(C)CC[C@@]2(C(=O)O[C@@H]2O[C@@H](CO[C@@H]3O[C@H](CO)[C@@H](O[C@@H]4O[C@H](C)[C@@H](O)[C@H](O)[C@H]4O)[C@H](O)[C@H]3O)[C@H](O)[C@@H](O)[C@H]2O)CC[C@H]1C
InChI: InChI=1S/C48H78O19/c1-20-10-13-48(15-14-46(6)23(29(48)21(20)2)8-9-28-44(4)16-24(51)39(60)45(5,19-50)27(44)11-12-47(28,46)7)43(61)67-42-36(58)33(55)31(53)26(65-42)18-62-40-37(59)34(56)38(25(17-49)64-40)66-41-35(57)32(54)30(52)22(3)63-41/h8,20-22,24-42,49-60H,9-19H2,1-7H3/t20-,21+,22-,24-,25-,26+,27?,28?,29+,30-,31+,32+,33-,34-,35-,36-,37-,38-,39-,40-,41+,42+,44+,45+,46-,47-,48+/m1/s1
Instrument: Agilent 6410 Triple Quadrupole LC/MS system
Instrument type: LC-ESI-QQQ
Ms type: MS2
Ion mode: POSITIVE
Precursor type: [M+H]+
m/z	relative intensity
126.4	2
126.5	3
126.6	4
126.7	6
126.8	9
126.9	12
127.0	14
127.1	14
127.2	11
127.3	6
127.4	3
272.0	2
272.1	3
272.2	4
272.3	5
272.4	8
272.5	11
272.6	16
272.7	21
272.8	24
272.9	22
273.0	15
273.1	7
273.2	2
307.5	2
307.6	3
307.7	5
307.8	7
307.9	9
308.0	12
308.1	19
308.2	30
308.3	40
308.4	42
308.6	30
308.7	33
308.8	48
308.9	62
309.0	61
309.1	44
309.2	23
309.3	9
309.4	2
452.2	2
452.3	3
452.4	5
452.5	7
452.6	12
452.7	18
452.8	25
452.9	30
453.0	31
453.1	27
453.2	17
453.3	8
453.4	2
469.7	2
469.8	3
469.9	4
470.0	6
470.1	9
470.2	13
470.3	16
470.4	16
634.0	2
634.1	4
634.2	6
634.3	10
634.4	19
634.5	31
634.6	42
634.7	49
634.8	48
634.9	44
635.0	45
635.1	52
635.2	58
635.3	55
635.4	39
635.5	18
635.6	3
650.3	3
650.4	4
650.5	6
650.6	8
650.7	11
650.8	13
650.9	13
651.0	11
651.1	8
651.2	5
651.3	4
796.1	2
796.2	3
796.3	4
796.4	7
796.5	12
796.6	20
796.7	31
796.8	45
796.9	56
797.0	59
797.1	54
797.2	44
797.3	35
797.4	28
797.5	21
797.6	13
797.7	6
797.8	2
812.4	3
812.5	4
812.6	6
812.7	11
812.8	20
812.9	28
813.0	32
813.1	27
813.2	16
813.3	6
813.4	2
957.9	2
958.0	3
958.1	5
958.2	8
958.3	13
958.4	20
958.5	31
958.6	45
958.7	54
958.8	56
958.9	59
959.0	71
959.1	89
959.2	98
959.3	89
959.4	66
959.5	39
959.6	17
959.7	4
