Mass spectrum: Samarcandin; LC-ESI-QQQ; MS2; Frag=135.0V CID@10.0; [M+H]+
Name: Samarcandin
Class: Benzopyranoids
Formula: C24H32O5
Exact mass: 400.5196
SMILES: CC1(C)[C@@H](O)CC[C@]2(C)[C@@H]1CC[C@](C)(O)[C@H]2COc1ccc2ccc(=O)oc2c1
InChI: InChI=1S/C24H32O5/c1-22(2)18-9-12-24(4,27)19(23(18,3)11-10-20(22)25)14-28-16-7-5-15-6-8-21(26)29-17(15)13-16/h5-8,13,18-20,25,27H,9-12,14H2,1-4H3/t18-,19+,20+,23-,24+/m1/s1
Instrument: Agilent 6410 Triple Quadrupole LC/MS system
Instrument type: LC-ESI-QQQ
Ms type: MS2
Ion mode: POSITIVE
Precursor type: [M+H]+
m/z	relative intensity
94.7	2
94.8	4
94.9	6
95.0	7
95.1	8
95.2	7
95.3	6
95.4	4
95.5	2
108.5	2
108.6	3
108.7	5
108.8	7
108.9	10
109.0	13
109.1	14
109.2	14
109.3	12
109.4	8
109.5	4
132.6	2
132.7	3
132.8	5
132.9	8
133.0	10
133.1	11
133.2	11
133.3	9
133.4	6
133.5	3
134.7	2
134.8	3
134.9	4
135.0	5
135.1	5
135.2	4
135.3	3
146.5	1
146.6	2
146.7	4
146.8	7
146.9	9
147.0	10
147.1	11
147.2	11
147.3	10
147.4	8
147.5	4
147.6	1
160.7	2
160.8	4
160.9	5
161.0	7
161.1	8
161.2	7
161.3	6
161.4	4
161.5	2
162.3	1
162.4	3
162.5	7
162.6	14
162.7	22
162.8	30
162.9	39
163.0	47
163.1	51
163.2	48
163.3	39
163.4	26
163.5	12
163.6	2
174.8	2
174.9	3
175.0	5
175.1	6
175.2	6
175.3	6
175.4	4
175.5	2
202.3	1
202.4	3
202.5	5
202.6	9
202.7	17
202.8	32
202.9	54
203.0	76
203.1	93
203.2	99
203.3	94
203.4	79
203.5	54
203.6	28
203.7	7
203.8	0
214.6	1
214.7	2
214.8	4
214.9	5
215.0	6
215.1	6
215.2	5
215.3	3
268.8	1
268.9	3
269.0	5
269.1	6
269.2	6
269.3	4
269.4	2
364.4	1
364.5	2
364.6	4
364.7	9
364.8	16
364.9	26
365.0	36
365.1	44
365.2	49
365.3	49
365.4	42
365.5	28
365.6	12
365.7	1
400.3	1
400.4	3
400.5	6
400.6	9
400.7	14
400.8	23
400.9	37
401.0	54
401.1	70
401.2	80
401.3	82
401.4	74
401.5	54
401.6	30
401.7	9
401.8	0
