Mass spectrum: Meranzin; LC-ESI-QQQ; MS2; Frag=135.0V CID@5.0; [M+H]+
Name: Meranzin
Class: Benzopyranoids
Formula: C15H16O4
Exact mass: 260.2924
SMILES: COc1ccc2ccc(=O)oc2c1CC1OC1(C)C
InChI: InChI=1S/C15H16O4/c1-15(2)12(19-15)8-10-11(17-3)6-4-9-5-7-13(16)18-14(9)10/h4-7,12H,8H2,1-3H3
Instrument: Agilent 6410 Triple Quadrupole LC/MS system
Instrument type: LC-ESI-QQQ
Ms type: MS2
Ion mode: POSITIVE
Precursor type: [M+H]+
m/z	relative intensity
188.1	2
188.2	4
188.3	6
188.4	9
188.5	13
188.6	20
188.7	35
188.8	59
188.9	84
189.0	99
189.1	95
189.2	72
189.3	41
189.4	16
189.5	3
242.5	3
242.6	5
242.7	8
242.8	15
242.9	24
243.0	29
243.1	26
243.2	16
243.3	7
243.4	2
260.3	0
260.4	2
260.5	6
260.6	18
260.7	33
260.8	42
260.9	46
261.0	52
261.1	62
261.2	65
261.3	50
261.4	25
261.5	5
