Mass spectrum: 20-Hydroxyecdysone 2,3:20,22-diacetonide; LC-ESI-QQQ; MS2; Frag=135.0V CID@15.0; [M+H]+
Name: 20-Hydroxyecdysone 2,3:20,22-diacetonide
Class: Steroids
Formula: C33H52O7
Exact mass: 560.7782
SMILES: CC(C)(O)CC[C@H]1OC(C)(C)O[C@]1(C)[C@H]1CC[C@@]2(O)C3=CC(=O)[C@@H]4C[C@H]5OC(C)(C)O[C@H]5C[C@]4(C)[C@H]3CC[C@]12C
InChI: InChI=1S/C33H52O7/c1-27(2,35)13-12-26-32(9,40-29(5,6)39-26)25-11-15-33(36)20-16-22(34)21-17-23-24(38-28(3,4)37-23)18-30(21,7)19(20)10-14-31(25,33)8/h16,19,21,23-26,35-36H,10-15,17-18H2,1-9H3/t19-,21-,23+,24-,25-,26+,30+,31+,32+,33+/m0/s1
Instrument: Agilent 6410 Triple Quadrupole LC/MS system
Instrument type: LC-ESI-QQQ
Ms type: MS2
Ion mode: POSITIVE
Precursor type: [M+H]+
m/z	relative intensity
164.7	1
164.8	3
164.9	4
165.0	6
165.1	6
165.2	5
165.3	5
165.4	3
165.5	1
408.8	3
408.9	4
409.0	7
409.1	11
409.2	16
409.3	18
409.4	17
409.5	12
409.6	6
409.7	1
410.8	1
410.9	3
411.0	4
411.1	5
411.2	6
411.3	5
411.4	4
411.5	2
426.7	4
426.8	5
426.9	8
427.0	12
427.1	16
427.2	18
427.3	20
427.4	19
427.5	14
427.6	7
427.7	1
466.7	1
466.8	2
466.9	4
467.0	7
467.1	10
467.2	15
467.3	18
467.4	17
467.5	13
467.6	6
467.7	0
484.4	1
484.5	3
484.6	7
484.7	11
484.8	16
484.9	27
485.0	44
485.1	64
485.2	84
485.3	97
485.4	99
485.5	87
485.6	61
485.7	30
485.8	7
485.9	0
542.7	1
542.8	3
542.9	6
543.0	11
543.1	19
543.2	26
543.3	30
543.4	31
543.5	28
543.6	21
543.7	12
543.8	4
543.9	0
560.9	1
561.0	2
561.1	4
561.2	6
561.3	7
561.4	7
561.5	6
561.6	4
561.7	2
