Mass spectrum: 3-Isoreserpine; LC-ESI-QQQ; MS2; Frag=135.0V CID@25.0; [M+H]+
Name: 3-Epireserpine
Name: 3-Isoreserpine
Name: Mepireserpate
Name: (1S,13bS,14aS,4aS,2R,3R)-2,11-dimethoxy-1-(methoxycarbonyl)-1,2,3,4,5,8,14,13b,14a,4a-decahydrobenzo(3,4-g)indolo(2,3-a)quinolizin-3-yl 3,4,5-trimethoxybenzoate
Class: Alkaloids
Formula: C33H40N2O9
Exact mass: 608.6947
SMILES: COC(=O)[C@H]1[C@H]2C[C@H]3c4[nH]c5cc(OC)ccc5c4CCN3C[C@H]2C[C@@H](OC(=O)c2cc(OC)c(OC)c(OC)c2)[C@@H]1OC
InChI: InChI=1S/C33H40N2O9/c1-38-19-7-8-20-21-9-10-35-16-18-13-27(44-32(36)17-11-25(39-2)30(41-4)26(12-17)40-3)31(42-5)28(33(37)43-6)22(18)15-24(35)29(21)34-23(20)14-19/h7-8,11-12,14,18,22,24,27-28,31,34H,9-10,13,15-16H2,1-6H3/t18-,22+,24+,27-,28+,31+/m1/s1
Instrument: Agilent 6410 Triple Quadrupole LC/MS system
Instrument type: LC-ESI-QQQ
Ms type: MS2
Ion mode: POSITIVE
Precursor type: [M+H]+
m/z	relative intensity
173.4	1
173.5	2
173.6	4
173.7	7
173.8	11
173.9	17
174.0	21
174.1	24
174.2	24
174.3	21
174.4	16
174.5	9
174.6	3
194.2	0
194.3	2
194.4	4
194.5	6
194.6	11
194.7	20
194.8	33
194.9	48
195.0	60
195.1	67
195.2	66
195.3	56
195.4	39
195.5	19
195.6	4
195.7	0
235.7	2
235.8	3
235.9	4
236.0	6
236.1	6
236.2	7
236.3	6
236.4	5
236.5	3
364.8	1
364.9	3
365.0	4
365.1	5
365.2	6
365.3	5
365.4	4
365.5	2
396.4	1
396.5	2
396.6	4
396.7	7
396.8	13
396.9	23
397.0	37
397.1	48
397.2	54
397.3	53
397.4	47
397.5	35
397.6	20
397.7	7
397.8	0
435.7	0
435.8	2
435.9	3
436.0	4
436.1	5
436.2	5
436.3	5
436.4	4
436.5	2
447.4	1
447.5	2
447.6	4
447.7	6
447.8	11
447.9	17
448.0	25
448.1	31
448.2	34
448.3	34
448.4	29
448.5	20
448.6	10
448.7	2
608.2	0
608.3	1
608.4	3
608.5	7
608.6	11
608.7	16
608.8	27
608.9	44
609.0	63
609.1	81
609.2	93
609.3	99
609.4	98
609.5	85
609.6	58
609.7	27
609.8	5
609.9	0
