Mass spectrum: Bryoamaride; LC-ESI-QQQ; MS2; Frag=135.0V CID@15.0; [M-OH]+
Name: Bryoamaride
Class: Terpenoids
Formula: C36H54O12
Exact mass: 678.8246
SMILES: CC(C)(O)CCC(=O)[C@](C)(O)C1[C@H](O)C[C@@]2(C)C3CC=C4[C@@H](C=C(OC5OC(CO)C(O)C(O)C5O)C(=O)C4(C)C)[C@]3(C)C(=O)C[C@]12C
InChI: InChI=1S/C36H54O12/c1-31(2,45)12-11-23(39)36(8,46)28-19(38)14-33(5)22-10-9-17-18(35(22,7)24(40)15-34(28,33)6)13-20(29(44)32(17,3)4)47-30-27(43)26(42)25(41)21(16-37)48-30/h9,13,18-19,21-22,25-28,30,37-38,41-43,45-46H,10-12,14-16H2,1-8H3/t18-,19-,21?,22?,25?,26?,27?,28?,30?,33+,34-,35+,36+/m1/s1
Instrument: Agilent 6410 Triple Quadrupole LC/MS system
Instrument type: LC-ESI-QQQ
Ms type: MS2
Ion mode: POSITIVE
Precursor type: [M-OH]+
m/z	relative intensity
112.6	1
112.7	3
112.8	8
112.9	13
113.0	16
113.1	16
113.2	13
113.3	8
113.4	4
113.5	1
148.7	1
148.8	2
148.9	4
149.0	4
149.1	3
149.2	2
149.3	2
149.4	1
149.5	1
149.6	0
149.7	0
149.8	0
149.9	0
150.0	0
150.1	0
150.2	0
150.3	0
150.4	0
150.5	0
150.6	0
150.7	0
150.8	0
150.9	0
151.0	0
151.1	0
151.2	0
151.3	0
151.4	0
151.5	0
151.6	0
151.7	0
151.8	0
151.9	0
152.0	0
152.1	0
152.2	0
152.3	0
152.4	0
152.5	0
152.6	0
152.7	0
152.8	0
152.9	0
153.0	0
153.1	0
153.2	0
153.3	0
153.4	0
153.5	0
153.6	0
153.7	0
153.8	0
153.9	0
154.0	0
154.1	0
154.2	0
154.3	0
154.4	0
154.5	0
154.6	0
154.7	0
154.8	0
154.9	0
155.0	0
155.1	0
155.2	0
155.3	0
155.4	0
155.5	0
155.6	0
155.7	0
155.8	0
155.9	0
156.0	0
156.1	0
156.2	0
156.3	0
156.4	0
156.5	0
156.6	0
156.7	0
156.8	0
156.9	0
157.0	0
157.1	0
157.2	0
157.3	0
157.4	0
157.5	0
157.6	0
157.7	0
157.8	0
157.9	0
158.0	0
158.1	0
158.2	0
158.3	0
158.4	0
158.5	0
158.6	0
158.7	0
158.8	0
158.9	0
159.0	0
159.1	0
159.2	0
159.3	0
159.4	0
159.5	0
159.6	0
159.7	0
159.8	0
159.9	0
160.0	0
160.1	0
160.2	0
160.3	0
160.4	0
160.5	0
160.6	0
160.7	0
160.8	0
160.9	0
161.0	0
161.1	0
161.2	0
161.3	0
161.4	0
161.5	0
161.6	0
161.7	0
161.8	0
161.9	0
162.0	0
162.1	0
162.2	0
162.3	0
162.4	0
162.5	0
162.6	0
162.7	0
162.8	0
162.9	0
163.0	0
163.1	0
163.2	0
163.3	0
163.4	0
163.5	0
163.6	0
163.7	0
163.8	0
163.9	0
164.0	0
164.1	0
164.2	0
164.3	0
164.4	0
164.5	0
164.6	0
164.7	0
164.8	0
164.9	0
165.0	1
165.1	1
165.2	1
165.3	1
165.4	0
165.5	0
165.6	0
165.7	0
165.8	0
165.9	0
166.0	0
166.1	0
166.2	0
166.3	0
166.4	0
166.5	0
166.6	0
166.7	1
166.8	2
166.9	3
167.0	5
167.1	6
167.2	5
167.3	3
316.7	0
316.8	2
316.9	3
317.0	5
317.1	5
317.2	4
317.3	2
334.7	1
334.8	3
334.9	5
335.0	7
335.1	9
335.2	9
335.3	8
335.4	5
335.5	2
480.4	1
480.5	2
480.6	4
480.7	5
480.8	7
480.9	10
481.0	14
481.1	21
481.2	29
481.3	35
481.4	33
481.5	24
481.6	12
481.7	2
498.5	0
498.6	2
498.7	10
498.8	24
498.9	44
499.0	63
499.1	77
499.2	87
499.3	96
499.4	99
499.5	88
499.6	59
499.7	25
499.8	2
660.6	1
660.7	2
660.8	4
660.9	6
661.0	10
661.1	13
661.2	14
661.3	12
661.4	9
661.5	6
661.6	4
661.7	2
