Mass spectrum: tubermycin B; LC-ESI-QQQ; MS; [M+H]+
Name: tubermycin B
Class: Alkaloids
Formula: C13H8N2O2
Exact mass: 224.2209
SMILES: O=C(O)c1cccc2nc3ccccc3nc12
InChI: InChI=1S/C13H8N2O2/c16-13(17)8-4-3-7-11-12(8)15-10-6-2-1-5-9(10)14-11/h1-7H,(H,16,17)
Instrument: ABSciex API3200 LC/MS system
Instrument type: LC-ESI-QQQ
Ms type: MS
Ion mode: POSITIVE
Precursor type: [M+H]+
m/z	relative intensity
151.5000	26
151.6000	30
151.7000	38
151.8000	36
151.9000	45
152.0000	33
152.1000	41
152.2000	22
152.3000	28
152.4000	33
152.6000	22
152.7000	21
152.8000	30
152.9000	31
153.0000	22
153.1000	23
153.2000	26
153.3000	22
153.4000	26
170.2000	25
170.8000	25
170.9000	51
178.4000	207
178.5000	352
178.6000	434
178.7000	416
178.8000	431
178.9000	431
179.0000	418
179.1000	447
179.2000	456
179.3000	348
179.4000	277
179.5000	128
179.6000	100
179.7000	70
179.8000	91
179.9000	80
180.0000	86
180.1000	78
180.2000	78
180.3000	75
180.4000	64
197.1000	62
197.2000	37
197.3000	26
206.2000	21
206.3000	95
206.4000	593
206.5000	842
206.6000	908
206.7000	915
206.8000	999
206.9000	967
207.0000	936
207.1000	916
207.2000	855
207.3000	838
207.4000	760
207.5000	833
207.6000	339
207.7000	142
207.8000	166
207.9000	177
208.0000	197
208.1000	161
208.2000	99
208.3000	116
208.4000	236
208.5000	44
208.6000	28
208.9000	22
209.0000	28
209.1000	27
209.2000	23
224.2000	24
224.3000	167
224.4000	530
224.5000	638
224.6000	773
224.7000	759
224.8000	721
224.9000	700
225.0000	716
225.1000	659
225.2000	658
225.3000	834
225.4000	423
225.5000	194
225.6000	138
225.7000	124
225.8000	120
225.9000	115
226.0000	123
226.1000	117
226.2000	106
226.3000	109
226.4000	80
