Mass spectrum: 2-dimethylaminoethyl cinnamate; LC-ESI-QQQ; MS2; Frag=135.0V CID@10.0; [M+H]+
Name: 2-dimethylaminoethyl cinnamate
Class: Carbohydrates
Formula: C13H17NO2
Exact mass: 219.2859
SMILES: CN(C)CCOC(=O)/C=C/c1ccccc1
InChI: InChI=1S/C13H17NO2/c1-14(2)10-11-16-13(15)9-8-12-6-4-3-5-7-12/h3-9H,10-11H2,1-2H3/b9-8+
Instrument: Agilent 6410 Triple Quadrupole LC/MS system
Instrument type: LC-ESI-QQQ
Ms type: MS2
Ion mode: POSITIVE
Precursor type: [M+H]+
m/z	relative intensity
71.3	1
71.4	3
71.5	8
71.6	18
71.7	32
71.8	50
71.9	70
72.0	89
72.1	99
72.2	99
72.3	88
72.4	65
72.5	37
72.6	13
72.7	0
89.6	1
89.7	3
89.8	5
89.9	7
90.0	9
90.1	9
90.2	9
90.3	7
90.4	6
90.5	3
90.6	1
130.3	0
130.4	2
130.5	5
130.6	11
130.7	18
130.8	27
130.9	37
131.0	44
131.1	46
131.2	43
131.3	36
131.4	26
131.5	15
131.6	4
131.7	0
174.3	0
174.4	1
174.5	5
174.6	10
174.7	19
174.8	29
174.9	40
175.0	50
175.1	55
175.2	54
175.3	47
175.4	35
175.5	20
175.6	7
175.7	0
219.5	0
219.6	2
219.7	5
219.8	8
219.9	13
220.0	17
220.1	19
220.2	20
220.3	18
220.4	15
220.5	10
220.6	4
220.7	0
