Mass spectrum: Subhirsine; LC-ESI-QQQ; MS2; Frag=135.0V CID@25.0; [M+H]+
Name: Subhirsine
Class: Alkaloids
Formula: C33H40N2O9
Exact mass: 608.6947
SMILES: COc1ccc(C(=O)OC2C[C@@H]3CC[C@H](C2)N3C(=O)N2[C@H]3CC[C@@H]2CC(OC(=O)c2ccc(OC)c(OC)c2)C3)cc1OC
InChI: InChI=1S/C33H40N2O9/c1-39-27-11-5-19(13-29(27)41-3)31(36)43-25-15-21-7-8-22(16-25)34(21)33(38)35-23-9-10-24(35)18-26(17-23)44-32(37)20-6-12-28(40-2)30(14-20)42-4/h5-6,11-14,21-26H,7-10,15-18H2,1-4H3/t21-,22+,23-,24+,25?,26?
Instrument: Agilent 6410 Triple Quadrupole LC/MS system
Instrument type: LC-ESI-QQQ
Ms type: MS2
Ion mode: POSITIVE
Precursor type: [M+H]+
m/z	relative intensity
92.4	1
92.5	3
92.6	5
92.7	7
92.8	9
92.9	12
93.0	15
93.1	17
93.2	17
93.3	14
93.4	9
93.5	4
93.6	0
135.4	1
135.5	2
135.6	4
135.7	6
135.8	10
135.9	14
136.0	17
136.1	19
136.2	16
136.3	12
136.4	7
136.5	2
164.3	2
164.4	3
164.5	5
164.6	9
164.7	16
164.8	25
164.9	34
165.0	40
165.1	42
165.2	38
165.3	28
165.4	16
165.5	5
165.6	0
182.3	1
182.4	3
182.5	5
182.6	9
182.7	16
182.8	26
182.9	35
183.0	42
183.1	44
183.2	43
183.3	38
183.4	27
183.5	14
183.6	4
244.3	0
244.4	1
244.5	5
244.6	12
244.7	23
244.8	38
244.9	57
245.0	77
245.1	93
245.2	99
245.3	93
245.4	73
245.5	45
245.6	17
245.7	1
426.4	1
426.5	2
426.6	6
426.7	13
426.8	24
426.9	37
427.0	50
427.1	60
427.2	65
427.3	65
427.4	57
427.5	39
427.6	17
427.7	1
