Mass spectrum: retronecine; LC-ESI-QQQ; MS2; Frag=135.0V CID@10.0; [M+H]+
Name: retronecine
Class: Alkaloids
Formula: C8H13NO2
Exact mass: 155.1983
SMILES: OCC1=CCN2CC[C@@H](O)[C@@H]12
InChI: InChI=1S/C8H13NO2/c10-5-6-1-3-9-4-2-7(11)8(6)9/h1,7-8,10-11H,2-5H2/t7-,8-/m1/s1
Instrument: Agilent 6410 Triple Quadrupole LC/MS system
Instrument type: LC-ESI-QQQ
Ms type: MS2
Ion mode: POSITIVE
Precursor type: [M+H]+
m/z	relative intensity
155.3	1
155.4	4
155.5	7
155.6	11
155.7	22
155.8	42
155.9	68
156.0	89
156.1	99
156.2	99
156.3	88
156.4	67
156.5	39
156.6	13
156.7	0
