Mass spectrum: Ferocaulicin; LC-ESI-QQQ; MS2; Frag=135.0V CID@25.0; [M+Na]+
Name: Ferocaulicin
Class: Benzopyranoids
Formula: C26H30O6
Exact mass: 438.5254
SMILES: CC(=O)O[C@@H]1CC[C@@]2(C)[C@H](C(=O)C=C(C)[C@@H]2COc2ccc3ccc(=O)oc3c2)C1(C)C
InChI: InChI=1S/C26H30O6/c1-15-12-20(28)24-25(3,4)22(31-16(2)27)10-11-26(24,5)19(15)14-30-18-8-6-17-7-9-23(29)32-21(17)13-18/h6-9,12-13,19,22,24H,10-11,14H2,1-5H3/t19-,22+,24+,26+/m0/s1
Instrument: Agilent 6410 Triple Quadrupole LC/MS system
Instrument type: LC-ESI-QQQ
Ms type: MS2
Ion mode: POSITIVE
Precursor type: [M+Na]+
m/z	relative intensity
238.7	3
238.8	5
238.9	8
239.0	12
239.1	13
239.2	9
239.3	4
400.5	3
400.6	5
400.7	10
400.8	24
400.9	46
401.0	71
401.1	90
401.2	99
401.3	95
401.4	73
401.5	41
401.6	12
401.7	0
460.4	5
460.5	6
460.6	11
460.7	20
460.8	28
460.9	34
461.0	42
461.1	56
461.2	69
461.3	65
461.4	45
461.5	20
461.6	5
