Mass spectrum: piperine; LC-ESI-QQQ; MS2; Frag=135.0V CID@25.0; [M+H]+
Name: piperine
Class: Alkaloids
Formula: C17H19NO3
Exact mass: 285.3459
SMILES: O=C(/C=C/C=C/c1ccc2c(c1)OCO2)N1CCCCC1
InChI: InChI=1S/C17H19NO3/c19-17(18-10-4-1-5-11-18)7-3-2-6-14-8-9-15-16(12-14)21-13-20-15/h2-3,6-9,12H,1,4-5,10-11,13H2/b6-2+,7-3+
Instrument: Agilent 6410 Triple Quadrupole LC/MS system
Instrument type: LC-ESI-QQQ
Ms type: MS2
Ion mode: POSITIVE
Precursor type: [M+H]+
m/z	relative intensity
68.6	2
68.7	3
68.8	5
68.9	7
69.0	9
69.1	10
69.2	10
69.3	8
69.4	6
69.5	3
114.4	1
114.5	3
114.6	6
114.7	11
114.8	16
114.9	21
115.0	25
115.1	26
115.2	24
115.3	21
115.4	15
115.5	8
115.6	2
134.3	1
134.4	2
134.5	5
134.6	9
134.7	14
134.8	21
134.9	28
135.0	32
135.1	33
135.2	31
135.3	25
135.4	16
135.5	7
135.6	1
142.3	0
142.4	1
142.5	3
142.6	6
142.7	11
142.8	17
142.9	23
143.0	27
143.1	28
143.2	26
143.3	21
143.4	14
143.5	7
143.6	1
158.6	1
158.7	3
158.8	4
158.9	5
159.0	6
159.1	6
159.2	6
159.3	5
159.4	4
159.5	2
170.4	1
170.5	3
170.6	5
170.7	9
170.8	14
170.9	19
171.0	22
171.1	24
171.2	23
171.3	21
171.4	15
171.5	8
171.6	2
172.6	2
172.7	3
172.8	5
172.9	7
173.0	8
173.1	9
173.2	8
173.3	7
173.4	5
173.5	2
200.2	0
200.3	1
200.4	5
200.5	12
200.6	23
200.7	38
200.8	57
200.9	76
201.0	92
201.1	99
201.2	99
201.3	87
201.4	64
201.5	35
201.6	10
201.7	0
