Mass spectrum: Rosamicin; LC-ESI-QQQ; MS; [M+H]+
Name: Rosamicin
Class: Polyketides
Formula: C31H51NO9
Exact mass: 581.7534
SMILES: CC[C@H]1OC(=O)C[C@@H](O)[C@H](C)[C@@H](O[C@@H]2O[C@H](C)C[C@H](N(C)C)C2O)[C@@H](CC=O)C[C@@H](C)C(=O)/C=C/[C@]2(C)O[C@H]2[C@@H]1C
InChI: InChI=1S/C31H51NO9/c1-9-25-20(5)29-31(6,41-29)12-10-23(34)17(2)14-21(11-13-33)28(19(4)24(35)16-26(36)39-25)40-30-27(37)22(32(7)8)15-18(3)38-30/h10,12-13,17-22,24-25,27-30,35,37H,9,11,14-16H2,1-8H3/b12-10+/t17-,18-,19+,20-,21+,22+,24-,25-,27?,28-,29+,30+,31+/m1/s1
Instrument: ABSciex API3200 LC/MS system
Instrument type: LC-ESI-QQQ
Ms type: MS
Ion mode: POSITIVE
Precursor type: [M+H]+
m/z	relative intensity
100.4000	297
100.5000	414
100.6000	465
100.7000	451
100.8000	489
100.9000	446
101.0000	404
101.1000	325
101.2000	283
101.3000	175
101.4000	165
101.5000	50
115.7000	34
115.8000	30
115.9000	27
116.0000	41
116.1000	43
116.2000	51
116.3000	61
116.4000	35
116.5000	24
143.5000	29
143.6000	48
143.7000	66
143.8000	61
143.9000	58
144.0000	68
144.1000	78
144.2000	104
144.3000	73
144.4000	43
144.5000	32
157.4000	106
157.5000	212
157.6000	433
157.7000	650
157.8000	652
157.9000	525
158.0000	498
158.1000	513
158.2000	462
158.3000	415
158.4000	356
158.5000	303
158.6000	69
158.7000	60
158.8000	47
158.9000	49
159.0000	59
159.1000	54
159.2000	40
159.3000	38
159.4000	31
567.5000	32
567.6000	56
567.7000	127
567.8000	133
567.9000	114
568.0000	121
568.1000	102
568.2000	138
568.3000	102
568.4000	98
568.5000	47
568.6000	39
568.7000	45
568.8000	40
568.9000	35
569.0000	26
569.1000	37
569.2000	32
569.3000	32
569.4000	31
581.4000	126
581.5000	331
581.6000	614
581.7000	849
581.8000	892
581.9000	952
582.0000	909
582.1000	919
582.2000	967
582.3000	999
582.4000	900
582.5000	519
582.6000	325
582.7000	338
582.8000	386
582.9000	447
583.0000	478
583.1000	421
583.2000	402
583.3000	377
583.4000	387
583.5000	202
583.6000	115
583.7000	103
583.8000	129
583.9000	138
584.0000	111
584.1000	116
584.2000	120
584.3000	105
584.4000	94
584.5000	47
584.6000	33
584.7000	23
585.3000	26
585.4000	24
586.0000	27
599.5000	25
599.6000	63
599.7000	67
599.8000	109
599.9000	110
600.0000	87
600.1000	103
600.2000	95
600.3000	65
600.4000	62
600.5000	32
600.6000	144
600.7000	185
600.8000	35
613.8000	31
614.0000	25
614.1000	25
614.2000	37
614.3000	22
614.4000	26
616.3000	21
1163.2000	22
