Mass spectrum: Bryoamaride; LC-ESI-QQQ; MS2; Frag=135.0V CID@5.0; [M+HCOO]-
Name: Bryoamaride
Class: Terpenoids
Formula: C36H54O12
Exact mass: 678.8246
SMILES: CC(C)(O)CCC(=O)[C@](C)(O)C1[C@H](O)C[C@@]2(C)C3CC=C4[C@@H](C=C(OC5OC(CO)C(O)C(O)C5O)C(=O)C4(C)C)[C@]3(C)C(=O)C[C@]12C
InChI: InChI=1S/C36H54O12/c1-31(2,45)12-11-23(39)36(8,46)28-19(38)14-33(5)22-10-9-17-18(35(22,7)24(40)15-34(28,33)6)13-20(29(44)32(17,3)4)47-30-27(43)26(42)25(41)21(16-37)48-30/h9,13,18-19,21-22,25-28,30,37-38,41-43,45-46H,10-12,14-16H2,1-8H3/t18-,19-,21?,22?,25?,26?,27?,28?,30?,33+,34-,35+,36+/m1/s1
Instrument: Agilent 6410 Triple Quadrupole LC/MS system
Instrument type: LC-ESI-QQQ
Ms type: MS2
Ion mode: NEGATIVE
Precursor type: [M+HCOO]-
m/z	relative intensity
676.2	0
676.3	2
676.4	5
676.5	9
676.6	14
676.7	23
676.8	35
676.9	49
677.0	63
677.1	76
677.2	85
677.3	94
677.4	99
677.5	92
677.6	65
677.7	29
677.8	3
722.2	0
722.3	1
722.4	4
722.5	7
722.6	9
722.7	11
722.8	14
722.9	19
723.0	24
723.1	27
723.2	29
723.3	32
723.4	34
723.5	30
723.6	19
723.7	7
723.8	0
