Mass spectrum: Erythromycin; LC-ESI-QQQ; MS2; Frag=135.0V CID@15.0; [M+H]+
Name: Erythromycin
Class: Polyketides
Formula: C37H67NO13
Exact mass: 733.9454
SMILES: CC[C@@H]1[C@@]([C@@H]([C@H](C(=O)[C@@H](C[C@@]([C@@H]([C@H]([C@@H]([C@H](C(=O)O1)C)O[C@H]2C[C@@]([C@H]([C@@H](O2)C)O)(C)OC)C)O[C@H]3[C@@H]([C@H](C[C@H](O3)C)N(C)C)O)(C)O)C)C)O)(C)O
InChI: InChI=1S/C37H67NO13/c1-14-25-37(10,45)30(41)20(4)27(39)18(2)16-35(8,44)32(51-34-28(40)24(38(11)12)15-19(3)47-34)21(5)29(22(6)33(43)49-25)50-26-17-36(9,46-13)31(42)23(7)48-26/h18-26,28-32,34,40-42,44-45H,14-17H2,1-13H3/t18-,19-,20+,21+,22-,23+,24+,25-,26+,28-,29+,30-,31+,32-,34+,35-,36-,37-/m1/s1
Instrument: Agilent 6410 Triple Quadrupole LC/MS system
Instrument type: LC-ESI-QQQ
Ms type: MS2
Ion mode: POSITIVE
Precursor type: [M+H]+
m/z	relative intensity
157.2	1
157.3	4
157.4	7
157.5	11
157.6	17
157.7	27
157.8	39
157.9	53
158.0	64
158.1	69
158.2	66
158.3	55
158.4	38
158.5	20
158.6	5
158.7	0
521.6	2
521.7	3
521.8	5
521.9	8
522.0	12
522.1	15
522.2	18
522.3	17
522.4	14
522.5	8
522.6	3
539.7	2
539.8	3
539.9	5
540.0	6
540.1	8
540.2	10
540.3	10
540.4	8
540.5	5
540.6	1
557.4	1
557.5	2
557.6	3
557.7	5
557.8	7
557.9	11
558.0	15
558.1	20
558.2	23
558.3	23
558.4	20
558.5	13
558.6	6
558.7	1
575.2	1
575.3	2
575.4	5
575.5	8
575.6	13
575.7	20
575.8	28
575.9	41
576.0	57
576.1	77
576.2	93
576.3	99
576.4	91
576.5	70
576.6	43
576.7	18
576.8	2
715.8	2
715.9	3
716.0	4
716.1	4
716.2	5
716.3	6
716.4	6
716.5	5
716.6	3
733.4	1
733.5	2
733.6	4
733.7	6
733.8	9
733.9	13
734.0	21
734.1	30
734.2	37
734.3	41
734.4	39
734.5	33
734.6	25
734.7	15
734.8	6
734.9	0
