Mass spectrum: 2-Deoxycrustecdysone; LC-ESI-QQQ; MS2; Frag=135.0V CID@15.0; [M+H]+
Name: 2-Deoxycrustecdysone
Class: Steroids
Formula: C27H44O6
Exact mass: 464.6481
SMILES: CC(C)(O)CC[C@@H](O)[C@](C)(O)C1CC[C@@]2(O)C3=CC(=O)[C@@H]4C[C@@H](O)CC[C@]4(C)C3CC[C@]12C
InChI: InChI=1S/C27H44O6/c1-23(2,31)10-9-22(30)26(5,32)21-8-13-27(33)18-15-20(29)19-14-16(28)6-11-24(19,3)17(18)7-12-25(21,27)4/h15-17,19,21-22,28,30-33H,6-14H2,1-5H3/t16-,17?,19-,21?,22+,24+,25+,26+,27+/m0/s1
Instrument: Agilent 6410 Triple Quadrupole LC/MS system
Instrument type: LC-ESI-QQQ
Ms type: MS2
Ion mode: POSITIVE
Precursor type: [M+H]+
m/z	relative intensity
164.5	1
164.6	2
164.7	5
164.8	10
164.9	14
165.0	17
165.1	18
165.2	20
165.3	20
165.4	16
165.5	8
165.6	2
286.7	1
286.8	3
286.9	6
287.0	9
287.1	11
287.2	12
287.3	10
287.4	7
287.5	3
354.3	1
354.4	3
354.5	6
354.6	9
354.7	15
354.8	28
354.9	49
355.0	72
355.1	90
355.2	99
355.3	96
355.4	80
355.5	55
355.6	28
355.7	7
355.8	0
393.0	3
393.1	5
393.2	6
393.3	7
393.4	7
393.5	5
393.6	2
410.6	2
410.7	3
410.8	5
410.9	10
411.0	17
411.1	23
411.2	27
411.3	29
411.4	27
411.5	21
411.6	12
411.7	4
428.4	1
428.5	2
428.6	4
428.7	7
428.8	16
428.9	31
429.0	50
429.1	67
429.2	79
429.3	84
429.4	83
429.5	70
429.6	46
429.7	19
429.8	1
446.8	2
446.9	5
447.0	7
447.1	10
447.2	11
447.3	10
447.4	8
447.5	5
447.6	2
