Mass spectrum: angelicin; LC-ESI-QQQ; MS2; Frag=135.0V CID@10.0; [M+H]+
Name: angelicin
Class: Benzopyranoids
Formula: C11H6O3
Exact mass: 186.1687
SMILES: O=c1ccc2ccc3occc3c2o1
InChI: InChI=1S/C11H6O3/c12-10-4-2-7-1-3-9-8(5-6-13-9)11(7)14-10/h1-6H
Instrument: Agilent 6410 Triple Quadrupole LC/MS system
Instrument type: LC-ESI-QQQ
Ms type: MS2
Ion mode: POSITIVE
Precursor type: [M+H]+
m/z	relative intensity
130.5	1
130.6	3
130.7	5
130.8	7
130.9	9
131.0	10
131.1	10
131.2	9
131.3	7
131.4	5
131.5	2
186.2	0
186.3	1
186.4	5
186.5	14
186.6	28
186.7	47
186.8	67
186.9	84
187.0	96
187.1	99
187.2	95
187.3	80
187.4	55
187.5	26
187.6	4
187.7	0
