Mass spectrum: harmine; LC-ESI-QQQ; MS2; Frag=135.0V CID@15.0; [M+H]+
Name: harmine
Class: Alkaloids
Formula: C13H12N2O
Exact mass: 212.2534
SMILES: COc1ccc2c(c1)[nH]c1c(C)nccc12
InChI: InChI=1S/C13H12N2O/c1-8-13-11(5-6-14-8)10-4-3-9(16-2)7-12(10)15-13/h3-7,15H,1-2H3
Instrument: Agilent 6410 Triple Quadrupole LC/MS system
Instrument type: LC-ESI-QQQ
Ms type: MS2
Ion mode: POSITIVE
Precursor type: [M+H]+
m/z	relative intensity
169.6	1
169.7	3
169.8	4
169.9	6
170.0	8
170.1	9
170.2	8
170.3	7
170.4	5
170.5	3
197.4	1
197.5	3
197.6	6
197.7	11
197.8	17
197.9	24
198.0	29
198.1	31
198.2	31
198.3	27
198.4	20
198.5	12
198.6	4
212.3	0
212.4	3
212.5	8
212.6	17
212.7	30
212.8	48
212.9	69
213.0	88
213.1	99
213.2	99
213.3	89
213.4	70
213.5	43
213.6	17
213.7	1
