Mass spectrum: Haplophyllidine; LC-ESI-QQQ; MS2; Frag=135.0V CID@15.0; [M+H]+
Name: Haplophyllidine
Class: Alkaloids
Formula: C18H23NO4
Exact mass: 317.3883
SMILES: COc1c2c(nc3occc13)C(CC=C(C)C)(OC)C(O)CC2
InChI: InChI=1S/C18H23NO4/c1-11(2)7-9-18(22-4)14(20)6-5-12-15(21-3)13-8-10-23-17(13)19-16(12)18/h7-8,10,14,20H,5-6,9H2,1-4H3
Instrument: Agilent 6410 Triple Quadrupole LC/MS system
Instrument type: LC-ESI-QQQ
Ms type: MS2
Ion mode: POSITIVE
Precursor type: [M+H]+
m/z	relative intensity
217.2	1
217.3	3
217.4	6
217.5	10
217.6	15
217.7	26
217.8	47
217.9	72
218.0	92
218.1	99
218.2	94
218.3	78
218.4	56
218.5	30
218.6	9
218.7	0
229.5	1
229.6	2
229.7	4
229.8	7
229.9	10
230.0	13
230.1	14
230.2	13
230.3	11
230.4	7
230.5	3
267.8	2
267.9	4
268.0	5
268.1	6
268.2	7
268.3	6
268.4	5
268.5	2
285.3	1
285.4	3
285.5	5
285.6	8
285.7	14
285.8	26
285.9	42
286.0	60
286.1	72
286.2	76
286.3	69
286.4	54
286.5	34
286.6	14
286.7	2
