Mass spectrum: Sanguinarine; LC-ESI-QQQ; MS; [M+H]+
Name: Sanguinarine
Class: Alkaloids
Formula: [C20H14NO4]+
Exact mass: 332.3389
SMILES: C[n+]1cc2c3c(ccc2c2ccc4cc5c(cc4c21)OCO5)OCO3
InChI: InChI=1S/C20H14NO4/c1-21-8-15-12(4-5-16-20(15)25-10-22-16)13-3-2-11-6-17-18(24-9-23-17)7-14(11)19(13)21/h2-8H,9-10H2,1H3/q+1
Instrument: ABSciex API3200 LC/MS system
Instrument type: LC-ESI-QQQ
Ms type: MS
Ion mode: POSITIVE
Precursor type: [M]+
m/z	relative intensity
245.4000	22
245.5000	38
245.6000	46
245.7000	45
245.8000	52
245.9000	53
246.0000	47
246.1000	48
246.2000	45
246.3000	41
246.4000	45
246.5000	23
273.4000	65
273.5000	89
273.6000	124
273.7000	118
273.8000	123
273.9000	115
274.0000	115
274.1000	113
274.2000	113
274.3000	100
274.4000	74
274.5000	42
274.6000	48
274.7000	40
274.8000	32
274.9000	32
275.0000	32
275.1000	32
275.2000	32
275.3000	31
275.4000	35
275.5000	28
275.6000	31
275.7000	30
275.8000	38
275.9000	41
276.0000	30
276.1000	29
276.2000	29
301.4000	35
301.5000	49
301.6000	58
301.7000	65
301.8000	67
301.9000	67
302.0000	67
302.1000	69
302.2000	64
302.3000	90
302.4000	51
302.5000	27
302.6000	27
302.7000	22
302.8000	23
302.9000	22
303.1000	24
303.2000	26
303.3000	46
303.4000	93
303.5000	136
303.6000	156
303.7000	173
303.8000	182
303.9000	186
304.0000	177
304.1000	180
304.2000	183
304.3000	159
304.4000	106
304.5000	63
304.6000	47
304.7000	43
304.8000	45
304.9000	40
305.0000	43
305.1000	38
305.2000	41
305.3000	34
305.4000	23
316.3000	32
316.4000	82
316.5000	121
316.6000	129
316.7000	130
316.8000	136
316.9000	157
317.0000	144
317.1000	119
317.2000	108
317.3000	98
317.4000	60
317.5000	51
317.6000	37
317.7000	30
317.8000	27
317.9000	30
318.0000	31
318.1000	35
318.2000	25
318.3000	22
329.4000	29
329.5000	62
329.6000	66
329.7000	50
329.8000	52
329.9000	49
330.0000	54
330.1000	48
330.2000	44
330.3000	37
331.1000	24
331.2000	81
331.3000	507
331.4000	894
331.5000	981
331.6000	966
331.7000	959
331.8000	970
331.9000	986
332.0000	985
332.1000	999
332.2000	932
332.3000	875
332.4000	634
332.5000	491
332.6000	467
332.7000	443
332.8000	447
332.9000	456
333.0000	465
333.1000	444
333.2000	421
333.3000	397
333.4000	279
333.5000	159
333.6000	130
333.7000	113
333.8000	106
333.9000	111
334.0000	106
334.1000	137
334.2000	99
334.3000	81
334.4000	45
334.5000	22
