Mass spectrum: liquiritigenin; LC-ESI-QQQ; MS2; Frag=135.0V CID@15.0; [M+H]+
Name: Liquiritigenin
Name: (2S)-7-hydroxy-2-(4-hydroxyphenyl)-2,3-dihydrochromen-4-one
Name: liquiritigenin
Class: Flavonoids
Formula: C15H12O4
Exact mass: 256.2605
SMILES: O=C1C[C@@H](c2ccc(O)cc2)Oc2cc(O)ccc21
InChI: InChI=1S/C15H12O4/c16-10-3-1-9(2-4-10)14-8-13(18)12-6-5-11(17)7-15(12)19-14/h1-7,14,16-17H,8H2/t14-/m0/s1
Instrument: Agilent 6410 Triple Quadrupole LC/MS system
Instrument type: LC-ESI-QQQ
Ms type: MS2
Ion mode: POSITIVE
Precursor type: [M+H]+
m/z	relative intensity
118.7	2
118.8	3
118.9	5
119.0	6
119.1	6
119.2	5
119.3	4
119.4	2
136.2	1
136.3	2
136.4	6
136.5	16
136.6	31
136.7	50
136.8	71
136.9	89
137.0	99
137.1	99
137.2	93
137.3	78
137.4	54
137.5	26
137.6	5
137.7	0
146.3	1
146.4	3
146.5	6
146.6	13
146.7	21
146.8	31
146.9	41
147.0	48
147.1	50
147.2	47
147.3	39
147.4	28
147.5	14
147.6	3
210.5	1
210.6	3
210.7	4
210.8	7
210.9	9
211.0	11
211.1	12
211.2	11
211.3	10
211.4	7
211.5	3
238.6	2
238.7	3
238.8	5
238.9	7
239.0	9
239.1	10
239.2	9
239.3	6
239.4	3
256.3	1
256.4	3
256.5	5
256.6	10
256.7	19
256.8	30
256.9	41
257.0	49
257.1	53
257.2	54
257.3	49
257.4	37
257.5	20
257.6	4
257.7	0
