Mass spectrum: Nivalidine; LC-ESI-QQQ; MS; [M+H]+
Name: Nivalidine
Class: Alkaloids
Formula: C17H19NO2
Exact mass: 269.3465
SMILES: COc1ccc2c(c1O)-c1ccccc1CCN(C)C2
InChI: InChI=1S/C17H19NO2/c1-18-10-9-12-5-3-4-6-14(12)16-13(11-18)7-8-15(20-2)17(16)19/h3-8,19H,9-11H2,1-2H3
Instrument: ABSciex API3200 LC/MS system
Instrument type: LC-ESI-QQQ
Ms type: MS
Ion mode: POSITIVE
Precursor type: [M+H]+
m/z	relative intensity
177.5000	55
177.6000	67
177.7000	67
177.8000	62
177.9000	64
178.0000	61
178.1000	63
178.2000	51
178.3000	50
178.4000	176
178.5000	336
178.6000	397
178.7000	390
178.8000	385
178.9000	388
179.0000	399
179.1000	353
179.2000	323
179.3000	268
179.4000	300
179.5000	231
179.6000	98
179.7000	70
179.8000	73
179.9000	64
180.0000	67
180.1000	58
180.2000	44
180.3000	51
180.4000	59
180.5000	41
180.6000	39
180.7000	46
180.8000	38
180.9000	39
181.0000	44
181.1000	39
181.2000	35
181.3000	39
181.4000	54
182.7000	34
182.8000	26
182.9000	30
183.0000	23
183.1000	24
183.2000	21
183.3000	23
190.6000	22
190.7000	33
190.8000	36
190.9000	26
191.0000	25
191.1000	28
191.2000	21
192.1000	25
192.7000	26
193.1000	23
193.8000	26
194.0000	21
194.6000	25
194.7000	29
194.9000	32
195.0000	32
195.4000	41
195.5000	62
195.6000	90
195.7000	116
195.8000	99
195.9000	123
196.0000	99
196.1000	113
196.2000	99
196.3000	127
196.4000	112
196.5000	37
196.6000	27
196.8000	22
196.9000	27
205.9000	28
206.4000	53
206.5000	118
206.6000	243
206.7000	247
206.8000	219
206.9000	202
207.0000	177
207.1000	194
207.2000	208
207.3000	201
207.4000	150
207.5000	78
207.6000	74
207.7000	64
207.8000	59
207.9000	64
208.0000	74
208.1000	70
208.2000	61
208.3000	63
208.4000	101
208.5000	114
208.6000	175
208.7000	176
208.8000	193
208.9000	159
209.0000	192
209.1000	170
209.2000	195
209.3000	141
209.4000	135
209.5000	78
209.6000	48
209.7000	65
209.8000	83
209.9000	25
210.0000	23
210.1000	27
210.2000	26
210.3000	22
210.4000	67
210.5000	102
210.6000	167
210.7000	164
210.8000	169
210.9000	189
211.0000	190
211.1000	141
211.2000	164
211.3000	148
211.4000	134
211.5000	70
211.6000	31
211.7000	23
211.8000	29
211.9000	32
212.1000	25
212.2000	29
212.3000	30
212.4000	34
219.5000	60
219.6000	124
219.7000	138
219.8000	148
219.9000	156
220.0000	145
220.1000	164
220.2000	146
220.3000	102
220.4000	127
220.5000	49
220.6000	43
220.7000	45
220.8000	57
220.9000	51
221.0000	64
221.1000	45
221.2000	36
221.3000	46
221.4000	30
221.5000	30
221.7000	28
221.8000	28
221.9000	30
222.1000	22
222.2000	29
222.3000	26
222.4000	25
223.4000	29
223.5000	72
223.6000	76
223.7000	90
223.8000	96
223.9000	79
224.0000	86
224.1000	79
224.2000	77
224.3000	73
224.4000	54
224.5000	25
224.6000	25
224.7000	21
225.0000	31
225.1000	24
236.5000	23
236.6000	31
236.7000	43
236.8000	46
236.9000	42
237.0000	53
237.1000	37
237.2000	31
237.3000	34
237.4000	28
237.5000	21
237.9000	24
238.1000	22
238.2000	25
238.3000	33
238.4000	201
238.5000	403
238.6000	429
238.7000	437
238.8000	471
238.9000	493
239.0000	468
239.1000	557
239.2000	757
239.3000	632
239.4000	236
239.5000	135
239.6000	118
239.7000	99
239.8000	105
239.9000	119
240.0000	89
240.1000	99
240.2000	92
240.3000	86
240.4000	84
240.5000	52
240.6000	44
240.7000	29
240.8000	29
240.9000	23
241.0000	26
241.1000	25
241.2000	26
241.3000	24
251.5000	77
251.6000	111
251.7000	119
251.8000	132
251.9000	131
252.0000	118
252.1000	107
252.2000	102
252.3000	129
252.4000	99
252.5000	53
252.6000	30
252.7000	26
252.8000	34
252.9000	33
253.0000	34
253.1000	36
253.2000	34
253.3000	22
269.2000	24
269.3000	51
269.4000	638
269.5000	973
269.6000	981
269.7000	893
269.8000	950
269.9000	958
270.0000	957
270.1000	999
270.2000	978
270.3000	975
270.4000	893
270.5000	643
270.6000	520
270.7000	481
270.8000	404
270.9000	416
271.0000	427
271.1000	405
271.2000	445
271.3000	369
271.4000	340
271.5000	222
271.6000	118
271.7000	74
271.8000	77
271.9000	64
272.0000	47
272.1000	49
272.2000	104
272.3000	77
272.4000	44
272.5000	28
287.6000	26
287.7000	30
287.8000	42
287.9000	53
288.0000	43
288.1000	45
288.2000	32
288.3000	39
288.4000	39
