Mass spectrum: 19,28-Epoxy-3-oleananol; LC-ESI-QQQ; MS2; Frag=135.0V CID@10.0; [M+H]+
Name: 19,28-Epoxy-3-oleananol
Class: Terpenoids
Formula: C30H50O2
Exact mass: 442.7318
SMILES: CC1(C)CCC23CC[C@]4(C)C(CCC5[C@@]6(C)CCC(O)C(C)(C)C6CC[C@]54C)C2C1OC3
InChI: InChI=1S/C30H50O2/c1-25(2)14-16-30-17-15-28(6)19(23(30)24(25)32-18-30)8-9-21-27(5)12-11-22(31)26(3,4)20(27)10-13-29(21,28)7/h19-24,31H,8-18H2,1-7H3/t19?,20?,21?,22?,23?,24?,27-,28+,29+,30?/m0/s1
Instrument: Agilent 6410 Triple Quadrupole LC/MS system
Instrument type: LC-ESI-QQQ
Ms type: MS2
Ion mode: POSITIVE
Precursor type: [M+H]+
m/z	relative intensity
96.5	6
96.6	7
96.7	8
96.8	8
96.9	7
97.0	7
97.1	7
97.2	7
97.3	7
97.4	6
97.5	6
97.6	5
97.7	5
97.8	6
97.9	6
98.0	6
98.1	6
98.2	5
98.3	5
98.4	5
98.5	6
98.6	6
98.7	6
98.8	6
98.9	5
99.0	6
99.1	6
99.2	7
99.3	7
99.4	6
99.5	5
99.6	4
99.7	5
99.8	6
99.9	7
100.0	6
100.1	5
100.2	5
100.3	5
100.4	6
100.5	7
100.6	6
100.7	6
100.8	5
100.9	6
101.0	6
101.1	6
101.2	6
101.3	6
101.4	5
101.5	5
101.6	6
101.7	6
101.8	7
101.9	6
102.0	5
102.1	5
102.2	5
102.3	6
102.4	6
102.5	6
102.6	6
102.7	5
102.8	5
102.9	6
103.0	6
103.1	6
103.2	6
103.3	5
103.4	5
103.5	5
103.6	6
103.7	6
103.8	6
103.9	5
104.0	5
104.1	5
104.2	5
104.3	5
104.4	5
104.5	4
104.6	4
104.7	4
104.8	5
104.9	6
105.0	7
105.1	6
105.2	5
105.3	5
105.4	4
105.5	5
105.6	6
105.7	6
105.8	6
105.9	5
106.0	5
106.1	5
106.2	5
106.3	6
106.4	5
106.5	5
106.6	4
106.7	5
106.8	6
106.9	6
107.0	6
107.1	6
107.2	5
107.3	5
107.4	6
107.5	7
107.6	7
107.7	6
107.8	5
107.9	4
108.0	4
108.1	5
108.2	6
108.3	6
108.4	6
108.5	5
108.6	5
108.7	5
108.8	6
108.9	6
109.0	6
109.1	5
109.2	5
109.3	6
109.4	7
109.5	7
109.6	6
109.7	5
109.8	5
109.9	5
110.0	5
110.1	6
110.2	6
110.3	5
110.4	5
110.5	5
110.6	6
110.7	6
110.8	6
110.9	6
111.0	6
111.1	5
111.2	5
111.3	6
111.4	6
111.5	6
111.6	6
111.7	5
111.8	5
111.9	6
112.0	7
112.1	7
112.2	6
112.3	5
112.4	5
112.5	5
112.6	7
112.7	7
112.8	6
112.9	5
113.0	5
113.1	5
113.2	6
113.3	7
113.4	6
113.5	6
113.6	5
113.7	5
113.8	6
113.9	6
114.0	6
114.1	6
114.2	5
114.3	5
114.4	5
114.5	6
114.6	6
114.7	6
114.8	6
114.9	5
115.0	5
115.1	6
115.2	6
115.3	6
115.4	5
115.5	5
115.6	4
115.7	5
115.8	6
115.9	7
116.0	6
116.1	6
116.2	5
116.3	5
116.4	6
116.5	6
116.6	6
116.7	5
116.8	5
116.9	5
117.0	6
117.1	7
117.2	7
117.3	6
117.4	5
117.5	5
117.6	5
117.7	6
117.8	6
117.9	6
118.0	5
118.1	5
118.2	5
118.3	6
118.4	6
118.5	6
118.6	5
118.7	5
118.8	5
118.9	6
119.0	7
119.1	7
119.2	6
119.3	5
119.4	5
119.5	5
119.6	5
119.7	6
119.8	6
119.9	6
120.0	5
120.1	5
120.2	6
120.3	7
120.4	7
120.5	6
120.6	5
120.7	5
120.8	5
120.9	6
121.0	7
121.1	7
121.2	6
121.3	5
121.4	6
121.5	6
121.6	6
121.7	6
121.8	5
121.9	5
122.0	5
122.1	6
122.2	7
122.3	8
122.4	7
122.5	5
122.6	5
122.7	5
122.8	6
122.9	6
123.0	6
123.1	5
123.2	5
123.3	5
123.4	6
123.5	7
123.6	7
123.7	6
123.8	6
123.9	5
124.0	6
124.1	6
124.2	6
124.3	6
124.4	5
124.5	5
124.6	5
124.7	6
124.8	6
124.9	6
125.0	6
125.1	5
125.2	5
125.3	5
125.4	6
125.5	6
125.6	6
125.7	6
125.8	5
125.9	6
126.0	6
126.1	7
126.2	7
126.3	6
126.4	5
126.5	5
126.6	6
126.7	7
126.8	7
126.9	7
127.0	6
127.1	5
127.2	5
127.3	6
127.4	6
127.5	6
127.6	5
127.7	5
127.8	5
127.9	6
128.0	6
128.1	6
128.2	5
128.3	5
128.4	5
128.5	6
128.6	6
128.7	6
128.8	6
128.9	6
129.0	5
129.1	6
129.2	6
129.3	6
129.4	6
129.5	6
129.6	5
129.7	5
129.8	6
129.9	6
130.0	6
130.1	5
130.2	5
130.3	5
130.4	5
130.5	6
130.6	6
130.7	6
130.8	5
130.9	5
131.0	5
131.1	6
131.2	6
131.3	6
131.4	6
131.5	5
131.6	5
131.7	5
131.8	6
131.9	6
132.0	6
132.1	6
132.2	5
132.3	5
132.4	6
132.5	7
132.6	6
132.7	5
132.8	4
132.9	4
133.0	5
133.1	6
133.2	6
133.3	6
133.4	5
133.5	5
133.6	5
133.7	6
133.8	6
133.9	6
134.0	5
134.1	5
134.2	5
134.3	6
134.4	6
134.5	7
134.6	7
134.7	7
134.8	7
134.9	6
135.0	6
135.1	6
135.2	6
135.3	6
135.4	6
135.5	6
135.6	6
135.7	6
135.8	6
135.9	6
136.0	5
136.1	5
136.2	6
136.3	7
136.4	7
136.5	6
136.6	5
136.7	5
136.8	5
136.9	6
137.0	6
137.1	6
137.2	5
137.3	5
137.4	5
137.5	6
137.6	6
137.7	6
137.8	5
137.9	5
138.0	5
138.1	5
138.2	7
138.3	7
138.4	7
138.5	6
138.6	5
138.7	5
138.8	6
138.9	6
139.0	6
139.1	5
139.2	5
139.3	5
139.4	6
139.5	6
139.6	6
139.7	6
139.8	5
139.9	5
140.0	5
140.1	6
140.2	6
140.3	6
140.4	6
140.5	5
140.6	5
140.7	5
140.8	6
140.9	6
141.0	6
141.1	5
141.2	5
141.3	6
141.4	6
141.5	6
141.6	6
141.7	5
141.8	5
141.9	5
142.0	6
142.1	6
142.2	6
142.3	5
142.4	5
142.5	6
142.6	6
142.7	6
142.8	6
142.9	5
143.0	5
143.1	5
143.2	5
143.3	6
143.4	6
143.5	6
143.6	5
143.7	5
143.8	5
143.9	6
144.0	6
144.1	6
144.2	6
144.3	5
144.4	5
144.5	6
144.6	7
144.7	7
144.8	6
144.9	5
145.0	4
145.1	5
145.2	6
145.3	6
145.4	6
145.5	6
145.6	5
145.7	5
145.8	5
145.9	6
146.0	6
146.1	5
146.2	4
146.3	4
146.4	4
146.5	5
146.6	6
146.7	7
146.8	6
146.9	6
147.0	6
147.1	6
147.2	6
147.3	6
147.4	5
147.5	4
147.6	4
147.7	5
147.8	6
147.9	6
148.0	5
148.1	5
148.2	5
148.3	5
148.4	7
148.5	7
148.6	7
148.7	5
148.8	5
148.9	5
149.0	5
149.1	6
149.2	6
149.3	6
149.4	6
149.5	5
149.6	5
149.7	6
149.8	6
149.9	6
150.0	6
150.1	5
150.2	5
150.3	5
150.4	6
150.5	6
150.6	6
150.7	5
150.8	5
150.9	6
151.0	6
151.1	7
151.2	6
151.3	6
151.4	5
151.5	5
151.6	6
151.7	6
151.8	6
151.9	6
152.0	6
152.1	6
152.2	6
152.3	7
152.4	7
152.8	5
152.9	6
153.0	7
153.1	7
153.2	6
153.3	5
153.4	5
153.5	6
153.6	7
153.7	7
153.8	6
153.9	5
154.0	4
154.1	5
154.2	7
154.3	7
154.4	7
154.5	6
154.6	6
154.7	6
154.8	6
154.9	6
155.0	6
155.1	6
155.2	5
155.3	5
155.4	6
155.5	7
155.6	7
155.7	6
155.8	5
155.9	5
156.0	6
156.1	7
156.2	7
156.3	7
162.4	5
162.5	6
162.6	7
162.7	9
162.8	11
162.9	12
163.0	11
163.1	8
176.3	6
176.4	7
176.5	8
176.6	8
176.7	7
176.8	6
176.9	6
177.0	6
177.1	6
177.2	6
177.3	7
177.4	7
177.5	6
177.6	5
177.7	5
177.8	6
177.9	7
178.0	7
178.1	7
178.2	6
178.3	6
178.4	6
178.5	6
178.6	6
178.7	6
178.8	6
178.9	7
179.0	7
179.1	7
179.2	6
179.3	6
179.4	5
179.5	5
179.6	5
179.7	6
179.8	6
179.9	6
180.0	5
180.1	5
180.2	5
180.3	5
180.4	6
180.5	7
180.6	7
180.7	6
180.8	5
180.9	5
181.0	5
181.1	6
181.2	6
181.3	6
181.4	5
181.5	5
181.6	5
181.7	5
181.8	6
181.9	6
182.0	6
182.1	5
182.2	6
182.3	6
182.4	7
182.5	7
182.6	6
182.7	6
182.8	6
182.9	6
183.0	7
183.1	7
183.2	6
183.3	5
183.4	5
183.5	5
183.6	6
183.7	7
183.8	6
183.9	5
184.0	5
184.1	5
184.2	6
184.3	7
184.4	7
184.5	6
184.6	5
184.7	5
184.8	5
184.9	6
185.0	6
185.1	6
185.2	5
185.3	4
185.4	5
185.5	6
185.6	7
185.7	7
185.8	6
185.9	5
186.0	4
186.1	5
186.2	6
186.3	6
186.4	6
186.5	4
186.6	4
186.7	4
186.8	7
186.9	9
187.0	9
187.1	7
188.6	6
188.7	8
188.8	10
188.9	11
189.0	11
189.1	10
189.2	8
190.4	7
190.5	9
190.6	12
190.7	18
190.8	24
190.9	27
191.0	25
191.1	21
191.2	19
191.3	19
191.4	20
191.5	16
191.6	10
191.7	5
216.5	5
216.6	6
216.7	11
216.8	20
216.9	27
217.0	31
217.1	29
217.2	24
217.3	18
217.4	10
217.5	6
220.7	7
220.8	8
220.9	11
221.0	13
221.1	11
221.2	7
232.1	6
232.2	7
232.3	9
232.4	9
232.5	8
232.6	7
232.7	7
232.8	8
232.9	9
233.0	8
233.1	7
233.2	6
233.3	7
233.4	7
233.5	7
233.6	7
233.7	6
233.8	6
233.9	6
234.0	7
234.1	8
234.2	9
234.3	10
234.4	12
234.5	15
234.6	17
234.7	15
234.8	12
234.9	14
235.0	21
235.1	26
235.2	25
235.3	17
235.4	9
235.5	6
394.9	6
395.0	6
395.1	8
395.2	13
395.3	19
395.4	23
395.5	21
395.6	13
395.7	6
424.1	5
424.2	7
424.3	10
424.4	11
424.5	10
424.6	10
424.7	18
424.8	36
424.9	55
425.0	61
425.1	55
425.2	54
425.3	73
425.4	92
425.5	84
425.6	49
425.7	14
425.8	0
442.7	9
442.8	10
442.9	13
443.0	26
443.1	48
443.2	65
443.3	62
443.4	39
443.5	15
443.6	4
