Mass spectrum: Erythromycin; LC-ESI-QQQ; MS2; Frag=135.0V CID@15.0; [M+HCOO]-
Name: Erythromycin
Class: Polyketides
Formula: C37H67NO13
Exact mass: 733.9454
SMILES: CC[C@@H]1[C@@]([C@@H]([C@H](C(=O)[C@@H](C[C@@]([C@@H]([C@H]([C@@H]([C@H](C(=O)O1)C)O[C@H]2C[C@@]([C@H]([C@@H](O2)C)O)(C)OC)C)O[C@H]3[C@@H]([C@H](C[C@H](O3)C)N(C)C)O)(C)O)C)C)O)(C)O
InChI: InChI=1S/C37H67NO13/c1-14-25-37(10,45)30(41)20(4)27(39)18(2)16-35(8,44)32(51-34-28(40)24(38(11)12)15-19(3)47-34)21(5)29(22(6)33(43)49-25)50-26-17-36(9,46-13)31(42)23(7)48-26/h18-26,28-32,34,40-42,44-45H,14-17H2,1-13H3/t18-,19-,20+,21+,22-,23+,24+,25-,26+,28-,29+,30-,31+,32-,34+,35-,36-,37-/m1/s1
Instrument: Agilent 6410 Triple Quadrupole LC/MS system
Instrument type: LC-ESI-QQQ
Ms type: MS2
Ion mode: NEGATIVE
Precursor type: [M+HCOO]-
m/z	relative intensity
173.3	1
173.4	2
173.5	5
173.6	12
173.7	23
173.8	38
173.9	54
174.0	69
174.1	78
174.2	72
174.3	51
174.4	24
174.5	6
174.6	0
204.7	1
204.8	3
204.9	5
205.0	7
205.1	8
205.2	7
205.3	4
248.2	2
248.3	3
248.4	6
248.5	15
248.6	32
248.7	57
248.8	83
248.9	98
249.0	99
249.1	96
249.2	94
249.3	86
249.4	65
249.5	37
249.6	14
249.7	2
266.6	3
266.7	4
266.8	8
266.9	10
267.0	10
267.1	7
267.2	3
294.7	3
294.8	5
294.9	7
295.0	10
295.1	12
295.2	12
295.3	11
295.4	8
295.5	5
295.6	2
322.2	2
322.3	4
322.4	7
322.5	12
322.6	20
322.7	30
322.8	41
322.9	51
323.0	59
323.1	62
323.2	56
323.3	41
323.4	22
323.5	9
323.6	4
423.4	2
423.5	3
423.6	5
423.7	8
423.8	12
423.9	16
424.0	19
424.1	20
424.2	17
424.3	12
424.4	6
424.5	2
441.5	3
441.6	4
441.7	6
441.8	8
441.9	9
442.0	9
442.1	9
442.2	7
442.3	4
497.3	1
497.4	2
497.5	5
497.6	12
497.7	24
497.8	40
497.9	53
498.0	63
498.1	70
498.2	75
498.3	74
498.4	63
498.5	45
498.6	26
498.7	10
498.8	1
537.7	3
537.8	4
537.9	6
538.0	8
538.1	8
538.2	5
538.3	3
555.6	2
555.7	4
555.8	6
555.9	9
556.0	12
556.1	14
556.2	13
556.3	10
556.4	6
556.5	3
731.9	5
732.0	7
732.1	10
732.2	13
732.3	15
732.4	13
732.5	9
732.6	5
732.7	2
