Mass spectrum: Adrenoglomerulotropin; LC-ESI-QQQ; MS2; Frag=135.0V CID@25.0; [M+H]+
Name: Adrenoglomerulotropin
Class: Alkaloids
Formula: C13H16N2O
Exact mass: 216.2853
SMILES: COc1ccc2[nH]c3c(c2c1)CCN[C@H]3C
InChI: InChI=1S/C13H16N2O/c1-8-13-10(5-6-14-8)11-7-9(16-2)3-4-12(11)15-13/h3-4,7-8,14-15H,5-6H2,1-2H3/t8-/m0/s1
Instrument: Agilent 6410 Triple Quadrupole LC/MS system
Instrument type: LC-ESI-QQQ
Ms type: MS2
Ion mode: POSITIVE
Precursor type: [M+H]+
m/z	relative intensity
129.6	2
129.7	4
129.8	6
129.9	7
130.0	8
130.1	8
130.2	8
130.3	9
130.4	8
130.5	7
130.6	6
130.7	7
130.8	10
130.9	14
131.0	17
131.1	19
131.2	18
131.3	15
131.4	11
131.5	7
131.6	2
141.7	3
141.8	4
141.9	6
142.0	8
142.1	9
142.2	9
142.3	7
142.6	4
142.7	6
142.8	8
142.9	10
143.0	13
143.1	14
143.2	13
143.3	11
143.4	8
143.7	7
143.8	11
143.9	13
144.0	14
144.1	13
144.2	13
144.3	12
144.4	10
144.7	9
144.8	12
144.9	17
145.0	23
145.1	27
145.2	27
145.3	23
145.4	15
145.5	8
145.6	2
146.7	1
146.8	3
146.9	5
147.0	6
147.1	6
147.2	5
147.3	3
153.3	1
153.4	2
153.5	4
153.6	7
153.7	11
153.8	16
153.9	21
154.0	25
154.1	27
154.2	26
154.3	21
154.4	14
154.5	6
154.6	0
155.4	3
155.5	5
155.6	7
155.7	9
155.8	12
155.9	15
156.0	17
156.1	19
156.2	19
156.3	18
156.6	12
156.7	18
156.8	31
156.9	46
157.0	57
157.1	62
157.2	59
157.3	50
157.4	39
157.5	27
157.7	14
157.8	20
157.9	31
158.0	40
158.1	43
158.2	39
158.3	31
158.4	21
158.5	13
158.7	8
158.8	13
158.9	20
159.0	25
159.1	27
159.2	25
159.3	20
159.4	14
159.5	7
159.8	3
159.9	4
160.0	6
160.1	6
160.2	6
160.3	5
160.4	3
166.7	1
166.8	3
166.9	3
167.0	4
167.1	5
167.2	5
167.3	5
167.4	4
167.5	4
167.6	6
167.7	9
167.8	15
167.9	21
168.0	25
168.1	27
168.2	27
168.3	24
168.4	19
168.5	13
168.8	7
168.9	11
169.0	15
169.1	17
169.2	18
169.3	18
169.4	15
169.7	11
169.8	16
169.9	21
170.0	24
170.1	24
170.2	23
170.3	20
170.4	15
170.5	8
170.6	2
171.5	2
171.6	3
171.7	4
171.8	5
171.9	7
172.0	8
172.1	10
172.2	9
172.3	8
172.4	8
172.5	11
172.6	18
172.7	31
172.8	49
172.9	69
173.0	87
173.1	97
173.2	99
173.3	90
173.4	69
173.5	42
173.6	19
173.8	8
173.9	14
174.0	21
174.1	24
174.2	24
174.3	19
174.4	13
174.5	7
174.6	2
182.6	2
182.7	3
182.8	5
182.9	6
183.0	8
183.1	10
183.2	11
183.3	10
183.4	6
183.7	5
183.8	7
183.9	11
184.0	14
184.1	16
184.2	15
184.5	11
184.6	13
184.7	19
184.8	27
184.9	38
185.0	49
185.1	56
185.2	57
185.3	49
185.4	34
185.5	17
185.6	4
187.3	2
187.4	4
187.5	7
187.6	11
187.7	20
187.8	34
187.9	51
188.0	66
188.1	76
188.2	79
188.3	74
188.4	59
188.5	36
188.6	12
188.7	0
197.8	2
197.9	3
198.0	4
198.1	6
198.2	6
198.3	5
198.4	3
199.5	3
199.6	4
199.7	7
199.8	12
199.9	19
200.0	27
200.1	33
200.2	35
200.3	32
200.4	25
200.5	15
200.6	5
200.7	0
