Mass spectrum: Meranzin; LC-ESI-QQQ; MS2; Frag=135.0V CID@10.0; [M+H]+
Name: Meranzin
Class: Benzopyranoids
Formula: C15H16O4
Exact mass: 260.2924
SMILES: COc1ccc2ccc(=O)oc2c1CC1OC1(C)C
InChI: InChI=1S/C15H16O4/c1-15(2)12(19-15)8-10-11(17-3)6-4-9-5-7-13(16)18-14(9)10/h4-7,12H,8H2,1-3H3
Instrument: Agilent 6410 Triple Quadrupole LC/MS system
Instrument type: LC-ESI-QQQ
Ms type: MS2
Ion mode: POSITIVE
Precursor type: [M+H]+
m/z	relative intensity
188.1	2
188.2	4
188.3	7
188.4	8
188.5	10
188.6	19
188.7	40
188.8	69
188.9	93
189.0	99
189.1	89
189.2	69
189.3	49
189.4	28
189.5	10
189.6	1
242.4	1
242.5	3
242.6	5
242.7	9
242.8	13
242.9	15
243.0	13
243.1	9
243.2	5
243.3	3
