Mass spectrum: 8-Hydroxy-13,14,15,16-tetranor-12-labdanoic acid; LC-ESI-QQQ; MS2; Frag=135.0V CID@25.0; [M+H]+
Name: 8-Hydroxy-13,14,15,16-tetranor-12-labdanoic acid
Class: Terpenoids
Formula: C16H28O3
Exact mass: 268.3998
SMILES: CC1(C)CCC[C@@]2(C)C1CC[C@@](C)(O)C2CC(=O)O
InChI: InChI=1S/C16H28O3/c1-14(2)7-5-8-15(3)11(14)6-9-16(4,19)12(15)10-13(17)18/h11-12,19H,5-10H2,1-4H3,(H,17,18)/t11?,12?,15-,16+/m0/s1
Instrument: Agilent 6410 Triple Quadrupole LC/MS system
Instrument type: LC-ESI-QQQ
Ms type: MS2
Ion mode: POSITIVE
Precursor type: [M+H]+
m/z	relative intensity
66.2	1
66.3	3
66.4	5
66.5	5
67.4	2
67.5	4
67.6	6
67.7	7
67.8	6
81.6	6
81.7	7
81.8	7
81.9	12
82.0	23
82.1	36
82.2	41
82.3	32
82.4	16
82.5	4
82.8	1
82.9	2
83.0	4
83.1	6
83.2	8
83.3	9
83.4	8
83.5	6
94.6	2
94.7	3
94.8	5
94.9	7
95.0	12
95.1	19
95.2	24
95.3	22
95.4	13
95.5	4
108.4	1
108.5	4
108.6	7
108.7	12
108.8	13
108.9	11
109.0	6
109.5	4
109.6	5
109.7	11
109.8	19
109.9	26
110.0	24
110.1	15
110.2	5
119.5	3
119.6	5
119.7	8
119.8	7
119.9	5
130.2	2
130.3	3
130.4	4
130.5	5
130.6	4
130.7	3
130.8	3
130.9	3
131.0	4
131.1	3
131.2	2
131.3	1
131.4	2
131.5	3
131.6	3
131.7	4
131.8	3
131.9	3
132.0	2
132.1	2
132.2	2
132.3	3
132.4	3
132.5	3
132.6	2
132.7	2
132.8	2
132.9	4
133.0	4
133.1	4
133.2	3
133.3	2
133.4	2
133.5	3
133.6	3
133.7	3
133.8	2
133.9	2
134.0	2
134.1	2
134.2	3
134.3	3
134.4	3
134.5	3
134.6	5
134.7	6
134.8	7
134.9	6
135.0	4
139.9	3
140.0	4
140.1	6
140.2	6
140.3	5
148.2	2
148.3	4
148.4	5
148.5	5
148.6	3
148.7	2
148.8	3
148.9	4
149.0	5
149.1	4
149.2	2
149.3	2
149.4	2
149.5	3
149.6	4
149.7	5
152.6	3
152.7	5
152.8	6
152.9	7
153.0	6
177.7	3
177.8	5
177.9	6
178.0	8
178.1	8
178.2	7
178.3	5
190.9	4
191.0	5
191.1	7
191.2	12
191.3	18
191.4	24
191.5	36
191.6	57
191.7	76
191.8	84
191.9	85
192.0	88
192.1	86
192.2	70
192.3	43
192.4	17
192.5	3
408.6	2
408.7	3
408.8	4
408.9	4
409.0	3
409.1	2
409.2	2
409.3	3
409.4	4
409.5	4
409.6	4
409.7	2
409.8	2
409.9	2
410.0	2
410.1	3
410.2	3
410.3	3
410.4	3
410.5	3
410.6	3
410.7	3
410.8	3
410.9	3
411.0	2
411.1	2
411.2	2
411.3	3
411.4	4
411.5	3
411.6	3
411.7	2
411.8	2
411.9	2
412.0	3
412.1	3
412.2	2
412.3	2
412.4	2
412.5	3
412.6	3
412.7	3
412.8	3
412.9	2
413.0	2
413.1	3
413.2	4
413.3	4
413.4	3
413.5	2
413.6	1
413.7	1
413.8	2
413.9	3
414.0	3
414.1	3
414.2	2
414.3	2
414.4	3
414.5	4
414.6	4
414.7	4
414.8	3
414.9	2
415.0	2
415.1	2
415.2	3
415.3	3
415.4	3
415.5	2
415.6	3
415.7	3
415.8	3
415.9	4
416.0	3
416.1	2
416.2	1
416.3	1
416.4	2
416.5	3
416.6	3
416.7	3
416.8	2
416.9	2
417.0	3
417.1	3
417.2	3
417.3	2
417.4	1
417.5	1
417.6	3
417.7	4
417.8	5
417.9	4
509.7	2
509.8	3
509.9	5
510.0	5
530.2	2
530.3	3
530.4	4
530.5	4
530.6	3
530.7	2
530.8	2
530.9	2
531.0	2
531.1	3
531.2	2
531.3	2
531.4	2
531.5	2
531.6	3
531.7	3
531.8	3
531.9	3
532.0	2
532.1	3
532.2	3
532.3	3
532.4	3
532.5	2
532.6	2
532.7	2
532.8	2
532.9	3
533.0	4
533.1	3
533.2	2
533.3	2
533.4	2
533.5	3
533.6	4
533.7	3
