Mass spectrum: Glabranin; LC-ESI-QQQ; MS; [M+H]+
Name: Glabranin
Class: Flavonoids
Formula: C20H20O4
Exact mass: 324.38
SMILES: CC(C)=CCc1c(O)cc(O)c2c1O[C@H](c1ccccc1)CC2=O
InChI: InChI=1S/C20H20O4/c1-12(2)8-9-14-15(21)10-16(22)19-17(23)11-18(24-20(14)19)13-6-4-3-5-7-13/h3-8,10,18,21-22H,9,11H2,1-2H3/t18-/m0/s1
Instrument: ABSciex API3200 LC/MS system
Instrument type: LC-ESI-QQQ
Ms type: MS
Ion mode: POSITIVE
Precursor type: [M+H]+
m/z	relative intensity
130.9000	29
131.0000	24
131.1000	23
131.2000	21
141.6000	37
141.7000	42
141.8000	42
141.9000	37
142.0000	39
142.1000	29
142.2000	23
142.3000	27
164.4000	102
164.5000	187
164.6000	156
164.7000	184
164.8000	183
164.9000	171
165.0000	167
165.1000	151
165.2000	150
165.3000	125
165.4000	96
165.5000	29
268.3000	45
268.4000	305
268.5000	498
268.6000	618
268.7000	639
268.8000	632
268.9000	624
269.0000	615
269.1000	594
269.2000	560
269.3000	506
269.4000	394
269.5000	203
269.6000	163
269.7000	124
269.8000	118
269.9000	124
270.0000	123
270.1000	132
270.2000	114
270.3000	113
270.4000	70
270.5000	36
270.6000	27
270.9000	23
271.0000	24
324.3000	25
324.4000	246
324.5000	586
324.6000	875
324.7000	926
324.8000	978
324.9000	970
325.0000	953
325.1000	925
325.2000	999
325.3000	789
325.4000	687
325.5000	421
325.6000	315
325.7000	344
325.8000	322
325.9000	307
326.0000	297
326.1000	290
326.2000	288
326.3000	255
326.4000	213
326.5000	113
326.6000	68
326.7000	52
326.8000	47
326.9000	48
327.0000	51
327.1000	48
327.2000	43
327.3000	37
327.4000	33
