Mass spectrum: isoosajin; LC-ESI-QQQ; MS2; Frag=135.0V CID@25.0; [M+H]+
Name: isoosajin
Class: Flavonoids
Formula: C25H24O5
Exact mass: 404.467
SMILES: CC1(C)C=Cc2c(c3c(c4c(=O)c(-c5ccc(O)cc5)coc24)OC(C)(C)CC3)O1
InChI: InChI=1S/C25H24O5/c1-24(2)11-9-16-21(29-24)17-10-12-25(3,4)30-23(17)19-20(27)18(13-28-22(16)19)14-5-7-15(26)8-6-14/h5-9,11,13,26H,10,12H2,1-4H3
Instrument: Agilent 6410 Triple Quadrupole LC/MS system
Instrument type: LC-ESI-QQQ
Ms type: MS2
Ion mode: POSITIVE
Precursor type: [M+H]+
m/z	relative intensity
212.7	2
212.8	3
212.9	4
213.0	5
213.1	5
213.2	5
213.3	4
213.4	2
348.2	0
348.3	1
348.4	4
348.5	9
348.6	17
348.7	30
348.8	48
348.9	70
349.0	89
349.1	99
349.2	98
349.3	84
349.4	59
349.5	30
349.6	8
349.7	0
