Mass spectrum: Phellamurin; LC-ESI-QQQ; MS2; Frag=135.0V CID@5.0; [M+H]+
Name: Phellamurin
Class: Flavonoids
Formula: C26H30O11
Exact mass: 518.5224
SMILES: CC(C)=CCc1c(O[C@@H]2O[C@H](CO)[C@@H](O)[C@H](O)[C@H]2O)cc(O)c2c1OC(c1ccc(O)cc1)C(O)C2=O
InChI: InChI=1S/C26H30O11/c1-11(2)3-8-14-16(35-26-23(34)21(32)19(30)17(10-27)36-26)9-15(29)18-20(31)22(33)24(37-25(14)18)12-4-6-13(28)7-5-12/h3-7,9,17,19,21-24,26-30,32-34H,8,10H2,1-2H3/t17-,19-,21+,22?,23-,24?,26-/m1/s1
Instrument: Agilent 6410 Triple Quadrupole LC/MS system
Instrument type: LC-ESI-QQQ
Ms type: MS2
Ion mode: POSITIVE
Precursor type: [M+H]+
m/z	relative intensity
356.3	1
356.4	4
356.5	7
356.6	11
356.7	20
356.8	36
356.9	59
357.0	83
357.1	98
357.2	99
357.3	89
357.4	68
357.5	41
357.6	15
357.7	0
518.7	2
518.8	3
518.9	5
519.0	6
519.1	6
519.2	6
519.3	6
519.4	5
519.5	4
