Mass spectrum: 18alpha-Glycyrrhetic acid; LC-ESI-QQQ; MS; [M+H]+
Name: 18alpha-Glycyrrhetic acid
Class: Terpenoids
Formula: C30H46O4
Exact mass: 470.6987
SMILES: CC1(C)C2CC[C@]3(C)C(C(=O)C=C4[C@H]5C[C@@](C)(C(=O)O)CC[C@]5(C)CC[C@]43C)[C@@]2(C)CC[C@@H]1O
InChI: InChI=1S/C30H46O4/c1-25(2)21-8-11-30(7)23(28(21,5)10-9-22(25)32)20(31)16-18-19-17-27(4,24(33)34)13-12-26(19,3)14-15-29(18,30)6/h16,19,21-23,32H,8-15,17H2,1-7H3,(H,33,34)/t19-,21?,22+,23?,26-,27+,28+,29-,30-/m1/s1
Instrument: ABSciex API3200 LC/MS system
Instrument type: LC-ESI-QQQ
Ms type: MS
Ion mode: POSITIVE
Precursor type: [M+H]+
m/z	relative intensity
142.0000	42
142.3000	27
470.4000	66
470.5000	240
470.6000	539
470.7000	840
470.8000	947
470.9000	978
471.0000	957
471.1000	941
471.2000	999
471.3000	980
471.4000	828
471.5000	762
471.6000	447
471.7000	417
471.8000	416
471.9000	443
472.0000	420
472.1000	426
472.2000	412
472.3000	394
472.4000	368
472.5000	328
472.6000	162
472.7000	108
472.8000	102
472.9000	104
473.0000	112
473.1000	101
473.2000	87
473.3000	93
473.4000	84
473.5000	67
473.6000	29
473.8000	31
511.8000	27
511.9000	26
512.0000	26
512.1000	31
512.2000	32
512.3000	32
512.4000	24
512.5000	21
940.5000	61
940.6000	184
940.7000	348
940.8000	371
940.9000	431
941.0000	477
941.1000	496
941.2000	508
941.3000	498
941.4000	479
941.5000	438
941.6000	403
941.7000	327
941.8000	289
941.9000	303
942.0000	329
942.1000	353
942.2000	341
942.3000	355
942.4000	346
942.5000	305
942.6000	273
942.7000	205
942.8000	132
942.9000	139
943.0000	129
943.1000	135
943.2000	138
943.3000	142
943.4000	133
943.5000	123
943.6000	111
943.7000	74
943.8000	42
943.9000	38
944.0000	38
944.1000	43
944.2000	38
944.3000	38
944.4000	35
944.5000	33
944.6000	26
