Mass spectrum: Icariin; LC-ESI-QQQ; MS2; Frag=135.0V CID@5.0; [M+HCOO]-
Name: Icariin
Name: 3-[(6-Deoxy-alpha-L-mannopyranosyl)oxy]-7-(beta-D-glucopyranosyloxy)-5-hydroxy-2-(4-methoxyphenyl)-8-(3-methyl-2-buten-1-yl)-4H-1-benzopyran-4-one
Class: Flavonoids
Formula: C33H40O15
Exact mass: 676.236721
SMILES: C[C@H]1[C@@H]([C@H]([C@H]([C@@H](O1)OC2=C(OC3=C(C2=O)C(=CC(=C3CC=C(C)C)O[C@H]4[C@@H]([C@H]([C@@H]([C@H](O4)CO)O)O)O)O)C5=CC=C(C=C5)OC)O)O)O
InChI: InChI=1S/C33H40O15/c1-13(2)5-10-17-19(45-33-28(42)26(40)23(37)20(12-34)46-33)11-18(35)21-24(38)31(48-32-27(41)25(39)22(36)14(3)44-32)29(47-30(17)21)15-6-8-16(43-4)9-7-15/h5-9,11,14,20,22-23,25-28,32-37,39-42H,10,12H2,1-4H3/t14-,20+,22-,23+,25+,26-,27+,28+,32-,33+/m0/s1
Instrument: Agilent 6410 Triple Quadrupole LC/MS system
Instrument type: LC-ESI-QQQ
Ms type: MS2
Ion mode: NEGATIVE
Precursor type: [M+HCOO]-
m/z	relative intensity
366.6	1
366.7	3
366.8	4
366.9	5
367.0	6
367.1	5
367.2	4
367.3	2
408.5	1
408.6	2
408.7	4
408.8	5
408.9	6
409.0	5
409.1	3
512.1	1
512.2	2
512.3	4
512.4	10
512.5	19
512.6	35
512.7	56
512.8	77
512.9	91
513.0	98
513.1	99
513.2	96
513.3	83
513.4	57
513.5	27
513.6	5
513.7	0
528.6	4
528.7	6
528.8	8
528.9	10
529.0	11
529.1	11
529.2	8
529.3	4
529.4	1
720.3	2
720.4	3
720.5	5
720.6	9
720.7	16
720.8	23
720.9	28
721.0	31
721.1	33
721.2	33
721.3	31
721.4	24
721.5	13
721.6	4
