Mass spectrum: norbraylin; LC-ESI-QQQ; MS2; Frag=135.0V CID@25.0; [M+H]+
Name: norbraylin
Class: Benzopyranoids
Formula: C14H12O4
Exact mass: 244.2493
SMILES: CC1(C)Oc2ccc3ccc(=O)oc3c2CC1=O
InChI: InChI=1S/C14H12O4/c1-14(2)11(15)7-9-10(18-14)5-3-8-4-6-12(16)17-13(8)9/h3-6H,7H2,1-2H3
Instrument: Agilent 6410 Triple Quadrupole LC/MS system
Instrument type: LC-ESI-QQQ
Ms type: MS2
Ion mode: POSITIVE
Precursor type: [M+H]+
m/z	relative intensity
90.6	2
90.7	3
90.8	4
90.9	5
91.0	5
91.1	5
91.2	5
91.3	5
91.4	4
91.5	2
127.6	1
127.7	3
127.8	5
127.9	6
128.0	7
128.1	8
128.2	7
128.3	7
128.4	5
128.5	3
146.4	1
146.5	3
146.6	6
146.7	10
146.8	13
146.9	17
147.0	19
147.1	19
147.2	18
147.3	15
147.4	9
147.5	4
147.6	0
170.7	2
170.8	3
170.9	5
171.0	6
171.1	6
171.2	6
171.3	5
171.4	4
171.5	2
174.2	0
174.3	1
174.4	5
174.5	13
174.6	25
174.7	41
174.8	60
174.9	79
175.0	93
175.1	99
175.2	96
175.3	82
175.4	57
175.5	28
175.6	6
175.7	0
188.7	2
188.8	4
188.9	5
189.0	6
189.1	7
189.2	6
189.3	5
189.4	3
198.7	2
198.8	3
198.9	5
199.0	6
199.1	6
199.2	6
199.3	5
199.4	3
199.5	1
