Mass spectrum: Galanthamine; LC-ESI-QQQ; MS2; Frag=135.0V CID@10.0; [M+H]+
Name: Galanthamine
Class: Alkaloids
Formula: C17H21NO3
Exact mass: 287.3618
SMILES: COc1ccc2c3c1O[C@H]1C[C@@H](O)C=C[C@@]31CCN(C)C2
InChI: InChI=1S/C17H21NO3/c1-18-8-7-17-6-5-12(19)9-14(17)21-16-13(20-2)4-3-11(10-18)15(16)17/h3-6,12,14,19H,7-10H2,1-2H3/t12-,14-,17-/m0/s1
Instrument: Agilent 6410 Triple Quadrupole LC/MS system
Instrument type: LC-ESI-QQQ
Ms type: MS2
Ion mode: POSITIVE
Precursor type: [M+H]+
m/z	relative intensity
212.4	1
212.5	2
212.6	4
212.7	7
212.8	10
212.9	14
213.0	18
213.1	20
213.2	21
213.3	19
213.4	14
213.5	8
213.6	2
224.6	1
224.7	3
224.8	5
224.9	7
225.0	9
225.1	11
225.2	10
225.3	9
225.4	7
225.5	4
225.6	1
230.5	1
230.6	3
230.7	6
230.8	10
230.9	15
231.0	19
231.1	21
231.2	22
231.3	19
231.4	15
231.5	8
231.6	2
269.6	1
269.7	2
269.8	4
269.9	7
270.0	11
270.1	13
270.2	14
270.3	14
270.4	11
270.5	8
270.6	3
287.3	0
287.4	1
287.5	4
287.6	9
287.7	18
287.8	32
287.9	50
288.0	71
288.1	90
288.2	99
288.3	97
288.4	81
288.5	55
288.6	26
288.7	5
288.8	0
