Mass spectrum: Andrographolide; LC-ESI-QQQ; MS2; Frag=135.0V CID@5.0; [M+HCOO]-
Name: Andrographolide
Class: Terpenoids
Formula: C20H30O5
Exact mass: 350.4591
SMILES: C=C1CCC2C(C)(CO)C(O)CC[C@]2(C)C1C/C=C1/C(=O)OCC1O
InChI: InChI=1S/C20H30O5/c1-12-4-7-16-19(2,9-8-17(23)20(16,3)11-21)14(12)6-5-13-15(22)10-25-18(13)24/h5,14-17,21-23H,1,4,6-11H2,2-3H3/b13-5+/t14?,15?,16?,17?,19-,20?/m1/s1
Instrument: Agilent 6410 Triple Quadrupole LC/MS system
Instrument type: LC-ESI-QQQ
Ms type: MS2
Ion mode: NEGATIVE
Precursor type: [M+HCOO]-
m/z	relative intensity
286.5	1
286.6	4
286.7	9
286.8	15
286.9	23
287.0	29
287.1	34
287.2	36
287.3	38
287.4	35
287.5	27
287.6	15
287.7	4
330.3	0
330.4	1
330.5	4
330.6	14
330.7	30
330.8	51
330.9	72
331.0	89
331.1	97
331.2	99
331.3	99
331.4	94
331.5	75
331.6	44
331.7	13
331.8	0
348.6	1
348.7	3
348.8	5
348.9	6
349.0	6
349.1	5
349.2	4
349.3	4
349.4	5
349.5	5
349.6	3
394.7	3
394.8	5
394.9	7
395.0	11
395.1	13
395.2	14
395.3	13
395.4	11
395.5	7
395.6	3
