Mass spectrum: Feselol; LC-ESI-QQQ; MS; [M+H]+
Name: Feselol
Class: Benzopyranoids
Formula: C24H30O4
Exact mass: 382.5043
SMILES: CC1=CC[C@@H]2C(C)(C)[C@H](O)CC[C@@]2(C)[C@@H]1COc1ccc2ccc(=O)oc2c1
InChI: InChI=1S/C24H30O4/c1-15-5-9-20-23(2,3)21(25)11-12-24(20,4)18(15)14-27-17-8-6-16-7-10-22(26)28-19(16)13-17/h5-8,10,13,18,20-21,25H,9,11-12,14H2,1-4H3/t18-,20-,21-,24+/m1/s1
Instrument: ABSciex API3200 LC/MS system
Instrument type: LC-ESI-QQQ
Ms type: MS
Ion mode: POSITIVE
Precursor type: [M+H]+
m/z	relative intensity
106.6000	22
106.8000	23
106.9000	30
107.0000	35
107.1000	28
107.2000	23
107.3000	22
107.4000	25
108.6000	23
108.7000	35
108.8000	29
108.9000	39
109.0000	31
109.1000	32
109.2000	25
109.3000	25
109.4000	21
118.5000	23
118.6000	25
118.7000	25
118.8000	26
118.9000	24
119.0000	27
119.1000	27
119.2000	40
132.7000	21
132.8000	44
132.9000	31
133.0000	28
133.1000	23
133.2000	30
133.4000	21
146.7000	28
146.8000	32
146.9000	28
147.0000	31
147.1000	43
147.2000	32
147.3000	36
147.4000	25
161.0000	23
162.4000	34
162.5000	84
162.6000	116
162.7000	135
162.8000	151
162.9000	113
163.0000	133
163.1000	131
163.2000	123
163.3000	109
163.4000	75
163.5000	33
163.6000	22
174.5000	66
174.6000	26
202.5000	92
202.6000	203
202.7000	224
202.8000	256
202.9000	261
203.0000	268
203.1000	267
203.2000	277
203.3000	248
203.4000	215
203.5000	175
203.6000	85
203.7000	48
203.8000	37
203.9000	44
204.0000	47
204.1000	51
204.2000	42
204.3000	28
204.4000	32
204.5000	31
213.2000	21
214.6000	24
215.1000	21
240.8000	24
241.0000	39
254.4000	31
254.5000	45
254.6000	51
254.7000	57
254.8000	65
254.9000	64
255.0000	91
255.1000	64
255.2000	47
255.3000	47
255.4000	49
268.4000	50
268.5000	69
268.6000	70
268.7000	88
268.8000	87
268.9000	76
269.0000	96
269.1000	96
269.2000	85
269.3000	73
269.4000	65
269.5000	29
269.6000	25
364.5000	47
364.6000	99
364.7000	116
364.8000	109
364.9000	117
365.0000	139
365.1000	227
365.2000	154
365.3000	114
365.4000	172
365.5000	101
365.6000	47
365.7000	43
365.8000	39
365.9000	40
366.0000	49
366.1000	47
366.2000	35
366.3000	25
366.4000	32
382.4000	152
382.5000	497
382.6000	308
382.7000	416
382.8000	559
382.9000	498
383.0000	565
383.1000	627
383.2000	670
383.3000	999
383.4000	952
383.5000	407
383.6000	166
383.7000	137
383.8000	147
383.9000	117
384.0000	160
384.1000	176
384.2000	152
384.3000	136
384.4000	169
384.5000	93
384.6000	40
384.7000	40
384.8000	23
384.9000	30
385.0000	38
385.1000	28
385.2000	30
385.3000	34
385.4000	29
399.5000	40
399.6000	78
399.7000	88
399.8000	97
399.9000	97
400.0000	95
400.1000	86
400.2000	82
400.3000	85
400.4000	77
400.5000	52
400.6000	28
400.7000	45
400.8000	34
401.1000	29
401.2000	30
401.3000	29
401.4000	25
423.6000	27
423.7000	29
423.8000	22
423.9000	22
424.0000	27
424.1000	28
424.2000	31
424.4000	23
764.5000	65
764.6000	133
764.7000	192
764.8000	232
764.9000	224
765.0000	206
765.1000	213
765.2000	202
765.3000	358
765.4000	174
765.5000	96
765.6000	89
765.7000	89
765.8000	85
765.9000	105
766.0000	98
766.1000	87
766.2000	102
766.3000	75
766.4000	72
766.5000	35
766.6000	35
766.7000	24
766.8000	27
767.0000	30
767.2000	26
767.3000	27
781.6000	23
781.7000	22
781.8000	23
781.9000	34
782.0000	41
782.1000	24
782.2000	42
782.3000	39
782.4000	32
782.7000	23
782.8000	29
782.9000	24
783.0000	24
783.2000	21
783.3000	29
