Mass spectrum: Huperzine A; LC-ESI-QQQ; MS2; Frag=135.0V CID@5.0; [M+H]+
Name: Huperzine A
Class: Terpenoids
Formula: C15H18N2O
Exact mass: 242.3235
SMILES: C/C=C1\C2C=C(C)CC1(N)c1ccc(O)nc1C2
InChI: InChI=1S/C15H18N2O/c1-3-11-10-6-9(2)8-15(11,16)12-4-5-14(18)17-13(12)7-10/h3-6,10H,7-8,16H2,1-2H3,(H,17,18)/b11-3+
Instrument: Agilent 6410 Triple Quadrupole LC/MS system
Instrument type: LC-ESI-QQQ
Ms type: MS2
Ion mode: POSITIVE
Precursor type: [M+H]+
m/z	relative intensity
225.5	1
225.6	3
225.7	7
225.8	12
225.9	19
226.0	24
226.1	28
226.2	30
226.3	27
226.4	21
226.5	12
226.6	4
242.3	0
242.4	1
242.5	4
242.6	10
242.7	21
242.8	37
242.9	57
243.0	79
243.1	94
243.2	99
243.3	93
243.4	76
243.5	49
243.6	21
243.7	2
