Mass spectrum: Papaveraldine; LC-ESI-QQQ; MS; [M+H]+
Name: Papaveraldine
Class: Alkaloids
Formula: C20H21NO5
Exact mass: 355.3941
SMILES: COc1ccc(C(=O)C2=NCCc3cc(OC)c(OC)cc32)cc1OC
InChI: InChI=1S/C20H21NO5/c1-23-15-6-5-13(10-16(15)24-2)20(22)19-14-11-18(26-4)17(25-3)9-12(14)7-8-21-19/h5-6,9-11H,7-8H2,1-4H3
Instrument: ABSciex API3200 LC/MS system
Instrument type: LC-ESI-QQQ
Ms type: MS
Ion mode: POSITIVE
Precursor type: [M+H]+
m/z	relative intensity
100.4000	70
100.5000	104
100.6000	137
100.7000	123
100.8000	122
100.9000	118
101.0000	91
101.1000	75
101.2000	38
101.3000	30
101.4000	24
141.7000	28
141.8000	60
141.9000	75
142.0000	67
142.1000	70
142.2000	58
142.3000	55
142.4000	45
164.4000	25
164.5000	50
164.6000	58
164.7000	47
164.8000	44
164.9000	52
165.0000	53
165.1000	46
165.2000	44
165.3000	32
165.4000	24
174.4000	31
174.5000	56
174.6000	60
174.7000	72
174.8000	81
174.9000	65
175.0000	59
175.1000	63
175.2000	50
175.3000	47
175.4000	28
189.4000	166
189.5000	260
189.6000	259
189.7000	289
189.8000	295
189.9000	299
190.0000	276
190.1000	291
190.2000	313
190.3000	241
190.4000	210
190.5000	88
190.6000	51
190.7000	43
190.8000	43
190.9000	44
191.0000	46
191.1000	42
191.2000	37
191.3000	36
191.4000	32
309.5000	23
309.6000	27
309.7000	32
309.8000	27
309.9000	38
310.0000	26
310.1000	35
310.2000	25
310.3000	25
323.6000	21
323.8000	24
323.9000	32
324.0000	25
324.1000	26
324.3000	26
324.4000	55
324.5000	94
324.6000	118
324.7000	143
324.8000	132
324.9000	115
325.0000	102
325.1000	104
325.2000	95
325.3000	77
325.4000	74
325.5000	46
325.6000	31
325.7000	33
325.8000	26
325.9000	31
326.0000	29
326.1000	23
326.2000	26
326.3000	63
326.4000	55
327.5000	28
327.6000	40
327.7000	39
327.8000	44
327.9000	41
328.0000	77
328.1000	35
328.2000	35
328.3000	30
328.4000	22
355.2000	26
355.3000	224
355.4000	487
355.5000	777
355.6000	895
355.7000	948
355.8000	969
355.9000	999
356.0000	936
356.1000	913
356.2000	927
356.3000	851
356.4000	777
356.5000	484
356.6000	385
356.7000	367
356.8000	350
356.9000	316
357.0000	346
357.1000	327
357.2000	323
357.3000	284
357.4000	221
357.5000	102
357.6000	82
357.7000	67
357.8000	70
357.9000	60
358.0000	69
358.1000	67
358.2000	59
358.3000	56
358.4000	51
358.5000	22
