Mass spectrum: 2-Deoxycrustecdysone; LC-ESI-QQQ; MS2; Frag=135.0V CID@25.0; [M+HCOO]-
Name: 2-Deoxycrustecdysone
Class: Steroids
Formula: C27H44O6
Exact mass: 464.6481
SMILES: CC(C)(O)CC[C@@H](O)[C@](C)(O)C1CC[C@@]2(O)C3=CC(=O)[C@@H]4C[C@@H](O)CC[C@]4(C)C3CC[C@]12C
InChI: InChI=1S/C27H44O6/c1-23(2,31)10-9-22(30)26(5,32)21-8-13-27(33)18-15-20(29)19-14-16(28)6-11-24(19,3)17(18)7-12-25(21,27)4/h15-17,19,21-22,28,30-33H,6-14H2,1-5H3/t16-,17?,19-,21?,22+,24+,25+,26+,27+/m0/s1
Instrument: Agilent 6410 Triple Quadrupole LC/MS system
Instrument type: LC-ESI-QQQ
Ms type: MS2
Ion mode: NEGATIVE
Precursor type: [M+HCOO]-
m/z	relative intensity
82.4	1
82.5	3
82.6	6
82.7	10
82.8	13
82.9	13
83.0	9
83.1	5
83.2	2
158.2	0
158.3	1
158.4	5
158.5	13
158.6	25
158.7	40
158.8	58
158.9	76
159.0	91
159.1	99
159.2	99
159.3	86
159.4	58
159.5	25
159.6	2
302.4	0
302.5	2
302.6	9
302.7	24
302.8	43
302.9	59
303.0	67
303.1	70
303.2	67
303.3	56
303.4	37
303.5	19
303.6	6
303.7	0
462.2	0
462.3	2
462.4	5
462.5	9
462.6	13
462.7	15
462.8	19
462.9	23
463.0	31
463.1	40
463.2	45
463.3	45
463.4	40
463.5	29
463.6	15
463.7	3
