Mass spectrum: T2 Toxin; LC-ESI-QQQ; MS2; Frag=135.0V CID@5.0; [M+NH4]+
Name: T2 Toxin
Class: Terpenoids
Formula: C24H34O9
Exact mass: 466.5332
SMILES: CC(=O)OC[C@]12C[C@H](OC(=O)CC(C)C)C(C)=C[C@H]1OC1[C@H](O)[C@@H](OC(C)=O)[C@@]2(C)[C@@]12CO2
InChI: InChI=1S/C24H34O9/c1-12(2)7-18(27)32-16-9-23(10-29-14(4)25)17(8-13(16)3)33-21-19(28)20(31-15(5)26)22(23,6)24(21)11-30-24/h8,12,16-17,19-21,28H,7,9-11H2,1-6H3/t16-,17+,19+,20+,21?,22+,23+,24+/m0/s1
Instrument: Agilent 6410 Triple Quadrupole LC/MS system
Instrument type: LC-ESI-QQQ
Ms type: MS2
Ion mode: POSITIVE
Precursor type: [M+NH4]+
m/z	relative intensity
156.6	2
156.7	3
156.8	5
156.9	6
157.0	7
157.1	6
157.2	5
157.3	3
157.4	1
168.5	1
168.6	2
168.7	5
168.8	8
168.9	11
169.0	11
169.1	10
169.2	8
169.3	6
169.4	3
169.5	1
184.3	1
184.4	2
184.5	5
184.6	9
184.7	14
184.8	19
184.9	23
185.0	27
185.1	29
185.2	30
185.3	28
185.4	21
185.5	11
185.6	3
186.7	1
186.8	3
186.9	5
187.0	6
187.1	7
187.2	6
187.3	4
187.4	2
196.3	2
196.4	3
196.5	4
196.6	6
196.7	11
196.8	16
196.9	21
197.0	25
197.1	27
197.2	27
197.3	24
197.4	18
197.5	10
197.6	3
198.7	1
198.8	3
198.9	5
199.0	7
199.1	8
199.2	6
199.3	4
199.4	2
202.7	1
202.8	3
202.9	4
203.0	5
203.1	6
203.2	7
203.3	6
203.4	3
214.2	1
214.3	2
214.4	4
214.5	6
214.6	9
214.7	13
214.8	21
214.9	32
215.0	43
215.1	50
215.2	49
215.3	42
215.4	31
215.5	18
215.6	6
215.7	0
226.5	1
226.6	2
226.7	4
226.8	7
226.9	10
227.0	13
227.1	15
227.2	14
227.3	9
227.4	3
232.6	1
232.7	3
232.8	5
232.9	7
233.0	8
233.1	7
233.2	6
233.3	5
233.4	4
233.5	2
244.3	1
244.4	3
244.5	5
244.6	8
244.7	13
244.8	23
244.9	36
245.0	49
245.1	56
245.2	53
245.3	38
245.4	20
245.5	5
245.6	0
256.5	1
256.6	3
256.7	6
256.8	10
256.9	16
257.0	22
257.1	24
257.2	24
257.3	20
257.4	13
257.5	6
257.6	1
274.7	2
274.8	4
274.9	6
275.0	9
275.1	11
275.2	10
275.3	6
275.4	2
304.3	1
304.4	3
304.5	6
304.6	12
304.7	22
304.8	39
304.9	60
305.0	77
305.1	87
305.2	86
305.3	75
305.4	56
305.5	32
305.6	10
305.7	0
364.4	1
364.5	3
364.6	5
364.7	7
364.8	9
364.9	12
365.0	15
365.1	17
365.2	17
365.3	16
365.4	11
365.5	6
365.6	1
483.3	0
483.4	1
483.5	4
483.6	10
483.7	21
483.8	35
483.9	52
484.0	69
484.1	83
484.2	94
484.3	99
484.4	96
484.5	78
484.6	48
484.7	17
484.8	0
