Mass spectrum: Trachelanthine; LC-ESI-QQQ; MS2; Frag=135.0V CID@5.0; [M+H]+
Name: Trachelanthamine oxide
Name: Trachelanthamine N-oxide
Name: ((7aS,1R)-4-hydroxyperhydropyrrolizinyl)methyl 2,3-dihydroxy-2-(methylethyl)butanoate
Name: Trachelanthine
Class: Alkaloids
Formula: C15H27NO5
Exact mass: 301.3861
SMILES: CC(C)C(O)(C(=O)OC[C@@H]1CC[N+]2([O-])CCC[C@@H]12)C(C)O
InChI: InChI=1S/C15H27NO5/c1-10(2)15(19,11(3)17)14(18)21-9-12-6-8-16(20)7-4-5-13(12)16/h10-13,17,19H,4-9H2,1-3H3/t11?,12-,13-,15?,16?/m0/s1
Instrument: Agilent 6410 Triple Quadrupole LC/MS system
Instrument type: LC-ESI-QQQ
Ms type: MS2
Ion mode: POSITIVE
Precursor type: [M+H]+
m/z	relative intensity
301.4	1
301.5	3
301.6	7
301.7	11
301.8	21
301.9	38
302.0	62
302.1	86
302.2	99
302.3	99
302.4	84
302.5	59
302.6	30
302.7	8
302.8	0
