Mass spectrum: Peuarenin; LC-ESI-QQQ; MS2; Frag=135.0V CID@5.0; [M+H]+
Name: Peuarenin
Class: Benzopyranoids
Formula: C24H26O9
Exact mass: 458.4694
SMILES: CC1OC1(C)C(=O)OC1c2cc3ccc(=O)oc3cc2OC(C)(C)C1OC(=O)C1(C)OC1C
InChI: InChI=1S/C24H26O9/c1-11-23(5,31-11)20(26)29-18-14-9-13-7-8-17(25)28-15(13)10-16(14)33-22(3,4)19(18)30-21(27)24(6)12(2)32-24/h7-12,18-19H,1-6H3
Instrument: Agilent 6410 Triple Quadrupole LC/MS system
Instrument type: LC-ESI-QQQ
Ms type: MS2
Ion mode: POSITIVE
Precursor type: [M+H]+
m/z	relative intensity
458.2	0
458.3	1
458.4	4
458.5	8
458.6	14
458.7	25
458.8	43
458.9	64
459.0	84
459.1	97
459.2	99
459.3	91
459.4	70
459.5	42
459.6	16
459.7	1
