Mass spectrum: Eudesmin; LC-ESI-QQQ; MS2; Frag=135.0V CID@15.0; [M+H]+
Name: Eudesmin
Class: Lignans
Formula: C22H26O6
Exact mass: 386.4489
SMILES: COc1ccc([C@H]2OC[C@@H]3[C@@H](c4ccc(OC)c(OC)c4)OC[C@H]23)cc1OC
InChI: InChI=1S/C22H26O6/c1-23-17-7-5-13(9-19(17)25-3)21-15-11-28-22(16(15)12-27-21)14-6-8-18(24-2)20(10-14)26-4/h5-10,15-16,21-22H,11-12H2,1-4H3/t15-,16-,21+,22+/m0/s1
Instrument: Agilent 6410 Triple Quadrupole LC/MS system
Instrument type: LC-ESI-QQQ
Ms type: MS2
Ion mode: POSITIVE
Precursor type: [M+H]+
m/z	relative intensity
150.2	1
150.3	4
150.4	8
150.5	14
150.6	19
150.7	25
150.8	38
150.9	58
151.0	80
151.1	97
151.2	99
151.3	85
151.4	57
151.5	26
151.6	5
164.4	1
164.5	3
164.6	6
164.7	10
164.8	13
164.9	17
165.0	20
165.1	21
165.2	19
165.3	13
165.4	7
165.7	2
165.8	5
165.9	6
166.0	6
166.1	5
166.2	3
173.5	2
173.6	3
173.7	4
173.8	5
173.9	5
174.0	5
174.1	5
174.2	5
174.3	4
174.7	1
174.8	3
174.9	5
175.0	5
175.1	4
176.4	0
176.5	3
176.6	9
176.7	17
176.8	23
176.9	23
177.0	21
177.1	21
177.2	25
177.3	25
177.4	18
177.5	8
177.6	1
178.7	2
178.8	4
178.9	7
179.0	9
179.1	9
179.2	7
179.3	6
179.4	4
179.5	2
188.5	2
188.6	4
188.7	12
188.8	25
188.9	44
189.0	59
189.1	64
189.2	61
189.3	51
189.4	36
189.5	19
189.6	5
190.6	1
190.7	3
190.8	7
190.9	11
191.0	13
191.1	13
191.2	12
191.3	9
191.4	5
191.5	1
200.4	2
200.5	5
200.6	11
200.7	18
200.8	27
200.9	35
201.0	41
201.1	45
201.2	44
201.3	37
201.4	24
201.5	11
201.6	2
202.4	0
202.5	2
202.6	4
202.7	9
202.8	14
202.9	19
203.0	21
203.1	20
203.2	18
203.3	16
203.4	11
203.5	5
203.6	1
212.7	1
212.8	2
212.9	4
213.0	5
213.1	5
213.2	4
213.3	2
230.3	0
230.4	2
230.5	5
230.6	7
230.7	8
230.8	9
230.9	13
231.0	20
231.1	25
231.2	26
231.3	23
231.4	16
231.5	8
231.6	2
297.1	1
297.2	3
297.3	4
297.4	5
297.5	4
297.6	4
297.7	12
297.8	31
297.9	54
298.0	72
298.1	74
298.2	63
298.3	45
298.4	28
298.5	13
298.8	4
298.9	9
299.0	15
299.1	20
299.2	21
299.3	17
299.4	10
299.5	4
310.7	1
310.8	4
310.9	7
311.0	10
311.1	10
311.2	9
311.3	6
311.4	2
318.7	2
318.8	3
318.9	7
319.0	11
319.1	15
319.2	17
319.3	15
319.6	9
319.7	15
319.8	20
319.9	24
320.0	29
320.1	34
320.2	37
320.3	32
320.4	19
320.5	6
323.6	0
323.7	2
323.8	5
323.9	8
324.0	9
324.1	10
324.2	10
324.3	9
324.4	6
324.5	2
335.7	4
335.8	6
335.9	10
336.0	14
336.1	16
336.2	14
336.3	9
336.4	4
336.5	1
338.7	4
338.8	6
338.9	11
339.0	15
339.1	15
339.2	14
339.3	12
339.4	9
339.5	4
339.6	0
350.2	0
350.3	1
350.4	4
350.5	8
350.6	12
350.7	15
350.8	20
350.9	29
351.0	40
351.1	50
351.2	53
351.3	46
351.4	29
351.5	10
351.6	0
368.7	2
368.8	3
368.9	6
369.0	9
369.1	9
369.2	7
369.3	3
