Mass spectrum: 8-Hydroxy-13,14,15,16-tetranor-12-labdanoic acid; LC-ESI-QQQ; MS2; Frag=135.0V CID@5.0; [M+H]+
Name: 8-Hydroxy-13,14,15,16-tetranor-12-labdanoic acid
Class: Terpenoids
Formula: C16H28O3
Exact mass: 268.3998
SMILES: CC1(C)CCC[C@@]2(C)C1CC[C@@](C)(O)C2CC(=O)O
InChI: InChI=1S/C16H28O3/c1-14(2)7-5-8-15(3)11(14)6-9-16(4,19)12(15)10-13(17)18/h11-12,19H,5-10H2,1-4H3,(H,17,18)/t11?,12?,15-,16+/m0/s1
Instrument: Agilent 6410 Triple Quadrupole LC/MS system
Instrument type: LC-ESI-QQQ
Ms type: MS2
Ion mode: POSITIVE
Precursor type: [M+H]+
m/z	relative intensity
190.8	3
190.9	4
191.0	7
191.1	9
191.2	8
191.3	4
191.6	4
191.7	6
191.8	11
191.9	22
192.0	38
192.1	50
192.2	51
192.3	40
192.4	21
192.5	7
233.6	3
233.7	5
233.8	10
233.9	16
234.0	22
234.1	24
234.2	23
234.3	18
234.4	11
234.5	5
251.5	1
251.6	7
251.7	22
251.8	41
251.9	58
252.0	71
252.1	85
252.2	99
252.3	97
252.4	71
252.5	32
252.6	4
268.7	3
268.8	5
268.9	7
269.0	10
269.1	16
269.2	19
269.3	17
269.4	10
269.5	4
