Mass spectrum: Norlaudanosoline; LC-ESI-QQQ; MS2; Frag=135.0V CID@25.0; [M+H]+
Name: Norlaudanosoline
Class: Alkaloids
Formula: C16H17NO4
Exact mass: 287.3182
SMILES: Oc1ccc(CC2NCCc3cc(O)c(O)cc32)cc1O
InChI: InChI=1S/C16H17NO4/c18-13-2-1-9(6-14(13)19)5-12-11-8-16(21)15(20)7-10(11)3-4-17-12/h1-2,6-8,12,17-21H,3-5H2
Instrument: Agilent 6410 Triple Quadrupole LC/MS system
Instrument type: LC-ESI-QQQ
Ms type: MS2
Ion mode: POSITIVE
Precursor type: [M+H]+
m/z	relative intensity
114.4	1
114.5	2
114.6	3
114.7	5
114.8	7
114.9	10
115.0	12
115.1	13
115.2	12
115.3	10
115.4	7
115.5	3
115.6	1
122.2	1
122.3	3
122.4	9
122.5	18
122.6	30
122.7	47
122.8	67
122.9	86
123.0	97
123.1	99
123.2	92
123.3	77
123.4	54
123.5	28
123.6	7
123.7	0
142.3	1
142.4	2
142.5	6
142.6	12
142.7	20
142.8	30
142.9	39
143.0	45
143.1	45
143.2	42
143.3	34
143.4	23
143.5	11
143.6	2
160.3	1
160.4	2
160.5	5
160.6	9
160.7	16
160.8	24
160.9	32
161.0	37
161.1	40
161.2	40
161.3	35
161.4	27
161.5	15
161.6	5
163.2	0
163.3	1
163.4	4
163.5	11
163.6	23
163.7	39
163.8	59
163.9	78
164.0	91
164.1	96
164.2	94
164.3	84
164.4	65
164.5	39
164.6	14
164.7	0
