Mass spectrum: 9,13-Epoxy-3,18-dihydroxy-15,16-labdanolide; LC-ESI-QQQ; MS2; Frag=135.0V CID@25.0; [M+NH4]+
Name: 9,13-Epoxy-3,18-dihydroxy-15,16-labdanolide
Class: Terpenoids
Formula: C20H32O5
Exact mass: 352.475
SMILES: C[C@@H]1CCC2[C@](C)(CC[C@H](O)[C@@]2(C)CO)[C@@]12CC1(COC(=O)C1)CO2
InChI: InChI=1S/C20H32O5/c1-13-4-5-14-17(2,10-21)15(22)6-7-18(14,3)20(13)9-19(12-25-20)8-16(23)24-11-19/h13-15,21-22H,4-12H2,1-3H3/t13-,14?,15+,17+,18+,19?,20-/m1/s1
Instrument: Agilent 6410 Triple Quadrupole LC/MS system
Instrument type: LC-ESI-QQQ
Ms type: MS2
Ion mode: POSITIVE
Precursor type: [M+NH4]+
m/z	relative intensity
68.5	1
68.6	2
68.7	5
68.8	6
68.9	7
69.0	7
69.1	5
69.2	3
80.7	1
80.8	4
80.9	7
81.0	9
81.1	8
81.2	5
81.3	1
104.9	1
105.0	3
105.1	4
105.2	5
105.3	4
106.8	4
106.9	6
107.0	8
107.1	9
107.2	8
107.3	5
107.4	2
108.9	2
109.0	4
109.1	6
109.2	7
109.3	6
109.4	3
118.6	1
118.7	3
118.8	6
118.9	7
119.0	7
119.1	5
119.2	3
120.8	2
120.9	4
121.0	5
121.1	6
121.2	5
121.3	3
132.4	2
132.5	4
132.6	7
132.7	13
132.8	21
132.9	29
133.0	34
133.1	35
133.2	37
133.3	38
133.4	31
133.5	16
133.6	3
148.6	1
148.7	3
148.8	8
148.9	16
149.0	25
149.1	32
149.2	33
149.3	27
149.4	17
149.5	7
149.6	1
158.6	1
158.7	4
158.8	7
158.9	12
159.0	14
159.1	14
159.2	10
159.3	5
159.4	2
162.6	2
162.7	3
162.8	5
162.9	8
163.0	10
163.1	10
163.2	7
163.3	4
172.7	2
172.8	4
172.9	8
173.0	11
173.1	14
173.2	13
173.3	10
173.4	5
173.5	1
180.1	1
180.2	3
180.3	5
180.4	7
180.5	7
180.6	9
180.7	18
180.8	38
180.9	64
181.0	87
181.1	99
181.2	97
181.3	80
181.4	51
181.5	22
181.6	3
182.7	0
182.8	2
182.9	5
183.0	7
183.1	7
183.2	5
183.3	3
186.5	1
186.6	2
186.7	5
186.8	11
186.9	15
187.0	16
187.1	14
187.2	9
187.3	5
187.4	2
196.8	3
196.9	5
197.0	6
197.1	7
197.2	7
197.3	5
197.4	2
198.6	1
198.7	2
198.8	5
198.9	8
199.0	9
199.1	7
199.2	5
199.3	3
238.8	4
238.9	6
239.0	9
239.1	11
239.2	11
239.3	8
239.4	3
258.8	1
258.9	4
259.0	7
259.1	8
259.2	6
259.3	4
298.8	2
298.9	3
299.0	5
299.1	6
299.2	7
299.3	6
299.4	4
299.5	2
304.7	2
304.8	3
304.9	5
305.0	6
305.1	6
305.2	5
305.3	5
305.4	4
305.5	3
316.6	0
316.7	2
316.8	5
316.9	7
317.0	7
317.1	6
317.2	6
317.3	5
317.4	4
