Mass spectrum: Ajugalide E; LC-ESI-QQQ; MS2; Frag=135.0V CID@25.0; [M+HCOO]-
Name: Ajugalide E
Class: Terpenoids
Formula: C31H46O9
Exact mass: 562.7069
SMILES: CC(=O)O[C@H](CC1C(C)OC(=O)C1C)[C@](C)(O)C1CC[C@@]2(O)C3=CC(=O)[C@@H]4C[C@@H](O)C(O)C[C@]4(C)C3CC[C@]12C
InChI: InChI=1S/C31H46O9/c1-15-18(16(2)39-27(15)36)11-26(40-17(3)32)30(6,37)25-8-10-31(38)20-12-22(33)21-13-23(34)24(35)14-28(21,4)19(20)7-9-29(25,31)5/h12,15-16,18-19,21,23-26,34-35,37-38H,7-11,13-14H2,1-6H3/t15?,16?,18?,19?,21-,23+,24?,25?,26+,28+,29+,30+,31+/m0/s1
Instrument: Agilent 6410 Triple Quadrupole LC/MS system
Instrument type: LC-ESI-QQQ
Ms type: MS2
Ion mode: NEGATIVE
Precursor type: [M+HCOO]-
m/z	relative intensity
58.2	0
58.3	2
58.4	6
58.5	11
58.6	13
58.7	12
58.8	11
58.9	10
59.0	7
59.1	3
500.0	1
500.1	2
500.2	5
500.3	7
500.4	8
500.5	12
500.6	26
500.7	43
500.8	51
500.9	50
501.0	50
501.1	63
501.2	83
501.3	99
501.4	96
501.5	70
501.6	33
501.7	5
501.8	0
518.7	0
518.8	1
518.9	5
519.0	8
519.1	10
519.2	10
519.3	7
519.4	5
519.5	2
