Mass spectrum: 6-Hydroxyhyoscyamine; LC-ESI-QQQ; MS2; Frag=135.0V CID@25.0; [M+H]+
Name: 6-Hydroxyhyoscyamine
Class: Alkaloids
Formula: C17H23NO4
Exact mass: 305.3772
SMILES: CN1[C@@H]2CC(OC(=O)C(CO)c3ccccc3)C[C@H]1C(O)C2
InChI: InChI=1S/C17H23NO4/c1-18-12-7-13(9-15(18)16(20)8-12)22-17(21)14(10-19)11-5-3-2-4-6-11/h2-6,12-16,19-20H,7-10H2,1H3/t12-,13?,14?,15+,16?/m1/s1
Instrument: Agilent 6410 Triple Quadrupole LC/MS system
Instrument type: LC-ESI-QQQ
Ms type: MS2
Ion mode: POSITIVE
Precursor type: [M+H]+
m/z	relative intensity
90.7	2
90.8	3
90.9	4
91.0	5
91.1	6
91.2	6
91.3	5
91.4	3
91.5	2
121.7	4
121.8	6
121.9	8
122.0	10
122.1	12
122.2	12
122.3	10
122.4	8
122.5	5
122.6	2
139.3	0
139.4	3
139.5	7
139.6	16
139.7	28
139.8	46
139.9	67
140.0	86
140.1	98
140.2	99
140.3	90
140.4	70
140.5	44
140.6	18
140.7	2
305.5	0
305.6	1
305.7	4
305.8	7
305.9	12
306.0	18
306.1	23
306.2	26
306.3	26
306.4	22
306.5	15
306.6	7
306.7	1
