Mass spectrum: allopregnanolone; LC-ESI-QQQ; MS2; Frag=135.0V CID@10.0; [M+H]+
Name: allopregnanolone
Class: Steroids
Formula: C21H34O2
Exact mass: 318.5039
SMILES: CC(=O)C1CCC2C3CC[C@H]4C[C@H](O)CC[C@]4(C)C3CC[C@]12C
InChI: InChI=1S/C21H34O2/c1-13(22)17-6-7-18-16-5-4-14-12-15(23)8-10-20(14,2)19(16)9-11-21(17,18)3/h14-19,23H,4-12H2,1-3H3/t14-,15+,16?,17?,18?,19?,20-,21+/m0/s1
Instrument: Agilent 6410 Triple Quadrupole LC/MS system
Instrument type: LC-ESI-QQQ
Ms type: MS2
Ion mode: POSITIVE
Precursor type: [M+H]+
m/z	relative intensity
120.5	1
120.6	2
120.7	3
120.8	5
120.9	7
121.0	7
121.1	7
121.2	7
121.3	7
121.4	6
121.5	4
121.6	2
134.4	0
134.5	1
134.6	3
134.7	7
134.8	12
134.9	17
135.0	21
135.1	23
135.2	22
135.3	19
135.4	15
135.5	9
135.6	3
146.5	1
146.6	2
146.7	4
146.8	7
146.9	9
147.0	10
147.1	12
147.2	12
147.3	12
147.4	10
147.5	6
147.6	2
148.7	1
148.8	2
148.9	4
149.0	7
149.1	9
149.2	10
149.3	10
149.4	9
149.5	6
149.6	2
160.5	1
160.6	2
160.7	4
160.8	6
160.9	8
161.0	9
161.1	10
161.2	10
161.3	9
161.4	8
161.5	5
161.6	2
162.6	2
162.7	4
162.8	6
162.9	9
163.0	11
163.1	13
163.2	12
163.3	10
163.4	8
163.5	5
163.6	2
172.7	1
172.8	3
172.9	4
173.0	6
173.1	8
173.2	8
173.3	7
173.4	5
173.5	2
174.6	0
174.7	1
174.8	3
174.9	7
175.0	10
175.1	13
175.2	14
175.3	14
175.4	12
175.5	8
175.6	3
186.6	1
186.7	3
186.8	5
186.9	6
187.0	8
187.1	9
187.2	10
187.3	11
187.4	9
187.5	6
187.6	2
188.4	1
188.5	2
188.6	3
188.7	7
188.8	12
188.9	19
189.0	25
189.1	28
189.2	29
189.3	28
189.4	23
189.5	16
189.6	7
189.7	1
200.7	1
200.8	2
200.9	4
201.0	5
201.1	7
201.2	7
201.3	7
201.4	5
201.5	4
201.6	2
256.4	0
256.5	1
256.6	4
256.7	7
256.8	11
256.9	18
257.0	28
257.1	39
257.2	45
257.3	46
257.4	41
257.5	30
257.6	17
257.7	6
257.8	0
282.4	1
282.5	2
282.6	4
282.7	6
282.8	10
282.9	16
283.0	25
283.1	36
283.2	44
283.3	46
283.4	40
283.5	29
283.6	16
283.7	4
283.8	0
300.4	0
300.5	3
300.6	8
300.7	15
300.8	23
300.9	36
301.0	54
301.1	75
301.2	91
301.3	99
301.4	97
301.5	81
301.6	53
301.7	23
301.8	2
