Mass spectrum: 2-dimethylaminoethyl cinnamate; LC-ESI-QQQ; MS2; Frag=135.0V CID@15.0; [M+H]+
Name: 2-dimethylaminoethyl cinnamate
Class: Carbohydrates
Formula: C13H17NO2
Exact mass: 219.2859
SMILES: CN(C)CCOC(=O)/C=C/c1ccccc1
InChI: InChI=1S/C13H17NO2/c1-14(2)10-11-16-13(15)9-8-12-6-4-3-5-7-12/h3-9H,10-11H2,1-2H3/b9-8+
Instrument: Agilent 6410 Triple Quadrupole LC/MS system
Instrument type: LC-ESI-QQQ
Ms type: MS2
Ion mode: POSITIVE
Precursor type: [M+H]+
m/z	relative intensity
71.2	0
71.3	1
71.4	5
71.5	11
71.6	20
71.7	34
71.8	51
71.9	70
72.0	87
72.1	97
72.2	99
72.3	91
72.4	72
72.5	44
72.6	17
72.7	1
89.6	1
89.7	2
89.8	4
89.9	6
90.0	7
90.1	8
90.2	8
90.3	7
90.4	5
90.5	3
90.6	1
102.5	1
102.6	2
102.7	4
102.8	6
102.9	9
103.0	10
103.1	11
103.2	11
103.3	9
103.4	6
103.5	3
130.2	0
130.3	1
130.4	3
130.5	8
130.6	16
130.7	27
130.8	42
130.9	56
131.0	65
131.1	67
131.2	63
131.3	55
131.4	41
131.5	23
131.6	7
131.7	0
174.3	0
174.4	1
174.5	4
174.6	9
174.7	16
174.8	24
174.9	33
175.0	41
175.1	45
175.2	45
175.3	41
175.4	32
175.5	19
175.6	7
175.7	0
