Mass spectrum: isoosajin; LC-ESI-QQQ; MS2; Frag=135.0V CID@5.0; [M+H]+
Name: isoosajin
Class: Flavonoids
Formula: C25H24O5
Exact mass: 404.467
SMILES: CC1(C)C=Cc2c(c3c(c4c(=O)c(-c5ccc(O)cc5)coc24)OC(C)(C)CC3)O1
InChI: InChI=1S/C25H24O5/c1-24(2)11-9-16-21(29-24)17-10-12-25(3,4)30-23(17)19-20(27)18(13-28-22(16)19)14-5-7-15(26)8-6-14/h5-9,11,13,26H,10,12H2,1-4H3
Instrument: Agilent 6410 Triple Quadrupole LC/MS system
Instrument type: LC-ESI-QQQ
Ms type: MS2
Ion mode: POSITIVE
Precursor type: [M+H]+
m/z	relative intensity
348.6	2
348.7	3
348.8	5
348.9	8
349.0	10
349.1	11
349.2	11
349.3	9
349.4	5
349.5	2
404.3	0
404.4	2
404.5	7
404.6	13
404.7	24
404.8	40
404.9	60
405.0	80
405.1	94
405.2	99
405.3	93
405.4	73
405.5	46
405.6	19
405.7	2
