Mass spectrum: Lagochilin; LC-ESI-QQQ; MS2; Frag=135.0V CID@25.0; [M+HCOO]-
Name: Lagochilin
Class: Terpenoids
Formula: C20H36O5
Exact mass: 356.5069
SMILES: C[C@@H]1CCC2[C@](C)(CC[C@H](O)[C@@]2(C)CO)[C@]12CCC(CO)(CCO)O2
InChI: InChI=1S/C20H36O5/c1-14-4-5-15-17(2,12-22)16(24)6-7-18(15,3)20(14)9-8-19(13-23,25-20)10-11-21/h14-16,21-24H,4-13H2,1-3H3/t14-,15?,16+,17+,18+,19?,20+/m1/s1
Instrument: Agilent 6410 Triple Quadrupole LC/MS system
Instrument type: LC-ESI-QQQ
Ms type: MS2
Ion mode: NEGATIVE
Precursor type: [M+HCOO]-
m/z	relative intensity
50.3	15
50.4	21
50.5	25
50.6	24
50.7	18
50.9	14
51.0	20
51.1	25
51.2	24
51.3	19
51.5	13
51.6	17
51.7	21
51.8	22
51.9	18
52.2	13
52.3	18
52.4	22
52.5	21
52.8	16
52.9	21
53.0	25
53.1	24
53.2	17
53.5	12
53.6	17
53.7	20
53.8	20
53.9	18
54.1	17
54.2	19
54.3	22
54.4	23
54.5	20
54.6	16
54.8	15
54.9	18
55.0	19
55.3	17
55.4	20
55.5	23
55.6	23
55.7	19
56.0	13
56.1	18
56.2	22
56.3	21
56.4	15
56.6	9
56.7	14
56.8	22
56.9	25
57.0	21
57.1	13
57.3	10
57.4	17
57.5	23
57.6	23
57.7	21
57.9	18
58.0	20
58.1	23
58.2	22
58.3	18
58.4	13
58.6	10
58.7	15
58.8	19
58.9	19
59.0	16
59.2	13
59.3	17
59.4	23
59.5	24
59.6	20
59.7	12
59.9	9
60.0	16
60.1	22
60.2	23
60.3	19
60.5	14
60.6	17
60.7	20
60.8	21
60.9	18
61.1	14
61.2	17
61.3	22
61.4	23
61.5	20
61.6	13
61.8	12
61.9	17
62.0	20
62.1	19
62.4	15
62.5	19
62.6	23
62.7	23
62.8	19
62.9	12
63.1	11
63.2	17
63.3	22
63.4	21
63.5	14
63.7	9
63.8	18
63.9	27
64.0	28
64.1	22
64.2	14
64.4	13
64.5	19
64.6	23
64.7	21
64.8	15
65.0	14
65.1	19
65.2	22
65.3	21
65.4	15
65.6	11
65.7	17
65.8	22
65.9	22
66.0	17
66.2	10
66.3	14
66.4	22
66.5	25
66.6	22
66.7	15
66.9	11
67.0	16
67.1	20
67.2	21
67.3	18
67.5	14
67.6	17
67.7	20
67.8	21
67.9	18
68.2	14
68.3	19
68.4	23
68.5	22
68.6	17
68.8	12
68.9	17
69.0	21
69.1	21
69.2	16
69.4	13
69.5	18
69.6	23
69.7	25
69.8	22
69.9	17
70.1	12
70.2	15
70.3	19
70.4	21
70.5	18
70.7	10
70.8	14
70.9	21
71.0	24
71.1	21
71.4	14
71.5	20
71.6	24
71.7	23
71.8	17
72.0	12
72.1	16
72.2	21
72.3	21
72.4	16
72.7	10
72.8	16
72.9	22
73.0	24
73.1	21
73.2	16
73.3	14
73.4	14
73.5	15
73.6	13
73.9	9
74.0	15
74.1	23
74.2	26
74.3	22
74.4	15
74.6	12
74.7	18
74.8	22
74.9	20
75.0	15
75.2	13
75.3	18
75.4	23
75.5	22
75.6	17
75.8	12
75.9	15
76.0	19
76.1	21
76.2	19
76.4	14
76.5	16
76.6	21
76.7	25
76.8	24
76.9	17
77.1	11
77.2	16
77.3	22
77.4	23
77.5	18
77.6	12
77.8	12
77.9	17
78.0	19
78.1	18
79.0	10
79.1	14
79.2	22
79.3	27
79.4	25
79.5	17
79.6	9
79.8	10
79.9	15
80.0	18
80.1	16
80.2	15
80.3	17
80.4	20
80.5	23
80.6	24
80.7	22
80.8	19
81.0	17
81.1	20
81.2	23
81.3	24
81.4	21
81.5	16
81.7	15
81.8	19
81.9	21
82.0	20
82.3	16
82.4	21
82.5	24
82.6	22
82.7	17
82.9	9
83.0	13
83.1	19
83.2	19
83.3	15
83.5	9
83.6	15
83.7	22
83.8	25
83.9	19
84.2	12
84.3	19
84.4	24
84.5	24
84.6	18
84.9	12
85.0	17
85.1	20
85.2	20
85.3	16
85.5	13
85.6	17
85.7	20
85.8	21
85.9	18
86.7	16
86.8	19
86.9	23
87.0	22
87.1	18
87.4	13
87.5	19
87.6	23
87.7	24
87.8	20
87.9	16
88.5	13
88.6	14
88.7	16
88.8	19
88.9	20
89.0	18
89.8	7
89.9	11
90.0	16
90.1	20
90.2	22
90.3	20
90.4	15
90.6	12
90.7	16
90.8	18
90.9	16
91.2	12
91.3	17
91.4	20
91.5	20
91.6	16
91.8	11
91.9	16
92.0	24
92.1	28
92.2	25
92.3	17
92.5	12
92.6	18
92.7	24
92.8	26
92.9	22
93.0	16
93.8	10
93.9	19
94.0	24
94.1	21
94.2	14
94.4	11
94.5	18
94.6	23
94.7	23
94.8	17
95.0	11
95.1	14
95.2	19
95.3	21
95.4	19
95.5	16
95.7	14
95.8	16
95.9	19
96.0	19
96.1	16
96.3	11
96.4	16
96.5	23
96.6	26
96.7	23
96.8	15
97.0	12
97.1	17
97.2	21
97.3	21
97.4	17
97.6	14
97.7	17
97.8	22
97.9	26
98.0	25
98.1	21
98.9	10
99.0	14
99.1	20
99.2	22
99.3	18
99.5	12
99.6	16
99.7	22
99.8	23
99.9	18
100.0	10
100.2	10
100.3	16
100.4	21
100.5	21
100.6	18
100.8	15
100.9	18
101.0	21
101.1	21
101.2	19
101.3	14
101.5	12
101.6	15
101.7	17
102.0	14
102.1	17
102.2	22
102.3	25
102.4	24
102.5	19
102.7	13
102.8	16
102.9	20
103.0	21
103.1	19
103.3	13
103.4	16
103.5	22
103.6	27
103.7	25
103.8	19
103.9	11
104.1	9
104.2	14
104.3	17
104.4	16
104.7	12
104.8	17
104.9	21
105.0	21
105.1	16
105.3	14
105.4	19
105.5	23
105.6	22
105.7	16
105.9	9
106.0	14
106.1	20
106.2	23
106.3	20
106.4	14
106.6	13
106.7	18
106.8	21
106.9	19
107.2	13
107.3	19
107.4	24
107.5	24
107.6	20
107.8	16
107.9	20
108.0	24
108.1	24
108.2	20
108.3	14
108.5	13
108.6	18
108.7	22
108.8	22
108.9	18
109.1	13
109.2	17
109.3	22
109.4	24
109.5	21
109.6	16
109.8	13
109.9	16
110.0	20
110.1	22
110.2	19
111.0	10
111.1	14
111.2	21
111.3	25
111.4	23
111.5	18
111.7	15
111.8	18
111.9	21
112.0	20
112.3	15
112.4	22
112.5	27
112.6	25
112.7	18
112.9	11
113.0	18
113.1	26
113.2	29
113.3	25
113.4	18
114.2	17
114.3	18
114.4	19
114.5	19
114.6	19
114.7	16
115.5	10
115.6	14
115.7	22
115.8	26
115.9	22
116.8	8
116.9	14
117.0	21
117.1	22
117.2	17
117.4	8
117.5	12
117.6	19
117.7	24
117.8	24
117.9	20
118.7	11
118.8	15
118.9	21
119.0	22
119.1	19
119.4	13
119.5	18
119.6	22
119.7	22
119.8	17
120.0	11
120.1	14
120.2	19
120.3	19
120.4	15
120.6	10
120.7	15
120.8	21
120.9	23
121.0	19
121.1	13
121.3	11
121.4	18
121.5	24
121.6	26
121.7	22
121.8	15
122.0	12
122.1	18
122.2	21
122.3	19
122.5	14
122.6	18
122.7	23
122.8	25
122.9	22
123.0	17
123.2	12
123.3	17
123.4	22
123.5	24
123.6	22
123.7	16
123.9	13
124.0	17
124.1	19
124.2	18
125.1	7
125.2	12
125.3	18
125.4	21
125.5	20
125.6	16
125.8	14
125.9	18
126.0	21
126.1	20
126.2	18
126.4	16
126.5	19
126.6	22
126.7	22
126.8	18
127.1	13
127.2	18
127.3	20
127.4	19
128.3	11
128.4	17
128.5	24
128.6	25
128.7	21
128.8	16
129.0	14
129.1	16
129.2	18
129.3	18
129.6	15
129.7	19
129.8	23
129.9	22
130.0	15
130.2	6
130.3	13
130.4	22
130.5	28
130.6	25
130.7	17
131.0	11
131.1	16
131.2	19
131.5	16
131.6	19
131.7	24
131.8	26
131.9	22
132.0	16
132.2	10
132.3	15
132.4	22
132.5	25
132.6	22
132.7	15
132.9	15
133.0	20
133.1	23
133.2	20
133.4	15
133.5	18
133.6	23
133.7	24
133.8	21
133.9	16
134.1	10
134.2	13
134.3	17
134.4	18
134.5	16
134.7	12
134.8	16
134.9	20
135.0	21
135.1	18
135.4	12
135.5	18
135.6	23
135.7	24
135.8	18
136.0	11
136.1	17
136.2	25
136.3	27
136.4	23
136.5	15
136.7	12
136.8	18
136.9	22
137.0	22
137.1	17
137.3	13
137.4	18
137.5	21
137.6	19
137.7	14
137.9	11
138.0	15
138.1	21
138.2	24
138.3	22
138.4	17
138.6	14
138.7	19
138.8	22
138.9	21
139.2	17
139.3	21
139.4	24
139.5	23
139.6	18
139.8	13
139.9	16
140.0	21
140.1	23
140.2	21
140.3	15
140.5	12
140.6	17
140.7	23
140.8	24
140.9	21
141.0	15
141.7	13
141.8	18
141.9	22
142.0	23
142.1	19
142.3	15
142.4	18
142.5	22
142.6	23
142.7	20
142.8	14
143.0	9
143.1	14
143.2	21
143.3	25
143.4	22
143.5	18
143.7	15
143.8	18
143.9	21
144.0	21
144.1	19
144.3	16
144.4	18
144.5	22
144.6	23
144.7	18
145.0	13
145.1	19
145.2	23
145.3	22
145.4	17
145.6	11
145.7	15
145.8	19
145.9	19
146.2	17
146.3	19
146.4	21
146.5	22
146.6	21
146.7	17
146.9	12
147.0	16
147.1	20
147.2	19
147.3	14
147.5	8
147.6	13
147.7	19
147.8	21
147.9	18
148.1	10
148.2	13
148.3	19
148.4	23
148.5	21
148.6	15
148.8	12
148.9	18
149.0	23
149.1	23
149.2	20
149.3	16
149.5	14
149.6	16
149.7	19
149.8	20
149.9	18
150.1	16
150.2	18
150.3	20
150.4	19
150.5	15
150.7	12
150.8	15
150.9	19
151.0	20
151.1	17
151.3	12
151.4	16
151.5	19
151.6	21
151.7	19
151.8	15
152.0	11
152.1	14
152.2	17
152.3	19
152.4	17
153.2	9
153.3	15
153.4	23
153.5	27
153.6	26
153.7	20
153.8	14
154.0	12
154.1	16
154.2	20
154.3	20
154.4	19
154.5	18
154.6	20
154.7	23
154.8	25
154.9	23
155.0	17
155.2	14
155.3	18
155.4	21
155.5	19
155.6	13
155.8	8
155.9	15
156.0	23
156.1	24
156.2	17
157.1	13
157.2	18
157.3	21
157.4	18
157.5	12
157.7	10
157.8	16
157.9	22
158.0	25
158.1	23
158.2	17
158.4	14
158.5	20
158.6	26
158.7	26
158.8	20
158.9	12
159.1	11
159.2	17
159.3	20
159.4	18
159.7	13
159.8	18
159.9	24
160.0	25
160.1	21
160.2	16
160.9	6
161.0	11
161.1	20
161.2	25
161.3	23
161.4	16
161.6	6
161.7	11
161.8	20
161.9	25
162.0	23
162.1	17
162.8	12
162.9	14
163.0	21
163.1	27
163.2	26
163.3	19
163.5	9
163.6	15
163.7	21
163.8	23
163.9	19
164.2	14
164.3	20
164.4	23
164.5	22
164.6	17
164.8	14
164.9	19
165.0	23
165.1	22
165.2	17
165.4	10
165.5	13
165.6	18
165.7	20
165.8	17
166.0	12
166.1	16
166.2	20
166.3	21
166.4	17
166.5	9
166.7	7
166.8	16
166.9	25
167.0	28
167.1	22
167.2	15
168.0	13
168.1	17
168.2	23
168.3	24
168.4	19
168.7	11
168.8	20
168.9	25
169.0	23
169.1	16
169.3	13
169.4	17
169.5	21
169.6	20
169.7	16
169.9	12
170.0	16
170.1	21
170.2	23
170.3	19
170.6	12
170.7	18
170.8	22
170.9	21
171.0	16
171.2	11
171.3	15
171.4	20
171.5	21
171.6	18
171.9	14
172.0	19
172.1	21
172.2	19
172.3	15
172.5	13
172.6	16
172.7	20
172.8	21
172.9	18
173.1	11
173.2	14
173.3	19
173.4	23
173.5	22
173.6	18
173.8	13
173.9	16
174.0	21
174.1	23
174.2	19
174.4	12
174.5	16
174.6	22
174.7	25
174.8	23
174.9	17
175.1	14
175.2	20
175.3	26
175.4	25
175.5	19
175.7	12
175.8	16
175.9	20
176.0	21
176.1	17
176.4	14
176.5	17
176.6	18
176.9	16
177.0	17
177.1	19
177.2	20
177.3	19
177.5	15
177.6	17
177.7	21
177.8	24
177.9	24
178.0	19
178.3	13
178.4	19
178.5	24
178.6	22
178.7	15
178.9	11
179.0	17
179.1	25
179.2	27
179.3	23
179.4	16
179.6	12
179.7	16
179.8	20
179.9	19
180.2	14
180.3	20
180.4	25
180.5	26
180.6	21
181.4	11
181.5	14
181.6	18
181.7	20
181.8	20
181.9	17
182.1	12
182.2	14
182.3	18
182.4	20
182.5	17
182.7	13
182.8	17
182.9	22
183.0	24
183.1	21
183.2	15
183.4	12
183.5	16
183.6	18
183.7	17
183.9	11
184.0	13
184.1	19
184.2	24
184.3	26
184.4	23
185.3	14
185.4	18
185.5	20
185.6	20
185.9	15
186.0	20
186.1	24
186.2	23
186.3	18
187.1	16
187.2	18
187.3	23
187.4	25
187.5	23
187.6	18
187.8	13
187.9	17
188.0	23
188.1	24
188.2	20
188.3	14
188.5	12
188.6	15
188.7	18
188.8	19
189.1	17
189.2	20
189.3	23
189.4	22
189.5	17
189.7	12
189.8	15
189.9	20
190.0	22
190.1	20
190.4	16
190.5	20
190.6	25
190.7	26
190.8	22
191.7	15
191.8	20
191.9	25
192.0	26
192.1	22
192.2	15
192.9	12
193.0	16
193.1	21
193.2	24
193.3	21
193.4	15
193.6	11
193.7	16
193.8	22
193.9	25
194.0	22
194.1	16
194.3	14
194.4	17
194.5	18
194.6	17
194.9	15
195.0	18
195.1	20
195.2	20
195.3	17
195.5	14
195.6	17
195.7	21
195.8	23
195.9	21
196.0	17
196.2	15
196.3	18
196.4	20
196.5	19
196.7	12
196.8	15
196.9	21
197.0	25
197.1	24
197.2	19
197.3	12
197.5	10
197.6	15
197.7	20
197.8	20
197.9	17
198.1	13
198.2	16
198.3	20
198.4	21
198.5	19
198.7	14
198.8	17
198.9	21
199.0	21
199.1	15
199.3	5
199.4	9
199.5	17
199.6	24
199.7	24
199.8	19
200.0	13
200.1	16
200.2	20
200.3	21
200.4	20
200.6	17
200.7	19
200.8	23
200.9	25
201.0	21
201.3	15
201.4	21
201.5	27
201.6	28
201.7	21
201.8	13
202.0	12
202.1	20
202.2	25
202.3	23
202.4	17
202.6	13
202.7	18
202.8	21
202.9	18
203.2	10
203.3	19
203.4	25
203.5	25
203.6	19
203.8	11
203.9	14
204.0	20
204.1	25
204.2	26
204.3	21
205.1	11
205.2	16
205.3	21
205.4	20
205.5	16
205.7	15
205.8	18
205.9	21
206.0	23
206.1	22
206.2	18
206.4	13
206.5	16
206.6	21
206.7	24
206.8	23
206.9	18
207.1	12
207.2	17
207.3	23
207.4	23
207.5	18
207.7	13
207.8	17
207.9	22
208.0	22
208.1	17
208.3	13
208.4	19
208.5	23
208.6	23
208.7	19
209.0	13
209.1	19
209.2	23
209.3	23
209.4	19
209.7	15
209.8	19
209.9	22
210.0	21
210.1	17
210.3	15
210.4	19
210.5	21
210.6	19
210.7	15
210.9	12
211.0	16
211.1	20
211.2	22
211.3	20
212.2	12
212.3	18
212.4	23
212.5	21
212.6	14
212.8	11
212.9	16
213.0	20
213.1	20
213.2	15
213.4	10
213.5	15
213.6	21
213.7	22
213.8	17
214.1	10
214.2	16
214.3	19
214.4	17
214.6	11
214.7	15
214.8	21
214.9	25
215.0	25
215.1	20
215.2	15
215.4	13
215.5	17
215.6	21
215.7	23
215.8	21
215.9	18
216.2	16
216.3	18
216.4	19
216.5	20
216.6	20
216.7	21
216.8	22
216.9	21
217.0	19
217.3	14
217.4	19
217.5	23
217.6	23
217.7	18
217.9	13
218.0	16
218.1	19
218.2	20
218.3	15
218.5	9
218.6	13
218.7	20
218.8	26
218.9	27
219.0	23
219.1	17
219.8	9
219.9	15
220.0	22
220.1	23
220.2	18
220.3	11
220.5	10
220.6	15
220.7	20
220.8	20
220.9	17
221.1	13
221.2	17
221.3	20
221.4	20
221.5	17
221.8	12
221.9	17
222.0	23
222.1	25
222.2	22
222.3	19
223.0	13
223.1	17
223.2	22
223.3	25
223.4	23
223.5	17
223.7	12
223.8	17
223.9	22
224.0	22
224.1	18
224.3	11
224.4	14
224.5	20
224.6	23
224.7	22
224.8	17
225.0	14
225.1	18
225.2	20
225.3	19
225.6	15
225.7	18
225.8	21
225.9	22
226.0	19
226.3	15
226.4	20
226.5	23
226.6	22
226.7	17
226.9	15
227.0	20
227.1	24
227.2	22
227.3	15
227.5	7
227.6	13
227.7	20
227.8	22
227.9	17
228.1	8
228.2	11
228.3	19
228.4	25
228.5	25
228.6	20
228.8	12
228.9	16
229.0	22
229.1	25
229.2	22
229.3	13
229.5	10
229.6	16
229.7	21
229.8	20
229.9	16
230.1	11
230.2	14
230.3	17
230.4	18
230.7	15
230.8	19
230.9	22
231.0	23
231.1	19
231.3	12
231.4	15
231.5	21
231.6	22
231.7	19
231.9	14
232.0	18
232.1	23
232.2	27
232.3	26
232.4	20
232.7	14
232.8	19
232.9	22
233.0	20
233.1	14
233.3	11
233.4	16
233.5	21
233.6	23
233.7	19
233.9	14
234.0	18
234.1	23
234.2	22
234.3	16
234.6	11
234.7	15
234.8	19
234.9	19
235.0	17
235.3	15
235.4	16
235.5	17
235.8	15
235.9	18
236.0	22
236.1	24
236.2	22
236.3	18
236.5	14
236.6	18
236.7	23
236.8	24
236.9	20
237.1	13
237.2	16
237.3	21
237.4	23
237.5	19
237.8	14
237.9	19
238.0	23
238.1	20
238.4	12
238.5	20
238.6	27
238.7	27
238.8	21
239.6	12
239.7	15
239.8	20
239.9	22
240.0	21
240.1	16
240.3	12
240.4	15
240.5	20
240.6	20
240.7	16
240.9	7
241.0	11
241.1	18
241.2	22
241.3	20
241.4	14
241.6	6
241.7	10
241.8	16
241.9	20
242.0	21
242.1	20
242.2	19
242.3	20
242.4	23
242.5	23
242.6	21
242.9	17
243.0	21
243.1	24
243.2	23
243.3	17
243.6	12
243.7	16
243.8	19
243.9	19
244.0	16
244.2	13
244.3	16
244.4	19
244.5	19
244.6	17
244.8	15
244.9	18
245.0	20
245.1	19
245.2	16
245.4	13
245.5	16
245.6	20
245.7	21
245.8	21
245.9	19
246.1	16
246.2	19
246.3	23
246.4	25
246.5	20
246.6	12
246.8	11
246.9	18
247.0	22
247.1	19
247.3	11
247.4	15
247.5	22
247.6	27
247.7	25
247.8	18
248.0	9
248.1	14
248.2	20
248.3	21
248.4	18
248.6	12
248.7	15
248.8	20
248.9	23
249.0	20
249.3	15
249.4	21
249.5	24
249.6	23
249.7	18
249.8	14
250.0	14
250.1	16
250.2	18
250.3	18
250.5	12
250.6	14
250.7	20
250.8	26
250.9	26
251.0	21
251.9	10
252.0	18
252.1	24
252.2	24
252.3	19
252.5	15
252.6	19
252.7	22
252.8	22
252.9	18
253.1	14
253.2	19
253.3	25
253.4	26
253.5	21
254.4	11
254.5	17
254.6	22
254.7	21
254.8	16
255.0	9
255.1	13
255.2	18
255.3	20
255.4	19
255.7	16
255.8	20
255.9	23
256.0	22
256.1	17
256.3	12
256.4	16
256.5	21
256.6	22
256.7	18
256.9	11
257.0	14
257.1	20
257.2	24
257.3	22
257.4	17
257.6	13
257.7	18
257.8	22
257.9	22
258.0	17
258.2	9
258.3	14
258.4	20
258.5	23
258.6	22
258.7	17
258.9	13
259.0	16
259.1	19
259.2	19
259.5	15
259.6	19
259.7	21
259.8	20
259.9	16
260.2	11
260.3	16
260.4	20
260.5	20
260.6	15
260.8	8
260.9	13
261.0	19
261.1	23
261.2	22
261.3	18
261.5	14
261.6	18
261.7	21
261.8	21
261.9	15
262.1	8
262.2	12
262.3	17
262.4	19
262.5	17
262.8	12
262.9	18
263.0	22
263.1	21
263.4	17
263.5	21
263.6	24
263.7	21
263.8	15
264.1	10
264.2	15
264.3	19
264.4	19
264.6	14
264.7	17
264.8	22
264.9	25
265.0	22
265.1	13
265.3	5
265.4	11
265.5	19
265.6	22
265.7	19
265.9	15
266.0	21
266.1	26
266.2	25
266.3	18
266.6	11
266.7	17
266.8	21
266.9	20
267.1	16
267.2	18
267.3	22
267.4	25
267.5	24
267.6	20
268.5	13
268.6	17
268.7	21
268.8	21
268.9	17
269.1	13
269.2	18
269.3	24
269.4	26
269.5	23
269.6	16
269.8	13
269.9	18
270.0	21
270.1	20
270.2	16
270.4	13
270.5	18
270.6	22
270.7	22
270.8	17
271.0	10
271.1	14
271.2	19
271.3	22
271.4	17
271.7	10
271.8	17
271.9	22
272.0	23
272.1	19
272.3	14
272.4	17
272.5	21
272.6	22
272.7	19
272.9	12
273.0	16
273.1	23
273.2	27
273.3	26
273.4	20
273.6	16
273.7	20
273.8	25
273.9	25
274.0	20
274.8	11
274.9	15
275.0	21
275.1	24
275.2	21
275.3	14
275.5	8
275.6	15
275.7	22
275.8	23
275.9	18
276.1	10
276.2	14
276.3	19
276.4	21
276.5	19
277.4	14
277.5	18
277.6	22
277.7	24
277.8	24
277.9	20
278.7	15
278.8	19
278.9	24
279.0	27
279.1	24
279.2	18
279.4	14
279.5	19
279.6	22
279.7	20
280.0	14
280.1	19
280.2	24
280.3	24
280.4	18
280.7	11
280.8	19
280.9	24
281.0	25
281.1	21
281.9	15
282.0	20
282.1	26
282.2	25
282.3	17
282.6	9
282.7	17
282.8	24
282.9	25
283.0	20
283.2	15
283.3	20
283.4	24
283.5	23
283.6	17
283.8	12
283.9	18
284.0	24
284.1	25
284.2	21
284.3	15
284.5	13
284.6	17
284.7	22
284.8	23
284.9	19
285.1	12
285.2	16
285.3	23
285.4	26
285.5	21
285.6	10
285.8	5
285.9	14
286.0	21
286.1	22
286.2	18
286.5	12
286.6	19
286.7	23
286.8	21
286.9	16
287.6	11
287.7	15
287.8	20
287.9	22
288.0	19
288.1	13
288.3	10
288.4	16
288.5	22
288.6	23
288.7	19
288.9	10
289.0	13
289.1	20
289.2	23
289.3	21
289.4	14
289.6	10
289.7	16
289.8	20
289.9	20
290.0	16
290.2	10
290.3	14
290.4	21
290.5	26
290.6	25
290.7	19
290.9	14
291.0	19
291.1	23
291.2	21
291.3	14
291.5	7
291.6	12
291.7	18
291.8	20
291.9	17
292.1	11
292.2	14
292.3	20
292.4	24
292.5	24
292.6	19
292.8	12
292.9	16
293.0	21
293.1	22
293.2	17
293.3	10
293.5	7
293.6	12
293.7	17
293.8	19
293.9	18
294.1	15
294.2	17
294.3	20
294.4	20
294.5	16
294.7	11
294.8	14
294.9	20
295.0	22
295.1	19
295.2	14
295.4	12
295.5	16
295.6	19
295.7	19
295.8	15
296.0	11
296.1	16
296.2	22
296.3	23
296.4	18
296.6	8
296.7	12
296.8	20
296.9	24
297.0	23
297.1	17
297.3	11
297.4	16
297.5	21
297.6	22
297.7	18
297.9	13
298.0	17
298.1	21
298.2	22
298.3	17
298.5	9
298.6	13
298.7	20
298.8	23
298.9	19
299.0	13
299.2	7
299.3	11
299.4	18
299.5	22
299.6	21
299.8	14
299.9	18
300.0	25
300.1	28
300.2	24
300.3	17
300.5	13
300.6	19
300.7	24
300.8	23
300.9	18
301.1	13
301.2	15
301.3	20
301.4	21
301.5	20
302.4	12
302.5	15
302.6	18
302.7	19
302.8	17
303.0	15
303.1	18
303.2	21
303.3	21
303.4	18
303.7	12
303.8	17
303.9	21
304.0	19
304.1	15
304.3	13
304.4	19
304.5	25
304.6	27
304.7	22
304.8	14
305.0	13
305.1	20
305.2	23
305.3	22
305.4	18
305.6	16
305.7	18
305.8	20
305.9	18
306.0	14
306.2	13
306.3	17
306.4	22
306.5	24
306.6	22
306.7	16
306.9	12
307.0	16
307.1	21
307.2	21
307.3	18
307.5	13
307.6	16
307.7	20
307.8	22
307.9	20
308.0	14
308.2	9
308.3	14
308.4	19
308.5	21
308.6	18
308.8	13
308.9	15
309.0	20
309.1	22
309.2	20
309.3	15
309.5	13
309.6	18
309.7	21
309.8	19
309.9	15
310.1	13
310.2	17
310.3	22
310.4	23
310.5	21
311.3	10
311.4	16
311.5	24
311.6	29
311.7	25
311.8	18
312.0	11
312.1	15
312.2	20
312.3	22
312.4	21
312.5	16
312.7	14
312.8	18
312.9	20
313.0	18
313.1	13
313.3	9
313.4	16
313.5	23
313.6	26
313.7	23
314.5	12
314.6	15
314.7	21
314.8	25
314.9	25
315.0	20
315.2	14
315.3	17
315.4	21
315.5	23
315.6	20
315.7	13
315.9	10
316.0	17
316.1	22
316.2	23
316.3	19
316.5	13
316.6	16
316.7	20
316.8	22
316.9	18
317.7	8
317.8	13
317.9	22
318.0	29
318.1	28
318.2	21
319.0	13
319.1	18
319.2	24
319.3	25
319.4	22
320.3	9
320.4	17
320.5	25
320.6	27
320.7	22
320.8	14
321.0	11
321.1	18
321.2	23
321.3	24
321.4	20
321.5	13
321.7	13
321.8	18
321.9	21
322.0	17
322.1	10
322.3	7
322.4	15
322.5	21
322.6	21
322.7	17
322.9	12
323.0	16
323.1	18
323.2	17
323.5	14
323.6	18
323.7	21
323.8	21
323.9	19
324.8	11
324.9	16
325.0	23
325.1	26
325.2	22
325.3	15
325.5	13
325.6	19
325.7	22
325.8	20
325.9	14
326.1	13
326.2	18
326.3	21
326.4	18
326.5	13
326.7	8
326.8	13
326.9	19
327.0	23
327.1	21
327.2	16
327.4	11
327.5	17
327.6	23
327.7	24
327.8	19
328.0	14
328.1	17
328.2	21
328.3	21
328.4	17
328.7	12
328.8	16
328.9	21
329.0	22
329.1	19
329.3	14
329.4	18
329.5	21
329.6	21
329.7	17
330.6	10
330.7	15
330.8	21
330.9	25
331.0	22
331.1	17
331.8	12
331.9	15
332.0	20
332.1	22
332.2	20
332.5	15
332.6	21
332.7	24
332.8	21
332.9	14
333.1	11
333.2	16
333.3	21
333.4	22
333.5	20
333.7	14
333.8	17
333.9	22
334.0	26
334.1	26
334.2	21
335.0	15
335.1	17
335.2	21
335.3	23
335.4	22
335.5	20
336.3	8
336.4	13
336.5	21
336.6	24
336.7	21
336.8	14
337.0	11
337.1	15
337.2	17
337.3	15
337.4	10
337.6	7
337.7	12
337.8	18
337.9	21
338.0	18
338.2	13
338.3	18
338.4	22
338.5	22
338.6	17
338.8	10
338.9	13
339.0	19
339.1	22
339.2	21
339.3	17
339.5	12
339.6	15
339.7	18
339.8	19
339.9	15
340.1	10
340.2	15
340.3	21
340.4	23
340.5	20
340.8	13
340.9	20
341.0	26
341.1	27
341.2	22
341.3	14
341.5	10
341.6	15
341.7	20
341.8	19
341.9	14
342.1	11
342.2	18
342.3	24
342.4	24
342.5	19
343.3	11
343.4	16
343.5	22
343.6	25
343.7	23
343.8	18
343.9	13
344.1	11
344.2	14
344.3	16
344.4	16
344.5	13
344.6	14
344.7	18
344.8	23
344.9	24
345.0	20
345.1	14
345.3	12
345.4	17
345.5	20
345.6	18
345.7	14
345.9	12
346.0	17
346.1	21
346.2	22
346.3	20
346.5	17
346.6	20
346.7	23
346.8	24
346.9	21
347.0	14
347.2	10
347.3	17
347.4	25
347.5	28
347.6	23
347.7	15
347.9	13
348.0	19
348.1	23
348.2	21
348.5	15
348.6	20
348.7	23
348.8	21
348.9	16
349.1	8
349.2	12
349.3	17
349.4	20
349.5	18
350.4	14
350.5	17
350.6	20
350.7	20
350.8	17
351.0	13
351.1	16
351.2	21
351.3	23
351.4	21
351.5	16
351.7	12
351.8	16
351.9	21
352.0	23
352.1	20
352.3	13
352.4	16
352.5	21
352.6	23
352.7	19
352.9	12
353.0	17
353.1	25
353.2	27
353.3	23
353.4	15
353.6	10
353.7	14
353.8	16
353.9	16
354.2	12
354.3	16
354.4	22
354.5	25
354.6	22
354.7	15
354.9	11
355.0	17
355.1	22
355.2	22
355.3	17
355.5	12
355.6	16
355.7	22
355.8	24
355.9	21
356.1	12
356.2	16
356.3	23
356.4	25
356.5	22
356.6	16
356.8	15
356.9	20
357.0	24
357.1	22
357.2	17
357.4	9
357.5	13
357.6	19
357.7	20
357.8	16
358.0	10
358.1	14
358.2	20
358.3	25
358.4	25
358.5	22
359.3	11
359.4	14
359.5	17
359.6	20
359.7	20
360.6	14
360.7	18
360.8	22
360.9	22
361.0	18
361.1	11
361.3	10
361.4	17
361.5	22
361.6	23
361.7	19
361.9	16
362.0	20
362.1	26
362.2	28
362.3	24
362.4	16
362.6	15
362.7	21
362.8	25
362.9	23
363.0	17
363.2	13
363.3	16
363.4	20
363.5	21
363.6	19
363.9	14
364.0	20
364.1	24
364.2	23
364.3	20
364.4	18
364.5	17
364.6	18
364.7	17
364.8	15
365.0	10
365.1	12
365.2	17
365.3	23
365.4	25
365.5	23
365.6	17
365.8	12
365.9	15
366.0	19
366.1	19
366.2	16
366.4	11
366.5	15
366.6	20
366.7	23
366.8	23
366.9	19
367.6	11
367.7	13
367.8	19
367.9	25
368.0	25
368.1	19
368.3	12
368.4	15
368.5	21
368.6	23
368.7	19
368.9	10
369.0	14
369.1	21
369.2	25
369.3	23
369.4	17
369.6	10
369.7	14
369.8	19
369.9	22
370.0	21
370.1	17
370.3	14
370.4	16
370.5	17
370.6	15
370.8	10
370.9	13
371.0	19
371.1	24
371.2	25
371.3	21
371.4	16
371.6	14
371.7	18
371.8	21
371.9	21
372.0	18
372.2	15
372.3	18
372.4	20
372.5	20
372.6	17
372.8	16
372.9	19
373.0	22
373.1	22
373.2	18
373.4	11
373.5	14
373.6	19
373.7	22
373.8	21
373.9	15
374.1	10
374.2	15
374.3	22
374.4	26
374.5	23
374.6	16
374.8	12
374.9	18
375.0	22
375.1	21
375.2	15
375.4	12
375.5	19
375.6	23
375.7	22
376.6	10
376.7	16
376.8	21
376.9	23
377.0	20
377.3	16
377.4	21
377.5	24
377.6	23
377.7	18
377.9	12
378.0	16
378.1	23
378.2	26
378.3	22
378.4	14
378.6	12
378.7	19
378.8	23
378.9	21
379.0	15
379.2	13
379.3	17
379.4	21
379.5	23
379.6	20
380.4	12
380.5	15
380.6	19
380.7	23
380.8	23
380.9	20
381.7	10
381.8	14
381.9	22
382.0	26
382.1	25
382.2	20
382.4	15
382.5	18
382.6	21
382.7	21
382.8	17
383.0	13
383.1	16
383.2	19
383.3	18
383.4	15
383.6	12
383.7	15
383.8	20
383.9	23
384.0	21
384.1	15
384.3	10
384.4	16
384.5	23
384.6	27
384.7	24
384.8	16
385.0	9
385.1	13
385.2	18
385.3	18
385.6	14
385.7	19
385.8	23
385.9	24
386.0	20
386.1	15
386.3	12
386.4	15
386.5	18
386.6	19
386.9	17
387.0	19
387.1	22
387.2	20
387.5	13
387.6	19
387.7	25
387.8	26
387.9	21
388.0	16
388.2	14
388.3	19
388.4	21
388.5	19
388.6	13
388.8	9
388.9	15
389.0	21
389.1	23
389.2	19
389.3	13
389.5	11
389.6	17
389.7	22
389.8	21
389.9	16
390.1	12
390.2	17
390.3	20
390.4	19
390.7	16
390.8	19
390.9	21
391.0	21
391.1	18
391.4	13
391.5	18
391.6	23
391.7	24
391.8	20
392.1	15
392.2	20
392.3	23
392.4	21
392.5	16
392.7	15
392.8	19
392.9	22
393.0	20
393.3	15
393.4	20
393.5	23
393.6	22
393.7	18
393.9	14
394.0	17
394.1	19
394.2	19
394.3	15
394.5	9
394.6	12
394.7	17
394.8	20
394.9	20
395.0	16
395.2	11
395.3	14
395.4	19
395.5	21
395.6	17
395.8	11
395.9	15
396.0	20
396.1	22
396.2	18
396.5	14
396.6	18
396.7	19
396.8	18
396.9	14
397.1	10
397.2	14
397.3	21
397.4	24
397.5	23
397.6	19
398.3	9
398.4	12
398.5	19
398.6	23
398.7	23
398.8	18
399.0	11
399.1	14
399.2	20
399.3	21
399.4	17
399.5	10
399.7	7
399.8	15
399.9	23
400.0	26
400.1	22
400.2	15
400.4	14
400.5	19
400.6	22
400.7	19
400.8	15
401.0	13
401.1	17
401.2	21
401.3	20
401.6	15
401.7	20
401.8	24
401.9	22
402.0	15
402.2	8
402.3	13
402.4	19
402.5	21
402.6	17
402.8	12
402.9	16
403.0	21
403.1	24
403.2	23
403.3	20
404.7	8
404.8	10
404.9	17
405.0	24
405.1	27
405.2	24
405.3	18
406.1	9
406.2	16
406.3	23
406.4	25
406.5	22
406.6	16
406.8	14
406.9	19
407.0	22
407.1	20
407.4	15
407.5	21
407.6	25
407.7	25
407.8	18
408.0	10
408.1	14
408.2	21
408.3	23
408.4	20
408.6	12
408.7	15
408.8	22
408.9	25
409.0	21
409.1	13
409.3	11
409.4	18
409.5	24
409.6	23
409.7	17
409.9	13
410.0	18
410.1	23
410.2	25
410.3	21
410.4	17
410.6	15
410.7	19
410.8	21
410.9	21
411.0	17
411.3	13
411.4	18
411.5	21
411.6	20
411.7	14
411.9	11
412.0	18
412.1	23
412.2	21
412.3	15
412.5	10
412.6	15
412.7	19
412.8	18
413.0	11
413.1	15
413.2	21
413.3	26
413.4	26
413.5	21
413.6	14
413.8	13
413.9	19
414.0	24
414.1	24
414.2	21
414.5	15
414.6	21
414.7	25
414.8	22
414.9	16
415.1	15
415.2	20
415.3	24
415.4	22
415.5	18
415.7	15
415.8	19
415.9	21
416.0	19
416.1	14
416.3	8
416.4	12
416.5	18
416.6	19
416.7	16
416.9	11
417.0	14
417.1	18
417.2	21
417.3	20
417.4	17
417.6	15
417.7	18
417.8	21
417.9	21
418.0	17
418.3	11
418.4	19
418.5	23
418.6	21
418.9	14
419.0	20
419.1	23
419.2	21
419.3	15
419.5	12
419.6	17
419.7	23
419.8	24
419.9	19
420.1	12
420.2	15
420.3	22
420.4	25
420.5	23
420.6	16
420.8	11
420.9	14
421.0	19
421.1	21
421.2	20
421.4	16
421.5	18
421.6	22
421.7	24
421.8	24
421.9	20
422.7	10
422.8	14
422.9	19
423.0	21
423.1	19
423.4	15
423.5	19
423.6	23
423.7	22
424.7	14
424.8	16
424.9	19
425.0	21
425.1	18
425.3	14
425.4	17
425.5	21
425.6	21
425.7	17
426.6	14
426.7	18
426.8	22
426.9	22
427.0	18
427.2	10
427.3	14
427.4	20
427.5	24
427.6	24
427.7	19
427.9	17
428.0	22
428.1	24
428.2	21
428.3	14
428.5	11
428.6	18
428.7	24
428.8	24
428.9	19
429.1	12
429.2	17
429.3	22
429.4	21
429.5	15
429.7	7
429.8	14
429.9	23
430.0	28
430.1	25
430.2	19
430.4	13
430.5	17
430.6	21
430.7	22
430.8	19
431.1	13
431.2	18
431.3	21
431.4	19
431.5	14
431.7	11
431.8	17
431.9	22
432.0	22
432.1	17
432.4	11
432.5	17
432.6	22
432.7	20
432.8	16
433.0	15
433.1	19
433.2	23
433.3	23
433.4	18
433.6	14
433.7	19
433.8	25
433.9	27
434.0	23
434.9	14
435.0	19
435.1	22
435.2	21
435.3	15
435.5	9
435.6	14
435.7	20
435.8	21
435.9	18
436.1	12
436.2	15
436.3	21
436.4	25
436.5	24
436.6	18
436.8	11
436.9	16
437.0	21
437.1	23
437.2	21
437.3	16
437.5	14
437.6	19
437.7	23
437.8	22
437.9	18
438.1	14
438.2	19
438.3	24
438.4	24
438.5	18
438.7	11
438.8	15
438.9	20
439.0	21
439.1	18
439.4	13
439.5	18
439.6	23
439.7	22
439.8	18
440.0	13
440.1	16
440.2	21
440.3	22
440.4	19
440.5	14
440.7	12
440.8	16
440.9	18
441.0	17
441.3	12
441.4	18
441.5	23
441.6	23
441.7	19
441.9	12
442.0	16
442.1	22
442.2	24
442.3	21
442.4	16
442.6	13
442.7	18
442.8	24
442.9	25
443.0	20
443.1	14
443.3	12
443.4	18
443.5	21
443.6	20
443.8	16
443.9	19
444.0	23
444.1	26
444.2	24
444.3	19
444.5	16
444.6	18
444.7	21
444.8	20
444.9	17
445.1	12
445.2	16
445.3	21
445.4	23
445.5	20
445.6	15
445.8	12
445.9	17
446.0	20
446.1	18
446.3	9
446.4	13
446.5	20
446.6	25
446.7	25
446.8	20
447.0	12
447.1	15
447.2	21
447.3	25
447.4	23
447.5	16
447.7	11
447.8	16
447.9	21
448.0	20
448.1	15
448.3	9
448.4	15
448.5	21
448.6	23
448.7	21
449.0	18
449.1	21
449.2	23
449.3	21
449.4	16
449.6	9
449.7	13
449.8	18
449.9	21
450.0	18
450.3	13
450.4	19
450.5	22
450.6	21
450.7	16
450.9	13
451.0	15
451.1	18
451.2	18
451.3	18
451.4	17
451.5	18
451.6	20
451.7	23
451.8	24
451.9	20
452.0	15
452.2	15
452.3	18
452.4	20
452.5	19
452.8	16
452.9	18
453.0	20
453.1	19
453.2	15
453.4	12
453.5	14
453.6	18
453.7	20
453.8	19
453.9	15
454.1	12
454.2	18
454.3	23
454.4	22
454.5	16
454.7	11
454.8	15
454.9	21
455.0	23
455.1	21
455.2	16
455.4	14
455.5	18
455.6	21
455.7	20
455.8	16
456.0	13
456.1	16
456.2	20
456.3	22
456.4	20
456.7	14
456.8	19
456.9	23
457.0	22
457.1	16
457.3	10
457.4	17
457.5	23
457.6	23
457.7	17
457.9	9
458.0	13
458.1	20
458.2	23
458.3	21
458.4	15
458.6	12
458.7	17
458.8	22
458.9	22
459.0	20
459.1	16
459.8	12
459.9	13
460.0	17
460.1	20
460.2	20
460.3	16
460.5	11
460.6	14
460.7	19
460.8	21
460.9	18
461.1	12
461.2	15
461.3	20
461.4	23
461.5	22
461.6	19
461.8	16
461.9	19
462.0	21
462.1	20
462.2	17
463.0	11
463.1	16
463.2	22
463.3	23
463.4	19
463.7	11
463.8	18
463.9	22
464.0	20
464.1	14
464.3	10
464.4	17
464.5	23
464.6	25
464.7	22
464.8	16
465.0	13
465.1	19
465.2	24
465.3	23
465.4	18
465.6	14
465.7	17
465.8	21
465.9	21
466.0	16
466.3	12
466.4	17
466.5	20
466.6	20
466.7	16
467.5	10
467.6	14
467.7	21
467.8	24
467.9	22
468.0	17
468.2	13
468.3	17
468.4	20
468.5	20
468.6	16
468.8	12
468.9	16
469.0	21
469.1	22
469.2	19
469.5	13
469.6	19
469.7	24
469.8	24
469.9	18
470.1	11
470.2	15
470.3	21
470.4	24
470.5	21
470.7	12
470.8	15
470.9	22
471.0	26
471.1	24
471.2	17
471.4	11
471.5	16
471.6	20
471.7	20
472.0	17
472.1	21
472.2	24
472.3	22
472.4	16
472.6	11
472.7	14
472.8	20
472.9	23
473.0	21
473.1	17
473.3	13
473.4	17
473.5	21
473.6	22
473.7	17
473.8	11
474.0	9
474.1	13
474.2	18
474.3	19
474.6	16
474.7	20
474.8	24
474.9	23
475.0	19
475.2	14
475.3	18
475.4	25
475.5	30
475.6	29
475.7	25
475.8	21
475.9	20
476.0	20
476.1	17
476.2	9
476.4	0
476.5	5
476.6	13
476.7	19
476.8	20
476.9	17
477.1	13
477.2	17
477.3	21
477.4	21
477.5	17
477.7	12
477.8	16
477.9	20
478.0	23
478.1	22
478.2	19
479.1	12
479.2	18
479.3	22
479.4	20
479.5	15
479.7	10
479.8	14
479.9	18
480.0	20
480.1	18
480.3	15
480.4	16
480.5	20
480.6	23
480.7	23
480.8	20
480.9	15
481.6	10
481.7	13
481.8	18
481.9	21
482.0	20
482.1	16
482.3	14
482.4	19
482.5	23
482.6	22
482.7	17
482.9	13
483.0	18
483.1	22
483.2	21
483.3	16
483.5	10
483.6	16
483.7	23
483.8	24
483.9	20
484.0	14
484.2	13
484.3	18
484.4	22
484.5	22
484.6	18
484.9	11
485.0	18
485.1	22
485.2	21
485.3	16
485.5	14
485.6	19
485.7	23
485.8	22
486.1	16
486.2	22
486.3	26
486.4	25
486.5	20
486.6	14
487.4	11
487.5	18
487.6	23
487.7	22
487.8	16
488.0	10
488.1	16
488.2	21
488.3	21
488.4	17
488.6	11
488.7	16
488.8	21
488.9	24
489.0	20
489.1	13
489.3	9
489.4	16
489.5	21
489.6	21
489.7	16
489.9	12
490.0	18
490.1	24
490.2	25
490.3	20
491.2	13
491.3	16
491.4	20
491.5	20
491.6	18
491.8	14
491.9	17
492.0	21
492.1	22
492.2	20
492.5	16
492.6	19
492.7	22
492.8	23
492.9	19
493.0	14
493.2	10
493.3	15
493.4	19
493.5	18
493.8	15
493.9	18
494.0	20
494.1	19
494.2	16
495.0	13
495.1	16
495.2	21
495.3	26
495.4	25
495.5	21
495.6	15
495.8	13
495.9	15
496.0	17
496.1	18
496.2	18
496.3	18
496.4	18
496.5	19
496.6	20
496.7	20
496.8	17
497.0	15
497.1	18
497.2	21
497.3	20
497.4	16
497.6	12
497.7	16
497.8	21
497.9	22
498.0	19
498.8	10
498.9	13
499.0	20
499.1	26
499.2	25
499.3	19
499.5	14
499.6	19
499.7	24
499.8	25
499.9	21
500.0	17
500.2	15
500.3	18
500.4	20
500.5	19
500.8	17
500.9	20
501.0	23
501.1	23
501.2	20
501.3	18
501.5	16
501.6	18
501.7	19
501.8	19
502.0	15
502.1	17
502.2	21
502.3	23
502.4	20
502.7	12
502.8	21
502.9	28
503.0	26
503.1	18
503.3	10
503.4	14
503.5	20
503.6	22
503.7	19
504.0	13
504.1	18
504.2	23
504.3	24
504.4	20
504.5	16
505.3	12
505.4	16
505.5	21
505.6	23
505.7	19
506.0	14
506.1	20
506.2	24
506.3	23
506.4	20
506.6	18
506.7	20
506.8	22
506.9	20
507.0	15
507.2	13
507.3	18
507.4	21
507.5	20
507.6	15
507.8	9
507.9	14
508.0	19
508.1	21
508.2	19
508.3	16
508.5	15
508.6	17
508.7	20
508.8	19
508.9	16
509.1	9
509.2	12
509.3	18
509.4	20
509.5	18
509.7	13
509.8	16
509.9	20
510.0	22
510.1	20
510.2	15
510.4	11
510.5	16
510.6	21
510.7	22
510.8	17
511.0	7
511.1	12
511.2	21
511.3	25
511.4	23
511.5	16
511.7	9
511.8	13
511.9	20
512.0	23
512.1	20
513.0	14
513.1	19
513.2	22
513.3	21
513.4	15
513.6	8
513.7	12
513.8	18
513.9	23
514.0	22
514.1	15
514.3	10
514.4	16
514.5	21
514.6	22
514.7	19
515.5	11
515.6	17
515.7	24
515.8	27
515.9	24
516.0	18
516.2	12
516.3	15
516.4	19
516.5	18
516.8	14
516.9	19
517.0	24
517.1	22
517.2	16
517.4	12
517.5	18
517.6	23
517.7	24
517.8	20
517.9	14
518.1	9
518.2	13
518.3	18
518.4	19
518.5	16
518.7	12
518.8	15
518.9	20
519.0	21
519.1	18
519.3	11
519.4	15
519.5	22
519.6	25
519.7	23
519.8	17
520.0	12
520.1	16
520.2	21
520.3	23
520.4	19
520.6	14
520.7	17
520.8	20
520.9	20
521.0	16
521.3	12
521.4	16
521.5	20
521.6	21
521.7	20
521.9	16
522.0	18
522.1	22
522.2	23
522.3	21
522.4	17
523.1	12
523.2	15
523.3	20
523.4	25
523.5	26
523.6	23
523.7	18
523.9	16
524.0	20
524.1	23
524.2	21
524.3	16
524.5	11
524.6	17
524.7	22
524.8	24
524.9	20
525.0	15
525.2	13
525.3	15
525.4	17
525.5	17
525.6	16
525.8	14
525.9	16
526.0	20
526.1	22
526.2	20
526.3	16
526.5	15
526.6	18
526.7	20
526.8	20
526.9	18
527.6	16
527.7	17
527.8	21
527.9	25
528.0	25
528.1	19
528.2	11
528.4	7
528.5	13
528.6	18
528.7	19
528.8	16
529.0	12
529.1	15
529.2	18
529.3	17
529.6	13
529.7	19
529.8	25
529.9	27
530.0	23
530.1	18
530.3	14
530.4	18
530.5	20
530.6	19
530.8	11
530.9	15
531.0	23
531.1	30
531.2	28
531.3	21
531.5	12
531.6	17
531.7	22
531.8	23
531.9	19
532.1	12
532.2	15
532.3	21
532.4	25
532.5	22
532.6	15
532.8	12
532.9	18
533.0	25
533.1	26
533.2	21
533.4	15
533.5	19
533.6	24
533.7	24
533.8	19
534.0	12
534.1	17
534.2	23
534.3	25
534.4	20
534.5	13
534.7	9
534.8	14
534.9	19
535.0	20
535.1	19
536.0	9
536.1	12
536.2	19
536.3	23
536.4	22
536.5	17
536.7	16
536.8	20
536.9	21
537.0	19
537.2	12
537.3	15
537.4	21
537.5	24
537.6	22
537.7	17
537.9	14
538.0	19
538.1	23
538.2	25
538.3	20
538.4	13
538.6	10
538.7	17
538.8	24
538.9	24
539.0	18
539.2	11
539.3	14
539.4	19
539.5	20
539.6	15
539.8	8
539.9	12
540.0	18
540.1	21
540.2	18
540.5	14
540.6	19
540.7	21
540.8	20
540.9	17
541.1	13
541.2	16
541.3	19
541.4	19
541.5	17
541.6	14
541.8	10
541.9	13
542.0	17
542.1	19
542.2	17
542.3	14
542.5	13
542.6	15
542.7	16
542.8	14
543.0	10
543.1	14
543.2	22
543.3	27
543.4	25
543.5	17
543.7	8
543.8	14
543.9	21
544.0	23
544.1	19
544.3	10
544.4	14
544.5	20
544.6	22
544.7	19
545.6	9
545.7	16
545.8	23
545.9	24
546.0	19
546.1	13
546.3	10
546.4	16
546.5	22
546.6	22
546.7	18
546.9	13
547.0	16
547.1	21
547.2	23
547.3	20
547.4	15
547.6	13
547.7	17
547.8	19
547.9	18
548.2	14
548.3	19
548.4	24
548.5	23
548.6	17
548.8	9
548.9	12
549.0	18
549.1	21
549.2	19
549.3	14
549.5	12
549.6	16
549.7	19
549.8	19
549.9	17
550.7	13
550.8	18
550.9	23
551.0	24
551.1	18
551.3	7
551.4	12
551.5	20
551.6	27
551.7	26
551.8	20
552.6	12
552.7	16
552.8	24
552.9	28
553.0	25
553.1	16
553.3	14
553.4	21
553.5	24
553.6	20
553.7	12
553.9	8
554.0	16
554.1	25
554.2	29
554.3	26
554.4	20
554.6	14
554.7	18
554.8	21
554.9	21
555.0	17
555.2	12
555.3	16
555.4	20
555.5	21
555.6	17
555.9	12
556.0	17
556.1	20
556.2	19
556.4	13
556.5	16
556.6	21
556.7	22
556.8	19
556.9	13
557.1	12
557.2	18
557.3	22
557.4	20
557.5	14
557.7	9
557.8	15
557.9	21
558.0	24
558.1	22
558.2	17
558.4	15
558.5	19
558.6	23
558.7	23
558.8	18
558.9	11
559.1	10
559.2	15
559.3	20
559.4	19
560.3	8
560.4	14
560.5	22
560.6	25
560.7	22
561.6	13
561.7	20
561.8	25
561.9	25
562.0	19
562.1	12
562.3	12
562.4	17
562.5	21
562.6	20
562.9	15
563.0	21
563.1	24
563.2	21
563.3	13
563.5	8
563.6	16
563.7	23
563.8	24
563.9	19
564.2	11
564.3	18
564.4	24
564.5	24
564.6	17
564.8	9
564.9	16
565.0	24
565.1	27
565.2	23
565.3	16
565.5	13
565.6	17
565.7	20
565.8	19
566.1	14
566.2	19
566.3	23
566.4	23
566.5	18
566.6	14
566.8	13
566.9	16
567.0	19
567.1	20
567.4	16
567.5	20
567.6	23
567.7	20
567.8	14
568.0	13
568.1	19
568.2	25
568.3	25
568.4	19
568.6	12
568.7	16
568.8	21
568.9	24
569.0	21
569.1	17
569.4	13
569.5	17
569.6	20
569.7	18
569.9	12
570.0	15
570.1	22
570.2	26
570.3	22
570.4	14
570.6	12
570.7	18
570.8	22
570.9	22
571.0	19
571.2	16
571.3	18
571.4	21
571.5	22
571.8	19
571.9	23
572.0	26
572.1	24
572.2	15
572.3	5
572.5	2
572.6	12
572.7	20
572.8	23
572.9	19
573.1	14
573.2	17
573.3	22
573.4	24
573.5	21
573.6	15
573.8	13
573.9	19
574.0	23
574.1	21
574.2	17
574.4	14
574.5	18
574.6	22
574.7	22
574.8	18
575.6	11
575.7	15
575.8	20
575.9	22
576.0	21
576.1	15
576.3	12
576.4	16
576.5	21
576.6	22
576.7	18
576.8	12
577.0	11
577.1	16
577.2	20
577.3	20
577.6	16
577.7	20
577.8	23
577.9	21
578.0	17
578.2	13
578.3	17
578.4	21
578.5	24
578.6	22
578.7	18
578.9	15
579.0	18
579.1	22
579.2	22
579.3	19
579.5	14
579.6	16
579.7	20
579.8	21
579.9	18
580.1	12
580.2	17
580.3	22
580.4	24
580.5	21
580.6	17
581.4	16
581.5	18
581.6	21
581.7	21
581.8	17
582.1	13
582.2	19
582.3	24
582.4	23
582.5	18
582.7	11
582.8	14
582.9	20
583.0	22
583.1	21
583.2	17
583.4	15
583.5	19
583.6	23
583.7	22
583.8	18
584.0	11
584.1	15
584.2	19
584.3	20
584.4	17
584.6	13
584.7	17
584.8	22
584.9	25
585.0	23
585.1	18
585.3	11
585.4	15
585.5	20
585.6	22
585.7	19
585.9	13
586.0	17
586.1	22
586.2	25
586.3	21
586.4	14
586.6	10
586.7	14
586.8	17
586.9	16
587.2	10
587.3	15
587.4	21
587.5	22
587.6	17
587.8	8
587.9	13
588.0	21
588.1	25
588.2	22
588.3	15
588.5	14
588.6	19
588.7	22
588.8	19
588.9	14
589.1	11
589.2	17
589.3	23
589.4	24
589.5	20
589.6	15
589.8	15
589.9	18
590.0	19
590.1	17
590.4	13
590.5	18
590.6	20
590.7	18
590.8	13
591.0	7
591.1	11
591.2	17
591.3	21
591.4	21
591.5	17
591.7	13
591.8	17
591.9	21
592.0	21
592.1	18
592.2	14
592.4	13
592.5	16
592.6	21
592.7	22
592.8	18
593.0	14
593.1	18
593.2	21
593.3	20
593.4	16
593.6	14
593.7	19
593.8	23
593.9	24
594.0	19
594.2	10
594.3	13
594.4	20
594.5	24
594.6	22
594.7	16
594.9	14
595.0	20
595.1	24
595.2	22
595.3	16
595.5	11
595.6	15
595.7	19
595.8	20
595.9	18
596.0	14
596.2	12
596.3	15
596.4	17
596.5	16
596.7	12
596.8	14
596.9	20
597.0	25
597.1	24
597.2	17
597.4	10
597.5	16
597.6	21
597.7	22
597.8	17
598.0	12
598.1	15
598.2	20
598.3	23
598.4	21
598.5	16
598.7	9
598.8	15
598.9	22
599.0	25
599.1	21
599.3	13
599.4	17
599.5	23
599.6	26
