Mass spectrum: ononin; LC-ESI-QQQ; MS2; Frag=135.0V CID@10.0; [M+HCOO]-
Name: Fmnn-7-Glc
Name: formononetin-7-O-glucoside
Name: Formononetin-7-O-beta-D-glucopyranoside
Name: 4'-Methoxyisoflavone-7-O-beta-D-glucopyranoside
Name: Glucosyl-7-O-formononetin
Name: calycosin-7-O-beta-D-glucoside
Name: ononin
Class: Flavonoids
Formula: C22H22O9
Exact mass: 430.4152
SMILES: COc1ccc(-c2coc3cc(O[C@@H]4O[C@H](CO)[C@@H](O)[C@H](O)[C@H]4O)ccc3c2=O)cc1
InChI: InChI=1S/C22H22O9/c1-28-12-4-2-11(3-5-12)15-10-29-16-8-13(6-7-14(16)18(15)24)30-22-21(27)20(26)19(25)17(9-23)31-22/h2-8,10,17,19-23,25-27H,9H2,1H3/t17-,19-,20+,21-,22-/m1/s1
Instrument: Agilent 6410 Triple Quadrupole LC/MS system
Instrument type: LC-ESI-QQQ
Ms type: MS2
Ion mode: NEGATIVE
Precursor type: [M+HCOO]-
m/z	relative intensity
266.2	0
266.3	1
266.4	4
266.5	12
266.6	27
266.7	46
266.8	66
266.9	82
267.0	93
267.1	99
267.2	98
267.3	86
267.4	62
267.5	32
267.6	8
267.7	0
