Mass spectrum: Acetyldiphyllin; LC-ESI-QQQ; MS2; Frag=135.0V CID@10.0; [M+H]+
Name: Acetyldiphyllin
Class: Lignans
Formula: C23H18O8
Exact mass: 422.3951
SMILES: COc1cc2c(OC(C)=O)c3c(c(-c4ccc5c(c4)OCO5)c2cc1OC)C(=O)OC3
InChI: InChI=1S/C23H18O8/c1-11(24)31-22-14-8-18(27-3)17(26-2)7-13(14)20(21-15(22)9-28-23(21)25)12-4-5-16-19(6-12)30-10-29-16/h4-8H,9-10H2,1-3H3
Instrument: Agilent 6410 Triple Quadrupole LC/MS system
Instrument type: LC-ESI-QQQ
Ms type: MS2
Ion mode: POSITIVE
Precursor type: [M+H]+
m/z	relative intensity
362.5	2
362.6	3
362.7	5
362.8	9
362.9	13
363.0	16
363.1	17
363.2	16
363.3	13
363.4	9
363.5	3
380.3	1
380.4	4
380.5	8
380.6	15
380.7	27
380.8	46
380.9	69
381.0	89
381.1	99
381.2	98
381.3	83
381.4	59
381.5	31
381.6	8
381.7	0
422.3	1
422.4	2
422.5	6
422.6	12
422.7	23
422.8	38
422.9	54
423.0	67
423.1	73
423.2	70
423.3	58
423.4	40
423.5	20
423.6	5
423.7	0
