Mass spectrum: Convoline; LC-ESI-QQQ; MS2; Frag=135.0V CID@10.0; [M+H]+
Name: Convoline
Class: Alkaloids
Formula: C16H21NO5
Exact mass: 307.3495
SMILES: COc1ccc(C(=O)OC2C[C@@H]3CC[C@H](C2)N3O)cc1OC
InChI: InChI=1S/C16H21NO5/c1-20-14-6-3-10(7-15(14)21-2)16(18)22-13-8-11-4-5-12(9-13)17(11)19/h3,6-7,11-13,19H,4-5,8-9H2,1-2H3/t11-,12+,13?
Instrument: Agilent 6410 Triple Quadrupole LC/MS system
Instrument type: LC-ESI-QQQ
Ms type: MS2
Ion mode: POSITIVE
Precursor type: [M+H]+
m/z	relative intensity
92.7	2
92.8	3
92.9	4
93.0	5
93.1	6
93.2	6
93.3	5
93.4	3
93.5	2
125.4	1
125.5	2
125.6	4
125.7	7
125.8	11
125.9	16
126.0	19
126.1	21
126.2	20
126.3	18
126.4	13
126.5	8
126.6	2
307.3	0
307.4	3
307.5	7
307.6	12
307.7	22
307.8	37
307.9	58
308.0	79
308.1	94
308.2	99
308.3	95
308.4	79
308.5	53
308.6	24
308.7	3
