Mass spectrum: Perforine; LC-ESI-QQQ; MS2; Frag=135.0V CID@10.0; [M+H]+
Name: Perforine
Class: Alkaloids
Formula: C18H25NO5
Exact mass: 335.4037
SMILES: COc1c2c(nc3occc13)C(CCC(C)(C)O)(OC)C(O)CC2
InChI: InChI=1S/C18H25NO5/c1-17(2,21)8-9-18(23-4)13(20)6-5-11-14(22-3)12-7-10-24-16(12)19-15(11)18/h7,10,13,20-21H,5-6,8-9H2,1-4H3
Instrument: Agilent 6410 Triple Quadrupole LC/MS system
Instrument type: LC-ESI-QQQ
Ms type: MS2
Ion mode: POSITIVE
Precursor type: [M+H]+
m/z	relative intensity
217.6	1
217.7	2
217.8	5
217.9	8
218.0	11
218.1	12
218.2	11
218.3	10
218.4	7
218.5	4
218.6	1
229.6	1
229.7	2
229.8	4
229.9	7
230.0	8
230.1	9
230.2	9
230.3	8
230.4	6
230.5	3
285.3	0
285.4	1
285.5	4
285.6	9
285.7	18
285.8	32
285.9	52
286.0	74
286.1	92
286.2	99
286.3	94
286.4	76
286.5	49
286.6	20
286.7	2
303.4	1
303.5	2
303.6	5
303.7	11
303.8	21
303.9	36
304.0	54
304.1	69
304.2	77
304.3	75
304.4	64
304.5	43
304.6	20
304.7	3
