Mass spectrum: Desoxycortone; LC-ESI-QQQ; MS2; Frag=135.0V CID@15.0; [M+H]+
Name: Desoxycortone
Class: Steroids
Formula: C21H30O3
Exact mass: 330.4715
SMILES: C[C@]12CC[C@H]3[C@@H](CCC4=CC(=O)CC[C@@]43C)[C@@H]1CC[C@@H]2C(=O)CO
InChI: InChI=1S/C21H30O3/c1-20-9-7-14(23)11-13(20)3-4-15-16-5-6-18(19(24)12-22)21(16,2)10-8-17(15)20/h11,15-18,22H,3-10,12H2,1-2H3/t15-,16-,17-,18+,20-,21-/m0/s1
Instrument: Agilent 6410 Triple Quadrupole LC/MS system
Instrument type: LC-ESI-QQQ
Ms type: MS2
Ion mode: POSITIVE
Precursor type: [M+H]+
m/z	relative intensity
96.3	0
96.4	3
96.5	9
96.6	18
96.7	31
96.8	49
96.9	68
97.0	81
97.1	86
97.2	82
97.3	71
97.4	54
97.5	32
97.6	12
97.7	0
108.3	0
108.4	2
108.5	5
108.6	12
108.7	21
108.8	33
108.9	46
109.0	56
109.1	59
109.2	55
109.3	48
109.4	36
109.5	21
109.6	7
109.7	0
122.7	2
122.8	3
122.9	4
123.0	6
123.1	6
123.2	6
123.3	5
123.4	3
294.8	2
294.9	3
295.0	4
295.1	6
295.2	7
295.3	7
295.4	6
295.5	5
295.6	2
312.8	2
312.9	3
313.0	4
313.1	5
313.2	6
313.3	6
313.4	5
313.5	4
313.6	2
330.4	1
330.5	3
330.6	6
330.7	12
330.8	22
330.9	36
331.0	55
331.1	75
331.2	92
331.3	99
331.4	93
331.5	71
331.6	40
331.7	12
331.8	0
