Mass spectrum: Dihydrolycorine; LC-ESI-QQQ; MS; [M+H]+
Name: Dihydrolycorine
Class: Alkaloids
Formula: C16H19NO4
Exact mass: 289.3341
SMILES: O[C@H]1CC2CCN3Cc4cc5c(cc4[C@H]([C@@H]1O)[C@@H]23)OCO5
InChI: InChI=1S/C16H19NO4/c18-11-3-8-1-2-17-6-9-4-12-13(21-7-20-12)5-10(9)14(15(8)17)16(11)19/h4-5,8,11,14-16,18-19H,1-3,6-7H2/t8?,11-,14-,15+,16+/m0/s1
Instrument: ABSciex API3200 LC/MS system
Instrument type: LC-ESI-QQQ
Ms type: MS
Ion mode: POSITIVE
Precursor type: [M+H]+
m/z	relative intensity
221.0000	26
271.4000	26
271.5000	24
271.6000	39
271.7000	41
271.8000	42
271.9000	91
272.0000	49
272.1000	53
272.2000	57
272.3000	44
272.4000	28
272.6000	21
287.6000	44
287.7000	32
288.0000	22
289.3000	122
289.4000	406
289.5000	605
289.6000	866
289.7000	876
289.8000	852
289.9000	943
290.0000	897
290.1000	890
290.2000	999
290.3000	849
290.4000	676
290.5000	444
290.6000	330
290.7000	248
290.8000	247
290.9000	257
291.0000	254
291.1000	214
291.2000	244
291.3000	248
291.4000	234
291.5000	109
291.6000	45
291.7000	44
291.8000	34
291.9000	48
292.0000	34
292.1000	40
292.2000	43
292.3000	36
