Mass spectrum: Zearalenol; LC-ESI-QQQ; MS2; Frag=135.0V CID@15.0; [M+H]+
Name: Zearalenol
Class: Carbohydrates
Formula: C18H24O5
Exact mass: 320.389
SMILES: C[C@H]1CCCC(O)CCC/C=C/c2cc(O)cc(O)c2C(=O)O1
InChI: InChI=1S/C18H24O5/c1-12-6-5-9-14(19)8-4-2-3-7-13-10-15(20)11-16(21)17(13)18(22)23-12/h3,7,10-12,14,19-21H,2,4-6,8-9H2,1H3/b7-3+/t12-,14?/m0/s1
Instrument: Agilent 6410 Triple Quadrupole LC/MS system
Instrument type: LC-ESI-QQQ
Ms type: MS2
Ion mode: POSITIVE
Precursor type: [M+H]+
m/z	relative intensity
66.6	2
66.7	5
66.8	9
66.9	12
67.0	12
67.1	10
67.2	7
67.3	4
78.6	1
78.7	3
78.8	5
78.9	6
79.0	6
79.1	5
79.2	4
80.5	1
80.6	2
80.7	5
80.8	8
80.9	11
81.0	14
81.1	16
81.2	19
81.3	17
81.4	11
81.5	4
94.3	1
94.4	3
94.5	5
94.6	6
94.7	7
94.8	9
94.9	11
95.0	13
95.1	14
95.2	13
95.3	11
95.4	7
95.5	3
106.8	2
106.9	4
107.0	5
107.1	6
107.2	5
107.3	4
108.7	2
108.8	4
108.9	7
109.0	11
109.1	14
109.2	15
109.3	13
109.4	9
109.5	4
120.6	1
120.7	5
120.8	10
120.9	13
121.0	13
121.1	13
121.2	14
121.3	15
121.4	13
121.5	7
121.6	2
122.4	0
122.5	1
122.6	5
122.7	8
122.8	11
122.9	12
123.0	13
123.1	13
123.2	12
123.3	8
123.4	4
134.5	2
134.6	4
134.7	6
134.8	10
134.9	13
135.0	15
135.1	16
135.2	17
135.3	15
135.4	10
135.5	5
135.6	1
148.6	3
148.7	6
148.8	9
148.9	12
149.0	14
149.1	14
149.2	13
149.3	11
149.4	7
149.5	3
160.6	1
160.7	3
160.8	7
160.9	13
161.0	19
161.1	23
161.2	24
161.3	20
161.4	13
161.5	6
161.6	1
162.5	1
162.6	2
162.7	5
162.8	7
162.9	8
163.0	8
163.1	10
163.2	12
163.3	10
163.4	7
163.5	2
164.5	1
164.6	2
164.7	5
164.8	9
164.9	11
165.0	13
165.1	13
165.2	12
165.3	10
165.4	7
165.5	3
166.7	2
166.8	4
166.9	7
167.0	10
167.1	9
167.2	7
167.3	4
172.5	2
172.6	3
172.7	7
172.8	10
172.9	12
173.0	12
173.1	10
173.2	9
173.3	7
173.4	5
173.5	2
174.3	1
174.4	3
174.5	8
174.6	15
174.7	25
174.8	33
174.9	39
175.0	44
175.1	47
175.2	47
175.3	40
175.4	26
175.5	11
175.6	1
176.3	0
176.4	3
176.5	9
176.6	16
176.7	24
176.8	31
176.9	39
177.0	48
177.1	53
177.2	50
177.3	39
177.4	23
177.5	8
177.6	0
186.8	3
186.9	5
187.0	8
187.1	11
187.2	13
187.3	11
187.4	7
187.5	2
188.4	1
188.5	2
188.6	6
188.7	12
188.8	22
188.9	34
189.0	45
189.1	51
189.2	49
189.3	39
189.4	24
189.5	9
189.6	1
190.5	1
190.6	3
190.7	6
190.8	9
190.9	12
191.0	13
191.1	12
191.2	10
191.3	6
191.4	4
192.6	1
192.7	3
192.8	5
192.9	6
193.0	5
193.1	3
196.7	2
196.8	3
196.9	6
197.0	7
197.1	6
198.6	2
198.7	3
198.8	5
198.9	6
199.0	6
199.1	6
199.2	6
199.3	5
199.4	2
200.5	0
200.6	3
200.7	7
200.8	13
200.9	20
201.0	26
201.1	29
201.2	27
201.3	22
201.4	17
201.5	10
201.6	4
202.4	1
202.5	3
202.6	7
202.7	12
202.8	16
202.9	19
203.0	20
203.1	23
203.2	24
203.3	21
203.4	14
203.5	5
204.7	2
204.8	4
204.9	5
205.0	6
205.1	5
205.2	5
205.3	4
210.7	3
210.8	6
210.9	8
211.0	10
211.1	10
211.2	8
211.3	7
211.4	5
211.5	3
214.5	3
214.6	6
214.7	12
214.8	22
214.9	33
215.0	41
215.1	46
215.2	45
215.3	37
215.4	23
215.5	8
216.5	3
216.6	5
216.7	10
216.8	18
216.9	26
217.0	31
217.1	32
217.2	30
217.3	25
217.4	17
217.5	8
217.6	1
225.0	4
225.1	6
225.2	8
225.3	9
225.4	7
225.5	3
226.7	3
226.8	4
226.9	5
227.0	7
227.1	7
227.2	6
227.3	5
227.4	3
228.6	5
228.7	8
228.8	16
228.9	26
229.0	34
229.1	35
229.2	32
229.3	28
229.4	22
229.5	14
229.6	4
242.6	1
242.7	3
242.8	5
242.9	7
243.0	9
243.1	8
243.2	7
243.3	5
243.4	3
256.4	2
256.5	4
256.6	5
256.7	6
256.8	8
256.9	12
257.0	18
257.1	23
257.2	24
257.3	22
257.4	18
257.5	11
257.6	4
266.3	2
266.4	4
266.5	7
266.6	12
266.7	21
266.8	33
266.9	43
267.0	50
267.1	52
267.2	53
267.3	53
267.4	45
267.5	28
267.6	10
267.7	0
284.0	1
284.1	3
284.2	5
284.3	6
284.4	7
284.5	7
284.6	7
284.7	14
284.8	34
284.9	63
285.0	89
285.1	99
285.2	95
285.3	82
285.4	63
285.5	38
285.6	14
285.7	1
302.5	0
302.6	2
302.7	5
302.8	10
302.9	14
303.0	18
303.1	20
303.2	20
303.3	16
303.4	9
303.5	3
