Mass spectrum: Roemerine; LC-ESI-QQQ; MS; [M+H]+
Name: Remerin
Name: Aporheine
Name: Roemerine
Class: Alkaloids
Formula: C18H17NO2
Exact mass: 279.3417
SMILES: CN1CCc2cc3c(c4c2[C@H]1Cc1ccccc1-4)OCO3
InChI: InChI=1S/C18H17NO2/c1-19-7-6-12-9-15-18(21-10-20-15)17-13-5-3-2-4-11(13)8-14(19)16(12)17/h2-5,9,14H,6-8,10H2,1H3/t14-/m1/s1
Instrument: ABSciex API3200 LC/MS system
Instrument type: LC-ESI-QQQ
Ms type: MS
Ion mode: POSITIVE
Precursor type: [M+H]+
m/z	relative intensity
100.6000	27
100.7000	26
136.5000	38
136.6000	32
136.7000	24
178.6000	25
189.7000	35
189.8000	28
190.0000	28
190.4000	26
190.5000	92
190.6000	121
190.7000	92
190.8000	137
190.9000	111
191.0000	124
191.1000	71
191.2000	80
191.3000	91
191.4000	65
191.5000	32
191.8000	26
191.9000	21
201.0000	29
201.6000	21
202.5000	25
202.7000	24
203.2000	28
203.4000	21
206.7000	26
206.9000	22
207.0000	24
207.1000	21
218.4000	25
218.5000	83
218.6000	135
218.7000	150
218.8000	110
218.9000	139
219.0000	158
219.1000	99
219.2000	108
219.3000	154
219.4000	105
219.5000	43
219.6000	40
219.7000	28
219.9000	22
220.2000	21
220.8000	22
221.0000	21
221.4000	28
248.4000	174
248.5000	537
248.6000	774
248.7000	794
248.8000	786
248.9000	779
249.0000	794
249.1000	770
249.2000	731
249.3000	685
249.4000	553
249.5000	333
249.6000	209
249.7000	189
249.8000	208
249.9000	180
250.0000	191
250.1000	179
250.2000	134
250.3000	114
250.4000	123
250.5000	69
250.7000	34
251.0000	21
251.3000	23
279.4000	212
279.5000	617
279.6000	778
279.7000	891
279.8000	979
279.9000	999
280.0000	940
280.1000	831
280.2000	850
280.3000	765
280.4000	629
280.5000	357
280.6000	279
280.7000	252
280.8000	233
280.9000	221
281.0000	210
281.1000	222
281.2000	200
281.3000	176
281.4000	167
281.5000	83
281.6000	40
281.7000	24
281.8000	26
282.1000	33
282.2000	33
282.3000	87
320.6000	29
320.7000	21
320.8000	25
