Mass spectrum: Heraclenin; LC-ESI-QQQ; MS; [M+H]+
Name: Heraclenin
Class: Benzopyranoids
Formula: C16H14O5
Exact mass: 286.287
SMILES: CC1(C)OC1COc1c2occc2cc2ccc(=O)oc12
InChI: InChI=1S/C16H14O5/c1-16(2)11(21-16)8-19-15-13-10(5-6-18-13)7-9-3-4-12(17)20-14(9)15/h3-7,11H,8H2,1-2H3
Instrument: ABSciex API3200 LC/MS system
Instrument type: LC-ESI-QQQ
Ms type: MS
Ion mode: POSITIVE
Precursor type: [M+H]+
m/z	relative intensity
130.5000	31
130.6000	44
130.7000	47
130.8000	45
130.9000	42
131.0000	42
131.1000	42
131.2000	38
131.3000	38
131.4000	27
146.4000	66
146.5000	109
146.6000	130
146.7000	129
146.8000	131
146.9000	140
147.0000	166
147.1000	141
147.2000	109
147.3000	89
147.4000	89
147.5000	28
158.6000	23
158.7000	26
158.8000	26
158.9000	31
159.0000	31
159.1000	25
159.2000	21
159.3000	21
174.4000	47
174.5000	79
174.6000	96
174.7000	96
174.8000	115
174.9000	95
175.0000	91
175.1000	87
175.2000	78
175.3000	66
175.4000	46
185.0000	22
202.1000	22
202.2000	56
202.3000	444
202.4000	774
202.5000	905
202.6000	970
202.7000	982
202.8000	999
202.9000	991
203.0000	928
203.1000	927
203.2000	883
203.3000	888
203.4000	689
203.5000	374
203.6000	292
203.7000	290
203.8000	330
203.9000	318
204.0000	304
204.1000	293
204.2000	262
204.3000	253
204.4000	198
204.5000	78
204.6000	53
204.7000	47
204.8000	46
204.9000	49
205.0000	47
205.1000	46
205.2000	40
205.3000	39
205.4000	25
214.6000	22
214.7000	23
214.8000	29
214.9000	30
215.0000	23
215.1000	23
215.2000	21
229.1000	23
229.2000	22
270.3000	54
270.4000	317
270.5000	485
270.6000	616
270.7000	622
270.8000	554
270.9000	562
271.0000	537
271.1000	535
271.2000	523
271.3000	489
271.4000	412
271.5000	237
271.6000	192
271.7000	167
271.8000	161
271.9000	173
272.0000	166
272.1000	151
272.2000	148
272.3000	126
272.4000	105
272.5000	51
272.6000	40
272.7000	26
272.8000	21
272.9000	24
273.0000	27
273.1000	29
273.2000	22
287.5000	41
287.6000	53
287.7000	62
287.8000	64
287.9000	68
288.0000	59
288.1000	61
288.2000	57
288.3000	55
288.4000	49
288.5000	22
288.6000	21
