Mass spectrum: Ginkgolide B; LC-ESI-QQQ; MS2; Frag=135.0V CID@25.0; [M+H]+
Name: Ginkgolide B
Class: Terpenoids
Formula: C20H24O10
Exact mass: 424.4083
SMILES: C[C@@H]1C(=O)O[C@H]2[C@H](O)[C@@]34[C@H]5C[C@@H](C(C)(C)C)[C@]36[C@@H](OC(=O)[C@@H]6O)O[C@@]4(C(=O)O5)[C@@]12O
InChI: InChI=1S/C20H24O10/c1-6-12(23)28-11-9(21)18-8-5-7(16(2,3)4)17(18)10(22)13(24)29-15(17)30-20(18,14(25)27-8)19(6,11)26/h6-11,15,21-22,26H,5H2,1-4H3/t6-,7+,8-,9+,10+,11+,15+,17+,18+,19-,20-/m1/s1
Instrument: Agilent 6410 Triple Quadrupole LC/MS system
Instrument type: LC-ESI-QQQ
Ms type: MS2
Ion mode: POSITIVE
Precursor type: [M+H]+
m/z	relative intensity
56.2	1
56.3	2
56.4	6
56.5	10
56.6	14
56.7	16
56.8	18
56.9	22
57.0	27
57.1	29
57.2	26
57.3	18
57.4	8
57.5	1
58.6	2
58.7	4
58.8	6
58.9	7
59.0	6
59.1	4
59.2	2
68.5	2
68.6	3
68.7	5
68.8	6
68.9	6
69.0	5
69.1	5
69.2	5
69.3	4
69.4	2
70.6	2
70.7	3
70.8	5
70.9	7
71.0	9
71.1	9
71.2	7
71.3	4
71.4	2
82.4	1
82.5	3
82.6	5
82.7	7
82.8	10
82.9	11
83.0	9
83.1	6
83.2	3
94.4	1
94.5	2
94.6	5
94.7	8
94.8	12
94.9	14
95.0	13
95.1	10
95.2	7
95.3	4
106.6	2
106.7	4
106.8	5
106.9	7
107.0	8
107.1	6
107.2	3
108.9	3
109.0	5
109.1	7
109.2	8
109.3	5
109.4	2
110.5	2
110.6	4
110.7	5
110.8	6
110.9	6
111.0	5
111.1	5
111.2	4
112.3	1
112.4	2
112.5	4
112.6	8
112.7	12
112.8	16
112.9	19
113.0	19
113.1	16
113.2	12
113.3	8
113.4	4
113.5	1
132.5	2
132.6	3
132.7	5
132.8	6
132.9	7
133.0	7
133.1	6
133.2	4
134.5	1
134.6	2
134.7	4
134.8	5
134.9	4
135.0	3
135.1	2
135.2	1
135.3	1
135.4	0
135.5	0
135.6	0
135.7	0
135.8	0
135.9	0
136.0	0
136.1	0
136.2	0
136.3	0
136.4	0
136.5	1
136.6	2
136.7	2
136.8	2
136.9	2
137.0	2
137.1	2
137.2	1
137.3	0
137.4	0
137.5	0
137.6	0
137.7	0
137.8	0
137.9	0
138.0	0
138.1	0
138.2	0
138.3	0
138.4	0
138.5	0
138.6	0
138.7	0
138.8	0
138.9	0
139.0	1
139.1	1
139.2	1
139.3	0
139.4	0
139.5	0
139.6	0
139.7	0
139.8	0
139.9	0
140.0	0
140.1	0
140.2	0
140.3	1
140.4	1
140.5	2
140.6	2
140.7	2
140.8	2
140.9	3
141.0	3
141.1	2
141.2	1
141.3	0
141.4	0
141.5	1
141.6	1
141.7	1
141.8	1
141.9	1
142.0	1
142.1	1
142.2	1
142.3	0
142.4	0
142.5	0
142.6	1
142.7	2
142.8	5
142.9	8
143.0	11
143.1	11
143.2	9
143.3	6
143.4	4
143.5	2
144.1	0
144.2	2
144.3	5
144.4	10
144.5	13
144.6	16
144.7	21
144.8	29
144.9	38
145.0	43
145.1	42
145.2	36
145.3	27
145.4	15
145.5	6
145.6	0
146.5	2
146.6	4
146.7	6
146.8	7
146.9	7
147.0	7
147.1	7
147.2	6
147.3	4
147.4	2
154.5	2
154.6	3
154.7	5
154.8	5
154.9	5
155.0	4
155.1	3
156.5	2
156.6	4
156.7	8
156.8	12
156.9	15
157.0	16
157.1	17
157.2	19
157.3	18
157.4	11
157.5	4
158.4	1
158.5	2
158.6	5
158.7	10
158.8	15
158.9	20
159.0	23
159.1	25
159.2	23
159.3	17
159.4	9
159.5	3
162.5	1
162.6	4
162.7	9
162.8	15
162.9	18
163.0	16
163.1	11
163.2	7
163.3	4
163.4	3
168.7	4
168.8	6
168.9	8
169.0	10
169.1	11
169.2	9
169.3	6
169.4	3
170.4	3
170.5	4
170.6	6
170.7	10
170.8	15
170.9	17
171.0	16
171.1	12
171.2	10
171.3	8
171.4	7
171.5	4
171.6	2
172.5	3
172.6	4
172.7	7
172.8	16
172.9	28
173.0	39
173.1	41
173.2	33
173.3	19
173.4	7
173.5	1
174.3	1
174.4	2
174.5	5
174.6	8
174.7	10
174.8	13
174.9	15
175.0	19
175.1	22
175.2	21
175.3	15
175.4	6
175.5	1
176.3	1
176.4	3
176.5	6
176.6	10
176.7	15
176.8	19
176.9	22
177.0	22
177.1	19
177.2	17
177.3	15
177.4	11
177.5	7
177.6	2
178.5	2
178.6	4
178.7	8
178.8	11
178.9	12
179.0	10
179.1	6
179.2	3
182.4	1
182.5	2
182.6	4
182.7	7
182.8	8
182.9	9
183.0	9
183.1	7
183.2	6
183.3	3
184.4	1
184.5	4
184.6	10
184.7	18
184.8	29
184.9	39
185.0	47
185.1	48
185.2	41
185.3	28
185.4	14
185.5	4
185.9	1
186.0	3
186.1	4
186.2	6
186.3	7
186.4	9
186.5	11
186.6	12
186.7	12
186.8	13
186.9	17
187.0	23
187.1	29
187.2	30
187.3	25
187.4	15
187.5	5
187.6	1
188.4	3
188.5	5
188.6	8
188.7	10
188.8	12
188.9	15
189.0	17
189.1	18
189.2	15
189.3	9
189.4	3
190.6	3
190.7	5
190.8	10
190.9	17
191.0	24
191.1	27
191.2	23
191.3	14
191.4	6
191.5	1
192.8	2
192.9	4
193.0	6
193.1	8
193.2	9
193.3	6
193.4	3
194.5	2
194.6	5
194.7	8
194.8	12
194.9	12
195.0	11
195.1	10
195.2	8
195.3	6
195.4	3
196.5	1
196.6	3
196.7	8
196.8	17
196.9	26
197.0	31
197.1	29
197.2	23
197.3	16
197.4	10
197.5	4
198.4	1
198.5	3
198.6	6
198.7	9
198.8	14
198.9	19
199.0	22
199.1	25
199.2	25
199.3	20
199.4	11
199.5	3
200.1	1
200.2	2
200.3	4
200.4	5
200.5	6
200.6	8
200.7	15
200.8	25
200.9	36
201.0	43
201.1	46
201.2	44
201.3	35
201.4	21
201.5	8
201.6	1
202.5	2
202.6	4
202.7	6
202.8	10
202.9	17
203.0	24
203.1	27
203.2	22
203.3	13
203.4	5
203.5	2
204.6	2
204.7	4
204.8	7
204.9	13
205.0	19
205.1	19
205.2	14
205.3	7
205.4	3
206.2	3
206.3	5
206.4	7
206.5	8
206.6	9
206.7	12
206.8	17
206.9	21
207.0	21
207.1	18
207.2	13
207.3	7
207.4	3
208.5	2
208.6	4
208.7	7
208.8	9
208.9	9
209.0	7
209.1	5
209.2	3
210.5	3
210.6	5
210.7	9
210.8	13
210.9	17
211.0	20
211.1	18
211.2	13
211.3	7
211.4	3
212.2	2
212.3	4
212.4	6
212.5	8
212.6	13
212.7	19
212.8	27
212.9	39
213.0	53
213.1	66
213.2	70
213.3	61
213.4	39
213.5	15
213.6	1
213.8	0
213.9	3
214.0	5
214.1	6
214.2	5
214.3	3
214.4	2
214.5	2
214.6	5
214.7	12
214.8	22
214.9	32
215.0	36
215.1	33
215.2	27
215.3	19
215.4	12
215.5	5
215.6	0
216.3	2
216.4	4
216.5	6
216.6	9
216.7	13
216.8	17
216.9	20
217.0	22
217.1	23
217.2	21
217.3	17
217.4	10
217.5	4
218.3	1
218.4	3
218.5	5
218.6	9
218.7	15
218.8	21
218.9	25
219.0	26
219.1	27
219.2	25
219.3	19
219.4	10
219.5	2
220.3	1
220.4	2
220.5	4
220.6	7
220.7	11
220.8	15
220.9	18
221.0	17
221.1	13
221.2	9
221.3	7
221.4	5
222.4	1
222.5	3
222.6	7
222.7	10
222.8	12
222.9	15
223.0	18
223.1	18
223.2	15
223.3	9
223.4	4
224.3	0
224.4	1
224.5	5
224.6	11
224.7	19
224.8	28
224.9	37
225.0	44
225.1	46
225.2	43
225.3	33
225.4	20
225.5	7
225.6	0
226.3	2
226.4	3
226.5	5
226.6	10
226.7	16
226.8	23
226.9	28
227.0	29
227.1	28
227.2	24
227.3	19
227.4	12
227.5	5
227.6	1
228.1	1
228.2	3
228.3	5
228.4	6
228.5	9
228.6	16
228.7	28
228.8	41
228.9	52
229.0	59
229.1	64
229.2	62
229.3	47
229.4	25
229.5	6
229.6	0
230.3	1
230.4	3
230.5	7
230.6	14
230.7	24
230.8	34
230.9	42
231.0	48
231.1	48
231.2	38
231.3	22
231.4	7
231.5	1
232.5	2
232.6	4
232.7	5
232.8	5
232.9	6
233.0	8
233.1	9
233.2	7
233.3	4
234.3	1
234.4	3
234.5	7
234.6	9
234.7	9
234.8	9
234.9	11
235.0	16
235.1	19
235.2	17
235.3	9
235.4	2
236.6	2
236.7	3
236.8	6
236.9	8
237.0	9
237.1	9
237.2	9
237.3	8
237.4	7
237.5	4
238.7	4
238.8	6
238.9	10
239.0	13
239.1	13
239.2	10
239.3	6
239.4	2
240.2	0
240.3	3
240.4	8
240.5	13
240.6	17
240.7	20
240.8	25
240.9	36
241.0	49
241.1	58
241.2	54
241.3	38
241.4	18
241.5	5
242.4	4
242.5	6
242.6	8
242.7	13
242.8	22
242.9	34
243.0	44
243.1	46
243.2	36
243.3	20
243.4	7
243.5	1
244.3	2
244.4	4
244.5	6
244.6	9
244.7	14
244.8	21
244.9	31
245.0	40
245.1	42
245.2	36
245.3	23
245.4	9
245.5	1
246.4	2
246.5	3
246.6	6
246.7	10
246.8	14
246.9	17
247.0	19
247.1	21
247.2	20
247.3	15
247.4	8
247.5	1
248.8	1
248.9	3
249.0	5
249.1	6
249.2	6
249.3	5
249.4	2
250.4	2
250.5	3
250.6	6
250.7	9
250.8	12
250.9	14
251.0	17
251.1	21
251.2	23
251.3	19
251.4	11
251.5	3
252.5	0
252.6	1
252.7	8
252.8	19
252.9	33
253.0	44
253.1	49
253.2	44
253.3	32
253.4	19
253.5	9
253.6	3
254.5	2
254.6	4
254.7	9
254.8	17
254.9	23
255.0	26
255.1	22
255.2	15
255.3	7
255.4	2
256.2	1
256.3	3
256.4	4
256.5	8
256.6	14
256.7	23
256.8	36
256.9	48
257.0	58
257.1	60
257.2	56
257.3	48
257.4	36
257.5	21
257.6	7
257.7	0
258.3	1
258.4	3
258.5	6
258.6	11
258.7	17
258.8	24
258.9	33
259.0	44
259.1	56
259.2	59
259.3	48
259.4	27
259.5	8
259.6	0
260.5	1
260.6	3
260.7	5
260.8	7
260.9	8
261.0	9
261.1	10
261.2	11
261.3	9
261.4	5
261.5	1
262.6	1
262.7	3
262.8	5
262.9	9
263.0	12
263.1	12
263.2	9
263.3	4
268.2	2
268.3	4
268.4	7
268.5	10
268.6	16
268.7	22
268.8	26
268.9	31
269.0	37
269.1	43
269.2	43
269.3	36
269.4	24
269.5	12
269.6	3
270.5	3
270.6	4
270.7	9
270.8	16
270.9	25
271.0	33
271.1	37
271.2	35
271.3	28
271.4	17
271.5	7
271.6	0
272.4	1
272.5	3
272.6	7
272.7	15
272.8	23
272.9	29
273.0	31
273.1	29
273.2	24
273.3	16
273.4	7
273.5	2
274.1	1
274.2	2
274.3	4
274.4	5
274.5	6
274.6	8
274.7	15
274.8	26
274.9	36
275.0	42
275.1	42
275.2	38
275.3	27
275.4	13
275.5	2
276.6	2
276.7	4
276.8	7
276.9	9
277.0	10
277.1	9
277.2	6
277.3	4
278.3	1
278.4	3
278.5	4
278.6	5
278.7	8
278.8	13
278.9	19
279.0	24
279.1	24
279.2	19
279.3	12
279.4	6
280.3	1
280.4	3
280.5	5
280.6	6
280.7	7
280.8	10
280.9	12
281.0	16
281.1	20
281.2	22
281.3	19
281.4	13
281.5	5
282.6	2
282.7	5
282.8	8
282.9	11
283.0	12
283.1	12
283.2	10
283.3	8
283.4	5
283.5	2
284.5	1
284.6	3
284.7	5
284.8	9
284.9	12
285.0	12
285.1	9
285.2	5
285.3	1
286.4	1
286.5	4
286.6	8
286.7	14
286.8	23
286.9	32
287.0	39
287.1	42
287.2	39
287.3	31
287.4	19
287.5	8
287.6	2
288.4	1
288.5	2
288.6	5
288.7	9
288.8	13
288.9	16
289.0	18
289.1	19
289.2	18
289.3	15
289.4	10
289.5	5
289.6	1
290.6	1
290.7	2
290.8	4
290.9	5
291.0	5
291.1	3
296.3	1
296.4	2
296.5	5
296.6	10
296.7	18
296.8	27
296.9	35
297.0	41
297.1	43
297.2	40
297.3	30
297.4	18
297.5	8
297.6	1
298.4	2
298.5	3
298.6	5
298.7	8
298.8	10
298.9	13
299.0	15
299.1	18
299.2	17
299.3	13
299.4	6
299.5	1
300.4	2
300.5	4
300.6	6
300.7	8
300.8	11
300.9	13
301.0	15
301.1	18
301.2	18
301.3	14
301.4	8
301.5	3
302.8	2
302.9	3
303.0	5
303.1	5
303.2	4
303.3	3
304.1	1
304.2	3
304.3	4
304.4	6
304.5	10
304.6	22
304.7	42
304.8	67
304.9	88
305.0	99
305.1	99
305.2	89
305.3	67
305.4	39
305.5	13
305.6	1
306.6	3
306.7	4
306.8	5
306.9	7
307.0	9
307.1	9
307.2	8
307.3	5
307.4	2
314.3	2
314.4	3
314.5	4
314.6	5
314.7	8
314.8	15
314.9	25
315.0	36
315.1	44
315.2	44
315.3	35
315.4	20
315.5	6
315.6	0
318.6	2
318.7	4
318.8	6
318.9	7
319.0	8
319.1	8
319.2	6
319.3	3
324.5	3
324.6	5
324.7	7
324.8	10
324.9	13
325.0	16
325.1	17
325.2	16
325.3	14
325.4	9
325.5	3
326.8	4
326.9	6
327.0	8
327.1	9
327.2	7
327.3	4
327.4	1
332.7	3
332.8	4
332.9	6
333.0	9
333.1	11
333.2	12
333.3	10
333.4	6
333.5	2
336.7	1
336.8	4
336.9	6
337.0	7
337.1	6
337.2	4
342.4	2
342.5	4
342.6	7
342.7	14
342.8	21
342.9	28
343.0	32
343.1	33
343.2	32
343.3	25
343.4	13
343.5	3
360.3	2
360.4	4
360.5	8
360.6	15
360.7	29
360.8	46
360.9	59
361.0	64
361.1	64
361.2	61
361.3	50
361.4	31
361.5	11
361.6	0
388.6	1
388.7	3
388.8	5
388.9	8
389.0	9
389.1	8
389.2	7
389.3	6
389.4	4
