Mass spectrum: (+)-beta-Hydrastine; LC-ESI-QQQ; MS2; Frag=135.0V CID@5.0; [M+H]+
Name: (+)-beta-Hydrastine
Class: Alkaloids
Formula: C21H21NO6
Exact mass: 383.4046
SMILES: COc1ccc2c(c1OC)C(=O)O[C@H]2[C@@H]1c2cc3c(cc2CCN1C)OCO3
InChI: InChI=1S/C21H21NO6/c1-22-7-6-11-8-15-16(27-10-26-15)9-13(11)18(22)19-12-4-5-14(24-2)20(25-3)17(12)21(23)28-19/h4-5,8-9,18-19H,6-7,10H2,1-3H3/t18-,19+/m0/s1
Instrument: Agilent 6410 Triple Quadrupole LC/MS system
Instrument type: LC-ESI-QQQ
Ms type: MS2
Ion mode: POSITIVE
Precursor type: [M+H]+
m/z	relative intensity
383.3	0
383.4	2
383.5	6
383.6	10
383.7	18
383.8	32
383.9	52
384.0	74
384.1	91
384.2	99
384.3	95
384.4	76
384.5	48
384.6	19
384.7	1
