Mass spectrum: Trachelanthamine; LC-ESI-QQQ; MS2; Frag=135.0V CID@10.0; [M+H]+
Name: Trachelanthamine
Class: Alkaloids
Formula: C15H27NO4
Exact mass: 285.3867
SMILES: CC(C)C(O)(C(=O)OC[C@@H]1CCN2CCC[C@@H]12)C(C)O
InChI: InChI=1S/C15H27NO4/c1-10(2)15(19,11(3)17)14(18)20-9-12-6-8-16-7-4-5-13(12)16/h10-13,17,19H,4-9H2,1-3H3/t11?,12-,13-,15?/m0/s1
Instrument: Agilent 6410 Triple Quadrupole LC/MS system
Instrument type: LC-ESI-QQQ
Ms type: MS2
Ion mode: POSITIVE
Precursor type: [M+H]+
m/z	relative intensity
285.3	4
285.4	7
285.5	13
285.6	23
285.7	41
285.8	66
285.9	89
286.0	99
286.1	98
286.2	94
286.3	92
286.4	80
286.5	54
286.6	23
286.7	3
