Mass spectrum: Crustecdysone; LC-ESI-QQQ; MS2; Frag=135.0V CID@15.0; [M+H]+
Name: Crustecdysone
Class: Steroids
Formula: C27H44O7
Exact mass: 480.6475
SMILES: CC(C)(O)CC[C@@H](O)[C@](C)(O)[C@H]1CC[C@@]2(O)C3=CC(=O)[C@@H]4C[C@@H](O)[C@@H](O)C[C@]4(C)[C@H]3CC[C@]12C
InChI: InChI=1S/C27H44O7/c1-23(2,32)9-8-22(31)26(5,33)21-7-11-27(34)16-12-18(28)17-13-19(29)20(30)14-24(17,3)15(16)6-10-25(21,27)4/h12,15,17,19-22,29-34H,6-11,13-14H2,1-5H3/t15-,17-,19+,20-,21-,22+,24+,25+,26+,27+/m0/s1
Instrument: Agilent 6410 Triple Quadrupole LC/MS system
Instrument type: LC-ESI-QQQ
Ms type: MS2
Ion mode: POSITIVE
Precursor type: [M+H]+
m/z	relative intensity
164.4	1
164.5	3
164.6	4
164.7	6
164.8	10
164.9	15
165.0	21
165.1	25
165.2	26
165.3	23
165.4	18
165.5	12
165.6	5
165.7	0
300.8	1
300.9	3
301.0	4
301.1	5
301.2	4
301.3	3
301.4	2
301.5	2
301.6	1
301.7	0
301.8	0
301.9	0
302.0	0
302.1	0
302.2	0
302.3	0
302.4	0
302.5	1
302.6	1
302.7	2
302.8	3
302.9	5
303.0	7
303.1	9
303.2	9
303.3	8
303.4	6
303.5	4
303.6	1
346.9	1
347.0	3
347.1	4
347.2	5
347.3	5
347.4	3
370.4	1
370.5	2
370.6	5
370.7	10
370.8	18
370.9	31
371.0	44
371.1	55
371.2	63
371.3	66
371.4	63
371.5	48
371.6	26
371.7	7
371.8	0
409.0	3
409.1	4
409.2	6
409.3	7
409.4	6
409.5	4
409.6	2
426.6	3
426.7	4
426.8	6
426.9	12
427.0	20
427.1	26
427.2	27
427.3	24
427.4	20
427.5	14
427.6	8
427.7	2
444.4	1
444.5	3
444.6	6
444.7	10
444.8	16
444.9	27
445.0	45
445.1	68
445.2	89
445.3	99
445.4	96
445.5	79
445.6	52
445.7	23
445.8	3
462.7	2
462.8	3
462.9	5
463.0	8
463.1	9
463.2	10
463.3	10
463.4	10
463.5	9
463.6	7
463.7	3
