Mass spectrum: Ecdysterone 22-O-benzoate; LC-ESI-QQQ; MS2; Frag=135.0V CID@15.0; [M+HCOO]-
Name: Ecdysterone 22-O-benzoate
Class: Steroids
Formula: C34H48O8
Exact mass: 584.7569
SMILES: CC(C)(O)CC[C@H](OC(=O)c1ccccc1)[C@](C)(O)C1CC[C@@]2(O)C3=CC(=O)C4CC(O)C(O)C[C@]4(C)C3CC[C@]12C
InChI: InChI=1S/C34H48O8/c1-30(2,39)14-13-28(42-29(38)20-9-7-6-8-10-20)33(5,40)27-12-16-34(41)22-17-24(35)23-18-25(36)26(37)19-31(23,3)21(22)11-15-32(27,34)4/h6-10,17,21,23,25-28,36-37,39-41H,11-16,18-19H2,1-5H3/t21?,23?,25?,26?,27?,28-,31+,32+,33+,34+/m0/s1
Instrument: Agilent 6410 Triple Quadrupole LC/MS system
Instrument type: LC-ESI-QQQ
Ms type: MS2
Ion mode: NEGATIVE
Precursor type: [M+HCOO]-
m/z	relative intensity
120.3	0
120.4	3
120.5	17
120.6	38
120.7	56
120.8	66
120.9	74
121.0	86
121.1	99
121.2	95
121.3	67
121.4	29
121.5	2
460.7	1
460.8	2
460.9	4
461.0	6
461.1	6
461.2	4
461.3	1
582.5	0
582.6	1
582.7	4
582.8	9
582.9	14
583.0	16
583.1	14
583.2	10
583.3	6
583.4	3
628.3	1
628.4	2
628.5	4
628.6	7
628.7	12
628.8	23
628.9	42
629.0	63
629.1	74
629.2	74
629.3	68
629.4	63
629.5	50
629.6	28
629.7	6
629.8	0
