Mass spectrum: Oxiglutathione; LC-ESI-QQQ; MS2; Frag=135.0V CID@15.0; [M+H]+
Name: GSSG
Name: Glutathiol
Name: Glutathione (oxidized form)
Name: Oxigluthione
Name: Oxidized glutathione
Name: (gamma-Glu-Cys-Gly) (gamma-Glu-Cys-Gly)(Disulfide bridge: 2a-2b)
Name: Oxiglutathione
Class: Aminoacids and peptides
Formula: C20H32N6O12S2
Exact mass: 612.639
SMILES: NC(CCC(O)=NC(CSSCC(N=C(O)CCC(N)C(=O)O)C(O)=NCC(=O)O)C(O)=NCC(=O)O)C(=O)O
InChI: InChI=1S/C20H32N6O12S2/c21-9(19(35)36)1-3-13(27)25-11(17(33)23-5-15(29)30)7-39-40-8-12(18(34)24-6-16(31)32)26-14(28)4-2-10(22)20(37)38/h9-12H,1-8,21-22H2,(H,23,33)(H,24,34)(H,25,27)(H,26,28)(H,29,30)(H,31,32)(H,35,36)(H,37,38)
Instrument: Agilent 6410 Triple Quadrupole LC/MS system
Instrument type: LC-ESI-QQQ
Ms type: MS2
Ion mode: POSITIVE
Precursor type: [M+H]+
m/z	relative intensity
230.4	1
230.5	3
230.6	5
230.7	8
230.8	9
230.9	10
231.0	9
231.1	6
231.2	4
354.3	2
354.4	4
354.5	10
354.6	24
354.7	49
354.8	77
354.9	95
355.0	99
355.1	93
355.2	77
355.3	52
355.4	23
355.5	3
465.8	1
465.9	3
466.0	5
466.1	5
466.2	3
483.2	1
483.3	4
483.4	8
483.5	12
483.6	18
483.7	28
483.8	44
483.9	61
484.0	71
484.1	71
484.2	63
484.3	49
484.4	30
484.5	12
484.6	0
537.5	1
537.6	3
537.7	7
537.8	12
537.9	13
538.0	10
538.1	5
538.2	1
594.4	2
594.5	4
594.6	6
594.7	8
594.8	6
612.2	1
612.3	3
612.4	6
612.5	11
612.6	18
612.7	28
612.8	41
612.9	54
613.0	62
613.1	63
613.2	58
613.3	46
613.4	30
613.5	13
613.6	3
