Mass spectrum: 20-Hydroxyecdysone 2,3:20,22-diacetonide; LC-ESI-QQQ; MS2; Frag=135.0V CID@10.0; [M+HOO]-
Name: 20-Hydroxyecdysone 2,3:20,22-diacetonide
Class: Steroids
Formula: C33H52O7
Exact mass: 560.7782
SMILES: CC(C)(O)CC[C@H]1OC(C)(C)O[C@]1(C)[C@H]1CC[C@@]2(O)C3=CC(=O)[C@@H]4C[C@H]5OC(C)(C)O[C@H]5C[C@]4(C)[C@H]3CC[C@]12C
InChI: InChI=1S/C33H52O7/c1-27(2,35)13-12-26-32(9,40-29(5,6)39-26)25-11-15-33(36)20-16-22(34)21-17-23-24(38-28(3,4)37-23)18-30(21,7)19(20)10-14-31(25,33)8/h16,19,21,23-26,35-36H,10-15,17-18H2,1-9H3/t19-,21-,23+,24-,25-,26+,30+,31+,32+,33+/m0/s1
Instrument: Agilent 6410 Triple Quadrupole LC/MS system
Instrument type: LC-ESI-QQQ
Ms type: MS2
Ion mode: NEGATIVE
Precursor type: [M+HOO]-
m/z	relative intensity
604.2	0
604.3	1
604.4	5
604.5	9
604.6	13
604.7	21
604.8	35
604.9	55
605.0	73
605.1	84
605.2	88
605.3	91
605.4	98
605.5	99
605.6	82
605.7	47
605.8	13
605.9	0
