Mass spectrum: Kokanidin; LC-ESI-QQQ; MS; [M+H]+
Name: Kokanidin
Class: Benzopyranoids
Formula: C26H34O6
Exact mass: 442.5573
SMILES: CC(=O)OC1CC[C@]2(C)C(CC[C@@](C)(O)[C@H]2COc2ccc3ccc(=O)oc3c2)C1(C)C
InChI: InChI=1S/C26H34O6/c1-16(27)31-22-11-12-25(4)20(24(22,2)3)10-13-26(5,29)21(25)15-30-18-8-6-17-7-9-23(28)32-19(17)14-18/h6-9,14,20-22,29H,10-13,15H2,1-5H3/t20?,21-,22?,25+,26+/m0/s1
Instrument: ABSciex API3200 LC/MS system
Instrument type: LC-ESI-QQQ
Ms type: MS
Ion mode: POSITIVE
Precursor type: [M+H]+
m/z	relative intensity
117.1000	22
162.4000	39
162.5000	78
162.6000	102
162.7000	99
162.8000	105
162.9000	101
163.0000	116
163.1000	97
163.2000	86
163.3000	82
163.4000	61
164.0000	25
202.5000	33
202.6000	65
202.7000	58
202.8000	87
202.9000	92
203.0000	89
203.1000	103
203.2000	66
203.3000	92
203.4000	72
203.5000	73
203.6000	25
203.7000	22
204.1000	25
213.3000	28
223.0000	21
364.5000	62
364.6000	78
364.7000	139
364.8000	140
364.9000	148
365.0000	162
365.1000	225
365.2000	98
365.3000	132
365.4000	114
365.5000	55
365.6000	36
365.7000	45
365.8000	49
365.9000	34
366.0000	48
366.1000	27
366.2000	45
366.3000	34
366.4000	36
382.4000	55
382.5000	267
382.6000	593
382.7000	778
382.8000	917
382.9000	891
383.0000	905
383.1000	999
383.2000	985
383.3000	735
383.4000	697
383.5000	497
383.6000	287
383.7000	273
383.8000	293
383.9000	274
384.0000	253
384.1000	253
384.2000	249
384.3000	260
384.4000	248
384.5000	147
384.6000	57
384.7000	40
384.8000	36
384.9000	171
385.0000	51
385.1000	44
385.2000	38
385.3000	55
385.4000	38
424.4000	24
424.5000	57
424.6000	176
424.7000	307
424.8000	258
424.9000	349
425.0000	332
425.1000	309
425.2000	294
425.3000	243
425.4000	220
425.5000	123
425.6000	100
425.7000	148
425.8000	98
425.9000	76
426.0000	102
426.1000	72
426.2000	72
426.3000	72
426.4000	81
426.5000	43
426.6000	30
427.1000	24
442.4000	82
442.5000	302
442.6000	496
442.7000	631
442.8000	661
442.9000	676
443.0000	701
443.1000	638
443.2000	724
443.3000	630
443.4000	596
443.5000	326
443.6000	312
443.7000	239
443.8000	199
443.9000	252
444.0000	247
444.1000	241
444.2000	194
444.3000	210
444.4000	208
444.5000	59
444.6000	71
444.7000	51
444.8000	53
444.9000	76
445.0000	34
445.1000	57
445.2000	40
445.3000	36
445.4000	38
459.5000	51
459.6000	126
459.7000	146
459.8000	222
459.9000	169
460.0000	158
460.1000	224
460.2000	224
460.3000	156
460.4000	162
460.5000	77
460.6000	56
460.7000	61
460.8000	65
460.9000	64
461.0000	67
461.1000	67
461.2000	41
461.3000	57
461.4000	34
461.5000	29
461.7000	26
461.9000	24
866.5000	26
866.6000	30
866.7000	60
866.8000	51
866.9000	66
867.0000	58
867.1000	41
867.2000	77
867.3000	62
867.4000	34
867.5000	22
867.7000	24
867.9000	28
868.0000	22
868.1000	36
868.2000	28
868.3000	26
884.5000	51
884.6000	136
884.7000	254
884.8000	328
884.9000	345
885.0000	394
885.1000	370
885.2000	385
885.3000	290
885.4000	244
885.5000	216
885.6000	106
885.7000	189
885.8000	161
885.9000	184
886.0000	187
886.1000	203
886.2000	229
886.3000	176
886.4000	148
886.5000	129
886.6000	51
886.7000	64
886.8000	39
886.9000	51
887.0000	66
887.1000	70
887.2000	62
887.3000	43
887.4000	231
887.5000	256
887.6000	34
901.6000	34
901.7000	53
901.8000	53
901.9000	68
902.0000	47
902.1000	62
902.2000	68
902.3000	43
902.4000	43
902.5000	32
902.6000	28
902.8000	24
902.9000	32
903.0000	26
903.1000	30
903.2000	34
903.3000	28
903.4000	22
1327.3000	41
1327.4000	32
1327.5000	26
1328.3000	26
