Mass spectrum: Dubinine; LC-ESI-QQQ; MS2; Frag=135.0V CID@10.0; [M+H]+
Name: Dubinine
Class: Alkaloids
Formula: C17H19NO5
Exact mass: 317.3447
SMILES: COc1c2c(nc3ccccc13)OC([C@@](C)(O)COC(C)=O)C2
InChI: InChI=1S/C17H19NO5/c1-10(19)22-9-17(2,20)14-8-12-15(21-3)11-6-4-5-7-13(11)18-16(12)23-14/h4-7,14,20H,8-9H2,1-3H3/t14?,17-/m0/s1
Instrument: Agilent 6410 Triple Quadrupole LC/MS system
Instrument type: LC-ESI-QQQ
Ms type: MS2
Ion mode: POSITIVE
Precursor type: [M+H]+
m/z	relative intensity
187.6	1
187.7	3
187.8	5
187.9	7
188.0	9
188.1	10
188.2	10
188.3	8
188.4	5
188.5	2
215.5	1
215.6	2
215.7	4
215.8	7
215.9	11
216.0	15
216.1	17
216.2	18
216.3	16
216.4	12
216.5	7
216.6	2
229.8	2
229.9	3
230.0	4
230.1	5
230.2	5
230.3	4
230.4	3
257.4	1
257.5	3
257.6	6
257.7	12
257.8	21
257.9	31
258.0	41
258.1	48
258.2	49
258.3	46
258.4	36
258.5	22
258.6	9
258.7	0
317.3	0
317.4	1
317.5	4
317.6	9
317.7	18
317.8	33
317.9	54
318.0	76
318.1	93
318.2	99
318.3	94
318.4	77
318.5	49
318.6	20
318.7	2
