Mass spectrum: Adenosine; LC-ESI-QQQ; MS2; Frag=135.0V CID@10.0; [M+H]+
Name: Ado
Name: Ade-Rib
Name: 9-beta-D-Ribofuranosyladenine
Name: Adenine riboside
Name: Adenyldeoxyriboside
Name: Sandesin
Name: Boniton
Name: Myocol
Name: Nucleocardyl
Name: Adenocard
Name: Adenosine
Class: Carbohydrates
Formula: C10H13N5O4
Exact mass: 267.2462
SMILES: Nc1ncnc2c1ncn2[C@@H]1O[C@H](CO)[C@@H](O)[C@H]1O
InChI: InChI=1S/C10H13N5O4/c11-8-5-9(13-2-12-8)15(3-14-5)10-7(18)6(17)4(1-16)19-10/h2-4,6-7,10,16-18H,1H2,(H2,11,12,13)/t4-,6-,7-,10-/m1/s1
Instrument: Agilent 6410 Triple Quadrupole LC/MS system
Instrument type: LC-ESI-QQQ
Ms type: MS2
Ion mode: POSITIVE
Precursor type: [M+H]+
m/z	relative intensity
135.2	0
135.3	1
135.4	4
135.5	9
135.6	18
135.7	32
135.8	53
135.9	75
136.0	92
136.1	99
136.2	96
136.3	84
136.4	63
136.5	36
136.6	12
136.7	0
267.6	1
267.7	2
267.8	5
267.9	7
268.0	9
268.1	11
268.2	11
268.3	10
268.4	7
268.5	4
268.6	1
