Mass spectrum: Feselol; LC-ESI-QQQ; MS2; Frag=135.0V CID@15.0; [M+H]+
Name: Feselol
Class: Benzopyranoids
Formula: C24H30O4
Exact mass: 382.5043
SMILES: CC1=CC[C@@H]2C(C)(C)[C@H](O)CC[C@@]2(C)[C@@H]1COc1ccc2ccc(=O)oc2c1
InChI: InChI=1S/C24H30O4/c1-15-5-9-20-23(2,3)21(25)11-12-24(20,4)18(15)14-27-17-8-6-16-7-10-22(26)28-19(16)13-17/h5-8,10,13,18,20-21,25H,9,11-12,14H2,1-4H3/t18-,20-,21-,24+/m1/s1
Instrument: Agilent 6410 Triple Quadrupole LC/MS system
Instrument type: LC-ESI-QQQ
Ms type: MS2
Ion mode: POSITIVE
Precursor type: [M+H]+
m/z	relative intensity
94.5	1
94.6	2
94.7	5
94.8	8
94.9	11
95.0	14
95.1	16
95.2	16
95.3	15
95.4	12
95.5	7
95.6	2
106.5	2
106.6	4
106.7	6
106.8	11
106.9	15
107.0	19
107.1	20
107.2	19
107.3	15
107.4	10
107.5	5
107.6	1
108.5	2
108.6	3
108.7	5
108.8	8
108.9	12
109.0	15
109.1	17
109.2	18
109.3	16
109.4	13
109.5	7
109.6	2
118.5	1
118.6	2
118.7	4
118.8	6
118.9	10
119.0	13
119.1	15
119.2	14
119.3	12
119.4	9
119.5	5
119.6	1
120.7	1
120.8	2
120.9	4
121.0	4
121.1	5
121.2	5
121.3	4
121.4	3
121.5	2
132.5	1
132.6	3
132.7	5
132.8	9
132.9	13
133.0	17
133.1	18
133.2	18
133.3	15
133.4	12
133.5	7
133.6	3
146.5	1
146.6	2
146.7	4
146.8	8
146.9	11
147.0	15
147.1	17
147.2	17
147.3	17
147.4	14
147.5	10
147.6	4
147.7	0
160.6	1
160.7	3
160.8	4
160.9	6
161.0	8
161.1	11
161.2	13
161.3	13
161.4	10
161.5	7
161.6	3
162.3	0
162.4	3
162.5	9
162.6	19
162.7	36
162.8	56
162.9	77
163.0	93
163.1	99
163.2	96
163.3	82
163.4	59
163.5	31
163.6	8
163.7	0
174.7	2
174.8	4
174.9	6
175.0	8
175.1	10
175.2	10
175.3	9
175.4	6
175.5	3
198.6	1
198.7	3
198.8	5
198.9	7
199.0	8
199.1	8
199.2	7
199.3	6
199.4	4
199.5	2
202.4	1
202.5	3
202.6	6
202.7	10
202.8	19
202.9	32
203.0	47
203.1	59
203.2	64
203.3	63
203.4	57
203.5	44
203.6	25
203.7	7
203.8	0
254.8	2
254.9	3
255.0	5
255.1	6
255.2	5
255.3	4
255.4	2
268.7	1
268.8	2
268.9	4
269.0	5
269.1	6
269.2	6
269.3	6
269.4	5
269.5	3
364.9	2
365.0	3
365.1	5
365.2	5
365.3	5
365.4	4
365.5	3
