Mass spectrum: Conferone; LC-ESI-QQQ; MS2; Frag=135.0V CID@15.0; [M+H]+
Name: Conferone
Class: Benzopyranoids
Formula: C24H28O4
Exact mass: 380.4884
SMILES: CC1=CC[C@@H]2C(C)(C)C(=O)CC[C@@]2(C)[C@@H]1COc1ccc2ccc(=O)oc2c1
InChI: InChI=1S/C24H28O4/c1-15-5-9-20-23(2,3)21(25)11-12-24(20,4)18(15)14-27-17-8-6-16-7-10-22(26)28-19(16)13-17/h5-8,10,13,18,20H,9,11-12,14H2,1-4H3/t18-,20-,24+/m1/s1
Instrument: Agilent 6410 Triple Quadrupole LC/MS system
Instrument type: LC-ESI-QQQ
Ms type: MS2
Ion mode: POSITIVE
Precursor type: [M+H]+
m/z	relative intensity
94.6	2
94.7	3
94.8	5
94.9	7
95.0	8
95.1	8
95.2	7
95.3	6
95.4	5
95.5	4
95.6	1
106.6	1
106.7	3
106.8	5
106.9	7
107.0	8
107.1	8
107.2	8
107.3	7
107.4	5
107.5	3
108.6	1
108.7	3
108.8	5
108.9	8
109.0	10
109.1	10
109.2	9
109.3	8
109.4	7
109.5	4
109.6	1
118.6	1
118.7	2
118.8	4
118.9	6
119.0	7
119.1	7
119.2	6
119.3	5
119.4	4
119.5	2
120.7	1
120.8	3
120.9	5
121.0	5
121.1	5
121.2	5
121.3	5
121.4	5
121.5	3
132.6	2
132.7	3
132.8	6
132.9	8
133.0	10
133.1	11
133.2	10
133.3	9
133.4	7
133.5	5
133.6	2
134.6	1
134.7	3
134.8	4
134.9	6
135.0	7
135.1	7
135.2	7
135.3	6
135.4	5
135.5	3
144.5	1
144.6	3
144.7	5
144.8	8
144.9	12
145.0	14
145.1	15
145.2	14
145.3	12
145.4	10
145.5	6
145.6	3
146.8	2
146.9	3
147.0	5
147.1	6
147.2	6
147.3	5
147.4	4
147.5	3
158.5	1
158.6	2
158.7	4
158.8	6
158.9	9
159.0	12
159.1	14
159.2	14
159.3	13
159.4	11
159.5	6
159.6	2
160.5	2
160.6	3
160.7	5
160.8	9
160.9	15
161.0	20
161.1	23
161.2	23
161.3	21
161.4	17
161.5	11
161.6	4
161.7	0
162.2	0
162.3	1
162.4	6
162.5	13
162.6	24
162.7	40
162.8	59
162.9	79
163.0	93
163.1	99
163.2	96
163.3	84
163.4	61
163.5	33
163.6	9
163.7	0
172.7	2
172.8	3
172.9	5
173.0	6
173.1	7
173.2	6
173.3	5
173.4	4
173.5	2
174.7	2
174.8	3
174.9	5
175.0	6
175.1	7
175.2	8
175.3	7
175.4	5
175.5	3
200.4	1
200.5	2
200.6	4
200.7	7
200.8	12
200.9	20
201.0	29
201.1	36
201.2	39
201.3	38
201.4	33
201.5	24
201.6	13
201.7	3
218.7	2
218.8	3
218.9	5
219.0	7
219.1	8
219.2	9
219.3	9
219.4	8
219.5	6
219.6	3
380.6	1
380.7	3
380.8	6
380.9	10
381.0	15
381.1	19
381.2	21
381.3	22
381.4	21
381.5	16
381.6	10
381.7	3
