Mass spectrum: Acetyldiphyllin; LC-ESI-QQQ; MS2; Frag=135.0V CID@15.0; [M+H]+
Name: Acetyldiphyllin
Class: Lignans
Formula: C23H18O8
Exact mass: 422.3951
SMILES: COc1cc2c(OC(C)=O)c3c(c(-c4ccc5c(c4)OCO5)c2cc1OC)C(=O)OC3
InChI: InChI=1S/C23H18O8/c1-11(24)31-22-14-8-18(27-3)17(26-2)7-13(14)20(21-15(22)9-28-23(21)25)12-4-5-16-19(6-12)30-10-29-16/h4-8H,9-10H2,1-3H3
Instrument: Agilent 6410 Triple Quadrupole LC/MS system
Instrument type: LC-ESI-QQQ
Ms type: MS2
Ion mode: POSITIVE
Precursor type: [M+H]+
m/z	relative intensity
362.5	1
362.6	2
362.7	4
362.8	8
362.9	11
363.0	14
363.1	16
363.2	16
363.3	13
363.4	9
363.5	4
363.6	0
380.2	0
380.3	1
380.4	5
380.5	9
380.6	16
380.7	28
380.8	46
380.9	69
381.0	88
381.1	99
381.2	98
381.3	84
381.4	59
381.5	31
381.6	8
381.7	0
422.6	1
422.7	2
422.8	4
422.9	7
423.0	9
423.1	10
423.2	10
423.3	8
423.4	6
423.5	3
