Mass spectrum: Lambertianic acid; LC-ESI-QQQ; MS2; Frag=135.0V CID@15.0; [M+H]+
Name: Lambertianic acid
Class: Polycyclic aromatic natural products
Formula: C20H28O3
Exact mass: 316.4444
SMILES: C=C1CCC2[C@@](C)(C(=O)O)CCC[C@]2(C)[C@H]1CCc1ccoc1
InChI: InChI=1S/C20H28O3/c1-14-5-8-17-19(2,10-4-11-20(17,3)18(21)22)16(14)7-6-15-9-12-23-13-15/h9,12-13,16-17H,1,4-8,10-11H2,2-3H3,(H,21,22)/t16-,17?,19+,20-/m0/s1
Instrument: Agilent 6410 Triple Quadrupole LC/MS system
Instrument type: LC-ESI-QQQ
Ms type: MS2
Ion mode: POSITIVE
Precursor type: [M+H]+
m/z	relative intensity
78.4	1
78.5	3
78.6	4
78.7	5
78.8	5
78.9	4
79.0	4
79.1	3
80.2	0
80.3	2
80.4	6
80.5	11
80.6	16
80.7	20
80.8	25
80.9	33
81.0	42
81.1	45
81.2	41
81.3	31
81.4	20
81.5	10
81.6	3
92.5	2
92.6	3
92.7	6
92.8	9
92.9	11
93.0	11
93.1	9
93.2	7
93.3	4
94.2	0
94.3	2
94.4	6
94.5	10
94.6	14
94.7	20
94.8	28
94.9	38
95.0	44
95.1	46
95.2	46
95.3	42
95.4	31
95.5	14
95.6	1
96.6	1
96.7	3
96.8	5
96.9	6
97.0	5
97.1	3
104.6	1
104.7	3
104.8	4
104.9	5
105.0	5
105.1	4
105.2	3
105.3	2
105.4	2
105.5	1
105.6	1
105.7	0
105.8	0
105.9	0
106.0	0
106.1	0
106.2	0
106.3	0
106.4	1
106.5	3
106.6	4
106.7	5
106.8	6
106.9	10
107.0	13
107.1	14
107.2	12
107.3	8
107.4	3
108.3	0
108.4	2
108.5	5
108.6	8
108.7	10
108.8	13
108.9	17
109.0	21
109.1	22
109.2	17
109.3	11
109.4	5
109.5	1
118.6	1
118.7	3
118.8	5
118.9	8
119.0	10
119.1	9
119.2	6
119.3	4
120.4	1
120.5	3
120.6	6
120.7	11
120.8	19
120.9	29
121.0	37
121.1	40
121.2	35
121.3	26
121.4	16
121.5	8
121.6	2
122.5	1
122.6	3
122.7	6
122.8	9
122.9	11
123.0	11
123.1	10
123.2	7
123.3	4
123.4	3
130.6	1
130.7	3
130.8	8
130.9	13
131.0	14
131.1	11
131.2	8
131.3	6
131.4	5
131.5	3
132.4	1
132.5	3
132.6	4
132.7	6
132.8	7
132.9	10
133.0	13
133.1	15
133.2	14
133.3	12
133.4	9
133.5	5
133.6	2
134.3	0
134.4	2
134.5	10
134.6	20
134.7	33
134.8	52
134.9	73
135.0	88
135.1	90
135.2	82
135.3	68
135.4	47
135.5	22
135.6	4
136.5	1
136.6	2
136.7	6
136.8	12
136.9	19
137.0	23
137.1	22
137.2	18
137.3	14
137.4	9
137.5	4
137.6	1
144.4	0
144.5	1
144.6	4
144.7	11
144.8	21
144.9	30
145.0	34
145.1	32
145.2	27
145.3	20
145.4	14
145.5	7
145.6	2
146.6	1
146.7	4
146.8	9
146.9	14
147.0	16
147.1	15
147.2	13
147.3	12
147.4	10
147.5	7
147.6	3
148.3	0
148.4	3
148.5	11
148.6	23
148.7	38
148.8	55
148.9	74
149.0	91
149.1	99
149.2	97
149.3	83
149.4	56
149.5	26
149.6	4
154.7	0
154.8	2
154.9	4
155.0	6
155.1	6
155.2	4
155.3	2
156.8	3
156.9	6
157.0	9
157.1	11
157.2	12
157.3	10
157.4	7
157.5	4
157.6	1
158.8	4
158.9	5
159.0	8
159.1	12
159.2	13
159.3	9
159.4	3
160.4	0
160.5	2
160.6	6
160.7	10
160.8	12
160.9	15
161.0	18
161.1	21
161.2	20
161.3	14
161.4	7
161.5	3
162.4	1
162.5	2
162.6	5
162.7	12
162.8	20
162.9	29
163.0	36
163.1	38
163.2	33
163.3	23
163.4	12
163.5	4
170.7	3
170.8	4
170.9	6
171.0	8
171.1	8
171.2	7
171.3	6
171.4	5
171.5	3
172.6	1
172.7	4
172.8	6
172.9	8
173.0	9
173.1	9
173.2	10
173.3	10
173.4	8
173.5	4
173.6	1
174.4	1
174.5	3
174.6	4
174.7	5
174.8	6
174.9	7
175.0	8
175.1	8
175.2	9
175.3	12
175.4	12
175.5	8
175.6	3
176.2	1
176.3	3
176.4	6
176.5	10
176.6	10
176.7	10
176.8	14
176.9	25
177.0	40
177.1	55
177.2	65
177.3	67
177.4	58
177.5	37
177.6	14
177.7	0
182.6	1
182.7	3
182.8	4
182.9	6
183.0	8
183.1	10
183.2	12
183.3	10
183.4	6
183.5	2
186.9	1
187.0	3
187.1	6
187.2	10
187.3	11
187.4	8
187.5	4
188.3	2
188.4	3
188.5	4
188.6	6
188.7	7
188.8	9
188.9	9
189.0	10
189.1	11
189.2	12
189.3	10
189.4	7
189.5	4
190.6	1
190.7	2
190.8	4
190.9	5
191.0	4
193.0	1
193.1	3
193.2	5
193.3	5
193.4	3
194.6	1
194.7	2
194.8	4
194.9	5
195.0	5
195.1	3
196.5	1
196.6	3
196.7	7
196.8	9
196.9	10
197.0	11
197.1	13
197.2	14
197.3	14
197.4	11
197.5	7
197.6	3
200.7	0
200.8	2
200.9	4
201.0	6
201.1	6
201.2	4
201.3	3
210.8	0
210.9	2
211.0	6
211.1	8
211.2	9
211.3	7
211.4	4
211.5	2
214.5	0
214.6	2
214.7	5
214.8	10
214.9	13
215.0	13
222.4	1
222.5	2
222.6	4
222.7	5
222.8	4
222.9	3
223.0	4
223.1	7
223.2	9
223.3	10
223.4	9
223.5	6
223.6	3
224.6	0
224.7	3
224.8	5
224.9	7
225.0	6
225.1	5
225.2	6
225.3	6
225.4	6
225.5	3
226.6	2
226.7	3
226.8	5
226.9	6
227.0	6
227.1	5
227.2	2
242.5	2
242.6	3
242.7	4
242.8	6
242.9	10
243.0	15
243.1	16
243.2	12
243.3	6
243.4	2
246.7	0
246.8	2
246.9	4
247.0	5
247.1	4
247.2	3
247.3	2
247.4	2
247.5	1
247.6	0
247.7	0
247.8	0
247.9	0
248.0	0
248.1	0
248.2	0
248.3	0
248.4	0
248.5	0
248.6	0
248.7	0
248.8	0
248.9	0
249.0	0
249.1	0
249.2	0
249.3	0
249.4	0
249.5	0
249.6	0
249.7	0
249.8	0
249.9	0
250.0	0
250.1	0
250.2	0
250.3	0
250.4	0
250.5	0
250.6	0
250.7	0
250.8	0
250.9	0
251.0	0
251.1	0
251.2	0
251.3	0
251.4	0
251.5	0
251.6	0
251.7	0
251.8	0
251.9	0
252.0	0
252.1	0
252.2	0
252.3	0
252.4	1
252.5	3
252.6	9
252.7	19
252.8	34
252.9	49
253.0	59
253.1	63
253.2	64
253.3	65
253.4	60
253.5	47
253.6	26
253.7	7
253.8	0
262.9	1
263.0	3
263.1	4
263.2	4
263.3	3
270.3	1
270.4	3
270.5	4
270.6	6
270.7	12
270.8	25
270.9	40
271.0	54
271.1	62
271.2	65
271.3	63
271.4	55
271.5	37
271.6	16
271.7	2
272.4	1
272.5	3
272.6	4
272.7	4
272.8	2
273.1	1
273.2	3
273.3	4
273.4	4
273.5	2
298.6	1
298.7	2
298.8	4
298.9	8
299.0	13
299.1	20
299.2	25
299.3	27
299.4	22
299.5	12
299.6	3
316.4	0
316.5	2
316.6	5
316.7	11
316.8	20
316.9	33
317.0	49
317.1	65
317.2	72
317.3	70
317.4	59
317.5	42
317.6	23
317.7	6
317.8	0
