Mass spectrum: 18alpha-Glycyrrhetic acid; LC-ESI-QQQ; MS2; Frag=135.0V CID@25.0; [M+H]+
Name: 18alpha-Glycyrrhetic acid
Class: Terpenoids
Formula: C30H46O4
Exact mass: 470.6987
SMILES: CC1(C)C2CC[C@]3(C)C(C(=O)C=C4[C@H]5C[C@@](C)(C(=O)O)CC[C@]5(C)CC[C@]43C)[C@@]2(C)CC[C@@H]1O
InChI: InChI=1S/C30H46O4/c1-25(2)21-8-11-30(7)23(28(21,5)10-9-22(25)32)20(31)16-18-19-17-27(4,24(33)34)13-12-26(19,3)14-15-29(18,30)6/h16,19,21-23,32H,8-15,17H2,1-7H3,(H,33,34)/t19-,21?,22+,23?,26-,27+,28+,29-,30-/m1/s1
Instrument: Agilent 6410 Triple Quadrupole LC/MS system
Instrument type: LC-ESI-QQQ
Ms type: MS2
Ion mode: POSITIVE
Precursor type: [M+H]+
m/z	relative intensity
134.7	1
134.8	2
134.9	4
135.0	5
135.1	6
135.2	5
135.3	4
135.4	3
174.7	1
174.8	2
174.9	3
175.0	4
175.1	4
175.2	4
175.3	3
175.4	2
188.7	2
188.8	3
188.9	4
189.0	7
189.1	10
189.2	12
189.3	11
189.4	7
189.5	4
189.6	1
234.7	2
234.8	4
234.9	6
235.0	8
235.1	9
235.2	9
235.3	7
235.4	5
235.5	3
316.7	1
316.8	3
316.9	5
317.0	7
317.1	8
317.2	8
317.3	7
317.4	5
317.5	3
470.4	1
470.5	3
470.6	7
470.7	13
470.8	23
470.9	38
471.0	56
471.1	75
471.2	89
471.3	98
471.4	99
471.5	90
471.6	68
471.7	37
471.8	11
471.9	0
