Mass spectrum: germbudine or neogermbudine; LC-ESI-QQQ; MS; [M+H]+
Name: germbudine or neogermbudine
Class: Alkaloids
Formula: C37H59NO12
Exact mass: 709.8823
SMILES: CCC(C)C(=O)O[C@H]1C(O)[C@H]2C(CN3CC(C)CC[C@H]3[C@@]2(C)O)[C@@H]2C[C@]34O[C@]5(O)C(OC(=O)C(C)(O)C(C)O)CCC3(C)C5C[C@@H](O)C4[C@@]21O
InChI: InChI=1S/C37H59NO12/c1-8-18(3)30(42)49-29-27(41)26-20(16-38-15-17(2)9-10-24(38)34(26,7)45)21-14-35-28(36(21,29)46)22(40)13-23-32(35,5)12-11-25(37(23,47)50-35)48-31(43)33(6,44)19(4)39/h17-29,39-41,44-47H,8-16H2,1-7H3/t17?,18?,19?,20?,21-,22+,23?,24-,25?,26+,27?,28?,29-,32?,33?,34+,35+,36-,37-/m0/s1
Instrument: ABSciex API3200 LC/MS system
Instrument type: LC-ESI-QQQ
Ms type: MS
Ion mode: POSITIVE
Precursor type: [M+H]+
m/z	relative intensity
118.9000	57
119.0000	69
119.1000	75
119.2000	58
119.3000	58
119.4000	58
692.1000	21
692.4000	23
709.3000	116
709.4000	560
709.5000	734
709.6000	854
709.7000	913
709.8000	927
709.9000	981
710.0000	962
710.1000	999
710.2000	992
710.3000	961
710.4000	890
710.5000	600
710.6000	591
710.7000	617
710.8000	611
710.9000	663
711.0000	691
711.1000	685
711.2000	711
711.3000	619
711.4000	514
711.5000	329
711.6000	305
711.7000	285
711.8000	299
711.9000	315
712.0000	339
712.1000	329
712.2000	314
712.3000	313
712.4000	241
712.5000	147
712.6000	79
712.7000	104
712.8000	95
712.9000	93
713.0000	122
713.1000	71
713.2000	73
713.3000	71
713.4000	59
713.5000	44
713.7000	22
713.9000	21
751.3000	31
751.4000	29
1418.9000	21
1419.0000	25
1419.1000	26
1419.3000	26
1419.4000	26
1419.5000	21
1420.2000	21
