Mass spectrum: o-hydroxydibenzoylmethane; LC-ESI-QQQ; MS2; Frag=135.0V CID@10.0; [M+H]+
Name: o-hydroxydibenzoylmethane
Class: Benzopyranoids
Formula: C15H12O3
Exact mass: 240.2611
SMILES: O=C(CC(=O)c1ccccc1O)c1ccccc1
InChI: InChI=1S/C15H12O3/c16-13-9-5-4-8-12(13)15(18)10-14(17)11-6-2-1-3-7-11/h1-9,16H,10H2
Instrument: Agilent 6410 Triple Quadrupole LC/MS system
Instrument type: LC-ESI-QQQ
Ms type: MS2
Ion mode: POSITIVE
Precursor type: [M+H]+
m/z	relative intensity
104.3	1
104.4	4
104.5	8
104.6	15
104.7	23
104.8	33
104.9	45
105.0	54
105.1	59
105.2	57
105.3	48
105.4	33
105.5	15
105.6	2
120.2	0
120.3	2
120.4	7
120.5	16
120.6	29
120.7	45
120.8	65
120.9	84
121.0	97
121.1	99
121.2	93
121.3	80
121.4	58
121.5	30
121.6	7
121.7	0
146.5	0
146.6	1
146.7	3
146.8	5
146.9	7
147.0	7
147.1	7
147.2	6
147.3	4
147.4	2
240.4	0
240.5	2
240.6	3
240.7	6
240.8	9
240.9	13
241.0	17
241.1	19
241.2	18
241.3	17
241.4	13
241.5	7
241.6	2
