Mass spectrum: Vulgarin; LC-ESI-QQQ; MS2; Frag=135.0V CID@25.0; [M+H]+
Name: Vulgarin
Class: Terpenoids
Formula: C15H20O4
Exact mass: 264.3243
SMILES: C[C@@H]1C(=O)O[C@H]2C1CC[C@@]1(C)C(=O)C=C[C@@](C)(O)[C@H]21
InChI: InChI=1S/C15H20O4/c1-8-9-4-6-14(2)10(16)5-7-15(3,18)12(14)11(9)19-13(8)17/h5,7-9,11-12,18H,4,6H2,1-3H3/t8-,9?,11-,12+,14-,15+/m0/s1
Instrument: Agilent 6410 Triple Quadrupole LC/MS system
Instrument type: LC-ESI-QQQ
Ms type: MS2
Ion mode: POSITIVE
Precursor type: [M+H]+
m/z	relative intensity
54.6	4
54.7	5
54.8	10
54.9	17
55.0	20
55.1	19
55.2	14
55.3	9
55.4	5
68.2	2
68.3	4
68.4	6
68.5	8
68.6	11
68.7	17
68.8	30
68.9	49
69.0	68
69.1	77
69.2	69
69.3	48
69.4	26
69.5	12
69.6	4
80.7	2
80.8	4
80.9	6
81.0	10
81.1	13
81.2	14
81.3	11
81.4	5
82.8	3
82.9	4
83.0	7
83.1	10
83.2	12
83.3	11
83.4	7
83.5	3
90.2	2
90.3	3
90.4	5
90.5	8
90.6	10
90.7	12
90.8	12
90.9	15
91.0	22
91.1	28
91.2	29
91.3	24
91.4	15
91.5	6
91.6	1
92.4	2
92.5	5
92.6	11
92.7	17
92.8	19
92.9	19
93.0	20
93.1	24
93.2	27
93.3	27
93.4	20
93.5	9
93.6	2
94.3	2
94.4	4
94.5	5
94.6	6
94.7	6
94.8	6
94.9	7
95.0	8
95.1	7
95.2	6
95.3	5
96.5	1
96.6	3
96.7	8
96.8	14
96.9	19
97.0	21
97.1	20
97.2	18
97.3	15
97.4	11
97.5	6
104.2	2
104.3	4
104.4	7
104.5	10
104.6	16
104.7	25
104.8	37
104.9	47
105.0	54
105.1	58
105.2	58
105.3	52
105.4	36
105.5	17
105.6	3
106.4	2
106.5	5
106.6	8
106.7	12
106.8	15
106.9	18
107.0	20
107.1	21
107.2	21
107.3	16
107.4	9
107.5	3
108.6	2
108.7	4
108.8	6
108.9	8
109.0	8
109.1	6
116.3	3
116.4	5
116.5	6
116.6	8
116.7	10
116.8	12
116.9	14
117.0	17
117.1	20
117.2	23
117.3	23
117.4	19
117.5	11
117.6	3
118.1	1
118.2	3
118.3	6
118.4	8
118.5	9
118.6	8
118.7	9
118.8	12
118.9	17
119.0	24
119.1	30
119.2	32
119.3	28
119.4	18
119.5	6
119.6	0
120.5	3
120.6	4
120.7	7
120.8	11
120.9	16
121.0	21
121.1	23
121.2	21
121.3	19
121.4	14
121.5	8
121.6	3
122.6	1
122.7	3
122.8	7
122.9	10
123.0	10
123.1	8
123.2	5
128.6	3
128.7	6
128.8	10
128.9	15
129.0	17
129.1	16
129.2	13
129.3	10
130.2	3
130.3	8
130.4	13
130.5	18
130.6	24
130.7	31
130.8	41
130.9	48
131.0	49
131.1	46
131.2	40
131.3	30
131.4	17
131.5	5
132.3	1
132.4	3
132.5	8
132.6	15
132.7	29
132.8	48
132.9	67
133.0	83
133.1	95
133.2	99
133.3	89
133.4	63
133.5	31
133.6	8
133.7	0
134.7	6
134.8	6
134.9	11
135.0	19
135.1	25
135.2	24
135.3	18
135.4	12
135.5	7
135.6	2
143.7	3
143.8	5
143.9	8
144.0	9
144.1	9
144.2	10
144.3	11
144.4	12
144.5	11
144.6	12
144.7	24
144.8	46
144.9	69
145.0	81
145.1	83
145.2	79
145.3	71
145.4	56
145.5	34
145.6	13
145.7	1
146.4	4
146.5	6
146.6	8
146.7	10
146.8	10
146.9	8
148.6	2
148.7	4
148.8	8
148.9	14
149.0	19
149.1	21
149.2	17
149.3	9
149.4	3
152.6	0
152.7	2
152.8	5
152.9	9
153.0	10
153.1	7
153.2	4
154.3	0
154.4	2
154.5	6
154.6	11
154.7	16
154.8	20
154.9	25
155.0	30
155.1	31
155.2	24
155.3	13
155.4	5
156.5	3
156.6	5
156.7	7
156.8	9
156.9	11
157.0	11
157.1	11
157.2	10
157.3	8
157.6	4
157.7	7
157.8	15
157.9	28
158.0	36
158.1	35
158.2	24
158.3	13
158.6	7
158.7	12
158.8	22
158.9	33
159.0	40
159.1	44
159.2	41
159.3	34
159.4	21
159.5	9
159.6	1
160.7	3
160.8	4
160.9	6
161.0	8
161.1	8
161.2	8
161.3	6
161.4	5
162.7	2
162.8	4
162.9	10
163.0	18
163.1	25
163.2	26
163.3	18
163.4	7
163.5	1
167.6	2
167.7	5
167.8	9
167.9	12
168.0	13
168.1	10
168.2	6
171.6	3
171.7	7
171.8	10
171.9	11
172.0	10
172.1	8
172.2	6
172.5	2
172.6	3
172.7	18
172.8	46
172.9	74
173.0	88
173.1	88
173.2	79
173.3	61
173.4	38
173.5	16
173.6	3
174.8	2
174.9	4
175.0	6
175.1	8
175.2	7
175.3	5
176.6	2
176.7	4
176.8	6
176.9	9
177.0	11
177.1	12
177.2	11
177.3	9
177.4	6
177.5	3
182.7	1
182.8	3
182.9	6
183.0	11
183.1	15
183.2	15
183.3	13
183.4	9
183.5	5
185.7	3
185.8	5
185.9	6
186.0	7
186.1	9
186.2	10
186.3	9
186.4	6
190.6	1
190.7	3
190.8	6
190.9	7
191.0	6
191.1	5
191.2	7
191.3	11
191.4	12
191.5	8
191.6	3
192.9	2
193.0	4
193.1	5
193.2	6
193.3	5
193.4	3
200.9	2
201.0	6
201.1	14
201.2	21
201.3	23
201.4	17
201.5	8
201.6	2
218.6	3
218.7	5
218.8	7
218.9	9
219.0	7
219.1	4
228.7	2
228.8	4
228.9	6
229.0	6
229.1	4
