Mass spectrum: lomatin; LC-ESI-QQQ; MS2; Frag=135.0V CID@25.0; [M+H]+
Name: lomatin
Class: Benzopyranoids
Formula: C14H14O4
Exact mass: 246.2653
SMILES: CC1(C)Oc2ccc3ccc(=O)oc3c2CC1O
InChI: InChI=1S/C14H14O4/c1-14(2)11(15)7-9-10(18-14)5-3-8-4-6-12(16)17-13(8)9/h3-6,11,15H,7H2,1-2H3
Instrument: Agilent 6410 Triple Quadrupole LC/MS system
Instrument type: LC-ESI-QQQ
Ms type: MS2
Ion mode: POSITIVE
Precursor type: [M+H]+
m/z	relative intensity
130.7	2
130.8	3
130.9	5
131.0	5
131.1	6
131.2	5
131.3	4
131.4	3
146.4	0
146.5	2
146.6	4
146.7	6
146.8	9
146.9	12
147.0	13
147.1	14
147.2	13
147.3	11
147.4	7
147.5	3
158.5	2
158.6	3
158.7	5
158.8	8
158.9	11
159.0	12
159.1	13
159.2	12
159.3	10
159.4	7
159.5	3
172.6	1
172.7	2
172.8	4
172.9	5
173.0	7
173.1	7
173.2	7
173.3	6
173.4	4
173.5	2
174.2	0
174.3	1
174.4	5
174.5	11
174.6	23
174.7	40
174.8	61
174.9	81
175.0	95
175.1	99
175.2	94
175.3	77
175.4	53
175.5	26
175.6	6
175.7	0
186.5	1
186.6	3
186.7	6
186.8	9
186.9	11
187.0	13
187.1	13
187.2	13
187.3	11
187.4	8
187.5	3
228.8	2
228.9	3
229.0	4
229.1	5
229.2	5
229.3	4
229.4	3
