Mass spectrum: Carmine red; LC-ESI-QQQ; MS2; Frag=135.0V CID@5.0; [M+H]+
Name: Carminic acid
Name: 3,5,6,8-tetrahydroxy-1-methyl-9,10-dioxo-7-[(2S,3R,4R,5S,6R)-3,4,5-trihydroxy-6-(hydroxymethyl)oxan-2-yl]anthracene-2-carboxylic acid
Class: Polycyclic aromatic natural products
Formula: C22H20O13
Exact mass: 492.0904
SMILES: CC1=C2C(=CC(=C1C(=O)O)O)C(=O)C3=C(C2=O)C(=C(C(=C3O)O)[C@H]4[C@@H]([C@H]([C@@H]([C@H](O4)CO)O)O)O)O
InChI: InChI=1S/C22H20O13/c1-4-8-5(2-6(24)9(4)22(33)34)13(25)10-11(15(8)27)16(28)12(18(30)17(10)29)21-20(32)19(31)14(26)7(3-23)35-21/h2,7,14,19-21,23-24,26,28-32H,3H2,1H3,(H,33,34)/t7-,14-,19+,20-,21+/m1/s1
Instrument: Agilent 6410 Triple Quadrupole LC/MS system
Instrument type: LC-ESI-QQQ
Ms type: MS2
Ion mode: POSITIVE
Precursor type: [M+H]+
m/z	relative intensity
372.3	1
372.4	2
372.5	5
372.6	9
372.7	16
372.8	24
372.9	34
373.0	44
373.1	50
373.2	46
373.3	31
373.4	14
373.5	1
396.6	1
396.7	3
396.8	8
396.9	13
397.0	17
397.1	16
397.2	11
397.3	5
397.4	1
426.4	1
426.5	2
426.6	3
426.7	5
426.8	6
426.9	8
427.0	9
427.1	10
427.2	9
427.3	6
427.4	2
438.6	1
438.7	3
438.8	4
438.9	5
439.0	4
439.1	3
439.2	2
492.2	1
492.3	3
492.4	6
492.5	14
492.6	28
492.7	46
492.8	64
492.9	80
493.0	92
493.1	99
493.2	97
493.3	77
493.4	44
493.5	13
493.6	0
