Mass spectrum: Phellamurin; LC-ESI-QQQ; MS2; Frag=135.0V CID@25.0; [M+H]+
Name: Phellamurin
Class: Flavonoids
Formula: C26H30O11
Exact mass: 518.5224
SMILES: CC(C)=CCc1c(O[C@@H]2O[C@H](CO)[C@@H](O)[C@H](O)[C@H]2O)cc(O)c2c1OC(c1ccc(O)cc1)C(O)C2=O
InChI: InChI=1S/C26H30O11/c1-11(2)3-8-14-16(35-26-23(34)21(32)19(30)17(10-27)36-26)9-15(29)18-20(31)22(33)24(37-25(14)18)12-4-6-13(28)7-5-12/h3-7,9,17,19,21-24,26-30,32-34H,8,10H2,1-2H3/t17-,19-,21+,22?,23-,24?,26-/m1/s1
Instrument: Agilent 6410 Triple Quadrupole LC/MS system
Instrument type: LC-ESI-QQQ
Ms type: MS2
Ion mode: POSITIVE
Precursor type: [M+H]+
m/z	relative intensity
68.6	2
68.7	3
68.8	6
68.9	11
69.0	15
69.1	16
69.2	14
69.3	10
69.4	5
69.5	2
106.4	2
106.5	3
106.6	4
106.7	6
106.8	9
106.9	12
107.0	16
107.1	18
107.2	16
107.3	11
107.4	5
107.5	1
138.6	1
138.7	3
138.8	4
138.9	6
139.0	6
139.1	6
139.2	5
139.3	3
164.3	2
164.4	3
164.5	5
164.6	7
164.7	13
164.8	21
164.9	30
165.0	35
165.1	37
165.2	33
165.3	26
165.4	16
165.5	6
165.6	0
178.7	3
178.8	4
178.9	6
179.0	7
179.1	6
179.2	4
179.3	1
194.5	2
194.6	4
194.7	7
194.8	12
194.9	15
195.0	17
195.1	17
195.2	16
195.3	12
195.4	7
195.5	2
216.5	0
216.6	2
216.7	4
216.8	6
216.9	7
217.0	8
217.1	8
217.2	6
217.3	4
217.4	2
220.3	1
220.4	4
220.5	7
220.6	10
220.7	15
220.8	24
220.9	36
221.0	45
221.1	48
221.2	45
221.3	37
221.4	25
221.5	11
221.6	2
241.6	1
241.7	3
241.8	4
241.9	5
242.0	6
242.1	6
242.2	6
242.3	5
242.6	2
242.7	4
242.8	7
242.9	10
243.0	11
243.1	11
243.2	9
243.3	6
243.4	3
254.0	1
254.1	2
254.2	4
254.3	6
254.4	8
254.5	11
254.6	18
254.7	33
254.8	57
254.9	81
255.0	97
255.1	99
255.2	89
255.3	65
255.4	36
255.5	10
255.6	0
262.8	2
262.9	4
263.0	7
263.1	9
263.2	9
263.3	7
263.4	3
270.5	0
270.6	2
270.7	5
270.8	10
270.9	15
271.0	16
271.1	14
271.2	10
271.3	6
271.4	2
282.6	2
282.7	4
282.8	8
282.9	13
283.0	18
283.1	22
283.2	23
283.3	20
283.4	12
283.5	5
283.6	0
300.5	1
300.6	4
300.7	7
300.8	9
300.9	11
301.0	12
301.1	13
301.2	13
301.3	11
301.4	6
301.5	2
309.8	3
309.9	4
310.0	7
310.1	8
310.2	8
310.3	7
310.4	7
310.5	6
310.6	6
310.7	10
310.8	21
310.9	39
311.0	58
311.1	71
311.2	72
311.3	60
311.4	39
311.5	17
311.6	3
338.6	1
338.7	3
338.8	7
338.9	14
339.0	20
339.1	22
339.2	21
339.3	16
339.4	10
339.5	4
356.7	3
356.8	6
356.9	10
357.0	14
357.1	18
357.2	19
357.3	17
357.4	11
357.5	5
357.6	0
