Mass spectrum: Brevicarine; LC-ESI-QQQ; MS2; Frag=135.0V CID@5.0; [M+H]+
Name: Brevicarine
Class: Alkaloids
Formula: C17H21N3
Exact mass: 267.377
SMILES: CNCCCCc1cnc(C)c2[nH]c3ccccc3c12
InChI: InChI=1S/C17H21N3/c1-12-17-16(14-8-3-4-9-15(14)20-17)13(11-19-12)7-5-6-10-18-2/h3-4,8-9,11,18,20H,5-7,10H2,1-2H3
Instrument: Agilent 6410 Triple Quadrupole LC/MS system
Instrument type: LC-ESI-QQQ
Ms type: MS2
Ion mode: POSITIVE
Precursor type: [M+H]+
m/z	relative intensity
267.3	1
267.4	3
267.5	7
267.6	12
267.7	20
267.8	33
267.9	53
268.0	75
268.1	93
268.2	99
268.3	95
268.4	80
268.5	56
268.6	29
268.7	8
268.8	0
