Mass spectrum: ellagic acid; LC-ESI-QQQ; MS2; Frag=135.0V CID@5.0; [M+H]+
Name: ellagic acid
Class: Tannins
Formula: C14H6O8
Exact mass: 302.1991
SMILES: O=c1oc2c(O)c(O)cc3c(=O)oc4c(O)c(O)cc1c4c23
InChI: InChI=1S/C14H6O8/c15-5-1-3-7-8-4(14(20)22-11(7)9(5)17)2-6(16)10(18)12(8)21-13(3)19/h1-2,15-18H
Instrument: Agilent 6410 Triple Quadrupole LC/MS system
Instrument type: LC-ESI-QQQ
Ms type: MS2
Ion mode: POSITIVE
Precursor type: [M+H]+
m/z	relative intensity
302.1	2
302.2	2
302.3	5
302.4	9
302.5	16
302.6	29
302.7	48
302.8	69
302.9	86
303.0	96
303.1	99
303.2	92
303.3	71
303.4	40
303.5	12
303.6	0
