Mass spectrum: harmine; LC-ESI-QQQ; MS; [M+H]+
Name: harmine
Class: Alkaloids
Formula: C13H12N2O
Exact mass: 212.2534
SMILES: COc1ccc2c(c1)[nH]c1c(C)nccc12
InChI: InChI=1S/C13H12N2O/c1-8-13-11(5-6-14-8)10-4-3-9(16-2)7-12(10)15-13/h3-7,15H,1-2H3
Instrument: ABSciex API3200 LC/MS system
Instrument type: LC-ESI-QQQ
Ms type: MS
Ion mode: POSITIVE
Precursor type: [M+H]+
m/z	relative intensity
168.4000	43
168.5000	60
168.6000	72
168.7000	82
168.8000	99
168.9000	83
169.0000	95
169.1000	75
169.2000	90
169.3000	80
169.4000	167
169.5000	279
169.6000	356
169.7000	379
169.8000	371
169.9000	404
170.0000	373
170.1000	337
170.2000	310
170.3000	274
170.4000	261
170.5000	146
170.6000	71
170.7000	70
170.8000	71
170.9000	83
171.0000	71
171.1000	67
171.2000	57
171.3000	57
171.4000	54
171.5000	22
197.2000	22
197.3000	63
197.4000	473
197.5000	636
197.6000	679
197.7000	700
197.8000	697
197.9000	716
198.0000	703
198.1000	613
198.2000	640
198.3000	582
198.4000	466
198.5000	255
198.6000	188
198.7000	150
198.8000	166
198.9000	177
199.0000	167
199.1000	133
199.2000	150
199.3000	124
199.4000	113
199.5000	48
199.6000	24
200.0000	27
200.1000	32
212.2000	23
212.3000	33
212.4000	593
212.5000	828
212.6000	866
212.7000	986
212.8000	977
212.9000	974
213.0000	958
213.1000	979
213.2000	999
213.3000	928
213.4000	958
213.5000	583
213.6000	425
213.7000	399
213.8000	420
213.9000	428
214.0000	415
214.1000	400
214.2000	437
214.3000	411
214.4000	383
214.5000	166
214.6000	81
214.7000	61
214.8000	71
214.9000	54
215.0000	56
215.1000	52
215.2000	62
215.3000	48
215.4000	50
