Mass spectrum: Perforine; LC-ESI-QQQ; MS2; Frag=135.0V CID@25.0; [M+H]+
Name: Perforine
Class: Alkaloids
Formula: C18H25NO5
Exact mass: 335.4037
SMILES: COc1c2c(nc3occc13)C(CCC(C)(C)O)(OC)C(O)CC2
InChI: InChI=1S/C18H25NO5/c1-17(2,21)8-9-18(23-4)13(20)6-5-11-14(22-3)12-7-10-24-16(12)19-15(11)18/h7,10,13,20-21H,5-6,8-9H2,1-4H3
Instrument: Agilent 6410 Triple Quadrupole LC/MS system
Instrument type: LC-ESI-QQQ
Ms type: MS2
Ion mode: POSITIVE
Precursor type: [M+H]+
m/z	relative intensity
187.6	2
187.7	3
187.8	6
187.9	8
188.0	10
188.1	11
188.2	11
188.3	10
188.4	7
188.5	4
188.6	1
201.7	2
201.8	4
201.9	6
202.0	8
202.1	9
202.2	9
202.3	8
202.4	5
202.5	2
217.3	2
217.4	4
217.5	7
217.6	14
217.7	27
217.8	47
217.9	69
218.0	88
218.1	99
218.2	99
218.3	89
218.4	67
218.5	38
218.6	12
218.7	0
229.4	1
229.5	3
229.6	6
229.7	11
229.8	19
229.9	29
230.0	38
230.1	44
230.2	43
230.3	36
230.4	24
230.5	12
230.6	2
267.7	1
267.8	3
267.9	5
268.0	7
268.1	8
268.2	9
268.3	8
268.4	7
268.5	4
268.6	2
285.5	1
285.6	2
285.7	4
285.8	8
285.9	14
286.0	20
286.1	24
286.2	26
286.3	25
286.4	20
286.5	13
286.6	5
286.7	0
