Mass spectrum: Fagarine I; LC-ESI-QQQ; MS2; Frag=135.0V CID@5.0; [M+H]+
Name: Fagarine I
Class: Alkaloids
Formula: C21H23NO5
Exact mass: 369.4212
SMILES: COc1ccc2c(c1OC)CN(C)CCc1cc3c(cc1C(=O)C2)OCO3
InChI: InChI=1S/C21H23NO5/c1-22-7-6-14-9-19-20(27-12-26-19)10-15(14)17(23)8-13-4-5-18(24-2)21(25-3)16(13)11-22/h4-5,9-10H,6-8,11-12H2,1-3H3
Instrument: Agilent 6410 Triple Quadrupole LC/MS system
Instrument type: LC-ESI-QQQ
Ms type: MS2
Ion mode: POSITIVE
Precursor type: [M+H]+
m/z	relative intensity
369.2	0
369.3	1
369.4	4
369.5	6
369.6	11
369.7	21
369.8	38
369.9	60
370.0	81
370.1	95
370.2	99
370.3	93
370.4	75
370.5	49
370.6	22
370.7	3
