Mass spectrum: Tavicone; LC-ESI-QQQ; MS2; Frag=135.0V CID@15.0; [M+H]+
Name: Tavicone
Class: Benzopyranoids
Formula: C23H26O4
Exact mass: 366.4613
SMILES: CC1=CCC2C(C)(C)C(=O)CC2(C)C1COc1ccc2ccc(=O)oc2c1
InChI: InChI=1S/C23H26O4/c1-14-5-9-19-22(2,3)20(24)12-23(19,4)17(14)13-26-16-8-6-15-7-10-21(25)27-18(15)11-16/h5-8,10-11,17,19H,9,12-13H2,1-4H3
Instrument: Agilent 6410 Triple Quadrupole LC/MS system
Instrument type: LC-ESI-QQQ
Ms type: MS2
Ion mode: POSITIVE
Precursor type: [M+H]+
m/z	relative intensity
120.6	1
120.7	3
120.8	5
120.9	6
121.0	7
121.1	7
121.2	7
121.3	6
121.4	4
121.5	2
132.6	1
132.7	2
132.8	4
132.9	6
133.0	7
133.1	6
133.2	5
133.3	5
133.4	4
133.5	2
144.5	1
144.6	2
144.7	4
144.8	7
144.9	10
145.0	13
145.1	15
145.2	16
145.3	15
145.4	12
145.5	7
145.6	2
146.6	2
146.7	3
146.8	6
146.9	10
147.0	13
147.1	14
147.2	14
147.3	12
147.4	8
147.5	4
158.7	1
158.8	2
158.9	4
159.0	5
159.1	5
159.2	5
159.3	4
159.4	3
162.1	0
162.2	2
162.3	4
162.4	7
162.5	10
162.6	18
162.7	34
162.8	59
162.9	83
163.0	98
163.1	99
163.2	92
163.3	78
163.4	55
163.5	28
163.6	6
163.7	0
174.6	1
174.7	2
174.8	4
174.9	6
175.0	7
175.1	6
175.2	5
175.3	3
186.3	1
186.4	3
186.5	5
186.6	9
186.7	15
186.8	28
186.9	45
187.0	61
187.1	69
187.2	69
187.3	63
187.4	52
187.5	36
187.6	17
187.7	4
366.4	2
366.5	4
366.6	6
366.7	9
366.8	17
366.9	29
367.0	43
367.1	53
367.2	57
367.3	55
367.4	45
367.5	30
367.6	13
367.7	1
