Mass spectrum: osthol; LC-ESI-QQQ; MS2; Frag=135.0V CID@15.0; [M+H]+
Name: osthol
Class: Benzopyranoids
Formula: C15H16O3
Exact mass: 244.293
SMILES: COc1ccc2ccc(=O)oc2c1CC=C(C)C
InChI: InChI=1S/C15H16O3/c1-10(2)4-7-12-13(17-3)8-5-11-6-9-14(16)18-15(11)12/h4-6,8-9H,7H2,1-3H3
Instrument: Agilent 6410 Triple Quadrupole LC/MS system
Instrument type: LC-ESI-QQQ
Ms type: MS2
Ion mode: POSITIVE
Precursor type: [M+H]+
m/z	relative intensity
130.3	0
130.4	2
130.5	4
130.6	6
130.7	10
130.8	15
130.9	21
131.0	25
131.1	26
131.2	25
131.3	21
131.4	14
131.5	6
131.6	1
188.2	0
188.3	1
188.4	5
188.5	12
188.6	24
188.7	39
188.8	57
188.9	76
189.0	92
189.1	99
189.2	95
189.3	79
189.4	52
189.5	24
189.6	4
189.7	0
