Mass spectrum: Cuscutamine; LC-ESI-QQQ; MS2; Frag=135.0V CID@25.0; [M+H]+
Name: Cuscutamine
Class: Alkaloids
Formula: C15H14N2O3
Exact mass: 270.2904
SMILES: O=C(O)[C@@H]1Cc2c([nH]c3ccccc23)C2CCC(=O)N21
InChI: InChI=1S/C15H14N2O3/c18-13-6-5-11-14-9(7-12(15(19)20)17(11)13)8-3-1-2-4-10(8)16-14/h1-4,11-12,16H,5-7H2,(H,19,20)/t11?,12-/m0/s1
Instrument: Agilent 6410 Triple Quadrupole LC/MS system
Instrument type: LC-ESI-QQQ
Ms type: MS2
Ion mode: POSITIVE
Precursor type: [M+H]+
m/z	relative intensity
129.5	1
129.6	3
129.7	5
129.8	7
129.9	9
130.0	10
130.1	10
130.2	9
130.3	7
130.4	5
130.5	3
143.6	2
143.7	4
143.8	6
143.9	8
144.0	9
144.1	9
144.2	8
144.3	7
144.4	5
144.5	2
145.6	1
145.7	3
145.8	5
145.9	6
146.0	7
146.1	7
146.2	6
146.3	4
146.4	2
157.4	1
157.5	3
157.6	5
157.7	8
157.8	11
157.9	13
158.0	14
158.1	16
158.2	16
158.3	14
158.4	9
158.5	3
167.8	2
167.9	4
168.0	5
168.1	6
168.2	6
168.3	6
168.4	5
168.5	4
168.6	5
168.7	6
168.8	9
168.9	13
169.0	16
169.1	17
169.2	16
169.3	15
169.4	12
169.5	7
169.7	4
169.8	7
169.9	10
170.0	13
170.1	14
170.2	13
170.3	12
170.4	8
170.5	4
170.6	1
179.4	1
179.5	3
179.6	6
179.7	11
179.8	19
179.9	27
180.0	33
180.1	35
180.2	34
180.3	30
180.4	23
180.5	13
180.6	6
181.6	5
181.7	7
181.8	11
181.9	15
182.0	17
182.1	18
182.2	18
182.3	17
182.4	13
182.5	7
196.5	1
196.6	2
196.7	4
196.8	7
196.9	11
197.0	13
197.1	13
197.2	13
197.3	12
197.4	10
197.5	7
197.6	3
206.8	3
206.9	4
207.0	5
207.1	6
207.2	6
207.3	5
207.8	4
207.9	5
208.0	7
208.1	7
208.2	7
208.3	6
208.4	4
208.5	2
222.4	1
222.5	2
222.6	4
222.7	6
222.8	9
222.9	13
223.0	16
223.1	18
223.2	17
223.3	15
223.4	11
223.5	5
223.6	1
224.2	1
224.3	3
224.4	5
224.5	10
224.6	20
224.7	35
224.8	54
224.9	74
225.0	90
225.1	99
225.2	99
225.3	91
225.4	71
225.5	44
225.6	16
225.7	1
