Mass spectrum: Cryptopine; LC-ESI-QQQ; MS2; Frag=135.0V CID@25.0; [M+H]+
Name: Cryptopine
Class: Alkaloids
Formula: C21H23NO5
Exact mass: 369.4212
SMILES: COc1cc2c(cc1OC)C(=O)Cc1ccc3c(c1CN(C)CC2)OCO3
InChI: InChI=1S/C21H23NO5/c1-22-7-6-14-9-19(24-2)20(25-3)10-15(14)17(23)8-13-4-5-18-21(16(13)11-22)27-12-26-18/h4-5,9-10H,6-8,11-12H2,1-3H3
Instrument: Agilent 6410 Triple Quadrupole LC/MS system
Instrument type: LC-ESI-QQQ
Ms type: MS2
Ion mode: POSITIVE
Precursor type: [M+H]+
m/z	relative intensity
148.5	2
148.6	3
148.7	6
148.8	9
148.9	12
149.0	14
149.1	15
149.2	14
149.3	13
149.4	10
149.5	7
149.8	4
149.9	7
150.0	8
150.1	9
150.2	8
150.3	6
150.4	4
164.3	1
164.4	3
164.5	7
164.6	12
164.7	22
164.8	38
164.9	55
165.0	69
165.1	75
165.2	75
165.3	69
165.4	55
165.5	34
165.6	13
165.7	0
174.6	2
174.7	3
174.8	6
174.9	8
175.0	10
175.1	10
175.2	10
175.3	8
175.4	6
175.5	3
189.4	3
189.5	4
189.6	5
189.7	9
189.8	15
189.9	23
190.0	29
190.1	33
190.2	33
190.3	29
190.4	21
190.5	11
190.6	3
192.6	1
192.7	3
192.8	5
192.9	8
193.0	10
193.1	11
193.2	11
193.3	9
193.4	8
193.5	5
193.8	3
193.9	5
194.0	7
194.1	7
194.2	7
194.3	6
194.4	5
194.5	2
203.2	1
203.3	3
203.4	5
203.5	9
203.6	16
203.7	27
203.8	47
203.9	70
204.0	89
204.1	99
204.2	99
204.3	90
204.4	71
204.5	46
204.6	25
204.8	21
204.9	37
205.0	55
205.1	66
205.2	68
205.3	62
205.4	50
205.5	32
205.6	15
205.7	3
205.9	3
206.0	6
206.1	7
206.2	7
206.3	7
206.4	5
206.5	3
221.6	2
221.7	4
221.8	7
221.9	11
222.0	14
222.1	15
222.2	15
222.3	14
222.4	11
222.5	6
222.6	2
262.6	1
262.7	2
262.8	4
262.9	6
263.0	8
263.1	9
263.2	9
263.3	8
263.4	6
263.5	3
289.8	2
289.9	3
290.0	4
290.1	5
290.2	4
290.3	4
290.4	3
290.5	2
290.6	3
290.7	4
290.8	6
290.9	10
291.0	13
291.1	14
291.2	14
291.3	12
291.4	8
291.5	4
310.8	2
310.9	3
311.0	4
311.1	5
311.2	5
311.3	5
311.4	4
311.5	2
320.8	2
320.9	4
321.0	6
321.1	8
321.2	8
321.3	8
321.4	6
321.5	3
351.7	1
351.8	2
351.9	4
352.0	6
352.1	7
352.2	7
352.3	7
352.4	5
352.5	3
369.4	1
369.5	3
369.6	6
369.7	11
369.8	19
369.9	31
370.0	45
370.1	56
370.2	60
370.3	57
370.4	45
370.5	28
370.6	11
370.7	1
