Mass spectrum: urolithin B; LC-ESI-QQQ; MS; [M+H]+
Name: urolithin B
Class: Benzopyranoids
Formula: C13H8O3
Exact mass: 212.2069
SMILES: O=c1oc2cc(O)ccc2c2ccccc12
InChI: InChI=1S/C13H8O3/c14-8-5-6-10-9-3-1-2-4-11(9)13(15)16-12(10)7-8/h1-7,14H
Instrument: ABSciex API3200 LC/MS system
Instrument type: LC-ESI-QQQ
Ms type: MS
Ion mode: POSITIVE
Precursor type: [M+H]+
m/z	relative intensity
140.4000	30
140.5000	49
140.6000	68
140.7000	231
140.8000	60
140.9000	75
141.0000	39
141.1000	36
141.2000	42
141.3000	41
141.4000	32
168.4000	40
168.5000	45
168.6000	63
168.7000	74
168.8000	49
168.9000	35
169.0000	53
169.1000	44
169.2000	37
169.3000	37
169.4000	39
212.3000	112
212.4000	319
212.5000	628
212.6000	721
212.7000	852
212.8000	885
212.9000	933
213.0000	999
213.1000	904
213.2000	875
213.3000	840
213.4000	602
213.5000	262
213.6000	209
213.7000	196
213.8000	185
213.9000	249
214.0000	518
214.1000	150
214.2000	129
214.3000	135
214.4000	106
214.5000	31
214.6000	22
214.8000	21
214.9000	22
215.3000	21
253.5000	31
253.7000	31
253.8000	26
253.9000	34
254.0000	40
254.1000	87
254.2000	71
254.3000	52
254.4000	54
424.7000	31
424.8000	25
424.9000	31
425.0000	27
425.1000	23
425.2000	24
