Mass spectrum: Galbanic acid; LC-ESI-QQQ; MS2; Frag=135.0V CID@5.0; [M+H]+
Name: Galbanic acid
Class: Benzopyranoids
Formula: C24H30O5
Exact mass: 398.5037
SMILES: CC(C)=C1CC[C@H](C)[C@](C)(COc2ccc3ccc(=O)oc3c2)[C@H]1CCC(=O)O
InChI: InChI=1S/C24H30O5/c1-15(2)19-9-5-16(3)24(4,20(19)10-11-22(25)26)14-28-18-8-6-17-7-12-23(27)29-21(17)13-18/h6-8,12-13,16,20H,5,9-11,14H2,1-4H3,(H,25,26)/t16-,20-,24-/m0/s1
Instrument: Agilent 6410 Triple Quadrupole LC/MS system
Instrument type: LC-ESI-QQQ
Ms type: MS2
Ion mode: POSITIVE
Precursor type: [M+H]+
m/z	relative intensity
108.8	2
108.9	4
109.0	6
109.1	7
109.2	7
109.3	6
109.4	4
109.5	2
152.7	1
152.8	3
152.9	4
153.0	5
153.1	6
153.2	5
153.3	4
153.4	3
153.5	2
162.3	1
162.4	3
162.5	8
162.6	15
162.7	25
162.8	38
162.9	53
163.0	65
163.1	69
163.2	64
163.3	53
163.4	37
163.5	20
163.6	6
163.7	0
166.6	1
166.7	2
166.8	5
166.9	7
167.0	10
167.1	11
167.2	11
167.3	10
167.4	7
167.5	4
167.6	1
180.6	2
180.7	3
180.8	5
180.9	9
181.0	13
181.1	16
181.2	17
181.3	15
181.4	12
181.5	8
181.6	3
188.4	2
188.5	3
188.6	5
188.7	9
188.8	15
188.9	22
189.0	28
189.1	31
189.2	30
189.3	25
189.4	18
189.5	9
189.6	2
218.8	2
218.9	3
219.0	4
219.1	5
219.2	6
219.3	5
219.4	4
219.5	2
236.5	1
236.6	3
236.7	5
236.8	9
236.9	17
237.0	26
237.1	35
237.2	38
237.3	37
237.4	31
237.5	22
237.6	12
237.7	3
380.8	2
380.9	3
381.0	5
381.1	7
381.2	7
381.3	7
381.4	5
381.5	3
381.6	1
398.3	0
398.4	2
398.5	5
398.6	9
398.7	16
398.8	27
398.9	44
399.0	65
399.1	84
399.2	97
399.3	99
399.4	87
399.5	60
399.6	29
399.7	6
399.8	0
