Mass spectrum: 8-Hydroxy-13,14,15,16-tetranor-12-labdanoic acid; LC-ESI-QQQ; MS2; Frag=135.0V CID@15.0; [M+H]+
Name: 8-Hydroxy-13,14,15,16-tetranor-12-labdanoic acid
Class: Terpenoids
Formula: C16H28O3
Exact mass: 268.3998
SMILES: CC1(C)CCC[C@@]2(C)C1CC[C@@](C)(O)C2CC(=O)O
InChI: InChI=1S/C16H28O3/c1-14(2)7-5-8-15(3)11(14)6-9-16(4,19)12(15)10-13(17)18/h11-12,19H,5-10H2,1-4H3,(H,17,18)/t11?,12?,15-,16+/m0/s1
Instrument: Agilent 6410 Triple Quadrupole LC/MS system
Instrument type: LC-ESI-QQQ
Ms type: MS2
Ion mode: POSITIVE
Precursor type: [M+H]+
m/z	relative intensity
109.5	2
109.6	5
109.7	10
109.8	17
109.9	20
110.0	16
110.1	8
110.2	2
188.8	2
188.9	3
189.0	6
189.1	10
189.2	12
189.3	11
189.4	8
189.5	5
190.5	1
190.6	3
190.7	7
190.8	14
190.9	22
191.0	32
191.1	37
191.2	34
191.3	23
191.6	7
191.7	19
191.8	45
191.9	75
192.0	94
192.1	92
192.2	76
192.3	57
192.4	39
192.5	22
192.6	9
192.7	1
250.5	3
250.6	5
250.7	9
250.8	14
250.9	16
251.0	13
251.1	6
251.4	2
251.5	5
251.6	11
251.7	15
251.8	18
251.9	17
252.0	14
252.1	15
252.2	18
252.3	19
252.4	15
252.5	7
