Mass spectrum: Ecdysterone 22-O-benzoate; LC-ESI-QQQ; MS2; Frag=135.0V CID@15.0; [M+H]+
Name: Ecdysterone 22-O-benzoate
Class: Steroids
Formula: C34H48O8
Exact mass: 584.7569
SMILES: CC(C)(O)CC[C@H](OC(=O)c1ccccc1)[C@](C)(O)C1CC[C@@]2(O)C3=CC(=O)C4CC(O)C(O)C[C@]4(C)C3CC[C@]12C
InChI: InChI=1S/C34H48O8/c1-30(2,39)14-13-28(42-29(38)20-9-7-6-8-10-20)33(5,40)27-12-16-34(41)22-17-24(35)23-18-25(36)26(37)19-31(23,3)21(22)11-15-32(27,34)4/h6-10,17,21,23,25-28,36-37,39-41H,11-16,18-19H2,1-5H3/t21?,23?,25?,26?,27?,28-,31+,32+,33+,34+/m0/s1
Instrument: Agilent 6410 Triple Quadrupole LC/MS system
Instrument type: LC-ESI-QQQ
Ms type: MS2
Ion mode: POSITIVE
Precursor type: [M+H]+
m/z	relative intensity
104.3	1
104.4	2
104.5	3
104.6	5
104.7	6
104.8	9
104.9	12
105.0	12
105.1	11
105.2	7
105.3	4
105.4	2
164.5	0
164.6	2
164.7	4
164.8	7
164.9	11
165.0	14
165.1	16
165.2	15
165.3	12
165.4	8
165.5	5
165.6	2
246.8	2
246.9	4
247.0	5
247.1	7
247.2	7
247.3	6
247.4	3
247.5	1
278.6	1
278.7	3
278.8	4
278.9	4
279.0	6
279.1	7
279.2	7
279.3	5
279.4	2
300.6	0
300.7	2
300.8	3
300.9	5
301.0	7
301.1	9
301.2	9
301.3	8
301.4	6
301.5	3
301.6	1
302.3	0
302.4	2
302.5	4
302.6	6
302.7	8
302.8	11
302.9	16
303.0	22
303.1	29
303.2	32
303.3	30
303.4	23
303.5	13
303.6	5
303.7	1
328.7	1
328.8	3
328.9	4
329.0	6
329.1	7
329.2	7
329.3	6
329.4	3
352.6	1
352.7	3
352.8	6
352.9	12
353.0	18
353.1	21
353.2	19
353.3	13
353.4	6
353.5	1
370.5	1
370.6	3
370.7	5
370.8	7
370.9	9
371.0	10
371.1	12
371.2	14
371.3	15
371.4	12
371.5	7
371.6	2
390.6	1
390.7	2
390.8	4
390.9	8
391.0	11
391.1	14
391.2	14
391.3	13
391.4	10
391.5	5
391.6	2
408.3	0
408.4	1
408.5	3
408.6	7
408.7	13
408.8	21
408.9	30
409.0	39
409.1	49
409.2	60
409.3	69
409.4	68
409.5	55
409.6	32
409.7	10
409.8	0
426.3	0
426.4	2
426.5	5
426.6	9
426.7	14
426.8	22
426.9	35
427.0	52
427.1	72
427.2	90
427.3	99
427.4	96
427.5	76
427.6	47
427.7	17
427.8	1
444.4	1
444.5	3
444.6	6
444.7	9
444.8	13
444.9	21
445.0	36
445.1	51
445.2	61
445.3	62
445.4	53
445.5	34
445.6	14
445.7	0
480.6	1
480.7	2
480.8	4
480.9	4
481.0	4
481.1	3
481.2	3
481.3	3
481.4	3
481.5	2
530.6	1
530.7	2
530.8	4
530.9	6
531.0	9
531.1	10
531.2	12
531.3	13
531.4	11
531.5	9
531.6	5
531.7	1
548.5	1
548.6	2
548.7	5
548.8	9
548.9	14
549.0	19
549.1	25
549.2	32
549.3	38
549.4	38
549.5	29
549.6	15
549.7	4
566.4	1
566.5	3
566.6	5
566.7	8
566.8	12
566.9	19
567.0	30
567.1	42
567.2	52
567.3	57
567.4	56
567.5	46
567.6	30
567.7	13
567.8	1
