Mass spectrum: 9,13-Epoxy-3,18-dihydroxy-15,16-labdanolide; LC-ESI-QQQ; MS2; Frag=135.0V CID@10.0; [M+NH4]+
Name: 9,13-Epoxy-3,18-dihydroxy-15,16-labdanolide
Class: Terpenoids
Formula: C20H32O5
Exact mass: 352.475
SMILES: C[C@@H]1CCC2[C@](C)(CC[C@H](O)[C@@]2(C)CO)[C@@]12CC1(COC(=O)C1)CO2
InChI: InChI=1S/C20H32O5/c1-13-4-5-14-17(2,10-21)15(22)6-7-18(14,3)20(13)9-19(12-25-20)8-16(23)24-11-19/h13-15,21-22H,4-12H2,1-3H3/t13-,14?,15+,17+,18+,19?,20-/m1/s1
Instrument: Agilent 6410 Triple Quadrupole LC/MS system
Instrument type: LC-ESI-QQQ
Ms type: MS2
Ion mode: POSITIVE
Precursor type: [M+NH4]+
m/z	relative intensity
132.6	2
132.7	4
132.8	7
132.9	10
133.0	11
133.1	10
133.2	9
133.3	6
133.4	4
148.6	1
148.7	3
148.8	6
148.9	9
149.0	12
149.1	14
149.2	13
149.3	10
149.4	6
149.5	2
172.7	2
172.8	3
172.9	5
173.0	6
173.1	5
173.2	4
173.3	3
180.5	1
180.6	3
180.7	7
180.8	12
180.9	17
181.0	20
181.1	21
181.2	21
181.3	19
181.4	15
181.5	8
181.6	2
186.6	3
186.7	4
186.8	5
186.9	8
187.0	11
187.1	14
187.2	13
187.3	9
187.4	4
238.6	1
238.7	3
238.8	6
238.9	9
239.0	11
239.1	11
239.2	10
239.3	8
239.4	5
239.5	2
276.6	1
276.7	2
276.8	5
276.9	8
277.0	11
277.1	12
277.2	11
277.3	7
277.4	4
277.5	2
298.8	3
298.9	5
299.0	9
299.1	13
299.2	16
299.3	15
299.4	12
299.5	7
299.6	3
304.7	2
304.8	3
304.9	7
305.0	12
305.1	17
305.2	21
305.3	20
305.4	16
305.5	10
305.6	4
316.3	1
316.4	3
316.5	4
316.6	7
316.7	11
316.8	18
316.9	27
317.0	38
317.1	48
317.2	54
317.3	56
317.4	49
317.5	32
317.6	12
317.7	0
334.2	1
334.3	2
334.4	4
334.5	5
334.6	5
334.7	10
334.8	22
334.9	44
335.0	69
335.1	89
335.2	99
335.3	98
335.4	80
335.5	48
335.6	16
335.7	0
369.6	2
369.7	4
369.8	10
369.9	20
370.0	32
370.1	46
370.2	58
370.3	63
370.4	57
370.5	40
370.6	18
370.7	3
