Mass spectrum: oreoselone; LC-ESI-QQQ; MS2; Frag=135.0V CID@5.0; [M+H]+
Name: oreoselone
Class: Benzopyranoids
Formula: C14H12O4
Exact mass: 244.2493
SMILES: CC(C)C1Oc2cc3oc(=O)ccc3cc2C1=O
InChI: InChI=1S/C14H12O4/c1-7(2)14-13(16)9-5-8-3-4-12(15)17-10(8)6-11(9)18-14/h3-7,14H,1-2H3
Instrument: Agilent 6410 Triple Quadrupole LC/MS system
Instrument type: LC-ESI-QQQ
Ms type: MS2
Ion mode: POSITIVE
Precursor type: [M+H]+
m/z	relative intensity
188.4	1
188.5	2
188.6	4
188.7	6
188.8	9
188.9	12
189.0	15
189.1	16
189.2	14
189.3	11
189.4	6
189.5	2
244.2	0
244.3	1
244.4	4
244.5	10
244.6	19
244.7	30
244.8	47
244.9	69
245.0	89
245.1	99
245.2	97
245.3	84
245.4	63
245.5	37
245.6	13
245.7	0
