Mass spectrum: Clarithromycin; LC-ESI-QQQ; MS2; Frag=135.0V CID@15.0; [M+H]+
Name: Clarithromycin
Class: Polyketides
Formula: C38H69NO13
Exact mass: 747.9725
SMILES: CC[C@H]1OC(=O)[C@H](C)[C@@H](O[C@H]2C[C@@](C)(OC)[C@@H](O)[C@H](C)O2)[C@H](C)[C@@H](O[C@@H]2O[C@H](C)C[C@H](N(C)C)[C@H]2O)[C@](C)(OC)C[C@@H](C)C(=O)[C@H](C)[C@@H](O)[C@]1(C)O
InChI: InChI=1S/C38H69NO13/c1-15-26-38(10,45)31(42)21(4)28(40)19(2)17-37(9,47-14)33(52-35-29(41)25(39(11)12)16-20(3)48-35)22(5)30(23(6)34(44)50-26)51-27-18-36(8,46-13)32(43)24(7)49-27/h19-27,29-33,35,41-43,45H,15-18H2,1-14H3/t19-,20-,21+,22+,23-,24+,25+,26-,27+,29-,30+,31-,32+,33-,35+,36-,37-,38-/m1/s1
Instrument: Agilent 6410 Triple Quadrupole LC/MS system
Instrument type: LC-ESI-QQQ
Ms type: MS2
Ion mode: POSITIVE
Precursor type: [M+H]+
m/z	relative intensity
115.6	2
115.7	4
115.8	6
115.9	7
116.0	8
116.1	8
116.2	6
116.3	4
116.4	2
157.1	0
157.2	2
157.3	5
157.4	10
157.5	18
157.6	28
157.7	43
157.8	61
157.9	81
158.0	96
158.1	99
158.2	91
158.3	74
158.4	50
158.5	27
158.6	8
158.7	0
557.6	1
557.7	3
557.8	4
557.9	6
558.0	9
558.1	11
558.2	12
558.3	11
558.4	10
558.5	7
558.6	3
558.7	1
589.3	1
589.4	2
589.5	5
589.6	9
589.7	14
589.8	22
589.9	33
590.0	48
590.1	63
590.2	72
590.3	72
590.4	64
590.5	47
590.6	28
590.7	11
590.8	1
747.4	1
747.5	2
747.6	4
747.7	7
747.8	11
747.9	16
748.0	22
748.1	29
748.2	35
748.3	39
748.4	40
748.5	37
748.6	30
748.7	19
748.8	8
748.9	1
