Mass spectrum: germbudine or neogermbudine; LC-ESI-QQQ; MS2; Frag=135.0V CID@15.0; [M+H]+
Name: germbudine or neogermbudine
Class: Alkaloids
Formula: C37H59NO12
Exact mass: 709.8823
SMILES: CCC(C)C(=O)O[C@H]1C(O)[C@H]2C(CN3CC(C)CC[C@H]3[C@@]2(C)O)[C@@H]2C[C@]34O[C@]5(O)C(OC(=O)C(C)(O)C(C)O)CCC3(C)C5C[C@@H](O)C4[C@@]21O
InChI: InChI=1S/C37H59NO12/c1-8-18(3)30(42)49-29-27(41)26-20(16-38-15-17(2)9-10-24(38)34(26,7)45)21-14-35-28(36(21,29)46)22(40)13-23-32(35,5)12-11-25(37(23,47)50-35)48-31(43)33(6,44)19(4)39/h17-29,39-41,44-47H,8-16H2,1-7H3/t17?,18?,19?,20?,21-,22+,23?,24-,25?,26+,27?,28?,29-,32?,33?,34+,35+,36-,37-/m0/s1
Instrument: Agilent 6410 Triple Quadrupole LC/MS system
Instrument type: LC-ESI-QQQ
Ms type: MS2
Ion mode: POSITIVE
Precursor type: [M+H]+
m/z	relative intensity
709.2	1
709.3	2
709.4	4
709.5	8
709.6	14
709.7	23
709.8	35
709.9	52
710.0	71
710.1	88
710.2	99
710.3	99
710.4	89
710.5	69
710.6	44
710.7	21
710.8	5
710.9	0
