Mass spectrum: alloyohimbine; LC-ESI-QQQ; MS2; Frag=135.0V CID@10.0; [M+H]+
Name: alloyohimbine
Class: Alkaloids
Formula: C21H26N2O3
Exact mass: 354.453
SMILES: COC(=O)[C@H]1[C@@H](O)CC[C@@H]2CN3CCc4c([nH]c5ccccc45)[C@@H]3C[C@@H]21
InChI: InChI=1S/C21H26N2O3/c1-26-21(25)19-15-10-17-20-14(13-4-2-3-5-16(13)22-20)8-9-23(17)11-12(15)6-7-18(19)24/h2-5,12,15,17-19,22,24H,6-11H2,1H3/t12-,15+,17+,18+,19-/m1/s1
Instrument: Agilent 6410 Triple Quadrupole LC/MS system
Instrument type: LC-ESI-QQQ
Ms type: MS2
Ion mode: POSITIVE
Precursor type: [M+H]+
m/z	relative intensity
354.4	0
354.5	3
354.6	7
354.7	15
354.8	26
354.9	43
355.0	64
355.1	83
355.2	96
355.3	99
355.4	92
355.5	72
355.6	43
355.7	16
355.8	0
