Mass spectrum: cycloanthranilylproline; LC-ESI-QQQ; MS2; Frag=135.0V CID@15.0; [M+H]+
Name: cycloanthranilylproline
Class: Polycyclic aromatic natural products
Formula: C12H12N2O2
Exact mass: 216.2416
SMILES: O=C1c2ccccc2N=C(O)[C@@H]2CCCN12
InChI: InChI=1S/C12H12N2O2/c15-11-10-6-3-7-14(10)12(16)8-4-1-2-5-9(8)13-11/h1-2,4-5,10H,3,6-7H2,(H,13,15)/t10-/m0/s1
Instrument: Agilent 6410 Triple Quadrupole LC/MS system
Instrument type: LC-ESI-QQQ
Ms type: MS2
Ion mode: POSITIVE
Precursor type: [M+H]+
m/z	relative intensity
69.4	1
69.5	3
69.6	6
69.7	10
69.8	15
69.9	21
70.0	26
70.1	29
70.2	27
70.3	23
70.4	17
70.5	9
70.6	2
147.7	2
147.8	3
147.9	5
148.0	6
148.1	6
148.2	6
148.3	5
148.4	3
216.2	0
216.3	1
216.4	4
216.5	9
216.6	18
216.7	30
216.8	47
216.9	67
217.0	86
217.1	97
217.2	99
217.3	93
217.4	76
217.5	51
217.6	23
217.7	3
