Mass spectrum: turkesterone; LC-ESI-QQQ; MS2; Frag=135.0V CID@25.0; [M+HOO]-
Name: turkesterone
Class: Steroids
Formula: C27H44O8
Exact mass: 496.6469
SMILES: CC(C)(O)CC[C@H](O)[C@](C)(O)C1CC[C@@]2(O)C3=CC(=O)C4CC(O)C(O)C[C@]4(C)C3[C@H](O)C[C@]12C
InChI: InChI=1S/C27H44O8/c1-23(2,33)8-7-21(32)26(5,34)20-6-9-27(35)15-11-16(28)14-10-17(29)18(30)12-24(14,3)22(15)19(31)13-25(20,27)4/h11,14,17-22,29-35H,6-10,12-13H2,1-5H3/t14?,17?,18?,19-,20?,21+,22?,24+,25-,26-,27-/m1/s1
Instrument: Agilent 6410 Triple Quadrupole LC/MS system
Instrument type: LC-ESI-QQQ
Ms type: MS2
Ion mode: NEGATIVE
Precursor type: [M+HOO]-
m/z	relative intensity
82.3	1
82.4	3
82.5	10
82.6	20
82.7	28
82.8	32
82.9	29
83.0	23
83.1	15
83.2	8
83.3	2
84.7	2
84.8	3
84.9	5
85.0	5
85.1	4
85.2	2
158.5	2
158.6	4
158.7	7
158.8	11
158.9	13
159.0	14
159.1	11
159.2	7
159.3	4
159.4	3
220.7	0
220.8	1
220.9	4
221.0	8
221.1	9
221.2	7
221.3	3
238.4	0
238.5	3
238.6	11
238.7	22
238.8	30
238.9	35
239.0	43
239.1	57
239.2	64
239.3	50
239.4	24
239.5	4
250.1	0
250.2	2
250.3	4
250.4	9
250.5	14
250.6	20
250.7	30
250.8	45
250.9	66
251.0	87
251.1	99
251.2	94
251.3	72
251.4	44
251.5	19
251.6	4
316.4	1
316.5	2
316.6	5
316.7	8
316.8	11
316.9	15
317.0	18
317.1	18
317.2	14
317.3	10
317.4	7
317.5	5
317.6	3
334.3	1
334.4	2
334.5	4
334.6	6
334.7	9
334.8	15
334.9	22
335.0	28
335.1	31
335.2	28
335.3	21
335.4	12
335.5	6
335.6	1
476.4	0
476.5	2
476.6	6
476.7	10
476.8	12
476.9	13
477.0	15
477.1	21
477.2	27
477.3	31
477.4	27
477.5	17
477.6	6
477.7	1
