Mass spectrum: Convolicine; LC-ESI-QQQ; MS2; Frag=135.0V CID@25.0; [M+H]+
Name: Convolicine
Class: Alkaloids
Formula: C18H23NO5
Exact mass: 333.3877
SMILES: COc1ccc(C(=O)OC2CC3CCC(C2)N3C(C)=O)cc1OC
InChI: InChI=1S/C18H23NO5/c1-11(20)19-13-5-6-14(19)10-15(9-13)24-18(21)12-4-7-16(22-2)17(8-12)23-3/h4,7-8,13-15H,5-6,9-10H2,1-3H3
Instrument: Agilent 6410 Triple Quadrupole LC/MS system
Instrument type: LC-ESI-QQQ
Ms type: MS2
Ion mode: POSITIVE
Precursor type: [M+H]+
m/z	relative intensity
59.6	2
59.7	3
59.8	4
59.9	6
60.0	8
60.1	8
60.2	7
60.3	6
60.4	4
60.5	2
92.5	1
92.6	3
92.7	6
92.8	10
92.9	14
93.0	17
93.1	17
93.2	16
93.3	14
93.4	10
93.5	6
93.6	2
109.3	1
109.4	3
109.5	7
109.6	15
109.7	29
109.8	48
109.9	70
110.0	89
110.1	99
110.2	98
110.3	87
110.4	67
110.5	41
110.6	17
110.7	2
151.5	1
151.6	3
151.7	7
151.8	11
151.9	16
152.0	21
152.1	24
152.2	24
152.3	21
152.4	17
152.5	11
152.6	4
152.7	0
