Mass spectrum: 7-O-acetyldaphnoretin; LC-ESI-QQQ; MS2; Frag=135.0V CID@10.0; [M+H]+
Name: 7-O-acetyldaphnoretin
Class: Benzopyranoids
Formula: C21H14O8
Exact mass: 394.3409
SMILES: COc1cc2cc(Oc3ccc4ccc(=O)oc4c3)c(=O)oc2cc1OC(C)=O
InChI: InChI=1S/C21H14O8/c1-11(22)26-18-10-16-13(7-17(18)25-2)8-19(21(24)29-16)27-14-5-3-12-4-6-20(23)28-15(12)9-14/h3-10H,1-2H3
Instrument: Agilent 6410 Triple Quadrupole LC/MS system
Instrument type: LC-ESI-QQQ
Ms type: MS2
Ion mode: POSITIVE
Precursor type: [M+H]+
m/z	relative intensity
352.2	0
352.3	2
352.4	6
352.5	13
352.6	23
352.7	36
352.8	53
352.9	73
353.0	91
353.1	99
353.2	96
353.3	79
353.4	52
353.5	23
353.6	3
394.2	0
394.3	1
394.4	4
394.5	7
394.6	13
394.7	22
394.8	35
394.9	48
395.0	58
395.1	62
395.2	59
395.3	49
395.4	34
395.5	17
395.6	3
