Mass spectrum: Clarithromycin; LC-ESI-QQQ; MS2; Frag=135.0V CID@15.0; [M+HCOO]-
Name: Clarithromycin
Class: Polyketides
Formula: C38H69NO13
Exact mass: 747.9725
SMILES: CC[C@H]1OC(=O)[C@H](C)[C@@H](O[C@H]2C[C@@](C)(OC)[C@@H](O)[C@H](C)O2)[C@H](C)[C@@H](O[C@@H]2O[C@H](C)C[C@H](N(C)C)[C@H]2O)[C@](C)(OC)C[C@@H](C)C(=O)[C@H](C)[C@@H](O)[C@]1(C)O
InChI: InChI=1S/C38H69NO13/c1-15-26-38(10,45)31(42)21(4)28(40)19(2)17-37(9,47-14)33(52-35-29(41)25(39(11)12)16-20(3)48-35)22(5)30(23(6)34(44)50-26)51-27-18-36(8,46-13)32(43)24(7)49-27/h19-27,29-33,35,41-43,45H,15-18H2,1-14H3/t19-,20-,21+,22+,23-,24+,25+,26-,27+,29-,30+,31-,32+,33-,35+,36-,37-,38-/m1/s1
Instrument: Agilent 6410 Triple Quadrupole LC/MS system
Instrument type: LC-ESI-QQQ
Ms type: MS2
Ion mode: NEGATIVE
Precursor type: [M+HCOO]-
m/z	relative intensity
173.3	3
173.4	4
173.5	7
173.6	12
173.7	17
173.8	18
173.9	14
174.0	7
174.1	2
280.0	2
280.1	4
280.2	5
280.3	6
280.4	7
280.5	9
280.6	16
280.7	27
280.8	37
280.9	42
281.0	40
281.1	37
281.2	35
281.3	31
281.4	22
281.5	9
281.6	1
336.1	2
336.2	4
336.3	6
336.4	10
336.5	12
336.6	14
336.7	16
336.8	18
336.9	18
337.0	17
337.1	13
337.2	9
337.3	6
337.4	4
394.6	4
394.7	5
394.8	8
394.9	9
395.0	10
395.1	10
395.2	9
395.3	6
395.4	3
569.4	2
569.5	3
569.6	7
569.7	13
569.8	20
569.9	25
570.0	25
570.1	25
570.2	31
570.3	47
570.4	60
570.5	58
570.6	39
570.7	15
570.8	1
745.2	2
745.3	4
745.4	7
745.5	10
745.6	14
745.7	18
745.8	25
745.9	37
746.0	54
746.1	75
746.2	95
746.3	98
746.4	79
746.5	46
746.6	19
746.7	9
746.8	6
746.9	3
