Mass spectrum: epicatechin; LC-ESI-QQQ; MS2; Frag=135.0V CID@15.0; [M+H]+
Name: EpCt-pl
Name: ent-Epicatechin
Name: Epicatechol
Name: (+)-3,3',4',5,7-Pentahydroxyflavan
Name: (2S,3S)-(+)-Epicatechin / EpCt-mi
Name: (-)-3,3',4',5,7-Pentahydroxyflavan
Name: (2R,3R)-(-)-Epicatechin
Name: epicatechin
Class: Flavonoids
Formula: C15H14O6
Exact mass: 290.2752
SMILES: C1C(C(OC2=CC(=CC(=C21)O)O)C3=CC(=C(C=C3)O)O)O
InChI: InChI=1S/C15H14O6/c16-8-4-11(18)9-6-13(20)15(21-14(9)5-8)7-1-2-10(17)12(19)3-7/h1-5,13,15-20H,6H2
Instrument: Agilent 6410 Triple Quadrupole LC/MS system
Instrument type: LC-ESI-QQQ
Ms type: MS2
Ion mode: POSITIVE
Precursor type: [M+H]+
m/z	relative intensity
122.2	0
122.3	2
122.4	5
122.5	8
122.6	12
122.7	18
122.8	26
122.9	36
123.0	45
123.1	50
123.2	49
123.3	41
123.4	28
123.5	13
123.6	3
138.2	0
138.3	2
138.4	7
138.5	16
138.6	29
138.7	46
138.8	66
138.9	86
139.0	98
139.1	99
139.2	92
139.3	75
139.4	51
139.5	25
139.6	5
139.7	0
146.3	0
146.4	2
146.5	4
146.6	8
146.7	12
146.8	16
146.9	19
147.0	21
147.1	23
147.2	22
147.3	18
147.4	11
147.5	4
147.6	0
160.8	2
160.9	3
161.0	5
161.1	6
161.2	6
161.3	5
161.4	4
161.5	2
164.5	2
164.6	3
164.7	5
164.8	8
164.9	12
165.0	15
165.1	17
165.2	16
165.3	14
165.4	9
165.5	3
206.6	2
206.7	4
206.8	7
206.9	10
207.0	12
207.1	13
207.2	13
207.3	11
207.4	7
207.5	3
207.6	1
