Mass spectrum: 8-Hydroxy-13,14,15,16-tetranor-12-labdanoic acid; LC-ESI-QQQ; MS2; Frag=135.0V CID@10.0; [M+H]+
Name: 8-Hydroxy-13,14,15,16-tetranor-12-labdanoic acid
Class: Terpenoids
Formula: C16H28O3
Exact mass: 268.3998
SMILES: CC1(C)CCC[C@@]2(C)C1CC[C@@](C)(O)C2CC(=O)O
InChI: InChI=1S/C16H28O3/c1-14(2)7-5-8-15(3)11(14)6-9-16(4,19)12(15)10-13(17)18/h11-12,19H,5-10H2,1-4H3,(H,17,18)/t11?,12?,15-,16+/m0/s1
Instrument: Agilent 6410 Triple Quadrupole LC/MS system
Instrument type: LC-ESI-QQQ
Ms type: MS2
Ion mode: POSITIVE
Precursor type: [M+H]+
m/z	relative intensity
191.0	3
191.1	5
191.2	7
191.3	8
191.4	7
191.5	9
191.6	24
191.7	55
191.8	85
191.9	97
192.0	86
192.1	63
192.2	43
192.3	27
192.4	15
192.5	6
233.4	1
233.5	4
233.6	10
233.7	15
233.8	16
233.9	13
234.0	11
234.1	15
234.2	20
234.3	20
234.4	14
234.5	5
251.4	2
251.5	6
251.6	12
251.7	20
251.8	29
251.9	42
252.0	56
252.1	62
252.2	54
252.3	34
252.4	15
252.5	6
268.5	2
268.6	4
268.7	10
268.8	15
268.9	15
269.0	10
269.1	4
