Mass spectrum: Skimmianine; LC-ESI-QQQ; MS2; Frag=135.0V CID@10.0; [M+H]+
Name: Skimmianine
Class: Alkaloids
Formula: C14H13NO4
Exact mass: 259.264
SMILES: COc1ccc2c(OC)c3ccoc3nc2c1OC
InChI: InChI=1S/C14H13NO4/c1-16-10-5-4-8-11(13(10)18-3)15-14-9(6-7-19-14)12(8)17-2/h4-7H,1-3H3
Instrument: Agilent 6410 Triple Quadrupole LC/MS system
Instrument type: LC-ESI-QQQ
Ms type: MS2
Ion mode: POSITIVE
Precursor type: [M+H]+
m/z	relative intensity
226.5	1
226.6	2
226.7	4
226.8	7
226.9	11
227.0	13
227.1	13
227.2	12
227.3	10
227.4	6
227.5	3
244.7	2
244.8	4
244.9	6
245.0	8
245.1	9
245.2	9
245.3	7
245.4	4
245.5	1
259.2	0
259.3	2
259.4	6
259.5	10
259.6	16
259.7	27
259.8	45
259.9	69
260.0	89
260.1	99
260.2	96
260.3	80
260.4	57
260.5	31
260.6	10
260.7	0
