Mass spectrum: 7-Dehydroxy-4-demethylpodophyllotoxin; LC-ESI-QQQ; MS2; Frag=135.0V CID@10.0; [M+H]+
Name: 7-Dehydroxy-4-demethylpodophyllotoxin
Class: Polycyclic aromatic natural products
Formula: C21H20O7
Exact mass: 384.3894
SMILES: COc1cc([C@@H]2c3cc4c(cc3C[C@H]3COC(=O)[C@@H]32)OCO4)cc(OC)c1O
InChI: InChI=1S/C21H20O7/c1-24-16-5-11(6-17(25-2)20(16)22)18-13-7-15-14(27-9-28-15)4-10(13)3-12-8-26-21(23)19(12)18/h4-7,12,18-19,22H,3,8-9H2,1-2H3/t12-,18+,19-/m0/s1
Instrument: Agilent 6410 Triple Quadrupole LC/MS system
Instrument type: LC-ESI-QQQ
Ms type: MS2
Ion mode: POSITIVE
Precursor type: [M+H]+
m/z	relative intensity
300.4	1
300.5	2
300.6	5
300.7	8
300.8	12
300.9	14
301.0	13
301.1	12
301.2	12
301.3	10
301.4	7
301.5	3
334.4	1
334.5	2
334.6	4
334.7	6
334.8	5
338.7	1
338.8	2
338.9	5
339.0	8
339.1	8
339.2	5
339.3	2
366.9	2
367.0	3
367.1	5
367.2	6
367.3	5
367.4	3
384.3	0
384.4	4
384.5	14
384.6	28
384.7	43
384.8	56
384.9	66
385.0	75
385.1	87
385.2	99
385.3	99
385.4	78
385.5	42
385.6	11
385.7	0
