Mass spectrum: Ajugalide E; LC-ESI-QQQ; MS2; Frag=135.0V CID@5.0; [M+H]+
Name: Ajugalide E
Class: Terpenoids
Formula: C31H46O9
Exact mass: 562.7069
SMILES: CC(=O)O[C@H](CC1C(C)OC(=O)C1C)[C@](C)(O)C1CC[C@@]2(O)C3=CC(=O)[C@@H]4C[C@@H](O)C(O)C[C@]4(C)C3CC[C@]12C
InChI: InChI=1S/C31H46O9/c1-15-18(16(2)39-27(15)36)11-26(40-17(3)32)30(6,37)25-8-10-31(38)20-12-22(33)21-13-23(34)24(35)14-28(21,4)19(20)7-9-29(25,31)5/h12,15-16,18-19,21,23-26,34-35,37-38H,7-11,13-14H2,1-6H3/t15?,16?,18?,19?,21-,23+,24?,25?,26+,28+,29+,30+,31+/m0/s1
Instrument: Agilent 6410 Triple Quadrupole LC/MS system
Instrument type: LC-ESI-QQQ
Ms type: MS2
Ion mode: POSITIVE
Precursor type: [M+H]+
m/z	relative intensity
302.4	1
302.5	2
302.6	4
302.7	6
302.8	11
302.9	18
303.0	26
303.1	33
303.2	36
303.3	34
303.4	26
303.5	14
303.6	4
303.7	0
448.7	2
448.8	4
448.9	6
449.0	9
449.1	11
449.2	13
449.3	12
449.4	10
449.5	6
449.6	2
466.5	0
466.6	2
466.7	3
466.8	5
466.9	7
467.0	8
467.1	9
467.2	10
467.3	11
467.4	10
467.5	8
467.6	5
467.7	1
484.8	2
484.9	3
485.0	5
485.1	6
485.2	7
485.3	8
485.4	7
485.5	4
485.6	2
526.8	1
526.9	3
527.0	6
527.1	9
527.2	9
527.3	7
527.4	5
527.5	3
544.3	0
544.4	2
544.5	5
544.6	9
544.7	14
544.8	23
544.9	39
545.0	59
545.1	76
545.2	86
545.3	90
545.4	88
545.5	75
545.6	51
545.7	23
545.8	4
545.9	0
562.3	1
562.4	3
562.5	6
562.6	10
562.7	17
562.8	29
562.9	47
563.0	69
563.1	87
563.2	97
563.3	99
563.4	99
563.5	92
563.6	72
563.7	40
563.8	11
563.9	0
