Mass spectrum: N-succinoylanthranilic acid; LC-ESI-QQQ; MS2; Frag=135.0V CID@25.0; [M+H]+
Name: N-succinoylanthranilic acid
Class: Polycyclic aromatic natural products
Formula: C11H11NO5
Exact mass: 237.214
SMILES: O=C(O)CCC(O)=Nc1ccccc1C(=O)O
InChI: InChI=1S/C11H11NO5/c13-9(5-6-10(14)15)12-8-4-2-1-3-7(8)11(16)17/h1-4H,5-6H2,(H,12,13)(H,14,15)(H,16,17)
Instrument: Agilent 6410 Triple Quadrupole LC/MS system
Instrument type: LC-ESI-QQQ
Ms type: MS2
Ion mode: POSITIVE
Precursor type: [M+H]+
m/z	relative intensity
54.4	1
54.5	2
54.6	5
54.7	11
54.8	17
54.9	21
55.0	22
55.1	21
55.2	17
55.3	11
55.4	5
55.5	1
72.3	1
72.4	3
72.5	7
72.6	12
72.7	19
72.8	27
72.9	34
73.0	38
73.1	39
73.2	35
73.3	26
73.4	14
73.5	4
91.3	1
91.4	2
91.5	4
91.6	4
91.7	6
91.8	9
91.9	15
92.0	19
92.1	19
92.2	14
92.3	8
92.4	3
100.2	1
100.3	3
100.4	4
100.5	5
100.6	6
100.7	7
100.8	9
100.9	14
101.0	18
101.1	20
101.2	18
101.3	13
101.4	6
101.5	1
119.1	0
119.2	2
119.3	4
119.4	11
119.5	22
119.6	38
119.7	59
119.8	79
119.9	94
120.0	99
120.1	95
120.2	83
120.3	64
120.4	42
120.5	19
120.6	4
173.4	1
173.5	3
173.6	6
173.7	9
173.8	11
173.9	13
174.0	17
174.1	21
174.2	22
174.3	17
174.4	9
174.5	3
