Mass spectrum: N-succinoylanthranilic acid; LC-ESI-QQQ; MS2; Frag=135.0V CID@15.0; [M+H]+
Name: N-succinoylanthranilic acid
Class: Polycyclic aromatic natural products
Formula: C11H11NO5
Exact mass: 237.214
SMILES: O=C(O)CCC(O)=Nc1ccccc1C(=O)O
InChI: InChI=1S/C11H11NO5/c13-9(5-6-10(14)15)12-8-4-2-1-3-7(8)11(16)17/h1-4H,5-6H2,(H,12,13)(H,14,15)(H,16,17)
Instrument: Agilent 6410 Triple Quadrupole LC/MS system
Instrument type: LC-ESI-QQQ
Ms type: MS2
Ion mode: POSITIVE
Precursor type: [M+H]+
m/z	relative intensity
54.5	1
54.6	3
54.7	4
54.8	6
54.9	7
55.0	7
55.1	6
55.2	3
72.5	2
72.6	3
72.7	5
72.8	7
72.9	9
73.0	10
73.1	11
73.2	11
73.3	9
73.4	6
73.5	2
100.5	3
100.6	6
100.7	12
100.8	20
100.9	27
101.0	30
101.1	30
101.2	26
101.3	19
101.4	10
101.5	3
119.0	1
119.1	2
119.2	4
119.3	8
119.4	12
119.5	16
119.6	25
119.7	43
119.8	66
119.9	86
120.0	98
120.1	99
120.2	91
120.3	75
120.4	51
120.5	26
120.6	6
120.7	0
173.4	2
173.5	3
173.6	4
173.7	5
173.8	6
173.9	6
174.0	6
174.1	7
174.2	7
174.3	5
174.4	2
201.5	1
201.6	3
201.7	6
201.8	11
201.9	20
202.0	28
202.1	30
202.2	24
202.3	14
202.4	5
202.5	0
