Mass spectrum: Dihydrosamidin; LC-ESI-QQQ; MS; [M+H]+
Name: Dihydrosamidin
Class: Benzopyranoids
Formula: C21H24O7
Exact mass: 388.4212
SMILES: CC(=O)OC1c2c(ccc3ccc(=O)oc23)OC(C)(C)C1OC(=O)CC(C)C
InChI: InChI=1S/C21H24O7/c1-11(2)10-16(24)27-20-19(25-12(3)22)17-14(28-21(20,4)5)8-6-13-7-9-15(23)26-18(13)17/h6-9,11,19-20H,10H2,1-5H3
Instrument: ABSciex API3200 LC/MS system
Instrument type: LC-ESI-QQQ
Ms type: MS
Ion mode: POSITIVE
Precursor type: [M+H]+
m/z	relative intensity
174.4000	21
174.5000	29
174.6000	37
174.7000	38
174.8000	38
174.9000	36
175.0000	32
175.1000	33
175.2000	29
175.3000	27
216.9000	22
226.3000	39
226.4000	140
226.5000	225
226.6000	272
226.7000	265
226.8000	278
226.9000	294
227.0000	268
227.1000	270
227.2000	250
227.3000	243
227.4000	173
227.5000	70
227.6000	58
227.7000	55
227.8000	60
227.9000	49
228.0000	46
228.1000	41
228.2000	41
228.3000	40
228.4000	31
244.3000	51
244.4000	374
244.5000	605
244.6000	674
244.7000	698
244.8000	763
244.9000	732
245.0000	733
245.1000	653
245.2000	604
245.3000	566
245.4000	469
245.5000	232
245.6000	172
245.7000	140
245.8000	143
245.9000	145
246.0000	145
246.1000	143
246.2000	139
246.3000	126
246.4000	100
246.5000	41
246.6000	33
246.9000	23
328.3000	51
328.4000	348
328.5000	750
328.6000	962
328.7000	999
328.8000	995
328.9000	968
329.0000	977
329.1000	923
329.2000	885
329.3000	874
329.4000	714
329.5000	371
329.6000	396
329.7000	364
329.8000	320
329.9000	333
330.0000	327
330.1000	325
330.2000	305
330.3000	268
330.4000	228
330.5000	106
330.6000	88
330.7000	75
330.8000	82
330.9000	75
331.0000	61
331.1000	60
331.2000	57
331.3000	51
331.4000	39
388.6000	27
388.7000	30
388.8000	30
388.9000	34
389.0000	33
389.1000	31
389.2000	31
389.3000	27
405.4000	79
405.5000	202
405.6000	254
405.7000	289
405.8000	300
405.9000	300
406.0000	292
406.1000	279
406.2000	273
406.3000	246
406.4000	200
406.5000	116
406.6000	109
406.7000	85
406.8000	73
406.9000	72
407.0000	71
407.1000	71
407.2000	70
407.3000	66
407.4000	57
716.8000	21
716.9000	22
717.1000	22
776.5000	29
776.6000	34
776.7000	34
776.8000	37
776.9000	36
777.0000	38
777.1000	39
777.2000	30
777.3000	26
777.9000	21
793.4000	27
793.5000	35
793.6000	41
793.7000	43
793.8000	46
793.9000	43
794.0000	52
794.1000	44
794.2000	41
794.3000	30
794.7000	22
794.8000	21
794.9000	21
795.0000	23
