Mass spectrum: Spirosol-5-en-3-ol; LC-ESI-QQQ; MS; [M+H]+
Name: Spirosol-5-en-3-ol
Class: Alkaloids
Formula: C27H43NO2
Exact mass: 413.6493
SMILES: CC1CC[C@@]2(NC1)O[C@H]1C[C@H]3[C@@H]4CC=C5CC(O)CC[C@]5(C)C4CC[C@]3(C)[C@H]1[C@@H]2C
InChI: InChI=1S/C27H43NO2/c1-16-7-12-27(28-15-16)17(2)24-23(30-27)14-22-20-6-5-18-13-19(29)8-10-25(18,3)21(20)9-11-26(22,24)4/h5,16-17,19-24,28-29H,6-15H2,1-4H3/t16?,17-,19?,20+,21?,22-,23-,24-,25-,26-,27+/m0/s1
Instrument: ABSciex API3200 LC/MS system
Instrument type: LC-ESI-QQQ
Ms type: MS
Ion mode: POSITIVE
Precursor type: [M+H]+
m/z	relative intensity
252.9000	28
270.7000	21
270.8000	24
270.9000	26
271.0000	28
271.1000	34
271.2000	25
271.3000	22
271.4000	21
271.5000	21
395.7000	26
395.8000	32
395.9000	44
396.0000	63
396.1000	38
396.2000	38
396.3000	39
396.4000	36
396.5000	36
396.6000	22
413.4000	69
413.5000	398
413.6000	776
413.7000	915
413.8000	933
413.9000	974
414.0000	999
414.1000	973
414.2000	973
414.3000	981
414.4000	944
414.5000	953
414.6000	783
414.7000	599
414.8000	603
414.9000	623
415.0000	636
415.1000	656
415.2000	645
415.3000	669
415.4000	609
415.5000	571
415.6000	368
415.7000	245
415.8000	234
415.9000	235
416.0000	243
416.1000	207
416.2000	211
416.3000	201
416.4000	191
416.5000	184
416.6000	99
416.7000	50
416.8000	36
416.9000	32
417.0000	28
417.1000	26
417.2000	27
417.3000	28
417.4000	27
417.5000	22
454.7000	22
454.8000	27
454.9000	27
455.0000	27
455.1000	29
455.2000	31
455.3000	38
455.4000	33
455.5000	30
