Mass spectrum: Convoline; LC-ESI-QQQ; MS2; Frag=135.0V CID@25.0; [M+H]+
Name: Convoline
Class: Alkaloids
Formula: C16H21NO5
Exact mass: 307.3495
SMILES: COc1ccc(C(=O)OC2C[C@@H]3CC[C@H](C2)N3O)cc1OC
InChI: InChI=1S/C16H21NO5/c1-20-14-6-3-10(7-15(14)21-2)16(18)22-13-8-11-4-5-12(9-13)17(11)19/h3,6-7,11-13,19H,4-5,8-9H2,1-2H3/t11-,12+,13?
Instrument: Agilent 6410 Triple Quadrupole LC/MS system
Instrument type: LC-ESI-QQQ
Ms type: MS2
Ion mode: POSITIVE
Precursor type: [M+H]+
m/z	relative intensity
66.7	2
66.8	3
66.9	4
67.0	6
67.1	6
67.2	5
67.3	4
67.4	3
76.6	1
76.7	3
76.8	4
76.9	6
77.0	7
77.1	8
77.2	8
77.3	6
77.4	4
77.5	2
90.5	2
90.6	3
90.7	6
90.8	9
90.9	12
91.0	15
91.1	16
91.2	15
91.3	13
91.4	9
91.5	4
91.6	1
92.2	0
92.3	2
92.4	5
92.5	12
92.6	21
92.7	35
92.8	56
92.9	78
93.0	95
93.1	99
93.2	94
93.3	82
93.4	63
93.5	38
93.6	15
93.7	1
125.2	0
125.3	1
125.4	5
125.5	10
125.6	17
125.7	28
125.8	43
125.9	61
126.0	76
126.1	83
126.2	81
126.3	71
126.4	54
126.5	33
126.6	13
126.7	1
164.4	1
164.5	3
164.6	6
164.7	10
164.8	16
164.9	23
165.0	28
165.1	30
165.2	29
165.3	25
165.4	19
165.5	10
165.6	3
181.5	1
181.6	2
181.7	4
181.8	6
181.9	8
182.0	9
182.1	10
182.2	10
182.3	8
182.4	6
182.5	3
307.8	2
307.9	4
308.0	5
308.1	6
308.2	7
308.3	7
308.4	6
308.5	4
308.6	2
