Mass spectrum: Dihydroergocristine; LC-ESI-QQQ; MS; [M+H]+
Name: Dihydroergocristine
Class: Alkaloids
Formula: C35H41N5O5
Exact mass: 611.7475
SMILES: CC(C)[C@@]1(N=C(O)[C@@H]2C[C@@H]3c4cccc5[nH]cc(c45)C[C@H]3N(C)C2)O[C@@]2(O)[C@@H]3CCCN3C(=O)[C@H](Cc3ccccc3)N2C1=O
InChI: InChI=1S/C35H41N5O5/c1-20(2)34(37-31(41)23-16-25-24-11-7-12-26-30(24)22(18-36-26)17-27(25)38(3)19-23)33(43)40-28(15-21-9-5-4-6-10-21)32(42)39-14-8-13-29(39)35(40,44)45-34/h4-7,9-12,18,20,23,25,27-29,36,44H,8,13-17,19H2,1-3H3,(H,37,41)/t23-,25-,27-,28+,29+,34-,35+/m1/s1
Instrument: ABSciex API3200 LC/MS system
Instrument type: LC-ESI-QQQ
Ms type: MS
Ion mode: POSITIVE
Precursor type: [M+H]+
m/z	relative intensity
101.1000	25
101.2000	35
101.3000	36
101.4000	37
252.8000	24
252.9000	22
253.0000	23
253.1000	22
253.2000	21
269.5000	64
269.6000	109
269.7000	154
269.8000	152
269.9000	150
270.0000	175
270.1000	150
270.2000	142
270.3000	131
270.4000	116
270.5000	74
270.6000	36
270.7000	40
270.8000	28
270.9000	33
271.0000	34
271.1000	38
271.2000	39
271.3000	45
271.4000	24
349.6000	47
349.7000	44
349.8000	56
349.9000	57
350.0000	52
350.1000	55
350.2000	51
350.3000	45
350.4000	38
593.6000	26
593.7000	44
593.8000	51
593.9000	59
594.0000	53
594.1000	56
594.2000	58
594.3000	50
594.4000	44
594.9000	25
595.0000	21
595.1000	23
595.2000	23
595.3000	21
595.4000	22
611.4000	45
611.5000	159
611.6000	560
611.7000	867
611.8000	976
611.9000	997
612.0000	999
612.1000	922
612.2000	834
612.3000	770
612.4000	704
612.5000	287
612.6000	250
612.7000	361
612.8000	434
612.9000	472
613.0000	496
613.1000	468
613.2000	466
613.3000	417
613.4000	351
613.5000	142
613.6000	99
613.7000	119
613.8000	130
613.9000	168
614.0000	184
614.1000	146
614.2000	136
614.3000	119
614.4000	103
614.5000	40
614.6000	23
614.7000	26
614.8000	24
614.9000	25
615.0000	27
615.1000	25
615.2000	28
615.3000	21
615.4000	22
652.7000	22
652.8000	25
652.9000	28
653.0000	29
653.1000	22
653.2000	23
653.3000	21
661.8000	27
661.9000	25
662.1000	22
662.3000	21
