Mass spectrum: Boldine; LC-ESI-QQQ; MS2; Frag=135.0V CID@15.0; [M+H]+
Name: 2,9-Dihydroxy-1,10-dimethoxyaporphine
Name: 1,10-Dimethoxy-6aalpha-aporphine-2,9-diol
Name: 2,6-Dihydroxy-3,5-dimethoxyaporphin
Name: Boldine
Class: Alkaloids
Formula: C19H21NO4
Exact mass: 327.3835
SMILES: CN1CCC2=CC(=C(C3=C2[C@@H]1CC4=CC(=C(C=C43)OC)O)OC)O
InChI: InChI=1S/C19H21NO4/c1-20-5-4-10-7-15(22)19(24-3)18-12-9-16(23-2)14(21)8-11(12)6-13(20)17(10)18/h7-9,13,21-22H,4-6H2,1-3H3/t13-/m0/s1
Instrument: Agilent 6410 Triple Quadrupole LC/MS system
Instrument type: LC-ESI-QQQ
Ms type: MS2
Ion mode: POSITIVE
Precursor type: [M+H]+
m/z	relative intensity
236.6	2
236.7	3
236.8	6
236.9	9
237.0	12
237.1	13
237.2	13
237.3	11
237.4	8
237.5	4
237.6	1
264.2	1
264.3	2
264.4	5
264.5	9
264.6	16
264.7	28
264.8	48
264.9	72
265.0	91
265.1	99
265.2	95
265.3	79
265.4	55
265.5	29
265.6	8
265.7	0
296.4	2
296.5	3
296.6	5
296.7	10
296.8	17
296.9	27
297.0	35
297.1	40
297.2	40
297.3	36
297.4	28
297.5	17
297.6	6
297.7	0
327.6	1
327.7	2
327.8	5
327.9	8
328.0	11
328.1	14
328.2	14
328.3	13
328.4	10
328.5	6
328.6	2
