Mass spectrum: 20-Hydroxyecdysone 20,22-acetonide; LC-ESI-QQQ; MS2; Frag=135.0V CID@10.0; [M+H]+
Name: 20-Hydroxyecdysone 20,22-acetonide
Class: Steroids
Formula: C30H48O7
Exact mass: 520.7129
SMILES: CC(C)(O)CC[C@H]1OC(C)(C)O[C@]1(C)[C@H]1CC[C@@]2(O)C3=CC(=O)[C@@H]4C[C@@H](O)[C@@H](O)C[C@]4(C)[C@H]3CC[C@]12C
InChI: InChI=1S/C30H48O7/c1-25(2,34)11-10-24-29(7,37-26(3,4)36-24)23-9-13-30(35)18-14-20(31)19-15-21(32)22(33)16-27(19,5)17(18)8-12-28(23,30)6/h14,17,19,21-24,32-35H,8-13,15-16H2,1-7H3/t17-,19-,21+,22-,23-,24+,27+,28+,29+,30+/m0/s1
Instrument: Agilent 6410 Triple Quadrupole LC/MS system
Instrument type: LC-ESI-QQQ
Ms type: MS2
Ion mode: POSITIVE
Precursor type: [M+H]+
m/z	relative intensity
426.7	2
426.8	3
426.9	5
427.0	7
427.1	9
427.2	11
427.3	12
427.4	11
427.5	9
427.6	6
427.7	2
444.4	1
444.5	3
444.6	6
444.7	12
444.8	22
444.9	38
445.0	60
445.1	81
445.2	96
445.3	99
445.4	92
445.5	73
445.6	46
445.7	20
445.8	2
462.8	1
462.9	2
463.0	4
463.1	4
463.2	4
463.3	3
502.5	0
502.6	1
502.7	4
502.8	8
502.9	14
503.0	21
503.1	27
503.2	31
503.3	34
503.4	35
503.5	31
503.6	21
503.7	10
503.8	2
520.6	2
520.7	3
520.8	6
520.9	11
521.0	17
521.1	23
521.2	27
521.3	28
521.4	28
521.5	25
521.6	19
521.7	10
521.8	2
