Mass spectrum: Tavicone; LC-ESI-QQQ; MS2; Frag=135.0V CID@25.0; [M+H]+
Name: Tavicone
Class: Benzopyranoids
Formula: C23H26O4
Exact mass: 366.4613
SMILES: CC1=CCC2C(C)(C)C(=O)CC2(C)C1COc1ccc2ccc(=O)oc2c1
InChI: InChI=1S/C23H26O4/c1-14-5-9-19-22(2,3)20(24)12-23(19,4)17(14)13-26-16-8-6-15-7-10-21(25)27-18(15)11-16/h5-8,10-11,17,19H,9,12-13H2,1-4H3
Instrument: Agilent 6410 Triple Quadrupole LC/MS system
Instrument type: LC-ESI-QQQ
Ms type: MS2
Ion mode: POSITIVE
Precursor type: [M+H]+
m/z	relative intensity
118.6	1
118.7	3
118.8	5
118.9	7
119.0	8
119.1	8
119.2	7
119.3	6
119.4	4
119.5	1
120.5	1
120.6	2
120.7	5
120.8	9
120.9	15
121.0	18
121.1	18
121.2	16
121.3	13
121.4	9
121.5	6
121.6	2
132.7	2
132.8	3
132.9	5
133.0	7
133.1	8
133.2	9
133.3	8
133.4	5
133.5	2
144.5	2
144.6	4
144.7	7
144.8	12
144.9	18
145.0	20
145.1	20
145.2	18
145.3	15
145.4	11
145.5	6
145.6	2
146.6	1
146.7	3
146.8	6
146.9	10
147.0	12
147.1	12
147.2	10
147.3	7
147.4	4
147.5	1
158.7	1
158.8	3
158.9	5
159.0	7
159.1	7
159.2	6
159.3	4
159.4	2
162.1	1
162.2	2
162.3	4
162.4	6
162.5	12
162.6	23
162.7	40
162.8	60
162.9	81
163.0	95
163.1	99
163.2	95
163.3	79
163.4	54
163.5	25
163.6	4
172.9	1
173.0	3
173.1	4
173.2	4
173.3	3
186.5	1
186.6	2
186.7	4
186.8	9
186.9	14
187.0	18
187.1	20
187.2	19
187.3	17
187.4	14
187.5	9
187.6	4
