Mass spectrum: Meranzin; LC-ESI-QQQ; MS; [M+H]+
Name: Meranzin
Class: Benzopyranoids
Formula: C15H16O4
Exact mass: 260.2924
SMILES: COc1ccc2ccc(=O)oc2c1CC1OC1(C)C
InChI: InChI=1S/C15H16O4/c1-15(2)12(19-15)8-10-11(17-3)6-4-9-5-7-13(16)18-14(9)10/h4-7,12H,8H2,1-3H3
Instrument: ABSciex API3200 LC/MS system
Instrument type: LC-ESI-QQQ
Ms type: MS
Ion mode: POSITIVE
Precursor type: [M+H]+
m/z	relative intensity
102.5000	36
102.6000	51
102.7000	67
102.8000	60
102.9000	65
103.0000	62
103.1000	61
103.2000	55
103.3000	46
103.4000	43
130.4000	175
130.5000	331
130.6000	404
130.7000	425
130.8000	433
130.9000	433
131.0000	430
131.1000	406
131.2000	379
131.3000	344
131.4000	300
131.5000	137
131.6000	60
131.7000	54
131.8000	57
131.9000	62
132.0000	63
132.1000	53
132.2000	51
132.3000	45
132.4000	39
132.5000	25
158.4000	31
158.5000	48
158.6000	64
158.7000	75
158.8000	76
158.9000	69
159.0000	68
159.1000	61
159.2000	59
159.3000	47
159.4000	41
160.4000	33
160.5000	52
160.6000	58
160.7000	62
160.8000	61
160.9000	57
161.0000	56
161.1000	61
161.2000	59
161.3000	42
161.4000	40
188.2000	37
188.3000	309
188.4000	768
188.5000	930
188.6000	977
188.7000	999
188.8000	982
188.9000	984
189.0000	958
189.1000	906
189.2000	889
189.3000	840
189.4000	754
189.5000	410
189.6000	300
189.7000	280
189.8000	280
189.9000	292
190.0000	274
190.1000	265
190.2000	247
190.3000	216
190.4000	171
190.5000	67
190.6000	43
190.7000	38
190.8000	37
190.9000	35
191.0000	33
191.1000	35
191.2000	33
191.3000	29
191.4000	27
202.9000	22
218.5000	21
218.6000	28
218.7000	26
218.8000	31
218.9000	28
219.0000	29
219.1000	27
219.2000	26
219.3000	27
219.4000	25
244.3000	81
244.4000	404
244.5000	665
244.6000	740
244.7000	750
244.8000	770
244.9000	743
245.0000	725
245.1000	727
245.2000	696
245.3000	682
245.4000	634
245.5000	375
245.6000	299
245.7000	255
245.8000	232
245.9000	271
246.0000	246
246.1000	208
246.2000	188
246.3000	172
246.4000	162
246.5000	71
246.6000	48
246.7000	37
246.8000	30
246.9000	29
247.0000	31
247.1000	27
247.2000	29
247.3000	30
247.4000	24
