Mass spectrum: laudanosine; LC-ESI-QQQ; MS2; Frag=135.0V CID@5.0; [M+H]+
Name: Laudanoside
Name: N-Methyltetrahydropapaverine
Name: 6,7-Dimethoxy-2-methyl-1-veratryl-1,2,3,4-tetrahydroisoquinoline
Name: 1-((3,4-dimethoxyphenyl)methyl)-6,7-dimethoxy-2-methyl-1,2,3,4-tetrahydroisoquinoline
Name: laudanosine
Class: Alkaloids
Formula: C21H27NO4
Exact mass: 357.4536
SMILES: COc1ccc(CC2c3cc(OC)c(OC)cc3CCN2C)cc1OC
InChI: InChI=1S/C21H27NO4/c1-22-9-8-15-12-20(25-4)21(26-5)13-16(15)17(22)10-14-6-7-18(23-2)19(11-14)24-3/h6-7,11-13,17H,8-10H2,1-5H3
Instrument: Agilent 6410 Triple Quadrupole LC/MS system
Instrument type: LC-ESI-QQQ
Ms type: MS2
Ion mode: POSITIVE
Precursor type: [M+H]+
m/z	relative intensity
205.5	1
205.6	2
205.7	5
205.8	9
205.9	13
206.0	17
206.1	19
206.2	19
206.3	18
206.4	15
206.5	9
206.6	4
206.7	0
357.4	1
357.5	3
357.6	7
357.7	15
357.8	28
357.9	46
358.0	67
358.1	86
358.2	98
358.3	99
358.4	88
358.5	66
358.6	36
358.7	11
358.8	0
