Mass spectrum: Crustecdysone; LC-ESI-QQQ; MS2; Frag=135.0V CID@5.0; [M+H]+
Name: Crustecdysone
Class: Steroids
Formula: C27H44O7
Exact mass: 480.6475
SMILES: CC(C)(O)CC[C@@H](O)[C@](C)(O)[C@H]1CC[C@@]2(O)C3=CC(=O)[C@@H]4C[C@@H](O)[C@@H](O)C[C@]4(C)[C@H]3CC[C@]12C
InChI: InChI=1S/C27H44O7/c1-23(2,32)9-8-22(31)26(5,33)21-7-11-27(34)16-12-18(28)17-13-19(29)20(30)14-24(17,3)15(16)6-10-25(21,27)4/h12,15,17,19-22,29-34H,6-11,13-14H2,1-5H3/t15-,17-,19+,20-,21-,22+,24+,25+,26+,27+/m0/s1
Instrument: Agilent 6410 Triple Quadrupole LC/MS system
Instrument type: LC-ESI-QQQ
Ms type: MS2
Ion mode: POSITIVE
Precursor type: [M+H]+
m/z	relative intensity
302.5	1
302.6	2
302.7	3
302.8	5
302.9	7
303.0	10
303.1	12
303.2	12
303.3	11
303.4	8
303.5	5
303.6	2
370.3	0
370.4	2
370.5	4
370.6	8
370.7	13
370.8	21
370.9	33
371.0	46
371.1	58
371.2	65
371.3	64
371.4	56
371.5	40
371.6	21
371.7	5
371.8	0
426.6	0
426.7	2
426.8	4
426.9	8
427.0	13
427.1	17
427.2	18
427.3	16
427.4	12
427.5	7
427.6	3
444.3	0
444.4	1
444.5	4
444.6	7
444.7	12
444.8	21
444.9	34
445.0	51
445.1	68
445.2	83
445.3	89
445.4	83
445.5	65
445.6	40
445.7	16
445.8	2
462.6	2
462.7	3
462.8	5
462.9	9
463.0	16
463.1	21
463.2	26
463.3	28
463.4	27
463.5	21
463.6	12
463.7	4
463.8	0
480.3	1
480.4	2
480.5	4
480.6	8
480.7	13
480.8	20
480.9	31
481.0	48
481.1	68
481.2	88
481.3	99
481.4	99
481.5	86
481.6	62
481.7	33
481.8	9
481.9	0
