Mass spectrum: 20-Hydroxyecdysone 20,22-acetonide; LC-ESI-QQQ; MS2; Frag=135.0V CID@15.0; [M+H]+
Name: 20-Hydroxyecdysone 20,22-acetonide
Class: Steroids
Formula: C30H48O7
Exact mass: 520.7129
SMILES: CC(C)(O)CC[C@H]1OC(C)(C)O[C@]1(C)[C@H]1CC[C@@]2(O)C3=CC(=O)[C@@H]4C[C@@H](O)[C@@H](O)C[C@]4(C)[C@H]3CC[C@]12C
InChI: InChI=1S/C30H48O7/c1-25(2,34)11-10-24-29(7,37-26(3,4)36-24)23-9-13-30(35)18-14-20(31)19-15-21(32)22(33)16-27(19,5)17(18)8-12-28(23,30)6/h14,17,19,21-24,32-35H,8-13,15-16H2,1-7H3/t17-,19-,21+,22-,23-,24+,27+,28+,29+,30+/m0/s1
Instrument: Agilent 6410 Triple Quadrupole LC/MS system
Instrument type: LC-ESI-QQQ
Ms type: MS2
Ion mode: POSITIVE
Precursor type: [M+H]+
m/z	relative intensity
164.5	1
164.6	3
164.7	5
164.8	7
164.9	11
165.0	13
165.1	15
165.2	14
165.3	12
165.4	8
165.5	4
165.6	1
300.8	1
300.9	2
301.0	4
301.1	4
301.2	3
301.3	2
370.8	2
370.9	3
371.0	5
371.1	6
371.2	7
371.3	6
371.4	4
371.5	1
408.9	1
409.0	3
409.1	5
409.2	7
409.3	7
409.4	6
409.5	4
409.6	1
426.5	1
426.6	3
426.7	5
426.8	7
426.9	10
427.0	14
427.1	19
427.2	23
427.3	25
427.4	23
427.5	17
427.6	9
427.7	2
444.3	0
444.4	1
444.5	4
444.6	9
444.7	15
444.8	25
444.9	40
445.0	60
445.1	78
445.2	92
445.3	99
445.4	97
445.5	82
445.6	55
445.7	25
445.8	4
502.5	1
502.6	2
502.7	4
502.8	7
502.9	11
503.0	17
503.1	23
503.2	27
503.3	27
503.4	25
503.5	21
503.6	17
503.7	11
503.8	4
503.9	0
520.9	3
521.0	3
521.1	5
521.2	7
521.3	7
521.4	7
521.5	5
521.6	3
