Mass spectrum: Bicuculline; LC-ESI-QQQ; MS2; Frag=135.0V CID@10.0; [M+H]+
Name: Bicuculline
Class: Alkaloids
Formula: C20H17NO6
Exact mass: 367.3616
SMILES: CN1CCc2cc3c(cc2[C@H]1[C@@H]1OC(=O)c2c1ccc1c2OCO1)OCO3
InChI: InChI=1S/C20H17NO6/c1-21-5-4-10-6-14-15(25-8-24-14)7-12(10)17(21)18-11-2-3-13-19(26-9-23-13)16(11)20(22)27-18/h2-3,6-7,17-18H,4-5,8-9H2,1H3/t17-,18+/m0/s1
Instrument: Agilent 6410 Triple Quadrupole LC/MS system
Instrument type: LC-ESI-QQQ
Ms type: MS2
Ion mode: POSITIVE
Precursor type: [M+H]+
m/z	relative intensity
189.8	2
189.9	3
190.0	4
190.1	5
190.2	5
190.3	4
190.4	3
306.5	1
306.6	3
306.7	5
306.8	8
306.9	12
307.0	15
307.1	17
307.2	17
307.3	13
307.4	8
307.5	3
367.2	0
367.3	1
367.4	4
367.5	8
367.6	14
367.7	25
367.8	41
367.9	61
368.0	80
368.1	94
368.2	99
368.3	93
368.4	72
368.5	43
368.6	15
368.7	0
