Mass spectrum: ellagic acid; LC-ESI-QQQ; MS2; Frag=135.0V CID@25.0; [M+H]+
Name: ellagic acid
Class: Tannins
Formula: C14H6O8
Exact mass: 302.1991
SMILES: O=c1oc2c(O)c(O)cc3c(=O)oc4c(O)c(O)cc1c4c23
InChI: InChI=1S/C14H6O8/c15-5-1-3-7-8-4(14(20)22-11(7)9(5)17)2-6(16)10(18)12(8)21-13(3)19/h1-2,15-18H
Instrument: Agilent 6410 Triple Quadrupole LC/MS system
Instrument type: LC-ESI-QQQ
Ms type: MS2
Ion mode: POSITIVE
Precursor type: [M+H]+
m/z	relative intensity
146.3	2
146.4	3
146.5	5
146.6	5
146.7	4
172.7	2
172.8	5
172.9	9
173.0	15
173.1	17
173.2	15
173.3	10
173.4	4
190.6	2
190.7	3
190.8	5
190.9	5
191.0	4
200.6	1
200.7	4
200.8	10
200.9	16
201.0	18
201.1	16
201.2	13
201.3	10
201.4	6
201.5	3
212.7	1
212.8	3
212.9	6
213.0	9
213.1	8
213.2	5
213.3	3
218.6	2
218.7	5
218.8	7
218.9	8
219.0	7
228.4	2
228.5	4
228.6	7
228.7	10
228.8	12
228.9	11
229.0	9
229.1	8
229.2	7
229.3	6
229.4	4
230.3	1
230.4	2
230.5	5
230.6	9
230.7	11
230.8	11
230.9	10
231.0	10
231.1	12
231.2	13
231.3	11
231.4	7
231.5	2
246.5	0
246.6	2
246.7	11
246.8	22
246.9	27
247.0	22
247.1	12
247.2	4
256.3	0
256.4	1
256.5	7
256.6	16
256.7	28
256.8	47
256.9	69
257.0	86
257.1	88
257.2	69
257.3	39
257.4	11
257.5	0
274.3	2
274.4	3
274.5	5
274.6	9
274.7	19
274.8	34
274.9	54
275.0	71
275.1	78
275.2	67
275.3	42
275.4	15
275.5	1
284.1	2
284.2	4
284.3	6
284.4	8
284.5	12
284.6	18
284.7	25
284.8	29
284.9	31
285.0	32
285.1	32
285.2	28
285.3	17
285.4	6
285.5	0
302.0	1
302.1	4
302.2	12
302.3	22
302.4	28
302.5	28
302.6	30
302.7	41
302.8	62
302.9	84
303.0	97
303.1	99
303.2	87
303.3	61
303.4	28
303.5	4
