Mass spectrum: Edpetinosine; LC-ESI-QQQ; MS; [M+H]+
Name: Edpetinosine
Class: Alkaloids
Formula: C33H55NO7
Exact mass: 577.8088
SMILES: C[C@H]1CC[C@H]2[C@H](C)C3CC[C@H]4[C@@H]5C[C@@H](O)[C@H]6C[C@@H](O[C@@H]7O[C@H](CO)[C@@H](O)[C@H](O)[C@H]7O)CC[C@]6(C)[C@H]5C[C@H]4[C@@H]3CN2C1
InChI: InChI=1S/C33H55NO7/c1-16-4-7-26-17(2)19-5-6-20-21(23(19)14-34(26)13-16)11-24-22(20)12-27(36)25-10-18(8-9-33(24,25)3)40-32-31(39)30(38)29(37)28(15-35)41-32/h16-32,35-39H,4-15H2,1-3H3/t16-,17+,18-,19?,20+,21+,22-,23+,24-,25+,26-,27+,28+,29+,30-,31+,32+,33+/m0/s1
Instrument: ABSciex API3200 LC/MS system
Instrument type: LC-ESI-QQQ
Ms type: MS
Ion mode: POSITIVE
Precursor type: [M+H]+
m/z	relative intensity
100.8000	28
577.4000	166
577.5000	398
577.6000	693
577.7000	860
577.8000	911
577.9000	927
578.0000	969
578.1000	999
578.2000	966
578.3000	930
578.4000	859
578.5000	736
578.6000	473
578.7000	544
578.8000	580
578.9000	593
579.0000	605
579.1000	612
579.2000	609
579.3000	591
579.4000	556
579.5000	456
579.6000	255
579.7000	225
579.8000	251
579.9000	250
580.0000	265
580.1000	246
580.2000	263
580.3000	233
580.4000	218
580.5000	168
580.6000	78
580.7000	56
580.8000	55
580.9000	49
581.0000	52
581.1000	55
581.2000	49
581.3000	51
581.4000	39
581.5000	22
