Mass spectrum: 1-Hydroxy-2-methoxyanthraquinone; LC-ESI-QQQ; MS2; Frag=135.0V CID@10.0; [M+H]+
Name: 1-Hydroxy-2-methoxyanthraquinone
Class: Polycyclic aromatic natural products
Formula: C15H10O4
Exact mass: 254.2446
SMILES: COc1ccc2c(c1O)C(=O)c1ccccc1C2=O
InChI: InChI=1S/C15H10O4/c1-19-11-7-6-10-12(15(11)18)14(17)9-5-3-2-4-8(9)13(10)16/h2-7,18H,1H3
Instrument: Agilent 6410 Triple Quadrupole LC/MS system
Instrument type: LC-ESI-QQQ
Ms type: MS2
Ion mode: POSITIVE
Precursor type: [M+H]+
m/z	relative intensity
239.8	3
239.9	5
240.0	6
240.1	7
240.2	6
240.3	4
240.4	2
254.3	1
254.4	4
254.5	10
254.6	19
254.7	31
254.8	50
254.9	72
255.0	91
255.1	99
255.2	95
255.3	80
255.4	55
255.5	27
255.6	7
255.7	0
