Mass spectrum: osthol; LC-ESI-QQQ; MS2; Frag=135.0V CID@5.0; [M+H]+
Name: osthol
Class: Benzopyranoids
Formula: C15H16O3
Exact mass: 244.293
SMILES: COc1ccc2ccc(=O)oc2c1CC=C(C)C
InChI: InChI=1S/C15H16O3/c1-10(2)4-7-12-13(17-3)8-5-11-6-9-14(16)18-15(11)12/h4-6,8-9H,7H2,1-3H3
Instrument: Agilent 6410 Triple Quadrupole LC/MS system
Instrument type: LC-ESI-QQQ
Ms type: MS2
Ion mode: POSITIVE
Precursor type: [M+H]+
m/z	relative intensity
188.2	0
188.3	1
188.4	4
188.5	12
188.6	23
188.7	39
188.8	59
188.9	79
189.0	93
189.1	99
189.2	95
189.3	81
189.4	58
189.5	31
189.6	9
189.7	0
244.4	0
244.5	2
244.6	4
244.7	7
244.8	12
244.9	19
245.0	25
245.1	28
245.2	28
245.3	25
245.4	19
245.5	11
245.6	4
