Mass spectrum: 3-Hydroxy-12-oleanen-28-oic acid; LC-ESI-QQQ; MS2; Frag=135.0V CID@5.0; [M-OH]+
Name: 3-Hydroxy-12-oleanen-28-oic acid
Class: Terpenoids
Formula: C30H48O3
Exact mass: 456.7153
SMILES: CC1(C)CCC2(C(=O)O)CC[C@]3(C)C(=CCC4[C@@]5(C)CCC(O)C(C)(C)C5CC[C@]43C)C2C1
InChI: InChI=1S/C30H48O3/c1-25(2)14-16-30(24(32)33)17-15-28(6)19(20(30)18-25)8-9-22-27(5)12-11-23(31)26(3,4)21(27)10-13-29(22,28)7/h8,20-23,31H,9-18H2,1-7H3,(H,32,33)/t20?,21?,22?,23?,27-,28+,29+,30?/m0/s1
Instrument: Agilent 6410 Triple Quadrupole LC/MS system
Instrument type: LC-ESI-QQQ
Ms type: MS2
Ion mode: POSITIVE
Precursor type: [M-OH]+
m/z	relative intensity
190.5	2
190.6	3
190.7	6
190.8	9
190.9	14
191.0	21
191.1	27
191.2	29
191.3	27
191.4	21
191.5	12
191.6	4
191.7	0
248.8	1
248.9	3
249.0	5
249.1	6
249.2	7
249.3	6
249.4	5
249.5	3
438.4	1
438.5	2
438.6	4
438.7	8
438.8	15
438.9	26
439.0	44
439.1	67
439.2	87
439.3	99
439.4	99
439.5	89
439.6	68
439.7	39
439.8	12
439.9	0
