Mass spectrum: O-(3-Hydroxy-7-drimen-11-yl)umbelliferone; LC-ESI-QQQ; MS2; Frag=135.0V CID@25.0; [M+H]+
Name: O-(3-Hydroxy-7-drimen-11-yl)umbelliferone
Class: Benzopyranoids
Formula: C24H30O4
Exact mass: 382.5043
SMILES: CC1=CC[C@H]2C(C)(C)[C@H](O)CC[C@]2(C)[C@@H]1COc1ccc2ccc(=O)oc2c1
InChI: InChI=1S/C24H30O4/c1-15-5-9-20-23(2,3)21(25)11-12-24(20,4)18(15)14-27-17-8-6-16-7-10-22(26)28-19(16)13-17/h5-8,10,13,18,20-21,25H,9,11-12,14H2,1-4H3/t18-,20+,21-,24-/m1/s1
Instrument: Agilent 6410 Triple Quadrupole LC/MS system
Instrument type: LC-ESI-QQQ
Ms type: MS2
Ion mode: POSITIVE
Precursor type: [M+H]+
m/z	relative intensity
104.6	1
104.7	3
104.8	5
104.9	6
105.0	7
105.1	6
105.2	5
105.3	4
105.4	3
106.7	2
106.8	3
106.9	4
107.0	5
107.1	5
107.2	5
107.3	4
107.4	2
118.5	1
118.6	3
118.7	5
118.8	9
118.9	11
119.0	13
119.1	13
119.2	13
119.3	13
119.4	10
119.5	5
119.6	1
132.5	0
132.6	2
132.7	4
132.8	8
132.9	12
133.0	14
133.1	14
133.2	11
133.3	8
133.4	5
133.5	2
146.4	1
146.5	3
146.6	4
146.7	6
146.8	10
146.9	16
147.0	21
147.1	23
147.2	23
147.3	19
147.4	14
147.5	8
147.6	2
160.6	1
160.7	2
160.8	5
160.9	8
161.0	11
161.1	12
161.2	12
161.3	11
161.4	10
161.5	6
161.6	2
162.1	0
162.2	2
162.3	4
162.4	8
162.5	14
162.6	24
162.7	43
162.8	66
162.9	87
163.0	98
163.1	99
163.2	92
163.3	74
163.4	48
163.5	21
163.6	3
202.7	2
202.8	4
202.9	6
203.0	8
203.1	10
203.2	10
203.3	10
203.4	9
203.5	6
203.6	2
