Mass spectrum: Bryoamaride; LC-ESI-QQQ; MS2; Frag=135.0V CID@15.0; [M+HCOO]-
Name: Bryoamaride
Class: Terpenoids
Formula: C36H54O12
Exact mass: 678.8246
SMILES: CC(C)(O)CCC(=O)[C@](C)(O)C1[C@H](O)C[C@@]2(C)C3CC=C4[C@@H](C=C(OC5OC(CO)C(O)C(O)C5O)C(=O)C4(C)C)[C@]3(C)C(=O)C[C@]12C
InChI: InChI=1S/C36H54O12/c1-31(2,45)12-11-23(39)36(8,46)28-19(38)14-33(5)22-10-9-17-18(35(22,7)24(40)15-34(28,33)6)13-20(29(44)32(17,3)4)47-30-27(43)26(42)25(41)21(16-37)48-30/h9,13,18-19,21-22,25-28,30,37-38,41-43,45-46H,10-12,14-16H2,1-8H3/t18-,19-,21?,22?,25?,26?,27?,28?,30?,33+,34-,35+,36+/m1/s1
Instrument: Agilent 6410 Triple Quadrupole LC/MS system
Instrument type: LC-ESI-QQQ
Ms type: MS2
Ion mode: NEGATIVE
Precursor type: [M+HCOO]-
m/z	relative intensity
496.6	0
496.7	2
496.8	8
496.9	15
497.0	19
497.1	18
497.2	16
497.3	14
497.4	13
497.5	9
497.6	4
497.7	0
658.7	0
658.8	2
658.9	4
659.0	6
659.1	7
659.2	7
659.3	5
659.4	4
659.5	2
676.3	1
676.4	3
676.5	9
676.6	22
676.7	42
676.8	62
676.9	76
677.0	82
677.1	84
677.2	88
677.3	94
677.4	99
677.5	94
677.6	72
677.7	41
677.8	12
677.9	0
