Mass spectrum: Haplophyllidine; LC-ESI-QQQ; MS2; Frag=135.0V CID@10.0; [M+H]+
Name: Haplophyllidine
Class: Alkaloids
Formula: C18H23NO4
Exact mass: 317.3883
SMILES: COc1c2c(nc3occc13)C(CC=C(C)C)(OC)C(O)CC2
InChI: InChI=1S/C18H23NO4/c1-11(2)7-9-18(22-4)14(20)6-5-12-15(21-3)13-8-10-23-17(13)19-16(12)18/h7-8,10,14,20H,5-6,9H2,1-4H3
Instrument: Agilent 6410 Triple Quadrupole LC/MS system
Instrument type: LC-ESI-QQQ
Ms type: MS2
Ion mode: POSITIVE
Precursor type: [M+H]+
m/z	relative intensity
217.3	1
217.4	2
217.5	4
217.6	7
217.7	11
217.8	18
217.9	26
218.0	33
218.1	37
218.2	35
218.3	29
218.4	20
218.5	11
218.6	3
285.3	1
285.4	3
285.5	7
285.6	11
285.7	20
285.8	35
285.9	57
286.0	80
286.1	96
286.2	99
286.3	89
286.4	68
286.5	41
286.6	16
286.7	1
