Mass spectrum: Ribalinine; LC-ESI-QQQ; MS2; Frag=135.0V CID@5.0; [M+H]+
Name: Ribalinine
Class: Alkaloids
Formula: C15H17NO3
Exact mass: 259.3076
SMILES: Cn1c2c(c(=O)c3ccccc31)C[C@@H](O)C(C)(C)O2
InChI: InChI=1S/C15H17NO3/c1-15(2)12(17)8-10-13(18)9-6-4-5-7-11(9)16(3)14(10)19-15/h4-7,12,17H,8H2,1-3H3/t12-/m1/s1
Instrument: Agilent 6410 Triple Quadrupole LC/MS system
Instrument type: LC-ESI-QQQ
Ms type: MS2
Ion mode: POSITIVE
Precursor type: [M+H]+
m/z	relative intensity
241.5	1
241.6	2
241.7	4
241.8	7
241.9	12
242.0	16
242.1	19
242.2	20
242.3	18
242.4	14
242.5	9
242.6	3
259.3	0
259.4	2
259.5	4
259.6	9
259.7	18
259.8	33
259.9	54
260.0	76
260.1	93
260.2	99
260.3	93
260.4	73
260.5	45
260.6	18
260.7	1
