Mass spectrum: 1-Hydroxy-2-methoxyanthraquinone; LC-ESI-QQQ; MS2; Frag=135.0V CID@25.0; [M+H]+
Name: 1-Hydroxy-2-methoxyanthraquinone
Class: Polycyclic aromatic natural products
Formula: C15H10O4
Exact mass: 254.2446
SMILES: COc1ccc2c(c1O)C(=O)c1ccccc1C2=O
InChI: InChI=1S/C15H10O4/c1-19-11-7-6-10-12(15(11)18)14(17)9-5-3-2-4-8(9)13(10)16/h2-7,18H,1H3
Instrument: Agilent 6410 Triple Quadrupole LC/MS system
Instrument type: LC-ESI-QQQ
Ms type: MS2
Ion mode: POSITIVE
Precursor type: [M+H]+
m/z	relative intensity
138.6	1
138.7	3
138.8	6
138.9	8
139.0	7
139.1	5
139.2	3
140.9	1
141.0	3
141.1	7
141.2	9
141.3	8
141.4	4
151.5	2
151.6	4
151.7	5
151.8	6
151.9	7
152.0	9
152.1	11
152.2	13
152.3	12
152.4	9
155.6	2
155.7	4
155.8	5
155.9	5
156.0	5
156.1	3
166.5	1
166.6	4
166.7	7
166.8	11
166.9	13
167.0	13
167.1	10
167.2	7
167.3	4
167.4	2
180.0	2
180.1	4
180.2	6
180.3	8
180.4	10
180.5	10
180.6	13
180.7	24
180.8	44
180.9	66
181.0	76
181.1	77
181.2	77
181.3	78
181.4	66
181.5	39
181.6	11
181.7	0
182.3	1
182.4	2
182.5	5
182.6	8
182.7	11
182.8	12
182.9	13
183.0	13
183.1	13
183.2	10
183.3	8
183.6	7
183.7	9
183.8	17
183.9	29
184.0	39
184.1	41
184.2	34
184.3	22
184.4	11
184.5	4
194.4	2
194.5	4
194.6	9
194.7	14
194.8	19
194.9	22
195.0	21
195.1	17
195.2	11
195.3	6
195.4	2
196.6	1
196.7	3
196.8	4
196.9	5
197.0	5
197.1	4
197.2	3
197.3	4
197.4	4
197.5	3
197.6	2
197.7	1
197.8	1
197.9	1
198.0	1
198.1	1
198.2	1
198.3	1
198.4	1
198.5	1
198.6	1
198.7	1
198.8	1
198.9	1
199.0	1
199.1	1
199.2	1
199.3	1
199.4	1
199.5	1
199.6	1
199.7	1
199.8	1
199.9	1
200.0	1
200.1	1
200.2	1
200.3	1
200.4	1
200.5	1
200.6	1
200.7	1
200.8	1
200.9	1
201.0	1
201.1	1
201.2	1
201.3	1
201.4	1
201.5	1
201.6	1
201.7	1
201.8	1
201.9	1
202.0	1
202.1	1
202.2	1
202.3	1
202.4	1
202.5	1
202.6	1
202.7	1
202.8	1
202.9	1
203.0	1
203.1	1
203.2	1
203.3	1
203.4	1
203.5	1
203.6	1
203.7	1
203.8	1
203.9	1
204.0	1
204.1	1
204.2	1
204.3	1
204.4	1
204.5	1
204.6	1
204.7	1
204.8	1
204.9	1
205.0	1
205.1	1
205.2	1
205.3	1
205.4	1
205.5	1
205.6	1
205.7	1
205.8	1
205.9	1
206.0	1
206.1	1
206.2	1
206.3	1
206.4	1
206.5	1
206.6	1
206.7	1
206.8	1
206.9	1
207.0	1
207.1	1
207.2	1
207.3	1
207.4	1
207.5	1
207.6	1
207.7	1
207.8	1
207.9	1
208.0	1
208.1	1
208.2	1
208.3	1
208.4	1
208.5	1
208.6	2
208.7	4
208.8	8
208.9	12
209.0	19
209.1	29
209.2	36
209.3	33
209.4	20
209.5	5
210.4	1
210.5	3
210.6	4
210.7	4
210.8	3
210.9	2
211.0	3
211.1	6
211.2	8
211.3	8
211.4	8
211.5	12
211.6	22
211.7	38
211.8	55
211.9	63
212.0	61
212.1	53
212.2	42
212.3	29
212.4	14
212.5	4
225.5	2
225.6	5
225.7	7
225.8	8
225.9	8
226.0	10
226.1	14
226.2	14
226.3	10
226.4	4
238.2	2
238.3	3
238.4	6
238.5	8
238.6	9
238.7	10
238.8	13
238.9	20
239.0	28
239.1	33
239.2	32
239.3	29
239.4	27
239.5	33
239.6	46
239.7	64
239.8	81
239.9	93
240.0	99
240.1	99
240.2	94
240.3	80
240.4	56
240.5	26
240.6	6
254.3	1
254.4	3
254.5	6
254.6	8
254.7	8
254.8	10
254.9	14
255.0	18
255.1	17
255.2	13
255.3	8
255.4	4
255.5	2
