Mass spectrum: 9,13-Epoxy-3,15,16,18-labdanetetrol; LC-ESI-QQQ; MS; [M+H]+
Name: 9,13-Epoxy-3,15,16,18-labdanetetrol
Class: Terpenoids
Formula: C20H36O5
Exact mass: 356.5069
SMILES: C[C@H]1CCC2[C@](C)(CC[C@H](O)[C@@]2(C)CO)[C@@]12CCC(CO)(CCO)O2
InChI: InChI=1S/C20H36O5/c1-14-4-5-15-17(2,12-22)16(24)6-7-18(15,3)20(14)9-8-19(13-23,25-20)10-11-21/h14-16,21-24H,4-13H2,1-3H3/t14-,15?,16-,17-,18-,19?,20+/m0/s1
Instrument: ABSciex API3200 LC/MS system
Instrument type: LC-ESI-QQQ
Ms type: MS
Ion mode: POSITIVE
Precursor type: [M+H]+
m/z	relative intensity
142.1000	89
184.5000	21
184.6000	34
184.7000	39
184.8000	34
184.9000	27
185.0000	36
185.1000	49
185.2000	42
185.3000	42
185.4000	37
244.6000	27
244.7000	33
244.8000	36
244.9000	42
245.0000	43
245.1000	37
245.2000	26
245.3000	31
245.4000	27
245.5000	23
254.7000	26
254.8000	32
254.9000	31
255.0000	29
255.1000	35
255.2000	22
255.3000	27
255.4000	25
272.5000	22
272.6000	38
272.7000	67
272.8000	59
272.9000	64
273.0000	67
273.1000	69
273.2000	57
273.3000	61
273.4000	58
273.5000	58
273.6000	26
273.7000	22
273.8000	22
274.3000	21
284.5000	24
284.6000	45
284.7000	63
284.8000	70
284.9000	69
285.0000	66
285.1000	69
285.2000	61
285.3000	66
285.4000	55
285.5000	56
285.6000	22
290.6000	32
290.7000	39
290.8000	84
290.9000	60
291.0000	43
291.1000	42
291.2000	36
291.3000	33
291.4000	31
291.5000	26
302.5000	37
302.6000	82
302.7000	113
302.8000	127
302.9000	119
303.0000	140
303.1000	126
303.2000	113
303.3000	113
303.4000	102
303.5000	85
303.6000	44
303.7000	37
303.8000	31
303.9000	28
304.0000	30
304.1000	33
304.2000	28
304.3000	25
308.5000	28
308.6000	60
308.7000	91
308.8000	100
308.9000	107
309.0000	111
309.1000	92
309.2000	96
309.3000	115
309.4000	73
309.5000	67
309.6000	24
309.7000	31
309.8000	33
310.0000	23
310.1000	23
320.5000	44
320.6000	79
320.7000	99
320.8000	103
320.9000	99
321.0000	110
321.1000	113
321.2000	107
321.3000	95
321.4000	78
321.5000	69
321.6000	31
321.7000	31
321.8000	33
321.9000	90
322.0000	27
338.4000	49
338.5000	128
338.6000	229
338.7000	298
338.8000	326
338.9000	322
339.0000	335
339.1000	335
339.2000	364
339.3000	385
339.4000	263
339.5000	224
339.6000	108
339.7000	97
339.8000	98
339.9000	81
340.0000	77
340.1000	81
340.2000	81
340.3000	71
340.4000	62
340.5000	51
340.6000	25
356.4000	112
356.5000	334
356.6000	565
356.7000	712
356.8000	724
356.9000	734
357.0000	737
357.1000	810
357.2000	763
357.3000	792
357.4000	603
357.5000	476
357.6000	252
357.7000	223
357.8000	210
357.9000	187
358.0000	214
358.1000	222
358.2000	204
358.3000	197
358.4000	169
358.5000	143
358.6000	50
358.7000	41
358.8000	36
358.9000	29
359.0000	32
359.1000	31
359.2000	33
359.3000	31
359.4000	28
373.6000	35
373.7000	52
373.8000	55
373.9000	65
374.0000	67
374.1000	67
374.2000	77
374.3000	94
374.4000	55
374.5000	82
374.6000	62
374.7000	68
374.8000	77
374.9000	82
375.0000	83
375.1000	73
375.2000	81
375.3000	61
375.4000	55
375.5000	41
402.1000	21
712.4000	70
712.5000	216
712.6000	571
712.7000	834
712.8000	920
712.9000	971
713.0000	999
713.1000	995
713.2000	985
713.3000	982
713.4000	874
713.5000	951
713.6000	620
713.7000	417
713.8000	446
713.9000	474
714.0000	482
714.1000	480
714.2000	492
714.3000	488
714.4000	445
714.5000	387
714.6000	180
714.7000	152
714.8000	170
714.9000	168
715.0000	178
715.1000	172
715.2000	193
715.3000	180
715.4000	144
715.5000	129
715.6000	62
715.7000	39
715.8000	39
715.9000	36
716.0000	36
716.1000	36
716.2000	34
716.3000	41
716.4000	31
716.5000	27
729.8000	22
729.9000	27
730.0000	32
730.1000	28
730.2000	29
730.3000	31
730.4000	26
730.5000	22
1068.6000	33
1068.7000	43
1068.8000	55
1068.9000	69
1069.0000	83
1069.1000	79
1069.2000	76
1069.3000	84
1069.4000	81
1069.5000	94
1069.6000	173
1069.7000	74
1069.8000	46
1069.9000	52
1070.0000	57
1070.1000	57
1070.2000	59
1070.3000	59
1070.4000	55
1070.5000	53
1070.6000	53
1070.7000	41
1070.8000	27
1071.0000	22
1071.1000	22
1071.2000	21
1071.3000	23
1071.4000	22
1085.9000	25
1086.0000	28
1086.1000	34
1086.2000	38
1086.3000	25
1086.4000	31
1086.5000	35
1086.6000	31
1086.7000	28
1086.8000	22
1087.0000	25
1087.4000	22
1087.5000	21
