Mass spectrum: Zearalenol; LC-ESI-QQQ; MS2; Frag=135.0V CID@5.0; [M+H]+
Name: Zearalenol
Class: Carbohydrates
Formula: C18H24O5
Exact mass: 320.389
SMILES: C[C@H]1CCCC(O)CCC/C=C/c2cc(O)cc(O)c2C(=O)O1
InChI: InChI=1S/C18H24O5/c1-12-6-5-9-14(19)8-4-2-3-7-13-10-15(20)11-16(21)17(13)18(22)23-12/h3,7,10-12,14,19-21H,2,4-6,8-9H2,1H3/b7-3+/t12-,14?/m0/s1
Instrument: Agilent 6410 Triple Quadrupole LC/MS system
Instrument type: LC-ESI-QQQ
Ms type: MS2
Ion mode: POSITIVE
Precursor type: [M+H]+
m/z	relative intensity
134.6	0
134.7	1
134.8	3
134.9	5
135.0	5
135.1	5
135.2	4
135.3	4
135.4	3
135.5	2
176.5	0
176.6	1
176.7	4
176.8	6
176.9	8
177.0	9
177.1	9
177.2	8
177.3	7
177.4	4
177.5	1
188.6	1
188.7	3
188.8	5
188.9	7
189.0	8
189.1	9
189.2	9
189.3	7
189.4	4
189.5	1
214.9	3
215.0	4
215.1	5
215.2	5
215.3	4
215.4	2
256.6	1
256.7	2
256.8	4
256.9	6
257.0	8
257.1	9
257.2	9
257.3	8
257.4	6
257.5	2
258.8	2
258.9	3
259.0	4
259.1	5
259.2	5
259.3	4
259.4	2
266.6	1
266.7	3
266.8	7
266.9	11
267.0	14
267.1	16
267.2	16
267.3	15
267.4	13
267.5	7
267.6	2
284.3	1
284.4	2
284.5	5
284.6	10
284.7	18
284.8	31
284.9	49
285.0	68
285.1	80
285.2	84
285.3	79
285.4	66
285.5	43
285.6	18
285.7	0
302.2	0
302.3	1
302.4	4
302.5	8
302.6	12
302.7	20
302.8	34
302.9	52
303.0	71
303.1	88
303.2	99
303.3	99
303.4	84
303.5	53
303.6	20
303.7	0
320.2	0
320.3	1
320.4	3
320.5	6
320.6	8
320.7	10
320.8	16
320.9	27
321.0	41
321.1	51
321.2	54
321.3	51
321.4	41
321.5	27
321.6	12
321.7	2
