Mass spectrum: Ergocalciferol; LC-ESI-QQQ; MS2; Frag=135.0V CID@5.0; [M+H]+
Name: Vitamin D2
Name: Ergocalciferol
Name: Viosterin
Name: Osteil
Name: Viosterol
Name: Ercalciol
Name: Irradiated ergosterol
Name: Condacaps
Name: Condocaps
Name: Condol
Name: Crtron
Name: Crystallina
Name: Daral
Name: (5Z,7E,22E)-(3S)-9,10-Secoergosta-5,7,10(19),22-tetraen-3-ol
Name: Davitin
Name: Deltalin
Name: Deratol
Name: Diactol
Name: Drisdol
Name: Ergorone
Name: Ertron
Name: Fortodyl
Name: Geltabs
Name: Hyperkil
Name: Irradiated ergosta-5,7,22-trien-3-beta-ol
Name: Metadee
Name: Mulsiferol
Name: Mykostin
Name: Oleovitamin D2
Name: Ostelin
Name: Rodinec
Name: Radsterin
Name: Sterogyl
Name: Vigantol
Class: Steroids
Formula: C28H44O
Exact mass: 396.6623
SMILES: C=C1CC[C@H](O)C/C1=C/C=C1\CCC[C@@]2(C)C1CCC2[C@H](C)/C=C/[C@H](C)C(C)C
InChI: InChI=1S/C28H44O/c1-19(2)20(3)9-10-22(5)26-15-16-27-23(8-7-17-28(26,27)6)12-13-24-18-25(29)14-11-21(24)4/h9-10,12-13,19-20,22,25-27,29H,4,7-8,11,14-18H2,1-3,5-6H3/b10-9+,23-12+,24-13-/t20-,22+,25-,26?,27?,28+/m0/s1
Instrument: Agilent 6410 Triple Quadrupole LC/MS system
Instrument type: LC-ESI-QQQ
Ms type: MS2
Ion mode: POSITIVE
Precursor type: [M+H]+
m/z	relative intensity
68.3	1
68.4	3
68.5	5
68.6	7
68.7	7
68.8	6
68.9	4
69.0	3
82.2	1
82.3	3
82.4	4
82.5	4
82.6	4
82.7	4
82.8	5
82.9	5
83.0	4
106.8	2
106.9	3
107.0	5
107.1	7
107.2	8
107.3	7
107.4	4
107.5	2
118.7	2
118.8	3
118.9	5
119.0	5
119.1	3
125.0	1
125.1	3
125.2	8
125.3	12
125.4	13
125.5	8
125.6	3
132.8	3
132.9	4
133.0	5
133.1	6
133.2	6
133.3	5
133.4	3
134.5	3
134.6	4
134.7	6
134.8	7
134.9	7
135.0	5
135.1	3
144.5	1
144.6	3
144.7	4
144.8	7
144.9	10
145.0	12
145.1	10
145.2	6
145.3	3
146.8	2
146.9	4
147.0	9
147.1	15
147.2	17
147.3	13
147.4	6
147.5	1
150.8	1
150.9	3
151.0	4
151.1	4
160.9	1
161.0	3
161.1	5
161.2	6
161.3	6
161.4	4
161.5	2
254.5	1
254.6	3
254.7	4
254.8	5
254.9	6
255.0	7
255.1	9
255.2	10
255.3	9
255.4	6
255.5	2
259.0	1
259.1	4
259.2	8
259.3	11
259.4	11
259.5	7
259.6	2
272.8	3
272.9	4
273.0	5
273.1	7
273.2	9
273.3	12
273.4	14
273.5	12
273.6	7
273.7	2
284.6	1
284.7	2
284.8	6
284.9	11
285.0	14
285.1	13
285.2	8
285.3	3
308.9	1
309.0	2
309.1	4
309.2	7
309.3	11
309.4	12
309.5	11
309.6	6
309.7	2
322.9	1
323.0	2
323.1	4
323.2	5
323.3	6
323.4	6
323.5	5
323.6	3
326.9	2
327.0	3
327.1	6
327.2	9
327.3	10
327.4	8
327.5	5
327.6	2
378.4	1
378.5	3
378.6	7
378.7	11
378.8	14
378.9	15
379.0	16
379.1	16
379.2	15
379.3	13
379.4	11
379.5	7
379.6	2
396.2	1
396.3	3
396.4	4
396.5	6
396.6	7
396.7	11
396.8	19
396.9	33
397.0	50
397.1	65
397.2	77
397.3	91
397.4	99
397.5	88
397.6	56
397.7	21
397.8	3
