Mass spectrum: Aesculin; LC-ESI-QQQ; MS2; Frag=135.0V CID@5.0; [M+H]+
Name: Esculin
Name: Esculoside
Name: Aesculin
Name: Esculetin-6-beta-D-glucopyranoside
Name: Aesculinum
Class: Benzopyranoids
Formula: C15H16O9
Exact mass: 340.2894
SMILES: O=c1ccc2cc(O[C@@H]3O[C@@H](CO)[C@H](O)[C@@H](O)[C@@H]3O)c(O)cc2o1
InChI: InChI=1S/C15H16O9/c16-5-10-12(19)13(20)14(21)15(24-10)23-9-3-6-1-2-11(18)22-8(6)4-7(9)17/h1-4,10,12-17,19-21H,5H2/t10-,12-,13+,14-,15+/m0/s1
Instrument: Agilent 6410 Triple Quadrupole LC/MS system
Instrument type: LC-ESI-QQQ
Ms type: MS2
Ion mode: POSITIVE
Precursor type: [M+H]+
m/z	relative intensity
178.2	0
178.3	2
178.4	5
178.5	10
178.6	18
178.7	33
178.8	55
178.9	79
179.0	95
179.1	99
179.2	94
179.3	78
179.4	54
179.5	26
179.6	5
179.7	0
340.3	1
340.4	3
340.5	5
340.6	8
340.7	14
340.8	23
340.9	35
341.0	47
341.1	54
341.2	55
341.3	49
341.4	36
341.5	20
341.6	6
341.7	0
