Mass spectrum: Cycloheximide; LC-ESI-QQQ; MS2; Frag=135.0V CID@10.0; [M+H]+
Name: Cycloheximide
Class: Alkaloids
Formula: C15H23NO4
Exact mass: 281.162708
SMILES: C[C@H]1C[C@@H](C(=O)[C@@H](C1)[C@@H](CC2CC(=O)NC(=O)C2)O)C
InChI: InChI=1S/C15H23NO4/c1-8-3-9(2)15(20)11(4-8)12(17)5-10-6-13(18)16-14(19)7-10/h8-12,17H,3-7H2,1-2H3,(H,16,18,19)/t8-,9-,11-,12+/m0/s1
Instrument: Agilent 6410 Triple Quadrupole LC/MS system
Instrument type: LC-ESI-QQQ
Ms type: MS2
Ion mode: POSITIVE
Precursor type: [M+H]+
m/z	relative intensity
156.7	2
156.8	4
156.9	5
157.0	6
157.1	6
157.2	6
157.3	5
157.4	4
157.5	2
158.6	1
158.7	2
158.8	5
158.9	7
159.0	8
159.1	8
159.2	8
159.3	7
159.4	6
159.5	4
159.6	1
172.8	2
172.9	4
173.0	6
173.1	7
173.2	8
173.3	7
173.4	6
173.5	3
182.8	1
182.9	3
183.0	4
183.1	5
183.2	5
183.3	4
183.4	2
186.7	2
186.8	4
186.9	6
187.0	7
187.1	8
187.2	9
187.3	8
187.4	5
187.5	3
200.7	2
200.8	4
200.9	7
201.0	9
201.1	11
201.2	12
201.3	10
201.4	8
201.5	5
201.6	2
204.7	2
204.8	4
204.9	6
205.0	8
205.1	8
205.2	8
205.3	8
205.4	6
205.5	3
217.7	1
217.8	2
217.9	4
218.0	5
218.1	6
218.2	6
218.3	6
218.4	6
218.5	5
218.6	5
218.7	6
218.8	9
218.9	14
219.0	19
219.1	22
219.2	23
219.3	21
219.4	17
219.5	11
219.6	5
228.6	4
228.7	5
228.8	9
228.9	15
229.0	20
229.1	24
229.2	25
229.3	23
229.4	18
229.5	11
229.6	4
229.7	0
245.2	0
245.3	2
245.4	4
245.5	8
245.6	12
245.7	21
245.8	36
245.9	58
246.0	79
246.1	95
246.2	99
246.3	93
246.4	77
246.5	53
246.6	29
246.8	17
246.9	29
247.0	43
247.1	50
247.2	51
247.3	46
247.4	34
247.5	19
247.6	6
247.7	0
263.3	1
263.4	2
263.5	5
263.6	10
263.7	17
263.8	30
263.9	48
264.0	66
264.1	78
264.2	80
264.3	75
264.4	64
264.5	46
264.6	24
264.9	13
265.0	22
265.1	27
265.2	29
265.3	27
265.4	22
265.5	14
265.6	6
265.7	0
281.5	2
281.6	3
281.7	5
281.8	9
281.9	16
282.0	23
282.1	30
282.2	32
282.3	29
282.4	23
282.5	14
282.6	5
282.7	0
