Mass spectrum: Isomajdine; LC-ESI-QQQ; MS2; Frag=135.0V CID@25.0; [M+H]+
Name: methyl (10S,15S,16S,18S,22S)-6,7-dimethoxy-22-methyl-2-oxo-21-oxa-12-azaspiro(indoline-3,6'-tricyclo(7.4.0.0(3,7))tridecane)-19-ene-19-carboxylate
Name: Isomajdine
Class: Alkaloids
Formula: C23H28N2O6
Exact mass: 428.4894
SMILES: COC(=O)C1=CO[C@@H](C)[C@@H]2CN3CC[C@@]4(C(O)=Nc5c4ccc(OC)c5OC)[C@@H]3C[C@H]12
InChI: InChI=1S/C23H28N2O6/c1-12-14-10-25-8-7-23(18(25)9-13(14)15(11-31-12)21(26)30-4)16-5-6-17(28-2)20(29-3)19(16)24-22(23)27/h5-6,11-14,18H,7-10H2,1-4H3,(H,24,27)/t12-,13-,14-,18-,23-/m0/s1
Instrument: Agilent 6410 Triple Quadrupole LC/MS system
Instrument type: LC-ESI-QQQ
Ms type: MS2
Ion mode: POSITIVE
Precursor type: [M+H]+
m/z	relative intensity
177.7	2
177.8	3
177.9	5
178.0	6
178.1	6
178.2	6
178.3	5
178.4	3
178.5	2
217.6	1
217.7	3
217.8	5
217.9	8
218.0	10
218.1	11
218.2	10
218.3	8
218.4	5
218.5	2
219.3	1
219.4	3
219.5	5
219.6	10
219.7	17
219.8	27
219.9	38
220.0	48
220.1	53
220.2	51
220.3	44
220.4	32
220.5	18
220.6	6
220.7	0
260.6	1
260.7	3
260.8	6
260.9	9
261.0	13
261.1	14
261.2	14
261.3	13
261.4	10
261.5	6
261.6	2
272.7	1
272.8	2
272.9	4
273.0	6
273.1	8
273.2	8
273.3	7
273.4	6
273.5	3
298.8	2
298.9	4
299.0	5
299.1	6
299.2	6
299.3	6
299.4	4
299.5	2
324.7	1
324.8	2
324.9	4
325.0	5
325.1	5
325.2	5
325.3	5
325.4	3
396.2	0
396.3	2
396.4	4
396.5	7
396.6	11
396.7	18
396.8	31
396.9	52
397.0	76
397.1	93
397.2	99
397.3	93
397.4	76
397.5	49
397.6	22
397.7	3
428.3	1
428.4	3
428.5	5
428.6	7
428.7	10
428.8	19
428.9	33
429.0	49
429.1	61
429.2	65
429.3	61
429.4	50
429.5	32
429.6	14
429.7	2
