Mass spectrum: Cinchonidine; LC-ESI-QQQ; MS2; Frag=135.0V CID@25.0; [M+H]+
Name: Cinchonidine
Class: Alkaloids
Formula: C19H22N2O
Exact mass: 294.4
SMILES: C=C[C@H]1CN2CC[C@H]1C[C@H]2[C@@H](C3=CC=NC4=CC=CC=C34)O
InChI: InChI=1S/C19H22N2O/c1-2-13-12-21-10-8-14(13)11-18(21)19(22)16-7-9-20-17-6-4-3-5-15(16)17/h2-7,9,13-14,18-19,22H,1,8,10-12H2/t13-,14-,18-,19+/m0/s1
Instrument: Agilent 6410 Triple Quadrupole LC/MS system
Instrument type: LC-ESI-QQQ
Ms type: MS2
Ion mode: POSITIVE
Precursor type: [M+H]+
m/z	relative intensity
66.6	1
66.7	3
66.8	4
66.9	5
67.0	6
67.1	6
67.2	5
67.3	4
67.4	3
78.4	1
78.5	3
78.6	4
78.7	7
78.8	11
78.9	14
79.0	16
79.1	16
79.2	14
79.3	12
79.4	8
79.5	4
80.4	3
80.5	6
80.6	9
80.7	13
80.8	19
80.9	25
81.0	32
81.1	35
81.2	33
81.3	28
81.4	21
81.5	13
81.6	6
129.3	1
129.4	2
129.5	4
129.6	6
129.7	10
129.8	16
129.9	23
130.0	28
130.1	28
130.2	26
130.3	21
130.4	14
130.5	7
130.6	1
133.6	1
133.7	2
133.8	4
133.9	6
134.0	8
134.1	8
134.2	8
134.3	6
134.4	4
134.5	2
141.5	1
141.6	3
141.7	4
141.8	6
141.9	7
142.0	8
142.1	9
142.2	9
142.3	8
142.4	5
153.6	1
153.7	3
153.8	6
153.9	8
154.0	9
154.1	10
154.2	9
154.3	8
154.4	5
154.5	2
155.5	2
155.6	4
155.7	7
155.8	10
155.9	13
156.0	16
156.1	17
156.2	17
156.3	15
156.4	11
156.5	6
156.6	1
165.5	1
165.6	2
165.7	4
165.8	5
165.9	7
166.0	8
166.1	10
166.2	12
166.3	11
166.4	9
166.5	5
167.5	5
167.6	6
167.7	8
167.8	12
167.9	17
168.0	20
168.1	22
168.2	21
168.3	18
168.4	14
168.5	8
168.6	3
179.6	1
179.7	3
179.8	4
179.9	6
180.0	6
180.1	6
180.2	6
180.3	5
180.4	4
193.8	2
193.9	3
194.0	4
194.1	5
194.2	5
194.3	4
194.4	3
234.8	3
234.9	4
235.0	5
235.1	6
235.2	6
235.3	5
235.4	4
235.5	3
276.5	1
276.6	3
276.7	5
276.8	9
276.9	15
277.0	21
277.1	26
277.2	28
277.3	27
277.4	23
277.5	15
277.6	7
277.7	1
294.3	0
294.4	1
294.5	4
294.6	10
294.7	19
294.8	33
294.9	51
295.0	70
295.1	87
295.2	97
295.3	99
295.4	89
295.5	64
295.6	32
295.7	6
295.8	0
