Mass spectrum: (+)-beta-Hydrastine; LC-ESI-QQQ; MS; [M+H]+
Name: (+)-beta-Hydrastine
Class: Alkaloids
Formula: C21H21NO6
Exact mass: 383.4046
SMILES: COc1ccc2c(c1OC)C(=O)O[C@H]2[C@@H]1c2cc3c(cc2CCN1C)OCO3
InChI: InChI=1S/C21H21NO6/c1-22-7-6-11-8-15-16(27-10-26-15)9-13(11)18(22)19-12-4-5-14(24-2)20(25-3)17(12)21(23)28-19/h4-5,8-9,18-19H,6-7,10H2,1-3H3/t18-,19+/m0/s1
Instrument: ABSciex API3200 LC/MS system
Instrument type: LC-ESI-QQQ
Ms type: MS
Ion mode: POSITIVE
Precursor type: [M+H]+
m/z	relative intensity
100.4000	56
100.5000	147
100.6000	155
100.7000	119
100.8000	104
100.9000	101
101.0000	64
101.1000	100
101.2000	36
148.5000	94
148.6000	23
175.8000	22
188.9000	22
189.3000	50
189.4000	194
189.5000	365
189.6000	449
189.7000	470
189.8000	454
189.9000	424
190.0000	492
190.1000	802
190.2000	799
190.3000	228
190.4000	149
190.5000	90
190.6000	61
190.7000	67
190.8000	64
190.9000	76
191.0000	98
191.1000	83
191.2000	67
191.3000	65
191.4000	53
191.5000	34
264.9000	25
281.6000	24
281.7000	28
281.8000	30
282.0000	21
282.1000	23
291.3000	21
291.4000	28
291.5000	21
291.6000	34
291.7000	22
291.8000	26
291.9000	38
292.0000	30
292.1000	25
292.2000	25
292.3000	29
292.4000	66
292.5000	84
292.6000	96
292.7000	127
292.8000	118
292.9000	111
293.0000	113
293.1000	119
293.2000	114
293.3000	73
293.4000	62
293.5000	48
293.6000	73
293.7000	40
293.8000	55
293.9000	36
294.0000	41
294.1000	47
294.2000	50
294.3000	36
294.4000	30
294.5000	46
294.6000	48
294.7000	59
294.8000	68
294.9000	60
295.0000	58
295.1000	45
295.2000	64
295.3000	42
295.4000	35
296.5000	29
296.6000	75
296.7000	45
296.8000	34
302.3000	21
304.9000	24
305.3000	21
319.6000	23
319.7000	22
319.8000	32
319.9000	32
320.0000	26
320.1000	22
320.3000	23
321.8000	27
322.0000	21
322.1000	25
322.2000	23
322.3000	75
322.4000	171
322.5000	327
322.6000	410
322.7000	415
322.8000	408
322.9000	393
323.0000	400
323.1000	370
323.2000	350
323.3000	317
323.4000	220
323.5000	140
323.6000	110
323.7000	94
323.8000	100
323.9000	96
324.0000	94
324.1000	91
324.2000	97
324.3000	78
324.4000	64
324.5000	27
324.6000	29
324.8000	21
334.3000	22
334.4000	46
334.5000	71
334.6000	81
334.7000	69
334.8000	64
334.9000	81
335.0000	74
335.1000	62
335.2000	56
335.3000	69
335.4000	36
335.6000	22
335.8000	25
335.9000	70
365.6000	21
365.7000	21
365.8000	23
365.9000	30
366.0000	23
383.2000	43
383.3000	171
383.4000	642
383.5000	845
383.6000	925
383.7000	971
383.8000	964
383.9000	996
384.0000	999
384.1000	933
384.2000	919
384.3000	886
384.4000	787
384.5000	508
384.6000	503
384.7000	498
384.8000	505
384.9000	458
385.0000	462
385.1000	530
385.2000	465
385.3000	447
385.4000	362
385.5000	172
385.6000	139
385.7000	145
385.8000	123
385.9000	109
386.0000	127
386.1000	102
386.2000	121
386.3000	97
386.4000	73
386.5000	23
386.6000	21
386.7000	22
387.0000	22
387.2000	21
766.6000	24
766.7000	21
766.8000	26
766.9000	24
767.0000	31
767.1000	21
