Mass spectrum: N-(2-Hydroxyethyl)cytisine; LC-ESI-QQQ; MS2; Frag=135.0V CID@10.0; [M+H]+
Name: N-(2-Hydroxyethyl)cytisin
Name: (1S,9R)-11-(2-hydroxyethyl)-7,11-diazatricyclo(7.3.1.0(2,7))trideca-2,4-dien-6-one
Name: N-(2-Hydroxyethyl)cytisine
Class: Alkaloids
Formula: C13H18N2O2
Exact mass: 234.3006
SMILES: O=c1cccc2n1CC1CC2CN(CCO)C1
InChI: InChI=1S/C13H18N2O2/c16-5-4-14-7-10-6-11(9-14)12-2-1-3-13(17)15(12)8-10/h1-3,10-11,16H,4-9H2
Instrument: Agilent 6410 Triple Quadrupole LC/MS system
Instrument type: LC-ESI-QQQ
Ms type: MS2
Ion mode: POSITIVE
Precursor type: [M+H]+
m/z	relative intensity
87.5	1
87.6	3
87.7	5
87.8	8
87.9	12
88.0	15
88.1	16
88.2	16
88.3	14
88.4	10
88.5	6
88.6	2
234.3	0
234.4	2
234.5	7
234.6	14
234.7	23
234.8	38
234.9	57
235.0	78
235.1	93
235.2	99
235.3	95
235.4	80
235.5	55
235.6	26
235.7	4
235.8	0
