Mass spectrum: Mesaconitine; LC-ESI-QQQ; MS2; Frag=135.0V CID@5.0; [M+H]+
Name: Mesaconitine
Class: Alkaloids
Formula: C33H45NO11
Exact mass: 631.7267
SMILES: COC[C@]12CN(C)[C@@H]3[C@@H]4[C@H](OC)C1[C@]3(C1C[C@]3(O)[C@@H](OC)[C@H](O)[C@@]4(OC(C)=O)C1[C@H]3OC(=O)c1ccccc1)[C@@H](OC)C[C@H]2O
InChI: InChI=1S/C33H45NO11/c1-16(35)45-33-21-18(13-31(39,28(43-6)26(33)37)27(21)44-29(38)17-10-8-7-9-11-17)32-20(41-4)12-19(36)30(15-40-3)14-34(2)25(32)22(33)23(42-5)24(30)32/h7-11,18-28,36-37,39H,12-15H2,1-6H3/t18?,19-,20+,21?,22+,23+,24?,25-,26+,27-,28+,30+,31-,32+,33-/m1/s1
Instrument: Agilent 6410 Triple Quadrupole LC/MS system
Instrument type: LC-ESI-QQQ
Ms type: MS2
Ion mode: POSITIVE
Precursor type: [M+H]+
m/z	relative intensity
631.3	0
631.4	1
631.5	4
631.6	9
631.7	17
631.8	29
631.9	44
632.0	62
632.1	79
632.2	92
632.3	99
632.4	98
632.5	85
632.6	62
632.7	34
632.8	10
632.9	0
