Mass spectrum: Echinatine; LC-ESI-QQQ; MS2; Frag=135.0V CID@5.0; [M+H]+
Name: Echinatine
Class: Alkaloids
Formula: C15H25NO5
Exact mass: 299.3702
SMILES: CC(C)C(O)(C(=O)OCC1=CCN2CC[C@H](O)[C@@H]12)C(C)O
InChI: InChI=1S/C15H25NO5/c1-9(2)15(20,10(3)17)14(19)21-8-11-4-6-16-7-5-12(18)13(11)16/h4,9-10,12-13,17-18,20H,5-8H2,1-3H3/t10?,12-,13+,15?/m0/s1
Instrument: Agilent 6410 Triple Quadrupole LC/MS system
Instrument type: LC-ESI-QQQ
Ms type: MS2
Ion mode: POSITIVE
Precursor type: [M+H]+
m/z	relative intensity
299.3	1
299.4	2
299.5	5
299.6	9
299.7	16
299.8	29
299.9	49
300.0	71
300.1	90
300.2	99
300.3	96
300.4	81
300.5	56
300.6	28
300.7	6
300.8	0
