Mass spectrum: Confoline; LC-ESI-QQQ; MS2; Frag=135.0V CID@15.0; [M+H]+
Name: Confoline
Class: Alkaloids
Formula: C17H21NO5
Exact mass: 319.3606
SMILES: COc1ccc(C(=O)OC2C[C@@H]3CC[C@H](C2)N3C=O)cc1OC
InChI: InChI=1S/C17H21NO5/c1-21-15-6-3-11(7-16(15)22-2)17(20)23-14-8-12-4-5-13(9-14)18(12)10-19/h3,6-7,10,12-14H,4-5,8-9H2,1-2H3/t12-,13+,14?
Instrument: Agilent 6410 Triple Quadrupole LC/MS system
Instrument type: LC-ESI-QQQ
Ms type: MS2
Ion mode: POSITIVE
Precursor type: [M+H]+
m/z	relative intensity
81.7	2
81.8	3
81.9	5
82.0	6
82.1	6
82.2	6
82.3	5
82.4	4
82.5	2
92.4	1
92.5	2
92.6	5
92.7	8
92.8	13
92.9	19
93.0	24
93.1	26
93.2	25
93.3	21
93.4	16
93.5	9
93.6	3
109.4	0
109.5	2
109.6	5
109.7	9
109.8	14
109.9	20
110.0	25
110.1	27
110.2	27
110.3	24
110.4	19
110.5	13
110.6	6
110.7	1
137.3	0
137.4	3
137.5	8
137.6	17
137.7	32
137.8	53
137.9	75
138.0	92
138.1	99
138.2	98
138.3	88
138.4	69
138.5	44
138.6	19
138.7	4
138.9	7
139.0	11
139.1	13
139.2	12
139.3	10
139.4	8
139.5	4
139.6	1
182.5	1
182.6	2
182.7	4
182.8	6
182.9	9
183.0	12
183.1	13
183.2	13
183.3	11
183.4	8
183.5	4
183.6	1
