Mass spectrum: Bicuculline; LC-ESI-QQQ; MS2; Frag=135.0V CID@25.0; [M+H]+
Name: Bicuculline
Class: Alkaloids
Formula: C20H17NO6
Exact mass: 367.3616
SMILES: CN1CCc2cc3c(cc2[C@H]1[C@@H]1OC(=O)c2c1ccc1c2OCO1)OCO3
InChI: InChI=1S/C20H17NO6/c1-21-5-4-10-6-14-15(25-8-24-14)7-12(10)17(21)18-11-2-3-13-19(26-9-23-13)16(11)20(22)27-18/h2-3,6-7,17-18H,4-5,8-9H2,1H3/t17-,18+/m0/s1
Instrument: Agilent 6410 Triple Quadrupole LC/MS system
Instrument type: LC-ESI-QQQ
Ms type: MS2
Ion mode: POSITIVE
Precursor type: [M+H]+
m/z	relative intensity
175.7	2
175.8	3
175.9	5
176.0	6
176.1	7
176.2	6
176.3	6
176.4	4
176.5	3
189.5	5
189.6	6
189.7	9
189.8	15
189.9	21
190.0	25
190.1	27
190.2	27
190.3	25
190.4	21
190.5	14
190.6	6
190.7	1
248.5	2
248.6	4
248.7	6
248.8	10
248.9	15
249.0	19
249.1	21
249.2	20
249.3	17
249.4	11
249.5	4
249.6	0
260.7	2
260.8	4
260.9	5
261.0	7
261.1	8
261.2	7
261.3	6
261.4	4
261.5	1
276.3	1
276.4	3
276.5	6
276.6	11
276.7	18
276.8	28
276.9	39
277.0	48
277.1	51
277.2	48
277.3	39
277.4	26
277.5	12
277.6	2
278.6	2
278.7	3
278.8	5
278.9	8
279.0	10
279.1	10
279.2	10
279.3	8
279.4	5
279.5	2
288.6	2
288.7	3
288.8	5
288.9	7
289.0	7
289.1	8
289.2	7
289.3	6
289.4	4
289.5	2
306.3	1
306.4	4
306.5	9
306.6	18
306.7	31
306.8	50
306.9	72
307.0	91
307.1	99
307.2	94
307.3	74
307.4	46
307.5	19
307.6	2
318.6	2
318.7	3
318.8	5
318.9	8
319.0	10
319.1	11
319.2	11
319.3	9
319.4	6
319.5	2
367.7	2
367.8	3
367.9	4
368.0	5
368.1	6
368.2	6
368.3	5
368.4	4
368.5	2
