Mass spectrum: 6-Hydroxyhyoscyamine; LC-ESI-QQQ; MS2; Frag=135.0V CID@25.0; [M+H]+
Name: 6-Hydroxyhyoscyamine
Class: Alkaloids
Formula: C17H23NO4
Exact mass: 305.3772
SMILES: CN1C2CC(OC(=O)C(CO)c3ccccc3)CC1C(O)C2
InChI: InChI=1S/C17H23NO4/c1-18-12-7-13(9-15(18)16(20)8-12)22-17(21)14(10-19)11-5-3-2-4-6-11/h2-6,12-16,19-20H,7-10H2,1H3
Instrument: Agilent 6410 Triple Quadrupole LC/MS system
Instrument type: LC-ESI-QQQ
Ms type: MS2
Ion mode: POSITIVE
Precursor type: [M+H]+
m/z	relative intensity
90.7	2
90.8	3
90.9	5
91.0	6
91.1	6
91.2	5
91.3	4
91.4	2
121.7	3
121.8	6
121.9	8
122.0	10
122.1	11
122.2	11
122.3	9
122.4	7
122.5	4
139.2	0
139.3	2
139.4	6
139.5	10
139.6	17
139.7	29
139.8	49
139.9	73
140.0	91
140.1	99
140.2	97
140.3	86
140.4	67
140.5	42
140.6	18
140.7	2
305.5	1
305.6	2
305.7	4
305.8	8
305.9	14
306.0	20
306.1	25
306.2	26
306.3	24
306.4	19
306.5	12
306.6	5
306.7	0
