Mass spectrum: Bryoamaride; LC-ESI-QQQ; MS2; Frag=135.0V CID@5.0; [M-OH]+
Name: Bryoamaride
Class: Terpenoids
Formula: C36H54O12
Exact mass: 678.8246
SMILES: CC(C)(O)CCC(=O)[C@](C)(O)C1[C@H](O)C[C@@]2(C)C3CC=C4[C@@H](C=C(OC5OC(CO)C(O)C(O)C5O)C(=O)C4(C)C)[C@]3(C)C(=O)C[C@]12C
InChI: InChI=1S/C36H54O12/c1-31(2,45)12-11-23(39)36(8,46)28-19(38)14-33(5)22-10-9-17-18(35(22,7)24(40)15-34(28,33)6)13-20(29(44)32(17,3)4)47-30-27(43)26(42)25(41)21(16-37)48-30/h9,13,18-19,21-22,25-28,30,37-38,41-43,45-46H,10-12,14-16H2,1-8H3/t18-,19-,21?,22?,25?,26?,27?,28?,30?,33+,34-,35+,36+/m1/s1
Instrument: Agilent 6410 Triple Quadrupole LC/MS system
Instrument type: LC-ESI-QQQ
Ms type: MS2
Ion mode: POSITIVE
Precursor type: [M-OH]+
m/z	relative intensity
480.7	0
480.8	2
480.9	3
481.0	4
481.1	4
481.2	4
481.3	5
481.4	5
481.5	4
481.6	2
498.5	0
498.6	1
498.7	5
498.8	11
498.9	18
499.0	24
499.1	29
499.2	32
499.3	34
499.4	31
499.5	23
499.6	12
499.7	2
660.2	0
660.3	0
660.4	4
660.5	9
660.6	16
660.7	24
660.8	31
660.9	41
661.0	57
661.1	80
661.2	98
661.3	99
661.4	88
661.5	73
661.6	56
661.7	34
661.8	12
661.9	0
