Mass spectrum: Strychnine; LC-ESI-QQQ; MS2; Frag=135.0V CID@15.0; [M+H]+
Name: Strychnin
Name: strychnidin-10-one
Name: Certox
Name: Strychnine
Class: Alkaloids
Formula: C21H22N2O2
Exact mass: 334.4217
SMILES: O=C1CC2OCC=C3CN4CC[C@]56c7ccccc7N1C5[C@H]2[C@H]3C[C@H]46
InChI: InChI=1S/C21H22N2O2/c24-18-10-16-19-13-9-17-21(6-7-22(17)11-12(13)5-8-25-16)14-3-1-2-4-15(14)23(18)20(19)21/h1-5,13,16-17,19-20H,6-11H2/t13-,16?,17-,19-,20?,21+/m0/s1
Instrument: Agilent 6410 Triple Quadrupole LC/MS system
Instrument type: LC-ESI-QQQ
Ms type: MS2
Ion mode: POSITIVE
Precursor type: [M+H]+
m/z	relative intensity
334.3	0
334.4	3
334.5	6
334.6	11
334.7	18
334.8	31
334.9	51
335.0	73
335.1	91
335.2	99
335.3	98
335.4	83
335.5	56
335.6	25
335.7	4
