Mass spectrum: Felamidin; LC-ESI-QQQ; MS; [M+H]+
Name: Felamidin
Class: Benzopyranoids
Formula: C21H18O5
Exact mass: 350.3746
SMILES: CC(C)(OC(=O)c1ccccc1)C1Cc2cc3ccc(=O)oc3cc2O1
InChI: InChI=1S/C21H18O5/c1-21(2,26-20(23)13-6-4-3-5-7-13)18-11-15-10-14-8-9-19(22)25-16(14)12-17(15)24-18/h3-10,12,18H,11H2,1-2H3
Instrument: ABSciex API3200 LC/MS system
Instrument type: LC-ESI-QQQ
Ms type: MS
Ion mode: POSITIVE
Precursor type: [M+H]+
m/z	relative intensity
100.6000	45
228.4000	112
228.5000	229
228.6000	332
228.7000	347
228.8000	357
228.9000	383
229.0000	374
229.1000	408
229.2000	367
229.3000	325
229.4000	314
229.5000	114
229.6000	81
229.7000	61
229.8000	50
229.9000	65
230.0000	61
230.1000	67
230.2000	66
230.3000	56
230.4000	52
230.5000	21
350.3000	24
350.4000	239
350.5000	564
350.6000	756
350.7000	808
350.8000	866
350.9000	925
351.0000	999
351.1000	829
351.2000	763
351.3000	896
351.4000	425
351.5000	263
351.6000	248
351.7000	243
351.8000	232
351.9000	238
352.0000	214
352.1000	217
352.2000	200
352.3000	167
352.4000	136
352.5000	54
352.6000	46
352.7000	42
352.8000	38
352.9000	32
353.0000	44
353.1000	34
353.2000	39
353.3000	32
353.4000	22
391.6000	21
391.8000	21
391.9000	26
392.0000	21
392.2000	21
700.6000	26
700.7000	32
700.8000	28
700.9000	28
701.0000	22
701.1000	24
