Mass spectrum: Pseudojervine; LC-ESI-QQQ; MS2; Frag=135.0V CID@15.0; [M+HCOO]-
Name: Pseudojervine
Class: Alkaloids
Formula: C33H49NO8
Exact mass: 587.7604
SMILES: CC1=C2C(=O)[C@H]3C(CC=C4C[C@@H](OC5O[C@H](CO)[C@@H](O)[C@H](O)[C@H]5O)CC[C@@]43C)[C@@H]2CC[C@]12OC1C[C@H](C)CN[C@H]1[C@H]2C
InChI: InChI=1S/C33H49NO8/c1-15-11-22-26(34-13-15)17(3)33(42-22)10-8-20-21-6-5-18-12-19(40-31-30(39)29(38)27(36)23(14-35)41-31)7-9-32(18,4)25(21)28(37)24(20)16(33)2/h5,15,17,19-23,25-27,29-31,34-36,38-39H,6-14H2,1-4H3/t15-,17+,19-,20-,21?,22?,23+,25+,26-,27+,29-,30+,31?,32-,33-/m0/s1
Instrument: Agilent 6410 Triple Quadrupole LC/MS system
Instrument type: LC-ESI-QQQ
Ms type: MS2
Ion mode: NEGATIVE
Precursor type: [M+HCOO]-
m/z	relative intensity
50.7	1
50.8	3
50.9	4
51.0	4
51.1	4
51.2	3
51.3	4
51.4	4
51.5	4
51.6	3
51.7	3
51.8	3
51.9	5
52.0	5
52.1	4
52.2	2
52.3	2
52.4	2
52.5	3
52.6	2
52.7	2
52.8	2
52.9	2
53.0	2
53.1	2
53.2	3
53.3	3
53.4	4
53.5	4
53.6	3
53.7	2
53.8	2
53.9	2
54.0	3
54.1	3
54.2	4
54.3	3
54.4	3
54.5	3
54.6	3
54.7	4
54.8	4
54.9	4
55.0	4
55.1	4
55.2	4
55.3	4
55.4	3
55.5	3
55.6	4
55.7	4
55.8	4
55.9	3
56.0	3
56.1	4
56.2	4
56.3	3
56.4	3
56.5	4
56.6	5
56.7	5
56.8	4
56.9	3
57.0	2
57.1	3
57.2	5
57.3	6
57.4	6
57.5	5
57.6	5
57.7	4
57.8	3
57.9	3
58.0	3
58.1	3
58.2	4
58.3	5
58.4	5
58.5	4
58.6	4
58.7	4
58.8	4
58.9	4
59.0	3
59.1	3
59.2	4
59.3	5
59.4	5
59.5	4
59.6	3
59.7	4
59.8	4
59.9	4
60.0	3
60.1	2
60.2	2
60.3	2
60.4	3
60.5	4
60.6	4
60.7	4
60.8	3
60.9	3
61.0	3
61.1	4
61.2	4
61.3	4
61.4	3
61.5	2
61.6	2
61.7	3
61.8	3
61.9	3
62.0	3
62.1	2
62.2	1
62.3	1
62.4	2
62.5	4
62.6	5
62.7	5
119.8	3
119.9	4
120.0	6
120.1	6
120.2	5
120.3	4
252.7	0
252.8	2
252.9	4
253.0	5
253.1	4
253.2	3
253.3	2
253.4	2
253.5	2
253.6	3
253.7	3
253.8	3
253.9	2
254.0	1
254.1	2
254.2	3
254.3	5
254.4	5
254.5	4
254.6	3
254.7	3
254.8	2
254.9	2
255.0	2
255.1	3
255.2	4
255.3	4
255.4	3
255.5	3
255.6	2
255.7	2
255.8	3
255.9	3
256.0	3
256.1	3
256.2	3
256.3	4
256.4	4
256.5	4
256.6	4
256.7	4
256.8	3
256.9	3
257.0	3
257.1	3
257.2	3
257.3	4
257.4	5
257.5	4
257.6	3
257.7	3
257.8	3
257.9	4
258.0	4
258.1	4
258.2	4
258.3	4
258.4	3
258.5	4
258.6	4
258.7	5
258.8	6
258.9	5
259.0	4
259.1	4
259.2	4
259.3	4
259.4	5
259.5	5
259.6	4
259.7	3
259.8	2
259.9	2
260.0	3
260.1	3
260.2	4
260.3	4
260.4	4
260.5	4
260.6	3
260.7	3
260.8	3
260.9	3
261.0	4
261.1	4
261.2	4
261.3	3
261.4	3
261.5	3
261.6	3
261.7	3
261.8	3
261.9	3
262.0	3
262.1	4
262.2	4
262.3	4
262.4	3
262.5	3
262.6	3
262.7	2
262.8	2
262.9	2
263.0	3
263.1	4
263.2	4
263.3	4
263.4	3
263.5	2
263.6	2
263.7	3
263.8	4
263.9	5
264.0	5
264.1	4
264.2	3
264.3	3
264.4	3
264.5	4
264.6	4
264.7	3
264.8	3
264.9	3
265.0	3
265.1	3
265.2	2
265.3	2
265.4	3
265.5	4
265.6	4
265.7	4
265.8	3
265.9	2
266.0	2
266.1	3
266.2	4
266.3	5
266.4	5
266.5	4
266.6	3
266.7	2
266.8	2
266.9	3
267.0	3
267.1	4
267.2	4
267.3	3
267.4	3
267.5	3
267.6	4
267.7	4
267.8	3
267.9	3
268.0	2
268.1	3
268.2	3
268.3	4
268.4	4
268.5	3
268.6	3
268.7	3
268.8	3
268.9	2
269.0	2
269.1	2
269.2	3
269.3	4
269.4	4
269.5	4
269.6	3
269.7	3
269.8	2
269.9	3
270.0	3
270.1	4
270.2	4
270.3	3
270.4	1
270.5	1
270.6	1
270.7	2
270.8	3
270.9	3
271.0	2
271.1	2
271.2	2
271.3	2
271.4	3
271.5	4
271.6	5
271.7	5
271.8	4
271.9	3
272.0	2
272.1	2
272.2	2
272.3	2
272.4	2
272.5	2
272.6	2
272.7	2
272.8	2
272.9	3
273.0	3
273.1	3
273.2	4
273.3	4
273.4	5
273.5	4
273.6	4
273.7	3
273.8	3
273.9	4
274.0	4
274.1	3
274.2	3
274.3	3
274.4	3
274.5	4
274.6	4
274.7	4
274.8	4
274.9	4
275.0	5
275.1	6
275.2	6
275.3	5
302.5	1
302.6	3
302.7	5
302.8	5
302.9	5
303.0	3
303.1	2
303.2	2
303.3	3
303.4	3
303.5	3
303.6	3
303.7	3
303.8	2
303.9	3
304.0	3
304.1	4
304.2	3
304.3	3
304.4	3
304.5	3
304.6	4
304.7	4
304.8	5
304.9	5
305.0	5
305.1	5
305.2	5
305.3	5
305.4	5
305.5	5
305.6	5
305.7	4
305.8	3
305.9	3
306.0	3
306.1	4
306.2	5
306.3	5
306.4	5
306.5	4
306.6	3
306.7	3
306.8	4
306.9	4
307.0	4
307.1	3
307.2	3
307.3	3
307.4	4
307.5	4
307.6	4
307.7	4
307.8	3
307.9	3
308.0	3
308.1	3
308.2	3
308.3	4
308.4	4
308.5	5
308.6	5
308.7	5
308.8	4
308.9	3
309.0	3
309.1	3
309.2	3
309.3	3
309.4	2
309.5	2
309.6	2
309.7	3
309.8	3
309.9	3
310.0	3
310.1	3
310.2	3
310.3	3
310.4	3
310.5	4
310.6	4
310.7	4
310.8	4
310.9	3
311.0	2
311.1	2
311.2	2
311.3	2
311.4	2
311.5	2
311.6	1
311.7	1
311.8	2
311.9	3
312.0	2
312.1	2
312.2	2
312.3	4
312.4	5
312.5	5
312.6	4
312.7	3
312.8	2
312.9	1
313.0	1
313.1	1
313.2	1
313.3	2
313.4	2
313.5	2
313.6	3
313.7	4
313.8	3
313.9	3
314.0	2
314.1	2
314.2	3
314.3	4
314.4	4
314.5	4
314.6	5
314.7	5
314.8	4
532.2	2
532.3	4
532.4	5
532.5	6
532.6	5
532.7	4
532.8	2
532.9	2
533.0	3
533.1	4
533.2	4
533.3	3
533.4	3
533.5	3
533.6	3
533.7	3
533.8	3
533.9	3
534.0	3
534.1	3
534.2	3
534.3	2
534.4	1
534.5	1
534.6	2
534.7	4
534.8	4
534.9	4
535.0	4
535.1	4
535.2	4
535.3	3
535.4	4
535.5	4
535.6	4
535.7	4
535.8	3
535.9	2
536.0	2
536.1	2
536.2	2
536.3	2
536.4	3
536.5	3
536.6	4
536.7	4
536.8	4
536.9	4
537.0	3
537.1	3
537.2	3
537.3	3
537.4	4
537.5	5
537.6	5
537.7	6
538.1	3
538.2	5
538.3	7
538.4	6
538.5	5
538.6	4
538.7	5
538.8	6
538.9	6
539.0	6
539.1	5
539.2	5
539.3	4
539.4	4
539.5	4
539.6	5
539.7	5
539.8	5
539.9	4
540.0	4
540.1	3
540.2	3
540.3	4
540.4	4
540.5	4
540.6	4
540.7	3
540.8	3
540.9	3
541.0	4
541.1	4
541.2	4
541.3	3
541.4	3
541.5	3
541.6	4
541.7	4
541.8	5
541.9	5
542.0	5
542.1	4
542.2	4
542.3	4
542.4	4
542.5	4
542.6	4
542.7	3
542.8	3
542.9	2
543.0	3
543.1	3
543.2	3
543.3	3
543.4	2
543.5	2
543.6	3
543.7	3
543.8	4
543.9	4
544.0	3
544.1	3
544.2	2
544.3	2
544.4	3
544.5	4
544.6	4
544.7	5
544.8	5
544.9	5
545.0	3
631.4	0
631.5	2
631.6	11
631.7	31
631.8	58
631.9	77
632.0	73
632.1	50
632.2	30
662.0	2
662.1	4
662.2	5
662.3	6
662.4	4
662.5	3
662.6	3
662.7	4
662.8	5
662.9	6
663.0	6
663.1	5
663.2	5
663.3	4
663.4	4
663.5	4
663.6	4
663.7	5
663.8	6
663.9	6
664.0	5
682.9	3
683.0	5
683.1	6
683.2	6
683.3	5
