Mass spectrum: gramicidin S; LC-ESI-QQQ; MS; [M+H]+
Name: gramicidin S
Class: Aminoacids and peptides
Formula: C60H92N12O10
Exact mass: 1141.4766
SMILES: CC(C)C[C@H]1N=C(O)[C@@H](CCCN)N=C(O)[C@@H](C(C)C)N=C(O)[C@H]2CCCN2C(=O)[C@H](Cc2ccccc2)N=C(O)[C@@H](CC(C)C)N=C(O)[C@@H](CCCN)N=C(O)[C@@H](C(C)C)N=C(O)[C@H]2CCCN2C(=O)[C@H](Cc2ccccc2)N=C1O
InChI: InChI=1S/C60H92N12O10/c1-35(2)31-43-53(75)67-45(33-39-19-11-9-12-20-39)59(81)71-29-17-25-47(71)55(77)70-50(38(7)8)58(80)64-42(24-16-28-62)52(74)66-44(32-36(3)4)54(76)68-46(34-40-21-13-10-14-22-40)60(82)72-30-18-26-48(72)56(78)69-49(37(5)6)57(79)63-41(23-15-27-61)51(73)65-43/h9-14,19-22,35-38,41-50H,15-18,23-34,61-62H2,1-8H3,(H,63,79)(H,64,80)(H,65,73)(H,66,74)(H,67,75)(H,68,76)(H,69,78)(H,70,77)/t41-,42-,43-,44-,45+,46+,47-,48-,49-,50-/m1/s1
Instrument: ABSciex API3200 LC/MS system
Instrument type: LC-ESI-QQQ
Ms type: MS
Ion mode: POSITIVE
Precursor type: [M+H]+
m/z	relative intensity
233.0000	22
310.9000	21
311.0000	21
440.6000	33
440.7000	42
440.8000	42
440.9000	49
441.0000	56
441.1000	61
441.2000	57
441.3000	66
441.4000	55
441.5000	44
441.6000	35
441.7000	33
441.8000	31
441.9000	28
557.2000	22
557.4000	22
570.4000	108
570.5000	255
570.6000	554
570.7000	778
570.8000	804
570.9000	849
571.0000	844
571.1000	877
571.2000	969
571.3000	999
571.4000	971
571.5000	881
571.6000	781
571.7000	749
571.8000	730
571.9000	707
572.0000	552
572.1000	414
572.2000	372
572.3000	376
572.4000	355
572.5000	265
572.6000	152
572.7000	130
572.8000	118
572.9000	97
573.0000	72
573.1000	36
573.2000	30
573.3000	29
573.4000	23
577.6000	39
577.7000	67
577.8000	76
577.9000	90
578.0000	98
578.1000	118
578.2000	125
578.3000	132
578.4000	127
578.5000	96
578.6000	77
578.7000	73
578.8000	77
578.9000	62
579.0000	41
579.1000	32
579.2000	39
579.3000	26
579.4000	22
881.1000	21
1140.4000	25
1140.5000	70
1140.6000	101
1140.7000	122
1140.8000	145
1140.9000	156
1141.0000	160
1141.1000	170
1141.2000	178
1141.3000	180
1141.4000	162
1141.5000	163
1141.6000	165
1141.7000	125
1141.8000	119
1141.9000	118
1142.0000	132
1142.1000	122
1142.2000	124
1142.3000	135
1142.4000	121
1142.5000	114
1142.6000	94
1142.7000	62
1142.8000	73
1142.9000	87
1143.0000	70
1143.1000	51
1143.2000	50
1143.3000	48
1143.4000	46
1143.5000	41
1143.6000	37
