Mass spectrum: Icariin; LC-ESI-QQQ; MS2; Frag=135.0V CID@5.0; [M+H]+
Name: Icariin
Name: 3-[(6-Deoxy-alpha-L-mannopyranosyl)oxy]-7-(beta-D-glucopyranosyloxy)-5-hydroxy-2-(4-methoxyphenyl)-8-(3-methyl-2-buten-1-yl)-4H-1-benzopyran-4-one
Class: Flavonoids
Formula: C33H40O15
Exact mass: 676.236721
SMILES: C[C@H]1[C@@H]([C@H]([C@H]([C@@H](O1)OC2=C(OC3=C(C2=O)C(=CC(=C3CC=C(C)C)O[C@H]4[C@@H]([C@H]([C@@H]([C@H](O4)CO)O)O)O)O)C5=CC=C(C=C5)OC)O)O)O
InChI: InChI=1S/C33H40O15/c1-13(2)5-10-17-19(45-33-28(42)26(40)23(37)20(12-34)46-33)11-18(35)21-24(38)31(48-32-27(41)25(39)22(36)14(3)44-32)29(47-30(17)21)15-6-8-16(43-4)9-7-15/h5-9,11,14,20,22-23,25-28,32-37,39-42H,10,12H2,1-4H3/t14-,20+,22-,23+,25+,26-,27+,28+,32-,33+/m0/s1
Instrument: Agilent 6410 Triple Quadrupole LC/MS system
Instrument type: LC-ESI-QQQ
Ms type: MS2
Ion mode: POSITIVE
Precursor type: [M+H]+
m/z	relative intensity
368.5	1
368.6	2
368.7	3
368.8	6
368.9	8
369.0	11
369.1	12
369.2	13
369.3	12
369.4	9
369.5	5
369.6	1
530.1	0
530.2	1
530.3	4
530.4	9
530.5	14
530.6	21
530.7	32
530.8	50
530.9	70
531.0	87
531.1	97
531.2	99
531.3	93
531.4	75
531.5	48
531.6	20
531.7	2
676.2	0
676.3	1
676.4	4
676.5	11
676.6	19
676.7	29
676.8	43
676.9	61
677.0	77
677.1	89
677.2	95
677.3	95
677.4	89
677.5	71
677.6	43
677.7	15
677.8	0
