Mass spectrum: oreoselone; LC-ESI-QQQ; MS2; Frag=135.0V CID@10.0; [M+H]+
Name: oreoselone
Class: Benzopyranoids
Formula: C14H12O4
Exact mass: 244.2493
SMILES: CC(C)C1Oc2cc3oc(=O)ccc3cc2C1=O
InChI: InChI=1S/C14H12O4/c1-7(2)14-13(16)9-5-8-3-4-12(15)17-10(8)6-11(9)18-14/h3-7,14H,1-2H3
Instrument: Agilent 6410 Triple Quadrupole LC/MS system
Instrument type: LC-ESI-QQQ
Ms type: MS2
Ion mode: POSITIVE
Precursor type: [M+H]+
m/z	relative intensity
188.2	0
188.3	2
188.4	4
188.5	10
188.6	18
188.7	31
188.8	47
188.9	64
189.0	77
189.1	81
189.2	74
189.3	56
189.4	33
189.5	12
189.6	0
244.2	0
244.3	1
244.4	4
244.5	10
244.6	19
244.7	31
244.8	47
244.9	67
245.0	87
245.1	99
245.2	99
245.3	85
245.4	59
245.5	31
245.6	8
245.7	0
