Mass spectrum: Rosamicin; LC-ESI-QQQ; MS2; Frag=135.0V CID@10.0; [M+HCOO]-
Name: Rosamicin
Class: Polyketides
Formula: C31H51NO9
Exact mass: 581.7534
SMILES: CC[C@H]1OC(=O)C[C@@H](O)[C@H](C)[C@@H](O[C@@H]2O[C@H](C)C[C@H](N(C)C)C2O)[C@@H](CC=O)C[C@@H](C)C(=O)/C=C/[C@]2(C)O[C@H]2[C@@H]1C
InChI: InChI=1S/C31H51NO9/c1-9-25-20(5)29-31(6,41-29)12-10-23(34)17(2)14-21(11-13-33)28(19(4)24(35)16-26(36)39-25)40-30-27(37)22(32(7)8)15-18(3)38-30/h10,12-13,17-22,24-25,27-30,35,37H,9,11,14-16H2,1-8H3/b12-10+/t17-,18-,19+,20-,21+,22+,24-,25-,27?,28-,29+,30+,31+/m1/s1
Instrument: Agilent 6410 Triple Quadrupole LC/MS system
Instrument type: LC-ESI-QQQ
Ms type: MS2
Ion mode: NEGATIVE
Precursor type: [M+HCOO]-
m/z	relative intensity
124.6	1
124.7	4
124.8	7
124.9	9
125.0	8
125.1	6
125.2	3
173.6	0
173.7	4
173.8	9
173.9	13
174.0	13
174.1	9
174.2	5
174.3	3
244.7	2
244.8	4
244.9	5
245.0	6
245.1	7
245.2	7
245.3	5
245.4	2
246.7	2
246.8	5
246.9	9
247.0	10
247.1	7
247.2	3
386.3	0
386.4	0
386.5	6
386.6	24
386.7	52
386.8	82
386.9	99
387.0	99
387.1	90
387.2	85
387.3	83
387.4	74
387.5	51
387.6	23
387.7	3
