Mass spectrum: Dehydroabietic acid; LC-ESI-QQQ; MS; [M+H]+
Name: Dehydroabietic acid
Class: Terpenoids
Formula: C20H28O2
Exact mass: 300.445
SMILES: CC(C)c1ccc2c(c1)CCC1[C@]2(C)CCC[C@@]1(C)C(=O)O
InChI: InChI=1S/C20H28O2/c1-13(2)14-6-8-16-15(12-14)7-9-17-19(16,3)10-5-11-20(17,4)18(21)22/h6,8,12-13,17H,5,7,9-11H2,1-4H3,(H,21,22)/t17?,19-,20-/m1/s1
Instrument: ABSciex API3200 LC/MS system
Instrument type: LC-ESI-QQQ
Ms type: MS
Ion mode: POSITIVE
Precursor type: [M+H]+
m/z	relative intensity
100.0000	59
100.1000	60
100.4000	48
101.4000	37
101.8000	33
101.9000	55
105.0000	23
107.3000	47
109.0000	27
109.1000	37
113.6000	23
113.7000	29
114.4000	27
116.6000	39
116.7000	35
116.8000	44
117.1000	56
118.0000	31
118.1000	33
121.0000	28
127.6000	24
128.6000	24
130.7000	25
130.8000	42
130.9000	39
131.2000	62
131.3000	21
131.4000	36
132.1000	24
132.5000	44
132.6000	47
132.7000	71
132.8000	101
132.9000	66
133.0000	70
133.1000	67
133.2000	94
133.3000	34
133.4000	42
133.5000	32
134.8000	21
135.3000	44
135.5000	41
135.6000	25
136.2000	22
142.4000	81
142.5000	38
142.8000	50
142.9000	31
143.0000	90
143.1000	21
143.2000	37
143.3000	42
143.7000	22
146.6000	32
148.5000	69
148.6000	120
148.7000	110
148.8000	294
148.9000	190
149.0000	315
149.1000	250
149.2000	243
149.3000	129
149.4000	35
149.5000	30
149.8000	47
150.1000	31
154.5000	25
154.6000	41
154.8000	55
155.0000	44
155.3000	29
157.9000	24
158.5000	35
158.6000	95
158.7000	135
158.8000	134
158.9000	151
159.0000	171
159.1000	139
159.2000	169
159.3000	143
159.4000	85
159.5000	72
159.6000	57
159.7000	35
159.8000	27
160.0000	22
160.4000	40
160.6000	27
160.8000	26
163.0000	29
166.4000	29
166.6000	23
167.3000	33
167.4000	26
171.1000	34
172.5000	36
172.6000	125
172.7000	187
172.8000	87
172.9000	112
173.0000	269
173.1000	207
173.2000	82
173.3000	92
173.4000	82
173.5000	60
173.8000	29
173.9000	48
174.0000	23
174.3000	24
175.9000	28
180.9000	23
182.6000	36
184.6000	27
184.8000	22
185.0000	24
186.5000	25
186.7000	32
186.8000	77
186.9000	21
187.0000	88
187.1000	99
187.2000	38
187.3000	47
187.4000	48
187.5000	44
190.8000	25
193.8000	27
194.1000	21
194.2000	40
197.4000	29
197.8000	88
208.6000	52
208.7000	37
208.8000	22
208.9000	27
209.0000	63
209.1000	24
209.2000	33
209.3000	25
209.4000	35
209.5000	23
209.6000	21
210.5000	30
210.8000	26
210.9000	28
211.0000	30
211.1000	43
211.2000	65
211.3000	24
211.5000	24
212.9000	29
213.7000	21
213.9000	54
221.3000	58
223.1000	26
223.3000	33
226.8000	29
227.1000	25
235.3000	22
239.1000	27
239.2000	24
240.7000	22
240.8000	27
241.4000	26
250.6000	59
250.7000	81
250.8000	52
250.9000	61
251.0000	80
251.1000	70
251.2000	89
251.3000	76
251.4000	78
251.5000	75
251.7000	29
251.8000	24
252.3000	21
252.7000	34
252.8000	41
252.9000	40
253.0000	26
253.1000	21
253.2000	78
253.3000	77
253.5000	39
254.5000	89
254.6000	209
254.7000	345
254.8000	349
254.9000	360
255.0000	395
255.1000	388
255.2000	371
255.3000	283
255.4000	303
255.5000	264
255.6000	144
255.7000	73
255.8000	44
255.9000	45
256.0000	44
256.1000	102
256.2000	46
256.3000	83
256.4000	64
256.5000	54
257.3000	33
264.7000	39
268.7000	21
268.9000	42
269.1000	36
269.4000	29
269.5000	35
269.6000	27
281.0000	21
282.7000	43
282.8000	78
282.9000	36
283.0000	59
283.1000	46
283.2000	59
283.3000	47
283.4000	36
283.9000	31
284.4000	21
284.7000	25
286.8000	30
287.0000	26
287.1000	46
287.2000	55
287.3000	27
296.7000	30
296.8000	41
296.9000	24
297.0000	25
297.2000	34
298.0000	24
298.3000	21
298.7000	40
298.8000	57
298.9000	57
299.0000	76
299.1000	106
299.2000	47
299.3000	84
299.4000	62
299.5000	61
299.8000	22
299.9000	23
300.0000	23
300.1000	22
300.3000	21
300.4000	23
300.5000	34
300.6000	140
300.7000	603
300.8000	352
300.9000	355
301.0000	347
301.1000	312
301.2000	534
301.3000	999
301.4000	363
301.5000	315
301.6000	141
301.7000	43
301.8000	83
301.9000	101
302.0000	73
302.1000	99
302.2000	96
302.3000	391
302.4000	29
302.5000	39
302.9000	21
303.0000	21
303.2000	30
303.4000	22
310.1000	22
313.2000	32
313.3000	21
314.5000	25
314.6000	104
314.7000	229
314.8000	366
314.9000	289
315.0000	317
315.1000	239
315.2000	363
315.3000	427
315.4000	250
315.5000	159
315.6000	60
315.7000	64
315.8000	108
315.9000	141
316.0000	119
316.1000	82
316.2000	78
316.3000	93
316.4000	91
316.5000	95
316.6000	64
316.7000	62
316.8000	37
316.9000	41
317.1000	24
317.2000	27
317.3000	43
317.4000	25
317.6000	44
317.7000	68
317.8000	65
317.9000	37
318.0000	29
318.1000	48
318.2000	73
318.3000	53
318.4000	28
318.5000	53
318.6000	29
318.7000	31
318.8000	35
319.1000	25
319.4000	30
319.5000	22
332.6000	21
332.9000	24
333.1000	45
341.6000	80
341.7000	78
341.8000	173
341.9000	125
342.0000	154
342.1000	69
342.2000	166
342.3000	101
342.4000	65
342.5000	45
342.6000	41
342.7000	36
342.8000	56
343.0000	24
343.1000	38
343.2000	33
343.3000	40
343.5000	27
348.6000	21
349.8000	27
356.5000	26
368.7000	28
391.3000	25
391.5000	33
432.9000	30
433.1000	25
433.2000	44
433.3000	48
600.8000	52
600.9000	65
601.0000	35
601.1000	51
601.2000	38
601.4000	27
601.5000	30
601.6000	23
602.0000	31
602.5000	22
