Mass spectrum: Obtusinin; LC-ESI-QQQ; MS2; Frag=135.0V CID@25.0; [M+H]+
Name: Obtusinin
Class: Terpenoids
Formula: C15H18O6
Exact mass: 294.3071
SMILES: COc1cc2ccc(=O)oc2cc1OCC(O)C(C)(C)O
InChI: InChI=1S/C15H18O6/c1-15(2,18)13(16)8-20-12-7-10-9(6-11(12)19-3)4-5-14(17)21-10/h4-7,13,16,18H,8H2,1-3H3
Instrument: Agilent 6410 Triple Quadrupole LC/MS system
Instrument type: LC-ESI-QQQ
Ms type: MS2
Ion mode: POSITIVE
Precursor type: [M+H]+
m/z	relative intensity
132.4	1
132.5	3
132.6	5
132.7	9
132.8	13
132.9	17
133.0	19
133.1	19
133.2	17
133.3	14
133.4	9
133.5	4
177.5	1
177.6	3
177.7	4
177.8	7
177.9	9
178.0	11
178.1	11
178.2	11
178.3	9
178.4	6
178.5	3
192.2	0
192.3	1
192.4	5
192.5	13
192.6	24
192.7	41
192.8	60
192.9	79
193.0	93
193.1	99
193.2	95
193.3	80
193.4	56
193.5	28
193.6	6
193.7	0
