Mass spectrum: Andrographolide; LC-ESI-QQQ; MS2; Frag=135.0V CID@15.0; [M+HCOO]-
Name: Andrographolide
Class: Terpenoids
Formula: C20H30O5
Exact mass: 350.4591
SMILES: C=C1CCC2C(C)(CO)C(O)CC[C@]2(C)C1C/C=C1/C(=O)OCC1O
InChI: InChI=1S/C20H30O5/c1-12-4-7-16-19(2,9-8-17(23)20(16,3)11-21)14(12)6-5-13-15(22)10-25-18(13)24/h5,14-17,21-23H,1,4,6-11H2,2-3H3/b13-5+/t14?,15?,16?,17?,19-,20?/m1/s1
Instrument: Agilent 6410 Triple Quadrupole LC/MS system
Instrument type: LC-ESI-QQQ
Ms type: MS2
Ion mode: NEGATIVE
Precursor type: [M+HCOO]-
m/z	relative intensity
286.4	0
286.5	1
286.6	7
286.7	18
286.8	32
286.9	47
287.0	60
287.1	68
287.2	73
287.3	73
287.4	66
287.5	49
287.6	26
287.7	7
287.8	0
330.3	1
330.4	3
330.5	7
330.6	17
330.7	32
330.8	52
330.9	74
331.0	92
331.1	99
331.2	99
331.3	94
331.4	82
331.5	59
331.6	31
331.7	7
331.8	0
