Mass spectrum: Lasiocarpine; LC-ESI-QQQ; MS2; Frag=135.0V CID@15.0; [M+H]+
Name: Lasiocarpine
Class: Alkaloids
Formula: C21H33NO7
Exact mass: 411.4997
SMILES: C/C=C(/C)C(=O)O[C@H]1CCN2CC=C(COC(=O)C(O)(C(C)OC)C(C)(C)O)[C@H]12
InChI: InChI=1S/C21H33NO7/c1-7-13(2)18(23)29-16-9-11-22-10-8-15(17(16)22)12-28-19(24)21(26,14(3)27-6)20(4,5)25/h7-8,14,16-17,25-26H,9-12H2,1-6H3/b13-7-/t14?,16-,17+,21?/m0/s1
Instrument: Agilent 6410 Triple Quadrupole LC/MS system
Instrument type: LC-ESI-QQQ
Ms type: MS2
Ion mode: POSITIVE
Precursor type: [M+H]+
m/z	relative intensity
119.2	0
119.3	1
119.4	4
119.5	10
119.6	20
119.7	35
119.8	55
119.9	77
120.0	93
120.1	99
120.2	95
120.3	81
120.4	60
120.5	35
120.6	13
120.7	1
219.3	0
219.4	1
219.5	4
219.6	9
219.7	17
219.8	29
219.9	44
220.0	59
220.1	69
220.2	72
220.3	66
220.4	52
220.5	33
220.6	14
220.7	2
237.7	2
237.8	4
237.9	6
238.0	8
238.1	10
238.2	11
238.3	10
238.4	8
238.5	5
238.6	2
335.3	0
335.4	2
335.5	5
335.6	9
335.7	14
335.8	24
335.9	38
336.0	55
336.1	68
336.2	75
336.3	72
336.4	58
336.5	37
336.6	15
336.7	1
393.8	1
393.9	3
394.0	4
394.1	5
394.2	6
394.3	6
394.4	5
394.5	4
394.6	2
411.4	1
411.5	3
411.6	6
411.7	10
411.8	18
411.9	30
412.0	44
412.1	56
412.2	64
412.3	64
412.4	57
412.5	42
412.6	24
412.7	8
412.8	0
