Mass spectrum: Usnone A; LC-ESI-QQQ; MS2; Frag=135.0V CID@25.0; [M+H]+
Name: Usnone A
Class: Terpenoids
Formula: C18H16O7
Exact mass: 344.324
SMILES: CC(=O)c1c(O)c(C)c(O)c2c1OC1=CC(=O)C(C(C)=O)C(=O)[C@@]12C
InChI: InChI=1S/C18H16O7/c1-6-14(22)12(8(3)20)16-13(15(6)23)18(4)10(25-16)5-9(21)11(7(2)19)17(18)24/h5,11,22-23H,1-4H3/t11?,18-/m0/s1
Instrument: Agilent 6410 Triple Quadrupole LC/MS system
Instrument type: LC-ESI-QQQ
Ms type: MS2
Ion mode: POSITIVE
Precursor type: [M+H]+
m/z	relative intensity
186.9	1
187.0	3
187.1	5
187.2	6
187.3	5
190.7	2
190.8	3
190.9	5
191.0	6
191.1	7
191.2	6
191.3	4
200.7	1
200.8	3
200.9	6
201.0	8
201.1	8
201.2	5
214.5	1
214.6	5
214.7	12
214.8	16
214.9	16
215.0	16
215.1	19
215.2	22
215.3	20
215.4	11
215.5	3
216.6	1
216.7	3
216.8	6
216.9	7
217.0	7
217.1	4
218.5	1
218.6	3
218.7	5
218.8	6
218.9	9
219.0	14
219.1	20
219.2	21
219.3	15
219.4	8
219.5	3
232.2	2
232.3	5
232.4	9
232.5	15
232.6	25
232.7	39
232.8	58
232.9	78
233.0	90
233.1	89
233.2	79
233.3	63
233.4	43
233.5	21
233.6	4
242.7	3
242.8	7
242.9	18
243.0	26
243.1	25
243.2	14
243.3	4
256.5	2
256.6	4
256.7	8
256.8	12
256.9	16
257.0	19
257.1	22
257.2	23
257.3	18
257.4	11
257.5	4
260.3	0
260.4	3
260.5	10
260.6	17
260.7	20
260.8	22
260.9	30
261.0	47
261.1	67
261.2	75
261.3	62
261.4	36
261.5	11
261.6	0
266.6	3
266.7	5
266.8	7
266.9	8
267.0	7
267.1	4
270.8	1
270.9	3
271.0	7
271.1	9
271.2	8
271.3	5
274.7	2
274.8	3
274.9	5
275.0	7
275.1	8
275.2	7
275.3	6
275.4	4
281.0	3
281.1	5
281.2	7
281.3	8
281.4	6
281.5	4
283.5	1
283.6	3
283.7	6
283.8	10
283.9	13
284.0	12
284.1	8
284.2	4
284.6	1
284.7	5
284.8	12
284.9	20
285.0	26
285.1	27
285.2	24
285.3	20
285.4	14
285.5	7
285.6	2
298.8	2
298.9	3
299.0	6
299.1	8
299.2	8
299.3	5
299.4	2
302.5	1
302.6	2
302.7	7
302.8	17
302.9	28
303.0	32
303.1	28
303.2	20
303.3	11
303.4	5
308.5	0
308.6	1
308.7	9
308.8	26
308.9	43
309.0	50
309.1	43
309.2	28
309.3	14
309.4	5
311.5	2
311.6	4
311.7	7
311.8	7
311.9	6
312.0	5
312.1	5
312.2	4
314.4	1
314.5	3
314.6	6
314.7	8
314.8	8
314.9	10
315.0	14
315.1	19
315.2	21
315.3	20
315.4	14
315.5	7
315.6	1
326.2	1
326.3	3
326.4	5
326.5	8
326.6	11
326.7	19
326.8	35
326.9	56
327.0	77
327.1	94
327.2	99
327.3	84
327.4	52
327.5	19
327.6	1
329.5	1
329.6	2
329.7	7
329.8	17
329.9	33
330.0	48
330.1	52
330.2	43
330.3	25
330.4	9
330.5	1
344.5	1
344.6	3
344.7	7
344.8	10
344.9	10
345.0	7
345.1	4
