Mass spectrum: Longatin; LC-ESI-QQQ; MS2; Frag=135.0V CID@15.0; [M+H]+
Name: Longatin
Class: Alkaloids
Formula: C22H23NO7
Exact mass: 413.4311
SMILES: CN1CCC2=CC3=C(C(=C2[C@@H]1[C@@H]4C5=C(C(=C(C=C5)OC)OC)C(=O)O4)OC)OCO3
InChI: InChI=1S/C22H23NO7/c1-23-8-7-11-9-14-20(29-10-28-14)21(27-4)15(11)17(23)18-12-5-6-13(25-2)19(26-3)16(12)22(24)30-18/h5-6,9,17-18H,7-8,10H2,1-4H3/t17-,18+/m1/s1
Instrument: Agilent 6410 Triple Quadrupole LC/MS system
Instrument type: LC-ESI-QQQ
Ms type: MS2
Ion mode: POSITIVE
Precursor type: [M+H]+
m/z	relative intensity
219.2	0
219.3	2
219.4	5
219.5	9
219.6	16
219.7	29
219.8	48
219.9	71
220.0	90
220.1	99
220.2	98
220.3	87
220.4	68
220.5	42
220.6	17
220.7	1
352.6	2
352.7	3
352.8	6
352.9	9
353.0	11
353.1	13
353.2	13
353.3	11
353.4	7
353.5	4
413.3	0
413.4	2
413.5	4
413.6	8
413.7	13
413.8	22
413.9	35
414.0	47
414.1	55
414.2	57
414.3	52
414.4	40
414.5	24
414.6	9
414.7	0
