Mass spectrum: 16-Oxo-19-beyeranoic acid; LC-ESI-QQQ; MS; [M+H]+
Name: 16-Oxo-19-beyeranoic acid
Class: Terpenoids
Formula: C20H30O3
Exact mass: 318.4603
SMILES: C[C@@]12CCC3[C@]4(C)CCC[C@@](C)(C(=O)O)C4CC[C@]3(CC1=O)C2
InChI: InChI=1S/C20H30O3/c1-17-9-5-14-18(2)7-4-8-19(3,16(22)23)13(18)6-10-20(14,12-17)11-15(17)21/h13-14H,4-12H2,1-3H3,(H,22,23)/t13?,14?,17-,18+,19+,20-/m0/s1
Instrument: ABSciex API3200 LC/MS system
Instrument type: LC-ESI-QQQ
Ms type: MS
Ion mode: POSITIVE
Precursor type: [M+H]+
m/z	relative intensity
100.7000	22
100.8000	27
100.9000	27
101.1000	52
101.2000	77
101.3000	30
141.9000	24
254.6000	30
254.7000	37
254.8000	30
254.9000	35
255.0000	45
255.1000	49
255.2000	35
255.3000	28
255.4000	41
255.5000	27
272.5000	40
272.6000	97
272.7000	182
272.8000	164
272.9000	183
273.0000	175
273.1000	185
273.2000	174
273.3000	138
273.4000	136
273.5000	101
273.6000	69
273.7000	32
273.8000	42
274.0000	28
274.1000	36
274.2000	25
274.3000	40
274.4000	74
274.5000	30
283.2000	23
300.5000	21
300.6000	46
300.7000	73
300.8000	73
300.9000	197
301.0000	111
301.1000	80
301.2000	74
301.3000	62
301.4000	54
301.5000	52
301.6000	36
318.4000	34
318.5000	252
318.6000	508
318.7000	631
318.8000	764
318.9000	780
319.0000	764
319.1000	807
319.2000	676
319.3000	664
319.4000	584
319.5000	989
319.6000	350
319.7000	193
319.8000	184
319.9000	180
320.0000	188
320.1000	176
320.2000	171
320.3000	146
320.4000	138
320.5000	132
320.6000	45
320.7000	39
320.8000	38
320.9000	22
321.0000	83
321.1000	46
335.6000	33
335.7000	67
335.8000	76
335.9000	61
336.0000	72
336.1000	71
336.2000	71
336.3000	55
336.4000	63
336.5000	60
336.6000	31
336.8000	23
336.9000	21
337.2000	25
359.6000	39
359.7000	60
359.8000	78
359.9000	83
360.0000	96
360.1000	72
360.2000	86
360.3000	80
360.4000	75
360.5000	74
360.6000	26
360.7000	28
360.8000	30
360.9000	32
361.0000	27
361.1000	27
361.2000	28
361.3000	21
361.4000	28
361.5000	21
636.4000	22
636.5000	104
636.6000	362
636.7000	644
636.8000	857
636.9000	955
637.0000	975
637.1000	999
637.2000	957
637.3000	902
637.4000	830
637.5000	724
637.6000	356
637.7000	365
637.8000	443
637.9000	512
638.0000	535
638.1000	514
638.2000	488
638.3000	473
638.4000	478
638.5000	358
638.6000	149
638.7000	126
638.8000	136
638.9000	147
639.0000	160
639.1000	145
639.2000	153
639.3000	228
639.4000	141
639.5000	103
639.6000	47
639.7000	30
639.8000	26
639.9000	38
640.0000	28
640.1000	30
640.3000	30
640.4000	25
653.7000	28
653.8000	47
653.9000	64
654.0000	70
654.1000	67
654.2000	92
654.3000	68
654.4000	59
654.5000	47
654.6000	31
654.8000	26
654.9000	28
655.0000	24
655.1000	43
655.2000	25
655.3000	30
655.4000	26
655.5000	26
