Mass spectrum: alpha-Dihydrolysergol; LC-ESI-QQQ; MS2; Frag=135.0V CID@10.0; [M+H]+
Name: alpha-Dihydrolysergol
Class: Alkaloids
Formula: C16H20N2O
Exact mass: 256.3506
SMILES: CN1C[C@H](CO)C[C@@H]2c3cccc4[nH]cc(c34)C[C@H]21
InChI: InChI=1S/C16H20N2O/c1-18-8-10(9-19)5-13-12-3-2-4-14-16(12)11(7-17-14)6-15(13)18/h2-4,7,10,13,15,17,19H,5-6,8-9H2,1H3/t10-,13-,15-/m1/s1
Instrument: Agilent 6410 Triple Quadrupole LC/MS system
Instrument type: LC-ESI-QQQ
Ms type: MS2
Ion mode: POSITIVE
Precursor type: [M+H]+
m/z	relative intensity
256.3	0
256.4	2
256.5	5
256.6	9
256.7	17
256.8	32
256.9	54
257.0	76
257.1	93
257.2	99
257.3	96
257.4	83
257.5	59
257.6	30
257.7	7
257.8	0
