Mass spectrum: Lagohirsin; LC-ESI-QQQ; MS2; Frag=135.0V CID@10.0; [M+Na]+
Name: Lagohirsin
Class: Terpenoids
Formula: C20H32O5
Exact mass: 352.475
SMILES: C[C@@H]1CCC2[C@](C)(CC[C@H](O)[C@@]2(C)CO)[C@@]12CCC1(COC(=O)C1)O2
InChI: InChI=1S/C20H32O5/c1-13-4-5-14-17(2,11-21)15(22)6-7-18(14,3)20(13)9-8-19(25-20)10-16(23)24-12-19/h13-15,21-22H,4-12H2,1-3H3/t13-,14?,15+,17+,18+,19?,20-/m1/s1
Instrument: Agilent 6410 Triple Quadrupole LC/MS system
Instrument type: LC-ESI-QQQ
Ms type: MS2
Ion mode: POSITIVE
Precursor type: [M+Na]+
m/z	relative intensity
132.4	2
132.5	3
132.6	4
132.7	6
132.8	9
132.9	12
133.0	14
133.1	14
133.2	12
133.3	8
133.4	5
133.5	2
148.6	0
148.7	1
148.8	4
148.9	10
149.0	14
149.1	16
149.2	15
149.3	12
149.4	8
149.5	5
149.6	2
158.9	2
159.0	4
159.1	6
159.2	7
159.3	6
159.4	3
172.6	2
172.7	4
172.8	6
172.9	8
173.0	8
173.1	9
173.2	11
173.3	11
173.4	8
173.5	4
180.5	2
180.6	2
180.7	5
180.8	11
180.9	17
181.0	21
181.1	22
181.2	21
181.3	18
181.4	13
181.5	6
181.6	1
186.5	1
186.6	3
186.7	6
186.8	9
186.9	10
187.0	10
187.1	11
187.2	14
187.3	15
187.4	13
187.5	7
187.6	2
238.6	1
238.7	4
238.8	6
238.9	8
239.0	6
239.1	5
239.2	4
239.3	5
239.4	5
239.5	3
258.8	1
258.9	2
259.0	4
259.1	4
259.2	4
259.3	2
276.7	2
276.8	3
276.9	4
277.0	7
277.1	12
277.2	15
277.3	13
277.4	7
277.5	1
298.5	0
298.6	1
298.7	4
298.8	9
298.9	15
299.0	20
299.1	20
299.2	16
299.3	13
299.4	12
299.5	10
299.6	6
299.7	1
304.7	2
304.8	4
304.9	6
305.0	10
305.1	14
305.2	17
305.3	19
305.4	17
305.5	12
305.6	5
305.7	0
316.4	0
316.5	3
316.6	6
316.7	9
316.8	14
316.9	25
317.0	39
317.1	54
317.2	65
317.3	68
317.4	61
317.5	43
317.6	20
317.7	3
334.3	0
334.4	1
334.5	5
334.6	11
334.7	18
334.8	28
334.9	44
335.0	66
335.1	87
335.2	99
335.3	96
335.4	77
335.5	47
335.6	18
335.7	0
369.5	1
369.6	3
369.7	6
369.8	12
369.9	23
370.0	38
370.1	52
370.2	60
370.3	63
370.4	60
370.5	50
370.6	33
370.7	14
370.8	1
