Mass spectrum: Physodic acid; LC-ESI-QQQ; MS2; Frag=135.0V CID@5.0; [M+H]+
Name: Physodic acid
Class: Carbohydrates
Formula: C26H30O8
Exact mass: 470.5242
SMILES: CCCCCC(=O)Cc1cc(O)cc2c1C(=O)Oc1cc(O)c(C(=O)O)c(CCCCC)c1O2
InChI: InChI=1S/C26H30O8/c1-3-5-7-9-16(27)11-15-12-17(28)13-20-22(15)26(32)34-21-14-19(29)23(25(30)31)18(24(21)33-20)10-8-6-4-2/h12-14,28-29H,3-11H2,1-2H3,(H,30,31)
Instrument: Agilent 6410 Triple Quadrupole LC/MS system
Instrument type: LC-ESI-QQQ
Ms type: MS2
Ion mode: POSITIVE
Precursor type: [M+H]+
m/z	relative intensity
410.6	1
410.7	2
410.8	5
410.9	7
411.0	10
411.1	11
411.2	12
411.3	12
411.4	10
411.5	6
411.6	2
452.6	1
452.7	2
452.8	4
452.9	6
453.0	9
453.1	10
453.2	10
453.3	10
453.4	9
453.5	6
453.6	2
470.3	1
470.4	2
470.5	6
470.6	12
470.7	21
470.8	36
470.9	56
471.0	77
471.1	92
471.2	99
471.3	97
471.4	84
471.5	60
471.6	32
471.7	9
471.8	0
