Mass spectrum: Trichodesmine; LC-ESI-QQQ; MS2; Frag=135.0V CID@25.0; [M+H]+
Name: Trichodesmine
Class: Alkaloids
Formula: C18H27NO6
Exact mass: 353.419
SMILES: CC(C)[C@H]1C(=O)OC2CCN3CC=C(COC(=O)C(C)(O)C1(C)O)[C@H]23
InChI: InChI=1S/C18H27NO6/c1-10(2)13-15(20)25-12-6-8-19-7-5-11(14(12)19)9-24-16(21)18(4,23)17(13,3)22/h5,10,12-14,22-23H,6-9H2,1-4H3/t12?,13-,14+,17?,18?/m0/s1
Instrument: Agilent 6410 Triple Quadrupole LC/MS system
Instrument type: LC-ESI-QQQ
Ms type: MS2
Ion mode: POSITIVE
Precursor type: [M+H]+
m/z	relative intensity
93.7	2
93.8	3
93.9	5
94.0	5
94.1	5
94.2	5
94.3	4
119.4	1
119.5	2
119.6	5
119.7	9
119.8	14
119.9	19
120.0	23
120.1	24
120.2	23
120.3	21
120.4	17
120.7	12
120.8	18
120.9	25
121.0	30
121.1	32
121.2	32
121.3	29
121.4	24
121.5	16
121.6	8
163.5	1
163.6	2
163.7	5
163.8	9
163.9	14
164.0	17
164.1	19
164.2	19
164.3	18
164.4	15
164.5	9
164.6	4
179.6	1
179.7	3
179.8	4
179.9	6
180.0	8
180.1	9
180.2	9
180.3	8
180.4	6
180.5	4
180.6	2
221.3	0
221.4	1
221.5	5
221.6	11
221.7	21
221.8	38
221.9	60
222.0	81
222.1	95
222.2	99
222.3	95
222.4	82
222.5	59
222.6	33
222.7	13
222.9	12
223.0	19
223.1	22
223.2	22
223.3	20
223.4	16
223.5	10
223.6	4
223.7	0
265.8	2
265.9	4
266.0	6
266.1	8
266.2	8
266.3	8
266.4	6
266.5	4
266.6	2
307.6	2
307.7	3
307.8	6
307.9	10
308.0	14
308.1	19
308.2	22
308.3	23
308.4	20
308.5	14
308.6	7
308.7	1
353.4	1
353.5	3
353.6	8
353.7	15
353.8	26
353.9	40
354.0	58
354.1	74
354.2	85
354.3	87
354.4	77
354.5	55
354.6	28
354.7	7
354.8	0
