Mass spectrum: Kokanidin; LC-ESI-QQQ; MS2; Frag=135.0V CID@15.0; [M+HCOO]-
Name: Kokanidin
Class: Benzopyranoids
Formula: C26H34O6
Exact mass: 442.5573
SMILES: CC(=O)OC1CC[C@]2(C)C(CC[C@@](C)(O)[C@H]2COc2ccc3ccc(=O)oc3c2)C1(C)C
InChI: InChI=1S/C26H34O6/c1-16(27)31-22-11-12-25(4)20(24(22,2)3)10-13-26(5,29)21(25)15-30-18-8-6-17-7-9-23(28)32-19(17)14-18/h6-9,14,20-22,29H,10-13,15H2,1-5H3/t20?,21-,22?,25+,26+/m0/s1
Instrument: Agilent 6410 Triple Quadrupole LC/MS system
Instrument type: LC-ESI-QQQ
Ms type: MS2
Ion mode: NEGATIVE
Precursor type: [M+HCOO]-
m/z	relative intensity
50.8	7
50.9	14
51.0	19
51.1	19
51.2	13
51.4	9
51.5	16
51.6	23
51.7	22
51.8	16
52.0	6
52.1	11
52.2	18
52.3	21
52.4	17
52.5	10
52.7	8
52.8	14
52.9	18
53.0	17
53.3	12
53.4	18
53.5	22
53.6	21
53.7	13
53.9	4
54.0	9
54.1	16
54.2	20
54.3	18
54.4	11
54.6	7
54.7	15
54.8	22
54.9	22
55.0	14
55.2	5
55.3	9
55.4	16
55.5	20
55.6	19
55.7	13
55.9	9
56.0	13
56.1	18
56.2	18
56.3	14
56.5	10
56.6	16
56.7	22
56.8	24
56.9	20
57.1	14
57.2	18
57.3	23
57.4	23
57.5	17
57.6	11
57.8	9
57.9	13
58.0	16
58.1	16
58.4	12
58.5	18
58.6	23
58.7	23
58.8	18
58.9	11
59.1	9
59.2	15
59.3	19
59.4	18
59.5	13
59.7	9
59.8	13
59.9	19
60.0	22
60.1	19
60.2	11
60.4	7
60.5	11
60.6	16
60.7	16
60.8	12
61.0	9
61.1	13
61.2	16
61.3	16
61.4	11
61.6	6
61.7	11
61.8	17
61.9	19
62.0	13
62.3	6
62.4	14
62.5	18
62.6	16
62.7	10
62.9	7
63.0	14
63.1	20
63.2	21
63.3	16
63.4	10
63.6	7
63.7	13
63.8	18
63.9	18
64.0	13
64.2	9
64.3	14
64.4	20
64.5	21
64.6	16
64.8	9
64.9	14
65.0	21
65.1	23
65.2	19
65.3	12
65.5	10
65.6	16
65.7	20
65.8	20
65.9	13
66.1	6
66.2	12
66.3	19
66.4	20
66.5	13
66.7	4
66.8	10
66.9	17
67.0	20
67.1	16
67.4	9
67.5	16
67.6	20
67.7	20
67.8	14
68.0	9
68.1	14
68.2	20
68.3	21
68.4	15
68.6	6
68.7	11
68.8	18
68.9	23
69.0	21
69.1	15
69.3	9
69.4	15
69.5	23
69.6	26
69.7	20
69.8	11
70.0	8
70.1	14
70.2	17
70.3	15
70.5	6
70.6	11
70.7	21
70.8	28
70.9	25
71.0	16
71.2	6
71.3	13
71.4	21
71.5	24
71.6	21
71.7	13
71.9	11
72.0	19
72.1	24
72.2	22
72.3	14
72.5	7
72.6	14
72.7	21
72.8	23
72.9	18
73.1	9
73.2	12
73.3	19
73.4	22
73.5	18
73.6	9
73.8	3
73.9	10
74.0	18
74.1	20
74.2	16
74.5	9
74.6	17
74.7	21
74.8	19
74.9	12
75.1	9
75.2	17
75.3	21
75.4	19
75.5	11
75.7	5
75.8	11
75.9	18
76.0	20
76.1	16
76.3	7
76.4	11
76.5	20
76.6	24
76.7	21
76.8	12
77.0	10
77.1	17
77.2	23
77.3	22
77.4	14
77.6	3
77.7	9
77.8	18
77.9	22
78.0	18
78.1	11
78.3	9
78.4	14
78.5	18
78.6	18
78.7	15
78.9	9
79.0	12
79.1	18
79.2	21
79.3	19
79.5	12
79.6	17
79.7	22
79.8	24
79.9	18
80.1	9
80.2	14
80.3	21
80.4	26
80.5	24
80.6	18
81.5	7
81.6	12
81.7	16
81.8	17
82.1	13
82.2	17
82.3	20
82.4	19
82.5	14
82.7	6
82.8	11
82.9	18
83.0	22
83.1	20
83.2	13
83.4	7
83.5	13
83.6	19
83.7	21
83.8	16
84.0	8
84.1	12
84.2	18
84.3	19
84.4	16
84.6	8
84.7	11
84.8	17
84.9	20
85.0	16
85.3	9
85.4	16
85.5	21
85.6	19
85.7	12
85.9	6
86.0	12
86.1	18
86.2	20
86.3	15
86.6	7
86.7	15
86.8	22
86.9	23
87.0	18
87.1	12
87.3	10
87.4	14
87.5	17
87.6	17
87.7	14
87.9	11
88.0	15
88.1	19
88.2	19
88.3	14
88.5	10
88.6	14
88.7	19
88.8	18
88.9	12
89.1	4
89.2	11
89.3	20
89.4	24
89.5	19
89.6	9
89.8	5
89.9	15
90.0	23
90.1	22
90.2	14
90.4	7
90.5	14
90.6	22
90.7	23
90.8	17
91.0	8
91.1	12
91.2	20
91.3	24
91.4	19
91.5	10
91.7	4
91.8	10
91.9	17
92.0	19
92.1	17
92.3	11
92.4	14
92.5	18
92.6	19
92.7	16
92.8	11
93.0	9
93.1	15
93.2	21
93.3	21
93.4	16
93.6	10
93.7	16
93.8	22
93.9	24
94.0	18
94.1	9
94.3	6
94.4	14
94.5	19
94.6	17
94.9	12
95.0	17
95.1	20
95.2	18
95.3	12
95.5	7
95.6	13
95.7	20
95.8	24
95.9	21
96.0	14
96.2	11
96.3	16
96.4	20
96.5	19
96.6	12
96.8	5
96.9	10
97.0	17
97.1	20
97.2	18
97.3	12
97.5	6
97.6	11
97.7	18
97.8	19
97.9	14
98.1	6
98.2	12
98.3	19
98.4	21
98.5	17
98.6	12
99.3	9
99.4	12
99.5	17
99.6	21
99.7	21
99.8	15
100.0	9
100.1	15
100.2	20
100.3	21
100.4	16
100.5	8
100.7	6
100.8	12
100.9	17
101.0	17
101.1	12
101.3	5
101.4	8
101.5	13
101.6	15
101.7	12
101.9	7
102.0	10
102.1	16
102.2	19
102.3	15
102.5	6
102.6	10
102.7	19
102.8	24
102.9	22
103.0	15
103.2	7
103.3	11
103.4	16
103.5	19
103.6	16
103.8	11
103.9	14
104.0	18
104.1	19
104.2	16
104.4	9
104.5	12
104.6	19
104.7	23
104.8	22
104.9	15
105.0	9
105.2	8
105.3	13
105.4	17
105.5	16
105.6	12
105.8	10
105.9	15
106.0	20
106.1	21
106.2	17
106.3	11
106.5	9
106.6	13
106.7	15
106.8	14
107.0	12
107.1	15
107.2	20
107.3	23
107.4	21
107.5	14
107.7	6
107.8	11
107.9	17
108.0	19
108.1	13
108.3	3
108.4	9
108.5	19
108.6	23
108.7	20
108.8	10
109.0	3
109.1	10
109.2	17
109.3	19
109.4	15
109.6	9
109.7	13
109.8	21
109.9	25
110.0	22
110.1	14
110.3	11
110.4	18
110.5	24
110.6	23
110.7	14
110.9	4
111.0	10
111.1	18
111.2	21
111.3	17
111.5	10
111.6	13
111.7	19
111.8	21
111.9	17
112.8	4
112.9	11
113.0	19
113.1	20
113.2	15
113.4	6
113.5	11
113.6	20
113.7	23
113.8	19
113.9	10
114.1	7
114.2	15
114.3	22
114.4	22
114.5	16
114.7	7
114.8	11
114.9	18
115.0	20
115.1	16
115.2	8
115.4	3
115.5	10
115.6	18
115.7	21
115.8	16
115.9	9
116.1	7
116.2	14
116.3	17
116.4	13
116.7	5
116.8	12
116.9	16
117.0	15
117.3	9
117.4	15
117.5	19
117.6	18
117.7	13
117.9	3
118.0	7
118.1	14
118.2	20
118.3	19
118.4	12
118.6	7
118.7	14
118.8	20
118.9	20
119.0	14
119.2	9
119.3	14
119.4	18
119.5	19
119.6	14
119.8	6
119.9	11
120.0	17
120.1	19
120.2	16
120.3	9
120.5	7
120.6	13
120.7	17
120.8	16
120.9	12
121.1	10
121.2	15
121.3	20
121.4	21
121.5	16
121.8	10
121.9	16
122.0	21
122.1	19
122.2	13
122.4	5
122.5	11
122.6	18
122.7	20
122.8	16
123.1	8
123.2	15
123.3	20
123.4	19
123.5	14
123.7	8
123.8	12
123.9	17
124.0	18
124.1	14
124.3	9
124.4	13
124.5	19
124.6	22
124.7	18
124.8	11
125.0	7
125.1	13
125.2	16
125.3	15
125.6	10
125.7	15
125.8	21
125.9	21
126.0	17
126.3	9
126.4	17
126.5	24
126.6	26
126.7	20
127.5	6
127.6	13
127.7	21
127.8	23
127.9	16
128.2	8
128.3	15
128.4	19
128.5	17
128.6	10
128.8	3
128.9	9
129.0	16
129.1	18
129.2	15
130.1	7
130.2	12
130.3	17
130.4	17
130.5	12
130.7	5
130.8	10
130.9	17
131.0	21
131.1	19
131.2	13
131.4	11
131.5	16
131.6	19
131.7	19
131.8	14
132.0	7
132.1	13
132.2	21
132.3	25
132.4	21
132.5	12
132.7	8
132.8	16
132.9	22
133.0	20
133.1	12
133.3	9
133.4	16
133.5	23
133.6	24
133.7	19
133.8	11
134.0	10
134.1	17
134.2	21
134.3	21
134.4	17
134.6	14
134.7	16
134.8	18
134.9	16
135.2	10
135.3	16
135.4	22
135.5	21
135.6	15
135.8	6
135.9	10
136.0	17
136.1	20
136.2	18
136.3	12
136.5	9
136.6	15
136.7	21
136.8	23
136.9	18
137.0	12
137.2	10
137.3	15
137.4	18
137.5	17
137.8	11
137.9	18
138.0	22
138.1	19
138.2	12
138.4	7
138.5	13
138.6	19
138.7	21
138.8	18
138.9	12
139.1	9
139.2	12
139.3	14
139.4	12
139.5	8
139.7	4
139.8	9
139.9	16
140.0	19
140.1	16
140.9	5
141.0	8
141.1	18
141.2	26
141.3	26
141.4	18
141.6	9
141.7	15
141.8	21
141.9	20
142.0	15
142.2	10
142.3	15
142.4	21
142.5	23
142.6	20
142.7	14
142.9	11
143.0	15
143.1	18
143.2	16
143.3	11
143.5	1
143.6	5
143.7	14
143.8	20
143.9	18
144.0	10
144.2	7
144.3	13
144.4	18
144.5	16
144.7	9
144.8	12
144.9	19
145.0	25
145.1	24
145.2	16
145.3	8
145.5	7
145.6	12
145.7	16
145.8	16
145.9	10
146.1	8
146.2	15
146.3	21
146.4	23
146.5	18
146.6	12
146.8	10
146.9	13
147.0	14
147.1	13
147.3	8
147.4	10
147.5	15
147.6	20
147.7	19
147.8	14
148.0	9
148.1	14
148.2	19
148.3	20
148.4	15
148.6	9
148.7	13
148.8	19
148.9	23
149.0	20
149.1	13
149.3	9
149.4	15
149.5	21
149.6	21
149.7	16
150.5	8
150.6	10
150.7	15
150.8	19
150.9	17
151.0	13
151.2	10
151.3	14
151.4	19
151.5	18
151.6	11
151.8	5
151.9	12
152.0	20
152.1	23
152.2	19
152.3	11
152.5	7
152.6	13
152.7	18
152.8	18
152.9	15
153.2	9
153.3	15
153.4	19
153.5	19
153.6	12
153.8	6
153.9	12
154.0	18
154.1	20
154.2	15
154.5	8
154.6	14
154.7	17
154.8	14
155.1	9
155.2	15
155.3	18
155.4	17
155.5	12
155.7	8
155.8	13
155.9	19
156.0	22
156.1	17
156.4	8
156.5	18
156.6	24
156.7	22
156.8	13
157.0	6
157.1	12
157.2	19
157.3	20
157.4	16
157.6	9
157.7	12
157.8	18
157.9	20
158.0	16
158.3	8
158.4	17
158.5	23
158.6	20
158.7	12
158.9	10
159.0	17
159.1	22
159.2	21
159.3	14
159.5	4
159.6	9
159.7	17
159.8	20
159.9	16
160.0	9
160.2	6
160.3	13
160.4	20
160.5	22
160.6	17
160.7	10
161.4	7
161.5	12
161.6	18
161.7	21
161.8	16
161.9	8
162.1	5
162.2	14
162.3	22
162.4	23
162.5	17
162.6	8
162.8	7
162.9	14
163.0	18
163.1	15
163.2	8
163.4	6
163.5	13
163.6	20
163.7	21
163.8	16
164.0	10
164.1	14
164.2	19
164.3	21
164.4	17
164.6	9
164.7	13
164.8	20
164.9	24
165.0	22
165.1	16
165.3	11
165.4	17
165.5	22
165.6	22
165.7	16
165.9	7
166.0	11
166.1	18
166.2	21
166.3	18
166.6	11
166.7	19
166.8	23
166.9	19
167.0	10
167.2	6
167.3	16
167.4	24
167.5	26
167.6	20
167.9	11
168.0	18
168.1	24
168.2	22
168.3	14
168.5	5
168.6	10
168.7	16
168.8	17
168.9	12
169.1	9
169.2	15
169.3	20
169.4	21
169.5	16
169.6	10
169.8	8
169.9	14
170.0	19
170.1	19
170.2	14
170.4	7
170.5	11
170.6	16
170.7	18
170.8	13
171.1	5
171.2	13
171.3	19
171.4	17
171.5	10
171.7	6
171.8	14
171.9	21
172.0	22
172.1	16
172.3	10
172.4	16
172.5	22
172.6	24
172.7	19
172.8	10
173.0	7
173.1	16
173.2	22
173.3	22
173.4	16
173.6	7
173.7	12
173.8	19
173.9	22
174.0	17
174.1	9
174.3	7
174.4	16
174.5	22
174.6	22
174.7	15
174.9	10
175.0	16
175.1	21
175.2	20
175.3	13
175.5	1
175.6	5
175.7	14
175.8	21
175.9	21
176.0	16
176.2	7
176.3	11
176.4	17
176.5	19
176.6	14
176.8	9
176.9	15
177.0	20
177.1	19
177.2	13
177.4	5
177.5	9
177.6	14
177.7	18
177.8	17
177.9	13
178.1	9
178.2	14
178.3	18
178.4	19
178.5	15
178.7	9
178.8	13
178.9	20
179.0	23
179.1	20
179.2	14
179.4	10
179.5	14
179.6	18
179.7	17
179.8	12
180.0	8
180.1	14
180.2	21
180.3	23
180.4	18
180.7	11
180.8	17
180.9	19
181.0	17
181.1	12
181.3	10
181.4	14
181.5	18
181.6	16
181.7	11
181.9	5
182.0	10
182.1	17
182.2	20
182.3	17
182.4	11
182.6	9
182.7	14
182.8	18
182.9	17
183.0	12
183.2	8
183.3	13
183.4	19
183.5	20
183.6	16
183.8	8
183.9	12
184.0	20
184.1	23
184.2	19
184.3	10
184.5	4
184.6	9
184.7	15
184.8	17
184.9	12
185.1	5
185.2	8
185.3	14
185.4	17
185.5	15
185.7	10
185.8	13
185.9	19
186.0	22
186.1	21
186.2	16
186.3	10
186.5	10
186.6	13
186.7	14
186.8	12
187.0	8
187.1	12
187.2	19
187.3	23
187.4	20
187.5	15
187.7	12
187.8	16
187.9	19
188.0	20
188.1	18
188.9	10
189.0	14
189.1	19
189.2	20
189.3	14
189.6	6
189.7	15
189.8	23
189.9	25
190.0	20
190.3	12
190.4	20
190.5	25
190.6	23
190.7	16
190.9	10
191.0	14
191.1	18
191.2	18
191.3	13
191.5	6
191.6	11
191.7	18
191.8	22
191.9	18
192.0	12
192.2	11
192.3	16
192.4	20
192.5	19
192.6	15
192.8	10
192.9	13
193.0	16
193.1	17
193.2	14
193.4	5
193.5	8
193.6	17
193.7	24
193.8	24
193.9	16
194.1	7
194.2	12
194.3	18
194.4	20
194.5	17
194.8	12
194.9	18
195.0	21
195.1	18
195.2	10
195.4	7
195.5	16
195.6	23
195.7	24
195.8	18
196.6	5
196.7	9
196.8	16
196.9	21
197.0	20
197.1	12
197.3	4
197.4	10
197.5	18
197.6	20
197.7	15
197.9	4
198.0	8
198.1	18
198.2	24
198.3	22
198.4	15
198.6	7
198.7	12
198.8	17
198.9	18
199.0	13
199.2	6
199.3	12
199.4	20
199.5	25
199.6	21
199.7	12
200.5	3
200.6	11
200.7	20
200.8	24
200.9	21
201.0	15
201.2	11
201.3	15
201.4	18
201.5	17
201.6	13
201.8	9
201.9	13
202.0	17
202.1	18
202.2	13
202.4	7
202.5	13
202.6	21
202.7	23
202.8	18
203.1	10
203.2	18
203.3	24
203.4	24
203.5	19
204.3	10
204.4	14
204.5	20
204.6	23
204.7	21
204.8	14
205.5	11
205.6	14
205.7	19
205.8	23
205.9	20
206.0	14
206.2	8
206.3	10
206.4	15
206.5	19
206.6	18
206.7	13
206.9	6
207.0	11
207.1	17
207.2	20
207.3	16
207.4	10
207.6	8
207.7	12
207.8	15
207.9	15
208.2	9
208.3	15
208.4	21
208.5	20
208.6	14
208.8	6
208.9	12
209.0	20
209.1	22
209.2	17
209.3	8
209.5	8
209.6	14
209.7	17
209.8	15
210.0	9
210.1	13
210.2	18
210.3	21
210.4	18
210.5	13
210.8	9
210.9	13
211.0	16
211.1	15
211.3	11
211.4	13
211.5	19
211.6	24
211.7	23
211.8	17
211.9	9
212.1	8
212.2	14
212.3	18
212.4	16
212.5	9
212.7	4
212.8	9
212.9	15
213.0	16
213.3	12
213.4	18
213.5	24
213.6	23
213.7	16
213.9	5
214.0	10
214.1	17
214.2	21
214.3	18
214.4	10
214.6	3
214.7	10
214.8	19
214.9	22
215.0	19
215.1	12
215.3	11
215.4	16
215.5	19
215.6	16
215.9	10
216.0	15
216.1	18
216.2	15
216.3	9
216.5	5
216.6	11
216.7	18
216.8	21
216.9	17
217.1	7
217.2	11
217.3	19
217.4	22
217.5	17
217.6	8
217.8	6
217.9	15
218.0	24
218.1	26
218.2	21
218.3	12
218.5	10
218.6	17
218.7	23
218.8	23
218.9	18
219.1	15
219.2	19
219.3	22
219.4	20
219.5	13
219.7	9
219.8	15
219.9	21
220.0	21
220.1	17
221.0	5
221.1	14
221.2	22
221.3	23
221.4	18
222.2	7
222.3	11
222.4	19
222.5	23
222.6	19
222.7	11
222.9	6
223.0	13
223.1	19
223.2	19
223.3	12
223.5	0
223.6	5
223.7	14
223.8	20
223.9	19
224.0	13
224.2	6
224.3	11
224.4	18
224.5	20
224.6	16
224.8	9
224.9	13
225.0	18
225.1	17
225.2	12
226.0	3
226.1	7
226.2	15
226.3	21
226.4	19
226.5	12
226.7	8
226.8	15
226.9	21
227.0	23
227.1	19
227.2	11
227.4	6
227.5	12
227.6	18
227.7	19
227.8	13
228.0	6
228.1	11
228.2	17
228.3	17
228.4	11
228.6	1
228.7	6
228.8	15
228.9	21
229.0	20
229.1	15
229.3	10
229.4	15
229.5	20
229.6	19
229.7	14
229.9	9
230.0	15
230.1	20
230.2	20
230.3	15
230.5	6
230.6	10
230.7	17
230.8	24
230.9	24
231.0	18
231.2	10
231.3	16
231.4	20
231.5	18
231.6	10
231.8	5
231.9	11
232.0	18
232.1	19
232.2	17
232.3	13
232.5	10
232.6	13
232.7	17
232.8	19
232.9	16
233.7	6
233.8	10
233.9	17
234.0	23
234.1	20
234.2	12
234.4	7
234.5	16
234.6	25
234.7	26
234.8	19
235.1	9
235.2	19
235.3	25
235.4	23
235.5	15
235.7	8
235.8	14
235.9	20
236.0	21
236.1	15
236.3	8
236.4	15
236.5	23
236.6	25
236.7	19
236.8	11
237.0	9
237.1	15
237.2	20
237.3	21
237.4	16
237.7	9
237.8	16
237.9	20
238.0	17
238.1	11
238.3	8
238.4	13
238.5	17
238.6	16
238.7	10
238.9	8
239.0	14
239.1	18
239.2	18
239.3	12
239.6	6
239.7	12
239.8	15
239.9	13
240.1	5
240.2	10
240.3	20
240.4	27
240.5	26
240.6	19
242.1	10
242.2	16
242.3	20
242.4	19
242.5	13
242.7	8
242.8	13
242.9	18
243.0	20
243.1	17
243.2	12
243.4	8
243.5	13
243.6	19
243.7	20
243.8	16
244.0	10
244.1	16
244.2	23
244.3	24
244.4	18
244.6	5
244.7	10
244.8	21
244.9	28
245.0	26
245.1	17
245.3	7
245.4	14
245.5	20
245.6	22
245.7	17
246.0	9
246.1	18
246.2	24
246.3	23
246.4	16
246.6	11
246.7	17
246.8	22
246.9	20
247.0	12
247.2	5
247.3	11
247.4	19
247.5	23
247.6	18
247.7	10
247.9	5
248.0	13
248.1	20
248.2	20
248.3	13
248.5	5
248.6	10
248.7	16
248.8	17
248.9	13
249.1	7
249.2	11
249.3	17
249.4	20
249.5	18
249.6	13
249.8	11
249.9	15
250.0	19
250.1	18
250.2	14
250.4	10
250.5	15
250.6	21
250.7	23
250.8	18
251.1	9
251.2	18
251.3	24
251.4	21
251.5	12
251.7	5
251.8	11
251.9	19
252.0	21
252.1	17
253.0	6
253.1	14
253.2	20
253.3	21
253.4	14
253.5	6
253.7	3
253.8	11
253.9	17
254.0	16
254.2	9
254.3	12
254.4	18
254.5	20
254.6	18
254.7	12
254.9	9
255.0	15
255.1	21
255.2	22
255.3	17
255.4	10
255.6	8
255.7	13
255.8	18
255.9	17
256.2	10
256.3	17
256.4	23
256.5	21
256.6	14
256.8	7
256.9	12
257.0	18
257.1	19
257.2	14
257.4	9
257.5	15
257.6	24
257.7	28
257.8	23
257.9	12
258.1	4
258.2	10
258.3	17
258.4	18
258.5	14
258.7	10
258.8	15
258.9	20
259.0	20
259.1	13
259.4	4
259.5	13
259.6	20
259.7	21
259.8	16
260.6	5
260.7	9
260.8	18
260.9	23
261.0	19
261.1	10
261.3	5
261.4	12
261.5	18
261.6	18
261.7	14
261.9	9
262.0	13
262.1	18
262.2	18
262.3	13
262.6	4
262.7	12
262.8	18
262.9	19
263.0	13
263.2	7
263.3	12
263.4	19
263.5	20
263.6	15
263.9	8
264.0	15
264.1	21
264.2	20
264.3	13
264.5	6
264.6	12
264.7	18
264.8	18
264.9	12
265.1	7
265.2	13
265.3	20
265.4	23
265.5	20
265.6	14
265.8	12
265.9	15
266.0	17
266.1	17
266.2	11
266.4	5
266.5	11
266.6	18
266.7	21
266.8	16
267.1	8
267.2	16
267.3	22
267.4	21
267.5	15
267.7	9
267.8	15
267.9	20
268.0	20
268.1	14
268.3	9
268.4	15
268.5	22
268.6	23
268.7	17
269.0	10
269.1	17
269.2	22
269.3	21
269.4	13
269.6	5
269.7	12
269.8	20
269.9	22
270.0	16
270.3	7
270.4	16
270.5	23
270.6	22
270.7	14
270.9	5
271.0	11
271.1	19
271.2	21
271.3	17
271.4	12
271.6	12
271.7	16
271.8	18
271.9	17
272.2	11
272.3	17
272.4	20
272.5	18
272.6	12
272.8	10
272.9	16
273.0	20
273.1	21
273.2	17
273.4	9
273.5	13
273.6	20
273.7	24
273.8	21
273.9	12
274.1	8
274.2	16
274.3	22
274.4	21
274.5	15
274.7	5
274.8	10
274.9	17
275.0	21
275.1	18
275.2	11
275.4	9
275.5	15
275.6	21
275.7	24
275.8	23
275.9	18
276.0	15
276.1	14
276.2	14
276.3	11
276.4	5
276.6	2
276.7	10
276.8	18
276.9	22
277.0	18
277.3	11
277.4	17
277.5	21
277.6	21
277.7	15
278.0	7
278.1	14
278.2	19
278.3	19
278.4	13
278.6	8
278.7	13
278.8	15
278.9	13
279.1	6
279.2	9
279.3	17
279.4	25
279.5	26
279.6	19
279.7	9
279.9	5
280.0	12
280.1	17
280.2	15
280.4	7
280.5	10
280.6	18
280.7	22
280.8	19
280.9	12
281.1	4
281.2	11
281.3	19
281.4	23
281.5	20
281.6	14
281.8	9
281.9	12
282.0	16
282.1	17
282.2	13
282.4	7
282.5	13
282.6	21
282.7	24
282.8	21
282.9	13
283.1	10
283.2	17
283.3	20
283.4	17
283.5	9
283.7	5
283.8	13
283.9	20
284.0	21
284.1	15
284.3	6
284.4	11
284.5	19
284.6	22
284.7	18
284.8	10
285.0	9
285.1	16
285.2	21
285.3	19
285.4	14
285.6	9
285.7	14
285.8	20
285.9	20
286.0	16
286.8	8
286.9	10
287.0	15
287.1	20
287.2	21
287.3	16
287.5	6
287.6	12
287.7	21
287.8	26
287.9	21
288.0	11
288.2	9
288.3	19
288.4	27
288.5	26
288.6	18
288.8	7
288.9	12
289.0	19
289.1	22
289.2	18
290.0	4
290.1	9
290.2	20
290.3	29
290.4	28
290.5	19
290.6	8
290.8	7
290.9	14
291.0	19
291.1	17
291.2	11
291.4	7
291.5	12
291.6	17
291.7	17
292.0	11
292.1	16
292.2	21
292.3	21
292.4	16
292.5	10
292.7	8
292.8	14
292.9	18
293.0	18
293.1	13
293.3	11
293.4	16
293.5	20
293.6	19
293.7	13
293.8	7
294.0	5
294.1	11
294.2	16
294.3	16
294.4	12
294.6	9
294.7	14
294.8	19
294.9	19
295.0	15
295.2	7
295.3	11
295.4	19
295.5	23
295.6	19
295.7	9
295.9	6
296.0	15
296.1	21
296.2	19
296.3	13
296.5	11
296.6	17
296.7	21
296.8	21
296.9	15
297.1	8
297.2	12
297.3	18
297.4	21
297.5	17
297.7	13
297.8	18
297.9	23
298.0	24
298.1	18
298.2	10
298.4	6
298.5	14
298.6	23
298.7	25
298.8	20
298.9	10
299.1	7
299.2	16
299.3	23
299.4	21
299.5	15
299.7	12
299.8	17
299.9	20
300.0	19
300.1	14
300.3	5
300.4	9
300.5	17
300.6	21
300.7	18
300.8	11
301.0	9
301.1	17
301.2	22
301.3	21
301.4	15
301.6	8
301.7	12
301.8	17
301.9	20
302.0	18
302.1	13
302.3	11
302.4	16
302.5	18
302.6	15
302.7	9
302.9	7
303.0	14
303.1	20
303.2	21
303.3	17
303.5	9
303.6	12
303.7	19
303.8	24
303.9	23
304.0	17
304.2	13
304.3	18
304.4	20
304.5	17
304.6	9
304.8	3
304.9	8
305.0	15
305.1	17
305.2	14
305.4	8
305.5	12
305.6	19
305.7	22
305.8	20
305.9	14
306.1	4
306.2	8
306.3	16
306.4	21
306.5	20
306.6	15
306.8	9
306.9	12
307.0	15
307.1	15
307.4	11
307.5	16
307.6	18
307.7	16
307.8	10
308.0	6
308.1	10
308.2	16
308.3	18
308.4	16
308.6	11
308.7	14
308.8	19
308.9	22
309.0	18
309.1	12
309.3	10
309.4	16
309.5	21
309.6	20
309.7	14
309.9	7
310.0	13
310.1	19
310.2	19
310.3	14
310.5	6
310.6	10
310.7	16
310.8	19
310.9	18
311.0	13
311.2	10
311.3	16
311.4	23
311.5	26
311.6	22
311.7	13
311.9	8
312.0	15
312.1	21
312.2	21
312.3	15
312.5	6
312.6	10
312.7	18
312.8	21
312.9	17
313.1	8
313.2	12
313.3	18
313.4	20
313.5	16
313.6	10
313.8	8
313.9	15
314.0	21
314.1	20
314.2	14
314.4	9
314.5	14
314.6	20
314.7	21
314.8	16
315.0	8
315.1	12
315.2	19
315.3	23
315.4	19
315.5	10
315.7	4
315.8	11
315.9	19
316.0	22
316.1	18
316.2	11
316.4	8
316.5	14
316.6	18
316.7	18
316.8	14
317.0	12
317.1	15
317.2	18
317.3	16
317.4	11
317.6	5
317.7	10
317.8	18
317.9	22
318.0	19
318.1	12
318.3	9
318.4	15
318.5	18
318.6	16
318.9	9
319.0	15
319.1	20
319.2	20
319.3	17
320.2	8
320.3	15
320.4	20
320.5	21
320.6	16
320.8	8
320.9	12
321.0	18
321.1	21
321.2	18
321.3	12
321.5	9
321.6	14
321.7	19
321.8	19
321.9	13
322.1	6
322.2	13
322.3	21
322.4	24
322.5	20
322.6	11
322.8	7
322.9	12
323.0	17
323.1	17
323.3	13
323.4	14
323.5	19
323.6	21
323.7	19
323.8	12
324.1	7
324.2	13
324.3	19
324.4	19
324.5	14
324.7	10
324.8	14
324.9	18
325.0	17
325.1	12
325.3	8
325.4	13
325.5	18
325.6	19
325.7	15
325.9	10
326.0	15
326.1	20
326.2	21
326.3	16
326.5	6
326.6	11
326.7	20
326.8	27
326.9	26
327.0	18
327.9	13
328.0	18
328.1	22
328.2	22
328.3	16
328.5	10
328.6	15
328.7	21
328.8	21
328.9	15
329.2	9
329.3	16
329.4	20
329.5	18
329.6	11
329.8	7
329.9	13
330.0	19
330.1	19
330.2	14
330.4	8
330.5	12
330.6	19
330.7	23
330.8	20
330.9	14
331.7	9
331.8	15
331.9	20
332.0	20
332.1	14
332.3	5
332.4	10
332.5	18
332.6	21
332.7	18
333.0	11
333.1	17
333.2	21
333.3	18
333.4	12
333.6	8
333.7	15
333.8	21
333.9	22
334.0	17
334.3	11
334.4	17
334.5	20
334.6	18
334.7	13
334.9	11
335.0	16
335.1	20
335.2	18
335.3	12
335.5	5
335.6	9
335.7	16
335.8	20
335.9	17
336.1	6
336.2	10
336.3	19
336.4	24
336.5	20
336.6	11
336.8	6
336.9	11
337.0	16
337.1	17
337.2	12
337.4	7
337.5	12
337.6	19
337.7	23
337.8	21
337.9	13
338.1	3
338.2	9
338.3	17
338.4	20
338.5	17
338.7	11
338.8	14
338.9	19
339.0	20
339.1	15
339.2	8
339.4	6
339.5	12
339.6	18
339.7	19
339.8	16
340.0	12
340.1	15
340.2	20
340.3	22
340.4	19
340.5	13
340.7	11
340.8	16
340.9	20
341.0	18
341.1	12
341.3	7
341.4	14
341.5	22
341.6	23
341.7	16
341.9	5
342.0	11
342.1	21
342.2	27
342.3	24
342.4	16
342.6	9
342.7	15
342.8	21
342.9	20
343.0	13
343.2	6
343.3	14
343.4	22
343.5	25
343.6	20
343.7	14
343.9	12
344.0	17
344.1	21
344.2	19
344.3	10
344.5	3
344.6	11
344.7	22
344.8	26
344.9	22
345.0	14
345.2	10
345.3	15
345.4	17
345.5	16
345.6	10
345.8	8
345.9	13
346.0	19
346.1	19
346.2	14
346.4	7
346.5	12
346.6	20
346.7	22
346.8	16
346.9	8
347.1	6
347.2	13
347.3	19
347.4	19
347.5	14
348.3	7
348.4	11
348.5	17
348.6	18
348.7	13
348.8	6
349.0	4
349.1	12
349.2	18
349.3	19
349.4	14
349.6	8
349.7	14
349.8	22
349.9	24
350.0	19
350.2	11
350.3	16
350.4	22
350.5	24
350.6	21
350.7	14
350.9	9
351.0	15
351.1	21
351.2	20
351.3	14
351.6	7
351.7	15
351.8	19
351.9	17
352.1	8
352.2	12
352.3	21
352.4	26
352.5	21
352.6	11
352.8	3
352.9	12
353.0	20
353.1	23
353.2	20
353.3	13
353.5	9
353.6	15
353.7	20
353.8	20
353.9	14
354.1	10
354.2	16
354.3	20
354.4	20
354.5	14
354.7	6
354.8	10
354.9	18
355.0	22
355.1	18
355.2	11
355.4	9
355.5	17
355.6	22
355.7	20
355.8	12
356.0	5
356.1	12
356.2	20
356.3	22
356.4	18
356.5	10
356.7	9
356.8	15
356.9	18
357.0	15
357.1	10
357.3	9
357.4	14
357.5	18
357.6	18
357.7	14
357.9	9
358.0	13
358.1	18
358.2	19
358.3	15
358.5	7
358.6	11
358.7	17
358.8	20
358.9	17
359.0	9
359.2	6
359.3	14
359.4	21
359.5	21
359.6	15
359.9	9
360.0	14
360.1	18
360.2	16
360.3	11
360.5	8
360.6	13
360.7	19
360.8	19
360.9	14
361.1	5
361.2	9
361.3	16
361.4	18
361.5	15
361.8	8
361.9	15
362.0	20
362.1	19
362.2	14
363.0	4
363.1	9
363.2	17
363.3	21
363.4	19
363.5	12
363.7	9
363.8	15
363.9	20
364.0	19
364.1	12
364.3	5
364.4	12
364.5	19
364.6	20
364.7	16
365.0	9
365.1	15
365.2	20
365.3	20
365.4	13
365.6	7
365.7	14
365.8	19
365.9	20
366.0	15
366.2	10
366.3	14
366.4	19
366.5	20
366.6	17
366.9	7
367.0	17
367.1	26
367.2	28
367.3	21
367.4	11
367.6	8
367.7	15
367.8	20
367.9	18
368.0	10
368.2	5
368.3	11
368.4	17
368.5	17
368.6	12
368.8	9
368.9	14
369.0	19
369.1	17
369.2	11
369.4	4
369.5	10
369.6	18
369.7	22
369.8	20
369.9	14
370.7	8
370.8	12
370.9	16
371.0	17
371.1	13
371.3	6
371.4	9
371.5	15
371.6	19
371.7	17
371.8	10
372.0	4
372.1	10
372.2	18
372.3	21
372.4	16
372.6	5
372.7	10
372.8	19
372.9	25
373.0	23
373.1	14
373.3	9
373.4	17
373.5	24
373.6	23
373.7	16
373.9	4
374.0	9
374.1	18
374.2	21
374.3	17
374.4	8
374.6	6
374.7	14
374.8	22
374.9	22
375.0	16
375.2	6
375.3	11
375.4	19
375.5	23
375.6	18
375.9	9
376.0	17
376.1	21
376.2	18
376.3	10
376.5	7
376.6	14
376.7	19
376.8	19
376.9	13
377.1	7
377.2	13
377.3	20
377.4	22
377.5	18
377.6	12
377.8	8
377.9	14
378.0	20
378.1	21
378.2	15
378.4	8
378.5	13
378.6	18
378.7	19
378.8	15
379.0	8
379.1	11
379.2	17
379.3	19
379.4	16
379.6	6
379.7	10
379.8	17
379.9	22
380.0	20
380.1	15
380.3	10
380.4	14
380.5	19
380.6	21
380.7	18
380.8	11
381.0	9
381.1	16
381.2	23
381.3	23
381.4	16
381.6	7
381.7	13
381.8	20
381.9	21
382.0	16
382.3	9
382.4	17
382.5	23
382.6	23
382.7	17
383.5	9
383.6	15
383.7	22
383.8	23
383.9	18
384.0	9
384.2	8
384.3	15
384.4	19
384.5	17
384.6	11
384.8	8
384.9	14
385.0	19
385.1	20
385.2	16
385.4	10
385.5	13
385.6	17
385.7	18
385.8	14
386.0	8
386.1	13
386.2	19
386.3	23
386.4	20
386.5	13
386.7	6
386.8	13
386.9	22
387.0	25
387.1	20
387.2	12
387.4	6
387.5	12
387.6	17
387.7	18
387.8	13
388.0	6
388.1	11
388.2	18
388.3	21
388.4	17
388.7	10
388.8	17
388.9	21
389.0	18
389.1	11
389.3	8
389.4	15
389.5	20
389.6	20
389.7	13
389.9	5
390.0	12
390.1	20
390.2	22
390.3	16
390.4	9
390.6	8
390.7	14
390.8	19
390.9	19
391.0	14
391.2	8
391.3	13
391.4	20
391.5	22
391.6	18
391.7	12
391.9	9
392.0	14
392.1	18
392.2	18
392.3	15
392.5	13
392.6	16
392.7	18
392.8	17
392.9	12
393.1	7
393.2	13
393.3	21
393.4	24
393.5	19
393.6	10
393.8	7
393.9	15
394.0	20
394.1	18
394.2	12
394.4	10
394.5	16
394.6	21
394.7	21
394.8	16
394.9	9
395.1	6
395.2	12
395.3	18
395.4	17
395.5	11
395.7	8
395.8	16
395.9	24
396.0	23
396.1	15
396.3	8
396.4	14
396.5	22
396.6	25
396.7	22
396.8	15
397.0	10
397.1	17
397.2	22
397.3	21
397.4	14
397.6	8
397.7	16
397.8	24
397.9	26
398.0	20
398.1	12
398.3	8
398.4	15
398.5	19
398.6	19
398.7	14
398.9	8
399.0	12
399.1	18
399.2	21
399.3	18
399.4	13
400.1	1
400.2	8
400.3	17
400.4	22
400.5	21
400.6	16
400.8	10
400.9	14
401.0	19
401.1	21
401.2	15
401.3	8
401.5	6
401.6	13
401.7	19
401.8	17
401.9	9
402.1	2
402.2	10
402.3	19
402.4	22
402.5	18
402.6	10
403.3	1
403.4	6
403.5	15
403.6	21
403.7	18
403.8	12
404.0	8
404.1	13
404.2	19
404.3	22
404.4	22
404.5	17
404.7	14
404.8	20
404.9	24
405.0	22
405.1	13
405.3	4
405.4	12
405.5	21
405.6	23
405.7	17
405.9	7
406.0	12
406.1	19
406.2	22
406.3	19
406.4	11
406.6	8
406.7	14
406.8	20
406.9	20
407.0	14
407.2	8
407.3	14
407.4	20
407.5	22
407.6	19
407.7	12
407.9	10
408.0	16
408.1	21
408.2	21
408.3	15
408.5	7
408.6	12
408.7	19
408.8	21
408.9	16
409.1	10
409.2	13
409.3	18
409.4	20
409.5	17
409.6	12
409.8	9
409.9	14
410.0	19
410.1	18
410.2	12
410.4	5
410.5	12
410.6	20
410.7	21
410.8	15
411.0	6
411.1	11
411.2	18
411.3	22
411.4	20
411.5	15
411.7	10
411.8	14
411.9	18
412.0	18
412.1	13
412.3	7
412.4	12
412.5	18
412.6	21
412.7	17
412.8	9
413.0	7
413.1	15
413.2	20
413.3	18
413.4	12
413.6	8
413.7	13
413.8	17
413.9	16
414.0	12
414.2	6
414.3	12
414.4	19
414.5	22
414.6	19
414.7	11
414.9	5
415.0	12
415.1	19
415.2	21
415.3	16
416.2	6
416.3	13
416.4	20
416.5	20
416.6	14
416.8	8
416.9	13
417.0	18
417.1	18
417.2	14
417.4	8
417.5	11
417.6	16
417.7	19
417.8	16
417.9	11
418.1	7
418.2	13
418.3	19
418.4	20
418.5	15
418.7	9
418.8	13
418.9	17
419.0	17
419.1	13
419.3	8
419.4	11
419.5	18
419.6	23
419.7	23
419.8	17
420.6	9
420.7	14
420.8	21
420.9	25
421.0	22
421.1	14
421.3	8
421.4	14
421.5	19
421.6	19
421.7	15
421.9	11
422.0	15
422.1	19
422.2	20
422.3	16
422.4	11
422.6	9
422.7	13
422.8	16
422.9	16
423.0	14
423.2	11
423.3	14
423.4	17
423.5	18
423.6	14
423.8	8
423.9	11
424.0	16
424.1	18
424.2	16
424.3	11
424.5	9
424.6	14
424.7	18
424.8	18
424.9	14
425.1	9
425.2	13
425.3	16
425.4	16
425.5	13
425.8	8
425.9	13
426.0	18
426.1	19
426.2	15
426.4	8
426.5	12
426.6	17
426.7	19
426.8	16
426.9	11
427.1	8
427.2	13
427.3	18
427.4	19
427.5	15
427.7	9
427.8	12
427.9	17
428.0	19
428.1	16
428.3	11
428.4	16
428.5	22
428.6	22
428.7	15
429.0	7
429.1	15
429.2	20
429.3	19
429.4	11
429.6	6
429.7	12
429.8	17
429.9	19
430.0	15
430.3	9
430.4	16
430.5	19
430.6	18
430.7	11
430.9	7
431.0	11
431.1	15
431.2	15
431.3	11
431.5	7
431.6	11
431.7	17
431.8	21
431.9	21
432.0	16
432.2	9
432.3	14
432.4	19
432.5	19
432.6	12
432.8	5
432.9	11
433.0	19
433.1	22
433.2	17
433.4	5
433.5	10
433.6	18
433.7	23
433.8	20
433.9	12
434.1	6
434.2	12
434.3	18
434.4	19
434.5	16
434.7	11
434.8	14
434.9	19
435.0	21
435.1	19
435.2	14
435.4	10
435.5	16
435.6	21
435.7	19
435.8	12
436.0	7
436.1	14
436.2	20
436.3	20
436.4	16
437.3	9
437.4	16
437.5	22
437.6	23
437.7	17
438.0	11
438.1	18
438.2	22
438.3	21
438.4	15
438.6	12
438.7	18
438.8	23
438.9	22
439.0	15
439.2	6
439.3	11
439.4	19
439.5	23
439.6	20
439.7	14
439.9	8
440.0	13
440.1	17
440.2	16
440.4	9
440.5	13
440.6	21
440.7	25
440.8	22
440.9	14
441.1	6
441.2	10
441.3	16
441.4	20
441.5	18
441.6	11
441.8	6
441.9	11
442.0	16
442.1	17
442.2	13
442.4	9
442.5	13
442.6	19
442.7	20
442.8	16
443.0	11
443.1	16
443.2	20
443.3	21
443.4	16
443.5	8
443.7	5
443.8	14
443.9	22
444.0	24
444.1	17
444.3	6
444.4	11
444.5	20
444.6	23
444.7	17
444.8	8
445.0	7
445.1	14
445.2	18
445.3	19
445.4	16
445.5	11
445.7	10
445.8	14
445.9	17
446.0	16
446.3	10
446.4	17
446.5	23
446.6	22
446.7	12
446.9	2
447.0	10
447.1	20
447.2	24
447.3	18
447.6	9
447.7	18
447.8	23
447.9	20
448.0	13
448.2	10
448.3	16
448.4	20
448.5	19
448.6	13
448.8	9
448.9	14
449.0	20
449.1	22
449.2	17
449.4	11
449.5	15
449.6	21
449.7	23
449.8	18
449.9	11
450.1	9
450.2	15
450.3	21
450.4	21
450.5	15
450.7	8
450.8	15
450.9	24
451.0	27
451.1	21
451.2	12
451.4	11
451.5	20
451.6	27
451.7	26
451.8	17
452.6	5
452.7	11
452.8	18
452.9	21
453.0	17
453.3	9
453.4	16
453.5	22
453.6	22
453.7	16
453.9	10
454.0	13
454.1	18
454.2	21
454.3	18
454.4	11
454.6	9
454.7	16
454.8	22
454.9	22
455.0	16
455.2	7
455.3	12
455.4	20
455.5	22
455.6	17
455.7	8
455.9	7
456.0	14
456.1	19
456.2	18
456.3	10
456.5	4
456.6	12
456.7	19
456.8	20
456.9	14
457.1	6
457.2	10
457.3	16
457.4	19
457.5	17
457.6	12
457.8	7
457.9	11
458.0	15
458.1	16
458.2	12
458.4	8
458.5	14
458.6	20
458.7	22
458.8	16
459.0	5
459.1	9
459.2	18
459.3	24
459.4	21
459.5	12
459.7	6
459.8	14
459.9	20
460.0	21
460.1	17
460.4	9
460.5	17
460.6	22
460.7	19
460.8	11
461.0	9
461.1	17
461.2	24
461.3	22
461.4	14
461.6	5
461.7	10
461.8	17
461.9	20
462.0	16
462.2	9
462.3	12
462.4	17
462.5	20
462.6	19
462.7	15
462.9	11
463.0	15
463.1	18
463.2	17
463.3	12
463.5	3
463.6	8
463.7	16
463.8	21
463.9	19
464.0	13
464.2	9
464.3	13
464.4	17
464.5	16
464.6	9
464.8	3
464.9	11
465.0	21
465.1	24
465.2	17
465.5	7
465.6	17
465.7	24
465.8	23
465.9	17
466.7	8
466.8	12
466.9	18
467.0	21
467.1	19
467.2	14
467.4	11
467.5	15
467.6	17
467.7	16
467.8	10
468.0	4
468.1	9
468.2	16
468.3	19
468.4	16
468.7	8
468.8	15
468.9	19
469.0	17
469.1	11
469.3	8
469.4	13
469.5	18
469.6	19
469.7	15
470.0	9
470.1	14
470.2	18
470.3	17
470.4	12
470.6	9
470.7	14
470.8	18
470.9	18
471.0	13
471.2	7
471.3	12
471.4	19
471.5	19
471.6	13
471.8	5
471.9	10
472.0	18
472.1	21
472.2	17
472.3	9
472.5	2
472.6	9
472.7	17
472.8	21
472.9	17
473.0	9
473.2	8
473.3	14
473.4	18
473.5	18
473.6	15
473.8	11
473.9	16
474.0	22
474.1	25
474.2	20
474.3	12
474.5	10
474.6	15
474.7	19
474.8	18
474.9	14
475.1	12
475.2	16
475.3	20
475.4	17
475.5	10
475.7	7
475.8	15
475.9	22
476.0	22
476.1	14
476.3	5
476.4	10
476.5	16
476.6	18
476.7	15
476.9	9
477.0	11
477.1	16
477.2	19
477.3	17
477.4	12
477.6	9
477.7	15
477.8	20
477.9	21
478.0	15
478.3	7
478.4	15
478.5	20
478.6	17
478.9	8
479.0	17
479.1	22
479.2	19
479.3	11
479.5	4
479.6	10
479.7	17
479.8	19
479.9	16
480.0	10
480.2	6
480.3	10
480.4	16
480.5	17
480.6	14
480.8	9
480.9	15
481.0	21
481.1	22
481.2	17
481.4	7
481.5	11
481.6	18
481.7	21
481.8	17
482.1	8
482.2	18
482.3	26
482.4	27
482.5	20
482.7	9
482.8	14
482.9	22
483.0	23
483.1	17
483.2	8
483.4	5
483.5	12
483.6	17
483.7	17
484.0	12
484.1	17
484.2	20
484.3	17
484.4	11
484.6	6
484.7	11
484.8	17
484.9	20
485.0	18
485.1	13
485.9	7
486.0	10
486.1	16
486.2	19
486.3	17
486.6	12
486.7	19
486.8	22
486.9	20
487.0	14
487.2	6
487.3	9
487.4	15
487.5	17
487.6	13
487.9	6
488.0	14
488.1	21
488.2	21
488.3	15
488.5	7
488.6	12
488.7	17
488.8	19
488.9	15
489.1	8
489.2	13
489.3	20
489.4	23
489.5	19
489.7	8
489.8	13
489.9	21
490.0	24
490.1	19
490.2	10
490.4	7
490.5	14
490.6	18
490.7	19
490.8	16
491.1	10
491.2	15
491.3	19
491.4	19
491.5	15
491.7	11
491.8	15
491.9	21
492.0	21
492.1	16
493.0	9
493.1	15
493.2	19
493.3	17
493.4	10
493.6	5
493.7	11
493.8	18
493.9	21
494.0	18
494.1	12
494.3	10
494.4	16
494.5	21
494.6	21
494.7	16
494.9	11
495.0	14
495.1	18
495.2	17
495.3	12
495.5	5
495.6	10
495.7	18
495.8	22
495.9	20
496.0	12
496.2	8
496.3	16
496.4	24
496.5	25
496.6	18
496.8	9
496.9	15
497.0	22
497.1	21
497.2	14
497.4	7
497.5	12
497.6	17
497.7	19
497.8	17
497.9	13
498.1	12
498.2	15
498.3	18
498.4	17
498.5	12
498.7	5
498.8	8
498.9	13
499.0	16
499.1	14
499.4	9
499.5	15
499.6	20
499.7	20
499.8	15
500.0	9
500.1	12
500.2	17
500.3	19
500.4	15
500.6	8
500.7	12
500.8	18
500.9	22
501.0	21
501.1	16
501.3	9
501.4	13
501.5	18
501.6	20
501.7	18
502.5	11
502.6	15
502.7	21
502.8	22
502.9	18
503.0	10
503.2	4
503.3	10
503.4	16
503.5	18
503.6	14
503.8	6
503.9	10
504.0	18
504.1	22
504.2	20
504.3	12
504.5	7
504.6	14
504.7	22
504.8	23
504.9	17
505.1	8
505.2	13
505.3	19
505.4	21
505.5	17
505.8	12
505.9	16
506.0	19
506.1	18
506.2	14
506.4	11
506.5	16
506.6	22
506.7	23
506.8	17
507.1	11
507.2	16
507.3	19
507.4	17
507.7	11
507.8	17
507.9	22
508.0	20
508.1	13
508.4	6
508.5	13
508.6	18
508.7	18
508.8	13
509.0	11
509.1	16
509.2	19
509.3	16
509.4	9
509.6	3
509.7	10
509.8	18
509.9	21
510.0	17
510.1	9
510.3	7
510.4	14
510.5	19
510.6	18
510.7	11
510.9	5
511.0	11
511.1	16
511.2	17
511.3	11
511.5	4
511.6	12
511.7	20
511.8	24
511.9	18
512.0	9
512.2	5
512.3	12
512.4	18
512.5	17
512.6	11
512.8	5
512.9	12
513.0	21
513.1	26
513.2	23
513.3	15
513.5	13
513.6	20
513.7	24
513.8	22
513.9	14
514.1	6
514.2	12
514.3	19
514.4	23
514.5	19
514.8	10
514.9	19
515.0	24
515.1	21
515.2	11
515.4	6
515.5	16
515.6	24
515.7	23
515.8	15
516.0	7
516.1	13
516.2	20
516.3	23
516.4	18
516.5	11
516.7	9
516.8	17
516.9	21
517.0	20
517.1	14
517.3	10
517.4	15
517.5	20
517.6	23
517.7	19
517.8	13
518.0	9
518.1	14
518.2	18
518.3	17
518.4	11
518.6	7
518.7	14
518.8	20
518.9	22
519.0	17
519.3	10
519.4	17
519.5	21
519.6	19
519.7	13
519.9	10
520.0	15
520.1	19
520.2	19
520.3	14
520.5	10
520.6	17
520.7	22
520.8	20
520.9	13
521.1	6
521.2	12
521.3	20
521.4	22
521.5	17
521.6	9
521.8	4
521.9	12
522.0	20
522.1	21
522.2	14
522.4	3
522.5	8
522.6	17
522.7	21
522.8	18
522.9	12
523.1	9
523.2	13
523.3	16
523.4	14
523.5	9
523.7	7
523.8	13
523.9	18
524.0	19
524.1	13
524.3	6
524.4	12
524.5	20
524.6	22
524.7	16
525.6	7
525.7	14
525.8	19
525.9	19
526.0	14
526.1	8
526.3	6
526.4	11
526.5	15
526.6	16
526.7	13
526.9	10
527.0	14
527.1	19
527.2	19
527.3	15
527.5	12
527.6	16
527.7	21
527.8	20
527.9	14
528.1	6
528.2	10
528.3	17
528.4	23
528.5	23
528.6	17
528.8	10
528.9	15
529.0	21
529.1	24
529.2	21
529.3	14
529.5	13
529.6	18
529.7	21
529.8	18
529.9	9
530.1	2
530.2	12
530.3	22
530.4	25
530.5	19
530.6	10
531.3	5
531.4	10
531.5	19
531.6	25
531.7	22
531.8	14
532.0	9
532.1	16
532.2	23
532.3	22
532.4	14
532.6	4
532.7	10
532.8	19
532.9	23
533.0	18
533.1	10
533.3	7
533.4	12
533.5	16
533.6	16
533.7	13
533.9	9
534.0	12
534.1	18
534.2	21
534.3	18
534.4	12
534.6	9
534.7	14
534.8	19
534.9	18
535.0	13
535.2	9
535.3	14
535.4	21
535.5	23
535.6	20
535.7	13
535.9	10
536.0	15
536.1	20
536.2	19
536.3	14
536.5	10
536.6	15
536.7	20
536.8	20
536.9	15
537.2	9
537.3	16
537.4	20
537.5	17
537.6	11
537.8	9
537.9	16
538.0	21
538.1	20
538.2	12
538.4	4
538.5	11
538.6	20
538.7	24
538.8	19
538.9	11
539.1	6
539.2	13
539.3	19
539.4	19
539.5	12
539.7	7
539.8	14
539.9	19
540.0	19
540.1	12
540.3	6
540.4	11
540.5	18
540.6	21
540.7	16
540.8	8
541.0	4
541.1	12
541.2	21
541.3	22
541.4	15
541.6	4
541.7	10
541.8	19
541.9	21
542.0	16
542.3	9
542.4	17
542.5	22
542.6	20
542.7	14
542.9	8
543.0	14
543.1	20
543.2	21
543.3	16
543.5	8
543.6	14
543.7	23
543.8	26
543.9	21
544.0	12
544.2	7
544.3	14
544.4	20
544.5	22
544.6	18
545.5	5
545.6	11
545.7	16
545.8	15
546.1	7
546.2	16
546.3	23
546.4	23
546.5	15
546.7	5
546.8	12
546.9	20
547.0	24
547.1	19
547.2	10
547.4	6
547.5	15
547.6	22
547.7	23
547.8	18
548.7	10
548.8	14
548.9	17
549.0	15
549.1	9
549.3	6
549.4	13
549.5	21
549.6	24
549.7	21
549.8	14
550.6	7
550.7	15
550.8	21
550.9	22
551.0	16
551.2	7
551.3	14
551.4	22
551.5	25
551.6	19
551.7	11
551.9	8
552.0	14
552.1	18
552.2	18
552.3	13
552.5	9
552.6	15
552.7	20
552.8	20
552.9	14
553.1	6
553.2	11
553.3	18
553.4	22
553.5	18
553.6	10
553.8	7
553.9	15
554.0	22
554.1	23
554.2	18
554.3	11
554.5	11
554.6	16
554.7	19
554.8	16
555.1	9
555.2	16
555.3	20
555.4	19
555.5	13
555.7	6
555.8	12
555.9	17
556.0	17
556.1	11
556.3	4
556.4	11
556.5	20
556.6	23
556.7	17
557.0	6
557.1	18
557.2	27
557.3	26
557.4	15
557.6	3
557.7	11
557.8	21
557.9	24
558.0	19
558.1	11
558.3	10
558.4	17
558.5	21
558.6	20
558.7	16
558.9	13
559.0	18
559.1	21
559.2	20
559.3	15
559.5	10
559.6	15
559.7	20
559.8	23
559.9	21
560.0	14
560.2	8
560.3	13
560.4	18
560.5	18
560.6	13
560.8	6
560.9	12
561.0	19
561.1	22
561.2	17
561.5	7
561.6	17
561.7	23
561.8	21
561.9	11
562.1	2
562.2	11
562.3	21
562.4	24
562.5	17
562.8	8
562.9	16
563.0	20
563.1	17
564.0	7
564.1	13
564.2	18
564.3	19
564.4	15
564.7	8
564.8	15
564.9	21
565.0	19
565.1	12
565.3	5
565.4	9
565.5	13
565.6	15
565.7	13
565.9	11
566.0	13
566.1	17
566.2	18
566.3	15
566.5	7
566.6	12
566.7	19
566.8	22
566.9	17
567.0	10
567.2	8
567.3	14
567.4	21
567.5	22
567.6	17
567.9	11
568.0	16
568.1	19
568.2	17
568.3	12
568.5	9
568.6	16
568.7	22
568.8	23
568.9	16
569.1	6
569.2	11
569.3	19
569.4	22
569.5	18
569.6	10
569.8	8
569.9	16
570.0	22
570.1	21
570.2	14
570.4	6
570.5	12
570.6	18
570.7	19
570.8	14
571.0	8
571.1	14
571.2	23
571.3	25
571.4	19
571.5	10
571.7	8
571.8	17
571.9	24
572.0	23
572.1	15
572.2	5
572.4	4
572.5	11
572.6	16
572.7	17
572.8	14
573.0	10
573.1	15
573.2	20
573.3	20
573.4	14
573.6	5
573.7	10
573.8	19
573.9	23
574.0	19
574.3	12
574.4	19
574.5	23
574.6	21
574.7	14
574.9	8
575.0	14
575.1	22
575.2	24
575.3	19
575.4	12
575.6	10
575.7	15
575.8	16
575.9	14
576.2	9
576.3	15
576.4	19
576.5	19
576.6	14
576.8	4
576.9	9
577.0	18
577.1	23
577.2	21
577.3	12
577.5	8
577.6	15
577.7	18
577.8	15
578.1	6
578.2	15
578.3	23
578.4	23
578.5	15
578.7	3
578.8	8
578.9	16
579.0	19
579.1	15
579.3	7
579.4	11
579.5	18
579.6	22
579.7	22
579.8	16
580.1	9
580.2	15
580.3	18
580.4	16
580.5	9
580.7	7
580.8	14
580.9	18
581.0	15
581.1	6
581.3	1
581.4	10
581.5	20
581.6	23
581.7	19
581.9	9
582.0	13
582.1	21
582.2	25
582.3	23
582.4	15
582.6	6
582.7	11
582.8	19
582.9	23
583.0	20
583.1	13
583.3	10
583.4	16
583.5	19
583.6	18
584.5	12
584.6	18
584.7	22
584.8	19
584.9	12
585.1	4
585.2	9
585.3	15
585.4	20
585.5	19
585.6	15
585.8	13
585.9	17
586.0	21
586.1	18
586.2	12
586.4	7
586.5	13
586.6	21
586.7	22
586.8	16
587.1	8
587.2	15
587.3	19
587.4	18
587.5	13
587.8	8
587.9	14
588.0	17
588.1	16
588.3	11
588.4	14
588.5	19
588.6	21
588.7	17
588.8	8
589.0	5
589.1	14
589.2	22
589.3	23
589.4	16
589.6	7
589.7	12
589.8	16
589.9	18
590.0	16
590.3	14
590.4	16
590.5	18
590.6	18
590.9	14
591.0	18
591.1	21
591.2	19
591.3	12
591.5	5
591.6	12
591.7	21
591.8	26
591.9	22
592.0	13
592.2	7
592.3	13
592.4	19
592.5	19
592.6	14
592.8	6
592.9	10
593.0	16
593.1	20
593.2	18
593.4	11
593.5	14
593.6	20
593.7	24
593.8	20
593.9	11
594.1	6
594.2	14
594.3	21
594.4	22
594.5	15
594.7	7
594.8	11
594.9	17
595.0	20
595.1	17
595.2	10
595.4	7
595.5	14
595.6	21
595.7	22
595.8	18
596.0	9
596.1	13
596.2	21
596.3	23
596.4	17
596.5	7
596.7	5
596.8	15
596.9	21
597.0	20
597.1	14
597.3	9
597.4	14
597.5	19
597.6	21
597.7	18
598.0	12
598.1	17
598.2	20
598.3	18
598.4	12
598.6	7
598.7	13
598.8	20
598.9	20
599.0	15
599.2	9
599.3	16
599.4	24
599.5	26
599.6	21
