Mass spectrum: Barbatic acid; LC-ESI-QQQ; MS2; Frag=135.0V CID@5.0; [M+Na]+
Name: Barbatic acid
Class: Carbohydrates
Formula: C19H20O7
Exact mass: 360.3671
SMILES: COc1cc(C)c(C(=O)Oc2cc(C)c(C(=O)O)c(O)c2C)c(O)c1C
InChI: InChI=1S/C19H20O7/c1-8-7-13(11(4)16(20)14(8)18(22)23)26-19(24)15-9(2)6-12(25-5)10(3)17(15)21/h6-7,20-21H,1-5H3,(H,22,23)
Instrument: Agilent 6410 Triple Quadrupole LC/MS system
Instrument type: LC-ESI-QQQ
Ms type: MS2
Ion mode: POSITIVE
Precursor type: [M+Na]+
m/z	relative intensity
200.2	0
200.3	2
200.4	7
200.5	14
200.6	24
200.7	37
200.8	52
200.9	66
201.0	76
201.1	88
201.2	99
201.3	99
201.4	76
201.5	38
201.6	8
201.7	0
204.7	0
204.8	2
204.9	5
205.0	8
205.1	9
205.2	9
205.3	6
205.4	2
