Mass spectrum: Vincristine sulfate; LC-ESI-QQQ; MS; [M+H]+
Name: Vincristine sulfate
Class: Alkaloids
Formula: C46H58N4O14S
Exact mass: 923.0576
SMILES: CC[C@]1(O)CC2CN(CCc3c([nH]c4ccccc34)[C@@](C(=O)OC)(c3cc4c(cc3OC)N(C=O)C3C45CCN4CC=C[C@@](CC)(C(OC(C)=O)[C@]3(O)C(=O)OC)[C@H]45)C2)C1.O=S(=O)(O)O
InChI: InChI=1S/C46H56N4O10.H2O4S/c1-7-42(55)22-28-23-45(40(53)58-5,36-30(14-18-48(24-28)25-42)29-12-9-10-13-33(29)47-36)32-20-31-34(21-35(32)57-4)50(26-51)38-44(31)16-19-49-17-11-15-43(8-2,37(44)49)39(60-27(3)52)46(38,56)41(54)59-6;1-5(2,3)4/h9-13,15,20-21,26,28,37-39,47,55-56H,7-8,14,16-19,22-25H2,1-6H3;(H2,1,2,3,4)/t28?,37-,38?,39?,42-,43+,44?,45-,46-;/m0./s1
Instrument: ABSciex API3200 LC/MS system
Instrument type: LC-ESI-QQQ
Ms type: MS
Ion mode: POSITIVE
Precursor type: [M+H]+
m/z	relative intensity
142.1000	42
339.2000	21
343.6000	23
343.7000	31
343.8000	30
343.9000	28
344.0000	33
344.1000	36
344.2000	40
344.3000	34
344.4000	33
344.5000	21
352.4000	39
352.5000	86
352.6000	106
352.7000	117
352.8000	126
352.9000	134
353.0000	165
353.1000	155
353.2000	158
353.3000	150
353.4000	150
353.5000	107
353.6000	82
353.7000	82
353.8000	80
353.9000	62
354.0000	32
354.1000	25
354.2000	21
361.4000	36
361.5000	74
361.6000	91
361.7000	102
361.8000	107
361.9000	113
362.0000	129
362.1000	144
362.2000	136
362.3000	135
362.4000	131
362.5000	84
362.6000	75
362.7000	64
362.8000	60
362.9000	58
363.0000	28
366.7000	22
366.8000	24
366.9000	34
367.0000	29
367.1000	30
367.2000	29
367.3000	28
367.4000	25
367.5000	32
373.9000	21
374.0000	23
374.1000	27
374.2000	24
374.3000	26
374.4000	24
382.4000	61
382.5000	135
382.6000	129
382.7000	141
382.8000	149
382.9000	187
383.0000	189
383.1000	205
383.2000	206
383.3000	194
383.4000	185
383.5000	122
383.6000	99
383.7000	106
383.8000	98
383.9000	93
384.0000	43
384.1000	34
384.2000	30
384.3000	21
384.4000	22
391.4000	46
391.5000	95
391.6000	136
391.7000	150
391.8000	168
391.9000	186
392.0000	218
392.1000	211
392.2000	191
392.3000	191
392.4000	196
392.5000	125
392.6000	106
392.7000	104
392.8000	93
392.9000	78
393.0000	48
393.1000	44
393.2000	50
393.3000	35
403.5000	26
403.6000	38
403.7000	38
403.8000	65
403.9000	50
404.0000	41
404.1000	54
404.2000	48
404.3000	51
404.4000	43
404.5000	25
404.6000	26
404.7000	25
404.8000	21
412.2000	33
412.3000	123
412.4000	399
412.5000	735
412.6000	891
412.7000	821
412.8000	904
412.9000	888
413.0000	936
413.1000	985
413.2000	999
413.3000	981
413.4000	936
413.5000	749
413.6000	684
413.7000	658
413.8000	658
413.9000	547
414.0000	356
414.1000	304
414.2000	280
414.3000	258
414.4000	203
414.5000	105
414.6000	70
414.7000	67
414.8000	53
414.9000	38
433.0000	44
433.1000	61
433.2000	68
433.3000	45
433.4000	48
433.5000	55
433.6000	55
433.7000	53
433.8000	45
433.9000	27
824.3000	57
824.4000	201
824.5000	278
824.6000	229
824.7000	207
824.8000	300
824.9000	244
825.0000	215
825.1000	213
825.2000	200
825.3000	192
825.4000	164
825.5000	133
825.6000	123
825.7000	128
825.8000	137
825.9000	140
826.0000	142
826.1000	150
826.2000	133
826.3000	108
826.4000	93
826.5000	57
826.6000	44
826.7000	49
826.8000	49
826.9000	48
827.0000	53
827.1000	49
827.2000	53
827.3000	36
827.4000	29
