Mass spectrum: Artemisinin; LC-ESI-QQQ; MS2; Frag=135.0V CID@25.0; [M+H]+
Name: Artemisinin
Class: Terpenoids
Formula: C15H22O5
Exact mass: 282.3396
SMILES: C[C@H]1C(=O)O[C@@H]2O[C@@]3(C)CC[C@H]4[C@H](C)CCC1[C@@]24OO3
InChI: InChI=1S/C15H22O5/c1-8-4-5-11-9(2)12(16)17-13-15(11)10(8)6-7-14(3,18-13)19-20-15/h8-11,13H,4-7H2,1-3H3/t8-,9-,10+,11?,13-,14-,15-/m1/s1
Instrument: Agilent 6410 Triple Quadrupole LC/MS system
Instrument type: LC-ESI-QQQ
Ms type: MS2
Ion mode: POSITIVE
Precursor type: [M+H]+
m/z	relative intensity
54.3	1
54.4	3
54.5	7
54.6	11
54.7	16
54.8	20
54.9	25
55.0	30
55.1	31
55.2	26
55.3	16
55.4	6
55.5	0
56.4	1
56.5	2
56.6	4
56.7	6
56.8	8
56.9	9
57.0	11
57.1	13
57.2	12
57.3	9
57.4	5
57.5	2
66.2	2
66.3	3
66.4	5
66.5	6
66.6	9
66.7	15
66.8	25
66.9	38
67.0	47
67.1	50
67.2	42
67.3	27
67.4	10
67.5	0
68.3	0
68.4	1
68.5	4
68.6	8
68.7	13
68.8	17
68.9	21
69.0	26
69.1	29
69.2	25
69.3	16
69.4	7
69.5	1
70.2	1
70.3	2
70.4	5
70.5	7
70.6	10
70.7	15
70.8	22
70.9	30
71.0	36
71.1	38
71.2	34
71.3	25
71.4	15
71.5	6
71.6	1
76.6	1
76.7	3
76.8	4
76.9	6
77.0	8
77.1	8
77.2	6
77.3	3
78.5	1
78.6	3
78.7	8
78.8	14
78.9	20
79.0	23
79.1	24
79.2	22
79.3	15
79.4	7
79.5	1
80.4	2
80.5	4
80.6	10
80.7	21
80.8	32
80.9	41
81.0	43
81.1	41
81.2	37
81.3	32
81.4	25
81.5	14
81.6	4
82.6	2
82.7	3
82.8	6
82.9	10
83.0	12
83.1	10
83.2	7
83.3	4
83.4	2
84.4	3
84.5	4
84.6	5
84.7	8
84.8	16
84.9	24
85.0	30
85.1	31
85.2	28
85.3	20
85.4	10
85.5	2
90.2	1
90.3	2
90.4	4
90.5	7
90.6	12
90.7	19
90.8	28
90.9	36
91.0	39
91.1	39
91.2	35
91.3	29
91.4	18
91.5	6
91.6	0
92.3	1
92.4	3
92.5	7
92.6	14
92.7	27
92.8	44
92.9	60
93.0	69
93.1	68
93.2	61
93.3	51
93.4	36
93.5	18
93.6	4
94.1	0
94.2	1
94.3	6
94.4	11
94.5	17
94.6	22
94.7	31
94.8	43
94.9	58
95.0	71
95.1	79
95.2	78
95.3	64
95.4	42
95.5	19
95.6	4
96.3	1
96.4	2
96.5	4
96.6	7
96.7	9
96.8	12
96.9	16
97.0	18
97.1	18
97.2	15
97.3	9
97.4	4
97.5	1
98.4	2
98.5	3
98.6	4
98.7	6
98.8	11
98.9	14
99.0	13
99.1	11
99.2	9
99.3	8
99.4	6
99.5	2
104.2	0
104.3	2
104.4	6
104.5	12
104.6	22
104.7	33
104.8	44
104.9	53
105.0	64
105.1	76
105.2	81
105.3	71
105.4	46
105.5	20
105.6	3
106.2	1
106.3	3
106.4	8
106.5	13
106.6	17
106.7	21
106.8	28
106.9	39
107.0	48
107.1	53
107.2	48
107.3	35
107.4	20
107.5	8
107.6	2
108.3	0
108.4	3
108.5	7
108.6	12
108.7	15
108.8	19
108.9	26
109.0	36
109.1	42
109.2	39
109.3	27
109.4	14
109.5	5
109.6	1
110.3	2
110.4	3
110.5	4
110.6	5
110.7	8
110.8	14
110.9	19
111.0	22
111.1	20
111.2	15
111.3	9
111.4	3
114.8	1
114.9	3
115.0	4
115.1	5
115.2	4
116.4	2
116.5	4
116.6	8
116.7	11
116.8	14
116.9	16
117.0	17
117.1	18
117.2	20
117.3	19
117.4	13
117.5	6
117.6	1
118.1	1
118.2	3
118.3	6
118.4	8
118.5	11
118.6	16
118.7	26
118.8	39
118.9	50
119.0	59
119.1	64
119.2	66
119.3	60
119.4	44
119.5	24
119.6	7
119.7	0
120.2	1
120.3	2
120.4	6
120.5	12
120.6	21
120.7	35
120.8	51
120.9	63
121.0	67
121.1	64
121.2	60
121.3	54
121.4	43
121.5	26
121.6	10
121.7	0
122.0	0
122.1	2
122.2	3
122.3	5
122.4	7
122.5	8
122.6	8
122.7	12
122.8	20
122.9	32
123.0	45
123.1	53
123.2	53
123.3	45
123.4	30
123.5	14
123.6	2
124.4	2
124.5	4
124.6	5
124.7	5
124.8	7
124.9	9
125.0	10
125.1	10
125.2	8
125.3	6
125.4	3
126.8	2
126.9	3
127.0	4
127.1	6
127.2	6
127.3	5
127.6	1
127.7	4
127.8	7
127.9	9
128.0	10
128.1	10
128.2	11
128.3	10
129.7	2
129.8	4
129.9	6
130.0	8
130.1	9
130.2	9
130.3	8
130.4	10
130.5	13
130.6	16
130.7	22
130.8	38
130.9	59
131.0	75
131.1	77
131.2	72
131.3	66
131.4	56
131.5	35
131.6	12
131.7	0
132.0	2
132.1	3
132.2	3
132.3	5
132.4	8
132.5	12
132.6	18
132.7	27
132.8	43
132.9	64
133.0	80
133.1	85
133.2	78
133.3	64
133.4	47
133.5	28
133.6	10
133.7	0
134.0	1
134.1	2
134.2	3
134.3	4
134.4	4
134.5	7
134.6	12
134.7	21
134.8	31
134.9	39
135.0	40
135.1	36
135.2	30
135.3	23
135.4	17
135.5	10
135.6	4
135.7	1
136.5	1
136.6	4
136.7	7
136.8	10
136.9	10
137.0	9
137.1	8
137.2	7
137.3	6
137.4	3
138.7	2
138.8	3
138.9	6
139.0	9
139.1	11
139.2	9
139.3	6
139.4	2
140.5	1
140.6	3
140.7	4
140.8	4
140.9	4
141.0	6
141.1	7
141.2	7
141.3	5
141.6	2
141.7	5
141.8	7
141.9	8
142.0	8
142.4	5
142.5	6
142.6	10
142.7	16
142.8	26
142.9	37
143.0	43
143.1	38
143.2	28
143.3	20
143.4	15
143.7	9
143.8	13
143.9	16
144.0	16
144.1	13
144.3	10
144.4	13
144.5	17
144.6	23
144.7	34
144.8	52
144.9	73
145.0	90
145.1	99
145.2	99
145.3	87
145.4	60
145.5	29
145.6	5
146.5	1
146.6	5
146.7	12
146.8	19
146.9	24
147.0	24
147.1	22
147.2	19
147.3	15
147.4	9
147.5	5
147.8	4
147.9	6
148.0	7
148.1	8
148.2	7
148.3	6
148.4	5
148.5	8
148.6	15
148.7	25
148.8	33
148.9	40
149.0	45
149.1	50
149.2	52
149.3	48
149.4	37
149.5	21
149.6	7
149.7	0
150.4	0
150.5	2
150.6	5
150.7	13
150.8	23
150.9	33
151.0	40
151.1	42
151.2	42
151.3	38
151.4	31
151.5	19
151.6	6
151.7	0
152.4	0
152.5	2
152.6	4
152.7	7
152.8	8
152.9	7
153.0	4
154.6	2
154.7	5
154.8	10
154.9	13
155.0	14
155.1	15
155.2	15
155.3	13
155.4	9
155.5	4
156.6	2
156.7	3
156.8	8
156.9	12
157.0	14
157.1	14
157.2	13
157.3	12
157.4	9
157.6	5
157.7	8
157.8	13
157.9	18
158.0	20
158.1	19
158.2	18
158.3	18
158.4	18
158.5	17
158.6	15
158.7	18
158.8	30
158.9	47
159.0	63
159.1	73
159.2	75
159.3	68
159.4	50
159.5	27
159.6	8
159.7	0
160.4	3
160.5	5
160.6	10
160.7	22
160.8	37
160.9	50
161.0	57
161.1	59
161.2	59
161.3	54
161.4	42
161.5	24
161.6	7
161.7	0
162.4	2
162.5	3
162.6	7
162.7	14
162.8	22
162.9	26
163.0	24
163.1	22
163.2	23
163.3	24
163.4	20
163.5	12
163.6	4
167.7	3
167.8	6
167.9	8
168.0	10
168.1	11
168.2	12
168.3	10
168.4	7
168.5	2
170.3	1
170.4	3
170.5	6
170.6	8
170.7	8
170.8	7
170.9	9
171.0	15
171.1	20
171.2	18
171.3	11
171.4	3
171.7	1
171.8	4
171.9	9
172.0	14
172.1	15
172.2	13
172.5	8
172.6	15
172.7	28
172.8	44
172.9	58
173.0	64
173.1	66
173.2	66
173.3	64
173.4	53
173.5	34
173.6	14
173.7	5
174.6	2
174.7	4
174.8	6
174.9	6
175.0	6
175.1	7
175.2	9
175.3	8
175.4	6
175.5	3
176.3	1
176.4	3
176.5	6
176.6	11
176.7	14
176.8	17
176.9	18
177.0	18
177.1	18
177.2	21
177.3	22
177.4	17
177.5	8
177.6	1
177.8	0
177.9	3
178.0	4
178.1	4
182.5	2
182.6	3
182.7	5
182.8	7
182.9	12
183.0	15
183.1	16
183.2	13
183.3	9
183.4	6
183.5	4
183.6	2
185.7	1
185.8	2
185.9	4
186.0	5
186.1	5
186.2	4
186.5	1
186.6	4
186.7	7
186.8	9
186.9	9
187.0	8
187.1	6
187.2	5
187.3	3
187.4	2
188.5	1
188.6	3
188.7	7
188.8	12
188.9	14
189.0	14
189.1	15
189.2	16
189.3	15
189.4	9
189.5	3
190.3	1
190.4	2
190.5	4
190.6	5
190.7	5
190.8	6
190.9	6
191.0	7
191.1	9
191.2	11
191.3	10
191.4	8
191.5	5
191.6	2
192.7	1
192.8	2
192.9	4
193.0	4
193.1	4
193.2	4
193.3	4
193.4	4
193.5	2
195.7	1
195.8	2
195.9	4
196.0	4
196.1	3
200.6	0
200.7	1
200.8	5
200.9	11
201.0	16
201.1	20
201.2	21
201.3	18
201.4	11
201.5	4
206.6	1
206.7	2
206.8	4
206.9	6
207.0	7
207.1	6
207.2	3
228.7	0
228.8	2
228.9	4
229.0	7
229.1	7
229.2	5
229.3	3
