Mass spectrum: Phellamurin; LC-ESI-QQQ; MS2; Frag=135.0V CID@10.0; [M+H]+
Name: Phellamurin
Class: Flavonoids
Formula: C26H30O11
Exact mass: 518.5224
SMILES: CC(C)=CCc1c(O[C@@H]2O[C@H](CO)[C@@H](O)[C@H](O)[C@H]2O)cc(O)c2c1OC(c1ccc(O)cc1)C(O)C2=O
InChI: InChI=1S/C26H30O11/c1-11(2)3-8-14-16(35-26-23(34)21(32)19(30)17(10-27)36-26)9-15(29)18-20(31)22(33)24(37-25(14)18)12-4-6-13(28)7-5-12/h3-7,9,17,19,21-24,26-30,32-34H,8,10H2,1-2H3/t17-,19-,21+,22?,23-,24?,26-/m1/s1
Instrument: Agilent 6410 Triple Quadrupole LC/MS system
Instrument type: LC-ESI-QQQ
Ms type: MS2
Ion mode: POSITIVE
Precursor type: [M+H]+
m/z	relative intensity
310.8	2
310.9	3
311.0	5
311.1	6
311.2	6
311.3	5
311.4	3
311.5	1
356.2	0
356.3	2
356.4	5
356.5	10
356.6	15
356.7	24
356.8	40
356.9	61
357.0	82
357.1	96
357.2	99
357.3	90
357.4	69
357.5	40
357.6	14
357.7	0
