Mass spectrum: Echisoside; LC-ESI-QQQ; MS; [M+H]+
Name: Echisoside
Class: Carbohydrates
Formula: C21H30O14
Exact mass: 506.4649
SMILES: COc1cc(O)c(C(C)=O)c(O[C@@H]2O[C@H](CO[C@@H]3O[C@H](CO)[C@@H](O)[C@H](O)[C@H]3O)[C@@H](O)[C@H](O)[C@H]2O)c1
InChI: InChI=1S/C21H30O14/c1-7(23)13-9(24)3-8(31-2)4-10(13)33-21-19(30)17(28)15(26)12(35-21)6-32-20-18(29)16(27)14(25)11(5-22)34-20/h3-4,11-12,14-22,24-30H,5-6H2,1-2H3/t11-,12-,14-,15-,16+,17+,18-,19-,20-,21-/m1/s1
Instrument: ABSciex API3200 LC/MS system
Instrument type: LC-ESI-QQQ
Ms type: MS
Ion mode: POSITIVE
Precursor type: [M+H]+
m/z	relative intensity
101.2000	60
101.3000	88
101.4000	110
101.5000	61
134.6000	26
134.7000	25
134.9000	23
136.7000	26
144.6000	93
144.7000	51
144.8000	26
145.4000	24
162.8000	34
162.9000	56
163.0000	35
163.1000	25
163.2000	34
163.3000	23
164.0000	22
164.7000	51
182.3000	168
182.4000	451
182.5000	823
182.6000	827
182.7000	999
182.8000	975
182.9000	978
183.0000	862
183.1000	892
183.2000	743
183.3000	678
183.4000	542
183.5000	182
183.6000	93
183.7000	107
183.8000	128
183.9000	168
184.0000	96
184.1000	66
184.2000	75
184.3000	59
184.4000	42
184.9000	35
198.0000	33
198.1000	151
198.2000	80
206.8000	23
222.2000	119
224.7000	22
224.9000	28
225.0000	23
225.1000	25
225.2000	22
225.4000	35
239.0000	83
239.1000	111
248.8000	28
278.6000	26
308.8000	26
324.6000	35
324.7000	25
324.8000	28
324.9000	35
325.0000	25
325.1000	42
325.2000	28
325.3000	25
325.4000	26
326.5000	38
326.6000	49
326.7000	86
326.8000	42
326.9000	64
327.0000	56
327.1000	72
327.2000	55
327.3000	60
327.4000	32
327.5000	22
344.5000	21
344.6000	31
344.7000	73
344.8000	42
344.9000	77
345.0000	38
345.1000	25
345.3000	21
506.3000	95
506.4000	205
506.5000	473
506.6000	518
506.7000	552
506.8000	535
506.9000	538
507.0000	607
507.1000	531
507.2000	376
507.3000	349
507.4000	181
507.5000	133
507.6000	167
507.7000	153
507.8000	150
507.9000	112
508.0000	143
508.1000	122
508.2000	98
508.3000	88
508.4000	50
508.5000	57
508.6000	23
508.7000	57
508.8000	47
508.9000	50
509.0000	29
509.1000	67
509.2000	40
509.3000	26
523.9000	22
524.0000	43
524.1000	26
668.9000	35
830.4000	26
830.9000	30
1012.3000	33
1012.4000	23
1012.5000	50
1012.6000	36
1012.7000	78
1012.9000	26
1013.0000	23
1013.1000	29
1013.2000	23
1013.8000	26
1015.8000	23
1029.4000	23
1029.5000	40
1029.6000	23
1029.9000	36
1030.0000	36
1030.1000	23
1030.6000	23
