Mass spectrum: Grosheimin; LC-ESI-QQQ; MS; [M+H]+
Name: Grosheimin
Class: Terpenoids
Formula: C15H18O4
Exact mass: 262.3083
SMILES: C=C1C[C@H](O)[C@H]2C(=C)C(=O)O[C@@H]2[C@H]2[C@H](C)C(=O)C[C@@H]12
InChI: InChI=1S/C15H18O4/c1-6-4-11(17)13-8(3)15(18)19-14(13)12-7(2)10(16)5-9(6)12/h7,9,11-14,17H,1,3-5H2,2H3/t7-,9+,11+,12+,13-,14-/m1/s1
Instrument: ABSciex API3200 LC/MS system
Instrument type: LC-ESI-QQQ
Ms type: MS
Ion mode: POSITIVE
Precursor type: [M+H]+
m/z	relative intensity
102.4000	37
102.5000	44
104.8000	21
105.0000	21
105.2000	22
106.2000	22
106.4000	41
106.5000	218
106.6000	320
106.7000	341
106.8000	422
106.9000	536
107.0000	385
107.1000	346
107.2000	320
107.3000	269
107.4000	253
107.5000	128
107.6000	22
107.9000	22
108.0000	22
108.1000	35
108.3000	30
117.8000	22
120.5000	25
120.6000	60
120.7000	59
120.8000	89
120.9000	66
121.0000	91
121.1000	72
121.2000	47
121.3000	69
121.4000	47
130.4000	24
131.4000	29
132.2000	29
132.5000	24
134.4000	23
134.5000	39
134.6000	33
142.8000	22
143.3000	22
144.6000	41
145.1000	24
145.3000	21
145.5000	26
147.0000	32
148.4000	63
148.5000	357
148.6000	451
148.7000	574
148.8000	594
148.9000	511
149.0000	551
149.1000	658
149.2000	527
149.3000	527
149.4000	447
149.5000	410
149.6000	92
149.7000	57
149.8000	52
149.9000	36
150.0000	81
150.1000	116
150.2000	67
150.3000	30
150.4000	42
150.5000	56
154.9000	26
155.1000	31
155.3000	25
156.4000	21
156.5000	27
156.6000	55
156.7000	59
156.8000	89
156.9000	56
157.0000	102
157.1000	78
157.2000	27
157.3000	44
157.4000	38
157.5000	22
158.8000	25
160.7000	54
167.4000	58
170.4000	21
170.5000	28
170.6000	28
170.7000	48
170.8000	53
170.9000	44
171.0000	32
171.1000	32
171.2000	53
171.3000	59
181.0000	22
181.2000	92
181.3000	68
184.6000	22
184.7000	30
185.1000	22
185.2000	22
198.4000	26
198.5000	89
198.6000	135
198.7000	148
198.8000	195
198.9000	152
199.0000	117
199.1000	165
199.2000	128
199.3000	132
199.4000	87
199.5000	55
199.6000	26
200.3000	33
200.6000	21
202.6000	22
202.7000	23
202.9000	47
203.0000	162
203.1000	46
203.2000	113
203.3000	92
203.4000	26
203.8000	22
216.6000	38
216.7000	223
216.8000	23
222.3000	118
226.4000	35
226.5000	72
226.6000	72
226.7000	67
226.8000	100
226.9000	100
227.0000	129
227.1000	75
227.2000	66
227.3000	71
227.4000	91
227.6000	43
227.9000	21
228.0000	22
244.4000	97
244.5000	100
244.6000	168
244.7000	212
244.8000	203
244.9000	215
245.0000	211
245.1000	242
245.2000	178
245.3000	204
245.4000	171
245.5000	55
245.6000	47
245.8000	31
245.9000	64
246.0000	43
246.1000	43
246.2000	39
246.4000	35
262.3000	130
262.4000	374
262.5000	623
262.6000	778
262.7000	851
262.8000	974
262.9000	760
263.0000	920
263.1000	999
263.2000	759
263.3000	657
263.4000	643
263.5000	322
263.6000	227
263.7000	204
263.8000	132
263.9000	179
264.0000	96
264.1000	119
264.2000	137
264.3000	120
264.4000	92
264.5000	54
264.6000	29
264.7000	21
264.8000	34
264.9000	38
265.0000	26
265.1000	38
265.2000	34
279.4000	32
279.5000	64
279.6000	116
279.7000	118
279.8000	146
279.9000	151
280.0000	116
280.1000	128
280.2000	125
280.3000	97
280.4000	129
280.5000	60
280.6000	62
280.7000	24
280.8000	33
280.9000	48
281.0000	40
281.1000	49
281.2000	29
281.3000	50
281.4000	22
303.4000	47
303.5000	87
303.6000	132
303.7000	144
303.8000	127
303.9000	170
304.0000	124
304.1000	158
304.2000	157
304.3000	107
304.4000	125
304.5000	64
304.6000	23
304.7000	26
304.8000	26
304.9000	37
305.0000	30
305.1000	43
305.3000	52
310.7000	42
310.9000	34
311.2000	26
434.0000	25
524.3000	27
524.4000	127
524.5000	119
524.6000	276
524.7000	330
524.8000	366
524.9000	363
525.0000	475
525.1000	375
525.2000	454
525.3000	355
525.4000	143
525.5000	131
525.6000	123
525.7000	160
525.8000	181
525.9000	156
526.0000	148
526.1000	115
526.2000	164
526.3000	52
526.4000	44
526.6000	40
526.8000	27
526.9000	36
527.0000	61
527.1000	27
527.2000	69
541.8000	39
542.0000	48
542.2000	39
542.3000	35
542.4000	23
542.8000	23
542.9000	40
543.1000	27
543.2000	23
