Mass spectrum: Erythromycin; LC-ESI-QQQ; MS2; Frag=135.0V CID@25.0; [M+HCOO]-
Name: Erythromycin
Class: Polyketides
Formula: C37H67NO13
Exact mass: 733.9454
SMILES: CC[C@@H]1[C@@]([C@@H]([C@H](C(=O)[C@@H](C[C@@]([C@@H]([C@H]([C@@H]([C@H](C(=O)O1)C)O[C@H]2C[C@@]([C@H]([C@@H](O2)C)O)(C)OC)C)O[C@H]3[C@@H]([C@H](C[C@H](O3)C)N(C)C)O)(C)O)C)C)O)(C)O
InChI: InChI=1S/C37H67NO13/c1-14-25-37(10,45)30(41)20(4)27(39)18(2)16-35(8,44)32(51-34-28(40)24(38(11)12)15-19(3)47-34)21(5)29(22(6)33(43)49-25)50-26-17-36(9,46-13)31(42)23(7)48-26/h18-26,28-32,34,40-42,44-45H,14-17H2,1-13H3/t18-,19-,20+,21+,22-,23+,24+,25-,26+,28-,29+,30-,31+,32-,34+,35-,36-,37-/m1/s1
Instrument: Agilent 6410 Triple Quadrupole LC/MS system
Instrument type: LC-ESI-QQQ
Ms type: MS2
Ion mode: NEGATIVE
Precursor type: [M+HCOO]-
m/z	relative intensity
84.3	2
84.4	3
84.5	4
84.6	6
84.7	7
84.8	7
84.9	5
85.0	3
110.4	2
110.5	3
110.6	4
110.7	5
110.8	4
110.9	2
128.3	2
128.4	3
128.5	4
128.6	6
128.7	8
128.8	9
128.9	9
129.0	7
129.1	5
129.2	3
129.3	2
173.3	1
173.4	3
173.5	5
173.6	8
173.7	14
173.8	19
173.9	24
174.0	27
174.1	30
174.2	30
174.3	24
174.4	14
174.5	4
248.2	2
248.3	3
248.4	7
248.5	14
248.6	23
248.7	36
248.8	52
248.9	71
249.0	87
249.1	97
249.2	99
249.3	89
249.4	63
249.5	30
249.6	6
249.7	0
266.7	2
266.8	3
266.9	6
267.0	11
267.1	15
267.2	16
267.3	12
267.4	6
267.5	1
322.4	1
322.5	2
322.6	4
322.7	7
322.8	9
322.9	11
323.0	13
323.1	15
323.2	15
323.3	12
323.4	6
323.5	2
441.5	2
441.6	3
441.7	5
441.8	6
441.9	6
442.0	6
442.1	6
442.2	6
442.3	5
442.4	3
442.5	1
497.6	1
497.7	3
497.8	5
497.9	5
498.0	4
