Mass spectrum: Rotenone; LC-ESI-QQQ; MS2; Frag=135.0V CID@25.0; [M+H]+
Name: Rotenone
Class: Flavonoids
Formula: C23H22O6
Exact mass: 394.4282
SMILES: CC(=C)[C@H]1CC2=C(O1)C=CC3=C2O[C@@H]4COC5=CC(=C(C=C5[C@@H]4C3=O)OC)OC
InChI: InChI=1S/C23H22O6/c1-11(2)16-8-14-15(28-16)6-5-12-22(24)21-13-7-18(25-3)19(26-4)9-17(13)27-10-20(21)29-23(12)14/h5-7,9,16,20-21H,1,8,10H2,2-4H3/t16-,20-,21+/m1/s1
Instrument: Agilent 6410 Triple Quadrupole LC/MS system
Instrument type: LC-ESI-QQQ
Ms type: MS2
Ion mode: POSITIVE
Precursor type: [M+H]+
m/z	relative intensity
138.4	1
138.5	2
138.6	4
138.7	8
138.8	13
138.9	18
139.0	22
139.1	23
139.2	22
139.3	19
139.4	14
139.5	8
139.6	2
146.6	1
146.7	3
146.8	5
146.9	8
147.0	9
147.1	9
147.2	9
147.3	7
147.4	4
150.7	2
150.8	3
150.9	5
151.0	5
151.1	6
151.2	5
151.3	4
151.4	3
160.7	2
160.8	4
160.9	6
161.0	7
161.1	7
161.2	7
161.3	5
161.4	3
166.4	1
166.5	2
166.6	5
166.7	8
166.8	12
166.9	17
167.0	21
167.1	23
167.2	22
167.3	19
167.4	14
167.5	8
167.6	2
178.5	3
178.6	4
178.7	8
178.8	14
178.9	22
179.0	28
179.1	31
179.2	29
179.3	24
179.4	16
179.5	8
179.6	2
188.5	2
188.6	4
188.7	6
188.8	9
188.9	14
189.0	18
189.1	20
189.2	19
189.3	17
189.4	12
189.5	7
189.6	2
190.4	1
190.5	2
190.6	4
190.7	7
190.8	12
190.9	18
191.0	22
191.1	24
191.2	24
191.3	21
191.5	16
191.6	19
191.7	31
191.8	49
191.9	69
192.0	83
192.1	89
192.2	86
192.3	75
192.4	56
192.5	33
192.6	12
194.5	1
194.6	3
194.7	6
194.8	10
194.9	14
195.0	17
195.1	18
195.2	17
195.3	14
195.4	9
195.5	4
195.6	1
197.7	2
197.8	3
197.9	5
198.0	6
198.1	8
198.2	8
198.3	6
198.4	4
198.5	2
202.3	1
202.4	2
202.5	4
202.6	8
202.7	16
202.8	26
202.9	37
203.0	44
203.1	47
203.2	45
203.3	38
203.4	27
203.5	14
203.6	4
212.2	1
212.3	2
212.4	5
212.5	9
212.6	15
212.7	25
212.8	44
212.9	68
213.0	89
213.1	99
213.2	97
213.3	84
213.4	62
213.5	35
213.6	12
213.7	0
240.5	2
240.6	3
240.7	6
240.8	9
240.9	12
241.0	15
241.1	16
241.2	15
241.3	13
241.4	9
241.5	4
241.6	1
394.7	2
394.8	4
394.9	6
395.0	7
395.1	8
395.2	9
395.3	8
395.4	6
395.5	4
