Mass spectrum: Ferocaulicin; LC-ESI-QQQ; MS2; Frag=135.0V CID@15.0; [M+Na]+
Name: Ferocaulicin
Class: Benzopyranoids
Formula: C26H30O6
Exact mass: 438.5254
SMILES: CC(=O)O[C@@H]1CC[C@@]2(C)[C@H](C(=O)C=C(C)[C@@H]2COc2ccc3ccc(=O)oc3c2)C1(C)C
InChI: InChI=1S/C26H30O6/c1-15-12-20(28)24-25(3,4)22(31-16(2)27)10-11-26(24,5)19(15)14-30-18-8-6-17-7-9-23(29)32-21(17)13-18/h6-9,12-13,19,22,24H,10-11,14H2,1-5H3/t19-,22+,24+,26+/m0/s1
Instrument: Agilent 6410 Triple Quadrupole LC/MS system
Instrument type: LC-ESI-QQQ
Ms type: MS2
Ion mode: POSITIVE
Precursor type: [M+Na]+
m/z	relative intensity
400.5	3
400.6	4
400.7	7
400.8	11
400.9	16
401.0	20
401.1	24
401.2	27
401.3	27
401.4	22
401.5	13
401.6	4
401.7	0
460.2	0
460.3	2
460.4	6
460.5	10
460.6	15
460.7	22
460.8	36
460.9	55
461.0	76
461.1	92
461.2	99
461.3	97
461.4	81
461.5	55
461.6	25
461.7	4
461.8	0
