Mass spectrum: Echisoside; LC-ESI-QQQ; MS2; Frag=135.0V CID@5.0; [M+H]+
Name: Echisoside
Class: Carbohydrates
Formula: C21H30O14
Exact mass: 506.4649
SMILES: COc1cc(O)c(C(C)=O)c(O[C@@H]2O[C@H](CO[C@@H]3O[C@H](CO)[C@@H](O)[C@H](O)[C@H]3O)[C@@H](O)[C@H](O)[C@H]2O)c1
InChI: InChI=1S/C21H30O14/c1-7(23)13-9(24)3-8(31-2)4-10(13)33-21-19(30)17(28)15(26)12(35-21)6-32-20-18(29)16(27)14(25)11(5-22)34-20/h3-4,11-12,14-22,24-30H,5-6H2,1-2H3/t11-,12-,14-,15-,16+,17+,18-,19-,20-,21-/m1/s1
Instrument: Agilent 6410 Triple Quadrupole LC/MS system
Instrument type: LC-ESI-QQQ
Ms type: MS2
Ion mode: POSITIVE
Precursor type: [M+H]+
m/z	relative intensity
182.3	2
182.4	4
182.5	7
182.6	9
182.7	12
182.8	16
182.9	19
183.0	21
183.1	21
183.2	18
183.3	14
183.4	8
183.5	3
224.3	2
224.4	4
224.5	6
224.6	8
224.7	13
224.8	23
224.9	39
225.0	53
225.1	58
225.2	50
225.3	34
225.4	18
225.5	5
225.6	0
248.3	0
248.4	1
248.5	5
248.6	10
248.7	13
248.8	12
248.9	9
290.8	1
290.9	3
291.0	7
291.1	10
291.2	10
291.3	6
291.4	2
308.6	2
308.7	4
308.8	7
308.9	8
309.0	8
309.1	7
309.2	6
309.3	6
309.4	5
309.5	3
326.3	2
326.4	3
326.5	5
326.6	12
326.7	29
326.8	54
326.9	79
327.0	95
327.1	99
327.2	94
327.3	77
327.4	49
327.5	20
327.6	2
344.6	1
344.7	4
344.8	12
344.9	27
345.0	41
345.1	47
345.2	42
345.3	31
345.4	20
345.5	9
345.6	2
506.5	0
506.6	2
506.7	6
506.8	11
506.9	14
507.0	15
507.1	13
507.2	10
507.3	7
507.4	5
507.5	3
