Mass spectrum: Tazettine; LC-ESI-QQQ; MS; [M+H]+
Name: Tazettine
Class: Alkaloids
Formula: C18H21NO5
Exact mass: 331.3718
SMILES: CO[C@@H]1C=C[C@@]23c4cc5c(cc4CO[C@]2(O)CN(C)[C@@H]3C1)OCO5
InChI: InChI=1S/C18H21NO5/c1-19-9-18(20)17(4-3-12(21-2)6-16(17)19)13-7-15-14(22-10-23-15)5-11(13)8-24-18/h3-5,7,12,16,20H,6,8-10H2,1-2H3/t12-,16-,17+,18-/m1/s1
Instrument: ABSciex API3200 LC/MS system
Instrument type: LC-ESI-QQQ
Ms type: MS
Ion mode: POSITIVE
Precursor type: [M+H]+
m/z	relative intensity
100.9000	21
101.0000	39
101.1000	32
101.2000	78
101.3000	102
101.4000	56
101.5000	28
174.6000	26
174.7000	22
175.1000	24
180.4000	30
180.5000	69
180.6000	105
180.7000	101
180.8000	68
180.9000	111
181.0000	84
181.1000	76
181.2000	89
181.3000	76
181.4000	57
181.5000	21
207.2000	41
210.4000	30
210.5000	49
210.6000	41
210.7000	74
210.8000	56
210.9000	53
211.0000	64
211.1000	60
211.2000	47
211.3000	42
211.4000	32
213.1000	21
222.9000	26
223.8000	61
223.9000	123
224.0000	28
234.7000	24
238.6000	21
239.1000	21
239.4000	34
239.5000	22
239.6000	28
239.7000	44
239.8000	35
239.9000	62
240.0000	38
240.1000	31
240.2000	37
240.3000	57
240.4000	34
240.6000	27
242.8000	31
242.9000	23
243.0000	32
243.1000	24
244.0000	33
253.6000	42
253.7000	46
253.8000	49
253.9000	42
254.0000	35
254.1000	40
254.2000	40
254.3000	26
254.4000	28
254.5000	21
255.5000	27
255.6000	29
255.7000	38
255.8000	29
255.9000	48
256.0000	44
256.1000	25
256.2000	45
256.3000	53
256.4000	36
256.5000	23
256.8000	24
257.0000	53
257.1000	96
263.6000	34
263.7000	38
263.8000	38
263.9000	38
264.0000	42
264.1000	43
264.2000	26
264.3000	34
270.5000	28
270.6000	43
270.7000	63
270.8000	49
270.9000	52
271.0000	51
271.1000	63
271.2000	51
271.3000	59
271.4000	38
281.5000	48
281.6000	55
281.7000	72
281.8000	57
281.9000	87
282.0000	85
282.1000	85
282.2000	72
282.3000	57
282.4000	85
282.6000	21
282.7000	21
283.4000	84
285.6000	22
285.7000	26
285.8000	32
285.9000	50
286.0000	38
286.1000	34
286.2000	53
286.3000	35
286.4000	21
311.9000	41
313.3000	98
313.4000	352
313.5000	619
313.6000	819
313.7000	873
313.8000	898
313.9000	961
314.0000	999
314.1000	933
314.2000	873
314.3000	784
314.4000	648
314.5000	324
314.6000	271
314.7000	248
314.8000	234
314.9000	242
315.0000	222
315.1000	220
315.2000	211
315.3000	188
315.4000	180
315.5000	66
315.6000	35
315.7000	34
315.8000	32
315.9000	40
316.0000	38
316.1000	34
316.2000	28
316.3000	33
316.4000	25
329.6000	35
329.8000	38
330.0000	38
331.4000	159
331.5000	515
331.6000	752
331.7000	749
331.8000	767
331.9000	893
332.0000	888
332.1000	912
332.2000	793
332.3000	709
332.4000	645
332.5000	308
332.6000	258
332.7000	248
332.8000	244
332.9000	233
333.0000	258
333.1000	233
333.2000	205
333.3000	199
333.4000	157
333.5000	88
333.6000	44
333.7000	48
333.8000	28
333.9000	48
334.0000	49
334.1000	42
334.2000	37
334.4000	25
346.0000	29
347.5000	25
347.6000	26
347.7000	31
347.8000	43
347.9000	59
348.0000	34
348.1000	34
348.2000	42
348.3000	37
348.4000	31
372.9000	23
373.1000	26
