Mass spectrum: Badrakemin acetate; LC-ESI-QQQ; MS2; Frag=135.0V CID@25.0; [M+Na]+
Name: Badrakemin acetate
Class: Benzopyranoids
Formula: C26H32O5
Exact mass: 424.5419
SMILES: C=C1CC[C@@H]2C(C)(C)[C@@H](OC(C)=O)CC[C@@]2(C)[C@@H]1COc1ccc2ccc(=O)oc2c1
InChI: InChI=1S/C26H32O5/c1-16-6-10-22-25(3,4)23(30-17(2)27)12-13-26(22,5)20(16)15-29-19-9-7-18-8-11-24(28)31-21(18)14-19/h7-9,11,14,20,22-23H,1,6,10,12-13,15H2,2-5H3/t20-,22-,23+,26+/m1/s1
Instrument: Agilent 6410 Triple Quadrupole LC/MS system
Instrument type: LC-ESI-QQQ
Ms type: MS2
Ion mode: POSITIVE
Precursor type: [M+Na]+
m/z	relative intensity
82.5	2
82.6	3
82.7	4
82.8	5
82.9	6
83.0	4
83.1	2
386.2	1
386.3	1
386.4	6
386.5	16
386.6	29
386.7	43
386.8	55
386.9	67
387.0	78
387.1	91
387.2	99
387.3	91
387.4	62
387.5	27
387.6	4
446.5	2
446.6	3
446.7	8
446.8	15
446.9	25
447.0	34
447.1	40
447.2	39
447.3	32
447.4	21
447.5	10
447.6	3
