Mass spectrum: Aconitine; LC-ESI-QQQ; MS2; Frag=135.0V CID@5.0; [M+H]+
Name: Aconitine
Class: Alkaloids
Formula: C34H47NO11
Exact mass: 645.7538
SMILES: CCN1C[C@@]2(COC)C3[C@@H](OC)[C@H]4C1[C@@]3(C1C[C@]3(O)[C@@H](OC)[C@H](O)[C@@]4(OC(C)=O)C1[C@H]3OC(=O)c1ccccc1)[C@@H](OC)C[C@H]2O
InChI: InChI=1S/C34H47NO11/c1-7-35-15-31(16-41-3)20(37)13-21(42-4)33-19-14-32(40)28(45-30(39)18-11-9-8-10-12-18)22(19)34(46-17(2)36,27(38)29(32)44-6)23(26(33)35)24(43-5)25(31)33/h8-12,19-29,37-38,40H,7,13-16H2,1-6H3/t19?,20-,21+,22?,23+,24+,25?,26?,27+,28-,29+,31+,32-,33+,34-/m1/s1
Instrument: Agilent 6410 Triple Quadrupole LC/MS system
Instrument type: LC-ESI-QQQ
Ms type: MS2
Ion mode: POSITIVE
Precursor type: [M+H]+
m/z	relative intensity
645.2	1
645.3	3
645.4	6
645.5	10
645.6	16
645.7	26
645.8	41
645.9	60
646.0	80
646.1	94
646.2	99
646.3	93
646.4	76
646.5	53
646.6	28
646.7	10
646.8	0
