Mass spectrum: Dihydroergocristine; LC-ESI-QQQ; MS2; Frag=135.0V CID@25.0; [M+H]+
Name: Dihydroergocristine
Class: Alkaloids
Formula: C35H41N5O5
Exact mass: 611.7475
SMILES: CC(C)[C@@]1(N=C(O)[C@@H]2C[C@@H]3c4cccc5[nH]cc(c45)C[C@H]3N(C)C2)O[C@@]2(O)[C@@H]3CCCN3C(=O)[C@H](Cc3ccccc3)N2C1=O
InChI: InChI=1S/C35H41N5O5/c1-20(2)34(37-31(41)23-16-25-24-11-7-12-26-30(24)22(18-36-26)17-27(25)38(3)19-23)33(43)40-28(15-21-9-5-4-6-10-21)32(42)39-14-8-13-29(39)35(40,44)45-34/h4-7,9-12,18,20,23,25,27-29,36,44H,8,13-17,19H2,1-3H3,(H,37,41)/t23-,25-,27-,28+,29+,34-,35+/m1/s1
Instrument: Agilent 6410 Triple Quadrupole LC/MS system
Instrument type: LC-ESI-QQQ
Ms type: MS2
Ion mode: POSITIVE
Precursor type: [M+H]+
m/z	relative intensity
252.6	2
252.7	3
252.8	5
252.9	9
253.0	12
253.1	14
253.2	14
253.3	12
253.4	9
253.5	6
253.6	2
269.3	1
269.4	2
269.5	6
269.6	12
269.7	22
269.8	39
269.9	61
270.0	82
270.1	96
270.2	99
270.3	93
270.4	76
270.5	50
270.6	23
270.7	3
324.8	2
324.9	4
325.0	6
325.1	7
325.2	8
325.3	7
325.4	6
325.5	4
325.6	1
349.5	0
349.6	2
349.7	4
349.8	7
349.9	11
350.0	16
350.1	20
350.2	21
350.3	20
350.4	16
350.5	10
350.6	4
350.7	0
611.7	1
611.8	3
611.9	5
612.0	7
612.1	9
612.2	11
612.3	12
612.4	12
612.5	10
612.6	7
612.7	4
