Mass spectrum: Inosine; LC-ESI-QQQ; MS2; Frag=135.0V CID@5.0; [M+H]+
Name: INO
Name: (-)-Inosine
Name: beta-Inosine
Name: Hypoxanthine 9-beta-D-ribofuranoside
Name: 9-beta-D-ribofuranosylhypoxanthine
Name: Hypoxanthine ribonucleoside
Name: Oxiamin
Name: Ribonosine
Name: Trophicardyl
Name: Inosine
Class: Carbohydrates
Formula: C10H12N4O5
Exact mass: 268.2309
SMILES: OC[C@H]1O[C@@H](n2cnc3c(O)ncnc32)[C@H](O)[C@@H]1O
InChI: InChI=1S/C10H12N4O5/c15-1-4-6(16)7(17)10(19-4)14-3-13-5-8(14)11-2-12-9(5)18/h2-4,6-7,10,15-17H,1H2,(H,11,12,18)/t4-,6-,7-,10-/m1/s1
Instrument: Agilent 6410 Triple Quadrupole LC/MS system
Instrument type: LC-ESI-QQQ
Ms type: MS2
Ion mode: POSITIVE
Precursor type: [M+H]+
m/z	relative intensity
136.2	1
136.3	4
136.4	8
136.5	13
136.6	22
136.7	38
136.8	62
136.9	83
137.0	96
137.1	99
137.2	95
137.3	83
137.4	60
137.5	32
137.6	8
137.7	0
268.8	5
268.9	6
269.0	8
269.1	11
269.2	11
269.3	9
269.4	4
269.5	0
