Mass spectrum: Trichodesmine; LC-ESI-QQQ; MS; [M+H]+
Name: Trichodesmine
Class: Alkaloids
Formula: C18H27NO6
Exact mass: 353.419
SMILES: CC(C)[C@H]1C(=O)OC2CCN3CC=C(COC(=O)C(C)(O)C1(C)O)[C@H]23
InChI: InChI=1S/C18H27NO6/c1-10(2)13-15(20)25-12-6-8-19-7-5-11(14(12)19)9-24-16(21)18(4,23)17(13,3)22/h5,10,12-14,22-23H,6-9H2,1-4H3/t12?,13-,14+,17?,18?/m0/s1
Instrument: ABSciex API3200 LC/MS system
Instrument type: LC-ESI-QQQ
Ms type: MS
Ion mode: POSITIVE
Precursor type: [M+H]+
m/z	relative intensity
120.8000	21
164.0000	22
221.6000	22
221.7000	35
221.8000	39
221.9000	31
222.0000	31
222.1000	31
222.2000	29
222.3000	26
222.4000	24
222.5000	44
222.6000	22
307.6000	24
307.7000	37
307.8000	44
307.9000	44
308.0000	48
308.1000	54
308.2000	34
308.3000	31
308.4000	27
353.3000	26
353.4000	300
353.5000	671
353.6000	896
353.7000	987
353.8000	986
353.9000	999
354.0000	976
354.1000	916
354.2000	957
354.3000	932
354.4000	812
354.5000	506
354.6000	463
354.7000	337
354.8000	332
354.9000	363
355.0000	407
355.1000	414
355.2000	336
355.3000	307
355.4000	294
355.5000	158
355.6000	130
355.7000	212
355.8000	64
355.9000	66
356.0000	59
356.1000	54
356.2000	67
356.3000	65
356.4000	60
356.5000	40
394.6000	40
394.7000	73
394.8000	83
394.9000	89
395.0000	87
395.1000	78
395.2000	67
395.3000	53
395.4000	48
395.5000	25
