Mass spectrum: Glabranin; LC-ESI-QQQ; MS2; Frag=135.0V CID@10.0; [M+H]+
Name: Glabranin
Class: Flavonoids
Formula: C20H20O4
Exact mass: 324.38
SMILES: CC(C)=CCc1c(O)cc(O)c2c1O[C@H](c1ccccc1)CC2=O
InChI: InChI=1S/C20H20O4/c1-12(2)8-9-14-15(21)10-16(22)19-17(23)11-18(24-20(14)19)13-6-4-3-5-7-13/h3-8,10,18,21-22H,9,11H2,1-2H3/t18-/m0/s1
Instrument: Agilent 6410 Triple Quadrupole LC/MS system
Instrument type: LC-ESI-QQQ
Ms type: MS2
Ion mode: POSITIVE
Precursor type: [M+H]+
m/z	relative intensity
164.5	1
164.6	3
164.7	5
164.8	8
164.9	11
165.0	13
165.1	13
165.2	12
165.3	10
165.4	6
165.5	3
268.2	0
268.3	2
268.4	4
268.5	7
268.6	10
268.7	16
268.8	28
268.9	45
269.0	61
269.1	70
269.2	69
269.3	59
269.4	41
269.5	21
269.6	5
269.7	0
324.2	0
324.3	2
324.4	5
324.5	8
324.6	12
324.7	20
324.8	34
324.9	56
325.0	79
325.1	95
325.2	99
325.3	90
325.4	69
325.5	41
325.6	15
325.7	0
