Mass spectrum: Boldenone; LC-ESI-QQQ; MS; [M+H]+
Name: Boldenone
Class: Steroids
Formula: C19H26O2
Exact mass: 286.4179
SMILES: C[C@]12C=CC(=O)C=C1CCC1C2CC[C@]2(C)C(O)CCC12
InChI: InChI=1S/C19H26O2/c1-18-9-7-13(20)11-12(18)3-4-14-15-5-6-17(21)19(15,2)10-8-16(14)18/h7,9,11,14-17,21H,3-6,8,10H2,1-2H3/t14?,15?,16?,17?,18-,19-/m0/s1
Instrument: ABSciex API3200 LC/MS system
Instrument type: LC-ESI-QQQ
Ms type: MS
Ion mode: POSITIVE
Precursor type: [M+H]+
m/z	relative intensity
100.4000	33
100.5000	57
100.6000	139
100.7000	127
100.8000	120
100.9000	115
101.0000	92
101.1000	68
101.2000	35
119.4000	37
119.5000	37
120.4000	50
120.5000	192
120.6000	307
120.7000	516
120.8000	291
120.9000	301
121.0000	335
121.1000	333
121.2000	342
121.3000	347
121.4000	244
121.5000	140
121.6000	32
121.7000	31
121.8000	35
121.9000	39
122.0000	44
122.1000	48
122.2000	37
122.3000	32
122.4000	24
132.6000	27
132.7000	38
132.8000	43
132.9000	34
133.0000	38
133.1000	38
133.2000	23
133.3000	30
133.4000	23
134.5000	132
134.6000	244
134.7000	326
134.8000	318
134.9000	304
135.0000	297
135.1000	311
135.2000	348
135.3000	271
135.4000	253
135.5000	152
135.6000	50
135.7000	40
135.8000	40
135.9000	33
136.0000	35
136.1000	31
136.2000	27
136.3000	31
136.4000	24
141.5000	55
141.6000	66
141.7000	63
141.8000	43
141.9000	32
142.0000	22
146.5000	37
146.6000	72
146.7000	82
146.8000	122
146.9000	135
147.0000	151
147.1000	165
147.2000	65
147.3000	43
147.4000	47
147.5000	27
148.6000	22
148.7000	63
148.8000	87
148.9000	52
149.0000	49
149.1000	59
149.2000	49
149.3000	55
149.4000	47
149.5000	34
158.6000	22
158.7000	27
158.8000	29
158.9000	37
159.0000	34
159.1000	41
159.2000	34
159.3000	35
159.4000	28
159.5000	21
160.6000	40
160.7000	59
160.8000	73
160.9000	55
161.0000	50
161.1000	60
161.2000	52
161.3000	51
161.4000	39
161.5000	32
172.5000	64
172.6000	82
172.7000	180
172.8000	134
172.9000	108
173.0000	112
173.1000	119
173.2000	101
173.3000	83
173.4000	75
173.5000	41
173.6000	23
178.6000	29
178.7000	44
178.8000	43
178.9000	39
179.0000	47
179.1000	42
179.2000	45
179.3000	39
179.4000	28
179.5000	30
186.6000	29
186.7000	31
186.8000	51
186.9000	83
187.0000	55
187.1000	23
187.2000	21
187.3000	21
199.4000	21
268.5000	46
268.6000	132
268.7000	172
268.8000	195
268.9000	228
269.0000	207
269.1000	233
269.2000	259
269.3000	182
269.4000	161
269.5000	132
269.6000	60
269.7000	57
269.8000	37
269.9000	54
270.0000	39
270.1000	47
270.2000	49
270.3000	36
270.4000	30
270.5000	29
286.5000	161
286.6000	506
286.7000	813
286.8000	951
286.9000	964
287.0000	986
287.1000	999
287.2000	991
287.3000	896
287.4000	796
287.5000	624
287.6000	277
287.7000	267
287.8000	276
287.9000	260
288.0000	277
288.1000	293
288.2000	287
288.3000	291
288.4000	243
288.5000	212
288.6000	91
288.7000	59
288.8000	45
288.9000	38
289.0000	51
289.1000	35
289.2000	40
289.3000	45
289.4000	32
289.5000	30
327.6000	42
327.7000	54
327.8000	72
327.9000	83
328.0000	66
328.1000	78
328.2000	79
328.3000	74
328.4000	56
328.5000	38
328.6000	22
329.0000	32
572.7000	64
572.8000	77
572.9000	80
573.0000	96
573.1000	95
573.2000	92
573.3000	90
573.4000	87
573.5000	84
573.6000	36
573.7000	30
573.8000	30
573.9000	38
574.0000	45
574.1000	50
574.2000	54
574.3000	42
574.4000	46
574.5000	23
