Mass spectrum: Oxymatrine; LC-ESI-QQQ; MS2; Frag=135.0V CID@25.0; [M+H]+
Name: Oxymatrine
Class: Alkaloids
Formula: C15H24N2O2
Exact mass: 264.3707
SMILES: O=C1CCC[C@@H]2[C@H]3CCC[N+]4([O-])CCC[C@@H](CN12)[C@@H]34
InChI: InChI=1S/C15H24N2O2/c18-14-7-1-6-13-12-5-3-9-17(19)8-2-4-11(15(12)17)10-16(13)14/h11-13,15H,1-10H2/t11-,12+,13+,15-,17?/m0/s1
Instrument: Agilent 6410 Triple Quadrupole LC/MS system
Instrument type: LC-ESI-QQQ
Ms type: MS2
Ion mode: POSITIVE
Precursor type: [M+H]+
m/z	relative intensity
97.6	2
97.7	4
97.8	6
97.9	8
98.0	9
98.1	10
98.2	10
98.3	9
98.4	6
98.5	3
135.5	2
135.6	4
135.7	6
135.8	10
135.9	15
136.0	19
136.1	21
136.2	20
136.3	17
136.4	14
136.5	9
136.8	5
136.9	8
137.0	10
137.1	12
137.2	12
137.3	10
137.4	8
137.5	5
137.6	3
147.4	1
147.5	3
147.6	6
147.7	10
147.8	15
147.9	20
148.0	24
148.1	27
148.2	27
148.3	25
148.4	19
148.5	12
148.6	5
149.6	3
149.7	5
149.8	8
149.9	11
150.0	13
150.1	15
150.2	15
150.3	14
150.4	11
150.5	7
150.6	3
161.8	4
161.9	5
162.0	6
162.1	7
162.2	7
162.3	7
162.4	6
162.5	3
175.6	2
175.7	3
175.8	5
175.9	7
176.0	8
176.1	9
176.2	10
176.3	9
176.4	7
176.5	5
204.4	2
204.5	3
204.6	6
204.7	9
204.8	16
204.9	27
205.0	39
205.1	47
205.2	48
205.3	45
205.4	37
205.5	25
205.6	12
205.7	4
205.9	3
206.0	5
206.1	7
206.2	7
206.3	7
206.4	6
206.5	4
206.6	2
218.8	2
218.9	3
219.0	4
219.1	5
219.2	5
219.3	5
219.4	4
246.4	0
246.5	2
246.6	5
246.7	9
246.8	16
246.9	25
247.0	32
247.1	36
247.2	37
247.3	36
247.4	32
247.5	24
247.6	14
247.7	5
264.3	0
264.4	2
264.5	6
264.6	12
264.7	21
264.8	34
264.9	53
265.0	73
265.1	90
265.2	99
265.3	99
265.4	90
265.5	69
265.6	40
265.7	13
265.8	0
