Mass spectrum: 16-Deethylindanomycin; LC-ESI-QQQ; MS2; Frag=135.0V CID@10.0; [M+H]+
Name: 16-Deethylindanomycin
Class: Carbohydrates
Formula: C29H39NO4
Exact mass: 465.6385
SMILES: CC/C(=C\C=C\C1C=CC2CCCC2C1C(=O)c1ccc[nH]1)C1OC(C(C)C(=O)O)CCC1C
InChI: InChI=1S/C29H39NO4/c1-4-20(28-18(2)13-16-25(34-28)19(3)29(32)33)8-5-10-22-15-14-21-9-6-11-23(21)26(22)27(31)24-12-7-17-30-24/h5,7-8,10,12,14-15,17-19,21-23,25-26,28,30H,4,6,9,11,13,16H2,1-3H3,(H,32,33)/b10-5+,20-8+
Instrument: Agilent 6410 Triple Quadrupole LC/MS system
Instrument type: LC-ESI-QQQ
Ms type: MS2
Ion mode: POSITIVE
Precursor type: [M+H]+
m/z	relative intensity
156.7	2
156.8	4
156.9	6
157.0	8
157.1	8
157.2	8
157.3	7
157.4	5
157.5	3
225.6	1
225.7	2
225.8	4
225.9	6
226.0	7
226.1	8
226.2	8
226.3	8
226.4	6
226.5	4
226.6	1
403.7	1
403.8	2
403.9	4
404.0	8
404.1	12
404.2	14
404.3	15
404.4	15
404.5	12
404.6	9
404.7	4
404.8	0
447.7	2
447.8	3
447.9	6
448.0	9
448.1	12
448.2	14
448.3	15
448.4	15
448.5	13
448.6	8
448.7	3
465.4	0
465.5	2
465.6	6
465.7	12
465.8	21
465.9	36
466.0	56
466.1	76
466.2	92
466.3	99
466.4	96
466.5	82
466.6	57
466.7	28
466.8	5
466.9	0
