Mass spectrum: Glaucine; LC-ESI-QQQ; MS2; Frag=135.0V CID@15.0; [M+H]+
Name: Glaucine
Class: Alkaloids
Formula: C21H25NO4
Exact mass: 355.4377
SMILES: COc1cc2c(cc1OC)-c1c(OC)c(OC)cc3c1C(C2)N(C)CC3
InChI: InChI=1S/C21H25NO4/c1-22-7-6-12-9-18(25-4)21(26-5)20-14-11-17(24-3)16(23-2)10-13(14)8-15(22)19(12)20/h9-11,15H,6-8H2,1-5H3
Instrument: Agilent 6410 Triple Quadrupole LC/MS system
Instrument type: LC-ESI-QQQ
Ms type: MS2
Ion mode: POSITIVE
Precursor type: [M+H]+
m/z	relative intensity
293.3	1
293.4	3
293.5	8
293.6	15
293.7	26
293.8	42
293.9	61
294.0	80
294.1	94
294.2	99
294.3	91
294.4	70
294.5	40
294.6	14
294.7	0
294.9	1
295.0	4
295.1	5
295.2	5
295.3	4
295.4	2
309.4	1
309.5	3
309.6	6
309.7	12
309.8	21
309.9	34
310.0	47
310.1	55
310.2	56
310.3	50
310.4	37
310.5	20
310.6	6
310.7	0
324.3	0
324.4	2
324.5	3
324.6	6
324.7	10
324.8	18
324.9	30
325.0	43
325.1	52
325.2	55
325.3	51
325.4	40
325.5	24
325.6	9
325.7	0
355.8	2
355.9	4
356.0	5
356.1	7
356.2	8
356.3	8
356.4	7
356.5	4
356.6	2
