Mass spectrum: Felamidin; LC-ESI-QQQ; MS2; Frag=135.0V CID@15.0; [M+H]+
Name: Felamidin
Class: Benzopyranoids
Formula: C21H18O5
Exact mass: 350.3746
SMILES: CC(C)(OC(=O)c1ccccc1)C1Cc2cc3ccc(=O)oc3cc2O1
InChI: InChI=1S/C21H18O5/c1-21(2,26-20(23)13-6-4-3-5-7-13)18-11-15-10-14-8-9-19(22)25-16(14)12-17(15)24-18/h3-10,12,18H,11H2,1-2H3
Instrument: Agilent 6410 Triple Quadrupole LC/MS system
Instrument type: LC-ESI-QQQ
Ms type: MS2
Ion mode: POSITIVE
Precursor type: [M+H]+
m/z	relative intensity
228.2	1
228.3	2
228.4	4
228.5	8
228.6	15
228.7	28
228.8	48
228.9	71
229.0	91
229.1	99
229.2	95
229.3	80
229.4	57
229.5	30
229.6	8
229.7	0
350.4	2
350.5	3
350.6	5
350.7	8
350.8	14
350.9	22
351.0	29
351.1	34
351.2	34
351.3	30
351.4	23
351.5	12
351.6	3
