Mass spectrum: Komarovicine; LC-ESI-QQQ; MS; [M+H]+
Name: Komarovicine
Class: Alkaloids
Formula: C20H17N3
Exact mass: 299.3786
SMILES: c1cnc2c(C3NCCc4c3[nH]c3ccccc43)cccc2c1
InChI: InChI=1S/C20H17N3/c1-2-9-17-14(7-1)15-10-12-22-19(20(15)23-17)16-8-3-5-13-6-4-11-21-18(13)16/h1-9,11,19,22-23H,10,12H2
Instrument: ABSciex API3200 LC/MS system
Instrument type: LC-ESI-QQQ
Ms type: MS
Ion mode: POSITIVE
Precursor type: [M+H]+
m/z	relative intensity
101.3000	185
101.4000	62
118.8000	69
118.9000	115
119.0000	154
119.1000	154
119.2000	114
119.3000	85
119.4000	25
143.5000	21
143.6000	38
143.7000	50
143.8000	66
143.9000	57
144.0000	69
144.1000	60
144.2000	64
144.3000	50
144.4000	46
156.5000	33
156.6000	65
156.7000	110
156.8000	136
156.9000	100
157.0000	101
157.1000	86
157.2000	95
157.3000	133
157.4000	59
157.5000	26
157.9000	30
158.0000	27
158.1000	21
255.4000	63
255.5000	142
255.6000	210
255.7000	252
255.8000	280
255.9000	262
256.0000	245
256.1000	257
256.2000	248
256.3000	232
256.4000	162
256.5000	88
256.6000	79
256.7000	88
256.8000	59
256.9000	64
257.0000	79
257.1000	70
257.2000	79
257.3000	66
257.4000	67
257.5000	36
268.6000	25
268.7000	38
268.8000	37
268.9000	40
269.0000	28
269.1000	34
269.2000	27
269.3000	25
269.4000	35
270.4000	68
270.5000	298
270.6000	610
270.7000	788
270.8000	854
270.9000	990
271.0000	961
271.1000	861
271.2000	867
271.3000	759
271.4000	740
271.5000	289
271.6000	235
271.7000	207
271.8000	206
271.9000	238
272.0000	221
272.1000	231
272.2000	281
272.3000	209
272.4000	182
272.5000	83
272.6000	27
272.7000	24
272.8000	34
272.9000	29
273.0000	22
273.3000	24
299.4000	33
299.5000	253
299.6000	568
299.7000	831
299.8000	975
299.9000	931
300.0000	999
300.1000	933
300.2000	949
300.3000	863
300.4000	776
300.5000	365
300.6000	247
300.7000	257
300.8000	315
300.9000	300
301.0000	258
301.1000	292
301.2000	376
301.3000	245
301.4000	188
301.5000	108
301.6000	41
301.7000	40
301.8000	22
301.9000	26
302.0000	36
302.1000	22
302.2000	29
302.3000	24
302.4000	27
340.7000	28
340.8000	30
340.9000	21
