Mass spectrum: Galantamine; LC-ESI-QQQ; MS; [M+H]+
Name: Galantamine
Class: Benzopyranoids
Formula: C17H21NO3
Exact mass: 287.3618
SMILES: COc1ccc2c3c1OC1CC(O)C=C[C@@]31CCN(C)C2
InChI: InChI=1S/C17H21NO3/c1-18-8-7-17-6-5-12(19)9-14(17)21-16-13(20-2)4-3-11(10-18)15(16)17/h3-6,12,14,19H,7-10H2,1-2H3/t12?,14?,17-/m0/s1
Instrument: ABSciex API3200 LC/MS system
Instrument type: LC-ESI-QQQ
Ms type: MS
Ion mode: POSITIVE
Precursor type: [M+H]+
m/z	relative intensity
100.5000	38
100.6000	46
100.7000	57
100.8000	62
100.9000	22
101.0000	30
101.1000	40
101.2000	50
101.3000	47
101.4000	60
101.5000	21
196.6000	21
196.7000	21
196.8000	27
196.9000	26
197.2000	22
197.4000	34
197.5000	36
197.6000	50
197.7000	52
197.8000	54
197.9000	62
198.0000	54
198.1000	48
198.2000	40
198.3000	39
198.4000	33
203.2000	25
208.7000	22
208.8000	26
208.9000	26
209.0000	25
209.1000	32
209.2000	38
209.3000	25
209.4000	25
212.5000	59
212.6000	132
212.7000	160
212.8000	176
212.9000	184
213.0000	201
213.1000	225
213.2000	189
213.3000	175
213.4000	175
213.5000	62
213.6000	26
213.7000	30
213.8000	27
213.9000	23
214.0000	31
214.1000	23
214.2000	26
214.3000	26
214.4000	21
224.5000	38
224.6000	72
224.7000	62
224.8000	58
224.9000	69
225.0000	74
225.1000	74
225.2000	60
225.3000	70
225.4000	55
225.5000	21
230.5000	82
230.6000	127
230.7000	134
230.8000	149
230.9000	164
231.0000	166
231.1000	186
231.2000	151
231.3000	137
231.4000	117
231.5000	58
231.6000	31
232.0000	24
232.1000	22
232.2000	31
269.5000	50
269.6000	74
269.7000	83
269.8000	99
269.9000	109
270.0000	103
270.1000	109
270.2000	116
270.3000	105
270.4000	94
270.5000	45
271.0000	21
271.1000	24
271.2000	27
271.4000	21
285.7000	41
285.8000	49
285.9000	39
286.0000	47
286.1000	50
286.2000	42
286.3000	51
286.4000	39
287.4000	47
287.5000	248
287.6000	648
287.7000	871
287.8000	925
287.9000	890
288.0000	999
288.1000	987
288.2000	914
288.3000	898
288.4000	765
288.5000	469
288.6000	249
288.7000	255
288.8000	307
288.9000	250
289.0000	235
289.1000	224
289.2000	201
289.3000	213
289.4000	187
289.5000	102
289.6000	40
289.7000	36
289.8000	31
289.9000	32
290.0000	40
290.1000	31
290.2000	24
290.3000	34
290.4000	34
306.0000	21
