Mass spectrum: Nitrarine; LC-ESI-QQQ; MS2; Frag=135.0V CID@10.0; [M+H]+
Name: Nitrarine
Class: Alkaloids
Formula: C20H25N3
Exact mass: 307.4424
SMILES: c1ccc2c3c([nH]c2c1)[C@@H]1C2CCC([C@H]4CCCN[C@@H]24)N1CC3
InChI: InChI=1S/C20H25N3/c1-2-6-16-12(4-1)13-9-11-23-17-8-7-15(20(23)19(13)22-16)18-14(17)5-3-10-21-18/h1-2,4,6,14-15,17-18,20-22H,3,5,7-11H2/t14-,15?,17?,18-,20+/m1/s1
Instrument: Agilent 6410 Triple Quadrupole LC/MS system
Instrument type: LC-ESI-QQQ
Ms type: MS2
Ion mode: POSITIVE
Precursor type: [M+H]+
m/z	relative intensity
224.7	2
224.8	4
224.9	6
225.0	8
225.1	9
225.2	9
225.3	8
225.4	6
225.5	4
225.6	1
307.4	0
307.5	2
307.6	7
307.7	14
307.8	27
307.9	45
308.0	68
308.1	88
308.2	99
308.3	99
308.4	87
308.5	64
308.6	36
308.7	11
308.8	0
