Mass spectrum: Aconine; LC-ESI-QQQ; MS2; Frag=135.0V CID@15.0; [M+H]+
Name: Aconine
Class: Alkaloids
Formula: C25H41NO9
Exact mass: 499.6068
SMILES: CCN1C[C@@]2(COC)C3[C@@H](OC)[C@H]4[C@@H]1[C@@]3(C1C[C@]3(O)[C@@H](OC)[C@H](O)[C@@]4(O)C1[C@H]3O)[C@@H](OC)C[C@H]2O
InChI: InChI=1S/C25H41NO9/c1-6-26-9-22(10-32-2)12(27)7-13(33-3)24-11-8-23(30)19(28)14(11)25(31,20(29)21(23)35-5)15(18(24)26)16(34-4)17(22)24/h11-21,27-31H,6-10H2,1-5H3/t11?,12-,13+,14?,15+,16+,17?,18-,19-,20+,21+,22+,23-,24+,25-/m1/s1
Instrument: Agilent 6410 Triple Quadrupole LC/MS system
Instrument type: LC-ESI-QQQ
Ms type: MS2
Ion mode: POSITIVE
Precursor type: [M+H]+
m/z	relative intensity
499.4	1
499.5	3
499.6	6
499.7	13
499.8	23
499.9	38
500.0	56
500.1	75
500.2	91
500.3	99
500.4	97
500.5	82
500.6	56
500.7	27
500.8	6
500.9	0
