Mass spectrum: Brevicarine; LC-ESI-QQQ; MS2; Frag=135.0V CID@10.0; [M+H]+
Name: Brevicarine
Class: Alkaloids
Formula: C17H21N3
Exact mass: 267.377
SMILES: CNCCCCc1cnc(C)c2[nH]c3ccccc3c12
InChI: InChI=1S/C17H21N3/c1-12-17-16(14-8-3-4-9-15(14)20-17)13(11-19-12)7-5-6-10-18-2/h3-4,8-9,11,18,20H,5-7,10H2,1-2H3
Instrument: Agilent 6410 Triple Quadrupole LC/MS system
Instrument type: LC-ESI-QQQ
Ms type: MS2
Ion mode: POSITIVE
Precursor type: [M+H]+
m/z	relative intensity
236.6	1
236.7	3
236.8	6
236.9	9
237.0	12
237.1	14
237.2	14
237.3	12
237.4	9
237.5	4
237.6	1
267.3	1
267.4	3
267.5	6
267.6	10
267.7	17
267.8	32
267.9	53
268.0	75
268.1	92
268.2	99
268.3	96
268.4	83
268.5	61
268.6	33
268.7	10
268.8	0
