Mass spectrum: Adenine deoxyriboside 9-(2-Deoxy-beta-D-erythro-pentofuranosyl)adenine; LC-ESI-QQQ; MS; [M+H]+
Name: dA
Name: 2'-Deoxy-A
Name: Adenine deoxyriboside
Name: 9-(2-Deoxy-beta-D-ribofuranosyl)adenine
Name: adenyldeoxyriboside
Name: 9-(2-Deoxy-beta-D-erythro-pentofuranosyl)adenine
Name: Adenine deoxyriboside 9-(2-Deoxy-beta-D-erythro-pentofuranosyl)adenine
Class: Carbohydrates
Formula: C10H13N5O3
Exact mass: 251.2468
SMILES: Nc1ncnc2c1ncn2[C@H]1C[C@H](O)[C@@H](CO)O1
InChI: InChI=1S/C10H13N5O3/c11-9-8-10(13-3-12-9)15(4-14-8)7-1-5(17)6(2-16)18-7/h3-7,16-17H,1-2H2,(H2,11,12,13)/t5-,6+,7+/m0/s1
Instrument: ABSciex API3200 LC/MS system
Instrument type: LC-ESI-QQQ
Ms type: MS
Ion mode: POSITIVE
Precursor type: [M+H]+
m/z	relative intensity
135.4000	277
135.5000	697
135.6000	905
135.7000	973
135.8000	999
135.9000	973
136.0000	950
136.1000	947
136.2000	917
136.3000	803
136.4000	672
136.5000	309
136.6000	132
136.7000	121
136.8000	107
136.9000	113
137.0000	124
137.1000	137
137.2000	125
137.3000	103
137.4000	73
137.5000	24
220.8000	31
251.4000	135
251.5000	310
251.6000	378
251.7000	413
251.8000	447
251.9000	443
252.0000	486
252.1000	471
252.2000	457
252.3000	416
252.4000	384
252.5000	155
252.6000	109
252.7000	79
252.8000	85
252.9000	79
253.0000	128
253.1000	75
253.2000	65
253.3000	69
253.4000	56
253.5000	25
