Mass spectrum: Norlaudanosoline; LC-ESI-QQQ; MS2; Frag=135.0V CID@5.0; [M+H]+
Name: Norlaudanosoline
Class: Alkaloids
Formula: C16H17NO4
Exact mass: 287.3182
SMILES: Oc1ccc(CC2NCCc3cc(O)c(O)cc32)cc1O
InChI: InChI=1S/C16H17NO4/c18-13-2-1-9(6-14(13)19)5-12-11-8-16(21)15(20)7-10(11)3-4-17-12/h1-2,6-8,12,17-21H,3-5H2
Instrument: Agilent 6410 Triple Quadrupole LC/MS system
Instrument type: LC-ESI-QQQ
Ms type: MS2
Ion mode: POSITIVE
Precursor type: [M+H]+
m/z	relative intensity
163.4	1
163.5	3
163.6	5
163.7	9
163.8	13
163.9	18
164.0	21
164.1	23
164.2	23
164.3	20
164.4	15
164.5	8
164.6	2
270.6	1
270.7	3
270.8	4
270.9	6
271.0	7
271.1	8
271.2	8
271.3	7
271.4	5
271.5	2
287.3	1
287.4	3
287.5	8
287.6	16
287.7	27
287.8	43
287.9	62
288.0	80
288.1	94
288.2	99
288.3	94
288.4	76
288.5	47
288.6	18
288.7	0
