Mass spectrum: Isoimperatorin; LC-ESI-QQQ; MS; [M+H]+
Name: Isoimperatorin
Class: Benzopyranoids
Formula: C16H14O4
Exact mass: 270.2876
SMILES: CC(C)=CCOc1c2ccoc2cc2oc(=O)ccc12
InChI: InChI=1S/C16H14O4/c1-10(2)5-7-19-16-11-3-4-15(17)20-14(11)9-13-12(16)6-8-18-13/h3-6,8-9H,7H2,1-2H3
Instrument: ABSciex API3200 LC/MS system
Instrument type: LC-ESI-QQQ
Ms type: MS
Ion mode: POSITIVE
Precursor type: [M+H]+
m/z	relative intensity
130.9000	21
131.2000	21
137.3000	28
141.9000	29
142.0000	68
142.1000	81
142.2000	107
142.3000	74
142.4000	87
142.5000	35
146.4000	29
146.5000	59
146.6000	70
146.7000	90
146.8000	101
146.9000	79
147.0000	95
147.1000	103
147.2000	85
147.3000	79
147.4000	64
158.9000	21
159.0000	21
174.4000	50
174.5000	75
174.6000	95
174.7000	91
174.8000	77
174.9000	71
175.0000	86
175.1000	71
175.2000	70
175.3000	36
175.4000	31
202.3000	179
202.4000	811
202.5000	951
202.6000	999
202.7000	986
202.8000	944
202.9000	967
203.0000	938
203.1000	935
203.2000	858
203.3000	863
203.4000	652
203.5000	329
203.6000	284
203.7000	280
203.8000	295
203.9000	290
204.0000	314
204.1000	294
204.2000	292
204.3000	244
204.4000	196
204.5000	67
204.6000	49
204.7000	35
204.8000	39
204.9000	49
205.0000	37
205.1000	27
205.2000	33
205.3000	35
214.6000	31
214.7000	32
214.8000	26
214.9000	22
215.0000	23
215.1000	22
228.9000	23
270.4000	274
270.5000	506
270.6000	632
270.7000	673
270.8000	669
270.9000	630
271.0000	709
271.1000	643
271.2000	656
271.3000	567
271.4000	469
271.5000	279
271.6000	239
271.7000	199
271.8000	209
271.9000	207
272.0000	202
272.1000	224
272.2000	202
272.3000	157
272.4000	128
272.5000	66
272.6000	40
272.7000	32
272.8000	37
272.9000	34
273.0000	26
273.2000	24
273.3000	25
287.4000	50
287.5000	81
287.6000	145
287.7000	174
287.8000	187
287.9000	180
288.0000	171
288.1000	163
288.2000	148
288.3000	140
288.4000	95
288.5000	59
288.6000	35
288.7000	25
288.8000	35
288.9000	25
289.0000	30
289.1000	39
289.2000	30
289.3000	34
311.6000	35
311.7000	33
311.8000	43
311.9000	35
312.0000	45
312.1000	55
312.2000	24
