Mass spectrum: Lappaconitine; LC-ESI-QQQ; MS; [M+H]+
Name: Lappaconitine
Class: Alkaloids
Formula: C32H44N2O8
Exact mass: 584.7161
SMILES: CCN1C[C@]2(OC(=O)c3ccccc3N=C(C)O)CCC(OC)C34C2CC([C@@H]13)[C@@]1(O)C[C@H](OC)[C@H]2CC4[C@]1(O)C2OC
InChI: InChI=1S/C32H44N2O8/c1-6-34-16-29(42-28(36)18-9-7-8-10-21(18)33-17(2)35)12-11-25(40-4)31-23(29)14-20(26(31)34)30(37)15-22(39-3)19-13-24(31)32(30,38)27(19)41-5/h7-10,19-20,22-27,37-38H,6,11-16H2,1-5H3,(H,33,35)/t19-,20?,22+,23?,24?,25?,26-,27?,29-,30+,31?,32+/m1/s1
Instrument: ABSciex API3200 LC/MS system
Instrument type: LC-ESI-QQQ
Ms type: MS
Ion mode: POSITIVE
Precursor type: [M+H]+
m/z	relative intensity
355.6000	23
355.7000	24
356.0000	22
503.2000	29
534.7000	36
534.8000	29
534.9000	31
535.0000	41
535.1000	70
535.2000	22
566.5000	24
566.8000	21
566.9000	26
584.3000	119
584.4000	335
584.5000	593
584.6000	873
584.7000	918
584.8000	928
584.9000	900
585.0000	948
585.1000	891
585.2000	910
585.3000	999
585.4000	823
585.5000	392
585.6000	441
585.7000	531
585.8000	539
585.9000	553
586.0000	553
586.1000	570
586.2000	529
586.3000	508
586.4000	388
586.5000	221
586.6000	185
586.7000	212
586.8000	211
586.9000	209
587.0000	227
587.1000	210
587.2000	204
587.3000	179
587.4000	144
587.5000	54
587.6000	47
587.7000	44
587.8000	37
587.9000	44
588.0000	42
588.1000	40
588.2000	42
588.3000	28
588.4000	36
