Mass spectrum: Amorphigenin; LC-ESI-QQQ; MS; [M+H]+
Name: Amorphigenin
Class: Flavonoids
Formula: C23H22O7
Exact mass: 410.4276
SMILES: C=C(CO)C1Cc2c(ccc3c2OC2COc4cc(OC)c(OC)cc4C2C3=O)O1
InChI: InChI=1S/C23H22O7/c1-11(9-24)16-7-14-15(29-16)5-4-12-22(25)21-13-6-18(26-2)19(27-3)8-17(13)28-10-20(21)30-23(12)14/h4-6,8,16,20-21,24H,1,7,9-10H2,2-3H3
Instrument: ABSciex API3200 LC/MS system
Instrument type: LC-ESI-QQQ
Ms type: MS
Ion mode: POSITIVE
Precursor type: [M+H]+
m/z	relative intensity
141.4000	29
141.5000	89
141.6000	105
141.7000	112
141.8000	101
141.9000	68
142.0000	66
142.1000	62
142.2000	52
142.3000	40
142.4000	25
178.6000	22
178.8000	22
178.9000	24
191.9000	23
192.0000	22
192.1000	23
228.6000	27
228.7000	21
410.2000	25
410.3000	134
410.4000	322
410.5000	505
410.6000	504
410.7000	554
410.8000	589
410.9000	557
411.0000	597
411.1000	999
411.2000	704
411.3000	362
411.4000	218
411.5000	160
411.6000	135
411.7000	129
411.8000	132
411.9000	132
412.0000	141
412.1000	162
412.2000	138
412.3000	124
412.4000	82
412.5000	52
412.6000	47
412.7000	44
412.8000	46
412.9000	35
413.0000	35
413.1000	44
413.2000	42
413.3000	39
413.4000	22
820.4000	49
820.5000	72
820.6000	94
820.7000	99
820.8000	102
820.9000	96
821.0000	93
821.1000	107
821.2000	77
821.3000	58
821.4000	36
821.5000	37
821.6000	50
821.7000	50
821.8000	55
821.9000	38
822.0000	49
822.1000	39
822.2000	29
822.3000	26
