Mass spectrum: Cycloheximide; LC-ESI-QQQ; MS2; Frag=135.0V CID@15.0; [M+H]+
Name: Cycloheximide
Class: Alkaloids
Formula: C15H23NO4
Exact mass: 281.162708
SMILES: C[C@H]1C[C@@H](C(=O)[C@@H](C1)[C@@H](CC2CC(=O)NC(=O)C2)O)C
InChI: InChI=1S/C15H23NO4/c1-8-3-9(2)15(20)11(4-8)12(17)5-10-6-13(18)16-14(19)7-10/h8-12,17H,3-7H2,1-2H3,(H,16,18,19)/t8-,9-,11-,12+/m0/s1
Instrument: Agilent 6410 Triple Quadrupole LC/MS system
Instrument type: LC-ESI-QQQ
Ms type: MS2
Ion mode: POSITIVE
Precursor type: [M+H]+
m/z	relative intensity
94.7	2
94.8	4
94.9	6
95.0	8
95.1	10
95.2	10
95.3	8
95.4	6
95.5	3
106.5	1
106.6	3
106.7	6
106.8	10
106.9	13
107.0	14
107.1	15
107.2	15
107.3	14
107.4	11
107.5	7
107.6	2
120.5	2
120.6	3
120.7	6
120.8	10
120.9	14
121.0	17
121.1	19
121.2	19
121.3	16
121.4	12
121.5	6
121.6	2
122.6	2
122.7	4
122.8	7
122.9	11
123.0	13
123.1	13
123.2	11
123.3	9
123.4	6
123.5	3
124.5	2
124.6	4
124.7	4
124.8	6
124.9	9
125.0	13
125.1	14
125.2	14
125.3	12
125.4	9
125.5	4
137.7	2
137.8	5
137.9	7
138.0	8
138.1	8
138.2	6
138.3	4
138.4	2
142.6	1
142.7	3
142.8	6
142.9	9
143.0	12
143.1	12
143.2	11
143.3	9
143.4	6
143.5	3
144.8	3
144.9	4
145.0	6
145.1	8
145.2	7
145.3	5
145.4	3
148.7	2
148.8	4
148.9	5
149.0	5
149.1	4
149.2	4
149.3	3
149.4	3
149.5	2
149.6	1
149.7	1
149.8	1
149.9	1
150.0	2
150.1	2
150.2	2
150.3	2
150.4	1
150.5	0
150.6	0
150.7	0
150.8	0
150.9	0
151.0	0
151.1	0
151.2	1
151.3	1
151.4	0
151.5	0
151.6	0
151.7	0
151.8	0
151.9	1
152.0	1
152.1	1
152.2	1
152.3	1
152.4	1
152.5	0
152.6	0
152.7	0
152.8	1
152.9	2
153.0	2
153.1	3
153.2	3
153.3	2
153.4	1
153.5	0
153.6	0
153.7	0
153.8	0
153.9	0
154.0	0
154.1	0
154.2	0
154.3	0
154.4	0
154.5	0
154.6	0
154.7	0
154.8	0
154.9	0
155.0	0
155.1	0
155.2	0
155.3	0
155.4	0
155.5	0
155.6	0
155.7	0
155.8	0
155.9	0
156.0	0
156.1	0
156.2	0
156.3	0
156.4	0
156.5	1
156.6	2
156.7	4
156.8	8
156.9	12
157.0	15
157.1	17
157.2	17
157.3	16
157.4	13
157.5	8
157.6	2
158.4	1
158.5	3
158.6	5
158.7	9
158.8	16
158.9	24
159.0	31
159.1	34
159.2	33
159.3	29
159.4	23
159.5	14
159.6	6
159.7	0
160.7	2
160.8	3
160.9	5
161.0	5
161.1	6
161.2	6
161.3	5
161.4	4
168.6	1
168.7	3
168.8	6
168.9	8
169.0	9
169.1	9
169.2	9
169.3	8
169.4	7
169.5	5
172.5	2
172.6	3
172.7	5
172.8	9
172.9	14
173.0	21
173.1	24
173.2	24
173.3	22
173.4	18
173.5	12
173.6	5
173.7	0
176.6	1
176.7	2
176.8	5
176.9	8
177.0	12
177.1	15
177.2	16
177.3	15
177.4	12
177.5	7
177.6	2
182.6	2
182.7	4
182.8	6
182.9	10
183.0	13
183.1	15
183.2	15
183.3	14
183.4	10
183.5	5
183.6	1
184.5	1
184.6	2
184.7	5
184.8	9
184.9	12
185.0	15
185.1	16
185.2	16
185.3	14
185.4	11
185.5	7
185.6	3
186.3	2
186.4	3
186.5	5
186.6	8
186.7	12
186.8	18
186.9	24
187.0	29
187.1	32
187.2	32
187.3	30
187.4	24
187.5	14
187.6	5
188.8	3
188.9	5
189.0	7
189.1	9
189.2	9
189.3	9
189.4	8
189.5	5
200.6	4
200.7	7
200.8	13
200.9	20
201.0	27
201.1	31
201.2	32
201.3	29
201.4	23
201.5	14
201.6	5
201.7	0
204.7	4
204.8	7
204.9	12
205.0	18
205.1	22
205.2	24
205.3	22
205.4	16
205.5	9
205.6	2
217.7	0
217.8	2
217.9	4
218.0	7
218.1	8
218.2	8
218.3	8
218.4	7
218.5	6
218.6	6
218.7	8
218.8	13
218.9	20
219.0	26
219.1	31
219.2	33
219.3	31
219.4	23
219.5	13
219.6	4
227.7	1
227.8	3
227.9	5
228.0	7
228.1	9
228.2	10
228.3	10
228.6	7
228.7	11
228.8	20
228.9	30
229.0	38
229.1	41
229.2	41
229.3	37
229.4	29
229.5	17
229.6	5
229.7	0
245.3	1
245.4	3
245.5	6
245.6	10
245.7	19
245.8	36
245.9	60
246.0	82
246.1	97
246.2	99
246.3	92
246.4	75
246.5	52
246.6	31
246.8	26
246.9	43
247.0	60
247.1	69
247.2	71
247.3	65
247.4	53
247.5	33
247.6	13
247.7	1
263.4	1
263.5	3
263.6	5
263.7	9
263.8	16
263.9	24
264.0	33
264.1	38
264.2	38
264.3	34
264.4	26
264.5	17
264.6	9
264.8	6
264.9	9
265.0	13
265.1	16
265.2	17
265.3	15
265.4	11
265.5	6
265.6	2
