Mass spectrum: Pseudojervine; LC-ESI-QQQ; MS; [M+H]+
Name: Pseudojervine
Class: Alkaloids
Formula: C33H49NO8
Exact mass: 587.7604
SMILES: CC1=C2C(=O)[C@H]3C(CC=C4CC(O[C@H]5O[C@H](CO)[C@@H](O)[C@H](O)[C@H]5O)CCC43C)[C@@H]2CC[C@]12OC1C[C@H](C)CN[C@H]1[C@H]2C
InChI: InChI=1S/C33H49NO8/c1-15-11-22-26(34-13-15)17(3)33(42-22)10-8-20-21-6-5-18-12-19(40-31-30(39)29(38)27(36)23(14-35)41-31)7-9-32(18,4)25(21)28(37)24(20)16(33)2/h5,15,17,19-23,25-27,29-31,34-36,38-39H,6-14H2,1-4H3/t15-,17+,19?,20-,21?,22?,23+,25+,26-,27+,29-,30+,31-,32?,33-/m0/s1
Instrument: ABSciex API3200 LC/MS system
Instrument type: LC-ESI-QQQ
Ms type: MS
Ion mode: POSITIVE
Precursor type: [M+H]+
m/z	relative intensity
587.3000	52
587.4000	344
587.5000	578
587.6000	853
587.7000	930
587.8000	955
587.9000	971
588.0000	988
588.1000	999
588.2000	993
588.3000	926
588.4000	840
588.5000	522
588.6000	432
588.7000	548
588.8000	573
588.9000	633
589.0000	591
589.1000	608
589.2000	623
589.3000	575
589.4000	507
589.5000	270
589.6000	185
589.7000	200
589.8000	224
589.9000	246
590.0000	257
590.1000	246
590.2000	257
590.3000	218
590.4000	178
590.5000	80
590.6000	43
590.7000	46
590.8000	50
590.9000	58
591.0000	50
591.1000	47
591.2000	45
591.3000	39
591.4000	28
628.5000	43
628.6000	140
628.7000	185
628.8000	211
628.9000	214
629.0000	216
629.1000	209
629.2000	204
629.3000	202
629.4000	171
629.5000	91
629.6000	69
629.7000	92
629.8000	135
629.9000	77
630.0000	83
630.1000	81
630.2000	88
630.3000	86
630.4000	71
630.5000	44
630.6000	27
630.7000	26
630.8000	32
630.9000	36
631.0000	29
631.1000	37
631.2000	39
631.3000	21
631.4000	22
