Mass spectrum: Centaurepensin; LC-ESI-QQQ; MS2; Frag=135.0V CID@15.0; [M+H]+
Name: Centaurepensin
Class: Terpenoids
Formula: C19H24Cl2O7
Exact mass: 435.3049
SMILES: C=C1C[C@H](OC(=O)C(C)(O)CCl)C2C(=C)C(=O)O[C@@H]2C2C1C[C@H](O)[C@]2(O)CCl
InChI: InChI=1S/C19H24Cl2O7/c1-8-4-11(27-17(24)18(3,25)6-20)13-9(2)16(23)28-15(13)14-10(8)5-12(22)19(14,26)7-21/h10-15,22,25-26H,1-2,4-7H2,3H3/t10?,11-,12-,13?,14?,15-,18?,19+/m0/s1
Instrument: Agilent 6410 Triple Quadrupole LC/MS system
Instrument type: LC-ESI-QQQ
Ms type: MS2
Ion mode: POSITIVE
Precursor type: [M+H]+
m/z	relative intensity
80.3	1
80.4	2
80.5	4
80.6	5
80.7	6
80.8	6
80.9	6
81.0	5
81.1	4
81.2	2
92.2	2
92.3	3
92.4	4
92.5	6
92.6	10
92.7	16
92.8	24
92.9	32
93.0	34
93.1	31
93.2	24
93.3	16
93.4	8
93.5	2
140.5	1
140.6	3
140.7	5
140.8	7
140.9	8
141.0	7
141.1	4
141.2	2
154.5	1
154.6	2
154.7	4
154.8	5
154.9	8
155.0	11
155.1	14
155.2	15
155.3	12
155.4	7
155.5	2
156.6	2
156.7	4
156.8	7
156.9	10
157.0	10
157.1	9
157.2	6
157.3	4
158.6	2
158.7	3
158.8	5
158.9	8
159.0	11
159.1	11
159.2	8
159.3	4
159.4	2
165.7	1
165.8	2
165.9	4
166.0	5
166.1	5
166.2	3
168.4	3
168.5	4
168.6	7
168.7	10
168.8	15
168.9	24
169.0	35
169.1	44
169.2	44
169.3	34
169.4	20
169.5	7
169.6	0
170.5	1
170.6	4
170.7	9
170.8	13
170.9	14
171.0	11
171.1	6
171.2	3
178.4	1
178.5	2
178.6	4
178.7	8
178.8	12
178.9	15
179.0	15
179.1	14
179.2	14
179.3	14
179.4	12
179.5	6
180.6	2
180.7	4
180.8	8
180.9	14
181.0	19
181.1	19
181.2	14
181.3	8
181.4	4
182.3	0
182.4	2
182.5	6
182.6	12
182.7	19
182.8	23
182.9	24
183.0	23
183.1	23
183.2	25
183.3	23
183.4	16
183.5	7
184.7	5
184.8	9
184.9	11
185.0	12
185.1	14
185.2	15
185.3	13
185.4	8
185.5	3
186.5	1
186.6	3
186.7	7
186.8	11
186.9	13
187.0	11
187.1	7
187.2	5
187.3	3
188.3	2
188.4	3
188.5	5
188.6	7
188.7	9
188.8	11
188.9	15
189.0	22
189.1	29
189.2	30
189.3	22
189.4	10
189.5	2
196.5	2
196.6	4
196.7	7
196.8	10
196.9	14
197.0	19
197.1	21
197.2	20
197.3	17
197.4	12
197.5	7
197.6	3
198.5	2
198.6	4
198.7	6
198.8	7
198.9	8
199.0	6
199.1	4
200.1	1
200.2	2
200.3	4
200.4	9
200.5	15
200.6	25
200.7	40
200.8	59
200.9	78
201.0	93
201.1	99
201.2	94
201.3	75
201.4	46
201.5	17
201.6	1
204.8	2
204.9	3
205.0	5
205.1	7
205.2	7
205.3	5
205.4	2
206.2	1
206.3	2
206.4	6
206.5	9
206.6	11
206.7	11
206.8	10
206.9	11
207.0	15
207.1	22
207.2	25
207.3	23
207.4	15
207.5	6
207.6	2
214.3	0
214.4	1
214.5	4
214.6	8
214.7	13
214.8	19
214.9	24
215.0	28
215.1	27
215.2	21
215.3	12
215.4	4
215.5	1
224.5	1
224.6	3
224.7	6
224.8	10
224.9	14
225.0	19
225.1	22
225.2	21
225.3	14
225.4	6
225.5	1
232.2	1
232.3	3
232.4	6
232.5	9
232.6	13
232.7	21
232.8	34
232.9	46
233.0	51
233.1	43
233.2	27
233.3	12
233.4	3
234.5	1
234.6	2
234.7	4
234.8	4
234.9	5
235.0	4
235.1	4
235.2	3
242.7	5
242.8	6
242.9	8
243.0	10
243.1	13
243.2	13
243.3	9
243.4	4
243.5	1
250.5	1
250.6	3
250.7	4
250.8	6
250.9	9
251.0	11
251.1	12
251.2	9
251.3	5
251.4	2
260.4	1
260.5	4
260.6	9
260.7	16
260.8	21
260.9	24
261.0	28
261.1	29
261.2	24
261.3	15
261.4	5
261.5	0
278.3	1
278.4	3
278.5	6
278.6	12
278.7	21
278.8	34
278.9	46
279.0	52
279.1	50
279.2	42
279.3	30
279.4	16
279.5	5
279.6	0
296.4	2
296.5	4
296.6	6
296.7	8
296.8	9
296.9	9
297.0	8
297.1	7
297.2	6
297.3	4
297.4	2
