Mass spectrum: Roemerine; LC-ESI-QQQ; MS2; Frag=135.0V CID@10.0; [M+H]+
Name: Remerin
Name: Aporheine
Name: Roemerine
Class: Alkaloids
Formula: C18H17NO2
Exact mass: 279.3417
SMILES: CN1CCc2cc3c(c4c2[C@H]1Cc1ccccc1-4)OCO3
InChI: InChI=1S/C18H17NO2/c1-19-7-6-12-9-15-18(21-10-20-15)17-13-5-3-2-4-11(13)8-14(19)16(12)17/h2-5,9,14H,6-8,10H2,1H3/t14-/m1/s1
Instrument: Agilent 6410 Triple Quadrupole LC/MS system
Instrument type: LC-ESI-QQQ
Ms type: MS2
Ion mode: POSITIVE
Precursor type: [M+H]+
m/z	relative intensity
218.8	2
218.9	3
219.0	4
219.1	5
219.2	5
219.3	4
219.4	3
248.3	1
248.4	3
248.5	7
248.6	13
248.7	25
248.8	44
248.9	68
249.0	89
249.1	99
249.2	99
249.3	90
249.4	72
249.5	45
249.6	18
249.7	0
279.4	0
279.5	2
279.6	4
279.7	8
279.8	15
279.9	25
280.0	35
280.1	43
280.2	46
280.3	44
280.4	36
280.5	23
280.6	9
280.7	0
