Mass spectrum: 1-Hydroxy-2-methoxyanthraquinone; LC-ESI-QQQ; MS; [M+H]+
Name: 1-Hydroxy-2-methoxyanthraquinone
Class: Polycyclic aromatic natural products
Formula: C15H10O4
Exact mass: 254.2446
SMILES: COc1ccc2c(c1O)C(=O)c1ccccc1C2=O
InChI: InChI=1S/C15H10O4/c1-19-11-7-6-10-12(15(11)18)14(17)9-5-3-2-4-8(9)13(10)16/h2-7,18H,1H3
Instrument: ABSciex API3200 LC/MS system
Instrument type: LC-ESI-QQQ
Ms type: MS
Ion mode: POSITIVE
Precursor type: [M+H]+
m/z	relative intensity
100.0000	75
100.1000	234
100.2000	32
101.9000	48
102.0000	65
102.1000	97
102.2000	198
102.3000	204
102.4000	108
102.5000	89
104.9000	23
106.7000	32
110.5000	65
110.6000	23
110.9000	28
111.0000	81
111.3000	24
113.5000	21
113.7000	42
114.2000	21
116.7000	33
117.2000	60
117.7000	28
117.8000	69
117.9000	35
118.0000	45
118.1000	41
118.2000	30
118.6000	87
118.7000	441
118.8000	505
118.9000	610
119.0000	493
119.1000	387
119.2000	457
119.3000	279
119.4000	113
119.5000	34
119.6000	30
119.8000	40
120.6000	32
120.9000	22
121.5000	22
123.1000	28
125.4000	31
126.6000	22
127.3000	31
127.4000	24
128.5000	28
128.6000	161
128.7000	22
128.8000	59
128.9000	55
129.0000	142
129.1000	97
129.2000	23
129.3000	41
130.5000	58
135.1000	24
135.2000	272
135.3000	64
141.8000	348
141.9000	461
142.0000	528
142.1000	580
142.2000	470
142.3000	496
142.4000	331
142.5000	53
142.6000	64
144.5000	22
148.4000	84
148.6000	99
148.9000	143
149.1000	166
149.6000	45
149.8000	34
150.2000	29
150.4000	22
150.5000	32
157.6000	24
167.0000	21
167.2000	36
177.2000	35
180.4000	23
180.6000	47
181.0000	35
181.3000	34
183.0000	23
186.8000	36
189.0000	22
194.9000	31
195.1000	30
195.2000	21
196.1000	29
197.9000	82
198.9000	27
208.7000	38
208.9000	32
209.0000	34
209.2000	23
210.3000	32
211.4000	24
211.5000	25
211.6000	37
211.8000	39
212.2000	22
212.3000	23
215.4000	27
215.6000	21
216.8000	31
216.9000	41
217.1000	21
217.2000	38
217.3000	37
217.4000	28
217.5000	46
218.0000	32
220.3000	22
220.8000	36
220.9000	34
222.0000	32
222.4000	30
224.5000	21
225.4000	25
225.5000	21
226.4000	21
238.6000	43
238.7000	58
238.9000	47
239.0000	47
239.3000	109
239.4000	56
239.5000	72
239.6000	50
239.7000	55
239.8000	98
239.9000	91
240.0000	85
240.1000	83
240.2000	40
240.3000	58
240.4000	98
240.6000	26
254.1000	29
254.3000	150
254.4000	522
254.5000	761
254.6000	794
254.7000	871
254.8000	999
254.9000	770
255.0000	697
255.1000	677
255.2000	780
255.3000	615
255.4000	553
255.5000	243
255.6000	176
255.7000	170
255.8000	122
255.9000	110
256.0000	138
256.1000	134
256.2000	136
256.3000	95
256.4000	90
256.5000	32
256.6000	24
256.7000	31
257.1000	29
257.3000	22
261.4000	25
278.6000	23
278.8000	33
279.1000	37
284.8000	23
294.6000	37
294.9000	27
295.2000	29
295.3000	25
295.8000	21
296.9000	22
310.5000	25
311.0000	29
327.1000	49
330.7000	21
349.5000	30
368.8000	25
371.2000	24
390.5000	32
390.8000	46
390.9000	169
391.0000	160
391.2000	27
432.4000	29
434.1000	24
532.8000	24
533.0000	28
533.6000	24
