Mass spectrum: Tanshinone II; LC-ESI-QQQ; MS; [M+H]+
Name: Tanshinone II
Class: Terpenoids
Formula: C19H18O3
Exact mass: 294.3535
SMILES: Cc1coc2c1C(=O)C(=O)c1c-2ccc2c1CCCC2(C)C
InChI: InChI=1S/C19H18O3/c1-10-9-22-18-12-6-7-13-11(5-4-8-19(13,2)3)15(12)17(21)16(20)14(10)18/h6-7,9H,4-5,8H2,1-3H3
Instrument: ABSciex API3200 LC/MS system
Instrument type: LC-ESI-QQQ
Ms type: MS
Ion mode: POSITIVE
Precursor type: [M+H]+
m/z	relative intensity
234.5000	26
234.6000	34
234.7000	29
234.8000	38
234.9000	32
235.0000	31
235.1000	26
235.2000	27
235.3000	23
248.4000	21
248.5000	50
248.6000	98
248.7000	95
248.8000	109
248.9000	100
249.0000	90
249.1000	81
249.2000	81
249.3000	79
249.4000	72
249.5000	33
251.5000	32
251.6000	31
251.7000	21
251.8000	25
251.9000	28
252.0000	32
252.1000	31
252.2000	52
252.3000	65
252.4000	24
252.8000	23
262.0000	21
262.3000	21
262.4000	32
265.5000	91
265.6000	52
276.4000	72
276.5000	126
276.6000	155
276.7000	148
276.8000	144
276.9000	160
277.0000	151
277.1000	156
277.2000	142
277.3000	126
277.4000	107
277.5000	40
277.6000	34
277.7000	40
277.8000	27
277.9000	36
278.0000	34
278.1000	33
278.2000	36
278.3000	25
280.1000	21
280.3000	34
280.4000	23
294.3000	68
294.4000	399
294.5000	636
294.6000	811
294.7000	810
294.8000	868
294.9000	850
295.0000	837
295.1000	887
295.2000	999
295.3000	658
295.4000	556
295.5000	356
295.6000	278
295.7000	292
295.8000	295
295.9000	284
296.0000	257
296.1000	340
296.2000	542
296.3000	167
296.4000	137
296.5000	62
296.6000	41
296.7000	27
296.8000	28
296.9000	26
297.0000	25
297.1000	35
297.2000	26
297.3000	26
297.4000	21
311.5000	31
311.6000	36
311.7000	34
311.8000	40
311.9000	44
312.0000	34
312.1000	37
312.2000	27
312.3000	28
312.4000	59
312.5000	35
