Mass spectrum: Rotenone; LC-ESI-QQQ; MS2; Frag=135.0V CID@5.0; [M+H]+
Name: Rotenone
Class: Flavonoids
Formula: C23H22O6
Exact mass: 394.4282
SMILES: CC(=C)[C@H]1CC2=C(O1)C=CC3=C2O[C@@H]4COC5=CC(=C(C=C5[C@@H]4C3=O)OC)OC
InChI: InChI=1S/C23H22O6/c1-11(2)16-8-14-15(28-16)6-5-12-22(24)21-13-7-18(25-3)19(26-4)9-17(13)27-10-20(21)29-23(12)14/h5-7,9,16,20-21H,1,8,10H2,2-4H3/t16-,20-,21+/m1/s1
Instrument: Agilent 6410 Triple Quadrupole LC/MS system
Instrument type: LC-ESI-QQQ
Ms type: MS2
Ion mode: POSITIVE
Precursor type: [M+H]+
m/z	relative intensity
394.2	0
394.3	1
394.4	4
394.5	7
394.6	13
394.7	24
394.8	41
394.9	62
395.0	83
395.1	97
395.2	99
395.3	88
395.4	65
395.5	36
395.6	12
395.7	0
