Mass spectrum: Hydrocortisone acetate; LC-ESI-QQQ; MS2; Frag=135.0V CID@10.0; [M+H]+
Name: Hydrocortisone acetate
Class: Steroids
Formula: C23H32O6
Exact mass: 404.5079
SMILES: CC(=O)OCC(=O)[C@@]1(O)CCC2C3CCC4=CC(=O)CC[C@]4(C)C3C(O)C[C@@]21C
InChI: InChI=1S/C23H32O6/c1-13(24)29-12-19(27)23(28)9-7-17-16-5-4-14-10-15(25)6-8-21(14,2)20(16)18(26)11-22(17,23)3/h10,16-18,20,26,28H,4-9,11-12H2,1-3H3/t16?,17?,18?,20?,21-,22-,23-/m0/s1
Instrument: Agilent 6410 Triple Quadrupole LC/MS system
Instrument type: LC-ESI-QQQ
Ms type: MS2
Ion mode: POSITIVE
Precursor type: [M+H]+
m/z	relative intensity
308.6	2
308.7	3
308.8	5
308.9	9
309.0	14
309.1	18
309.2	19
309.3	18
309.4	14
309.5	9
309.6	4
326.6	1
326.7	2
326.8	5
326.9	9
327.0	14
327.1	18
327.2	20
327.3	20
327.4	17
327.5	11
327.6	5
327.7	0
404.3	1
404.4	2
404.5	5
404.6	8
404.7	14
404.8	25
404.9	45
405.0	68
405.1	89
405.2	99
405.3	98
405.4	85
405.5	61
405.6	32
405.7	9
405.8	0
