Mass spectrum: Quinine; LC-ESI-QQQ; MS2; Frag=135.0V CID@5.0; [M+H]+
Name: Quinine
Class: Alkaloids
Formula: C20H24N2O2
Exact mass: 324.4265
SMILES: C=CC1CN2CCC1CC2[C@H](O)c1ccnc2ccc(OC)cc12
InChI: InChI=1S/C20H24N2O2/c1-3-13-12-22-9-7-14(13)10-19(22)20(23)16-6-8-21-18-5-4-15(24-2)11-17(16)18/h3-6,8,11,13-14,19-20,23H,1,7,9-10,12H2,2H3/t13?,14?,19?,20-/m1/s1
Instrument: Agilent 6410 Triple Quadrupole LC/MS system
Instrument type: LC-ESI-QQQ
Ms type: MS2
Ion mode: POSITIVE
Precursor type: [M+H]+
m/z	relative intensity
324.3	0
324.4	1
324.5	4
324.6	9
324.7	17
324.8	31
324.9	51
325.0	73
325.1	91
325.2	99
325.3	98
325.4	87
325.5	65
325.6	36
325.7	10
325.8	0
