Mass spectrum: Cyclo(phenylalanylleucyl),  (3S,6S)-form; LC-ESI-QQQ; MS2; Frag=135.0V CID@25.0; [M+H]+
Name: Cyclo(phenylalanylleucyl),  (3S,6S)-form
Class: Aminoacids and peptides
Formula: C15H20N2O2
Exact mass: 260.3389
SMILES: CC(C)C[C@@H]1N=C(O)[C@H](Cc2ccccc2)N=C1O
InChI: InChI=1S/C15H20N2O2/c1-10(2)8-12-14(18)17-13(15(19)16-12)9-11-6-4-3-5-7-11/h3-7,10,12-13H,8-9H2,1-2H3,(H,16,19)(H,17,18)/t12-,13-/m0/s1
Instrument: Agilent 6410 Triple Quadrupole LC/MS system
Instrument type: LC-ESI-QQQ
Ms type: MS2
Ion mode: POSITIVE
Precursor type: [M+H]+
m/z	relative intensity
71.5	1
71.6	2
71.7	4
71.8	6
71.9	8
72.0	9
72.1	9
72.2	7
72.3	4
72.4	1
85.5	3
85.6	5
85.7	8
85.8	13
85.9	19
86.0	24
86.1	25
86.2	23
86.3	19
86.4	14
86.5	7
86.6	2
90.6	1
90.7	3
90.8	4
90.9	6
91.0	6
91.1	6
91.2	5
91.3	3
102.6	2
102.7	4
102.8	5
102.9	6
103.0	5
103.1	5
103.2	4
103.3	3
104.5	2
104.6	3
104.7	5
104.8	8
104.9	10
105.0	12
105.1	13
105.2	13
105.3	11
105.4	6
105.5	2
112.6	1
112.7	3
112.8	4
112.9	5
113.0	6
113.1	5
113.2	4
113.3	3
113.4	3
113.5	3
113.6	4
113.7	6
113.8	7
113.9	8
114.0	9
114.1	9
114.2	9
114.3	8
114.4	5
114.5	2
119.2	1
119.3	3
119.4	5
119.5	10
119.6	19
119.7	36
119.8	59
119.9	81
120.0	95
120.1	99
120.2	95
120.3	80
120.4	56
120.5	27
120.6	5
120.7	0
131.7	2
131.8	3
131.9	5
132.0	7
132.1	8
132.2	8
132.3	7
132.4	4
132.5	1
187.6	2
187.7	3
187.8	6
187.9	9
188.0	11
188.1	13
188.2	12
188.3	10
188.4	6
188.5	3
