Mass spectrum: 14,15-Epoxysclareol; LC-ESI-QQQ; MS2; Frag=135.0V CID@25.0; [M+Na]+
Name: 14,15-Epoxysclareol
Class: Terpenoids
Formula: C20H36O3
Exact mass: 324.5081
SMILES: CC1(C)CCC[C@@]2(C)[C@H]1CC[C@@](C)(O)[C@@H]2CC[C@](C)(O)C1CO1
InChI: InChI=1S/C20H36O3/c1-17(2)9-6-10-18(3)14(17)7-11-19(4,21)15(18)8-12-20(5,22)16-13-23-16/h14-16,21-22H,6-13H2,1-5H3/t14-,15+,16?,18-,19+,20-/m0/s1
Instrument: Agilent 6410 Triple Quadrupole LC/MS system
Instrument type: LC-ESI-QQQ
Ms type: MS2
Ion mode: POSITIVE
Precursor type: [M+Na]+
m/z	relative intensity
346.3	1
346.4	2
346.5	4
346.6	8
346.7	16
346.8	25
346.9	35
347.0	47
347.1	63
347.2	83
347.3	98
347.4	99
347.5	80
347.6	46
347.7	13
347.8	0
