Mass spectrum: cyclo(methionylpropyl); LC-ESI-QQQ; MS2; Frag=135.0V CID@25.0; [M+H]+
Name: cyclo(methionylpropyl)
Class: -
Formula: C10H16N2O2S
Exact mass: 228.3152
SMILES: CSCC[C@@H]1N=C(O)[C@@H]2CCCN2C1=O
InChI: InChI=1S/C10H16N2O2S/c1-15-6-4-7-10(14)12-5-2-3-8(12)9(13)11-7/h7-8H,2-6H2,1H3,(H,11,13)/t7-,8-/m0/s1
Instrument: Agilent 6410 Triple Quadrupole LC/MS system
Instrument type: LC-ESI-QQQ
Ms type: MS2
Ion mode: POSITIVE
Precursor type: [M+H]+
m/z	relative intensity
69.3	1
69.4	3
69.5	5
69.6	10
69.7	16
69.8	25
69.9	32
70.0	36
70.1	36
70.2	32
70.3	26
70.4	18
70.5	9
70.6	2
83.4	1
83.5	2
83.6	4
83.7	6
83.8	8
83.9	10
84.0	13
84.1	16
84.2	18
84.3	15
84.4	10
84.5	5
84.6	1
124.3	1
124.4	3
124.5	8
124.6	15
124.7	25
124.8	39
124.9	54
125.0	66
125.1	71
125.2	66
125.3	54
125.4	36
125.5	17
125.6	4
152.6	1
152.7	3
152.8	6
152.9	11
153.0	16
153.1	17
153.2	16
153.3	13
153.4	11
153.5	7
153.6	2
180.3	1
180.4	4
180.5	9
180.6	17
180.7	29
180.8	47
180.9	68
181.0	86
181.1	97
181.2	99
181.3	95
181.4	78
181.5	49
181.6	18
181.7	0
