Mass spectrum: 1alpha-Hydroxy-1-desoxotamirin; LC-ESI-QQQ; MS2; Frag=135.0V CID@15.0; [M+H]+
Name: 1alpha-Hydroxy-1-desoxotamirin
Class: Terpenoids
Formula: C15H20O4
Exact mass: 264.3243
SMILES: C=C1C(=O)O[C@H]2CC(=C)[C@@H](O)CC/C(C)=C/[C@@H](O)C12
InChI: InChI=1S/C15H20O4/c1-8-4-5-11(16)9(2)7-13-14(12(17)6-8)10(3)15(18)19-13/h6,11-14,16-17H,2-5,7H2,1H3/b8-6+/t11-,12+,13-,14?/m0/s1
Instrument: Agilent 6410 Triple Quadrupole LC/MS system
Instrument type: LC-ESI-QQQ
Ms type: MS2
Ion mode: POSITIVE
Precursor type: [M+H]+
m/z	relative intensity
66.6	1
66.7	2
66.8	5
66.9	6
67.0	6
67.1	6
67.2	7
67.3	8
67.4	7
67.5	4
80.4	3
80.5	4
80.6	9
80.7	22
80.8	39
80.9	53
81.0	60
81.1	59
81.2	55
81.3	49
81.4	36
81.5	19
81.6	5
90.4	1
90.5	3
90.6	6
90.7	10
90.8	18
90.9	26
91.0	31
91.1	29
91.2	21
91.3	11
91.4	4
92.3	0
92.4	2
92.5	7
92.6	14
92.7	21
92.8	25
92.9	27
93.0	28
93.1	30
93.2	29
93.3	21
93.4	11
93.5	2
94.3	0
94.4	1
94.5	5
94.6	10
94.7	13
94.8	13
94.9	15
95.0	20
95.1	25
95.2	26
95.3	19
95.4	10
95.5	3
96.8	4
96.9	7
97.0	11
97.1	14
97.2	12
97.3	8
97.4	3
104.2	1
104.3	2
104.4	5
104.5	8
104.6	10
104.7	15
104.8	23
104.9	32
105.0	34
105.1	30
105.2	24
105.3	20
105.4	16
105.5	8
105.6	2
106.4	1
106.5	3
106.6	7
106.7	16
106.8	27
106.9	34
107.0	35
107.1	33
107.2	31
107.3	28
107.4	21
107.5	11
107.6	3
108.5	2
108.6	4
108.7	8
108.8	11
108.9	13
109.0	12
109.1	9
109.2	6
109.3	4
116.5	3
116.6	5
116.7	8
116.8	10
116.9	8
118.4	1
118.5	3
118.6	6
118.7	7
118.8	7
118.9	7
119.0	7
119.1	8
119.2	9
119.3	7
119.4	4
120.6	3
120.7	4
120.8	6
120.9	9
121.0	10
121.1	9
121.2	8
121.3	7
121.4	5
121.5	2
122.2	1
122.3	3
122.4	6
122.5	10
122.6	15
122.7	19
122.8	22
122.9	23
123.0	24
123.1	28
123.2	32
123.3	33
123.4	25
123.5	13
123.6	2
128.7	2
128.8	5
128.9	7
129.0	8
129.1	5
129.2	2
130.4	1
130.5	2
130.6	7
130.7	15
130.8	22
130.9	24
131.0	20
131.1	16
131.2	13
131.3	10
131.4	5
131.5	2
132.0	0
132.1	2
132.2	5
132.3	8
132.4	9
132.5	10
132.6	12
132.7	20
132.8	38
132.9	64
133.0	89
133.1	99
133.2	92
133.3	74
133.4	52
133.5	31
133.6	11
133.7	1
140.6	1
140.7	3
140.8	6
140.9	9
141.0	9
141.1	8
141.2	6
141.3	4
142.0	2
142.1	4
142.2	5
142.3	6
142.4	5
142.5	4
142.6	9
142.7	19
142.8	30
142.9	35
143.0	32
143.1	25
143.2	25
143.3	28
143.4	25
143.5	15
143.6	3
144.4	0
144.5	2
144.6	7
144.7	13
144.8	17
144.9	17
145.0	15
145.1	12
145.2	9
145.3	7
145.4	5
145.5	4
148.5	1
148.6	3
148.7	5
148.8	6
148.9	5
149.0	4
149.1	3
149.2	2
149.3	2
149.4	2
149.5	2
149.6	1
149.7	0
149.8	0
149.9	0
150.0	0
150.1	0
150.2	0
150.3	1
150.4	1
150.5	3
150.6	4
150.7	5
150.8	8
150.9	15
151.0	26
151.1	36
151.2	41
151.3	36
151.4	24
151.5	10
151.6	1
154.6	2
154.7	4
154.8	8
154.9	11
155.0	13
155.1	13
155.2	14
155.3	13
155.4	10
155.5	5
155.6	1
156.5	1
156.6	4
156.7	9
156.8	15
156.9	18
157.0	15
157.1	12
157.2	13
157.3	16
157.4	15
157.5	9
157.6	2
158.7	2
158.8	4
158.9	7
159.0	10
159.1	12
159.2	12
159.3	9
159.4	6
159.5	3
167.6	3
167.7	4
167.8	8
167.9	11
168.0	12
168.1	10
168.2	7
168.3	5
172.4	2
172.5	6
172.6	12
172.7	18
172.8	22
172.9	27
173.0	34
173.1	41
173.2	41
173.3	35
173.4	24
173.5	12
173.6	3
182.3	1
182.4	3
182.5	5
182.6	9
182.7	15
182.8	27
182.9	42
183.0	55
183.1	65
183.2	69
183.3	65
183.4	49
183.5	27
183.6	7
183.7	0
186.5	1
186.6	5
186.7	8
186.8	10
186.9	8
188.6	1
188.7	3
188.8	5
188.9	5
189.0	4
189.1	3
189.2	3
189.3	3
189.4	4
189.5	3
189.6	1
189.7	0
189.8	0
189.9	0
190.0	0
190.1	0
190.2	0
190.3	0
190.4	0
190.5	0
190.6	0
190.7	1
190.8	3
190.9	4
191.0	5
191.1	4
191.2	3
192.6	2
192.7	5
192.8	8
192.9	10
193.0	9
193.1	6
193.2	3
195.8	2
195.9	3
196.0	5
196.1	6
196.2	6
196.3	6
196.4	4
196.5	2
200.2	0
200.3	2
200.4	5
200.5	10
200.6	17
200.7	25
200.8	37
200.9	49
201.0	56
201.1	51
201.2	41
201.3	33
201.4	28
201.5	20
201.6	9
201.7	1
210.4	1
210.5	2
210.6	5
210.7	7
210.8	10
210.9	11
211.0	12
211.1	9
211.2	6
211.3	3
218.6	2
218.7	4
218.8	7
218.9	10
219.0	13
219.1	15
219.2	13
219.3	9
219.4	4
228.5	3
228.6	4
228.7	6
228.8	13
228.9	23
229.0	32
229.1	33
229.2	30
229.3	27
229.4	21
229.5	13
229.6	4
