Mass spectrum: Benzylpenicillin; LC-ESI-QQQ; MS; [M+H]+
Name: Benzylpenicillin
Class: Aminoacids and peptides
Formula: C16H18N2O4S
Exact mass: 334.3969
SMILES: CC1(C)S[C@@H]2[C@H](N=C(O)Cc3ccccc3)C(=O)N2C1C(=O)O
InChI: InChI=1S/C16H18N2O4S/c1-16(2)12(15(21)22)18-13(20)11(14(18)23-16)17-10(19)8-9-6-4-3-5-7-9/h3-7,11-12,14H,8H2,1-2H3,(H,17,19)(H,21,22)/t11-,12?,14-/m1/s1
Instrument: ABSciex API3200 LC/MS system
Instrument type: LC-ESI-QQQ
Ms type: MS
Ion mode: POSITIVE
Precursor type: [M+H]+
m/z	relative intensity
113.4000	39
113.5000	53
113.6000	89
113.7000	98
113.8000	86
113.9000	101
114.0000	100
114.1000	104
114.2000	85
114.3000	75
114.4000	64
141.8000	44
141.9000	65
142.0000	65
142.1000	57
142.2000	36
142.3000	36
159.3000	39
159.4000	481
159.5000	746
159.6000	971
159.7000	984
159.8000	999
159.9000	915
160.0000	899
160.1000	885
160.2000	852
160.3000	713
160.4000	593
160.5000	219
160.6000	113
160.7000	89
160.8000	93
160.9000	93
161.0000	93
161.1000	83
161.2000	87
161.3000	84
161.4000	87
161.5000	60
161.6000	62
161.7000	61
161.8000	64
161.9000	52
162.0000	64
162.1000	52
162.2000	51
162.3000	43
162.4000	39
175.4000	136
175.5000	425
175.6000	529
175.7000	480
175.8000	585
175.9000	575
176.0000	525
176.1000	583
176.2000	520
176.3000	407
176.4000	333
176.5000	140
176.6000	86
176.7000	82
176.8000	69
176.9000	78
177.0000	69
177.1000	61
177.2000	77
177.3000	55
177.4000	44
306.5000	23
306.6000	21
306.7000	26
306.8000	27
306.9000	26
307.0000	21
307.1000	30
307.2000	31
307.3000	23
334.3000	103
334.4000	312
334.5000	468
334.6000	628
334.7000	502
334.8000	494
334.9000	502
335.0000	501
335.1000	457
335.2000	646
335.3000	414
335.4000	195
335.5000	120
335.6000	110
335.7000	105
335.8000	108
335.9000	107
336.0000	116
336.1000	100
336.2000	92
336.3000	97
336.4000	63
336.5000	64
336.6000	49
336.7000	45
336.8000	53
336.9000	45
337.0000	45
337.1000	42
337.2000	38
337.3000	33
351.4000	32
351.5000	72
351.6000	100
351.7000	130
351.8000	120
351.9000	133
352.0000	122
352.1000	125
352.2000	103
352.3000	93
352.4000	74
352.5000	29
352.6000	32
352.7000	28
352.8000	23
352.9000	23
353.0000	34
353.1000	27
353.2000	23
353.3000	24
353.4000	22
493.4000	50
493.5000	84
493.6000	141
493.7000	155
493.8000	116
493.9000	118
494.0000	115
494.1000	104
494.2000	89
494.3000	73
494.4000	32
494.5000	30
494.6000	36
494.7000	25
494.8000	23
494.9000	31
495.0000	31
495.1000	31
495.2000	24
495.8000	24
495.9000	23
496.0000	21
509.5000	39
509.6000	72
509.7000	92
509.8000	79
509.9000	86
510.0000	87
510.1000	73
510.2000	86
510.3000	63
510.4000	22
510.6000	25
510.7000	26
510.8000	22
510.9000	26
511.0000	25
511.1000	21
668.3000	35
668.4000	107
668.5000	148
668.6000	174
668.7000	168
668.8000	179
668.9000	195
669.0000	177
669.1000	165
669.2000	142
669.3000	68
669.4000	63
669.5000	63
669.6000	64
669.7000	68
669.8000	74
669.9000	68
670.0000	69
670.1000	65
670.2000	53
670.3000	33
670.4000	26
670.5000	31
670.6000	28
670.7000	29
670.8000	41
670.9000	38
671.0000	53
671.1000	39
671.2000	22
685.4000	22
685.5000	42
685.6000	51
685.7000	59
685.8000	55
685.9000	59
686.0000	61
686.1000	52
686.2000	47
686.3000	27
686.6000	21
686.7000	25
686.8000	26
686.9000	24
687.0000	24
687.1000	26
