Mass spectrum: Bicuculline; LC-ESI-QQQ; MS; [M+H]+
Name: Bicuculline
Class: Alkaloids
Formula: C20H17NO6
Exact mass: 367.3616
SMILES: CN1CCc2cc3c(cc2[C@H]1[C@@H]1OC(=O)c2c1ccc1c2OCO1)OCO3
InChI: InChI=1S/C20H17NO6/c1-21-5-4-10-6-14-15(25-8-24-14)7-12(10)17(21)18-11-2-3-13-19(26-9-23-13)16(11)20(22)27-18/h2-3,6-7,17-18H,4-5,8-9H2,1H3/t17-,18+/m0/s1
Instrument: ABSciex API3200 LC/MS system
Instrument type: LC-ESI-QQQ
Ms type: MS
Ion mode: POSITIVE
Precursor type: [M+H]+
m/z	relative intensity
149.1000	21
189.4000	53
189.5000	110
189.6000	134
189.7000	154
189.8000	148
189.9000	129
190.0000	140
190.1000	125
190.2000	146
190.3000	119
190.4000	107
190.5000	49
190.6000	32
190.7000	31
190.8000	21
190.9000	29
191.0000	28
191.1000	28
191.2000	26
191.3000	29
191.4000	21
248.5000	38
248.6000	42
248.7000	53
248.8000	47
248.9000	41
249.0000	37
249.1000	45
249.2000	42
249.3000	33
249.4000	22
261.0000	25
276.3000	31
276.4000	68
276.5000	110
276.6000	122
276.7000	126
276.8000	127
276.9000	121
277.0000	120
277.1000	114
277.2000	99
277.3000	87
277.4000	39
277.5000	34
277.6000	23
277.9000	25
278.0000	23
278.1000	27
278.2000	26
278.5000	21
278.6000	27
278.7000	33
278.8000	31
278.9000	38
279.0000	50
279.1000	34
279.2000	33
279.3000	25
288.6000	21
288.7000	26
288.8000	27
288.9000	30
289.0000	26
289.1000	29
289.2000	24
289.3000	24
306.3000	49
306.4000	211
306.5000	367
306.6000	453
306.7000	478
306.8000	566
306.9000	458
307.0000	460
307.1000	435
307.2000	375
307.3000	357
307.4000	203
307.5000	156
307.6000	161
307.7000	99
307.8000	112
307.9000	99
308.0000	112
308.1000	118
308.2000	102
308.3000	94
308.4000	43
308.5000	32
308.6000	26
308.7000	24
308.8000	25
309.0000	23
309.1000	27
318.4000	38
318.5000	55
318.6000	62
318.7000	70
318.8000	75
318.9000	77
319.0000	78
319.1000	71
319.2000	58
319.3000	55
319.4000	29
319.5000	23
319.6000	23
324.5000	25
324.6000	26
324.7000	34
324.8000	25
324.9000	31
325.0000	31
325.1000	27
325.2000	24
337.1000	23
367.3000	170
367.4000	492
367.5000	789
367.6000	866
367.7000	884
367.8000	893
367.9000	999
368.0000	826
368.1000	802
368.2000	773
368.3000	677
368.4000	496
368.5000	328
368.6000	304
368.7000	316
368.8000	313
368.9000	325
369.0000	331
369.1000	381
369.2000	261
369.3000	242
369.4000	176
369.5000	85
369.6000	72
369.7000	73
369.8000	59
369.9000	60
370.0000	68
370.1000	61
370.2000	64
370.3000	53
370.4000	29
