Mass spectrum: Conferone; LC-ESI-QQQ; MS2; Frag=135.0V CID@15.0; [M+H]+
Name: Conferone
Class: Benzopyranoids
Formula: C24H28O4
Exact mass: 380.4884
SMILES: CC1=CCC2C(C)(C)C(=O)CC[C@]2(C)[C@@H]1COc1ccc2ccc(=O)oc2c1
InChI: InChI=1S/C24H28O4/c1-15-5-9-20-23(2,3)21(25)11-12-24(20,4)18(15)14-27-17-8-6-16-7-10-22(26)28-19(16)13-17/h5-8,10,13,18,20H,9,11-12,14H2,1-4H3/t18-,20?,24-/m1/s1
Instrument: Agilent 6410 Triple Quadrupole LC/MS system
Instrument type: LC-ESI-QQQ
Ms type: MS2
Ion mode: POSITIVE
Precursor type: [M+H]+
m/z	relative intensity
92.7	1
92.8	3
92.9	5
93.0	5
93.1	4
93.2	3
93.3	2
94.6	1
94.7	3
94.8	5
94.9	7
95.0	8
95.1	9
95.2	8
95.3	5
95.4	3
106.5	1
106.6	3
106.7	3
106.8	4
106.9	6
107.0	8
107.1	9
107.2	9
107.3	7
107.4	4
107.5	1
108.6	1
108.7	2
108.8	5
108.9	7
109.0	9
109.1	10
109.2	9
109.3	8
109.4	6
109.5	3
109.6	1
118.6	1
118.7	2
118.8	5
118.9	7
119.0	9
119.1	9
119.2	7
119.3	4
119.4	2
120.7	2
120.8	3
120.9	5
121.0	6
121.1	7
121.2	7
121.3	5
121.4	2
132.6	1
132.7	3
132.8	6
132.9	8
133.0	9
133.1	11
133.2	12
133.3	11
133.4	8
133.5	3
134.6	2
134.7	3
134.8	4
134.9	5
135.0	6
135.1	7
135.2	8
135.3	7
135.4	5
135.5	3
144.5	1
144.6	3
144.7	6
144.8	10
144.9	12
145.0	14
145.1	14
145.2	14
145.3	13
145.4	12
145.5	8
145.6	3
146.8	2
146.9	4
147.0	5
147.1	6
147.2	5
147.3	3
147.4	1
158.4	1
158.5	2
158.6	3
158.7	6
158.8	9
158.9	13
159.0	16
159.1	16
159.2	15
159.3	12
159.4	9
159.5	6
159.6	2
160.5	1
160.6	2
160.7	4
160.8	8
160.9	15
161.0	20
161.1	22
161.2	22
161.3	21
161.4	19
161.5	13
161.6	6
161.7	1
162.1	0
162.2	1
162.3	3
162.4	7
162.5	15
162.6	25
162.7	39
162.8	56
162.9	76
163.0	92
163.1	99
163.2	96
163.3	81
163.4	55
163.5	26
163.6	5
163.7	0
172.7	1
172.8	3
172.9	4
173.0	5
173.1	5
173.2	6
173.3	8
173.4	8
173.5	6
173.6	3
174.7	1
174.8	3
174.9	5
175.0	8
175.1	10
175.2	10
175.3	7
175.4	4
175.5	1
190.8	1
190.9	3
191.0	4
191.1	5
191.2	5
191.3	4
191.4	2
200.4	1
200.5	3
200.6	5
200.7	9
200.8	16
200.9	23
201.0	31
201.1	37
201.2	40
201.3	39
201.4	34
201.5	24
201.6	12
201.7	3
218.7	1
218.8	2
218.9	5
219.0	7
219.1	9
219.2	9
219.3	8
219.4	7
219.5	5
219.6	2
380.5	1
380.6	2
380.7	4
380.8	7
380.9	13
381.0	19
381.1	25
381.2	29
381.3	29
381.4	25
381.5	16
381.6	7
381.7	1
