Mass spectrum: 20-Hydroxyecdysone 20,22-acetonide; LC-ESI-QQQ; MS; [M+H]+
Name: 20-Hydroxyecdysone 20,22-acetonide
Class: Steroids
Formula: C30H48O7
Exact mass: 520.7129
SMILES: CC(C)(O)CC[C@H]1OC(C)(C)O[C@]1(C)[C@H]1CC[C@@]2(O)C3=CC(=O)[C@@H]4C[C@@H](O)[C@@H](O)C[C@]4(C)[C@H]3CC[C@]12C
InChI: InChI=1S/C30H48O7/c1-25(2,34)11-10-24-29(7,37-26(3,4)36-24)23-9-13-30(35)18-14-20(31)19-15-21(32)22(33)16-27(19,5)17(18)8-12-28(23,30)6/h14,17,19,21-24,32-35H,8-13,15-16H2,1-7H3/t17-,19-,21+,22-,23-,24+,27+,28+,29+,30+/m0/s1
Instrument: ABSciex API3200 LC/MS system
Instrument type: LC-ESI-QQQ
Ms type: MS
Ion mode: POSITIVE
Precursor type: [M+H]+
m/z	relative intensity
141.9000	26
142.0000	59
142.1000	70
142.2000	82
142.3000	76
142.4000	62
300.8000	21
300.9000	28
301.0000	22
301.1000	25
301.2000	23
301.3000	31
346.7000	21
346.8000	21
346.9000	21
347.0000	21
347.1000	24
426.5000	29
426.6000	74
426.7000	111
426.8000	116
426.9000	117
427.0000	128
427.1000	120
427.2000	113
427.3000	119
427.4000	390
427.5000	207
427.6000	53
427.7000	32
427.8000	24
427.9000	24
428.0000	42
428.1000	26
428.2000	22
428.3000	28
428.4000	22
444.5000	102
444.6000	197
444.7000	314
444.8000	341
444.9000	344
445.0000	355
445.1000	328
445.2000	367
445.3000	315
445.4000	276
445.5000	218
445.6000	139
445.7000	126
445.8000	126
445.9000	115
446.0000	107
446.1000	113
446.2000	124
446.3000	119
446.4000	93
446.5000	75
446.6000	41
446.7000	32
446.8000	28
447.1000	26
447.4000	28
462.6000	36
462.7000	55
462.8000	73
462.9000	71
463.0000	74
463.1000	66
463.2000	66
463.3000	118
463.4000	66
463.5000	50
463.6000	29
463.7000	21
464.0000	24
464.3000	23
502.5000	65
502.6000	138
502.7000	291
502.8000	403
502.9000	459
503.0000	466
503.1000	412
503.2000	404
503.3000	411
503.4000	365
503.5000	247
503.6000	141
503.7000	142
503.8000	159
503.9000	183
504.0000	188
504.1000	176
504.2000	184
504.3000	158
504.4000	158
504.5000	93
504.6000	40
504.7000	39
504.8000	47
504.9000	37
505.0000	29
505.1000	38
505.2000	35
505.3000	24
505.4000	23
520.4000	97
520.5000	171
520.6000	585
520.7000	845
520.8000	910
520.9000	983
521.0000	999
521.1000	978
521.2000	987
521.3000	880
521.4000	824
521.5000	606
521.6000	363
521.7000	414
521.8000	389
521.9000	463
522.0000	411
522.1000	385
522.2000	389
522.3000	359
522.4000	317
522.5000	242
522.6000	115
522.7000	95
522.8000	97
522.9000	96
523.0000	106
523.1000	72
523.2000	79
523.3000	87
523.4000	61
523.5000	38
561.5000	25
561.6000	51
561.7000	115
561.8000	149
561.9000	138
562.0000	150
562.1000	156
562.2000	184
562.3000	161
562.4000	125
562.5000	97
562.6000	35
562.7000	53
562.8000	59
562.9000	58
563.0000	60
563.1000	59
563.2000	62
563.3000	56
563.4000	46
563.5000	34
1004.6000	28
1004.7000	35
1004.8000	46
1004.9000	50
1005.0000	57
1005.1000	68
1005.2000	67
1005.3000	57
1005.4000	63
1005.5000	65
1005.6000	42
1005.7000	34
1005.8000	42
1005.9000	28
1006.0000	46
1006.1000	42
1006.2000	35
1006.3000	42
1006.4000	34
1006.5000	26
1006.6000	38
1006.7000	27
1022.6000	35
1022.7000	46
1022.8000	56
1022.9000	59
1023.0000	70
1023.1000	92
1023.2000	76
1023.3000	91
1023.4000	83
1023.5000	69
1023.6000	71
1023.7000	52
1023.8000	38
1023.9000	52
1024.0000	54
1024.1000	48
1024.2000	50
1024.3000	49
1024.4000	53
1024.5000	38
1024.6000	30
1024.9000	23
1025.4000	26
1040.6000	48
1040.7000	58
1040.8000	88
1040.9000	84
1041.0000	101
1041.1000	112
1041.2000	107
1041.3000	112
1041.4000	107
1041.5000	89
1041.6000	100
1041.7000	76
1041.8000	67
1041.9000	69
1042.0000	68
1042.1000	70
1042.2000	76
1042.3000	98
1042.4000	75
1042.5000	63
1042.6000	50
1042.7000	43
1042.8000	29
1042.9000	25
1043.0000	30
1043.1000	29
1043.2000	24
1043.3000	26
1043.4000	25
1043.5000	25
