Mass spectrum: Emetine; LC-ESI-QQQ; MS2; Frag=135.0V CID@25.0; [M+H]+
Name: 6',7',10,11-Tetramethoxyemetan
Name: Cephaeline methyl ether
Name: Methyl cephaeline
Name: Emetine
Class: Alkaloids
Formula: C29H40N2O4
Exact mass: 480.6531
SMILES: CC[C@H]1CN2CCc3cc(OC)c(OC)cc3[C@@H]2C[C@@H]1C[C@H]1NCCc2cc(OC)c(OC)cc21
InChI: InChI=1S/C29H40N2O4/c1-6-18-17-31-10-8-20-14-27(33-3)29(35-5)16-23(20)25(31)12-21(18)11-24-22-15-28(34-4)26(32-2)13-19(22)7-9-30-24/h13-16,18,21,24-25,30H,6-12,17H2,1-5H3/t18-,21-,24+,25-/m0/s1
Instrument: Agilent 6410 Triple Quadrupole LC/MS system
Instrument type: LC-ESI-QQQ
Ms type: MS2
Ion mode: POSITIVE
Precursor type: [M+H]+
m/z	relative intensity
193.8	2
193.9	3
194.0	5
194.1	6
194.2	6
194.3	5
194.4	4
194.5	2
245.5	1
245.6	2
245.7	5
245.8	9
245.9	13
246.0	17
246.1	19
246.2	19
246.3	16
246.4	12
246.5	7
246.6	3
273.6	1
273.7	2
273.8	4
273.9	6
274.0	8
274.1	10
274.2	11
274.3	11
274.4	8
274.5	4
274.6	1
463.7	2
463.8	3
463.9	5
464.0	6
464.1	8
464.2	9
464.3	9
464.4	9
464.5	7
464.6	4
464.7	1
480.3	1
480.4	3
480.5	6
480.6	9
480.7	15
480.8	23
480.9	38
481.0	57
481.1	77
481.2	92
481.3	99
481.4	97
481.5	83
481.6	58
481.7	28
481.8	5
481.9	0
