Mass spectrum: Acarbose; LC-ESI-QQQ; MS2; Frag=135.0V CID@10.0; [M+H]+
Name: Acarbose
Class: Carbohydrates
Formula: C25H43NO18
Exact mass: 645.6174
SMILES: C[C@H]1OC(OC2[C@@H](CO)OC(OC3[C@@H](CO)OC(O)[C@H](O)[C@H]3O)[C@H](O)[C@H]2O)[C@H](O)[C@@H](O)C1N[C@H]1C=C(CO)[C@@H](O)[C@H](O)[C@H]1O
InChI: InChI=1S/C25H43NO18/c1-6-11(26-8-2-7(3-27)12(30)15(33)13(8)31)14(32)19(37)24(40-6)43-22-10(5-29)42-25(20(38)17(22)35)44-21-9(4-28)41-23(39)18(36)16(21)34/h2,6,8-39H,3-5H2,1H3/t6-,8+,9-,10-,11?,12-,13+,14+,15+,16-,17-,18-,19-,20-,21?,22?,23?,24?,25?/m1/s1
Instrument: Agilent 6410 Triple Quadrupole LC/MS system
Instrument type: LC-ESI-QQQ
Ms type: MS2
Ion mode: POSITIVE
Precursor type: [M+H]+
m/z	relative intensity
303.4	0
303.5	1
303.6	3
303.7	7
303.8	12
303.9	19
304.0	25
304.1	29
304.2	30
304.3	27
304.4	20
304.5	11
304.6	3
645.2	0
645.3	1
645.4	4
645.5	8
645.6	14
645.7	22
645.8	36
645.9	56
646.0	75
646.1	89
646.2	97
646.3	99
646.4	94
646.5	76
646.6	47
646.7	19
646.8	1
