Mass spectrum: 9,13-Epoxy-3,18-dihydroxy-15,16-labdanolide; LC-ESI-QQQ; MS2; Frag=135.0V CID@5.0; [M+NH4]+
Name: 9,13-Epoxy-3,18-dihydroxy-15,16-labdanolide
Class: Terpenoids
Formula: C20H32O5
Exact mass: 352.475
SMILES: C[C@@H]1CCC2[C@](C)(CC[C@H](O)[C@@]2(C)CO)[C@@]12CC1(COC(=O)C1)CO2
InChI: InChI=1S/C20H32O5/c1-13-4-5-14-17(2,10-21)15(22)6-7-18(14,3)20(13)9-19(12-25-20)8-16(23)24-11-19/h13-15,21-22H,4-12H2,1-3H3/t13-,14?,15+,17+,18+,19?,20-/m1/s1
Instrument: Agilent 6410 Triple Quadrupole LC/MS system
Instrument type: LC-ESI-QQQ
Ms type: MS2
Ion mode: POSITIVE
Precursor type: [M+NH4]+
m/z	relative intensity
304.8	1
304.9	3
305.0	4
305.1	6
305.2	6
305.3	6
305.4	4
305.5	2
316.6	2
316.7	3
316.8	6
316.9	10
317.0	15
317.1	20
317.2	23
317.3	24
317.4	20
317.5	14
317.6	7
317.7	2
334.4	1
334.5	3
334.6	6
334.7	7
334.8	7
334.9	10
335.0	19
335.1	32
335.2	42
335.3	45
335.4	38
335.5	24
335.6	9
335.7	0
369.3	1
369.4	3
369.5	5
369.6	8
369.7	10
369.8	16
369.9	30
370.0	52
370.1	74
370.2	91
370.3	99
370.4	96
370.5	78
370.6	49
370.7	19
370.8	0
