Mass spectrum: evodiamine; LC-ESI-QQQ; MS; [M+H]+
Name: evodiamine
Class: Alkaloids
Formula: C19H17N3O
Exact mass: 303.3668
SMILES: CN1c2ccccc2C(=O)N2CCc3c([nH]c4ccccc34)[C@H]21
InChI: InChI=1S/C19H17N3O/c1-21-16-9-5-3-7-14(16)19(23)22-11-10-13-12-6-2-4-8-15(12)20-17(13)18(21)22/h2-9,18,20H,10-11H2,1H3/t18-/m0/s1
Instrument: ABSciex API3200 LC/MS system
Instrument type: LC-ESI-QQQ
Ms type: MS
Ion mode: POSITIVE
Precursor type: [M+H]+
m/z	relative intensity
105.6000	22
105.7000	24
105.8000	21
105.9000	21
106.0000	26
106.3000	23
106.4000	26
115.5000	21
115.6000	29
115.7000	40
115.8000	39
115.9000	68
116.0000	118
116.1000	50
116.2000	36
116.3000	23
116.4000	28
117.6000	25
117.7000	40
117.8000	27
117.9000	30
118.0000	47
133.4000	237
133.5000	510
133.6000	508
133.7000	522
133.8000	554
133.9000	632
134.0000	605
134.1000	556
134.2000	523
134.3000	434
134.4000	396
134.5000	188
134.6000	82
134.7000	83
134.8000	87
134.9000	72
135.0000	62
135.1000	54
135.2000	52
135.3000	40
135.4000	46
143.4000	35
143.5000	81
143.6000	102
143.7000	108
143.8000	143
143.9000	119
144.0000	115
144.1000	137
144.2000	83
144.3000	74
144.4000	56
144.5000	27
160.4000	87
160.5000	148
160.6000	150
160.7000	137
160.8000	124
160.9000	129
161.0000	132
161.1000	111
161.2000	124
161.3000	104
161.4000	139
161.5000	78
170.4000	97
170.5000	179
170.6000	233
170.7000	274
170.8000	309
170.9000	284
171.0000	279
171.1000	230
171.2000	284
171.3000	228
171.4000	204
171.5000	86
171.6000	47
171.7000	42
171.8000	41
171.9000	50
172.0000	83
172.1000	36
172.2000	40
172.3000	40
172.4000	32
301.4000	85
301.5000	168
301.6000	191
301.7000	242
301.8000	253
301.9000	264
302.0000	247
302.1000	306
302.2000	214
302.3000	164
302.4000	172
302.5000	81
302.6000	78
302.7000	72
302.8000	60
302.9000	54
303.0000	61
303.1000	62
303.2000	67
303.3000	252
303.4000	561
303.5000	869
303.6000	980
303.7000	979
303.8000	895
303.9000	938
304.0000	944
304.1000	908
304.2000	999
304.3000	786
304.4000	769
304.5000	507
304.6000	367
304.7000	347
304.8000	329
304.9000	319
305.0000	337
305.1000	350
305.2000	434
305.3000	321
305.4000	222
305.5000	106
305.6000	76
305.7000	67
305.8000	65
305.9000	50
306.0000	49
306.1000	56
306.2000	42
306.3000	24
306.4000	25
606.9000	27
607.1000	25
607.2000	23
