Mass spectrum: 6-Hydroxyhyoscyamine; LC-ESI-QQQ; MS; [M+H]+
Name: 6-Hydroxyhyoscyamine
Class: Alkaloids
Formula: C17H23NO4
Exact mass: 305.3772
SMILES: CN1[C@@H]2CC(OC(=O)C(CO)c3ccccc3)C[C@H]1C(O)C2
InChI: InChI=1S/C17H23NO4/c1-18-12-7-13(9-15(18)16(20)8-12)22-17(21)14(10-19)11-5-3-2-4-6-11/h2-6,12-16,19-20H,7-10H2,1H3/t12-,13?,14?,15+,16?/m1/s1
Instrument: ABSciex API3200 LC/MS system
Instrument type: LC-ESI-QQQ
Ms type: MS
Ion mode: POSITIVE
Precursor type: [M+H]+
m/z	relative intensity
100.6000	23
100.7000	32
100.8000	24
100.9000	42
101.0000	35
101.1000	30
101.2000	30
101.3000	33
122.1000	23
139.4000	56
139.5000	145
139.6000	198
139.7000	245
139.8000	262
139.9000	261
140.0000	262
140.1000	309
140.2000	229
140.3000	200
140.4000	204
140.5000	134
140.6000	42
140.7000	28
140.8000	33
140.9000	34
141.0000	37
141.1000	37
141.2000	45
141.3000	27
141.4000	25
305.3000	151
305.4000	413
305.5000	775
305.6000	927
305.7000	953
305.8000	941
305.9000	984
306.0000	991
306.1000	999
306.2000	956
306.3000	860
306.4000	804
306.5000	520
306.6000	429
306.7000	396
306.8000	378
306.9000	411
307.0000	437
307.1000	467
307.2000	612
307.3000	448
307.4000	359
307.5000	317
307.6000	171
307.7000	75
307.8000	53
307.9000	67
308.0000	74
308.1000	50
308.2000	61
308.3000	71
308.4000	49
308.5000	26
647.0000	24
647.1000	24
