Mass spectrum: Foliosidine acetonide; LC-ESI-QQQ; MS2; Frag=135.0V CID@5.0; [M+H]+
Name: Foliosidine acetonide
Class: Alkaloids
Formula: C19H25NO5
Exact mass: 347.4148
SMILES: COc1cc(=O)n(C)c2c(OCC3OC(C)(C)OC3(C)C)cccc12
InChI: InChI=1S/C19H25NO5/c1-18(2)15(24-19(3,4)25-18)11-23-13-9-7-8-12-14(22-6)10-16(21)20(5)17(12)13/h7-10,15H,11H2,1-6H3
Instrument: Agilent 6410 Triple Quadrupole LC/MS system
Instrument type: LC-ESI-QQQ
Ms type: MS2
Ion mode: POSITIVE
Precursor type: [M+H]+
m/z	relative intensity
289.4	1
289.5	3
289.6	7
289.7	13
289.8	22
289.9	36
290.0	49
290.1	59
290.2	61
290.3	55
290.4	42
290.5	24
290.6	8
290.7	0
347.3	0
347.4	1
347.5	4
347.6	8
347.7	15
347.8	29
347.9	48
348.0	71
348.1	89
348.2	99
348.3	98
348.4	84
348.5	59
348.6	29
348.7	6
348.8	0
