Mass spectrum: Skimmianine; LC-ESI-QQQ; MS; [M+H]+
Name: Skimmianine
Class: Alkaloids
Formula: C14H13NO4
Exact mass: 259.264
SMILES: COc1ccc2c(OC)c3ccoc3nc2c1OC
InChI: InChI=1S/C14H13NO4/c1-16-10-5-4-8-11(13(10)18-3)15-14-9(6-7-19-14)12(8)17-2/h4-7H,1-3H3
Instrument: ABSciex API3200 LC/MS system
Instrument type: LC-ESI-QQQ
Ms type: MS
Ion mode: POSITIVE
Precursor type: [M+H]+
m/z	relative intensity
100.5000	50
100.6000	52
100.7000	53
100.8000	39
100.9000	53
101.0000	42
101.1000	34
101.2000	30
101.3000	26
101.4000	21
183.4000	25
183.5000	42
183.6000	39
183.7000	52
183.8000	55
183.9000	47
184.0000	45
184.1000	35
184.2000	30
184.3000	32
184.4000	28
198.4000	61
198.5000	117
198.6000	149
198.7000	158
198.8000	184
198.9000	148
199.0000	149
199.1000	143
199.2000	140
199.3000	109
199.4000	91
199.5000	36
199.6000	25
199.9000	29
200.0000	21
200.1000	25
200.2000	25
200.3000	21
200.4000	53
200.5000	70
200.8000	23
200.9000	42
201.6000	25
201.7000	30
201.8000	25
201.9000	32
202.0000	30
202.1000	30
202.2000	24
202.3000	26
202.4000	24
215.3000	28
215.4000	79
215.5000	105
215.6000	152
215.7000	146
215.8000	164
215.9000	161
216.0000	174
216.1000	152
216.2000	149
216.3000	146
216.4000	118
216.5000	33
216.6000	21
216.7000	25
216.8000	28
216.9000	25
217.1000	47
217.2000	24
226.3000	127
226.4000	353
226.5000	440
226.6000	488
226.7000	492
226.8000	500
226.9000	532
227.0000	525
227.1000	528
227.2000	452
227.3000	431
227.4000	354
227.5000	154
227.6000	129
227.7000	138
227.8000	118
227.9000	136
228.0000	380
228.1000	46
228.2000	41
228.3000	60
228.4000	40
229.0000	21
229.3000	25
229.4000	30
229.5000	44
229.6000	49
229.7000	44
229.8000	54
229.9000	56
230.0000	42
230.1000	61
230.2000	56
230.3000	56
230.4000	33
230.5000	22
243.4000	36
243.5000	43
243.6000	74
243.7000	66
243.8000	79
243.9000	74
244.0000	65
244.1000	69
244.2000	71
244.3000	144
244.4000	236
244.5000	341
244.6000	358
244.7000	360
244.8000	357
244.9000	337
245.0000	361
245.1000	324
245.2000	318
245.3000	284
245.4000	454
245.5000	346
245.6000	40
245.7000	50
245.8000	24
245.9000	50
246.1000	28
246.2000	38
246.3000	28
246.4000	24
259.2000	33
259.3000	172
259.4000	553
259.5000	645
259.6000	735
259.7000	733
259.8000	741
259.9000	724
260.0000	694
260.1000	743
260.2000	999
260.3000	864
260.4000	265
260.5000	101
261.0000	130
261.1000	221
261.2000	208
261.3000	198
261.4000	180
261.5000	76
261.6000	50
261.7000	48
261.8000	40
261.9000	35
262.0000	27
262.1000	32
262.2000	38
262.3000	27
262.4000	28
267.5000	21
