Mass spectrum: 9,13-Epoxy-3,18-dihydroxy-15,16-labdanolide; LC-ESI-QQQ; MS2; Frag=135.0V CID@15.0; [M+HCOO]-
Name: 9,13-Epoxy-3,18-dihydroxy-15,16-labdanolide
Class: Terpenoids
Formula: C20H32O5
Exact mass: 352.475
SMILES: C[C@@H]1CCC2[C@](C)(CC[C@H](O)[C@@]2(C)CO)[C@@]12CC1(COC(=O)C1)CO2
InChI: InChI=1S/C20H32O5/c1-13-4-5-14-17(2,10-21)15(22)6-7-18(14,3)20(13)9-19(12-25-20)8-16(23)24-11-19/h13-15,21-22H,4-12H2,1-3H3/t13-,14?,15+,17+,18+,19?,20-/m1/s1
Instrument: Agilent 6410 Triple Quadrupole LC/MS system
Instrument type: LC-ESI-QQQ
Ms type: MS2
Ion mode: NEGATIVE
Precursor type: [M+HCOO]-
m/z	relative intensity
50.8	5
50.9	10
51.0	17
51.1	21
51.2	18
51.3	12
51.5	10
51.6	15
51.7	18
51.8	17
51.9	14
52.1	9
52.2	12
52.3	17
52.4	19
52.5	17
52.6	12
52.8	10
52.9	14
53.0	17
53.1	17
53.2	13
54.0	7
54.1	11
54.2	15
54.3	17
54.4	15
54.5	11
54.7	9
54.8	12
54.9	15
55.0	14
55.3	7
55.4	14
55.5	21
55.6	23
55.7	19
55.8	11
56.0	8
56.1	13
56.2	17
56.3	14
56.6	9
56.7	13
56.8	16
56.9	15
57.2	10
57.3	15
57.4	18
57.5	16
57.6	11
57.8	6
57.9	10
58.0	15
58.1	17
58.2	15
58.3	9
58.5	6
58.6	10
58.7	15
58.8	17
58.9	15
59.2	10
59.3	15
59.4	18
59.5	17
59.6	11
59.8	6
59.9	12
60.0	19
60.1	21
60.2	16
60.5	9
60.6	15
60.7	19
60.8	18
60.9	12
61.1	8
61.2	14
61.3	19
61.4	18
61.5	14
61.7	11
61.8	14
61.9	16
62.0	16
62.1	12
62.3	7
62.4	9
62.5	15
62.6	20
62.7	19
62.8	13
63.0	6
63.1	13
63.2	20
63.3	21
63.4	15
63.6	9
63.7	14
63.8	17
63.9	17
64.0	12
64.2	5
64.3	8
64.4	14
64.5	18
64.6	19
64.7	15
65.0	7
65.1	14
65.2	20
65.3	20
65.4	13
65.6	7
65.7	14
65.8	19
65.9	19
66.0	13
66.2	7
66.3	12
66.4	17
66.5	17
66.6	12
66.8	8
66.9	12
67.0	16
67.1	17
67.2	13
67.4	9
67.5	14
67.6	19
67.7	20
67.8	16
68.1	10
68.2	16
68.3	20
68.4	18
68.5	13
68.8	8
68.9	14
69.0	18
69.1	17
70.0	10
70.1	14
70.2	18
70.3	19
70.4	15
70.7	9
70.8	14
70.9	17
71.0	15
71.3	11
71.4	15
71.5	16
71.6	14
71.7	10
71.9	7
72.0	10
72.1	14
72.2	15
72.3	12
72.5	7
72.6	10
72.7	15
72.8	20
72.9	20
73.0	14
73.2	6
73.3	11
73.4	17
73.5	19
73.6	14
73.8	6
73.9	11
74.0	16
74.1	18
74.2	14
74.3	9
74.5	8
74.6	12
74.7	16
74.8	16
74.9	13
75.2	8
75.3	13
75.4	17
75.5	17
75.6	14
75.8	11
75.9	14
76.0	16
76.1	15
76.2	12
76.4	9
76.5	12
76.6	16
76.7	17
76.8	14
77.0	7
77.1	10
77.2	15
77.3	18
77.4	16
77.5	12
77.7	9
77.8	14
77.9	18
78.0	18
78.1	13
78.3	10
78.4	15
78.5	20
78.6	21
78.7	17
78.8	11
79.0	9
79.1	12
79.2	16
79.3	17
79.4	14
79.6	9
79.7	12
79.8	16
79.9	17
80.0	14
80.3	8
80.4	14
80.5	17
80.6	15
80.7	10
80.9	5
81.0	10
81.1	16
81.2	18
81.3	15
81.5	6
81.6	10
81.7	17
81.8	20
81.9	19
82.0	13
82.2	8
82.3	11
82.4	15
82.5	16
82.6	14
82.8	9
82.9	12
83.0	16
83.1	17
83.2	16
83.3	12
83.5	11
83.6	14
83.7	17
83.8	17
83.9	14
84.1	10
84.2	13
84.3	18
84.4	19
84.5	16
85.4	1
85.5	10
85.6	18
85.7	20
85.8	15
86.7	9
86.8	15
86.9	20
87.0	20
87.1	15
87.3	8
87.4	11
87.5	16
87.6	18
87.7	14
88.0	10
88.1	16
88.2	19
88.3	17
89.2	3
89.3	11
89.4	19
89.5	23
89.6	19
89.7	9
89.9	4
90.0	11
90.1	17
90.2	17
90.3	12
90.5	10
90.6	14
90.7	17
90.8	15
90.9	10
91.1	7
91.2	12
91.3	17
91.4	18
91.5	14
91.7	9
91.8	12
91.9	18
92.0	22
92.1	22
92.2	17
92.5	11
92.6	16
92.7	20
92.8	19
92.9	14
93.1	9
93.2	13
93.3	18
93.4	18
93.5	13
93.7	8
93.8	13
93.9	19
94.0	20
94.1	15
94.4	8
94.5	15
94.6	19
94.7	18
94.8	13
95.0	8
95.1	14
95.2	20
95.3	20
95.4	15
95.6	8
95.7	12
95.8	18
95.9	19
96.0	15
96.9	8
97.0	14
97.1	19
97.2	19
97.3	14
97.6	6
97.7	14
97.8	19
97.9	19
98.8	10
98.9	14
99.0	16
99.1	14
99.2	10
99.4	6
99.5	8
99.6	14
99.7	19
99.8	18
99.9	13
100.1	7
100.2	11
100.3	16
100.4	17
100.5	14
100.7	9
100.8	12
100.9	15
101.0	16
101.1	15
101.2	12
101.4	9
101.5	12
101.6	16
101.7	15
101.8	9
102.0	3
102.1	9
102.2	16
102.3	20
102.4	18
102.5	13
102.7	11
102.8	15
102.9	18
103.0	16
103.1	12
103.3	10
103.4	14
103.5	20
103.6	21
103.7	17
103.8	11
104.0	7
104.1	10
104.2	14
104.3	14
104.4	10
104.6	7
104.7	11
104.8	15
104.9	16
105.0	13
105.2	8
105.3	11
105.4	16
105.5	18
105.6	17
105.9	13
106.0	16
106.1	17
106.2	16
106.3	13
106.5	10
106.6	13
106.7	17
106.8	19
106.9	18
107.0	13
107.2	9
107.3	12
107.4	14
107.5	13
107.8	7
107.9	12
108.0	17
108.1	18
108.2	14
108.4	9
108.5	13
108.6	18
108.7	20
108.8	16
108.9	10
109.1	6
109.2	12
109.3	18
109.4	19
109.5	15
110.3	6
110.4	10
110.5	19
110.6	28
110.7	31
110.8	26
110.9	17
111.1	14
111.2	19
111.3	21
111.4	17
111.5	11
111.7	10
111.8	14
111.9	16
112.0	14
112.2	9
112.3	12
112.4	16
112.5	18
112.6	14
112.7	7
112.9	4
113.0	11
113.1	18
113.2	21
113.3	18
113.4	12
113.6	11
113.7	16
113.8	18
113.9	17
114.0	12
114.2	7
114.3	11
114.4	16
114.5	18
114.6	16
115.5	9
115.6	14
115.7	17
115.8	14
116.1	8
116.2	14
116.3	20
116.4	22
116.5	18
117.4	8
117.5	14
117.6	19
117.7	18
117.8	12
118.0	6
118.1	10
118.2	15
118.3	17
118.4	12
118.6	3
118.7	7
118.8	15
118.9	21
119.0	20
119.1	15
119.9	8
120.0	11
120.1	16
120.2	18
120.3	16
120.4	11
120.6	8
120.7	13
120.8	18
120.9	19
121.0	15
121.8	6
121.9	10
122.0	17
122.1	21
122.2	19
122.3	13
122.5	9
122.6	12
122.7	15
122.8	15
122.9	13
123.1	9
123.2	11
123.3	15
123.4	18
123.5	17
123.7	12
123.8	14
123.9	19
124.0	23
124.1	20
124.2	13
124.4	8
124.5	14
124.6	20
124.7	21
124.8	16
125.1	9
125.2	15
125.3	19
125.4	17
125.5	11
125.7	8
125.8	14
125.9	20
126.0	20
126.1	16
126.2	9
126.4	8
126.5	14
126.6	17
126.7	14
127.0	5
127.1	14
127.2	23
127.3	23
127.4	15
128.3	9
128.4	12
128.5	15
128.6	16
128.7	13
128.9	8
129.0	10
129.1	15
129.2	17
129.3	14
129.5	9
129.6	12
129.7	17
129.8	19
129.9	18
130.0	13
130.2	11
130.3	15
130.4	17
130.5	15
130.6	10
130.8	7
130.9	12
131.0	17
131.1	18
131.2	14
131.3	9
131.5	8
131.6	11
131.7	13
131.8	13
131.9	11
132.2	8
132.3	11
132.4	14
132.5	14
132.6	11
132.8	9
132.9	13
133.0	17
133.1	16
133.4	10
133.5	16
133.6	20
133.7	18
133.8	13
134.0	8
134.1	13
134.2	19
134.3	21
134.4	18
134.5	11
134.7	4
134.8	8
134.9	14
135.0	15
135.1	12
135.3	6
135.4	9
135.5	14
135.6	15
135.7	13
135.9	9
136.0	12
136.1	16
136.2	17
136.3	14
136.5	8
136.6	11
136.7	16
136.8	20
136.9	17
137.0	11
137.2	5
137.3	9
137.4	14
137.5	18
137.6	17
137.7	13
137.9	11
138.0	14
138.1	16
138.2	15
138.3	10
138.5	6
138.6	10
138.7	15
138.8	17
138.9	15
139.1	10
139.2	13
139.3	17
139.4	20
139.5	18
139.6	13
139.8	9
139.9	14
140.0	18
140.1	19
140.2	14
140.4	6
140.5	10
140.6	18
140.7	21
140.8	17
140.9	11
141.1	10
141.2	15
141.3	18
141.4	17
141.5	12
141.7	7
141.8	12
141.9	19
142.0	21
142.1	16
142.4	8
142.5	15
142.6	19
142.7	17
142.8	11
143.0	8
143.1	11
143.2	12
143.3	11
143.5	7
143.6	9
143.7	14
143.8	19
143.9	21
144.0	19
144.9	9
145.0	18
145.1	24
145.2	22
145.3	14
145.5	6
145.6	11
145.7	17
145.8	19
145.9	17
146.0	11
146.2	9
146.3	16
146.4	22
146.5	23
146.6	18
146.7	11
146.9	9
147.0	15
147.1	20
147.2	18
147.3	13
147.5	7
147.6	11
147.7	15
147.8	16
147.9	13
148.1	8
148.2	12
148.3	16
148.4	16
148.5	12
148.7	9
148.8	13
148.9	16
149.0	17
149.1	15
149.4	9
149.5	14
149.6	19
149.7	19
149.8	15
150.0	11
150.1	14
150.2	17
150.3	17
150.4	13
150.6	7
150.7	10
150.8	16
150.9	20
151.0	19
151.1	14
151.9	8
152.0	13
152.1	17
152.2	17
152.3	15
152.6	12
152.7	15
152.8	18
152.9	16
153.0	11
153.2	8
153.3	12
153.4	16
153.5	18
153.6	14
153.7	7
153.9	6
154.0	12
154.1	18
154.2	18
154.3	14
154.5	11
154.6	15
154.7	20
154.8	21
154.9	17
155.8	8
155.9	15
156.0	20
156.1	19
156.2	13
156.4	6
156.5	11
156.6	17
156.7	20
156.8	17
156.9	11
157.1	9
157.2	14
157.3	19
157.4	18
157.5	11
157.7	6
157.8	11
157.9	16
158.0	18
158.1	15
158.3	8
158.4	12
158.5	17
158.6	19
158.7	16
158.8	10
159.0	6
159.1	10
159.2	14
159.3	14
159.4	10
159.6	6
159.7	10
159.8	16
159.9	20
160.0	18
160.1	12
160.3	10
160.4	15
160.5	19
160.6	18
160.7	14
160.9	10
161.0	13
161.1	16
161.2	16
161.3	14
161.4	10
161.6	9
161.7	12
161.8	15
161.9	15
162.0	13
162.2	10
162.3	14
162.4	17
162.5	16
162.6	11
162.8	6
162.9	11
163.0	16
163.1	18
163.2	16
163.3	12
163.5	10
163.6	14
163.7	18
163.8	17
163.9	13
164.7	9
164.8	13
164.9	18
165.0	19
165.1	17
165.2	12
165.4	7
165.5	10
165.6	15
165.7	17
165.8	14
166.1	8
166.2	13
166.3	16
166.4	14
166.5	9
166.7	8
166.8	13
166.9	15
167.0	14
167.3	8
167.4	14
167.5	19
167.6	19
167.7	13
167.9	4
168.0	8
168.1	15
168.2	19
168.3	18
168.4	13
168.6	9
168.7	14
168.8	19
168.9	18
169.0	11
169.2	5
169.3	11
169.4	18
169.5	21
169.6	17
170.5	7
170.6	13
170.7	19
170.8	20
170.9	16
171.0	8
171.2	6
171.3	11
171.4	16
171.5	16
171.6	14
171.8	11
171.9	14
172.0	17
172.1	16
172.2	13
172.4	9
172.5	12
172.6	16
172.7	18
172.8	15
172.9	10
173.1	8
173.2	10
173.3	11
173.6	7
173.7	12
173.8	19
173.9	22
174.0	20
174.1	14
174.9	7
175.0	10
175.1	17
175.2	23
175.3	22
175.4	16
176.3	9
176.4	13
176.5	17
176.6	16
176.9	9
177.0	16
177.1	22
177.2	22
177.3	16
177.6	10
177.7	15
177.8	19
177.9	18
178.0	14
178.8	9
178.9	13
179.0	17
179.1	19
179.2	15
179.5	11
179.6	15
179.7	17
179.8	17
179.9	13
180.1	8
180.2	11
180.3	16
180.4	18
180.5	16
180.8	10
180.9	15
181.0	17
181.1	15
181.2	11
181.4	7
181.5	11
181.6	15
181.7	16
181.8	13
182.0	9
182.1	12
182.2	17
182.3	19
182.4	16
182.5	11
182.7	7
182.8	12
182.9	16
183.0	15
183.1	10
183.3	5
183.4	9
183.5	15
183.6	17
183.7	14
183.9	9
184.0	12
184.1	15
184.2	16
184.3	13
184.4	10
184.6	9
184.7	11
184.8	13
184.9	13
185.2	11
185.3	14
185.4	17
185.5	17
185.6	15
185.9	11
186.0	15
186.1	17
186.2	16
186.3	13
186.5	9
186.6	12
186.7	17
186.8	18
186.9	14
187.1	7
187.2	12
187.3	18
187.4	19
187.5	15
187.8	10
187.9	16
188.0	20
188.1	19
188.2	14
188.4	8
188.5	13
188.6	19
188.7	20
188.8	15
188.9	8
189.1	6
189.2	11
189.3	15
189.4	14
189.5	11
189.7	8
189.8	13
189.9	17
190.0	16
190.1	10
190.3	3
190.4	9
190.5	17
190.6	20
190.7	17
190.8	10
191.0	4
191.1	10
191.2	17
191.3	20
191.4	17
191.5	11
191.7	10
191.8	15
191.9	17
192.0	15
192.1	9
192.3	5
192.4	11
192.5	18
192.6	20
192.7	17
192.9	9
193.0	13
193.1	18
193.2	18
193.3	14
193.6	8
193.7	14
193.8	19
193.9	19
194.0	14
195.3	10
195.4	12
195.5	16
195.6	20
195.7	20
195.8	15
195.9	9
196.1	7
196.2	13
196.3	17
196.4	17
196.5	14
196.7	8
196.8	11
196.9	16
197.0	18
197.1	15
197.2	8
197.4	5
197.5	13
197.6	20
197.7	22
197.8	17
197.9	10
198.1	9
198.2	14
198.3	17
198.4	16
198.5	12
198.7	8
198.8	11
198.9	14
199.0	15
199.3	13
199.4	16
199.5	19
199.6	17
199.7	12
199.9	7
200.0	11
200.1	17
200.2	19
200.3	15
200.4	8
200.6	6
200.7	14
200.8	21
200.9	23
201.0	20
201.1	14
201.3	12
201.4	15
201.5	18
201.6	18
201.7	14
201.9	12
202.0	15
202.1	19
202.2	18
202.3	15
202.5	11
202.6	14
202.7	17
202.8	16
202.9	12
203.1	5
203.2	8
203.3	13
203.4	17
203.5	17
203.6	13
203.8	8
203.9	12
204.0	17
204.1	18
204.2	15
204.4	12
204.5	15
204.6	18
204.7	18
204.8	14
205.0	7
205.1	11
205.2	17
205.3	19
205.4	14
205.7	8
205.8	15
205.9	19
206.0	19
206.1	15
206.3	11
206.4	14
206.5	18
206.6	19
206.7	16
206.8	10
207.0	8
207.1	12
207.2	15
207.3	15
207.4	11
207.6	5
207.7	10
207.8	17
207.9	20
208.0	16
208.1	11
208.3	9
208.4	15
208.5	19
208.6	18
208.7	13
208.9	7
209.0	11
209.1	17
209.2	18
209.3	14
210.2	10
210.3	14
210.4	17
210.5	16
210.6	12
210.8	7
210.9	12
211.0	17
211.1	18
211.2	14
211.5	8
211.6	13
211.7	17
211.8	16
211.9	12
212.1	7
212.2	11
212.3	15
212.4	16
212.5	12
212.8	6
212.9	13
213.0	19
213.1	19
213.2	13
214.0	5
214.1	11
214.2	18
214.3	21
214.4	19
214.5	14
214.7	11
214.8	16
214.9	19
215.0	18
215.1	13
215.3	8
215.4	11
215.5	15
215.6	16
215.7	13
215.9	9
216.0	12
216.1	15
216.2	17
216.3	15
216.4	12
216.6	11
216.7	13
216.8	14
216.9	13
217.0	11
217.2	9
217.3	11
217.4	13
217.5	14
217.6	13
217.8	10
217.9	13
218.0	17
218.1	19
218.2	17
218.3	12
218.5	8
218.6	11
218.7	15
218.8	16
218.9	14
219.1	8
219.2	10
219.3	16
219.4	19
219.5	16
219.6	10
219.8	7
219.9	12
220.0	16
220.1	15
220.2	11
220.4	7
220.5	10
220.6	16
220.7	20
220.8	18
220.9	12
221.1	8
221.2	13
221.3	18
221.4	18
221.5	13
221.8	9
221.9	13
222.0	16
222.1	15
222.2	10
222.4	9
222.5	13
222.6	16
222.7	15
223.0	10
223.1	14
223.2	17
223.3	17
223.6	13
223.7	16
223.8	18
223.9	17
224.0	12
224.2	4
224.3	8
224.4	14
224.5	17
224.6	15
224.7	10
224.9	6
225.0	9
225.1	14
225.2	17
225.3	16
225.4	12
225.6	9
225.7	13
225.8	18
225.9	20
226.0	18
226.1	12
226.3	9
226.4	13
226.5	15
226.6	14
226.8	9
226.9	12
227.0	15
227.1	16
227.2	13
227.4	7
227.5	10
227.6	15
227.7	18
227.8	16
227.9	12
228.1	7
228.2	11
228.3	16
228.4	18
228.5	14
228.8	9
228.9	16
229.0	21
229.1	21
229.2	15
229.4	9
229.5	14
229.6	20
229.7	20
229.8	14
230.0	6
230.1	11
230.2	18
230.3	21
230.4	18
230.5	13
230.7	12
230.8	15
230.9	17
231.0	14
231.3	9
231.4	14
231.5	18
231.6	19
231.7	15
232.0	10
232.1	15
232.2	19
232.3	19
232.4	15
232.6	11
232.7	14
232.8	17
232.9	17
233.0	13
233.2	8
233.3	11
233.4	16
233.5	18
233.6	16
233.8	13
233.9	16
234.0	19
234.1	19
234.2	16
234.3	12
234.5	10
234.6	15
234.7	20
234.8	20
234.9	14
235.1	3
235.2	8
235.3	17
235.4	21
235.5	19
235.6	13
235.8	10
235.9	14
236.0	16
236.1	14
236.2	9
236.4	5
236.5	8
236.6	15
236.7	21
236.8	20
236.9	13
237.1	6
237.2	11
237.3	18
237.4	20
237.5	16
237.8	11
237.9	17
238.0	20
238.1	18
238.2	13
238.4	11
238.5	13
238.6	15
238.7	15
238.8	14
238.9	13
239.0	15
239.1	19
239.2	20
239.3	17
239.4	12
239.6	7
239.7	10
239.8	14
239.9	15
240.0	13
240.2	9
240.3	13
240.4	19
240.5	22
240.6	19
240.7	13
241.0	7
241.1	12
241.2	14
241.3	12
241.5	8
241.6	12
241.7	18
241.8	21
241.9	18
242.0	13
242.2	8
242.3	12
242.4	16
242.5	17
242.6	14
242.9	8
243.0	14
243.1	17
243.2	16
243.5	10
243.6	15
243.7	18
243.8	16
243.9	11
244.1	7
244.2	12
244.3	18
244.4	18
244.5	15
244.7	8
244.8	11
244.9	16
245.0	19
245.1	18
245.2	13
245.4	11
245.5	14
245.6	17
245.7	16
245.8	11
246.0	5
246.1	9
246.2	16
246.3	19
246.4	18
246.5	12
246.7	6
246.8	11
246.9	16
247.0	16
247.3	10
247.4	16
247.5	21
247.6	19
247.7	13
247.9	10
248.0	14
248.1	17
248.2	16
248.3	12
248.6	7
248.7	13
248.8	19
248.9	21
249.0	18
249.1	12
249.3	11
249.4	13
249.5	14
249.6	12
249.8	9
249.9	11
250.0	15
250.1	18
250.2	17
250.3	12
250.5	6
250.6	10
250.7	15
250.8	16
250.9	12
251.1	9
251.2	12
251.3	15
251.4	14
251.5	10
251.7	7
251.8	9
251.9	12
252.0	14
252.1	12
252.4	9
252.5	12
252.6	16
252.7	17
252.8	15
252.9	12
253.1	11
253.2	13
253.3	16
253.4	17
253.5	16
253.6	14
253.7	11
254.2	9
254.3	10
254.4	13
254.5	17
254.6	19
254.7	16
254.8	13
255.0	9
255.1	11
255.2	14
255.3	14
255.4	13
256.2	9
256.3	12
256.4	17
256.5	20
256.6	18
256.7	13
256.9	9
257.0	14
257.1	18
257.2	18
257.3	13
257.6	7
257.7	13
257.8	17
257.9	16
258.0	11
258.2	7
258.3	11
258.4	17
258.5	19
258.6	17
258.7	12
258.9	11
259.0	15
259.1	17
259.2	15
259.3	10
259.5	9
259.6	14
259.7	17
259.8	15
259.9	13
260.1	12
260.2	14
260.3	16
260.4	16
260.5	12
260.7	6
260.8	10
260.9	17
261.0	21
261.1	21
261.2	16
261.4	12
261.5	15
261.6	17
261.7	16
261.8	12
262.0	6
262.1	10
262.2	15
262.3	17
262.4	15
262.6	12
262.7	14
262.8	17
262.9	18
263.0	15
263.1	11
263.3	10
263.4	13
263.5	16
263.6	16
263.7	13
264.0	9
264.1	13
264.2	15
264.3	16
264.4	15
264.5	13
264.7	11
264.8	13
264.9	15
265.0	13
265.2	10
265.3	13
265.4	17
265.5	19
265.6	16
265.7	11
265.9	10
266.0	13
266.1	16
266.2	15
266.3	12
266.5	10
266.6	12
266.7	15
266.8	15
266.9	13
267.2	11
267.3	14
267.4	15
267.5	15
267.6	12
267.9	9
268.0	12
268.1	14
268.2	13
268.5	9
268.6	14
268.7	17
268.8	16
268.9	14
269.1	12
269.2	15
269.3	18
269.4	17
269.5	12
269.7	8
269.8	14
269.9	21
270.0	22
270.1	17
270.2	10
270.4	8
270.5	14
270.6	17
270.7	15
270.8	10
271.0	7
271.1	13
271.2	17
271.3	17
271.4	13
271.6	9
271.7	12
271.8	16
271.9	16
272.0	12
272.2	7
272.3	12
272.4	18
272.5	21
272.6	17
272.7	11
272.9	7
273.0	12
273.1	16
273.2	17
273.3	12
273.5	4
273.6	8
273.7	15
273.8	21
273.9	20
274.0	14
274.2	10
274.3	14
274.4	17
274.5	17
274.6	12
274.8	7
274.9	11
275.0	16
275.1	19
275.2	16
275.3	10
275.5	7
275.6	12
275.7	18
275.8	18
275.9	13
276.1	5
276.2	9
276.3	15
276.4	18
276.5	15
276.8	11
276.9	14
277.0	15
277.1	14
277.4	10
277.5	15
277.6	19
277.7	20
277.8	16
277.9	10
278.1	6
278.2	11
278.3	15
278.4	15
278.7	10
278.8	14
278.9	17
279.0	15
279.1	10
279.3	8
279.4	13
279.5	19
279.6	21
279.7	17
279.8	11
280.0	10
280.1	14
280.2	17
280.3	16
281.2	9
281.3	13
281.4	18
281.5	19
281.6	16
281.7	11
281.9	8
282.0	12
282.1	15
282.2	14
282.5	8
282.6	15
282.7	19
282.8	19
282.9	14
283.0	7
283.2	4
283.3	10
283.4	16
283.5	20
283.6	18
284.5	11
284.6	15
284.7	17
284.8	15
285.1	13
285.2	15
285.3	17
285.4	16
285.5	14
285.8	11
285.9	15
286.0	18
286.1	17
286.2	12
286.4	10
286.5	15
286.6	18
286.7	15
287.0	8
287.1	14
287.2	20
287.3	22
287.4	18
288.2	8
288.3	11
288.4	17
288.5	21
288.6	20
288.7	14
288.9	5
289.0	9
289.1	16
289.2	18
289.3	13
289.5	4
289.6	8
289.7	15
289.8	18
289.9	15
290.2	9
290.3	16
290.4	20
290.5	18
290.6	13
290.8	7
290.9	12
291.0	18
291.1	20
291.2	16
291.3	10
291.5	8
291.6	14
291.7	20
291.8	21
291.9	16
292.0	10
292.2	9
292.3	13
292.4	16
292.5	15
292.7	9
292.8	12
292.9	18
293.0	20
293.1	16
293.2	9
293.4	7
293.5	13
293.6	19
293.7	20
293.8	16
294.1	10
294.2	15
294.3	17
294.4	15
294.5	11
294.7	8
294.8	13
294.9	19
295.0	21
295.1	16
295.9	6
296.0	10
296.1	17
296.2	21
296.3	19
296.4	13
296.6	10
296.7	15
296.8	20
296.9	20
297.0	15
297.3	9
297.4	14
297.5	18
297.6	19
297.7	16
297.8	11
298.5	8
298.6	11
298.7	15
298.8	17
298.9	15
299.0	10
299.2	8
299.3	11
299.4	15
299.5	18
299.6	18
300.4	9
300.5	13
300.6	18
300.7	20
300.8	17
300.9	12
301.1	9
301.2	14
301.3	19
301.4	18
301.5	13
301.7	9
301.8	14
301.9	20
302.0	21
302.1	16
302.2	9
302.4	8
302.5	15
302.6	18
302.7	16
302.9	8
303.0	12
303.1	18
303.2	21
303.3	17
303.4	9
303.6	4
303.7	11
303.8	18
303.9	20
304.0	17
304.1	11
304.3	7
304.4	10
304.5	13
304.6	13
304.7	12
304.8	12
304.9	13
305.0	15
305.1	15
305.2	13
305.3	11
305.5	11
305.6	12
305.7	13
305.8	14
305.9	12
306.2	6
306.3	12
306.4	17
306.5	17
306.6	10
306.8	4
306.9	9
307.0	17
307.1	21
307.2	18
307.5	13
307.6	18
307.7	21
307.8	18
307.9	11
308.1	8
308.2	15
308.3	20
308.4	19
308.5	13
308.8	6
308.9	12
309.0	15
309.1	15
309.2	11
309.4	10
309.5	13
309.6	15
309.7	13
309.8	7
310.0	2
310.1	10
310.2	19
310.3	22
310.4	17
310.5	10
310.7	9
310.8	15
310.9	19
311.0	18
311.1	14
312.0	8
312.1	14
312.2	17
312.3	14
312.5	5
312.6	8
312.7	16
312.8	21
312.9	18
313.0	11
313.2	8
313.3	14
313.4	19
313.5	19
313.6	16
314.5	6
314.6	13
314.7	20
314.8	22
314.9	18
315.8	5
315.9	13
316.0	21
316.1	24
316.2	19
316.3	12
316.5	10
316.6	15
316.7	17
316.8	15
317.1	11
317.2	16
317.3	19
317.4	18
317.5	14
318.4	9
318.5	15
318.6	20
318.7	19
318.8	14
319.0	11
319.1	16
319.2	20
319.3	21
319.4	17
319.5	12
319.6	8
319.7	8
319.8	9
319.9	9
320.0	6
320.2	1
320.3	6
320.4	14
320.5	17
320.6	14
320.9	7
321.0	12
321.1	16
321.2	16
321.3	13
321.5	8
321.6	10
321.7	15
321.8	18
321.9	17
322.0	11
322.2	6
322.3	13
322.4	20
322.5	22
322.6	18
322.7	11
322.9	8
323.0	11
323.1	14
323.2	13
323.5	8
323.6	13
323.7	18
323.8	18
323.9	13
324.1	8
324.2	14
324.3	20
324.4	20
324.5	14
324.7	7
324.8	13
324.9	19
325.0	20
325.1	15
325.4	7
325.5	14
325.6	19
325.7	20
325.8	16
326.0	10
326.1	13
326.2	17
326.3	18
326.4	14
326.6	6
326.7	10
326.8	16
326.9	20
327.0	18
327.1	12
327.3	8
327.4	13
327.5	17
327.6	19
327.7	15
328.0	10
328.1	14
328.2	17
328.3	16
328.6	11
328.7	16
328.8	20
328.9	18
329.0	11
329.2	4
329.3	9
329.4	16
329.5	20
329.6	18
329.7	13
329.9	9
330.0	12
330.1	16
330.2	16
330.3	13
331.1	8
331.2	14
331.3	22
331.4	23
331.5	19
331.6	12
331.8	8
331.9	13
332.0	19
332.1	21
332.2	16
332.5	7
332.6	15
332.7	19
332.8	18
332.9	14
333.2	11
333.3	12
333.4	13
333.5	13
333.6	12
333.7	12
333.8	16
333.9	19
334.0	18
334.1	13
334.3	6
334.4	11
334.5	16
334.6	18
334.7	14
334.8	8
335.0	7
335.1	12
335.2	16
335.3	17
335.4	14
335.6	9
335.7	13
335.8	17
335.9	18
336.0	14
336.3	9
336.4	13
336.5	14
336.6	12
336.8	7
336.9	10
337.0	14
337.1	17
337.2	17
337.3	13
337.5	8
337.6	11
337.7	16
337.8	20
337.9	20
338.0	15
338.2	8
338.3	12
338.4	19
338.5	22
338.6	18
338.7	10
338.9	7
339.0	12
339.1	14
339.2	12
339.4	9
339.5	11
339.6	14
339.7	17
339.8	15
339.9	11
340.1	9
340.2	13
340.3	16
340.4	16
340.7	11
340.8	15
340.9	19
341.0	18
341.1	13
341.3	4
341.4	8
341.5	14
341.6	19
341.7	18
341.8	13
342.0	6
342.1	10
342.2	16
342.3	18
342.4	14
342.6	7
342.7	11
342.8	16
342.9	20
343.0	19
343.1	15
343.3	11
343.4	14
343.5	17
343.6	18
343.7	15
343.8	11
344.0	10
344.1	13
344.2	15
344.3	14
344.4	12
344.6	10
344.7	13
344.8	15
344.9	15
345.2	10
345.3	14
345.4	20
345.5	21
345.6	17
345.7	9
345.9	6
346.0	12
346.1	16
346.2	16
346.3	12
346.5	9
346.6	12
346.7	16
346.8	16
346.9	13
347.1	10
347.2	13
347.3	18
347.4	20
347.5	17
347.6	10
347.8	6
347.9	12
348.0	17
348.1	17
348.2	13
348.4	9
348.5	12
348.6	16
348.7	19
348.8	18
348.9	13
349.1	7
349.2	13
349.3	18
349.4	18
349.5	12
349.7	5
349.8	11
349.9	17
350.0	18
350.1	13
350.4	6
350.5	12
350.6	17
350.7	16
350.8	11
351.0	8
351.1	11
351.2	14
351.3	12
351.6	7
351.7	12
351.8	17
351.9	18
352.0	14
352.3	9
352.4	15
352.5	19
352.6	16
352.7	9
352.9	4
353.0	10
353.1	17
353.2	20
353.3	16
353.6	8
353.7	16
353.8	21
353.9	20
354.0	14
354.2	9
354.3	12
354.4	14
354.5	14
354.6	13
354.7	13
354.8	14
354.9	16
355.0	16
355.1	14
355.2	11
355.4	9
355.5	12
355.6	17
355.7	20
355.8	18
355.9	12
356.1	8
356.2	14
356.3	18
356.4	18
356.5	13
356.7	9
356.8	12
356.9	17
357.0	19
357.1	16
357.4	10
357.5	16
357.6	20
357.7	19
357.8	14
358.0	8
358.1	12
358.2	17
358.3	19
358.4	15
358.7	9
358.8	14
358.9	19
359.0	19
359.1	15
359.9	11
360.0	14
360.1	16
360.2	15
360.3	12
360.6	9
360.7	13
360.8	17
360.9	17
361.0	14
361.3	9
361.4	13
361.5	17
361.6	18
361.7	16
362.5	9
362.6	14
362.7	19
362.8	19
362.9	13
363.1	7
363.2	11
363.3	15
363.4	15
363.5	12
363.8	7
363.9	11
364.0	14
364.1	14
364.2	12
364.4	9
364.5	12
364.6	16
364.7	18
364.8	15
365.1	11
365.2	16
365.3	21
365.4	21
365.5	17
366.4	9
366.5	14
366.6	18
366.7	15
366.8	9
367.0	7
367.1	13
367.2	17
367.3	18
367.4	15
367.6	11
367.7	14
367.8	18
367.9	19
368.0	15
368.9	6
369.0	12
369.1	17
369.2	17
369.5	12
369.6	17
369.7	20
369.8	19
369.9	15
370.2	11
370.3	16
370.4	19
370.5	18
370.6	12
370.8	5
370.9	10
371.0	16
371.1	19
371.2	17
371.3	13
371.5	10
371.6	12
371.7	14
371.8	15
371.9	12
372.1	10
372.2	14
372.3	17
372.4	18
372.5	14
372.7	7
372.8	11
372.9	17
373.0	21
373.1	19
373.2	14
373.4	10
373.5	13
373.6	15
373.7	14
373.8	11
374.0	8
374.1	11
374.2	14
374.3	14
374.4	11
374.6	6
374.7	10
374.8	14
374.9	16
375.0	14
375.1	10
375.3	8
375.4	12
375.5	15
375.6	16
375.7	14
375.9	10
376.0	13
376.1	17
376.2	19
376.3	16
376.6	10
376.7	16
376.8	21
376.9	20
377.0	14
377.2	6
377.3	10
377.4	15
377.5	17
377.6	14
377.8	6
377.9	9
378.0	16
378.1	22
378.2	22
378.3	16
378.6	10
378.7	15
378.8	17
378.9	15
379.1	11
379.2	14
379.3	17
379.4	18
379.5	14
379.8	9
379.9	16
380.0	20
380.1	17
380.2	11
380.4	6
380.5	11
380.6	15
380.7	16
380.8	14
381.1	10
381.2	14
381.3	17
381.4	16
381.5	12
381.7	10
381.8	13
381.9	16
382.0	17
382.1	14
382.3	8
382.4	10
382.5	15
382.6	18
382.7	16
382.8	10
383.0	7
383.1	12
383.2	16
383.3	17
383.4	14
383.6	11
383.7	14
383.8	17
383.9	16
384.0	12
384.2	6
384.3	10
384.4	16
384.5	21
384.6	20
384.7	14
384.9	7
385.0	10
385.1	15
385.2	16
385.3	14
385.4	10
385.6	8
385.7	13
385.8	17
385.9	17
386.0	14
386.2	11
386.3	14
386.4	18
386.5	18
386.6	14
386.8	9
386.9	13
387.0	17
387.1	18
387.2	14
388.1	8
388.2	12
388.3	16
388.4	17
388.5	14
388.8	7
388.9	14
389.0	19
389.1	20
389.2	16
389.4	9
389.5	12
389.6	17
389.7	18
389.8	14
390.0	8
390.1	13
390.2	18
390.3	19
390.4	14
390.7	9
390.8	14
390.9	19
391.0	19
391.1	14
391.2	8
391.4	7
391.5	12
391.6	15
391.7	14
391.9	10
392.0	12
392.1	17
392.2	21
392.3	19
392.4	14
392.6	9
392.7	13
392.8	18
392.9	18
393.0	13
393.2	5
393.3	11
393.4	18
393.5	23
393.6	21
393.7	15
393.9	9
394.0	12
394.1	16
394.2	15
394.3	11
394.5	7
394.6	11
394.7	16
394.8	18
394.9	15
395.1	11
395.2	14
395.3	19
395.4	20
395.5	17
395.8	10
395.9	16
396.0	20
396.1	18
396.2	13
396.4	6
396.5	10
396.6	15
396.7	18
396.8	16
396.9	11
397.1	7
397.2	11
397.3	14
397.4	14
397.5	12
397.7	9
397.8	13
397.9	17
398.0	16
398.1	12
398.3	7
398.4	10
398.5	16
398.6	18
398.7	15
399.0	9
399.1	15
399.2	19
399.3	17
399.4	11
399.6	6
399.7	12
399.8	19
399.9	21
400.0	17
400.9	9
401.0	13
401.1	14
401.2	13
401.5	9
401.6	12
401.7	15
401.8	17
401.9	16
402.0	12
402.2	11
402.3	14
402.4	16
402.5	16
402.6	12
402.8	7
402.9	10
403.0	15
403.1	19
403.2	17
403.3	11
403.5	9
403.6	15
403.7	19
403.8	17
403.9	12
404.1	6
404.2	10
404.3	15
404.4	16
404.5	14
404.7	9
404.8	12
404.9	16
405.0	16
405.1	13
405.2	9
405.4	8
405.5	12
405.6	16
405.7	17
405.8	14
406.1	9
406.2	15
406.3	18
406.4	16
407.3	8
407.4	12
407.5	17
407.6	18
407.7	13
407.9	6
408.0	10
408.1	17
408.2	21
408.3	19
408.4	13
408.6	8
408.7	12
408.8	17
408.9	18
409.0	14
409.2	5
409.3	9
409.4	15
409.5	20
409.6	19
409.7	14
410.6	9
410.7	14
410.8	18
410.9	16
411.0	12
411.2	11
411.3	14
411.4	16
411.5	13
411.7	8
411.8	11
411.9	15
412.0	16
412.1	15
412.2	12
412.4	8
412.5	11
412.6	16
412.7	19
412.8	16
413.1	8
413.2	14
413.3	18
413.4	15
413.5	8
413.7	4
413.8	10
413.9	16
414.0	17
414.1	15
414.3	11
414.4	14
414.5	19
414.6	21
414.7	17
414.8	11
415.0	9
415.1	14
415.2	18
415.3	17
415.4	12
415.6	7
415.7	11
415.8	16
415.9	18
416.0	15
416.2	8
416.3	11
416.4	17
416.5	19
416.6	16
416.9	9
417.0	15
417.1	19
417.2	18
417.3	13
417.5	8
417.6	14
417.7	20
417.8	22
417.9	19
418.0	12
418.2	7
418.3	11
418.4	15
418.5	15
418.6	13
418.8	10
418.9	13
419.0	16
419.1	17
419.2	16
419.4	14
419.5	15
419.6	17
419.7	18
419.8	15
419.9	10
420.1	6
420.2	12
420.3	20
420.4	24
420.5	20
420.6	11
420.8	6
420.9	12
421.0	18
421.1	18
421.2	13
422.0	12
422.1	15
422.2	18
422.3	18
422.4	15
422.6	9
422.7	13
422.8	19
422.9	23
423.0	20
423.1	13
423.3	6
423.4	11
423.5	17
423.6	20
423.7	18
423.8	14
424.0	12
424.1	16
424.2	19
424.3	18
424.4	14
424.6	12
424.7	15
424.8	16
424.9	15
425.0	11
425.2	7
425.3	11
425.4	16
425.5	18
425.6	15
425.8	9
425.9	12
426.0	17
426.1	22
426.2	21
426.3	15
426.5	6
426.6	10
426.7	17
426.8	21
426.9	18
427.0	11
427.2	7
427.3	12
427.4	17
427.5	18
427.6	15
427.8	12
427.9	16
428.0	19
428.1	18
428.2	13
428.3	7
428.5	6
428.6	11
428.7	15
428.8	15
428.9	11
429.1	9
429.2	13
429.3	16
429.4	15
429.5	10
429.7	6
429.8	12
429.9	17
430.0	19
430.1	14
430.3	7
430.4	10
430.5	16
430.6	19
430.7	18
430.8	16
431.6	7
431.7	9
431.8	14
431.9	18
432.0	19
432.1	16
432.2	14
432.4	12
432.5	14
432.6	15
432.9	13
433.0	16
433.1	20
433.2	20
433.3	14
433.6	8
433.7	15
433.8	20
433.9	18
434.0	11
434.2	9
434.3	15
434.4	20
434.5	20
434.6	16
434.7	10
434.9	8
435.0	10
435.1	12
435.2	12
435.3	11
435.4	11
435.5	13
435.6	17
435.7	19
435.8	16
435.9	11
436.1	8
436.2	13
436.3	16
436.4	15
436.5	9
436.7	4
436.8	9
436.9	14
437.0	17
437.1	15
437.4	10
437.5	15
437.6	18
437.7	17
437.8	12
438.0	10
438.1	15
438.2	20
438.3	20
438.4	15
438.5	9
438.7	7
438.8	12
438.9	15
439.0	14
439.3	9
439.4	14
439.5	19
439.6	19
439.7	14
440.0	8
440.1	14
440.2	20
440.3	20
440.4	14
440.6	8
440.7	11
440.8	16
440.9	17
441.0	14
441.2	10
441.3	12
441.4	16
441.5	17
441.6	16
441.7	12
441.9	9
442.0	12
442.1	16
442.2	18
442.3	16
442.4	12
442.6	10
442.7	12
442.8	13
442.9	11
443.1	5
443.2	8
443.3	12
443.4	17
443.5	16
443.6	11
443.8	4
443.9	9
444.0	14
444.1	17
444.2	14
444.3	10
444.5	8
444.6	12
444.7	15
444.8	15
444.9	10
445.1	5
445.2	9
445.3	12
445.4	11
445.6	7
445.7	10
445.8	14
445.9	18
446.0	18
446.1	15
446.4	8
446.5	14
446.6	19
446.7	18
446.8	14
447.6	6
447.7	11
447.8	17
447.9	19
448.0	16
448.3	11
448.4	17
448.5	20
448.6	18
448.7	12
448.9	5
449.0	10
449.1	16
449.2	18
449.3	14
449.5	4
449.6	8
449.7	17
449.8	23
449.9	20
450.0	11
450.2	6
450.3	12
450.4	17
450.5	16
450.6	11
450.8	8
450.9	14
451.0	19
451.1	20
451.2	14
451.5	8
451.6	14
451.7	18
451.8	16
452.1	10
452.2	15
452.3	19
452.4	18
452.5	14
452.7	9
452.8	12
452.9	16
453.0	17
453.1	14
453.3	6
453.4	9
453.5	17
453.6	23
453.7	24
453.8	18
453.9	11
454.6	8
454.7	12
454.8	18
454.9	21
455.0	18
455.1	12
455.3	3
455.4	7
455.5	13
455.6	16
455.7	15
455.9	11
456.0	14
456.1	19
456.2	22
456.3	20
456.4	15
456.6	10
456.7	13
456.8	16
456.9	16
457.0	12
457.2	9
457.3	13
457.4	17
457.5	18
457.6	16
457.8	11
457.9	14
458.0	17
458.1	18
458.2	15
458.3	10
458.5	6
458.6	12
458.7	18
458.8	18
458.9	13
459.1	5
459.2	10
459.3	15
459.4	17
459.5	14
459.8	8
459.9	14
460.0	18
460.1	17
460.2	11
460.4	6
460.5	11
460.6	17
460.7	19
460.8	16
460.9	11
461.1	8
461.2	12
461.3	14
461.4	14
461.7	12
461.8	14
461.9	16
462.0	16
462.1	12
462.3	8
462.4	11
462.5	15
462.6	17
462.7	14
463.0	10
463.1	15
463.2	19
463.3	20
463.4	16
463.7	10
463.8	16
463.9	19
464.0	17
464.1	11
464.3	9
464.4	15
464.5	18
464.6	15
464.7	9
464.9	7
465.0	14
465.1	20
465.2	19
465.3	12
465.5	8
465.6	14
465.7	20
465.8	21
465.9	16
466.0	10
466.2	6
466.3	10
466.4	13
466.5	13
466.8	10
466.9	12
467.0	15
467.1	15
467.2	12
467.5	7
467.6	14
467.7	19
467.8	18
467.9	12
468.1	6
468.2	10
468.3	14
468.4	16
468.5	15
468.7	12
468.8	14
468.9	18
469.0	18
469.1	16
469.4	13
469.5	16
469.6	18
469.7	17
469.8	14
470.1	10
470.2	15
470.3	18
470.4	18
470.5	14
470.7	11
470.8	15
470.9	19
471.0	18
471.1	13
471.3	8
471.4	12
471.5	17
471.6	18
471.7	16
471.8	11
472.0	9
472.1	13
472.2	14
472.3	12
472.5	10
472.6	13
472.7	16
472.8	17
472.9	14
473.0	9
473.2	7
473.3	12
473.4	17
473.5	21
473.6	21
473.7	17
473.8	12
474.5	9
474.6	13
474.7	15
474.8	15
474.9	13
475.1	11
475.2	13
475.3	15
475.4	16
475.5	13
475.8	9
475.9	13
476.0	16
476.1	15
476.2	10
476.4	7
476.5	13
476.6	19
476.7	19
476.8	15
477.0	8
477.1	12
477.2	16
477.3	18
477.4	17
477.5	13
477.7	10
477.8	12
477.9	16
478.0	18
478.1	17
478.2	13
478.4	10
478.5	13
478.6	15
478.7	14
478.8	11
479.0	9
479.1	14
479.2	19
479.3	21
479.4	17
479.5	10
479.7	9
479.8	14
479.9	18
480.0	17
480.1	13
480.3	12
480.4	15
480.5	15
480.6	14
480.7	10
480.9	8
481.0	11
481.1	14
481.2	15
481.3	12
481.5	8
481.6	12
481.7	17
481.8	18
481.9	15
482.8	6
482.9	9
483.0	14
483.1	16
483.2	13
483.5	9
483.6	13
483.7	16
483.8	14
484.1	10
484.2	14
484.3	19
484.4	19
484.5	16
484.6	12
484.8	11
484.9	14
485.0	17
485.1	16
485.2	11
485.4	9
485.5	13
485.6	17
485.7	19
485.8	16
486.6	9
486.7	12
486.8	17
486.9	17
487.0	14
487.3	10
487.4	15
487.5	19
487.6	19
487.7	15
487.9	8
488.0	12
488.1	17
488.2	17
488.3	14
488.6	8
488.7	14
488.8	19
488.9	19
489.0	13
489.2	6
489.3	10
489.4	15
489.5	16
489.6	11
489.8	2
489.9	6
490.0	14
490.1	19
490.2	18
490.3	13
491.1	9
491.2	14
491.3	18
491.4	18
491.5	13
491.8	7
491.9	13
492.0	17
492.1	17
492.2	12
492.4	7
492.5	13
492.6	21
492.7	23
492.8	19
492.9	13
493.6	9
493.7	11
493.8	15
493.9	19
494.0	19
494.1	15
494.2	10
494.4	9
494.5	13
494.6	17
494.7	18
494.8	14
494.9	10
495.6	7
495.7	10
495.8	15
495.9	16
496.0	14
496.3	10
496.4	13
496.5	16
496.6	16
496.7	14
498.2	10
498.3	14
498.4	17
498.5	17
498.6	12
498.8	7
498.9	12
499.0	17
499.1	19
499.2	16
499.3	12
499.5	11
499.6	14
499.7	16
499.8	15
500.6	8
500.7	10
500.8	14
500.9	19
501.0	21
501.1	18
501.2	11
501.4	6
501.5	12
501.6	19
501.7	22
501.8	19
501.9	14
502.7	6
502.8	11
502.9	16
503.0	16
503.1	11
503.3	8
503.4	13
503.5	18
503.6	20
503.7	16
504.0	12
504.1	15
504.2	18
504.3	17
504.4	13
504.6	8
504.7	12
504.8	17
504.9	19
505.0	15
505.2	9
505.3	12
505.4	16
505.5	16
505.6	10
505.8	2
505.9	8
506.0	17
506.1	21
506.2	19
506.3	13
506.5	9
506.6	13
506.7	14
506.8	12
507.1	8
507.2	12
507.3	15
507.4	16
507.5	14
507.8	9
507.9	13
508.0	17
508.1	19
508.2	17
508.3	13
508.5	11
508.6	14
508.7	15
508.8	12
509.0	8
509.1	12
509.2	18
509.3	22
509.4	21
509.5	16
509.7	10
509.8	13
509.9	18
510.0	19
510.1	17
511.0	9
511.1	12
511.2	14
511.3	14
511.4	13
511.6	10
511.7	13
511.8	17
511.9	20
512.0	18
512.1	11
512.3	6
512.4	11
512.5	16
512.6	15
512.7	11
512.9	8
513.0	13
513.1	18
513.2	20
513.3	15
513.6	8
513.7	14
513.8	18
513.9	16
514.2	11
514.3	16
514.4	18
514.5	16
514.8	12
514.9	17
515.0	20
515.1	21
515.2	17
515.5	10
515.6	16
515.7	21
515.8	20
515.9	14
516.1	8
516.2	12
516.3	16
516.4	17
516.5	14
516.7	8
516.8	11
516.9	15
517.0	18
517.1	17
517.2	15
517.5	10
517.6	16
517.7	20
517.8	19
517.9	13
518.1	7
518.2	13
518.3	17
518.4	16
518.6	6
518.7	10
518.8	18
518.9	22
519.0	20
519.1	15
519.3	11
519.4	13
519.5	16
519.6	16
519.7	13
519.9	7
520.0	10
520.1	15
520.2	18
520.3	16
520.4	9
520.6	5
520.7	8
520.8	12
520.9	13
521.2	11
521.3	13
521.4	16
521.5	16
521.6	13
521.9	8
522.0	12
522.1	15
522.2	14
522.3	10
522.5	7
522.6	11
522.7	15
522.8	18
522.9	18
523.0	13
523.2	9
523.3	13
523.4	17
523.5	16
523.6	11
523.8	5
523.9	10
524.0	16
524.1	18
524.2	15
525.1	9
525.2	15
525.3	20
525.4	18
525.5	12
525.7	10
525.8	16
525.9	20
526.0	19
526.1	14
526.3	9
526.4	12
526.5	16
526.6	18
526.7	14
527.0	6
527.1	14
527.2	20
527.3	20
527.4	15
527.6	9
527.7	13
527.8	16
527.9	16
528.0	11
528.2	7
528.3	11
528.4	17
528.5	20
528.6	18
528.7	14
528.9	11
529.0	13
529.1	16
529.2	15
529.3	12
529.5	5
529.6	7
529.7	14
529.8	20
529.9	20
530.0	15
530.2	7
530.3	12
530.4	18
530.5	18
530.6	13
530.8	5
530.9	9
531.0	14
531.1	17
531.2	15
531.4	10
531.5	13
531.6	19
531.7	22
531.8	20
531.9	15
532.1	10
532.2	15
532.3	20
532.4	20
532.5	14
532.7	8
532.8	11
532.9	17
533.0	19
533.1	16
533.2	10
533.4	5
533.5	10
533.6	16
533.7	19
533.8	17
533.9	12
534.1	10
534.2	14
534.3	15
534.4	13
534.6	8
534.7	12
534.8	17
534.9	20
535.0	17
535.1	12
535.3	8
535.4	14
535.5	21
535.6	21
535.7	14
536.6	7
536.7	14
536.8	18
536.9	17
537.0	12
537.2	4
537.3	8
537.4	15
537.5	20
537.6	20
537.7	14
537.9	8
538.0	14
538.1	18
538.2	17
538.3	11
538.5	8
538.6	12
538.7	17
538.8	18
538.9	15
539.1	8
539.2	11
539.3	16
539.4	19
539.5	16
539.8	9
539.9	15
540.0	20
540.1	20
540.2	14
540.4	7
540.5	11
540.6	17
540.7	19
540.8	17
541.1	11
541.2	15
541.3	18
541.4	17
541.5	12
541.7	6
541.8	10
541.9	15
542.0	17
542.1	16
542.4	12
542.5	15
542.6	16
542.7	15
542.8	11
543.0	7
543.1	10
543.2	16
543.3	19
543.4	17
543.5	11
543.7	9
543.8	13
543.9	15
544.0	13
544.2	6
544.3	9
544.4	16
544.5	20
544.6	18
544.7	13
544.9	7
545.0	10
545.1	15
545.2	17
545.3	15
546.1	8
546.2	11
546.3	16
546.4	18
546.5	18
546.6	15
546.8	12
546.9	14
547.0	18
547.1	19
547.2	17
547.3	12
547.5	9
547.6	14
547.7	18
547.8	19
547.9	15
548.1	11
548.2	15
548.3	20
548.4	21
548.5	17
548.6	9
548.8	5
548.9	11
549.0	16
549.1	17
549.2	13
549.4	9
549.5	13
549.6	16
549.7	16
549.8	12
550.0	8
550.1	13
550.2	18
550.3	20
550.4	17
550.5	11
550.7	10
550.8	14
550.9	17
551.0	15
551.1	11
551.3	10
551.4	14
551.5	18
551.6	19
551.7	14
551.8	8
552.0	6
552.1	12
552.2	17
552.3	16
552.4	11
552.6	8
552.7	13
552.8	18
552.9	18
553.0	14
553.1	10
553.8	7
553.9	10
554.0	15
554.1	18
554.2	15
554.3	9
554.5	6
554.6	12
554.7	18
554.8	20
554.9	16
555.1	7
555.2	11
555.3	19
555.4	25
555.5	23
555.6	15
555.8	4
555.9	9
556.0	16
556.1	19
556.2	17
556.4	11
556.5	14
556.6	18
556.7	21
556.8	18
556.9	11
557.1	8
557.2	15
557.3	20
557.4	19
557.5	13
557.7	8
557.8	12
557.9	16
558.0	16
558.1	12
558.3	5
558.4	9
558.5	15
558.6	19
558.7	17
558.8	11
559.0	7
559.1	11
559.2	14
559.3	13
559.6	9
559.7	13
559.8	17
559.9	17
560.0	13
560.2	7
560.3	10
560.4	16
560.5	20
560.6	17
560.7	11
560.9	8
561.0	13
561.1	18
561.2	19
561.3	14
561.5	5
561.6	9
561.7	16
561.8	19
561.9	17
562.0	11
562.2	10
562.3	15
562.4	18
562.5	17
562.6	13
562.8	10
562.9	14
563.0	18
563.1	20
563.2	16
563.5	12
563.6	17
563.7	19
563.8	19
563.9	14
564.2	9
564.3	14
564.4	16
564.5	14
564.8	9
564.9	15
565.0	19
565.1	19
565.2	15
565.4	8
565.5	11
565.6	16
565.7	20
565.8	18
565.9	12
566.1	9
566.2	14
566.3	19
566.4	19
566.5	14
566.7	10
566.8	14
566.9	17
567.0	16
567.3	10
567.4	15
567.5	18
567.6	16
567.7	10
567.9	7
568.0	12
568.1	18
568.2	21
568.3	18
568.4	12
568.6	8
568.7	11
568.8	13
568.9	14
569.0	13
569.1	13
569.2	14
569.3	16
569.4	19
569.5	20
569.6	18
569.7	14
569.9	9
570.0	12
570.1	16
570.2	17
570.3	14
570.5	9
570.6	12
570.7	16
570.8	18
570.9	15
571.0	10
571.2	8
571.3	13
571.4	18
571.5	19
571.6	16
571.8	11
571.9	14
572.0	17
572.1	18
572.2	14
572.4	9
572.5	12
572.6	16
572.7	16
572.8	13
573.0	9
573.1	12
573.2	18
573.3	22
573.4	19
573.5	12
573.7	8
573.8	14
573.9	20
574.0	21
574.1	16
574.2	9
574.4	9
574.5	14
574.6	17
574.7	16
574.9	11
575.0	13
575.1	17
575.2	18
575.3	14
575.4	8
575.6	6
575.7	12
575.8	18
575.9	20
576.0	18
576.1	11
576.3	7
576.4	13
576.5	17
576.6	16
576.7	10
576.9	6
577.0	11
577.1	16
577.2	18
577.3	17
577.4	14
577.6	13
577.7	16
577.8	19
577.9	19
578.0	16
578.1	13
578.7	7
578.8	10
578.9	15
579.0	19
579.1	19
579.2	15
579.3	9
579.5	8
579.6	12
579.7	16
579.8	15
579.9	13
580.1	10
580.2	13
580.3	17
580.4	19
580.5	16
580.7	10
580.8	13
580.9	19
581.0	21
581.1	18
581.2	12
581.4	9
581.5	12
581.6	15
581.7	15
581.8	11
582.0	4
582.1	7
582.2	13
582.3	16
582.4	15
582.7	8
582.8	14
582.9	19
583.0	17
583.1	11
583.3	10
583.4	14
583.5	16
583.6	14
583.8	9
583.9	11
584.0	16
584.1	19
584.2	17
584.3	11
584.5	5
584.6	8
584.7	13
584.8	17
584.9	18
585.0	15
585.8	7
585.9	12
586.0	19
586.1	22
586.2	18
586.3	12
586.5	8
586.6	12
586.7	17
586.8	18
586.9	14
587.1	6
587.2	11
587.3	18
587.4	20
587.5	16
587.6	9
587.8	7
587.9	13
588.0	19
588.1	19
588.2	15
588.5	10
588.6	15
588.7	18
588.8	16
588.9	10
589.1	6
589.2	9
589.3	12
589.4	13
589.5	11
589.7	7
589.8	10
589.9	15
590.0	16
590.1	13
590.2	8
590.4	7
590.5	11
590.6	15
590.7	14
590.8	9
591.0	5
591.1	10
591.2	16
591.3	19
591.4	16
591.7	9
591.8	15
591.9	20
592.0	17
592.1	10
592.3	6
592.4	10
592.5	13
592.6	14
592.9	12
593.0	15
593.1	18
593.2	17
593.3	13
593.5	11
593.6	15
593.7	20
593.8	21
593.9	18
594.0	12
594.2	8
594.3	12
594.4	16
594.5	17
594.6	16
594.7	13
595.4	3
595.5	7
595.6	15
595.7	21
595.8	21
595.9	17
596.0	12
596.2	10
596.3	14
596.4	17
596.5	16
596.6	13
596.8	10
596.9	15
597.0	18
597.1	16
597.4	11
597.5	17
597.6	21
597.7	19
597.8	13
597.9	7
598.1	6
598.2	12
598.3	17
598.4	17
598.5	13
598.7	11
598.8	15
598.9	17
599.0	15
599.1	11
599.3	8
599.4	12
599.5	18
599.6	19
