Mass spectrum: Auraptene; LC-ESI-QQQ; MS2; Frag=135.0V CID@25.0; [M+H]+
Name: Auraptene
Class: Benzopyranoids
Formula: C19H22O3
Exact mass: 298.3854
SMILES: CC(C)=CCC/C(C)=C/COc1ccc2ccc(=O)oc2c1
InChI: InChI=1S/C19H22O3/c1-14(2)5-4-6-15(3)11-12-21-17-9-7-16-8-10-19(20)22-18(16)13-17/h5,7-11,13H,4,6,12H2,1-3H3/b15-11+
Instrument: Agilent 6410 Triple Quadrupole LC/MS system
Instrument type: LC-ESI-QQQ
Ms type: MS2
Ion mode: POSITIVE
Precursor type: [M+H]+
m/z	relative intensity
80.6	1
80.7	3
80.8	4
80.9	7
81.0	8
81.1	9
81.2	8
81.3	7
81.4	5
81.5	3
90.7	2
90.8	3
90.9	4
91.0	5
91.1	5
91.2	5
91.3	4
91.4	3
91.5	2
106.5	1
106.6	2
106.7	3
106.8	5
106.9	8
107.0	10
107.1	10
107.2	10
107.3	8
107.4	6
107.5	3
118.5	1
118.6	2
118.7	4
118.8	6
118.9	8
119.0	10
119.1	10
119.2	9
119.3	7
119.4	5
119.5	2
162.2	0
162.3	1
162.4	4
162.5	11
162.6	21
162.7	36
162.8	54
162.9	74
163.0	91
163.1	99
163.2	96
163.3	82
163.4	58
163.5	30
163.6	8
163.7	0
174.7	2
174.8	3
174.9	4
175.0	5
175.1	5
175.2	4
175.3	4
175.4	2
