Mass spectrum: Amygdalin; LC-ESI-QQQ; MS2; Frag=135.0V CID@10.0; [M+H]+
Name: Amygdaloside
Name: Laenitrile
Name: Mandelonitrile-beta-gentiobioside
Name: Amygdalin
Class: Carbohydrates
Formula: C20H27NO11
Exact mass: 457.4383
SMILES: N#CC(O[C@@H]1O[C@H](CO[C@@H]2O[C@H](CO)[C@@H](O)[C@H](O)[C@H]2O)[C@@H](O)[C@H](O)[C@H]1O)c1ccccc1
InChI: InChI=1S/C20H27NO11/c21-6-10(9-4-2-1-3-5-9)30-20-18(28)16(26)14(24)12(32-20)8-29-19-17(27)15(25)13(23)11(7-22)31-19/h1-5,10-20,22-28H,7-8H2/t10?,11-,12-,13-,14-,15+,16+,17-,18-,19-,20-/m1/s1
Instrument: Agilent 6410 Triple Quadrupole LC/MS system
Instrument type: LC-ESI-QQQ
Ms type: MS2
Ion mode: POSITIVE
Precursor type: [M+H]+
m/z	relative intensity
295.3	2
295.4	4
295.5	7
295.6	13
295.7	25
295.8	43
295.9	67
296.0	88
296.1	99
296.2	95
296.3	74
296.4	43
296.5	15
296.6	1
457.3	0
457.4	2
457.5	6
457.6	13
457.7	25
457.8	45
457.9	68
458.0	84
458.1	89
458.2	87
458.3	83
458.4	70
458.5	46
458.6	18
458.7	1
