Mass spectrum: Trichodesmine; LC-ESI-QQQ; MS2; Frag=135.0V CID@5.0; [M+H]+
Name: Trichodesmine
Class: Alkaloids
Formula: C18H27NO6
Exact mass: 353.419
SMILES: CC(C)[C@H]1C(=O)OC2CCN3CC=C(COC(=O)C(C)(O)C1(C)O)[C@H]23
InChI: InChI=1S/C18H27NO6/c1-10(2)13-15(20)25-12-6-8-19-7-5-11(14(12)19)9-24-16(21)18(4,23)17(13,3)22/h5,10,12-14,22-23H,6-9H2,1-4H3/t12?,13-,14+,17?,18?/m0/s1
Instrument: Agilent 6410 Triple Quadrupole LC/MS system
Instrument type: LC-ESI-QQQ
Ms type: MS2
Ion mode: POSITIVE
Precursor type: [M+H]+
m/z	relative intensity
353.4	1
353.5	3
353.6	7
353.7	15
353.8	27
353.9	46
354.0	68
354.1	88
354.2	99
354.3	99
354.4	85
354.5	60
354.6	30
354.7	7
354.8	0
