Mass spectrum: laudanosine; LC-ESI-QQQ; MS2; Frag=135.0V CID@10.0; [M+H]+
Name: Laudanoside
Name: N-Methyltetrahydropapaverine
Name: 6,7-Dimethoxy-2-methyl-1-veratryl-1,2,3,4-tetrahydroisoquinoline
Name: 1-((3,4-dimethoxyphenyl)methyl)-6,7-dimethoxy-2-methyl-1,2,3,4-tetrahydroisoquinoline
Name: laudanosine
Class: Alkaloids
Formula: C21H27NO4
Exact mass: 357.4536
SMILES: COc1ccc(CC2c3cc(OC)c(OC)cc3CCN2C)cc1OC
InChI: InChI=1S/C21H27NO4/c1-22-9-8-15-12-20(25-4)21(26-5)13-16(15)17(22)10-14-6-7-18(23-2)19(11-14)24-3/h6-7,11-13,17H,8-10H2,1-5H3
Instrument: Agilent 6410 Triple Quadrupole LC/MS system
Instrument type: LC-ESI-QQQ
Ms type: MS2
Ion mode: POSITIVE
Precursor type: [M+H]+
m/z	relative intensity
188.7	1
188.8	2
188.9	4
189.0	5
189.1	5
189.2	5
189.3	5
189.4	3
189.5	2
205.3	0
205.4	2
205.5	6
205.6	13
205.7	25
205.8	42
205.9	61
206.0	77
206.1	87
206.2	89
206.3	83
206.4	68
206.5	44
206.6	20
206.7	2
326.8	2
326.9	3
327.0	4
327.1	5
327.2	6
327.3	5
327.4	4
327.5	3
357.4	1
357.5	3
357.6	8
357.7	16
357.8	28
357.9	45
358.0	65
358.1	84
358.2	97
358.3	99
358.4	88
358.5	63
358.6	32
358.7	7
358.8	0
