Mass spectrum: Phellamurin; LC-ESI-QQQ; MS2; Frag=135.0V CID@15.0; [M+H]+
Name: Phellamurin
Class: Flavonoids
Formula: C26H30O11
Exact mass: 518.5224
SMILES: CC(C)=CCc1c(O[C@@H]2O[C@H](CO)[C@@H](O)[C@H](O)[C@H]2O)cc(O)c2c1OC(c1ccc(O)cc1)C(O)C2=O
InChI: InChI=1S/C26H30O11/c1-11(2)3-8-14-16(35-26-23(34)21(32)19(30)17(10-27)36-26)9-15(29)18-20(31)22(33)24(37-25(14)18)12-4-6-13(28)7-5-12/h3-7,9,17,19,21-24,26-30,32-34H,8,10H2,1-2H3/t17-,19-,21+,22?,23-,24?,26-/m1/s1
Instrument: Agilent 6410 Triple Quadrupole LC/MS system
Instrument type: LC-ESI-QQQ
Ms type: MS2
Ion mode: POSITIVE
Precursor type: [M+H]+
m/z	relative intensity
220.6	2
220.7	4
220.8	7
220.9	10
221.0	14
221.1	16
221.2	16
221.3	12
221.4	7
221.5	3
254.6	1
254.7	3
254.8	6
254.9	10
255.0	12
255.1	13
255.2	12
255.3	8
255.4	4
300.6	1
300.7	3
300.8	6
300.9	8
301.0	10
301.1	10
301.2	9
301.3	7
301.4	3
310.5	2
310.6	3
310.7	5
310.8	9
310.9	13
311.0	18
311.1	21
311.2	22
311.3	19
311.4	13
311.5	5
311.6	0
338.6	1
338.7	3
338.8	5
338.9	8
339.0	10
339.1	12
339.2	13
339.3	12
339.4	9
339.5	5
339.6	1
356.3	1
356.4	2
356.5	4
356.6	8
356.7	16
356.8	32
356.9	54
357.0	77
357.1	94
357.2	99
357.3	92
357.4	71
357.5	41
357.6	14
357.7	0
