Mass spectrum: Yohimbic acid; LC-ESI-QQQ; MS; [M+H]+
Name: Yohimbic acid
Class: Alkaloids
Formula: C20H24N2O3
Exact mass: 340.4259
SMILES: O=C(O)[C@H]1[C@@H](O)CCC2CN3CCc4c([nH]c5ccccc45)[C@@H]3C[C@@H]21
InChI: InChI=1S/C20H24N2O3/c23-17-6-5-11-10-22-8-7-13-12-3-1-2-4-15(12)21-19(13)16(22)9-14(11)18(17)20(24)25/h1-4,11,14,16-18,21,23H,5-10H2,(H,24,25)/t11?,14-,16-,17-,18+/m0/s1
Instrument: ABSciex API3200 LC/MS system
Instrument type: LC-ESI-QQQ
Ms type: MS
Ion mode: POSITIVE
Precursor type: [M+H]+
m/z	relative intensity
143.4000	23
143.5000	91
143.6000	139
143.7000	166
143.8000	174
143.9000	179
144.0000	175
144.1000	168
144.2000	167
144.3000	142
144.4000	119
144.5000	57
144.6000	27
144.9000	22
145.2000	22
197.4000	22
197.5000	59
197.6000	81
197.7000	85
197.8000	95
197.9000	99
198.0000	109
198.1000	102
198.2000	86
198.3000	80
198.4000	75
198.5000	44
209.6000	27
209.7000	32
209.8000	35
209.9000	41
210.0000	40
210.1000	39
210.2000	31
210.3000	29
210.4000	27
340.2000	24
340.3000	58
340.4000	371
340.5000	701
340.6000	886
340.7000	946
340.8000	999
340.9000	960
341.0000	936
341.1000	899
341.2000	881
341.3000	811
341.4000	758
341.5000	540
341.6000	407
341.7000	405
341.8000	369
341.9000	374
342.0000	371
342.1000	377
342.2000	371
342.3000	350
342.4000	336
342.5000	165
342.6000	91
342.7000	90
342.8000	78
342.9000	71
343.0000	76
343.1000	78
343.2000	88
343.3000	59
343.4000	52
343.5000	25
372.5000	31
372.6000	51
372.7000	62
372.8000	66
372.9000	72
373.0000	74
373.1000	68
373.2000	64
373.3000	53
373.4000	53
373.5000	21
381.6000	25
381.7000	33
381.8000	39
381.9000	38
382.0000	36
382.1000	32
382.2000	29
382.3000	24
