Mass spectrum: 3',4',6-Trimethoxyflavanone; LC-ESI-QQQ; MS2; Frag=135.0V CID@15.0; [M+H]+
Name: 3',4',6-Trimethoxyflavanone
Class: Flavonoids
Formula: C18H18O5
Exact mass: 314.3412
SMILES: COc1ccc2c(c1)C(=O)CC(c1ccc(OC)c(OC)c1)O2
InChI: InChI=1S/C18H18O5/c1-20-12-5-7-15-13(9-12)14(19)10-17(23-15)11-4-6-16(21-2)18(8-11)22-3/h4-9,17H,10H2,1-3H3
Instrument: Agilent 6410 Triple Quadrupole LC/MS system
Instrument type: LC-ESI-QQQ
Ms type: MS2
Ion mode: POSITIVE
Precursor type: [M+H]+
m/z	relative intensity
150.3	0
150.4	2
150.5	6
150.6	13
150.7	23
150.8	35
150.9	47
151.0	57
151.1	60
151.2	57
151.3	49
151.4	34
151.5	18
151.6	4
162.7	2
162.8	3
162.9	4
163.0	6
163.1	7
163.2	7
163.3	6
163.4	5
163.5	3
176.4	1
176.5	3
176.6	6
176.7	10
176.8	16
176.9	23
177.0	28
177.1	30
177.2	29
177.3	25
177.4	18
177.5	9
177.6	2
190.3	0
190.4	3
190.5	8
190.6	17
190.7	31
190.8	51
190.9	74
191.0	91
191.1	99
191.2	97
191.3	85
191.4	63
191.5	35
191.6	11
191.7	0
254.7	2
254.8	4
254.9	5
255.0	7
255.1	9
255.2	9
255.3	9
255.4	7
255.5	4
255.6	1
282.8	2
282.9	4
283.0	5
283.1	6
283.2	7
283.3	6
283.4	5
283.5	3
314.4	0
314.5	2
314.6	5
314.7	10
314.8	17
314.9	26
315.0	34
315.1	39
315.2	42
315.3	40
315.4	32
315.5	19
315.6	7
315.7	0
