Mass spectrum: Sinomenine; LC-ESI-QQQ; MS2; Frag=135.0V CID@25.0; [M+H]+
Name: Kukoline
Name: Cocculine
Name: Cucoline
Name: 4-Hydroxy-3,7-dimethoxy-17-methylmorphin-7-en-6-one
Name: Sinomenine
Class: Alkaloids
Formula: C19H23NO4
Exact mass: 329.3995
SMILES: COC1=C[C@@H]2[C@@H]3Cc4ccc(OC)c(O)c4[C@]2(CCN3C)CC1=O
InChI: InChI=1S/C19H23NO4/c1-20-7-6-19-10-14(21)16(24-3)9-12(19)13(20)8-11-4-5-15(23-2)18(22)17(11)19/h4-5,9,12-13,22H,6-8,10H2,1-3H3/t12-,13+,19-/m1/s1
Instrument: Agilent 6410 Triple Quadrupole LC/MS system
Instrument type: LC-ESI-QQQ
Ms type: MS2
Ion mode: POSITIVE
Precursor type: [M+H]+
m/z	relative intensity
57.3	2
57.4	3
57.5	5
57.6	7
57.7	12
57.8	20
57.9	31
58.0	39
58.1	42
58.2	39
58.3	31
58.4	20
58.5	10
58.6	2
136.6	2
136.7	3
136.8	5
136.9	7
137.0	8
137.1	8
137.2	8
137.3	6
137.4	3
150.6	2
150.7	3
150.8	6
150.9	8
151.0	10
151.1	10
151.2	9
151.3	7
151.4	5
151.5	2
180.4	2
180.5	3
180.6	5
180.7	9
180.8	14
180.9	21
181.0	27
181.1	30
181.2	31
181.3	27
181.4	21
181.5	12
181.6	4
192.7	2
192.8	3
192.9	5
193.0	7
193.1	8
193.2	7
193.3	6
193.4	5
193.5	3
194.6	2
194.7	4
194.8	6
194.9	9
195.0	11
195.1	12
195.2	11
195.3	9
195.4	6
195.5	3
206.4	2
206.5	3
206.6	5
206.7	8
206.8	12
206.9	18
207.0	21
207.1	23
207.2	21
207.3	17
207.4	10
207.5	4
208.5	2
208.6	3
208.7	6
208.8	10
208.9	14
209.0	17
209.1	19
209.2	18
209.3	15
209.4	11
209.5	5
209.6	1
210.7	1
210.8	2
210.9	4
211.0	5
211.1	6
211.2	5
211.3	4
211.4	2
212.6	2
212.7	4
212.8	7
212.9	11
213.0	15
213.1	18
213.2	19
213.3	18
213.4	14
213.5	7
213.6	2
222.4	2
222.5	3
222.6	6
222.7	11
222.8	18
222.9	25
223.0	30
223.1	32
223.2	31
223.3	25
223.4	17
223.5	8
223.6	2
238.4	2
238.5	4
238.6	7
238.7	13
238.8	20
238.9	28
239.0	35
239.1	37
239.2	36
239.3	31
239.4	22
239.5	12
239.6	3
240.6	2
240.7	4
240.8	7
240.9	12
241.0	15
241.1	16
241.2	15
241.3	13
241.4	9
241.5	4
244.8	1
244.9	3
245.0	4
245.1	4
245.2	4
245.3	4
245.4	2
254.7	2
254.8	4
254.9	7
255.0	9
255.1	10
255.2	10
255.3	7
255.4	5
255.5	2
329.3	1
329.4	3
329.5	5
329.6	9
329.7	18
329.8	31
329.9	51
330.0	72
330.1	90
330.2	99
330.3	98
330.4	82
330.5	55
330.6	26
330.7	4
330.8	0
