Mass spectrum: Lapidin; LC-ESI-QQQ; MS2; Frag=135.0V CID@25.0; [M+Na]+
Name: Lapidin
Class: Terpenoids
Formula: C20H30O4
Exact mass: 334.4597
SMILES: C/C=C(\C)C(=O)O[C@H]1CC(C)=CC(=O)[C@@]2(C)CC[C@@](O)(C(C)C)[C@H]12
InChI: InChI=1S/C20H30O4/c1-7-14(5)18(22)24-15-10-13(4)11-16(21)19(6)8-9-20(23,12(2)3)17(15)19/h7,11-12,15,17,23H,8-10H2,1-6H3/b14-7+/t15-,17+,19+,20+/m0/s1
Instrument: Agilent 6410 Triple Quadrupole LC/MS system
Instrument type: LC-ESI-QQQ
Ms type: MS2
Ion mode: POSITIVE
Precursor type: [M+Na]+
m/z	relative intensity
50.8	6
50.9	6
51.0	7
51.1	8
51.2	8
51.3	7
51.4	7
51.5	6
52.3	3
52.4	6
52.5	9
52.6	8
53.6	3
53.7	4
53.8	6
53.9	8
54.0	10
54.1	11
54.2	9
55.7	6
55.8	8
55.9	8
56.0	7
56.1	6
56.2	5
56.9	5
57.0	6
57.1	8
57.2	9
57.3	8
57.4	5
57.6	4
57.7	6
57.8	6
57.9	6
58.0	5
58.1	5
58.2	6
58.3	8
58.4	10
58.5	9
59.4	4
59.5	5
59.6	6
59.7	7
59.8	6
59.9	6
60.0	6
60.1	6
60.2	5
60.3	5
60.4	6
60.5	6
60.6	5
60.7	4
60.8	5
60.9	8
61.0	9
61.1	7
63.0	4
63.1	6
63.2	8
63.3	8
63.4	8
63.5	8
63.6	7
63.7	7
63.8	7
63.9	8
64.0	7
64.1	6
64.2	8
64.3	10
64.4	10
64.5	7
66.9	4
67.0	5
67.1	6
67.2	7
67.3	7
67.4	7
67.5	6
67.6	6
67.7	8
67.8	10
67.9	9
68.0	7
69.4	5
69.5	7
69.6	8
69.7	8
69.8	7
69.9	7
70.0	7
70.1	6
70.2	5
70.3	5
70.4	5
71.4	3
71.5	4
71.6	5
71.7	5
71.8	4
71.9	5
72.0	6
72.1	7
72.2	7
72.3	6
72.4	6
72.5	7
72.6	7
72.7	7
72.8	7
72.9	8
74.1	4
74.2	6
74.3	7
74.4	8
74.5	10
74.6	11
74.7	10
74.8	6
75.9	8
76.0	9
76.1	9
76.2	10
76.3	10
76.4	8
78.2	3
78.3	5
78.4	8
78.5	9
78.8	6
78.9	9
79.0	9
79.1	8
79.2	6
80.6	3
80.7	4
80.8	4
80.9	4
81.0	6
81.1	8
81.2	9
81.3	8
81.4	6
81.7	5
81.8	7
81.9	9
82.0	9
82.1	7
82.2	6
82.3	6
82.5	4
82.6	5
82.7	8
82.8	8
82.9	6
83.0	6
83.1	8
83.2	8
83.3	6
83.5	4
83.6	7
83.7	7
83.8	5
83.9	5
84.0	6
84.1	8
84.2	8
84.3	8
84.4	7
84.7	4
84.8	7
84.9	9
85.0	8
85.1	6
85.5	5
85.6	6
85.7	8
85.8	9
85.9	8
86.0	7
86.1	6
87.3	4
87.4	6
87.5	7
87.6	5
87.7	4
87.8	6
87.9	8
88.0	8
88.1	8
88.2	7
88.3	8
88.4	8
88.5	6
88.6	5
88.7	4
88.9	2
89.0	4
89.1	6
89.2	7
90.3	4
90.4	5
90.5	7
90.6	7
90.7	6
90.8	5
91.0	3
91.1	5
91.2	7
91.3	8
92.0	3
92.1	6
92.2	8
92.3	7
92.4	7
92.5	7
92.6	7
92.7	7
92.8	6
93.2	5
93.3	7
93.4	8
93.5	8
93.6	8
93.7	8
93.8	8
93.9	7
97.3	3
97.4	5
97.5	6
97.6	7
97.7	7
97.8	5
98.0	4
98.1	5
98.2	6
98.3	6
98.4	7
98.5	9
98.6	8
99.4	2
99.5	4
99.6	5
99.7	6
99.8	7
99.9	7
100.0	7
100.1	9
100.2	9
101.1	4
101.2	5
101.3	6
101.4	8
101.5	8
101.6	6
101.8	3
101.9	7
102.0	8
102.1	7
102.2	6
102.3	7
102.4	8
102.5	8
102.6	7
102.7	7
102.8	9
102.9	10
103.0	9
105.3	4
105.4	6
105.5	7
105.6	8
105.7	8
106.0	6
106.1	8
106.2	10
106.3	9
106.4	8
106.5	8
106.6	8
106.7	6
107.4	4
107.5	7
107.6	9
107.7	8
107.8	6
107.9	4
108.1	2
108.2	3
108.3	5
108.6	1
108.7	5
108.8	9
108.9	9
109.0	8
109.1	8
109.2	10
109.3	10
109.4	8
109.5	7
109.8	6
109.9	7
110.0	8
110.1	7
110.3	5
110.4	7
110.5	9
110.6	8
112.5	5
112.6	7
112.7	8
113.8	5
113.9	9
114.0	10
114.1	9
114.2	9
114.3	8
114.4	7
115.0	3
115.1	5
115.2	7
115.3	7
115.4	6
115.5	6
115.6	7
115.7	7
115.8	7
115.9	7
116.0	8
116.1	8
116.4	5
116.5	7
116.6	9
116.7	9
116.8	7
116.9	4
117.1	3
117.2	6
117.3	9
117.4	9
117.5	6
117.6	3
117.8	1
117.9	3
118.0	6
118.1	9
118.2	8
118.3	5
118.7	5
118.8	5
118.9	6
119.0	7
119.1	7
119.2	6
119.3	6
119.4	6
119.5	5
119.7	2
119.8	5
119.9	7
120.0	5
120.1	4
120.2	5
120.3	7
120.4	9
120.5	8
120.6	8
120.7	8
120.8	8
120.9	8
121.0	8
121.1	8
121.2	7
121.3	6
121.4	5
121.5	4
121.7	1
121.8	3
121.9	7
122.0	10
122.1	7
123.6	3
123.7	6
123.8	6
123.9	6
124.0	7
124.1	9
124.2	8
124.3	7
124.4	7
124.5	9
124.6	9
125.6	2
125.7	3
125.8	6
125.9	7
126.0	6
126.1	5
126.2	6
126.3	8
126.4	7
126.5	5
126.6	4
126.9	3
127.0	6
127.1	9
127.2	9
127.5	6
127.6	8
127.7	9
127.8	8
127.9	8
128.0	7
128.3	6
128.4	7
128.5	7
128.6	6
128.7	7
128.8	7
128.9	7
129.5	5
129.6	7
129.7	8
131.1	7
131.2	8
131.3	9
131.4	10
131.5	9
131.6	7
131.7	6
133.4	3
133.5	6
133.6	8
133.7	7
133.8	5
133.9	6
134.0	6
134.1	5
134.2	5
134.3	7
134.4	9
134.5	8
134.6	8
134.7	8
134.8	8
134.9	6
136.0	4
136.1	5
136.2	5
136.3	5
136.4	7
136.5	10
136.6	10
136.7	8
137.0	7
137.1	7
137.2	10
137.3	14
137.4	15
137.5	12
137.6	9
138.9	4
139.0	6
139.1	8
139.2	8
139.3	7
139.4	6
139.7	5
139.8	7
139.9	9
140.0	8
140.1	5
140.6	5
140.7	7
140.8	9
140.9	9
141.2	7
141.3	8
141.4	8
141.5	8
141.6	7
143.9	5
144.0	5
144.1	6
144.2	7
144.3	5
146.2	4
146.3	7
146.4	8
146.5	7
147.5	2
147.6	4
147.7	6
147.8	7
147.9	8
148.0	8
148.1	7
148.9	6
149.0	8
149.1	10
149.2	12
149.3	11
149.4	8
150.1	5
150.2	7
150.3	8
150.4	9
150.5	9
150.6	8
150.7	7
154.3	3
154.4	5
154.5	5
154.6	5
154.7	5
154.8	5
154.9	5
155.0	5
155.1	5
155.2	7
155.3	8
155.4	9
155.5	8
155.6	8
155.7	8
155.8	8
155.9	8
156.0	7
156.1	5
156.3	2
156.4	4
156.5	7
156.6	8
156.7	8
156.8	6
157.1	5
157.2	7
157.3	9
157.4	10
157.5	9
157.6	6
158.0	6
158.1	6
158.2	8
158.3	9
158.4	8
159.4	5
159.5	8
159.6	11
159.7	10
159.8	8
159.9	6
160.1	5
160.2	6
160.3	8
160.4	7
160.6	1
160.7	3
160.8	11
160.9	21
161.0	28
161.1	30
161.2	26
161.3	16
161.4	6
161.6	3
161.7	6
161.8	6
161.9	7
162.0	7
162.3	5
162.4	7
162.5	7
163.5	2
163.6	4
163.7	7
163.8	10
163.9	10
164.0	8
164.6	6
164.7	7
164.8	7
164.9	7
165.0	8
165.1	10
165.2	9
165.3	8
166.3	5
166.4	7
166.5	8
166.6	8
166.7	8
166.8	7
167.4	5
167.5	6
167.6	8
167.7	9
167.8	8
167.9	6
168.2	6
168.3	7
168.4	9
168.5	10
168.6	7
168.7	4
168.9	3
169.0	4
169.1	5
169.2	7
169.3	9
169.4	9
169.5	7
169.6	5
170.6	4
170.7	5
170.8	5
170.9	5
171.0	5
171.1	7
171.2	7
171.3	7
171.4	6
171.7	4
171.8	6
171.9	8
172.0	9
172.1	9
172.2	9
172.3	9
172.4	7
172.6	3
172.7	5
172.8	8
172.9	9
173.0	8
173.1	6
173.2	5
173.4	2
173.5	4
173.6	6
173.7	7
173.8	5
173.9	5
174.0	6
174.1	7
175.4	5
175.5	5
175.6	6
175.7	8
175.8	9
175.9	9
176.0	8
176.1	9
176.2	9
176.3	8
176.4	6
176.5	5
176.8	4
176.9	7
177.0	9
177.1	7
177.7	4
177.8	6
177.9	9
178.0	9
178.1	7
178.2	7
178.3	7
178.6	6
178.7	7
178.8	9
178.9	8
179.3	7
179.4	8
179.5	9
179.6	9
179.7	7
180.5	5
180.6	6
180.7	7
180.8	8
180.9	7
182.3	4
182.4	5
182.5	8
182.6	9
182.7	7
182.8	6
182.9	7
183.0	10
183.1	10
183.2	9
183.3	8
183.4	9
183.5	8
183.8	5
183.9	7
184.0	8
184.1	7
184.2	6
184.3	5
184.5	2
184.6	5
184.7	8
184.8	9
184.9	8
185.0	8
185.1	9
185.2	8
190.8	4
190.9	6
191.0	9
191.1	10
191.2	8
191.9	6
192.0	8
192.1	8
192.2	8
192.3	8
192.4	8
192.5	7
192.9	7
193.0	7
193.1	9
193.2	9
193.5	5
193.6	9
193.7	12
193.8	11
193.9	8
194.0	7
194.1	7
194.4	4
194.5	6
194.6	8
194.7	7
194.8	5
196.1	5
196.2	6
196.3	8
196.4	8
196.5	8
196.6	8
196.7	8
196.8	7
196.9	5
199.5	5
199.6	6
199.7	7
199.8	7
199.9	7
200.0	7
200.1	6
200.7	5
200.8	6
200.9	8
201.0	8
201.1	6
201.4	6
201.5	6
201.6	7
201.7	9
201.8	11
201.9	10
202.0	6
202.1	5
203.7	6
203.8	8
203.9	9
204.0	9
204.1	7
204.2	4
205.1	2
205.2	5
205.3	8
205.4	7
205.5	6
205.6	6
205.9	4
206.0	7
206.1	10
206.2	10
206.3	9
206.4	8
206.7	5
206.8	7
206.9	9
207.0	10
207.1	8
207.2	6
208.1	3
208.2	5
208.3	8
208.4	10
208.5	9
208.6	6
208.7	3
208.9	2
209.0	4
209.1	6
209.2	7
209.3	7
209.4	7
210.1	5
210.2	8
210.3	10
210.4	9
211.6	7
211.7	7
211.8	7
211.9	8
212.0	8
212.1	6
212.3	3
212.4	6
212.5	9
212.6	7
213.6	5
213.7	7
213.8	8
213.9	8
214.0	8
214.1	10
214.2	11
214.3	9
215.1	5
215.2	7
215.3	8
215.4	8
215.5	7
215.6	6
215.7	5
215.8	5
216.0	2
216.1	4
216.2	7
216.3	10
216.4	9
216.5	7
216.6	6
217.2	6
217.3	6
217.4	7
217.5	8
217.6	8
217.7	6
218.6	4
218.7	6
218.8	9
218.9	9
219.0	7
220.3	6
220.4	7
220.5	9
220.6	9
221.7	6
221.8	7
221.9	8
222.0	7
222.1	6
222.2	6
222.5	4
222.6	5
222.7	7
222.8	7
222.9	6
223.0	6
223.1	7
223.2	7
223.3	6
223.4	7
223.5	9
223.6	9
223.7	7
223.8	5
224.2	4
224.3	6
224.4	9
224.5	10
224.6	9
224.7	9
224.8	9
224.9	8
225.0	6
225.1	5
225.4	4
225.5	5
225.6	7
225.7	7
225.8	6
225.9	6
226.0	7
226.1	7
226.2	5
226.5	3
226.6	4
226.7	6
226.8	7
226.9	8
227.0	7
231.0	5
231.1	6
231.2	8
231.3	8
231.4	6
231.5	6
231.6	6
231.7	5
232.2	5
232.3	6
232.4	7
232.5	7
232.6	6
234.5	7
234.6	8
234.7	9
234.8	9
234.9	9
235.0	8
235.1	6
235.8	4
235.9	6
236.0	7
236.1	7
236.2	7
236.3	7
236.4	5
236.5	2
236.7	1
236.8	3
236.9	4
237.0	3
237.1	4
237.2	6
237.3	7
237.4	7
237.5	7
237.6	6
239.8	4
239.9	5
240.0	6
240.1	6
240.2	7
240.3	6
240.4	5
240.5	7
240.6	9
240.7	9
240.8	7
240.9	6
241.0	9
241.1	10
241.4	8
241.5	10
241.6	11
241.7	10
241.8	9
241.9	9
242.0	7
242.1	5
242.5	4
242.6	5
242.7	8
242.8	8
242.9	7
243.0	6
243.1	8
243.2	9
243.3	7
243.6	4
243.7	6
243.8	6
243.9	7
244.0	7
244.1	7
244.7	6
244.8	7
244.9	8
245.0	9
245.1	8
245.2	8
245.3	9
245.4	8
245.5	7
245.6	5
247.2	4
247.3	6
247.4	7
247.5	6
247.6	5
247.7	6
247.8	7
247.9	8
249.9	5
250.0	6
250.1	7
250.2	6
250.3	7
250.4	8
250.5	7
252.6	5
252.7	5
252.8	6
252.9	7
253.0	8
253.1	7
253.9	2
254.0	3
254.1	6
254.2	8
254.3	7
255.4	5
255.5	9
255.6	12
255.7	12
255.8	10
255.9	9
256.0	8
256.6	2
256.7	5
256.8	11
256.9	14
257.0	11
257.1	6
257.2	5
258.3	4
258.4	6
258.5	8
258.6	8
260.1	5
260.2	7
260.3	7
260.4	7
260.5	7
260.6	9
260.7	8
260.8	7
260.9	5
261.3	5
261.4	6
261.5	7
261.6	8
261.7	8
261.8	9
261.9	10
262.0	10
262.1	9
264.3	4
264.4	6
264.5	7
264.8	4
264.9	6
265.0	7
265.1	7
265.2	6
265.5	5
265.6	7
265.7	9
265.8	9
268.0	5
268.1	5
268.2	6
268.3	7
268.4	7
268.5	6
268.6	6
268.7	6
268.8	8
268.9	8
269.0	8
269.1	8
269.2	7
269.4	5
269.5	7
269.6	9
269.7	9
269.8	7
270.8	6
270.9	8
271.0	9
271.1	8
271.2	8
271.3	8
271.4	7
271.6	5
271.7	7
271.8	9
271.9	8
272.8	3
272.9	5
273.0	7
273.1	8
273.2	6
273.5	3
273.6	4
273.7	6
273.8	8
273.9	9
274.0	7
274.2	5
274.3	7
274.4	8
275.1	5
275.2	7
275.3	8
275.4	8
275.5	7
275.6	6
275.8	4
275.9	5
276.0	8
276.1	9
276.2	9
276.3	8
276.4	9
276.5	10
276.6	8
276.7	7
276.8	6
278.2	5
278.3	6
278.4	7
278.5	7
279.7	4
279.8	6
279.9	8
280.0	9
280.1	8
280.2	8
280.3	7
280.6	4
280.7	6
280.8	7
280.9	5
281.2	4
281.3	5
281.4	6
281.5	8
281.6	10
281.7	8
281.8	6
281.9	6
283.6	4
283.7	7
283.8	7
284.1	5
284.2	7
284.3	8
284.4	9
284.5	9
285.5	5
285.6	4
285.7	6
285.8	10
285.9	11
286.0	7
286.2	2
286.3	5
286.4	8
286.5	8
286.6	8
286.7	8
286.8	8
286.9	8
287.0	8
287.1	8
287.4	4
287.5	7
287.6	8
287.7	6
287.8	5
287.9	6
288.0	7
288.1	6
288.2	5
288.3	4
288.7	4
288.8	6
288.9	7
289.0	6
289.1	6
289.2	5
289.3	6
289.4	7
289.5	9
289.6	10
289.7	9
289.8	7
290.7	5
290.8	5
290.9	7
291.0	8
291.1	6
291.5	5
291.6	5
291.7	6
291.8	6
291.9	5
292.1	2
292.2	5
292.3	8
292.4	8
292.5	8
292.6	7
292.9	6
293.0	7
293.1	8
293.2	9
293.3	10
293.4	11
293.5	10
293.6	7
294.7	4
294.8	6
294.9	7
295.0	7
295.1	7
296.4	8
296.5	9
296.6	10
296.7	11
296.8	10
296.9	10
297.8	5
297.9	7
298.0	8
298.1	8
298.2	7
298.5	3
298.6	7
298.7	8
299.6	4
299.7	4
299.8	6
299.9	8
300.0	7
301.8	5
301.9	6
302.0	8
302.1	8
302.9	6
303.0	7
303.1	8
303.2	9
303.3	9
303.4	7
303.6	4
303.7	7
303.8	9
303.9	9
304.0	9
304.1	9
304.2	9
304.3	8
304.9	3
305.0	6
305.1	9
305.2	8
305.3	7
305.7	6
305.8	7
305.9	9
306.0	8
307.4	6
307.5	7
307.6	9
307.7	8
307.8	7
307.9	6
309.1	2
309.2	3
309.3	5
309.4	4
309.5	4
309.6	4
309.7	5
309.8	5
309.9	4
310.1	2
310.2	3
310.3	6
310.4	9
310.5	10
310.6	10
312.1	5
312.2	7
312.3	9
312.4	9
312.5	7
312.6	7
312.7	6
313.0	3
313.1	6
313.2	9
313.3	9
313.4	8
313.5	7
313.8	5
313.9	7
314.0	9
314.1	8
316.4	4
316.5	7
316.6	8
316.7	7
317.0	4
317.1	5
317.2	6
317.3	8
317.4	9
317.5	9
317.6	7
319.5	5
319.6	7
319.7	6
319.8	6
319.9	6
321.9	5
322.0	6
322.1	7
322.2	7
322.3	7
322.4	7
322.5	7
322.6	6
322.7	6
322.8	6
322.9	7
323.0	6
323.3	4
323.4	6
323.5	7
323.6	7
323.7	9
323.8	10
323.9	8
324.2	6
324.3	7
324.4	7
324.5	7
324.6	8
324.7	9
324.8	9
324.9	8
325.0	8
325.1	7
327.9	2
328.0	5
328.1	9
328.2	10
328.3	8
328.4	5
328.6	3
328.7	5
328.8	8
328.9	10
329.0	10
329.1	8
329.2	6
330.1	5
330.2	6
330.3	7
330.4	7
330.5	7
330.6	7
332.4	4
332.5	5
332.6	7
332.7	10
332.8	11
332.9	8
333.1	7
333.2	9
333.3	10
333.4	9
333.5	7
333.8	5
333.9	6
334.0	6
334.1	7
334.2	8
334.3	9
334.4	10
334.5	9
334.6	6
337.3	3
337.4	5
337.5	6
337.6	5
337.7	5
337.8	5
337.9	6
338.0	6
338.1	5
338.2	5
338.3	6
338.4	7
338.5	7
338.6	7
338.7	8
338.8	8
338.9	8
339.0	8
340.3	3
340.4	6
340.5	9
340.6	9
340.7	7
342.0	3
342.1	5
342.2	8
342.3	9
342.4	9
342.5	9
342.6	9
343.6	2
343.7	3
343.8	5
343.9	6
344.0	6
344.1	6
344.2	7
344.3	8
344.6	6
344.7	8
344.8	8
344.9	7
345.0	5
345.3	4
345.4	6
345.5	9
345.6	10
345.7	8
345.8	5
346.2	4
346.3	5
346.4	7
346.5	7
346.6	6
346.9	5
347.0	5
347.1	6
347.2	9
347.3	9
347.4	6
348.0	4
348.1	7
348.2	10
348.3	9
348.4	7
348.7	7
348.8	8
348.9	9
349.0	9
349.1	7
350.5	4
350.6	6
350.7	7
351.0	4
351.1	7
351.2	7
351.3	5
351.4	5
351.5	7
351.6	8
351.7	8
351.8	8
351.9	9
352.0	9
352.1	7
356.5	5
356.6	6
356.7	8
356.8	8
356.9	8
357.0	8
357.3	5
357.4	7
357.5	9
357.6	8
357.7	6
358.0	5
358.1	6
358.2	7
358.3	8
358.6	5
358.7	7
358.8	10
358.9	9
360.8	1
360.9	3
361.0	6
361.1	7
361.2	7
361.3	6
361.4	6
361.7	4
361.8	6
361.9	7
362.0	6
362.1	5
362.2	6
362.3	7
362.4	7
362.5	8
362.6	8
362.7	6
362.9	5
363.0	6
363.1	7
363.2	7
363.3	5
363.4	5
363.7	2
363.8	5
363.9	8
364.0	8
364.1	6
364.2	4
364.3	4
364.6	2
364.7	4
364.8	6
364.9	5
365.0	5
365.1	6
365.2	7
365.5	5
365.6	6
365.7	6
365.8	6
365.9	8
366.0	11
366.1	12
366.2	9
367.6	4
367.7	8
367.8	10
367.9	8
368.0	5
368.5	4
368.6	6
368.7	7
368.8	8
368.9	10
369.0	11
369.1	9
369.2	6
369.4	3
369.5	6
369.6	7
369.7	8
369.8	7
370.1	4
370.2	7
370.3	9
370.4	8
371.3	4
371.4	3
371.5	6
371.6	8
371.7	7
371.8	5
372.0	4
372.1	6
372.2	6
372.3	7
372.4	9
372.5	9
372.6	7
372.7	4
373.0	4
373.1	4
373.2	7
373.3	10
373.4	11
373.5	8
373.6	5
373.9	4
374.0	5
374.1	7
374.2	8
374.3	6
374.6	6
374.7	7
374.8	8
374.9	9
375.0	9
375.1	8
375.4	6
375.5	7
375.6	7
375.7	8
375.8	10
375.9	11
376.0	9
376.1	6
376.5	5
376.6	6
376.7	9
376.8	10
376.9	9
377.0	7
377.1	6
377.2	4
377.5	3
377.6	5
377.7	6
377.8	6
377.9	7
378.0	7
378.1	6
378.6	5
378.7	6
378.8	9
378.9	9
379.9	7
380.0	8
380.1	9
380.2	9
382.9	3
383.0	5
383.1	7
383.2	7
383.5	6
383.6	7
383.7	8
383.8	9
383.9	10
384.0	9
384.1	7
384.3	5
384.4	8
384.5	8
384.6	7
384.9	4
385.0	6
385.1	8
385.2	8
385.3	7
385.5	5
385.6	7
385.7	8
385.8	8
385.9	8
386.0	7
386.3	5
386.4	7
386.5	9
386.6	9
388.5	5
388.6	8
388.7	9
388.8	8
388.9	6
389.0	6
389.1	6
389.4	3
389.5	5
389.6	6
389.7	5
389.8	6
389.9	7
390.0	8
390.1	7
390.2	7
390.3	6
390.4	7
390.5	7
390.6	7
390.7	7
390.8	7
391.5	3
391.6	5
391.7	7
391.8	6
392.8	2
392.9	5
393.0	7
393.1	8
393.2	7
393.3	8
393.4	8
393.5	7
393.6	7
393.7	8
393.8	10
393.9	10
394.0	8
394.1	7
396.1	5
396.2	6
396.3	7
396.4	7
396.5	7
396.6	8
396.7	9
396.8	7
398.0	5
398.1	6
398.2	6
398.3	6
398.4	7
398.5	8
400.5	5
400.6	7
400.7	9
400.8	9
400.9	9
401.0	8
401.1	6
401.3	5
401.4	7
401.5	8
401.6	7
401.7	4
401.8	4
402.1	2
402.2	4
402.3	7
402.4	8
402.5	7
402.6	6
402.7	6
403.8	4
403.9	5
404.0	8
404.1	9
404.2	8
404.3	6
404.6	5
404.7	6
404.8	7
404.9	8
405.0	8
405.6	5
405.7	7
405.8	8
405.9	7
406.0	7
406.1	7
406.2	7
408.1	4
408.2	7
408.3	9
408.4	9
408.5	7
409.8	4
409.9	6
410.0	8
410.1	7
410.2	5
410.4	4
410.5	5
410.6	8
410.7	10
410.8	10
410.9	6
411.1	1
411.2	6
411.3	9
411.4	9
411.5	7
412.8	4
412.9	6
413.0	6
413.3	5
413.4	6
413.5	7
413.6	7
413.7	9
413.8	10
413.9	7
414.2	5
414.3	8
414.4	9
414.5	10
414.6	11
414.7	10
414.8	8
415.5	5
415.6	6
415.7	6
415.8	7
415.9	8
416.0	8
416.1	7
416.2	7
416.3	6
416.4	6
416.5	5
416.8	4
416.9	5
417.0	5
417.1	5
417.2	7
417.3	8
417.4	7
417.5	7
417.6	7
417.7	8
417.8	8
417.9	8
418.0	8
418.1	9
418.2	8
418.3	6
420.6	4
420.7	5
420.8	5
420.9	5
421.0	7
421.1	10
421.2	10
422.1	6
422.2	7
422.3	8
422.4	7
424.2	4
424.3	5
424.4	7
424.5	8
424.6	7
424.7	7
424.8	8
424.9	9
425.0	8
425.1	7
425.2	7
425.3	7
425.4	7
425.5	6
425.6	6
425.7	7
425.8	7
425.9	5
426.8	5
426.9	7
427.0	9
427.1	8
427.8	5
427.9	7
428.0	9
428.1	8
429.9	3
430.0	5
430.1	9
430.2	9
430.3	6
430.7	5
430.8	6
430.9	7
431.0	7
431.1	6
431.2	6
431.3	7
431.4	7
431.5	6
431.6	7
431.7	8
432.0	5
432.1	8
432.2	9
432.3	7
432.6	3
432.7	5
432.8	6
432.9	7
433.0	6
434.7	5
434.8	7
434.9	8
435.0	8
435.1	9
435.2	7
435.4	5
435.5	8
435.6	11
435.7	11
435.8	8
437.2	4
437.3	6
437.4	7
437.5	6
437.6	5
437.7	6
437.8	7
437.9	6
438.0	6
438.1	6
438.4	5
438.5	7
438.6	9
438.7	9
438.8	8
438.9	8
439.0	8
439.1	7
440.6	5
440.7	7
440.8	7
440.9	6
441.0	6
441.1	7
441.2	7
441.3	7
441.4	7
441.5	8
441.6	8
441.8	5
441.9	7
442.0	10
442.1	10
442.2	9
442.4	7
442.5	9
442.6	10
442.7	10
442.8	10
442.9	9
443.0	8
443.1	7
443.2	8
443.5	4
443.6	7
443.7	10
443.8	9
443.9	6
445.4	6
445.5	7
445.6	7
445.7	8
445.8	8
445.9	6
446.2	3
446.3	6
446.4	8
446.5	8
446.6	8
446.7	7
446.8	5
447.8	3
447.9	6
448.0	6
448.1	6
448.2	6
448.3	8
448.4	9
448.5	8
448.9	7
449.0	7
449.1	7
449.2	8
449.3	8
451.2	4
451.3	7
451.4	8
451.7	5
451.8	7
451.9	7
452.0	6
452.1	6
452.2	8
452.3	9
452.4	8
452.5	5
452.8	5
452.9	6
453.0	7
453.1	8
453.2	8
453.3	8
453.4	6
453.5	5
454.3	4
454.4	6
454.5	7
454.6	8
454.7	8
454.8	7
455.0	2
455.1	5
455.2	9
455.3	8
455.4	5
456.5	5
456.6	6
456.7	7
456.8	7
456.9	6
457.5	4
457.6	5
457.7	8
457.8	8
459.3	5
459.4	6
459.5	7
459.6	8
459.7	7
459.8	7
459.9	8
460.0	8
460.1	7
461.0	5
461.1	7
461.2	9
461.3	9
461.4	6
461.6	4
461.7	6
461.8	7
461.9	8
462.0	9
462.1	8
463.1	6
463.2	8
463.3	11
463.4	10
464.5	4
464.6	7
464.7	8
464.8	7
464.9	6
465.0	6
465.1	7
465.2	7
465.3	6
465.4	6
465.5	6
465.6	5
465.7	5
465.8	5
465.9	6
466.2	5
466.3	7
466.4	8
466.5	8
466.6	7
466.7	7
466.8	7
467.2	6
467.3	6
467.4	7
467.5	8
467.6	8
467.7	6
468.2	6
468.3	6
468.4	8
468.5	9
468.8	6
468.9	8
469.0	9
469.1	10
469.2	11
469.3	11
469.4	9
470.0	5
470.1	7
470.2	10
470.3	9
470.4	8
470.5	7
471.6	4
471.7	6
471.8	8
471.9	9
472.0	8
472.1	7
472.2	8
472.3	7
474.6	3
474.7	5
474.8	8
474.9	8
475.0	5
475.4	4
475.5	4
475.6	6
475.7	8
475.8	7
476.2	6
476.3	6
476.4	7
476.5	9
476.6	10
476.7	8
477.6	5
477.7	6
477.8	8
477.9	9
479.1	6
479.2	7
479.3	8
479.4	9
479.5	8
479.8	6
479.9	8
480.0	10
480.1	10
480.2	8
480.3	7
481.1	3
481.2	6
481.3	7
481.4	6
481.5	5
481.6	6
481.7	7
481.8	7
481.9	6
482.0	7
482.1	7
482.2	6
483.3	4
483.4	6
483.5	7
483.6	6
483.7	6
483.8	6
483.9	7
484.0	8
484.1	8
484.2	8
484.3	7
485.5	3
485.6	5
485.7	7
485.8	9
485.9	9
486.0	7
487.0	5
487.1	6
487.2	8
487.3	9
487.4	9
487.5	8
487.6	7
488.8	5
488.9	7
489.0	7
489.1	7
489.2	7
489.3	8
489.4	8
490.0	5
490.1	7
490.2	9
490.3	10
490.4	9
491.4	3
491.5	6
491.6	6
491.7	6
491.8	6
491.9	7
492.0	7
492.1	6
492.2	6
492.3	6
492.4	5
493.0	5
493.1	6
493.2	7
493.3	6
493.4	5
493.5	5
493.6	6
493.7	6
493.8	5
493.9	7
494.0	10
494.1	10
494.2	8
496.9	3
497.0	5
497.1	6
497.2	7
497.3	6
497.4	7
497.5	7
497.6	7
497.7	7
497.8	9
497.9	10
498.0	9
