Mass spectrum: Rizinsan A; LC-ESI-QQQ; MS2; Frag=135.0V CID@25.0; [M+H]+
Name: Rizinsan A
Class: Terpenoids
Formula: C42H65NO16
Exact mass: 839.9835
SMILES: CC12CC[C@](C)(C(=O)O)CC1C1=CC(=O)[C@@H]3C4(C)CC[C@H](O[C@@H]5O[C@@H](C(=O)O)[C@H](O)[C@@H](O)[C@@H]5O[C@H]5O[C@@H](C(=O)O)[C@H](O)[C@@H](O)[C@@H]5O)C(C)(C)[C@@H]4CCC3(C)[C@]1(C)CC2.N
InChI: InChI=1S/C42H62O16.H3N/c1-37(2)21-8-11-42(7)31(20(43)16-18-19-17-39(4,36(53)54)13-12-38(19,3)14-15-41(18,42)6)40(21,5)10-9-22(37)55-35-30(26(47)25(46)29(57-35)33(51)52)58-34-27(48)23(44)24(45)28(56-34)32(49)50;/h16,19,21-31,34-35,44-48H,8-15,17H2,1-7H3,(H,49,50)(H,51,52)(H,53,54);1H3/t19?,21-,22-,23+,24+,25+,26+,27-,28+,29+,30-,31+,34+,35+,38?,39-,40?,41+,42?;/m0./s1
Instrument: Agilent 6410 Triple Quadrupole LC/MS system
Instrument type: LC-ESI-QQQ
Ms type: MS2
Ion mode: POSITIVE
Precursor type: [M+H]+
m/z	relative intensity
452.2	2
452.3	3
452.4	6
452.5	9
452.6	15
452.7	24
452.8	39
452.9	60
453.0	81
453.1	97
453.2	99
453.3	87
453.4	62
453.5	33
453.6	10
453.7	0
