Mass spectrum: 2-Deoxycrustecdysone; LC-ESI-QQQ; MS; [M+H]+
Name: 2-Deoxycrustecdysone
Class: Steroids
Formula: C27H44O6
Exact mass: 464.6481
SMILES: CC(C)(O)CC[C@@H](O)[C@](C)(O)C1CC[C@@]2(O)C3=CC(=O)[C@@H]4C[C@@H](O)CC[C@]4(C)C3CC[C@]12C
InChI: InChI=1S/C27H44O6/c1-23(2,31)10-9-22(30)26(5,32)21-8-13-27(33)18-15-20(29)19-14-16(28)6-11-24(19,3)17(18)7-12-25(21,27)4/h15-17,19,21-22,28,30-33H,6-14H2,1-5H3/t16-,17?,19-,21?,22+,24+,25+,26+,27+/m0/s1
Instrument: ABSciex API3200 LC/MS system
Instrument type: LC-ESI-QQQ
Ms type: MS
Ion mode: POSITIVE
Precursor type: [M+H]+
m/z	relative intensity
286.8000	27
286.9000	27
287.0000	27
287.1000	30
287.2000	32
287.3000	76
287.4000	36
287.5000	23
354.5000	42
354.6000	101
354.7000	166
354.8000	193
354.9000	235
355.0000	223
355.1000	223
355.2000	250
355.3000	214
355.4000	178
355.5000	139
355.6000	76
355.7000	55
355.8000	67
355.9000	67
356.0000	61
356.1000	64
356.2000	57
356.3000	104
356.4000	50
356.5000	39
410.6000	32
410.7000	57
410.8000	78
410.9000	80
411.0000	87
411.1000	69
411.2000	88
411.3000	76
411.4000	68
411.5000	56
411.6000	25
411.7000	28
411.8000	23
411.9000	28
412.0000	33
412.1000	23
412.2000	24
412.3000	26
428.4000	25
428.5000	45
428.6000	194
428.7000	274
428.8000	309
428.9000	295
429.0000	311
429.1000	331
429.2000	313
429.3000	333
429.4000	294
429.5000	215
429.6000	100
429.7000	111
429.8000	100
429.9000	106
430.0000	111
430.1000	111
430.2000	93
430.3000	93
430.4000	73
430.5000	68
430.6000	21
430.9000	22
431.0000	25
431.1000	31
446.5000	29
446.6000	71
446.7000	194
446.8000	239
446.9000	266
447.0000	273
447.1000	345
447.2000	334
447.3000	265
447.4000	205
447.5000	180
447.6000	100
447.7000	63
447.8000	90
447.9000	86
448.0000	80
448.1000	83
448.2000	78
448.3000	77
448.4000	67
448.5000	53
448.6000	29
448.7000	22
464.4000	67
464.5000	155
464.6000	381
464.7000	637
464.8000	790
464.9000	879
465.0000	916
465.1000	884
465.2000	942
465.3000	881
465.4000	999
465.5000	652
465.6000	257
465.7000	269
465.8000	407
465.9000	327
466.0000	309
466.1000	308
466.2000	292
466.3000	289
466.4000	250
466.5000	214
466.6000	90
466.7000	56
466.8000	66
466.9000	93
467.0000	213
467.1000	57
467.2000	53
467.3000	50
467.4000	48
467.5000	41
481.9000	30
482.0000	21
482.1000	29
482.3000	29
482.4000	31
482.5000	29
505.6000	24
505.7000	57
505.8000	87
505.9000	89
506.0000	104
506.1000	94
506.2000	90
506.3000	105
506.4000	80
506.5000	59
506.6000	31
506.7000	27
506.8000	26
506.9000	39
507.0000	36
507.1000	33
507.2000	35
507.3000	33
507.4000	32
507.5000	22
892.8000	21
892.9000	28
893.0000	35
893.1000	32
893.2000	37
893.3000	32
893.4000	28
893.5000	27
910.7000	43
910.8000	47
910.9000	58
911.0000	83
911.1000	94
911.2000	97
911.3000	85
911.4000	87
911.5000	65
911.6000	61
911.7000	45
911.8000	53
911.9000	48
912.0000	44
912.1000	49
912.2000	56
912.3000	56
912.4000	50
912.5000	40
912.6000	46
912.7000	24
928.6000	51
928.7000	137
928.8000	195
928.9000	225
929.0000	221
929.1000	258
929.2000	267
929.3000	278
929.4000	272
929.5000	231
929.6000	201
929.7000	157
929.8000	151
929.9000	126
930.0000	154
930.1000	149
930.2000	169
930.3000	163
930.4000	159
930.5000	150
930.6000	115
930.7000	82
930.8000	58
930.9000	55
931.0000	50
931.1000	52
931.2000	48
931.3000	79
931.4000	67
931.5000	51
931.6000	40
931.7000	27
