Mass spectrum: (S)-Luteanine; LC-ESI-QQQ; MS2; Frag=135.0V CID@5.0; [M+H]+
Name: Artabotrine
Name: Artabotrin
Name: Luteanine
Name: Luteanin
Name: Uzokoridin
Name: (S)-Luteanine
Class: Alkaloids
Formula: C20H23NO4
Exact mass: 341.4106
SMILES: COc1ccc2c(c1O)-c1c(OC)c(OC)cc3c1[C@H](C2)N(C)CC3
InChI: InChI=1S/C20H23NO4/c1-21-8-7-12-10-15(24-3)20(25-4)18-16(12)13(21)9-11-5-6-14(23-2)19(22)17(11)18/h5-6,10,13,22H,7-9H2,1-4H3/t13-/m0/s1
Instrument: Agilent 6410 Triple Quadrupole LC/MS system
Instrument type: LC-ESI-QQQ
Ms type: MS2
Ion mode: POSITIVE
Precursor type: [M+H]+
m/z	relative intensity
278.7	2
278.8	3
278.9	5
279.0	6
279.1	7
279.2	6
279.3	6
279.4	4
279.5	2
310.7	2
310.8	4
310.9	7
311.0	9
311.1	11
311.2	11
311.3	10
311.4	7
311.5	4
311.6	1
341.3	1
341.4	3
341.5	5
341.6	9
341.7	16
341.8	29
341.9	51
342.0	75
342.1	92
342.2	99
342.3	95
342.4	79
342.5	53
342.6	25
342.7	5
342.8	0
