Mass spectrum: Conferone; LC-ESI-QQQ; MS2; Frag=135.0V CID@10.0; [M+H]+
Name: Conferone
Class: Benzopyranoids
Formula: C24H28O4
Exact mass: 380.4884
SMILES: CC1=CC[C@@H]2C(C)(C)C(=O)CC[C@@]2(C)[C@@H]1COc1ccc2ccc(=O)oc2c1
InChI: InChI=1S/C24H28O4/c1-15-5-9-20-23(2,3)21(25)11-12-24(20,4)18(15)14-27-17-8-6-16-7-10-22(26)28-19(16)13-17/h5-8,10,13,18,20H,9,11-12,14H2,1-4H3/t18-,20-,24+/m1/s1
Instrument: Agilent 6410 Triple Quadrupole LC/MS system
Instrument type: LC-ESI-QQQ
Ms type: MS2
Ion mode: POSITIVE
Precursor type: [M+H]+
m/z	relative intensity
108.7	2
108.8	3
108.9	5
109.0	6
109.1	6
109.2	6
109.3	5
109.4	3
109.5	2
144.6	0
144.7	2
144.8	4
144.9	7
145.0	9
145.1	10
145.2	9
145.3	8
145.4	6
145.5	4
158.7	2
158.8	3
158.9	5
159.0	6
159.1	6
159.2	6
159.3	5
159.4	4
159.5	3
160.6	2
160.7	3
160.8	5
160.9	9
161.0	13
161.1	16
161.2	16
161.3	14
161.4	11
161.5	7
161.6	3
162.3	1
162.4	3
162.5	6
162.6	12
162.7	21
162.8	34
162.9	46
163.0	54
163.1	56
163.2	53
163.3	44
163.4	30
163.5	14
163.6	2
200.5	1
200.6	3
200.7	6
200.8	11
200.9	18
201.0	26
201.1	31
201.2	34
201.3	34
201.4	31
201.5	23
201.6	12
201.7	3
218.7	2
218.8	4
218.9	6
219.0	9
219.1	10
219.2	11
219.3	10
219.4	8
219.5	6
219.6	3
362.8	1
362.9	3
363.0	4
363.1	5
363.2	5
363.3	5
363.4	4
363.5	2
380.3	0
380.4	1
380.5	4
380.6	8
380.7	13
380.8	23
380.9	42
381.0	67
381.1	88
381.2	99
381.3	99
381.4	88
381.5	67
381.6	39
381.7	12
381.8	0
