Mass spectrum: Rosamicin; LC-ESI-QQQ; MS2; Frag=135.0V CID@15.0; [M+HCOO]-
Name: Rosamicin
Class: Polyketides
Formula: C31H51NO9
Exact mass: 581.7534
SMILES: CC[C@H]1OC(=O)C[C@@H](O)[C@H](C)[C@@H](O[C@@H]2O[C@H](C)C[C@H](N(C)C)C2O)[C@@H](CC=O)C[C@@H](C)C(=O)/C=C/[C@]2(C)O[C@H]2[C@@H]1C
InChI: InChI=1S/C31H51NO9/c1-9-25-20(5)29-31(6,41-29)12-10-23(34)17(2)14-21(11-13-33)28(19(4)24(35)16-26(36)39-25)40-30-27(37)22(32(7)8)15-18(3)38-30/h10,12-13,17-22,24-25,27-30,35,37H,9,11,14-16H2,1-8H3/b12-10+/t17-,18-,19+,20-,21+,22+,24-,25-,27?,28-,29+,30+,31+/m1/s1
Instrument: Agilent 6410 Triple Quadrupole LC/MS system
Instrument type: LC-ESI-QQQ
Ms type: MS2
Ion mode: NEGATIVE
Precursor type: [M+HCOO]-
m/z	relative intensity
84.8	1
84.9	3
85.0	5
85.1	7
85.2	7
85.3	5
85.4	2
124.4	1
124.5	3
124.6	6
124.7	7
124.8	8
124.9	10
125.0	15
125.1	19
125.2	18
125.3	11
125.4	4
128.7	1
128.8	3
128.9	6
129.0	7
129.1	5
129.2	2
154.5	2
154.6	4
154.7	5
154.8	5
154.9	4
173.8	2
173.9	4
174.0	8
174.1	10
174.2	10
174.3	7
174.4	4
174.9	2
175.0	4
175.1	6
175.2	6
175.3	4
228.6	1
228.7	2
228.8	5
228.9	8
229.0	9
229.1	7
229.2	4
244.3	1
244.4	3
244.5	5
244.6	5
244.7	5
244.8	5
244.9	7
245.0	10
245.1	11
245.2	8
245.3	4
298.8	1
298.9	2
299.0	5
299.1	8
299.2	8
299.3	5
299.4	2
386.3	1
386.4	3
386.5	13
386.6	35
386.7	61
386.8	75
386.9	67
387.1	44
387.2	66
387.3	95
387.4	99
387.5	68
387.6	25
387.7	0
