Mass spectrum: Karasamine; LC-ESI-QQQ; MS; [M+H]+
Name: Karasamine
Class: Alkaloids
Formula: C23H37NO4
Exact mass: 391.5556
SMILES: CCN1C[C@]2(C)CC[C@H](O)[C@@]34C5C[C@@H]6[C@@H](OC)C[C@@](O)(C5[C@H]6OC)[C@@H](CC32)[C@@H]14
InChI: InChI=1S/C23H37NO4/c1-5-24-11-21(2)7-6-17(25)23-13-8-12-15(27-3)10-22(26,18(13)19(12)28-4)14(20(23)24)9-16(21)23/h12-20,25-26H,5-11H2,1-4H3/t12-,13?,14+,15+,16?,17+,18?,19+,20-,21+,22+,23-/m1/s1
Instrument: ABSciex API3200 LC/MS system
Instrument type: LC-ESI-QQQ
Ms type: MS
Ion mode: POSITIVE
Precursor type: [M+H]+
m/z	relative intensity
101.1000	31
101.2000	38
101.3000	35
101.4000	26
341.8000	21
341.9000	21
342.0000	23
342.2000	24
342.3000	23
355.9000	29
373.5000	49
373.6000	110
373.7000	149
373.8000	195
373.9000	198
374.0000	202
374.1000	199
374.2000	190
374.3000	197
374.4000	202
374.5000	243
374.6000	84
374.7000	53
374.8000	55
374.9000	45
375.0000	50
375.1000	54
375.2000	55
375.3000	56
375.4000	44
375.5000	38
391.3000	36
391.4000	239
391.5000	611
391.6000	851
391.7000	920
391.8000	939
391.9000	936
392.0000	970
392.1000	999
392.2000	992
392.3000	973
392.4000	951
392.5000	904
392.6000	594
392.7000	545
392.8000	549
392.9000	548
393.0000	565
393.1000	595
393.2000	573
393.3000	551
393.4000	511
393.5000	454
393.6000	223
393.7000	189
393.8000	175
393.9000	199
394.0000	197
394.1000	157
394.2000	173
394.3000	217
394.4000	179
394.5000	119
394.6000	38
394.7000	28
394.8000	22
394.9000	21
395.2000	23
