Mass spectrum: Narcotine; LC-ESI-QQQ; MS2; Frag=135.0V CID@10.0; [M+H]+
Name: Narcotine
Class: Alkaloids
Formula: C22H23NO7
Exact mass: 413.4311
SMILES: CN1CCC2=CC3=C(C(=C2[C@@H]1[C@@H]4C5=C(C(=C(C=C5)OC)OC)C(=O)O4)OC)OCO3
InChI: InChI=1S/C22H23NO7/c1-23-8-7-11-9-14-20(29-10-28-14)21(27-4)15(11)17(23)18-12-5-6-13(25-2)19(26-3)16(12)22(24)30-18/h5-6,9,17-18H,7-8,10H2,1-4H3/t17-,18+/m1/s1
Instrument: Agilent 6410 Triple Quadrupole LC/MS system
Instrument type: LC-ESI-QQQ
Ms type: MS2
Ion mode: POSITIVE
Precursor type: [M+H]+
m/z	relative intensity
219.4	2
219.5	3
219.6	5
219.7	9
219.8	16
219.9	25
220.0	32
220.1	35
220.2	35
220.3	31
220.4	25
220.5	16
220.6	6
220.7	0
413.2	0
413.3	2
413.4	4
413.5	7
413.6	12
413.7	22
413.8	39
413.9	61
414.0	82
414.1	97
414.2	99
414.3	89
414.4	66
414.5	37
414.6	12
414.7	0
