Mass spectrum: Andrographolide; LC-ESI-QQQ; MS; [M+H]+
Name: Andrographolide
Class: Terpenoids
Formula: C20H30O5
Exact mass: 350.4591
SMILES: C=C1CCC2C(C)(CO)C(O)CC[C@]2(C)C1C/C=C1/C(=O)OCC1O
InChI: InChI=1S/C20H30O5/c1-12-4-7-16-19(2,9-8-17(23)20(16,3)11-21)14(12)6-5-13-15(22)10-25-18(13)24/h5,14-17,21-23H,1,4,6-11H2,2-3H3/b13-5+/t14?,15?,16?,17?,19-,20?/m1/s1
Instrument: ABSciex API3200 LC/MS system
Instrument type: LC-ESI-QQQ
Ms type: MS
Ion mode: POSITIVE
Precursor type: [M+H]+
m/z	relative intensity
100.5000	27
104.7000	24
104.8000	21
104.9000	24
105.0000	44
105.1000	28
107.3000	21
108.7000	24
108.8000	22
109.2000	21
110.6000	27
110.7000	44
110.8000	32
111.0000	31
111.2000	39
111.4000	23
118.8000	26
118.9000	34
119.0000	25
119.1000	22
119.2000	24
119.3000	21
119.4000	35
119.5000	21
120.5000	26
120.6000	30
120.7000	44
120.8000	79
120.9000	49
121.0000	35
121.1000	42
121.2000	37
121.3000	25
121.4000	24
123.2000	22
123.3000	21
130.6000	23
130.8000	21
130.9000	23
131.1000	21
131.2000	26
131.3000	22
132.5000	33
132.6000	45
132.7000	70
132.8000	53
132.9000	59
133.0000	67
133.1000	72
133.2000	63
133.3000	50
133.4000	46
133.5000	45
144.6000	31
144.7000	31
144.8000	57
144.9000	50
145.0000	50
145.1000	47
145.2000	48
145.3000	35
145.4000	27
146.6000	32
146.7000	26
146.8000	36
146.9000	32
147.0000	39
147.1000	56
147.2000	29
147.3000	24
147.4000	27
147.5000	23
149.2000	35
158.8000	22
158.9000	23
159.1000	24
160.8000	22
172.9000	23
173.0000	22
173.1000	24
173.2000	26
174.5000	78
174.6000	102
174.7000	89
174.8000	125
174.9000	106
175.0000	97
175.1000	102
175.2000	93
175.3000	88
175.4000	71
175.5000	50
175.6000	21
175.9000	21
176.0000	34
176.3000	22
176.4000	33
176.5000	29
176.6000	24
176.7000	50
176.8000	66
176.9000	56
177.0000	40
177.1000	72
177.2000	61
177.3000	33
186.5000	27
186.6000	54
186.7000	64
186.8000	88
186.9000	67
187.0000	76
187.1000	81
187.2000	80
187.3000	61
187.4000	59
187.5000	53
187.7000	23
187.8000	22
190.8000	26
198.7000	28
200.9000	23
202.7000	22
202.8000	23
202.9000	33
203.1000	32
203.2000	25
203.3000	25
204.5000	42
204.6000	65
204.7000	70
204.8000	91
204.9000	79
205.0000	105
205.1000	100
205.2000	85
205.3000	71
205.4000	78
205.5000	55
206.1000	22
206.7000	21
208.9000	21
210.6000	44
210.7000	33
210.8000	34
210.9000	29
211.0000	32
211.1000	29
211.2000	34
211.4000	32
212.7000	28
212.8000	28
212.9000	29
213.0000	27
213.1000	22
213.2000	31
213.3000	29
214.6000	25
226.6000	27
226.7000	32
226.8000	32
226.9000	34
227.0000	33
227.1000	45
227.2000	35
227.3000	29
229.0000	22
240.5000	34
240.6000	35
240.7000	29
240.8000	28
240.9000	30
241.0000	28
241.1000	22
241.2000	39
241.3000	38
241.4000	36
254.4000	30
254.5000	63
254.6000	101
254.7000	110
254.8000	109
254.9000	106
255.0000	101
255.1000	89
255.2000	90
255.3000	67
255.4000	74
255.5000	38
255.6000	32
255.7000	26
256.0000	24
256.2000	22
256.3000	26
256.4000	65
256.5000	317
256.6000	645
256.7000	739
256.8000	786
256.9000	737
257.0000	823
257.1000	800
257.2000	747
257.3000	882
257.4000	737
257.5000	351
257.6000	217
257.7000	200
257.8000	147
257.9000	189
258.0000	164
258.1000	178
258.2000	168
258.3000	149
258.4000	148
258.5000	78
258.6000	43
258.7000	26
258.8000	34
259.0000	27
259.1000	46
259.2000	27
268.6000	25
268.7000	29
268.9000	41
269.0000	21
269.1000	29
269.2000	32
269.3000	25
269.4000	21
270.6000	22
270.7000	32
270.8000	44
270.9000	62
271.0000	73
271.1000	41
271.2000	33
271.3000	30
271.4000	23
271.5000	22
274.6000	22
274.7000	29
274.8000	29
274.9000	30
275.0000	26
275.1000	37
275.2000	37
275.3000	26
275.4000	27
284.4000	50
284.5000	195
284.6000	357
284.7000	397
284.8000	466
284.9000	483
285.0000	528
285.1000	456
285.2000	460
285.3000	403
285.4000	379
285.5000	243
285.6000	122
285.7000	109
285.8000	113
285.9000	96
286.0000	135
286.1000	197
286.2000	152
286.3000	81
286.4000	79
286.5000	111
286.6000	68
286.7000	63
286.8000	83
286.9000	85
287.0000	101
287.1000	90
287.2000	65
287.3000	80
287.4000	67
287.5000	72
287.6000	27
287.7000	22
296.4000	130
296.5000	221
296.6000	322
296.7000	434
296.8000	437
296.9000	498
297.0000	578
297.1000	481
297.2000	485
297.3000	453
297.4000	388
297.5000	253
297.6000	126
297.7000	145
297.8000	99
297.9000	126
298.0000	122
298.1000	123
298.2000	104
298.3000	97
298.4000	93
298.5000	53
298.6000	35
302.5000	24
302.6000	66
302.7000	76
302.8000	107
302.9000	97
303.0000	107
303.1000	104
303.2000	106
303.3000	92
303.4000	69
303.5000	62
303.6000	24
303.7000	21
303.8000	35
303.9000	26
304.0000	23
304.2000	22
304.3000	23
314.4000	25
314.5000	151
314.6000	369
314.7000	496
314.8000	575
314.9000	545
315.0000	526
315.1000	530
315.2000	567
315.3000	476
315.4000	421
315.5000	264
315.6000	136
315.7000	150
315.8000	115
315.9000	107
316.0000	97
316.1000	123
316.2000	118
316.3000	88
316.4000	103
316.5000	54
316.6000	33
316.7000	22
332.4000	37
332.5000	155
332.6000	337
332.7000	476
332.8000	493
332.9000	474
333.0000	537
333.1000	556
333.2000	472
333.3000	448
333.4000	378
333.5000	283
333.6000	157
333.7000	139
333.8000	131
333.9000	126
334.0000	129
334.1000	102
334.2000	117
334.3000	125
334.4000	99
334.5000	51
350.4000	44
350.5000	201
350.6000	459
350.7000	639
350.8000	645
350.9000	715
351.0000	709
351.1000	720
351.2000	699
351.3000	621
351.4000	604
351.5000	499
351.6000	155
351.7000	181
351.8000	143
351.9000	162
352.0000	179
352.1000	168
352.2000	175
352.3000	138
352.4000	118
352.5000	86
352.6000	41
352.7000	30
352.8000	71
352.9000	28
353.0000	26
353.2000	22
367.9000	29
368.0000	31
368.1000	35
368.2000	23
368.3000	27
368.4000	24
391.4000	59
391.5000	196
391.6000	444
391.7000	552
391.8000	590
391.9000	644
392.0000	652
392.1000	587
392.2000	534
392.3000	512
392.4000	500
392.5000	314
392.6000	169
392.7000	132
392.8000	123
392.9000	135
393.0000	130
393.1000	119
393.2000	113
393.3000	144
393.4000	114
393.5000	40
393.6000	38
700.4000	69
700.5000	154
700.6000	436
700.7000	717
700.8000	890
700.9000	946
701.0000	978
701.1000	999
701.2000	958
701.3000	889
701.4000	769
701.5000	438
701.6000	333
701.7000	384
701.8000	406
701.9000	439
702.0000	495
702.1000	495
702.2000	495
702.3000	467
702.4000	371
702.5000	215
702.6000	103
702.7000	114
702.8000	127
702.9000	123
703.0000	150
703.1000	157
703.2000	136
703.3000	123
703.4000	96
703.5000	39
703.6000	43
703.7000	70
703.8000	33
703.9000	29
704.0000	26
704.1000	25
704.2000	27
704.3000	21
704.4000	26
717.8000	26
717.9000	28
718.0000	23
718.1000	24
718.2000	33
719.1000	22
1050.5000	40
1050.6000	62
1050.7000	79
1050.8000	84
1050.9000	107
1051.0000	104
1051.1000	87
1051.2000	96
1051.3000	105
1051.4000	111
1051.5000	106
1051.6000	71
1051.7000	55
1051.8000	90
1051.9000	68
1052.0000	88
1052.1000	80
1052.2000	60
1052.3000	84
1052.4000	65
1052.5000	56
1052.6000	38
1052.7000	21
1052.8000	32
1053.0000	31
1053.1000	34
1053.2000	31
1053.3000	25
1226.7000	21
