Mass spectrum: Cryptotanshinone; LC-ESI-QQQ; MS2; Frag=135.0V CID@25.0; [M+H]+
Name: Cryptotanshinone
Class: Polycyclic aromatic natural products
Formula: C19H20O3
Exact mass: 296.3695
SMILES: C[C@H]1COC2=C1C(=O)C(=O)c1c2ccc2c1CCCC2(C)C
InChI: InChI=1S/C19H20O3/c1-10-9-22-18-12-6-7-13-11(5-4-8-19(13,2)3)15(12)17(21)16(20)14(10)18/h6-7,10H,4-5,8-9H2,1-3H3/t10-/m0/s1
Instrument: Agilent 6410 Triple Quadrupole LC/MS system
Instrument type: LC-ESI-QQQ
Ms type: MS2
Ion mode: POSITIVE
Precursor type: [M+H]+
m/z	relative intensity
180.6	2
180.7	4
180.8	6
180.9	8
181.0	9
181.1	10
181.2	10
181.3	9
181.4	6
181.5	2
184.8	2
184.9	3
185.0	4
185.1	5
185.2	6
185.3	6
185.4	4
185.5	2
192.7	2
192.8	3
192.9	5
193.0	6
193.1	7
193.2	7
193.3	6
193.4	5
194.8	4
194.9	5
195.0	6
195.1	8
195.2	9
195.3	7
195.4	5
195.5	1
196.6	2
196.7	4
196.8	7
196.9	9
197.0	10
197.1	10
197.2	10
197.3	8
197.4	5
197.5	3
207.7	2
207.8	4
207.9	6
208.0	8
208.1	9
208.2	9
208.3	8
208.4	6
208.5	6
208.6	6
208.7	7
208.8	10
208.9	14
209.0	19
209.1	22
209.2	23
209.3	21
209.4	15
209.5	9
209.6	3
220.7	2
220.8	3
220.9	6
221.0	9
221.1	10
221.2	10
221.3	8
221.4	6
221.8	3
221.9	6
222.0	8
222.1	10
222.2	10
222.3	9
222.4	8
222.7	4
222.8	6
222.9	9
223.0	13
223.1	15
223.2	16
223.3	14
223.4	11
223.5	7
223.6	2
226.6	2
226.7	4
226.8	6
226.9	8
227.0	10
227.1	10
227.2	9
227.3	8
227.4	5
227.5	3
235.6	3
235.7	5
235.8	7
235.9	9
236.0	10
236.1	12
236.2	14
236.3	14
236.4	12
236.7	7
236.8	10
236.9	15
237.0	18
237.1	21
237.2	22
237.3	21
237.4	17
237.5	11
237.6	5
238.7	3
238.8	6
238.9	8
239.0	9
239.1	8
239.2	7
239.3	6
239.4	4
248.6	1
248.7	3
248.8	4
248.9	6
249.0	7
249.1	8
249.2	8
249.3	7
249.4	5
249.8	3
249.9	6
250.0	8
250.1	9
250.2	9
250.3	9
250.4	10
250.5	13
250.6	17
250.7	25
250.8	40
250.9	60
251.0	80
251.1	95
251.2	99
251.3	92
251.4	72
251.5	44
251.6	17
251.7	1
252.8	3
252.9	4
253.0	5
253.1	6
253.2	6
253.3	7
253.4	8
253.5	12
253.6	18
253.7	28
253.8	44
253.9	61
254.0	75
254.1	83
254.2	84
254.3	78
254.4	62
254.5	37
254.6	14
254.7	1
254.9	2
255.0	4
255.1	5
255.2	5
255.3	4
255.4	3
263.5	1
263.6	3
263.7	5
263.8	7
263.9	10
264.0	12
264.1	14
264.2	15
264.3	15
264.4	11
264.5	6
264.6	1
266.6	2
266.7	3
266.8	5
266.9	8
267.0	10
267.1	12
267.2	13
267.3	12
267.6	10
267.7	14
267.8	20
267.9	27
268.0	35
268.1	41
268.2	43
268.3	39
268.4	27
268.5	14
268.6	4
268.9	1
269.0	3
269.1	5
269.2	5
269.3	4
269.4	3
278.3	0
278.4	1
278.5	4
278.6	8
278.7	14
278.8	23
278.9	34
279.0	43
279.1	48
279.2	50
279.3	46
279.4	38
279.5	24
279.6	9
279.7	0
281.4	1
281.5	3
281.6	6
281.7	12
281.8	21
281.9	31
282.0	41
282.1	47
282.2	49
282.3	45
282.4	36
282.5	23
282.6	9
282.7	0
296.3	0
296.4	2
296.5	6
296.6	11
296.7	19
296.8	28
296.9	40
297.0	54
297.1	65
297.2	70
297.3	69
297.4	59
297.5	39
297.6	17
297.7	2
