Mass spectrum: Convolicine; LC-ESI-QQQ; MS2; Frag=135.0V CID@5.0; [M+H]+
Name: Convolicine
Class: Alkaloids
Formula: C18H23NO5
Exact mass: 333.3877
SMILES: COc1ccc(C(=O)OC2CC3CCC(C2)N3C(C)=O)cc1OC
InChI: InChI=1S/C18H23NO5/c1-11(20)19-13-5-6-14(19)10-15(9-13)24-18(21)12-4-7-16(22-2)17(8-12)23-3/h4,7-8,13-15H,5-6,9-10H2,1-3H3
Instrument: Agilent 6410 Triple Quadrupole LC/MS system
Instrument type: LC-ESI-QQQ
Ms type: MS2
Ion mode: POSITIVE
Precursor type: [M+H]+
m/z	relative intensity
109.5	1
109.6	3
109.7	6
109.8	9
109.9	13
110.0	16
110.1	18
110.2	18
110.3	16
110.4	12
110.5	7
110.6	2
151.3	0
151.4	3
151.5	7
151.6	15
151.7	28
151.8	47
151.9	69
152.0	89
152.1	99
152.2	99
152.3	88
152.4	68
152.5	41
152.6	15
152.7	0
333.4	1
333.5	3
333.6	6
333.7	12
333.8	22
333.9	35
334.0	48
334.1	59
334.2	64
334.3	61
334.4	50
334.5	32
334.6	13
334.7	1
