Mass spectrum: Cytosine arabinoside,(beta-D-Furanose-form, 5'-Phosphate); LC-ESI-QQQ; MS; [M+H]+
Name: Cytosine arabinoside, (beta-D-Furanose-form, 5'-Phosphate)
Class: Carbohydrates
Formula: C9H13N3NaO8P
Exact mass: 345.1829
SMILES: N=c1ccn(C2O[C@@H](COP(=O)(O)O)[C@H](O)[C@H]2O)c([O-])n1.[Na+]
InChI: InChI=1S/C9H14N3O8P.Na/c10-5-1-2-12(9(15)11-5)8-7(14)6(13)4(20-8)3-19-21(16,17)18;/h1-2,4,6-8,13-14H,3H2,(H2,10,11,15)(H2,16,17,18);/q;+1/p-1/t4-,6-,7+,8?;/m0./s1
Instrument: ABSciex API3200 LC/MS system
Instrument type: LC-ESI-QQQ
Ms type: MS
Ion mode: POSITIVE
Precursor type: [M+H]+
m/z	relative intensity
100.4000	38
100.5000	75
100.6000	46
100.7000	61
100.8000	62
100.9000	63
101.0000	59
101.1000	47
101.2000	44
101.3000	47
101.4000	21
111.5000	30
111.6000	38
111.7000	57
111.8000	74
111.9000	62
112.0000	62
112.1000	74
112.2000	63
112.3000	44
112.4000	43
156.3000	85
156.4000	601
156.5000	883
156.6000	999
156.7000	980
156.8000	984
156.9000	879
157.0000	842
157.1000	754
157.2000	692
157.3000	469
157.4000	330
157.5000	110
157.6000	46
157.7000	40
157.8000	40
157.9000	42
158.0000	42
158.1000	42
158.2000	22
158.3000	25
158.4000	31
158.5000	30
158.6000	34
158.7000	27
158.8000	21
178.6000	35
178.7000	26
178.8000	27
178.9000	25
179.0000	26
179.1000	21
179.2000	24
179.3000	24
323.4000	79
323.5000	105
323.6000	132
323.7000	129
323.8000	147
323.9000	158
324.0000	140
324.1000	143
324.2000	103
324.3000	92
324.4000	40
324.5000	50
324.6000	29
401.4000	36
401.5000	53
401.6000	43
401.7000	53
401.8000	53
401.9000	54
402.0000	56
402.1000	49
402.2000	50
402.3000	34
