Mass spectrum: 20-Hydroxyecdysone 2,3:20,22-diacetonide; LC-ESI-QQQ; MS2; Frag=135.0V CID@10.0; [M+H]+
Name: 20-Hydroxyecdysone 2,3:20,22-diacetonide
Class: Steroids
Formula: C33H52O7
Exact mass: 560.7782
SMILES: CC(C)(O)CC[C@H]1OC(C)(C)O[C@]1(C)[C@H]1CC[C@@]2(O)C3=CC(=O)[C@@H]4C[C@H]5OC(C)(C)O[C@H]5C[C@]4(C)[C@H]3CC[C@]12C
InChI: InChI=1S/C33H52O7/c1-27(2,35)13-12-26-32(9,40-29(5,6)39-26)25-11-15-33(36)20-16-22(34)21-17-23-24(38-28(3,4)37-23)18-30(21,7)19(20)10-14-31(25,33)8/h16,19,21,23-26,35-36H,10-15,17-18H2,1-9H3/t19-,21-,23+,24-,25-,26+,30+,31+,32+,33+/m0/s1
Instrument: Agilent 6410 Triple Quadrupole LC/MS system
Instrument type: LC-ESI-QQQ
Ms type: MS2
Ion mode: POSITIVE
Precursor type: [M+H]+
m/z	relative intensity
408.7	1
408.8	3
408.9	6
409.0	9
409.1	11
409.2	12
409.3	12
409.4	11
409.5	8
409.6	4
409.7	1
426.7	2
426.8	3
426.9	5
427.0	9
427.1	12
427.2	15
427.3	16
427.4	16
427.5	12
427.6	6
427.7	1
466.9	2
467.0	4
467.1	6
467.2	8
467.3	9
467.4	8
467.5	6
467.6	4
484.4	2
484.5	3
484.6	5
484.7	7
484.8	13
484.9	26
485.0	46
485.1	70
485.2	89
485.3	99
485.4	98
485.5	83
485.6	57
485.7	27
485.8	5
485.9	0
502.8	1
502.9	3
503.0	5
503.1	7
503.2	9
503.3	10
503.4	10
503.5	8
503.6	5
503.7	1
542.7	2
542.8	4
542.9	10
543.0	18
543.1	27
543.2	33
543.3	36
543.4	37
543.5	35
543.6	29
543.7	18
543.8	6
543.9	0
560.6	1
560.7	3
560.8	5
560.9	7
561.0	11
561.1	15
561.2	22
561.3	30
561.4	33
561.5	29
561.6	19
561.7	9
561.8	1
