Mass spectrum: Versicoside; LC-ESI-QQQ; MS2; Frag=135.0V CID@15.0; [M+HCOO]-
Name: Versicoside
Class: Steroids
Formula: C32H42O15
Exact mass: 666.6825
SMILES: COc1cc(C2OC[C@@H]3C(c4ccc(O[C@@H]5O[C@H](CO[C@@H]6O[C@@H](C)[C@H](O)[C@@H](O)[C@H]6O)[C@@H](O)[C@H](O)[C@H]5O)c(OC)c4)OC[C@H]23)ccc1O
InChI: InChI=1S/C32H42O15/c1-13-23(34)25(36)27(38)31(45-13)44-12-22-24(35)26(37)28(39)32(47-22)46-19-7-5-15(9-21(19)41-3)30-17-11-42-29(16(17)10-43-30)14-4-6-18(33)20(8-14)40-2/h4-9,13,16-17,22-39H,10-12H2,1-3H3/t13-,16-,17-,22+,23-,24+,25+,26-,27+,28+,29?,30?,31+,32+/m0/s1
Instrument: Agilent 6410 Triple Quadrupole LC/MS system
Instrument type: LC-ESI-QQQ
Ms type: MS2
Ion mode: NEGATIVE
Precursor type: [M+HCOO]-
m/z	relative intensity
88.3	2
88.4	3
88.5	4
88.6	5
88.7	5
88.8	5
88.9	4
89.0	4
89.1	3
100.4	2
100.5	3
100.6	5
100.7	7
100.8	7
100.9	6
101.0	3
101.1	1
102.2	1
102.3	2
102.4	4
102.5	6
102.6	8
102.7	10
102.8	11
102.9	13
103.0	14
103.1	13
103.2	12
103.3	8
103.4	4
103.5	1
118.3	1
118.4	3
118.5	5
118.6	7
118.7	8
118.8	10
118.9	11
119.0	11
119.1	11
119.2	8
119.3	5
119.4	2
124.3	1
124.4	3
124.5	6
124.6	9
124.7	9
124.8	9
124.9	9
125.0	11
125.1	10
125.2	8
125.3	5
125.4	2
162.2	1
162.3	3
162.4	5
162.5	9
162.6	16
162.7	26
162.8	34
162.9	39
163.0	36
163.1	28
163.2	18
163.3	9
163.4	4
163.5	1
306.2	1
306.3	3
306.4	9
306.5	19
306.6	34
306.7	52
306.8	70
306.9	84
307.0	94
307.1	99
307.2	97
307.3	84
307.4	57
307.5	25
307.6	4
356.3	0
356.4	2
356.5	4
356.6	7
356.7	10
356.8	13
356.9	14
357.0	13
357.1	11
357.2	8
357.3	4
357.4	1
664.5	1
664.6	2
664.7	3
664.8	4
664.9	5
665.0	6
665.1	6
665.2	6
665.3	5
665.4	3
665.5	2
