Mass spectrum: Usnone A; LC-ESI-QQQ; MS; [M+H]+
Name: Usnone A
Class: Terpenoids
Formula: C18H16O7
Exact mass: 344.324
SMILES: CC(=O)c1c(O)c(C)c(O)c2c1OC1=CC(=O)C(C(C)=O)C(=O)[C@@]12C
InChI: InChI=1S/C18H16O7/c1-6-14(22)12(8(3)20)16-13(15(6)23)18(4)10(25-16)5-9(21)11(7(2)19)17(18)24/h5,11,22-23H,1-4H3/t11?,18-/m0/s1
Instrument: ABSciex API3200 LC/MS system
Instrument type: LC-ESI-QQQ
Ms type: MS
Ion mode: POSITIVE
Precursor type: [M+H]+
m/z	relative intensity
100.0000	111
100.1000	137
100.2000	46
100.3000	49
100.4000	176
100.5000	149
100.6000	138
100.7000	124
100.8000	267
100.9000	297
101.0000	313
101.1000	141
101.2000	237
101.3000	110
101.9000	27
111.4000	28
112.7000	26
113.9000	29
114.2000	49
118.0000	36
119.5000	35
119.7000	46
119.8000	47
119.9000	32
120.0000	33
120.1000	30
121.5000	24
127.5000	23
135.1000	32
135.3000	37
140.5000	23
141.2000	34
141.4000	29
141.5000	62
141.6000	55
141.7000	98
141.8000	108
141.9000	111
142.0000	113
142.1000	59
142.3000	31
142.6000	23
146.8000	29
146.9000	23
148.9000	134
149.3000	22
154.7000	42
155.3000	34
157.7000	23
166.5000	26
193.6000	22
193.7000	23
193.9000	29
194.1000	29
195.2000	21
197.6000	36
198.1000	91
198.2000	57
198.5000	90
199.2000	49
206.6000	22
206.8000	32
206.9000	47
207.0000	50
214.8000	32
215.0000	25
215.1000	21
215.3000	21
215.4000	28
216.9000	22
220.5000	23
228.4000	25
232.4000	21
232.5000	68
232.6000	118
232.7000	93
232.8000	119
232.9000	132
233.0000	145
233.1000	109
233.2000	73
233.3000	96
233.4000	94
234.0000	25
242.7000	21
247.4000	24
256.8000	30
257.0000	21
258.6000	27
260.4000	22
260.5000	53
260.6000	40
260.7000	99
260.8000	72
260.9000	39
261.0000	26
261.1000	23
261.3000	50
261.4000	24
261.9000	32
274.7000	23
279.3000	30
284.5000	21
284.6000	32
284.7000	63
284.8000	26
284.9000	29
285.0000	23
285.1000	28
285.2000	35
298.9000	28
299.0000	41
299.1000	21
299.2000	28
302.4000	45
302.5000	90
302.6000	92
302.7000	129
302.8000	98
302.9000	81
303.0000	108
303.1000	75
303.2000	54
303.3000	115
303.4000	49
303.5000	23
303.6000	32
308.7000	33
308.8000	25
309.0000	38
309.1000	38
309.2000	26
309.3000	27
311.4000	29
311.9000	25
312.1000	30
315.1000	27
315.3000	32
316.6000	24
326.3000	67
326.4000	147
326.5000	233
326.6000	241
326.7000	230
326.8000	282
326.9000	281
327.0000	319
327.1000	292
327.2000	224
327.3000	204
327.4000	130
327.5000	67
327.6000	72
327.7000	46
327.8000	50
327.9000	58
328.0000	42
328.1000	79
328.2000	51
328.3000	33
328.4000	26
328.6000	22
329.3000	21
329.4000	26
329.5000	53
329.6000	67
329.7000	72
329.8000	85
329.9000	97
330.0000	71
330.1000	97
330.2000	106
330.3000	69
330.5000	34
331.2000	25
344.3000	42
344.4000	334
344.5000	612
344.6000	700
344.7000	831
344.8000	999
344.9000	886
345.0000	824
345.1000	824
345.2000	698
345.3000	676
345.4000	349
345.5000	278
345.6000	179
345.7000	186
345.8000	182
345.9000	223
346.0000	203
346.1000	211
346.2000	100
346.3000	126
346.4000	54
346.5000	39
346.6000	65
346.7000	42
346.8000	26
346.9000	34
347.1000	31
347.2000	55
432.6000	31
454.9000	31
455.1000	21
455.3000	30
