Mass spectrum: Stepharine; LC-ESI-QQQ; MS; [M+H]+
Name: Stepharine
Class: Alkaloids
Formula: C18H19NO3
Exact mass: 297.357
SMILES: COc1cc2c3c(c1OC)C1(C=CC(=O)C=C1)CC3NCC2
InChI: InChI=1S/C18H19NO3/c1-21-14-9-11-5-8-19-13-10-18(6-3-12(20)4-7-18)16(15(11)13)17(14)22-2/h3-4,6-7,9,13,19H,5,8,10H2,1-2H3
Instrument: ABSciex API3200 LC/MS system
Instrument type: LC-ESI-QQQ
Ms type: MS
Ion mode: POSITIVE
Precursor type: [M+H]+
m/z	relative intensity
159.8000	23
159.9000	21
160.2000	30
160.4000	32
160.5000	57
160.6000	50
160.7000	68
160.8000	68
160.9000	82
161.0000	64
161.1000	76
161.2000	63
161.3000	62
161.4000	69
161.5000	47
189.5000	98
189.6000	55
189.7000	32
189.8000	37
189.9000	31
190.0000	22
190.1000	44
190.2000	30
190.6000	21
190.7000	24
191.3000	23
191.4000	72
191.5000	190
191.6000	279
191.7000	308
191.8000	301
191.9000	285
192.0000	287
192.1000	275
192.2000	268
192.3000	203
192.4000	251
192.5000	128
192.6000	46
192.7000	35
192.8000	54
192.9000	45
193.0000	34
193.1000	28
193.2000	39
193.3000	29
193.4000	27
193.5000	22
193.8000	31
222.2000	25
237.3000	22
237.4000	22
237.5000	43
237.6000	47
237.7000	42
237.8000	48
237.9000	51
238.0000	44
238.1000	47
238.2000	42
238.3000	36
238.4000	34
238.6000	22
238.9000	25
239.0000	26
249.5000	24
249.6000	25
249.8000	24
249.9000	21
250.0000	29
250.2000	23
250.3000	22
250.4000	55
252.7000	22
253.1000	25
253.4000	21
253.5000	28
253.6000	23
253.7000	31
253.8000	38
253.9000	25
254.0000	28
254.1000	25
254.2000	26
254.3000	27
254.4000	24
266.1000	24
268.4000	40
268.5000	56
268.6000	82
268.7000	75
268.8000	86
268.9000	85
269.0000	146
269.1000	108
269.2000	71
269.3000	47
269.4000	55
269.5000	32
269.9000	22
270.0000	23
270.1000	21
280.4000	22
280.5000	47
280.6000	68
280.7000	78
280.8000	61
280.9000	61
281.0000	58
281.1000	74
281.2000	59
281.3000	42
281.4000	45
297.2000	21
297.3000	167
297.4000	500
297.5000	831
297.6000	973
297.7000	983
297.8000	944
297.9000	933
298.0000	999
298.1000	960
298.2000	954
298.3000	839
298.4000	840
298.5000	490
298.6000	423
298.7000	339
298.8000	299
298.9000	414
299.0000	342
299.1000	308
299.2000	289
299.3000	241
299.4000	221
299.5000	109
299.6000	56
299.7000	46
299.8000	40
299.9000	50
300.0000	52
300.1000	61
300.2000	48
300.3000	32
300.4000	42
338.5000	27
338.6000	56
338.7000	51
338.8000	47
338.9000	60
339.0000	52
339.1000	70
339.2000	42
339.3000	35
339.4000	31
339.5000	35
339.6000	27
339.7000	40
339.8000	21
339.9000	30
340.0000	25
340.1000	25
340.3000	25
