Mass spectrum: testolactone; LC-ESI-QQQ; MS2; Frag=135.0V CID@5.0; [M+H]+
Name: testolactone
Class: Steroids
Formula: C19H24O3
Exact mass: 300.4013
SMILES: C[C@]12CCC3C(CCC4=CC(=O)C=C[C@@]43C)C1CCC(=O)O2
InChI: InChI=1S/C19H24O3/c1-18-9-7-13(20)11-12(18)3-4-14-15(18)8-10-19(2)16(14)5-6-17(21)22-19/h7,9,11,14-16H,3-6,8,10H2,1-2H3/t14?,15?,16?,18-,19-/m0/s1
Instrument: Agilent 6410 Triple Quadrupole LC/MS system
Instrument type: LC-ESI-QQQ
Ms type: MS2
Ion mode: POSITIVE
Precursor type: [M+H]+
m/z	relative intensity
120.5	1
120.6	2
120.7	4
120.8	6
120.9	8
121.0	10
121.1	11
121.2	11
121.3	10
121.4	7
121.5	4
121.6	1
146.8	3
146.9	4
147.0	5
147.1	6
147.2	5
147.3	4
147.4	3
300.4	0
300.5	3
300.6	8
300.7	16
300.8	30
300.9	49
301.0	72
301.1	90
301.2	99
301.3	98
301.4	86
301.5	62
301.6	33
301.7	9
301.8	0
