Mass spectrum: piperine; LC-ESI-QQQ; MS2; Frag=135.0V CID@15.0; [M+H]+
Name: piperine
Class: Alkaloids
Formula: C17H19NO3
Exact mass: 285.3459
SMILES: O=C(/C=C/C=C/c1ccc2c(c1)OCO2)N1CCCCC1
InChI: InChI=1S/C17H19NO3/c19-17(18-10-4-1-5-11-18)7-3-2-6-14-8-9-15-16(12-14)21-13-20-15/h2-3,6-9,12H,1,4-5,10-11,13H2/b6-2+,7-3+
Instrument: Agilent 6410 Triple Quadrupole LC/MS system
Instrument type: LC-ESI-QQQ
Ms type: MS2
Ion mode: POSITIVE
Precursor type: [M+H]+
m/z	relative intensity
134.5	2
134.6	3
134.7	5
134.8	7
134.9	10
135.0	11
135.1	12
135.2	11
135.3	9
135.4	6
135.5	3
200.2	0
200.3	1
200.4	4
200.5	10
200.6	20
200.7	35
200.8	55
200.9	77
201.0	93
201.1	99
201.2	94
201.3	79
201.4	57
201.5	31
201.6	9
201.7	0
285.5	1
285.6	3
285.7	6
285.8	10
285.9	16
286.0	23
286.1	28
286.2	30
286.3	28
286.4	23
286.5	14
286.6	6
286.7	0
