Mass spectrum: Pteryxin; LC-ESI-QQQ; MS; [M+H]+
Name: Pteryxin
Class: Benzopyranoids
Formula: C21H22O7
Exact mass: 386.4053
SMILES: C/C=C(/C)C(=O)OC1c2c(ccc3ccc(=O)oc23)OC(C)(C)C1OC(C)=O
InChI: InChI=1S/C21H22O7/c1-6-11(2)20(24)27-18-16-14(28-21(4,5)19(18)25-12(3)22)9-7-13-8-10-15(23)26-17(13)16/h6-10,18-19H,1-5H3/b11-6-
Instrument: ABSciex API3200 LC/MS system
Instrument type: LC-ESI-QQQ
Ms type: MS
Ion mode: POSITIVE
Precursor type: [M+H]+
m/z	relative intensity
174.4000	38
174.5000	50
174.6000	58
174.7000	63
174.8000	63
174.9000	62
175.0000	57
175.1000	63
175.2000	50
175.3000	38
175.4000	26
216.5000	27
216.6000	39
216.7000	37
216.8000	37
216.9000	37
217.0000	39
217.1000	36
217.2000	39
217.3000	36
217.4000	29
226.3000	118
226.4000	307
226.5000	415
226.6000	462
226.7000	464
226.8000	465
226.9000	478
227.0000	467
227.1000	455
227.2000	419
227.3000	409
227.4000	314
227.5000	135
227.6000	102
227.7000	93
227.8000	100
227.9000	99
228.0000	96
228.1000	105
228.2000	107
228.3000	79
228.4000	64
228.5000	24
244.3000	167
244.4000	475
244.5000	729
244.6000	785
244.7000	780
244.8000	789
244.9000	785
245.0000	778
245.1000	757
245.2000	715
245.3000	701
245.4000	614
245.5000	342
245.6000	262
245.7000	227
245.8000	230
245.9000	208
246.0000	210
246.1000	195
246.2000	189
246.3000	178
246.4000	151
246.5000	60
246.6000	41
246.7000	29
246.8000	29
246.9000	29
247.0000	30
247.1000	30
247.2000	28
247.3000	27
286.2000	45
286.3000	335
286.4000	742
286.5000	869
286.6000	937
286.7000	998
286.8000	975
286.9000	999
287.0000	997
287.1000	959
287.2000	894
287.3000	871
287.4000	760
287.5000	463
287.6000	384
287.7000	347
287.8000	362
287.9000	363
288.0000	380
288.1000	371
288.2000	358
288.3000	316
288.4000	235
288.5000	127
288.6000	94
288.7000	78
288.8000	75
288.9000	83
289.0000	75
289.1000	75
289.2000	66
289.3000	59
289.4000	44
386.7000	21
386.9000	24
387.0000	22
387.1000	21
403.3000	24
403.4000	77
403.5000	169
403.6000	227
403.7000	245
403.8000	261
403.9000	250
404.0000	246
404.1000	228
404.2000	224
404.3000	217
404.4000	146
404.5000	84
404.6000	69
404.7000	67
404.8000	67
404.9000	65
405.0000	65
405.1000	64
405.2000	59
405.3000	53
405.4000	37
672.4000	45
672.5000	66
672.6000	73
672.7000	79
672.8000	86
672.9000	85
673.0000	78
673.1000	72
673.2000	69
673.3000	43
673.4000	30
673.5000	33
673.6000	31
673.7000	33
673.8000	34
673.9000	36
674.0000	39
674.1000	36
674.2000	24
772.4000	31
772.5000	36
772.6000	41
772.7000	43
772.8000	45
772.9000	44
773.0000	44
773.1000	37
773.2000	33
773.3000	24
773.6000	24
773.7000	31
789.5000	27
789.6000	33
789.7000	41
789.8000	37
789.9000	37
790.0000	37
790.1000	35
790.2000	31
790.3000	25
