Mass spectrum: Ribalinine; LC-ESI-QQQ; MS2; Frag=135.0V CID@25.0; [M+H]+
Name: Ribalinine
Class: Alkaloids
Formula: C15H17NO3
Exact mass: 259.3076
SMILES: Cn1c2c(c(=O)c3ccccc31)C[C@@H](O)C(C)(C)O2
InChI: InChI=1S/C15H17NO3/c1-15(2)12(17)8-10-13(18)9-6-4-5-7-11(9)16(3)14(10)19-15/h4-7,12,17H,8H2,1-3H3/t12-/m1/s1
Instrument: Agilent 6410 Triple Quadrupole LC/MS system
Instrument type: LC-ESI-QQQ
Ms type: MS2
Ion mode: POSITIVE
Precursor type: [M+H]+
m/z	relative intensity
133.5	1
133.6	3
133.7	5
133.8	8
133.9	11
134.0	14
134.1	15
134.2	15
134.3	13
134.4	9
134.5	5
134.6	1
159.7	1
159.8	3
159.9	4
160.0	5
160.1	6
160.2	6
160.3	5
160.4	4
160.5	2
171.7	2
171.8	4
171.9	6
172.0	8
172.1	9
172.2	9
172.3	8
172.4	6
172.5	4
172.6	1
175.6	2
175.7	3
175.8	6
175.9	9
176.0	12
176.1	14
176.2	14
176.3	12
176.4	9
176.5	4
176.6	1
187.2	0
187.3	1
187.4	4
187.5	9
187.6	16
187.7	29
187.8	49
187.9	71
188.0	89
188.1	99
188.2	99
188.3	87
188.4	63
188.5	33
188.6	9
188.7	0
199.4	1
199.5	2
199.6	4
199.7	8
199.8	13
199.9	19
200.0	24
200.1	27
200.2	28
200.3	25
200.4	19
200.5	11
200.6	4
223.8	2
223.9	4
224.0	5
224.1	6
224.2	7
224.3	6
224.4	4
224.5	2
241.5	2
241.6	3
241.7	6
241.8	12
241.9	19
242.0	25
242.1	30
242.2	31
242.3	28
242.4	22
242.5	13
242.6	4
242.7	0
