Mass spectrum: Selinidin; LC-ESI-QQQ; MS; [M+H]+
Name: Selinidin
Class: Benzopyranoids
Formula: C19H20O5
Exact mass: 328.3683
SMILES: C/C=C(\C)C(=O)OC1Cc2c(ccc3ccc(=O)oc23)OC1(C)C
InChI: InChI=1S/C19H20O5/c1-5-11(2)18(21)22-15-10-13-14(24-19(15,3)4)8-6-12-7-9-16(20)23-17(12)13/h5-9,15H,10H2,1-4H3/b11-5+
Instrument: ABSciex API3200 LC/MS system
Instrument type: LC-ESI-QQQ
Ms type: MS
Ion mode: POSITIVE
Precursor type: [M+H]+
m/z	relative intensity
158.5000	50
158.6000	51
158.7000	51
158.8000	58
158.9000	49
159.0000	39
159.1000	44
159.2000	44
159.3000	29
159.4000	25
174.9000	29
186.4000	165
186.5000	285
186.6000	373
186.7000	361
186.8000	360
186.9000	383
187.0000	355
187.1000	317
187.2000	337
187.3000	270
187.4000	216
187.5000	83
187.6000	57
187.7000	50
187.8000	51
187.9000	59
188.0000	45
188.1000	40
188.2000	45
188.3000	43
188.4000	30
200.7000	24
200.8000	21
201.1000	21
201.2000	24
201.3000	21
228.4000	302
228.5000	585
228.6000	723
228.7000	773
228.8000	999
228.9000	610
229.0000	612
229.1000	601
229.2000	493
229.3000	527
229.4000	533
229.5000	230
229.6000	171
229.7000	122
229.8000	127
229.9000	136
230.0000	142
230.1000	137
230.2000	145
230.3000	126
230.4000	129
230.5000	30
230.6000	22
231.0000	22
328.3000	41
328.4000	238
328.5000	568
328.6000	740
328.7000	747
328.8000	723
328.9000	778
329.0000	732
329.1000	812
329.2000	656
329.3000	606
329.4000	465
329.5000	279
329.6000	224
329.7000	218
329.8000	207
329.9000	229
330.0000	203
330.1000	206
330.2000	212
330.3000	188
330.4000	161
330.5000	57
330.6000	37
330.7000	42
330.8000	47
330.9000	32
331.0000	38
331.1000	32
331.2000	34
331.3000	25
331.4000	21
345.4000	21
345.5000	35
345.6000	68
345.7000	84
345.8000	94
345.9000	80
346.0000	87
346.1000	94
346.2000	83
346.3000	93
346.4000	65
346.5000	31
346.6000	31
346.7000	22
346.8000	25
346.9000	30
347.0000	30
347.2000	25
369.6000	28
369.7000	27
369.8000	27
369.9000	28
370.0000	24
370.1000	24
370.2000	26
656.4000	28
656.5000	64
656.6000	86
656.7000	99
656.8000	98
656.9000	97
657.0000	111
657.1000	101
657.2000	95
657.3000	76
657.4000	42
657.5000	47
657.6000	41
657.7000	41
657.8000	43
657.9000	59
658.0000	46
658.1000	50
658.2000	37
658.3000	32
