Mass spectrum: Boldenone; LC-ESI-QQQ; MS2; Frag=135.0V CID@15.0; [M+H]+
Name: Boldenone
Class: Steroids
Formula: C19H26O2
Exact mass: 286.4179
SMILES: C[C@]12C=CC(=O)C=C1CCC1C2CC[C@]2(C)C(O)CCC12
InChI: InChI=1S/C19H26O2/c1-18-9-7-13(20)11-12(18)3-4-14-15-5-6-17(21)19(15,2)10-8-16(14)18/h7,9,11,14-17,21H,3-6,8,10H2,1-2H3/t14?,15?,16?,17?,18-,19-/m0/s1
Instrument: Agilent 6410 Triple Quadrupole LC/MS system
Instrument type: LC-ESI-QQQ
Ms type: MS2
Ion mode: POSITIVE
Precursor type: [M+H]+
m/z	relative intensity
108.8	2
108.9	3
109.0	4
109.1	4
109.2	4
109.3	2
120.2	0
120.3	2
120.4	4
120.5	9
120.6	17
120.7	30
120.8	49
120.9	72
121.0	91
121.1	99
121.2	96
121.3	81
121.4	57
121.5	30
121.6	8
121.7	0
132.7	2
132.8	3
132.9	5
133.0	6
133.1	7
133.2	7
133.3	6
133.4	4
133.5	2
134.3	0
134.4	1
134.5	4
134.6	8
134.7	15
134.8	25
134.9	37
135.0	51
135.1	60
135.2	62
135.3	56
135.4	45
135.5	30
135.6	14
135.7	3
146.5	1
146.6	3
146.7	5
146.8	9
146.9	14
147.0	17
147.1	19
147.2	18
147.3	16
147.4	12
147.5	7
147.6	2
148.7	2
148.8	4
148.9	6
149.0	9
149.1	11
149.2	11
149.3	9
149.4	7
149.5	4
149.6	2
158.7	2
158.8	4
158.9	5
159.0	6
159.1	7
159.2	7
159.3	5
159.4	4
159.5	2
160.7	2
160.8	4
160.9	7
161.0	9
161.1	11
161.2	11
161.3	11
161.4	9
161.5	5
161.6	2
172.4	0
172.5	2
172.6	4
172.7	8
172.8	14
172.9	21
173.0	28
173.1	31
173.2	31
173.3	28
173.4	23
173.5	15
173.6	7
173.7	1
178.7	2
178.8	4
178.9	6
179.0	8
179.1	9
179.2	10
179.3	9
179.4	8
179.5	6
179.6	3
268.8	2
268.9	3
269.0	5
269.1	6
269.2	6
269.3	6
269.4	4
269.5	3
286.9	2
287.0	3
287.1	5
287.2	6
287.3	6
287.4	5
287.5	4
287.6	2
