Mass spectrum: Gyrophoric acid; LC-ESI-QQQ; MS; [M+H]+
Name: Gyrophoric acid
Class: Carbohydrates
Formula: C24H20O10
Exact mass: 468.421
SMILES: Cc1cc(OC(=O)c2c(C)cc(OC(=O)c3c(C)cc(O)cc3O)cc2O)cc(O)c1C(=O)O
InChI: InChI=1S/C24H20O10/c1-10-4-13(25)7-16(26)20(10)23(31)34-15-6-12(3)21(18(28)9-15)24(32)33-14-5-11(2)19(22(29)30)17(27)8-14/h4-9,25-28H,1-3H3,(H,29,30)
Instrument: ABSciex API3200 LC/MS system
Instrument type: LC-ESI-QQQ
Ms type: MS
Ion mode: POSITIVE
Precursor type: [M+H]+
m/z	relative intensity
102.1000	41
102.3000	45
103.1000	22
103.4000	52
103.7000	29
104.2000	27
104.9000	21
105.3000	21
106.1000	25
106.4000	54
106.6000	50
108.4000	25
111.0000	76
111.1000	107
111.5000	39
112.6000	28
112.8000	70
113.0000	45
113.4000	63
113.6000	35
114.0000	58
115.3000	37
115.6000	21
117.1000	78
117.2000	44
118.0000	51
120.0000	51
120.6000	28
122.2000	21
122.4000	21
122.9000	42
123.0000	43
124.1000	24
124.3000	24
124.4000	54
124.5000	49
128.0000	113
128.1000	21
130.7000	50
131.6000	21
132.1000	22
133.5000	46
134.5000	68
134.6000	28
134.8000	83
138.0000	24
138.9000	45
139.2000	48
139.3000	49
140.0000	49
140.4000	73
141.0000	25
143.9000	22
144.3000	22
145.0000	106
145.1000	43
145.3000	42
146.8000	43
147.8000	24
148.1000	22
148.4000	88
148.5000	151
148.7000	191
149.3000	206
149.4000	33
149.6000	34
149.8000	25
149.9000	23
150.3000	139
150.4000	185
150.5000	886
150.6000	999
150.7000	703
150.8000	647
150.9000	665
151.0000	772
151.1000	622
151.2000	756
151.3000	576
151.4000	241
151.5000	170
151.6000	80
151.7000	146
151.8000	51
152.0000	173
152.1000	80
152.3000	52
152.5000	22
152.7000	54
153.1000	50
153.6000	22
154.3000	57
154.6000	23
155.0000	24
157.4000	40
159.3000	54
160.1000	27
160.7000	21
160.8000	84
161.4000	22
162.4000	24
162.5000	21
162.8000	40
162.9000	42
164.4000	23
165.3000	21
166.4000	36
166.6000	111
166.7000	102
166.8000	110
166.9000	50
168.6000	47
168.9000	21
169.0000	84
169.1000	84
169.2000	22
170.5000	23
171.7000	26
173.3000	49
174.4000	50
176.0000	53
176.3000	55
176.5000	41
176.8000	101
177.0000	98
177.1000	66
177.4000	46
182.7000	54
185.2000	24
185.6000	26
186.0000	27
186.3000	27
186.4000	26
187.3000	27
188.0000	25
188.5000	22
188.7000	24
188.8000	22
189.0000	21
189.5000	38
189.6000	35
189.8000	36
190.7000	44
191.6000	24
191.7000	55
191.8000	22
192.9000	24
195.2000	24
195.7000	23
195.8000	21
196.4000	54
196.8000	55
197.9000	22
198.3000	228
198.9000	29
199.1000	64
199.6000	48
200.1000	21
202.2000	29
205.1000	25
211.2000	22
211.9000	25
212.2000	26
212.8000	26
213.6000	34
216.9000	30
218.7000	53
219.1000	25
219.7000	26
221.1000	57
221.5000	33
221.7000	50
222.3000	94
223.5000	28
224.0000	39
224.7000	30
225.0000	55
226.9000	36
229.5000	26
231.5000	25
231.6000	27
231.7000	25
233.3000	81
236.7000	24
237.0000	22
238.6000	195
239.3000	38
240.0000	46
240.6000	49
242.8000	24
245.4000	26
245.7000	27
245.9000	26
246.5000	26
247.0000	26
251.3000	44
252.9000	24
253.1000	22
253.5000	26
254.0000	28
255.1000	23
255.3000	23
255.5000	27
256.1000	28
256.5000	26
257.4000	58
258.8000	21
259.8000	28
260.8000	43
261.5000	21
265.6000	48
266.6000	49
269.5000	23
269.7000	26
272.0000	28
274.4000	28
274.8000	24
275.1000	24
276.1000	28
276.5000	27
277.6000	59
279.0000	36
279.2000	44
279.8000	80
284.9000	22
285.0000	21
286.6000	22
287.4000	26
288.0000	28
288.6000	24
288.8000	26
289.3000	25
289.4000	24
290.5000	27
290.6000	26
292.6000	25
295.0000	36
295.8000	21
298.1000	51
300.2000	22
300.3000	83
300.4000	148
300.5000	144
300.6000	236
300.7000	146
300.8000	175
300.9000	234
301.0000	234
301.1000	333
301.2000	145
301.3000	51
301.4000	89
301.5000	58
301.7000	28
301.9000	58
302.1000	59
302.2000	29
303.1000	28
303.4000	29
303.9000	28
309.4000	27
310.1000	26
312.3000	54
312.7000	22
312.8000	21
313.1000	21
313.2000	22
316.9000	24
317.1000	24
319.0000	28
320.7000	27
320.8000	25
323.2000	23
324.8000	25
326.6000	43
329.2000	27
332.5000	27
332.8000	26
335.3000	26
338.7000	26
339.1000	27
344.6000	26
344.9000	28
345.1000	27
349.0000	27
349.1000	28
351.5000	27
351.6000	28
354.6000	24
355.9000	24
356.7000	26
357.5000	28
357.6000	28
361.1000	121
366.9000	58
368.3000	24
368.4000	27
368.5000	22
369.1000	54
369.2000	23
369.6000	26
370.3000	26
370.8000	22
371.0000	21
372.8000	26
373.7000	28
374.1000	28
374.3000	27
376.7000	28
381.2000	28
383.5000	27
386.6000	28
388.6000	23
389.8000	28
390.6000	29
390.8000	45
390.9000	49
391.2000	77
391.5000	30
393.2000	24
394.0000	28
401.6000	29
401.7000	29
406.9000	28
413.1000	26
415.3000	28
415.9000	27
417.6000	29
419.3000	27
420.4000	29
420.5000	30
427.2000	27
428.9000	28
429.1000	27
432.6000	26
433.2000	31
433.3000	30
433.7000	22
434.0000	21
437.1000	26
438.9000	26
440.4000	27
446.8000	28
446.9000	29
447.1000	28
449.3000	22
450.8000	28
451.3000	28
454.3000	26
454.8000	23
457.0000	28
459.0000	28
465.0000	28
466.9000	27
468.1000	29
468.3000	58
468.4000	86
468.5000	149
468.6000	117
468.7000	268
468.8000	176
468.9000	240
469.0000	336
469.1000	335
469.2000	401
469.3000	117
469.4000	27
469.5000	56
469.6000	59
469.7000	58
469.8000	59
469.9000	90
470.0000	28
470.1000	27
470.2000	56
470.3000	60
470.4000	60
470.5000	59
470.7000	59
470.8000	28
470.9000	29
471.2000	28
471.3000	28
471.6000	29
472.7000	29
476.4000	28
482.4000	29
483.5000	28
483.7000	29
485.4000	28
485.5000	27
485.6000	59
485.9000	26
486.0000	88
486.1000	28
486.2000	26
486.3000	29
486.4000	28
486.6000	27
487.0000	29
487.3000	29
490.8000	28
491.4000	28
492.4000	29
492.8000	28
492.9000	60
493.4000	28
493.6000	29
494.5000	29
498.4000	28
500.6000	28
500.8000	28
510.3000	29
510.7000	28
514.6000	28
516.5000	29
521.7000	28
523.0000	29
523.9000	28
529.3000	30
533.5000	59
533.6000	28
539.2000	29
546.5000	29
546.9000	29
551.5000	29
561.6000	29
563.6000	60
563.9000	29
566.6000	29
589.0000	29
598.4000	28
600.6000	29
600.7000	28
601.0000	29
601.4000	29
602.0000	28
618.1000	29
618.3000	29
618.4000	91
618.5000	90
618.6000	154
618.7000	184
618.8000	310
618.9000	342
619.0000	122
619.1000	90
619.2000	123
619.3000	29
619.4000	92
619.5000	123
619.6000	29
619.7000	60
619.8000	60
619.9000	60
620.0000	92
620.1000	247
620.2000	686
620.3000	123
621.1000	29
650.5000	28
653.2000	29
653.3000	29
656.5000	29
665.4000	29
665.9000	28
671.7000	29
676.3000	30
699.8000	28
743.2000	30
750.8000	29
759.0000	29
765.9000	30
766.1000	30
768.3000	28
768.4000	61
768.6000	92
768.7000	29
768.8000	29
768.9000	30
769.4000	30
770.3000	30
770.4000	29
771.7000	29
774.1000	29
782.6000	29
789.8000	29
796.3000	29
804.4000	29
805.1000	30
806.7000	29
834.3000	29
847.4000	30
852.2000	30
900.3000	29
907.4000	29
919.9000	30
934.2000	29
935.2000	30
936.2000	60
936.3000	60
936.4000	28
936.5000	154
936.6000	184
936.7000	123
936.8000	91
936.9000	60
937.0000	28
937.1000	154
937.2000	123
937.3000	92
937.4000	29
937.5000	91
937.6000	152
937.7000	154
937.8000	61
938.0000	60
938.2000	29
938.3000	29
938.4000	30
938.5000	29
938.6000	91
938.9000	30
943.1000	29
947.1000	29
952.1000	29
953.1000	60
953.4000	28
953.5000	59
953.6000	59
953.7000	91
953.8000	27
954.0000	59
954.1000	60
954.2000	28
954.4000	29
954.7000	30
954.8000	91
955.1000	28
957.5000	30
957.9000	29
961.0000	29
961.5000	61
962.4000	30
964.8000	29
969.1000	29
975.1000	29
978.5000	30
984.8000	29
990.6000	29
990.8000	29
990.9000	29
991.8000	29
994.1000	29
997.8000	30
1007.2000	29
1013.7000	30
1018.9000	30
1035.0000	30
1067.9000	30
1068.3000	29
1069.0000	29
1072.8000	30
1086.1000	30
1086.3000	61
1086.5000	29
1086.6000	61
1086.9000	30
1087.0000	61
1087.1000	29
1087.3000	30
1087.4000	29
1087.6000	60
1087.9000	30
1088.2000	28
1088.6000	61
1088.9000	29
1089.0000	29
1089.9000	29
1090.1000	30
1108.4000	29
1116.7000	29
1127.2000	30
1136.7000	30
1139.0000	29
1146.3000	30
1181.7000	30
1189.3000	30
1199.7000	30
1211.3000	29
1289.0000	30
1311.4000	30
1328.4000	30
1368.7000	30
1403.8000	61
1404.1000	123
1404.2000	61
1404.3000	61
1404.4000	61
1404.5000	29
1404.6000	92
1404.8000	30
1404.9000	30
1405.2000	29
1405.4000	60
1405.5000	30
1405.6000	92
1405.7000	29
1405.8000	29
1405.9000	61
1406.0000	30
1407.1000	29
1407.2000	30
1407.5000	61
1407.6000	30
1415.6000	30
1421.2000	29
1421.3000	61
1421.5000	30
1421.8000	29
1421.9000	30
1422.0000	29
1422.2000	29
1422.5000	29
1422.6000	30
1422.7000	30
1423.0000	30
1423.7000	30
1424.1000	29
1424.2000	29
1432.8000	30
1433.4000	30
1433.6000	30
1436.8000	30
1440.2000	29
1456.7000	30
1456.8000	29
1457.6000	30
1459.2000	30
1459.6000	30
1463.5000	30
1472.0000	30
1479.7000	30
1485.2000	30
