Mass spectrum: 20-Hydroxyecdysone 20,22-acetonide; LC-ESI-QQQ; MS2; Frag=135.0V CID@5.0; [M+H]+
Name: 20-Hydroxyecdysone 20,22-acetonide
Class: Steroids
Formula: C30H48O7
Exact mass: 520.7129
SMILES: CC(C)(O)CC[C@H]1OC(C)(C)O[C@]1(C)[C@H]1CC[C@@]2(O)C3=CC(=O)[C@@H]4C[C@@H](O)[C@@H](O)C[C@]4(C)[C@H]3CC[C@]12C
InChI: InChI=1S/C30H48O7/c1-25(2,34)11-10-24-29(7,37-26(3,4)36-24)23-9-13-30(35)18-14-20(31)19-15-21(32)22(33)16-27(19,5)17(18)8-12-28(23,30)6/h14,17,19,21-24,32-35H,8-13,15-16H2,1-7H3/t17-,19-,21+,22-,23-,24+,27+,28+,29+,30+/m0/s1
Instrument: Agilent 6410 Triple Quadrupole LC/MS system
Instrument type: LC-ESI-QQQ
Ms type: MS2
Ion mode: POSITIVE
Precursor type: [M+H]+
m/z	relative intensity
426.9	2
427.0	3
427.1	4
427.2	5
427.3	5
427.4	5
427.5	3
427.6	1
444.4	0
444.5	2
444.6	4
444.7	7
444.8	12
444.9	21
445.0	33
445.1	47
445.2	56
445.3	59
445.4	54
445.5	43
445.6	28
445.7	13
445.8	2
502.5	0
502.6	1
502.7	3
502.8	5
502.9	8
503.0	11
503.1	15
503.2	17
503.3	20
503.4	21
503.5	19
503.6	14
503.7	7
503.8	1
520.4	1
520.5	2
520.6	4
520.7	9
520.8	17
520.9	30
521.0	46
521.1	63
521.2	80
521.3	93
521.4	99
521.5	92
521.6	68
521.7	37
521.8	10
521.9	0
