Mass spectrum: Methylevoxine; LC-ESI-QQQ; MS2; Frag=135.0V CID@10.0; [M+H]+
Name: Methylevoxine
Class: Alkaloids
Formula: C19H23NO6
Exact mass: 361.3983
SMILES: COc1c2ccoc2nc2c(OC)c(OCC(O)C(C)(C)OC)ccc12
InChI: InChI=1S/C19H23NO6/c1-19(2,24-5)14(21)10-26-13-7-6-11-15(17(13)23-4)20-18-12(8-9-25-18)16(11)22-3/h6-9,14,21H,10H2,1-5H3
Instrument: Agilent 6410 Triple Quadrupole LC/MS system
Instrument type: LC-ESI-QQQ
Ms type: MS2
Ion mode: POSITIVE
Precursor type: [M+H]+
m/z	relative intensity
245.6	1
245.7	3
245.8	5
245.9	7
246.0	8
246.1	8
246.2	8
246.3	7
246.4	4
246.5	1
329.3	1
329.4	2
329.5	5
329.6	7
329.7	13
329.8	23
329.9	39
330.0	55
330.1	65
330.2	67
330.3	61
330.4	46
330.5	27
330.6	9
330.7	0
361.3	1
361.4	2
361.5	5
361.6	9
361.7	17
361.8	30
361.9	50
362.0	73
362.1	92
362.2	99
362.3	91
362.4	67
362.5	36
362.6	10
362.7	0
