Mass spectrum: Norlaudanosoline; LC-ESI-QQQ; MS2; Frag=135.0V CID@10.0; [M+H]+
Name: Norlaudanosoline
Class: Alkaloids
Formula: C16H17NO4
Exact mass: 287.3182
SMILES: Oc1ccc(CC2NCCc3cc(O)c(O)cc32)cc1O
InChI: InChI=1S/C16H17NO4/c18-13-2-1-9(6-14(13)19)5-12-11-8-16(21)15(20)7-10(11)3-4-17-12/h1-2,6-8,12,17-21H,3-5H2
Instrument: Agilent 6410 Triple Quadrupole LC/MS system
Instrument type: LC-ESI-QQQ
Ms type: MS2
Ion mode: POSITIVE
Precursor type: [M+H]+
m/z	relative intensity
122.4	1
122.5	3
122.6	5
122.7	9
122.8	13
122.9	17
123.0	19
123.1	20
123.2	18
123.3	13
123.4	8
123.5	3
160.3	0
160.4	1
160.5	4
160.6	7
160.7	12
160.8	17
160.9	23
161.0	27
161.1	30
161.2	30
161.3	27
161.4	21
161.5	12
161.6	4
161.7	0
163.2	0
163.3	1
163.4	5
163.5	12
163.6	22
163.7	37
163.8	55
163.9	75
164.0	90
164.1	98
164.2	97
164.3	82
164.4	56
164.5	27
164.6	5
164.7	0
270.4	1
270.5	3
270.6	5
270.7	9
270.8	15
270.9	20
271.0	25
271.1	29
271.2	29
271.3	26
271.4	19
271.5	10
271.6	2
287.3	1
287.4	3
287.5	7
287.6	15
287.7	26
287.8	43
287.9	63
288.0	83
288.1	96
288.2	99
288.3	91
288.4	70
288.5	42
288.6	15
288.7	0
