Mass spectrum: piperine; LC-ESI-QQQ; MS; [M+H]+
Name: piperine
Class: Alkaloids
Formula: C17H19NO3
Exact mass: 285.3459
SMILES: O=C(/C=C/C=C/c1ccc2c(c1)OCO2)N1CCCCC1
InChI: InChI=1S/C17H19NO3/c19-17(18-10-4-1-5-11-18)7-3-2-6-14-8-9-15-16(12-14)21-13-20-15/h2-3,6-9,12H,1,4-5,10-11,13H2/b6-2+,7-3+
Instrument: ABSciex API3200 LC/MS system
Instrument type: LC-ESI-QQQ
Ms type: MS
Ion mode: POSITIVE
Precursor type: [M+H]+
m/z	relative intensity
111.5000	36
111.6000	45
111.7000	47
111.8000	51
111.9000	48
112.0000	48
112.1000	49
112.2000	57
112.3000	46
112.4000	38
112.5000	21
114.5000	42
114.6000	55
114.7000	47
114.8000	60
114.9000	57
115.0000	62
115.1000	82
115.2000	57
115.3000	59
115.4000	41
134.3000	113
134.4000	194
134.5000	316
134.6000	326
134.7000	344
134.8000	356
134.9000	360
135.0000	390
135.1000	330
135.2000	291
135.3000	240
135.4000	197
135.5000	67
135.6000	39
135.7000	32
135.8000	34
135.9000	36
136.0000	49
136.1000	43
136.2000	30
136.3000	31
136.4000	26
141.6000	24
142.4000	31
142.5000	64
142.6000	91
142.7000	91
142.8000	83
142.9000	78
143.0000	80
143.1000	78
143.2000	63
143.3000	63
143.4000	48
150.7000	22
150.8000	22
150.9000	31
151.1000	26
151.2000	29
158.5000	35
158.6000	26
158.7000	33
158.8000	28
158.9000	25
159.0000	63
159.1000	48
170.4000	44
170.5000	77
170.6000	93
170.7000	107
170.8000	85
170.9000	87
171.0000	85
171.1000	86
171.2000	81
171.3000	72
171.4000	59
171.5000	24
172.4000	36
172.5000	58
172.6000	64
172.7000	68
172.8000	73
172.9000	64
173.0000	70
173.1000	85
173.2000	60
173.3000	48
173.4000	48
200.3000	184
200.4000	689
200.5000	808
200.6000	934
200.7000	903
200.8000	917
200.9000	910
201.0000	891
201.1000	876
201.2000	882
201.3000	824
201.4000	813
201.5000	535
201.6000	280
201.7000	275
201.8000	288
201.9000	264
202.0000	248
202.1000	283
202.2000	228
202.3000	235
202.4000	184
202.5000	69
202.6000	48
202.7000	43
202.8000	47
202.9000	45
203.0000	39
203.1000	39
203.2000	37
203.3000	23
203.4000	24
285.2000	30
285.3000	129
285.4000	701
285.5000	927
285.6000	989
285.7000	968
285.8000	933
285.9000	880
286.0000	867
286.1000	884
286.2000	931
286.3000	994
286.4000	999
286.5000	670
286.6000	610
286.7000	555
286.8000	501
286.9000	570
287.0000	688
287.1000	628
287.2000	702
287.3000	662
287.4000	456
287.5000	244
287.6000	169
287.7000	137
287.8000	134
287.9000	137
288.0000	132
288.1000	140
288.2000	137
288.3000	121
288.4000	97
288.5000	49
288.6000	28
288.7000	23
349.7000	22
349.9000	26
350.0000	27
350.1000	21
570.5000	55
570.6000	111
570.7000	139
570.8000	138
570.9000	142
571.0000	129
571.1000	125
571.2000	106
571.3000	90
571.4000	71
571.5000	36
571.6000	53
571.7000	59
571.8000	47
571.9000	51
572.0000	49
572.1000	48
572.2000	46
572.3000	31
572.4000	26
