Mass spectrum: Reserpinine; LC-ESI-QQQ; MS2; Frag=135.0V CID@15.0; [M+H]+
Name: Reserpinine
Class: Alkaloids
Formula: C22H26N2O4
Exact mass: 382.4635
SMILES: COC(=O)C1=CO[C@@H](C)[C@@H]2CN3CCc4c([nH]c5cc(OC)ccc45)[C@@H]3C[C@H]12
InChI: InChI=1S/C22H26N2O4/c1-12-17-10-24-7-6-15-14-5-4-13(26-2)8-19(14)23-21(15)20(24)9-16(17)18(11-28-12)22(25)27-3/h4-5,8,11-12,16-17,20,23H,6-7,9-10H2,1-3H3/t12-,16-,17-,20-/m0/s1
Instrument: Agilent 6410 Triple Quadrupole LC/MS system
Instrument type: LC-ESI-QQQ
Ms type: MS2
Ion mode: POSITIVE
Precursor type: [M+H]+
m/z	relative intensity
173.3	0
173.4	2
173.5	5
173.6	10
173.7	19
173.8	33
173.9	49
174.0	62
174.1	68
174.2	68
174.3	61
174.4	47
174.5	29
174.6	10
174.7	0
209.7	2
209.8	3
209.9	5
210.0	6
210.1	6
210.2	6
210.3	5
210.4	4
210.5	2
221.5	2
221.6	3
221.7	7
221.8	12
221.9	20
222.0	27
222.1	31
222.2	31
222.3	28
222.4	22
222.5	14
222.6	5
222.7	0
382.3	0
382.4	1
382.5	4
382.6	8
382.7	14
382.8	26
382.9	46
383.0	69
383.1	89
383.2	99
383.3	99
383.4	88
383.5	65
383.6	36
383.7	10
383.8	0
