Mass spectrum: cyclo(methionylpropyl); LC-ESI-QQQ; MS; [M+H]+
Name: cyclo(methionylpropyl)
Class: -
Formula: C10H16N2O2S
Exact mass: 228.31521999999998
SMILES: CSCC[C@@H]1N=C(O)[C@@H]2CCCN2C1=O
InChI: InChI=1S/C10H16N2O2S/c1-15-6-4-7-10(14)12-5-2-3-8(12)9(13)11-7/h7-8H,2-6H2,1H3,(H,11,13)/t7-,8-/m0/s1
Instrument: ABSciex API3200 LC/MS system
Instrument type: LC-ESI-QQQ
Ms type: MS
Ion mode: POSITIVE
Precursor type: [M+H]+
m/z	relative intensity
118.6000	21
124.4000	23
124.5000	57
124.6000	83
124.7000	77
124.8000	89
124.9000	84
125.0000	82
125.1000	96
125.2000	68
125.3000	60
125.4000	53
152.7000	24
152.8000	27
152.9000	29
153.1000	23
180.3000	31
180.4000	375
180.5000	592
180.6000	694
180.7000	732
180.8000	737
180.9000	804
181.0000	999
181.1000	725
181.2000	512
181.3000	489
181.4000	521
181.5000	261
181.6000	168
181.7000	86
181.8000	106
181.9000	109
182.0000	97
182.1000	93
182.2000	93
182.3000	84
182.4000	91
182.5000	68
228.3000	26
228.4000	196
228.5000	475
228.6000	593
228.7000	686
228.8000	666
228.9000	671
229.0000	659
229.1000	668
229.2000	598
229.3000	633
229.4000	699
229.5000	290
229.6000	145
229.7000	102
229.8000	105
229.9000	113
230.0000	108
230.1000	120
230.2000	113
230.3000	122
230.4000	81
230.5000	57
230.6000	60
230.7000	78
230.8000	51
230.9000	58
231.0000	54
231.1000	48
231.2000	38
231.3000	41
231.4000	38
269.5000	27
269.6000	34
269.7000	33
269.8000	35
269.9000	34
270.0000	39
270.1000	42
270.2000	52
270.3000	49
456.4000	35
456.5000	92
456.6000	88
456.7000	93
456.8000	110
456.9000	99
457.0000	168
457.1000	199
457.2000	91
457.3000	82
457.4000	44
457.5000	23
