Mass spectrum: norbraylin; LC-ESI-QQQ; MS2; Frag=135.0V CID@15.0; [M+H]+
Name: norbraylin
Class: Benzopyranoids
Formula: C14H12O4
Exact mass: 244.2493
SMILES: CC1(C)Oc2ccc3ccc(=O)oc3c2CC1=O
InChI: InChI=1S/C14H12O4/c1-14(2)11(15)7-9-10(18-14)5-3-8-4-6-12(16)17-13(8)9/h3-6H,7H2,1-2H3
Instrument: Agilent 6410 Triple Quadrupole LC/MS system
Instrument type: LC-ESI-QQQ
Ms type: MS2
Ion mode: POSITIVE
Precursor type: [M+H]+
m/z	relative intensity
174.2	0
174.3	2
174.4	5
174.5	13
174.6	24
174.7	40
174.8	60
174.9	79
175.0	94
175.1	99
175.2	96
175.3	82
175.4	58
175.5	29
175.6	6
175.7	0
188.6	1
188.7	3
188.8	4
188.9	6
189.0	7
189.1	7
189.2	7
189.3	5
189.4	3
189.5	1
202.6	2
202.7	3
202.8	4
202.9	5
203.0	6
203.1	6
203.2	6
203.3	5
203.4	3
216.7	2
216.8	3
216.9	5
217.0	6
217.1	7
217.2	7
217.3	6
217.4	5
217.5	3
226.5	1
226.6	2
226.7	4
226.8	6
226.9	8
227.0	10
227.1	10
227.2	9
227.3	8
227.4	6
227.5	3
244.3	0
244.4	3
244.5	7
244.6	12
244.7	21
244.8	32
244.9	45
245.0	55
245.1	60
245.2	60
245.3	52
245.4	38
245.5	20
245.6	5
245.7	0
