Mass spectrum: Bryoamaride; LC-ESI-QQQ; MS2; Frag=135.0V CID@10.0; [M-OH]+
Name: Bryoamaride
Class: Terpenoids
Formula: C36H54O12
Exact mass: 678.8246
SMILES: CC(C)(O)CCC(=O)[C@](C)(O)C1[C@H](O)C[C@@]2(C)C3CC=C4[C@@H](C=C(OC5OC(CO)C(O)C(O)C5O)C(=O)C4(C)C)[C@]3(C)C(=O)C[C@]12C
InChI: InChI=1S/C36H54O12/c1-31(2,45)12-11-23(39)36(8,46)28-19(38)14-33(5)22-10-9-17-18(35(22,7)24(40)15-34(28,33)6)13-20(29(44)32(17,3)4)47-30-27(43)26(42)25(41)21(16-37)48-30/h9,13,18-19,21-22,25-28,30,37-38,41-43,45-46H,10-12,14-16H2,1-8H3/t18-,19-,21?,22?,25?,26?,27?,28?,30?,33+,34-,35+,36+/m1/s1
Instrument: Agilent 6410 Triple Quadrupole LC/MS system
Instrument type: LC-ESI-QQQ
Ms type: MS2
Ion mode: POSITIVE
Precursor type: [M-OH]+
m/z	relative intensity
456.7	1
456.8	3
456.9	5
457.0	6
457.1	6
457.2	4
457.3	3
480.7	1
480.8	2
480.9	5
481.0	12
481.1	22
481.2	30
481.3	31
481.4	24
481.5	14
481.6	5
481.7	0
498.5	2
498.6	3
498.7	7
498.8	19
498.9	40
499.0	65
499.1	86
499.2	97
499.3	99
499.4	94
499.5	79
499.6	52
499.7	21
499.8	0
660.5	3
660.6	5
660.7	11
660.8	16
660.9	22
661.0	30
661.1	40
661.2	49
661.3	55
661.4	55
661.5	48
661.6	34
661.7	17
661.8	3
