Mass spectrum: Subhirsine; LC-ESI-QQQ; MS; [M+H]+
Name: Subhirsine
Class: Alkaloids
Formula: C33H40N2O9
Exact mass: 608.6947
SMILES: COc1ccc(C(=O)OC2C[C@@H]3CC[C@H](C2)N3C(=O)N2[C@H]3CC[C@@H]2CC(OC(=O)c2ccc(OC)c(OC)c2)C3)cc1OC
InChI: InChI=1S/C33H40N2O9/c1-39-27-11-5-19(13-29(27)41-3)31(36)43-25-15-21-7-8-22(16-25)34(21)33(38)35-23-9-10-24(35)18-26(17-23)44-32(37)20-6-12-28(40-2)30(14-20)42-4/h5-6,11-14,21-26H,7-10,15-18H2,1-4H3/t21-,22+,23-,24+,25?,26?
Instrument: ABSciex API3200 LC/MS system
Instrument type: LC-ESI-QQQ
Ms type: MS
Ion mode: POSITIVE
Precursor type: [M+H]+
m/z	relative intensity
100.1000	143
100.2000	34
100.7000	172
100.8000	566
100.9000	764
101.0000	662
101.1000	680
101.2000	712
101.3000	411
101.4000	432
101.5000	280
101.6000	69
101.7000	90
101.8000	167
101.9000	143
102.0000	155
102.2000	87
102.3000	68
102.4000	45
102.9000	23
105.4000	22
107.3000	35
107.9000	40
110.9000	39
111.3000	22
111.7000	25
112.6000	21
113.6000	27
114.4000	23
114.8000	50
115.2000	40
117.9000	28
118.4000	52
118.5000	44
120.9000	25
121.0000	30
122.0000	22
122.2000	35
122.7000	21
124.8000	22
126.7000	34
126.9000	49
129.8000	29
132.1000	25
134.3000	24
134.4000	28
134.6000	101
134.7000	117
134.9000	121
135.0000	122
135.1000	213
135.2000	64
135.3000	57
135.5000	39
136.1000	36
137.7000	26
139.0000	21
139.1000	21
140.9000	23
141.4000	111
141.5000	367
141.6000	311
141.7000	368
141.8000	44
141.9000	374
142.0000	119
142.1000	132
142.3000	35
142.8000	27
145.0000	54
145.2000	22
146.2000	45
146.6000	22
148.6000	40
149.0000	22
149.1000	25
149.4000	27
151.5000	23
152.7000	24
154.9000	25
155.3000	43
158.0000	42
159.1000	26
159.8000	25
163.4000	38
164.5000	28
164.7000	56
164.8000	53
164.9000	25
165.0000	40
165.1000	86
165.2000	24
165.3000	58
165.4000	27
165.6000	29
166.4000	21
166.5000	21
166.8000	25
167.5000	35
170.5000	25
177.2000	28
181.3000	23
182.5000	26
182.6000	71
182.8000	57
182.9000	23
183.1000	41
183.2000	24
184.4000	25
188.3000	27
189.3000	24
190.3000	24
192.5000	41
196.3000	27
198.0000	26
199.3000	28
200.8000	21
201.4000	25
202.6000	27
203.4000	27
213.7000	29
214.9000	22
216.6000	31
216.7000	22
221.3000	79
235.0000	27
236.2000	27
238.4000	43
238.6000	42
238.7000	55
239.1000	22
239.3000	24
239.4000	31
239.9000	26
240.5000	38
244.4000	28
244.5000	119
244.6000	209
244.7000	210
244.8000	270
244.9000	195
245.0000	149
245.1000	271
245.2000	144
245.3000	225
245.4000	184
245.5000	106
245.6000	58
245.7000	43
245.8000	57
245.9000	75
246.2000	58
246.4000	90
246.5000	59
246.7000	27
247.8000	53
249.3000	22
250.4000	26
260.8000	37
261.5000	34
262.0000	23
262.2000	26
275.2000	27
279.4000	143
293.3000	26
310.5000	22
311.5000	23
318.0000	28
324.7000	29
382.8000	28
391.9000	36
392.2000	24
426.4000	60
426.5000	320
426.6000	443
426.7000	694
426.8000	578
426.9000	576
427.0000	609
427.1000	688
427.2000	753
427.3000	518
427.4000	317
427.5000	290
427.6000	150
427.7000	258
427.8000	260
427.9000	106
428.0000	182
428.1000	198
428.2000	165
428.3000	58
428.4000	135
428.5000	28
428.6000	29
428.7000	29
428.9000	28
429.0000	28
429.1000	29
429.4000	30
429.6000	28
429.8000	29
608.4000	28
608.5000	164
608.6000	175
608.7000	326
608.8000	495
608.9000	644
609.0000	880
609.1000	999
609.2000	882
609.3000	681
609.4000	666
609.5000	285
609.6000	194
609.7000	364
609.8000	287
609.9000	475
610.0000	412
610.1000	548
610.2000	442
610.3000	425
610.4000	179
610.5000	122
610.6000	136
610.7000	152
610.8000	106
610.9000	153
611.0000	136
611.1000	74
611.2000	90
611.3000	75
611.4000	122
611.8000	44
612.1000	45
612.3000	138
612.4000	76
626.0000	29
628.0000	30
639.7000	30
646.8000	29
647.1000	29
650.0000	30
650.1000	29
785.4000	29
1019.1000	30
1216.4000	30
1216.5000	30
1216.6000	30
1216.7000	61
1217.1000	76
1217.3000	76
1217.4000	61
1217.5000	76
1217.6000	45
1217.7000	76
1217.8000	61
1217.9000	30
1218.0000	45
1218.1000	29
1218.2000	92
1218.3000	30
1218.4000	30
1218.5000	30
1218.7000	29
1218.9000	61
1233.8000	29
1234.0000	30
1234.1000	30
1234.2000	30
1234.7000	30
1235.2000	30
1261.6000	29
