Mass spectrum: Macusine B; LC-ESI-QQQ; MS; [M+H]+
Name: Macusine B
Class: Alkaloids
Formula: [C20H25N2O]+
Exact mass: 309.435
SMILES: C/C=C1/C[N+]2(C)C3CC1C(CO)C2Cc1c3[nH]c2ccccc12
InChI: InChI=1S/C20H25N2O/c1-3-12-10-22(2)18-9-15-13-6-4-5-7-17(13)21-20(15)19(22)8-14(12)16(18)11-23/h3-7,14,16,18-19,21,23H,8-11H2,1-2H3/q+1/b12-3-
Instrument: ABSciex API3200 LC/MS system
Instrument type: LC-ESI-QQQ
Ms type: MS
Ion mode: POSITIVE
Precursor type: [M]+
m/z	relative intensity
121.7000	23
121.8000	23
121.9000	25
122.0000	26
122.1000	26
122.3000	22
133.5000	33
133.6000	47
133.7000	57
133.8000	74
133.9000	78
134.0000	58
134.1000	75
134.2000	64
134.3000	54
134.4000	73
134.5000	97
134.6000	84
134.7000	92
134.8000	97
134.9000	103
135.0000	89
135.1000	132
135.2000	83
135.3000	75
135.4000	76
135.5000	80
135.6000	79
135.7000	57
135.8000	103
135.9000	90
136.0000	215
136.1000	117
136.2000	75
136.3000	77
136.4000	43
136.5000	44
143.9000	21
144.0000	21
147.6000	35
147.7000	27
147.8000	53
147.9000	59
148.0000	45
148.1000	47
148.2000	37
148.3000	36
148.4000	29
148.9000	21
151.4000	28
151.5000	56
151.6000	127
151.7000	170
151.8000	158
151.9000	144
152.0000	153
152.1000	153
152.2000	174
152.3000	113
152.4000	140
152.5000	71
152.6000	31
152.8000	24
152.9000	23
153.0000	22
153.1000	25
153.2000	25
155.6000	24
155.8000	22
159.5000	49
159.6000	53
159.7000	234
159.8000	153
159.9000	56
160.0000	77
160.1000	70
160.2000	58
160.3000	60
160.4000	67
160.5000	45
160.8000	21
160.9000	22
161.3000	24
161.4000	22
178.3000	21
260.4000	36
260.5000	42
260.6000	72
260.7000	62
260.8000	63
260.9000	59
261.0000	56
261.1000	62
261.2000	52
261.3000	50
261.4000	61
261.5000	40
261.6000	27
261.7000	29
261.8000	29
261.9000	35
262.0000	28
262.1000	30
262.2000	23
262.3000	24
262.4000	22
275.8000	37
275.9000	102
276.0000	23
290.4000	127
290.5000	328
290.6000	455
290.7000	523
290.8000	554
290.9000	566
291.0000	565
291.1000	583
291.2000	583
291.3000	514
291.4000	501
291.5000	356
291.6000	231
291.7000	227
291.8000	184
291.9000	195
292.0000	213
292.1000	180
292.2000	173
292.3000	153
292.4000	236
292.5000	145
292.6000	33
292.8000	24
293.0000	22
293.1000	24
293.3000	23
293.4000	23
307.5000	23
307.6000	32
307.7000	29
307.8000	42
307.9000	49
308.0000	39
308.1000	34
308.2000	58
308.3000	66
308.4000	436
308.5000	748
308.6000	900
308.7000	961
308.8000	922
308.9000	918
309.0000	916
309.1000	999
309.2000	965
309.3000	799
309.4000	785
309.5000	514
309.6000	398
309.7000	401
309.8000	384
309.9000	404
310.0000	393
310.1000	352
310.2000	391
310.3000	320
310.4000	423
310.5000	470
310.6000	180
310.7000	66
310.8000	61
310.9000	53
311.0000	55
311.1000	62
311.2000	69
311.3000	56
311.4000	45
311.5000	23
324.0000	31
326.6000	31
326.7000	38
326.8000	49
326.9000	58
327.0000	40
327.1000	40
327.2000	34
327.3000	47
327.4000	33
327.5000	21
327.7000	21
340.4000	21
340.5000	27
340.6000	46
340.7000	57
340.8000	62
340.9000	52
341.0000	59
341.1000	147
341.2000	34
341.3000	24
341.4000	22
341.5000	28
341.6000	24
