Mass spectrum: Hupehemonoside; LC-ESI-QQQ; MS; [M+H]+
Name: Hupehemonoside
Class: Alkaloids
Formula: C33H53NO8
Exact mass: 591.7923
SMILES: C[C@H]1CC[C@@H]2N(CC3[C@@H]4C[C@H]5C(CC(=O)[C@H]6CC(OC7O[C@H](CO)[C@@H](O)[C@H](O)[C@H]7O)CC[C@@]65C)[C@@H]4CC[C@H]3[C@]2(C)O)C1
InChI: InChI=1S/C33H53NO8/c1-16-4-7-27-33(3,40)22-6-5-18-19(21(22)14-34(27)13-16)11-23-20(18)12-25(36)24-10-17(8-9-32(23,24)2)41-31-30(39)29(38)28(37)26(15-35)42-31/h16-24,26-31,35,37-40H,4-15H2,1-3H3/t16-,17?,18+,19+,20?,21?,22+,23-,24+,26+,27-,28+,29-,30+,31?,32+,33-/m0/s1
Instrument: ABSciex API3200 LC/MS system
Instrument type: LC-ESI-QQQ
Ms type: MS
Ion mode: POSITIVE
Precursor type: [M+H]+
m/z	relative intensity
100.6000	27
100.7000	28
100.8000	39
100.9000	33
101.0000	40
101.1000	37
101.2000	44
101.3000	29
101.4000	23
573.9000	21
574.0000	21
574.1000	27
574.2000	25
574.3000	28
574.4000	22
591.4000	100
591.5000	239
591.6000	662
591.7000	946
591.8000	989
591.9000	971
592.0000	999
592.1000	986
592.2000	970
592.3000	951
592.4000	844
592.5000	650
592.6000	337
592.7000	468
592.8000	499
592.9000	541
593.0000	554
593.1000	557
593.2000	628
593.3000	548
593.4000	485
593.5000	390
593.6000	195
593.7000	179
593.8000	208
593.9000	189
594.0000	155
594.1000	184
594.2000	177
594.3000	179
594.4000	150
594.5000	117
594.6000	42
594.7000	37
594.8000	36
594.9000	38
595.0000	37
595.1000	38
595.2000	36
595.3000	35
595.4000	25
595.5000	22
