Mass spectrum: Carminomycin I; LC-ESI-QQQ; MS2; Frag=135.0V CID@10.0; [M+H]+
Name: Carminomycin I
Class: Polycyclic aromatic natural products
Formula: C26H27NO10
Exact mass: 513.5058
SMILES: CC(=O)[C@]1(O)Cc2c(O)c3c(c(O)c2[C@@H](O[C@H]2C[C@H](N)[C@H](O)[C@H](C)O2)C1)C(=O)c1c(O)cccc1C3=O
InChI: InChI=1S/C26H27NO10/c1-9-21(30)13(27)6-16(36-9)37-15-8-26(35,10(2)28)7-12-18(15)25(34)20-19(23(12)32)22(31)11-4-3-5-14(29)17(11)24(20)33/h3-5,9,13,15-16,21,29-30,32,34-35H,6-8,27H2,1-2H3/t9-,13-,15-,16-,21+,26-/m0/s1
Instrument: Agilent 6410 Triple Quadrupole LC/MS system
Instrument type: LC-ESI-QQQ
Ms type: MS2
Ion mode: POSITIVE
Precursor type: [M+H]+
m/z	relative intensity
85.6	2
85.7	3
85.8	4
85.9	6
86.0	7
86.1	7
86.2	7
86.3	6
86.4	4
86.5	2
112.7	2
112.8	3
112.9	5
113.0	5
113.1	5
113.2	5
113.3	4
113.4	2
129.2	0
129.3	3
129.4	7
129.5	12
129.6	19
129.7	33
129.8	54
129.9	78
130.0	95
130.1	99
130.2	92
130.3	76
130.4	53
130.5	29
130.6	9
130.7	0
306.7	2
306.8	4
306.9	5
307.0	6
307.1	7
307.2	7
307.3	5
307.4	3
348.7	2
348.8	4
348.9	6
349.0	7
349.1	8
349.2	8
349.3	6
349.4	4
513.7	2
513.8	3
513.9	5
514.0	6
514.1	7
514.2	7
514.3	6
514.4	5
514.5	2
