Mass spectrum: Hydrocortisone acetate; LC-ESI-QQQ; MS2; Frag=135.0V CID@25.0; [M+HCOO]-
Name: Hydrocortisone acetate
Class: Steroids
Formula: C23H32O6
Exact mass: 404.5079
SMILES: CC(=O)OCC(=O)[C@@]1(O)CCC2C3CCC4=CC(=O)CC[C@]4(C)C3C(O)C[C@@]21C
InChI: InChI=1S/C23H32O6/c1-13(24)29-12-19(27)23(28)9-7-17-16-5-4-14-10-15(25)6-8-21(14,2)20(16)18(26)11-22(17,23)3/h10,16-18,20,26,28H,4-9,11-12H2,1-3H3/t16?,17?,18?,20?,21-,22-,23-/m0/s1
Instrument: Agilent 6410 Triple Quadrupole LC/MS system
Instrument type: LC-ESI-QQQ
Ms type: MS2
Ion mode: NEGATIVE
Precursor type: [M+HCOO]-
m/z	relative intensity
58.1	0
58.2	0
58.3	4
58.4	14
58.5	29
58.6	41
58.7	45
58.8	49
58.9	62
59.0	80
59.1	87
59.2	69
59.3	37
59.4	10
59.5	1
124.8	1
124.9	2
125.0	4
125.1	6
125.2	7
125.3	5
125.4	2
281.7	1
281.8	3
281.9	5
282.0	8
282.1	9
282.2	7
282.3	3
296.3	1
296.4	3
296.5	6
296.6	8
296.7	12
296.8	17
296.9	25
297.0	30
297.1	30
297.2	24
297.3	15
297.4	7
297.5	2
300.8	1
300.9	2
301.0	6
301.1	9
301.2	8
301.3	4
301.4	1
330.3	1
330.4	2
330.5	9
330.6	21
330.7	34
330.8	47
330.9	61
331.0	79
331.1	94
331.2	99
331.3	90
331.4	67
331.5	36
331.6	9
331.7	0
342.5	0
342.6	3
342.7	9
342.8	14
342.9	16
343.0	14
343.1	12
343.2	12
343.3	11
343.4	8
343.5	5
343.6	2
