Mass spectrum: 7-Dehydroxy-4-demethylpodophyllotoxin; LC-ESI-QQQ; MS2; Frag=135.0V CID@15.0; [M+H]+
Name: 7-Dehydroxy-4-demethylpodophyllotoxin
Class: Polycyclic aromatic natural products
Formula: C21H20O7
Exact mass: 384.3894
SMILES: COc1cc([C@@H]2c3cc4c(cc3C[C@H]3COC(=O)[C@@H]32)OCO4)cc(OC)c1O
InChI: InChI=1S/C21H20O7/c1-24-16-5-11(6-17(25-2)20(16)22)18-13-7-15-14(27-9-28-15)4-10(13)3-12-8-26-21(23)19(12)18/h4-7,12,18-19,22H,3,8-9H2,1-2H3/t12-,18+,19-/m0/s1
Instrument: Agilent 6410 Triple Quadrupole LC/MS system
Instrument type: LC-ESI-QQQ
Ms type: MS2
Ion mode: POSITIVE
Precursor type: [M+H]+
m/z	relative intensity
84.5	2
84.6	4
84.7	6
84.8	7
84.9	6
85.0	4
184.4	2
184.5	5
184.6	11
184.7	15
184.8	16
184.9	13
185.0	10
229.0	2
229.1	4
229.2	8
229.3	9
229.4	7
229.5	4
238.4	2
238.5	4
238.6	8
238.7	12
238.8	13
238.9	9
239.0	5
239.1	2
239.4	0
239.5	4
239.6	15
239.7	26
239.8	27
239.9	18
240.0	7
278.8	1
278.9	2
279.0	6
279.1	12
279.2	17
279.3	17
279.4	12
279.5	6
279.6	2
285.5	1
285.6	3
285.7	8
285.8	13
285.9	13
286.0	8
286.1	3
293.0	3
293.1	6
293.2	9
293.3	10
293.4	7
293.5	3
293.8	3
293.9	4
294.0	6
294.1	6
294.2	5
298.5	3
298.6	4
298.7	5
298.8	7
298.9	11
299.0	13
299.1	12
299.2	9
299.5	2
299.6	9
299.7	27
299.8	44
299.9	48
300.0	35
300.1	19
300.2	9
300.5	6
300.6	12
300.7	18
300.8	23
300.9	28
301.0	31
301.1	32
301.2	27
301.3	17
301.4	7
301.5	1
304.7	2
304.8	4
304.9	6
305.0	7
305.1	5
305.2	3
306.5	0
306.6	1
306.7	7
306.8	20
306.9	35
307.0	39
307.1	29
307.2	14
307.3	4
307.9	2
308.0	4
308.1	6
308.2	8
308.3	8
308.4	6
310.8	3
310.9	4
311.0	6
311.1	6
311.2	5
311.3	3
332.4	2
332.5	3
332.6	5
332.7	6
332.8	6
332.9	4
334.8	0
334.9	2
335.0	12
335.1	26
335.2	38
335.3	36
335.4	22
335.5	8
335.6	1
338.7	2
338.8	3
338.9	7
339.0	15
339.1	22
339.2	22
339.3	15
339.4	6
339.5	1
366.5	3
366.6	4
366.7	6
366.8	7
366.9	8
367.0	9
367.1	11
367.2	11
367.3	8
367.4	5
384.2	1
384.3	1
384.4	8
384.5	20
384.6	34
384.7	46
384.8	62
384.9	80
385.0	93
385.1	97
385.2	96
385.3	89
385.4	67
385.5	33
385.6	7
385.7	0
