Mass spectrum: Cycloheximide; LC-ESI-QQQ; MS; [M+H]+
Name: Cycloheximide
Class: Alkaloids
Formula: C15H23NO4
Exact mass: 281.162708
SMILES: C[C@H]1C[C@@H](C(=O)[C@@H](C1)[C@@H](CC2CC(=O)NC(=O)C2)O)C
InChI: InChI=1S/C15H23NO4/c1-8-3-9(2)15(20)11(4-8)12(17)5-10-6-13(18)16-14(19)7-10/h8-12,17H,3-7H2,1-2H3,(H,16,18,19)/t8-,9-,11-,12+/m0/s1
Instrument: ABSciex API3200 LC/MS system
Instrument type: LC-ESI-QQQ
Ms type: MS
Ion mode: POSITIVE
Precursor type: [M+H]+
m/z	relative intensity
141.7000	44
141.8000	74
141.9000	87
142.0000	85
142.1000	87
142.2000	55
142.3000	48
142.4000	31
158.8000	21
159.1000	22
218.7000	25
218.8000	21
219.0000	25
219.1000	27
219.2000	26
219.3000	25
219.4000	22
228.6000	27
228.7000	36
228.8000	41
228.9000	33
229.0000	35
229.1000	39
229.2000	42
229.3000	25
229.4000	31
245.4000	24
245.5000	103
245.6000	157
245.7000	197
245.8000	242
245.9000	187
246.0000	183
246.1000	189
246.2000	167
246.3000	153
246.4000	176
246.5000	137
246.6000	104
246.7000	129
246.8000	119
246.9000	98
247.0000	96
247.1000	98
247.2000	99
247.3000	83
247.4000	75
247.5000	42
247.6000	24
247.8000	22
263.4000	21
263.5000	120
263.6000	247
263.7000	241
263.8000	264
263.9000	302
264.0000	316
264.1000	311
264.2000	299
264.3000	332
264.4000	256
264.5000	170
264.6000	142
264.7000	143
264.8000	138
264.9000	150
265.0000	135
265.1000	130
265.2000	130
265.3000	112
265.4000	104
265.5000	59
265.6000	29
265.7000	30
281.4000	113
281.5000	530
281.6000	770
281.7000	893
281.8000	952
281.9000	996
282.0000	999
282.1000	950
282.2000	995
282.3000	900
282.4000	774
282.5000	524
282.6000	284
282.7000	251
282.8000	213
282.9000	231
283.0000	232
283.1000	215
283.2000	186
283.3000	207
283.4000	176
283.5000	112
283.6000	43
283.7000	38
283.8000	30
283.9000	30
284.0000	29
284.1000	36
284.2000	23
284.3000	22
284.4000	25
298.5000	49
298.6000	98
298.7000	106
298.8000	132
298.9000	155
299.0000	135
299.1000	139
299.2000	138
299.3000	133
299.4000	201
299.5000	79
299.6000	24
299.7000	25
299.8000	23
299.9000	22
300.0000	22
300.1000	23
300.2000	23
300.3000	23
300.4000	21
322.6000	32
322.7000	46
322.8000	35
322.9000	43
323.0000	48
323.1000	44
323.2000	40
323.3000	35
323.4000	31
323.5000	24
562.5000	51
562.6000	191
562.7000	305
562.8000	339
562.9000	401
563.0000	402
563.1000	375
563.2000	391
563.3000	354
563.4000	267
563.5000	144
563.6000	110
563.7000	210
563.8000	171
563.9000	166
564.0000	146
564.1000	146
564.2000	158
564.3000	130
564.4000	111
564.5000	51
564.6000	32
564.7000	28
564.8000	33
564.9000	41
565.0000	38
565.1000	34
565.2000	31
565.3000	32
565.4000	25
579.6000	25
579.7000	49
579.8000	52
579.9000	66
580.0000	63
580.1000	65
580.2000	65
580.3000	55
580.4000	38
580.5000	27
580.8000	24
580.9000	28
581.0000	26
581.1000	23
581.2000	30
