Mass spectrum: Androst-5-ene-3,17-diol; LC-ESI-QQQ; MS2; Frag=135.0V CID@25.0; [M+H]+
Name: Androst-5-ene-3,17-diol
Class: Steroids
Formula: C19H30O2
Exact mass: 290.4498
SMILES: C[C@]12CCC3C(CC=C4CC(O)CC[C@@]43C)C1CCC2O
InChI: InChI=1S/C19H30O2/c1-18-9-7-13(20)11-12(18)3-4-14-15-5-6-17(21)19(15,2)10-8-16(14)18/h3,13-17,20-21H,4-11H2,1-2H3/t13?,14?,15?,16?,17?,18-,19-/m0/s1
Instrument: Agilent 6410 Triple Quadrupole LC/MS system
Instrument type: LC-ESI-QQQ
Ms type: MS2
Ion mode: POSITIVE
Precursor type: [M+H]+
m/z	relative intensity
55.0	4
55.1	7
55.2	9
55.3	10
55.4	8
55.5	6
66.4	2
66.5	5
66.6	9
66.7	14
66.8	19
66.9	22
67.0	22
67.1	17
67.2	10
67.3	5
68.9	3
69.0	8
69.1	13
69.2	12
69.3	8
69.4	3
80.5	2
80.6	5
80.7	11
80.8	23
80.9	37
81.0	46
81.1	40
81.2	23
81.3	7
90.6	4
90.7	7
90.8	13
90.9	19
91.0	21
91.1	16
91.2	8
94.6	3
94.7	7
94.8	14
94.9	21
95.0	24
95.1	21
95.2	15
95.3	9
95.4	6
95.5	5
118.5	3
118.6	5
118.7	9
118.8	16
118.9	23
119.0	25
119.1	18
119.2	9
119.3	2
130.5	2
130.6	5
130.7	8
130.8	10
130.9	11
131.0	8
131.1	5
144.4	0
144.5	8
144.6	28
144.7	55
144.8	79
144.9	93
145.0	91
145.1	74
145.2	47
145.3	21
145.4	5
146.5	2
146.6	6
146.7	12
146.8	20
146.9	26
147.0	27
147.1	26
147.2	25
147.3	23
147.4	17
147.5	8
156.7	3
156.8	8
156.9	16
157.0	24
157.1	26
157.2	21
157.3	12
157.4	5
158.4	5
158.5	8
158.6	12
158.7	15
158.8	15
158.9	13
172.5	1
172.6	5
172.7	16
172.8	32
172.9	47
173.0	53
173.1	48
173.2	34
173.3	19
173.4	7
198.7	3
198.8	9
198.9	18
199.0	27
199.1	30
199.2	24
199.3	12
199.4	2
254.7	1
254.8	3
254.9	7
255.0	16
255.1	30
255.2	44
255.3	47
255.4	35
255.5	17
255.6	4
