Mass spectrum: Aesculin; LC-ESI-QQQ; MS2; Frag=135.0V CID@10.0; [M+H]+
Name: Esculin
Name: Esculoside
Name: Aesculin
Name: Esculetin-6-beta-D-glucopyranoside
Name: Aesculinum
Class: Benzopyranoids
Formula: C15H16O9
Exact mass: 340.2894
SMILES: O=c1ccc2cc(O[C@@H]3O[C@@H](CO)[C@H](O)[C@@H](O)[C@@H]3O)c(O)cc2o1
InChI: InChI=1S/C15H16O9/c16-5-10-12(19)13(20)14(21)15(24-10)23-9-3-6-1-2-11(18)22-8(6)4-7(9)17/h1-4,10,12-17,19-21H,5H2/t10-,12-,13+,14-,15+/m0/s1
Instrument: Agilent 6410 Triple Quadrupole LC/MS system
Instrument type: LC-ESI-QQQ
Ms type: MS2
Ion mode: POSITIVE
Precursor type: [M+H]+
m/z	relative intensity
178.2	0
178.3	2
178.4	5
178.5	11
178.6	18
178.7	31
178.8	51
178.9	73
179.0	91
179.1	99
179.2	95
179.3	78
179.4	50
179.5	21
179.6	2
340.8	2
340.9	4
341.0	5
341.1	6
341.2	6
341.3	5
341.4	3
341.5	1
