Mass spectrum: Galbanic acid; LC-ESI-QQQ; MS2; Frag=135.0V CID@15.0; [M+H]+
Name: Galbanic acid
Class: Benzopyranoids
Formula: C24H30O5
Exact mass: 398.5037
SMILES: CC(C)=C1CC[C@H](C)[C@](C)(COc2ccc3ccc(=O)oc3c2)[C@H]1CCC(=O)O
InChI: InChI=1S/C24H30O5/c1-15(2)19-9-5-16(3)24(4,20(19)10-11-22(25)26)14-28-18-8-6-17-7-12-23(27)29-21(17)13-18/h6-8,12-13,16,20H,5,9-11,14H2,1-4H3,(H,25,26)/t16-,20-,24-/m0/s1
Instrument: Agilent 6410 Triple Quadrupole LC/MS system
Instrument type: LC-ESI-QQQ
Ms type: MS2
Ion mode: POSITIVE
Precursor type: [M+H]+
m/z	relative intensity
108.5	2
108.6	3
108.7	4
108.8	7
108.9	10
109.0	13
109.1	14
109.2	13
109.3	12
109.4	9
109.5	5
109.6	2
120.7	2
120.8	3
120.9	5
121.0	6
121.1	7
121.2	6
121.3	6
121.4	4
121.5	2
122.8	2
122.9	4
123.0	5
123.1	6
123.2	6
123.3	4
123.4	3
162.2	0
162.3	1
162.4	4
162.5	10
162.6	19
162.7	33
162.8	53
162.9	75
163.0	93
163.1	99
163.2	95
163.3	82
163.4	60
163.5	34
163.6	12
163.7	0
166.6	2
166.7	3
166.8	5
166.9	7
167.0	9
167.1	11
167.2	11
167.3	10
167.4	7
167.5	4
167.6	1
176.8	2
176.9	4
177.0	6
177.1	8
177.2	8
177.3	8
177.4	7
177.5	5
177.6	2
180.5	1
180.6	2
180.7	4
180.8	8
180.9	12
181.0	17
181.1	20
181.2	20
181.3	18
181.4	14
181.5	8
181.6	3
188.4	2
188.5	3
188.6	7
188.7	12
188.8	19
188.9	28
189.0	34
189.1	37
189.2	36
189.3	32
189.4	23
189.5	12
189.6	4
218.8	2
218.9	3
219.0	5
219.1	7
219.2	7
219.3	7
219.4	5
219.5	3
236.7	2
236.8	3
236.9	5
237.0	7
237.1	10
237.2	11
237.3	11
237.4	9
237.5	6
237.6	3
