Mass spectrum: alpha-Dihydrolysergol; LC-ESI-QQQ; MS; [M+H]+
Name: alpha-Dihydrolysergol
Class: Alkaloids
Formula: C16H20N2O
Exact mass: 256.3506
SMILES: CN1C[C@H](CO)C[C@@H]2c3cccc4[nH]cc(c34)C[C@H]21
InChI: InChI=1S/C16H20N2O/c1-18-8-10(9-19)5-13-12-3-2-4-14-16(12)11(7-17-14)6-15(13)18/h2-4,7,10,13,15,17,19H,5-6,8-9H2,1H3/t10-,13-,15-/m1/s1
Instrument: ABSciex API3200 LC/MS system
Instrument type: LC-ESI-QQQ
Ms type: MS
Ion mode: POSITIVE
Precursor type: [M+H]+
m/z	relative intensity
153.9000	22
154.0000	23
154.1000	22
154.3000	23
166.6000	22
166.7000	24
166.8000	31
166.9000	23
167.4000	24
167.5000	21
167.7000	22
167.8000	23
167.9000	21
168.0000	24
168.1000	22
168.2000	22
169.6000	26
169.7000	22
169.8000	22
169.9000	23
170.0000	23
170.1000	27
181.5000	27
181.6000	32
181.7000	37
181.8000	36
181.9000	39
182.0000	38
182.1000	38
182.2000	31
182.3000	26
182.4000	26
192.9000	25
193.0000	21
207.5000	41
207.6000	90
207.7000	83
207.8000	87
207.9000	92
208.0000	92
208.1000	74
208.2000	74
208.3000	70
208.4000	68
208.5000	33
209.0000	24
256.4000	126
256.5000	599
256.6000	868
256.7000	973
256.8000	963
256.9000	966
257.0000	978
257.1000	999
257.2000	916
257.3000	825
257.4000	710
257.5000	505
257.6000	302
257.7000	268
257.8000	255
257.9000	300
258.0000	298
258.1000	317
258.2000	297
258.3000	285
258.4000	266
258.5000	165
258.6000	76
258.7000	53
258.8000	38
258.9000	42
259.0000	38
259.1000	39
259.2000	39
259.3000	38
259.4000	34
288.6000	27
288.7000	27
288.8000	26
288.9000	31
289.0000	27
289.1000	32
289.2000	32
289.3000	26
289.4000	24
306.6000	31
306.7000	31
306.8000	39
306.9000	36
307.0000	40
307.1000	33
307.2000	36
307.3000	38
307.4000	29
