Mass spectrum: (3R,8aS)-Cyclo(phenylalanylprolyl); LC-ESI-QQQ; MS2; Frag=135.0V CID@5.0; [M+H]+
Name: (3R,8aS)-Cyclo(phenylalanylprolyl)
Class: Aminoacids and peptides
Formula: C14H16N2O2
Exact mass: 244.2958
SMILES: O=C1[C@@H](Cc2ccccc2)N=C(O)[C@@H]2CCCN12
InChI: InChI=1S/C14H16N2O2/c17-13-12-7-4-8-16(12)14(18)11(15-13)9-10-5-2-1-3-6-10/h1-3,5-6,11-12H,4,7-9H2,(H,15,17)/t11-,12+/m1/s1
Instrument: Agilent 6410 Triple Quadrupole LC/MS system
Instrument type: LC-ESI-QQQ
Ms type: MS2
Ion mode: POSITIVE
Precursor type: [M+H]+
m/z	relative intensity
69.6	1
69.7	3
69.8	5
69.9	8
70.0	10
70.1	11
70.2	10
70.3	8
70.4	6
70.5	3
244.3	1
244.4	4
244.5	7
244.6	10
244.7	17
244.8	32
244.9	56
245.0	81
245.1	97
245.2	99
245.3	88
245.4	67
245.5	40
245.6	16
245.7	2
