Mass spectrum: (3R,8aS)-Cyclo(phenylalanylprolyl); LC-ESI-QQQ; MS2; Frag=135.0V CID@10.0; [M+H]+
Name: (3R,8aS)-Cyclo(phenylalanylprolyl)
Class: Aminoacids and peptides
Formula: C14H16N2O2
Exact mass: 244.2958
SMILES: O=C1[C@@H](Cc2ccccc2)N=C(O)[C@@H]2CCCN12
InChI: InChI=1S/C14H16N2O2/c17-13-12-7-4-8-16(12)14(18)11(15-13)9-10-5-2-1-3-6-10/h1-3,5-6,11-12H,4,7-9H2,(H,15,17)/t11-,12+/m1/s1
Instrument: Agilent 6410 Triple Quadrupole LC/MS system
Instrument type: LC-ESI-QQQ
Ms type: MS2
Ion mode: POSITIVE
Precursor type: [M+H]+
m/z	relative intensity
69.3	1
69.4	2
69.5	4
69.6	8
69.7	14
69.8	25
69.9	37
70.0	46
70.1	51
70.2	50
70.3	43
70.4	31
70.5	16
70.6	4
119.4	2
119.5	3
119.6	5
119.7	10
119.8	16
119.9	24
120.0	29
120.1	31
120.2	30
120.3	27
120.4	21
120.5	13
120.6	4
153.7	3
153.8	5
153.9	7
154.0	8
154.1	9
154.2	9
154.3	8
154.4	6
154.5	3
171.8	2
171.9	4
172.0	5
172.1	6
172.2	6
172.3	5
172.4	3
172.5	2
216.7	2
216.8	4
216.9	8
217.0	12
217.1	15
217.2	15
217.3	14
217.4	11
217.5	7
217.6	2
244.3	1
244.4	3
244.5	7
244.6	12
244.7	20
244.8	35
244.9	58
245.0	81
245.1	96
245.2	99
245.3	91
245.4	73
245.5	45
245.6	18
245.7	0
