Mass spectrum: 16-Oxo-19-beyeranoic acid; LC-ESI-QQQ; MS2; Frag=135.0V CID@5.0; [M+H]+
Name: 16-Oxo-19-beyeranoic acid
Class: Terpenoids
Formula: C20H30O3
Exact mass: 318.4603
SMILES: C[C@@]12CCC3[C@]4(C)CCC[C@@](C)(C(=O)O)C4CC[C@]3(CC1=O)C2
InChI: InChI=1S/C20H30O3/c1-17-9-5-14-18(2)7-4-8-19(3,16(22)23)13(18)6-10-20(14,12-17)11-15(17)21/h13-14H,4-12H2,1-3H3,(H,22,23)/t13?,14?,17-,18+,19+,20-/m0/s1
Instrument: Agilent 6410 Triple Quadrupole LC/MS system
Instrument type: LC-ESI-QQQ
Ms type: MS2
Ion mode: POSITIVE
Precursor type: [M+H]+
m/z	relative intensity
272.8	1
272.9	3
273.0	5
273.1	7
273.2	8
273.3	8
273.4	7
273.5	4
273.6	1
300.9	2
301.0	3
301.1	4
301.2	5
301.3	6
301.4	6
301.5	4
301.6	3
318.3	0
318.4	1
318.5	4
318.6	8
318.7	14
318.8	23
318.9	37
319.0	57
319.1	77
319.2	93
319.3	99
319.4	93
319.5	73
319.6	43
319.7	15
319.8	0
