Mass spectrum: Chloramphenicol; LC-ESI-QQQ; MS; [M+H]+
Name: Chloramphenicol
Class: Carbohydrates
Formula: C11H12Cl2N2O5
Exact mass: 323.1347
SMILES: O=[N+]([O-])c1ccc(C(O)C(CO)N=C(O)C(Cl)Cl)cc1
InChI: InChI=1S/C11H12Cl2N2O5/c12-10(13)11(18)14-8(5-16)9(17)6-1-3-7(4-2-6)15(19)20/h1-4,8-10,16-17H,5H2,(H,14,18)
Instrument: ABSciex API3200 LC/MS system
Instrument type: LC-ESI-QQQ
Ms type: MS
Ion mode: POSITIVE
Precursor type: [M+H]+
m/z	relative intensity
114.0000	21
114.8000	39
142.0000	232
142.1000	514
142.2000	845
142.3000	999
142.4000	878
142.5000	581
142.6000	129
142.7000	107
142.8000	56
142.9000	48
143.0000	72
143.1000	36
143.2000	73
143.3000	28
143.4000	29
149.4000	51
149.7000	28
157.7000	23
164.6000	41
164.7000	44
164.8000	36
164.9000	35
165.0000	36
165.1000	36
165.3000	24
212.7000	28
212.8000	27
212.9000	23
213.1000	24
213.2000	72
213.3000	170
213.4000	22
226.7000	25
239.1000	60
239.2000	104
241.3000	22
274.2000	24
274.3000	46
274.4000	58
274.5000	93
274.6000	66
274.7000	83
274.8000	84
274.9000	80
275.0000	92
275.1000	70
275.2000	62
275.3000	28
276.3000	33
276.4000	45
276.5000	35
276.6000	33
276.7000	68
276.8000	44
276.9000	40
277.0000	23
277.1000	22
277.2000	114
277.3000	33
279.1000	27
286.6000	32
286.7000	41
286.9000	22
304.4000	51
304.5000	41
304.6000	39
304.7000	40
304.8000	40
304.9000	40
305.0000	55
305.1000	22
305.2000	99
305.3000	36
306.5000	37
306.6000	51
306.7000	41
306.8000	72
306.9000	50
307.0000	63
307.1000	23
307.2000	82
307.3000	114
322.3000	63
322.4000	85
322.5000	138
322.6000	174
322.7000	164
322.8000	155
322.9000	161
323.0000	213
323.1000	102
323.2000	99
323.3000	98
323.4000	65
323.5000	46
323.6000	34
324.0000	25
324.1000	33
324.2000	69
324.3000	46
324.4000	95
324.5000	121
324.6000	80
324.7000	85
324.8000	94
324.9000	152
325.0000	148
325.1000	80
325.2000	78
325.3000	68
325.4000	25
325.5000	29
326.9000	23
327.3000	22
644.7000	25
644.8000	21
646.6000	30
646.7000	43
647.0000	25
648.6000	30
648.7000	34
