Mass spectrum: Lappaconitine; LC-ESI-QQQ; MS2; Frag=135.0V CID@25.0; [M+H]+
Name: Lappaconitine
Class: Alkaloids
Formula: C32H44N2O8
Exact mass: 584.7161
SMILES: CCN1C[C@]2(OC(=O)c3ccccc3N=C(C)O)CC[C@H](OC)[C@]34C1[C@H](CC23)[C@@]1(O)C[C@H](OC)[C@H]2CC4[C@]1(O)[C@H]2OC
InChI: InChI=1S/C32H44N2O8/c1-6-34-16-29(42-28(36)18-9-7-8-10-21(18)33-17(2)35)12-11-25(40-4)31-23(29)14-20(26(31)34)30(37)15-22(39-3)19-13-24(31)32(30,38)27(19)41-5/h7-10,19-20,22-27,37-38H,6,11-16H2,1-5H3,(H,33,35)/t19-,20+,22+,23?,24?,25+,26?,27+,29-,30+,31+,32+/m1/s1
Instrument: Agilent 6410 Triple Quadrupole LC/MS system
Instrument type: LC-ESI-QQQ
Ms type: MS2
Ion mode: POSITIVE
Precursor type: [M+H]+
m/z	relative intensity
355.8	1
355.9	2
356.0	4
356.1	5
356.2	6
356.3	6
356.4	5
356.5	3
387.9	2
388.0	3
388.1	4
388.2	5
388.3	5
388.4	4
388.5	3
388.6	2
584.3	0
584.4	1
584.5	3
584.6	7
584.7	13
584.8	23
584.9	38
585.0	57
585.1	74
585.2	88
585.3	97
585.4	99
585.5	90
585.6	67
585.7	37
585.8	11
585.9	0
