Mass spectrum: Thiamine; LC-ESI-QQQ; MS; [M+H]+
Name: THD
Name: Vitamin B1
Name: Thiamin
Name: Aneurine hydrochloride
Name: Betaxin
Name: Bethiazine
Name: Eskapen
Name: Thiadoxine
Name: Vinothiam
Name: Vitaneuron
Name: Thiamine
Class: Carbohydrates
Formula: [C12H17N4OS]+
Exact mass: 265.3595
SMILES: Cc1ncc(C[n+]2csc(CCO)c2C)c(=N)[nH]1
InChI: InChI=1S/C12H17N4OS/c1-8-11(3-4-17)18-7-16(8)6-10-5-14-9(2)15-12(10)13/h5,7,17H,3-4,6H2,1-2H3,(H2,13,14,15)/q+1
Instrument: ABSciex API3200 LC/MS system
Instrument type: LC-ESI-QQQ
Ms type: MS
Ion mode: POSITIVE
Precursor type: [M]+
m/z	relative intensity
111.3000	25
111.4000	132
111.5000	208
111.6000	205
111.7000	223
111.8000	248
111.9000	239
112.0000	228
112.1000	242
112.2000	219
112.3000	215
112.4000	216
112.5000	158
112.6000	165
112.7000	186
112.8000	208
112.9000	227
113.0000	211
113.1000	190
113.2000	228
113.3000	225
113.4000	133
113.5000	46
113.6000	31
113.7000	27
113.8000	36
113.9000	41
114.0000	31
114.1000	36
114.2000	31
121.4000	248
121.5000	991
121.6000	846
121.7000	954
121.8000	901
121.9000	999
122.0000	908
122.1000	911
122.2000	891
122.3000	759
122.4000	786
122.5000	666
122.6000	562
122.7000	615
122.8000	725
122.9000	739
123.0000	737
123.1000	725
123.2000	704
123.3000	652
123.4000	578
123.5000	334
123.6000	167
123.7000	115
123.8000	109
123.9000	100
124.0000	104
124.1000	105
124.2000	94
124.3000	91
124.4000	93
124.5000	54
124.6000	50
124.7000	42
124.8000	44
124.9000	41
125.0000	38
125.1000	37
125.2000	25
125.3000	24
125.4000	78
125.5000	109
125.6000	73
125.7000	161
125.8000	74
125.9000	37
126.0000	46
126.1000	42
126.2000	41
126.3000	33
126.4000	36
132.3000	48
132.4000	429
132.5000	710
132.6000	973
132.7000	964
132.8000	937
132.9000	997
133.0000	997
133.1000	957
133.2000	919
133.3000	877
133.4000	805
133.5000	516
133.6000	230
133.7000	283
133.8000	236
133.9000	209
134.0000	148
134.1000	109
134.2000	87
134.3000	80
134.4000	55
134.5000	21
138.6000	21
138.8000	48
138.9000	46
139.0000	46
139.1000	23
139.2000	24
139.3000	23
142.6000	33
142.7000	41
142.8000	51
142.9000	40
143.0000	55
143.1000	44
143.2000	50
143.3000	58
143.4000	217
143.5000	403
143.6000	496
143.7000	530
143.8000	570
143.9000	569
144.0000	524
144.1000	506
144.2000	508
144.3000	423
144.4000	326
144.5000	136
144.6000	51
144.7000	39
144.8000	45
144.9000	54
145.0000	55
145.1000	48
145.2000	49
145.3000	39
145.4000	54
145.5000	37
145.6000	23
145.7000	30
145.8000	35
145.9000	34
146.0000	28
146.1000	30
148.9000	21
149.1000	21
153.0000	36
153.1000	51
153.2000	176
153.3000	39
194.0000	33
194.1000	52
194.2000	46
194.3000	42
194.4000	23
220.6000	24
220.9000	26
221.1000	21
234.6000	33
234.7000	44
234.8000	45
234.9000	30
235.0000	53
235.1000	47
235.2000	29
235.3000	30
235.4000	36
238.9000	53
239.0000	26
253.0000	27
253.1000	22
253.2000	22
253.4000	21
264.3000	33
264.4000	242
264.5000	438
264.6000	472
264.7000	399
264.8000	500
264.9000	545
265.0000	585
265.1000	576
265.2000	655
265.3000	617
265.4000	444
265.5000	270
265.6000	163
265.7000	155
265.8000	144
265.9000	127
266.0000	137
266.1000	133
266.2000	100
266.3000	106
266.4000	112
266.5000	63
266.6000	47
266.7000	56
266.8000	49
266.9000	55
267.0000	44
267.1000	39
267.2000	43
267.3000	35
267.4000	40
