Mass spectrum: 7-O-acetyldaphnoretin; LC-ESI-QQQ; MS; [M+H]+
Name: 7-O-acetyldaphnoretin
Class: Benzopyranoids
Formula: C21H14O8
Exact mass: 394.3409
SMILES: COc1cc2cc(Oc3ccc4ccc(=O)oc4c3)c(=O)oc2cc1OC(C)=O
InChI: InChI=1S/C21H14O8/c1-11(22)26-18-10-16-13(7-17(18)25-2)8-19(21(24)29-16)27-14-5-3-12-4-6-20(23)28-15(12)9-14/h3-10H,1-2H3
Instrument: ABSciex API3200 LC/MS system
Instrument type: LC-ESI-QQQ
Ms type: MS
Ion mode: POSITIVE
Precursor type: [M+H]+
m/z	relative intensity
141.8000	46
352.3000	70
352.4000	168
352.5000	276
352.6000	229
352.7000	262
352.8000	602
352.9000	332
353.0000	264
353.1000	225
353.2000	196
353.3000	164
353.4000	72
353.5000	73
353.6000	54
353.8000	49
353.9000	32
354.0000	54
354.1000	41
354.2000	21
354.3000	34
354.4000	25
394.2000	50
394.3000	170
394.4000	521
394.5000	888
394.6000	917
394.7000	981
394.8000	982
394.9000	982
395.0000	999
395.1000	865
395.2000	733
395.3000	575
395.4000	321
395.5000	325
395.6000	260
395.7000	264
395.8000	233
395.9000	269
396.0000	269
396.1000	235
396.2000	233
396.3000	231
396.4000	107
396.5000	52
396.6000	62
396.7000	25
396.8000	37
396.9000	62
397.0000	48
397.1000	37
397.2000	32
397.3000	32
411.6000	24
412.0000	28
435.5000	46
435.6000	29
435.7000	41
435.8000	52
435.9000	29
436.0000	40
436.1000	32
436.2000	32
436.5000	23
788.2000	76
788.3000	154
788.4000	179
788.5000	200
788.6000	239
788.7000	236
788.8000	204
788.9000	220
789.0000	184
789.1000	135
789.2000	97
789.3000	88
789.4000	104
789.5000	69
789.6000	88
789.7000	108
789.8000	108
789.9000	97
790.0000	106
790.1000	53
790.2000	47
790.3000	30
790.4000	28
790.5000	26
790.6000	30
790.7000	40
790.8000	37
791.0000	30
791.1000	37
791.2000	28
805.3000	33
805.5000	37
805.6000	35
805.7000	30
805.8000	53
806.0000	30
806.3000	21
1182.8000	21
1183.1000	21
