Mass spectrum: Sinomenine; LC-ESI-QQQ; MS2; Frag=135.0V CID@5.0; [M+H]+
Name: Kukoline
Name: Cocculine
Name: Cucoline
Name: 4-Hydroxy-3,7-dimethoxy-17-methylmorphin-7-en-6-one
Name: Sinomenine
Class: Alkaloids
Formula: C19H23NO4
Exact mass: 329.3995
SMILES: COC1=C[C@@H]2[C@@H]3Cc4ccc(OC)c(O)c4[C@]2(CCN3C)CC1=O
InChI: InChI=1S/C19H23NO4/c1-20-7-6-19-10-14(21)16(24-3)9-12(19)13(20)8-11-4-5-15(23-2)18(22)17(11)19/h4-5,9,12-13,22H,6-8,10H2,1-3H3/t12-,13+,19-/m1/s1
Instrument: Agilent 6410 Triple Quadrupole LC/MS system
Instrument type: LC-ESI-QQQ
Ms type: MS2
Ion mode: POSITIVE
Precursor type: [M+H]+
m/z	relative intensity
329.3	1
329.4	2
329.5	5
329.6	9
329.7	17
329.8	32
329.9	54
330.0	77
330.1	94
330.2	99
330.3	94
330.4	78
330.5	53
330.6	26
330.7	6
330.8	0
