Mass spectrum: Bryoamaride; LC-ESI-QQQ; MS; [M+H]+
Name: Bryoamaride
Class: Terpenoids
Formula: C36H54O12
Exact mass: 678.8246
SMILES: CC(C)(O)CCC(=O)[C@](C)(O)C1[C@H](O)C[C@@]2(C)C3CC=C4[C@@H](C=C(OC5OC(CO)C(O)C(O)C5O)C(=O)C4(C)C)[C@]3(C)C(=O)C[C@]12C
InChI: InChI=1S/C36H54O12/c1-31(2,45)12-11-23(39)36(8,46)28-19(38)14-33(5)22-10-9-17-18(35(22,7)24(40)15-34(28,33)6)13-20(29(44)32(17,3)4)47-30-27(43)26(42)25(41)21(16-37)48-30/h9,13,18-19,21-22,25-28,30,37-38,41-43,45-46H,10-12,14-16H2,1-8H3/t18-,19-,21?,22?,25?,26?,27?,28?,30?,33+,34-,35+,36+/m1/s1
Instrument: ABSciex API3200 LC/MS system
Instrument type: LC-ESI-QQQ
Ms type: MS
Ion mode: POSITIVE
Precursor type: [M+H]+
m/z	relative intensity
100.4000	65
100.5000	240
100.6000	470
100.7000	206
100.8000	195
100.9000	142
101.0000	139
101.1000	133
101.2000	82
101.3000	24
101.4000	27
118.6000	37
118.7000	55
141.5000	67
141.6000	117
141.7000	157
141.8000	178
141.9000	168
142.0000	169
142.1000	213
142.2000	201
142.3000	186
142.4000	131
142.5000	61
142.6000	21
480.6000	28
480.7000	47
480.8000	64
480.9000	83
481.0000	92
481.1000	113
481.2000	131
481.3000	72
481.4000	48
481.5000	27
481.6000	24
481.7000	21
481.8000	22
482.0000	25
482.2000	25
482.4000	24
496.8000	21
496.9000	22
497.1000	31
498.4000	53
498.5000	193
498.6000	506
498.7000	788
498.8000	966
498.9000	999
499.0000	968
499.1000	996
499.2000	917
499.3000	882
499.4000	769
499.5000	496
499.6000	349
499.7000	341
499.8000	377
499.9000	366
500.0000	350
500.1000	369
500.2000	345
500.3000	309
500.4000	341
500.5000	175
500.6000	75
500.7000	74
500.8000	89
500.9000	97
501.0000	82
501.1000	57
501.2000	58
501.3000	40
501.4000	31
501.5000	40
514.7000	29
514.8000	26
514.9000	30
515.0000	23
515.1000	36
515.2000	52
515.3000	32
515.4000	36
517.3000	26
660.5000	70
660.6000	191
660.7000	177
660.8000	208
660.9000	215
661.0000	229
661.1000	234
661.2000	215
661.3000	200
661.4000	176
661.5000	95
661.6000	77
661.7000	163
661.8000	91
661.9000	104
662.0000	88
662.1000	83
662.2000	72
662.3000	85
662.4000	82
662.5000	32
662.7000	30
662.9000	22
663.0000	34
663.1000	26
678.4000	51
678.5000	170
678.6000	418
678.7000	530
678.8000	646
678.9000	708
679.0000	672
679.1000	660
679.2000	724
679.3000	639
679.4000	527
679.5000	270
679.6000	274
679.7000	275
679.8000	314
679.9000	302
680.0000	331
680.1000	325
680.2000	280
680.3000	227
680.4000	235
680.5000	95
680.6000	78
680.7000	94
680.8000	70
680.9000	86
681.0000	72
681.1000	82
681.2000	75
681.3000	64
681.4000	41
681.5000	23
695.6000	41
695.7000	71
695.8000	140
695.9000	82
696.0000	89
696.1000	77
696.2000	80
696.3000	62
696.4000	53
696.5000	40
696.8000	37
696.9000	45
697.0000	29
697.1000	28
697.2000	36
697.3000	26
697.4000	31
1338.4000	23
1339.2000	25
1373.8000	25
