Mass spectrum: Cinchonine; LC-ESI-QQQ; MS2; Frag=135.0V CID@25.0; [M+H]+
Name: (1R)((5R)-5-vinylquinuclidin-2-yl)-4-quinolylmethan-1-ol
Name: Cinchonan-9-ol
Name: alpha-4-Quinolyl(5-vinyl-1-azabicyclo(2.2.2)oct-2-yl)methanol
Name: Cinchonine
Class: Alkaloids
Formula: C19H22N2O
Exact mass: 294.4
SMILES: C=C[C@H]1CN2CC[C@H]1C[C@@H]2[C@H](C3=CC=NC4=CC=CC=C34)O
InChI: InChI=1S/C19H22N2O/c1-2-13-12-21-10-8-14(13)11-18(21)19(22)16-7-9-20-17-6-4-3-5-15(16)17/h2-7,9,13-14,18-19,22H,1,8,10-12H2/t13-,14-,18+,19-/m0/s1
Instrument: Agilent 6410 Triple Quadrupole LC/MS system
Instrument type: LC-ESI-QQQ
Ms type: MS2
Ion mode: POSITIVE
Precursor type: [M+H]+
m/z	relative intensity
78.4	1
78.5	2
78.6	5
78.7	9
78.8	12
78.9	15
79.0	17
79.1	18
79.2	19
79.3	15
79.4	9
79.5	3
80.1	2
80.2	3
80.3	4
80.4	7
80.5	9
80.6	10
80.7	12
80.8	15
80.9	21
81.0	27
81.1	32
81.2	32
81.3	25
81.4	14
81.5	5
129.2	0
129.3	2
129.4	4
129.5	7
129.6	9
129.7	10
129.8	12
129.9	15
130.0	19
130.1	19
130.2	15
130.3	8
130.4	2
141.4	1
141.5	3
141.6	5
141.7	7
141.8	10
141.9	13
142.0	15
142.1	13
142.2	9
142.3	5
143.7	3
143.8	4
143.9	6
144.0	6
144.1	6
144.2	5
144.3	4
144.4	2
153.6	2
153.7	3
153.8	5
153.9	6
154.0	8
154.1	10
154.2	11
154.3	9
154.4	5
154.5	1
155.6	5
155.7	7
155.8	12
155.9	17
156.0	18
156.1	15
156.2	11
156.3	9
156.4	6
156.5	3
165.8	2
165.9	4
166.0	7
166.1	10
166.2	12
166.3	12
166.4	9
166.5	5
166.6	1
166.9	1
167.0	4
167.1	7
167.2	8
167.3	8
167.6	4
167.7	6
167.8	10
167.9	17
168.0	25
168.1	30
168.2	29
168.3	20
168.4	10
168.5	3
222.9	2
223.0	4
223.1	6
223.2	6
223.3	5
223.4	2
276.3	1
276.4	2
276.5	4
276.6	5
276.7	8
276.8	12
276.9	20
277.0	29
277.1	34
277.2	30
277.3	19
277.4	7
277.5	0
294.2	1
294.3	3
294.4	6
294.5	8
294.6	12
294.7	20
294.8	35
294.9	55
295.0	77
295.1	94
295.2	99
295.3	90
295.4	67
295.5	37
295.6	12
295.7	0
