Mass spectrum: Perforine; LC-ESI-QQQ; MS2; Frag=135.0V CID@15.0; [M+H]+
Name: Perforine
Class: Alkaloids
Formula: C18H25NO5
Exact mass: 335.4037
SMILES: COc1c2c(nc3occc13)C(CCC(C)(C)O)(OC)C(O)CC2
InChI: InChI=1S/C18H25NO5/c1-17(2,21)8-9-18(23-4)13(20)6-5-11-14(22-3)12-7-10-24-16(12)19-15(11)18/h7,10,13,20-21H,5-6,8-9H2,1-4H3
Instrument: Agilent 6410 Triple Quadrupole LC/MS system
Instrument type: LC-ESI-QQQ
Ms type: MS2
Ion mode: POSITIVE
Precursor type: [M+H]+
m/z	relative intensity
217.4	1
217.5	2
217.6	5
217.7	9
217.8	16
217.9	24
218.0	31
218.1	35
218.2	35
218.3	31
218.4	23
218.5	13
218.6	4
229.4	0
229.5	2
229.6	3
229.7	6
229.8	10
229.9	16
230.0	20
230.1	23
230.2	23
230.3	20
230.4	14
230.5	7
230.6	2
267.7	1
267.8	2
267.9	4
268.0	5
268.1	6
268.2	7
268.3	7
268.4	5
268.5	3
285.3	0
285.4	2
285.5	5
285.6	11
285.7	22
285.8	38
285.9	58
286.0	78
286.1	93
286.2	99
286.3	95
286.4	78
286.5	51
286.6	22
286.7	2
303.6	1
303.7	3
303.8	6
303.9	10
304.0	15
304.1	18
304.2	21
304.3	20
304.4	17
304.5	11
304.6	4
304.7	0
