Mass spectrum: retronecine; LC-ESI-QQQ; MS2; Frag=135.0V CID@25.0; [M+H]+
Name: retronecine
Class: Alkaloids
Formula: C8H13NO2
Exact mass: 155.1983
SMILES: OCC1=CCN2CC[C@@H](O)[C@@H]12
InChI: InChI=1S/C8H13NO2/c10-5-6-1-3-9-4-2-7(11)8(6)9/h1,7-8,10-11H,2-5H2/t7-,8-/m1/s1
Instrument: Agilent 6410 Triple Quadrupole LC/MS system
Instrument type: LC-ESI-QQQ
Ms type: MS2
Ion mode: POSITIVE
Precursor type: [M+H]+
m/z	relative intensity
52.6	1
52.7	2
52.8	5
52.9	7
53.0	9
53.1	9
53.2	8
53.3	7
53.4	4
54.5	5
54.6	6
54.7	11
54.8	19
54.9	28
55.0	35
55.1	36
55.2	34
55.3	29
55.4	22
55.5	12
55.8	9
55.9	14
56.0	17
56.1	18
56.2	17
56.3	14
56.4	10
56.5	5
56.8	3
56.9	5
57.0	7
57.1	8
57.2	7
57.3	5
57.7	2
57.8	5
57.9	8
58.0	12
58.1	14
58.2	14
58.3	11
58.4	7
58.5	3
64.5	2
64.6	3
64.7	5
64.8	9
64.9	13
65.0	16
65.1	17
65.2	16
65.3	13
65.4	8
65.5	3
66.2	2
66.3	3
66.4	6
66.5	9
66.6	15
66.7	27
66.8	47
66.9	71
67.0	88
67.1	94
67.2	88
67.3	73
67.4	51
67.5	27
67.6	9
67.8	7
67.9	13
68.0	18
68.1	20
68.2	20
68.3	17
68.4	11
68.5	5
68.8	3
68.9	6
69.0	8
69.1	9
69.2	8
69.3	7
69.4	4
76.5	2
76.6	3
76.7	5
76.8	9
76.9	12
77.0	14
77.1	14
77.2	13
77.3	10
77.4	7
78.6	3
78.7	6
78.8	12
78.9	16
79.0	19
79.1	19
79.2	18
79.5	15
79.6	18
79.7	29
79.8	49
79.9	71
80.0	89
80.1	99
80.2	99
80.3	86
80.4	60
80.5	31
80.7	11
80.8	21
80.9	33
81.0	40
81.1	43
81.2	42
81.3	40
81.4	34
81.6	22
81.7	29
81.8	49
81.9	72
82.0	90
82.1	97
82.2	96
82.3	84
82.4	61
82.5	33
82.6	9
82.9	2
83.0	4
83.1	6
83.2	6
83.3	6
83.4	5
83.5	3
83.6	4
83.7	8
83.8	15
83.9	21
84.0	25
84.1	27
84.2	26
84.3	23
84.4	18
84.5	11
84.8	8
84.9	12
85.0	17
85.1	19
85.2	19
85.3	17
85.6	9
85.7	15
85.8	24
85.9	34
86.0	42
86.1	44
86.2	41
86.3	35
86.4	25
86.5	14
86.6	4
90.4	1
90.5	2
90.6	5
90.7	9
90.8	14
90.9	19
91.0	23
91.1	24
91.2	23
91.3	19
91.4	12
91.5	6
92.5	2
92.6	3
92.7	6
92.8	11
92.9	16
93.0	19
93.1	20
93.2	19
93.3	17
93.5	12
93.6	15
93.7	28
93.8	48
93.9	68
94.0	78
94.1	78
94.2	74
94.3	65
94.4	48
94.5	26
94.6	7
94.9	1
95.0	3
95.1	3
95.2	4
95.3	4
95.4	4
95.5	4
95.6	5
95.7	9
95.8	15
95.9	21
96.0	26
96.1	27
96.2	26
96.3	24
96.4	19
96.5	11
96.6	4
107.2	2
107.3	3
107.4	6
107.5	9
107.6	12
107.7	21
107.8	37
107.9	57
108.0	71
108.1	75
108.2	70
108.3	60
108.4	45
108.5	25
108.6	8
109.5	3
109.6	4
109.7	7
109.8	11
109.9	15
110.0	19
110.1	21
110.2	20
110.3	18
110.4	14
110.5	7
110.6	2
111.3	1
111.4	3
111.5	5
111.6	9
111.7	17
111.8	30
111.9	43
112.0	52
112.1	54
112.2	53
112.3	46
112.4	33
112.5	16
112.6	3
125.7	2
125.8	5
125.9	8
126.0	11
126.1	11
126.2	10
126.3	8
126.4	5
126.5	2
137.5	1
137.6	2
137.7	5
137.8	9
137.9	14
138.0	18
138.1	19
138.2	19
138.3	16
138.4	11
138.5	5
138.6	1
155.3	0
155.4	2
155.5	5
155.6	9
155.7	18
155.8	32
155.9	49
156.0	64
156.1	71
156.2	71
156.3	64
156.4	49
156.5	29
156.6	10
156.7	0
