Mass spectrum: Cycloheximide; LC-ESI-QQQ; MS2; Frag=135.0V CID@5.0; [M+H]+
Name: Cycloheximide
Class: Alkaloids
Formula: C15H23NO4
Exact mass: 281.162708
SMILES: C[C@H]1C[C@@H](C(=O)[C@@H](C1)[C@@H](CC2CC(=O)NC(=O)C2)O)C
InChI: InChI=1S/C15H23NO4/c1-8-3-9(2)15(20)11(4-8)12(17)5-10-6-13(18)16-14(19)7-10/h8-12,17H,3-7H2,1-2H3,(H,16,18,19)/t8-,9-,11-,12+/m0/s1
Instrument: Agilent 6410 Triple Quadrupole LC/MS system
Instrument type: LC-ESI-QQQ
Ms type: MS2
Ion mode: POSITIVE
Precursor type: [M+H]+
m/z	relative intensity
218.7	2
218.8	4
218.9	6
219.0	7
219.1	8
219.2	8
219.3	7
219.4	5
219.5	3
228.8	3
228.9	4
229.0	6
229.1	7
229.2	7
229.3	6
229.4	4
229.5	2
245.4	1
245.5	2
245.6	4
245.7	9
245.8	16
245.9	26
246.0	34
246.1	38
246.2	39
246.3	36
246.4	31
246.5	23
246.6	13
246.9	9
247.0	13
247.1	15
247.2	16
247.3	16
247.4	13
247.5	7
247.6	2
263.3	0
263.4	2
263.5	4
263.6	8
263.7	13
263.8	24
263.9	40
264.0	56
264.1	68
264.2	72
264.3	68
264.4	57
264.5	39
264.6	20
264.9	9
265.0	15
265.1	18
265.2	19
265.3	18
265.4	15
265.5	10
265.6	4
265.7	0
281.3	1
281.4	3
281.5	5
281.6	9
281.7	16
281.8	30
281.9	52
282.0	75
282.1	92
282.2	99
282.3	96
282.4	81
282.5	55
282.6	25
282.7	4
