Mass spectrum: Amygdalin; LC-ESI-QQQ; MS2; Frag=135.0V CID@5.0; [M+H]+
Name: Amygdaloside
Name: Laenitrile
Name: Mandelonitrile-beta-gentiobioside
Name: Amygdalin
Class: Carbohydrates
Formula: C20H27NO11
Exact mass: 457.4383
SMILES: N#CC(O[C@@H]1O[C@H](CO[C@@H]2O[C@H](CO)[C@@H](O)[C@H](O)[C@H]2O)[C@@H](O)[C@H](O)[C@H]1O)c1ccccc1
InChI: InChI=1S/C20H27NO11/c21-6-10(9-4-2-1-3-5-9)30-20-18(28)16(26)14(24)12(32-20)8-29-19-17(27)15(25)13(23)11(7-22)31-19/h1-5,10-20,22-28H,7-8H2/t10?,11-,12-,13-,14-,15+,16+,17-,18-,19-,20-/m1/s1
Instrument: Agilent 6410 Triple Quadrupole LC/MS system
Instrument type: LC-ESI-QQQ
Ms type: MS2
Ion mode: POSITIVE
Precursor type: [M+H]+
m/z	relative intensity
295.4	0
295.5	1
295.6	4
295.7	7
295.8	11
295.9	14
296.0	16
296.1	17
296.2	16
296.3	12
296.4	6
296.5	2
457.2	1
457.3	2
457.4	5
457.5	9
457.6	16
457.7	28
457.8	44
457.9	61
458.0	75
458.1	86
458.2	96
458.3	99
458.4	88
458.5	61
458.6	27
458.7	4
458.8	0
