Mass spectrum: Monensin A Na salt; LC-ESI-QQQ; MS2; Frag=135.0V CID@15.0; [M+Na]+
Name: Monensin A Na salt
Class: Polyketides
Formula: C36H61NaO11
Exact mass: 692.8708
SMILES: CC[C@@]1([C@@H]2O[C@@H]([C@H]3O[C@@](O)(CO)[C@H](C)C[C@@H]3C)C[C@@H]2C)CC[C@H](C2(C)CCC3(C[C@H](O)[C@@H](C)[C@@H]([C@@H](C)[C@H](OC)[C@@H](C)C(=O)[O-])O3)O2)O1.[Na+]
InChI: InChI=1S/C36H62O11.Na/c1-10-34(31-20(3)16-26(43-31)28-19(2)15-21(4)36(41,18-37)46-28)12-11-27(44-34)33(8)13-14-35(47-33)17-25(38)22(5)30(45-35)23(6)29(42-9)24(7)32(39)40;/h19-31,37-38,41H,10-18H2,1-9H3,(H,39,40);/q;+1/p-1/t19-,20-,21+,22+,23-,24+,25-,26+,27+,28-,29-,30-,31+,33?,34-,35?,36-;/m0./s1
Instrument: Agilent 6410 Triple Quadrupole LC/MS system
Instrument type: LC-ESI-QQQ
Ms type: MS2
Ion mode: POSITIVE
Precursor type: [M+Na]+
m/z	relative intensity
692.3	1
692.4	2
692.5	3
692.6	5
692.7	8
692.8	14
692.9	24
693.0	40
693.1	58
693.2	75
693.3	87
693.4	96
693.5	99
693.6	93
693.7	71
693.8	39
693.9	11
694.0	0
