Mass spectrum: Boldine; LC-ESI-QQQ; MS; [M+H]+
Name: 2,9-Dihydroxy-1,10-dimethoxyaporphine
Name: 1,10-Dimethoxy-6aalpha-aporphine-2,9-diol
Name: 2,6-Dihydroxy-3,5-dimethoxyaporphin
Name: Boldine
Class: Alkaloids
Formula: C19H21NO4
Exact mass: 327.3835
SMILES: CN1CCC2=CC(=C(C3=C2[C@@H]1CC4=CC(=C(C=C43)OC)O)OC)O
InChI: InChI=1S/C19H21NO4/c1-20-5-4-10-7-15(22)19(24-3)18-12-9-16(23-2)14(21)8-11(12)6-13(20)17(10)18/h7-9,13,21-22H,4-6H2,1-3H3/t13-/m0/s1
Instrument: ABSciex API3200 LC/MS system
Instrument type: LC-ESI-QQQ
Ms type: MS
Ion mode: POSITIVE
Precursor type: [M+H]+
m/z	relative intensity
100.4000	36
100.5000	101
100.6000	284
204.5000	24
204.6000	39
204.8000	43
204.9000	50
205.0000	50
205.1000	50
205.2000	48
205.3000	48
224.7000	21
225.1000	25
232.5000	22
232.6000	24
232.7000	30
232.8000	37
232.9000	32
233.0000	29
233.1000	22
233.2000	23
233.3000	28
236.4000	48
236.5000	126
236.6000	128
236.7000	129
236.8000	143
236.9000	144
237.0000	264
237.1000	134
237.2000	141
237.3000	116
237.4000	117
237.5000	35
237.6000	31
237.7000	24
237.8000	26
237.9000	83
238.0000	31
238.1000	24
238.2000	27
238.3000	21
252.5000	28
252.7000	26
252.8000	30
252.9000	33
253.0000	34
253.1000	33
264.4000	168
264.5000	291
264.6000	353
264.7000	386
264.8000	409
264.9000	358
265.0000	393
265.1000	337
265.2000	370
265.3000	314
265.4000	282
265.5000	155
265.6000	146
265.7000	127
265.8000	121
265.9000	145
266.0000	143
266.1000	115
266.2000	144
266.3000	100
266.4000	67
266.5000	43
266.6000	44
266.8000	34
267.0000	26
267.2000	28
267.3000	21
267.4000	21
269.0000	25
281.5000	25
281.6000	44
281.7000	54
281.8000	60
281.9000	61
282.0000	38
282.1000	39
282.2000	33
282.3000	36
282.4000	31
296.4000	113
296.5000	244
296.6000	243
296.7000	339
296.8000	337
296.9000	342
297.0000	305
297.1000	295
297.2000	999
297.3000	152
297.5000	23
297.6000	30
297.8000	67
297.9000	41
298.0000	46
298.1000	54
298.2000	53
298.3000	39
298.4000	41
327.3000	55
327.4000	206
327.5000	528
327.6000	670
327.7000	684
327.8000	683
327.9000	733
328.0000	733
328.1000	718
328.2000	705
328.3000	636
328.4000	633
328.5000	340
328.6000	285
328.7000	274
328.8000	251
328.9000	274
329.0000	226
329.1000	203
329.2000	209
329.3000	192
329.4000	167
329.5000	79
329.6000	46
329.7000	29
329.8000	39
329.9000	47
330.0000	38
330.1000	42
330.2000	53
330.3000	27
330.4000	22
