Mass spectrum: Podophyllotoxin; LC-ESI-QQQ; MS; [M+H]+
Name: Podophyllotoxin
Class: Polycyclic aromatic natural products
Formula: C22H22O8
Exact mass: 414.4158
SMILES: COc1cc([C@@H]2c3cc4c(cc3[C@H](O)C3COC(=O)[C@@H]32)OCO4)cc(OC)c1OC
InChI: InChI=1S/C22H22O8/c1-25-16-4-10(5-17(26-2)21(16)27-3)18-11-6-14-15(30-9-29-14)7-12(11)20(23)13-8-28-22(24)19(13)18/h4-7,13,18-20,23H,8-9H2,1-3H3/t13?,18-,19+,20+/m1/s1
Instrument: ABSciex API3200 LC/MS system
Instrument type: LC-ESI-QQQ
Ms type: MS
Ion mode: POSITIVE
Precursor type: [M+H]+
m/z	relative intensity
101.5000	30
114.1000	23
114.2000	50
114.3000	32
114.4000	28
114.6000	38
119.4000	26
119.5000	60
119.6000	37
145.4000	26
145.5000	52
229.2000	27
229.3000	64
229.4000	82
229.5000	97
229.6000	64
229.7000	54
247.2000	37
247.3000	57
247.4000	82
247.5000	85
247.6000	71
247.7000	57
282.5000	21
313.3000	31
313.4000	56
313.5000	43
313.6000	46
313.7000	44
314.5000	22
397.2000	118
397.3000	397
397.4000	597
397.5000	735
397.6000	800
397.7000	692
397.8000	314
397.9000	75
398.0000	28
398.2000	42
398.3000	117
398.4000	185
398.5000	236
398.6000	228
398.7000	194
398.8000	94
399.3000	21
399.4000	44
399.5000	41
399.6000	41
399.7000	32
399.8000	27
414.3000	27
414.4000	34
414.5000	40
414.6000	46
414.7000	39
414.8000	41
415.2000	260
415.3000	593
415.4000	885
415.5000	981
415.6000	999
415.7000	920
415.8000	465
415.9000	122
416.0000	53
416.1000	27
416.2000	59
416.3000	143
416.4000	248
416.5000	270
416.6000	260
416.7000	236
416.8000	111
416.9000	31
417.3000	26
417.4000	41
417.5000	46
417.6000	52
417.7000	50
417.8000	33
432.2000	41
432.3000	202
432.4000	361
432.5000	437
432.6000	508
432.7000	480
432.8000	311
432.9000	77
433.2000	59
433.3000	158
433.4000	246
433.5000	303
433.6000	323
433.7000	311
433.8000	170
433.9000	45
434.3000	32
434.4000	71
434.5000	74
434.6000	80
434.7000	74
434.8000	37
437.6000	27
450.5000	36
450.6000	27
450.7000	43
451.3000	50
451.4000	127
451.5000	167
451.6000	189
451.7000	167
451.8000	87
452.4000	32
452.5000	36
452.6000	35
452.7000	36
452.8000	24
460.6000	24
460.7000	23
469.3000	43
469.4000	80
469.5000	99
469.6000	119
469.7000	108
469.8000	54
470.4000	26
470.5000	22
470.6000	31
487.4000	34
487.5000	33
487.6000	38
487.7000	33
487.8000	30
493.5000	24
493.6000	28
493.7000	24
505.5000	26
505.6000	32
505.7000	30
505.8000	27
523.5000	23
523.6000	24
523.7000	27
549.6000	27
549.7000	25
793.5000	44
793.6000	64
793.7000	94
793.8000	101
793.9000	72
794.5000	25
794.6000	31
794.7000	56
794.8000	55
794.9000	39
811.4000	23
811.5000	97
811.6000	160
811.7000	238
811.8000	236
811.9000	178
812.0000	65
812.1000	27
812.5000	46
812.6000	78
812.7000	124
812.8000	118
812.9000	95
813.0000	27
813.7000	30
813.8000	37
813.9000	31
829.5000	32
829.6000	61
829.7000	99
829.8000	99
829.9000	75
830.0000	27
830.6000	45
830.7000	49
830.8000	50
830.9000	47
846.5000	34
846.6000	50
846.7000	92
846.8000	114
846.9000	106
847.0000	43
847.1000	21
847.6000	43
847.7000	74
847.8000	109
847.9000	83
848.0000	32
848.7000	34
848.8000	32
848.9000	37
865.7000	24
865.8000	22
865.9000	23
