Mass spectrum: Skimmianine; LC-ESI-QQQ; MS2; Frag=135.0V CID@25.0; [M+H]+
Name: Skimmianine
Class: Alkaloids
Formula: C14H13NO4
Exact mass: 259.264
SMILES: COc1ccc2c(OC)c3ccoc3nc2c1OC
InChI: InChI=1S/C14H13NO4/c1-16-10-5-4-8-11(13(10)18-3)15-14-9(6-7-19-14)12(8)17-2/h4-7H,1-3H3
Instrument: Agilent 6410 Triple Quadrupole LC/MS system
Instrument type: LC-ESI-QQQ
Ms type: MS2
Ion mode: POSITIVE
Precursor type: [M+H]+
m/z	relative intensity
183.5	2
183.6	3
183.7	6
183.8	10
183.9	13
184.0	15
184.1	15
184.2	14
184.3	11
184.4	7
184.5	3
198.3	3
198.4	4
198.5	6
198.6	10
198.7	17
198.8	25
198.9	34
199.0	41
199.1	44
199.2	42
199.3	36
199.4	26
199.5	13
199.6	3
215.5	3
215.6	5
215.7	8
215.8	13
215.9	17
216.0	20
216.1	22
216.2	21
216.3	18
216.4	12
216.5	6
216.6	1
226.1	2
226.2	3
226.3	5
226.4	8
226.5	13
226.6	21
226.7	34
226.8	53
226.9	76
227.0	93
227.1	99
227.2	93
227.3	76
227.4	52
227.5	27
227.6	7
227.7	0
229.7	2
229.8	4
229.9	5
230.0	6
230.1	7
230.2	7
230.3	5
230.4	3
243.6	1
243.7	2
243.8	4
243.9	6
244.0	7
244.1	8
244.2	7
244.3	6
244.4	4
244.8	4
244.9	6
245.0	7
245.1	8
245.2	7
245.3	6
245.4	4
245.5	2
