Mass spectrum: urolithin B; LC-ESI-QQQ; MS2; Frag=135.0V CID@15.0; [M+H]+
Name: urolithin B
Class: Benzopyranoids
Formula: C13H8O3
Exact mass: 212.2069
SMILES: O=c1oc2cc(O)ccc2c2ccccc12
InChI: InChI=1S/C13H8O3/c14-8-5-6-10-9-3-1-2-4-11(9)13(15)16-12(10)7-8/h1-7,14H
Instrument: Agilent 6410 Triple Quadrupole LC/MS system
Instrument type: LC-ESI-QQQ
Ms type: MS2
Ion mode: POSITIVE
Precursor type: [M+H]+
m/z	relative intensity
140.3	0
140.4	1
140.5	4
140.6	9
140.7	17
140.8	27
140.9	39
141.0	48
141.1	51
141.2	49
141.3	43
141.4	33
141.5	20
141.6	8
141.7	0
168.4	3
168.5	4
168.6	7
168.7	11
168.8	17
168.9	24
169.0	29
169.1	32
169.2	31
169.3	28
169.4	21
169.5	13
169.6	4
169.7	0
212.2	0
212.3	1
212.4	4
212.5	11
212.6	22
212.7	36
212.8	55
212.9	76
213.0	92
213.1	99
213.2	97
213.3	85
213.4	63
213.5	34
213.6	10
213.7	0
