Mass spectrum: Brevicarine; LC-ESI-QQQ; MS2; Frag=135.0V CID@25.0; [M+H]+
Name: Brevicarine
Class: Alkaloids
Formula: C17H21N3
Exact mass: 267.377
SMILES: CNCCCCc1cnc(C)c2[nH]c3ccccc3c12
InChI: InChI=1S/C17H21N3/c1-12-17-16(14-8-3-4-9-15(14)20-17)13(11-19-12)7-5-6-10-18-2/h3-4,8-9,11,18,20H,5-7,10H2,1-2H3
Instrument: Agilent 6410 Triple Quadrupole LC/MS system
Instrument type: LC-ESI-QQQ
Ms type: MS2
Ion mode: POSITIVE
Precursor type: [M+H]+
m/z	relative intensity
194.5	3
194.6	5
194.7	12
194.8	24
194.9	38
195.0	50
195.1	56
195.2	55
195.3	47
195.4	35
195.5	21
195.6	10
195.8	9
195.9	15
196.0	20
196.1	24
196.2	23
196.3	18
196.4	11
196.5	4
208.3	1
208.4	2
208.5	4
208.6	7
208.7	11
208.8	16
208.9	21
209.0	24
209.1	25
209.2	25
209.3	22
209.4	15
209.5	6
209.6	0
220.7	2
220.8	4
220.9	6
221.0	7
221.1	7
221.2	7
221.3	6
221.4	5
236.2	1
236.3	2
236.4	4
236.5	7
236.6	12
236.7	22
236.8	39
236.9	64
237.0	87
237.1	99
237.2	98
237.3	85
237.4	62
237.5	35
237.6	11
237.7	0
267.6	1
267.7	2
267.8	5
267.9	9
268.0	13
268.1	16
268.2	16
268.3	14
268.4	10
268.5	5
268.6	1
