Mass spectrum: Trachelanthine; LC-ESI-QQQ; MS2; Frag=135.0V CID@15.0; [M+H]+
Name: Trachelanthamine oxide
Name: Trachelanthamine N-oxide
Name: ((7aS,1R)-4-hydroxyperhydropyrrolizinyl)methyl 2,3-dihydroxy-2-(methylethyl)butanoate
Name: Trachelanthine
Class: Alkaloids
Formula: C15H27NO5
Exact mass: 301.3861
SMILES: CC(C)C(O)(C(=O)OC[C@@H]1CC[N+]2([O-])CCC[C@@H]12)C(C)O
InChI: InChI=1S/C15H27NO5/c1-10(2)15(19,11(3)17)14(18)21-9-12-6-8-16(20)7-4-5-13(12)16/h10-13,17,19H,4-9H2,1-3H3/t11?,12-,13-,15?,16?/m0/s1
Instrument: Agilent 6410 Triple Quadrupole LC/MS system
Instrument type: LC-ESI-QQQ
Ms type: MS2
Ion mode: POSITIVE
Precursor type: [M+H]+
m/z	relative intensity
157.4	1
157.5	3
157.6	5
157.7	8
157.8	15
157.9	24
158.0	34
158.1	41
158.2	43
158.3	39
158.4	31
158.5	20
158.6	8
158.7	0
301.3	1
301.4	2
301.5	5
301.6	8
301.7	14
301.8	25
301.9	45
302.0	69
302.1	89
302.2	99
302.3	99
302.4	87
302.5	64
302.6	36
302.7	11
302.8	0
