Mass spectrum: Glaucine; LC-ESI-QQQ; MS2; Frag=135.0V CID@25.0; [M+H]+
Name: Glaucine
Class: Alkaloids
Formula: C21H25NO4
Exact mass: 355.4377
SMILES: COc1cc2c(cc1OC)-c1c(OC)c(OC)cc3c1C(C2)N(C)CC3
InChI: InChI=1S/C21H25NO4/c1-22-7-6-12-9-18(25-4)21(26-5)20-14-11-17(24-3)16(23-2)10-13(14)8-15(22)19(12)20/h9-11,15H,6-8H2,1-5H3
Instrument: Agilent 6410 Triple Quadrupole LC/MS system
Instrument type: LC-ESI-QQQ
Ms type: MS2
Ion mode: POSITIVE
Precursor type: [M+H]+
m/z	relative intensity
278.5	2
278.6	4
278.7	7
278.8	12
278.9	18
279.0	25
279.1	28
279.2	29
279.3	25
279.4	17
279.5	9
279.6	2
293.3	2
293.4	4
293.5	7
293.6	13
293.7	23
293.8	41
293.9	62
294.0	82
294.1	95
294.2	99
294.3	93
294.4	74
294.5	47
294.6	22
294.8	11
294.9	20
295.0	28
295.1	32
295.2	32
295.3	28
295.4	20
295.5	11
295.6	3
309.4	1
309.5	3
309.6	4
309.7	8
309.8	15
309.9	24
310.0	33
310.1	39
310.2	41
310.3	37
310.4	29
310.5	16
310.6	5
310.7	0
324.7	1
324.8	3
324.9	5
325.0	6
325.1	8
325.2	9
325.3	9
325.4	7
325.5	4
325.6	1
