Mass spectrum: Komarovicine; LC-ESI-QQQ; MS2; Frag=135.0V CID@5.0; [M+H]+
Name: Komarovicine
Class: Alkaloids
Formula: C20H17N3
Exact mass: 299.3786
SMILES: c1cnc2c(C3NCCc4c3[nH]c3ccccc43)cccc2c1
InChI: InChI=1S/C20H17N3/c1-2-9-17-14(7-1)15-10-12-22-19(20(15)23-17)16-8-3-5-13-6-4-11-21-18(13)16/h1-9,11,19,22-23H,10,12H2
Instrument: Agilent 6410 Triple Quadrupole LC/MS system
Instrument type: LC-ESI-QQQ
Ms type: MS2
Ion mode: POSITIVE
Precursor type: [M+H]+
m/z	relative intensity
270.4	1
270.5	3
270.6	6
270.7	12
270.8	22
270.9	33
271.0	44
271.1	51
271.2	53
271.3	47
271.4	36
271.5	21
271.6	7
271.7	0
299.3	0
299.4	2
299.5	5
299.6	9
299.7	16
299.8	29
299.9	50
300.0	74
300.1	93
300.2	99
300.3	92
300.4	70
300.5	42
300.6	16
300.7	1
