Mass spectrum: Sipeimine, 3-Ac; LC-ESI-QQQ; MS2; Frag=135.0V CID@10.0; [M+H]+
Name: Sipeimine, 3-Ac
Class: Alkaloids
Formula: C29H45NO4
Exact mass: 471.6863
SMILES: CC(=O)OC1CC[C@@]2(C)[C@H](C1)C(=O)C[C@H]1[C@@H]3CCC4C(CN5C[C@@H](C)CC[C@H]5[C@@]4(C)O)[C@@H]3C[C@@H]12
InChI: InChI=1S/C29H45NO4/c1-16-5-8-27-29(4,33)23-7-6-19-20(22(23)15-30(27)14-16)12-24-21(19)13-26(32)25-11-18(34-17(2)31)9-10-28(24,25)3/h16,18-25,27,33H,5-15H2,1-4H3/t16-,18?,19+,20+,21-,22?,23?,24-,25+,27-,28+,29-/m0/s1
Instrument: Agilent 6410 Triple Quadrupole LC/MS system
Instrument type: LC-ESI-QQQ
Ms type: MS2
Ion mode: POSITIVE
Precursor type: [M+H]+
m/z	relative intensity
471.4	1
471.5	3
471.6	5
471.7	9
471.8	15
471.9	27
472.0	45
472.1	68
472.2	87
472.3	99
472.4	99
472.5	89
472.6	66
472.7	38
472.8	13
472.9	0
