Mass spectrum: Asiaticoside; LC-ESI-QQQ; MS2; Frag=135.0V CID@15.0; [M+H]+
Name: Asiaticoside
Class: Terpenoids
Formula: C48H78O19
Exact mass: 959.1455
SMILES: C[C@@H]1[C@H]2C3=CCC4[C@@]5(C)C[C@@H](O)[C@@H](O)[C@@](C)(CO)C5CC[C@@]4(C)[C@]3(C)CC[C@@]2(C(=O)O[C@@H]2O[C@@H](CO[C@@H]3O[C@H](CO)[C@@H](O[C@@H]4O[C@H](C)[C@@H](O)[C@H](O)[C@H]4O)[C@H](O)[C@H]3O)[C@H](O)[C@@H](O)[C@H]2O)CC[C@H]1C
InChI: InChI=1S/C48H78O19/c1-20-10-13-48(15-14-46(6)23(29(48)21(20)2)8-9-28-44(4)16-24(51)39(60)45(5,19-50)27(44)11-12-47(28,46)7)43(61)67-42-36(58)33(55)31(53)26(65-42)18-62-40-37(59)34(56)38(25(17-49)64-40)66-41-35(57)32(54)30(52)22(3)63-41/h8,20-22,24-42,49-60H,9-19H2,1-7H3/t20-,21+,22-,24-,25-,26+,27?,28?,29+,30-,31+,32+,33-,34-,35-,36-,37-,38-,39-,40-,41+,42+,44+,45+,46-,47-,48+/m1/s1
Instrument: Agilent 6410 Triple Quadrupole LC/MS system
Instrument type: LC-ESI-QQQ
Ms type: MS2
Ion mode: POSITIVE
Precursor type: [M+H]+
m/z	relative intensity
307.9	2
308.0	4
308.1	7
308.2	12
308.3	22
308.4	37
308.5	55
308.6	70
308.7	75
308.8	66
308.9	48
309.0	28
309.1	14
309.2	7
452.3	2
452.4	3
452.5	6
452.6	11
452.7	24
452.8	48
452.9	77
453.0	98
453.1	97
453.2	74
453.3	42
453.4	16
453.5	3
470.4	2
470.5	4
470.6	9
470.7	18
470.8	30
470.9	45
471.0	59
471.1	65
471.2	58
471.3	39
471.4	20
471.5	10
471.6	4
634.4	3
634.5	5
634.6	8
634.7	14
634.8	24
634.9	34
635.0	41
635.1	40
635.2	34
635.3	29
635.4	26
635.5	20
635.6	13
635.7	5
650.6	3
650.7	5
650.8	12
650.9	19
651.0	21
651.1	19
651.2	12
651.3	6
651.4	3
796.5	2
796.6	4
796.7	8
796.8	13
796.9	15
797.0	16
797.1	17
797.2	18
797.3	18
797.4	15
797.5	10
797.6	5
812.6	3
812.7	5
812.8	7
812.9	6
813.0	5
