Mass spectrum: Vulgarin; LC-ESI-QQQ; MS2; Frag=135.0V CID@10.0; [M+H]+
Name: Vulgarin
Class: Terpenoids
Formula: C15H20O4
Exact mass: 264.3243
SMILES: C[C@@H]1C(=O)O[C@H]2C1CC[C@@]1(C)C(=O)C=C[C@@](C)(O)[C@H]21
InChI: InChI=1S/C15H20O4/c1-8-9-4-6-14(2)10(16)5-7-15(3,18)12(14)11(9)19-13(8)17/h5,7-9,11-12,18H,4,6H2,1-3H3/t8-,9?,11-,12+,14-,15+/m0/s1
Instrument: Agilent 6410 Triple Quadrupole LC/MS system
Instrument type: LC-ESI-QQQ
Ms type: MS2
Ion mode: POSITIVE
Precursor type: [M+H]+
m/z	relative intensity
68.5	3
68.6	4
68.7	5
68.8	7
68.9	8
69.0	9
69.1	8
69.2	6
69.3	3
82.6	1
82.7	2
82.8	4
82.9	6
83.0	7
83.1	6
83.2	4
83.3	2
104.9	3
105.0	5
105.1	7
105.2	8
105.3	7
105.4	4
105.5	1
118.6	1
118.7	3
118.8	5
118.9	7
119.0	7
119.1	7
119.2	8
119.3	7
119.4	5
119.5	2
120.9	5
121.0	6
121.1	7
121.2	9
121.3	9
121.4	6
121.5	3
130.6	1
130.7	3
130.8	5
130.9	7
131.0	9
131.1	9
131.2	9
131.3	7
131.4	4
132.4	0
132.5	4
132.6	10
132.7	19
132.8	31
132.9	45
133.0	56
133.1	62
133.2	63
133.3	59
133.4	47
133.5	27
133.6	8
133.7	0
144.5	2
144.6	3
144.7	7
144.8	11
144.9	15
145.0	17
145.1	18
145.2	18
145.3	15
145.4	10
145.5	5
145.6	1
148.4	1
148.5	2
148.6	4
148.7	4
148.8	4
148.9	6
149.0	8
149.1	9
149.2	7
149.3	5
149.4	2
150.5	0
150.6	2
150.7	4
150.8	5
150.9	7
151.0	6
151.1	5
151.2	4
151.3	4
151.4	3
151.5	2
158.7	1
158.8	4
158.9	11
159.0	17
159.1	21
159.2	20
159.3	17
159.4	12
159.5	6
159.6	1
160.6	2
160.7	4
160.8	5
160.9	6
161.0	7
161.1	7
161.2	8
161.3	6
161.4	3
162.5	1
162.6	2
162.7	4
162.8	5
162.9	5
163.0	4
163.1	3
163.2	4
163.3	5
163.4	5
163.5	3
172.2	2
172.3	3
172.4	6
172.5	9
172.6	14
172.7	20
172.8	31
172.9	50
173.0	75
173.1	94
173.2	99
173.3	90
173.4	68
173.5	39
173.6	12
173.7	0
176.5	1
176.6	2
176.7	5
176.8	7
176.9	10
177.0	13
177.1	16
177.2	17
177.3	15
177.4	11
177.5	6
177.6	1
182.6	0
182.7	4
182.8	10
182.9	15
183.0	16
183.1	14
183.2	12
183.3	11
183.4	9
183.5	5
183.6	1
188.7	1
188.8	3
188.9	4
189.0	5
189.1	5
189.2	4
189.3	3
190.5	1
190.6	3
190.7	5
190.8	8
190.9	11
191.0	16
191.1	21
191.2	24
191.3	24
191.4	21
191.5	14
191.6	6
191.7	0
200.3	0
200.4	2
200.5	7
200.6	13
200.7	20
200.8	28
200.9	39
201.0	50
201.1	57
201.2	58
201.3	55
201.4	47
201.5	32
201.6	14
201.7	1
218.4	1
218.5	3
218.6	5
218.7	10
218.8	19
218.9	32
219.0	47
219.1	58
219.2	62
219.3	59
219.4	48
219.5	31
219.6	12
219.7	0
228.7	1
228.8	2
228.9	4
229.0	6
229.1	9
229.2	11
229.3	11
229.4	8
229.5	4
246.5	2
246.6	4
246.7	7
246.8	11
246.9	19
247.0	27
247.1	32
247.2	31
247.3	24
247.4	14
247.5	6
247.6	1
264.5	2
264.6	3
264.7	5
264.8	11
264.9	17
265.0	22
265.1	24
265.2	24
265.3	22
265.4	18
265.5	11
265.6	5
265.7	0
