Mass spectrum: Hippeastrine; LC-ESI-QQQ; MS2; Frag=135.0V CID@15.0; [M+H]+
Name: Hippeastrine
Class: Alkaloids
Formula: C17H17NO5
Exact mass: 315.3287
SMILES: CN1CCC2=C[C@@H](O)[C@@H]3OC(=O)c4cc5c(cc4C3[C@H]21)OCO5
InChI: InChI=1S/C17H17NO5/c1-18-3-2-8-4-11(19)16-14(15(8)18)9-5-12-13(22-7-21-12)6-10(9)17(20)23-16/h4-6,11,14-16,19H,2-3,7H2,1H3/t11-,14?,15+,16+/m1/s1
Instrument: Agilent 6410 Triple Quadrupole LC/MS system
Instrument type: LC-ESI-QQQ
Ms type: MS2
Ion mode: POSITIVE
Precursor type: [M+H]+
m/z	relative intensity
315.2	0
315.3	1
315.4	4
315.5	8
315.6	13
315.7	22
315.8	39
315.9	61
316.0	83
316.1	97
316.2	99
316.3	90
316.4	69
316.5	40
316.6	14
316.7	0
