Mass spectrum: Machilin D; LC-ESI-QQQ; MS2; Frag=135.0V CID@15.0; [M+Na]+
Name: Machilin D
Class: Lignans
Formula: C20H24O5
Exact mass: 344.4113
SMILES: C/C=C/c1ccc(OC(C)[C@@H](O)c2ccc(O)c(OC)c2)c(OC)c1
InChI: InChI=1S/C20H24O5/c1-5-6-14-7-10-17(19(11-14)24-4)25-13(2)20(22)15-8-9-16(21)18(12-15)23-3/h5-13,20-22H,1-4H3/b6-5+/t13?,20-/m1/s1
Instrument: Agilent 6410 Triple Quadrupole LC/MS system
Instrument type: LC-ESI-QQQ
Ms type: MS2
Ion mode: POSITIVE
Precursor type: [M+Na]+
m/z	relative intensity
161.3	1
161.4	3
161.5	6
161.6	8
161.7	9
161.8	10
161.9	12
162.0	12
162.1	9
162.2	5
163.0	2
163.1	4
163.2	6
163.3	7
163.4	5
185.4	2
185.5	3
185.6	5
185.7	6
185.8	6
185.9	9
186.0	17
186.1	25
186.2	25
186.3	15
186.4	5
187.3	2
187.4	3
187.5	5
187.6	6
187.7	5
190.6	2
190.7	4
190.8	8
190.9	11
191.0	14
191.1	19
191.2	26
191.3	28
191.4	21
191.5	10
191.6	2
202.6	1
202.7	2
202.8	7
202.9	16
203.0	29
203.1	42
203.2	46
203.3	36
203.4	19
203.5	5
366.3	1
366.4	3
366.5	6
366.6	10
366.7	16
366.8	28
366.9	49
367.0	73
367.1	90
367.2	99
367.3	99
367.4	85
367.5	53
367.6	17
367.7	0
