Mass spectrum: Podophyllotoxin; LC-ESI-QQQ; MS2; Frag=135.0V CID@25.0; [M+HCOO]-
Name: Podophyllotoxin
Class: Polycyclic aromatic natural products
Formula: C22H22O8
Exact mass: 414.4158
SMILES: COc1cc([C@@H]2c3cc4c(cc3[C@H](O)C3COC(=O)[C@@H]32)OCO4)cc(OC)c1OC
InChI: InChI=1S/C22H22O8/c1-25-16-4-10(5-17(26-2)21(16)27-3)18-11-6-14-15(30-9-29-14)7-12(11)20(23)13-8-28-22(24)19(13)18/h4-7,13,18-20,23H,8-9H2,1-3H3/t13?,18-,19+,20+/m1/s1
Instrument: Agilent 6410 Triple Quadrupole LC/MS system
Instrument type: LC-ESI-QQQ
Ms type: MS2
Ion mode: NEGATIVE
Precursor type: [M+HCOO]-
m/z	relative intensity
54.0	3
54.1	6
54.2	9
54.3	8
54.6	3
54.7	6
54.8	9
54.9	10
55.0	8
58.5	5
58.6	8
58.7	9
58.8	8
61.0	5
61.1	7
61.2	9
61.3	7
62.3	3
62.4	7
62.5	9
62.6	10
62.7	7
63.6	5
63.7	7
63.8	9
63.9	8
67.4	3
67.5	6
67.6	9
67.7	9
67.8	6
70.6	2
70.7	5
70.8	8
70.9	9
71.0	7
73.2	4
73.3	7
73.4	9
73.5	9
74.5	4
74.6	7
74.7	10
74.8	9
74.9	6
76.4	2
76.5	6
76.6	10
76.7	9
76.8	6
77.0	2
77.1	6
77.2	9
77.3	9
77.4	6
78.9	4
79.0	7
79.1	9
79.2	9
79.3	7
79.6	4
79.7	7
79.8	9
79.9	8
85.3	5
85.4	7
85.5	9
85.6	9
85.7	7
86.6	4
86.7	7
86.8	9
86.9	9
87.0	6
87.9	5
88.0	8
88.1	9
88.2	8
88.3	4
89.2	4
89.3	6
89.4	8
89.5	7
89.6	6
89.7	5
89.8	5
89.9	6
90.0	8
90.1	8
91.1	3
91.2	6
91.3	8
91.4	8
92.4	3
92.5	5
92.6	7
92.7	7
94.3	3
94.4	6
94.5	9
94.6	9
96.2	4
96.3	7
96.4	9
96.5	8
96.6	6
100.7	4
100.8	7
100.9	9
101.0	8
102.6	3
102.7	6
102.8	9
102.9	8
104.5	3
104.6	6
104.7	8
104.8	8
104.9	6
105.2	4
105.3	7
105.4	10
105.5	10
106.5	3
106.6	6
106.7	9
106.8	9
106.9	7
108.4	4
108.5	6
108.6	7
108.7	7
110.9	3
111.0	6
111.1	9
111.2	10
111.3	8
112.2	3
112.3	6
112.4	8
112.5	8
113.5	3
113.6	6
113.7	9
113.8	9
118.6	1
118.7	5
118.8	9
118.9	9
119.0	7
120.5	3
120.6	6
120.7	8
120.8	9
120.9	7
121.2	4
121.3	7
121.4	9
121.5	8
124.4	5
124.5	7
124.6	9
124.7	9
126.3	3
126.4	6
126.5	9
126.6	10
127.6	2
127.7	5
127.8	8
127.9	9
128.0	7
130.8	4
130.9	8
131.0	10
131.1	9
131.2	6
134.6	4
134.7	6
134.8	8
134.9	9
135.0	7
135.3	5
135.4	7
135.5	8
135.6	7
135.9	4
136.0	6
136.1	9
136.2	9
136.3	7
138.5	5
138.6	7
138.7	9
138.8	9
138.9	7
140.4	6
140.5	8
140.6	10
140.7	9
140.8	7
142.3	4
142.4	7
142.5	9
142.6	10
142.7	7
145.5	4
145.6	7
145.7	9
145.8	8
145.9	6
146.2	4
146.3	7
146.4	9
146.5	8
148.1	5
148.2	7
148.3	9
148.4	7
148.7	3
148.8	6
148.9	8
149.0	8
149.1	6
149.2	5
149.3	6
149.4	7
149.5	9
149.6	8
149.7	6
150.0	4
150.1	8
150.2	10
150.3	9
150.4	6
151.3	4
151.4	6
151.5	7
151.6	7
153.2	4
153.3	7
153.4	9
153.5	9
157.0	4
157.1	7
157.2	9
157.3	9
157.4	6
158.3	3
158.4	6
158.5	9
158.6	9
160.9	3
161.0	6
161.1	8
161.2	8
164.7	5
164.8	8
164.9	9
165.0	8
166.0	4
166.1	7
166.2	9
166.3	8
167.3	5
167.4	8
167.5	10
167.6	9
169.8	1
169.9	5
170.0	9
170.1	10
170.2	9
172.4	4
172.5	7
172.6	9
172.7	9
172.8	8
172.9	6
173.0	6
173.1	6
173.2	7
173.3	8
173.4	6
173.7	4
173.8	7
173.9	8
174.0	8
177.5	5
177.6	8
177.7	9
177.8	8
178.8	4
178.9	6
179.0	8
179.1	8
182.6	4
182.7	7
182.8	9
182.9	9
185.8	2
185.9	5
186.0	8
186.1	9
186.2	7
186.5	4
186.6	7
186.7	9
186.8	8
187.7	3
187.8	6
187.9	9
188.0	10
188.1	8
190.3	2
190.4	5
190.5	9
190.6	10
190.7	7
191.6	3
191.7	6
191.8	9
191.9	9
192.0	6
192.9	4
193.0	7
193.1	9
193.2	8
196.1	4
196.2	7
196.3	9
196.4	9
198.0	4
198.1	6
198.2	8
198.3	8
198.6	3
198.7	6
198.8	8
198.9	9
199.0	7
201.2	4
201.3	6
201.4	8
201.5	8
203.1	2
203.2	5
203.3	8
203.4	8
204.4	5
204.5	8
204.6	10
204.7	9
204.8	6
208.2	3
208.3	6
208.4	9
208.5	8
208.6	6
209.5	5
209.6	8
209.7	10
209.8	9
209.9	6
210.8	4
210.9	6
211.0	9
211.1	9
211.2	7
214.0	5
214.1	8
214.2	9
214.3	8
215.3	4
215.4	7
215.5	9
215.6	8
217.2	4
217.3	7
217.4	9
217.5	8
218.5	4
218.6	7
218.7	9
218.8	9
220.4	4
220.5	7
220.6	9
220.7	8
221.0	3
221.1	6
221.2	9
221.3	10
221.4	8
223.6	5
223.7	8
223.8	9
223.9	9
224.9	4
225.0	6
225.1	8
225.2	7
225.3	6
225.4	4
225.5	5
225.6	8
225.7	10
225.8	9
225.9	6
226.8	3
226.9	6
227.0	8
227.1	7
227.4	4
227.5	7
227.6	9
227.7	9
227.8	7
228.1	3
228.2	6
228.3	8
228.4	8
229.3	2
229.4	5
229.5	8
229.6	10
229.7	8
230.6	3
230.7	6
230.8	9
230.9	9
231.0	8
231.3	5
231.4	7
231.5	8
231.6	7
233.8	2
233.9	6
234.0	9
234.1	10
234.2	8
235.1	3
235.2	7
235.3	10
235.4	10
235.5	8
238.3	4
238.4	7
238.5	10
238.6	9
238.7	6
239.6	4
239.7	7
239.8	9
239.9	8
240.9	4
241.0	7
241.1	9
241.2	8
241.5	4
241.6	7
241.7	10
241.8	10
241.9	7
242.8	5
242.9	7
243.0	8
243.1	8
243.2	7
244.1	4
244.2	7
244.3	9
244.4	8
247.9	4
248.0	6
248.1	8
248.2	8
249.2	2
249.3	5
249.4	8
249.5	9
249.6	6
250.5	6
250.6	8
250.7	10
250.8	9
251.7	4
251.8	6
251.9	8
252.0	8
252.1	6
252.4	3
252.5	7
252.6	9
252.7	9
254.3	3
254.4	6
254.5	8
254.6	9
255.6	3
255.7	6
255.8	8
255.9	7
257.5	4
257.6	7
257.7	9
257.8	9
257.9	6
259.4	4
259.5	7
259.6	10
259.7	10
259.8	8
260.7	4
260.8	7
260.9	9
261.0	10
261.1	7
262.6	3
262.7	8
262.8	12
262.9	11
263.0	7
265.2	5
265.3	7
265.4	8
265.5	7
265.6	6
265.7	5
265.8	5
265.9	7
266.0	8
266.1	8
266.2	7
266.3	5
266.4	5
266.5	6
266.6	8
266.7	8
266.8	7
268.4	4
268.5	7
268.6	9
268.7	9
270.3	4
270.4	7
270.5	9
270.6	8
271.6	4
271.7	7
271.8	9
271.9	8
274.8	4
274.9	6
275.0	8
275.1	7
275.4	3
275.5	6
275.6	9
275.7	9
275.8	6
279.3	5
279.4	7
279.5	8
279.6	8
280.6	5
280.7	7
280.8	9
280.9	9
281.8	5
281.9	7
282.0	9
282.1	8
285.0	3
285.1	5
285.2	8
285.3	8
285.4	6
287.6	4
287.7	7
287.8	9
287.9	8
288.2	3
288.3	6
288.4	9
288.5	10
288.6	7
290.8	3
290.9	6
291.0	8
291.1	8
292.7	2
292.8	5
292.9	8
293.0	8
297.2	3
297.3	6
297.4	8
297.5	8
298.5	3
298.6	6
298.7	9
298.8	8
299.7	2
299.8	5
299.9	8
300.0	8
300.1	7
302.9	4
303.0	7
303.1	9
303.2	10
303.3	8
306.8	3
306.9	6
307.0	8
307.1	7
307.4	4
307.5	7
307.6	10
307.7	10
307.8	8
310.0	4
310.1	6
310.2	8
310.3	8
312.6	5
312.7	7
312.8	9
312.9	8
315.1	4
315.2	7
315.3	10
315.4	9
315.5	7
320.9	3
321.0	6
321.1	9
321.2	8
322.8	3
322.9	7
323.0	9
323.1	8
325.3	0
325.4	4
325.5	8
325.6	9
325.7	8
326.6	3
326.7	6
326.8	10
326.9	13
327.0	12
327.3	5
327.4	8
327.5	10
327.6	8
327.9	5
328.0	8
328.1	10
328.2	10
328.3	7
329.2	4
329.3	7
329.4	10
329.5	10
334.3	3
334.4	6
334.5	8
334.6	8
334.7	6
334.8	5
334.9	6
335.0	7
335.1	8
335.2	7
335.3	6
335.4	5
335.5	5
335.6	6
335.7	8
335.8	9
335.9	8
336.0	6
336.9	3
337.0	6
337.1	7
337.2	7
337.5	3
337.6	6
337.7	8
337.8	8
337.9	5
338.8	4
338.9	6
339.0	8
339.1	8
339.2	6
339.3	5
339.4	5
339.5	6
339.6	7
339.7	7
339.8	6
339.9	5
340.0	4
340.1	4
340.2	7
340.3	9
340.4	8
342.0	3
342.1	6
342.2	8
342.3	8
342.6	3
342.7	6
342.8	10
342.9	10
343.0	8
343.3	5
343.4	7
343.5	9
343.6	8
343.9	4
344.0	7
344.1	9
344.2	9
345.8	4
345.9	7
346.0	9
346.1	10
346.2	7
346.5	4
346.6	7
346.7	9
346.8	8
348.4	4
348.5	7
348.6	9
348.7	8
352.9	4
353.0	7
353.1	8
353.2	8
354.8	4
354.9	6
355.0	8
355.1	7
356.1	4
356.2	7
356.3	8
356.4	7
356.7	3
356.8	6
356.9	9
357.0	9
357.1	6
358.0	5
358.1	7
358.2	8
358.3	8
364.9	8
365.0	12
365.1	14
365.2	13
365.3	10
365.4	6
366.3	3
366.4	6
366.5	8
366.6	9
366.7	8
366.8	6
366.9	5
367.0	5
367.1	6
367.2	7
367.3	6
367.5	1
367.6	3
367.7	11
367.8	31
367.9	58
368.0	77
368.1	72
368.2	47
368.3	20
368.4	6
368.8	3
368.9	5
369.0	8
369.1	10
369.2	9
369.5	5
369.6	8
369.7	10
369.8	10
369.9	7
372.7	4
372.8	7
372.9	8
373.0	8
373.1	6
373.4	4
373.5	6
373.6	8
373.7	7
374.6	3
374.7	7
374.8	10
374.9	10
375.0	7
375.9	3
376.0	6
376.1	9
376.2	9
376.3	7
378.5	4
378.6	7
378.7	9
378.8	8
380.4	4
380.5	6
380.6	8
380.7	8
382.9	3
383.0	5
383.1	8
383.2	10
383.3	8
383.4	4
386.1	5
386.2	8
386.3	10
386.4	9
386.5	6
386.8	3
386.9	7
387.0	10
387.1	9
387.2	6
390.0	4
390.1	7
390.2	9
390.3	8
395.1	2
395.2	5
395.3	8
395.4	8
395.5	7
397.0	5
397.1	7
397.2	10
397.3	10
397.4	6
399.6	3
399.7	6
399.8	8
399.9	8
400.9	4
401.0	8
401.1	10
401.2	8
401.3	5
402.8	5
402.9	7
403.0	9
403.1	8
404.7	5
404.8	7
404.9	9
405.0	9
405.1	6
406.0	3
406.1	6
406.2	9
406.3	9
407.9	4
408.0	6
408.1	8
408.2	8
410.5	4
410.6	7
410.7	8
410.8	7
411.1	5
411.2	7
411.3	9
411.4	9
411.5	6
411.8	5
411.9	7
412.0	9
412.1	8
412.2	6
412.3	5
412.4	6
412.5	8
412.6	9
412.7	8
413.0	5
413.1	8
413.2	10
413.3	10
413.4	8
414.3	4
414.4	7
414.5	9
414.6	9
414.7	7
415.6	4
415.7	7
415.8	9
415.9	9
427.1	4
427.2	7
427.3	9
427.4	8
428.4	4
428.5	7
428.6	9
428.7	9
431.6	3
431.7	6
431.8	8
431.9	8
434.8	3
434.9	6
435.0	8
435.1	8
438.0	3
438.1	6
438.2	8
438.3	8
441.2	4
441.3	7
441.4	9
441.5	8
441.6	5
443.1	4
443.2	7
443.3	9
443.4	9
443.5	7
443.8	5
443.9	7
444.0	8
444.1	8
444.2	6
444.3	5
444.4	5
444.5	8
444.6	9
444.7	9
444.8	6
448.2	4
448.3	6
448.4	8
448.5	7
448.9	4
449.0	6
449.1	8
449.2	8
450.8	3
450.9	6
451.0	8
451.1	8
451.4	2
451.5	5
451.6	8
451.7	9
451.8	7
455.3	5
455.4	8
455.5	10
455.6	9
457.2	4
457.3	7
457.4	9
457.5	9
457.6	6
462.3	4
462.4	7
462.5	8
462.6	8
464.2	5
464.3	8
464.4	9
464.5	8
464.6	5
467.4	3
467.5	7
467.6	10
467.7	11
467.8	9
468.7	4
468.8	6
468.9	9
469.0	9
469.1	7
471.9	4
472.0	6
472.1	8
472.2	8
472.3	6
474.4	4
474.5	7
474.6	10
474.7	11
474.8	9
475.1	3
475.2	6
475.3	10
475.4	10
475.5	8
475.8	4
475.9	8
476.0	10
476.1	10
476.2	7
476.5	3
476.6	5
476.7	6
476.8	5
476.9	4
477.0	4
477.1	6
477.2	8
477.3	8
478.3	4
478.4	7
478.5	9
478.6	9
478.7	7
479.0	3
479.1	6
479.2	8
479.3	8
479.4	6
479.5	5
479.6	5
479.7	7
479.8	8
479.9	8
480.0	7
481.5	3
481.6	6
481.7	9
481.8	9
481.9	6
482.2	4
482.3	7
482.4	9
482.5	8
484.7	4
484.8	6
484.9	8
485.0	7
487.3	3
487.4	6
487.5	7
487.6	7
487.9	3
488.0	5
488.1	8
488.2	8
489.2	4
489.3	7
489.4	9
489.5	9
490.5	5
490.6	7
490.7	8
490.8	7
490.9	5
491.0	4
491.1	5
491.2	8
491.3	9
491.4	9
491.5	6
492.4	2
492.5	6
492.6	8
492.7	7
493.0	4
493.1	7
493.2	10
493.3	9
493.4	6
494.3	4
494.4	7
494.5	9
494.6	9
494.7	6
495.6	4
495.7	7
495.8	8
495.9	8
498.2	4
498.3	7
498.4	9
498.5	9
501.3	4
501.4	6
501.5	8
501.6	9
501.7	7
502.0	4
502.1	6
502.2	8
502.3	8
503.9	3
504.0	7
504.1	9
504.2	9
504.3	6
504.6	3
504.7	6
504.8	7
504.9	6
505.0	4
505.1	3
505.2	5
505.3	7
505.4	8
505.5	8
505.6	5
507.7	2
507.8	5
507.9	9
508.0	10
508.1	9
509.7	4
509.8	7
509.9	9
510.0	8
510.3	5
510.4	7
510.5	9
510.6	8
510.9	3
511.0	6
511.1	10
511.2	10
511.3	7
511.6	3
511.7	6
511.8	9
511.9	8
512.9	4
513.0	7
513.1	9
513.2	8
513.5	3
513.6	7
513.7	10
513.8	10
513.9	8
516.0	3
516.1	6
516.2	9
516.3	10
516.4	8
516.7	3
516.8	6
516.9	9
517.0	9
517.1	6
517.4	3
517.5	6
517.6	8
517.7	7
518.0	4
518.1	7
518.2	9
518.3	9
520.5	3
520.6	6
520.7	9
520.8	11
520.9	8
522.5	3
522.6	7
522.7	9
522.8	10
523.7	3
523.8	6
523.9	9
524.0	9
524.1	7
524.4	4
524.5	7
524.6	9
524.7	8
526.3	5
526.4	7
526.5	9
526.6	9
526.7	7
527.6	4
527.7	7
527.8	9
527.9	8
528.2	3
528.3	6
528.4	9
528.5	9
528.6	6
532.1	4
532.2	6
532.3	8
532.4	8
532.5	6
532.6	4
532.7	6
532.8	8
532.9	10
533.0	9
533.1	5
535.9	3
536.0	6
536.1	8
536.2	8
538.5	4
538.6	7
538.7	8
538.8	7
539.7	3
539.8	6
539.9	10
540.0	11
540.1	8
540.4	3
540.5	7
540.6	10
540.7	9
547.4	4
547.5	6
547.6	8
547.7	8
549.3	2
549.4	5
549.5	8
549.6	9
554.5	4
554.6	7
554.7	9
554.8	8
555.1	4
555.2	8
555.3	10
555.4	10
555.5	8
556.3	0
556.4	3
556.5	8
556.6	10
556.7	8
559.6	4
559.7	7
559.8	9
559.9	8
560.0	5
560.9	5
561.0	7
561.1	9
561.2	8
561.3	5
563.4	2
563.5	5
563.6	8
563.7	9
565.4	4
565.5	7
565.6	9
565.7	9
571.1	4
571.2	7
571.3	9
571.4	9
573.0	3
573.1	7
573.2	9
573.3	9
573.4	7
573.7	3
573.8	6
573.9	8
574.0	8
576.2	4
576.3	8
576.4	11
576.5	11
576.6	8
577.5	4
577.6	7
577.7	8
577.8	8
580.7	6
580.8	8
580.9	9
581.0	8
582.6	3
582.7	6
582.8	8
582.9	8
583.0	6
586.5	4
586.6	7
586.7	9
586.8	8
587.1	3
587.2	6
587.3	9
587.4	8
589.0	2
589.1	5
589.2	7
589.3	7
589.4	6
589.5	5
589.6	4
589.7	5
589.8	7
589.9	7
590.0	6
590.1	4
590.2	4
590.3	5
590.4	7
590.5	8
590.6	8
591.6	5
591.7	7
591.8	9
591.9	8
592.2	3
592.3	6
592.4	9
592.5	9
593.5	5
593.6	7
593.7	9
593.8	9
593.9	7
594.8	3
594.9	6
595.0	10
595.1	9
595.2	6
598.6	4
598.7	7
598.8	10
598.9	10
599.0	8
599.3	6
599.4	8
599.5	10
599.6	9
