Mass spectrum: Geniposide; LC-ESI-QQQ; MS2; Frag=135.0V CID@10.0; [M+HCOO]-
Name: Geniposide
Class: Terpenoids
Formula: C17H24O10
Exact mass: 388.3748
SMILES: COC(=O)C1=CO[C@@H](OC2O[C@H](CO)[C@@H](O)[C@H](O)[C@H]2O)[C@@H]2C(CO)=CC[C@H]12
InChI: InChI=1S/C17H24O10/c1-24-15(23)9-6-25-16(11-7(4-18)2-3-8(9)11)27-17-14(22)13(21)12(20)10(5-19)26-17/h2,6,8,10-14,16-22H,3-5H2,1H3/t8-,10-,11-,12-,13+,14-,16+,17?/m1/s1
Instrument: Agilent 6410 Triple Quadrupole LC/MS system
Instrument type: LC-ESI-QQQ
Ms type: MS2
Ion mode: NEGATIVE
Precursor type: [M+HCOO]-
m/z	relative intensity
100.2	0
100.3	2
100.4	7
100.5	12
100.6	18
100.7	23
100.8	27
100.9	32
101.0	35
101.1	32
101.2	22
101.3	10
101.4	1
122.2	0
122.3	2
122.4	6
122.5	14
122.6	26
122.7	39
122.8	51
122.9	62
123.0	68
123.1	67
123.2	55
123.3	37
123.4	18
123.5	4
123.6	0
206.3	0
206.4	1
206.5	4
206.6	7
206.7	9
206.8	9
206.9	10
207.0	9
207.1	7
207.2	3
207.3	0
224.2	1
224.3	1
224.4	6
224.5	18
224.6	32
224.7	46
224.8	59
224.9	73
225.0	87
225.1	98
225.2	99
225.3	87
225.4	59
225.5	26
225.6	3
