Mass spectrum: Desoxycortone; LC-ESI-QQQ; MS; [M+H]+
Name: Desoxycortone
Class: Steroids
Formula: C21H30O3
Exact mass: 330.4715
SMILES: C[C@]12CC[C@H]3[C@@H](CCC4=CC(=O)CC[C@@]43C)[C@@H]1CC[C@@H]2C(=O)CO
InChI: InChI=1S/C21H30O3/c1-20-9-7-14(23)11-13(20)3-4-15-16-5-6-18(19(24)12-22)21(16,2)10-8-17(15)20/h11,15-18,22H,3-10,12H2,1-2H3/t15-,16-,17-,18+,20-,21-/m0/s1
Instrument: ABSciex API3200 LC/MS system
Instrument type: LC-ESI-QQQ
Ms type: MS
Ion mode: POSITIVE
Precursor type: [M+H]+
m/z	relative intensity
108.5000	40
108.6000	66
108.7000	74
108.8000	70
108.9000	73
109.0000	90
109.1000	73
109.2000	89
109.3000	64
109.4000	54
109.5000	23
294.7000	23
294.8000	31
294.9000	28
295.0000	30
295.1000	27
295.2000	35
295.3000	28
295.4000	26
312.6000	22
312.7000	27
312.8000	42
312.9000	33
313.0000	34
313.1000	33
313.2000	30
313.3000	31
313.4000	26
330.4000	88
330.5000	613
330.6000	878
330.7000	965
330.8000	990
330.9000	998
331.0000	999
331.1000	974
331.2000	967
331.3000	948
331.4000	853
331.5000	747
331.6000	499
331.7000	434
331.8000	457
331.9000	433
332.0000	415
332.1000	415
332.2000	439
332.3000	386
332.4000	362
332.5000	291
332.6000	157
332.7000	110
332.8000	99
332.9000	83
333.0000	97
333.1000	88
333.2000	81
333.3000	81
333.4000	63
333.5000	55
333.6000	25
371.4000	55
371.5000	103
371.6000	71
371.7000	124
371.8000	166
371.9000	167
372.0000	165
372.1000	166
372.2000	138
372.3000	161
372.4000	120
372.5000	91
372.6000	40
372.7000	38
372.8000	41
372.9000	32
373.0000	41
373.1000	61
373.2000	37
373.3000	27
373.5000	23
660.7000	38
660.8000	47
660.9000	65
661.0000	67
661.1000	61
661.2000	59
661.3000	79
661.4000	54
661.5000	47
661.6000	24
661.8000	27
661.9000	30
662.0000	25
662.1000	33
662.2000	31
662.3000	31
662.4000	24
