Mass spectrum: Foliosidine; LC-ESI-QQQ; MS2; Frag=135.0V CID@10.0; [M+H]+
Name: Foliosidine
Class: Alkaloids
Formula: C16H21NO5
Exact mass: 307.3495
SMILES: COc1cc(=O)n(C)c2c(OCC(O)C(C)(C)O)cccc12
InChI: InChI=1S/C16H21NO5/c1-16(2,20)13(18)9-22-11-7-5-6-10-12(21-4)8-14(19)17(3)15(10)11/h5-8,13,18,20H,9H2,1-4H3
Instrument: Agilent 6410 Triple Quadrupole LC/MS system
Instrument type: LC-ESI-QQQ
Ms type: MS2
Ion mode: POSITIVE
Precursor type: [M+H]+
m/z	relative intensity
289.4	1
289.5	2
289.6	4
289.7	7
289.8	12
289.9	20
290.0	27
290.1	32
290.2	33
290.3	30
290.4	24
290.5	16
290.6	7
290.7	1
307.3	0
307.4	3
307.5	6
307.6	11
307.7	19
307.8	34
307.9	55
308.0	77
308.1	93
308.2	99
308.3	94
308.4	76
308.5	48
308.6	20
308.7	2
