Mass spectrum: testolactone; LC-ESI-QQQ; MS2; Frag=135.0V CID@10.0; [M+H]+
Name: testolactone
Class: Steroids
Formula: C19H24O3
Exact mass: 300.4013
SMILES: C[C@]12CCC3C(CCC4=CC(=O)C=C[C@@]43C)C1CCC(=O)O2
InChI: InChI=1S/C19H24O3/c1-18-9-7-13(20)11-12(18)3-4-14-15(18)8-10-19(2)16(14)5-6-17(21)22-19/h7,9,11,14-16H,3-6,8,10H2,1-2H3/t14?,15?,16?,18-,19-/m0/s1
Instrument: Agilent 6410 Triple Quadrupole LC/MS system
Instrument type: LC-ESI-QQQ
Ms type: MS2
Ion mode: POSITIVE
Precursor type: [M+H]+
m/z	relative intensity
120.3	1
120.4	3
120.5	7
120.6	14
120.7	24
120.8	36
120.9	50
121.0	58
121.1	61
121.2	58
121.3	51
121.4	40
121.5	24
121.6	10
121.7	1
146.5	1
146.6	3
146.7	5
146.8	9
146.9	13
147.0	17
147.1	19
147.2	19
147.3	17
147.4	12
147.5	6
147.6	2
166.6	1
166.7	2
166.8	4
166.9	6
167.0	7
167.1	8
167.2	8
167.3	7
167.4	6
167.5	3
172.5	1
172.6	3
172.7	6
172.8	10
172.9	16
173.0	20
173.1	23
173.2	23
173.3	20
173.4	16
173.5	9
173.6	3
180.6	1
180.7	2
180.8	4
180.9	6
181.0	8
181.1	9
181.2	9
181.3	9
181.4	8
181.5	6
181.6	2
264.8	2
264.9	3
265.0	5
265.1	7
265.2	7
265.3	7
265.4	5
265.5	3
282.7	1
282.8	3
282.9	5
283.0	6
283.1	8
283.2	9
283.3	8
283.4	6
283.5	4
300.4	0
300.5	3
300.6	8
300.7	17
300.8	31
300.9	53
301.0	75
301.1	92
301.2	99
301.3	96
301.4	82
301.5	58
301.6	28
301.7	6
301.8	0
