Mass spectrum: Barbatic acid; LC-ESI-QQQ; MS2; Frag=135.0V CID@15.0; [M+Na]+
Name: Barbatic acid
Class: Carbohydrates
Formula: C19H20O7
Exact mass: 360.3671
SMILES: COc1cc(C)c(C(=O)Oc2cc(C)c(C(=O)O)c(O)c2C)c(O)c1C
InChI: InChI=1S/C19H20O7/c1-8-7-13(11(4)16(20)14(8)18(22)23)26-19(24)15-9(2)6-12(25-5)10(3)17(15)21/h6-7,20-21H,1-5H3,(H,22,23)
Instrument: Agilent 6410 Triple Quadrupole LC/MS system
Instrument type: LC-ESI-QQQ
Ms type: MS2
Ion mode: POSITIVE
Precursor type: [M+Na]+
m/z	relative intensity
200.3	1
200.4	4
200.5	9
200.6	20
200.7	37
200.8	55
200.9	74
201.0	89
201.1	99
201.2	98
201.3	83
201.4	56
201.5	26
201.6	6
201.7	0
