Mass spectrum: physostigmine; LC-ESI-QQQ; MS2; Frag=135.0V CID@25.0; [M+H]+
Name: Physostigmine
Name: Physostol
Name: Antilirium
Name: Esromiotin
Name: Ezerin
Name: Calabarine
Name: Fysostigmin
Name: ((3aS,8aR)-1,8,3a-trimethylpyrrolidino(2,3-b)indolin-5-yloxy)-N-methylcarboxamide / Eserine
Name: Cogmine
Name: physostigmine
Class: Alkaloids
Formula: C15H21N3O2
Exact mass: 275.3535
SMILES: CN=C(O)Oc1ccc2c(c1)[C@]1(C)CCN(C)[C@@H]1N2C
InChI: InChI=1S/C15H21N3O2/c1-15-7-8-17(3)13(15)18(4)12-6-5-10(9-11(12)15)20-14(19)16-2/h5-6,9,13H,7-8H2,1-4H3,(H,16,19)/t13-,15+/m1/s1
Instrument: Agilent 6410 Triple Quadrupole LC/MS system
Instrument type: LC-ESI-QQQ
Ms type: MS2
Ion mode: POSITIVE
Precursor type: [M+H]+
m/z	relative intensity
146.5	2
146.6	3
146.7	5
146.8	8
146.9	11
147.0	13
147.1	13
147.2	13
147.3	12
147.4	9
147.5	5
147.6	2
160.7	3
160.8	4
160.9	6
161.0	7
161.1	8
161.2	8
161.3	8
161.4	9
161.5	13
161.6	21
161.7	35
161.8	54
161.9	74
162.0	90
162.1	99
162.2	99
162.3	90
162.4	70
162.5	42
162.6	16
162.7	1
175.4	0
175.5	1
175.6	3
175.7	7
175.8	11
175.9	15
176.0	18
176.1	21
176.2	21
176.3	20
176.4	16
176.5	11
176.6	4
176.7	0
187.6	1
187.7	3
187.8	5
187.9	7
188.0	8
188.1	9
188.2	9
188.3	8
188.4	6
188.5	4
188.6	1
