Mass spectrum: Peucedanin; LC-ESI-QQQ; MS2; Frag=135.0V CID@25.0; [M+H]+
Name: Peucedanin
Class: Benzopyranoids
Formula: C15H14O4
Exact mass: 258.2764
SMILES: COc1c(C(C)C)oc2cc3oc(=O)ccc3cc12
InChI: InChI=1S/C15H14O4/c1-8(2)14-15(17-3)10-6-9-4-5-13(16)18-11(9)7-12(10)19-14/h4-8H,1-3H3
Instrument: Agilent 6410 Triple Quadrupole LC/MS system
Instrument type: LC-ESI-QQQ
Ms type: MS2
Ion mode: POSITIVE
Precursor type: [M+H]+
m/z	relative intensity
228.2	0
228.3	2
228.4	5
228.5	11
228.6	19
228.7	33
228.8	52
228.9	75
229.0	92
229.1	99
229.2	95
229.3	80
229.4	55
229.5	26
229.6	5
229.7	0
