Mass spectrum: 14-Benzoyltalatizamine; LC-ESI-QQQ; MS2; Frag=135.0V CID@25.0; [M+H]+
Name: 14-Benzoyltalatizamine
Class: Alkaloids
Formula: C31H43NO6
Exact mass: 525.6915
SMILES: CCN1C[C@]2(COC)CC[C@H](OC)[C@@]34C5C[C@@H]6[C@@H](OC)C[C@@](O)(C5[C@H]6OC(=O)c5ccccc5)[C@@H](CC23)C14
InChI: InChI=1S/C31H43NO6/c1-5-32-16-29(17-35-2)12-11-24(37-4)31-20-13-19-22(36-3)15-30(34,21(27(31)32)14-23(29)31)25(20)26(19)38-28(33)18-9-7-6-8-10-18/h6-10,19-27,34H,5,11-17H2,1-4H3/t19-,20?,21+,22+,23?,24+,25?,26+,27?,29+,30+,31-/m1/s1
Instrument: Agilent 6410 Triple Quadrupole LC/MS system
Instrument type: LC-ESI-QQQ
Ms type: MS2
Ion mode: POSITIVE
Precursor type: [M+H]+
m/z	relative intensity
493.6	1
493.7	2
493.8	4
493.9	7
494.0	10
494.1	14
494.2	16
494.3	17
494.4	16
494.5	13
494.6	8
494.7	3
525.4	0
525.5	2
525.6	6
525.7	13
525.8	23
525.9	38
526.0	57
526.1	76
526.2	91
526.3	99
526.4	98
526.5	85
526.6	61
526.7	32
526.8	9
526.9	0
