Mass spectrum: O-(3-Hydroxy-7-drimen-11-yl)umbelliferone; LC-ESI-QQQ; MS2; Frag=135.0V CID@15.0; [M+H]+
Name: O-(3-Hydroxy-7-drimen-11-yl)umbelliferone
Class: Benzopyranoids
Formula: C24H30O4
Exact mass: 382.5043
SMILES: CC1=CC[C@H]2C(C)(C)[C@H](O)CC[C@]2(C)[C@@H]1COc1ccc2ccc(=O)oc2c1
InChI: InChI=1S/C24H30O4/c1-15-5-9-20-23(2,3)21(25)11-12-24(20,4)18(15)14-27-17-8-6-16-7-10-22(26)28-19(16)13-17/h5-8,10,13,18,20-21,25H,9,11-12,14H2,1-4H3/t18-,20+,21-,24-/m1/s1
Instrument: Agilent 6410 Triple Quadrupole LC/MS system
Instrument type: LC-ESI-QQQ
Ms type: MS2
Ion mode: POSITIVE
Precursor type: [M+H]+
m/z	relative intensity
118.6	1
118.7	3
118.8	6
118.9	8
119.0	10
119.1	10
119.2	9
119.3	6
119.4	3
132.6	1
132.7	3
132.8	6
132.9	9
133.0	11
133.1	11
133.2	10
133.3	7
133.4	5
133.5	2
146.5	1
146.6	2
146.7	4
146.8	9
146.9	14
147.0	19
147.1	20
147.2	20
147.3	17
147.4	13
147.5	7
147.6	2
160.6	1
160.7	3
160.8	6
160.9	10
161.0	13
161.1	13
161.2	12
161.3	11
161.4	8
161.5	4
161.6	1
162.2	2
162.3	4
162.4	7
162.5	12
162.6	21
162.7	36
162.8	56
162.9	77
163.0	94
163.1	99
163.2	93
163.3	76
163.4	53
163.5	27
163.6	7
163.7	0
202.4	1
202.5	3
202.6	4
202.7	8
202.8	16
202.9	30
203.0	42
203.1	49
203.2	50
203.3	47
203.4	40
203.5	29
203.6	16
203.7	4
382.7	1
382.8	3
382.9	5
383.0	8
383.1	10
383.2	10
383.3	10
383.4	9
383.5	6
383.6	3
