Mass spectrum: Lagochilin; LC-ESI-QQQ; MS; [M+H]+
Name: Lagochilin
Class: Terpenoids
Formula: C20H36O5
Exact mass: 356.5069
SMILES: C[C@@H]1CCC2[C@](C)(CC[C@H](O)[C@@]2(C)CO)[C@]12CCC(CO)(CCO)O2
InChI: InChI=1S/C20H36O5/c1-14-4-5-15-17(2,12-22)16(24)6-7-18(15,3)20(14)9-8-19(13-23,25-20)10-11-21/h14-16,21-24H,4-13H2,1-3H3/t14-,15?,16+,17+,18+,19?,20+/m1/s1
Instrument: ABSciex API3200 LC/MS system
Instrument type: LC-ESI-QQQ
Ms type: MS
Ion mode: POSITIVE
Precursor type: [M+H]+
m/z	relative intensity
148.9000	40
149.4000	24
166.7000	26
184.5000	22
184.6000	29
184.7000	40
184.8000	35
184.9000	44
185.0000	55
185.1000	42
185.2000	39
185.3000	38
185.4000	43
207.4000	22
240.9000	21
241.0000	25
244.6000	32
244.7000	41
244.8000	41
244.9000	36
245.0000	42
245.1000	34
245.2000	42
245.3000	46
245.4000	38
245.5000	32
254.6000	27
254.7000	33
254.8000	42
254.9000	54
255.0000	37
255.1000	36
255.2000	36
255.3000	35
255.4000	26
255.5000	24
255.6000	25
266.8000	23
267.1000	23
272.5000	44
272.6000	78
272.7000	82
272.8000	97
272.9000	108
273.0000	106
273.1000	105
273.2000	102
273.3000	100
273.4000	112
273.5000	91
273.6000	34
273.7000	34
273.8000	33
273.9000	21
274.3000	25
284.5000	35
284.6000	60
284.7000	83
284.8000	99
284.9000	97
285.0000	99
285.1000	102
285.2000	90
285.3000	109
285.4000	81
285.5000	68
285.6000	29
285.7000	24
285.8000	21
285.9000	21
286.2000	21
290.6000	33
290.7000	43
290.8000	50
290.9000	51
291.0000	45
291.1000	47
291.2000	45
291.3000	53
291.4000	44
291.5000	44
302.5000	59
302.6000	134
302.7000	180
302.8000	273
302.9000	275
303.0000	174
303.1000	169
303.2000	156
303.3000	161
303.4000	179
303.5000	118
303.6000	79
303.7000	50
303.8000	49
303.9000	39
304.0000	32
304.1000	38
304.2000	37
304.3000	34
304.4000	42
304.5000	27
308.5000	34
308.6000	80
308.7000	115
308.8000	129
308.9000	122
309.0000	138
309.1000	124
309.2000	123
309.3000	110
309.4000	96
309.5000	93
309.6000	42
309.7000	39
309.8000	31
309.9000	24
310.0000	22
310.1000	27
310.3000	24
310.4000	31
320.5000	44
320.6000	105
320.7000	112
320.8000	149
320.9000	114
321.0000	117
321.1000	121
321.2000	118
321.3000	105
321.4000	100
321.5000	84
321.6000	47
321.7000	32
321.8000	27
321.9000	27
322.0000	29
322.1000	29
322.2000	27
322.3000	30
322.4000	21
338.4000	36
338.5000	126
338.6000	266
338.7000	386
338.8000	416
338.9000	431
339.0000	393
339.1000	393
339.2000	373
339.3000	350
339.4000	292
339.5000	291
339.6000	142
339.7000	157
339.8000	92
339.9000	91
340.0000	90
340.1000	100
340.2000	105
340.3000	82
340.4000	74
340.5000	67
340.6000	27
356.4000	133
356.5000	410
356.6000	656
356.7000	708
356.8000	759
356.9000	808
357.0000	930
357.1000	786
357.2000	753
357.3000	704
357.4000	603
357.5000	485
357.6000	263
357.7000	220
357.8000	211
357.9000	224
358.0000	216
358.1000	222
358.2000	222
358.3000	207
358.4000	177
358.5000	146
358.6000	68
358.7000	47
358.8000	35
358.9000	29
359.0000	40
359.1000	40
359.2000	35
359.3000	28
359.4000	29
373.6000	38
373.7000	61
373.8000	64
373.9000	67
374.0000	69
374.1000	75
374.2000	70
374.3000	60
374.4000	64
374.5000	61
374.6000	51
374.7000	75
374.8000	59
374.9000	65
375.0000	65
375.1000	63
375.2000	57
375.3000	73
375.4000	60
375.5000	49
375.6000	27
402.2000	21
402.4000	21
712.4000	54
712.5000	187
712.6000	435
712.7000	933
712.8000	911
712.9000	973
713.0000	999
713.1000	995
713.2000	986
713.3000	978
713.4000	956
713.5000	860
713.6000	577
713.7000	510
713.8000	564
713.9000	588
714.0000	583
714.1000	593
714.2000	579
714.3000	573
714.4000	589
714.5000	462
714.6000	243
714.7000	159
714.8000	182
714.9000	197
715.0000	200
715.1000	205
715.2000	208
715.3000	197
715.4000	181
715.5000	152
715.6000	74
715.7000	49
715.8000	43
715.9000	44
716.0000	50
716.1000	52
716.2000	50
716.3000	40
716.4000	40
716.5000	33
729.8000	30
729.9000	26
730.0000	25
730.1000	28
730.2000	30
730.3000	33
730.4000	28
730.5000	24
730.8000	24
1068.6000	27
1068.7000	38
1068.8000	49
1068.9000	55
1069.0000	68
1069.1000	69
1069.2000	63
1069.3000	66
1069.4000	56
1069.5000	65
1069.6000	66
1069.7000	50
1069.8000	37
1069.9000	46
1070.0000	46
1070.1000	57
1070.2000	51
1070.3000	55
1070.4000	52
1070.5000	41
1070.6000	44
1070.7000	34
1070.8000	27
1071.1000	22
1071.2000	26
1071.6000	22
1085.8000	21
1085.9000	21
1086.0000	27
1086.1000	30
1086.2000	32
1086.3000	26
1086.4000	25
1086.5000	28
1086.6000	22
1087.2000	21
1087.4000	21
1087.5000	23
