Mass spectrum: Conferone; LC-ESI-QQQ; MS2; Frag=135.0V CID@10.0; [M+H]+
Name: Conferone
Class: Benzopyranoids
Formula: C24H28O4
Exact mass: 380.4884
SMILES: CC1=CCC2C(C)(C)C(=O)CC[C@]2(C)[C@@H]1COc1ccc2ccc(=O)oc2c1
InChI: InChI=1S/C24H28O4/c1-15-5-9-20-23(2,3)21(25)11-12-24(20,4)18(15)14-27-17-8-6-16-7-10-22(26)28-19(16)13-17/h5-8,10,13,18,20H,9,11-12,14H2,1-4H3/t18-,20?,24-/m1/s1
Instrument: Agilent 6410 Triple Quadrupole LC/MS system
Instrument type: LC-ESI-QQQ
Ms type: MS2
Ion mode: POSITIVE
Precursor type: [M+H]+
m/z	relative intensity
144.6	1
144.7	3
144.8	4
144.9	5
145.0	6
145.1	7
145.2	7
145.3	7
145.4	6
145.5	3
158.7	0
158.8	2
158.9	4
159.0	5
159.1	6
159.2	6
159.3	5
159.4	4
159.5	3
160.6	2
160.7	3
160.8	5
160.9	8
161.0	11
161.1	13
161.2	15
161.3	15
161.4	13
161.5	9
161.6	4
162.3	1
162.4	2
162.5	5
162.6	10
162.7	20
162.8	34
162.9	47
163.0	55
163.1	56
163.2	51
163.3	42
163.4	29
163.5	14
163.6	3
200.4	1
200.5	2
200.6	5
200.7	8
200.8	13
200.9	19
201.0	25
201.1	27
201.2	29
201.3	31
201.4	30
201.5	22
201.6	11
201.7	2
218.8	1
218.9	4
219.0	7
219.1	11
219.2	12
219.3	11
219.4	8
219.5	4
219.6	1
380.5	2
380.6	4
380.7	9
380.8	21
380.9	43
381.0	70
381.1	91
381.2	99
381.3	95
381.4	81
381.5	58
381.6	31
381.7	9
381.8	0
