Mass spectrum: lycoperodine I; LC-ESI-QQQ; MS2; Frag=135.0V CID@10.0; [M+H]+
Name: lycoperodine I
Class: Flavonoids
Formula: C12H12N2O2
Exact mass: 216.2416
SMILES: O=C(O)[C@H]1Cc2c([nH]c3ccccc23)CN1
InChI: InChI=1S/C12H12N2O2/c15-12(16)10-5-8-7-3-1-2-4-9(7)14-11(8)6-13-10/h1-4,10,13-14H,5-6H2,(H,15,16)/t10-/m1/s1
Instrument: Agilent 6410 Triple Quadrupole LC/MS system
Instrument type: LC-ESI-QQQ
Ms type: MS2
Ion mode: POSITIVE
Precursor type: [M+H]+
m/z	relative intensity
143.2	1
143.3	3
143.4	6
143.5	10
143.6	16
143.7	28
143.8	49
143.9	75
144.0	94
144.1	99
144.2	94
144.3	81
144.4	61
144.5	35
144.6	12
144.7	0
216.7	1
216.8	3
216.9	5
217.0	6
217.1	7
217.2	8
217.3	7
217.4	6
217.5	4
