Mass spectrum: Hydrocortisone acetate; LC-ESI-QQQ; MS2; Frag=135.0V CID@5.0; [M+HCOO]-
Name: Hydrocortisone acetate
Class: Steroids
Formula: C23H32O6
Exact mass: 404.5079
SMILES: CC(=O)OCC(=O)[C@@]1(O)CCC2C3CCC4=CC(=O)CC[C@]4(C)C3C(O)C[C@@]21C
InChI: InChI=1S/C23H32O6/c1-13(24)29-12-19(27)23(28)9-7-17-16-5-4-14-10-15(25)6-8-21(14,2)20(16)18(26)11-22(17,23)3/h10,16-18,20,26,28H,4-9,11-12H2,1-3H3/t16?,17?,18?,20?,21-,22-,23-/m0/s1
Instrument: Agilent 6410 Triple Quadrupole LC/MS system
Instrument type: LC-ESI-QQQ
Ms type: MS2
Ion mode: NEGATIVE
Precursor type: [M+HCOO]-
m/z	relative intensity
58.3	0
58.4	2
58.5	5
58.6	13
58.7	25
58.8	36
58.9	44
59.0	47
59.1	43
59.2	31
59.3	16
59.4	4
100.6	1
100.7	2
100.8	4
100.9	5
101.0	5
101.1	5
101.2	4
101.3	2
330.2	1
330.3	3
330.4	4
330.5	6
330.6	8
330.7	10
330.8	14
330.9	19
331.0	24
331.1	26
331.2	25
331.3	21
331.4	15
331.5	8
331.6	2
342.5	1
342.6	3
342.7	6
342.8	8
342.9	10
343.0	9
343.1	8
343.2	8
343.3	9
343.4	10
343.5	8
343.6	5
343.7	1
372.6	3
372.7	3
372.8	6
372.9	12
373.0	19
373.1	21
373.2	17
373.3	11
373.4	5
373.5	1
384.5	1
384.6	2
384.7	4
384.8	6
384.9	7
385.0	7
385.1	6
385.2	5
385.3	4
385.4	1
402.3	0
402.4	1
402.5	6
402.6	14
402.7	24
402.8	35
402.9	49
403.0	66
403.1	84
403.2	97
403.3	99
403.4	87
403.5	59
403.6	26
403.7	4
403.8	0
448.3	1
448.4	2
448.5	6
448.6	13
448.7	25
448.8	37
448.9	43
449.0	45
449.1	44
449.2	45
449.3	45
449.4	38
449.5	25
449.6	11
449.7	1
