Mass spectrum: Felamidin; LC-ESI-QQQ; MS2; Frag=135.0V CID@10.0; [M+H]+
Name: Felamidin
Class: Benzopyranoids
Formula: C21H18O5
Exact mass: 350.3746
SMILES: CC(C)(OC(=O)c1ccccc1)C1Cc2cc3ccc(=O)oc3cc2O1
InChI: InChI=1S/C21H18O5/c1-21(2,26-20(23)13-6-4-3-5-7-13)18-11-15-10-14-8-9-19(22)25-16(14)12-17(15)24-18/h3-10,12,18H,11H2,1-2H3
Instrument: Agilent 6410 Triple Quadrupole LC/MS system
Instrument type: LC-ESI-QQQ
Ms type: MS2
Ion mode: POSITIVE
Precursor type: [M+H]+
m/z	relative intensity
228.3	1
228.4	3
228.5	5
228.6	10
228.7	17
228.8	28
228.9	41
229.0	52
229.1	57
229.2	56
229.3	49
229.4	37
229.5	21
229.6	7
229.7	0
350.2	0
350.3	2
350.4	5
350.5	8
350.6	13
350.7	23
350.8	40
350.9	62
351.0	83
351.1	97
351.2	99
351.3	88
351.4	63
351.5	34
351.6	9
351.7	0
