Mass spectrum: osajin; LC-ESI-QQQ; MS2; Frag=135.0V CID@25.0; [M+H]+
Name: osajin
Class: Flavonoids
Formula: C25H24O5
Exact mass: 404.467
SMILES: CC(C)=CCc1c2c(c3occ(-c4ccc(O)cc4)c(=O)c3c1O)C=CC(C)(C)O2
InChI: InChI=1S/C25H24O5/c1-14(2)5-10-17-21(27)20-22(28)19(15-6-8-16(26)9-7-15)13-29-24(20)18-11-12-25(3,4)30-23(17)18/h5-9,11-13,26-27H,10H2,1-4H3
Instrument: Agilent 6410 Triple Quadrupole LC/MS system
Instrument type: LC-ESI-QQQ
Ms type: MS2
Ion mode: POSITIVE
Precursor type: [M+H]+
m/z	relative intensity
212.4	1
212.5	2
212.6	4
212.7	6
212.8	9
212.9	12
213.0	15
213.1	17
213.2	16
213.3	13
213.4	8
213.5	3
330.6	2
330.7	3
330.8	5
330.9	8
331.0	10
331.1	11
331.2	10
331.3	8
331.4	5
331.5	2
348.2	0
348.3	1
348.4	5
348.5	10
348.6	19
348.7	31
348.8	48
348.9	68
349.0	88
349.1	99
349.2	99
349.3	85
349.4	61
349.5	31
349.6	8
349.7	0
