Mass spectrum: Glaucine; LC-ESI-QQQ; MS; [M+H]+
Name: Glaucine
Class: Alkaloids
Formula: C21H25NO4
Exact mass: 355.4377
SMILES: COc1cc2c(cc1OC)-c1c(OC)c(OC)cc3c1C(C2)N(C)CC3
InChI: InChI=1S/C21H25NO4/c1-22-7-6-12-9-18(25-4)21(26-5)20-14-11-17(24-3)16(23-2)10-13(14)8-15(22)19(12)20/h9-11,15H,6-8H2,1-5H3
Instrument: ABSciex API3200 LC/MS system
Instrument type: LC-ESI-QQQ
Ms type: MS
Ion mode: POSITIVE
Precursor type: [M+H]+
m/z	relative intensity
250.5000	33
250.6000	42
250.7000	45
250.8000	42
250.9000	40
251.0000	41
251.1000	38
251.2000	40
251.3000	36
251.4000	29
278.4000	42
278.5000	85
278.6000	97
278.7000	93
278.8000	118
278.9000	111
279.0000	113
279.1000	110
279.2000	107
279.3000	96
279.4000	68
279.5000	34
279.6000	31
279.7000	32
279.8000	24
279.9000	26
280.0000	28
280.1000	24
280.2000	24
280.7000	27
280.8000	26
282.1000	29
293.3000	44
293.4000	252
293.5000	477
293.6000	595
293.7000	632
293.8000	663
293.9000	688
294.0000	650
294.1000	653
294.2000	646
294.3000	583
294.4000	521
294.5000	332
294.6000	328
294.7000	324
294.8000	311
294.9000	336
295.0000	358
295.1000	340
295.2000	313
295.3000	283
295.4000	228
295.5000	137
295.6000	95
295.7000	89
295.8000	75
295.9000	76
296.0000	80
296.1000	76
296.2000	71
296.3000	63
296.4000	51
309.3000	73
309.4000	203
309.5000	372
309.6000	441
309.7000	460
309.8000	492
309.9000	486
310.0000	478
310.1000	450
310.2000	438
310.3000	385
310.4000	354
310.5000	193
310.6000	150
310.7000	148
310.8000	154
310.9000	124
311.0000	138
311.1000	134
311.2000	130
311.3000	121
311.4000	99
311.5000	40
311.6000	32
311.7000	23
311.9000	22
312.0000	23
312.4000	22
312.5000	28
312.6000	28
312.7000	28
312.8000	28
312.9000	30
313.0000	31
313.1000	29
313.2000	26
313.3000	21
324.3000	103
324.4000	337
324.5000	605
324.6000	697
324.7000	730
324.8000	777
324.9000	723
325.0000	742
325.1000	710
325.2000	643
325.3000	620
325.4000	533
325.5000	329
325.6000	286
325.7000	272
325.8000	249
325.9000	251
326.0000	254
326.1000	247
326.2000	236
326.3000	237
326.4000	235
326.5000	105
326.6000	60
326.7000	57
326.8000	48
326.9000	45
327.0000	44
327.1000	35
327.2000	43
327.3000	39
327.4000	31
355.3000	192
355.4000	576
355.5000	861
355.6000	956
355.7000	981
355.8000	971
355.9000	968
356.0000	970
356.1000	999
356.2000	968
356.3000	927
356.4000	866
356.5000	620
356.6000	501
356.7000	468
356.8000	466
356.9000	477
357.0000	475
357.1000	469
357.2000	470
357.3000	415
357.4000	401
357.5000	212
357.6000	136
357.7000	125
357.8000	111
357.9000	115
358.0000	107
358.1000	104
358.2000	104
358.3000	92
358.4000	80
358.5000	41
358.6000	22
367.5000	37
367.6000	57
367.7000	53
367.8000	61
367.9000	63
368.0000	66
368.1000	64
368.2000	62
368.3000	56
368.4000	41
710.7000	23
710.8000	29
710.9000	28
711.0000	32
711.1000	32
711.2000	32
711.3000	26
