Mass spectrum: Eudesmin; LC-ESI-QQQ; MS2; Frag=135.0V CID@5.0; [M+H]+
Name: Eudesmin
Class: Lignans
Formula: C22H26O6
Exact mass: 386.4489
SMILES: COc1ccc([C@H]2OC[C@@H]3[C@@H](c4ccc(OC)c(OC)c4)OC[C@H]23)cc1OC
InChI: InChI=1S/C22H26O6/c1-23-17-7-5-13(9-19(17)25-3)21-15-11-28-22(16(15)12-27-21)14-6-8-18(24-2)20(10-14)26-4/h5-10,15-16,21-22H,11-12H2,1-4H3/t15-,16-,21+,22+/m0/s1
Instrument: Agilent 6410 Triple Quadrupole LC/MS system
Instrument type: LC-ESI-QQQ
Ms type: MS2
Ion mode: POSITIVE
Precursor type: [M+H]+
m/z	relative intensity
150.4	3
150.5	4
150.6	6
150.7	9
150.8	14
150.9	18
151.0	19
151.1	19
151.2	18
151.3	16
151.4	12
151.5	6
151.6	1
176.5	1
176.6	3
176.7	5
176.8	7
176.9	8
177.0	9
177.1	10
177.2	10
177.3	8
177.4	5
177.5	1
188.4	1
188.5	2
188.6	4
188.7	6
188.8	9
188.9	13
189.0	17
189.1	18
189.2	17
189.3	13
189.4	8
189.5	4
200.7	3
200.8	4
200.9	8
201.0	12
201.1	14
201.2	12
201.3	8
201.4	3
218.7	2
218.8	4
218.9	7
219.0	10
219.1	10
219.2	8
219.3	4
219.4	2
230.6	1
230.7	3
230.8	7
230.9	11
231.0	12
231.1	10
231.2	9
231.3	7
231.4	6
231.5	3
297.5	1
297.6	3
297.7	7
297.8	13
297.9	20
298.0	26
298.1	31
298.2	31
298.3	28
298.4	20
298.5	10
298.8	4
298.9	9
299.0	13
299.1	16
299.2	15
299.3	10
299.4	4
338.7	1
338.8	3
338.9	5
339.0	8
339.1	9
339.2	9
339.3	6
339.4	3
350.5	1
350.6	4
350.7	12
350.8	22
350.9	33
351.0	41
351.1	47
351.2	51
351.3	49
351.4	37
351.5	18
351.6	2
368.3	1
368.4	4
368.5	7
368.6	10
368.7	17
368.8	33
368.9	57
369.0	83
369.1	98
369.2	99
369.3	92
369.4	78
369.5	55
369.6	26
369.7	5
386.4	2
386.5	3
386.6	5
386.7	7
386.8	10
386.9	15
387.0	19
387.1	22
387.2	22
387.3	19
387.4	13
387.5	7
387.6	2
