Mass spectrum: testolactone; LC-ESI-QQQ; MS2; Frag=135.0V CID@15.0; [M+H]+
Name: testolactone
Class: Steroids
Formula: C19H24O3
Exact mass: 300.4013
SMILES: C[C@]12CCC3C(CCC4=CC(=O)C=C[C@@]43C)C1CCC(=O)O2
InChI: InChI=1S/C19H24O3/c1-18-9-7-13(20)11-12(18)3-4-14-15(18)8-10-19(2)16(14)5-6-17(21)22-19/h7,9,11,14-16H,3-6,8,10H2,1-2H3/t14?,15?,16?,18-,19-/m0/s1
Instrument: Agilent 6410 Triple Quadrupole LC/MS system
Instrument type: LC-ESI-QQQ
Ms type: MS2
Ion mode: POSITIVE
Precursor type: [M+H]+
m/z	relative intensity
120.2	0
120.3	1
120.4	4
120.5	11
120.6	22
120.7	37
120.8	56
120.9	77
121.0	94
121.1	99
121.2	96
121.3	86
121.4	71
121.5	48
121.6	22
121.7	3
132.7	2
132.8	3
132.9	4
133.0	5
133.1	6
133.2	6
133.3	5
133.4	4
133.5	2
146.4	1
146.5	2
146.6	4
146.7	7
146.8	11
146.9	17
147.0	22
147.1	26
147.2	25
147.3	22
147.4	16
147.5	8
147.6	2
158.8	1
158.9	2
159.0	4
159.1	4
159.2	4
159.3	3
159.4	2
166.7	1
166.8	3
166.9	4
167.0	5
167.1	6
167.2	6
167.3	5
167.4	4
167.5	2
172.4	0
172.5	2
172.6	5
172.7	8
172.8	12
172.9	18
173.0	23
173.1	27
173.2	28
173.3	26
173.4	21
173.5	14
173.6	5
173.7	0
180.8	2
180.9	4
181.0	5
181.1	6
181.2	7
181.3	6
181.4	5
181.5	3
181.6	1
224.8	2
224.9	4
225.0	5
225.1	6
225.2	6
225.3	6
225.4	5
225.5	3
264.8	2
264.9	3
265.0	4
265.1	5
265.2	5
265.3	5
265.4	4
265.5	2
300.5	1
300.6	2
300.7	4
300.8	7
300.9	13
301.0	20
301.1	25
301.2	26
301.3	24
301.4	20
301.5	12
301.6	5
301.7	0
