Mass spectrum: Vidarabine phosphate; LC-ESI-QQQ; MS2; Frag=135.0V CID@10.0; [M+H]+
Name: Vidarabine phosphate
Class: Carbohydrates
Formula: C10H13N5NaO7P
Exact mass: 369.208
SMILES: Nc1ncnc2c1ncn2[C@H]1O[C@@H](COP(=O)([O-])O)[C@H](O)[C@H]1O.[Na+]
InChI: InChI=1S/C10H14N5O7P.Na/c11-8-5-9(13-2-12-8)15(3-14-5)10-7(17)6(16)4(22-10)1-21-23(18,19)20;/h2-4,6-7,10,16-17H,1H2,(H2,11,12,13)(H2,18,19,20);/q;+1/p-1/t4-,6-,7+,10-;/m0./s1
Instrument: Agilent 6410 Triple Quadrupole LC/MS system
Instrument type: LC-ESI-QQQ
Ms type: MS2
Ion mode: POSITIVE
Precursor type: [M+H]+
m/z	relative intensity
135.2	0
135.3	1
135.4	5
135.5	11
135.6	21
135.7	36
135.8	57
135.9	79
136.0	95
136.1	99
136.2	93
136.3	77
136.4	53
136.5	27
136.6	7
136.7	0
347.4	1
347.5	2
347.6	5
347.7	9
347.8	14
347.9	20
348.0	25
348.1	28
348.2	27
348.3	21
348.4	13
348.5	5
348.6	0
