Mass spectrum: Methyl galbanate; LC-ESI-QQQ; MS2; Frag=135.0V CID@15.0; [M+H]+
Name: Methyl galbanate
Class: Benzopyranoids
Formula: C25H32O5
Exact mass: 412.5308
SMILES: COC(=O)CC[C@H]1C(=C(C)C)CC[C@H](C)[C@]1(C)COc1ccc2ccc(=O)oc2c1
InChI: InChI=1S/C25H32O5/c1-16(2)20-10-6-17(3)25(4,21(20)11-13-23(26)28-5)15-29-19-9-7-18-8-12-24(27)30-22(18)14-19/h7-9,12,14,17,21H,6,10-11,13,15H2,1-5H3/t17-,21-,25-/m0/s1
Instrument: Agilent 6410 Triple Quadrupole LC/MS system
Instrument type: LC-ESI-QQQ
Ms type: MS2
Ion mode: POSITIVE
Precursor type: [M+H]+
m/z	relative intensity
94.7	2
94.8	4
94.9	6
95.0	7
95.1	8
95.2	7
95.3	6
95.4	4
95.5	2
108.5	2
108.6	3
108.7	6
108.8	10
108.9	15
109.0	19
109.1	22
109.2	21
109.3	18
109.4	14
109.5	8
109.6	2
120.7	2
120.8	4
120.9	7
121.0	8
121.1	8
121.2	8
121.3	8
121.4	7
121.5	4
121.6	1
122.7	1
122.8	3
122.9	5
123.0	7
123.1	8
123.2	8
123.3	7
123.4	5
123.5	3
134.6	1
134.7	3
134.8	5
134.9	8
135.0	10
135.1	10
135.2	9
135.3	7
135.4	5
135.5	3
148.6	1
148.7	3
148.8	5
148.9	8
149.0	10
149.1	10
149.2	10
149.3	8
149.4	6
149.5	3
162.2	2
162.3	4
162.4	6
162.5	11
162.6	20
162.7	36
162.8	59
162.9	81
163.0	95
163.1	99
163.2	95
163.3	81
163.4	58
163.5	31
163.6	8
163.7	0
166.8	2
166.9	3
167.0	4
167.1	5
167.2	5
167.3	4
167.4	3
176.7	2
176.8	4
176.9	6
177.0	9
177.1	11
177.2	12
177.3	12
177.4	11
177.5	7
177.6	3
180.6	1
180.7	3
180.8	5
180.9	8
181.0	11
181.1	12
181.2	12
181.3	10
181.4	7
181.5	4
188.5	2
188.6	3
188.7	6
188.8	9
188.9	14
189.0	19
189.1	21
189.2	19
189.3	16
189.4	10
189.5	5
189.6	1
194.5	1
194.6	2
194.7	4
194.8	8
194.9	12
195.0	16
195.1	17
195.2	17
195.3	16
195.4	13
195.5	8
195.6	3
200.8	2
200.9	3
201.0	5
201.1	6
201.2	6
201.3	6
201.4	5
201.5	3
218.7	2
218.8	4
218.9	7
219.0	10
219.1	13
219.2	13
219.3	12
219.4	9
219.5	5
219.6	2
250.7	2
250.8	4
250.9	7
251.0	10
251.1	13
251.2	14
251.3	14
251.4	12
251.5	8
251.6	4
