Mass spectrum: Conferone; LC-ESI-QQQ; MS; [M+H]+
Name: Conferone
Class: Benzopyranoids
Formula: C24H28O4
Exact mass: 380.4884
SMILES: CC1=CCC2C(C)(C)C(=O)CC[C@]2(C)[C@@H]1COc1ccc2ccc(=O)oc2c1
InChI: InChI=1S/C24H28O4/c1-15-5-9-20-23(2,3)21(25)11-12-24(20,4)18(15)14-27-17-8-6-16-7-10-22(26)28-19(16)13-17/h5-8,10,13,18,20H,9,11-12,14H2,1-4H3/t18-,20?,24-/m1/s1
Instrument: ABSciex API3200 LC/MS system
Instrument type: LC-ESI-QQQ
Ms type: MS
Ion mode: POSITIVE
Precursor type: [M+H]+
m/z	relative intensity
108.7000	21
119.0000	26
121.2000	29
121.3000	138
133.1000	36
133.3000	21
144.9000	26
145.0000	48
145.1000	31
145.2000	32
145.3000	22
145.8000	29
158.7000	26
158.8000	26
159.1000	29
159.3000	29
160.5000	24
160.6000	64
160.7000	68
160.8000	37
160.9000	60
161.0000	37
161.1000	66
161.2000	68
161.3000	31
161.4000	29
161.5000	25
162.4000	106
162.5000	182
162.6000	197
162.7000	253
162.8000	262
162.9000	229
163.0000	268
163.1000	261
163.2000	214
163.3000	197
163.4000	123
163.5000	51
163.6000	30
164.1000	22
172.8000	25
173.1000	28
197.5000	34
200.5000	43
200.6000	57
200.7000	101
200.8000	87
200.9000	78
201.0000	75
201.1000	78
201.2000	108
201.3000	67
201.4000	69
201.5000	58
201.6000	27
201.7000	30
201.8000	23
202.0000	23
202.1000	23
218.5000	64
218.6000	77
218.7000	78
218.8000	59
218.9000	53
219.0000	34
219.2000	41
219.4000	46
362.7000	23
362.9000	30
363.0000	23
363.1000	22
363.2000	25
363.3000	30
380.3000	44
380.4000	190
380.5000	586
380.6000	811
380.7000	886
380.8000	846
380.9000	929
381.0000	999
381.1000	944
381.2000	819
381.3000	702
381.4000	710
381.5000	456
381.6000	336
381.7000	324
381.8000	268
381.9000	294
382.0000	268
382.1000	253
382.2000	226
382.3000	239
382.4000	222
382.5000	69
382.6000	59
382.7000	61
382.8000	57
382.9000	38
383.0000	32
383.1000	48
383.2000	35
383.3000	32
383.4000	27
383.5000	26
397.5000	22
397.6000	44
397.7000	99
397.8000	102
397.9000	126
398.0000	100
398.1000	105
398.2000	69
398.3000	80
398.4000	109
398.5000	40
398.6000	35
398.7000	38
398.8000	24
398.9000	48
399.0000	40
399.1000	30
399.2000	40
399.3000	38
399.4000	37
399.5000	28
421.5000	62
421.6000	82
421.7000	78
421.8000	104
421.9000	101
422.0000	102
422.1000	88
422.2000	82
422.3000	82
422.4000	87
422.5000	53
422.7000	33
423.2000	21
760.5000	41
760.6000	46
760.7000	46
760.8000	54
760.9000	64
761.0000	48
761.1000	56
761.2000	41
761.3000	36
761.4000	26
761.6000	38
761.7000	21
761.8000	31
762.0000	36
762.1000	31
762.2000	26
