Mass spectrum: O-Methylcassyfiline; LC-ESI-QQQ; MS2; Frag=135.0V CID@25.0; [M+H]+
Name: O-Methylcassyfiline
Class: Alkaloids
Formula: C20H21NO5
Exact mass: 355.3941
SMILES: COc1cc2c(cc1OC)-c1c3c(c(OC)c4c1C(C2)NCC4)OCO3
InChI: InChI=1S/C20H21NO5/c1-22-14-7-10-6-13-16-11(4-5-21-13)18(24-3)20-19(25-9-26-20)17(16)12(10)8-15(14)23-2/h7-8,13,21H,4-6,9H2,1-3H3
Instrument: Agilent 6410 Triple Quadrupole LC/MS system
Instrument type: LC-ESI-QQQ
Ms type: MS2
Ion mode: POSITIVE
Precursor type: [M+H]+
m/z	relative intensity
248.8	2
248.9	4
249.0	6
249.1	7
249.2	7
249.3	6
249.6	3
249.7	5
249.8	8
249.9	13
250.0	17
250.1	20
250.2	21
250.3	19
250.4	14
250.5	8
250.8	4
250.9	6
251.0	8
251.1	8
251.2	9
251.3	9
251.4	7
251.5	3
262.5	1
262.6	2
262.7	4
262.8	6
262.9	8
263.0	10
263.1	12
263.2	13
263.3	12
263.4	9
263.5	4
265.6	3
265.7	5
265.8	9
265.9	14
266.0	18
266.1	21
266.2	21
266.3	19
266.4	14
266.5	7
266.6	2
276.7	4
276.8	6
276.9	9
277.0	11
277.1	11
277.2	11
277.3	9
277.4	7
277.8	5
277.9	8
278.0	11
278.1	13
278.2	13
278.3	11
278.4	8
278.5	4
278.8	3
278.9	5
279.0	6
279.1	7
279.2	7
279.3	6
279.4	4
280.6	3
280.7	4
280.8	8
280.9	13
281.0	18
281.1	21
281.2	22
281.3	21
281.4	17
281.5	11
281.6	4
292.6	2
292.7	3
292.8	5
292.9	8
293.0	10
293.1	12
293.2	13
293.3	12
293.4	9
293.7	3
293.8	6
293.9	9
294.0	13
294.1	16
294.2	17
294.3	14
294.4	9
294.5	4
307.5	2
307.6	3
307.7	6
307.8	11
307.9	17
308.0	23
308.1	27
308.2	28
308.3	25
308.4	20
308.6	14
308.7	21
308.8	38
308.9	60
309.0	82
309.1	96
309.2	99
309.3	91
309.4	72
309.5	43
309.6	15
309.7	0
323.5	2
323.6	3
323.7	5
323.8	9
323.9	12
324.0	16
324.1	19
324.2	19
324.3	15
324.4	9
324.5	3
338.4	1
338.5	3
338.6	5
338.7	9
338.8	15
338.9	24
339.0	33
339.1	40
339.2	43
339.3	42
339.4	34
339.5	20
339.6	7
339.7	0
