Mass spectrum: Bilirubin Ixalpha; LC-ESI-QQQ; MS2; Frag=135.0V CID@15.0; [M+H]+
Name: Haematoidin
Name: Hematoidin
Name: Hemetoidin
Name: Principal bile pigment
Name: Bilirubin Ixalpha
Class: Polypyrroles
Formula: C33H36N4O6
Exact mass: 584.6781
SMILES: C=CC1=C(C)/C(=C/c2[nH]c(Cc3[nH]c(/C=C4\N=C(O)C(C)=C4C=C)c(C)c3CCC(=O)O)c(CCC(=O)O)c2C)N=C1O
InChI: InChI=1S/C33H36N4O6/c1-7-20-19(6)32(42)37-27(20)14-25-18(5)23(10-12-31(40)41)29(35-25)15-28-22(9-11-30(38)39)17(4)24(34-28)13-26-16(3)21(8-2)33(43)36-26/h7-8,13-14,34-35H,1-2,9-12,15H2,3-6H3,(H,36,43)(H,37,42)(H,38,39)(H,40,41)/b26-13-,27-14-
Instrument: Agilent 6410 Triple Quadrupole LC/MS system
Instrument type: LC-ESI-QQQ
Ms type: MS2
Ion mode: POSITIVE
Precursor type: [M+H]+
m/z	relative intensity
298.7	8
298.8	8
298.9	15
299.0	39
299.1	73
299.2	95
299.3	84
299.4	49
299.5	15
299.6	0
584.5	5
584.6	8
584.7	11
584.8	14
584.9	14
585.0	11
585.1	8
