Mass spectrum: Edpetinosine; LC-ESI-QQQ; MS2; Frag=135.0V CID@25.0; [M+H]+
Name: Edpetinosine
Class: Alkaloids
Formula: C33H55NO7
Exact mass: 577.8088
SMILES: C[C@H]1CC[C@H]2[C@H](C)C3CC[C@H]4[C@@H]5C[C@@H](O)[C@H]6C[C@@H](O[C@@H]7O[C@H](CO)[C@@H](O)[C@H](O)[C@H]7O)CC[C@]6(C)[C@H]5C[C@H]4[C@@H]3CN2C1
InChI: InChI=1S/C33H55NO7/c1-16-4-7-26-17(2)19-5-6-20-21(23(19)14-34(26)13-16)11-24-22(20)12-27(36)25-10-18(8-9-33(24,25)3)40-32-31(39)30(38)29(37)28(15-35)41-32/h16-32,35-39H,4-15H2,1-3H3/t16-,17+,18-,19?,20+,21+,22-,23+,24-,25+,26-,27+,28+,29+,30-,31+,32+,33+/m0/s1
Instrument: Agilent 6410 Triple Quadrupole LC/MS system
Instrument type: LC-ESI-QQQ
Ms type: MS2
Ion mode: POSITIVE
Precursor type: [M+H]+
m/z	relative intensity
577.4	1
577.5	2
577.6	4
577.7	8
577.8	13
577.9	22
578.0	37
578.1	56
578.2	76
578.3	91
578.4	99
578.5	97
578.6	84
578.7	59
578.8	31
578.9	9
579.0	0
