Mass spectrum: Cryptotanshinone; LC-ESI-QQQ; MS2; Frag=135.0V CID@10.0; [M+H]+
Name: Cryptotanshinone
Class: Polycyclic aromatic natural products
Formula: C19H20O3
Exact mass: 296.3695
SMILES: C[C@H]1COC2=C1C(=O)C(=O)c1c2ccc2c1CCCC2(C)C
InChI: InChI=1S/C19H20O3/c1-10-9-22-18-12-6-7-13-11(5-4-8-19(13,2)3)15(12)17(21)16(20)14(10)18/h6-7,10H,4-5,8-9H2,1-3H3/t10-/m0/s1
Instrument: Agilent 6410 Triple Quadrupole LC/MS system
Instrument type: LC-ESI-QQQ
Ms type: MS2
Ion mode: POSITIVE
Precursor type: [M+H]+
m/z	relative intensity
296.3	0
296.4	2
296.5	6
296.6	12
296.7	22
296.8	38
296.9	60
297.0	82
297.1	96
297.2	99
297.3	94
297.4	79
297.5	54
297.6	25
297.7	3
