Mass spectrum: 2-Deoxycrustecdysone; LC-ESI-QQQ; MS2; Frag=135.0V CID@10.0; [M+H]+
Name: 2-Deoxycrustecdysone
Class: Steroids
Formula: C27H44O6
Exact mass: 464.6481
SMILES: CC(C)(O)CC[C@@H](O)[C@](C)(O)C1CC[C@@]2(O)C3=CC(=O)[C@@H]4C[C@@H](O)CC[C@]4(C)C3CC[C@]12C
InChI: InChI=1S/C27H44O6/c1-23(2,31)10-9-22(30)26(5,32)21-8-13-27(33)18-15-20(29)19-14-16(28)6-11-24(19,3)17(18)7-12-25(21,27)4/h15-17,19,21-22,28,30-33H,6-14H2,1-5H3/t16-,17?,19-,21?,22+,24+,25+,26+,27+/m0/s1
Instrument: Agilent 6410 Triple Quadrupole LC/MS system
Instrument type: LC-ESI-QQQ
Ms type: MS2
Ion mode: POSITIVE
Precursor type: [M+H]+
m/z	relative intensity
286.7	1
286.8	3
286.9	6
287.0	8
287.1	9
287.2	9
287.3	8
287.4	6
287.5	3
354.4	1
354.5	3
354.6	6
354.7	11
354.8	20
354.9	36
355.0	58
355.1	81
355.2	96
355.3	99
355.4	87
355.5	61
355.6	31
355.7	7
355.8	0
410.7	1
410.8	3
410.9	7
411.0	12
411.1	16
411.2	19
411.3	19
411.4	18
411.5	14
411.6	9
411.7	3
428.5	3
428.6	4
428.7	6
428.8	11
428.9	23
429.0	42
429.1	63
429.2	78
429.3	83
429.4	78
429.5	63
429.6	41
429.7	19
429.8	3
446.6	3
446.7	3
446.8	5
446.9	8
447.0	13
447.1	18
447.2	21
447.3	22
447.4	20
447.5	15
447.6	9
447.7	2
464.7	2
464.8	3
464.9	6
465.0	10
465.1	14
465.2	16
465.3	18
465.4	17
465.5	14
465.6	8
465.7	3
