Mass spectrum: osthol; LC-ESI-QQQ; MS2; Frag=135.0V CID@25.0; [M+H]+
Name: osthol
Class: Benzopyranoids
Formula: C15H16O3
Exact mass: 244.293
SMILES: COc1ccc2ccc(=O)oc2c1CC=C(C)C
InChI: InChI=1S/C15H16O3/c1-10(2)4-7-12-13(17-3)8-5-11-6-9-14(16)18-15(11)12/h4-6,8-9H,7H2,1-3H3
Instrument: Agilent 6410 Triple Quadrupole LC/MS system
Instrument type: LC-ESI-QQQ
Ms type: MS2
Ion mode: POSITIVE
Precursor type: [M+H]+
m/z	relative intensity
102.4	1
102.5	2
102.6	5
102.7	8
102.8	12
102.9	15
103.0	17
103.1	18
103.2	16
103.3	14
103.4	10
103.5	5
103.6	1
130.2	0
130.3	2
130.4	7
130.5	15
130.6	29
130.7	46
130.8	66
130.9	84
131.0	96
131.1	99
131.2	94
131.3	79
131.4	56
131.5	30
131.6	8
131.7	0
188.4	1
188.5	3
188.6	5
188.7	9
188.8	13
188.9	18
189.0	22
189.1	24
189.2	23
189.3	19
189.4	14
189.5	7
189.6	1
