Mass spectrum: Hippeastrine; LC-ESI-QQQ; MS; [M+H]+
Name: Hippeastrine
Class: Alkaloids
Formula: C17H17NO5
Exact mass: 315.3287
SMILES: CN1CCC2=C[C@@H](O)[C@@H]3OC(=O)c4cc5c(cc4C3[C@H]21)OCO5
InChI: InChI=1S/C17H17NO5/c1-18-3-2-8-4-11(19)16-14(15(8)18)9-5-12-13(22-7-21-12)6-10(9)17(20)23-16/h4-6,11,14-16,19H,2-3,7H2,1H3/t11-,14?,15+,16+/m1/s1
Instrument: ABSciex API3200 LC/MS system
Instrument type: LC-ESI-QQQ
Ms type: MS
Ion mode: POSITIVE
Precursor type: [M+H]+
m/z	relative intensity
113.4000	31
113.5000	128
113.6000	97
113.7000	35
113.8000	26
191.3000	23
220.7000	47
220.8000	316
220.9000	28
222.8000	91
225.4000	61
238.5000	21
238.7000	31
239.0000	27
239.1000	25
239.2000	22
297.7000	22
315.4000	74
315.5000	229
315.6000	452
315.7000	558
315.8000	703
315.9000	581
316.0000	567
316.1000	469
316.2000	487
316.3000	999
316.4000	582
316.5000	148
316.6000	101
316.7000	83
316.8000	71
316.9000	96
317.0000	120
317.1000	102
317.2000	120
317.3000	59
317.4000	51
317.9000	27
