Mass spectrum: Laevopimaric acid; LC-ESI-QQQ; MS2; Frag=135.0V CID@10.0; [M+H]+
Name: Laevopimaric acid
Class: Terpenoids
Formula: C20H30O2
Exact mass: 302.4609
SMILES: CC(C)C1=CCC2C(=C1)CCC1[C@](C)(C(=O)O)CCC[C@]21C
InChI: InChI=1S/C20H30O2/c1-13(2)14-6-8-16-15(12-14)7-9-17-19(16,3)10-5-11-20(17,4)18(21)22/h6,12-13,16-17H,5,7-11H2,1-4H3,(H,21,22)/t16?,17?,19-,20-/m1/s1
Instrument: Agilent 6410 Triple Quadrupole LC/MS system
Instrument type: LC-ESI-QQQ
Ms type: MS2
Ion mode: POSITIVE
Precursor type: [M+H]+
m/z	relative intensity
108.5	2
108.6	3
108.7	11
108.8	31
108.9	55
109.0	67
109.1	56
109.2	29
109.3	7
122.3	4
122.4	8
122.5	15
122.6	24
122.7	28
122.8	26
122.9	21
123.0	21
123.1	25
123.2	25
123.3	18
123.4	8
138.4	3
138.5	6
138.6	11
138.7	14
138.8	14
138.9	10
139.0	6
148.4	3
148.5	5
148.6	11
148.7	22
148.8	31
148.9	31
149.0	21
149.1	9
256.5	5
256.6	7
256.7	11
256.8	19
256.9	28
257.0	31
257.1	23
257.2	10
285.0	4
285.1	8
285.2	11
285.3	12
285.4	9
302.5	1
302.6	3
302.7	17
302.8	48
302.9	82
303.0	96
303.1	83
303.2	61
303.3	48
303.4	42
303.5	32
303.6	18
303.7	7
