Mass spectrum: Spirosol-5-en-3-ol; LC-ESI-QQQ; MS; [M+H]+
Name: Spirosol-5-en-3-ol
Class: Alkaloids
Formula: C27H43NO2
Exact mass: 413.6493
SMILES: CC1CCC2(NC1)OC1C[C@H]3C4CC=C5CC(O)CC[C@]5(C)[C@H]4CC[C@]3(C)[C@H]1[C@@H]2C
InChI: InChI=1S/C27H43NO2/c1-16-7-12-27(28-15-16)17(2)24-23(30-27)14-22-20-6-5-18-13-19(29)8-10-25(18,3)21(20)9-11-26(22,24)4/h5,16-17,19-24,28-29H,6-15H2,1-4H3/t16?,17-,19?,20?,21-,22-,23?,24-,25-,26-,27?/m0/s1
Instrument: ABSciex API3200 LC/MS system
Instrument type: LC-ESI-QQQ
Ms type: MS
Ion mode: POSITIVE
Precursor type: [M+H]+
m/z	relative intensity
118.6000	22
118.7000	27
118.8000	29
118.9000	22
119.0000	21
142.0000	61
395.9000	27
396.0000	25
396.1000	27
396.2000	27
396.3000	23
413.4000	33
413.5000	214
413.6000	554
413.7000	837
413.8000	973
413.9000	981
414.0000	995
414.1000	999
414.2000	966
414.3000	937
414.4000	922
414.5000	893
414.6000	693
414.7000	530
414.8000	551
414.9000	571
415.0000	663
415.1000	577
415.2000	541
415.3000	529
415.4000	504
415.5000	468
415.6000	301
415.7000	168
415.8000	155
415.9000	165
416.0000	149
416.1000	162
416.2000	149
416.3000	147
416.4000	130
416.5000	120
416.6000	71
416.7000	38
