Mass spectrum: Austricin; LC-ESI-QQQ; MS2; Frag=135.0V CID@5.0; [M+H]+
Name: Austricin
Class: Terpenoids
Formula: C15H18O4
Exact mass: 262.3083
SMILES: CC1=CC(=O)C2=C(C)C[C@H](O)C3[C@H](C)C(=O)O[C@@H]3C12
InChI: InChI=1S/C15H18O4/c1-6-4-10(17)13-8(3)15(18)19-14(13)12-7(2)5-9(16)11(6)12/h5,8,10,12-14,17H,4H2,1-3H3/t8-,10-,12?,13?,14+/m0/s1
Instrument: Agilent 6410 Triple Quadrupole LC/MS system
Instrument type: LC-ESI-QQQ
Ms type: MS2
Ion mode: POSITIVE
Precursor type: [M+H]+
m/z	relative intensity
262.2	0
262.3	2
262.4	4
262.5	8
262.6	14
262.7	24
262.8	41
262.9	64
263.0	86
263.1	99
263.2	98
263.3	83
263.4	57
263.5	30
263.6	9
263.7	0
