Mass spectrum: 2'-Hydroxy-2,4,4'-trimethoxychalcone; LC-ESI-QQQ; MS2; Frag=135.0V CID@10.0; [M+H]+
Name: 2'-Hydroxy-2,4,4'-trimethoxychalcone
Class: Flavonoids
Formula: C18H18O5
Exact mass: 314.3412
SMILES: COc1ccc(C(=O)/C=C/c2ccc(OC)cc2OC)c(O)c1
InChI: InChI=1S/C18H18O5/c1-21-13-7-8-15(17(20)10-13)16(19)9-5-12-4-6-14(22-2)11-18(12)23-3/h4-11,20H,1-3H3/b9-5+
Instrument: Agilent 6410 Triple Quadrupole LC/MS system
Instrument type: LC-ESI-QQQ
Ms type: MS2
Ion mode: POSITIVE
Precursor type: [M+H]+
m/z	relative intensity
150.3	0
150.4	1
150.5	4
150.6	9
150.7	17
150.8	25
150.9	34
151.0	40
151.1	41
151.2	38
151.3	30
151.4	18
151.5	7
151.6	0
190.3	0
190.4	3
190.5	9
190.6	18
190.7	32
190.8	51
190.9	72
191.0	90
191.1	99
191.2	96
191.3	82
191.4	57
191.5	29
191.6	7
191.7	0
272.6	1
272.7	3
272.8	4
272.9	6
273.0	8
273.1	9
273.2	10
273.3	9
273.4	7
273.5	4
273.6	1
314.3	0
314.4	2
314.5	6
314.6	12
314.7	21
314.8	38
314.9	59
315.0	81
315.1	95
315.2	99
315.3	90
315.4	68
315.5	38
315.6	12
315.7	0
