Mass spectrum: Foliosidine; LC-ESI-QQQ; MS; [M+H]+
Name: Foliosidine
Class: Alkaloids
Formula: C16H21NO5
Exact mass: 307.3495
SMILES: COc1cc(=O)n(C)c2c(OCC(O)C(C)(C)O)cccc12
InChI: InChI=1S/C16H21NO5/c1-16(2,20)13(18)9-22-11-7-5-6-10-12(21-4)8-14(19)17(3)15(10)11/h5-8,13,18,20H,9H2,1-4H3
Instrument: ABSciex API3200 LC/MS system
Instrument type: LC-ESI-QQQ
Ms type: MS
Ion mode: POSITIVE
Precursor type: [M+H]+
m/z	relative intensity
118.6000	30
118.7000	52
118.8000	66
118.9000	74
119.0000	74
119.1000	50
119.2000	42
119.3000	28
141.5000	29
141.6000	44
141.7000	52
141.8000	67
141.9000	81
142.0000	64
142.1000	73
142.2000	55
142.3000	68
142.4000	27
173.1000	21
173.9000	25
174.1000	27
189.4000	29
189.9000	21
190.7000	24
190.8000	33
190.9000	27
191.0000	35
191.2000	25
191.4000	29
191.5000	30
191.6000	38
191.7000	35
191.8000	47
191.9000	38
192.0000	38
192.1000	32
192.2000	40
192.3000	22
192.4000	24
203.4000	40
203.5000	43
203.6000	111
203.7000	55
203.8000	57
203.9000	79
204.0000	70
204.1000	58
204.2000	57
204.3000	68
204.4000	132
204.5000	126
204.6000	165
204.7000	200
204.8000	186
204.9000	207
205.0000	209
205.1000	205
205.2000	219
205.3000	164
205.4000	181
205.5000	132
205.6000	138
205.7000	139
205.8000	159
205.9000	161
206.0000	171
206.1000	169
206.2000	198
206.3000	181
206.4000	144
206.5000	57
206.6000	37
206.7000	41
206.8000	36
206.9000	51
207.0000	35
207.1000	40
207.2000	46
207.3000	34
207.4000	46
217.4000	52
217.5000	70
217.6000	113
217.7000	89
217.8000	107
217.9000	97
218.0000	91
218.1000	94
218.2000	106
218.3000	82
218.4000	78
218.5000	29
218.6000	37
219.1000	49
229.4000	27
229.5000	57
229.6000	60
229.7000	90
229.8000	78
229.9000	66
230.0000	70
230.1000	78
230.2000	73
230.3000	62
230.4000	57
230.5000	23
243.7000	24
259.6000	36
271.5000	37
271.6000	44
271.7000	51
271.8000	45
271.9000	46
272.0000	46
272.1000	47
272.2000	44
272.3000	38
272.4000	39
289.3000	101
289.4000	183
289.5000	430
289.6000	513
289.7000	580
289.8000	607
289.9000	605
290.0000	561
290.1000	561
290.2000	547
290.3000	491
290.4000	497
290.5000	287
290.6000	215
290.7000	214
290.8000	173
290.9000	182
291.0000	172
291.1000	200
291.2000	180
291.3000	170
291.4000	139
291.5000	87
291.6000	52
291.7000	39
291.8000	29
291.9000	30
292.0000	29
292.1000	32
292.2000	28
292.3000	23
307.3000	38
307.4000	949
307.5000	961
307.6000	880
307.7000	734
307.8000	869
307.9000	941
308.0000	961
308.1000	998
308.2000	959
308.3000	999
308.4000	972
308.5000	665
308.6000	574
308.7000	559
308.8000	529
308.9000	589
309.0000	669
309.1000	574
309.2000	555
309.3000	514
309.4000	491
309.5000	255
309.6000	184
309.7000	144
309.8000	137
309.9000	149
310.0000	159
310.1000	156
310.2000	131
310.3000	119
310.4000	92
310.5000	50
310.6000	29
310.9000	25
614.4000	38
614.5000	77
614.6000	177
614.7000	196
614.8000	199
614.9000	206
615.0000	176
615.1000	178
615.2000	161
615.3000	140
615.4000	114
615.5000	65
615.6000	73
615.7000	89
615.8000	96
615.9000	101
616.0000	107
616.1000	114
616.2000	113
616.3000	102
616.4000	76
616.5000	32
616.6000	37
616.8000	24
616.9000	26
617.0000	23
617.1000	21
