Mass spectrum: Andrographolide; LC-ESI-QQQ; MS2; Frag=135.0V CID@25.0; [M+H]+
Name: Andrographolide
Class: Terpenoids
Formula: C20H30O5
Exact mass: 350.4591
SMILES: C=C1CCC2C(C)(CO)C(O)CC[C@]2(C)C1C/C=C1/C(=O)OCC1O
InChI: InChI=1S/C20H30O5/c1-12-4-7-16-19(2,9-8-17(23)20(16,3)11-21)14(12)6-5-13-15(22)10-25-18(13)24/h5,14-17,21-23H,1,4,6-11H2,2-3H3/b13-5+/t14?,15?,16?,17?,19-,20?/m1/s1
Instrument: Agilent 6410 Triple Quadrupole LC/MS system
Instrument type: LC-ESI-QQQ
Ms type: MS2
Ion mode: POSITIVE
Precursor type: [M+H]+
m/z	relative intensity
54.7	4
54.8	5
54.9	7
55.0	12
55.1	16
55.2	16
55.3	12
55.4	6
76.6	3
76.7	5
76.8	7
76.9	7
77.0	5
78.4	3
78.5	5
78.6	10
78.7	18
78.8	26
78.9	30
79.0	30
79.1	29
79.2	26
79.3	19
79.4	10
79.5	4
80.3	1
80.4	2
80.5	10
80.6	24
80.7	36
80.8	37
80.9	31
81.0	26
81.1	26
81.2	25
81.3	18
81.4	10
81.5	5
82.5	2
82.6	4
82.7	8
82.8	14
82.9	19
83.0	21
83.1	19
83.2	13
83.3	7
90.4	3
90.5	5
90.6	10
90.7	15
90.8	17
90.9	16
91.0	16
91.1	17
91.2	17
91.3	13
91.4	8
91.5	5
92.2	5
92.3	6
92.4	8
92.5	9
92.6	8
92.7	10
92.8	19
92.9	31
93.0	38
93.1	36
93.2	27
93.3	17
93.4	10
93.5	6
94.4	3
94.5	4
94.6	9
94.7	16
94.8	24
94.9	29
95.0	32
95.1	36
95.2	38
95.3	33
95.4	20
95.5	8
96.5	2
96.6	5
96.7	12
96.8	20
96.9	25
97.0	24
97.1	19
97.2	12
97.3	6
99.0	3
99.1	5
99.2	7
99.3	8
99.4	7
99.5	5
104.2	3
104.3	6
104.4	9
104.5	11
104.6	10
104.7	9
104.8	12
104.9	23
105.0	41
105.1	61
105.2	72
105.3	67
105.4	44
105.5	18
105.6	2
106.4	5
106.5	6
106.6	11
106.7	21
106.8	36
106.9	48
107.0	48
107.1	36
107.2	20
107.3	10
107.4	7
107.5	6
108.6	2
108.7	6
108.8	14
108.9	25
109.0	31
109.1	28
109.2	19
109.3	11
109.4	6
110.6	3
110.7	4
110.8	8
110.9	15
111.0	19
111.1	21
111.2	19
111.3	16
111.4	12
111.5	6
116.7	6
116.8	6
116.9	7
117.0	11
117.1	16
117.2	20
117.3	17
117.4	11
117.5	4
118.5	2
118.6	4
118.7	20
118.8	48
118.9	71
119.0	74
119.1	61
119.2	48
119.3	43
119.4	39
119.5	29
119.6	14
119.7	3
120.4	6
120.5	7
120.6	8
120.7	9
120.8	13
120.9	23
121.0	35
121.1	43
121.2	42
121.3	34
121.4	26
121.5	18
121.6	10
121.7	4
122.6	3
122.7	5
122.8	7
122.9	8
123.0	8
123.1	8
123.2	9
123.3	8
123.4	7
123.5	5
130.4	6
130.5	7
130.6	8
130.7	10
130.8	16
130.9	26
131.0	39
131.1	47
131.2	43
131.3	28
131.4	12
131.5	2
132.3	4
132.4	7
132.5	12
132.6	17
132.7	15
132.8	11
132.9	11
133.0	22
133.1	36
133.2	43
133.3	39
133.4	29
133.5	16
133.6	6
134.7	4
134.8	7
134.9	13
135.0	21
135.1	28
135.2	29
135.3	23
135.4	13
135.5	5
142.1	4
142.2	5
142.3	9
142.4	12
142.5	12
142.8	4
142.9	13
143.0	26
143.1	33
143.2	28
143.3	15
143.4	5
144.1	1
144.2	5
144.3	16
144.4	26
144.5	29
144.6	24
144.7	24
144.8	35
144.9	56
145.0	81
145.1	98
145.2	95
145.3	68
145.4	33
145.5	8
145.6	1
146.2	2
146.3	4
146.4	10
146.5	16
146.6	17
146.7	14
146.8	15
146.9	22
147.0	34
147.1	42
147.2	41
147.3	33
147.4	20
147.5	8
147.6	2
148.7	4
148.8	6
148.9	9
149.0	11
149.1	12
149.2	13
149.3	13
149.4	11
149.5	8
149.6	4
150.6	1
150.7	3
150.8	9
150.9	18
151.0	26
151.1	27
151.2	22
151.3	18
151.4	14
151.5	9
151.6	5
154.6	1
154.7	5
154.8	13
154.9	23
155.0	28
155.1	23
155.2	13
155.3	5
156.6	3
156.7	4
156.8	9
156.9	20
157.0	36
157.1	47
157.2	48
157.3	40
157.4	29
157.5	19
157.6	13
157.7	9
157.8	7
157.9	5
158.3	3
158.4	5
158.5	9
158.6	12
158.7	15
158.8	17
158.9	21
159.0	27
159.1	30
159.2	30
159.3	25
159.4	17
159.5	9
159.6	3
160.7	1
160.8	5
160.9	16
161.0	29
161.1	35
161.2	27
161.3	13
161.4	3
163.0	4
163.1	6
163.2	9
163.3	11
163.4	11
163.5	7
163.6	4
166.5	3
166.6	5
166.7	9
166.8	11
166.9	11
167.0	10
167.1	10
167.2	10
167.3	8
167.4	5
168.7	4
168.8	6
168.9	9
169.0	10
169.1	10
169.2	13
169.3	19
169.4	20
169.5	16
169.6	8
170.5	1
170.6	2
170.7	9
170.8	22
170.9	36
171.0	39
171.1	29
171.2	14
171.3	5
172.5	3
172.6	5
172.7	12
172.8	21
172.9	26
173.0	25
173.1	23
173.2	22
173.3	23
173.4	19
173.5	11
173.6	4
173.9	2
174.0	4
174.1	10
174.2	16
174.3	16
174.6	7
174.7	17
174.8	29
174.9	37
175.0	38
175.1	36
175.2	32
175.3	29
175.4	25
175.5	18
175.6	10
175.7	4
176.5	4
176.6	7
176.7	10
176.8	10
176.9	7
180.9	4
181.0	6
181.1	9
181.2	9
181.3	7
182.9	3
183.0	5
183.1	9
183.2	15
183.3	20
183.4	19
183.5	12
183.6	6
184.6	3
184.7	4
184.8	8
184.9	12
185.0	15
185.1	14
185.2	10
185.3	6
186.4	2
186.5	3
186.6	9
186.7	18
186.8	26
186.9	26
187.0	20
187.1	12
187.2	7
187.3	5
187.9	4
188.0	7
188.1	9
188.2	10
188.3	8
188.4	5
188.7	4
188.8	5
188.9	9
189.0	15
189.1	18
189.2	16
189.3	10
189.4	5
192.7	4
192.8	6
192.9	7
193.0	7
193.1	6
194.9	2
195.0	5
195.1	11
195.2	15
195.3	14
195.4	9
196.7	3
196.8	5
196.9	8
197.0	10
197.1	9
197.2	6
198.9	3
199.0	5
199.1	11
199.2	18
199.3	19
199.4	14
199.5	6
200.7	2
200.8	4
200.9	9
201.0	13
201.1	14
201.2	10
201.3	6
203.1	4
203.2	6
203.3	8
203.4	9
203.5	7
203.6	4
211.0	4
211.1	6
211.2	9
211.3	13
211.4	14
211.5	12
211.6	7
212.8	3
212.9	6
213.0	10
213.1	12
213.2	13
213.3	13
213.4	12
213.5	10
213.6	7
222.8	4
222.9	5
223.0	8
223.1	12
223.2	13
223.3	9
223.4	5
228.6	3
228.7	5
228.8	7
228.9	9
229.0	9
256.7	3
256.8	6
256.9	8
257.0	9
257.1	7
257.2	4
350.6	0
350.7	5
350.8	18
350.9	34
351.0	46
351.1	55
351.2	64
351.3	67
351.4	57
351.5	35
351.6	14
351.7	2
