Mass spectrum: Emetine; LC-ESI-QQQ; MS; [M+H]+
Name: 6',7',10,11-Tetramethoxyemetan
Name: Cephaeline methyl ether
Name: Methyl cephaeline
Name: Emetine
Class: Alkaloids
Formula: C29H40N2O4
Exact mass: 480.6531
SMILES: CC[C@H]1CN2CCc3cc(OC)c(OC)cc3[C@@H]2C[C@@H]1C[C@H]1NCCc2cc(OC)c(OC)cc21
InChI: InChI=1S/C29H40N2O4/c1-6-18-17-31-10-8-20-14-27(33-3)29(35-5)16-23(20)25(31)12-21(18)11-24-22-15-28(34-4)26(32-2)13-19(22)7-9-30-24/h13-16,18,21,24-25,30H,6-12,17H2,1-5H3/t18-,21-,24+,25-/m0/s1
Instrument: ABSciex API3200 LC/MS system
Instrument type: LC-ESI-QQQ
Ms type: MS
Ion mode: POSITIVE
Precursor type: [M+H]+
m/z	relative intensity
105.0000	21
105.1000	27
109.5000	44
109.6000	103
109.7000	133
109.8000	125
109.9000	123
110.0000	118
110.1000	117
110.2000	115
110.3000	108
110.4000	90
110.5000	56
118.7000	27
120.7000	21
133.0000	23
133.1000	23
134.5000	21
134.8000	23
134.9000	21
149.5000	54
149.6000	75
149.7000	88
149.8000	89
149.9000	94
150.0000	94
150.1000	93
150.2000	77
150.3000	70
150.4000	57
150.5000	28
150.7000	21
150.8000	21
150.9000	24
151.0000	23
151.2000	21
159.0000	21
159.7000	22
159.9000	21
164.4000	58
164.5000	218
164.6000	338
164.7000	417
164.8000	450
164.9000	383
165.0000	366
165.1000	369
165.2000	342
165.3000	293
165.4000	312
165.5000	149
165.6000	73
165.7000	62
165.8000	49
165.9000	53
166.0000	41
166.1000	44
166.2000	42
166.3000	34
166.4000	36
174.4000	22
174.5000	35
174.6000	45
174.7000	47
174.8000	44
174.9000	47
175.0000	49
175.1000	43
175.2000	47
175.3000	33
175.4000	38
175.5000	53
175.6000	77
175.7000	92
175.8000	101
175.9000	115
176.0000	87
176.1000	77
176.2000	78
176.3000	61
176.4000	50
176.5000	31
176.6000	31
176.7000	36
176.8000	32
176.9000	47
177.0000	30
177.1000	29
177.2000	29
177.3000	22
189.4000	40
189.5000	81
189.6000	116
189.7000	129
189.8000	126
189.9000	132
190.0000	131
190.1000	120
190.2000	126
190.3000	105
190.4000	126
190.5000	55
190.6000	35
190.7000	39
190.8000	46
190.9000	49
191.0000	44
191.1000	49
191.2000	41
191.3000	41
191.4000	45
191.5000	84
191.6000	106
191.7000	133
191.8000	148
191.9000	153
192.0000	123
192.1000	128
192.2000	117
192.3000	101
192.4000	92
192.5000	45
192.6000	22
201.7000	21
201.8000	22
201.9000	23
202.0000	23
202.1000	23
202.3000	22
204.8000	22
204.9000	30
205.8000	24
218.0000	23
224.1000	23
224.2000	24
224.3000	22
224.4000	129
224.5000	247
224.6000	297
224.7000	341
224.8000	350
224.9000	457
225.0000	423
225.1000	499
225.2000	468
225.3000	393
225.4000	445
225.5000	281
225.6000	165
225.7000	144
225.8000	139
225.9000	133
226.0000	87
226.1000	42
226.2000	35
226.3000	34
226.4000	34
226.5000	23
230.3000	21
231.0000	21
231.1000	30
231.2000	27
231.3000	31
231.4000	33
231.5000	29
231.6000	33
231.7000	43
231.8000	37
231.9000	246
232.0000	595
232.1000	809
232.2000	772
232.3000	822
232.4000	857
232.5000	943
232.6000	999
232.7000	995
232.8000	920
232.9000	837
233.0000	704
233.1000	445
233.2000	407
233.3000	382
233.4000	343
233.5000	242
233.6000	109
233.7000	77
233.8000	71
233.9000	66
234.0000	42
239.5000	22
239.6000	42
239.7000	38
239.8000	40
239.9000	41
240.0000	44
240.1000	46
240.2000	63
240.3000	46
240.4000	161
240.5000	487
240.6000	676
240.7000	689
240.8000	697
240.9000	699
241.0000	735
241.1000	806
241.2000	884
241.3000	806
241.4000	735
241.5000	608
241.6000	406
241.7000	371
241.8000	325
241.9000	314
242.0000	198
242.1000	114
242.2000	96
242.3000	73
242.4000	60
242.5000	38
245.5000	55
245.6000	85
245.7000	89
245.8000	130
245.9000	109
246.0000	92
246.1000	87
246.2000	82
246.3000	83
246.4000	75
246.5000	49
261.0000	38
261.1000	51
261.2000	57
261.3000	60
261.4000	72
261.5000	86
261.6000	84
261.7000	84
261.8000	77
261.9000	74
262.0000	55
262.1000	38
262.2000	35
262.3000	26
262.4000	25
273.5000	44
273.6000	45
273.7000	56
273.8000	69
273.9000	76
274.0000	70
274.1000	71
274.2000	75
274.3000	63
274.4000	55
274.5000	46
274.6000	22
274.7000	23
275.0000	21
282.3000	29
282.4000	33
282.5000	26
284.6000	31
284.7000	39
284.8000	48
284.9000	41
285.0000	46
285.1000	45
285.2000	34
285.3000	36
285.4000	28
299.7000	21
299.8000	23
299.9000	24
300.0000	24
300.1000	25
300.2000	23
300.3000	21
317.3000	21
449.9000	21
450.1000	26
451.5000	36
451.6000	96
451.7000	133
451.8000	160
451.9000	168
452.0000	181
452.1000	167
452.2000	167
452.3000	154
452.4000	136
452.5000	73
452.6000	54
452.7000	56
452.8000	62
452.9000	56
453.0000	58
453.1000	58
453.2000	56
453.3000	56
453.4000	46
453.5000	25
478.8000	22
478.9000	28
479.0000	41
479.1000	32
479.2000	22
479.4000	23
480.4000	21
480.5000	59
480.6000	161
480.7000	284
480.8000	357
480.9000	377
481.0000	408
481.1000	392
481.2000	364
481.3000	351
481.4000	309
481.5000	178
481.6000	113
481.7000	130
481.8000	127
481.9000	162
482.0000	142
482.1000	152
482.2000	140
482.3000	141
482.4000	115
482.5000	72
482.6000	34
482.7000	31
482.8000	34
482.9000	27
483.0000	29
483.1000	26
483.2000	27
483.3000	28
483.4000	24
