Mass spectrum: Eudesmin; LC-ESI-QQQ; MS2; Frag=135.0V CID@10.0; [M+H]+
Name: Eudesmin
Class: Lignans
Formula: C22H26O6
Exact mass: 386.4489
SMILES: COc1ccc([C@H]2OC[C@@H]3[C@@H](c4ccc(OC)c(OC)c4)OC[C@H]23)cc1OC
InChI: InChI=1S/C22H26O6/c1-23-17-7-5-13(9-19(17)25-3)21-15-11-28-22(16(15)12-27-21)14-6-8-18(24-2)20(10-14)26-4/h5-10,15-16,21-22H,11-12H2,1-4H3/t15-,16-,21+,22+/m0/s1
Instrument: Agilent 6410 Triple Quadrupole LC/MS system
Instrument type: LC-ESI-QQQ
Ms type: MS2
Ion mode: POSITIVE
Precursor type: [M+H]+
m/z	relative intensity
150.2	0
150.3	2
150.4	7
150.5	11
150.6	18
150.7	28
150.8	43
150.9	59
151.0	69
151.1	69
151.2	60
151.3	46
151.4	29
151.5	13
151.6	3
164.5	2
164.6	3
164.7	6
164.8	11
164.9	17
165.0	25
165.1	29
165.2	29
165.3	24
165.4	17
165.5	10
165.6	5
165.7	2
176.5	0
176.6	3
176.7	11
176.8	21
176.9	28
177.0	29
177.1	28
177.2	28
177.3	26
177.4	19
177.5	8
177.6	1
178.7	2
178.8	3
178.9	5
179.0	6
179.1	6
179.2	4
179.3	2
188.4	2
188.5	4
188.6	7
188.7	15
188.8	28
188.9	42
189.0	52
189.1	55
189.2	50
189.3	39
189.4	24
189.5	10
189.6	1
190.5	1
190.6	2
190.7	4
190.8	8
190.9	11
191.0	12
191.1	9
191.2	6
191.3	4
191.4	3
191.5	1
191.9	1
192.0	2
192.1	4
192.2	4
192.3	2
192.7	0
192.8	2
192.9	6
193.0	10
193.1	12
193.2	11
193.3	8
193.4	4
193.5	1
200.3	0
200.4	1
200.5	5
200.6	10
200.7	17
200.8	24
200.9	31
201.0	35
201.1	37
201.2	34
201.3	24
201.4	12
201.5	3
202.4	1
202.5	2
202.6	3
202.7	4
202.8	6
202.9	8
203.0	9
203.1	10
203.2	11
203.3	11
203.4	9
203.5	5
203.6	2
218.6	1
218.7	3
218.8	5
218.9	6
219.0	5
219.1	4
219.2	3
230.2	0
230.3	2
230.4	4
230.5	6
230.6	7
230.7	9
230.8	13
230.9	19
231.0	24
231.1	27
231.2	27
231.3	24
231.4	16
231.5	7
231.6	1
248.8	1
248.9	3
249.0	5
249.1	5
249.2	4
249.3	1
297.2	1
297.3	2
297.4	5
297.5	9
297.6	15
297.7	25
297.8	39
297.9	55
298.0	69
298.1	77
298.2	81
298.3	80
298.4	66
298.5	40
298.6	15
298.8	8
298.9	16
299.0	24
299.1	30
299.2	33
299.3	30
299.4	21
299.5	10
299.6	2
310.7	2
310.8	3
310.9	5
311.0	7
311.1	7
311.2	6
311.3	4
311.4	4
311.5	2
318.6	1
318.7	2
318.8	4
318.9	7
319.0	9
319.1	10
319.2	11
319.3	10
319.4	7
319.7	2
319.8	8
319.9	15
320.0	21
320.1	26
320.2	27
320.3	22
320.4	14
320.5	5
320.6	0
323.6	1
323.7	3
323.8	6
323.9	7
324.0	7
324.1	7
324.2	7
324.3	6
324.4	4
324.5	1
335.4	1
335.5	2
335.6	3
335.7	3
335.8	3
335.9	3
336.0	5
336.1	9
336.2	13
336.3	13
336.4	9
336.5	3
338.4	1
338.5	2
338.6	4
338.7	8
338.8	15
338.9	23
339.0	30
339.1	33
339.2	30
339.3	25
339.4	18
339.5	10
339.6	3
340.8	1
340.9	3
341.0	4
341.1	4
341.2	3
341.3	1
350.2	0
350.3	1
350.4	4
350.5	9
350.6	16
350.7	26
350.8	42
350.9	59
351.0	73
351.1	84
351.2	94
351.3	99
351.4	87
351.5	54
351.6	18
351.7	0
356.8	1
356.9	3
357.0	4
357.1	4
357.2	4
357.3	4
357.4	3
368.3	1
368.4	2
368.5	5
368.6	9
368.7	16
368.8	27
368.9	39
369.0	48
369.1	52
369.2	51
369.3	47
369.4	37
369.5	23
369.6	9
369.7	0
386.5	2
386.6	3
386.7	4
386.8	6
386.9	9
387.0	14
387.1	16
387.2	15
387.3	11
387.4	5
387.5	1
