Mass spectrum: Huperzine A; LC-ESI-QQQ; MS2; Frag=135.0V CID@15.0; [M+H]+
Name: Huperzine A
Class: Terpenoids
Formula: C15H18N2O
Exact mass: 242.3235
SMILES: C/C=C1\C2C=C(C)CC1(N)c1ccc(O)nc1C2
InChI: InChI=1S/C15H18N2O/c1-3-11-10-6-9(2)8-15(11,16)12-4-5-14(18)17-13(12)7-10/h3-6,10H,7-8,16H2,1-2H3,(H,17,18)/b11-3+
Instrument: Agilent 6410 Triple Quadrupole LC/MS system
Instrument type: LC-ESI-QQQ
Ms type: MS2
Ion mode: POSITIVE
Precursor type: [M+H]+
m/z	relative intensity
197.8	3
197.9	4
198.0	5
198.1	6
198.2	6
198.3	5
198.4	4
198.5	2
210.8	3
210.9	4
211.0	5
211.1	6
211.2	6
211.3	5
211.4	3
211.5	1
225.4	1
225.5	2
225.6	4
225.7	8
225.8	14
225.9	21
226.0	29
226.1	34
226.2	35
226.3	31
226.4	23
226.5	14
226.6	6
226.7	1
242.3	0
242.4	0
242.5	5
242.6	13
242.7	23
242.8	38
242.9	56
243.0	77
243.1	93
243.2	99
243.3	95
243.4	80
243.5	55
243.6	27
243.7	5
243.8	0
