Mass spectrum: Methylevoxine; LC-ESI-QQQ; MS2; Frag=135.0V CID@5.0; [M+H]+
Name: Methylevoxine
Class: Alkaloids
Formula: C19H23NO6
Exact mass: 361.3983
SMILES: COc1c2ccoc2nc2c(OC)c(OCC(O)C(C)(C)OC)ccc12
InChI: InChI=1S/C19H23NO6/c1-19(2,24-5)14(21)10-26-13-7-6-11-15(17(13)23-4)20-18-12(8-9-25-18)16(11)22-3/h6-9,14,21H,10H2,1-5H3
Instrument: Agilent 6410 Triple Quadrupole LC/MS system
Instrument type: LC-ESI-QQQ
Ms type: MS2
Ion mode: POSITIVE
Precursor type: [M+H]+
m/z	relative intensity
329.6	1
329.7	2
329.8	5
329.9	8
330.0	12
330.1	14
330.2	13
330.3	11
330.4	7
330.5	3
361.3	1
361.4	3
361.5	6
361.6	11
361.7	20
361.8	36
361.9	57
362.0	77
362.1	92
362.2	99
362.3	95
362.4	77
362.5	49
362.6	20
362.7	2
