Mass spectrum: 3-Hydroxy-12-oleanen-28-oic acid; LC-ESI-QQQ; MS2; Frag=135.0V CID@25.0; [M-OH]+
Name: 3-Hydroxy-12-oleanen-28-oic acid
Class: Terpenoids
Formula: C30H48O3
Exact mass: 456.7153
SMILES: CC1(C)CCC2(C(=O)O)CC[C@]3(C)C(=CCC4[C@@]5(C)CCC(O)C(C)(C)C5CC[C@]43C)C2C1
InChI: InChI=1S/C30H48O3/c1-25(2)14-16-30(24(32)33)17-15-28(6)19(20(30)18-25)8-9-22-27(5)12-11-23(31)26(3,4)21(27)10-13-29(22,28)7/h8,20-23,31H,9-18H2,1-7H3,(H,32,33)/t20?,21?,22?,23?,27-,28+,29+,30?/m0/s1
Instrument: Agilent 6410 Triple Quadrupole LC/MS system
Instrument type: LC-ESI-QQQ
Ms type: MS2
Ion mode: POSITIVE
Precursor type: [M-OH]+
m/z	relative intensity
94.3	0
94.4	2
94.5	3
94.6	5
94.7	7
94.8	8
94.9	8
95.0	8
95.1	8
95.2	7
95.3	6
95.4	4
95.5	2
106.5	1
106.6	2
106.7	3
106.8	5
106.9	6
107.0	8
107.1	8
107.2	6
107.3	3
107.4	1
108.5	1
108.6	3
108.7	5
108.8	7
108.9	9
109.0	9
109.1	7
109.2	4
109.3	2
118.7	2
118.8	3
118.9	4
119.0	5
119.1	6
119.2	6
119.3	6
119.4	3
119.5	1
120.4	1
120.5	2
120.6	5
120.7	7
120.8	7
120.9	6
121.0	6
121.1	8
121.2	10
121.3	9
121.4	6
121.5	2
122.6	0
122.7	2
122.8	3
122.9	5
123.0	6
123.1	5
123.2	3
123.3	2
132.3	1
132.4	2
132.5	3
132.6	4
132.7	5
132.8	6
132.9	8
133.0	10
133.1	10
133.2	8
133.3	5
133.4	2
134.6	1
134.7	2
134.8	4
134.9	8
135.0	13
135.1	16
135.2	14
135.3	8
135.4	3
146.5	0
146.6	1
146.7	3
146.8	5
146.9	6
147.0	7
147.1	7
147.2	6
147.3	5
147.4	2
148.5	0
148.6	1
148.7	3
148.8	6
148.9	9
149.0	11
149.1	12
149.2	11
149.3	10
149.4	7
149.5	3
162.5	0
162.6	2
162.7	4
162.8	6
162.9	8
163.0	10
163.1	12
163.2	11
163.3	8
163.4	4
163.5	1
174.6	0
174.7	1
174.8	3
174.9	5
175.0	7
175.1	8
175.2	8
175.3	7
175.4	4
175.5	2
176.6	1
176.7	2
176.8	4
176.9	6
177.0	8
177.1	8
177.2	6
177.3	4
177.4	1
188.4	0
188.5	1
188.6	3
188.7	7
188.8	12
188.9	21
189.0	32
189.1	41
189.2	43
189.3	37
189.4	26
189.5	14
189.6	4
189.7	0
190.2	0
190.3	1
190.4	4
190.5	9
190.6	13
190.7	19
190.8	29
190.9	42
191.0	51
191.1	55
191.2	58
191.3	61
191.4	56
191.5	39
191.6	17
191.7	1
200.7	0
200.8	1
200.9	5
201.0	9
201.1	11
201.2	11
201.3	9
201.4	6
201.5	4
201.6	2
202.2	0
202.3	1
202.4	3
202.5	10
202.6	20
202.7	30
202.8	39
202.9	49
203.0	62
203.1	80
203.2	95
203.3	99
203.4	86
203.5	58
203.6	27
203.7	6
203.8	0
204.6	0
204.7	2
204.8	4
204.9	7
205.0	9
205.1	9
205.2	9
205.3	8
205.4	5
205.5	2
216.5	0
216.6	1
216.7	3
216.8	6
216.9	8
217.0	9
217.1	8
217.2	6
217.3	4
217.4	2
221.0	0
221.1	2
221.2	4
221.3	5
221.4	3
221.5	1
230.7	0
230.8	1
230.9	3
231.0	7
231.1	9
231.2	8
231.3	5
231.4	2
248.7	1
248.8	2
248.9	3
249.0	4
249.1	5
249.2	6
249.3	5
249.4	3
