Mass spectrum: evodiamine; LC-ESI-QQQ; MS2; Frag=135.0V CID@10.0; [M+H]+
Name: evodiamine
Class: Alkaloids
Formula: C19H17N3O
Exact mass: 303.3668
SMILES: CN1c2ccccc2C(=O)N2CCc3c([nH]c4ccccc34)[C@H]21
InChI: InChI=1S/C19H17N3O/c1-21-16-9-5-3-7-14(16)19(23)22-11-10-13-12-6-2-4-8-15(12)20-17(13)18(21)22/h2-9,18,20H,10-11H2,1H3/t18-/m0/s1
Instrument: Agilent 6410 Triple Quadrupole LC/MS system
Instrument type: LC-ESI-QQQ
Ms type: MS2
Ion mode: POSITIVE
Precursor type: [M+H]+
m/z	relative intensity
133.2	0
133.3	1
133.4	5
133.5	11
133.6	21
133.7	34
133.8	51
133.9	68
134.0	79
134.1	82
134.2	77
134.3	66
134.4	47
134.5	25
134.6	6
134.7	0
143.5	1
143.6	2
143.7	3
143.8	5
143.9	8
144.0	10
144.1	11
144.2	10
144.3	9
144.4	7
144.5	4
144.6	1
160.5	1
160.6	3
160.7	6
160.8	10
160.9	14
161.0	16
161.1	16
161.2	16
161.3	15
161.4	12
161.5	7
161.6	2
170.4	1
170.5	2
170.6	4
170.7	8
170.8	14
170.9	22
171.0	28
171.1	32
171.2	31
171.3	28
171.4	22
171.5	13
171.6	5
171.7	0
303.3	1
303.4	2
303.5	6
303.6	13
303.7	24
303.8	41
303.9	60
304.0	79
304.1	92
304.2	99
304.3	97
304.4	82
304.5	54
304.6	23
304.7	2
