Mass spectrum: Glycyrrhetic acid, Me ester; LC-ESI-QQQ; MS; [M+H]+
Name: Glycyrrhetic acid, Me ester
Class: Terpenoids
Formula: C31H48O4
Exact mass: 484.7258
SMILES: COC(=O)[C@@]1(C)CC[C@]2(C)CC[C@]3(C)C(=CC(=O)C4[C@@]5(C)CCC(O)C(C)(C)C5CC[C@]43C)C2C1
InChI: InChI=1S/C31H48O4/c1-26(2)22-9-12-31(7)24(29(22,5)11-10-23(26)33)21(32)17-19-20-18-28(4,25(34)35-8)14-13-27(20,3)15-16-30(19,31)6/h17,20,22-24,33H,9-16,18H2,1-8H3/t20?,22?,23?,24?,27-,28+,29+,30-,31-/m1/s1
Instrument: ABSciex API3200 LC/MS system
Instrument type: LC-ESI-QQQ
Ms type: MS
Ion mode: POSITIVE
Precursor type: [M+H]+
m/z	relative intensity
466.9000	24
482.9000	22
483.1000	28
483.2000	21
483.3000	25
484.5000	50
484.6000	236
484.7000	626
484.8000	861
484.9000	980
485.0000	999
485.1000	959
485.2000	956
485.3000	922
485.4000	924
485.5000	762
485.6000	404
485.7000	407
485.8000	367
485.9000	372
486.0000	415
486.1000	380
486.2000	369
486.3000	422
486.4000	411
486.5000	264
486.6000	120
486.7000	75
486.8000	63
486.9000	70
487.0000	75
487.1000	75
487.2000	77
487.3000	75
487.4000	67
487.5000	51
487.6000	23
968.7000	97
968.8000	155
968.9000	186
969.0000	223
969.1000	247
969.2000	244
969.3000	247
969.4000	248
969.5000	231
969.6000	210
969.7000	191
969.8000	146
969.9000	154
970.0000	157
970.1000	159
970.2000	168
970.3000	169
970.4000	184
970.5000	167
970.6000	167
970.7000	117
970.8000	63
970.9000	57
971.0000	54
971.1000	57
971.2000	53
971.3000	60
971.4000	59
971.5000	60
971.6000	50
971.7000	38
