Mass spectrum: Dubinidine; LC-ESI-QQQ; MS2; Frag=135.0V CID@10.0; [M+H]+
Name: Dubinidine
Class: Alkaloids
Formula: C15H17NO4
Exact mass: 275.307
SMILES: COc1c2c(nc3ccccc13)OC(C(C)(O)CO)C2
InChI: InChI=1S/C15H17NO4/c1-15(18,8-17)12-7-10-13(19-2)9-5-3-4-6-11(9)16-14(10)20-12/h3-6,12,17-18H,7-8H2,1-2H3
Instrument: Agilent 6410 Triple Quadrupole LC/MS system
Instrument type: LC-ESI-QQQ
Ms type: MS2
Ion mode: POSITIVE
Precursor type: [M+H]+
m/z	relative intensity
187.5	2
187.6	4
187.7	7
187.8	12
187.9	16
188.0	19
188.1	21
188.2	20
188.3	18
188.4	13
188.5	7
188.6	2
215.4	1
215.5	3
215.6	6
215.7	11
215.8	19
215.9	28
216.0	35
216.1	39
216.2	39
216.3	34
216.4	25
216.5	14
216.6	4
229.7	1
229.8	3
229.9	5
230.0	6
230.1	7
230.2	7
230.3	6
230.4	5
230.5	3
245.7	1
245.8	3
245.9	5
246.0	6
246.1	7
246.2	7
246.3	6
246.4	4
246.5	2
257.4	1
257.5	2
257.6	4
257.7	8
257.8	15
257.9	23
258.0	30
258.1	34
258.2	34
258.3	31
258.4	24
258.5	14
258.6	5
258.7	0
275.3	1
275.4	3
275.5	6
275.6	12
275.7	23
275.8	42
275.9	66
276.0	87
276.1	98
276.2	99
276.3	91
276.4	73
276.5	46
276.6	18
276.7	1
