Mass spectrum: Stepharine; LC-ESI-QQQ; MS2; Frag=135.0V CID@25.0; [M+H]+
Name: Stepharine
Class: Alkaloids
Formula: C18H19NO3
Exact mass: 297.357
SMILES: COc1cc2c3c(c1OC)C1(C=CC(=O)C=C1)CC3NCC2
InChI: InChI=1S/C18H19NO3/c1-21-14-9-11-5-8-19-13-10-18(6-3-12(20)4-7-18)16(15(11)13)17(14)22-2/h3-4,6-7,9,13,19H,5,8,10H2,1-2H3
Instrument: Agilent 6410 Triple Quadrupole LC/MS system
Instrument type: LC-ESI-QQQ
Ms type: MS2
Ion mode: POSITIVE
Precursor type: [M+H]+
m/z	relative intensity
145.5	2
145.6	3
145.7	5
145.8	7
145.9	10
146.0	13
146.1	13
146.2	12
146.3	9
146.4	6
146.5	2
159.3	1
159.4	2
159.5	4
159.6	7
159.7	12
159.8	18
159.9	24
160.0	29
160.1	32
160.2	33
160.3	32
160.6	23
160.7	32
160.8	51
160.9	74
161.0	92
161.1	99
161.2	95
161.3	83
161.4	65
161.5	41
161.6	17
161.7	2
164.7	2
164.8	3
164.9	4
165.0	5
165.1	5
165.2	5
165.3	4
165.4	3
176.8	3
176.9	4
177.0	5
177.1	6
177.2	5
177.3	4
177.4	3
189.5	2
189.6	3
189.7	7
189.8	12
189.9	17
190.0	20
190.1	22
190.2	22
190.3	20
190.4	15
190.5	8
190.6	2
191.4	2
191.5	4
191.6	5
191.7	9
191.8	16
191.9	24
192.0	31
192.1	34
192.2	33
192.3	29
192.4	21
192.5	12
192.6	4
193.6	1
193.7	3
193.8	5
193.9	7
194.0	8
194.1	8
194.2	7
194.3	6
194.4	4
209.8	2
209.9	3
210.0	5
210.1	5
210.2	5
210.3	4
221.6	2
221.7	4
221.8	7
221.9	11
222.0	14
222.1	14
222.2	13
222.3	11
222.4	7
222.8	4
222.9	6
223.0	8
223.1	9
223.2	9
223.3	8
223.4	6
223.5	3
237.6	4
237.7	7
237.8	11
237.9	16
238.0	20
238.1	24
238.2	25
238.3	24
238.4	18
238.5	11
238.6	5
249.7	2
249.8	4
249.9	6
250.0	7
250.1	7
250.2	7
250.3	6
250.4	4
252.7	1
252.8	3
252.9	5
253.0	6
253.1	7
253.2	7
253.3	7
253.4	7
253.5	5
253.6	4
253.7	5
253.8	7
253.9	11
254.0	13
254.1	15
254.2	15
254.3	13
254.4	9
254.5	4
254.6	0
268.8	2
268.9	4
269.0	5
269.1	6
269.2	6
269.3	5
269.4	3
