Mass spectrum: Lincomycin; LC-ESI-QQQ; MS2; Frag=135.0V CID@5.0; [M+H]+
Name: Lincomycin
Class: Carbohydrates
Formula: C18H34N2O6S
Exact mass: 406.5455
SMILES: CCC[C@@H]1C[C@@H](C(O)=NC(C(C)O)[C@H]2O[C@H](SC)[C@H](O)[C@@H](O)[C@H]2O)N(C)C1
InChI: InChI=1S/C18H34N2O6S/c1-5-6-10-7-11(20(3)8-10)17(25)19-12(9(2)21)16-14(23)13(22)15(24)18(26-16)27-4/h9-16,18,21-24H,5-8H2,1-4H3,(H,19,25)/t9?,10-,11+,12?,13+,14-,15-,16-,18-/m1/s1
Instrument: Agilent 6410 Triple Quadrupole LC/MS system
Instrument type: LC-ESI-QQQ
Ms type: MS2
Ion mode: POSITIVE
Precursor type: [M+H]+
m/z	relative intensity
406.4	1
406.5	3
406.6	7
406.7	14
406.8	25
406.9	43
407.0	65
407.1	85
407.2	98
407.3	99
407.4	88
407.5	64
407.6	36
407.7	12
407.8	0
