Mass spectrum: o-hydroxydibenzoylmethane; LC-ESI-QQQ; MS2; Frag=135.0V CID@25.0; [M+H]+
Name: o-hydroxydibenzoylmethane
Class: Benzopyranoids
Formula: C15H12O3
Exact mass: 240.2611
SMILES: O=C(CC(=O)c1ccccc1O)c1ccccc1
InChI: InChI=1S/C15H12O3/c16-13-9-5-4-8-12(13)15(18)10-14(17)11-6-2-1-3-7-11/h1-9,16H,10H2
Instrument: Agilent 6410 Triple Quadrupole LC/MS system
Instrument type: LC-ESI-QQQ
Ms type: MS2
Ion mode: POSITIVE
Precursor type: [M+H]+
m/z	relative intensity
64.6	2
64.7	3
64.8	4
64.9	6
65.0	7
65.1	7
65.2	6
65.3	4
65.4	2
68.5	1
68.6	3
68.7	5
68.8	8
68.9	10
69.0	11
69.1	11
69.2	9
69.3	6
69.4	3
76.3	1
76.4	2
76.5	5
76.6	9
76.7	15
76.8	23
76.9	30
77.0	37
77.1	39
77.2	37
77.3	30
77.4	19
77.5	8
77.6	1
92.5	3
92.6	4
92.7	5
92.8	6
92.9	8
93.0	10
93.1	11
93.2	10
93.3	8
93.4	5
93.5	2
104.3	1
104.4	4
104.5	11
104.6	23
104.7	40
104.8	60
104.9	81
105.0	96
105.1	99
105.2	92
105.3	75
105.4	51
105.5	25
105.6	5
105.7	0
120.2	1
120.3	3
120.4	8
120.5	17
120.6	31
120.7	49
120.8	70
120.9	88
121.0	98
121.1	99
121.2	94
121.3	81
121.4	59
121.5	31
121.6	8
121.7	0
