Mass spectrum: 7-O-acetyldaphnoretin; LC-ESI-QQQ; MS2; Frag=135.0V CID@15.0; [M+H]+
Name: 7-O-acetyldaphnoretin
Class: Benzopyranoids
Formula: C21H14O8
Exact mass: 394.3409
SMILES: COc1cc2cc(Oc3ccc4ccc(=O)oc4c3)c(=O)oc2cc1OC(C)=O
InChI: InChI=1S/C21H14O8/c1-11(22)26-18-10-16-13(7-17(18)25-2)8-19(21(24)29-16)27-14-5-3-12-4-6-20(23)28-15(12)9-14/h3-10H,1-2H3
Instrument: Agilent 6410 Triple Quadrupole LC/MS system
Instrument type: LC-ESI-QQQ
Ms type: MS2
Ion mode: POSITIVE
Precursor type: [M+H]+
m/z	relative intensity
352.2	0
352.3	2
352.4	7
352.5	14
352.6	23
352.7	37
352.8	56
352.9	76
353.0	92
353.1	99
353.2	97
353.3	83
353.4	60
353.5	31
353.6	8
353.7	0
394.5	1
394.6	2
394.7	4
394.8	7
394.9	9
395.0	11
395.1	12
395.2	12
395.3	10
395.4	7
395.5	3
