Mass spectrum: Erythromycin; LC-ESI-QQQ; MS2; Frag=135.0V CID@10.0; [M+HCOO]-
Name: Erythromycin
Class: Polyketides
Formula: C37H67NO13
Exact mass: 733.9454
SMILES: CC[C@@H]1[C@@]([C@@H]([C@H](C(=O)[C@@H](C[C@@]([C@@H]([C@H]([C@@H]([C@H](C(=O)O1)C)O[C@H]2C[C@@]([C@H]([C@@H](O2)C)O)(C)OC)C)O[C@H]3[C@@H]([C@H](C[C@H](O3)C)N(C)C)O)(C)O)C)C)O)(C)O
InChI: InChI=1S/C37H67NO13/c1-14-25-37(10,45)30(41)20(4)27(39)18(2)16-35(8,44)32(51-34-28(40)24(38(11)12)15-19(3)47-34)21(5)29(22(6)33(43)49-25)50-26-17-36(9,46-13)31(42)23(7)48-26/h18-26,28-32,34,40-42,44-45H,14-17H2,1-13H3/t18-,19-,20+,21+,22-,23+,24+,25-,26+,28-,29+,30-,31+,32-,34+,35-,36-,37-/m1/s1
Instrument: Agilent 6410 Triple Quadrupole LC/MS system
Instrument type: LC-ESI-QQQ
Ms type: MS2
Ion mode: NEGATIVE
Precursor type: [M+HCOO]-
m/z	relative intensity
173.4	2
173.5	3
173.6	4
173.7	7
173.8	12
173.9	17
174.0	19
174.1	17
174.2	14
174.3	11
174.4	7
174.5	4
174.6	1
248.2	1
248.3	3
248.4	7
248.5	14
248.6	22
248.7	28
248.8	31
248.9	32
249.0	35
249.1	36
249.2	34
249.3	26
249.4	15
249.5	5
249.6	0
266.3	1
266.4	3
266.5	5
266.6	8
266.7	10
266.8	10
266.9	7
267.0	3
322.4	1
322.5	4
322.6	8
322.7	14
322.8	21
322.9	30
323.0	39
323.1	48
323.2	50
323.3	44
323.4	31
323.5	16
323.6	5
323.7	1
380.6	1
380.7	2
380.8	5
380.9	7
381.0	9
381.1	8
381.2	5
381.3	2
423.3	1
423.4	2
423.5	4
423.6	9
423.7	16
423.8	23
423.9	28
424.0	31
424.1	31
424.2	27
424.3	19
424.4	9
424.5	3
497.2	1
497.3	2
497.4	4
497.5	8
497.6	13
497.7	23
497.8	38
497.9	57
498.0	74
498.1	85
498.2	94
498.3	99
498.4	93
498.5	70
498.6	38
498.7	14
498.8	1
555.7	2
555.8	4
555.9	8
556.0	14
556.1	19
556.2	22
556.3	21
556.4	16
556.5	9
556.6	3
731.4	1
731.5	2
731.6	4
731.7	6
731.8	10
731.9	12
732.0	13
732.1	10
732.2	6
732.3	2
777.5	2
777.6	3
777.7	5
777.8	6
777.9	7
778.0	9
778.1	10
778.2	11
778.3	15
778.4	21
778.5	24
778.6	21
778.7	12
778.8	4
778.9	0
