Mass spectrum: Artemisinin; LC-ESI-QQQ; MS; [M+H]+
Name: Artemisinin
Class: Terpenoids
Formula: C15H22O5
Exact mass: 282.3396
SMILES: C[C@H]1C(=O)O[C@@H]2O[C@@]3(C)CC[C@H]4[C@H](C)CCC1[C@@]24OO3
InChI: InChI=1S/C15H22O5/c1-8-4-5-11-9(2)12(16)17-13-15(11)10(8)6-7-14(3,18-13)19-20-15/h8-11,13H,4-7H2,1-3H3/t8-,9-,10+,11?,13-,14-,15-/m1/s1
Instrument: ABSciex API3200 LC/MS system
Instrument type: LC-ESI-QQQ
Ms type: MS
Ion mode: POSITIVE
Precursor type: [M+H]+
m/z	relative intensity
104.5000	69
104.6000	70
104.7000	88
104.8000	107
104.9000	97
105.0000	92
105.1000	124
105.2000	99
105.3000	90
105.4000	93
105.5000	37
106.4000	28
106.5000	45
106.6000	85
106.7000	93
106.8000	73
106.9000	84
107.0000	103
107.1000	87
107.2000	88
107.3000	73
107.4000	56
107.5000	41
108.5000	32
108.6000	70
108.7000	88
108.8000	96
108.9000	115
109.0000	94
109.1000	92
109.2000	95
109.3000	91
109.4000	83
109.5000	93
109.6000	28
110.8000	27
111.0000	21
111.1000	33
116.8000	22
116.9000	30
117.0000	26
117.1000	23
117.2000	24
118.4000	30
118.5000	46
118.6000	80
118.7000	103
118.8000	82
118.9000	86
119.0000	77
119.1000	95
119.2000	61
119.3000	63
119.4000	65
119.5000	36
120.4000	33
120.5000	117
120.6000	150
120.7000	148
120.8000	141
120.9000	209
121.0000	155
121.1000	149
121.2000	156
121.3000	126
121.4000	103
121.5000	85
121.8000	21
121.9000	25
122.4000	24
122.5000	81
122.6000	142
122.7000	159
122.8000	197
122.9000	182
123.0000	175
123.1000	163
123.2000	182
123.3000	150
123.4000	139
123.5000	86
123.6000	25
123.8000	27
123.9000	22
124.0000	31
124.2000	32
124.4000	23
124.5000	38
124.6000	50
124.7000	52
124.8000	64
124.9000	71
125.0000	54
125.1000	56
125.2000	49
125.3000	56
125.4000	31
125.5000	32
130.4000	22
130.5000	75
130.6000	83
130.7000	206
130.8000	99
130.9000	73
131.0000	89
131.1000	100
131.2000	95
131.3000	68
131.4000	71
131.5000	47
132.4000	78
132.5000	432
132.6000	78
132.7000	79
132.8000	104
132.9000	115
133.0000	104
133.1000	149
133.2000	137
133.3000	100
133.4000	108
133.5000	80
133.6000	24
133.7000	22
134.2000	21
134.3000	60
134.4000	110
134.5000	32
134.6000	35
134.7000	54
134.8000	59
134.9000	59
135.0000	51
135.1000	60
135.2000	62
135.3000	60
135.4000	54
135.5000	30
136.6000	30
136.7000	30
136.8000	30
136.9000	35
137.0000	27
137.1000	27
137.2000	26
137.3000	22
137.4000	26
138.4000	45
138.5000	135
138.6000	185
138.7000	217
138.8000	219
138.9000	260
139.0000	240
139.1000	200
139.2000	186
139.3000	165
139.4000	152
139.5000	112
139.6000	39
140.5000	22
140.8000	33
140.9000	22
141.0000	37
141.1000	29
141.2000	22
142.6000	27
142.7000	40
142.8000	51
142.9000	75
143.0000	40
143.1000	42
143.2000	70
143.3000	30
144.4000	33
144.5000	94
144.6000	124
144.7000	175
144.8000	150
144.9000	164
145.0000	183
145.1000	193
145.2000	144
145.3000	151
145.4000	149
145.5000	89
145.6000	29
145.7000	32
145.8000	47
145.9000	26
146.0000	29
146.1000	27
146.2000	25
146.3000	23
146.4000	25
146.5000	39
146.6000	66
146.7000	47
146.8000	57
146.9000	52
147.0000	59
147.1000	68
147.2000	52
147.3000	50
147.4000	50
147.5000	36
148.4000	25
148.5000	89
148.6000	138
148.7000	146
148.8000	159
148.9000	189
149.0000	182
149.1000	145
149.2000	134
149.3000	129
149.4000	109
149.5000	52
149.7000	23
150.1000	30
150.2000	28
150.3000	32
150.4000	181
150.5000	420
150.6000	669
150.7000	698
150.8000	760
150.9000	759
151.0000	776
151.1000	806
151.2000	666
151.3000	596
151.4000	606
151.5000	505
151.6000	151
151.7000	86
151.8000	117
151.9000	87
152.0000	113
152.1000	128
152.2000	96
152.3000	91
152.4000	81
152.5000	58
152.6000	29
152.7000	26
152.9000	28
153.1000	25
153.2000	26
154.6000	26
156.5000	21
156.6000	25
156.7000	29
156.8000	24
156.9000	34
157.0000	30
157.1000	27
157.2000	26
157.4000	28
157.5000	24
158.0000	27
158.4000	71
158.5000	140
158.6000	154
158.7000	205
158.8000	240
158.9000	168
159.0000	191
159.1000	175
159.2000	173
159.3000	160
159.4000	134
159.5000	102
159.6000	29
159.7000	48
159.8000	47
159.9000	47
160.0000	26
160.1000	33
160.2000	29
160.3000	24
160.4000	58
160.5000	94
160.6000	117
160.7000	131
160.8000	127
160.9000	159
161.0000	450
161.1000	129
161.2000	101
161.3000	88
161.4000	84
161.5000	48
161.6000	28
162.1000	21
162.3000	21
162.4000	50
162.5000	92
162.6000	148
162.7000	194
162.8000	205
162.9000	164
163.0000	190
163.1000	180
163.2000	159
163.3000	134
163.4000	119
163.5000	61
163.6000	41
163.9000	25
164.1000	23
164.2000	22
164.4000	24
164.5000	38
164.7000	24
164.8000	24
164.9000	29
165.0000	21
165.1000	31
165.3000	62
166.4000	27
166.5000	43
166.6000	56
166.7000	73
166.8000	69
166.9000	66
167.0000	62
167.1000	60
167.2000	58
167.3000	57
167.4000	47
167.5000	45
167.7000	28
167.9000	23
169.1000	21
170.7000	38
170.9000	21
171.0000	33
172.4000	40
172.5000	155
172.6000	188
172.7000	285
172.8000	316
172.9000	288
173.0000	268
173.1000	245
173.2000	227
173.3000	212
173.4000	187
173.5000	150
173.6000	56
173.7000	50
173.8000	32
173.9000	47
174.0000	37
174.1000	47
174.2000	22
174.3000	51
174.4000	55
174.5000	38
174.6000	45
174.7000	41
174.8000	39
174.9000	35
175.0000	49
175.1000	32
175.2000	32
175.3000	24
175.4000	28
176.4000	31
176.5000	112
176.6000	171
176.7000	194
176.8000	180
176.9000	179
177.0000	191
177.1000	188
177.2000	187
177.3000	143
177.4000	100
177.5000	73
177.6000	31
177.7000	26
177.8000	24
177.9000	21
178.0000	21
178.1000	30
178.3000	23
178.4000	60
178.5000	151
178.6000	216
178.7000	198
178.8000	224
178.9000	221
179.0000	177
179.1000	186
179.2000	183
179.3000	175
179.4000	146
179.5000	86
179.6000	29
179.7000	21
179.8000	21
179.9000	27
180.0000	24
180.1000	22
180.4000	34
180.5000	55
180.6000	56
180.7000	50
180.8000	63
180.9000	66
181.0000	57
181.1000	65
181.2000	44
181.3000	35
181.4000	48
181.5000	29
182.5000	36
182.6000	39
182.7000	23
182.8000	34
182.9000	32
183.0000	31
183.1000	27
183.2000	46
183.3000	21
183.4000	22
186.5000	36
186.6000	44
186.7000	60
186.8000	65
186.9000	52
187.0000	49
187.1000	57
187.2000	53
187.3000	45
187.4000	33
187.5000	30
187.6000	21
188.4000	34
188.5000	80
188.6000	99
188.7000	86
188.8000	90
188.9000	94
189.0000	84
189.1000	64
189.2000	86
189.3000	74
189.4000	84
189.5000	29
190.4000	37
190.5000	232
190.6000	433
190.7000	361
190.8000	315
190.9000	325
191.0000	349
191.1000	305
191.2000	327
191.3000	300
191.4000	261
191.5000	215
191.6000	78
191.7000	73
191.8000	59
191.9000	70
192.0000	49
192.1000	77
192.2000	61
192.3000	55
192.4000	46
192.5000	39
194.4000	26
194.5000	82
194.6000	93
194.7000	123
194.8000	116
194.9000	119
195.0000	94
195.1000	97
195.2000	102
195.3000	96
195.4000	68
195.5000	49
195.6000	27
200.4000	26
200.5000	99
200.6000	137
200.7000	170
200.8000	148
200.9000	178
201.0000	189
201.1000	179
201.2000	156
201.3000	136
201.4000	128
201.5000	99
201.6000	46
201.7000	33
201.8000	31
201.9000	49
202.0000	29
202.1000	24
202.2000	27
202.3000	21
202.4000	30
202.5000	25
202.6000	25
202.7000	22
202.9000	28
203.0000	21
203.1000	24
203.2000	22
203.3000	25
203.4000	23
204.4000	43
204.5000	82
204.6000	129
204.7000	119
204.8000	100
204.9000	135
205.0000	144
205.1000	86
205.2000	111
205.3000	129
205.4000	87
205.5000	48
205.6000	27
205.9000	27
206.0000	29
206.2000	22
206.4000	23
206.5000	36
206.6000	61
206.7000	73
206.8000	77
206.9000	56
207.0000	66
207.1000	66
207.2000	57
207.3000	58
207.4000	54
207.5000	33
208.3000	23
208.4000	222
208.5000	584
208.6000	830
208.7000	896
208.8000	925
208.9000	887
209.0000	967
209.1000	943
209.2000	901
209.3000	830
209.4000	827
209.5000	578
209.6000	291
209.7000	200
209.8000	185
209.9000	185
210.0000	163
210.1000	169
210.2000	177
210.3000	136
210.4000	145
210.5000	115
210.6000	58
210.7000	47
210.8000	54
210.9000	35
211.0000	25
211.1000	53
211.2000	42
211.3000	35
211.4000	36
218.4000	100
218.5000	199
218.6000	275
218.7000	292
218.8000	308
218.9000	338
219.0000	305
219.1000	311
219.2000	270
219.3000	248
219.4000	251
219.5000	188
219.6000	67
219.7000	48
219.8000	45
219.9000	53
220.0000	41
220.1000	58
220.2000	45
220.3000	49
221.0000	30
222.4000	25
222.5000	75
222.6000	116
222.7000	140
222.8000	181
222.9000	185
223.0000	148
223.1000	157
223.2000	140
223.3000	141
223.4000	133
223.5000	90
223.6000	34
223.7000	28
223.8000	25
224.0000	26
224.3000	24
228.6000	51
228.7000	70
228.8000	76
228.9000	102
229.0000	90
229.1000	109
229.2000	93
229.3000	110
229.4000	119
229.5000	45
229.6000	26
229.8000	23
229.9000	25
230.4000	21
236.5000	89
236.6000	85
236.7000	99
236.8000	126
236.9000	118
237.0000	148
237.1000	156
237.2000	116
237.3000	141
237.4000	87
237.5000	71
237.6000	34
237.7000	29
237.9000	29
238.0000	23
238.1000	29
246.4000	63
246.5000	138
246.6000	201
246.7000	212
246.8000	210
246.9000	191
247.0000	172
247.1000	185
247.2000	302
247.3000	237
247.4000	173
247.5000	58
247.6000	42
247.7000	29
247.9000	32
248.0000	27
248.1000	26
248.2000	27
248.3000	24
264.4000	59
264.5000	147
264.6000	147
264.7000	183
264.8000	157
264.9000	161
265.0000	164
265.1000	165
265.2000	136
265.3000	133
265.4000	122
265.5000	56
265.6000	28
265.7000	28
265.9000	29
266.0000	22
266.1000	25
266.2000	23
282.3000	62
282.4000	338
282.5000	670
282.6000	784
282.7000	873
282.8000	975
282.9000	925
283.0000	962
283.1000	999
283.2000	959
283.3000	910
283.4000	870
283.5000	517
283.6000	367
283.7000	808
283.8000	681
283.9000	113
284.0000	70
284.1000	94
284.2000	89
284.3000	106
284.4000	111
284.5000	63
284.6000	32
284.7000	27
284.8000	45
285.0000	27
285.1000	27
285.2000	22
285.3000	33
299.5000	67
299.6000	120
299.7000	175
299.8000	182
299.9000	170
300.0000	201
300.1000	201
300.2000	137
300.3000	104
300.4000	107
300.5000	66
300.6000	42
300.7000	27
300.8000	40
300.9000	39
301.0000	24
301.1000	32
301.2000	21
301.4000	22
323.4000	26
323.5000	63
323.6000	94
323.7000	99
323.8000	116
323.9000	99
324.0000	94
324.1000	93
324.2000	84
324.3000	61
324.4000	59
324.5000	45
324.6000	25
324.7000	27
327.6000	33
327.7000	31
327.8000	30
328.0000	23
328.1000	30
328.2000	35
328.3000	28
328.4000	33
564.4000	42
564.5000	102
564.6000	270
564.7000	356
564.8000	364
564.9000	363
565.0000	362
565.1000	291
565.2000	308
565.3000	284
565.4000	225
565.5000	109
565.6000	84
565.7000	125
565.8000	100
565.9000	106
566.0000	101
566.1000	98
566.2000	99
566.3000	84
566.4000	66
566.6000	24
566.9000	25
581.7000	22
581.8000	24
581.9000	22
582.0000	23
582.1000	21
582.2000	26
582.3000	28
582.4000	21
