Mass spectrum: Meranzin; LC-ESI-QQQ; MS2; Frag=135.0V CID@25.0; [M+H]+
Name: Meranzin
Class: Benzopyranoids
Formula: C15H16O4
Exact mass: 260.2924
SMILES: COc1ccc2ccc(=O)oc2c1CC1OC1(C)C
InChI: InChI=1S/C15H16O4/c1-15(2)12(19-15)8-10-11(17-3)6-4-9-5-7-13(16)18-14(9)10/h4-7,12H,8H2,1-3H3
Instrument: Agilent 6410 Triple Quadrupole LC/MS system
Instrument type: LC-ESI-QQQ
Ms type: MS2
Ion mode: POSITIVE
Precursor type: [M+H]+
m/z	relative intensity
102.6	3
102.7	5
102.8	9
102.9	13
103.0	15
103.1	13
103.2	9
103.3	4
120.5	2
120.6	4
120.7	6
120.8	8
120.9	7
121.0	5
130.3	0
130.4	2
130.5	9
130.6	26
130.7	53
130.8	83
130.9	99
131.0	91
131.1	68
131.2	47
131.3	32
131.4	20
131.5	8
131.6	1
188.5	1
188.6	4
188.7	18
188.8	42
188.9	65
189.0	73
189.1	60
189.2	34
189.3	11
189.4	1
