Mass spectrum: Icariin; LC-ESI-QQQ; MS2; Frag=135.0V CID@10.0; [M+HCOO]-
Name: Icariin
Name: 3-[(6-Deoxy-alpha-L-mannopyranosyl)oxy]-7-(beta-D-glucopyranosyloxy)-5-hydroxy-2-(4-methoxyphenyl)-8-(3-methyl-2-buten-1-yl)-4H-1-benzopyran-4-one
Class: Flavonoids
Formula: C33H40O15
Exact mass: 676.236721
SMILES: C[C@H]1[C@@H]([C@H]([C@H]([C@@H](O1)OC2=C(OC3=C(C2=O)C(=CC(=C3CC=C(C)C)O[C@H]4[C@@H]([C@H]([C@@H]([C@H](O4)CO)O)O)O)O)C5=CC=C(C=C5)OC)O)O)O
InChI: InChI=1S/C33H40O15/c1-13(2)5-10-17-19(45-33-28(42)26(40)23(37)20(12-34)46-33)11-18(35)21-24(38)31(48-32-27(41)25(39)22(36)14(3)44-32)29(47-30(17)21)15-6-8-16(43-4)9-7-15/h5-9,11,14,20,22-23,25-28,32-37,39-42H,10,12H2,1-4H3/t14-,20+,22-,23+,25+,26-,27+,28+,32-,33+/m0/s1
Instrument: Agilent 6410 Triple Quadrupole LC/MS system
Instrument type: LC-ESI-QQQ
Ms type: MS2
Ion mode: NEGATIVE
Precursor type: [M+HCOO]-
m/z	relative intensity
366.3	1
366.4	2
366.5	4
366.6	5
366.7	5
366.8	6
366.9	8
367.0	9
367.1	8
367.2	5
367.3	3
408.5	2
408.6	3
408.7	4
408.8	5
408.9	7
409.0	8
409.1	8
409.2	7
409.3	6
409.4	3
409.5	1
512.2	0
512.3	2
512.4	6
512.5	13
512.6	26
512.7	41
512.8	59
512.9	76
513.0	90
513.1	99
513.2	99
513.3	88
513.4	66
513.5	37
513.6	12
513.7	0
528.2	1
528.3	2
528.4	4
528.5	6
528.6	8
528.7	10
528.8	11
528.9	14
529.0	16
529.1	17
529.2	14
529.3	9
529.4	3
