Mass spectrum: physostigmine; LC-ESI-QQQ; MS2; Frag=135.0V CID@5.0; [M+H]+
Name: Physostigmine
Name: Physostol
Name: Antilirium
Name: Esromiotin
Name: Ezerin
Name: Calabarine
Name: Fysostigmin
Name: ((3aS,8aR)-1,8,3a-trimethylpyrrolidino(2,3-b)indolin-5-yloxy)-N-methylcarboxamide / Eserine
Name: Cogmine
Name: physostigmine
Class: Alkaloids
Formula: C15H21N3O2
Exact mass: 275.3535
SMILES: CN=C(O)Oc1ccc2c(c1)[C@]1(C)CCN(C)[C@@H]1N2C
InChI: InChI=1S/C15H21N3O2/c1-15-7-8-17(3)13(15)18(4)12-6-5-10(9-11(12)15)20-14(19)16-2/h5-6,9,13H,7-8H2,1-4H3,(H,16,19)/t13-,15+/m1/s1
Instrument: Agilent 6410 Triple Quadrupole LC/MS system
Instrument type: LC-ESI-QQQ
Ms type: MS2
Ion mode: POSITIVE
Precursor type: [M+H]+
m/z	relative intensity
161.4	1
161.5	3
161.6	5
161.7	9
161.8	16
161.9	23
162.0	29
162.1	32
162.2	33
162.3	30
162.4	24
162.5	16
162.6	7
162.7	0
218.3	0
218.4	3
218.5	8
218.6	16
218.7	29
218.8	46
218.9	67
219.0	86
219.1	97
219.2	99
219.3	92
219.4	76
219.5	51
219.6	23
219.7	3
232.7	1
232.8	3
232.9	4
233.0	6
233.1	7
233.2	7
233.3	6
233.4	5
233.5	3
233.6	1
275.5	1
275.6	3
275.7	5
275.8	8
275.9	13
276.0	18
276.1	21
276.2	23
276.3	22
276.4	18
276.5	12
276.6	5
276.7	0
