Mass spectrum: Conferone; LC-ESI-QQQ; MS2; Frag=135.0V CID@25.0; [M+H]+
Name: Conferone
Class: Benzopyranoids
Formula: C24H28O4
Exact mass: 380.4884
SMILES: CC1=CCC2C(C)(C)C(=O)CC[C@]2(C)[C@@H]1COc1ccc2ccc(=O)oc2c1
InChI: InChI=1S/C24H28O4/c1-15-5-9-20-23(2,3)21(25)11-12-24(20,4)18(15)14-27-17-8-6-16-7-10-22(26)28-19(16)13-17/h5-8,10,13,18,20H,9,11-12,14H2,1-4H3/t18-,20?,24-/m1/s1
Instrument: Agilent 6410 Triple Quadrupole LC/MS system
Instrument type: LC-ESI-QQQ
Ms type: MS2
Ion mode: POSITIVE
Precursor type: [M+H]+
m/z	relative intensity
80.8	1
80.9	3
81.0	4
81.1	5
81.2	4
81.3	2
92.7	2
92.8	4
92.9	6
93.0	7
93.1	6
93.2	5
93.3	4
93.4	2
94.6	3
94.7	4
94.8	5
94.9	7
95.0	8
95.1	9
95.2	9
95.3	8
95.4	6
95.5	3
104.6	1
104.7	2
104.8	4
104.9	5
105.0	6
105.1	7
105.2	7
105.3	6
105.4	4
105.5	2
106.5	2
106.6	3
106.7	5
106.8	7
106.9	11
107.0	12
107.1	12
107.2	10
107.3	8
107.4	6
107.5	4
107.6	1
108.6	3
108.7	4
108.8	5
108.9	7
109.0	9
109.1	10
109.2	10
109.3	8
109.4	5
109.5	2
118.6	2
118.7	4
118.8	7
118.9	11
119.0	13
119.1	13
119.2	11
119.3	9
119.4	6
119.5	3
120.7	3
120.8	4
120.9	5
121.0	7
121.1	10
121.2	10
121.3	9
121.4	5
121.5	2
132.5	1
132.6	3
132.7	6
132.8	10
132.9	13
133.0	14
133.1	15
133.2	15
133.3	15
133.4	12
133.5	7
133.6	2
134.7	2
134.8	4
134.9	7
135.0	9
135.1	10
135.2	9
135.3	7
135.4	4
135.5	1
144.6	2
144.7	5
144.8	9
144.9	12
145.0	15
145.1	16
145.2	15
145.3	14
145.4	11
145.5	7
145.6	3
158.5	1
158.6	3
158.7	5
158.8	8
158.9	12
159.0	16
159.1	18
159.2	18
159.3	16
159.4	13
159.5	7
159.6	2
160.6	1
160.7	3
160.8	6
160.9	9
161.0	11
161.1	13
161.2	14
161.3	15
161.4	14
161.5	10
161.6	5
161.7	1
162.2	1
162.3	3
162.4	6
162.5	11
162.6	20
162.7	36
162.8	59
162.9	81
163.0	95
163.1	99
163.2	95
163.3	80
163.4	54
163.5	25
163.6	4
172.7	1
172.8	3
172.9	5
173.0	7
173.1	8
173.2	7
173.3	6
173.4	4
173.5	2
174.8	2
174.9	4
175.0	6
175.1	8
175.2	7
175.3	5
175.4	3
176.7	0
176.8	2
176.9	4
177.0	6
177.1	6
177.2	5
177.3	4
177.4	3
200.6	1
200.7	2
200.8	5
200.9	8
201.0	11
201.1	14
201.2	15
201.3	13
201.4	10
201.5	5
201.6	2
