Mass spectrum: lomatin; LC-ESI-QQQ; MS2; Frag=135.0V CID@10.0; [M+H]+
Name: lomatin
Class: Benzopyranoids
Formula: C14H14O4
Exact mass: 246.2653
SMILES: CC1(C)Oc2ccc3ccc(=O)oc3c2CC1O
InChI: InChI=1S/C14H14O4/c1-14(2)11(15)7-9-10(18-14)5-3-8-4-6-12(16)17-13(8)9/h3-6,11,15H,7H2,1-2H3
Instrument: Agilent 6410 Triple Quadrupole LC/MS system
Instrument type: LC-ESI-QQQ
Ms type: MS2
Ion mode: POSITIVE
Precursor type: [M+H]+
m/z	relative intensity
174.4	1
174.5	3
174.6	6
174.7	9
174.8	15
174.9	20
175.0	24
175.1	25
175.2	24
175.3	20
175.4	14
175.5	7
175.6	1
186.7	1
186.8	3
186.9	4
187.0	5
187.1	5
187.2	5
187.3	4
187.4	2
228.5	1
228.6	3
228.7	5
228.8	8
228.9	12
229.0	15
229.1	17
229.2	17
229.3	15
229.4	11
229.5	6
229.6	2
246.3	0
246.4	3
246.5	9
246.6	19
246.7	33
246.8	51
246.9	72
247.0	90
247.1	99
247.2	99
247.3	88
247.4	65
247.5	36
247.6	10
247.7	0
