Mass spectrum: Pseudojervine; LC-ESI-QQQ; MS2; Frag=135.0V CID@25.0; [M+HCOO]-
Name: Pseudojervine
Class: Alkaloids
Formula: C33H49NO8
Exact mass: 587.7604
SMILES: CC1=C2C(=O)[C@H]3C(CC=C4CC(O[C@@H]5O[C@H](CO)[C@@H](O)[C@H](O)[C@H]5O)CCC43C)[C@@H]2CC[C@]12O[C@@H]1CC(C)CN[C@H]1[C@H]2C
InChI: InChI=1S/C33H49NO8/c1-15-11-22-26(34-13-15)17(3)33(42-22)10-8-20-21-6-5-18-12-19(40-31-30(39)29(38)27(36)23(14-35)41-31)7-9-32(18,4)25(21)28(37)24(20)16(33)2/h5,15,17,19-23,25-27,29-31,34-36,38-39H,6-14H2,1-4H3/t15?,17-,19?,20+,21?,22-,23-,25-,26+,27-,29+,30-,31-,32?,33+/m1/s1
Instrument: Agilent 6410 Triple Quadrupole LC/MS system
Instrument type: LC-ESI-QQQ
Ms type: MS2
Ion mode: NEGATIVE
Precursor type: [M+HCOO]-
m/z	relative intensity
50.5	9
50.6	10
50.7	11
50.8	11
50.9	10
51.2	8
51.3	10
51.4	11
51.5	12
51.6	11
51.7	9
51.9	7
52.0	10
52.1	14
52.2	16
52.3	16
52.4	14
53.4	8
53.5	11
53.6	15
53.7	17
53.8	15
53.9	13
54.0	12
54.1	12
54.2	11
54.3	10
54.4	10
54.6	8
54.7	9
54.8	11
54.9	13
55.0	12
55.1	10
55.4	8
55.5	10
55.6	12
55.7	14
55.8	15
55.9	13
56.0	10
56.5	9
56.6	10
56.7	11
56.8	12
56.9	11
57.2	10
57.3	11
57.4	12
57.5	12
57.6	13
57.7	15
57.8	15
57.9	13
58.0	9
58.1	6
58.3	5
58.4	7
58.5	10
58.6	12
58.7	14
58.8	15
58.9	14
59.0	11
59.1	8
60.1	7
60.2	8
60.3	10
60.4	10
60.5	9
60.6	7
61.4	5
61.5	10
61.6	14
61.7	15
61.8	14
61.9	12
62.6	8
62.7	10
62.8	13
62.9	15
63.0	16
63.1	15
63.2	12
63.4	10
63.5	12
63.6	14
63.7	14
63.8	13
63.9	12
64.3	11
64.4	12
64.5	12
64.6	12
64.7	10
64.8	9
64.9	8
65.0	8
65.1	7
65.4	6
65.5	7
65.6	9
65.7	12
65.8	13
65.9	11
66.0	8
66.2	6
66.3	9
66.4	12
66.5	13
66.6	13
66.7	12
68.2	8
68.3	10
68.4	11
68.5	11
68.6	11
68.9	9
69.0	10
69.1	13
69.2	15
69.3	16
69.4	14
69.5	11
69.7	10
69.8	12
69.9	13
70.0	14
70.1	13
70.2	12
70.3	11
70.4	10
70.5	10
71.7	6
71.8	8
71.9	11
72.0	14
72.1	14
72.2	11
72.3	8
72.5	8
72.6	9
72.7	10
72.8	11
72.9	10
73.0	8
73.2	4
73.3	6
73.4	11
73.5	14
73.6	14
73.7	10
73.9	8
74.0	12
74.1	15
74.2	14
74.3	11
76.0	5
76.1	7
76.2	11
76.3	13
76.4	11
76.7	7
76.8	10
76.9	11
77.0	10
77.2	8
77.3	10
77.4	11
77.5	10
77.6	8
77.9	8
78.0	8
78.1	8
78.2	10
78.3	11
78.4	11
78.5	8
78.8	6
78.9	7
79.0	7
79.1	8
79.2	9
79.3	11
79.4	12
79.5	12
79.6	11
79.7	11
79.8	10
80.2	9
80.3	10
80.4	11
80.5	12
80.6	10
80.9	6
81.0	9
81.1	12
81.2	13
81.3	11
81.4	8
81.6	7
81.7	9
81.8	9
81.9	8
82.0	8
82.1	9
82.2	9
82.3	9
82.4	8
82.5	9
82.6	10
82.7	12
82.8	14
82.9	15
83.0	12
83.1	8
83.3	7
83.4	9
83.5	9
83.6	9
83.7	9
83.8	9
83.9	9
84.0	9
84.1	9
84.2	10
84.3	12
84.4	13
84.5	14
84.6	13
84.7	12
84.8	11
85.1	8
85.2	10
85.3	12
85.4	14
85.5	15
85.6	15
85.7	15
85.8	14
85.9	11
86.2	8
86.3	11
86.4	13
86.5	13
86.6	11
88.0	7
88.1	8
88.2	17
88.3	29
88.4	31
88.5	24
89.3	7
89.4	8
89.5	9
89.6	10
89.7	10
89.8	9
89.9	8
90.1	7
90.2	8
90.3	9
90.4	11
90.5	11
90.6	9
90.8	7
90.9	10
91.0	12
91.1	14
91.2	14
91.3	12
91.4	9
92.1	6
92.2	8
92.3	11
92.4	13
92.5	12
92.8	10
92.9	12
93.0	15
93.1	16
93.2	15
93.3	13
93.6	10
93.7	12
93.8	15
93.9	15
94.0	14
94.1	12
94.4	10
94.5	11
94.6	13
94.7	14
94.8	13
94.9	13
95.0	13
95.1	12
95.2	10
95.5	7
95.6	10
95.7	13
95.8	14
95.9	10
96.2	5
96.3	10
96.4	14
96.5	15
96.6	15
96.7	15
96.8	16
96.9	16
97.0	15
97.1	13
97.2	11
97.3	9
97.6	6
97.7	10
97.8	13
97.9	12
98.0	9
98.2	7
98.3	9
98.4	10
98.5	10
98.6	10
98.7	11
98.8	13
98.9	13
99.0	13
99.1	10
99.2	7
99.4	4
99.5	6
99.6	10
99.7	13
99.8	14
99.9	12
100.0	9
100.4	8
100.5	9
100.6	11
100.7	13
100.8	14
100.9	15
101.0	14
101.1	13
101.2	11
101.3	8
101.5	2
101.6	5
101.7	10
101.8	13
101.9	12
102.0	9
102.1	6
102.3	4
102.4	5
102.5	8
102.6	11
102.7	14
102.8	14
102.9	12
103.0	9
103.8	4
103.9	7
104.0	11
104.1	13
104.2	11
104.4	8
104.5	10
104.6	13
104.7	15
104.8	15
104.9	13
105.0	10
105.3	10
105.4	11
105.5	12
105.6	13
105.7	11
105.8	9
106.0	7
106.1	9
106.2	11
106.3	12
106.4	13
106.5	11
106.6	9
106.8	8
106.9	10
107.0	13
107.1	14
107.2	15
107.3	14
107.4	12
107.5	9
107.6	7
107.8	5
107.9	7
108.0	11
108.1	15
108.2	17
108.3	16
108.4	13
108.5	11
108.6	10
108.7	10
109.0	7
109.1	10
109.2	12
109.3	12
109.4	10
109.5	9
109.6	9
109.9	7
110.0	9
110.1	13
110.2	17
110.3	17
110.4	15
110.5	12
111.5	8
111.6	10
111.7	12
111.8	13
111.9	12
112.0	10
113.1	8
113.2	9
113.3	9
113.4	10
113.5	10
113.6	11
113.7	11
113.8	11
113.9	11
114.0	10
114.1	8
114.4	5
114.5	7
114.6	7
114.7	8
114.8	11
114.9	13
115.0	14
115.8	12
115.9	13
116.0	14
116.1	15
116.2	15
116.3	13
116.4	10
117.2	9
117.3	11
117.4	12
117.5	12
117.6	10
117.9	7
118.0	10
118.1	12
118.2	14
118.3	15
118.4	15
118.5	13
118.6	10
118.9	6
119.0	9
119.1	13
119.2	14
119.3	12
119.4	10
119.5	8
119.6	6
119.9	4
120.0	6
120.1	9
120.2	12
120.3	13
120.4	14
120.5	14
120.6	13
120.7	12
120.8	10
121.1	7
121.2	10
121.3	12
121.4	13
121.5	13
121.6	12
121.7	11
121.8	11
121.9	10
122.0	9
122.1	8
122.2	7
122.4	5
122.5	7
122.6	9
122.7	9
122.8	8
122.9	7
123.2	7
123.3	8
123.4	11
123.5	14
123.6	14
123.7	11
124.5	7
124.6	8
124.7	11
124.8	13
124.9	12
125.0	8
125.5	9
125.6	9
125.7	11
125.8	14
125.9	15
126.0	13
126.1	9
127.2	8
127.3	10
127.4	12
127.5	12
128.5	7
128.6	8
128.7	11
128.8	13
128.9	14
129.0	12
129.1	10
129.3	7
129.4	9
129.5	12
129.6	15
129.7	14
129.8	10
129.9	5
130.1	0
130.2	2
130.3	7
130.4	11
130.5	12
130.6	9
130.9	5
131.0	7
131.1	8
131.2	9
131.3	9
131.4	11
131.5	13
131.6	14
131.7	13
131.8	10
132.0	9
132.1	11
132.2	12
132.5	10
132.6	11
132.7	12
132.8	11
132.9	8
133.0	6
133.2	4
133.3	6
133.4	10
133.5	12
133.6	13
133.7	11
134.0	9
134.1	10
134.2	11
134.3	12
134.4	12
134.5	13
134.6	13
134.7	12
134.8	12
134.9	11
135.0	10
135.8	5
135.9	8
136.0	11
136.1	13
136.2	13
136.3	11
136.6	8
136.7	10
136.8	10
136.9	10
137.0	9
137.1	9
138.2	5
138.3	8
138.4	9
138.5	9
138.6	8
138.9	8
139.0	9
139.1	11
139.2	12
139.3	12
139.4	10
139.6	8
139.7	10
139.8	13
139.9	13
140.0	11
140.1	9
140.4	8
140.5	10
140.6	11
140.7	13
140.8	14
140.9	14
141.2	10
141.3	14
141.4	16
141.5	14
141.6	10
143.6	8
143.7	9
143.8	10
143.9	11
144.0	10
144.1	8
144.4	8
144.5	9
144.6	10
144.7	11
144.8	11
144.9	12
145.0	12
145.1	12
145.2	13
145.3	14
145.4	14
145.5	13
145.6	12
145.7	10
145.8	7
146.0	4
146.1	7
146.2	10
146.3	12
146.4	12
146.5	12
146.6	11
146.7	11
146.8	10
146.9	9
147.0	9
147.1	9
147.4	6
147.5	9
147.6	12
147.7	13
147.8	11
148.8	5
148.9	6
149.0	10
149.1	13
149.2	13
149.3	12
149.4	10
149.5	9
149.8	6
149.9	8
150.0	12
150.1	13
150.2	11
150.4	7
150.5	10
150.6	13
150.7	14
150.8	12
150.9	9
151.1	8
151.2	10
151.3	12
151.4	13
151.5	12
152.2	11
152.3	12
152.4	14
152.5	13
152.6	9
152.7	5
152.9	4
153.0	5
153.1	7
153.2	10
153.3	12
153.4	12
153.5	9
153.6	6
153.7	3
153.9	2
154.0	3
154.1	6
154.2	10
154.3	15
154.4	17
154.5	16
154.6	14
154.7	12
155.6	5
155.7	8
155.8	11
155.9	11
156.0	10
156.1	12
156.2	15
156.3	18
156.4	19
156.5	17
156.6	14
156.7	12
156.8	10
157.0	7
157.1	9
157.2	11
157.3	11
157.4	10
157.5	7
157.8	4
157.9	8
158.0	11
158.1	12
158.2	10
159.5	5
159.6	6
159.7	10
159.8	12
159.9	10
160.0	6
160.2	5
160.3	8
160.4	12
160.5	13
160.6	11
160.7	7
160.9	4
161.0	7
161.1	11
161.2	14
161.3	12
162.0	10
162.1	13
162.2	17
162.3	20
162.4	20
162.5	18
162.6	14
162.7	11
164.5	9
164.6	10
164.7	12
164.8	13
164.9	14
165.0	15
165.1	15
165.2	13
165.3	10
165.4	8
165.5	6
165.7	4
165.8	6
165.9	10
166.0	13
166.1	14
166.2	11
166.4	9
166.5	13
166.6	15
166.7	16
166.8	14
166.9	11
167.2	10
167.3	10
167.4	12
167.5	15
167.6	18
167.7	19
167.8	15
167.9	11
168.2	8
168.3	10
168.4	11
168.5	12
168.6	14
168.7	15
168.8	11
168.9	5
169.1	3
169.2	7
169.3	8
169.4	7
169.5	6
169.6	10
169.7	15
169.8	18
169.9	17
170.0	13
170.3	9
170.4	12
170.5	15
170.6	15
170.7	12
170.8	9
171.0	5
171.1	8
171.2	12
171.3	15
171.4	15
171.5	14
171.6	12
171.9	10
172.0	11
172.1	13
172.2	16
172.3	17
172.4	16
172.5	14
175.2	5
175.3	9
175.4	15
175.5	19
175.6	18
175.7	14
175.8	12
177.1	8
177.2	10
177.3	12
177.4	14
177.5	14
177.6	12
177.8	7
177.9	10
178.0	15
178.1	18
178.2	16
178.3	12
178.6	9
178.7	11
178.8	13
178.9	14
179.0	15
179.1	14
179.2	13
179.3	11
179.4	9
179.6	8
179.7	9
179.8	11
179.9	13
180.0	13
180.1	11
180.2	9
180.4	8
180.5	10
180.6	13
180.7	14
180.8	13
180.9	10
181.1	7
181.2	10
181.3	12
181.4	12
181.5	11
181.6	12
181.7	13
181.8	13
181.9	13
182.0	12
182.1	11
182.4	8
182.5	9
182.6	12
182.7	15
182.8	15
182.9	13
183.0	11
183.3	10
183.4	11
183.5	14
183.6	16
183.7	16
183.8	13
183.9	10
184.0	8
184.3	6
184.4	8
184.5	11
184.6	13
184.7	11
184.8	7
185.0	4
185.1	7
185.2	9
185.3	10
185.4	9
185.5	9
185.6	9
185.7	9
185.8	9
185.9	10
186.0	11
186.1	11
186.2	10
186.5	6
186.6	9
186.7	11
186.8	11
186.9	10
187.0	9
187.1	10
187.2	12
187.3	13
187.4	12
187.7	9
187.8	12
187.9	15
188.0	15
188.1	12
188.2	8
188.8	7
188.9	9
189.0	10
189.1	10
189.2	9
189.3	8
189.4	9
189.5	11
189.6	13
189.7	14
189.8	14
189.9	13
190.0	12
190.1	10
190.2	8
190.3	6
190.5	3
190.6	5
190.7	9
190.8	10
190.9	9
191.7	7
191.8	10
191.9	14
192.0	13
192.1	7
192.3	3
192.4	9
192.5	14
192.6	15
192.7	10
192.8	5
193.0	2
193.1	6
193.2	10
193.3	14
193.4	15
193.5	13
193.6	10
193.8	9
193.9	10
194.0	12
194.1	12
194.2	12
194.3	11
194.4	10
194.7	9
194.8	11
194.9	12
195.0	13
195.1	12
195.2	12
195.3	11
195.6	10
195.7	11
195.8	12
195.9	13
196.0	11
196.1	8
196.4	5
196.5	8
196.6	10
196.7	9
196.8	8
196.9	10
197.0	12
197.1	13
197.2	12
197.3	12
197.4	12
197.5	11
197.6	7
197.8	3
197.9	6
198.0	10
198.1	11
198.2	11
198.3	9
199.2	5
199.3	9
199.4	12
199.5	13
199.6	10
200.4	7
200.5	10
200.6	13
200.7	13
200.8	10
202.6	5
202.7	7
202.8	10
202.9	14
203.0	15
203.1	13
203.2	9
203.3	7
203.6	6
203.7	7
203.8	8
203.9	9
204.0	10
204.1	11
204.2	9
204.3	5
204.5	5
204.6	7
204.7	9
204.8	9
204.9	8
205.0	8
205.1	8
205.2	9
205.3	10
205.4	11
205.5	11
205.6	9
205.7	7
206.1	6
206.2	8
206.3	9
206.4	9
206.5	9
206.6	8
206.7	9
206.8	11
206.9	12
207.0	12
207.1	11
207.9	8
208.0	10
208.1	13
208.2	14
208.3	14
208.4	13
208.5	13
208.6	15
208.7	17
208.8	16
208.9	12
209.0	8
209.2	8
209.3	10
209.4	11
209.5	11
210.2	4
210.3	6
210.4	9
210.5	12
210.6	14
210.7	14
210.8	13
210.9	12
211.8	7
211.9	10
212.0	12
212.1	13
212.2	13
212.3	11
212.4	9
212.5	8
212.6	8
213.0	7
213.1	7
213.2	8
213.3	9
213.4	11
213.5	13
213.6	14
213.7	12
213.8	10
214.0	9
214.1	11
214.2	12
214.3	11
214.4	10
215.8	6
215.9	9
216.0	13
216.1	14
216.2	12
217.0	8
217.1	11
217.2	14
217.3	16
217.4	17
217.5	15
217.6	11
217.8	5
217.9	7
218.0	12
218.1	15
218.2	14
218.3	11
218.5	8
218.6	10
218.7	13
218.8	14
218.9	13
220.1	9
220.2	11
220.3	12
220.4	11
221.3	6
221.4	8
221.5	11
221.6	12
221.7	12
221.8	11
221.9	11
222.0	12
222.1	14
222.2	14
222.3	12
222.4	8
222.7	7
222.8	8
222.9	9
223.0	11
223.1	12
223.2	14
223.3	14
223.4	13
223.5	10
223.6	7
223.9	5
224.0	7
224.1	9
224.2	12
224.3	14
224.4	14
224.5	14
224.6	12
224.7	10
225.0	9
225.1	11
225.2	13
225.3	13
225.4	11
226.3	7
226.4	8
226.5	10
226.6	12
226.7	12
227.5	5
227.6	7
227.7	11
227.8	13
227.9	14
228.0	14
228.1	12
228.4	11
228.5	11
228.6	14
228.7	16
228.8	15
228.9	12
229.8	9
229.9	10
230.0	12
230.1	15
230.2	15
230.3	13
230.4	10
230.7	9
230.8	10
230.9	11
231.0	11
231.1	10
231.2	10
231.3	11
231.4	12
231.5	12
231.6	11
231.7	11
231.8	12
231.9	13
232.0	13
232.1	11
232.9	8
233.0	11
233.1	14
233.2	13
233.5	9
233.6	13
233.7	16
233.8	16
233.9	14
234.0	11
234.2	10
234.3	12
234.4	13
234.5	13
234.6	12
234.7	11
234.8	10
235.5	10
235.6	11
235.7	13
235.8	13
235.9	10
236.2	6
236.3	10
236.4	14
236.5	14
236.6	11
236.9	8
237.0	12
237.1	15
237.2	14
237.3	12
237.4	10
237.5	7
237.7	4
237.8	7
237.9	10
238.0	14
238.1	14
238.2	13
238.9	11
239.0	13
239.1	16
239.2	16
239.3	15
239.4	14
240.3	12
240.4	13
240.5	14
240.6	14
240.7	13
240.8	11
241.1	8
241.2	10
241.3	12
241.4	12
241.5	11
241.8	9
241.9	12
242.0	15
242.1	16
242.2	14
242.3	9
242.5	5
242.6	8
242.7	10
242.8	9
243.1	6
243.2	9
243.3	11
243.4	10
244.1	8
244.2	10
244.3	13
244.4	14
244.5	12
244.7	9
244.8	13
244.9	17
245.0	18
245.1	15
245.2	11
246.5	6
246.6	8
246.7	9
246.8	11
246.9	15
247.0	17
247.1	16
247.2	12
248.0	7
248.1	10
248.2	12
248.3	14
248.4	14
248.5	12
248.6	10
248.8	8
248.9	10
249.0	13
249.1	16
249.2	16
250.7	9
250.8	11
250.9	13
251.0	13
251.1	11
251.8	7
251.9	9
252.0	10
252.1	11
252.2	10
252.3	10
252.4	9
252.7	8
252.8	10
252.9	11
253.0	12
253.1	12
253.2	11
253.3	10
253.4	8
253.5	5
253.8	4
253.9	6
254.0	8
254.1	10
254.2	13
254.3	16
254.4	17
254.5	15
254.6	10
254.8	7
254.9	11
255.0	13
255.1	13
255.2	10
255.3	7
255.4	6
255.6	4
255.7	6
255.8	9
255.9	12
256.0	13
256.1	12
256.2	9
256.4	8
256.5	10
256.6	12
256.7	11
256.8	6
257.1	2
257.2	6
257.3	11
257.4	13
257.5	12
257.6	9
257.9	7
258.0	9
258.1	11
258.2	11
258.3	8
258.8	7
258.9	7
259.0	8
259.1	10
259.2	11
259.3	11
259.4	10
259.6	7
259.7	9
259.8	12
259.9	15
260.0	16
260.1	16
260.2	15
260.3	13
260.4	12
260.5	11
260.7	9
260.8	11
260.9	14
261.0	16
261.1	16
261.2	15
261.3	14
261.4	12
261.5	9
261.8	7
261.9	9
262.0	10
262.1	11
262.2	12
262.3	13
262.4	13
262.5	11
262.6	8
262.9	6
263.0	8
263.1	11
263.2	11
263.3	11
263.4	10
264.2	8
264.3	10
264.4	11
264.5	11
264.6	9
264.9	8
265.0	10
265.1	13
265.2	15
265.3	14
265.4	11
266.0	8
266.1	10
266.2	11
266.3	11
266.4	10
266.5	10
266.6	10
266.7	10
266.8	8
267.7	3
267.8	4
267.9	6
268.0	7
268.1	8
268.2	9
268.3	11
268.4	11
268.5	9
269.5	6
269.6	6
269.7	8
269.8	11
269.9	14
270.0	15
270.1	14
270.2	11
270.3	8
270.6	6
270.7	8
270.8	11
270.9	12
271.0	12
271.1	13
271.2	14
271.3	15
271.4	15
271.5	15
271.6	16
271.7	16
271.8	14
271.9	11
273.3	6
273.4	9
273.5	11
273.6	10
273.7	9
273.8	7
274.1	5
274.2	6
274.3	8
274.4	11
274.5	14
274.6	14
274.7	12
275.0	9
275.1	12
275.2	14
275.3	14
275.4	11
275.7	8
275.8	12
275.9	16
276.0	16
276.1	14
276.9	4
277.0	7
277.1	10
277.2	12
277.3	11
277.4	10
277.7	7
277.8	9
277.9	11
278.0	11
278.1	11
278.2	10
278.3	10
278.4	9
278.5	8
278.6	7
279.4	8
279.5	10
279.6	12
279.7	11
279.8	10
279.9	9
280.0	9
280.5	8
280.6	9
280.7	12
280.8	15
280.9	15
281.0	13
281.1	11
281.2	9
281.5	6
281.6	9
281.7	12
281.8	13
281.9	12
282.0	11
282.7	5
282.8	8
282.9	11
283.0	10
283.1	8
283.2	6
283.6	6
283.7	7
283.8	8
283.9	9
284.0	10
284.1	10
284.2	10
284.3	9
284.4	8
284.5	7
284.8	6
284.9	8
285.0	10
285.1	11
285.2	10
285.3	9
285.4	8
285.7	5
285.8	8
285.9	12
286.0	14
286.1	13
286.2	12
286.3	11
286.4	9
286.7	6
286.8	10
286.9	11
287.0	10
287.2	7
287.3	8
287.4	11
287.5	14
287.6	14
287.7	12
287.8	9
287.9	6
288.1	4
288.2	6
288.3	10
288.4	14
288.5	16
288.6	15
288.7	12
288.8	9
289.0	7
289.1	8
289.2	10
289.3	10
289.4	9
289.5	7
289.7	5
289.8	8
289.9	11
290.0	13
290.1	14
290.2	12
291.1	9
291.2	9
291.3	10
291.4	12
291.5	13
291.6	11
291.7	8
291.9	6
292.0	8
292.1	11
292.2	13
292.3	13
292.4	10
292.7	8
292.8	9
292.9	10
293.0	11
293.1	13
293.2	15
293.3	16
293.4	14
293.5	12
293.6	11
293.7	11
293.8	9
293.9	8
294.2	7
294.3	9
294.4	10
294.5	11
294.6	10
294.7	9
295.0	8
295.1	9
295.2	9
295.3	10
295.4	10
295.5	11
295.6	10
295.7	7
296.0	4
296.1	8
296.2	12
296.3	14
296.4	13
296.5	9
296.7	8
296.8	11
296.9	13
297.0	14
297.1	12
297.2	8
297.4	7
297.5	9
297.6	11
297.7	11
297.8	7
298.0	1
298.1	5
298.2	9
298.3	13
298.4	12
298.5	9
299.1	5
299.2	6
299.3	10
299.4	13
299.5	14
299.6	12
299.7	9
299.8	8
300.1	7
300.2	9
300.3	12
300.4	13
300.5	12
300.6	11
300.7	9
300.9	7
301.0	8
301.1	11
301.2	12
301.3	11
301.4	10
301.5	11
301.6	11
301.7	11
301.8	11
301.9	10
302.0	11
302.1	13
302.2	15
302.3	14
302.4	12
302.7	9
302.8	11
302.9	12
303.0	13
303.1	14
303.2	14
303.3	12
303.4	11
303.9	11
304.0	10
304.1	11
304.2	13
304.3	14
304.4	12
304.5	10
304.8	9
304.9	10
305.0	12
305.1	13
305.2	13
305.3	12
305.4	12
305.5	11
305.8	8
305.9	10
306.0	12
306.1	14
306.2	14
306.3	12
306.6	8
306.7	11
306.8	11
307.1	10
307.2	12
307.3	15
307.4	16
307.5	15
307.6	12
307.7	9
308.0	6
308.1	8
308.2	10
308.3	11
308.4	10
308.7	7
308.8	9
308.9	12
309.0	14
309.1	15
309.2	16
309.3	14
309.4	10
309.5	8
309.6	8
309.9	6
310.0	9
310.1	12
310.2	13
310.3	13
310.4	13
310.5	12
310.6	11
310.7	8
310.9	7
311.0	8
311.1	10
311.2	13
311.3	14
311.4	13
311.5	11
311.6	9
311.9	7
312.0	9
312.1	12
312.2	15
312.3	17
312.4	17
312.5	15
312.6	13
313.9	8
314.0	9
314.1	9
314.2	10
314.3	10
314.4	10
314.7	8
314.8	10
314.9	12
315.0	13
315.1	12
315.4	11
315.5	12
315.6	14
315.7	15
315.8	16
315.9	16
316.0	15
316.1	14
316.2	13
316.3	12
316.6	10
316.7	11
316.8	12
316.9	13
317.0	12
317.3	9
317.4	11
317.5	13
317.6	13
317.7	11
317.9	8
318.0	10
318.1	13
318.2	14
318.3	14
319.2	7
319.3	8
319.4	9
319.5	10
319.6	11
319.7	11
319.8	10
319.9	8
320.1	5
320.2	8
320.3	12
320.4	14
320.5	13
320.6	9
320.7	5
321.1	6
321.2	6
321.3	8
321.4	11
321.5	12
321.6	10
321.8	7
321.9	9
322.0	11
322.1	10
322.4	7
322.5	12
322.6	17
322.7	17
322.8	14
322.9	10
323.2	8
323.3	9
323.4	10
323.5	12
323.6	12
323.7	12
323.8	11
323.9	11
324.0	12
324.1	12
324.2	9
324.4	6
324.5	8
324.6	10
324.7	10
324.8	7
324.9	5
325.1	4
325.2	6
325.3	8
325.4	9
325.5	9
325.6	8
325.7	9
325.8	11
325.9	12
326.0	13
326.1	14
326.2	14
326.3	12
326.6	9
326.7	11
326.8	12
326.9	12
327.0	11
327.1	11
327.2	11
327.3	10
327.4	11
327.5	11
327.6	10
327.7	7
327.9	5
328.0	7
328.1	9
328.2	9
328.3	8
328.4	8
328.5	10
328.6	12
328.7	13
328.8	12
328.9	10
329.0	10
329.1	10
329.2	9
329.5	6
329.6	8
329.7	9
329.8	9
329.9	9
330.0	9
330.1	10
330.2	11
330.3	10
330.4	10
330.5	10
330.6	10
330.7	9
330.8	5
331.1	3
331.2	5
331.3	7
331.4	9
331.5	9
331.6	9
331.7	9
331.8	11
331.9	13
332.0	13
332.1	10
332.2	7
332.4	6
332.5	9
332.6	11
332.7	12
332.8	11
332.9	11
333.0	11
333.1	10
333.2	10
333.5	8
333.6	10
333.7	12
333.8	13
333.9	12
334.0	10
334.1	9
334.5	7
334.6	9
334.7	11
334.8	10
334.9	7
335.0	3
335.2	2
335.3	5
335.4	8
335.5	11
335.6	12
335.7	12
335.8	12
335.9	11
336.0	9
336.3	9
336.4	9
336.5	9
336.6	10
336.7	11
336.8	10
336.9	10
337.0	10
337.1	11
337.2	12
337.3	11
338.2	11
338.3	11
338.4	13
338.5	16
338.6	17
338.7	15
338.8	10
338.9	6
339.2	3
339.3	5
339.4	6
339.5	8
339.6	12
339.7	15
339.8	14
339.9	10
340.1	7
340.2	11
340.3	13
340.4	12
340.5	11
340.9	11
341.0	11
341.1	12
341.2	12
341.3	11
341.6	8
341.7	12
341.8	15
341.9	14
342.0	12
342.2	9
342.3	11
342.4	13
342.5	15
342.6	16
342.7	16
342.8	15
342.9	11
343.1	8
343.2	11
343.3	13
343.4	13
343.6	9
343.7	11
343.8	14
343.9	14
344.0	12
344.3	10
344.4	11
344.5	12
344.6	11
345.0	10
345.1	11
345.2	12
345.3	16
345.4	19
345.5	19
345.6	15
345.7	10
345.9	8
346.0	11
346.1	13
346.2	11
346.9	8
347.0	11
347.1	13
347.2	12
347.5	11
347.6	11
347.7	12
347.8	12
347.9	12
348.0	13
348.1	13
348.2	12
348.3	10
348.5	8
348.6	11
348.7	15
348.8	16
348.9	15
349.0	13
349.1	11
350.8	6
350.9	8
351.0	10
351.1	9
351.4	7
351.5	11
351.6	14
351.7	13
351.8	8
352.0	3
352.1	9
352.2	15
352.3	16
352.4	12
352.7	9
352.8	11
352.9	11
353.0	12
353.1	12
353.2	13
353.3	14
353.4	14
354.6	9
354.7	9
354.8	10
354.9	12
355.0	14
355.1	15
355.2	14
355.3	11
356.3	8
356.4	9
356.5	10
356.6	10
356.7	11
356.8	12
357.6	10
357.7	11
357.8	11
357.9	11
358.0	11
358.1	12
358.2	12
358.3	9
358.5	7
358.6	9
358.7	12
358.8	13
358.9	14
359.0	14
359.1	15
359.2	15
359.3	13
359.4	9
359.6	8
359.7	11
359.8	13
359.9	12
360.0	9
360.2	5
360.3	9
360.4	13
360.5	14
360.6	12
360.7	9
360.9	8
361.0	10
361.1	12
361.2	13
361.3	14
361.4	14
361.5	13
361.6	11
361.7	8
361.8	5
362.1	4
362.2	5
362.3	6
362.4	8
362.5	10
362.6	11
362.7	12
362.8	11
363.5	6
363.6	8
363.7	9
363.8	10
363.9	13
364.0	16
364.1	17
364.2	15
364.5	12
364.6	15
364.7	17
364.8	16
364.9	13
365.0	10
366.6	4
366.7	5
366.8	9
366.9	12
367.0	14
367.1	13
367.2	10
368.1	9
368.2	9
368.3	10
368.4	11
368.5	11
368.6	11
368.7	11
368.8	11
369.1	10
369.2	12
369.3	15
369.4	16
369.5	14
369.6	11
369.8	10
369.9	11
370.0	13
370.1	13
370.2	11
370.4	9
370.5	10
370.6	13
370.7	14
370.8	12
372.0	2
372.1	5
372.2	9
372.3	10
372.4	10
372.5	9
372.6	8
373.4	8
373.5	9
373.6	11
373.7	12
373.8	12
373.9	11
374.0	9
374.1	7
374.3	4
374.4	6
374.5	11
374.6	15
374.7	16
374.8	14
374.9	11
375.0	8
375.3	6
375.4	9
375.5	10
375.6	10
375.7	9
375.8	10
375.9	12
376.0	15
376.1	14
376.2	10
376.5	6
376.6	9
376.7	11
376.8	10
376.9	8
377.9	5
378.0	6
378.1	8
378.2	10
378.3	12
378.4	13
378.5	12
378.6	10
379.4	5
379.5	7
379.6	10
379.7	13
379.8	12
379.9	10
380.0	8
380.3	8
380.4	9
380.5	11
380.6	12
380.7	13
380.8	13
380.9	13
381.0	14
381.1	14
381.2	12
381.3	10
381.4	10
381.5	10
381.6	9
382.1	7
382.2	8
382.3	11
382.4	15
382.5	15
382.6	12
382.7	8
382.9	4
383.0	7
383.1	12
383.2	15
383.3	14
383.4	10
383.7	7
383.8	9
383.9	10
384.0	10
384.1	9
384.2	10
384.3	11
384.4	12
384.5	11
385.4	8
385.5	9
385.6	11
385.7	13
385.8	14
385.9	13
386.0	11
386.1	9
388.3	6
388.4	8
388.5	10
388.6	11
388.7	11
388.8	11
388.9	12
389.0	12
389.1	11
389.2	10
389.3	10
390.0	8
390.1	10
390.2	11
390.3	11
390.4	9
390.5	6
390.8	6
390.9	7
391.0	8
391.1	10
391.2	11
391.3	11
391.4	12
391.5	11
391.6	7
391.8	3
391.9	5
392.0	9
392.1	10
392.2	10
392.3	8
392.5	5
392.6	7
392.7	10
392.8	11
392.9	10
393.0	10
393.1	10
393.2	9
393.3	9
393.4	10
393.5	11
393.6	12
393.7	11
393.8	9
394.0	6
394.1	8
394.2	10
394.3	11
394.4	10
395.2	10
395.3	10
395.4	12
395.5	14
395.6	15
395.7	14
395.8	12
397.0	6
397.1	8
397.2	9
397.3	11
397.4	12
397.5	13
397.6	12
397.8	10
397.9	11
398.0	13
398.1	14
398.2	11
398.3	8
399.3	7
399.4	8
399.5	10
399.6	12
399.7	12
399.8	10
400.4	9
400.5	10
400.6	12
400.7	13
400.8	13
400.9	10
401.1	6
401.2	8
401.3	12
401.4	14
401.5	13
401.6	9
401.7	4
401.9	4
402.0	7
402.1	8
402.2	9
402.3	10
402.4	11
402.5	12
402.6	10
403.2	8
403.3	9
403.4	12
403.5	14
403.6	14
403.7	13
403.8	11
403.9	10
404.0	8
404.2	7
404.3	9
404.4	11
404.5	13
404.6	12
404.9	9
405.0	13
405.1	16
405.2	15
405.5	12
405.6	15
405.7	17
405.8	17
405.9	14
406.0	10
406.6	7
406.7	9
406.8	10
406.9	11
407.0	8
407.3	5
407.4	9
407.5	13
407.6	13
407.7	11
408.0	7
408.1	10
408.2	12
408.3	11
408.4	10
408.5	9
408.8	6
408.9	8
409.0	10
409.1	11
409.2	12
409.3	15
409.4	18
409.5	16
409.6	11
409.7	6
410.2	5
410.3	7
410.4	9
410.5	11
410.6	11
410.7	13
410.8	15
410.9	14
411.0	12
411.1	10
411.4	9
411.5	10
411.6	11
411.7	13
411.8	14
411.9	12
412.1	10
412.2	12
412.3	15
412.4	16
412.5	15
412.6	13
412.7	12
412.8	11
412.9	11
413.0	11
413.2	8
413.3	9
413.4	12
413.5	14
413.6	12
413.7	8
413.9	5
414.0	7
414.1	10
414.2	11
414.3	11
414.4	11
414.5	12
414.6	13
414.7	15
414.8	14
415.1	11
415.2	12
415.3	13
415.4	12
415.5	10
415.6	7
415.8	3
415.9	5
416.0	9
416.1	14
416.2	17
416.3	17
416.4	16
417.4	3
417.5	7
417.6	11
417.7	12
417.8	10
417.9	7
418.2	6
418.3	7
418.4	8
418.5	9
418.6	11
418.7	12
418.8	13
418.9	12
419.0	11
419.3	9
419.4	10
419.5	11
419.6	11
419.7	11
419.8	12
419.9	12
420.0	10
420.5	9
420.6	10
420.7	12
420.8	14
420.9	14
421.0	13
421.1	12
421.2	11
421.3	10
421.6	9
421.7	10
421.8	11
421.9	11
422.0	11
422.1	9
423.0	9
423.1	13
423.2	15
423.3	14
423.4	10
423.6	6
423.7	10
423.8	12
423.9	11
424.2	8
424.3	10
424.4	12
424.5	14
424.6	16
424.7	15
424.8	12
425.1	9
425.2	11
425.3	13
425.4	12
425.5	11
425.9	10
426.0	11
426.1	12
426.2	13
426.3	15
426.4	16
426.5	15
426.6	13
426.8	10
426.9	12
427.0	15
427.1	17
427.2	15
427.5	12
427.6	14
427.7	14
427.8	14
427.9	14
428.0	13
428.1	12
428.2	10
428.3	7
428.8	7
428.9	8
429.0	9
429.1	11
429.2	11
429.3	9
429.4	7
429.7	6
429.8	8
429.9	12
430.0	14
430.1	14
430.2	12
430.3	10
430.4	10
430.5	10
430.6	9
430.9	8
431.0	10
431.1	12
431.2	14
431.3	15
431.4	14
431.5	12
431.6	9
431.8	7
431.9	8
432.0	11
432.1	11
432.2	11
432.3	10
432.4	12
432.5	13
432.6	14
432.7	13
432.8	12
432.9	10
433.0	8
433.3	5
433.4	9
433.5	13
433.6	15
433.7	13
433.8	10
434.1	8
434.2	10
434.3	11
434.4	11
434.5	9
434.8	7
434.9	9
435.0	12
435.1	13
435.2	13
435.3	13
435.4	12
435.5	12
435.8	10
435.9	12
436.0	15
436.1	17
436.2	17
436.3	15
436.4	13
437.3	7
437.4	10
437.5	12
437.6	12
437.7	12
437.8	10
438.1	8
438.2	9
438.3	10
438.4	11
438.5	12
438.6	11
438.7	9
439.6	5
439.7	11
439.8	16
439.9	17
440.0	14
440.1	10
440.2	7
440.5	7
440.6	7
440.7	8
440.8	9
440.9	11
441.0	11
441.1	12
441.2	11
441.3	9
441.6	8
441.7	9
441.8	11
441.9	14
442.0	15
442.1	13
442.2	10
442.5	7
442.6	9
442.7	9
442.8	10
442.9	12
443.0	12
443.1	10
443.2	8
444.7	9
444.8	9
444.9	10
445.0	12
445.1	12
445.2	11
445.3	9
445.6	9
445.7	9
445.8	9
445.9	11
446.0	15
446.1	18
446.2	16
446.3	12
447.4	11
447.5	13
447.6	16
447.7	17
447.8	17
447.9	15
448.0	12
448.1	8
448.2	5
448.8	0
448.9	3
449.0	9
449.1	15
449.2	15
449.3	11
449.4	7
450.0	4
450.1	8
450.2	12
450.3	14
450.4	12
450.5	10
451.8	5
451.9	9
452.0	13
452.1	15
452.2	12
452.3	8
453.0	7
453.1	8
453.2	11
453.3	13
453.4	13
453.5	11
453.6	8
454.3	5
454.4	7
454.5	9
454.6	10
454.7	9
454.8	6
454.9	3
455.1	0
455.2	4
455.3	10
455.4	15
455.5	15
455.6	13
455.7	10
455.8	7
456.0	6
456.1	8
456.2	10
456.3	10
456.4	9
456.7	7
456.8	8
456.9	10
457.0	12
457.1	14
457.2	15
457.3	14
457.4	14
457.5	16
457.6	18
457.7	17
457.8	12
457.9	7
458.1	7
458.2	10
458.3	12
458.4	12
458.5	11
458.6	9
458.9	7
459.0	10
459.1	11
459.2	10
459.3	8
459.6	7
459.7	8
459.8	10
459.9	10
460.2	8
460.3	10
460.4	12
460.5	12
460.6	11
460.7	9
461.0	7
461.1	9
461.2	10
461.3	10
461.4	9
461.5	8
461.6	9
461.7	9
462.0	8
462.1	9
462.2	10
462.3	11
462.4	10
462.5	9
463.1	10
463.2	11
463.3	12
463.4	13
463.5	13
463.6	13
463.7	11
463.8	10
463.9	9
464.0	7
464.2	5
464.3	7
464.4	10
464.5	13
464.6	13
464.7	10
464.8	6
465.1	4
465.2	5
465.3	7
465.4	9
465.5	10
465.6	10
465.7	10
465.8	10
465.9	8
466.1	6
466.2	8
466.3	10
466.4	10
466.6	5
466.7	8
466.8	13
466.9	16
467.0	15
467.1	15
467.2	14
467.3	12
467.4	10
467.7	7
467.8	10
467.9	13
468.0	14
468.1	12
468.3	6
468.4	9
468.5	15
468.6	18
468.7	17
468.8	13
468.9	10
469.2	9
469.3	10
469.4	10
469.5	11
469.6	12
469.7	10
470.0	8
470.1	10
470.2	12
470.3	11
470.4	9
470.8	7
470.9	8
471.0	9
471.1	12
471.2	13
471.3	13
471.4	13
471.5	12
471.6	12
471.7	10
471.8	9
471.9	9
472.0	9
472.1	8
472.4	6
472.5	7
472.6	7
472.7	7
472.8	9
472.9	12
473.0	14
473.1	14
473.2	14
473.3	14
473.4	14
473.5	13
473.6	13
473.7	13
473.8	12
473.9	9
474.1	7
474.2	9
474.3	12
474.4	13
474.5	12
474.6	12
474.7	13
474.8	15
474.9	14
475.0	12
475.1	9
475.2	9
475.3	9
475.4	8
475.7	5
475.8	8
475.9	11
476.0	12
476.1	11
476.9	7
477.0	9
477.1	10
477.2	10
477.3	9
477.4	9
477.7	8
477.8	10
477.9	12
478.0	14
478.1	14
478.4	10
478.5	14
478.6	18
478.7	18
478.8	16
478.9	14
479.0	11
479.1	9
479.3	7
479.4	9
479.5	11
479.6	13
479.7	13
479.8	13
479.9	13
480.0	13
480.1	13
480.2	14
480.3	14
480.4	13
480.5	11
480.7	9
480.8	12
480.9	16
481.0	18
481.1	17
481.2	13
482.8	8
482.9	10
483.0	13
483.1	14
483.2	14
483.3	14
483.4	12
484.0	11
484.1	11
484.2	13
484.3	13
484.4	13
484.5	11
484.7	8
484.8	10
484.9	12
485.0	13
485.1	12
485.2	11
485.3	10
485.4	9
485.5	8
485.8	6
485.9	8
486.0	10
486.1	13
486.2	13
486.3	13
486.4	13
486.5	13
486.6	11
486.7	7
486.9	4
487.0	7
487.1	12
487.2	16
487.3	16
487.4	12
487.5	7
487.7	4
487.8	7
487.9	10
488.0	12
488.1	12
488.2	12
488.3	12
488.4	12
488.5	11
488.8	10
488.9	11
489.0	12
489.1	11
489.2	11
489.3	11
489.4	12
489.5	14
489.6	16
489.7	16
489.8	14
489.9	12
490.5	10
490.6	12
490.7	13
490.8	13
490.9	12
492.7	7
492.8	8
492.9	9
493.0	11
493.1	12
493.2	12
493.3	11
493.4	11
493.5	11
493.6	11
493.7	9
493.9	6
494.0	9
494.1	14
494.2	17
494.3	17
494.4	15
494.5	11
494.6	8
494.8	8
494.9	9
495.0	11
495.1	14
495.2	15
495.3	14
495.4	11
495.5	8
495.7	7
495.8	9
495.9	10
496.0	10
496.1	8
496.2	8
496.3	9
496.4	10
496.5	11
496.6	11
496.7	13
496.8	13
496.9	12
497.2	9
497.3	12
497.4	14
497.5	12
497.6	7
497.8	1
497.9	4
498.0	9
498.1	12
498.2	14
498.3	16
498.4	18
498.5	17
498.6	14
498.7	10
499.0	7
499.1	8
499.2	9
499.3	9
499.4	8
499.5	8
499.6	9
499.7	11
499.8	12
499.9	11
500.0	8
500.1	6
500.4	5
500.5	6
500.6	10
500.7	13
500.8	13
500.9	11
501.0	8
501.2	6
501.3	8
501.4	10
501.5	10
501.6	9
501.9	8
502.0	9
502.1	10
502.2	10
502.3	10
502.6	8
502.7	11
502.8	13
502.9	12
503.0	8
503.4	6
503.5	6
503.6	7
503.7	10
503.8	13
503.9	14
504.0	14
504.1	14
504.2	14
504.3	14
504.4	13
504.5	11
504.8	9
504.9	11
505.0	13
505.1	13
505.2	12
505.3	10
505.4	10
505.5	9
505.8	6
505.9	7
506.0	8
506.1	8
506.2	8
506.3	9
506.4	9
506.5	9
506.6	8
506.7	8
506.8	9
506.9	9
507.0	9
507.1	8
507.2	9
507.3	9
507.4	10
507.5	12
507.6	15
507.7	15
507.8	13
508.1	10
508.2	12
508.3	13
508.4	12
508.5	9
508.6	6
508.8	4
508.9	6
509.0	9
509.1	11
509.2	13
509.3	14
509.4	17
509.5	20
509.6	20
509.7	16
509.8	10
509.9	5
510.1	5
510.2	7
510.3	9
510.4	9
510.5	9
510.6	10
510.7	10
510.8	9
511.1	8
511.2	9
511.3	10
511.4	11
511.5	12
511.6	12
511.7	9
511.8	5
512.0	4
512.1	7
512.2	11
512.3	13
512.4	13
512.5	11
512.7	9
512.8	12
512.9	14
513.0	14
513.1	11
513.4	10
513.5	11
513.6	14
513.7	15
513.8	14
513.9	9
514.0	4
514.2	3
514.3	7
514.4	11
514.5	15
514.6	15
514.7	12
514.8	7
515.1	3
515.2	8
515.3	11
515.4	12
515.5	10
515.6	7
515.8	6
515.9	8
516.0	9
516.1	8
516.2	7
517.1	5
517.2	7
517.3	8
517.4	10
517.5	12
517.6	12
517.7	11
517.8	8
518.0	7
518.1	9
518.2	10
518.3	10
518.4	10
518.5	10
518.6	10
518.7	10
518.8	11
518.9	11
519.0	11
519.1	9
520.4	8
520.5	9
520.6	12
520.7	16
520.8	17
520.9	15
521.0	11
521.1	9
521.2	9
521.5	8
521.6	9
521.7	10
521.8	10
521.9	8
522.2	8
522.3	9
522.4	10
522.5	11
522.6	12
522.7	12
522.8	11
522.9	10
523.0	12
523.1	13
523.2	14
523.3	14
523.4	13
523.5	11
523.6	8
523.8	6
523.9	8
524.0	11
524.1	14
524.2	16
524.3	14
526.1	8
526.2	10
526.3	12
526.4	13
526.5	12
526.6	9
526.7	5
527.0	2
527.1	5
527.2	9
527.3	12
527.4	12
527.5	11
527.6	8
527.9	7
528.0	9
528.1	11
528.2	13
528.3	14
528.4	15
528.5	14
528.6	11
528.7	8
529.0	6
529.1	9
529.2	12
529.3	13
529.4	11
529.7	7
529.8	10
529.9	12
530.0	12
530.1	10
530.2	9
530.3	9
530.6	6
530.7	8
530.8	10
530.9	9
531.0	8
531.1	8
531.2	9
531.3	10
531.4	10
531.7	8
531.8	9
531.9	10
532.0	10
532.1	8
532.7	8
532.8	10
532.9	14
533.0	16
533.1	14
533.2	11
533.3	9
533.6	9
533.7	9
533.8	11
533.9	11
534.0	10
534.3	9
534.4	10
534.5	11
534.6	11
534.7	11
534.8	12
534.9	14
535.0	15
535.1	16
535.2	18
535.3	18
535.4	18
535.5	15
535.6	10
537.1	8
537.2	11
537.3	12
537.4	11
537.5	9
537.7	8
537.8	10
537.9	12
538.0	13
538.1	13
538.2	13
538.3	11
538.4	9
539.9	5
540.0	7
540.1	11
540.2	14
540.3	15
540.4	14
540.5	14
540.6	15
540.7	14
540.8	11
540.9	8
541.2	6
541.3	9
541.4	13
541.5	15
541.6	14
541.7	9
541.8	5
542.0	3
542.1	5
542.2	7
542.3	7
542.4	7
542.5	7
542.6	8
542.7	10
542.8	12
542.9	14
543.0	15
543.1	15
543.2	15
543.3	13
543.4	11
543.5	10
543.6	10
543.7	10
543.8	9
544.4	7
544.5	8
544.6	10
544.7	12
544.8	14
544.9	13
545.0	11
545.3	9
545.4	10
545.5	12
545.6	13
545.7	14
545.8	12
545.9	9
546.1	7
546.2	9
546.3	11
546.4	12
546.5	11
546.6	9
547.9	3
548.0	7
548.1	11
548.2	13
548.3	13
548.4	11
548.7	6
548.8	10
548.9	13
549.0	13
549.1	10
549.2	10
549.3	11
549.4	10
549.5	7
549.7	5
549.8	9
549.9	12
550.0	12
550.1	10
550.3	8
550.4	9
550.5	13
550.6	16
550.7	18
550.8	16
550.9	14
551.0	12
551.1	11
551.3	8
551.4	10
551.5	13
551.6	15
551.7	14
552.6	9
552.7	11
552.8	13
552.9	13
553.0	12
553.1	9
553.3	3
553.4	6
553.5	11
553.6	13
553.7	11
553.8	7
554.0	5
554.1	7
554.2	9
554.3	12
554.4	14
554.5	13
554.6	10
555.8	11
555.9	11
556.0	13
556.1	17
556.2	19
556.3	18
556.4	13
556.6	9
556.7	12
556.8	14
556.9	12
557.0	9
557.2	7
557.3	8
557.4	11
557.5	13
557.6	12
557.7	8
557.8	5
558.0	3
558.1	4
558.2	6
558.3	8
558.4	10
558.5	10
558.6	11
558.7	13
558.8	14
558.9	13
559.0	10
559.1	5
559.3	3
559.4	6
559.5	10
559.6	15
559.7	17
559.8	16
559.9	13
560.0	10
560.3	9
560.4	12
560.5	14
560.6	15
560.7	13
560.9	11
561.0	14
561.1	15
561.2	14
562.2	10
562.3	11
562.4	13
562.5	12
562.6	10
563.1	8
563.2	9
563.3	9
563.4	10
563.5	10
563.8	8
563.9	9
564.0	11
564.1	12
564.2	12
564.3	12
564.4	11
565.4	8
565.5	8
565.6	9
565.7	12
565.8	14
565.9	13
566.0	9
566.2	7
566.3	11
566.4	14
566.5	13
566.8	10
566.9	13
567.0	15
567.1	16
567.2	13
567.3	10
567.9	6
568.0	7
568.1	11
568.2	12
568.3	11
568.4	9
568.5	7
568.6	7
568.7	6
568.9	4
569.0	6
569.1	8
569.2	11
569.3	13
569.4	14
569.5	13
569.6	12
569.7	11
569.8	10
569.9	8
570.2	5
570.3	8
570.4	9
570.5	9
570.6	8
570.7	8
570.8	9
570.9	11
571.0	13
571.1	16
571.2	18
571.3	18
571.4	15
571.5	10
571.7	8
571.8	11
571.9	13
572.0	13
572.1	11
572.2	9
572.3	8
572.7	8
572.8	9
572.9	10
573.0	11
573.1	11
573.2	9
573.3	8
574.1	5
574.2	8
574.3	12
574.4	13
574.5	11
574.6	9
574.7	8
575.0	8
575.1	8
575.2	10
575.3	11
575.4	11
575.5	11
575.6	10
575.7	10
575.8	12
575.9	13
576.0	13
576.1	13
576.2	13
576.3	12
576.4	10
576.6	8
576.7	10
576.8	11
576.9	11
577.0	11
577.1	10
577.5	9
577.6	10
577.7	12
577.8	13
577.9	14
578.0	12
578.1	10
578.2	9
578.4	7
578.5	8
578.6	10
578.7	12
578.8	13
578.9	13
579.0	11
579.1	9
579.3	7
579.4	9
579.5	12
579.6	13
579.7	11
579.8	7
580.0	5
580.1	8
580.2	11
580.3	12
580.4	11
580.5	9
580.6	6
580.8	4
580.9	5
581.0	8
581.1	9
581.2	9
582.0	5
582.1	8
582.2	11
582.3	13
582.4	12
582.5	9
583.7	7
583.8	10
583.9	12
584.0	13
584.1	12
584.2	10
584.5	7
584.6	8
584.7	9
584.8	9
584.9	8
585.0	8
585.1	7
585.4	5
585.5	6
585.6	8
585.7	11
585.8	14
585.9	16
586.0	13
586.1	8
586.3	2
586.4	7
586.5	13
586.6	17
586.7	17
586.8	14
586.9	11
587.1	8
587.2	10
587.3	13
587.4	14
587.5	13
587.6	11
587.7	10
587.8	8
587.9	5
588.1	4
588.2	6
588.3	10
588.4	12
588.5	14
588.6	13
588.7	13
588.8	13
588.9	11
589.0	7
589.3	6
589.4	8
589.5	11
589.6	13
589.7	14
589.8	13
589.9	12
590.0	11
590.3	9
590.4	11
590.5	14
590.6	16
590.7	14
590.8	10
591.0	8
591.1	10
591.2	11
591.3	11
591.4	10
591.5	10
591.6	11
591.7	12
591.8	13
591.9	11
593.5	5
593.6	7
593.7	8
593.8	7
594.1	6
594.2	9
594.3	11
594.4	11
594.5	9
594.6	10
594.7	13
594.8	16
594.9	14
595.0	8
595.2	5
595.3	9
595.4	13
595.5	15
595.6	13
595.7	9
596.5	8
596.6	9
596.7	9
596.8	10
596.9	10
597.0	10
597.1	10
597.2	10
597.3	11
597.4	12
597.5	11
599.2	9
599.3	8
599.4	9
599.5	12
599.6	14
599.7	15
599.8	14
599.9	11
600.2	10
600.3	11
600.4	11
600.5	11
600.6	11
600.7	12
600.8	13
600.9	13
601.0	12
601.1	11
601.2	11
601.8	8
601.9	9
602.0	11
602.1	13
602.2	14
602.3	13
602.4	14
602.5	16
602.6	17
602.7	16
602.8	14
603.6	6
603.7	9
603.8	10
603.9	11
604.0	13
604.1	14
604.2	13
604.3	12
604.4	10
605.7	10
605.8	11
605.9	12
606.0	13
606.1	13
606.2	12
606.5	9
606.6	10
606.7	11
606.8	12
606.9	11
607.0	11
607.1	12
607.2	13
607.3	13
607.4	11
607.5	8
607.7	6
607.8	8
607.9	10
608.0	9
608.1	8
608.2	9
608.3	12
608.4	15
608.5	14
608.6	12
608.7	9
608.8	7
608.9	4
609.1	2
609.2	6
609.3	10
609.4	13
609.5	13
609.6	10
609.9	8
610.0	11
610.1	13
610.2	13
610.3	12
610.4	10
610.7	7
610.8	9
610.9	11
611.0	12
611.1	11
611.2	10
611.3	11
611.4	12
611.5	13
611.6	13
611.7	13
611.8	14
611.9	14
612.0	13
612.1	11
612.2	11
612.3	9
612.4	7
612.6	6
612.7	8
612.8	12
612.9	16
613.0	18
613.1	18
613.2	15
613.3	13
615.0	4
615.1	8
615.2	14
615.3	16
615.4	15
615.5	13
615.6	10
615.9	8
616.0	11
616.1	12
616.2	12
616.3	10
616.4	9
616.7	9
616.8	10
616.9	10
617.0	11
617.1	12
617.2	11
617.5	9
617.6	11
617.7	12
617.8	12
617.9	13
618.0	13
618.1	14
618.2	15
618.3	16
618.4	16
618.5	13
618.6	8
618.8	5
618.9	9
619.0	12
619.1	12
619.2	10
619.5	10
619.6	10
619.7	11
619.8	13
619.9	15
620.0	16
620.1	14
620.2	10
620.9	7
621.0	8
621.1	9
621.2	11
621.3	13
621.4	13
621.5	13
621.6	13
621.7	13
621.8	14
621.9	12
622.0	10
622.5	9
622.6	9
622.7	11
622.8	14
622.9	13
623.0	11
623.2	10
623.3	12
623.4	13
623.5	12
623.6	8
623.8	5
623.9	7
624.0	10
624.1	12
624.2	13
624.3	12
624.4	9
624.7	6
624.8	9
624.9	11
625.0	13
625.1	14
625.2	13
625.6	11
625.7	12
625.8	14
625.9	14
626.0	12
626.1	8
626.8	6
626.9	7
627.0	8
627.1	9
627.2	9
627.3	10
627.4	11
627.5	12
627.6	13
627.7	15
627.8	15
627.9	12
628.0	9
628.2	7
628.3	8
628.4	11
628.5	13
628.6	13
629.4	8
629.5	10
629.6	11
629.7	11
629.8	9
629.9	6
630.1	5
630.2	6
630.3	8
630.4	10
630.5	11
630.6	11
630.7	9
630.8	8
631.1	8
631.2	10
631.3	12
631.4	14
631.5	14
631.6	13
631.7	12
631.8	10
632.5	8
632.6	10
632.7	11
632.8	11
632.9	12
633.0	13
633.1	15
633.2	14
633.3	10
633.6	7
633.7	10
633.8	12
633.9	13
634.0	14
634.1	14
635.1	7
635.2	9
635.3	11
635.4	12
635.5	11
635.6	10
636.5	6
636.6	9
636.7	13
636.8	15
636.9	12
637.0	7
637.2	4
637.3	6
637.4	9
637.5	11
637.6	12
637.7	12
637.8	12
637.9	11
638.0	11
638.3	9
638.4	11
638.5	13
638.6	15
638.7	14
638.8	11
638.9	7
639.7	6
639.8	7
639.9	8
640.0	8
640.1	7
640.2	4
640.5	4
640.6	5
640.7	7
640.8	8
640.9	9
641.0	11
641.1	12
641.2	12
641.3	11
641.7	9
641.8	10
641.9	12
642.0	11
642.1	10
642.3	7
642.4	9
642.5	12
642.6	13
642.7	11
642.8	9
642.9	7
643.3	6
643.4	7
643.5	9
643.6	11
643.7	11
643.8	12
643.9	13
644.0	14
644.1	15
644.2	15
644.3	14
644.4	12
644.7	8
644.8	11
644.9	14
645.0	13
645.1	11
645.2	9
646.1	8
646.2	9
646.3	10
646.4	11
646.5	11
646.6	9
646.8	5
646.9	8
647.0	13
647.1	15
647.2	14
647.3	12
647.4	10
647.5	8
647.6	5
647.8	2
647.9	4
648.0	8
648.1	10
648.2	9
648.3	9
648.4	10
648.5	11
648.6	10
648.8	6
648.9	9
649.0	13
649.1	15
649.2	14
649.3	12
649.4	10
650.2	5
650.3	9
650.4	10
650.7	8
650.8	10
650.9	12
651.0	12
651.1	12
651.2	11
651.5	9
651.6	11
651.7	12
651.8	11
651.9	8
652.1	6
652.2	7
652.3	9
652.4	11
652.5	11
652.6	10
652.7	10
652.8	10
652.9	10
653.0	8
653.2	6
653.3	9
653.4	13
653.5	14
653.6	13
653.7	9
653.9	8
654.0	11
654.1	14
654.2	14
654.5	11
654.6	13
654.7	15
654.8	16
654.9	16
655.0	17
655.1	16
655.2	14
655.3	12
655.4	11
655.5	10
656.1	9
656.2	10
656.3	12
656.4	14
656.5	13
656.6	11
657.4	8
657.5	10
657.6	11
657.7	11
657.8	11
657.9	12
658.0	12
658.3	9
658.4	12
658.5	14
658.6	15
658.7	13
659.9	7
660.0	8
660.1	10
660.2	12
660.3	11
660.4	11
660.5	11
660.6	11
660.7	10
660.9	8
661.0	10
661.1	12
661.2	12
661.3	11
661.4	10
661.5	10
661.6	9
661.8	6
661.9	9
662.0	12
662.1	13
662.2	11
663.0	6
663.1	8
663.2	11
663.3	11
663.4	9
663.5	7
663.7	4
663.8	5
663.9	9
664.0	13
664.1	16
664.2	17
664.3	16
664.4	15
664.5	13
664.6	11
664.7	10
664.9	8
665.0	10
665.1	12
665.2	12
665.3	10
665.4	10
665.5	11
665.6	14
665.7	16
665.8	15
665.9	14
666.0	13
666.1	13
666.2	12
666.3	11
666.4	11
667.8	7
667.9	8
668.0	10
668.1	14
668.2	16
668.3	14
668.4	10
668.7	7
668.8	11
668.9	16
669.0	18
669.1	16
669.2	12
669.5	10
669.6	12
669.7	14
669.8	13
669.9	9
670.2	6
670.3	9
670.4	10
670.5	9
670.6	10
670.7	12
670.8	14
670.9	12
671.2	9
671.3	11
671.4	13
671.5	12
672.3	5
672.4	8
672.5	12
672.6	14
672.7	13
672.8	12
672.9	10
673.0	7
673.2	5
673.3	8
673.4	11
673.5	11
673.6	10
673.7	10
673.8	10
673.9	10
674.0	9
674.3	8
674.4	9
674.5	10
674.6	10
674.7	11
674.8	12
674.9	13
675.0	14
675.1	13
675.2	10
675.4	9
675.5	11
675.6	13
675.7	15
675.8	15
675.9	13
676.0	9
676.3	7
676.4	9
676.5	10
676.6	12
676.7	14
676.8	18
676.9	19
677.0	18
677.1	15
677.2	11
677.6	9
677.7	10
677.8	11
677.9	12
678.0	12
678.1	10
678.2	10
678.3	10
678.4	10
678.5	8
678.8	5
678.9	7
679.0	9
679.1	11
679.2	13
679.3	14
679.4	13
679.5	11
679.7	9
679.8	11
679.9	13
680.0	14
680.1	13
680.2	11
680.3	9
680.5	8
680.6	10
680.7	11
680.8	10
680.9	8
681.1	7
681.2	9
681.3	10
681.4	11
681.5	11
681.6	11
681.7	11
681.8	11
681.9	10
682.0	6
682.2	0
682.3	4
682.4	10
682.5	15
682.6	15
682.7	13
682.8	10
683.9	6
684.0	7
684.1	9
684.2	10
684.3	10
684.4	8
684.7	4
684.8	8
684.9	14
685.0	17
685.1	16
685.2	12
685.3	7
685.5	6
685.6	8
685.7	10
685.8	11
685.9	11
686.0	11
686.1	12
686.2	13
686.3	12
686.4	11
686.5	8
686.6	6
686.7	5
687.0	4
687.1	5
687.2	8
687.3	13
687.4	17
687.5	17
687.6	15
687.7	12
688.0	10
688.1	11
688.2	12
688.3	11
688.4	8
688.6	5
688.7	9
688.8	13
688.9	15
689.0	12
689.1	7
689.3	4
689.4	7
689.5	10
689.6	11
689.7	11
689.8	10
689.9	11
690.0	13
690.1	14
690.2	14
690.3	13
690.4	11
690.7	8
690.8	9
690.9	11
691.0	12
691.1	11
691.2	9
691.5	6
691.6	9
691.7	14
691.8	16
691.9	13
692.0	8
692.3	6
692.4	8
692.5	9
692.6	8
692.9	7
693.0	9
693.1	11
693.2	11
693.3	11
693.4	11
693.5	11
693.6	10
693.7	11
693.8	12
693.9	11
694.0	10
694.1	8
694.2	6
694.5	6
694.6	7
694.7	9
694.8	11
694.9	12
695.0	12
695.1	12
695.2	14
695.3	16
695.4	16
695.5	15
695.6	13
695.7	11
695.8	8
696.1	6
696.2	9
696.3	11
696.4	11
696.5	10
696.6	10
696.7	9
696.8	9
696.9	8
697.2	6
697.3	8
697.4	10
697.5	10
697.8	7
697.9	10
698.0	13
698.1	13
698.2	12
699.0	8
699.1	9
699.2	11
699.3	11
699.4	11
699.5	11
699.6	11
699.7	11
699.8	11
699.9	11
700.0	13
700.1	13
700.2	13
700.3	14
700.4	14
700.5	14
700.6	13
700.7	11
700.8	10
702.2	5
702.3	8
702.4	11
702.5	12
702.6	11
702.7	8
703.7	6
703.8	7
703.9	9
704.0	10
704.1	10
704.2	8
704.5	5
704.6	8
704.7	10
704.8	11
704.9	11
705.0	10
705.2	7
705.3	10
705.4	12
705.5	11
705.8	6
705.9	11
706.0	15
706.1	17
706.2	16
706.3	13
706.4	9
707.1	6
707.2	8
707.3	10
707.4	11
707.5	11
707.6	10
707.8	9
707.9	10
708.0	11
708.1	12
708.2	10
708.3	8
708.4	4
708.6	3
708.7	6
708.8	8
708.9	9
709.0	10
709.1	10
709.2	11
709.3	11
709.4	11
710.1	10
710.2	11
710.3	13
710.4	15
710.5	16
710.6	15
710.7	13
710.9	12
711.0	14
711.1	16
711.2	16
711.3	13
711.4	9
711.5	5
711.7	4
711.8	6
711.9	8
712.0	8
712.1	8
712.2	9
712.3	10
712.4	10
712.5	9
712.8	7
712.9	9
713.0	10
713.1	10
713.2	9
713.3	9
713.4	11
713.5	14
713.6	16
713.7	15
713.8	12
713.9	8
714.2	6
714.3	8
714.4	10
714.5	11
714.6	11
714.7	10
715.4	8
715.5	10
715.6	12
715.7	14
715.8	14
715.9	13
716.0	12
716.1	12
716.2	11
716.3	9
717.5	5
717.6	7
717.7	10
717.8	12
717.9	10
718.7	4
718.8	6
718.9	10
719.0	14
719.1	14
719.2	12
719.3	9
719.4	6
719.6	5
719.7	6
719.8	7
719.9	7
720.0	8
720.1	8
720.2	9
720.3	10
720.4	10
720.5	11
720.6	12
720.7	12
720.8	12
721.2	11
721.3	12
721.4	14
721.5	14
721.6	12
721.7	9
721.8	7
722.3	6
722.4	7
722.5	10
722.6	13
722.7	13
722.8	12
722.9	11
723.0	10
723.1	9
723.4	7
723.5	9
723.6	11
723.7	10
723.8	9
723.9	8
724.3	7
724.4	8
724.5	11
724.6	11
724.7	10
724.8	8
724.9	5
725.1	3
725.2	5
725.3	8
725.4	11
725.5	12
725.6	11
725.9	10
726.0	12
726.1	14
726.2	16
726.3	16
726.4	13
726.7	9
726.8	13
726.9	16
727.0	16
727.1	14
727.2	13
727.3	13
727.4	12
727.5	11
727.8	9
727.9	10
728.0	11
728.1	11
728.2	11
728.3	11
728.4	13
728.5	17
728.6	19
728.7	18
728.8	14
729.9	10
730.0	12
730.1	14
730.2	14
730.3	11
730.9	9
731.0	11
731.1	14
731.2	17
731.3	18
731.4	17
731.5	15
731.6	12
731.7	11
731.9	10
732.0	11
732.1	13
732.2	15
732.3	15
732.4	11
733.1	7
733.2	10
733.3	13
733.4	13
734.2	8
734.3	10
734.4	14
734.5	15
734.6	13
734.7	10
736.0	6
736.1	8
736.2	9
736.3	10
736.4	12
736.5	15
736.6	17
736.7	16
736.8	13
738.5	10
738.6	11
738.7	13
738.8	13
738.9	13
739.0	12
739.8	9
739.9	12
740.0	13
740.1	13
740.2	11
741.0	7
741.1	10
741.2	12
741.3	13
741.4	11
741.5	11
741.6	13
741.7	15
741.8	15
741.9	13
742.0	12
744.6	6
744.7	8
744.8	11
744.9	15
745.0	16
745.1	16
745.2	12
745.3	8
746.0	6
746.1	8
746.2	10
746.3	12
746.4	12
746.5	11
746.6	9
746.9	8
747.0	10
747.1	13
747.2	16
747.3	14
747.4	10
748.2	7
748.3	8
748.4	9
748.5	8
748.8	7
748.9	7
749.0	9
749.1	12
749.2	15
749.3	13
749.4	8
749.5	3
749.7	0
749.8	2
749.9	4
750.0	7
750.1	9
750.2	11
750.3	12
750.4	12
751.3	7
751.4	10
751.5	12
751.6	13
751.7	12
751.8	8
752.0	4
752.1	7
752.2	11
752.3	13
752.4	12
752.5	9
752.8	7
752.9	9
753.0	11
753.1	13
753.2	14
753.3	12
753.5	11
753.6	12
753.7	13
753.8	12
754.1	9
754.2	12
754.3	14
754.4	14
754.5	13
754.6	12
754.7	11
754.8	11
754.9	10
755.0	10
755.1	8
755.2	7
755.4	5
755.5	7
755.6	9
755.7	10
755.8	10
756.1	7
756.2	9
756.3	11
756.4	13
756.7	11
756.8	13
756.9	17
757.0	18
757.1	15
757.2	10
757.3	6
757.5	5
757.6	8
757.7	10
757.8	11
757.9	12
758.0	13
758.1	11
758.2	8
758.4	6
758.5	7
758.6	10
758.7	13
758.8	15
758.9	15
759.0	12
760.5	7
760.6	9
760.7	12
760.8	15
760.9	13
761.0	9
761.8	7
761.9	9
762.0	12
762.1	15
762.2	16
762.3	14
762.4	9
762.6	6
762.7	8
762.8	11
762.9	12
763.0	10
763.1	7
763.3	5
763.4	7
763.5	9
763.6	10
763.7	11
763.8	10
763.9	9
764.0	9
764.1	10
764.2	11
764.3	11
764.4	10
764.5	10
764.6	11
764.7	12
764.8	12
764.9	12
766.2	6
766.3	9
766.4	12
766.5	13
766.6	10
766.7	7
766.9	6
767.0	8
767.1	9
767.2	7
767.3	6
767.4	8
767.5	12
767.6	15
767.7	16
767.8	14
767.9	10
768.0	6
768.2	5
768.3	8
768.4	12
768.5	14
768.6	14
768.7	12
768.8	9
769.0	7
769.1	9
769.2	11
769.3	12
769.4	11
769.7	8
769.8	11
769.9	14
770.0	15
770.1	14
770.2	12
771.0	5
771.1	7
771.2	9
771.3	10
771.4	12
771.5	13
771.6	13
771.7	10
772.0	7
772.1	10
772.2	12
772.3	12
772.4	10
772.6	7
772.7	9
772.8	11
772.9	12
773.0	11
774.0	4
774.1	6
774.2	8
774.3	9
774.4	8
774.5	8
774.6	10
774.7	13
774.8	15
774.9	14
775.0	10
775.2	7
775.3	11
775.4	14
775.5	14
775.6	12
775.7	9
776.9	3
777.0	5
777.1	7
777.2	8
777.3	8
777.4	10
777.5	12
777.6	15
777.7	16
777.8	14
777.9	12
778.0	9
778.1	7
778.2	5
778.5	3
778.6	6
778.7	8
778.8	9
778.9	9
779.0	9
779.1	9
779.2	8
779.5	7
779.6	8
779.7	9
779.8	11
779.9	12
780.0	12
780.1	11
780.9	9
781.0	11
781.1	13
781.2	14
781.3	12
781.6	9
781.7	11
781.8	12
781.9	12
782.0	11
782.1	9
782.9	7
783.0	9
783.1	10
783.2	10
783.5	9
783.6	10
783.7	12
783.8	13
783.9	10
784.2	6
784.3	10
784.4	13
784.5	14
784.6	13
784.7	10
785.9	6
786.0	7
786.1	10
786.2	14
786.3	15
786.4	12
786.5	7
786.8	5
786.9	8
787.0	10
787.1	10
787.2	10
787.3	10
787.4	9
787.5	10
787.6	12
787.7	14
787.8	14
787.9	12
788.8	10
788.9	11
789.0	13
789.1	12
789.2	9
791.3	9
791.4	11
791.5	13
791.6	15
791.7	16
791.8	17
791.9	18
792.0	16
792.1	12
792.4	8
792.5	10
792.6	11
792.7	12
792.8	13
792.9	14
793.0	14
793.1	12
793.2	10
793.5	7
793.6	9
793.7	11
793.8	11
793.9	10
794.2	10
794.3	11
794.4	12
794.5	12
794.6	12
794.7	10
794.8	9
794.9	9
795.2	7
795.3	9
795.4	11
795.5	12
795.6	13
795.7	14
795.8	14
795.9	12
796.0	10
796.1	8
796.3	7
796.4	9
796.5	12
796.6	14
796.7	13
796.8	11
796.9	10
797.0	9
797.3	7
797.4	9
797.5	12
797.6	15
797.7	16
797.8	14
797.9	13
798.6	10
798.7	13
798.8	16
798.9	17
799.0	14
799.1	11
