Mass spectrum: Huperzine A; LC-ESI-QQQ; MS2; Frag=135.0V CID@10.0; [M+H]+
Name: Huperzine A
Class: Terpenoids
Formula: C15H18N2O
Exact mass: 242.3235
SMILES: C/C=C1\C2C=C(C)CC1(N)c1ccc(O)nc1C2
InChI: InChI=1S/C15H18N2O/c1-3-11-10-6-9(2)8-15(11,16)12-4-5-14(18)17-13(12)7-10/h3-6,10H,7-8,16H2,1-2H3,(H,17,18)/b11-3+
Instrument: Agilent 6410 Triple Quadrupole LC/MS system
Instrument type: LC-ESI-QQQ
Ms type: MS2
Ion mode: POSITIVE
Precursor type: [M+H]+
m/z	relative intensity
225.4	1
225.5	2
225.6	5
225.7	8
225.8	13
225.9	20
226.0	25
226.1	29
226.2	29
226.3	27
226.4	22
226.5	14
226.6	6
226.7	1
242.3	0
242.4	1
242.5	5
242.6	11
242.7	22
242.8	38
242.9	60
243.0	82
243.1	96
243.2	99
243.3	92
243.4	75
243.5	49
243.6	22
243.7	4
