Mass spectrum: Sinomenine; LC-ESI-QQQ; MS; [M+H]+
Name: Kukoline
Name: Cocculine
Name: Cucoline
Name: 4-Hydroxy-3,7-dimethoxy-17-methylmorphin-7-en-6-one
Name: Sinomenine
Class: Alkaloids
Formula: C19H23NO4
Exact mass: 329.3995
SMILES: COC1=C[C@@H]2[C@@H]3Cc4ccc(OC)c(O)c4[C@]2(CCN3C)CC1=O
InChI: InChI=1S/C19H23NO4/c1-20-7-6-19-10-14(21)16(24-3)9-12(19)13(20)8-11-4-5-15(23-2)18(22)17(11)19/h4-5,9,12-13,22H,6-8,10H2,1-3H3/t12-,13+,19-/m1/s1
Instrument: ABSciex API3200 LC/MS system
Instrument type: LC-ESI-QQQ
Ms type: MS
Ion mode: POSITIVE
Precursor type: [M+H]+
m/z	relative intensity
101.2000	26
101.3000	28
180.6000	25
180.7000	23
180.8000	28
180.9000	34
181.0000	28
181.1000	29
181.2000	27
194.8000	23
206.7000	21
206.8000	29
207.0000	21
207.1000	21
208.6000	21
209.3000	34
212.6000	29
212.7000	26
212.8000	23
213.0000	25
213.2000	22
222.5000	29
222.6000	30
222.7000	36
222.8000	40
222.9000	33
223.0000	31
223.1000	26
223.2000	45
223.3000	28
223.4000	27
238.4000	47
238.5000	47
238.6000	41
238.7000	35
238.8000	44
238.9000	37
239.0000	34
239.1000	38
239.2000	31
239.3000	50
239.4000	31
240.4000	22
240.5000	24
240.6000	26
240.7000	29
240.8000	35
240.9000	32
241.0000	30
241.1000	31
241.2000	31
241.3000	29
254.6000	29
254.7000	25
254.8000	25
254.9000	30
255.0000	29
255.1000	27
255.2000	26
255.3000	23
255.4000	21
329.3000	39
329.4000	259
329.5000	654
329.6000	914
329.7000	937
329.8000	941
329.9000	929
330.0000	925
330.1000	999
330.2000	895
330.3000	708
330.4000	619
330.5000	420
330.6000	324
330.7000	359
330.8000	446
330.9000	408
331.0000	359
331.1000	348
331.2000	341
331.3000	331
331.4000	294
331.5000	177
331.6000	124
331.7000	89
331.8000	159
331.9000	71
332.0000	63
332.1000	70
332.2000	59
332.3000	64
332.4000	57
332.5000	22
