Mass spectrum: Geniposide; LC-ESI-QQQ; MS; [M+H]+
Name: Geniposide
Class: Terpenoids
Formula: C17H24O10
Exact mass: 388.3748
SMILES: COC(=O)C1=CO[C@@H](OC2O[C@H](CO)[C@@H](O)[C@H](O)[C@H]2O)[C@@H]2C(CO)=CC[C@H]12
InChI: InChI=1S/C17H24O10/c1-24-15(23)9-6-25-16(11-7(4-18)2-3-8(9)11)27-17-14(22)13(21)12(20)10(5-19)26-17/h2,6,8,10-14,16-22H,3-5H2,1H3/t8-,10-,11-,12-,13+,14-,16+,17?/m1/s1
Instrument: ABSciex API3200 LC/MS system
Instrument type: LC-ESI-QQQ
Ms type: MS
Ion mode: POSITIVE
Precursor type: [M+H]+
m/z	relative intensity
118.4000	56
118.5000	115
118.6000	120
118.7000	105
118.8000	50
118.9000	44
119.1000	43
119.2000	56
119.3000	63
119.4000	62
119.5000	26
119.6000	25
120.1000	26
120.2000	22
120.3000	26
120.4000	24
120.5000	46
120.6000	45
120.7000	29
120.8000	49
120.9000	34
121.0000	42
121.1000	53
121.2000	41
121.3000	39
121.4000	21
148.4000	66
148.5000	170
148.6000	195
148.7000	189
148.8000	215
148.9000	258
149.0000	284
149.1000	425
149.2000	169
149.3000	163
149.4000	193
149.5000	47
149.6000	23
149.7000	22
150.0000	21
150.2000	25
158.6000	24
158.7000	30
158.8000	30
158.9000	41
159.0000	34
159.1000	40
159.2000	23
176.4000	53
176.5000	102
176.6000	174
176.7000	177
176.8000	144
176.9000	184
177.0000	171
177.1000	171
177.2000	220
177.3000	335
177.4000	360
177.5000	28
178.0000	22
178.3000	25
180.5000	37
180.6000	75
180.7000	79
180.8000	59
180.9000	67
181.0000	71
181.1000	58
181.2000	53
181.3000	48
181.4000	36
181.7000	44
190.4000	46
190.5000	35
190.6000	58
190.7000	53
190.8000	74
190.9000	76
191.0000	79
191.1000	76
191.2000	58
191.3000	37
191.4000	41
208.3000	74
208.4000	144
208.5000	344
208.6000	640
208.7000	660
208.8000	647
208.9000	956
209.0000	502
209.1000	428
209.2000	393
209.3000	387
209.4000	295
209.5000	130
209.6000	79
209.7000	80
209.8000	56
209.9000	53
210.0000	70
210.1000	52
210.2000	50
210.3000	49
210.4000	45
226.3000	139
226.4000	490
226.5000	696
226.6000	811
226.7000	900
226.8000	948
226.9000	999
227.0000	946
227.1000	841
227.2000	836
227.3000	763
227.4000	619
227.5000	248
227.6000	187
227.7000	134
227.8000	129
227.9000	120
228.0000	157
228.1000	123
228.2000	134
228.3000	138
228.4000	100
228.9000	23
229.1000	23
278.6000	24
370.4000	23
370.5000	27
370.6000	30
370.7000	31
370.8000	36
370.9000	55
371.0000	25
371.1000	24
371.2000	30
371.3000	25
388.3000	29
388.4000	88
388.5000	225
388.6000	239
388.7000	288
388.8000	307
388.9000	294
389.0000	289
389.1000	293
389.2000	775
389.3000	269
389.4000	150
389.5000	60
389.6000	67
389.7000	44
389.8000	45
389.9000	49
390.0000	40
390.1000	57
390.2000	47
390.3000	41
390.4000	34
405.5000	28
405.6000	27
405.7000	49
405.8000	41
405.9000	46
406.0000	36
406.1000	59
406.2000	30
406.3000	61
406.4000	29
406.5000	29
406.6000	27
407.4000	24
429.9000	22
533.1000	23
550.6000	21
550.7000	26
550.8000	27
550.9000	23
551.0000	31
551.1000	23
551.2000	26
551.3000	88
614.9000	60
615.0000	60
776.2000	35
776.3000	65
776.4000	209
776.5000	335
776.6000	389
776.7000	445
776.8000	462
776.9000	414
777.0000	434
777.1000	421
777.2000	329
777.3000	259
777.4000	168
777.5000	125
777.6000	157
777.7000	170
777.8000	190
777.9000	156
778.0000	178
778.1000	139
778.2000	110
778.3000	83
778.4000	33
778.5000	42
778.6000	37
778.7000	44
778.8000	42
778.9000	40
779.0000	38
779.1000	50
779.2000	33
794.1000	25
794.4000	41
