Mass spectrum: Karakoline; LC-ESI-QQQ; MS2; Frag=135.0V CID@25.0; [M+H]+
Name: Karacoline
Name: Carmicheline
Name: 20-ethyl-16beta-methoxy-4-methylaconitane-1alpha,8,14alpha-triol
Name: Karakoline
Class: Alkaloids
Formula: C22H35NO4
Exact mass: 377.5286
SMILES: CCN1C[C@]2(C)CC[C@H](O)[C@@]34C5C[C@@H]6[C@@H](OC)C[C@@](O)(C5[C@H]6O)[C@@H](CC32)C14
InChI: InChI=1S/C22H35NO4/c1-4-23-10-20(2)6-5-16(24)22-12-7-11-14(27-3)9-21(26,17(12)18(11)25)13(19(22)23)8-15(20)22/h11-19,24-26H,4-10H2,1-3H3/t11-,12?,13+,14+,15?,16+,17?,18+,19?,20+,21+,22-/m1/s1
Instrument: Agilent 6410 Triple Quadrupole LC/MS system
Instrument type: LC-ESI-QQQ
Ms type: MS2
Ion mode: POSITIVE
Precursor type: [M+H]+
m/z	relative intensity
359.6	2
359.7	3
359.8	6
359.9	10
360.0	16
360.1	21
360.2	25
360.3	27
360.4	25
360.5	20
360.6	12
360.7	4
360.8	0
377.4	1
377.5	3
377.6	6
377.7	11
377.8	21
377.9	37
378.0	58
378.1	80
378.2	95
378.3	99
378.4	91
378.5	72
378.6	45
378.7	19
378.8	2
