Mass spectrum: Ginkgolide B; LC-ESI-QQQ; MS2; Frag=135.0V CID@5.0; [M+H]+
Name: Ginkgolide B
Class: Terpenoids
Formula: C20H24O10
Exact mass: 424.4083
SMILES: C[C@@H]1C(=O)O[C@H]2[C@H](O)[C@@]34[C@H]5C[C@@H](C(C)(C)C)[C@]36[C@@H](OC(=O)[C@@H]6O)O[C@@]4(C(=O)O5)[C@@]12O
InChI: InChI=1S/C20H24O10/c1-6-12(23)28-11-9(21)18-8-5-7(16(2,3)4)17(18)10(22)13(24)29-15(17)30-20(18,14(25)27-8)19(6,11)26/h6-11,15,21-22,26H,5H2,1-4H3/t6-,7+,8-,9+,10+,11+,15+,17+,18+,19-,20-/m1/s1
Instrument: Agilent 6410 Triple Quadrupole LC/MS system
Instrument type: LC-ESI-QQQ
Ms type: MS2
Ion mode: POSITIVE
Precursor type: [M+H]+
m/z	relative intensity
424.2	0
424.3	1
424.4	4
424.5	9
424.6	17
424.7	29
424.8	46
424.9	67
425.0	85
425.1	97
425.2	99
425.3	92
425.4	73
425.5	45
425.6	18
425.7	1
