Mass spectrum: Yohimbic acid; LC-ESI-QQQ; MS2; Frag=135.0V CID@10.0; [M+H]+
Name: Yohimbic acid
Class: Alkaloids
Formula: C20H24N2O3
Exact mass: 340.4259
SMILES: O=C(O)[C@H]1[C@@H](O)CCC2CN3CCc4c([nH]c5ccccc45)[C@@H]3C[C@@H]21
InChI: InChI=1S/C20H24N2O3/c23-17-6-5-11-10-22-8-7-13-12-3-1-2-4-15(12)21-19(13)16(22)9-14(11)18(17)20(24)25/h1-4,11,14,16-18,21,23H,5-10H2,(H,24,25)/t11?,14-,16-,17-,18+/m0/s1
Instrument: Agilent 6410 Triple Quadrupole LC/MS system
Instrument type: LC-ESI-QQQ
Ms type: MS2
Ion mode: POSITIVE
Precursor type: [M+H]+
m/z	relative intensity
143.7	2
143.8	3
143.9	4
144.0	5
144.1	6
144.2	6
144.3	5
144.4	4
144.5	2
340.4	1
340.5	3
340.6	7
340.7	13
340.8	24
340.9	42
341.0	66
341.1	88
341.2	99
341.3	97
341.4	82
341.5	55
341.6	26
341.7	5
341.8	0
