Mass spectrum: epicatechin; LC-ESI-QQQ; MS; [M+H]+
Name: EpCt-pl
Name: ent-Epicatechin
Name: Epicatechol
Name: (+)-3,3',4',5,7-Pentahydroxyflavan
Name: (2S,3S)-(+)-Epicatechin / EpCt-mi
Name: (-)-3,3',4',5,7-Pentahydroxyflavan
Name: (2R,3R)-(-)-Epicatechin
Name: epicatechin
Class: Flavonoids
Formula: C15H14O6
Exact mass: 290.2752
SMILES: C1C(C(OC2=CC(=CC(=C21)O)O)C3=CC(=C(C=C3)O)O)O
InChI: InChI=1S/C15H14O6/c16-8-4-11(18)9-6-13(20)15(21-14(9)5-8)7-1-2-10(17)12(19)3-7/h1-5,13,15-20H,6H2
Instrument: ABSciex API3200 LC/MS system
Instrument type: LC-ESI-QQQ
Ms type: MS
Ion mode: POSITIVE
Precursor type: [M+H]+
m/z	relative intensity
102.2000	23
102.3000	27
102.4000	36
114.4000	25
118.7000	22
118.8000	87
118.9000	308
119.0000	474
119.1000	662
119.2000	580
119.3000	428
119.4000	313
119.5000	204
119.6000	67
119.7000	46
119.8000	65
119.9000	24
120.0000	53
120.1000	34
120.2000	27
122.4000	56
122.5000	155
122.6000	167
122.7000	192
122.8000	211
122.9000	223
123.0000	256
123.1000	161
123.2000	158
123.3000	107
123.4000	84
123.5000	53
123.6000	25
124.0000	31
124.1000	37
134.9000	69
138.3000	49
138.4000	301
138.5000	286
138.6000	385
138.7000	486
138.8000	533
138.9000	461
139.0000	492
139.1000	425
139.2000	387
139.3000	296
139.4000	276
139.5000	110
139.6000	28
139.7000	22
139.8000	50
139.9000	44
140.2000	54
140.3000	30
140.4000	24
146.5000	30
146.7000	49
146.8000	35
146.9000	34
147.0000	24
147.1000	29
147.2000	22
147.3000	24
150.7000	23
151.1000	30
164.5000	84
164.6000	64
164.7000	70
164.8000	64
164.9000	62
165.0000	64
165.1000	84
165.2000	90
165.3000	87
165.4000	37
179.3000	22
221.1000	37
221.2000	91
226.6000	42
272.5000	61
272.6000	51
273.3000	29
288.8000	27
288.9000	37
289.2000	25
290.2000	32
290.3000	146
290.4000	488
290.5000	642
290.6000	901
290.7000	845
290.8000	748
290.9000	815
291.0000	763
291.1000	999
291.2000	743
291.3000	611
291.4000	447
291.5000	242
291.6000	227
291.7000	102
291.8000	128
291.9000	114
292.0000	164
292.1000	134
292.2000	133
292.3000	82
292.4000	94
292.5000	35
292.8000	25
292.9000	23
293.2000	32
331.5000	23
332.0000	23
578.7000	26
578.8000	23
578.9000	38
579.1000	32
580.2000	27
580.3000	39
580.4000	57
580.5000	73
580.6000	104
580.7000	145
580.8000	110
580.9000	82
581.0000	123
581.1000	95
581.2000	83
581.3000	51
581.5000	36
581.6000	26
581.7000	33
581.8000	67
581.9000	45
582.0000	27
582.1000	39
582.2000	33
597.5000	29
597.6000	23
597.7000	26
597.8000	25
598.0000	35
598.1000	44
598.2000	23
598.8000	35
599.1000	26
870.4000	27
870.7000	36
870.8000	23
870.9000	39
871.0000	33
871.1000	36
871.2000	29
871.7000	45
