Mass spectrum: Ajugalide E; LC-ESI-QQQ; MS2; Frag=135.0V CID@10.0; [M+HCOO]-
Name: Ajugalide E
Class: Terpenoids
Formula: C31H46O9
Exact mass: 562.7069
SMILES: CC(=O)O[C@H](CC1C(C)OC(=O)C1C)[C@](C)(O)C1CC[C@@]2(O)C3=CC(=O)[C@@H]4C[C@@H](O)C(O)C[C@]4(C)C3CC[C@]12C
InChI: InChI=1S/C31H46O9/c1-15-18(16(2)39-27(15)36)11-26(40-17(3)32)30(6,37)25-8-10-31(38)20-12-22(33)21-13-23(34)24(35)14-28(21,4)19(20)7-9-29(25,31)5/h12,15-16,18-19,21,23-26,34-35,37-38H,7-11,13-14H2,1-6H3/t15?,16?,18?,19?,21-,23+,24?,25?,26+,28+,29+,30+,31+/m0/s1
Instrument: Agilent 6410 Triple Quadrupole LC/MS system
Instrument type: LC-ESI-QQQ
Ms type: MS2
Ion mode: NEGATIVE
Precursor type: [M+HCOO]-
m/z	relative intensity
500.3	0
500.4	1
500.5	5
500.6	9
500.7	13
500.8	17
500.9	21
501.0	25
501.1	28
501.2	31
501.3	35
501.4	34
501.5	25
501.6	11
501.7	1
560.4	0
560.5	1
560.6	3
560.7	6
560.8	8
560.9	9
561.0	9
561.1	8
561.2	9
561.3	11
561.4	12
561.5	10
561.6	5
561.7	1
606.2	0
606.3	1
606.4	4
606.5	9
606.6	16
606.7	31
606.8	53
606.9	72
607.0	80
607.1	78
607.2	80
607.3	91
607.4	99
607.5	87
607.6	55
607.7	19
607.8	0
