Mass spectrum: physostigmine; LC-ESI-QQQ; MS2; Frag=135.0V CID@10.0; [M+H]+
Name: Physostigmine
Name: Physostol
Name: Antilirium
Name: Esromiotin
Name: Ezerin
Name: Calabarine
Name: Fysostigmin
Name: ((3aS,8aR)-1,8,3a-trimethylpyrrolidino(2,3-b)indolin-5-yloxy)-N-methylcarboxamide / Eserine
Name: Cogmine
Name: physostigmine
Class: Alkaloids
Formula: C15H21N3O2
Exact mass: 275.3535
SMILES: CN=C(O)Oc1ccc2c(c1)[C@]1(C)CCN(C)[C@@H]1N2C
InChI: InChI=1S/C15H21N3O2/c1-15-7-8-17(3)13(15)18(4)12-6-5-10(9-11(12)15)20-14(19)16-2/h5-6,9,13H,7-8H2,1-4H3,(H,16,19)/t13-,15+/m1/s1
Instrument: Agilent 6410 Triple Quadrupole LC/MS system
Instrument type: LC-ESI-QQQ
Ms type: MS2
Ion mode: POSITIVE
Precursor type: [M+H]+
m/z	relative intensity
161.3	1
161.4	3
161.5	8
161.6	17
161.7	32
161.8	52
161.9	74
162.0	91
162.1	99
162.2	98
162.3	87
162.4	66
162.5	39
162.6	14
162.7	0
175.5	1
175.6	2
175.7	4
175.8	7
175.9	10
176.0	13
176.1	15
176.2	15
176.3	14
176.4	12
176.5	7
176.6	3
218.3	0
218.4	2
218.5	6
218.6	12
218.7	21
218.8	36
218.9	53
219.0	70
219.1	80
219.2	82
219.3	74
219.4	58
219.5	36
219.6	15
219.7	1
232.8	3
232.9	4
233.0	6
233.1	7
233.2	8
233.3	7
233.4	6
233.5	4
233.6	1
