Mass spectrum: Thalicarpine; LC-ESI-QQQ; MS2; Frag=135.0V CID@10.0; [M+H]+
Name: Thaliblastine
Name: Taliblastine
Name: Thalicarpin
Name: Taliblastin
Name: Thalicarpine
Class: Alkaloids
Formula: C41H48N2O8
Exact mass: 696.8483
SMILES: COc1cc(CC2c3cc(OC)c(OC)cc3CCN2C)c(Oc2cc3c(cc2OC)-c2c(OC)c(OC)cc4c2C(C3)N(C)CC4)cc1OC
InChI: InChI=1S/C41H48N2O8/c1-42-12-10-23-16-32(44-3)34(46-5)20-27(23)29(42)15-26-19-33(45-4)36(48-7)22-31(26)51-37-18-25-14-30-39-24(11-13-43(30)2)17-38(49-8)41(50-9)40(39)28(25)21-35(37)47-6/h16-22,29-30H,10-15H2,1-9H3
Instrument: Agilent 6410 Triple Quadrupole LC/MS system
Instrument type: LC-ESI-QQQ
Ms type: MS2
Ion mode: POSITIVE
Precursor type: [M+H]+
m/z	relative intensity
696.5	1
696.6	4
696.7	19
696.8	40
696.9	55
697.0	55
697.1	50
697.2	56
697.3	79
697.4	99
697.5	92
697.6	57
697.7	18
697.8	0
