Mass spectrum: 3-Dimethylaminoacetyl-5-methoxyindole; LC-ESI-QQQ; MS2; Frag=135.0V CID@5.0; [M+H]+
Name: 3-Dimethylaminoacetyl-5-methoxyindole
Class: Alkaloids
Formula: C13H16N2O2
Exact mass: 232.2847
SMILES: COc1ccc2[nH]cc(C(=O)CN(C)C)c2c1
InChI: InChI=1S/C13H16N2O2/c1-15(2)8-13(16)11-7-14-12-5-4-9(17-3)6-10(11)12/h4-7,14H,8H2,1-3H3
Instrument: Agilent 6410 Triple Quadrupole LC/MS system
Instrument type: LC-ESI-QQQ
Ms type: MS2
Ion mode: POSITIVE
Precursor type: [M+H]+
m/z	relative intensity
57.2	0
57.3	1
57.4	4
57.5	9
57.6	17
57.7	29
57.8	46
57.9	64
58.0	78
58.1	84
58.2	82
58.3	71
58.4	52
58.5	29
58.6	9
58.7	0
232.3	0
232.4	3
232.5	8
232.6	17
232.7	27
232.8	42
232.9	60
233.0	80
233.1	95
233.2	99
233.3	94
233.4	78
233.5	53
233.6	25
233.7	4
