Mass spectrum: Rotenone; LC-ESI-QQQ; MS2; Frag=135.0V CID@15.0; [M+H]+
Name: Rotenone
Class: Flavonoids
Formula: C23H22O6
Exact mass: 394.4282
SMILES: CC(=C)[C@H]1CC2=C(O1)C=CC3=C2O[C@@H]4COC5=CC(=C(C=C5[C@@H]4C3=O)OC)OC
InChI: InChI=1S/C23H22O6/c1-11(2)16-8-14-15(28-16)6-5-12-22(24)21-13-7-18(25-3)19(26-4)9-17(13)27-10-20(21)29-23(12)14/h5-7,9,16,20-21H,1,8,10H2,2-4H3/t16-,20-,21+/m1/s1
Instrument: Agilent 6410 Triple Quadrupole LC/MS system
Instrument type: LC-ESI-QQQ
Ms type: MS2
Ion mode: POSITIVE
Precursor type: [M+H]+
m/z	relative intensity
166.6	1
166.7	3
166.8	5
166.9	7
167.0	9
167.1	10
167.2	10
167.3	8
167.4	5
167.5	3
178.6	1
178.7	2
178.8	5
178.9	7
179.0	10
179.1	10
179.2	10
179.3	8
179.4	5
179.5	3
188.7	2
188.8	4
188.9	6
189.0	8
189.1	9
189.2	9
189.3	8
189.4	6
189.5	3
191.5	5
191.6	6
191.7	9
191.8	16
191.9	24
192.0	30
192.1	33
192.2	32
192.3	27
192.4	19
192.5	10
192.6	3
202.5	1
202.6	3
202.7	5
202.8	9
202.9	13
203.0	16
203.1	17
203.2	16
203.3	14
203.4	11
203.5	6
203.6	1
212.3	1
212.4	2
212.5	4
212.6	7
212.7	11
212.8	19
212.9	29
213.0	39
213.1	44
213.2	43
213.3	38
213.4	30
213.5	18
213.6	7
213.7	0
240.6	1
240.7	3
240.8	6
240.9	9
241.0	11
241.1	12
241.2	11
241.3	9
241.4	6
241.5	4
241.6	1
366.7	1
366.8	2
366.9	4
367.0	5
367.1	6
367.2	6
367.3	5
367.4	4
367.5	2
394.3	1
394.4	3
394.5	7
394.6	14
394.7	27
394.8	45
394.9	66
395.0	85
395.1	97
395.2	99
395.3	92
395.4	73
395.5	45
395.6	19
395.7	2
