Mass spectrum: norbraylin; LC-ESI-QQQ; MS2; Frag=135.0V CID@5.0; [M+H]+
Name: norbraylin
Class: Benzopyranoids
Formula: C14H12O4
Exact mass: 244.2493
SMILES: CC1(C)Oc2ccc3ccc(=O)oc3c2CC1=O
InChI: InChI=1S/C14H12O4/c1-14(2)11(15)7-9-10(18-14)5-3-8-4-6-12(16)17-13(8)9/h3-6H,7H2,1-2H3
Instrument: Agilent 6410 Triple Quadrupole LC/MS system
Instrument type: LC-ESI-QQQ
Ms type: MS2
Ion mode: POSITIVE
Precursor type: [M+H]+
m/z	relative intensity
174.6	2
174.7	3
174.8	5
174.9	6
175.0	7
175.1	7
175.2	7
175.3	6
175.4	4
175.5	2
244.3	1
244.4	3
244.5	8
244.6	18
244.7	33
244.8	53
244.9	74
245.0	91
245.1	99
245.2	97
245.3	85
245.4	63
245.5	35
245.6	10
245.7	0
