Mass spectrum: Fraxin; LC-ESI-QQQ; MS2; Frag=135.0V CID@5.0; [M+Na]+
Name: Fraxin
Class: Benzopyranoids
Formula: C16H18O10
Exact mass: 370.3159
SMILES: COc1cc2ccc(=O)oc2c(O[C@@H]2O[C@H](CO)[C@@H](O)[C@H](O)[C@H]2O)c1O
InChI: InChI=1S/C16H18O10/c1-23-7-4-6-2-3-9(18)25-14(6)15(11(7)20)26-16-13(22)12(21)10(19)8(5-17)24-16/h2-4,8,10,12-13,16-17,19-22H,5H2,1H3/t8-,10-,12+,13-,16+/m1/s1
Instrument: Agilent 6410 Triple Quadrupole LC/MS system
Instrument type: LC-ESI-QQQ
Ms type: MS2
Ion mode: POSITIVE
Precursor type: [M+Na]+
m/z	relative intensity
392.1	2
392.2	4
392.3	5
392.4	7
392.5	11
392.6	21
392.7	37
392.8	55
392.9	75
393.0	92
393.1	99
393.2	86
393.3	54
393.4	22
393.5	4
