Mass spectrum: Confoline; LC-ESI-QQQ; MS2; Frag=135.0V CID@10.0; [M+H]+
Name: Confoline
Class: Alkaloids
Formula: C17H21NO5
Exact mass: 319.3606
SMILES: COc1ccc(C(=O)OC2C[C@@H]3CC[C@H](C2)N3C=O)cc1OC
InChI: InChI=1S/C17H21NO5/c1-21-15-6-3-11(7-16(15)22-2)17(20)23-14-8-12-4-5-13(9-14)18(12)10-19/h3,6-7,10,12-14H,4-5,8-9H2,1-2H3/t12-,13+,14?
Instrument: Agilent 6410 Triple Quadrupole LC/MS system
Instrument type: LC-ESI-QQQ
Ms type: MS2
Ion mode: POSITIVE
Precursor type: [M+H]+
m/z	relative intensity
92.6	2
92.7	3
92.8	5
92.9	7
93.0	9
93.1	10
93.2	9
93.3	8
93.4	6
93.5	3
109.6	1
109.7	2
109.8	4
109.9	6
110.0	8
110.1	9
110.2	10
110.3	9
110.4	6
110.5	4
137.3	0
137.4	2
137.5	6
137.6	14
137.7	29
137.8	51
137.9	74
138.0	92
138.1	99
138.2	96
138.3	85
138.4	66
138.5	41
138.6	17
138.7	2
182.6	2
182.7	4
182.8	6
182.9	9
183.0	12
183.1	13
183.2	14
183.3	13
183.4	9
183.5	5
183.6	1
319.9	2
320.0	3
320.1	4
320.2	5
320.3	5
320.4	4
320.5	2
