Mass spectrum: Brevicarine, N-Ac; LC-ESI-QQQ; MS2; Frag=135.0V CID@25.0; [M+H]+
Name: Brevicarine, N-Ac
Class: Alkaloids
Formula: C19H23N3O
Exact mass: 309.4147
SMILES: CC(=O)N(C)CCCCc1cnc(C)c2[nH]c3ccccc3c12
InChI: InChI=1S/C19H23N3O/c1-13-19-18(16-9-4-5-10-17(16)21-19)15(12-20-13)8-6-7-11-22(3)14(2)23/h4-5,9-10,12,21H,6-8,11H2,1-3H3
Instrument: Agilent 6410 Triple Quadrupole LC/MS system
Instrument type: LC-ESI-QQQ
Ms type: MS2
Ion mode: POSITIVE
Precursor type: [M+H]+
m/z	relative intensity
194.5	1
194.6	2
194.7	4
194.8	8
194.9	12
195.0	16
195.1	18
195.2	18
195.3	16
195.4	13
195.5	9
195.8	8
195.9	12
196.0	16
196.1	17
196.2	17
196.3	15
196.4	12
196.5	7
196.6	2
236.3	0
236.4	1
236.5	4
236.6	9
236.7	18
236.8	34
236.9	57
237.0	80
237.1	95
237.2	99
237.3	92
237.4	74
237.5	49
237.6	22
237.7	3
267.4	1
267.5	3
267.6	7
267.7	13
267.8	23
267.9	36
268.0	52
268.1	65
268.2	71
268.3	69
268.4	59
268.5	41
268.6	21
268.7	5
268.8	0
309.4	1
309.5	3
309.6	7
309.7	14
309.8	26
309.9	43
310.0	63
310.1	82
310.2	93
310.3	94
310.4	82
310.5	58
310.6	29
310.7	7
310.8	0
