Mass spectrum: Hydrocortisone acetate; LC-ESI-QQQ; MS2; Frag=135.0V CID@15.0; [M+H]+
Name: Hydrocortisone acetate
Class: Steroids
Formula: C23H32O6
Exact mass: 404.5079
SMILES: CC(=O)OCC(=O)[C@@]1(O)CCC2C3CCC4=CC(=O)CC[C@]4(C)C3C(O)C[C@@]21C
InChI: InChI=1S/C23H32O6/c1-13(24)29-12-19(27)23(28)9-7-17-16-5-4-14-10-15(25)6-8-21(14,2)20(16)18(26)11-22(17,23)3/h10,16-18,20,26,28H,4-9,11-12H2,1-3H3/t16?,17?,18?,20?,21-,22-,23-/m0/s1
Instrument: Agilent 6410 Triple Quadrupole LC/MS system
Instrument type: LC-ESI-QQQ
Ms type: MS2
Ion mode: POSITIVE
Precursor type: [M+H]+
m/z	relative intensity
96.7	2
96.8	3
96.9	5
97.0	8
97.1	9
97.2	8
97.3	6
97.4	3
100.5	2
100.6	3
100.7	4
100.8	5
100.9	7
101.0	9
101.1	10
101.2	9
101.3	6
101.4	3
108.7	1
108.8	3
108.9	4
109.0	4
109.1	4
109.2	3
118.6	1
118.7	3
118.8	6
118.9	8
119.0	9
119.1	8
119.2	7
119.3	6
119.4	4
119.5	2
120.4	1
120.5	2
120.6	5
120.7	8
120.8	12
120.9	15
121.0	16
121.1	16
121.2	15
121.3	13
121.4	8
121.5	4
121.6	0
122.7	1
122.8	3
122.9	4
123.0	5
123.1	5
123.2	5
123.3	4
123.4	2
134.7	2
134.8	4
134.9	5
135.0	6
135.1	6
135.2	5
135.3	4
135.4	3
146.7	2
146.8	4
146.9	5
147.0	6
147.1	7
147.2	7
147.3	6
147.4	3
158.7	2
158.8	3
158.9	5
159.0	6
159.1	6
159.2	6
159.3	6
159.4	4
159.5	2
162.7	2
162.8	3
162.9	5
163.0	6
163.1	7
163.2	7
163.3	5
163.4	3
168.7	2
168.8	3
168.9	5
169.0	5
169.1	5
169.2	5
169.3	4
169.4	2
170.7	1
170.8	3
170.9	5
171.0	7
171.1	7
171.2	6
171.3	5
171.4	3
172.6	1
172.7	2
172.8	4
172.9	6
173.0	8
173.1	9
173.2	8
173.3	6
173.4	4
173.5	1
184.7	2
184.8	4
184.9	5
185.0	7
185.1	8
185.2	8
185.3	8
185.4	5
185.5	2
186.6	2
186.7	4
186.8	7
186.9	10
187.0	12
187.1	14
187.2	14
187.3	12
187.4	8
187.5	4
187.6	1
200.8	2
200.9	4
201.0	5
201.1	6
201.2	6
201.3	6
201.4	4
201.5	2
208.8	1
208.9	3
209.0	4
209.1	5
209.2	5
209.3	5
209.4	3
212.7	2
212.8	3
212.9	4
213.0	6
213.1	7
213.2	6
213.3	5
213.4	3
222.8	1
222.9	3
223.0	5
223.1	7
223.2	8
223.3	7
223.4	5
223.5	3
224.7	1
224.8	3
224.9	4
225.0	6
225.1	7
225.2	7
225.3	6
225.4	4
225.5	2
226.8	1
226.9	3
227.0	5
227.1	7
227.2	8
227.3	6
227.4	4
227.5	1
238.6	1
238.7	2
238.8	5
238.9	9
239.0	13
239.1	16
239.2	17
239.3	14
239.4	10
239.5	5
239.6	1
240.4	1
240.5	3
240.6	4
240.7	7
240.8	11
240.9	17
241.0	24
241.1	28
241.2	29
241.3	26
241.4	21
241.5	13
241.6	4
241.7	0
248.7	2
248.8	3
248.9	4
249.0	5
249.1	6
249.2	6
249.3	6
249.4	4
249.5	3
250.8	3
250.9	5
251.0	7
251.1	8
251.2	7
251.3	6
251.4	4
251.5	2
262.8	2
262.9	4
263.0	6
263.1	7
263.2	6
263.3	5
263.4	3
266.6	3
266.7	4
266.8	8
266.9	13
267.0	19
267.1	25
267.2	27
267.3	24
267.4	16
267.5	8
267.6	1
268.7	1
268.8	3
268.9	5
269.0	7
269.1	9
269.2	9
269.3	7
269.4	5
269.5	3
280.4	1
280.5	2
280.6	4
280.7	6
280.8	9
280.9	13
281.0	17
281.1	20
281.2	21
281.3	20
281.4	16
281.5	10
281.6	3
290.6	1
290.7	2
290.8	6
290.9	12
291.0	19
291.1	23
291.2	23
291.3	19
291.4	13
291.5	6
291.6	1
298.8	2
298.9	4
299.0	6
299.1	8
299.2	10
299.3	9
299.4	7
299.5	3
308.3	1
308.4	3
308.5	5
308.6	8
308.7	13
308.8	24
308.9	43
309.0	65
309.1	83
309.2	90
309.3	85
309.4	70
309.5	47
309.6	23
309.7	4
309.8	0
326.3	0
326.4	2
326.5	4
326.6	8
326.7	13
326.8	24
326.9	41
327.0	61
327.1	77
327.2	85
327.3	82
327.4	69
327.5	47
327.6	23
327.7	4
327.8	0
344.5	1
344.6	2
344.7	4
344.8	5
344.9	8
345.0	12
345.1	16
345.2	19
345.3	19
345.4	16
345.5	10
345.6	3
368.8	2
368.9	4
369.0	6
369.1	9
369.2	10
369.3	10
369.4	8
369.5	5
369.6	2
386.8	2
386.9	3
387.0	5
387.1	7
387.2	6
387.3	5
387.4	3
404.3	1
404.4	3
404.5	6
404.6	11
404.7	16
404.8	26
404.9	42
405.0	62
405.1	82
405.2	95
405.3	99
405.4	92
405.5	72
405.6	43
405.7	16
405.8	1
