Mass spectrum: Zearalenol; LC-ESI-QQQ; MS2; Frag=135.0V CID@25.0; [M+H]+
Name: Zearalenol
Class: Carbohydrates
Formula: C18H24O5
Exact mass: 320.389
SMILES: C[C@H]1CCCC(O)CCC/C=C/c2cc(O)cc(O)c2C(=O)O1
InChI: InChI=1S/C18H24O5/c1-12-6-5-9-14(19)8-4-2-3-7-13-10-15(20)11-16(21)17(13)18(22)23-12/h3,7,10-12,14,19-21H,2,4-6,8-9H2,1H3/b7-3+/t12-,14?/m0/s1
Instrument: Agilent 6410 Triple Quadrupole LC/MS system
Instrument type: LC-ESI-QQQ
Ms type: MS2
Ion mode: POSITIVE
Precursor type: [M+H]+
m/z	relative intensity
54.5	3
54.6	3
54.7	6
54.8	9
54.9	13
55.0	16
55.1	17
55.2	18
55.3	17
55.4	12
55.5	6
55.6	1
66.2	0
66.3	2
66.4	5
66.5	10
66.6	15
66.7	24
66.8	35
66.9	44
67.0	48
67.1	44
67.2	36
67.3	26
67.4	14
67.5	5
68.3	1
68.4	3
68.5	4
68.6	6
68.7	8
68.8	12
68.9	16
69.0	18
69.1	17
69.2	15
69.3	12
69.4	9
69.5	4
69.6	1
70.8	2
70.9	3
71.0	5
71.1	5
71.2	4
71.3	2
78.5	1
78.6	3
78.7	6
78.8	8
78.9	11
79.0	15
79.1	17
79.2	16
79.3	11
79.4	5
79.5	2
80.2	1
80.3	3
80.4	5
80.5	7
80.6	6
80.7	9
80.8	18
80.9	30
81.0	39
81.1	39
81.2	32
81.3	24
81.4	15
81.5	7
81.6	1
92.3	1
92.4	2
92.5	4
92.6	5
92.7	8
92.8	14
92.9	21
93.0	26
93.1	27
93.2	25
93.3	20
93.4	13
93.5	6
93.6	0
94.4	0
94.5	2
94.6	6
94.7	12
94.8	18
94.9	22
95.0	27
95.1	30
95.2	27
95.3	19
95.4	9
95.5	4
104.5	1
104.6	2
104.7	4
104.8	5
104.9	5
105.0	4
106.5	1
106.6	2
106.7	4
106.8	7
106.9	10
107.0	11
107.1	11
107.2	9
107.3	6
107.4	3
108.4	2
108.5	3
108.6	5
108.7	9
108.8	12
108.9	12
109.0	11
109.1	11
109.2	12
109.3	12
109.4	9
109.5	5
109.6	1
118.9	3
119.0	5
119.1	6
119.2	7
119.3	6
119.4	4
120.5	2
120.6	3
120.7	5
120.8	8
120.9	13
121.0	17
121.1	20
121.2	20
121.3	17
121.4	11
121.5	5
121.6	0
122.5	2
122.6	4
122.7	8
122.8	13
122.9	17
123.0	20
123.1	21
123.2	19
123.3	14
123.4	7
123.5	2
130.6	2
130.7	4
130.8	5
130.9	7
131.0	7
131.1	7
131.2	7
131.3	6
131.4	4
131.5	2
132.7	2
132.8	3
132.9	5
133.0	6
133.1	6
133.2	6
133.3	5
133.4	3
134.6	0
134.7	4
134.8	11
134.9	16
135.0	18
135.1	17
135.2	15
135.3	13
135.4	9
135.5	4
135.6	1
136.5	1
136.6	3
136.7	4
136.8	5
136.9	5
137.0	5
137.1	6
137.2	8
137.3	9
137.4	8
137.5	4
144.6	1
144.7	2
144.8	4
144.9	5
145.0	6
145.1	6
145.2	6
145.3	4
145.4	2
146.4	1
146.5	3
146.6	5
146.7	8
146.8	11
146.9	14
147.0	16
147.1	16
147.2	13
147.3	8
147.4	3
148.4	1
148.5	2
148.6	5
148.7	12
148.8	21
148.9	29
149.0	32
149.1	29
149.2	24
149.3	18
149.4	11
149.5	4
160.4	4
160.5	6
160.6	9
160.7	16
160.8	26
160.9	36
161.0	42
161.1	41
161.2	36
161.3	29
161.4	19
161.5	9
161.6	2
162.3	1
162.4	2
162.5	7
162.6	12
162.7	16
162.8	17
162.9	18
163.0	19
163.1	22
163.2	23
163.3	20
163.4	12
163.5	4
164.4	1
164.5	3
164.6	7
164.7	11
164.8	14
164.9	16
165.0	17
165.1	16
165.2	13
165.3	9
165.4	4
172.4	1
172.5	2
172.6	6
172.7	13
172.8	20
172.9	23
173.0	25
173.1	26
173.2	21
173.3	12
173.4	3
174.3	1
174.4	1
174.5	7
174.6	19
174.7	34
174.8	54
174.9	75
175.0	93
175.1	99
175.2	90
175.3	70
175.4	45
175.5	21
175.6	6
176.4	2
176.5	6
176.6	14
176.7	27
176.8	38
176.9	45
177.0	49
177.1	53
177.2	56
177.3	51
177.4	34
177.5	13
177.6	1
184.7	1
184.8	3
184.9	6
185.0	9
185.1	11
185.2	10
185.3	7
185.4	4
185.5	2
186.3	1
186.4	2
186.5	5
186.6	10
186.7	17
186.8	24
186.9	28
187.0	28
187.1	27
187.2	25
187.3	22
187.4	15
187.5	7
187.6	1
188.4	1
188.5	2
188.6	8
188.7	22
188.8	41
188.9	54
189.0	57
189.1	51
189.2	41
189.3	28
189.4	14
189.5	4
190.7	1
190.8	3
190.9	4
191.0	7
191.1	8
191.2	7
191.3	4
196.6	2
196.7	5
196.8	10
196.9	16
197.0	18
197.1	17
197.2	13
197.3	11
197.4	9
197.5	6
197.6	2
198.5	1
198.6	2
198.7	4
198.8	6
198.9	7
199.0	8
199.1	9
199.2	10
199.3	9
199.4	6
199.5	2
200.5	3
200.6	6
200.7	12
200.8	20
200.9	27
201.0	34
201.1	41
201.2	45
201.3	40
201.4	27
201.5	12
201.6	2
202.4	3
202.5	3
202.6	5
202.7	8
202.8	11
202.9	13
203.0	13
203.1	13
203.2	12
203.3	9
203.4	5
203.5	2
210.6	4
210.7	7
210.8	13
210.9	20
211.0	23
211.1	21
211.2	15
211.3	10
211.4	5
211.5	3
212.7	1
212.8	3
212.9	4
213.0	5
213.1	5
213.2	4
213.3	3
213.4	2
213.5	1
213.6	0
213.7	0
213.8	1
213.9	3
214.0	4
214.1	4
214.2	3
214.3	2
214.4	2
214.5	3
214.6	6
214.7	13
214.8	25
214.9	37
215.0	43
215.1	41
215.2	35
215.3	26
215.4	16
215.5	6
215.8	0
215.9	2
216.0	4
216.1	5
216.2	6
216.3	6
216.4	6
216.5	6
216.6	7
216.7	10
216.8	17
216.9	22
217.0	21
217.1	18
217.2	15
217.3	14
217.4	12
217.5	7
217.6	2
224.6	4
224.7	6
224.8	8
224.9	9
225.0	11
225.1	13
225.2	14
225.3	11
225.4	6
225.5	2
228.5	1
228.6	3
228.7	8
228.8	13
228.9	19
229.0	24
229.1	28
229.2	29
229.3	26
229.4	18
229.5	7
237.6	1
237.7	3
237.8	5
237.9	7
238.0	8
238.1	8
238.2	6
238.3	3
238.7	2
238.8	4
238.9	6
239.0	7
239.1	7
239.2	6
239.3	4
266.4	1
266.5	3
266.6	5
266.7	6
266.8	7
266.9	11
267.0	19
267.1	26
267.2	25
267.3	17
267.4	7
267.5	1
284.6	0
284.7	3
284.8	6
284.9	8
285.0	7
285.1	6
285.2	5
285.3	7
285.4	7
285.5	5
285.6	1
