Mass spectrum: Haplamidine; LC-ESI-QQQ; MS2; Frag=135.0V CID@10.0; [M+H]+
Name: Haplamidine
Class: Alkaloids
Formula: C20H22N2O2
Exact mass: 322.4105
SMILES: OC(/C=C/c1ccccc1)=NCCCCN=C(O)c1ccccc1
InChI: InChI=1S/C20H22N2O2/c23-19(14-13-17-9-3-1-4-10-17)21-15-7-8-16-22-20(24)18-11-5-2-6-12-18/h1-6,9-14H,7-8,15-16H2,(H,21,23)(H,22,24)/b14-13+
Instrument: Agilent 6410 Triple Quadrupole LC/MS system
Instrument type: LC-ESI-QQQ
Ms type: MS2
Ion mode: POSITIVE
Precursor type: [M+H]+
m/z	relative intensity
71.5	1
71.6	3
71.7	5
71.8	8
71.9	11
72.0	13
72.1	14
72.2	14
72.3	13
72.4	10
72.5	6
72.6	2
104.5	1
104.6	3
104.7	4
104.8	5
104.9	7
105.0	8
105.1	9
105.2	8
105.3	7
105.4	5
105.5	2
130.2	0
130.3	1
130.4	4
130.5	12
130.6	23
130.7	40
130.8	61
130.9	82
131.0	96
131.1	99
131.2	93
131.3	77
131.4	54
131.5	27
131.6	6
131.7	0
174.7	2
174.8	4
174.9	6
175.0	8
175.1	9
175.2	10
175.3	9
175.4	9
175.5	7
175.6	7
175.7	9
175.8	14
175.9	22
176.0	29
176.1	34
176.2	34
176.3	32
176.4	25
176.5	16
176.6	6
176.7	0
192.4	1
192.5	3
192.6	7
192.7	13
192.8	21
192.9	31
193.0	42
193.1	49
193.2	52
193.3	49
193.4	41
193.5	28
193.6	13
193.7	2
200.7	2
200.8	3
200.9	5
201.0	6
201.1	7
201.2	7
201.3	6
201.4	5
201.5	4
201.6	4
201.7	7
201.8	10
201.9	15
202.0	20
202.1	23
202.2	24
202.3	23
202.4	18
202.5	11
202.6	4
218.4	1
218.5	3
218.6	6
218.7	10
218.8	15
218.9	22
219.0	29
219.1	33
219.2	34
219.3	32
219.4	26
219.5	17
219.6	7
219.7	1
322.3	0
322.4	1
322.5	4
322.6	8
322.7	16
322.8	26
322.9	41
323.0	58
323.1	71
323.2	78
323.3	77
323.4	67
323.5	47
323.6	23
323.7	4
