Mass spectrum: Methylevoxine; LC-ESI-QQQ; MS2; Frag=135.0V CID@15.0; [M+H]+
Name: Methylevoxine
Class: Alkaloids
Formula: C19H23NO6
Exact mass: 361.3983
SMILES: COc1c2ccoc2nc2c(OC)c(OCC(O)C(C)(C)OC)ccc12
InChI: InChI=1S/C19H23NO6/c1-19(2,24-5)14(21)10-26-13-7-6-11-15(17(13)23-4)20-18-12(8-9-25-18)16(11)22-3/h6-9,14,21H,10H2,1-5H3
Instrument: Agilent 6410 Triple Quadrupole LC/MS system
Instrument type: LC-ESI-QQQ
Ms type: MS2
Ion mode: POSITIVE
Precursor type: [M+H]+
m/z	relative intensity
245.5	2
245.6	4
245.7	7
245.8	12
245.9	17
246.0	21
246.1	23
246.2	21
246.3	16
246.4	10
246.5	3
257.7	2
257.8	4
257.9	6
258.0	8
258.1	8
258.2	8
258.3	6
258.4	3
329.2	0
329.3	2
329.4	4
329.5	7
329.6	11
329.7	20
329.8	36
329.9	58
330.0	80
330.1	96
330.2	99
330.3	87
330.4	61
330.5	31
330.6	8
330.7	0
361.5	3
361.6	4
361.7	6
361.8	11
361.9	18
362.0	27
362.1	34
362.2	37
362.3	34
362.4	27
362.5	17
362.6	6
362.7	0
