Mass spectrum: Spirosol-5-en-3-ol; LC-ESI-QQQ; MS2; Frag=135.0V CID@5.0; [M+H]+
Name: Spirosol-5-en-3-ol
Class: Alkaloids
Formula: C27H43NO2
Exact mass: 413.6493
SMILES: CC1CCC2(NC1)OC1C[C@H]3C4CC=C5CC(O)CC[C@]5(C)[C@H]4CC[C@]3(C)[C@H]1[C@@H]2C
InChI: InChI=1S/C27H43NO2/c1-16-7-12-27(28-15-16)17(2)24-23(30-27)14-22-20-6-5-18-13-19(29)8-10-25(18,3)21(20)9-11-26(22,24)4/h5,16-17,19-24,28-29H,6-15H2,1-4H3/t16?,17-,19?,20?,21-,22-,23?,24-,25-,26-,27?/m0/s1
Instrument: Agilent 6410 Triple Quadrupole LC/MS system
Instrument type: LC-ESI-QQQ
Ms type: MS2
Ion mode: POSITIVE
Precursor type: [M+H]+
m/z	relative intensity
413.4	1
413.5	2
413.6	5
413.7	9
413.8	17
413.9	30
414.0	50
414.1	73
414.2	90
414.3	99
414.4	98
414.5	87
414.6	66
414.7	39
414.8	14
414.9	1
