Mass spectrum: Cortisone; LC-ESI-QQQ; MS2; Frag=135.0V CID@10.0; [M+H]+
Name: Cortisone
Class: Steroids
Formula: C21H28O5
Exact mass: 360.4543
SMILES: C[C@]12CC(=O)C3C(CCC4=CC(=O)CC[C@@]43C)C1CC[C@]2(O)C(=O)CO
InChI: InChI=1S/C21H28O5/c1-19-7-5-13(23)9-12(19)3-4-14-15-6-8-21(26,17(25)11-22)20(15,2)10-16(24)18(14)19/h9,14-15,18,22,26H,3-8,10-11H2,1-2H3/t14?,15?,18?,19-,20-,21-/m0/s1
Instrument: Agilent 6410 Triple Quadrupole LC/MS system
Instrument type: LC-ESI-QQQ
Ms type: MS2
Ion mode: POSITIVE
Precursor type: [M+H]+
m/z	relative intensity
162.7	1
162.8	3
162.9	5
163.0	6
163.1	7
163.2	8
163.3	7
163.4	6
163.5	4
163.6	1
360.3	0
360.4	1
360.5	4
360.6	7
360.7	13
360.8	23
360.9	41
361.0	63
361.1	84
361.2	97
361.3	99
361.4	90
361.5	69
361.6	41
361.7	14
361.8	0
