Mass spectrum: Podophyllotoxin; LC-ESI-QQQ; MS2; Frag=135.0V CID@15.0; [M+HCOO]-
Name: Podophyllotoxin
Class: Polycyclic aromatic natural products
Formula: C22H22O8
Exact mass: 414.4158
SMILES: COc1cc([C@@H]2c3cc4c(cc3[C@H](O)C3COC(=O)[C@@H]32)OCO4)cc(OC)c1OC
InChI: InChI=1S/C22H22O8/c1-25-16-4-10(5-17(26-2)21(16)27-3)18-11-6-14-15(30-9-29-14)7-12(11)20(23)13-8-28-22(24)19(13)18/h4-7,13,18-20,23H,8-9H2,1-3H3/t13?,18-,19+,20+/m1/s1
Instrument: Agilent 6410 Triple Quadrupole LC/MS system
Instrument type: LC-ESI-QQQ
Ms type: MS2
Ion mode: NEGATIVE
Precursor type: [M+HCOO]-
m/z	relative intensity
50.6	8
50.7	15
50.8	22
50.9	23
51.0	18
51.9	11
52.0	17
52.1	21
52.2	19
52.3	13
52.5	10
52.6	16
52.7	20
52.8	21
52.9	16
53.2	10
53.3	17
53.4	22
53.5	21
53.6	15
53.9	9
54.0	16
54.1	21
54.2	20
54.5	13
54.6	18
54.7	21
54.8	18
54.9	13
55.1	12
55.2	16
55.3	19
55.4	18
55.5	13
55.7	7
55.8	12
55.9	18
56.0	20
56.1	15
57.0	9
57.1	17
57.2	23
57.3	23
57.4	17
57.6	8
57.7	14
57.8	21
57.9	24
58.0	18
58.3	9
58.4	18
58.5	24
58.6	22
58.7	14
58.9	5
59.0	12
59.1	20
59.2	22
59.3	18
59.4	10
59.6	8
59.7	14
59.8	19
59.9	19
60.0	14
60.2	9
60.3	15
60.4	21
60.5	21
60.6	14
60.8	4
60.9	10
61.0	20
61.1	25
61.2	21
61.3	10
61.5	3
61.6	11
61.7	20
61.8	22
61.9	17
62.0	9
62.2	8
62.3	14
62.4	17
62.5	15
62.8	8
62.9	16
63.0	22
63.1	20
63.2	12
63.4	8
63.5	15
63.6	22
63.7	23
63.8	17
64.1	10
64.2	16
64.3	18
64.4	16
64.6	9
64.7	13
64.8	19
64.9	23
65.0	20
65.1	14
65.3	7
65.4	10
65.5	15
65.6	17
65.7	15
66.0	10
66.1	16
66.2	21
66.3	19
66.4	13
66.6	9
66.7	15
66.8	21
66.9	20
67.0	15
67.2	8
67.3	12
67.4	16
67.5	17
67.6	13
67.8	7
67.9	12
68.0	19
68.1	23
68.2	22
68.3	16
68.5	10
68.6	16
68.7	23
68.8	25
68.9	19
69.0	9
69.2	8
69.3	17
69.4	24
69.5	21
69.6	13
69.8	4
69.9	10
70.0	19
70.1	22
70.2	18
71.1	7
71.2	14
71.3	21
71.4	23
71.5	18
71.7	8
71.8	13
71.9	20
72.0	24
72.1	20
72.2	12
72.4	8
72.5	16
72.6	23
72.7	23
72.8	16
73.0	10
73.1	14
73.2	17
73.3	16
73.4	11
73.6	8
73.7	15
73.8	21
73.9	23
74.0	18
74.1	10
74.3	7
74.4	12
74.5	17
74.6	16
74.7	11
74.9	4
75.0	11
75.1	20
75.2	23
75.3	19
75.4	11
75.6	7
75.7	14
75.8	18
75.9	15
76.2	8
76.3	15
76.4	20
76.5	19
76.6	13
76.8	6
76.9	11
77.0	17
77.1	19
77.2	16
77.3	10
77.5	9
77.6	13
77.7	16
77.8	15
78.1	10
78.2	17
78.3	22
78.4	21
78.5	14
78.8	6
78.9	15
79.0	23
79.1	23
79.2	16
79.4	6
79.5	12
79.6	20
79.7	21
79.8	15
80.0	6
80.1	12
80.2	20
80.3	24
80.4	22
80.5	17
80.7	11
80.8	14
80.9	18
81.0	19
81.1	15
81.3	6
81.4	10
81.5	18
81.6	21
81.7	18
81.9	8
82.0	13
82.1	22
82.2	25
82.3	20
82.4	11
82.6	6
82.7	13
82.8	19
82.9	20
83.0	15
83.2	6
83.3	11
83.4	19
83.5	23
83.6	21
83.7	13
83.9	5
84.0	12
84.1	21
84.2	23
84.3	17
85.2	8
85.3	15
85.4	19
85.5	17
85.8	9
85.9	16
86.0	22
86.1	23
86.2	16
86.4	5
86.5	10
86.6	19
86.7	24
86.8	21
86.9	13
87.1	6
87.2	13
87.3	20
87.4	23
87.5	19
88.3	10
88.4	14
88.5	19
88.6	23
88.7	20
88.8	13
89.0	7
89.1	15
89.2	21
89.3	22
89.4	17
90.3	9
90.4	14
90.5	19
90.6	19
90.7	15
90.9	10
91.0	15
91.1	22
91.2	23
91.3	18
91.6	10
91.7	17
91.8	21
91.9	20
92.0	14
92.2	9
92.3	15
92.4	21
92.5	22
92.6	15
92.8	3
92.9	9
93.0	18
93.1	21
93.2	17
93.5	7
93.6	16
93.7	23
93.8	22
93.9	15
94.1	6
94.2	13
94.3	22
94.4	24
94.5	17
95.4	8
95.5	16
95.6	22
95.7	21
95.8	15
96.0	8
96.1	12
96.2	18
96.3	20
96.4	17
96.6	12
96.7	16
96.8	21
96.9	23
97.0	19
97.1	11
97.3	6
97.4	13
97.5	21
97.6	24
97.7	19
97.8	9
98.0	7
98.1	15
98.2	21
98.3	19
98.4	12
98.6	7
98.7	14
98.8	21
98.9	21
99.0	15
99.2	6
99.3	13
99.4	21
99.5	24
99.6	20
99.7	12
99.9	10
100.0	16
100.1	21
100.2	21
100.3	17
100.6	10
100.7	17
100.8	21
100.9	18
101.8	10
101.9	15
102.0	20
102.1	22
102.2	18
103.1	9
103.2	16
103.3	20
103.4	17
103.5	10
103.7	6
103.8	14
103.9	23
104.0	26
104.1	21
104.2	11
104.4	8
104.5	17
104.6	24
104.7	22
104.8	14
105.0	6
105.1	14
105.2	21
105.3	23
105.4	17
105.7	11
105.8	18
105.9	22
106.0	20
106.1	13
106.3	6
106.4	12
106.5	18
106.6	20
106.7	15
106.9	8
107.0	12
107.1	18
107.2	21
107.3	17
107.6	9
107.7	16
107.8	22
107.9	22
108.0	16
108.9	11
109.0	16
109.1	19
109.2	16
109.5	11
109.6	16
109.7	20
109.8	18
109.9	13
110.1	9
110.2	13
110.3	17
110.4	19
110.5	16
110.6	11
110.8	8
110.9	15
111.0	23
111.1	24
111.2	17
111.3	8
111.5	8
111.6	15
111.7	19
111.8	18
112.0	11
112.1	14
112.2	21
112.3	24
112.4	19
112.5	9
112.7	6
112.8	15
112.9	21
113.0	18
113.1	10
113.3	7
113.4	14
113.5	21
113.6	23
113.7	18
113.8	11
114.0	9
114.1	15
114.2	18
114.3	18
114.6	12
114.7	17
114.8	22
114.9	23
115.0	18
115.1	12
115.3	10
115.4	15
115.5	19
115.6	17
115.9	11
116.0	17
116.1	21
116.2	20
116.3	13
116.5	8
116.6	15
116.7	23
116.8	24
116.9	18
117.0	9
117.2	6
117.3	13
117.4	18
117.5	18
117.6	12
117.8	7
117.9	14
118.0	21
118.1	22
118.2	16
118.4	5
118.5	11
118.6	19
118.7	24
118.8	22
118.9	14
119.1	9
119.2	16
119.3	23
119.4	23
119.5	16
119.7	7
119.8	12
119.9	19
120.0	21
120.1	17
120.3	8
120.4	13
120.5	21
120.6	25
120.7	22
120.8	14
121.0	10
121.1	16
121.2	22
121.3	20
121.4	13
121.6	7
121.7	14
121.8	22
121.9	24
122.0	19
122.9	5
123.0	11
123.1	17
123.2	20
123.3	17
123.5	10
123.6	14
123.7	21
123.8	23
123.9	19
124.0	11
124.2	5
124.3	12
124.4	19
124.5	21
124.6	15
124.8	5
124.9	10
125.0	18
125.1	21
125.2	17
125.3	10
125.5	7
125.6	15
125.7	23
125.8	25
125.9	20
126.0	12
126.2	10
126.3	15
126.4	18
126.5	16
126.7	8
126.8	12
126.9	19
127.0	23
127.1	19
127.4	9
127.5	18
127.6	25
127.7	24
127.8	18
127.9	12
128.6	6
128.7	10
128.8	16
128.9	21
129.0	22
129.1	17
129.4	10
129.5	16
129.6	20
129.7	17
130.0	9
130.1	15
130.2	20
130.3	19
130.4	14
130.6	11
130.7	16
130.8	22
130.9	23
131.0	18
131.1	10
131.3	8
131.4	16
131.5	20
131.6	18
131.7	10
131.9	5
132.0	14
132.1	23
132.2	26
132.3	20
132.4	11
132.6	10
132.7	15
132.8	18
132.9	16
133.2	11
133.3	17
133.4	21
133.5	18
133.6	11
133.8	8
133.9	14
134.0	20
134.1	20
134.2	13
134.4	2
134.5	7
134.6	17
134.7	24
134.8	23
134.9	15
135.1	7
135.2	15
135.3	24
135.4	25
135.5	18
135.7	8
135.8	14
135.9	21
136.0	23
136.1	19
136.2	12
136.4	10
136.5	16
136.6	20
136.7	18
136.8	12
137.0	7
137.1	14
137.2	21
137.3	22
137.4	16
137.6	7
137.7	14
137.8	22
137.9	24
138.0	19
138.1	10
138.3	7
138.4	15
138.5	21
138.6	21
138.7	13
138.9	4
139.0	10
139.1	17
139.2	19
139.3	14
139.5	3
139.6	8
139.7	18
139.8	25
139.9	23
140.0	15
140.8	10
140.9	12
141.0	17
141.1	20
141.2	17
141.4	11
141.5	18
141.6	27
141.7	29
141.8	23
141.9	13
142.1	8
142.2	14
142.3	20
142.4	22
142.5	18
142.6	12
142.8	9
142.9	16
143.0	22
143.1	22
143.2	16
143.4	8
143.5	15
143.6	22
143.7	23
143.8	17
144.0	7
144.1	12
144.2	20
144.3	23
144.4	18
144.5	9
144.7	5
144.8	13
144.9	20
145.0	20
145.1	14
145.3	6
145.4	12
145.5	20
145.6	23
145.7	19
146.0	10
146.1	18
146.2	23
146.3	21
146.4	12
146.6	7
146.7	15
146.8	23
146.9	24
147.0	17
147.3	8
147.4	16
147.5	20
147.6	18
147.7	12
147.9	7
148.0	13
148.1	20
148.2	21
148.3	17
149.1	10
149.2	14
149.3	21
149.4	24
149.5	20
149.6	12
149.8	7
149.9	12
150.0	16
150.1	17
150.2	14
150.4	9
150.5	14
150.6	20
150.7	23
150.8	21
150.9	14
151.1	10
151.2	15
151.3	21
151.4	22
151.5	17
151.8	11
151.9	18
152.0	22
152.1	19
152.2	12
152.4	11
152.5	17
152.6	19
152.7	16
152.8	9
153.0	6
153.1	14
153.2	22
153.3	24
153.4	19
154.3	9
154.4	17
154.5	23
154.6	21
154.7	14
154.9	8
155.0	15
155.1	21
155.2	22
155.3	15
155.5	5
155.6	11
155.7	20
155.8	24
155.9	20
156.0	11
156.2	6
156.3	12
156.4	18
156.5	18
156.6	13
156.8	7
156.9	13
157.0	20
157.1	22
157.2	18
157.3	12
157.5	9
157.6	16
157.7	23
157.8	23
157.9	16
158.1	6
158.2	13
158.3	22
158.4	25
158.5	19
158.7	7
158.8	12
158.9	21
159.0	25
159.1	22
159.2	15
159.4	7
159.5	13
159.6	20
159.7	23
159.8	18
160.0	8
160.1	12
160.2	19
160.3	21
160.4	15
160.7	7
160.8	15
160.9	22
161.0	22
161.1	16
161.3	7
161.4	13
161.5	20
161.6	24
161.7	21
161.8	13
162.0	8
162.1	16
162.2	23
162.3	21
162.4	12
162.6	5
162.7	13
162.8	22
162.9	25
163.0	20
163.3	11
163.4	18
163.5	23
163.6	21
163.7	13
163.9	5
164.0	11
164.1	19
164.2	20
164.3	14
164.5	5
164.6	12
164.7	20
164.8	22
164.9	16
165.1	8
165.2	13
165.3	20
165.4	23
165.5	20
165.6	13
165.8	6
165.9	12
166.0	20
166.1	23
166.2	18
166.3	10
166.5	9
166.6	16
166.7	20
166.8	18
167.1	10
167.2	17
167.3	23
167.4	24
167.5	18
167.6	11
167.8	10
167.9	16
168.0	20
168.1	18
168.2	12
168.4	10
168.5	15
168.6	20
168.7	19
168.8	14
169.0	11
169.1	16
169.2	21
169.3	21
169.4	16
169.6	6
169.7	11
169.8	17
169.9	20
170.0	15
170.3	8
170.4	16
170.5	22
170.6	21
170.7	13
170.9	5
171.0	12
171.1	19
171.2	22
171.3	17
171.6	8
171.7	16
171.8	22
171.9	20
172.0	12
172.2	5
172.3	11
172.4	17
172.5	20
172.6	17
173.5	8
173.6	16
173.7	23
173.8	22
173.9	15
174.1	5
174.2	12
174.3	21
174.4	25
174.5	22
174.6	13
174.8	9
174.9	16
175.0	21
175.1	17
175.2	8
175.4	5
175.5	12
175.6	19
175.7	20
175.8	15
176.7	8
176.8	16
176.9	23
177.0	22
177.1	15
177.3	10
177.4	17
177.5	23
177.6	22
177.7	15
177.9	7
178.0	12
178.1	19
178.2	21
178.3	16
178.4	9
178.6	6
178.7	12
178.8	18
178.9	19
179.0	17
179.8	4
179.9	8
180.0	16
180.1	21
180.2	18
180.3	12
180.5	10
180.6	15
180.7	20
180.8	20
180.9	15
181.1	7
181.2	12
181.3	19
181.4	24
181.5	22
181.6	15
181.8	9
181.9	15
182.0	20
182.1	19
182.2	14
182.4	10
182.5	16
182.6	21
182.7	21
182.8	17
183.1	10
183.2	17
183.3	23
183.4	24
183.5	17
183.7	6
183.8	11
183.9	18
184.0	20
184.1	16
184.4	8
184.5	15
184.6	20
184.7	19
184.8	13
185.0	7
185.1	12
185.2	19
185.3	20
185.4	17
185.5	10
185.7	8
185.8	13
185.9	17
186.0	16
186.1	11
186.3	6
186.4	11
186.5	17
186.6	18
186.7	16
187.5	4
187.6	8
187.7	16
187.8	22
187.9	23
188.0	16
188.8	6
188.9	10
189.0	17
189.1	21
189.2	19
189.3	13
189.5	8
189.6	14
189.7	20
189.8	21
189.9	15
190.1	7
190.2	12
190.3	19
190.4	23
190.5	20
190.6	12
190.8	7
190.9	14
191.0	20
191.1	21
191.2	15
191.4	8
191.5	14
191.6	21
191.7	22
191.8	15
192.0	4
192.1	11
192.2	20
192.3	23
192.4	18
192.5	11
192.7	10
192.8	15
192.9	19
193.0	19
193.1	13
193.3	7
193.4	13
193.5	20
193.6	22
193.7	16
193.9	7
194.0	11
194.1	18
194.2	20
194.3	17
194.6	10
194.7	16
194.8	22
194.9	22
195.0	15
195.2	5
195.3	11
195.4	19
195.5	23
195.6	19
195.8	7
195.9	12
196.0	21
196.1	26
196.2	23
196.3	13
196.5	6
196.6	13
196.7	22
196.8	25
196.9	20
197.0	12
197.2	12
197.3	18
197.4	22
197.5	20
197.6	14
197.8	9
197.9	15
198.0	20
198.1	19
198.2	11
198.4	3
198.5	10
198.6	18
198.7	22
198.8	18
199.1	10
199.2	19
199.3	26
199.4	25
199.5	16
199.7	5
199.8	10
199.9	18
200.0	22
200.1	19
200.3	10
200.4	14
200.5	21
200.6	25
200.7	21
200.8	13
201.0	7
201.1	14
201.2	21
201.3	21
201.4	15
201.6	7
201.7	11
201.8	18
201.9	22
202.0	21
202.1	15
202.3	9
202.4	14
202.5	19
202.6	18
202.7	12
202.9	8
203.0	15
203.1	22
203.2	23
203.3	16
203.6	7
203.7	18
203.8	25
203.9	22
204.0	14
204.2	8
204.3	16
204.4	23
204.5	24
204.6	18
204.8	9
204.9	13
205.0	20
205.1	22
205.2	18
205.3	11
205.5	9
205.6	15
205.7	21
205.8	22
205.9	18
206.1	11
206.2	15
206.3	22
206.4	24
206.5	19
206.6	10
206.8	5
206.9	13
207.0	19
207.1	19
207.2	13
207.4	8
207.5	12
207.6	18
207.7	21
207.8	18
207.9	12
208.1	10
208.2	16
208.3	22
208.4	21
208.5	15
208.7	9
208.8	17
208.9	24
209.0	24
209.1	17
209.3	9
209.4	16
209.5	23
209.6	23
209.7	16
209.9	6
210.0	11
210.1	19
210.2	24
210.3	22
210.4	15
210.6	10
210.7	17
210.8	23
210.9	22
211.0	15
211.2	10
211.3	15
211.4	21
211.5	24
211.6	20
211.7	12
211.9	8
212.0	17
212.1	24
212.2	25
212.3	17
212.5	7
212.6	15
212.7	24
212.8	25
212.9	18
213.1	10
213.2	15
213.3	21
213.4	23
213.5	18
213.6	10
213.8	7
213.9	14
214.0	20
214.1	20
214.2	16
214.4	10
214.5	13
214.6	18
214.7	20
214.8	15
215.1	9
215.2	15
215.3	18
215.4	18
215.7	13
215.8	18
215.9	22
216.0	21
216.1	14
216.4	6
216.5	15
216.6	20
216.7	17
216.8	9
217.0	5
217.1	11
217.2	18
217.3	20
217.4	16
217.6	6
217.7	11
217.8	19
217.9	25
218.0	22
218.1	14
218.3	7
218.4	13
218.5	18
218.6	17
218.7	11
218.9	4
219.0	9
219.1	16
219.2	19
219.3	16
219.5	8
219.6	12
219.7	20
219.8	24
219.9	19
220.0	10
220.2	5
220.3	14
220.4	23
220.5	25
220.6	19
220.9	9
221.0	19
221.1	25
221.2	21
221.3	12
221.5	8
221.6	15
221.7	21
221.8	19
221.9	13
222.1	8
222.2	15
222.3	21
222.4	23
222.5	18
222.6	10
222.8	7
222.9	14
223.0	19
223.1	19
223.2	14
223.4	6
223.5	10
223.6	17
223.7	21
223.8	19
224.6	7
224.7	11
224.8	18
224.9	22
225.0	19
225.1	11
225.3	6
225.4	15
225.5	22
225.6	21
225.7	13
225.9	3
226.0	11
226.1	22
226.2	28
226.3	25
226.4	16
227.3	7
227.4	12
227.5	17
227.6	17
227.9	11
228.0	16
228.1	21
228.2	20
228.3	13
228.5	8
228.6	16
228.7	24
228.8	26
228.9	19
229.2	13
229.3	20
229.4	24
229.5	22
229.6	14
229.8	7
229.9	14
230.0	22
230.1	23
230.2	16
230.4	1
230.5	7
230.6	19
230.7	25
230.8	22
230.9	14
231.1	11
231.2	15
231.3	16
231.4	14
231.6	8
231.7	10
231.8	16
231.9	21
232.0	21
232.1	15
232.4	7
232.5	14
232.6	18
232.7	15
232.9	5
233.0	10
233.1	20
233.2	27
233.3	25
233.4	17
233.7	8
233.8	15
233.9	18
234.0	16
234.1	11
234.3	9
234.4	15
234.5	21
234.6	21
234.7	15
234.9	5
235.0	11
235.1	20
235.2	24
235.3	20
235.4	11
235.6	7
235.7	14
235.8	19
235.9	17
236.2	7
236.3	16
236.4	23
236.5	23
236.6	16
236.8	7
236.9	11
237.0	18
237.1	20
237.2	18
237.3	12
237.5	9
237.6	16
237.7	22
237.8	21
237.9	12
238.1	4
238.2	12
238.3	22
238.4	24
238.5	16
238.7	4
238.8	10
238.9	18
239.0	22
239.1	18
239.2	10
239.4	8
239.5	15
239.6	22
239.7	21
239.8	15
240.0	8
240.1	12
240.2	19
240.3	20
240.4	14
240.6	3
240.7	9
240.8	17
240.9	23
241.0	20
241.1	11
241.3	4
241.4	11
241.5	19
241.6	22
241.7	18
241.8	11
242.0	9
242.1	16
242.2	21
242.3	20
242.6	13
242.7	19
242.8	23
242.9	21
243.0	15
243.2	6
243.3	10
243.4	18
243.5	23
243.6	21
243.7	14
243.9	7
244.0	13
244.1	20
244.2	22
244.3	19
245.1	8
245.2	11
245.3	17
245.4	23
245.5	23
245.6	18
245.8	9
245.9	14
246.0	22
246.1	24
246.2	18
246.3	8
246.5	6
246.6	15
246.7	23
246.8	23
246.9	16
247.1	8
247.2	15
247.3	21
247.4	21
247.5	17
247.7	11
247.8	15
247.9	20
248.0	22
248.1	18
248.4	10
248.5	17
248.6	22
248.7	21
248.8	14
249.0	6
249.1	12
249.2	19
249.3	22
249.4	17
249.6	5
249.7	10
249.8	18
249.9	23
250.0	20
250.1	12
250.3	7
250.4	13
250.5	19
250.6	20
250.7	15
250.9	10
251.0	15
251.1	21
251.2	23
251.3	19
251.4	13
251.6	11
251.7	18
251.8	23
251.9	23
252.0	18
252.2	14
252.3	17
252.4	21
252.5	19
252.6	14
252.8	9
252.9	15
253.0	22
253.1	24
253.2	19
253.3	10
253.5	7
253.6	14
253.7	21
253.8	21
253.9	15
254.1	9
254.2	13
254.3	18
254.4	19
254.5	15
254.8	10
254.9	15
255.0	19
255.1	18
255.2	13
255.4	8
255.5	13
255.6	18
255.7	19
255.8	15
256.0	10
256.1	14
256.2	20
256.3	23
256.4	19
256.7	12
256.8	17
256.9	20
257.0	18
257.1	13
257.3	8
257.4	13
257.5	19
257.6	22
257.7	18
257.9	6
258.0	11
258.1	20
258.2	25
258.3	22
258.4	12
258.6	6
258.7	12
258.8	19
258.9	19
259.0	15
259.2	9
259.3	13
259.4	19
259.5	21
259.6	16
259.9	10
260.0	16
260.1	19
260.4	15
260.5	22
260.6	28
260.7	28
260.8	22
260.9	15
261.2	11
261.3	15
261.4	17
261.5	16
261.6	13
261.8	9
261.9	13
262.0	18
262.1	20
262.2	16
262.5	10
262.6	17
262.7	21
262.8	20
262.9	14
263.1	8
263.2	13
263.3	18
263.4	18
263.5	12
263.7	3
263.8	10
263.9	19
264.0	23
264.1	17
264.2	8
264.4	7
264.5	16
264.6	21
264.7	20
264.8	14
265.0	9
265.1	14
265.2	19
265.3	19
265.4	16
266.3	8
266.4	14
266.5	19
266.6	19
266.7	14
266.9	10
267.0	17
267.1	23
267.2	23
267.3	16
267.6	9
267.7	17
267.8	23
267.9	22
268.0	16
268.8	6
268.9	12
269.0	19
269.1	21
269.2	17
269.3	11
269.5	8
269.6	15
269.7	20
269.8	21
269.9	17
270.7	7
270.8	11
270.9	17
271.0	22
271.1	20
271.2	14
271.4	8
271.5	13
271.6	19
271.7	22
271.8	17
272.6	2
272.7	6
272.8	16
272.9	25
273.0	27
273.1	20
274.0	9
274.1	15
274.2	19
274.3	17
274.4	11
274.6	6
274.7	12
274.8	20
274.9	24
275.0	21
275.1	15
275.3	11
275.4	16
275.5	20
275.6	17
275.9	11
276.0	19
276.1	23
276.2	20
276.3	12
276.5	7
276.6	14
276.7	21
276.8	23
276.9	18
277.0	10
277.2	9
277.3	15
277.4	19
277.5	18
277.6	13
277.8	9
277.9	13
278.0	17
278.1	18
278.2	13
278.4	6
278.5	12
278.6	20
278.7	22
278.8	17
278.9	8
279.1	3
279.2	9
279.3	15
279.4	17
279.7	11
279.8	17
279.9	24
280.0	24
280.1	17
281.0	5
281.1	14
281.2	21
281.3	21
281.4	15
281.6	7
281.7	13
281.8	21
281.9	24
282.0	18
282.1	9
282.3	7
282.4	14
282.5	21
282.6	23
282.7	20
282.8	14
283.0	11
283.1	17
283.2	21
283.3	19
283.4	11
283.6	9
283.7	18
283.8	24
283.9	23
284.0	14
284.2	7
284.3	14
284.4	20
284.5	19
284.6	12
284.8	8
284.9	15
285.0	22
285.1	21
285.2	14
285.4	2
285.5	7
285.6	17
285.7	23
285.8	22
285.9	15
286.1	7
286.2	14
286.3	21
286.4	23
286.5	18
286.8	11
286.9	16
287.0	20
287.1	19
287.2	15
287.4	11
287.5	15
287.6	19
287.7	20
287.8	16
288.1	11
288.2	15
288.3	19
288.4	19
288.5	14
288.7	11
288.8	17
288.9	23
289.0	22
289.1	15
289.3	5
289.4	10
289.5	17
289.6	20
289.7	17
289.8	11
290.0	8
290.1	15
290.2	21
290.3	20
290.4	15
290.6	13
290.7	19
290.8	24
290.9	23
291.0	17
291.2	9
291.3	13
291.4	20
291.5	22
291.6	18
291.9	9
292.0	17
292.1	24
292.2	24
292.3	19
293.1	8
293.2	12
293.3	18
293.4	21
293.5	19
293.6	12
293.8	7
293.9	14
294.0	22
294.1	23
294.2	16
294.5	8
294.6	15
294.7	20
294.8	18
294.9	12
295.1	7
295.2	13
295.3	21
295.4	23
295.5	18
296.3	3
296.4	8
296.5	18
296.6	26
296.7	25
296.8	16
297.0	5
297.1	11
297.2	18
297.3	21
297.4	17
297.6	8
297.7	13
297.8	19
297.9	21
298.0	18
298.3	12
298.4	19
298.5	25
298.6	24
298.7	16
298.9	8
299.0	14
299.1	21
299.2	23
299.3	17
299.6	6
299.7	17
299.8	23
299.9	19
300.0	9
300.2	3
300.3	13
300.4	24
300.5	26
300.6	20
300.8	9
300.9	15
301.0	22
301.1	24
301.2	17
301.5	8
301.6	16
301.7	21
301.8	19
301.9	13
302.1	10
302.2	16
302.3	21
302.4	22
302.5	16
302.7	4
302.8	9
302.9	18
303.0	25
303.1	22
303.2	14
303.4	6
303.5	12
303.6	19
303.7	21
303.8	16
304.0	7
304.1	11
304.2	18
304.3	22
304.4	20
304.5	13
304.7	10
304.8	16
304.9	22
305.0	21
305.1	14
305.3	5
305.4	10
305.5	17
305.6	21
305.7	18
306.0	11
306.1	19
306.2	24
306.3	21
306.4	14
306.6	7
306.7	13
306.8	20
306.9	21
307.0	17
307.3	11
307.4	18
307.5	22
307.6	19
307.7	12
307.9	10
308.0	14
308.1	18
308.2	17
308.3	12
308.5	8
308.6	13
308.7	19
308.8	21
308.9	17
309.2	11
309.3	17
309.4	21
309.5	19
309.6	13
309.8	8
309.9	13
310.0	17
310.1	17
310.2	13
310.4	5
310.5	10
310.6	19
310.7	25
310.8	22
310.9	12
311.1	6
311.2	14
311.3	19
311.4	17
311.5	9
311.7	5
311.8	12
311.9	21
312.0	25
312.1	23
312.2	16
312.4	10
312.5	14
312.6	18
312.7	19
312.8	15
313.0	9
313.1	14
313.2	18
313.3	18
313.4	12
313.6	4
313.7	9
313.8	15
313.9	20
314.0	20
314.1	17
314.3	15
314.4	18
314.5	21
314.6	20
314.7	16
314.9	9
315.0	12
315.1	17
315.2	20
315.3	15
315.6	9
315.7	16
315.8	21
315.9	20
316.0	13
316.2	5
316.3	10
316.4	17
316.5	20
316.6	16
316.8	6
316.9	10
317.0	18
317.1	22
317.2	18
317.3	10
317.5	7
317.6	14
317.7	22
317.8	22
317.9	16
318.2	9
318.3	17
318.4	21
318.5	18
318.6	11
318.8	9
318.9	15
319.0	19
319.1	17
319.2	12
319.4	9
319.5	14
319.6	20
319.7	22
319.8	20
320.7	8
320.8	15
320.9	20
321.0	19
321.1	13
321.3	10
321.4	16
321.5	21
321.6	22
321.7	19
322.0	14
322.1	19
322.2	22
322.3	19
322.4	12
322.6	6
322.7	10
322.8	16
322.9	19
323.0	17
323.2	12
323.3	15
323.4	20
323.5	23
323.6	19
323.7	13
323.9	10
324.0	16
324.1	23
324.2	25
324.3	20
324.4	14
325.2	9
325.3	17
325.4	22
325.5	19
325.6	10
325.8	6
325.9	15
326.0	21
326.1	19
326.3	4
326.4	9
326.5	23
326.6	34
326.7	33
326.8	22
326.9	11
327.1	8
327.2	15
327.3	21
327.4	19
327.5	12
327.7	8
327.8	16
327.9	23
328.0	24
328.1	17
328.3	6
328.4	11
328.5	19
328.6	24
328.7	23
328.8	15
329.0	8
329.1	14
329.2	20
329.3	21
329.4	15
329.6	5
329.7	11
329.8	22
329.9	27
330.0	23
330.1	13
330.3	9
330.4	16
330.5	21
330.6	20
330.7	14
330.9	7
331.0	11
331.1	16
331.2	15
331.3	10
331.5	4
331.6	10
331.7	17
331.8	21
331.9	19
332.0	11
332.2	5
332.3	13
332.4	21
332.5	23
332.6	17
332.9	8
333.0	16
333.1	21
333.2	19
333.3	11
333.5	7
333.6	16
333.7	23
333.8	23
333.9	18
334.8	7
334.9	14
335.0	21
335.1	20
335.2	12
335.4	10
335.5	19
335.6	25
335.7	24
335.8	16
336.1	6
336.2	15
336.3	19
336.4	16
336.7	9
336.8	17
336.9	24
337.0	23
337.1	16
337.3	8
337.4	12
337.5	17
337.6	19
337.7	15
338.0	8
338.1	15
338.2	22
338.3	23
338.4	16
338.6	4
338.7	8
338.8	19
338.9	28
339.0	28
339.1	20
339.3	15
339.4	21
339.5	25
339.6	21
339.7	15
340.5	7
340.6	13
340.7	19
340.8	21
340.9	16
341.0	9
341.2	7
341.3	14
341.4	18
341.5	15
341.7	5
341.8	10
341.9	19
342.0	24
342.1	23
342.2	16
343.0	6
343.1	10
343.2	15
343.3	19
343.4	18
343.7	12
343.8	17
343.9	22
344.0	22
344.1	17
344.4	11
344.5	17
344.6	22
344.7	19
344.8	12
345.0	7
345.1	12
345.2	18
345.3	19
345.4	14
345.6	8
345.7	12
345.8	19
345.9	21
346.0	18
346.3	11
346.4	18
346.5	23
346.6	23
346.7	17
347.5	9
347.6	12
347.7	18
347.8	22
347.9	20
348.0	12
348.2	6
348.3	13
348.4	21
348.5	22
348.6	17
348.7	9
348.9	8
349.0	14
349.1	19
349.2	17
349.3	11
349.5	8
349.6	14
349.7	21
349.8	21
349.9	15
350.1	8
350.2	13
350.3	18
350.4	18
350.5	13
350.7	6
350.8	12
350.9	20
351.0	23
351.1	20
351.2	13
351.4	9
351.5	12
351.6	16
351.7	16
351.8	12
352.0	7
352.1	12
352.2	21
352.3	26
352.4	25
352.5	18
352.7	8
352.8	14
352.9	21
353.0	23
353.1	18
354.0	9
354.1	17
354.2	23
354.3	21
354.4	13
354.6	4
354.7	10
354.8	18
354.9	20
355.0	15
355.2	11
355.3	19
355.4	26
355.5	28
355.6	21
355.7	12
355.9	9
356.0	16
356.1	23
356.2	24
356.3	18
356.4	10
356.6	9
356.7	15
356.8	18
356.9	15
357.1	9
357.2	13
357.3	20
357.4	23
357.5	20
357.6	13
357.8	9
357.9	15
358.0	21
358.1	22
358.2	17
358.4	8
358.5	12
358.6	19
358.7	21
358.8	17
358.9	10
359.1	8
359.2	16
359.3	22
359.4	21
359.5	13
359.7	5
359.8	12
359.9	19
360.0	22
360.1	18
360.3	7
360.4	11
360.5	20
360.6	27
360.7	25
360.8	16
361.0	6
361.1	14
361.2	23
361.3	26
361.4	20
362.3	8
362.4	17
362.5	23
362.6	23
362.7	15
362.9	8
363.0	14
363.1	22
363.2	23
363.3	17
363.6	11
363.7	18
363.8	22
363.9	21
364.0	16
364.8	5
364.9	10
365.0	18
365.1	22
365.2	19
365.3	12
365.5	6
365.6	13
365.7	19
365.8	20
365.9	15
366.1	7
366.2	14
366.3	25
366.4	31
366.5	26
366.6	17
366.8	12
366.9	17
367.0	20
367.1	18
367.2	13
367.4	9
367.5	14
367.6	20
367.7	22
367.8	19
368.1	12
368.2	20
368.3	24
368.4	20
368.5	10
368.7	5
368.8	13
368.9	20
369.0	20
369.1	15
369.3	9
369.4	13
369.5	19
369.6	21
369.7	18
369.8	10
370.0	6
370.1	12
370.2	18
370.3	18
370.4	13
370.6	9
370.7	15
370.8	22
370.9	23
371.0	18
371.1	9
371.3	6
371.4	12
371.5	15
371.6	14
371.8	7
371.9	11
372.0	17
372.1	19
372.2	15
372.3	8
372.5	5
372.6	10
372.7	15
372.8	18
372.9	17
373.0	11
373.2	7
373.3	13
373.4	18
373.5	18
373.6	11
373.8	4
373.9	9
374.0	16
374.1	19
374.2	14
374.4	5
374.5	10
374.6	19
374.7	25
374.8	23
374.9	15
375.1	5
375.2	10
375.3	17
375.4	19
375.5	16
375.7	10
375.8	14
375.9	19
376.0	21
376.1	18
376.4	11
376.5	18
376.6	22
376.7	21
376.8	14
377.0	7
377.1	12
377.2	19
377.3	21
377.4	16
377.7	8
377.8	15
377.9	19
378.0	17
378.3	9
378.4	15
378.5	19
378.6	17
378.7	10
378.9	8
379.0	14
379.1	19
379.2	21
379.3	18
379.4	13
379.6	10
379.7	15
379.8	19
379.9	18
380.0	11
380.2	8
380.3	16
380.4	24
380.5	25
380.6	18
380.9	9
381.0	17
381.1	21
381.2	18
381.3	11
381.5	7
381.6	13
381.7	19
381.8	19
381.9	15
382.1	8
382.2	13
382.3	18
382.4	19
382.5	14
382.8	6
382.9	14
383.0	21
383.1	21
383.2	13
383.4	3
383.5	10
383.6	19
383.7	23
383.8	19
383.9	12
384.1	11
384.2	17
384.3	20
384.4	17
384.7	11
384.8	18
384.9	23
385.0	22
385.1	16
385.3	7
385.4	12
385.5	19
385.6	21
385.7	16
385.9	5
386.0	10
386.1	19
386.2	24
386.3	23
386.4	16
386.6	9
386.7	13
386.8	17
386.9	16
387.0	11
387.2	5
387.3	8
387.4	14
387.5	19
387.6	20
387.7	16
387.9	11
388.0	15
388.1	19
388.2	18
388.3	12
388.5	3
388.6	6
388.7	14
388.8	18
388.9	16
389.1	7
389.2	12
389.3	18
389.4	21
389.5	19
389.6	13
389.8	9
389.9	14
390.0	19
390.1	21
390.2	17
390.3	10
390.5	8
390.6	15
390.7	20
390.8	18
391.1	10
391.2	18
391.3	24
391.4	22
391.5	14
391.7	9
391.8	16
391.9	23
392.0	23
392.1	14
392.3	0
392.4	6
392.5	18
392.6	24
392.7	21
392.8	12
393.0	7
393.1	15
393.2	21
393.3	21
393.4	14
393.6	5
393.7	10
393.8	19
393.9	24
394.0	22
394.1	15
394.3	7
394.4	11
394.5	17
394.6	20
394.7	18
395.6	6
395.7	12
395.8	18
395.9	17
396.0	12
396.2	9
396.3	14
396.4	19
396.5	19
396.6	14
396.8	9
396.9	13
397.0	18
397.1	19
397.2	14
397.4	5
397.5	10
397.6	20
397.7	27
397.8	25
397.9	15
398.1	1
398.2	8
398.3	19
398.4	25
398.5	21
398.6	12
398.8	9
398.9	16
399.0	22
399.1	21
399.2	16
399.4	10
399.5	14
399.6	19
399.7	19
399.8	13
400.0	5
400.1	12
400.2	22
400.3	27
400.4	23
400.5	14
400.7	10
400.8	14
400.9	18
401.0	16
401.3	8
401.4	16
401.5	24
401.6	25
401.7	19
401.9	8
402.0	13
402.1	23
402.2	29
402.3	25
402.4	15
402.6	7
402.7	14
402.8	20
402.9	20
403.0	14
403.2	8
403.3	14
403.4	20
403.5	22
403.6	18
403.9	12
404.0	18
404.1	22
404.2	19
404.3	12
404.5	6
404.6	12
404.7	20
404.8	23
404.9	17
405.2	7
405.3	17
405.4	24
405.5	23
405.6	14
405.8	8
405.9	15
406.0	22
406.1	22
406.2	16
406.5	9
406.6	15
406.7	20
406.8	20
406.9	18
407.1	15
407.2	19
407.3	21
407.4	19
407.5	13
407.7	10
407.8	15
407.9	19
408.0	19
408.1	16
408.4	11
408.5	17
408.6	23
408.7	22
408.8	16
409.0	7
409.1	12
409.2	19
409.3	21
409.4	17
409.5	11
409.7	8
409.8	12
409.9	15
410.0	17
410.1	16
410.2	14
410.3	15
410.4	18
410.5	21
410.6	22
410.7	17
411.0	11
411.1	17
411.2	20
411.3	17
411.5	10
411.6	14
411.7	20
411.8	24
411.9	21
412.0	14
412.2	10
412.3	15
412.4	20
412.5	21
412.6	17
412.8	11
412.9	14
413.0	19
413.1	20
413.2	17
413.5	12
413.6	17
413.7	21
413.8	20
413.9	14
414.1	8
414.2	14
414.3	20
414.4	21
414.5	17
414.8	11
414.9	16
415.0	20
415.1	20
415.2	14
415.4	9
415.5	15
415.6	20
415.7	21
415.8	16
416.0	9
416.1	13
416.2	19
416.3	22
416.4	18
416.5	10
416.7	7
416.8	16
416.9	23
417.0	23
417.1	14
417.3	4
417.4	10
417.5	19
417.6	22
417.7	18
417.8	12
418.0	11
418.1	16
418.2	19
418.3	17
418.4	11
418.6	7
418.7	14
418.8	22
418.9	24
419.0	17
419.3	9
419.4	15
419.5	19
419.6	16
419.7	11
419.9	7
420.0	12
420.1	17
420.2	16
420.3	10
420.5	7
420.6	15
420.7	23
420.8	24
420.9	17
421.1	5
421.2	11
421.3	20
421.4	24
421.5	20
421.6	10
421.8	7
421.9	16
422.0	23
422.1	23
422.2	17
422.4	9
422.5	14
422.6	21
422.7	26
422.8	22
422.9	14
423.1	8
423.2	13
423.3	19
423.4	20
423.5	15
423.7	8
423.8	13
423.9	19
424.0	21
424.1	16
424.4	7
424.5	15
424.6	20
424.7	19
424.8	12
425.0	7
425.1	13
425.2	20
425.3	22
425.4	15
425.6	4
425.7	10
425.8	20
425.9	25
426.0	21
426.1	12
426.3	7
426.4	13
426.5	19
426.6	19
426.7	13
426.9	5
427.0	10
427.1	17
427.2	21
427.3	17
427.6	11
427.7	16
427.8	19
427.9	18
428.0	13
428.2	8
428.3	13
428.4	20
428.5	23
428.6	19
429.5	8
429.6	15
429.7	20
429.8	19
429.9	13
430.1	7
430.2	14
430.3	20
430.4	21
430.5	16
430.7	9
430.8	13
430.9	18
431.0	20
431.1	19
431.2	14
431.4	8
431.5	13
431.6	19
431.7	19
431.8	14
432.0	6
432.1	12
432.2	20
432.3	24
432.4	21
432.7	14
432.8	22
432.9	26
433.0	22
433.1	13
433.3	5
433.4	12
433.5	19
433.6	20
433.7	14
434.0	5
434.1	14
434.2	21
434.3	20
434.4	11
434.6	4
434.7	11
434.8	19
434.9	21
435.0	15
435.8	5
435.9	9
436.0	17
436.1	22
436.2	19
436.3	11
436.5	4
436.6	12
436.7	22
436.8	25
436.9	18
437.0	7
437.2	5
437.3	15
437.4	20
437.5	18
437.6	11
437.8	8
437.9	16
438.0	25
438.1	26
438.2	19
439.1	6
439.2	14
439.3	20
439.4	19
439.5	14
439.7	8
439.8	13
439.9	18
440.0	19
440.1	14
440.4	9
440.5	16
440.6	21
440.7	19
440.8	13
441.0	5
441.1	11
441.2	19
441.3	20
441.4	15
441.6	8
441.7	12
441.8	18
441.9	21
442.0	18
442.1	10
442.3	5
442.4	12
442.5	20
442.6	21
442.7	16
442.9	8
443.0	12
443.1	19
443.2	22
443.3	18
443.6	10
443.7	19
443.8	25
443.9	23
444.0	16
444.2	11
444.3	18
444.4	23
444.5	22
444.6	15
444.8	7
444.9	12
445.0	18
445.1	20
445.2	16
445.5	11
445.6	17
445.7	22
445.8	22
445.9	17
446.1	9
446.2	13
446.3	18
446.4	21
446.5	18
447.4	8
447.5	15
447.6	20
447.7	20
447.8	16
448.0	10
448.1	14
448.2	20
448.3	23
448.4	20
448.5	14
448.7	10
448.8	15
448.9	20
449.0	20
449.1	15
449.3	7
449.4	12
449.5	19
449.6	23
449.7	20
449.8	10
450.0	5
450.1	14
450.2	23
450.3	24
450.4	17
451.2	7
451.3	11
451.4	19
451.5	24
451.6	21
451.7	13
451.9	6
452.0	13
452.1	19
452.2	20
452.3	15
452.5	8
452.6	13
452.7	19
452.8	22
452.9	20
453.0	14
453.2	11
453.3	17
453.4	22
453.5	20
453.6	14
453.8	9
453.9	16
454.0	22
454.1	22
454.2	15
454.4	5
454.5	12
454.6	21
454.7	26
454.8	22
454.9	13
455.1	8
455.2	15
455.3	20
455.4	19
455.5	13
455.7	6
455.8	12
455.9	19
456.0	22
456.1	19
457.0	11
457.1	18
457.2	25
457.3	26
457.4	18
457.7	8
457.8	17
457.9	23
458.0	20
458.1	14
458.3	12
458.4	19
458.5	24
458.6	22
458.7	13
458.9	4
459.0	10
459.1	20
459.2	25
459.3	21
459.4	14
459.6	10
459.7	16
459.8	22
459.9	23
460.0	18
460.2	13
460.3	16
460.4	20
460.5	19
460.6	13
460.8	5
460.9	11
461.0	18
461.1	20
461.2	17
461.5	11
461.6	18
461.7	25
461.8	25
461.9	18
462.1	10
462.2	14
462.3	21
462.4	23
462.5	18
462.8	10
462.9	18
463.0	23
463.1	22
463.2	15
463.4	7
463.5	12
463.6	18
463.7	19
463.8	12
464.0	6
464.1	15
464.2	23
464.3	24
464.4	18
464.5	11
464.7	9
464.8	14
464.9	17
465.0	16
465.1	12
465.3	8
465.4	14
465.5	20
465.6	22
465.7	18
465.8	12
466.0	10
466.1	16
466.2	21
466.3	19
466.4	10
466.6	5
466.7	12
466.8	19
466.9	18
467.0	13
467.2	10
467.3	16
467.4	21
467.5	22
467.6	17
467.7	10
467.9	8
468.0	13
468.1	17
468.2	18
468.3	14
468.5	7
468.6	10
468.7	16
468.8	20
468.9	17
469.2	10
469.3	16
469.4	20
469.5	17
469.6	9
469.8	6
469.9	13
470.0	20
470.1	20
470.2	15
470.4	8
470.5	12
470.6	19
470.7	23
470.8	20
470.9	15
471.1	10
471.2	13
471.3	17
471.4	17
471.5	14
471.7	9
471.8	12
471.9	18
472.0	20
472.1	17
472.9	9
473.0	12
473.1	18
473.2	22
473.3	22
473.4	16
473.6	6
473.7	11
473.8	18
473.9	21
474.0	17
474.3	9
474.4	17
474.5	23
474.6	21
474.7	14
474.9	6
475.0	12
475.1	19
475.2	20
475.3	15
475.5	7
475.6	11
475.7	18
475.8	22
475.9	20
476.0	13
476.2	9
476.3	16
476.4	22
476.5	22
476.6	16
476.8	6
476.9	12
477.0	20
477.1	25
477.2	21
477.3	11
477.5	6
477.6	14
477.7	21
477.8	21
477.9	14
478.1	6
478.2	13
478.3	21
478.4	23
478.5	17
478.8	10
478.9	17
479.0	22
479.1	21
479.2	14
479.4	8
479.5	15
479.6	22
479.7	23
479.8	17
480.0	6
480.1	12
480.2	20
480.3	23
480.4	17
480.5	9
480.7	6
480.8	12
480.9	16
481.0	15
481.1	10
481.3	7
481.4	13
481.5	19
481.6	20
481.7	15
482.0	6
482.1	14
482.2	20
482.3	18
482.4	11
482.6	5
482.7	12
482.8	21
482.9	24
483.0	20
483.1	12
483.3	9
483.4	16
483.5	20
483.6	18
483.7	12
483.9	9
484.0	15
484.1	22
484.2	23
484.3	17
484.6	10
484.7	16
484.8	18
484.9	16
485.1	11
485.2	13
485.3	18
485.4	22
485.5	21
485.6	16
485.8	13
485.9	19
486.0	23
486.1	22
486.2	15
486.4	6
486.5	12
486.6	20
486.7	23
486.8	17
487.1	7
487.2	17
487.3	24
487.4	24
487.5	17
487.8	9
487.9	15
488.0	18
488.1	16
488.3	11
488.4	14
488.5	18
488.6	20
488.7	17
489.0	8
489.1	16
489.2	23
489.3	25
489.4	20
490.3	10
490.4	17
490.5	24
490.6	24
490.7	17
491.0	9
491.1	16
491.2	20
491.3	17
491.6	12
491.7	16
491.8	19
491.9	17
492.0	11
492.2	6
492.3	10
492.4	16
492.5	18
492.6	16
492.8	8
492.9	12
493.0	20
493.1	25
493.2	21
493.3	11
493.5	6
493.6	16
493.7	24
493.8	25
493.9	17
494.1	5
494.2	12
494.3	20
494.4	24
494.5	19
494.8	9
494.9	17
495.0	23
495.1	22
495.2	17
495.4	13
495.5	18
495.6	23
495.7	22
495.8	15
496.0	4
496.1	10
496.2	18
496.3	21
496.4	17
497.3	2
497.4	8
497.5	17
497.6	22
497.7	18
497.8	10
498.0	6
498.1	14
498.2	21
498.3	21
498.4	15
498.6	9
498.7	13
498.8	19
498.9	22
499.0	19
499.1	13
499.3	11
499.4	16
499.5	20
499.6	17
499.9	11
500.0	18
500.1	23
500.2	23
500.3	18
500.5	10
500.6	14
500.7	20
500.8	22
500.9	17
501.1	9
501.2	13
501.3	20
501.4	23
501.5	19
501.6	12
501.8	10
501.9	15
502.0	19
502.1	18
502.2	13
502.4	3
502.5	7
502.6	15
502.7	21
502.8	18
502.9	10
503.1	8
503.2	16
503.3	22
503.4	22
503.5	17
503.7	10
503.8	15
503.9	21
504.0	21
504.1	16
504.3	8
504.4	12
504.5	19
504.6	23
504.7	20
504.8	13
505.0	6
505.1	13
505.2	21
505.3	24
505.4	18
505.7	8
505.8	17
505.9	24
506.0	22
506.1	14
506.3	10
506.4	16
506.5	20
506.6	18
506.7	11
506.9	8
507.0	14
507.1	19
507.2	20
507.3	14
507.5	6
507.6	10
507.7	17
507.8	21
507.9	19
508.0	13
508.2	10
508.3	16
508.4	21
508.5	21
508.6	14
508.8	6
508.9	11
509.0	17
509.1	21
509.2	19
509.3	13
509.5	10
509.6	14
509.7	18
509.8	18
509.9	14
510.1	10
510.2	15
510.3	20
510.4	21
510.5	16
510.8	9
510.9	16
511.0	23
511.1	22
511.2	15
511.4	8
511.5	14
511.6	22
511.7	22
511.8	15
512.0	7
512.1	12
512.2	19
512.3	21
512.4	17
513.3	7
513.4	14
513.5	21
513.6	24
513.7	20
513.8	12
514.0	6
514.1	13
514.2	19
514.3	19
514.4	14
514.6	9
514.7	15
514.8	22
514.9	23
515.0	17
515.2	7
515.3	12
515.4	20
515.5	24
515.6	21
515.7	13
515.9	7
516.0	14
516.1	20
516.2	20
516.3	14
516.5	9
516.6	16
516.7	23
516.8	25
516.9	18
517.1	8
517.2	13
517.3	20
517.4	23
517.5	19
517.6	12
517.8	8
517.9	14
518.0	19
518.1	20
518.2	16
518.5	11
518.6	17
518.7	21
518.8	19
518.9	13
519.1	12
519.2	16
519.3	18
519.4	16
519.5	12
519.7	9
519.8	13
519.9	17
520.0	17
520.1	11
520.3	6
520.4	12
520.5	21
520.6	25
520.7	23
520.8	16
521.0	8
521.1	12
521.2	18
521.3	21
521.4	17
521.6	9
521.7	14
521.8	21
521.9	24
522.0	20
522.1	12
522.3	9
522.4	16
522.5	21
522.6	20
522.7	13
522.9	10
523.0	17
523.1	23
523.2	24
523.3	17
523.6	8
523.7	17
523.8	24
523.9	24
524.0	18
524.2	7
524.3	12
524.4	19
524.5	21
524.6	15
524.8	4
524.9	10
525.0	20
525.1	25
525.2	21
525.3	13
525.5	10
525.6	18
525.7	23
525.8	20
525.9	9
526.1	4
526.2	15
526.3	26
526.4	27
526.5	18
526.6	7
526.8	7
526.9	15
527.0	21
527.1	22
527.2	17
527.4	8
527.5	13
527.6	20
527.7	21
527.8	16
528.7	6
528.8	14
528.9	21
529.0	22
529.1	16
529.3	5
529.4	9
529.5	18
529.6	22
529.7	19
529.8	11
530.0	5
530.1	11
530.2	16
530.3	16
530.6	9
530.7	15
530.8	21
530.9	22
531.0	18
532.5	5
532.6	12
532.7	19
532.8	22
532.9	17
533.1	7
533.2	11
533.3	19
533.4	24
533.5	20
533.6	11
533.8	4
533.9	11
534.0	18
534.1	18
534.2	12
534.4	5
534.5	11
534.6	20
534.7	23
534.8	17
534.9	8
535.1	7
535.2	15
535.3	21
535.4	19
535.5	12
535.7	6
535.8	13
535.9	21
536.0	25
536.1	20
536.2	10
536.4	6
536.5	14
536.6	21
536.7	21
536.8	16
537.0	10
537.1	14
537.2	17
537.3	17
537.4	14
537.6	9
537.7	13
537.8	19
537.9	22
538.0	18
538.1	11
538.3	9
538.4	16
538.5	20
538.6	17
538.7	9
538.9	6
539.0	14
539.1	22
539.2	22
539.3	15
539.5	4
539.6	9
539.7	17
539.8	22
539.9	20
540.0	14
540.2	8
540.3	14
540.4	21
540.5	24
540.6	21
540.7	14
540.9	10
541.0	16
541.1	20
541.2	17
541.5	8
541.6	18
541.7	25
541.8	23
541.9	14
542.1	8
542.2	15
542.3	23
542.4	25
542.5	21
542.6	12
542.8	9
542.9	14
543.0	18
543.1	17
543.2	12
543.4	9
543.5	15
543.6	21
543.7	20
543.8	14
544.7	10
544.8	16
544.9	20
545.0	21
545.1	17
545.3	11
545.4	15
545.5	19
545.6	19
545.7	15
546.0	11
546.1	16
546.2	20
546.3	18
546.4	12
546.6	8
546.7	14
546.8	20
546.9	19
547.0	14
547.2	7
547.3	11
547.4	17
547.5	20
547.6	17
547.7	10
547.9	7
548.0	15
548.1	21
548.2	20
548.3	14
548.5	7
548.6	12
548.7	18
548.8	20
548.9	16
549.2	12
549.3	17
549.4	20
549.5	18
549.6	12
549.8	6
549.9	10
550.0	17
550.1	19
550.2	16
550.4	7
550.5	11
550.6	18
550.7	20
550.8	16
551.1	7
551.2	14
551.3	22
551.4	23
551.5	18
552.3	4
552.4	9
552.5	19
552.6	25
552.7	23
552.8	14
553.0	6
553.1	12
553.2	19
553.3	20
553.4	17
553.6	13
553.7	16
553.8	20
553.9	22
554.0	18
554.1	10
554.3	5
554.4	13
554.5	22
554.6	24
554.7	18
554.9	8
555.0	13
555.1	21
555.2	25
555.3	21
555.4	14
555.6	11
555.7	17
555.8	21
555.9	18
556.0	13
556.2	11
556.3	14
556.4	17
556.5	17
556.6	14
556.8	9
556.9	14
557.0	21
557.1	25
557.2	22
557.3	15
557.5	9
557.6	16
557.7	21
557.8	20
557.9	14
558.1	8
558.2	13
558.3	19
558.4	20
558.5	15
558.7	4
558.8	9
558.9	18
559.0	23
559.1	21
559.2	15
559.4	9
559.5	14
559.6	19
559.7	20
559.8	15
560.1	10
560.2	15
560.3	18
560.4	17
560.7	11
560.8	16
560.9	21
561.0	21
561.1	17
561.9	5
562.0	9
562.1	18
562.2	26
562.3	26
562.4	19
562.6	10
562.7	15
562.8	20
562.9	21
563.0	16
563.2	7
563.3	12
563.4	21
563.5	27
563.6	24
563.7	15
563.9	8
564.0	14
564.1	20
564.2	20
564.3	15
564.5	9
564.6	12
564.7	18
564.8	20
564.9	17
565.0	11
565.2	8
565.3	14
565.4	19
565.5	18
565.6	10
565.8	4
565.9	11
566.0	20
566.1	24
566.2	20
566.3	11
566.5	8
566.6	17
566.7	23
566.8	22
566.9	15
567.1	10
567.2	14
567.3	19
567.4	20
567.5	16
567.7	8
567.8	11
567.9	19
568.0	25
568.1	24
568.2	17
568.4	11
568.5	16
568.6	21
568.7	21
568.8	15
569.0	5
569.1	10
569.2	17
569.3	21
569.4	18
569.7	11
569.8	16
569.9	21
570.0	20
570.1	16
570.3	13
570.4	19
570.5	24
570.6	23
570.7	15
570.9	5
571.0	12
571.1	21
571.2	24
571.3	19
571.4	10
571.6	6
571.7	13
571.8	20
571.9	19
572.0	13
572.2	10
572.3	15
572.4	21
572.5	23
572.6	20
572.9	12
573.0	20
573.1	25
573.2	22
573.3	13
573.5	7
573.6	15
573.7	22
573.8	22
573.9	14
574.1	3
574.2	9
574.3	17
574.4	20
574.5	16
574.6	11
574.8	10
574.9	14
575.0	16
575.1	15
575.4	9
575.5	15
575.6	20
575.7	20
575.8	15
576.0	8
576.1	14
576.2	21
576.3	23
576.4	18
576.5	10
576.7	5
576.8	12
576.9	20
577.0	24
577.1	21
577.2	15
577.4	12
577.5	18
577.6	22
577.7	18
578.0	9
578.1	18
578.2	24
578.3	22
578.4	15
578.6	8
578.7	13
578.8	20
578.9	22
579.0	17
579.2	7
579.3	11
579.4	19
579.5	22
579.6	19
579.7	11
579.9	6
580.0	12
580.1	19
580.2	19
580.3	13
580.5	7
580.6	13
580.7	19
580.8	22
580.9	18
581.0	10
581.2	8
581.3	13
581.4	17
581.5	16
581.6	12
581.8	10
581.9	14
582.0	19
582.1	20
582.2	16
582.4	7
582.5	11
582.6	18
582.7	21
582.8	18
582.9	12
583.1	8
583.2	13
583.3	18
583.4	19
583.5	16
583.7	11
583.8	15
583.9	21
584.0	23
584.1	20
584.2	14
584.4	11
584.5	14
584.6	17
584.7	16
584.8	11
585.0	8
585.1	13
585.2	18
585.3	18
585.4	13
585.6	6
585.7	13
585.8	23
585.9	28
586.0	22
586.1	11
586.3	7
586.4	15
586.5	21
586.6	21
586.7	14
586.9	7
587.0	11
587.1	17
587.2	19
587.3	15
587.5	8
587.6	12
587.7	19
587.8	22
587.9	20
588.0	14
588.2	9
588.3	13
588.4	19
588.5	21
588.6	17
589.4	6
589.5	10
589.6	17
589.7	22
589.8	20
589.9	12
590.1	5
590.2	10
590.3	16
590.4	19
590.5	15
590.6	8
590.8	6
590.9	14
591.0	20
591.1	18
591.2	10
591.4	3
591.5	11
591.6	20
591.7	24
591.8	21
591.9	13
592.1	8
592.2	12
592.3	15
592.4	14
592.6	7
592.7	10
592.8	16
592.9	18
593.0	15
593.2	7
593.3	10
593.4	18
593.5	24
593.6	23
593.7	17
593.9	7
594.0	11
594.1	19
594.2	24
594.3	21
594.4	14
594.6	8
594.7	15
594.8	23
594.9	24
595.0	18
595.9	10
596.0	18
596.1	23
596.2	21
596.3	15
596.5	7
596.6	12
596.7	18
596.8	21
596.9	16
597.1	8
597.2	13
597.3	20
597.4	23
597.5	18
597.6	10
597.8	6
597.9	14
598.0	21
598.1	22
598.2	17
598.5	12
598.6	18
598.7	22
598.8	20
598.9	14
599.1	10
599.2	16
599.3	22
599.4	23
599.5	16
