Mass spectrum: Ajugalide E; LC-ESI-QQQ; MS2; Frag=135.0V CID@25.0; [M+HCOO]-
Name: Ajugalide E
Class: Terpenoids
Formula: C31H46O9
Exact mass: 562.7069
SMILES: CC(=O)O[C@H](CC1C(C)OC(=O)C1C)[C@](C)(O)C1CC[C@@]2(O)C3=CC(=O)[C@@H]4C[C@@H](O)C(O)C[C@]4(C)C3CC[C@]12C
InChI: InChI=1S/C31H46O9/c1-15-18(16(2)39-27(15)36)11-26(40-17(3)32)30(6,37)25-8-10-31(38)20-12-22(33)21-13-23(34)24(35)14-28(21,4)19(20)7-9-29(25,31)5/h12,15-16,18-19,21,23-26,34-35,37-38H,7-11,13-14H2,1-6H3/t15?,16?,18?,19?,21-,23+,24?,25?,26+,28+,29+,30+,31+/m0/s1
Instrument: Agilent 6410 Triple Quadrupole LC/MS system
Instrument type: LC-ESI-QQQ
Ms type: MS2
Ion mode: NEGATIVE
Precursor type: [M+HCOO]-
m/z	relative intensity
58.2	1
58.3	4
58.4	10
58.5	16
58.6	16
58.7	13
58.8	11
58.9	11
59.0	10
59.1	6
59.2	2
500.3	4
500.4	4
500.5	7
500.6	20
500.7	38
500.8	46
500.9	41
501.0	34
501.1	42
501.2	67
501.3	93
501.4	99
501.5	76
501.6	36
501.7	4
518.9	2
519.0	4
519.1	6
519.2	8
519.3	8
519.4	5
519.5	2
