Mass spectrum: cyclo(methionylpropyl); LC-ESI-QQQ; MS2; Frag=135.0V CID@5.0; [M+H]+
Name: cyclo(methionylpropyl)
Class: -
Formula: C10H16N2O2S
Exact mass: 228.3152
SMILES: CSCC[C@@H]1N=C(O)[C@@H]2CCCN2C1=O
InChI: InChI=1S/C10H16N2O2S/c1-15-6-4-7-10(14)12-5-2-3-8(12)9(13)11-7/h7-8H,2-6H2,1H3,(H,11,13)/t7-,8-/m0/s1
Instrument: Agilent 6410 Triple Quadrupole LC/MS system
Instrument type: LC-ESI-QQQ
Ms type: MS2
Ion mode: POSITIVE
Precursor type: [M+H]+
m/z	relative intensity
180.3	0
180.4	2
180.5	6
180.6	13
180.7	25
180.8	41
180.9	62
181.0	83
181.1	96
181.2	99
181.3	91
181.4	72
181.5	44
181.6	18
181.7	2
228.5	1
228.6	3
228.7	5
228.8	8
228.9	13
229.0	16
229.1	18
229.2	18
229.3	16
229.4	13
229.5	7
229.6	2
