Mass spectrum: Retrorsine; LC-ESI-QQQ; MS2; Frag=135.0V CID@25.0; [M+H]+
Name: Retrorsine
Class: Alkaloids
Formula: C18H25NO6
Exact mass: 351.4031
SMILES: C/C=C1/C[C@H](C)[C@](O)(CO)C(=O)OCC2=CCN3CC[C@@H](OC1=O)[C@@H]23
InChI: InChI=1S/C18H25NO6/c1-3-12-8-11(2)18(23,10-20)17(22)24-9-13-4-6-19-7-5-14(15(13)19)25-16(12)21/h3-4,11,14-15,20,23H,5-10H2,1-2H3/b12-3-/t11-,14+,15+,18+/m0/s1
Instrument: Agilent 6410 Triple Quadrupole LC/MS system
Instrument type: LC-ESI-QQQ
Ms type: MS2
Ion mode: POSITIVE
Precursor type: [M+H]+
m/z	relative intensity
93.7	2
93.8	4
93.9	6
94.0	7
94.1	7
94.2	7
94.3	6
94.4	4
94.5	2
119.5	2
119.6	3
119.7	6
119.8	10
119.9	15
120.0	19
120.1	20
120.2	19
120.3	16
120.4	13
120.5	8
120.6	3
137.6	2
137.7	4
137.8	7
137.9	11
138.0	13
138.1	15
138.2	14
138.3	13
138.4	10
138.5	6
138.6	2
323.7	2
323.8	3
323.9	5
324.0	8
324.1	11
324.2	12
324.3	12
324.4	10
324.5	7
324.6	3
351.3	0
351.4	2
351.5	5
351.6	9
351.7	16
351.8	29
351.9	48
352.0	70
352.1	89
352.2	99
352.3	98
352.4	81
352.5	53
352.6	23
352.7	3
