Mass spectrum: Gyrophoric acid; LC-ESI-QQQ; MS2; Frag=135.0V CID@5.0; [M+Na]+
Name: Gyrophoric acid
Class: Carbohydrates
Formula: C24H20O10
Exact mass: 468.421
SMILES: Cc1cc(OC(=O)c2c(C)cc(OC(=O)c3c(C)cc(O)cc3O)cc2O)cc(O)c1C(=O)O
InChI: InChI=1S/C24H20O10/c1-10-4-13(25)7-16(26)20(10)23(31)34-15-6-12(3)21(18(28)9-15)24(32)33-14-5-11(2)19(22(29)30)17(27)8-14/h4-9,25-28H,1-3H3,(H,29,30)
Instrument: Agilent 6410 Triple Quadrupole LC/MS system
Instrument type: LC-ESI-QQQ
Ms type: MS2
Ion mode: POSITIVE
Precursor type: [M+Na]+
m/z	relative intensity
172.0	2
172.1	4
172.2	7
172.3	10
172.4	12
172.5	17
172.6	28
172.7	47
172.8	66
172.9	84
173.0	97
173.1	99
173.2	81
173.3	46
173.4	14
173.5	0
322.1	1
322.2	2
322.3	6
322.4	11
322.5	13
322.6	15
322.7	18
322.8	21
322.9	22
323.0	21
323.1	17
323.2	14
323.3	9
323.4	5
490.3	2
490.4	4
490.5	8
490.6	12
490.7	14
490.8	15
490.9	16
491.0	17
491.1	17
491.2	14
491.3	10
491.4	5
491.5	2
