Mass spectrum: cyclo(methionylpropyl); LC-ESI-QQQ; MS2; Frag=135.0V CID@15.0; [M+H]+
Name: cyclo(methionylpropyl)
Class: -
Formula: C10H16N2O2S
Exact mass: 228.3152
SMILES: CSCC[C@@H]1N=C(O)[C@@H]2CCCN2C1=O
InChI: InChI=1S/C10H16N2O2S/c1-15-6-4-7-10(14)12-5-2-3-8(12)9(13)11-7/h7-8H,2-6H2,1H3,(H,11,13)/t7-,8-/m0/s1
Instrument: Agilent 6410 Triple Quadrupole LC/MS system
Instrument type: LC-ESI-QQQ
Ms type: MS2
Ion mode: POSITIVE
Precursor type: [M+H]+
m/z	relative intensity
124.6	2
124.7	3
124.8	5
124.9	6
125.0	8
125.1	8
125.2	8
125.3	7
125.4	5
125.5	2
180.3	1
180.4	3
180.5	7
180.6	14
180.7	25
180.8	42
180.9	62
181.0	82
181.1	96
181.2	99
181.3	92
181.4	73
181.5	45
181.6	17
181.7	0
