Mass spectrum: Androst-5-ene-3,17-diol; LC-ESI-QQQ; MS2; Frag=135.0V CID@10.0; [M+H]+
Name: Androst-5-ene-3,17-diol
Class: Steroids
Formula: C19H30O2
Exact mass: 290.4498
SMILES: C[C@]12CCC3C(CC=C4CC(O)CC[C@@]43C)C1CCC2O
InChI: InChI=1S/C19H30O2/c1-18-9-7-13(20)11-12(18)3-4-14-15-5-6-17(21)19(15,2)10-8-16(14)18/h3,13-17,20-21H,4-11H2,1-2H3/t13?,14?,15?,16?,17?,18-,19-/m0/s1
Instrument: Agilent 6410 Triple Quadrupole LC/MS system
Instrument type: LC-ESI-QQQ
Ms type: MS2
Ion mode: POSITIVE
Precursor type: [M+H]+
m/z	relative intensity
80.5	4
80.6	6
80.7	10
80.8	17
80.9	24
81.0	25
81.1	18
81.2	9
81.3	3
158.3	3
158.4	5
158.5	7
158.6	11
158.7	19
158.8	27
158.9	29
159.0	23
159.1	13
159.2	5
172.4	4
172.5	6
172.6	12
172.7	19
172.8	24
172.9	22
173.0	14
173.1	7
173.2	4
174.9	4
175.0	5
175.1	6
175.2	6
200.7	4
200.8	5
200.9	6
201.0	7
201.1	7
201.2	7
201.3	8
201.4	8
201.5	6
254.2	3
254.3	5
254.4	11
254.5	23
254.6	38
254.7	52
254.8	61
254.9	69
255.0	79
255.1	88
255.2	96
255.3	97
255.4	80
255.5	46
255.6	14
255.7	0
272.3	3
272.4	4
272.5	8
272.6	16
272.7	28
272.8	36
272.9	38
273.0	35
273.1	30
273.2	22
273.3	14
273.4	8
273.5	4
290.7	3
290.8	5
290.9	9
291.0	18
291.1	29
291.2	37
291.3	35
291.4	24
291.5	11
291.6	3
