Mass spectrum: Reserpinine; LC-ESI-QQQ; MS2; Frag=135.0V CID@10.0; [M+H]+
Name: Reserpinine
Class: Alkaloids
Formula: C22H26N2O4
Exact mass: 382.4635
SMILES: COC(=O)C1=CO[C@@H](C)[C@@H]2CN3CCc4c([nH]c5cc(OC)ccc45)[C@@H]3C[C@H]12
InChI: InChI=1S/C22H26N2O4/c1-12-17-10-24-7-6-15-14-5-4-13(26-2)8-19(14)23-21(15)20(24)9-16(17)18(11-28-12)22(25)27-3/h4-5,8,11-12,16-17,20,23H,6-7,9-10H2,1-3H3/t12-,16-,17-,20-/m0/s1
Instrument: Agilent 6410 Triple Quadrupole LC/MS system
Instrument type: LC-ESI-QQQ
Ms type: MS2
Ion mode: POSITIVE
Precursor type: [M+H]+
m/z	relative intensity
173.6	1
173.7	3
173.8	6
173.9	9
174.0	12
174.1	13
174.2	14
174.3	12
174.4	9
174.5	5
174.6	1
221.7	1
221.8	3
221.9	5
222.0	6
222.1	7
222.2	7
222.3	7
222.4	5
222.5	2
382.3	0
382.4	1
382.5	4
382.6	7
382.7	13
382.8	26
382.9	44
383.0	65
383.1	84
383.2	97
383.3	99
383.4	89
383.5	64
383.6	33
383.7	8
383.8	0
