Mass spectrum: Speciosine; LC-ESI-QQQ; MS2; Frag=135.0V CID@5.0; [M+H]+
Name: Speciozine
Name: Speciosin
Name: Speciozin
Name: (7S)-7-(((2-hydroxyphenyl)methyl)methylamino)-1,2,3,10-tetramethoxy-5,6,7-trihydrobenzo(a)heptalen-9-one
Name: Speciosine
Class: Alkaloids
Formula: C28H31NO6
Exact mass: 477.5624
SMILES: COc1cc2c(c(OC)c1OC)-c1ccc(OC)c(=O)cc1[C@@H](N(C)Cc1ccccc1O)CC2
InChI: InChI=1S/C28H31NO6/c1-29(16-18-8-6-7-9-22(18)30)21-12-10-17-14-25(33-3)27(34-4)28(35-5)26(17)19-11-13-24(32-2)23(31)15-20(19)21/h6-9,11,13-15,21,30H,10,12,16H2,1-5H3/t21-/m0/s1
Instrument: Agilent 6410 Triple Quadrupole LC/MS system
Instrument type: LC-ESI-QQQ
Ms type: MS2
Ion mode: POSITIVE
Precursor type: [M+H]+
m/z	relative intensity
371.4	1
371.5	3
371.6	5
371.7	9
371.8	17
371.9	26
372.0	36
372.1	43
372.2	45
372.3	43
372.4	36
372.5	25
372.6	12
372.7	3
477.2	0
477.3	1
477.4	4
477.5	7
477.6	10
477.7	17
477.8	31
477.9	51
478.0	73
478.1	90
478.2	99
478.3	98
478.4	85
478.5	61
478.6	32
478.7	9
478.8	0
