Mass spectrum: Kokanidin; LC-ESI-QQQ; MS2; Frag=135.0V CID@25.0; [M+Na]+
Name: Kokanidin
Class: Benzopyranoids
Formula: C26H34O6
Exact mass: 442.5573
SMILES: CC(=O)OC1CC[C@]2(C)C(CC[C@@](C)(O)[C@H]2COc2ccc3ccc(=O)oc3c2)C1(C)C
InChI: InChI=1S/C26H34O6/c1-16(27)31-22-11-12-25(4)20(24(22,2)3)10-13-26(5,29)21(25)15-30-18-8-6-17-7-9-23(28)32-19(17)14-18/h6-9,14,20-22,29H,10-13,15H2,1-5H3/t20?,21-,22?,25+,26+/m0/s1
Instrument: Agilent 6410 Triple Quadrupole LC/MS system
Instrument type: LC-ESI-QQQ
Ms type: MS2
Ion mode: POSITIVE
Precursor type: [M+Na]+
m/z	relative intensity
404.2	1
404.3	2
404.4	5
404.5	9
404.6	17
404.7	27
404.8	40
404.9	56
405.0	75
405.1	93
405.2	99
405.3	84
405.4	52
405.5	19
405.6	1
464.1	1
464.2	4
464.3	8
464.4	14
464.5	18
464.6	22
464.7	27
464.8	38
464.9	57
465.0	76
465.1	90
465.2	96
465.3	91
465.4	73
465.5	44
465.6	16
465.7	1
