Mass spectrum: Usnone A; LC-ESI-QQQ; MS2; Frag=135.0V CID@15.0; [M+H]+
Name: Usnone A
Class: Terpenoids
Formula: C18H16O7
Exact mass: 344.324
SMILES: CC(=O)c1c(O)c(C)c(O)c2c1OC1=CC(=O)C(C(C)=O)C(=O)[C@@]12C
InChI: InChI=1S/C18H16O7/c1-6-14(22)12(8(3)20)16-13(15(6)23)18(4)10(25-16)5-9(21)11(7(2)19)17(18)24/h5,11,22-23H,1-4H3/t11?,18-/m0/s1
Instrument: Agilent 6410 Triple Quadrupole LC/MS system
Instrument type: LC-ESI-QQQ
Ms type: MS2
Ion mode: POSITIVE
Precursor type: [M+H]+
m/z	relative intensity
232.4	2
232.5	4
232.6	5
232.7	5
232.8	8
232.9	12
233.0	18
233.1	23
233.2	26
233.3	25
233.4	18
233.5	9
233.6	2
260.6	3
260.7	6
260.8	10
260.9	13
261.0	12
261.1	10
261.2	10
261.3	10
261.4	8
261.5	4
302.2	1
302.3	3
302.4	4
302.5	6
302.6	8
302.7	11
302.8	16
302.9	22
303.0	29
303.1	31
303.2	26
303.3	16
303.4	6
303.5	1
316.5	1
316.6	2
316.7	5
316.8	6
316.9	7
317.0	5
317.1	2
326.1	0
326.2	1
326.3	6
326.4	14
326.5	20
326.6	22
326.7	27
326.8	41
326.9	65
327.0	87
327.1	99
327.2	98
327.3	85
327.4	63
327.5	35
327.6	11
327.7	0
329.5	1
329.6	1
329.7	5
329.8	12
329.9	23
330.0	32
330.1	35
330.2	30
330.3	21
330.4	11
330.5	4
344.2	0
344.3	1
344.4	5
344.5	9
344.6	12
344.7	16
344.8	25
344.9	39
345.0	55
345.1	70
345.2	77
345.3	73
345.4	54
345.5	28
345.6	6
345.7	0
