Mass spectrum: 2-Deoxycrustecdysone; LC-ESI-QQQ; MS2; Frag=135.0V CID@5.0; [M+HCOO]-
Name: 2-Deoxycrustecdysone
Class: Steroids
Formula: C27H44O6
Exact mass: 464.6481
SMILES: CC(C)(O)CC[C@@H](O)[C@](C)(O)C1CC[C@@]2(O)C3=CC(=O)[C@@H]4C[C@@H](O)CC[C@]4(C)C3CC[C@]12C
InChI: InChI=1S/C27H44O6/c1-23(2,31)10-9-22(30)26(5,32)21-8-13-27(33)18-15-20(29)19-14-16(28)6-11-24(19,3)17(18)7-12-25(21,27)4/h15-17,19,21-22,28,30-33H,6-14H2,1-5H3/t16-,17?,19-,21?,22+,24+,25+,26+,27+/m0/s1
Instrument: Agilent 6410 Triple Quadrupole LC/MS system
Instrument type: LC-ESI-QQQ
Ms type: MS2
Ion mode: NEGATIVE
Precursor type: [M+HCOO]-
m/z	relative intensity
158.6	1
158.7	2
158.8	3
158.9	4
159.0	4
159.1	5
159.2	5
159.3	4
159.4	2
462.3	0
462.4	2
462.5	5
462.6	11
462.7	18
462.8	27
462.9	36
463.0	45
463.1	53
463.2	59
463.3	67
463.4	72
463.5	67
463.6	48
463.7	22
463.8	3
508.3	1
508.4	2
508.5	5
508.6	10
508.7	19
508.8	33
508.9	49
509.0	64
509.1	75
509.2	84
509.3	93
509.4	99
509.5	94
509.6	69
509.7	34
509.8	6
509.9	0
