Mass spectrum: Clarithromycin; LC-ESI-QQQ; MS2; Frag=135.0V CID@5.0; [M+HCOO]-
Name: Clarithromycin
Class: Polyketides
Formula: C38H69NO13
Exact mass: 747.9725
SMILES: CC[C@H]1OC(=O)[C@H](C)[C@@H](O[C@H]2C[C@@](C)(OC)[C@@H](O)[C@H](C)O2)[C@H](C)[C@@H](O[C@@H]2O[C@H](C)C[C@H](N(C)C)[C@H]2O)[C@](C)(OC)C[C@@H](C)C(=O)[C@H](C)[C@@H](O)[C@]1(C)O
InChI: InChI=1S/C38H69NO13/c1-15-26-38(10,45)31(42)21(4)28(40)19(2)17-37(9,47-14)33(52-35-29(41)25(39(11)12)16-20(3)48-35)22(5)30(23(6)34(44)50-26)51-27-18-36(8,46-13)32(43)24(7)49-27/h19-27,29-33,35,41-43,45H,15-18H2,1-14H3/t19-,20-,21+,22+,23-,24+,25+,26-,27+,29-,30+,31-,32+,33-,35+,36-,37-,38-/m1/s1
Instrument: Agilent 6410 Triple Quadrupole LC/MS system
Instrument type: LC-ESI-QQQ
Ms type: MS2
Ion mode: NEGATIVE
Precursor type: [M+HCOO]-
m/z	relative intensity
569.3	1
569.4	2
569.5	4
569.6	7
569.7	9
569.8	10
569.9	11
570.0	11
570.1	12
570.2	13
570.3	13
570.4	12
570.5	10
570.6	6
570.7	3
745.7	0
745.8	1
745.9	3
746.0	6
746.1	9
746.2	10
746.3	10
746.4	8
746.5	5
746.6	3
791.3	1
791.4	3
791.5	6
791.6	14
791.7	26
791.8	39
791.9	53
792.0	66
792.1	81
792.2	95
792.3	99
792.4	94
792.5	82
792.6	63
792.7	38
792.8	14
792.9	1
