Mass spectrum: Ajugalide E; LC-ESI-QQQ; MS2; Frag=135.0V CID@10.0; [M+H]+
Name: Ajugalide E
Class: Terpenoids
Formula: C31H46O9
Exact mass: 562.7069
SMILES: CC(=O)O[C@H](CC1C(C)OC(=O)C1C)[C@](C)(O)C1CC[C@@]2(O)C3=CC(=O)[C@@H]4C[C@@H](O)C(O)C[C@]4(C)C3CC[C@]12C
InChI: InChI=1S/C31H46O9/c1-15-18(16(2)39-27(15)36)11-26(40-17(3)32)30(6,37)25-8-10-31(38)20-12-22(33)21-13-23(34)24(35)14-28(21,4)19(20)7-9-29(25,31)5/h12,15-16,18-19,21,23-26,34-35,37-38H,7-11,13-14H2,1-6H3/t15?,16?,18?,19?,21-,23+,24?,25?,26+,28+,29+,30+,31+/m0/s1
Instrument: Agilent 6410 Triple Quadrupole LC/MS system
Instrument type: LC-ESI-QQQ
Ms type: MS2
Ion mode: POSITIVE
Precursor type: [M+H]+
m/z	relative intensity
182.6	1
182.7	3
182.8	5
182.9	9
183.0	11
183.1	11
183.2	9
183.3	6
183.4	3
242.8	2
242.9	4
243.0	5
243.1	6
243.2	5
243.3	3
284.6	1
284.7	3
284.8	5
284.9	6
285.0	7
285.1	7
285.2	7
285.3	6
285.4	5
285.5	4
285.6	1
302.2	0
302.3	1
302.4	4
302.5	8
302.6	12
302.7	16
302.8	24
302.9	40
303.0	63
303.1	85
303.2	98
303.3	96
303.4	77
303.5	48
303.6	20
303.7	1
430.6	1
430.7	3
430.8	7
430.9	10
431.0	12
431.1	13
431.2	15
431.3	16
431.4	13
431.5	8
431.6	3
448.4	1
448.5	3
448.6	5
448.7	8
448.8	14
448.9	22
449.0	32
449.1	41
449.2	47
449.3	48
449.4	42
449.5	28
449.6	12
449.7	1
466.6	1
466.7	2
466.8	5
466.9	11
467.0	19
467.1	24
467.2	28
467.3	29
467.4	26
467.5	18
467.6	8
467.7	0
484.7	2
484.8	3
484.9	6
485.0	12
485.1	18
485.2	20
485.3	18
485.4	14
485.5	9
485.6	4
526.5	1
526.6	2
526.7	4
526.8	6
526.9	8
527.0	11
527.1	15
527.2	18
527.3	19
527.4	18
527.5	13
527.6	5
527.7	0
544.3	1
544.4	3
544.5	7
544.6	13
544.7	22
544.8	34
544.9	49
545.0	65
545.1	80
545.2	93
545.3	99
545.4	93
545.5	72
545.6	43
545.7	15
545.8	0
562.5	3
562.6	4
562.7	6
562.8	10
562.9	16
563.0	21
563.1	26
563.2	31
563.3	35
563.4	33
563.5	24
563.6	12
563.7	3
