Mass spectrum: Ajugalide E; LC-ESI-QQQ; MS2; Frag=135.0V CID@25.0; [M+H]+
Name: Ajugalide E
Class: Terpenoids
Formula: C31H46O9
Exact mass: 562.7069
SMILES: CC(=O)O[C@H](CC1C(C)OC(=O)C1C)[C@](C)(O)C1CC[C@@]2(O)C3=CC(=O)[C@@H]4C[C@@H](O)C(O)C[C@]4(C)C3CC[C@]12C
InChI: InChI=1S/C31H46O9/c1-15-18(16(2)39-27(15)36)11-26(40-17(3)32)30(6,37)25-8-10-31(38)20-12-22(33)21-13-23(34)24(35)14-28(21,4)19(20)7-9-29(25,31)5/h12,15-16,18-19,21,23-26,34-35,37-38H,7-11,13-14H2,1-6H3/t15?,16?,18?,19?,21-,23+,24?,25?,26+,28+,29+,30+,31+/m0/s1
Instrument: Agilent 6410 Triple Quadrupole LC/MS system
Instrument type: LC-ESI-QQQ
Ms type: MS2
Ion mode: POSITIVE
Precursor type: [M+H]+
m/z	relative intensity
108.4	0
108.5	2
108.6	4
108.7	7
108.8	9
108.9	10
109.0	11
109.1	11
109.2	10
109.3	6
109.4	3
136.6	2
136.7	3
136.8	5
136.9	6
137.0	7
137.1	9
137.2	9
137.3	7
137.4	4
137.5	1
164.5	1
164.6	3
164.7	6
164.8	7
164.9	8
165.0	8
165.1	7
165.2	5
165.3	3
172.5	0
172.6	2
172.7	5
172.8	8
172.9	10
173.0	10
173.1	7
173.2	5
173.3	4
173.4	3
173.5	2
182.4	1
182.5	4
182.6	10
182.7	19
182.8	27
182.9	33
183.0	37
183.1	38
183.2	38
183.3	33
183.4	23
183.5	10
183.6	1
190.6	2
190.7	4
190.8	7
190.9	10
191.0	13
191.1	14
191.2	14
191.3	12
191.4	7
191.5	2
200.6	1
200.7	2
200.8	4
200.9	5
201.0	5
201.1	4
201.2	2
208.7	1
208.8	3
208.9	6
209.0	8
209.1	8
209.2	7
209.3	5
209.4	3
212.6	1
212.7	3
212.8	6
212.9	7
213.0	6
213.1	3
222.7	1
222.8	2
222.9	5
223.0	7
223.1	8
223.2	7
223.3	6
223.4	4
223.5	2
224.6	1
224.7	3
224.8	6
224.9	7
225.0	7
225.1	7
225.2	7
225.3	6
225.4	4
225.5	2
231.0	2
231.1	4
231.2	5
231.3	5
231.4	3
235.0	1
235.1	3
235.2	5
235.3	6
235.4	4
235.5	1
262.7	2
262.8	3
262.9	5
263.0	7
263.1	7
263.2	7
263.3	4
263.4	2
264.8	2
264.9	4
265.0	6
265.1	6
265.2	5
265.3	3
278.7	4
278.8	5
278.9	7
279.0	10
279.1	13
279.2	12
279.3	7
279.4	2
282.7	1
282.8	3
282.9	6
283.0	7
283.1	7
283.2	5
283.3	3
284.6	1
284.7	3
284.8	5
284.9	8
285.0	11
285.1	14
285.2	17
285.3	18
285.4	15
285.5	9
285.6	3
302.4	1
302.5	4
302.6	10
302.7	20
302.8	34
302.9	54
303.0	76
303.1	93
303.2	99
303.3	93
303.4	74
303.5	46
303.6	17
303.7	0
316.8	0
316.9	1
317.0	4
317.1	7
317.2	8
317.3	6
317.4	2
334.7	1
334.8	2
334.9	4
335.0	5
335.1	5
335.2	5
335.3	3
390.8	0
390.9	2
391.0	5
391.1	8
391.2	9
391.3	8
391.4	5
391.5	2
430.5	2
430.6	3
430.7	5
430.8	6
430.9	8
431.0	11
431.1	15
431.2	17
431.3	15
431.4	10
431.5	5
431.6	1
448.6	2
448.7	3
448.8	5
448.9	9
449.0	13
449.1	17
449.2	20
449.3	21
449.4	18
449.5	13
449.6	6
449.7	1
466.6	0
466.7	2
466.8	5
466.9	9
467.0	13
467.1	16
467.2	17
467.3	16
467.4	14
467.5	10
467.6	5
467.7	1
484.5	2
484.6	3
484.7	5
484.8	7
484.9	8
485.0	9
485.1	10
485.2	10
485.3	11
485.4	11
485.5	8
485.6	3
