Mass spectrum: urolithin B; LC-ESI-QQQ; MS2; Frag=135.0V CID@5.0; [M+H]+
Name: urolithin B
Class: Benzopyranoids
Formula: C13H8O3
Exact mass: 212.2069
SMILES: O=c1oc2cc(O)ccc2c2ccccc12
InChI: InChI=1S/C13H8O3/c14-8-5-6-10-9-3-1-2-4-11(9)13(15)16-12(10)7-8/h1-7,14H
Instrument: Agilent 6410 Triple Quadrupole LC/MS system
Instrument type: LC-ESI-QQQ
Ms type: MS2
Ion mode: POSITIVE
Precursor type: [M+H]+
m/z	relative intensity
212.3	1
212.4	4
212.5	10
212.6	21
212.7	36
212.8	56
212.9	77
213.0	92
213.1	99
213.2	98
213.3	86
213.4	64
213.5	35
213.6	11
213.7	0
