Mass spectrum: Cyclo(phenylalanylleucyl),  (3S,6S)-form; LC-ESI-QQQ; MS2; Frag=135.0V CID@15.0; [M+H]+
Name: Cyclo(phenylalanylleucyl),  (3S,6S)-form
Class: Aminoacids and peptides
Formula: C15H20N2O2
Exact mass: 260.3389
SMILES: CC(C)C[C@@H]1N=C(O)[C@H](Cc2ccccc2)N=C1O
InChI: InChI=1S/C15H20N2O2/c1-10(2)8-12-14(18)17-13(15(19)16-12)9-11-6-4-3-5-7-11/h3-7,10,12-13H,8-9H2,1-2H3,(H,16,19)(H,17,18)/t12-,13-/m0/s1
Instrument: Agilent 6410 Triple Quadrupole LC/MS system
Instrument type: LC-ESI-QQQ
Ms type: MS2
Ion mode: POSITIVE
Precursor type: [M+H]+
m/z	relative intensity
85.2	1
85.3	2
85.4	4
85.5	6
85.6	8
85.7	12
85.8	17
85.9	23
86.0	29
86.1	32
86.2	32
86.3	27
86.4	20
86.5	10
86.6	2
119.2	1
119.3	3
119.4	6
119.5	9
119.6	17
119.7	32
119.8	53
119.9	76
120.0	93
120.1	99
120.2	93
120.3	76
120.4	51
120.5	25
120.6	5
120.7	0
187.5	2
187.6	3
187.7	6
187.8	10
187.9	14
188.0	19
188.1	21
188.2	22
188.3	21
188.4	18
188.5	12
188.6	6
188.7	1
215.6	2
215.7	3
215.8	6
215.9	10
216.0	12
216.1	12
216.2	11
216.3	10
216.4	8
216.5	5
216.6	2
232.7	1
232.8	3
232.9	5
233.0	6
233.1	8
233.2	8
233.3	8
233.4	7
233.5	4
233.6	1
260.7	1
260.8	3
260.9	5
261.0	7
261.1	8
261.2	9
261.3	8
261.4	6
261.5	3
