Mass spectrum: Geniposide; LC-ESI-QQQ; MS2; Frag=135.0V CID@15.0; [M+Na]+
Name: Geniposide
Class: Terpenoids
Formula: C17H24O10
Exact mass: 388.3748
SMILES: COC(=O)C1=CO[C@@H](OC2O[C@H](CO)[C@@H](O)[C@H](O)[C@H]2O)[C@@H]2C(CO)=CC[C@H]12
InChI: InChI=1S/C17H24O10/c1-24-15(23)9-6-25-16(11-7(4-18)2-3-8(9)11)27-17-14(22)13(21)12(20)10(5-19)26-17/h2,6,8,10-14,16-22H,3-5H2,1H3/t8-,10-,11-,12-,13+,14-,16+,17?/m1/s1
Instrument: Agilent 6410 Triple Quadrupole LC/MS system
Instrument type: LC-ESI-QQQ
Ms type: MS2
Ion mode: POSITIVE
Precursor type: [M+Na]+
m/z	relative intensity
409.9	1
410.0	3
410.1	6
410.2	9
410.3	12
410.4	12
410.5	13
410.6	17
410.7	29
410.8	47
410.9	65
411.0	80
411.1	93
411.2	99
411.3	87
411.4	55
411.5	20
411.6	1
