Mass spectrum: Boldine; LC-ESI-QQQ; MS2; Frag=135.0V CID@25.0; [M+H]+
Name: 2,9-Dihydroxy-1,10-dimethoxyaporphine
Name: 1,10-Dimethoxy-6aalpha-aporphine-2,9-diol
Name: 2,6-Dihydroxy-3,5-dimethoxyaporphin
Name: Boldine
Class: Alkaloids
Formula: C19H21NO4
Exact mass: 327.3835
SMILES: CN1CCC2=CC(=C(C3=C2[C@@H]1CC4=CC(=C(C=C43)OC)O)OC)O
InChI: InChI=1S/C19H21NO4/c1-20-5-4-10-7-15(22)19(24-3)18-12-9-16(23-2)14(21)8-11(12)6-13(20)17(10)18/h7-9,13,21-22H,4-6H2,1-3H3/t13-/m0/s1
Instrument: Agilent 6410 Triple Quadrupole LC/MS system
Instrument type: LC-ESI-QQQ
Ms type: MS2
Ion mode: POSITIVE
Precursor type: [M+H]+
m/z	relative intensity
176.6	1
176.7	2
176.8	4
176.9	7
177.0	9
177.1	9
177.2	9
177.3	8
177.4	5
177.5	3
204.4	2
204.5	4
204.6	5
204.7	8
204.8	13
204.9	22
205.0	31
205.1	37
205.2	36
205.3	30
205.4	22
205.5	12
205.6	4
221.6	1
221.7	2
221.8	5
221.9	7
222.0	9
222.1	9
222.2	8
222.3	7
222.4	5
222.5	2
232.5	1
232.6	2
232.7	4
232.8	7
232.9	11
233.0	14
233.1	16
233.2	15
233.3	12
233.4	8
233.5	4
236.2	1
236.3	3
236.4	6
236.5	10
236.6	15
236.7	25
236.8	44
236.9	68
237.0	89
237.1	99
237.2	97
237.3	83
237.4	61
237.5	35
237.6	11
237.7	0
264.2	1
264.3	3
264.4	5
264.5	9
264.6	14
264.7	25
264.8	43
264.9	65
265.0	83
265.1	91
265.2	88
265.3	74
265.4	53
265.5	29
265.6	10
281.5	1
281.6	2
281.7	5
281.8	9
281.9	13
282.0	16
282.1	17
282.2	16
282.3	13
282.4	8
282.5	3
296.6	2
296.7	4
296.8	6
296.9	9
297.0	13
297.1	15
297.2	15
297.3	14
297.4	11
297.5	6
297.6	2
