Mass spectrum: O-(3-Hydroxy-7-drimen-11-yl)umbelliferone; LC-ESI-QQQ; MS; [M+H]+
Name: O-(3-Hydroxy-7-drimen-11-yl)umbelliferone
Class: Benzopyranoids
Formula: C24H30O4
Exact mass: 382.5043
SMILES: CC1=CC[C@H]2C(C)(C)[C@H](O)CC[C@]2(C)[C@@H]1COc1ccc2ccc(=O)oc2c1
InChI: InChI=1S/C24H30O4/c1-15-5-9-20-23(2,3)21(25)11-12-24(20,4)18(15)14-27-17-8-6-16-7-10-22(26)28-19(16)13-17/h5-8,10,13,18,20-21,25H,9,11-12,14H2,1-4H3/t18-,20+,21-,24-/m1/s1
Instrument: ABSciex API3200 LC/MS system
Instrument type: LC-ESI-QQQ
Ms type: MS
Ion mode: POSITIVE
Precursor type: [M+H]+
m/z	relative intensity
118.5000	28
118.9000	24
119.1000	24
146.7000	25
146.8000	26
146.9000	36
147.0000	29
147.1000	25
147.2000	26
160.7000	25
160.8000	23
161.1000	24
162.4000	42
162.5000	91
162.6000	109
162.7000	132
162.8000	131
162.9000	199
163.0000	204
163.1000	163
163.2000	154
163.3000	132
163.4000	88
202.5000	36
202.6000	89
202.7000	126
202.8000	148
202.9000	160
203.0000	165
203.1000	173
203.2000	148
203.3000	145
203.4000	123
203.5000	126
203.6000	54
203.7000	39
203.8000	22
203.9000	22
204.1000	30
204.2000	22
204.3000	25
204.4000	25
204.5000	25
364.6000	33
364.7000	35
364.8000	49
364.9000	51
365.0000	57
365.1000	56
365.2000	53
365.3000	45
365.4000	34
365.5000	25
365.6000	32
382.4000	69
382.5000	305
382.6000	576
382.7000	710
382.8000	798
382.9000	824
383.0000	862
383.1000	795
383.2000	999
383.3000	735
383.4000	706
383.5000	444
383.6000	440
383.7000	324
383.8000	278
383.9000	303
384.0000	315
384.1000	295
384.2000	271
384.3000	247
384.4000	239
384.5000	131
384.6000	77
384.7000	58
384.8000	47
384.9000	48
385.0000	54
385.1000	72
385.2000	49
385.3000	47
385.4000	38
385.5000	27
423.7000	23
423.8000	34
423.9000	34
424.0000	31
424.1000	24
424.2000	33
424.4000	21
764.6000	47
764.7000	66
764.8000	112
764.9000	171
765.0000	115
765.1000	117
765.2000	118
765.3000	107
765.4000	105
765.5000	49
765.6000	48
765.7000	63
765.8000	59
765.9000	71
766.0000	66
766.1000	65
766.2000	74
766.3000	58
766.4000	51
766.5000	30
766.9000	27
767.1000	24
781.7000	22
781.8000	27
781.9000	38
782.0000	27
782.1000	30
782.2000	29
782.3000	21
782.4000	22
