Mass spectrum: turkesterone; LC-ESI-QQQ; MS2; Frag=135.0V CID@15.0; [M+H]+
Name: turkesterone
Class: Steroids
Formula: C27H44O8
Exact mass: 496.6469
SMILES: CC(C)(O)CC[C@H](O)[C@](C)(O)C1CC[C@@]2(O)C3=CC(=O)C4CC(O)C(O)C[C@]4(C)C3[C@H](O)C[C@]12C
InChI: InChI=1S/C27H44O8/c1-23(2,33)8-7-21(32)26(5,34)20-6-9-27(35)15-11-16(28)14-10-17(29)18(30)12-24(14,3)22(15)19(31)13-25(20,27)4/h11,14,17-22,29-35H,6-10,12-13H2,1-5H3/t14?,17?,18?,19-,20?,21+,22?,24+,25-,26-,27-/m1/s1
Instrument: Agilent 6410 Triple Quadrupole LC/MS system
Instrument type: LC-ESI-QQQ
Ms type: MS2
Ion mode: POSITIVE
Precursor type: [M+H]+
m/z	relative intensity
80.6	2
80.7	4
80.8	6
80.9	8
81.0	9
81.1	8
81.2	5
81.3	3
98.3	3
98.4	4
98.5	7
98.6	11
98.7	14
98.8	16
98.9	20
99.0	27
99.1	35
99.2	35
99.3	26
99.4	14
99.5	4
142.6	2
142.7	3
142.8	5
142.9	5
143.0	4
143.1	3
143.2	3
143.3	3
143.4	3
143.5	2
143.6	1
143.7	0
143.8	0
143.9	1
144.0	1
144.1	1
144.2	1
144.3	1
144.4	0
144.5	1
144.6	1
144.7	1
144.8	1
144.9	1
145.0	1
145.1	2
145.2	2
145.3	2
145.4	1
145.5	1
145.6	0
145.7	0
145.8	1
145.9	1
146.0	1
146.1	1
146.2	1
146.3	0
146.4	1
146.5	1
146.6	1
146.7	1
146.8	1
146.9	1
147.0	0
147.1	1
147.2	1
147.3	1
147.4	1
147.5	1
147.6	1
147.7	1
147.8	1
147.9	1
148.0	1
148.1	1
148.2	0
148.3	1
148.4	1
148.5	1
148.6	3
148.7	5
148.8	6
148.9	5
149.0	3
164.6	2
164.7	4
164.8	7
164.9	10
165.0	11
165.1	9
165.2	6
165.3	4
165.4	3
221.0	2
221.1	5
221.2	8
221.3	9
221.4	7
221.5	3
292.7	1
292.8	3
292.9	6
293.0	7
293.1	6
293.2	4
298.7	2
298.8	4
298.9	7
299.0	9
299.1	11
299.2	9
299.3	6
299.4	3
310.8	1
310.9	3
311.0	5
311.1	6
311.2	5
311.3	4
314.8	2
314.9	4
315.0	6
315.1	6
315.2	4
326.6	1
326.7	4
326.8	10
326.9	18
327.0	24
327.1	25
327.2	20
327.3	13
327.4	5
327.5	1
328.6	1
328.7	3
328.8	5
328.9	8
329.0	8
329.1	5
329.2	2
344.8	4
344.9	9
345.0	13
345.1	13
345.2	11
345.3	8
345.4	5
362.7	1
362.8	5
362.9	12
363.0	19
363.1	20
363.2	14
363.3	7
363.4	2
368.7	2
368.8	3
368.9	5
369.0	8
369.1	9
369.2	9
369.3	7
369.4	4
386.2	1
386.3	4
386.4	8
386.5	11
386.6	12
386.7	10
386.8	13
386.9	25
387.0	41
387.1	53
387.2	58
387.3	55
387.4	43
387.5	24
387.6	8
387.7	0
388.7	1
388.8	3
388.9	7
389.0	11
389.1	13
389.2	10
389.3	5
406.5	2
406.6	3
406.7	5
406.8	6
406.9	9
407.0	13
407.1	17
407.2	18
407.3	14
407.4	9
407.5	4
424.5	0
424.6	3
424.7	10
424.8	20
424.9	31
425.0	42
425.1	54
425.2	60
425.3	54
425.4	35
425.5	13
425.6	1
442.2	2
442.3	3
442.4	5
442.5	5
442.6	6
442.7	11
442.8	22
442.9	37
443.0	52
443.1	64
443.2	76
443.3	86
443.4	85
443.5	67
443.6	35
443.7	8
443.8	0
460.4	1
460.5	3
460.6	7
460.7	14
460.8	26
460.9	44
461.0	69
461.1	90
461.2	99
461.3	89
461.4	63
461.5	32
461.6	8
461.7	0
479.0	1
479.1	4
479.2	7
479.3	12
479.4	14
479.5	12
479.6	7
479.7	2
