Mass spectrum: Lagohirsin; LC-ESI-QQQ; MS2; Frag=135.0V CID@25.0; [M+Na]+
Name: Lagohirsin
Class: Terpenoids
Formula: C20H32O5
Exact mass: 352.475
SMILES: C[C@@H]1CCC2[C@](C)(CC[C@H](O)[C@@]2(C)CO)[C@@]12CCC1(COC(=O)C1)O2
InChI: InChI=1S/C20H32O5/c1-13-4-5-14-17(2,11-21)15(22)6-7-18(14,3)20(13)9-8-19(25-20)10-16(23)24-12-19/h13-15,21-22H,4-12H2,1-3H3/t13-,14?,15+,17+,18+,19?,20-/m1/s1
Instrument: Agilent 6410 Triple Quadrupole LC/MS system
Instrument type: LC-ESI-QQQ
Ms type: MS2
Ion mode: POSITIVE
Precursor type: [M+Na]+
m/z	relative intensity
92.6	2
92.7	3
92.8	5
92.9	6
93.0	6
93.1	6
93.2	4
93.3	2
94.6	1
94.7	3
94.8	6
94.9	8
95.0	9
95.1	9
95.2	9
95.3	8
95.4	5
95.5	3
106.5	2
106.6	3
106.7	4
106.8	5
106.9	6
107.0	7
107.1	7
107.2	7
107.3	5
107.4	3
108.6	1
108.7	3
108.8	5
108.9	6
109.0	5
109.1	3
118.6	0
118.7	3
118.8	6
118.9	8
119.0	9
119.1	7
119.2	6
119.3	5
119.4	3
119.5	2
120.6	2
120.7	4
120.8	7
120.9	9
121.0	9
121.1	7
121.2	5
121.3	3
130.7	1
130.8	2
130.9	4
131.0	5
131.1	4
131.2	2
132.3	0
132.4	2
132.5	6
132.6	10
132.7	17
132.8	29
132.9	43
133.0	55
133.1	60
133.2	57
133.3	47
133.4	32
133.5	14
133.6	2
134.4	0
134.5	1
134.6	4
134.7	8
134.8	9
134.9	9
135.0	7
135.1	5
135.2	4
135.3	3
136.8	1
136.9	2
137.0	4
137.1	6
137.2	6
137.3	4
137.4	2
146.5	1
146.6	3
146.7	5
146.8	6
146.9	6
147.0	7
147.1	8
147.2	8
147.3	6
147.4	3
148.5	0
148.6	1
148.7	4
148.8	9
148.9	15
149.0	19
149.1	22
149.2	24
149.3	24
149.4	20
149.5	11
149.6	3
154.8	1
154.9	2
155.0	4
155.1	5
155.2	4
155.3	4
155.4	2
158.7	1
158.8	3
158.9	7
159.0	10
159.1	11
159.2	10
159.3	7
159.4	4
159.5	2
162.5	2
162.6	3
162.7	4
162.8	6
162.9	8
163.0	9
163.1	10
163.2	10
163.3	9
163.4	6
163.5	3
166.8	1
166.9	3
167.0	5
167.1	6
167.2	5
167.3	3
172.6	1
172.7	3
172.8	7
172.9	10
173.0	12
173.1	13
173.2	11
173.3	9
173.4	8
173.5	6
173.6	3
174.7	1
174.8	2
174.9	4
175.0	4
175.1	4
178.7	1
178.8	2
178.9	4
179.0	4
179.1	2
180.0	1
180.1	2
180.2	4
180.3	6
180.4	10
180.5	16
180.6	21
180.7	29
180.8	43
180.9	65
181.0	86
181.1	97
181.2	99
181.3	95
181.4	81
181.5	53
181.6	21
181.7	1
186.6	2
186.7	4
186.8	6
186.9	8
187.0	12
187.1	15
187.2	15
187.3	12
187.4	7
187.5	2
196.7	1
196.8	2
196.9	5
197.0	7
197.1	9
197.2	9
197.3	7
197.4	4
197.5	1
198.6	0
198.7	1
198.8	4
198.9	7
199.0	8
199.1	9
199.2	8
199.3	5
199.4	3
238.6	1
238.7	3
238.8	5
238.9	8
239.0	10
239.1	11
239.2	11
239.3	10
239.4	9
239.5	6
239.6	2
258.9	1
259.0	3
259.1	5
259.2	6
259.3	6
259.4	4
259.5	3
276.7	1
276.8	3
276.9	6
277.0	7
277.1	7
277.2	6
277.3	4
277.4	3
304.8	1
304.9	3
305.0	5
305.1	7
305.2	8
305.3	9
305.4	8
305.5	5
305.6	2
316.7	0
316.8	2
316.9	5
317.0	6
317.1	6
317.2	4
317.3	3
317.4	4
317.5	4
317.6	2
