Mass spectrum: Fraxin; LC-ESI-QQQ; MS2; Frag=135.0V CID@15.0; [M+Na]+
Name: Fraxin
Class: Benzopyranoids
Formula: C16H18O10
Exact mass: 370.3159
SMILES: COc1cc2ccc(=O)oc2c(O[C@@H]2O[C@H](CO)[C@@H](O)[C@H](O)[C@H]2O)c1O
InChI: InChI=1S/C16H18O10/c1-23-7-4-6-2-3-9(18)25-14(6)15(11(7)20)26-16-13(22)12(21)10(19)8(5-17)24-16/h2-4,8,10,12-13,16-17,19-22H,5H2,1H3/t8-,10-,12+,13-,16+/m1/s1
Instrument: Agilent 6410 Triple Quadrupole LC/MS system
Instrument type: LC-ESI-QQQ
Ms type: MS2
Ion mode: POSITIVE
Precursor type: [M+Na]+
m/z	relative intensity
230.3	5
230.4	7
230.5	14
230.6	21
230.7	27
230.8	29
230.9	29
231.0	26
231.1	17
231.2	8
231.3	2
392.6	6
392.7	8
392.8	23
392.9	53
393.0	86
393.1	98
393.2	79
393.3	44
393.4	15
393.5	0
