Mass spectrum: Talatizamine; LC-ESI-QQQ; MS; [M+H]+
Name: Talatizamine
Class: Alkaloids
Formula: C24H39NO5
Exact mass: 421.5821
SMILES: CCN1C[C@]2(COC)CC[C@H](OC)[C@@]34C5C[C@@H]6[C@@H](OC)C[C@@](O)(C5[C@H]6O)[C@@H](CC23)C14
InChI: InChI=1S/C24H39NO5/c1-5-25-11-22(12-28-2)7-6-18(30-4)24-14-8-13-16(29-3)10-23(27,19(14)20(13)26)15(21(24)25)9-17(22)24/h13-21,26-27H,5-12H2,1-4H3/t13-,14?,15+,16+,17?,18+,19?,20+,21?,22+,23+,24-/m1/s1
Instrument: ABSciex API3200 LC/MS system
Instrument type: LC-ESI-QQQ
Ms type: MS
Ion mode: POSITIVE
Precursor type: [M+H]+
m/z	relative intensity
238.5000	46
389.5000	41
389.6000	58
389.7000	45
389.8000	74
389.9000	73
390.0000	97
390.1000	98
390.2000	104
390.3000	68
390.4000	86
390.5000	45
390.6000	30
390.7000	31
390.9000	26
391.0000	27
391.3000	47
392.1000	26
392.2000	21
421.3000	27
421.4000	155
421.5000	377
421.6000	684
421.7000	761
421.8000	999
421.9000	795
422.0000	793
422.1000	791
422.2000	783
422.3000	719
422.4000	664
422.5000	491
422.6000	355
422.7000	364
422.8000	342
422.9000	375
423.0000	323
423.1000	333
423.2000	329
423.3000	347
423.4000	322
423.5000	237
423.6000	114
423.7000	84
423.8000	98
423.9000	80
424.0000	93
424.1000	65
424.2000	68
424.3000	63
424.4000	63
424.5000	39
424.7000	22
