Mass spectrum: Kokanidin; LC-ESI-QQQ; MS2; Frag=135.0V CID@10.0; [M+HCOO]-
Name: Kokanidin
Class: Benzopyranoids
Formula: C26H34O6
Exact mass: 442.5573
SMILES: CC(=O)OC1CC[C@]2(C)C(CC[C@@](C)(O)[C@H]2COc2ccc3ccc(=O)oc3c2)C1(C)C
InChI: InChI=1S/C26H34O6/c1-16(27)31-22-11-12-25(4)20(24(22,2)3)10-13-26(5,29)21(25)15-30-18-8-6-17-7-9-23(28)32-19(17)14-18/h6-9,14,20-22,29H,10-13,15H2,1-5H3/t20?,21-,22?,25+,26+/m0/s1
Instrument: Agilent 6410 Triple Quadrupole LC/MS system
Instrument type: LC-ESI-QQQ
Ms type: MS2
Ion mode: NEGATIVE
Precursor type: [M+HCOO]-
m/z	relative intensity
50.3	17
50.4	25
50.5	31
50.6	29
50.7	22
50.9	15
51.0	20
51.1	26
51.2	28
51.3	25
51.4	19
51.6	17
51.7	22
51.8	26
51.9	25
52.8	15
52.9	23
53.0	30
53.1	30
53.2	24
53.4	14
53.5	19
53.6	25
53.7	27
53.8	24
53.9	18
54.1	12
54.2	18
54.3	24
54.4	25
54.5	20
54.7	14
54.8	20
54.9	26
55.0	28
55.1	22
55.4	14
55.5	24
55.6	30
55.7	27
55.8	17
56.0	10
56.1	18
56.2	25
56.3	26
56.4	20
56.7	15
56.8	21
56.9	24
57.0	22
57.3	17
57.4	22
57.5	26
57.6	25
57.7	19
58.0	13
58.1	20
58.2	24
58.3	25
58.6	21
58.7	25
58.8	27
58.9	25
59.0	19
59.2	13
59.3	17
59.4	22
59.5	24
59.6	21
59.8	16
59.9	20
60.0	26
60.1	29
60.2	25
60.3	17
60.5	12
60.6	19
60.7	24
60.8	22
60.9	15
61.1	11
61.2	18
61.3	24
61.4	25
61.5	21
61.8	13
61.9	22
62.0	28
62.1	28
62.2	22
63.0	13
63.1	16
63.2	23
63.3	27
63.4	26
63.5	20
64.3	16
64.4	20
64.5	26
64.6	27
64.7	22
65.0	16
65.1	22
65.2	26
65.3	26
65.4	22
65.6	17
65.7	21
65.8	26
65.9	29
66.0	25
66.1	19
66.3	18
66.4	23
66.5	26
66.6	23
66.7	17
66.9	13
67.0	19
67.1	24
67.2	25
67.3	21
67.6	17
67.7	21
67.8	24
67.9	23
68.0	20
68.2	15
68.3	19
68.4	24
68.5	24
68.6	19
68.8	12
68.9	18
69.0	25
69.1	27
69.2	23
69.3	15
69.5	14
69.6	21
69.7	25
69.8	23
69.9	16
70.1	13
70.2	20
70.3	28
70.4	28
70.5	21
70.7	8
70.8	14
70.9	23
71.0	28
71.1	25
71.2	18
71.4	17
71.5	24
71.6	27
71.7	23
71.8	14
72.0	10
72.1	19
72.2	27
72.3	28
72.4	24
72.5	18
72.7	14
72.8	17
72.9	20
73.0	18
73.3	13
73.4	20
73.5	26
73.6	26
73.7	21
73.9	14
74.0	19
74.1	25
74.2	27
74.3	22
74.6	14
74.7	21
74.8	26
74.9	26
75.0	21
75.2	17
75.3	20
75.4	23
75.5	23
75.6	20
75.9	14
76.0	19
76.1	23
76.2	22
76.4	16
76.5	19
76.6	25
76.7	30
76.8	28
76.9	23
77.0	16
77.2	14
77.3	20
77.4	25
77.5	25
77.6	19
77.8	12
77.9	18
78.0	24
78.1	25
78.2	20
78.4	12
78.5	15
78.6	21
78.7	24
78.8	22
78.9	17
79.1	14
79.2	20
79.3	24
79.4	23
79.5	16
79.7	13
79.8	20
79.9	25
80.0	26
80.1	21
80.3	15
80.4	21
80.5	28
80.6	30
80.7	25
80.8	18
81.0	16
81.1	23
81.2	30
81.3	30
81.4	24
81.6	15
81.7	19
81.8	25
81.9	28
82.0	26
82.1	20
82.3	18
82.4	22
82.5	24
82.6	20
82.8	11
82.9	15
83.0	23
83.1	28
83.2	27
83.3	20
83.5	12
83.6	19
83.7	26
83.8	27
83.9	20
84.1	9
84.2	14
84.3	24
84.4	30
84.5	28
84.6	21
84.8	17
84.9	22
85.0	26
85.1	24
85.2	19
85.4	13
85.5	17
85.6	23
85.7	26
85.8	25
85.9	20
86.1	16
86.2	20
86.3	24
86.4	25
86.5	22
87.3	13
87.4	17
87.5	23
87.6	27
87.7	24
87.8	16
88.0	11
88.1	19
88.2	27
88.3	28
88.4	21
88.5	12
88.7	12
88.8	17
88.9	21
89.0	20
89.3	17
89.4	22
89.5	26
89.6	26
89.7	21
89.9	14
90.0	19
90.1	26
90.2	28
90.3	23
90.6	17
90.7	24
90.8	29
90.9	28
91.0	22
91.2	17
91.3	22
91.4	27
91.5	26
91.6	22
91.8	15
91.9	18
92.0	23
92.1	27
92.2	25
92.3	19
92.5	15
92.6	19
92.7	23
92.8	22
92.9	18
93.1	11
93.2	15
93.3	23
93.4	28
93.5	25
93.6	19
93.8	16
93.9	21
94.0	25
94.1	24
94.2	19
94.4	15
94.5	18
94.6	22
94.7	25
94.8	23
95.1	15
95.2	23
95.3	28
95.4	26
95.5	18
95.7	15
95.8	23
95.9	29
96.0	28
96.1	23
96.3	19
96.4	22
96.5	25
96.6	25
96.7	21
96.9	14
97.0	17
97.1	24
97.2	30
97.3	29
97.4	24
97.7	18
97.8	24
97.9	27
98.0	25
98.1	19
98.3	13
98.4	18
98.5	25
98.6	26
98.7	21
98.9	14
99.0	19
99.1	26
99.2	29
99.3	24
99.4	17
99.6	16
99.7	21
99.8	23
99.9	21
100.1	12
100.2	15
100.3	24
100.4	29
100.5	28
100.6	21
100.8	16
100.9	21
101.0	25
101.1	24
101.2	18
101.4	13
101.5	19
101.6	25
101.7	26
101.8	20
101.9	12
102.1	10
102.2	17
102.3	23
102.4	24
102.5	19
102.8	14
102.9	19
103.0	21
103.1	20
103.3	17
103.4	18
103.5	23
103.6	26
103.7	25
103.8	20
104.0	14
104.1	18
104.2	23
104.3	24
104.4	21
104.6	15
104.7	18
104.8	25
104.9	30
105.0	28
105.1	22
105.3	17
105.4	22
105.5	27
105.6	26
105.7	20
105.9	14
106.0	19
106.1	25
106.2	27
106.3	23
106.6	18
106.7	23
106.8	25
106.9	23
107.1	15
107.2	19
107.3	27
107.4	31
107.5	28
107.6	20
107.8	15
107.9	19
108.0	24
108.1	25
108.2	23
108.3	20
108.5	18
108.6	22
108.7	27
108.8	26
108.9	20
109.1	12
109.2	17
109.3	25
109.4	29
109.5	26
109.6	18
109.8	14
109.9	21
110.0	27
110.1	25
110.2	19
110.4	14
110.5	21
110.6	27
110.7	27
110.8	20
111.0	8
111.1	13
111.2	21
111.3	25
111.4	24
111.5	19
111.7	16
111.8	19
111.9	22
112.0	21
112.1	16
112.3	12
112.4	18
112.5	26
112.6	29
112.7	25
112.8	18
113.0	17
113.1	23
113.2	27
113.3	24
113.4	16
113.6	12
113.7	19
113.8	25
113.9	25
114.0	19
114.2	10
114.3	16
114.4	24
114.5	28
114.6	24
114.7	16
114.9	12
115.0	18
115.1	23
115.2	24
115.3	20
116.2	14
116.3	19
116.4	22
116.5	22
116.6	18
116.8	13
116.9	17
117.0	23
117.1	24
117.2	20
117.5	14
117.6	20
117.7	24
117.8	23
117.9	19
118.1	14
118.2	17
118.3	21
118.4	22
118.5	19
118.7	11
118.8	15
118.9	23
119.0	28
119.1	25
119.2	16
119.4	11
119.5	20
119.6	28
119.7	29
119.8	22
120.0	11
120.1	17
120.2	24
120.3	26
120.4	22
120.7	16
120.8	22
120.9	27
121.0	26
121.1	21
121.9	17
122.0	20
122.1	25
122.2	26
122.3	23
122.6	16
122.7	23
122.8	29
122.9	29
123.0	23
123.9	13
124.0	21
124.1	27
124.2	26
124.3	19
124.5	12
124.6	17
124.7	22
124.8	24
124.9	20
125.1	15
125.2	18
125.3	22
125.4	23
125.5	21
125.6	15
125.8	13
125.9	18
126.0	22
126.1	23
126.2	18
126.4	10
126.5	14
126.6	21
126.7	25
126.8	22
126.9	15
127.1	13
127.2	20
127.3	26
127.4	27
127.5	22
127.7	17
127.8	22
127.9	28
128.0	28
128.1	23
128.3	15
128.4	20
128.5	27
128.6	30
128.7	26
128.8	19
129.0	14
129.1	18
129.2	21
129.3	20
129.4	16
129.6	13
129.7	19
129.8	27
129.9	28
130.0	22
130.3	13
130.4	22
130.5	27
130.6	24
130.7	15
130.9	12
131.0	20
131.1	26
131.2	25
131.3	20
131.5	14
131.6	18
131.7	22
131.8	24
131.9	22
132.0	18
132.2	16
132.3	20
132.4	25
132.5	25
132.6	21
132.8	12
132.9	17
133.0	24
133.1	25
133.2	20
133.4	9
133.5	16
133.6	26
133.7	30
133.8	25
133.9	16
134.1	14
134.2	22
134.3	27
134.4	25
134.5	20
134.7	16
134.8	18
134.9	21
135.0	22
135.1	19
135.3	12
135.4	14
135.5	22
135.6	29
135.7	30
135.8	25
136.1	18
136.2	25
136.3	29
136.4	26
136.5	20
136.7	17
136.8	23
136.9	26
137.0	23
137.1	17
137.3	16
137.4	21
137.5	25
137.6	23
137.7	20
137.9	18
138.0	20
138.1	24
138.2	27
138.3	26
138.4	22
138.6	20
138.7	25
138.8	28
138.9	25
139.0	18
139.2	15
139.3	22
139.4	26
139.5	26
139.6	22
139.7	17
139.9	15
140.0	19
140.1	23
140.2	24
140.3	18
140.5	12
140.6	19
140.7	28
140.8	29
140.9	22
141.8	14
141.9	22
142.0	29
142.1	31
142.2	24
142.3	16
142.5	16
142.6	21
142.7	24
142.8	21
143.0	16
143.1	20
143.2	26
143.3	29
143.4	26
143.5	19
143.7	15
143.8	22
143.9	27
144.0	27
144.1	21
144.4	14
144.5	19
144.6	22
144.7	20
144.9	11
145.0	14
145.1	23
145.2	30
145.3	29
145.4	22
145.7	13
145.8	21
145.9	25
146.0	23
146.1	16
146.3	13
146.4	20
146.5	26
146.6	25
146.7	19
146.9	11
147.0	17
147.1	24
147.2	28
147.3	24
148.2	15
148.3	22
148.4	26
148.5	23
148.6	16
148.8	13
148.9	19
149.0	25
149.1	25
149.2	19
149.4	15
149.5	21
149.6	27
149.7	29
149.8	24
149.9	18
150.1	14
150.2	19
150.3	25
150.4	27
150.5	25
150.6	20
150.8	18
150.9	23
151.0	26
151.1	26
151.2	22
151.4	19
151.5	23
151.6	27
151.7	27
151.8	20
152.0	10
152.1	17
152.2	25
152.3	28
152.4	24
153.3	13
153.4	21
153.5	28
153.6	29
153.7	23
153.8	14
154.0	12
154.1	20
154.2	25
154.3	24
154.6	17
154.7	23
154.8	28
154.9	26
155.0	18
155.2	10
155.3	17
155.4	25
155.5	28
155.6	23
155.7	14
155.9	12
156.0	19
156.1	25
156.2	23
156.3	16
156.5	9
156.6	17
156.7	25
156.8	24
156.9	17
157.1	10
157.2	19
157.3	27
157.4	28
157.5	21
157.6	11
157.8	9
157.9	19
158.0	27
158.1	27
158.2	21
158.4	17
158.5	24
158.6	31
158.7	31
158.8	25
159.1	16
159.2	24
159.3	30
159.4	29
159.5	22
159.7	12
159.8	17
159.9	23
160.0	26
160.1	24
160.4	17
160.5	23
160.6	28
160.7	29
160.8	26
161.0	22
161.1	27
161.2	35
161.3	36
161.4	27
162.2	13
162.3	17
162.4	24
162.5	28
162.6	26
162.7	20
162.9	14
163.0	19
163.1	25
163.2	26
163.3	21
163.5	13
163.6	17
163.7	23
163.8	26
163.9	24
164.0	19
164.2	15
164.3	20
164.4	25
164.5	25
164.6	21
164.8	15
164.9	19
165.0	23
165.1	24
165.2	20
165.4	12
165.5	17
165.6	24
165.7	28
165.8	24
165.9	15
166.1	10
166.2	19
166.3	27
166.4	28
166.5	22
166.7	12
166.8	17
166.9	24
167.0	27
167.1	24
167.2	17
167.4	14
167.5	21
167.6	27
167.7	25
167.8	19
168.0	16
168.1	21
168.2	26
168.3	27
168.4	23
168.7	17
168.8	22
168.9	26
169.0	25
169.1	18
169.3	10
169.4	16
169.5	23
169.6	24
169.7	20
169.9	13
170.0	18
170.1	24
170.2	26
170.3	22
170.6	16
170.7	21
170.8	24
170.9	23
171.0	18
171.2	9
171.3	14
171.4	20
171.5	23
171.6	19
171.7	12
171.9	11
172.0	17
172.1	24
172.2	24
172.3	19
172.5	15
172.6	22
172.7	27
172.8	26
172.9	18
173.1	9
173.2	16
173.3	26
173.4	30
173.5	26
173.6	18
173.8	16
173.9	22
174.0	26
174.1	25
174.2	19
174.4	15
174.5	20
174.6	27
174.7	29
174.8	25
174.9	17
175.1	15
175.2	22
175.3	28
175.4	27
175.5	20
175.7	15
175.8	22
175.9	27
176.0	26
176.1	20
176.3	11
176.4	15
176.5	23
176.6	27
176.7	26
176.8	20
177.0	14
177.1	18
177.2	23
177.3	22
177.4	16
177.6	11
177.7	17
177.8	24
177.9	26
178.0	21
178.3	14
178.4	21
178.5	26
178.6	26
178.7	20
178.9	15
179.0	22
179.1	27
179.2	25
179.3	17
179.5	12
179.6	19
179.7	26
179.8	27
179.9	21
180.1	11
180.2	15
180.3	22
180.4	27
180.5	26
180.6	20
180.9	14
181.0	20
181.1	26
181.2	25
181.3	18
181.5	14
181.6	20
181.7	26
181.8	25
181.9	18
182.1	10
182.2	17
182.3	26
182.4	29
182.5	24
182.6	17
183.4	11
183.5	19
183.6	24
183.7	22
183.8	16
184.0	13
184.1	21
184.2	28
184.3	29
184.4	26
184.5	19
184.7	15
184.8	18
184.9	21
185.0	20
185.1	17
185.3	14
185.4	20
185.5	26
185.6	28
185.7	24
186.6	14
186.7	19
186.8	23
186.9	23
187.0	19
187.2	12
187.3	17
187.4	24
187.5	26
187.6	21
187.8	10
187.9	16
188.0	25
188.1	29
188.2	25
188.3	19
188.5	15
188.6	20
188.7	24
188.8	25
188.9	21
189.2	15
189.3	21
189.4	25
189.5	23
189.7	15
189.8	18
189.9	25
190.0	31
190.1	30
190.2	22
190.4	11
190.5	16
190.6	25
190.7	29
190.8	25
191.0	12
191.1	18
191.2	28
191.3	33
191.4	28
191.5	18
191.7	13
191.8	19
191.9	25
192.0	25
192.1	20
192.3	11
192.4	15
192.5	22
192.6	27
192.7	26
192.8	18
193.0	13
193.1	20
193.2	27
193.3	25
193.4	18
193.6	14
193.7	21
193.8	27
193.9	28
194.0	23
194.9	13
195.0	18
195.1	23
195.2	25
195.3	24
196.2	14
196.3	20
196.4	26
196.5	26
196.6	21
196.8	12
196.9	17
197.0	24
197.1	27
197.2	23
197.3	16
197.5	13
197.6	20
197.7	25
197.8	25
197.9	20
198.1	17
198.2	19
198.3	22
198.4	23
198.5	20
198.6	14
198.8	12
198.9	19
199.0	24
199.1	25
199.2	20
199.4	17
199.5	22
199.6	27
199.7	28
199.8	23
199.9	16
200.1	15
200.2	21
200.3	26
200.4	24
200.5	18
200.7	15
200.8	21
200.9	25
201.0	23
201.3	16
201.4	23
201.5	28
201.6	28
201.7	22
202.0	16
202.1	22
202.2	27
202.3	27
202.4	21
202.6	15
202.7	20
202.8	25
202.9	25
203.0	20
203.2	17
203.3	23
203.4	28
203.5	28
203.6	22
203.8	14
203.9	18
204.0	23
204.1	26
204.2	24
204.3	18
204.5	16
204.6	22
204.7	26
204.8	25
204.9	20
205.1	15
205.2	19
205.3	25
205.4	28
205.5	25
205.8	17
205.9	25
206.0	32
206.1	31
206.2	24
206.4	14
206.5	19
206.6	26
206.7	28
206.8	23
207.1	17
207.2	24
207.3	29
207.4	28
207.5	22
207.7	15
207.8	20
207.9	26
208.0	26
208.1	20
208.3	12
208.4	16
208.5	24
208.6	28
208.7	25
208.8	18
209.0	14
209.1	20
209.2	26
209.3	25
209.4	19
209.6	9
209.7	13
209.8	20
209.9	24
210.0	23
210.1	18
210.3	15
210.4	18
210.5	20
210.6	20
210.9	15
211.0	20
211.1	24
211.2	24
211.3	19
211.5	12
211.6	17
211.7	23
211.8	25
211.9	20
212.0	12
212.2	10
212.3	19
212.4	27
212.5	27
212.6	19
212.8	10
212.9	17
213.0	27
213.1	32
213.2	28
213.3	21
213.5	16
213.6	22
213.7	26
213.8	26
213.9	20
214.1	14
214.2	19
214.3	25
214.4	25
214.5	19
214.7	14
214.8	22
214.9	30
215.0	31
215.1	24
215.4	16
215.5	23
215.6	28
215.7	26
215.8	19
216.0	15
216.1	21
216.2	27
216.3	28
216.4	23
216.5	17
216.7	16
216.8	20
216.9	24
217.0	24
217.1	20
217.3	15
217.4	18
217.5	23
217.6	24
217.7	20
217.9	15
218.0	17
218.1	22
218.2	24
218.3	23
218.4	18
218.6	15
218.7	22
218.8	29
218.9	30
219.0	21
219.2	10
219.3	17
219.4	26
219.5	29
219.6	24
219.9	16
220.0	23
220.1	27
220.2	25
220.3	19
220.5	14
220.6	19
220.7	23
220.8	23
220.9	19
221.1	17
221.2	21
221.3	25
221.4	27
221.5	23
221.6	17
221.8	13
221.9	18
222.0	24
222.1	24
222.2	18
222.4	11
222.5	17
222.6	25
222.7	29
222.8	25
222.9	16
223.1	13
223.2	20
223.3	26
223.4	24
223.5	18
223.7	13
223.8	20
223.9	27
224.0	27
224.1	20
224.3	10
224.4	17
224.5	25
224.6	27
224.7	22
224.8	13
225.0	11
225.1	20
225.2	27
225.3	26
225.4	20
225.7	14
225.8	18
225.9	21
226.0	22
226.2	18
226.3	20
226.4	24
226.5	27
226.6	24
226.7	17
226.9	13
227.0	20
227.1	26
227.2	26
227.3	20
227.5	13
227.6	18
227.7	23
227.8	25
227.9	21
228.2	15
228.3	21
228.4	25
228.5	25
228.6	19
228.8	13
228.9	19
229.0	26
229.1	28
229.2	23
229.4	13
229.5	18
229.6	26
229.7	29
229.8	23
230.1	13
230.2	23
230.3	31
230.4	30
230.5	21
230.7	8
230.8	14
230.9	25
231.0	30
231.1	26
231.2	17
231.4	14
231.5	22
231.6	27
231.7	27
231.8	23
232.6	12
232.7	17
232.8	24
232.9	29
233.0	25
233.1	16
233.3	12
233.4	21
233.5	28
233.6	28
233.7	20
233.9	9
234.0	15
234.1	24
234.2	28
234.3	25
234.4	16
234.6	10
234.7	17
234.8	24
234.9	24
235.0	19
235.2	14
235.3	20
235.4	27
235.5	27
235.6	21
235.8	11
235.9	17
236.0	26
236.1	30
236.2	26
236.3	17
236.5	13
236.6	18
236.7	24
236.8	24
236.9	21
237.1	17
237.2	21
237.3	26
237.4	27
237.5	23
237.6	18
237.8	15
237.9	19
238.0	23
238.1	22
238.2	17
238.4	11
238.5	16
238.6	24
238.7	27
238.8	23
238.9	17
239.1	16
239.2	22
239.3	25
239.4	22
239.5	15
239.7	13
239.8	19
239.9	24
240.0	25
240.1	20
240.3	12
240.4	17
240.5	26
240.6	30
240.7	27
240.8	19
241.0	15
241.1	21
241.2	25
241.3	23
241.4	16
241.6	9
241.7	17
241.8	26
241.9	30
242.0	26
242.1	18
242.3	16
242.4	23
242.5	29
242.6	29
242.7	24
242.9	18
243.0	22
243.1	25
243.2	24
243.3	19
243.5	12
243.6	16
243.7	22
243.8	27
243.9	25
244.0	18
244.2	12
244.3	19
244.4	27
244.5	27
244.6	21
244.8	14
244.9	20
245.0	26
245.1	27
245.2	22
245.4	15
245.5	19
245.6	25
245.7	28
245.8	26
245.9	20
246.1	18
246.2	24
246.3	29
246.4	27
246.5	20
246.7	14
246.8	19
246.9	25
247.0	28
247.1	25
247.2	18
247.4	15
247.5	23
247.6	30
247.7	30
247.8	23
248.1	15
248.2	22
248.3	28
248.4	26
248.5	19
248.7	13
248.8	18
248.9	24
249.0	24
249.1	19
249.3	14
249.4	20
249.5	27
249.6	28
249.7	21
250.0	15
250.1	22
250.2	25
250.3	24
250.6	18
250.7	24
250.8	29
250.9	29
251.0	21
251.2	11
251.3	16
251.4	24
251.5	27
251.6	23
251.9	15
252.0	23
252.1	29
252.2	27
252.3	19
252.5	12
252.6	17
252.7	23
252.8	26
252.9	22
253.1	15
253.2	19
253.3	24
253.4	25
253.5	20
254.4	14
254.5	17
254.6	22
254.7	25
254.8	23
255.7	11
255.8	17
255.9	24
256.0	26
256.1	21
256.3	13
256.4	17
256.5	23
256.6	25
256.7	19
256.9	11
257.0	16
257.1	25
257.2	29
257.3	25
257.4	17
257.6	12
257.7	18
257.8	23
257.9	24
258.0	20
258.2	15
258.3	19
258.4	26
258.5	28
258.6	25
258.7	17
258.9	15
259.0	22
259.1	29
259.2	30
259.3	24
259.6	18
259.7	24
259.8	28
259.9	26
260.0	21
260.2	19
260.3	23
260.4	27
260.5	26
260.6	20
260.8	13
260.9	18
261.0	26
261.1	32
261.2	30
261.3	24
261.5	18
261.6	23
261.7	26
261.8	24
261.9	18
262.1	14
262.2	21
262.3	28
262.4	28
262.5	22
262.7	13
262.8	17
262.9	23
263.0	26
263.1	22
263.2	15
263.4	13
263.5	19
263.6	25
263.7	24
263.8	18
264.0	12
264.1	19
264.2	26
264.3	29
264.4	25
264.5	17
264.7	15
264.8	20
264.9	25
265.0	24
265.1	19
265.3	13
265.4	17
265.5	23
265.6	25
265.7	22
265.8	16
266.0	13
266.1	19
266.2	23
266.3	21
266.6	15
266.7	22
266.8	27
266.9	25
267.0	17
267.2	11
267.3	18
267.4	25
267.5	27
267.6	23
267.8	15
267.9	20
268.0	28
268.1	32
268.2	27
268.3	19
268.5	12
268.6	17
268.7	22
268.8	24
268.9	22
269.2	17
269.3	22
269.4	26
269.5	23
269.6	15
269.8	11
269.9	18
270.0	24
270.1	25
270.2	20
270.4	15
270.5	20
270.6	26
270.7	27
270.8	22
271.1	15
271.2	22
271.3	25
271.4	23
271.5	17
271.7	12
271.8	18
271.9	24
272.0	25
272.1	21
272.3	14
272.4	18
272.5	22
272.6	25
272.7	24
272.8	20
273.0	16
273.1	20
273.2	25
273.3	25
273.4	19
273.6	15
273.7	21
273.8	26
273.9	26
274.0	21
274.3	15
274.4	20
274.5	24
274.6	24
274.7	20
274.9	16
275.0	20
275.1	25
275.2	27
275.3	24
275.5	16
275.6	19
275.7	25
275.8	27
275.9	22
276.0	13
276.2	11
276.3	19
276.4	26
276.5	26
276.6	20
276.8	11
276.9	15
277.0	22
277.1	26
277.2	25
277.3	19
277.5	15
277.6	20
277.7	24
277.8	23
277.9	16
278.1	12
278.2	19
278.3	27
278.4	29
278.5	23
279.4	14
279.5	21
279.6	26
279.7	25
279.8	17
280.0	9
280.1	15
280.2	22
280.3	26
280.4	23
280.5	17
280.7	14
280.8	19
280.9	25
281.0	27
281.1	22
281.2	15
281.4	13
281.5	19
281.6	24
281.7	23
282.0	16
282.1	23
282.2	27
282.3	24
282.4	17
282.6	15
282.7	21
282.8	25
282.9	26
283.0	21
283.2	14
283.3	18
283.4	24
283.5	27
283.6	25
283.7	20
283.9	16
284.0	21
284.1	27
284.2	29
284.3	25
285.1	14
285.2	19
285.3	24
285.4	26
285.5	22
285.6	17
285.8	15
285.9	21
286.0	25
286.1	24
286.2	18
286.4	12
286.5	15
286.6	20
286.7	22
286.8	19
287.1	12
287.2	19
287.3	25
287.4	26
287.5	22
287.7	16
287.8	19
287.9	24
288.0	25
288.1	21
288.4	16
288.5	21
288.6	24
288.7	22
289.0	17
289.1	22
289.2	25
289.3	23
289.6	16
289.7	23
289.8	28
289.9	28
290.0	23
290.9	15
291.0	20
291.1	24
291.2	24
291.3	19
291.5	14
291.6	19
291.7	25
291.8	28
291.9	24
292.0	17
292.2	15
292.3	21
292.4	25
292.5	24
292.6	18
292.8	15
292.9	20
293.0	24
293.1	24
293.2	19
293.4	11
293.5	18
293.6	29
293.7	35
293.8	30
293.9	19
294.1	13
294.2	21
294.3	28
294.4	28
294.5	21
294.8	12
294.9	20
295.0	26
295.1	25
295.2	20
295.4	16
295.5	21
295.6	25
295.7	26
295.8	22
296.0	16
296.1	21
296.2	27
296.3	27
296.4	21
296.6	12
296.7	18
296.8	25
296.9	27
297.0	23
297.1	15
297.3	11
297.4	20
297.5	29
297.6	32
297.7	27
297.8	19
298.0	18
298.1	25
298.2	29
298.3	27
298.4	20
298.6	15
298.7	22
298.8	28
298.9	29
299.0	23
299.3	17
299.4	24
299.5	28
299.6	25
300.5	12
300.6	18
300.7	25
300.8	26
300.9	23
301.1	15
301.2	18
301.3	24
301.4	27
301.5	23
301.6	17
301.8	16
301.9	22
302.0	25
302.1	22
302.2	15
302.4	9
302.5	14
302.6	21
302.7	23
302.8	20
303.0	15
303.1	18
303.2	24
303.3	28
303.4	25
303.5	19
303.7	13
303.8	17
303.9	23
304.0	25
304.1	22
304.3	16
304.4	20
304.5	27
304.6	29
304.7	24
304.8	15
305.0	11
305.1	20
305.2	27
305.3	27
305.4	20
305.6	10
305.7	15
305.8	23
305.9	27
306.0	25
306.9	12
307.0	19
307.1	26
307.2	26
307.3	20
307.5	9
307.6	14
307.7	21
307.8	25
307.9	22
308.0	15
308.2	13
308.3	20
308.4	28
308.5	27
308.6	18
308.8	6
308.9	13
309.0	24
309.1	28
309.2	24
310.1	13
310.2	20
310.3	26
310.4	24
310.5	18
310.7	11
310.8	17
310.9	24
311.0	27
311.1	23
311.2	16
311.4	14
311.5	20
311.6	24
311.7	24
311.8	19
312.0	14
312.1	19
312.2	26
312.3	28
312.4	24
312.6	16
312.7	20
312.8	25
312.9	26
313.0	23
313.2	15
313.3	18
313.4	25
313.5	30
313.6	29
313.7	23
313.9	13
314.0	17
314.1	26
314.2	31
314.3	29
314.4	20
314.6	14
314.7	21
314.8	28
314.9	29
315.0	25
315.1	19
315.8	13
315.9	19
316.0	26
316.1	29
316.2	24
316.3	18
316.5	16
316.6	22
316.7	26
316.8	26
316.9	20
317.1	14
317.2	17
317.3	22
317.4	24
317.5	21
317.8	14
317.9	21
318.0	27
318.1	27
318.2	22
318.4	15
318.5	20
318.6	27
318.7	29
318.8	24
318.9	15
319.1	12
319.2	19
319.3	25
319.4	23
319.5	17
319.7	11
319.8	18
319.9	25
320.0	26
320.1	20
320.3	10
320.4	14
320.5	22
320.6	25
320.7	22
320.8	16
321.0	14
321.1	19
321.2	24
321.3	24
321.4	20
321.6	14
321.7	18
321.8	22
321.9	22
322.0	19
322.2	13
322.3	18
322.4	25
322.5	31
322.6	29
322.7	22
322.9	17
323.0	24
323.1	29
323.2	28
323.3	21
323.5	14
323.6	21
323.7	28
323.8	28
323.9	22
324.0	15
324.2	14
324.3	19
324.4	24
324.5	26
324.6	23
324.8	17
324.9	21
325.0	26
325.1	29
325.2	25
325.3	17
325.5	12
325.6	19
325.7	25
325.8	25
325.9	20
326.1	16
326.2	22
326.3	27
326.4	27
326.5	23
326.7	15
326.8	19
326.9	25
327.0	28
327.1	24
327.2	16
327.4	13
327.5	19
327.6	25
327.7	25
327.8	20
328.0	15
328.1	20
328.2	25
328.3	27
328.4	23
328.5	17
328.7	16
328.8	20
328.9	23
329.0	24
329.3	20
329.4	24
329.5	28
329.6	28
329.7	21
330.6	17
330.7	21
330.8	23
330.9	22
331.0	18
331.2	15
331.3	20
331.4	25
331.5	26
331.6	22
331.9	15
332.0	21
332.1	24
332.2	20
332.5	11
332.6	20
332.7	28
332.8	28
332.9	22
333.8	11
333.9	16
334.0	20
334.1	20
334.4	15
334.5	21
334.6	27
334.7	27
334.8	20
335.1	13
335.2	20
335.3	23
335.4	21
335.6	12
335.7	15
335.8	23
335.9	29
336.0	28
336.1	21
336.3	11
336.4	15
336.5	22
336.6	27
336.7	25
336.8	19
337.0	14
337.1	21
337.2	29
337.3	30
337.4	22
337.6	13
337.7	19
337.8	26
337.9	26
338.0	20
338.2	15
338.3	21
338.4	28
338.5	29
338.6	23
338.7	14
338.9	13
339.0	19
339.1	22
339.2	20
339.5	14
339.6	22
339.7	29
339.8	29
339.9	23
340.0	16
340.2	16
340.3	21
340.4	25
340.5	24
340.6	19
340.8	13
340.9	17
341.0	23
341.1	25
341.2	20
341.4	12
341.5	18
341.6	27
341.7	31
341.8	27
341.9	19
342.1	15
342.2	22
342.3	28
342.4	27
342.5	20
342.7	10
342.8	15
342.9	23
343.0	27
343.1	24
343.2	17
343.4	13
343.5	18
343.6	23
343.7	23
343.8	18
344.0	11
344.1	15
344.2	22
344.3	26
344.4	24
344.5	17
344.7	15
344.8	23
344.9	29
345.0	28
345.1	19
345.3	14
345.4	22
345.5	30
345.6	28
345.7	20
345.9	11
346.0	17
346.1	24
346.2	25
346.3	21
346.5	13
346.6	18
346.7	26
346.8	32
346.9	29
347.0	19
347.2	11
347.3	18
347.4	25
347.5	25
347.6	19
347.8	8
347.9	13
348.0	21
348.1	27
348.2	26
348.3	21
349.1	12
349.2	15
349.3	21
349.4	24
349.5	21
349.8	15
349.9	23
350.0	28
350.1	27
350.2	21
350.4	15
350.5	21
350.6	26
350.7	26
350.8	19
351.0	10
351.1	16
351.2	25
351.3	30
351.4	28
351.5	21
351.7	16
351.8	22
351.9	28
352.0	29
352.1	24
352.9	13
353.0	17
353.1	24
353.2	30
353.3	29
353.4	21
353.6	12
353.7	19
353.8	27
353.9	30
354.0	25
354.8	12
354.9	16
355.0	22
355.1	27
355.2	26
355.3	20
355.5	10
355.6	15
355.7	23
355.8	29
355.9	28
356.0	22
356.2	15
356.3	19
356.4	24
356.5	25
356.6	23
356.8	17
356.9	20
357.0	25
357.1	27
357.2	23
357.5	17
357.6	24
357.7	29
357.8	26
357.9	18
358.1	14
358.2	22
358.3	29
358.4	27
358.5	19
358.7	10
358.8	18
358.9	27
359.0	31
359.1	25
359.2	16
359.4	13
359.5	21
359.6	28
359.7	27
359.8	22
360.0	18
360.1	24
360.2	30
360.3	30
360.4	24
361.3	13
361.4	18
361.5	24
361.6	27
361.7	24
362.0	19
362.1	24
362.2	28
362.3	27
362.4	22
362.5	19
362.6	19
362.7	21
362.8	19
362.9	12
363.2	4
363.3	13
363.4	21
363.5	24
363.6	21
364.5	14
364.6	20
364.7	24
364.8	22
364.9	16
365.1	13
365.2	19
365.3	25
365.4	26
365.5	22
365.6	15
365.8	13
365.9	18
366.0	23
366.1	23
366.2	18
366.4	14
366.5	20
366.6	25
366.7	26
366.8	21
367.0	12
367.1	17
367.2	24
367.3	27
367.4	24
367.5	18
367.7	17
367.8	22
367.9	27
368.0	28
368.1	23
368.3	18
368.4	22
368.5	27
368.6	29
368.7	27
368.8	21
369.0	15
369.1	18
369.2	22
369.3	22
369.6	18
369.7	23
369.8	27
369.9	26
370.0	20
370.2	11
370.3	15
370.4	22
370.5	26
370.6	24
370.7	17
370.9	13
371.0	19
371.1	25
371.2	26
371.3	22
371.6	14
371.7	20
371.8	23
371.9	21
372.2	17
372.3	22
372.4	27
372.5	27
372.6	23
372.7	17
373.4	9
373.5	12
373.6	21
373.7	27
373.8	27
373.9	21
374.1	12
374.2	18
374.3	26
374.4	28
374.5	22
374.8	14
374.9	22
375.0	27
375.1	25
375.2	19
375.4	12
375.5	18
375.6	24
375.7	26
375.8	23
375.9	18
376.7	14
376.8	20
376.9	25
377.0	24
377.2	15
377.3	18
377.4	26
377.5	31
377.6	29
377.7	20
377.9	9
378.0	14
378.1	21
378.2	24
378.3	21
378.4	14
378.6	13
378.7	20
378.8	25
378.9	24
379.0	18
379.2	12
379.3	19
379.4	26
379.5	28
379.6	24
379.9	17
380.0	24
380.1	28
380.2	26
380.3	18
380.5	11
380.6	18
380.7	23
380.8	23
380.9	18
381.1	13
381.2	19
381.3	25
381.4	27
381.5	23
381.6	17
381.8	14
381.9	21
382.0	28
382.1	28
382.2	22
382.4	14
382.5	20
382.6	27
382.7	29
382.8	23
382.9	14
383.1	13
383.2	22
383.3	29
383.4	29
383.5	23
383.7	16
383.8	20
383.9	24
384.0	25
384.1	21
384.2	16
384.4	15
384.5	20
384.6	23
384.7	21
385.0	17
385.1	23
385.2	27
385.3	26
385.4	19
385.6	9
385.7	14
385.8	21
385.9	25
386.0	22
386.1	15
386.3	12
386.4	19
386.5	24
386.6	23
386.7	18
386.9	15
387.0	20
387.1	24
387.2	24
387.3	20
387.5	15
387.6	18
387.7	24
387.8	26
387.9	25
388.0	19
388.2	16
388.3	20
388.4	24
388.5	23
388.6	17
388.8	12
388.9	18
389.0	25
389.1	27
389.2	23
389.3	15
389.5	13
389.6	21
389.7	26
389.8	25
389.9	17
390.1	11
390.2	19
390.3	25
390.4	26
390.5	21
390.7	14
390.8	19
390.9	26
391.0	29
391.1	24
391.2	17
391.4	15
391.5	22
391.6	25
391.7	23
392.0	15
392.1	23
392.2	31
392.3	32
392.4	26
392.5	18
392.7	16
392.8	22
392.9	26
393.0	26
393.1	21
393.3	15
393.4	18
393.5	23
393.6	24
393.7	21
393.9	14
394.0	19
394.1	25
394.2	29
394.3	25
394.4	17
394.6	13
394.7	19
394.8	25
394.9	24
395.0	17
395.2	15
395.3	23
395.4	29
395.5	28
395.6	21
396.5	14
396.6	19
396.7	24
396.8	25
396.9	20
397.1	13
397.2	17
397.3	25
397.4	29
397.5	25
397.6	17
397.8	14
397.9	21
398.0	26
398.1	24
398.2	18
398.4	15
398.5	21
398.6	28
398.7	29
398.8	25
398.9	19
399.1	15
399.2	21
399.3	25
399.4	24
399.5	19
399.7	14
399.8	20
399.9	27
400.0	28
400.1	22
400.3	12
400.4	17
400.5	23
400.6	27
400.7	24
400.8	18
401.0	16
401.1	21
401.2	26
401.3	25
401.4	19
401.6	12
401.7	17
401.8	23
401.9	26
402.0	21
402.3	15
402.4	22
402.5	26
402.6	25
402.7	20
402.9	15
403.0	20
403.1	27
403.2	28
403.3	21
403.6	14
403.7	21
403.8	24
403.9	24
404.2	20
404.3	23
404.4	26
404.5	27
404.6	22
404.8	16
404.9	21
405.0	26
405.1	27
405.2	21
405.4	15
405.5	21
405.6	27
405.7	28
405.8	22
406.1	15
406.2	22
406.3	28
406.4	28
406.5	23
406.7	15
406.8	19
406.9	24
407.0	26
407.1	22
407.3	16
407.4	19
407.5	25
407.6	27
407.7	23
407.8	15
408.0	13
408.1	20
408.2	27
408.3	28
408.4	23
408.5	17
408.7	16
408.8	20
408.9	23
409.0	23
409.1	18
409.3	13
409.4	19
409.5	26
409.6	27
409.7	22
410.5	15
410.6	19
410.7	25
410.8	30
410.9	28
411.0	22
411.2	16
411.3	20
411.4	25
411.5	26
411.6	22
411.9	17
412.0	21
412.1	24
412.2	24
412.3	21
412.5	17
412.6	21
412.7	24
412.8	24
412.9	19
413.1	11
413.2	15
413.3	23
413.4	27
413.5	25
413.6	20
413.8	16
413.9	19
414.0	21
414.1	20
414.4	16
414.5	20
414.6	28
414.7	32
414.8	30
414.9	23
415.1	16
415.2	21
415.3	24
415.4	23
415.5	17
415.7	13
415.8	17
415.9	22
416.0	23
416.1	21
416.3	15
416.4	17
416.5	23
416.6	27
416.7	26
416.8	19
417.0	9
417.1	14
417.2	20
417.3	24
417.4	21
417.6	12
417.7	16
417.8	22
417.9	25
418.0	22
418.3	14
418.4	21
418.5	27
418.6	27
418.7	22
418.8	17
419.5	13
419.6	16
419.7	23
419.8	27
419.9	25
420.0	17
420.2	14
420.3	22
420.4	28
420.5	26
420.6	18
420.8	11
420.9	18
421.0	26
421.1	29
421.2	24
421.5	18
421.6	24
421.7	27
421.8	25
421.9	19
422.1	17
422.2	23
422.3	27
422.4	26
422.5	22
422.7	17
422.8	20
422.9	23
423.0	25
423.1	23
423.2	18
423.4	12
423.5	16
423.6	22
423.7	25
423.8	22
424.0	16
424.1	19
424.2	24
424.3	26
424.4	24
424.7	16
424.8	22
424.9	26
425.0	23
425.1	16
425.3	15
425.4	20
425.5	24
425.6	22
425.7	16
425.9	13
426.0	17
426.1	22
426.2	25
426.3	23
426.4	19
426.6	14
426.7	19
426.8	26
426.9	26
427.0	20
427.2	12
427.3	16
427.4	22
427.5	23
427.6	19
427.9	12
428.0	19
428.1	25
428.2	25
428.3	19
428.5	13
428.6	19
428.7	27
428.8	29
428.9	23
429.0	15
429.2	13
429.3	22
429.4	29
429.5	28
429.6	19
429.8	11
429.9	20
430.0	29
430.1	31
430.2	23
430.3	14
430.5	14
430.6	21
430.7	25
430.8	23
430.9	17
431.1	15
431.2	19
431.3	23
431.4	22
431.7	18
431.8	22
431.9	27
432.0	28
432.1	24
432.2	17
432.4	14
432.5	20
432.6	25
432.7	26
432.8	23
433.6	15
433.7	20
433.8	26
433.9	26
434.0	22
434.3	15
434.4	22
434.5	28
434.6	28
434.7	22
434.9	14
435.0	19
435.1	25
435.2	26
435.3	22
436.1	13
436.2	17
436.3	23
436.4	28
436.5	27
436.6	22
436.8	17
436.9	22
437.0	26
437.1	27
437.2	24
437.5	16
437.6	23
437.7	29
437.8	29
437.9	23
439.3	13
439.4	16
439.5	22
439.6	26
439.7	25
439.8	20
440.6	14
440.7	18
440.8	22
440.9	24
441.0	21
441.1	16
441.3	13
441.4	19
441.5	25
441.6	26
441.7	21
441.9	11
442.0	17
442.1	25
442.2	27
442.3	21
442.4	12
442.6	10
442.7	17
442.8	22
442.9	20
443.0	14
443.2	10
443.3	18
443.4	25
443.5	28
443.6	25
443.7	18
443.9	14
444.0	17
444.1	19
444.2	19
444.5	16
444.6	21
444.7	26
444.8	26
444.9	20
445.1	17
445.2	23
445.3	29
445.4	30
445.5	25
445.8	18
445.9	24
446.0	27
446.1	24
446.2	19
446.4	17
446.5	21
446.6	26
446.7	27
446.8	23
447.1	16
447.2	24
447.3	30
447.4	30
447.5	23
448.3	8
448.4	14
448.5	23
448.6	29
448.7	27
448.8	21
449.0	18
449.1	22
449.2	24
449.3	24
449.4	20
449.6	16
449.7	20
449.8	27
449.9	30
450.0	27
450.1	19
450.3	16
450.4	20
450.5	21
450.6	17
450.8	11
450.9	16
451.0	24
451.1	29
451.2	28
451.3	22
451.5	14
451.6	19
451.7	25
451.8	27
451.9	23
452.2	16
452.3	23
452.4	27
452.5	25
452.6	20
452.8	17
452.9	21
453.0	24
453.1	24
453.2	20
453.4	14
453.5	17
453.6	22
453.7	25
453.8	23
453.9	18
454.1	16
454.2	21
454.3	26
454.4	27
454.5	21
454.7	11
454.8	15
454.9	24
455.0	30
455.1	28
455.2	21
455.4	15
455.5	20
455.6	25
455.7	25
455.8	20
456.0	16
456.1	22
456.2	27
456.3	27
456.4	22
456.5	16
456.7	14
456.8	19
456.9	22
457.0	22
457.1	20
457.3	17
457.4	20
457.5	23
457.6	24
457.7	21
458.5	11
458.6	14
458.7	22
458.8	28
458.9	27
459.0	19
459.2	11
459.3	17
459.4	23
459.5	26
459.6	23
459.9	18
460.0	23
460.1	27
460.2	27
460.3	22
460.5	18
460.6	24
460.7	28
460.8	25
460.9	18
461.1	14
461.2	21
461.3	28
461.4	28
461.5	22
461.8	14
461.9	22
462.0	26
462.1	26
462.2	20
462.4	14
462.5	19
462.6	25
462.7	25
462.8	20
463.0	13
463.1	18
463.2	25
463.3	27
463.4	24
463.5	16
463.7	11
463.8	17
463.9	24
464.0	26
464.1	23
464.3	16
464.4	20
464.5	27
464.6	30
464.7	26
464.8	18
465.0	15
465.1	23
465.2	29
465.3	28
465.4	21
465.6	15
465.7	20
465.8	26
465.9	27
466.0	22
466.1	15
466.3	13
466.4	19
466.5	23
466.6	23
466.7	19
466.9	15
467.0	20
467.1	26
467.2	27
467.3	21
467.5	12
467.6	17
467.7	25
467.8	29
467.9	26
468.0	19
468.2	14
468.3	20
468.4	27
468.5	29
468.6	25
468.7	18
468.9	17
469.0	23
469.1	27
469.2	24
469.3	16
469.5	12
469.6	20
469.7	27
469.8	27
469.9	22
470.1	15
470.2	20
470.3	25
470.4	24
470.5	17
470.7	10
470.8	16
470.9	24
471.0	27
471.1	25
471.2	19
471.4	15
471.5	19
471.6	23
471.7	22
471.8	18
472.0	14
472.1	20
472.2	25
472.3	26
472.4	19
472.6	11
472.7	17
472.8	23
472.9	25
473.0	22
473.1	15
473.3	14
473.4	20
473.5	26
473.6	26
473.7	20
473.9	9
474.0	14
474.1	21
474.2	26
474.3	24
474.4	17
474.6	14
474.7	20
474.8	25
474.9	24
475.0	19
475.3	14
475.4	20
475.5	25
475.6	24
475.9	18
476.0	24
476.1	28
476.2	27
476.3	22
476.5	16
476.6	20
476.7	25
476.8	25
476.9	21
477.1	14
477.2	19
477.3	25
477.4	27
477.5	23
477.8	16
477.9	22
478.0	27
478.1	26
478.2	19
478.4	13
478.5	19
478.6	26
478.7	28
478.8	22
479.1	13
479.2	21
479.3	26
479.4	25
479.5	20
479.7	16
479.8	20
479.9	24
480.0	23
480.1	19
480.3	12
480.4	16
480.5	22
480.6	23
480.7	18
480.9	9
481.0	14
481.1	22
481.2	28
481.3	26
481.4	19
481.6	10
481.7	14
481.8	20
481.9	22
482.0	19
482.2	13
482.3	17
482.4	23
482.5	27
482.6	25
482.7	20
482.9	16
483.0	20
483.1	25
483.2	26
483.3	24
483.4	20
484.2	11
484.3	18
484.4	26
484.5	27
484.6	22
485.5	13
485.6	19
485.7	24
485.8	23
485.9	16
486.1	11
486.2	18
486.3	25
486.4	27
486.5	23
486.6	16
486.8	14
486.9	18
487.0	22
487.1	20
487.3	14
487.4	18
487.5	24
487.6	27
487.7	25
487.8	19
488.0	13
488.1	18
488.2	23
488.3	24
488.4	21
488.7	16
488.8	21
488.9	25
489.0	24
489.1	17
489.3	11
489.4	18
489.5	24
489.6	25
489.7	20
489.9	13
490.0	16
490.1	22
490.2	24
490.3	21
490.6	12
490.7	21
490.8	29
490.9	30
491.0	23
491.2	16
491.3	22
491.4	29
491.5	31
491.6	28
491.7	21
491.9	18
492.0	24
492.1	26
492.2	23
492.5	15
492.6	23
492.7	28
492.8	27
492.9	22
493.8	13
493.9	18
494.0	21
494.1	21
494.2	17
494.4	13
494.5	16
494.6	20
494.7	21
494.8	17
495.0	9
495.1	13
495.2	21
495.3	27
495.4	24
495.5	17
495.7	12
495.8	18
495.9	23
496.0	25
496.1	22
496.2	17
496.4	15
496.5	20
496.6	24
496.7	23
496.8	17
497.0	12
497.1	18
497.2	24
497.3	25
497.4	19
497.6	12
497.7	17
497.8	24
497.9	26
498.0	23
498.1	16
498.3	13
498.4	20
498.5	25
498.6	23
498.7	18
498.9	15
499.0	22
499.1	28
499.2	27
499.3	21
499.6	15
499.7	21
499.8	25
499.9	24
500.0	19
500.2	17
500.3	21
500.4	25
500.5	25
500.6	21
500.8	13
500.9	18
501.0	26
501.1	30
501.2	26
501.3	17
501.5	15
501.6	21
501.7	25
501.8	25
501.9	20
502.1	17
502.2	21
502.3	26
502.4	27
502.5	23
502.7	17
502.8	21
502.9	28
503.0	31
503.1	27
503.2	17
503.4	11
503.5	18
503.6	24
503.7	25
503.8	20
504.6	15
504.7	19
504.8	25
504.9	28
505.0	24
505.1	17
505.3	15
505.4	22
505.5	27
505.6	25
505.7	17
505.9	11
506.0	18
506.1	27
506.2	31
506.3	26
506.4	18
506.6	14
506.7	22
506.8	29
506.9	29
507.0	23
507.2	16
507.3	22
507.4	29
507.5	30
507.6	24
507.9	17
508.0	25
508.1	30
508.2	28
508.3	21
508.5	13
508.6	19
508.7	25
508.8	27
508.9	23
509.1	15
509.2	19
509.3	27
509.4	31
509.5	26
509.6	16
509.8	8
509.9	15
510.0	23
510.1	26
510.2	23
510.4	14
510.5	18
510.6	25
510.7	29
510.8	26
510.9	20
511.1	15
511.2	18
511.3	22
511.4	23
511.5	21
511.7	18
511.8	20
511.9	24
512.0	27
512.1	25
512.2	20
513.0	15
513.1	19
513.2	23
513.3	24
513.6	19
513.7	24
513.8	29
513.9	29
514.0	23
514.2	14
514.3	18
514.4	25
514.5	28
514.6	24
514.8	13
514.9	17
515.0	25
515.1	31
515.2	31
515.3	24
515.4	17
515.6	16
515.7	21
515.8	24
515.9	22
516.0	18
516.2	16
516.3	21
516.4	25
516.5	24
516.6	18
516.8	14
516.9	19
517.0	25
517.1	25
517.2	19
517.4	10
517.5	14
517.6	22
517.7	27
517.8	26
517.9	20
518.1	14
518.2	19
518.3	25
518.4	25
518.5	20
518.7	15
518.8	23
518.9	31
519.0	33
519.1	25
519.2	14
519.4	12
519.5	22
519.6	30
519.7	30
519.8	20
520.0	6
520.1	12
520.2	22
520.3	28
520.4	26
520.5	19
520.7	16
520.8	21
520.9	25
521.0	23
521.1	17
521.3	13
521.4	17
521.5	23
521.6	26
521.7	25
522.0	21
522.1	26
522.2	29
522.3	27
522.4	22
522.6	16
522.7	20
522.8	25
522.9	25
523.0	20
523.2	14
523.3	18
523.4	24
523.5	26
523.6	22
523.9	16
524.0	23
524.1	27
524.2	25
524.3	19
524.5	15
524.6	20
524.7	25
524.8	27
524.9	22
525.2	16
525.3	21
525.4	24
525.5	22
525.6	16
525.8	12
525.9	19
526.0	26
526.1	26
526.2	20
526.4	9
526.5	14
526.6	22
526.7	25
526.8	20
527.0	10
527.1	15
527.2	24
527.3	28
527.4	25
527.5	18
527.7	15
527.8	21
527.9	25
528.0	24
528.1	18
528.3	11
528.4	17
528.5	23
528.6	24
528.7	21
529.0	15
529.1	20
529.2	24
529.3	23
529.4	19
529.6	15
529.7	21
529.8	28
529.9	31
530.0	25
530.2	13
530.3	18
530.4	27
530.5	30
530.6	26
530.7	19
530.9	16
531.0	23
531.1	29
531.2	28
531.3	21
531.6	13
531.7	21
531.8	26
531.9	25
532.0	19
532.2	15
532.3	20
532.4	24
532.5	23
532.6	18
532.8	12
532.9	17
533.0	22
533.1	23
533.2	20
533.4	15
533.5	19
533.6	26
533.7	28
533.8	25
533.9	19
534.1	14
534.2	20
534.3	25
534.4	26
534.5	20
534.7	11
534.8	16
534.9	24
535.0	27
535.1	23
535.4	15
535.5	22
535.6	28
535.7	27
535.8	20
536.0	12
536.1	19
536.2	27
536.3	29
536.4	23
536.5	12
536.7	10
536.8	17
536.9	21
537.0	21
537.2	17
537.3	19
537.4	23
537.5	27
537.6	27
537.7	22
538.0	15
538.1	23
538.2	28
538.3	26
538.4	17
538.6	10
538.7	18
538.8	25
538.9	26
539.0	21
539.9	14
540.0	18
540.1	21
540.2	20
540.5	13
540.6	20
540.7	26
540.8	26
540.9	20
541.1	17
541.2	23
541.3	28
541.4	28
541.5	23
541.6	16
541.8	13
541.9	19
542.0	25
542.1	24
542.2	18
542.4	11
542.5	16
542.6	22
542.7	24
542.8	22
543.1	15
543.2	21
543.3	28
543.4	28
543.5	22
543.8	14
543.9	22
544.0	28
544.1	26
544.2	19
544.4	17
544.5	22
544.6	25
544.7	23
544.9	16
545.0	19
545.1	25
545.2	30
545.3	31
545.4	25
545.6	15
545.7	20
545.8	27
545.9	30
546.0	25
546.3	16
546.4	23
546.5	27
546.6	24
546.7	18
546.9	16
547.0	20
547.1	23
547.2	20
547.3	14
547.5	11
547.6	17
547.7	24
547.8	26
547.9	24
548.0	20
548.2	16
548.3	19
548.4	21
548.5	21
548.8	16
548.9	21
549.0	26
549.1	27
549.2	22
549.4	12
549.5	16
549.6	24
549.7	30
549.8	28
549.9	21
550.7	11
550.8	15
550.9	23
551.0	27
551.1	24
551.2	16
551.4	11
551.5	19
551.6	24
551.7	23
551.8	15
552.0	11
552.1	20
552.2	26
552.3	24
552.4	17
552.6	11
552.7	17
552.8	24
552.9	28
553.0	27
553.1	22
553.3	17
553.4	21
553.5	27
553.6	28
553.7	23
554.0	15
554.1	22
554.2	26
554.3	24
554.6	20
554.7	24
554.8	27
554.9	25
555.0	21
555.2	17
555.3	22
555.4	24
555.5	21
555.6	15
555.8	12
555.9	18
556.0	24
556.1	26
556.2	22
556.5	14
556.6	22
556.7	31
556.8	34
556.9	28
557.0	16
557.2	9
557.3	18
557.4	24
557.5	23
557.8	14
557.9	23
558.0	31
558.1	30
558.2	23
559.1	14
559.2	22
559.3	28
559.4	26
559.5	18
559.7	11
559.8	19
559.9	28
560.0	30
560.1	24
560.3	14
560.4	19
560.5	26
560.6	28
560.7	23
561.0	14
561.1	23
561.2	29
561.3	28
561.4	21
561.6	14
561.7	19
561.8	24
561.9	27
562.0	24
562.1	18
562.3	13
562.4	17
562.5	21
562.6	20
562.9	13
563.0	20
563.1	25
563.2	26
563.3	21
563.5	15
563.6	20
563.7	27
563.8	28
563.9	23
564.0	15
564.2	15
564.3	21
564.4	25
564.5	24
564.6	21
564.8	15
564.9	18
565.0	22
565.1	24
565.2	22
565.3	17
565.5	14
565.6	18
565.7	21
565.8	21
566.1	16
566.2	22
566.3	27
566.4	26
566.5	20
566.6	13
566.8	11
566.9	17
567.0	21
567.1	19
567.2	14
567.4	13
567.5	18
567.6	21
567.7	19
567.9	11
568.0	15
568.1	24
568.2	31
568.3	32
568.4	26
568.6	18
568.7	23
568.8	29
568.9	29
569.0	22
569.1	14
569.3	12
569.4	19
569.5	25
569.6	27
569.7	23
570.0	15
570.1	22
570.2	27
570.3	26
570.4	18
570.6	12
570.7	17
570.8	22
570.9	24
571.0	21
571.3	17
571.4	21
571.5	23
571.6	22
571.9	17
572.0	21
572.1	24
572.2	21
572.5	11
572.6	21
572.7	31
572.8	32
572.9	25
573.0	16
573.2	13
573.3	20
573.4	26
573.5	26
573.8	18
573.9	26
574.0	31
574.1	28
574.2	19
574.4	11
574.5	15
574.6	22
574.7	26
574.8	23
574.9	17
575.1	14
575.2	22
575.3	29
575.4	31
575.5	25
576.4	18
576.5	24
576.6	29
576.7	29
576.8	21
577.0	12
577.1	19
577.2	28
577.3	32
577.4	26
577.5	18
577.7	15
577.8	21
577.9	25
578.0	24
578.1	18
578.3	14
578.4	20
578.5	26
578.6	26
578.7	19
578.9	10
579.0	16
579.1	25
579.2	27
579.3	23
579.4	15
579.6	12
579.7	17
579.8	22
579.9	22
580.1	18
580.2	20
580.3	24
580.4	25
580.5	23
580.6	17
580.8	14
580.9	20
581.0	26
581.1	26
581.2	20
581.5	12
581.6	19
581.7	25
581.8	26
581.9	23
582.7	11
582.8	14
582.9	21
583.0	27
583.1	25
583.2	18
583.4	12
583.5	20
583.6	28
583.7	29
583.8	23
584.0	14
584.1	19
584.2	24
584.3	25
584.4	19
584.6	9
584.7	15
584.8	23
584.9	28
585.0	26
585.1	19
585.3	13
585.4	18
585.5	22
585.6	23
585.7	18
585.9	13
586.0	17
586.1	23
586.2	24
586.3	21
586.6	15
586.7	22
586.8	28
586.9	27
587.0	20
587.2	11
587.3	17
587.4	25
587.5	28
587.6	24
588.5	17
588.6	21
588.7	24
588.8	23
588.9	18
589.1	14
589.2	18
589.3	22
589.4	23
589.5	19
589.7	10
589.8	14
589.9	23
590.0	29
590.1	29
590.2	22
591.0	11
591.1	16
591.2	24
591.3	29
591.4	27
591.5	20
591.7	15
591.8	19
591.9	23
592.0	24
592.1	22
592.3	19
592.4	22
592.5	26
592.6	28
592.7	24
592.8	16
593.0	11
593.1	18
593.2	24
593.3	24
593.4	18
593.6	14
593.7	19
593.8	25
593.9	25
594.0	19
594.8	10
594.9	13
595.0	20
595.1	26
595.2	26
595.3	19
595.5	10
595.6	16
595.7	24
595.8	27
595.9	23
596.2	15
596.3	23
596.4	29
596.5	26
596.6	19
596.8	13
596.9	18
597.0	22
597.1	22
597.4	18
597.5	23
597.6	28
597.7	27
597.8	22
597.9	14
598.1	12
598.2	19
598.3	25
598.4	26
598.5	21
598.7	14
598.8	19
598.9	25
599.0	29
599.1	27
599.2	22
599.4	19
599.5	24
599.6	29
