Mass spectrum: Salazinic acid; LC-ESI-QQQ; MS; [M+H]+
Name: Salazinic acid
Class: Carbohydrates
Formula: C18H12O10
Exact mass: 388.2903
SMILES: Cc1cc(O)c(C=O)c2c1C(=O)Oc1c(CO)c(O)c3c(c1O2)C(O)OC3=O
InChI: InChI=1S/C18H12O10/c1-5-2-8(21)6(3-19)13-9(5)16(23)27-14-7(4-20)12(22)10-11(15(14)26-13)18(25)28-17(10)24/h2-3,18,20-22,25H,4H2,1H3
Instrument: ABSciex API3200 LC/MS system
Instrument type: LC-ESI-QQQ
Ms type: MS
Ion mode: POSITIVE
Precursor type: [M+H]+
m/z	relative intensity
100.1000	90
100.2000	96
100.5000	240
100.7000	134
100.8000	376
100.9000	649
101.0000	555
101.1000	469
101.2000	241
102.1000	30
102.2000	72
102.3000	62
102.4000	62
102.5000	86
105.0000	32
110.6000	64
113.7000	53
115.2000	40
116.9000	22
117.5000	49
117.7000	42
117.8000	34
118.0000	35
118.1000	37
120.6000	47
123.2000	31
124.9000	23
137.3000	42
140.6000	29
140.7000	27
140.8000	28
141.0000	26
141.4000	293
141.5000	555
141.6000	641
141.7000	983
141.8000	956
141.9000	976
142.0000	932
142.1000	999
142.2000	931
142.3000	851
142.4000	596
142.5000	413
142.6000	136
142.7000	67
142.9000	33
143.0000	28
143.1000	36
143.2000	52
143.3000	32
144.1000	23
144.8000	25
145.3000	22
146.7000	21
148.7000	60
149.9000	38
152.4000	33
152.8000	25
156.7000	21
165.1000	32
166.5000	22
169.2000	21
175.0000	21
189.3000	21
190.0000	21
195.5000	22
197.5000	23
197.7000	72
197.8000	219
198.3000	21
206.7000	40
206.8000	61
209.9000	22
213.9000	21
214.6000	23
216.8000	56
217.4000	25
218.0000	22
220.6000	27
220.7000	78
222.1000	22
222.4000	26
222.7000	28
223.0000	41
224.2000	40
224.7000	27
225.7000	21
229.1000	23
232.8000	32
238.8000	30
239.0000	37
239.1000	34
240.1000	29
261.0000	36
261.6000	44
261.7000	24
279.1000	44
280.1000	25
280.2000	21
294.6000	39
295.1000	37
295.6000	33
296.5000	28
296.7000	29
296.9000	29
297.0000	40
297.1000	29
298.3000	21
298.4000	72
298.5000	35
298.6000	34
298.7000	22
298.8000	40
299.0000	22
299.3000	23
308.8000	25
310.4000	36
311.4000	21
312.2000	67
316.9000	23
317.1000	37
324.2000	22
324.3000	160
324.4000	258
324.5000	371
324.6000	522
324.7000	389
324.8000	419
324.9000	522
325.0000	502
325.1000	492
325.2000	359
325.3000	279
325.4000	113
325.5000	98
325.6000	69
325.7000	132
325.8000	71
325.9000	76
326.0000	71
326.1000	59
326.2000	64
326.3000	89
326.4000	45
326.5000	45
326.6000	65
326.8000	33
326.9000	74
327.0000	21
327.1000	47
327.3000	24
327.4000	27
335.4000	27
342.5000	52
342.6000	50
342.7000	72
342.8000	57
342.9000	62
343.0000	71
343.1000	37
343.2000	39
343.3000	38
344.8000	33
345.0000	27
345.2000	34
352.5000	22
352.6000	37
352.7000	29
352.8000	51
353.0000	44
353.3000	36
353.4000	26
370.2000	72
370.3000	242
370.4000	400
370.5000	798
370.6000	773
370.7000	546
370.8000	557
370.9000	640
371.0000	562
371.1000	608
371.2000	514
371.3000	291
371.4000	184
371.5000	141
371.6000	174
371.7000	124
371.8000	171
371.9000	100
372.0000	98
372.1000	129
372.2000	76
372.3000	73
372.4000	31
372.5000	42
372.9000	38
373.1000	22
384.7000	27
388.2000	56
388.3000	145
388.4000	366
388.5000	538
388.6000	559
388.7000	556
388.8000	628
388.9000	683
389.0000	545
389.1000	507
389.2000	439
389.3000	309
389.4000	146
389.5000	175
389.6000	170
389.7000	107
389.8000	109
389.9000	151
390.0000	99
390.1000	91
390.2000	107
390.3000	69
390.4000	46
391.0000	142
405.3000	83
405.4000	134
405.5000	208
405.6000	295
405.7000	378
405.8000	235
405.9000	298
406.0000	235
406.1000	297
406.2000	234
406.3000	206
406.4000	77
406.5000	79
406.6000	60
406.7000	98
406.8000	61
406.9000	95
407.0000	65
407.1000	52
407.2000	56
407.4000	27
412.1000	28
432.5000	36
432.7000	55
433.0000	71
433.7000	27
434.1000	29
434.7000	22
466.7000	23
467.2000	26
499.6000	34
499.9000	31
528.8000	30
714.3000	22
714.7000	30
714.9000	31
715.0000	30
740.2000	22
740.3000	50
740.4000	42
740.5000	95
740.6000	64
740.7000	71
740.8000	58
740.9000	60
741.0000	70
741.1000	69
741.3000	31
741.4000	35
741.5000	23
741.6000	35
741.7000	39
741.9000	26
758.2000	114
758.3000	164
758.4000	176
758.5000	163
758.6000	221
758.7000	217
758.8000	199
758.9000	193
759.0000	157
759.1000	151
759.2000	60
759.3000	96
759.4000	102
759.5000	81
759.6000	110
759.7000	102
759.8000	72
759.9000	90
760.0000	72
760.1000	61
760.3000	22
760.4000	30
760.5000	32
760.9000	22
761.0000	27
761.1000	23
776.0000	31
776.1000	107
776.2000	255
776.3000	341
776.4000	393
776.5000	411
776.6000	421
776.7000	546
776.8000	447
776.9000	479
777.0000	363
777.1000	309
777.2000	201
777.3000	204
777.4000	183
777.5000	256
777.6000	227
777.7000	218
777.8000	209
777.9000	164
778.0000	138
778.1000	90
778.2000	50
778.3000	51
778.4000	75
778.5000	42
778.6000	47
778.7000	37
778.8000	72
778.9000	51
779.0000	43
779.1000	43
779.2000	24
779.3000	22
779.6000	23
793.1000	41
793.2000	41
793.3000	72
793.4000	143
793.5000	158
793.6000	88
793.7000	86
793.8000	103
793.9000	155
794.0000	82
794.1000	106
794.2000	42
794.3000	52
794.4000	35
794.5000	62
794.6000	80
794.7000	68
794.8000	68
794.9000	53
795.0000	22
795.2000	32
795.3000	22
795.7000	23
795.8000	31
817.4000	23
1163.9000	50
1164.0000	95
1164.1000	92
1164.2000	68
1164.3000	123
1164.4000	87
1164.5000	87
1164.6000	92
1164.7000	115
1164.8000	79
1164.9000	96
1165.0000	72
1165.1000	72
1165.2000	95
1165.3000	64
1165.4000	39
1165.5000	56
1165.6000	31
1165.7000	56
1165.8000	76
1165.9000	79
1166.0000	42
1166.1000	39
1166.2000	35
1166.3000	23
1166.4000	30
1166.6000	34
1166.7000	51
1166.8000	42
1166.9000	26
1180.9000	24
1181.0000	31
1181.1000	34
1181.2000	68
1181.3000	53
1181.4000	31
1181.5000	57
1181.7000	69
1181.8000	54
1181.9000	58
1182.0000	42
1182.1000	37
1182.3000	30
1182.4000	42
1182.5000	30
1182.6000	32
1182.7000	27
1182.8000	32
1182.9000	23
1183.0000	26
1183.1000	31
