Mass spectrum: Selinidin; LC-ESI-QQQ; MS2; Frag=135.0V CID@15.0; [M+H]+
Name: Selinidin
Class: Benzopyranoids
Formula: C19H20O5
Exact mass: 328.3683
SMILES: C/C=C(\C)C(=O)OC1Cc2c(ccc3ccc(=O)oc23)OC1(C)C
InChI: InChI=1S/C19H20O5/c1-5-11(2)18(21)22-15-10-13-14(24-19(15,3)4)8-6-12-7-9-16(20)23-17(12)13/h5-9,15H,10H2,1-4H3/b11-5+
Instrument: Agilent 6410 Triple Quadrupole LC/MS system
Instrument type: LC-ESI-QQQ
Ms type: MS2
Ion mode: POSITIVE
Precursor type: [M+H]+
m/z	relative intensity
158.6	1
158.7	2
158.8	4
158.9	6
159.0	8
159.1	8
159.2	8
159.3	6
159.4	3
186.2	1
186.3	3
186.4	6
186.5	11
186.6	21
186.7	37
186.8	58
186.9	79
187.0	94
187.1	99
187.2	95
187.3	80
187.4	56
187.5	28
187.6	6
187.7	0
228.3	1
228.4	3
228.5	6
228.6	10
228.7	16
228.8	27
228.9	40
229.0	53
229.1	60
229.2	60
229.3	51
229.4	37
229.5	20
229.6	6
229.7	0
