Mass spectrum: 14-Benzoyltalatizamine; LC-ESI-QQQ; MS; [M+H]+
Name: 14-Benzoyltalatizamine
Class: Alkaloids
Formula: C31H43NO6
Exact mass: 525.6915
SMILES: CCN1C[C@]2(COC)CC[C@H](OC)[C@@]34C5C[C@@H]6[C@@H](OC)C[C@@](O)(C5[C@H]6OC(=O)c5ccccc5)[C@@H](CC23)C14
InChI: InChI=1S/C31H43NO6/c1-5-32-16-29(17-35-2)12-11-24(37-4)31-20-13-19-22(36-3)15-30(34,21(27(31)32)14-23(29)31)25(20)26(19)38-28(33)18-9-7-6-8-10-18/h6-10,19-27,34H,5,11-17H2,1-4H3/t19-,20?,21+,22+,23?,24+,25?,26+,27?,29+,30+,31-/m1/s1
Instrument: ABSciex API3200 LC/MS system
Instrument type: LC-ESI-QQQ
Ms type: MS
Ion mode: POSITIVE
Precursor type: [M+H]+
m/z	relative intensity
493.4000	24
493.5000	61
493.6000	111
493.7000	140
493.8000	170
493.9000	151
494.0000	154
494.1000	155
494.2000	150
494.3000	131
494.4000	114
494.5000	59
494.6000	43
494.7000	50
494.8000	57
494.9000	56
495.0000	54
495.1000	57
495.2000	54
495.3000	50
495.4000	47
495.5000	29
495.6000	39
495.7000	51
495.8000	57
495.9000	61
496.0000	54
496.1000	58
496.2000	59
496.3000	54
496.4000	47
496.5000	22
496.8000	23
525.3000	65
525.4000	315
525.5000	608
525.6000	877
525.7000	948
525.8000	980
525.9000	995
526.0000	995
526.1000	999
526.2000	973
526.3000	951
526.4000	883
526.5000	625
526.6000	569
526.7000	630
526.8000	636
526.9000	662
527.0000	633
527.1000	618
527.2000	632
527.3000	653
527.4000	537
527.5000	341
527.6000	248
527.7000	248
527.8000	246
527.9000	259
528.0000	245
528.1000	241
528.2000	237
528.3000	220
528.4000	192
528.5000	112
528.6000	65
528.7000	58
528.8000	54
528.9000	53
529.0000	45
529.1000	46
529.2000	45
529.3000	42
529.4000	41
