Mass spectrum: 7-Dehydroxy-4-demethylpodophyllotoxin; LC-ESI-QQQ; MS2; Frag=135.0V CID@5.0; [M+H]+
Name: 7-Dehydroxy-4-demethylpodophyllotoxin
Class: Polycyclic aromatic natural products
Formula: C21H20O7
Exact mass: 384.3894
SMILES: COc1cc([C@@H]2c3cc4c(cc3C[C@H]3COC(=O)[C@@H]32)OCO4)cc(OC)c1O
InChI: InChI=1S/C21H20O7/c1-24-16-5-11(6-17(25-2)20(16)22)18-13-7-15-14(27-9-28-15)4-10(13)3-12-8-26-21(23)19(12)18/h4-7,12,18-19,22H,3,8-9H2,1-2H3/t12-,18+,19-/m0/s1
Instrument: Agilent 6410 Triple Quadrupole LC/MS system
Instrument type: LC-ESI-QQQ
Ms type: MS2
Ion mode: POSITIVE
Precursor type: [M+H]+
m/z	relative intensity
366.6	1
366.7	3
366.8	5
366.9	7
367.0	7
367.1	6
367.2	3
384.3	1
384.4	4
384.5	9
384.6	20
384.7	42
384.8	70
384.9	92
385.0	99
385.1	96
385.2	89
385.3	76
385.4	54
385.5	27
385.6	6
385.7	0
