Mass spectrum: Hippeastrine; LC-ESI-QQQ; MS2; Frag=135.0V CID@25.0; [M+H]+
Name: Hippeastrine
Class: Alkaloids
Formula: C17H17NO5
Exact mass: 315.3287
SMILES: CN1CCC2=C[C@@H](O)[C@@H]3OC(=O)c4cc5c(cc4C3[C@H]21)OCO5
InChI: InChI=1S/C17H17NO5/c1-18-3-2-8-4-11(19)16-14(15(8)18)9-5-12-13(22-7-21-12)6-10(9)17(20)23-16/h4-6,11,14-16,19H,2-3,7H2,1H3/t11-,14?,15+,16+/m1/s1
Instrument: Agilent 6410 Triple Quadrupole LC/MS system
Instrument type: LC-ESI-QQQ
Ms type: MS2
Ion mode: POSITIVE
Precursor type: [M+H]+
m/z	relative intensity
71.6	1
71.7	2
71.8	4
71.9	6
72.0	6
72.1	6
72.2	5
72.3	4
72.4	2
81.6	1
81.7	3
81.8	5
81.9	7
82.0	8
82.1	8
82.2	6
82.3	5
82.7	2
82.8	4
82.9	7
83.0	10
83.1	11
83.2	10
83.3	6
83.4	3
93.4	1
93.5	2
93.6	5
93.7	9
93.8	12
93.9	15
94.0	17
94.1	19
94.2	20
94.3	16
94.4	10
94.5	3
95.5	3
95.6	5
95.7	8
95.8	12
95.9	15
96.0	18
96.1	20
96.2	21
96.3	18
96.4	12
96.5	5
96.6	1
125.6	1
125.7	3
125.8	5
125.9	8
126.0	10
126.1	11
126.2	11
126.3	11
126.4	8
126.5	4
126.6	1
152.5	1
152.6	3
152.7	5
152.8	8
152.9	11
153.0	13
153.1	13
153.2	11
153.3	8
153.4	5
153.5	2
164.7	1
164.8	3
164.9	5
165.0	6
165.1	6
165.2	5
165.3	3
172.8	2
172.9	3
173.0	4
173.1	5
173.2	4
173.3	2
174.5	2
174.6	3
174.7	6
174.8	11
174.9	18
175.0	22
175.1	23
175.2	21
175.3	15
175.4	8
175.5	3
176.6	1
176.7	3
176.8	6
176.9	9
177.0	10
177.1	10
177.2	8
177.3	5
177.4	2
178.6	2
178.7	3
178.8	4
178.9	5
179.0	5
179.1	5
179.2	4
179.3	3
180.3	1
180.4	2
180.5	5
180.6	10
180.7	19
180.8	31
180.9	44
181.0	54
181.1	56
181.2	53
181.3	44
181.4	31
181.5	16
181.6	4
186.6	1
186.7	3
186.8	4
186.9	6
187.0	7
187.1	7
187.2	7
187.3	5
187.4	3
190.3	0
190.4	2
190.5	6
190.6	13
190.7	24
190.8	38
190.9	50
191.0	57
191.1	58
191.2	55
191.3	46
191.4	30
191.5	13
191.6	1
193.8	2
193.9	4
194.0	6
194.1	7
194.2	7
194.3	7
194.4	5
194.5	3
196.7	4
196.8	6
196.9	8
197.0	10
197.1	10
197.2	9
197.3	6
197.4	3
208.6	3
208.7	4
208.8	6
208.9	10
209.0	14
209.1	16
209.2	16
209.3	14
209.4	9
209.5	4
210.5	1
210.6	2
210.7	5
210.8	7
210.9	9
211.0	9
211.1	8
211.2	8
211.3	6
211.4	4
211.5	1
212.7	2
212.8	4
212.9	6
213.0	6
213.1	6
213.2	5
213.3	4
213.4	3
216.6	1
216.7	2
216.8	4
216.9	6
217.0	7
217.1	7
217.2	6
217.3	4
217.4	2
221.5	3
221.6	4
221.7	7
221.8	10
221.9	13
222.0	15
222.1	15
222.2	14
222.3	11
222.4	7
222.5	3
224.5	2
224.6	3
224.7	5
224.8	6
224.9	6
225.0	7
225.1	8
225.2	9
225.3	7
225.4	4
226.5	2
226.6	3
226.7	6
226.8	10
226.9	15
227.0	19
227.1	19
227.2	17
227.3	13
227.4	9
227.5	5
236.8	1
236.9	3
237.0	4
237.1	4
237.2	4
237.3	3
238.2	1
238.3	2
238.4	5
238.5	8
238.6	13
238.7	20
238.8	28
238.9	37
239.0	45
239.1	49
239.2	48
239.3	40
239.4	28
239.5	13
239.6	3
240.7	2
240.8	5
240.9	7
241.0	8
241.1	9
241.2	9
241.3	8
241.4	6
241.5	2
248.8	1
248.9	2
249.0	4
249.1	4
249.2	4
249.3	3
249.7	1
249.8	3
249.9	5
250.0	7
250.1	9
250.2	9
250.3	8
250.4	6
250.7	4
250.8	6
250.9	9
251.0	11
251.1	13
251.2	14
251.3	12
251.4	8
251.5	3
251.7	1
251.8	4
251.9	7
252.0	9
252.1	9
252.2	9
252.3	8
252.4	6
252.5	3
254.6	3
254.7	4
254.8	7
254.9	11
255.0	14
255.1	15
255.2	13
255.3	9
255.4	4
261.2	1
261.3	2
261.4	4
261.5	5
261.6	7
261.7	11
261.8	17
261.9	23
262.0	26
262.1	26
262.2	25
262.3	22
262.4	16
262.5	7
262.6	0
263.7	0
263.8	2
263.9	4
264.0	5
264.1	5
264.2	5
264.3	3
264.4	2
264.5	2
264.6	2
264.7	3
264.8	4
264.9	6
265.0	8
265.1	10
265.2	10
265.3	9
265.4	6
265.5	3
266.6	3
266.7	5
266.8	7
266.9	8
267.0	8
267.1	9
267.2	9
267.3	7
267.4	4
269.7	1
269.8	3
269.9	5
270.0	9
270.1	12
270.2	11
270.3	8
270.4	3
272.5	1
272.6	3
272.7	6
272.8	9
272.9	12
273.0	15
273.1	15
273.2	13
273.3	10
273.4	6
273.5	3
279.4	1
279.5	3
279.6	5
279.7	8
279.8	10
279.9	12
280.0	14
280.1	15
280.2	15
280.3	13
280.4	8
280.5	3
297.4	1
297.5	2
297.6	4
297.7	6
297.8	9
297.9	14
298.0	19
298.1	22
298.2	22
298.3	19
298.4	12
298.5	5
298.6	0
315.3	1
315.4	3
315.5	6
315.6	13
315.7	25
315.8	43
315.9	66
316.0	85
316.1	97
316.2	99
316.3	93
316.4	75
316.5	45
316.6	15
316.7	0
