Mass spectrum: Dubinine; LC-ESI-QQQ; MS2; Frag=135.0V CID@5.0; [M+H]+
Name: Dubinine
Class: Alkaloids
Formula: C17H19NO5
Exact mass: 317.3447
SMILES: COc1c2c(nc3ccccc13)OC([C@@](C)(O)COC(C)=O)C2
InChI: InChI=1S/C17H19NO5/c1-10(19)22-9-17(2,20)14-8-12-15(21-3)11-6-4-5-7-13(11)18-16(12)23-14/h4-7,14,20H,8-9H2,1-3H3/t14?,17-/m0/s1
Instrument: Agilent 6410 Triple Quadrupole LC/MS system
Instrument type: LC-ESI-QQQ
Ms type: MS2
Ion mode: POSITIVE
Precursor type: [M+H]+
m/z	relative intensity
257.6	1
257.7	2
257.8	4
257.9	6
258.0	8
258.1	9
258.2	9
258.3	9
258.4	7
258.5	4
258.6	1
317.4	1
317.5	4
317.6	8
317.7	17
317.8	32
317.9	53
318.0	75
318.1	92
318.2	99
318.3	94
318.4	75
318.5	47
318.6	18
318.7	1
