Mass spectrum: Cinchonidine; LC-ESI-QQQ; MS2; Frag=135.0V CID@5.0; [M+H]+
Name: Cinchonidine
Class: Alkaloids
Formula: C19H22N2O
Exact mass: 294.4
SMILES: C=C[C@H]1CN2CC[C@H]1C[C@H]2[C@@H](C3=CC=NC4=CC=CC=C34)O
InChI: InChI=1S/C19H22N2O/c1-2-13-12-21-10-8-14(13)11-18(21)19(22)16-7-9-20-17-6-4-3-5-15(16)17/h2-7,9,13-14,18-19,22H,1,8,10-12H2/t13-,14-,18-,19+/m0/s1
Instrument: Agilent 6410 Triple Quadrupole LC/MS system
Instrument type: LC-ESI-QQQ
Ms type: MS2
Ion mode: POSITIVE
Precursor type: [M+H]+
m/z	relative intensity
294.3	0
294.4	1
294.5	5
294.6	11
294.7	19
294.8	33
294.9	51
295.0	72
295.1	90
295.2	99
295.3	98
295.4	86
295.5	61
295.6	31
295.7	7
295.8	0
