Mass spectrum: Nudicauline; LC-ESI-QQQ; MS2; Frag=135.0V CID@25.0; [M+H]+
Name: Nudicauline
Class: Alkaloids
Formula: C38H50N2O11
Exact mass: 710.829
SMILES: CCN1C[C@]2(COC(=O)c3ccccc3N3C(=O)CC(C)C3=O)CCC(OC)C34C5C[C@@H]6[C@@H](OC)C[C@@](O)(C5[C@H]6OC(C)=O)[C@](O)(C13)[C@@H](OC)C42
InChI: InChI=1S/C38H50N2O11/c1-7-39-17-35(18-50-33(44)21-10-8-9-11-24(21)40-27(42)14-19(2)32(40)43)13-12-26(48-5)37-23-15-22-25(47-4)16-36(45,28(23)29(22)51-20(3)41)38(46,34(37)39)31(49-6)30(35)37/h8-11,19,22-23,25-26,28-31,34,45-46H,7,12-18H2,1-6H3/t19?,22-,23?,25+,26?,28?,29+,30?,31+,34?,35+,36-,37?,38-/m1/s1
Instrument: Agilent 6410 Triple Quadrupole LC/MS system
Instrument type: LC-ESI-QQQ
Ms type: MS2
Ion mode: POSITIVE
Precursor type: [M+H]+
m/z	relative intensity
710.2	1
710.3	3
710.4	5
710.5	9
710.6	15
710.7	24
710.8	39
710.9	58
711.0	77
711.1	92
711.2	99
711.3	97
711.4	85
711.5	66
711.6	41
711.7	19
711.8	4
