Mass spectrum: Boldenone; LC-ESI-QQQ; MS2; Frag=135.0V CID@10.0; [M+H]+
Name: Boldenone
Class: Steroids
Formula: C19H26O2
Exact mass: 286.4179
SMILES: C[C@]12C=CC(=O)C=C1CCC1C2CC[C@]2(C)C(O)CCC12
InChI: InChI=1S/C19H26O2/c1-18-9-7-13(20)11-12(18)3-4-14-15-5-6-17(21)19(15,2)10-8-16(14)18/h7,9,11,14-17,21H,3-6,8,10H2,1-2H3/t14?,15?,16?,17?,18-,19-/m0/s1
Instrument: Agilent 6410 Triple Quadrupole LC/MS system
Instrument type: LC-ESI-QQQ
Ms type: MS2
Ion mode: POSITIVE
Precursor type: [M+H]+
m/z	relative intensity
120.3	1
120.4	4
120.5	9
120.6	17
120.7	30
120.8	50
120.9	72
121.0	88
121.1	95
121.2	92
121.3	82
121.4	64
121.5	39
121.6	15
121.7	0
132.7	2
132.8	4
132.9	5
133.0	7
133.1	7
133.2	7
133.3	6
133.4	5
133.5	3
134.3	0
134.4	2
134.5	6
134.6	13
134.7	24
134.8	41
134.9	64
135.0	86
135.1	99
135.2	99
135.3	90
135.4	72
135.5	46
135.6	20
135.7	2
146.4	0
146.5	2
146.6	4
146.7	7
146.8	11
146.9	16
147.0	21
147.1	24
147.2	24
147.3	22
147.4	16
147.5	9
147.6	3
148.5	1
148.6	3
148.7	4
148.8	7
148.9	10
149.0	14
149.1	17
149.2	19
149.3	18
149.4	15
149.5	9
149.6	3
158.7	2
158.8	4
158.9	6
159.0	7
159.1	8
159.2	7
159.3	6
159.4	5
159.5	2
160.5	0
160.6	2
160.7	4
160.8	7
160.9	10
161.0	14
161.1	16
161.2	16
161.3	15
161.4	12
161.5	8
161.6	3
172.4	1
172.5	2
172.6	5
172.7	10
172.8	18
172.9	28
173.0	38
173.1	42
173.2	42
173.3	37
173.4	29
173.5	19
173.6	7
173.7	0
178.6	1
178.7	3
178.8	5
178.9	10
179.0	15
179.1	19
179.2	20
179.3	19
179.4	16
179.5	10
179.6	4
186.6	1
186.7	3
186.8	5
186.9	8
187.0	11
187.1	12
187.2	12
187.3	11
187.4	8
187.5	5
187.6	1
268.5	0
268.6	2
268.7	4
268.8	8
268.9	13
269.0	19
269.1	24
269.2	27
269.3	28
269.4	25
269.5	18
269.6	9
269.7	2
286.4	0
286.5	1
286.6	4
286.7	9
286.8	15
286.9	25
287.0	36
287.1	45
287.2	50
287.3	50
287.4	45
287.5	34
287.6	19
287.7	5
287.8	0
