Mass spectrum: Folic acid; LC-ESI-QQQ; MS; [M+H]+
Name: Folic acid
Name: (2S)-2-[[4-[(2-amino-4-oxo-1H-pteridin-6-yl)methylamino]benzoyl]amino]pentanedioic acid
Name: Vitamin B11
Name: Vitamin B9
Name: Vitamin M
Class: Alkaloids
Formula: C19H19N7O6
Exact mass: 441.139681
SMILES: C1=CC(=CC=C1C(=O)N[C@@H](CCC(=O)O)C(=O)O)NCC2=CN=C3C(=N2)C(=O)NC(=N3)N
InChI: InChI=1S/C19H19N7O6/c20-19-25-15-14(17(30)26-19)23-11(8-22-15)7-21-10-3-1-9(2-4-10)16(29)24-12(18(31)32)5-6-13(27)28/h1-4,8,12,21H,5-7H2,(H,24,29)(H,27,28)(H,31,32)(H3,20,22,25,26,30)/t12-/m0/s1
Instrument: ABSciex API3200 LC/MS system
Instrument type: LC-ESI-QQQ
Ms type: MS
Ion mode: POSITIVE
Precursor type: [M+H]+
m/z	relative intensity
101.7000	40
111.4000	61
112.3000	26
119.4000	31
119.5000	46
119.6000	105
119.7000	76
119.8000	80
119.9000	68
120.0000	123
120.1000	78
120.2000	70
120.3000	80
120.4000	90
120.5000	24
129.4000	34
129.5000	50
129.6000	72
129.7000	82
129.8000	81
129.9000	106
130.0000	75
130.1000	81
130.2000	68
130.3000	72
130.4000	67
134.3000	25
147.3000	24
147.4000	70
147.5000	89
147.6000	132
147.7000	64
147.8000	112
147.9000	119
148.0000	96
148.1000	114
148.2000	119
148.3000	65
148.4000	50
148.6000	33
154.9000	27
168.2000	26
168.3000	61
168.7000	24
175.9000	32
176.2000	30
176.3000	49
191.5000	41
191.6000	52
191.7000	38
191.8000	52
191.9000	33
192.0000	33
192.1000	72
192.2000	23
192.3000	56
192.5000	22
195.3000	26
207.0000	24
209.4000	35
215.2000	22
220.9000	21
221.0000	80
221.1000	34
221.2000	49
221.4000	68
221.5000	32
221.6000	30
221.7000	61
221.9000	21
238.5000	36
239.1000	27
239.3000	27
239.6000	26
241.8000	32
241.9000	33
242.0000	28
242.1000	52
242.2000	29
242.4000	22
266.6000	38
266.8000	38
267.0000	23
267.2000	52
294.3000	159
294.4000	453
294.5000	774
294.6000	835
294.7000	999
294.8000	957
294.9000	972
295.0000	934
295.1000	926
295.2000	860
295.3000	636
295.4000	454
295.5000	237
295.6000	421
295.7000	218
295.8000	132
295.9000	151
296.0000	137
296.1000	206
296.2000	86
296.3000	121
296.4000	75
296.5000	40
296.6000	22
296.7000	30
297.0000	30
297.6000	22
310.4000	79
312.8000	59
312.9000	35
313.0000	25
313.2000	25
371.8000	28
391.2000	81
391.3000	64
441.3000	135
441.4000	296
441.5000	552
441.6000	770
441.7000	701
441.8000	754
441.9000	670
442.0000	813
442.1000	782
442.2000	712
442.3000	620
442.4000	377
442.5000	314
442.6000	240
442.7000	204
442.8000	207
442.9000	155
443.0000	175
443.1000	197
443.2000	145
443.3000	174
443.4000	115
443.5000	72
443.6000	58
443.7000	26
443.8000	30
444.0000	39
444.1000	36
444.3000	23
482.8000	30
483.2000	23
882.3000	27
882.4000	40
882.5000	55
882.6000	55
882.7000	41
882.8000	76
882.9000	62
883.0000	102
883.1000	77
883.2000	48
883.3000	41
883.4000	38
883.5000	45
883.6000	23
883.7000	30
883.8000	38
883.9000	41
884.0000	55
884.1000	30
884.2000	30
