Mass spectrum: O-(3-Hydroxy-7-drimen-11-yl)umbelliferone; LC-ESI-QQQ; MS2; Frag=135.0V CID@10.0; [M+H]+
Name: O-(3-Hydroxy-7-drimen-11-yl)umbelliferone
Class: Benzopyranoids
Formula: C24H30O4
Exact mass: 382.5043
SMILES: CC1=CC[C@H]2C(C)(C)[C@H](O)CC[C@]2(C)[C@@H]1COc1ccc2ccc(=O)oc2c1
InChI: InChI=1S/C24H30O4/c1-15-5-9-20-23(2,3)21(25)11-12-24(20,4)18(15)14-27-17-8-6-16-7-10-22(26)28-19(16)13-17/h5-8,10,13,18,20-21,25H,9,11-12,14H2,1-4H3/t18-,20+,21-,24-/m1/s1
Instrument: Agilent 6410 Triple Quadrupole LC/MS system
Instrument type: LC-ESI-QQQ
Ms type: MS2
Ion mode: POSITIVE
Precursor type: [M+H]+
m/z	relative intensity
94.6	1
94.7	3
94.8	5
94.9	7
95.0	8
95.1	8
95.2	7
95.3	5
95.4	3
108.8	2
108.9	4
109.0	5
109.1	6
109.2	5
109.3	3
118.5	1
118.6	3
118.7	5
118.8	7
118.9	8
119.0	8
119.1	8
119.2	9
119.3	8
119.4	5
119.5	2
132.5	1
132.6	2
132.7	4
132.8	7
132.9	9
133.0	10
133.1	10
133.2	9
133.3	8
133.4	6
133.5	3
146.5	1
146.6	4
146.7	9
146.8	14
146.9	18
147.0	21
147.1	22
147.2	22
147.3	19
147.4	14
147.5	7
147.6	2
160.6	1
160.7	2
160.8	5
160.9	7
161.0	10
161.1	11
161.2	11
161.3	11
161.4	9
161.5	6
161.6	2
162.2	1
162.3	3
162.4	6
162.5	9
162.6	15
162.7	29
162.8	51
162.9	75
163.0	92
163.1	97
163.2	91
163.3	74
163.4	50
163.5	25
163.6	6
163.7	0
174.7	1
174.8	3
174.9	5
175.0	7
175.1	8
175.2	8
175.3	7
175.4	4
175.5	2
202.3	1
202.4	3
202.5	7
202.6	10
202.7	17
202.8	31
202.9	52
203.0	75
203.1	92
203.2	99
203.3	95
203.4	83
203.5	61
203.6	34
203.7	10
203.8	0
364.9	4
365.0	5
365.1	7
365.2	8
365.3	7
365.4	5
365.5	2
382.3	1
382.4	3
382.5	5
382.6	7
382.7	11
382.8	21
382.9	40
383.0	64
383.1	86
383.2	99
383.3	99
383.4	86
383.5	61
383.6	31
383.7	8
383.8	0
