Mass spectrum: Vincanidine; LC-ESI-QQQ; MS2; Frag=135.0V CID@10.0; [M+H]+
Name: (11S,17S)-12-ethylidene-6-hydroxy-8,14-diazapentacyclo(9.5.2.0(1,9).0(2,7).0(14,17))octadeca-2(7),3,5,9-tetraene-10-carbaldehyde
Name: Vincanidine
Class: Alkaloids
Formula: C19H20N2O2
Exact mass: 308.3835
SMILES: C/C=C1/CN2CC[C@]34C(=C(C=O)[C@H]1C[C@H]23)Nc1c(O)cccc14
InChI: InChI=1S/C19H20N2O2/c1-2-11-9-21-7-6-19-14-4-3-5-15(23)17(14)20-18(19)13(10-22)12(11)8-16(19)21/h2-5,10,12,16,20,23H,6-9H2,1H3/b11-2-/t12-,16-,19+/m0/s1
Instrument: Agilent 6410 Triple Quadrupole LC/MS system
Instrument type: LC-ESI-QQQ
Ms type: MS2
Ion mode: POSITIVE
Precursor type: [M+H]+
m/z	relative intensity
308.3	0
308.4	2
308.5	5
308.6	11
308.7	20
308.8	35
308.9	54
309.0	76
309.1	92
309.2	99
309.3	96
309.4	81
309.5	55
309.6	26
309.7	4
309.8	0
