Mass spectrum: Tazettine; LC-ESI-QQQ; MS2; Frag=135.0V CID@15.0; [M+H]+
Name: Tazettine
Class: Alkaloids
Formula: C18H21NO5
Exact mass: 331.3718
SMILES: CO[C@@H]1C=C[C@@]23c4cc5c(cc4CO[C@]2(O)CN(C)[C@@H]3C1)OCO5
InChI: InChI=1S/C18H21NO5/c1-19-9-18(20)17(4-3-12(21-2)6-16(17)19)13-7-15-14(22-10-23-15)5-11(13)8-24-18/h3-5,7,12,16,20H,6,8-10H2,1-2H3/t12-,16-,17+,18-/m1/s1
Instrument: Agilent 6410 Triple Quadrupole LC/MS system
Instrument type: LC-ESI-QQQ
Ms type: MS2
Ion mode: POSITIVE
Precursor type: [M+H]+
m/z	relative intensity
180.6	1
180.7	3
180.8	5
180.9	7
181.0	8
181.1	9
181.2	9
181.3	8
181.4	6
181.5	3
313.3	1
313.4	2
313.5	5
313.6	9
313.7	17
313.8	31
313.9	52
314.0	75
314.1	92
314.2	99
314.3	93
314.4	74
314.5	46
314.6	18
314.7	1
