Mass spectrum: Podophyllotoxin; LC-ESI-QQQ; MS2; Frag=135.0V CID@10.0; [M+HCOO]-
Name: Podophyllotoxin
Class: Polycyclic aromatic natural products
Formula: C22H22O8
Exact mass: 414.4158
SMILES: COc1cc([C@@H]2c3cc4c(cc3[C@H](O)C3COC(=O)[C@@H]32)OCO4)cc(OC)c1OC
InChI: InChI=1S/C22H22O8/c1-25-16-4-10(5-17(26-2)21(16)27-3)18-11-6-14-15(30-9-29-14)7-12(11)20(23)13-8-28-22(24)19(13)18/h4-7,13,18-20,23H,8-9H2,1-3H3/t13?,18-,19+,20+/m1/s1
Instrument: Agilent 6410 Triple Quadrupole LC/MS system
Instrument type: LC-ESI-QQQ
Ms type: MS2
Ion mode: NEGATIVE
Precursor type: [M+HCOO]-
m/z	relative intensity
50.4	7
50.5	11
50.6	17
50.7	19
50.8	15
50.9	9
51.1	7
51.2	13
51.3	19
51.4	20
51.5	16
51.7	9
51.8	13
51.9	19
52.0	22
52.1	19
52.2	12
52.4	8
52.5	14
52.6	19
52.7	17
52.8	10
53.0	3
53.1	10
53.2	17
53.3	19
53.4	14
54.3	9
54.4	15
54.5	20
54.6	18
54.7	12
54.9	9
55.0	16
55.1	22
55.2	21
55.3	13
55.5	2
55.6	7
55.7	14
55.8	19
55.9	18
56.0	13
56.2	10
56.3	15
56.4	20
56.5	19
56.6	12
56.8	5
56.9	11
57.0	19
57.1	23
57.2	19
57.4	7
57.5	12
57.6	22
57.7	26
57.8	21
57.9	11
58.1	3
58.2	11
58.3	19
58.4	22
58.5	18
58.6	10
58.8	8
58.9	15
59.0	22
59.1	24
59.2	20
59.3	12
59.5	10
59.6	15
59.7	18
59.8	14
60.0	6
60.1	10
60.2	18
60.3	23
60.4	22
60.5	14
60.7	8
60.8	15
60.9	21
61.0	20
61.1	13
61.3	6
61.4	13
61.5	21
61.6	23
61.7	19
62.0	13
62.1	18
62.2	22
62.3	20
62.4	13
62.6	5
62.7	10
62.8	18
62.9	21
63.0	18
63.1	11
63.3	9
63.4	15
63.5	18
63.6	16
63.7	8
63.9	5
64.0	13
64.1	20
64.2	22
64.3	17
65.1	7
65.2	10
65.3	16
65.4	21
65.5	22
65.6	18
66.5	11
66.6	16
66.7	19
66.8	18
66.9	14
67.1	9
67.2	14
67.3	20
67.4	22
67.5	18
67.7	9
67.8	13
67.9	22
68.0	25
68.1	18
68.4	9
68.5	17
68.6	22
68.7	21
68.8	14
69.0	8
69.1	14
69.2	20
69.3	21
69.4	15
69.7	7
69.8	15
69.9	22
70.0	20
70.1	12
70.3	5
70.4	11
70.5	17
70.6	16
70.7	10
70.9	7
71.0	13
71.1	20
71.2	22
71.3	19
71.4	13
71.6	8
71.7	13
71.8	17
71.9	17
72.2	13
72.3	18
72.4	23
72.5	23
72.6	18
72.8	8
72.9	12
73.0	20
73.1	24
73.2	20
73.3	10
73.5	7
73.6	15
73.7	19
73.8	18
73.9	11
74.1	3
74.2	8
74.3	16
74.4	22
74.5	22
74.6	16
74.8	10
74.9	15
75.0	19
75.1	16
75.3	7
75.4	10
75.5	18
75.6	25
75.7	24
75.8	17
76.0	6
76.1	12
76.2	21
76.3	24
76.4	20
76.7	13
76.8	20
76.9	24
77.0	22
77.1	15
77.3	10
77.4	15
77.5	21
77.6	22
77.7	18
78.0	11
78.1	18
78.2	22
78.3	20
78.4	13
78.6	9
78.7	15
78.8	21
78.9	22
79.0	15
79.2	4
79.3	9
79.4	18
79.5	23
79.6	19
79.7	10
79.9	3
80.0	11
80.1	21
80.2	25
80.3	20
80.4	11
80.6	8
80.7	14
80.8	19
80.9	18
81.2	12
81.3	17
81.4	20
81.5	17
81.8	11
81.9	17
82.0	24
82.1	25
82.2	18
82.4	7
82.5	13
82.6	22
82.7	26
82.8	22
82.9	13
83.1	11
83.2	18
83.3	22
83.4	19
83.5	13
83.7	8
83.8	12
83.9	16
84.0	18
84.1	15
84.4	9
84.5	16
84.6	22
84.7	20
84.8	13
85.0	7
85.1	14
85.2	20
85.3	22
85.4	17
86.2	6
86.3	11
86.4	21
86.5	27
86.6	25
86.7	15
86.9	4
87.0	9
87.1	17
87.2	20
87.3	16
87.5	7
87.6	12
87.7	20
87.8	24
87.9	20
88.0	12
88.2	6
88.3	13
88.4	19
88.5	21
88.6	16
88.8	5
88.9	10
89.0	18
89.1	24
89.2	21
89.3	12
89.5	7
89.6	15
89.7	21
89.8	21
89.9	14
90.1	5
90.2	11
90.3	20
90.4	25
90.5	21
90.6	14
90.8	12
90.9	18
91.0	22
91.1	21
91.2	16
92.0	7
92.1	12
92.2	20
92.3	24
92.4	20
92.5	13
92.7	10
92.8	15
92.9	20
93.0	18
93.1	12
93.3	9
93.4	15
93.5	20
93.6	20
93.7	14
93.8	6
94.0	4
94.1	12
94.2	19
94.3	19
94.4	12
94.6	5
94.7	12
94.8	20
94.9	23
95.0	17
95.2	10
95.3	15
95.4	22
95.5	24
95.6	18
95.7	9
95.9	4
96.0	11
96.1	18
96.2	20
96.3	16
96.4	10
96.6	7
96.7	13
96.8	19
96.9	18
97.2	10
97.3	19
97.4	24
97.5	21
97.6	11
97.8	4
97.9	13
98.0	21
98.1	22
98.2	15
98.4	5
98.5	13
98.6	22
98.7	26
98.8	21
98.9	13
99.1	9
99.2	16
99.3	21
99.4	20
99.5	12
99.7	7
99.8	15
99.9	25
100.0	27
100.1	22
100.2	12
100.4	8
100.5	14
100.6	18
100.7	16
101.0	10
101.1	18
101.2	24
101.3	22
101.4	14
101.6	7
101.7	13
101.8	20
101.9	24
102.0	21
102.1	13
102.3	4
102.4	10
102.5	17
102.6	19
102.7	14
102.9	4
103.0	8
103.1	17
103.2	21
103.3	19
104.2	9
104.3	18
104.4	26
104.5	25
104.6	16
104.8	6
104.9	11
105.0	17
105.1	20
105.2	18
105.3	11
105.5	9
105.6	17
105.7	24
105.8	23
105.9	14
106.1	6
106.2	13
106.3	21
106.4	23
106.5	16
106.6	7
106.8	6
106.9	15
107.0	23
107.1	24
107.2	17
107.4	9
107.5	15
107.6	23
107.7	24
107.8	18
108.1	9
108.2	16
108.3	20
108.4	16
108.7	9
108.8	17
108.9	22
109.0	18
109.1	10
109.3	6
109.4	13
109.5	19
109.6	20
109.7	15
109.9	9
110.0	14
110.1	20
110.2	23
110.3	17
110.4	8
110.6	2
110.7	11
110.8	19
110.9	20
111.0	14
111.2	7
111.3	12
111.4	19
111.5	22
111.6	16
111.9	5
112.0	17
112.1	27
112.2	25
112.3	16
112.5	5
112.6	10
112.7	17
112.8	22
112.9	20
113.0	15
113.2	12
113.3	17
113.4	22
113.5	22
113.6	17
113.8	11
113.9	15
114.0	20
114.1	22
114.2	20
114.5	14
114.6	19
114.7	22
114.8	19
114.9	10
115.1	5
115.2	13
115.3	21
115.4	23
115.5	17
116.4	6
116.5	12
116.6	17
116.7	16
116.8	10
117.0	4
117.1	10
117.2	18
117.3	21
117.4	18
117.5	12
117.7	11
117.8	16
117.9	19
118.0	18
118.1	13
118.3	9
118.4	15
118.5	22
118.6	24
118.7	19
119.5	9
119.6	14
119.7	21
119.8	25
119.9	22
120.0	14
120.2	7
120.3	14
120.4	20
120.5	21
120.6	16
120.9	8
121.0	17
121.1	23
121.2	22
121.3	14
121.5	11
121.6	18
121.7	23
121.8	19
121.9	11
122.1	4
122.2	11
122.3	19
122.4	21
122.5	17
122.8	10
122.9	18
123.0	23
123.1	22
123.2	15
123.4	6
123.5	13
123.6	22
123.7	25
123.8	19
124.1	8
124.2	17
124.3	22
124.4	19
124.5	12
124.7	8
124.8	14
124.9	19
125.0	19
125.1	14
125.4	7
125.5	14
125.6	19
125.7	17
125.8	11
126.0	9
126.1	15
126.2	21
126.3	21
126.4	14
127.2	3
127.3	11
127.4	21
127.5	25
127.6	21
127.7	11
127.9	5
128.0	11
128.1	18
128.2	20
128.3	16
128.5	11
128.6	17
128.7	22
128.8	23
128.9	18
129.1	8
129.2	13
129.3	21
129.4	24
129.5	20
129.6	11
129.8	8
129.9	15
130.0	22
130.1	22
130.2	16
130.5	9
130.6	17
130.7	22
130.8	20
130.9	14
131.1	9
131.2	15
131.3	20
131.4	20
131.5	13
131.7	5
131.8	11
131.9	20
132.0	23
132.1	18
132.2	10
132.4	7
132.5	15
132.6	21
132.7	20
132.8	13
133.0	8
133.1	16
133.2	23
133.3	23
133.4	16
133.6	7
133.7	13
133.8	20
133.9	22
134.0	17
134.2	9
134.3	13
134.4	20
134.5	24
134.6	22
134.7	14
134.9	5
135.0	11
135.1	18
135.2	22
135.3	19
135.4	12
135.6	8
135.7	13
135.8	18
135.9	18
136.0	13
136.2	9
136.3	16
136.4	23
136.5	25
136.6	21
136.7	13
136.9	12
137.0	18
137.1	22
137.2	20
137.3	14
137.5	8
137.6	13
137.7	18
137.8	19
137.9	15
138.2	10
138.3	15
138.4	18
138.5	16
138.7	9
138.8	14
138.9	23
139.0	28
139.1	24
139.2	13
139.4	4
139.5	13
139.6	22
139.7	25
139.8	20
140.7	2
140.8	12
140.9	23
141.0	27
141.1	22
141.2	14
141.9	4
142.0	12
142.1	22
142.2	28
142.3	25
142.4	15
142.6	9
142.7	16
142.8	23
142.9	22
143.0	14
143.2	5
143.3	13
143.4	21
143.5	23
143.6	18
143.7	9
143.9	6
144.0	14
144.1	21
144.2	21
144.3	16
144.5	10
144.6	15
144.7	22
144.8	23
144.9	17
145.1	7
145.2	12
145.3	22
145.4	28
145.5	27
145.6	18
145.8	8
145.9	14
146.0	22
146.1	24
146.2	18
146.4	6
146.5	11
146.6	20
146.7	25
146.8	21
146.9	13
147.1	7
147.2	15
147.3	22
147.4	22
147.5	15
147.8	7
147.9	16
148.0	21
148.1	20
148.2	12
148.4	8
148.5	16
148.6	23
148.7	22
148.8	14
149.0	4
149.1	11
149.2	19
149.3	21
149.4	16
149.6	8
149.7	15
149.8	24
149.9	27
150.0	22
150.1	12
150.3	8
150.4	17
150.5	26
150.6	24
150.7	15
150.9	5
151.0	12
151.1	20
151.2	21
151.3	15
151.5	5
151.6	10
151.7	18
151.8	22
151.9	18
152.0	9
152.2	5
152.3	13
152.4	20
152.5	21
152.6	16
152.8	7
152.9	11
153.0	18
153.1	19
153.2	15
153.4	5
153.5	9
153.6	18
153.7	23
153.8	21
153.9	14
154.1	8
154.2	15
154.3	23
154.4	24
154.5	19
154.8	10
154.9	18
155.0	23
155.1	21
155.2	14
155.4	7
155.5	14
155.6	20
155.7	19
155.8	11
156.0	3
156.1	10
156.2	18
156.3	21
156.4	17
156.7	11
156.8	17
156.9	22
157.0	21
157.1	14
157.3	8
157.4	14
157.5	21
157.6	22
157.7	15
157.8	6
158.0	4
158.1	14
158.2	22
158.3	22
158.4	15
158.6	8
158.7	14
158.8	19
158.9	19
159.0	14
159.2	7
159.3	11
159.4	18
159.5	22
159.6	20
159.7	15
159.9	9
160.0	12
160.1	16
160.2	17
160.5	13
160.6	18
160.7	21
160.8	19
160.9	13
161.1	5
161.2	10
161.3	18
161.4	22
161.5	19
161.6	11
161.8	8
161.9	14
162.0	19
162.1	19
162.2	13
162.4	3
162.5	11
162.6	21
162.7	26
162.8	21
162.9	11
163.1	2
163.2	9
163.3	17
163.4	20
163.5	13
163.7	5
163.8	12
163.9	20
164.0	21
164.1	16
165.0	5
165.1	14
165.2	22
165.3	24
165.4	19
166.3	4
166.4	11
166.5	18
166.6	20
166.7	16
166.9	6
167.0	10
167.1	18
167.2	21
167.3	17
167.6	9
167.7	17
167.8	22
167.9	20
168.0	12
168.2	7
168.3	14
168.4	22
168.5	24
168.6	18
168.9	10
169.0	17
169.1	21
169.2	18
169.5	10
169.6	17
169.7	23
169.8	23
169.9	18
170.8	11
170.9	18
171.0	22
171.1	20
171.2	13
171.4	9
171.5	17
171.6	22
171.7	21
171.8	13
172.0	5
172.1	14
172.2	23
172.3	26
172.4	18
172.5	7
172.7	5
172.8	14
172.9	21
173.0	20
173.1	13
173.3	7
173.4	13
173.5	19
173.6	22
173.7	17
173.8	8
174.0	3
174.1	10
174.2	18
174.3	20
174.4	14
174.6	5
174.7	12
174.8	20
174.9	22
175.0	15
175.2	6
175.3	12
175.4	20
175.5	23
175.6	21
175.7	14
175.9	10
176.0	16
176.1	21
176.2	22
176.3	18
176.5	12
176.6	16
176.7	19
176.8	19
176.9	14
177.2	7
177.3	14
177.4	17
177.5	16
177.8	9
177.9	18
178.0	26
178.1	26
178.2	17
178.5	7
178.6	16
178.7	20
178.8	17
178.9	10
179.1	8
179.2	14
179.3	19
179.4	20
179.5	16
180.4	7
180.5	16
180.6	24
180.7	25
180.8	19
181.6	7
181.7	13
181.8	22
181.9	25
182.0	20
182.1	12
182.3	9
182.4	18
182.5	24
182.6	23
182.7	15
182.9	2
183.0	7
183.1	16
183.2	22
183.3	19
183.6	11
183.7	19
183.8	23
183.9	20
184.0	11
184.2	5
184.3	12
184.4	19
184.5	21
184.6	16
184.8	7
184.9	11
185.0	17
185.1	20
185.2	17
185.5	11
185.6	16
185.7	20
185.8	18
185.9	13
186.1	10
186.2	17
186.3	23
186.4	24
186.5	19
186.8	12
186.9	18
187.0	21
187.1	19
187.2	13
187.4	8
187.5	14
187.6	20
187.7	22
187.8	17
188.1	8
188.2	17
188.3	23
188.4	23
188.5	15
188.7	8
188.8	17
188.9	26
189.0	26
189.1	16
189.4	7
189.5	15
189.6	19
189.7	18
190.0	12
190.1	17
190.2	19
190.3	17
190.4	11
190.6	7
190.7	13
190.8	20
190.9	23
191.0	19
191.2	10
191.3	15
191.4	23
191.5	26
191.6	21
191.7	12
191.9	8
192.0	15
192.1	22
192.2	23
192.3	18
192.5	9
192.6	14
192.7	21
192.8	23
192.9	17
193.1	4
193.2	9
193.3	19
193.4	24
193.5	21
193.6	13
193.8	8
193.9	14
194.0	19
194.1	19
194.2	14
194.4	7
194.5	11
194.6	18
194.7	22
194.8	19
195.1	11
195.2	18
195.3	23
195.4	21
195.5	15
195.7	7
195.8	12
195.9	20
196.0	24
196.1	22
196.4	15
196.5	21
196.6	25
196.7	22
196.8	13
197.0	5
197.1	12
197.2	22
197.3	26
197.4	22
197.5	13
198.3	8
198.4	14
198.5	20
198.6	20
198.7	15
198.9	10
199.0	14
199.1	20
199.2	21
199.3	17
199.6	8
199.7	17
199.8	24
199.9	23
200.0	15
200.3	10
200.4	16
200.5	19
200.6	18
200.8	14
200.9	17
201.0	22
201.1	23
201.2	19
201.3	13
201.5	9
201.6	14
201.7	18
201.8	17
201.9	11
202.1	7
202.2	13
202.3	20
202.4	22
202.5	17
202.8	9
202.9	17
203.0	21
203.1	18
203.2	11
203.4	8
203.5	16
203.6	22
203.7	20
203.8	12
204.0	2
204.1	10
204.2	21
204.3	26
204.4	20
204.5	8
204.7	3
204.8	14
204.9	23
205.0	25
205.1	19
205.9	10
206.0	16
206.1	23
206.2	25
206.3	18
206.4	7
206.6	3
206.7	12
206.8	20
206.9	21
207.0	15
207.2	5
207.3	9
207.4	17
207.5	20
207.6	16
207.9	11
208.0	17
208.1	21
208.2	18
208.3	10
208.5	5
208.6	12
208.7	21
208.8	23
208.9	17
209.2	7
209.3	16
209.4	23
209.5	20
209.6	12
209.8	7
209.9	14
210.0	20
210.1	20
210.2	14
210.4	4
210.5	8
210.6	16
210.7	23
210.8	22
210.9	15
211.1	7
211.2	13
211.3	19
211.4	18
211.5	13
211.7	11
211.8	16
211.9	20
212.0	20
212.1	13
212.3	3
212.4	9
212.5	18
212.6	23
212.7	21
212.8	14
213.0	7
213.1	13
213.2	21
213.3	23
213.4	17
213.6	5
213.7	11
213.8	20
213.9	23
214.0	19
214.1	9
214.3	2
214.4	10
214.5	19
214.6	23
214.7	19
214.8	13
215.6	7
215.7	11
215.8	15
215.9	15
216.1	10
216.2	13
216.3	20
216.4	26
216.5	24
216.6	14
216.8	0
216.9	8
217.0	20
217.1	27
217.2	24
217.3	15
217.5	9
217.6	15
217.7	21
217.8	21
217.9	14
218.2	6
218.3	13
218.4	18
218.5	18
218.6	13
218.8	10
218.9	15
219.0	18
219.1	17
219.2	11
219.4	6
219.5	13
219.6	21
219.7	23
219.8	17
219.9	8
220.1	6
220.2	14
220.3	20
220.4	20
220.5	13
220.7	5
220.8	10
220.9	15
221.0	15
221.1	9
221.3	6
221.4	13
221.5	20
221.6	22
221.7	16
222.0	6
222.1	17
222.2	25
222.3	25
222.4	17
222.6	8
222.7	15
222.8	22
222.9	24
223.0	19
224.5	5
224.6	10
224.7	17
224.8	21
224.9	17
225.0	10
225.2	7
225.3	15
225.4	22
225.5	23
225.6	15
225.8	1
225.9	7
226.0	16
226.1	20
226.2	15
226.4	7
226.5	13
226.6	20
226.7	22
226.8	17
226.9	9
227.1	6
227.2	14
227.3	21
227.4	21
227.5	14
227.7	7
227.8	14
227.9	21
228.0	23
228.1	19
228.3	11
228.4	15
228.5	22
228.6	25
228.7	22
228.8	15
229.7	13
229.8	19
229.9	22
230.0	19
230.3	11
230.4	19
230.5	24
230.6	21
230.7	13
230.9	7
231.0	12
231.1	18
231.2	19
231.3	16
231.5	9
231.6	13
231.7	20
231.8	24
231.9	20
232.0	12
232.2	8
232.3	16
232.4	25
232.5	27
232.6	21
232.9	12
233.0	19
233.1	23
233.2	21
233.3	14
233.5	9
233.6	16
233.7	23
233.8	25
233.9	21
234.0	14
234.2	12
234.3	15
234.4	16
234.5	13
234.7	6
234.8	9
234.9	17
235.0	21
235.1	19
235.2	12
235.4	8
235.5	14
235.6	21
235.7	22
235.8	16
236.0	3
236.1	8
236.2	17
236.3	24
236.4	22
236.5	15
236.7	6
236.8	11
236.9	19
237.0	24
237.1	22
237.2	16
237.9	9
238.0	15
238.1	22
238.2	24
238.3	18
238.6	8
238.7	19
238.8	28
238.9	26
239.0	16
239.2	6
239.3	12
239.4	20
239.5	23
239.6	19
239.7	12
239.9	9
240.0	15
240.1	22
240.2	22
240.3	16
240.5	5
240.6	10
240.7	17
240.8	20
240.9	18
241.8	7
241.9	17
242.0	24
242.1	24
242.2	17
242.4	8
242.5	13
242.6	19
242.7	21
242.8	18
243.0	9
243.1	12
243.2	20
243.3	25
243.4	21
243.5	12
243.7	4
243.8	11
243.9	20
244.0	24
244.1	20
244.2	12
244.4	11
244.5	19
244.6	24
244.7	21
244.8	11
245.0	4
245.1	13
245.2	22
245.3	24
245.4	17
245.6	7
245.7	11
245.8	18
245.9	21
246.0	18
246.9	6
247.0	13
247.1	21
247.2	24
247.3	20
247.6	10
247.7	18
247.8	24
247.9	22
248.0	13
248.2	7
248.3	13
248.4	18
248.5	18
248.6	13
248.8	8
248.9	12
249.0	16
249.1	16
249.2	11
249.4	4
249.5	7
249.6	15
249.7	22
249.8	22
249.9	15
250.1	3
250.2	8
250.3	17
250.4	22
250.5	19
250.6	12
250.8	7
250.9	14
251.0	22
251.1	22
251.2	15
251.4	7
251.5	13
251.6	18
251.7	18
251.8	11
252.0	4
252.1	9
252.2	16
252.3	19
252.4	15
252.6	5
252.7	9
252.8	18
252.9	26
253.0	26
253.1	18
254.0	10
254.1	16
254.2	20
254.3	17
254.4	10
254.6	7
254.7	15
254.8	23
254.9	23
255.0	15
255.2	2
255.3	10
255.4	22
255.5	27
255.6	21
255.7	9
255.9	5
256.0	15
256.1	22
256.2	21
256.3	14
256.5	4
256.6	8
256.7	16
256.8	21
256.9	18
257.2	10
257.3	18
257.4	24
257.5	22
257.6	14
257.8	5
257.9	10
258.0	15
258.1	16
258.2	13
258.4	11
258.5	16
258.6	21
258.7	22
258.8	16
258.9	9
259.1	8
259.2	15
259.3	20
259.4	20
259.5	14
259.7	10
259.8	15
259.9	22
260.0	24
260.1	19
260.2	11
260.4	9
260.5	16
260.6	21
260.7	20
260.8	13
261.0	8
261.1	15
261.2	23
261.3	25
261.4	19
261.5	10
261.7	8
261.8	16
261.9	23
262.0	22
262.1	16
262.3	10
262.4	14
262.5	18
262.6	17
262.7	12
262.9	8
263.0	13
263.1	19
263.2	21
263.3	17
263.5	9
263.6	13
263.7	21
263.8	25
263.9	20
264.0	10
264.2	6
264.3	14
264.4	21
264.5	21
264.6	15
264.8	7
264.9	12
265.0	18
265.1	21
265.2	19
265.3	12
265.5	5
265.6	11
265.7	19
265.8	22
265.9	17
266.0	8
266.2	6
266.3	15
266.4	21
266.5	19
266.6	11
266.8	7
266.9	16
267.0	23
267.1	21
267.2	13
267.4	4
267.5	11
267.6	18
267.7	18
267.8	11
268.0	4
268.1	10
268.2	19
268.3	24
268.4	21
268.5	13
268.7	8
268.8	14
268.9	19
269.0	19
269.1	14
269.3	8
269.4	13
269.5	20
269.6	23
269.7	20
270.0	12
270.1	19
270.2	23
270.3	20
270.4	14
270.6	10
270.7	16
270.8	20
270.9	19
271.0	13
271.2	4
271.3	9
271.4	17
271.5	23
271.6	20
271.7	11
271.9	4
272.0	12
272.1	19
272.2	20
272.3	14
272.5	5
272.6	10
272.7	17
272.8	20
272.9	17
273.0	10
273.2	6
273.3	13
273.4	19
273.5	19
273.6	13
273.8	10
273.9	16
274.0	21
274.1	19
274.2	14
274.4	9
274.5	15
274.6	22
274.7	24
274.8	20
274.9	10
275.1	5
275.2	14
275.3	23
275.4	24
275.5	18
275.7	7
275.8	12
275.9	19
276.0	21
276.1	16
276.4	8
276.5	16
276.6	20
276.7	17
276.8	10
277.0	7
277.1	15
277.2	22
277.3	24
277.4	19
277.5	10
277.7	9
277.8	16
277.9	20
278.0	17
278.3	8
278.4	16
278.5	23
278.6	24
278.7	19
279.6	10
279.7	17
279.8	21
279.9	20
280.0	13
280.2	8
280.3	14
280.4	20
280.5	22
280.6	17
280.8	8
280.9	13
281.0	20
281.1	22
281.2	17
281.5	9
281.6	17
281.7	23
281.8	20
281.9	10
282.1	3
282.2	12
282.3	21
282.4	24
282.5	18
283.3	4
283.4	8
283.5	17
283.6	23
283.7	23
283.8	16
283.9	8
284.1	8
284.2	14
284.3	18
284.4	19
284.5	15
284.7	12
284.8	17
284.9	22
285.0	22
285.1	15
285.3	8
285.4	15
285.5	21
285.6	22
285.7	17
285.9	11
286.0	15
286.1	22
286.2	26
286.3	23
286.4	13
286.6	7
286.7	14
286.8	20
286.9	19
287.0	14
287.2	10
287.3	15
287.4	20
287.5	21
287.6	16
287.7	10
287.9	8
288.0	14
288.1	19
288.2	19
288.3	14
288.5	8
288.6	13
288.7	21
288.8	23
288.9	17
289.1	5
289.2	11
289.3	20
289.4	24
289.5	20
289.6	12
289.8	8
289.9	16
290.0	23
290.1	23
290.2	16
290.4	4
290.5	9
290.6	19
290.7	24
290.8	21
290.9	11
291.1	4
291.2	14
291.3	25
291.4	28
291.5	19
291.7	4
291.8	10
291.9	21
292.0	25
292.1	22
292.2	13
292.4	12
292.5	19
292.6	23
292.7	21
292.8	13
293.0	5
293.1	10
293.2	17
293.3	20
293.4	17
293.7	11
293.8	17
293.9	21
294.0	19
294.1	13
294.3	11
294.4	18
294.5	22
294.6	20
294.7	13
294.9	6
295.0	10
295.1	16
295.2	18
295.3	15
295.6	11
295.7	16
295.8	19
295.9	18
296.0	12
296.2	9
296.3	16
296.4	21
296.5	20
296.6	13
296.8	5
296.9	11
297.0	19
297.1	23
297.2	20
297.3	13
297.5	8
297.6	14
297.7	19
297.8	19
297.9	14
298.1	8
298.2	12
298.3	18
298.4	21
298.5	17
299.3	5
299.4	10
299.5	19
299.6	26
299.7	26
299.8	18
300.7	4
300.8	14
300.9	23
301.0	26
301.1	21
301.2	14
301.9	7
302.0	10
302.1	17
302.2	22
302.3	21
302.4	12
302.6	4
302.7	12
302.8	22
302.9	23
303.0	16
303.2	4
303.3	10
303.4	18
303.5	20
303.6	14
303.8	3
303.9	8
304.0	16
304.1	21
304.2	18
304.3	11
304.5	5
304.6	10
304.7	19
304.8	25
304.9	25
305.0	18
305.2	9
305.3	14
305.4	19
305.5	19
305.6	13
305.8	8
305.9	14
306.0	21
306.1	24
306.2	19
306.3	10
306.5	8
306.6	16
306.7	22
306.8	21
306.9	12
307.1	5
307.2	12
307.3	19
307.4	21
307.5	16
307.7	7
307.8	11
307.9	18
308.0	21
308.1	17
308.4	9
308.5	17
308.6	21
308.7	17
308.8	10
309.0	8
309.1	15
309.2	22
309.3	22
309.4	16
309.6	8
309.7	13
309.8	21
309.9	25
310.0	22
310.1	14
310.3	8
310.4	16
310.5	25
310.6	25
310.7	16
310.9	1
311.0	8
311.1	19
311.2	24
311.3	20
311.4	12
311.6	11
311.7	18
311.8	21
311.9	18
312.0	10
312.2	5
312.3	12
312.4	18
312.5	19
312.6	13
312.8	5
312.9	10
313.0	17
313.1	21
313.2	19
313.3	12
313.5	9
313.6	16
313.7	21
313.8	20
313.9	12
314.1	3
314.2	11
314.3	20
314.4	23
314.5	18
314.6	9
314.8	7
314.9	15
315.0	23
315.1	23
315.2	17
315.4	9
315.5	14
315.6	19
315.7	20
315.8	16
316.0	6
316.1	10
316.2	17
316.3	21
316.4	18
316.6	11
316.7	15
316.8	22
316.9	24
317.0	19
317.1	10
317.3	6
317.4	13
317.5	19
317.6	20
317.7	14
318.0	6
318.1	13
318.2	17
318.3	17
318.6	11
318.7	18
318.8	24
318.9	24
319.0	17
319.1	9
319.3	8
319.4	13
319.5	17
319.6	16
319.7	11
319.9	6
320.0	13
320.1	21
320.2	23
320.3	17
320.5	9
320.6	16
320.7	23
320.8	23
320.9	16
321.1	5
321.2	10
321.3	20
321.4	28
321.5	27
321.6	18
321.8	6
321.9	12
322.0	20
322.1	22
322.2	17
323.1	9
323.2	16
323.3	20
323.4	18
323.5	13
323.7	11
323.8	16
323.9	22
324.0	22
324.1	16
324.4	8
324.5	18
324.6	24
324.7	20
324.8	11
325.0	7
325.1	14
325.2	23
325.3	25
325.4	19
325.7	12
325.8	19
325.9	23
326.0	19
326.1	11
326.3	9
326.4	17
326.5	23
326.6	20
326.7	11
326.9	7
327.0	14
327.1	21
327.2	23
327.3	19
327.5	13
327.6	19
327.7	26
327.8	29
327.9	25
328.0	15
328.1	7
328.8	1
328.9	8
329.0	17
329.1	21
329.2	17
329.3	11
329.5	9
329.6	15
329.7	20
329.8	19
329.9	13
330.1	6
330.2	11
330.3	15
330.4	16
330.5	12
330.7	8
330.8	13
330.9	20
331.0	23
331.1	19
331.2	10
331.4	5
331.5	14
331.6	21
331.7	22
331.8	15
332.0	5
332.1	10
332.2	17
332.3	19
332.4	16
332.6	10
332.7	13
332.8	18
332.9	19
333.0	14
333.2	4
333.3	9
333.4	19
333.5	25
333.6	25
333.7	19
333.8	12
334.0	10
334.1	17
334.2	22
334.3	21
334.4	12
334.6	3
334.7	11
334.8	21
334.9	25
335.0	20
335.1	11
335.3	6
335.4	12
335.5	19
335.6	21
335.7	16
335.9	8
336.0	13
336.1	20
336.2	23
336.3	18
336.6	10
336.7	17
336.8	22
336.9	20
337.0	14
337.2	10
337.3	15
337.4	19
337.5	19
337.6	16
338.4	7
338.5	12
338.6	19
338.7	23
338.8	19
338.9	11
339.1	9
339.2	18
339.3	24
339.4	21
339.5	13
339.7	8
339.8	15
339.9	22
340.0	24
340.1	19
340.2	12
340.4	11
340.5	18
340.6	23
340.7	22
340.8	16
341.0	8
341.1	14
341.2	22
341.3	24
341.4	20
341.5	12
341.7	9
341.8	14
341.9	19
342.0	17
342.1	12
342.3	7
342.4	13
342.5	18
342.6	19
342.7	14
342.9	9
343.0	15
343.1	21
343.2	22
343.3	17
343.6	12
343.7	18
343.8	22
343.9	21
344.0	15
344.2	8
344.3	12
344.4	18
344.5	19
344.6	15
344.8	8
344.9	12
345.0	18
345.1	22
345.2	19
345.3	12
345.5	6
345.6	11
345.7	18
345.8	22
345.9	18
346.1	10
346.2	15
346.3	22
346.4	24
346.5	18
347.4	10
347.5	18
347.6	26
347.7	27
347.8	20
347.9	12
348.1	9
348.2	15
348.3	18
348.4	17
348.5	11
348.7	8
348.8	16
348.9	22
349.0	22
349.1	13
349.3	2
349.4	9
349.5	17
349.6	20
349.7	14
349.9	9
350.0	15
350.1	20
350.2	19
350.3	13
350.5	4
350.6	7
350.7	15
350.8	21
350.9	21
351.0	17
351.2	11
351.3	16
351.4	21
351.5	21
351.6	16
351.8	7
351.9	12
352.0	20
352.1	26
352.2	24
352.3	17
352.5	9
352.6	15
352.7	22
352.8	22
352.9	16
353.1	8
353.2	14
353.3	22
353.4	26
353.5	23
353.6	14
353.8	6
353.9	13
354.0	21
354.1	23
354.2	18
355.1	10
355.2	17
355.3	22
355.4	20
355.5	14
355.7	8
355.8	13
355.9	18
356.0	19
356.1	16
356.3	12
356.4	15
356.5	21
356.6	23
356.7	19
356.8	11
357.0	6
357.1	14
357.2	22
357.3	24
357.4	17
358.2	4
358.3	9
358.4	18
358.5	23
358.6	20
358.7	12
358.9	8
359.0	14
359.1	21
359.2	22
359.3	15
359.5	5
359.6	11
359.7	20
359.8	24
359.9	20
360.0	11
360.2	8
360.3	16
360.4	22
360.5	20
360.6	11
360.8	3
360.9	13
361.0	24
361.1	28
361.2	21
361.3	10
361.5	6
361.6	16
361.7	24
361.8	24
361.9	17
362.1	6
362.2	11
362.3	19
362.4	22
362.5	18
362.8	9
362.9	18
363.0	24
363.1	21
363.2	13
363.4	7
363.5	12
363.6	17
363.7	17
363.8	12
364.0	4
364.1	9
364.2	16
364.3	20
364.4	16
364.7	8
364.8	15
364.9	20
365.0	20
365.1	13
365.3	6
365.4	11
365.5	18
365.6	21
365.7	17
365.8	9
366.0	5
366.1	13
366.2	20
366.3	19
366.4	11
366.6	8
366.7	17
366.8	24
366.9	25
367.0	19
367.1	11
367.3	9
367.4	15
367.5	21
367.6	21
367.7	15
367.9	8
368.0	13
368.1	20
368.2	21
368.3	15
368.5	5
368.6	11
368.7	20
368.8	22
368.9	17
369.1	8
369.2	12
369.3	19
369.4	22
369.5	20
369.6	13
369.8	8
369.9	13
370.0	19
370.1	20
370.2	16
370.4	9
370.5	13
370.6	18
370.7	22
370.8	21
370.9	16
371.1	11
371.2	15
371.3	20
371.4	19
371.5	12
371.7	4
371.8	11
371.9	19
372.0	22
372.1	17
372.2	10
372.4	9
372.5	14
372.6	19
372.7	19
372.8	12
373.0	4
373.1	8
373.2	15
373.3	17
373.4	14
373.6	6
373.7	10
373.8	18
373.9	23
374.0	19
374.1	10
374.3	6
374.4	14
374.5	21
374.6	22
374.7	15
374.9	8
375.0	14
375.1	22
375.2	22
375.3	14
375.5	1
375.6	6
375.7	16
375.8	23
375.9	22
376.0	13
376.2	5
376.3	11
376.4	19
376.5	20
376.6	14
376.9	7
377.0	15
377.1	20
377.2	17
377.4	9
377.5	13
377.6	20
377.7	23
377.8	20
377.9	13
378.1	6
378.2	12
378.3	19
378.4	23
378.5	20
378.8	13
378.9	19
379.0	24
379.1	22
379.2	14
379.4	7
379.5	15
379.6	24
379.7	24
379.8	15
380.1	7
380.2	16
380.3	20
380.4	17
381.3	1
381.4	9
381.5	19
381.6	23
381.7	17
381.8	8
382.0	7
382.1	14
382.2	19
382.3	18
382.6	11
382.7	17
382.8	22
382.9	20
383.0	13
383.2	6
383.3	12
383.4	19
383.5	22
383.6	18
384.5	6
384.6	15
384.7	24
384.8	27
384.9	21
385.0	11
385.2	7
385.3	15
385.4	21
385.5	19
385.6	12
385.8	8
385.9	16
386.0	23
386.1	23
386.2	15
387.1	4
387.2	12
387.3	20
387.4	23
387.5	18
388.4	9
388.5	18
388.6	27
388.7	28
388.8	21
388.9	12
389.6	9
389.7	14
389.8	21
389.9	24
390.0	19
390.3	11
390.4	19
390.5	25
390.6	23
390.7	16
390.9	12
391.0	17
391.1	21
391.2	20
391.3	14
391.5	6
391.6	10
391.7	18
391.8	24
391.9	22
392.0	13
392.2	6
392.3	13
392.4	21
392.5	22
392.6	17
392.8	8
392.9	13
393.0	21
393.1	24
393.2	20
393.5	11
393.6	20
393.7	27
393.8	26
393.9	18
394.8	13
394.9	18
395.0	21
395.1	21
395.2	15
395.5	10
395.6	17
395.7	20
395.8	19
396.7	10
396.8	16
396.9	20
397.0	18
397.1	11
397.3	4
397.4	10
397.5	19
397.6	25
397.7	22
397.8	14
398.0	11
398.1	20
398.2	27
398.3	23
398.4	11
398.6	5
398.7	15
398.8	23
398.9	25
399.0	19
399.3	10
399.4	19
399.5	25
399.6	24
399.7	15
399.9	7
400.0	12
400.1	17
400.2	15
400.3	9
400.5	5
400.6	13
400.7	21
400.8	19
400.9	11
401.1	2
401.2	10
401.3	20
401.4	25
401.5	24
401.6	17
401.8	12
401.9	16
402.0	20
402.1	19
402.2	13
402.4	6
402.5	12
402.6	20
402.7	26
402.8	23
402.9	14
403.1	9
403.2	16
403.3	21
403.4	19
403.5	10
403.7	6
403.8	15
403.9	24
404.0	25
404.1	19
404.2	11
404.4	9
404.5	14
404.6	17
404.7	14
405.0	7
405.1	13
405.2	19
405.3	19
405.4	13
405.6	3
405.7	8
405.8	15
405.9	17
406.0	14
406.2	7
406.3	11
406.4	17
406.5	22
406.6	21
406.7	14
406.9	8
407.0	14
407.1	22
407.2	24
407.3	18
407.6	8
407.7	18
407.8	24
407.9	21
408.0	13
408.2	5
408.3	10
408.4	15
408.5	17
408.6	13
408.8	5
408.9	10
409.0	19
409.1	23
409.2	20
409.5	13
409.6	21
409.7	25
409.8	22
409.9	15
410.1	10
410.2	14
410.3	20
410.4	20
410.5	14
410.8	7
410.9	15
411.0	21
411.1	19
411.2	12
411.4	9
411.5	16
411.6	23
411.7	22
411.8	15
412.0	5
412.1	10
412.2	16
412.3	20
412.4	17
412.5	9
412.7	5
412.8	12
412.9	18
413.0	17
413.1	12
413.3	8
413.4	14
413.5	21
413.6	22
413.7	17
414.0	10
414.1	17
414.2	21
414.3	18
414.4	12
414.6	8
414.7	14
414.8	18
414.9	19
415.0	16
415.2	11
415.3	14
415.4	18
415.5	19
415.6	15
415.7	9
415.9	5
416.0	12
416.1	18
416.2	19
416.3	15
416.5	9
416.6	15
416.7	22
416.8	25
416.9	22
417.0	15
417.2	11
417.3	15
417.4	18
417.5	16
417.8	9
417.9	16
418.0	24
418.1	24
418.2	18
419.1	10
419.2	16
419.3	21
419.4	20
419.5	14
419.7	6
419.8	12
419.9	20
420.0	22
420.1	16
420.4	8
420.5	16
420.6	22
420.7	21
420.8	12
421.0	5
421.1	13
421.2	23
421.3	25
421.4	18
421.7	7
421.8	16
421.9	22
422.0	20
422.1	14
422.3	9
422.4	15
422.5	23
422.6	24
422.7	16
423.6	10
423.7	16
423.8	19
423.9	18
424.0	11
424.2	5
424.3	11
424.4	20
424.5	24
424.6	18
424.9	8
425.0	18
425.1	23
425.2	19
425.4	9
425.5	14
425.6	23
425.7	26
425.8	22
425.9	14
426.1	9
426.2	14
426.3	18
426.4	19
426.5	15
426.7	6
426.8	10
426.9	17
427.0	21
427.1	20
427.2	13
427.4	3
427.5	10
427.6	19
427.7	24
427.8	18
427.9	8
428.1	4
428.2	12
428.3	19
428.4	18
428.5	12
428.7	9
428.8	14
428.9	17
429.0	17
429.1	13
429.3	8
429.4	13
429.5	20
429.6	22
429.7	18
430.6	10
430.7	18
430.8	23
430.9	21
431.0	13
431.2	6
431.3	15
431.4	24
431.5	28
431.6	24
431.7	14
431.9	8
432.0	14
432.1	20
432.2	20
432.3	14
432.5	6
432.6	11
432.7	19
432.8	23
432.9	19
433.0	10
433.2	8
433.3	17
433.4	22
433.5	20
433.6	12
433.8	6
433.9	13
434.0	19
434.1	19
434.2	14
434.4	9
434.5	15
434.6	22
434.7	24
434.8	21
434.9	15
435.1	11
435.2	15
435.3	19
435.4	18
435.5	14
435.7	6
435.8	10
435.9	17
436.0	22
436.1	20
436.2	14
436.4	9
436.5	16
436.6	22
436.7	22
436.8	16
437.0	8
437.1	13
437.2	19
437.3	19
437.4	13
437.6	5
437.7	12
437.8	22
437.9	27
438.0	23
438.1	12
438.3	3
438.4	11
438.5	19
438.6	20
438.7	13
438.9	7
439.0	14
439.1	19
439.2	18
439.3	11
439.5	4
439.6	11
439.7	20
439.8	25
439.9	22
440.0	14
440.2	8
440.3	14
440.4	20
440.5	21
440.6	16
440.8	4
440.9	9
441.0	20
441.1	26
441.2	23
441.3	14
441.5	6
441.6	13
441.7	19
441.8	20
441.9	15
442.1	8
442.2	13
442.3	20
442.4	22
442.5	18
442.6	10
442.8	8
442.9	16
443.0	23
443.1	21
443.2	14
443.4	6
443.5	11
443.6	18
443.7	20
443.8	17
444.0	10
444.1	14
444.2	20
444.3	22
444.4	18
444.7	10
444.8	19
444.9	24
445.0	22
445.1	14
445.3	7
445.4	12
445.5	19
445.6	23
445.7	20
445.8	13
446.0	9
446.1	15
446.2	20
446.3	21
446.4	16
446.6	8
446.7	12
446.8	19
446.9	21
447.0	17
447.3	10
447.4	17
447.5	20
447.6	18
447.8	7
447.9	11
448.0	20
448.1	28
448.2	26
448.3	17
448.5	5
448.6	12
448.7	20
448.8	22
448.9	18
449.2	11
449.3	16
449.4	20
449.5	19
449.8	13
449.9	18
450.0	22
450.1	22
450.2	17
450.5	11
450.6	17
450.7	21
450.8	19
450.9	13
451.1	6
451.2	12
451.3	17
451.4	17
451.5	11
451.7	3
451.8	11
451.9	21
452.0	24
452.1	18
452.2	8
452.4	5
452.5	14
452.6	22
452.7	23
452.8	17
453.0	8
453.1	13
453.2	21
453.3	22
453.4	16
453.7	7
453.8	16
453.9	22
454.0	21
454.1	12
454.3	6
454.4	13
454.5	20
454.6	20
454.7	14
454.9	7
455.0	13
455.1	21
455.2	23
455.3	19
455.4	11
455.6	7
455.7	13
455.8	18
455.9	18
456.0	12
456.2	6
456.3	14
456.4	23
456.5	26
456.6	20
456.7	11
456.9	9
457.0	15
457.1	19
457.2	17
457.5	9
457.6	16
457.7	23
457.8	23
457.9	17
458.1	9
458.2	13
458.3	19
458.4	20
458.5	14
459.3	6
459.4	10
459.5	17
459.6	24
459.7	25
459.8	17
460.0	1
460.1	7
460.2	19
460.3	26
460.4	22
460.5	11
460.7	2
460.8	11
460.9	20
461.0	22
461.1	17
461.3	10
461.4	17
461.5	22
461.6	23
461.7	18
461.8	12
462.0	11
462.1	15
462.2	17
462.3	16
462.5	10
462.6	12
462.7	18
462.8	24
462.9	25
463.0	19
463.1	10
463.3	9
463.4	16
463.5	20
463.6	17
463.9	11
464.0	19
464.1	24
464.2	22
464.3	16
465.1	9
465.2	12
465.3	18
465.4	21
465.5	19
465.6	13
465.8	11
465.9	17
466.0	23
466.1	22
466.2	14
466.4	4
466.5	9
466.6	18
466.7	24
466.8	21
466.9	13
467.1	7
467.2	15
467.3	23
467.4	24
467.5	18
468.3	5
468.4	12
468.5	20
468.6	24
468.7	20
468.8	12
469.0	7
469.1	12
469.2	17
469.3	16
469.4	11
469.6	1
469.7	7
469.8	18
469.9	26
470.0	24
470.1	15
470.3	8
470.4	13
470.5	18
470.6	19
470.7	14
470.9	7
471.0	11
471.1	18
471.2	21
471.3	18
472.2	9
472.3	17
472.4	24
472.5	24
472.6	16
472.8	4
472.9	9
473.0	18
473.1	22
473.2	19
473.3	10
473.5	6
473.6	14
473.7	20
473.8	21
473.9	16
474.8	6
474.9	14
475.0	19
475.1	18
475.2	12
475.4	10
475.5	17
475.6	22
475.7	20
475.8	13
476.0	5
476.1	11
476.2	19
476.3	22
476.4	18
476.5	10
476.7	7
476.8	16
476.9	23
477.0	23
477.1	16
477.3	9
477.4	14
477.5	20
477.6	23
477.7	19
477.8	13
478.0	8
478.1	14
478.2	20
478.3	21
478.4	16
478.6	11
478.7	17
478.8	24
478.9	24
479.0	16
479.2	3
479.3	8
479.4	19
479.5	25
479.6	22
479.7	12
479.9	5
480.0	15
480.1	24
480.2	25
480.3	19
480.5	9
480.6	14
480.7	21
480.8	22
480.9	16
481.0	8
481.2	7
481.3	13
481.4	17
481.5	17
481.8	10
481.9	17
482.0	25
482.1	27
482.2	20
482.3	10
482.5	6
482.6	13
482.7	18
482.8	15
483.1	7
483.2	15
483.3	23
483.4	24
483.5	18
483.7	8
483.8	12
483.9	20
484.0	23
484.1	19
484.2	9
484.4	7
484.5	16
484.6	24
484.7	23
484.8	14
485.0	7
485.1	14
485.2	21
485.3	22
485.4	17
485.7	10
485.8	17
485.9	21
486.0	20
486.1	15
486.3	13
486.4	18
486.5	22
486.6	20
486.7	12
486.9	6
487.0	14
487.1	24
487.2	27
487.3	22
487.4	13
487.6	8
487.7	15
487.8	22
487.9	23
488.0	16
488.2	6
488.3	11
488.4	19
488.5	21
488.6	17
488.8	7
488.9	13
489.0	22
489.1	26
489.2	21
489.5	11
489.6	20
489.7	25
489.8	23
489.9	14
490.2	9
490.3	15
490.4	19
490.5	17
490.8	8
490.9	17
491.0	24
491.1	23
491.2	15
491.4	6
491.5	14
491.6	22
491.7	24
491.8	19
492.7	11
492.8	14
492.9	18
493.0	18
493.1	14
493.3	6
493.4	11
493.5	18
493.6	23
493.7	23
493.8	18
494.0	14
494.1	19
494.2	23
494.3	21
494.4	13
494.6	5
494.7	11
494.8	20
494.9	24
495.0	19
495.1	11
495.3	10
495.4	18
495.5	23
495.6	21
495.7	14
495.9	7
496.0	13
496.1	21
496.2	21
496.3	13
496.5	2
496.6	8
496.7	19
496.8	24
496.9	21
497.0	13
497.2	8
497.3	14
497.4	17
497.5	16
497.6	12
497.8	9
497.9	15
498.0	20
498.1	20
498.2	14
498.4	4
498.5	8
498.6	18
498.7	25
498.8	24
498.9	16
499.1	9
499.2	15
499.3	22
499.4	24
499.5	17
499.7	5
499.8	10
499.9	19
500.0	24
500.1	21
500.2	13
500.4	9
500.5	15
500.6	20
500.7	19
500.8	13
501.0	8
501.1	13
501.2	19
501.3	21
501.4	16
502.2	9
502.3	12
502.4	18
502.5	22
502.6	21
502.7	15
502.9	5
503.0	10
503.1	18
503.2	23
503.3	21
503.4	16
503.6	12
503.7	17
503.8	20
503.9	20
504.0	15
504.2	11
504.3	14
504.4	17
504.5	19
504.6	16
504.7	12
504.9	10
505.0	14
505.1	17
505.2	15
505.5	10
505.6	15
505.7	19
505.8	18
505.9	13
506.1	10
506.2	15
506.3	20
506.4	20
506.5	15
506.8	8
506.9	14
507.0	20
507.1	22
507.2	19
508.0	8
508.1	11
508.2	17
508.3	21
508.4	19
508.7	12
508.8	19
508.9	23
509.0	21
509.1	12
509.3	5
509.4	14
509.5	23
509.6	25
509.7	17
510.0	7
510.1	17
510.2	23
510.3	23
510.4	16
510.6	9
510.7	15
510.8	22
510.9	22
511.0	14
511.2	1
511.3	8
511.4	19
511.5	24
511.6	20
511.7	11
511.9	9
512.0	17
512.1	23
512.2	22
512.3	14
512.5	7
512.6	13
512.7	19
512.8	20
512.9	14
513.1	2
513.2	7
513.3	17
513.4	24
513.5	22
513.6	14
513.8	6
513.9	12
514.0	19
514.1	20
514.2	15
514.4	7
514.5	12
514.6	18
514.7	21
514.8	17
515.1	10
515.2	18
515.3	23
515.4	21
515.5	13
515.7	6
515.8	13
515.9	22
516.0	23
516.1	16
516.3	3
516.4	9
516.5	19
516.6	25
516.7	23
516.8	15
517.0	5
517.1	10
517.2	17
517.3	20
517.4	17
517.6	10
517.7	13
517.8	20
517.9	23
518.0	19
518.1	11
518.3	9
518.4	16
518.5	21
518.6	19
518.7	13
518.9	7
519.0	13
519.1	21
519.2	23
519.3	17
519.5	5
519.6	10
519.7	19
519.8	23
519.9	19
520.0	10
520.2	5
520.3	13
520.4	22
520.5	24
520.6	18
520.7	9
520.9	7
521.0	15
521.1	20
521.2	16
521.4	6
521.5	11
521.6	19
521.7	24
521.8	22
521.9	14
522.1	7
522.2	14
522.3	23
522.4	24
522.5	18
522.6	8
522.8	4
522.9	12
523.0	18
523.1	17
523.4	11
523.5	17
523.6	22
523.7	22
523.8	17
524.6	7
524.7	11
524.8	16
524.9	20
525.0	19
525.1	14
525.3	11
525.4	15
525.5	20
525.6	21
525.7	17
526.0	10
526.1	16
526.2	20
526.3	18
526.4	14
526.6	11
526.7	15
526.8	20
526.9	22
527.0	19
527.8	3
527.9	8
528.0	19
528.1	26
528.2	23
528.3	14
528.5	6
528.6	13
528.7	20
528.8	22
528.9	17
529.0	10
529.2	9
529.3	15
529.4	20
529.5	20
529.6	15
529.8	8
529.9	12
530.0	19
530.1	21
530.2	17
530.3	10
530.5	9
530.6	15
530.7	20
530.8	17
530.9	11
531.1	9
531.2	16
531.3	22
531.4	22
531.5	15
531.7	5
531.8	9
531.9	17
532.0	20
532.1	17
532.4	10
532.5	17
532.6	23
532.7	22
532.8	14
533.0	4
533.1	10
533.2	18
533.3	22
533.4	19
533.6	9
533.7	13
533.8	20
533.9	24
534.0	20
534.1	11
534.3	6
534.4	13
534.5	20
534.6	20
534.7	13
534.9	4
535.0	11
535.1	20
535.2	24
535.3	20
535.4	11
535.6	8
535.7	17
535.8	23
535.9	20
536.0	10
536.2	5
536.3	14
536.4	21
536.5	22
536.6	16
536.7	8
536.9	7
537.0	12
537.1	15
537.2	12
537.4	6
537.5	9
537.6	15
537.7	20
537.8	19
537.9	14
538.1	7
538.2	11
538.3	17
538.4	18
538.5	14
538.8	7
538.9	14
539.0	20
539.1	19
539.2	13
539.4	7
539.5	12
539.6	17
539.7	17
539.8	14
540.0	10
540.1	14
540.2	19
540.3	21
540.4	18
540.5	12
540.7	10
540.8	16
540.9	21
541.0	20
541.1	14
541.3	10
541.4	17
541.5	24
541.6	26
541.7	20
541.8	11
542.0	6
542.1	12
542.2	18
542.3	19
542.4	15
542.6	10
542.7	16
542.8	22
542.9	23
543.0	16
543.2	5
543.3	11
543.4	20
543.5	24
543.6	20
543.9	10
544.0	19
544.1	26
544.2	23
544.3	15
544.5	5
544.6	10
544.7	17
544.8	20
544.9	17
545.2	10
545.3	18
545.4	24
545.5	22
545.6	14
545.8	8
545.9	15
546.0	22
546.1	24
546.2	18
547.1	11
547.2	18
547.3	21
547.4	19
547.5	11
547.7	6
547.8	13
547.9	20
548.0	22
548.1	17
548.3	6
548.4	11
548.5	19
548.6	23
548.7	20
548.8	12
549.0	7
549.1	15
549.2	24
549.3	26
549.4	21
550.2	6
550.3	13
550.4	21
550.5	24
550.6	21
550.7	12
550.9	4
551.0	11
551.1	20
551.2	23
551.3	19
551.4	12
551.6	11
551.7	16
551.8	20
551.9	18
552.0	12
552.2	8
552.3	12
552.4	18
552.5	20
552.6	17
552.8	8
552.9	11
553.0	18
553.1	23
553.2	20
553.3	12
553.5	9
553.6	16
553.7	21
553.8	20
553.9	13
554.1	7
554.2	14
554.3	22
554.4	23
554.5	15
554.7	1
554.8	8
554.9	20
555.0	27
555.1	25
555.2	16
555.4	7
555.5	12
555.6	18
555.7	20
555.8	17
556.1	9
556.2	16
556.3	21
556.4	17
556.7	9
556.8	18
556.9	24
557.0	21
557.1	13
557.3	7
557.4	14
557.5	21
557.6	22
557.7	16
558.0	9
558.1	17
558.2	23
558.3	21
558.4	13
558.6	8
558.7	15
558.8	23
558.9	26
559.0	19
559.1	8
559.3	7
559.4	17
559.5	23
559.6	21
559.7	12
559.9	9
560.0	17
560.1	24
560.2	23
560.3	16
560.5	8
560.6	13
560.7	19
560.8	22
560.9	17
561.2	10
561.3	17
561.4	22
561.5	20
561.6	13
561.8	8
561.9	14
562.0	20
562.1	19
562.2	13
562.4	6
562.5	12
562.6	20
562.7	25
562.8	22
562.9	14
563.1	8
563.2	13
563.3	17
563.4	16
563.5	12
563.7	9
563.8	14
563.9	20
564.0	23
564.1	20
564.2	13
564.4	9
564.5	13
564.6	17
564.7	17
564.8	11
565.0	6
565.1	13
565.2	21
565.3	22
565.4	16
566.2	3
566.3	7
566.4	16
566.5	23
566.6	22
566.7	16
567.5	6
567.6	11
567.7	17
567.8	20
567.9	18
568.0	11
568.2	7
568.3	12
568.4	19
568.5	20
568.6	15
568.8	5
568.9	10
569.0	19
569.1	25
569.2	23
569.3	14
569.5	5
569.6	11
569.7	17
569.8	19
569.9	16
570.2	10
570.3	16
570.4	21
570.5	19
570.6	12
570.8	8
570.9	14
571.0	19
571.1	18
571.2	11
571.4	5
571.5	14
571.6	24
571.7	26
571.8	19
572.1	11
572.2	18
572.3	21
572.4	19
572.5	13
572.7	12
572.8	17
572.9	22
573.0	21
573.1	14
573.3	3
573.4	8
573.5	17
573.6	22
573.7	20
573.8	14
574.0	11
574.1	17
574.2	22
574.3	22
574.4	16
574.6	7
574.7	11
574.8	19
574.9	23
575.0	19
575.1	12
575.3	9
575.4	14
575.5	17
575.6	16
575.7	11
575.9	7
576.0	12
576.1	17
576.2	18
576.3	14
576.5	9
576.6	12
576.7	17
576.8	18
576.9	15
577.1	8
577.2	11
577.3	18
577.4	23
577.5	24
577.6	17
577.9	8
578.0	16
578.1	21
578.2	18
578.3	11
578.5	8
578.6	15
578.7	20
578.8	19
578.9	14
579.1	7
579.2	11
579.3	15
579.4	15
579.5	11
579.7	6
579.8	12
579.9	20
580.0	22
580.1	17
580.4	10
580.5	17
580.6	22
580.7	20
580.8	14
581.0	8
581.1	13
581.2	20
581.3	23
581.4	19
581.7	11
581.8	18
581.9	21
582.0	18
582.3	10
582.4	16
582.5	21
582.6	20
582.7	15
582.9	6
583.0	10
583.1	18
583.2	20
583.3	14
583.6	5
583.7	16
583.8	23
583.9	23
584.0	15
584.2	3
584.3	8
584.4	17
584.5	22
584.6	19
584.7	11
584.9	7
585.0	12
585.1	17
585.2	18
585.3	15
585.6	11
585.7	15
585.8	17
585.9	16
586.1	11
586.2	15
586.3	21
586.4	23
586.5	17
586.6	8
586.8	7
586.9	16
587.0	21
587.1	19
587.2	12
587.4	8
587.5	16
587.6	25
587.7	30
587.8	25
587.9	16
588.1	10
588.2	16
588.3	20
588.4	18
588.5	11
588.7	9
588.8	15
588.9	22
589.0	21
589.1	13
589.3	2
589.4	8
589.5	18
589.6	22
589.7	19
589.9	11
590.0	15
590.1	21
590.2	23
590.3	18
590.4	11
590.6	7
590.7	14
590.8	21
590.9	22
591.0	17
591.2	7
591.3	12
591.4	22
591.5	27
591.6	23
591.7	14
591.9	9
592.0	16
592.1	22
592.2	21
592.3	14
592.5	5
592.6	12
592.7	21
592.8	25
592.9	21
593.0	13
593.2	12
593.3	17
593.4	20
593.5	18
593.6	13
593.8	10
593.9	15
594.0	20
594.1	20
594.2	14
594.4	6
594.5	10
594.6	17
594.7	22
594.8	22
594.9	16
595.1	7
595.2	12
595.3	20
595.4	22
595.5	16
595.7	11
595.8	16
595.9	21
596.0	21
596.1	16
596.3	12
596.4	18
596.5	24
596.6	26
596.7	19
596.8	9
597.0	7
597.1	16
597.2	22
597.3	21
597.4	15
597.6	10
597.7	16
597.8	24
597.9	26
598.0	20
598.1	12
598.3	9
598.4	15
598.5	19
598.6	19
598.7	13
598.9	6
599.0	12
599.1	20
599.2	23
599.3	19
599.4	12
