Mass spectrum: Lincomycin; LC-ESI-QQQ; MS2; Frag=135.0V CID@15.0; [M+H]+
Name: Lincomycin
Class: Carbohydrates
Formula: C18H34N2O6S
Exact mass: 406.5455
SMILES: CCC[C@@H]1C[C@@H](C(O)=NC(C(C)O)[C@H]2O[C@H](SC)[C@H](O)[C@@H](O)[C@H]2O)N(C)C1
InChI: InChI=1S/C18H34N2O6S/c1-5-6-10-7-11(20(3)8-10)17(25)19-12(9(2)21)16-14(23)13(22)15(24)18(26-16)27-4/h9-16,18,21-24H,5-8H2,1-4H3,(H,19,25)/t9?,10-,11+,12?,13+,14-,15-,16-,18-/m1/s1
Instrument: Agilent 6410 Triple Quadrupole LC/MS system
Instrument type: LC-ESI-QQQ
Ms type: MS2
Ion mode: POSITIVE
Precursor type: [M+H]+
m/z	relative intensity
125.3	1
125.4	2
125.5	7
125.6	15
125.7	28
125.8	45
125.9	65
126.0	84
126.1	97
126.2	99
126.3	91
126.4	72
126.5	47
126.6	21
126.7	3
358.6	1
358.7	2
358.8	5
358.9	8
359.0	12
359.1	17
359.2	20
359.3	21
359.4	18
359.5	13
359.6	7
359.7	2
406.4	1
406.5	3
406.6	7
406.7	13
406.8	23
406.9	36
407.0	54
407.1	71
407.2	84
407.3	86
407.4	76
407.5	54
407.6	28
407.7	8
407.8	0
