Mass spectrum: 3-Isoreserpine; LC-ESI-QQQ; MS2; Frag=135.0V CID@5.0; [M+H]+
Name: 3-Epireserpine
Name: 3-Isoreserpine
Name: Mepireserpate
Name: (1S,13bS,14aS,4aS,2R,3R)-2,11-dimethoxy-1-(methoxycarbonyl)-1,2,3,4,5,8,14,13b,14a,4a-decahydrobenzo(3,4-g)indolo(2,3-a)quinolizin-3-yl 3,4,5-trimethoxybenzoate
Class: Alkaloids
Formula: C33H40N2O9
Exact mass: 608.6947
SMILES: COC(=O)[C@H]1[C@H]2C[C@H]3c4[nH]c5cc(OC)ccc5c4CCN3C[C@H]2C[C@@H](OC(=O)c2cc(OC)c(OC)c(OC)c2)[C@@H]1OC
InChI: InChI=1S/C33H40N2O9/c1-38-19-7-8-20-21-9-10-35-16-18-13-27(44-32(36)17-11-25(39-2)30(41-4)26(12-17)40-3)31(42-5)28(33(37)43-6)22(18)15-24(35)29(21)34-23(20)14-19/h7-8,11-12,14,18,22,24,27-28,31,34H,9-10,13,15-16H2,1-6H3/t18-,22+,24+,27-,28+,31+/m1/s1
Instrument: Agilent 6410 Triple Quadrupole LC/MS system
Instrument type: LC-ESI-QQQ
Ms type: MS2
Ion mode: POSITIVE
Precursor type: [M+H]+
m/z	relative intensity
608.3	1
608.4	3
608.5	6
608.6	12
608.7	19
608.8	31
608.9	46
609.0	65
609.1	82
609.2	94
609.3	99
609.4	96
609.5	82
609.6	57
609.7	27
609.8	6
609.9	0
