Mass spectrum: Echinatine; LC-ESI-QQQ; MS2; Frag=135.0V CID@25.0; [M+H]+
Name: Echinatine
Class: Alkaloids
Formula: C15H25NO5
Exact mass: 299.3702
SMILES: CC(C)C(O)(C(=O)OCC1=CCN2CC[C@H](O)[C@@H]12)C(C)O
InChI: InChI=1S/C15H25NO5/c1-9(2)15(20,10(3)17)14(19)21-8-11-4-6-16-7-5-12(18)13(11)16/h4,9-10,12-13,17-18,20H,5-8H2,1-3H3/t10?,12-,13+,15?/m0/s1
Instrument: Agilent 6410 Triple Quadrupole LC/MS system
Instrument type: LC-ESI-QQQ
Ms type: MS2
Ion mode: POSITIVE
Precursor type: [M+H]+
m/z	relative intensity
93.5	2
93.6	3
93.7	5
93.8	9
93.9	12
94.0	14
94.1	15
94.2	14
94.3	12
94.4	8
94.5	4
95.6	3
95.7	5
95.8	9
95.9	12
96.0	15
96.1	16
96.2	14
96.3	11
96.4	7
96.5	3
119.4	2
119.5	3
119.6	4
119.7	7
119.8	12
119.9	18
120.0	23
120.1	25
120.2	24
120.3	20
120.4	13
120.5	7
120.6	2
137.2	1
137.3	3
137.4	6
137.5	11
137.6	18
137.7	33
137.8	54
137.9	77
138.0	94
138.1	99
138.2	96
138.3	84
138.4	64
138.5	39
138.6	16
138.9	8
139.0	12
139.1	15
139.2	15
139.3	13
139.4	9
139.5	5
139.6	1
155.3	2
155.4	3
155.5	5
155.6	9
155.7	17
155.8	29
155.9	44
156.0	55
156.1	60
156.2	57
156.3	50
156.4	38
156.5	24
156.6	9
156.7	1
299.7	2
299.8	4
299.9	7
300.0	10
300.1	13
300.2	13
300.3	12
300.4	9
300.5	6
300.6	3
