Mass spectrum: Acarbose; LC-ESI-QQQ; MS2; Frag=135.0V CID@5.0; [M+H]+
Name: Acarbose
Class: Carbohydrates
Formula: C25H43NO18
Exact mass: 645.6174
SMILES: C[C@H]1OC(OC2[C@@H](CO)OC(OC3[C@@H](CO)OC(O)[C@H](O)[C@H]3O)[C@H](O)[C@H]2O)[C@H](O)[C@@H](O)C1N[C@H]1C=C(CO)[C@@H](O)[C@H](O)[C@H]1O
InChI: InChI=1S/C25H43NO18/c1-6-11(26-8-2-7(3-27)12(30)15(33)13(8)31)14(32)19(37)24(40-6)43-22-10(5-29)42-25(20(38)17(22)35)44-21-9(4-28)41-23(39)18(36)16(21)34/h2,6,8-39H,3-5H2,1H3/t6-,8+,9-,10-,11?,12-,13+,14+,15+,16-,17-,18-,19-,20-,21?,22?,23?,24?,25?/m1/s1
Instrument: Agilent 6410 Triple Quadrupole LC/MS system
Instrument type: LC-ESI-QQQ
Ms type: MS2
Ion mode: POSITIVE
Precursor type: [M+H]+
m/z	relative intensity
303.6	1
303.7	2
303.8	3
303.9	5
304.0	6
304.1	7
304.2	7
304.3	6
304.4	4
304.5	2
645.2	0
645.3	1
645.4	5
645.5	10
645.6	18
645.7	28
645.8	41
645.9	59
646.0	77
646.1	92
646.2	99
646.3	98
646.4	87
646.5	66
646.6	38
646.7	13
646.8	0
