Mass spectrum: 16-Oxo-19-beyeranoic acid; LC-ESI-QQQ; MS2; Frag=135.0V CID@10.0; [M+H]+
Name: 16-Oxo-19-beyeranoic acid
Class: Terpenoids
Formula: C20H30O3
Exact mass: 318.4603
SMILES: C[C@@]12CCC3[C@]4(C)CCC[C@@](C)(C(=O)O)C4CC[C@]3(CC1=O)C2
InChI: InChI=1S/C20H30O3/c1-17-9-5-14-18(2)7-4-8-19(3,16(22)23)13(18)6-10-20(14,12-17)11-15(17)21/h13-14H,4-12H2,1-3H3,(H,22,23)/t13?,14?,17-,18+,19+,20-/m0/s1
Instrument: Agilent 6410 Triple Quadrupole LC/MS system
Instrument type: LC-ESI-QQQ
Ms type: MS2
Ion mode: POSITIVE
Precursor type: [M+H]+
m/z	relative intensity
254.7	1
254.8	2
254.9	5
255.0	8
255.1	11
255.2	13
255.3	13
255.4	11
255.5	8
255.6	4
255.7	0
272.5	0
272.6	2
272.7	4
272.8	7
272.9	12
273.0	18
273.1	23
273.2	27
273.3	29
273.4	25
273.5	18
273.6	9
273.7	2
300.7	2
300.8	4
300.9	7
301.0	12
301.1	15
301.2	17
301.3	16
301.4	14
301.5	11
301.6	6
301.7	1
318.4	1
318.5	3
318.6	5
318.7	10
318.8	21
318.9	38
319.0	58
319.1	78
319.2	93
319.3	99
319.4	94
319.5	73
319.6	42
319.7	13
319.8	0
