Mass spectrum: 4-Methylaconitane-1,8,14,16-tetrol, (1alpha,14alpha,16beta)-form, O16-Me, N-Et, tri-Ac; LC-ESI-QQQ; MS2; Frag=135.0V CID@15.0; [M+H]+
Name: 4-Methylaconitane-1,8,14,16-tetrol, (1alpha,14alpha,16beta)-form, O16-Me, N-Et, tri-Ac
Class: Alkaloids
Formula: C28H41NO7
Exact mass: 503.6415
SMILES: CCN1C[C@]2(C)CC[C@H](OC(C)=O)[C@@]34C5C[C@@H]6[C@@H](OC)C[C@@](OC(C)=O)(C5[C@H]6OC(C)=O)[C@@H](CC32)C14
InChI: InChI=1S/C28H41NO7/c1-7-29-13-26(5)9-8-22(34-14(2)30)28-18-10-17-20(33-6)12-27(36-16(4)32,19(25(28)29)11-21(26)28)23(18)24(17)35-15(3)31/h17-25H,7-13H2,1-6H3/t17-,18?,19+,20+,21?,22+,23?,24+,25?,26+,27+,28-/m1/s1
Instrument: Agilent 6410 Triple Quadrupole LC/MS system
Instrument type: LC-ESI-QQQ
Ms type: MS2
Ion mode: POSITIVE
Precursor type: [M+H]+
m/z	relative intensity
443.7	1
443.8	3
443.9	4
444.0	6
444.1	7
444.2	8
444.3	8
444.4	7
444.5	5
444.6	3
503.3	0
503.4	1
503.5	4
503.6	9
503.7	16
503.8	27
503.9	43
504.0	63
504.1	81
504.2	94
504.3	99
504.4	95
504.5	81
504.6	57
504.7	29
504.8	7
504.9	0
