Mass spectrum: Berberine; LC-ESI-QQQ; MS; [M+H]+
Name: Berberine
Class: Alkaloids
Formula: [C20H18NO4]+
Exact mass: 336.3708
SMILES: COc1ccc2cc3[n+](cc2c1OC)CCc1cc2c(cc1-3)OCO2
InChI: InChI=1S/C20H18NO4/c1-22-17-4-3-12-7-16-14-9-19-18(24-11-25-19)8-13(14)5-6-21(16)10-15(12)20(17)23-2/h3-4,7-10H,5-6,11H2,1-2H3/q+1
Instrument: ABSciex API3200 LC/MS system
Instrument type: LC-ESI-QQQ
Ms type: MS
Ion mode: POSITIVE
Precursor type: [M]+
m/z	relative intensity
274.5000	23
274.6000	24
274.7000	27
274.8000	28
274.9000	27
275.0000	33
275.1000	33
275.2000	25
275.3000	22
275.4000	27
277.4000	41
277.5000	66
277.6000	73
277.7000	103
277.8000	104
277.9000	96
278.0000	92
278.1000	92
278.2000	76
278.3000	68
278.4000	45
279.1000	22
290.7000	25
291.0000	23
291.1000	45
291.2000	35
291.3000	95
291.4000	206
291.5000	271
291.6000	340
291.7000	336
291.8000	329
291.9000	362
292.0000	400
292.1000	349
292.2000	285
292.3000	265
292.4000	178
292.5000	113
292.6000	100
292.7000	93
292.8000	100
292.9000	90
293.0000	104
293.1000	100
293.2000	87
293.3000	87
293.4000	70
293.5000	22
293.9000	23
294.0000	56
303.3000	25
303.4000	47
303.5000	94
303.6000	98
303.7000	116
303.8000	110
303.9000	112
304.0000	118
304.1000	126
304.2000	111
304.3000	95
304.4000	70
304.5000	50
304.6000	37
304.7000	45
304.8000	43
304.9000	38
305.0000	34
305.1000	34
305.2000	41
305.3000	71
305.4000	136
305.5000	150
305.6000	179
305.7000	187
305.8000	198
305.9000	185
306.0000	170
306.1000	193
306.2000	154
306.3000	147
306.4000	87
306.5000	166
306.6000	43
306.7000	34
306.8000	37
306.9000	31
307.0000	41
307.1000	42
307.2000	30
307.3000	32
307.4000	23
317.4000	21
317.5000	32
317.6000	30
317.7000	31
317.8000	34
317.9000	42
318.0000	44
318.1000	32
318.2000	32
318.3000	33
319.2000	22
319.3000	171
319.4000	353
319.5000	418
319.6000	446
319.7000	741
319.8000	852
319.9000	230
320.0000	77
320.1000	93
320.2000	230
320.3000	307
320.4000	342
320.5000	382
320.6000	467
320.7000	481
320.8000	480
320.9000	528
321.0000	506
321.1000	500
321.2000	455
321.3000	413
321.4000	264
321.5000	183
321.6000	160
321.7000	204
321.8000	142
321.9000	181
322.0000	177
322.1000	173
322.2000	161
322.3000	146
322.4000	100
322.5000	50
322.6000	34
322.7000	37
322.8000	35
323.0000	29
323.2000	33
323.3000	21
335.2000	41
335.3000	285
335.4000	649
335.5000	880
335.6000	957
335.7000	984
335.8000	969
335.9000	974
336.0000	999
336.1000	964
336.2000	987
336.3000	897
336.4000	827
336.5000	560
336.6000	561
336.7000	534
336.8000	433
336.9000	486
337.0000	459
337.1000	440
337.2000	470
337.3000	442
337.4000	346
337.5000	176
337.6000	157
337.7000	145
337.8000	120
337.9000	129
338.0000	138
338.1000	137
338.2000	128
338.3000	126
338.4000	92
338.5000	29
338.6000	22
338.7000	22
351.5000	25
351.6000	33
351.7000	42
351.8000	37
351.9000	47
352.0000	42
352.1000	42
352.2000	33
352.3000	34
352.4000	26
