Mass spectrum: Cryptopine; LC-ESI-QQQ; MS2; Frag=135.0V CID@10.0; [M+H]+
Name: Cryptopine
Class: Alkaloids
Formula: C21H23NO5
Exact mass: 369.4212
SMILES: COc1cc2c(cc1OC)C(=O)Cc1ccc3c(c1CN(C)CC2)OCO3
InChI: InChI=1S/C21H23NO5/c1-22-7-6-14-9-19(24-2)20(25-3)10-15(14)17(23)8-13-4-5-18-21(16(13)11-22)27-12-26-18/h4-5,9-10H,6-8,11-12H2,1-3H3
Instrument: Agilent 6410 Triple Quadrupole LC/MS system
Instrument type: LC-ESI-QQQ
Ms type: MS2
Ion mode: POSITIVE
Precursor type: [M+H]+
m/z	relative intensity
369.3	0
369.4	2
369.5	5
369.6	10
369.7	19
369.8	33
369.9	54
370.0	75
370.1	92
370.2	99
370.3	96
370.4	79
370.5	53
370.6	24
370.7	3
