Mass spectrum: Progesterone; LC-ESI-QQQ; MS2; Frag=135.0V CID@10.0; [M+H]+
Name: Progesterone
Class: Steroids
Formula: C21H30O2
Exact mass: 314.4721
SMILES: CC(=O)C1CCC2C3CCC4=CC(=O)CC[C@]4(C)C3CC[C@]12C
InChI: InChI=1S/C21H30O2/c1-13(22)17-6-7-18-16-5-4-14-12-15(23)8-10-20(14,2)19(16)9-11-21(17,18)3/h12,16-19H,4-11H2,1-3H3/t16?,17?,18?,19?,20-,21+/m0/s1
Instrument: Agilent 6410 Triple Quadrupole LC/MS system
Instrument type: LC-ESI-QQQ
Ms type: MS2
Ion mode: POSITIVE
Precursor type: [M+H]+
m/z	relative intensity
96.4	1
96.5	2
96.6	4
96.7	7
96.8	12
96.9	16
97.0	20
97.1	20
97.2	19
97.3	17
97.4	13
97.5	7
97.6	2
108.5	1
108.6	2
108.7	5
108.8	7
108.9	10
109.0	13
109.1	14
109.2	13
109.3	12
109.4	8
109.5	4
109.6	1
296.8	1
296.9	3
297.0	4
297.1	6
297.2	7
297.3	7
297.4	6
297.5	4
297.6	2
314.4	1
314.5	3
314.6	6
314.7	11
314.8	21
314.9	36
315.0	58
315.1	81
315.2	96
315.3	99
315.4	91
315.5	71
315.6	43
315.7	16
315.8	0
