Mass spectrum: Demecolcine; LC-ESI-QQQ; MS; [M+H]+
Name: Demecolcine
Class: Alkaloids
Formula: C21H25NO5
Exact mass: 371.4371
SMILES: CN[C@H]1CCc2cc(OC)c(OC)c(OC)c2-c2ccc(OC)c(=O)cc21
InChI: InChI=1S/C21H25NO5/c1-22-15-8-6-12-10-18(25-3)20(26-4)21(27-5)19(12)13-7-9-17(24-2)16(23)11-14(13)15/h7,9-11,15,22H,6,8H2,1-5H3/t15-/m0/s1
Instrument: ABSciex API3200 LC/MS system
Instrument type: LC-ESI-QQQ
Ms type: MS
Ion mode: POSITIVE
Precursor type: [M+H]+
m/z	relative intensity
119.0000	22
119.1000	27
119.2000	31
119.3000	28
238.6000	30
238.7000	21
238.8000	24
238.9000	34
239.0000	29
239.1000	30
239.2000	30
239.3000	26
239.4000	35
239.6000	23
239.7000	21
240.4000	25
240.5000	25
240.6000	22
240.8000	23
241.0000	24
241.1000	29
241.7000	22
250.4000	22
250.5000	25
250.6000	30
250.7000	33
250.8000	35
250.9000	36
251.0000	34
251.1000	35
251.2000	38
251.3000	34
251.4000	41
251.5000	33
251.6000	30
251.7000	35
251.8000	31
251.9000	34
252.0000	32
252.1000	29
252.2000	34
252.3000	26
252.4000	31
252.5000	25
252.6000	23
252.7000	27
252.8000	29
252.9000	25
253.0000	28
253.1000	25
253.2000	26
253.3000	23
253.4000	27
253.5000	21
253.7000	21
254.4000	29
254.5000	39
254.6000	40
254.7000	37
254.8000	37
254.9000	41
255.0000	41
255.1000	36
255.2000	35
255.3000	43
255.4000	42
255.5000	39
255.6000	30
255.7000	33
255.8000	44
255.9000	26
256.1000	21
256.2000	24
256.4000	23
262.9000	26
265.6000	23
265.7000	29
265.8000	28
265.9000	26
266.0000	30
266.1000	22
266.2000	21
266.3000	38
266.4000	71
266.5000	80
266.6000	105
266.7000	99
266.8000	107
266.9000	98
267.0000	112
267.1000	104
267.2000	87
267.3000	80
267.4000	68
267.5000	49
267.6000	54
267.7000	54
267.8000	49
267.9000	37
268.0000	46
268.1000	43
268.2000	42
268.3000	38
268.4000	37
268.5000	28
268.6000	22
268.7000	24
268.8000	25
269.0000	22
269.1000	25
269.3000	27
269.4000	33
269.5000	34
269.6000	36
269.7000	38
269.8000	41
269.9000	34
270.0000	32
270.1000	38
270.2000	35
270.3000	31
270.4000	29
270.8000	21
270.9000	35
271.0000	44
271.1000	22
272.8000	21
272.9000	55
276.9000	26
277.0000	23
277.1000	22
277.3000	24
277.4000	27
277.5000	29
277.6000	36
277.7000	47
277.8000	44
277.9000	45
278.0000	38
278.1000	46
278.2000	34
278.3000	40
278.4000	42
278.5000	39
278.6000	75
278.7000	55
278.8000	60
278.9000	64
279.0000	56
279.1000	52
279.2000	50
279.3000	43
279.4000	47
279.5000	27
279.6000	30
279.7000	33
279.8000	28
279.9000	26
280.0000	27
280.1000	24
280.2000	30
280.3000	27
280.4000	38
280.5000	40
280.6000	48
280.7000	54
280.8000	55
280.9000	60
281.0000	51
281.1000	57
281.2000	58
281.3000	101
281.4000	228
281.5000	329
281.6000	404
281.7000	485
281.8000	450
281.9000	441
282.0000	416
282.1000	410
282.2000	378
282.3000	388
282.4000	356
282.5000	209
282.6000	189
282.7000	167
282.8000	150
282.9000	150
283.0000	155
283.1000	147
283.2000	148
283.3000	128
283.4000	118
283.5000	74
283.6000	75
283.7000	75
283.8000	73
283.9000	85
284.0000	76
284.1000	78
284.2000	73
284.3000	114
284.4000	161
284.5000	203
284.6000	221
284.7000	238
284.8000	234
284.9000	281
285.0000	211
285.1000	223
285.2000	261
285.3000	199
285.4000	123
285.5000	84
285.6000	56
285.7000	59
285.8000	53
285.9000	51
286.0000	49
286.1000	48
286.2000	51
286.3000	40
286.4000	43
286.5000	25
286.6000	24
286.7000	32
286.8000	33
286.9000	31
287.0000	35
287.1000	30
287.2000	28
287.3000	23
287.4000	33
292.5000	23
292.6000	36
293.5000	21
293.6000	30
293.7000	30
293.8000	26
293.9000	30
294.0000	23
294.1000	26
294.2000	27
294.3000	25
294.4000	38
294.5000	42
294.6000	49
294.7000	62
294.8000	64
294.9000	66
295.0000	68
295.1000	64
295.2000	56
295.3000	56
295.4000	46
295.5000	35
295.6000	31
295.7000	28
295.8000	34
295.9000	40
296.0000	32
296.1000	30
296.2000	43
296.3000	30
296.4000	26
296.5000	21
297.1000	41
297.3000	25
297.4000	55
297.5000	65
297.6000	91
297.7000	105
297.8000	104
297.9000	104
298.0000	103
298.1000	104
298.2000	97
298.3000	92
298.4000	83
298.5000	67
298.6000	46
298.7000	47
298.8000	45
298.9000	58
299.0000	44
299.1000	49
299.2000	45
299.3000	42
299.4000	36
299.5000	33
299.6000	39
299.7000	43
299.8000	43
299.9000	41
300.0000	47
300.1000	37
300.2000	39
300.3000	35
300.4000	34
300.5000	23
300.6000	22
300.7000	25
300.8000	25
300.9000	24
301.0000	23
301.2000	24
301.4000	23
307.6000	21
307.7000	27
307.8000	33
307.9000	30
308.1000	25
308.2000	31
308.3000	22
308.4000	40
308.5000	43
308.6000	49
308.7000	70
308.8000	64
308.9000	59
309.0000	59
309.1000	59
309.2000	64
309.3000	66
309.4000	93
309.5000	146
309.6000	174
309.7000	180
309.8000	197
309.9000	149
310.0000	213
310.1000	276
310.2000	301
310.3000	291
310.4000	147
310.5000	86
310.6000	99
310.7000	90
310.8000	106
310.9000	101
311.0000	99
311.1000	102
311.2000	87
311.3000	95
311.4000	179
311.5000	93
311.6000	100
311.7000	103
311.8000	117
311.9000	113
312.0000	108
312.1000	112
312.2000	99
312.3000	168
312.4000	274
312.5000	521
312.6000	708
312.7000	431
312.8000	318
312.9000	262
313.0000	281
313.1000	319
313.2000	369
313.3000	332
313.4000	268
313.5000	181
313.6000	156
313.7000	135
313.8000	126
313.9000	133
314.0000	118
314.1000	122
314.2000	105
314.3000	100
314.4000	89
314.5000	72
314.6000	68
314.7000	66
314.8000	93
314.9000	82
315.0000	79
315.1000	71
315.2000	73
315.3000	58
315.4000	55
315.5000	30
315.6000	25
315.7000	24
315.8000	23
315.9000	27
316.0000	22
322.8000	30
322.9000	24
323.0000	22
323.1000	28
323.3000	25
323.4000	23
323.5000	32
323.6000	39
323.7000	33
323.8000	43
323.9000	41
324.0000	44
324.1000	35
324.2000	40
324.3000	37
324.4000	45
324.5000	46
324.6000	56
324.7000	47
324.8000	48
324.9000	45
325.0000	46
325.1000	46
325.2000	43
325.3000	44
325.4000	61
325.5000	72
325.6000	87
325.7000	83
325.8000	83
325.9000	86
326.0000	88
326.1000	79
326.2000	76
326.3000	85
326.4000	45
326.5000	30
326.6000	24
328.8000	21
329.0000	21
329.1000	22
338.7000	21
338.9000	22
339.3000	29
339.4000	74
339.5000	115
339.6000	150
339.7000	167
339.8000	153
339.9000	168
340.0000	172
340.1000	156
340.2000	153
340.3000	249
340.4000	389
340.5000	504
340.6000	552
340.7000	546
340.8000	554
340.9000	582
341.0000	577
341.1000	541
341.2000	511
341.3000	491
341.4000	429
341.5000	253
341.6000	217
341.7000	204
341.8000	199
341.9000	189
342.0000	204
342.1000	195
342.2000	183
342.3000	170
342.4000	131
342.5000	68
342.6000	63
342.7000	47
342.8000	44
342.9000	51
343.0000	43
343.1000	47
343.2000	46
343.3000	37
343.4000	44
343.5000	33
343.6000	43
343.7000	39
343.8000	43
343.9000	36
344.0000	45
344.1000	39
344.2000	34
344.3000	30
344.4000	29
353.4000	21
353.5000	50
353.6000	64
353.7000	72
353.8000	73
353.9000	83
354.0000	77
354.1000	80
354.2000	80
354.3000	68
354.4000	55
354.5000	29
354.7000	27
354.9000	22
356.5000	24
356.6000	21
356.7000	25
356.8000	28
356.9000	23
357.0000	26
357.1000	27
357.2000	25
371.2000	31
371.3000	337
371.4000	623
371.5000	854
371.6000	928
371.7000	933
371.8000	960
371.9000	983
372.0000	999
372.1000	992
372.2000	945
372.3000	878
372.4000	809
372.5000	539
372.6000	532
372.7000	499
372.8000	484
372.9000	500
373.0000	491
373.1000	500
373.2000	504
373.3000	481
373.4000	456
373.5000	204
373.6000	150
373.7000	143
373.8000	139
373.9000	144
374.0000	132
374.1000	135
374.2000	128
374.3000	125
374.4000	98
374.5000	62
374.6000	22
374.8000	22
375.0000	23
375.2000	22
742.6000	25
742.7000	28
742.8000	34
742.9000	34
743.0000	31
743.1000	37
743.2000	30
743.3000	22
