Mass spectrum: Scopolamine; LC-ESI-QQQ; MS2; Frag=135.0V CID@15.0; [M+H]+
Name: Scopolamine
Class: Alkaloids
Formula: C17H21NO4
Exact mass: 303.3612
SMILES: CN1C2CC(OC(=O)C(CO)c3ccccc3)CC1[C@H]1OC21
InChI: InChI=1S/C17H21NO4/c1-18-13-7-11(8-14(18)16-15(13)22-16)21-17(20)12(9-19)10-5-3-2-4-6-10/h2-6,11-16,19H,7-9H2,1H3/t11?,12?,13?,14?,15-,16?/m1/s1
Instrument: Agilent 6410 Triple Quadrupole LC/MS system
Instrument type: LC-ESI-QQQ
Ms type: MS2
Ion mode: POSITIVE
Precursor type: [M+H]+
m/z	relative intensity
97.6	1
97.7	3
97.8	5
97.9	7
98.0	8
98.1	8
98.2	7
98.3	6
98.4	3
102.7	2
102.8	3
102.9	5
103.0	5
103.1	5
103.2	4
103.3	3
109.6	2
109.7	3
109.8	6
109.9	8
110.0	10
110.1	11
110.2	10
110.3	9
110.4	6
110.5	3
120.4	2
120.5	3
120.6	6
120.7	11
120.8	18
120.9	24
121.0	28
121.1	28
121.2	27
121.3	23
121.4	17
121.5	9
121.6	3
137.2	1
137.3	4
137.4	7
137.5	12
137.6	19
137.7	32
137.8	52
137.9	75
138.0	92
138.1	99
138.2	95
138.3	81
138.4	59
138.5	33
138.6	10
138.7	0
155.2	1
155.3	2
155.4	5
155.5	8
155.6	14
155.7	26
155.8	45
155.9	69
156.0	89
156.1	99
156.2	98
156.3	87
156.4	67
156.5	40
156.6	14
156.7	0
303.4	2
303.5	4
303.6	7
303.7	13
303.8	23
303.9	38
304.0	53
304.1	63
304.2	66
304.3	59
304.4	46
304.5	28
304.6	11
304.7	1
