Mass spectrum: Salutaridine; LC-ESI-QQQ; MS2; Frag=135.0V CID@15.0; [M+H]+
Name: Salutaridine
Class: Alkaloids
Formula: C19H21NO4
Exact mass: 327.3835
SMILES: COC1=CC23CCN(C)C(Cc4ccc(OC)c(O)c42)C3=CC1=O
InChI: InChI=1S/C19H21NO4/c1-20-7-6-19-10-16(24-3)14(21)9-12(19)13(20)8-11-4-5-15(23-2)18(22)17(11)19/h4-5,9-10,13,22H,6-8H2,1-3H3
Instrument: Agilent 6410 Triple Quadrupole LC/MS system
Instrument type: LC-ESI-QQQ
Ms type: MS2
Ion mode: POSITIVE
Precursor type: [M+H]+
m/z	relative intensity
57.4	1
57.5	2
57.6	5
57.7	9
57.8	14
57.9	20
58.0	24
58.1	26
58.2	24
58.3	21
58.4	15
58.5	8
58.6	2
191.7	2
191.8	4
191.9	6
192.0	8
192.1	8
192.2	9
192.3	8
192.4	6
192.5	3
210.7	2
210.8	3
210.9	4
211.0	5
211.1	5
211.2	6
211.3	5
211.4	4
211.5	2
236.6	1
236.7	3
236.8	5
236.9	8
237.0	10
237.1	12
237.2	12
237.3	11
237.4	8
237.5	4
237.6	1
238.6	2
238.7	3
238.8	5
238.9	8
239.0	10
239.1	10
239.2	10
239.3	9
239.4	6
239.5	3
264.6	1
264.7	2
264.8	4
264.9	6
265.0	8
265.1	8
265.2	8
265.3	7
265.4	5
265.5	3
284.6	1
284.7	2
284.8	4
284.9	6
285.0	8
285.1	9
285.2	9
285.3	8
285.4	6
285.5	3
327.3	0
327.4	2
327.5	5
327.6	11
327.7	20
327.8	34
327.9	53
328.0	73
328.1	91
328.2	99
328.3	97
328.4	81
328.5	54
328.6	24
328.7	3
