Mass spectrum: Laevopimaric acid; LC-ESI-QQQ; MS2; Frag=135.0V CID@15.0; [M+H]+
Name: Laevopimaric acid
Class: Terpenoids
Formula: C20H30O2
Exact mass: 302.4609
SMILES: CC(C)C1=CCC2C(=C1)CCC1[C@](C)(C(=O)O)CCC[C@]21C
InChI: InChI=1S/C20H30O2/c1-13(2)14-6-8-16-15(12-14)7-9-17-19(16,3)10-5-11-20(17,4)18(21)22/h6,12-13,16-17H,5,7-11H2,1-4H3,(H,21,22)/t16?,17?,19-,20-/m1/s1
Instrument: Agilent 6410 Triple Quadrupole LC/MS system
Instrument type: LC-ESI-QQQ
Ms type: MS2
Ion mode: POSITIVE
Precursor type: [M+H]+
m/z	relative intensity
80.3	4
80.4	6
80.5	9
80.6	9
80.7	9
80.8	8
80.9	8
81.0	9
81.1	10
81.2	11
81.3	10
92.4	5
92.5	7
92.6	8
92.7	9
92.8	9
92.9	9
93.0	10
93.1	10
93.2	9
93.3	8
106.3	4
106.4	6
106.5	11
106.6	19
106.7	24
106.8	22
106.9	18
107.0	18
107.1	21
107.2	21
107.3	15
107.4	9
107.5	4
108.5	5
108.6	7
108.7	13
108.8	22
108.9	27
109.0	21
109.1	11
109.2	5
120.6	3
120.7	6
120.8	9
120.9	12
121.0	11
121.1	7
122.4	5
122.5	10
122.6	20
122.7	31
122.8	35
122.9	35
123.0	34
123.1	33
123.2	29
123.3	21
123.4	11
123.5	5
132.7	3
132.8	6
132.9	14
133.0	23
133.1	25
133.2	18
133.3	9
134.6	8
134.7	12
134.8	18
134.9	23
135.0	21
135.1	14
135.2	7
137.1	7
137.2	10
137.3	15
137.4	19
137.5	17
137.6	12
137.7	7
148.9	3
149.0	11
149.1	25
149.2	37
149.3	37
149.4	26
149.5	13
149.6	5
184.5	6
184.6	8
184.7	10
184.8	11
184.9	9
192.3	4
192.4	6
192.5	8
192.6	8
200.6	5
200.7	6
200.8	7
200.9	14
201.0	37
201.1	71
201.2	92
201.3	81
201.4	45
201.5	12
201.6	0
256.7	2
256.8	2
256.9	10
257.0	29
257.1	53
257.2	67
257.3	61
257.4	40
257.5	17
257.6	6
302.4	2
302.5	7
302.6	17
302.7	35
302.8	53
302.9	58
303.0	49
303.1	33
303.2	19
303.3	10
303.4	5
