Mass spectrum: Cyclo(phenylalanylleucyl),  (3S,6S)-form; LC-ESI-QQQ; MS2; Frag=135.0V CID@5.0; [M+H]+
Name: Cyclo(phenylalanylleucyl),  (3S,6S)-form
Class: Aminoacids and peptides
Formula: C15H20N2O2
Exact mass: 260.3389
SMILES: CC(C)C[C@@H]1N=C(O)[C@H](Cc2ccccc2)N=C1O
InChI: InChI=1S/C15H20N2O2/c1-10(2)8-12-14(18)17-13(15(19)16-12)9-11-6-4-3-5-7-11/h3-7,10,12-13H,8-9H2,1-2H3,(H,16,19)(H,17,18)/t12-,13-/m0/s1
Instrument: Agilent 6410 Triple Quadrupole LC/MS system
Instrument type: LC-ESI-QQQ
Ms type: MS2
Ion mode: POSITIVE
Precursor type: [M+H]+
m/z	relative intensity
85.6	2
85.7	4
85.8	5
85.9	7
86.0	9
86.1	10
86.2	9
86.3	8
86.4	6
86.5	2
119.4	0
119.5	2
119.6	5
119.7	10
119.8	15
119.9	19
120.0	21
120.1	22
120.2	21
120.3	18
120.4	13
120.5	7
120.6	2
232.6	1
232.7	2
232.8	4
232.9	7
233.0	9
233.1	11
233.2	11
233.3	10
233.4	7
233.5	4
233.6	1
260.2	1
260.3	3
260.4	6
260.5	9
260.6	12
260.7	17
260.8	28
260.9	49
261.0	74
261.1	93
261.2	99
261.3	90
261.4	68
261.5	41
261.6	16
261.7	1
