Mass spectrum: Tschimganin; LC-ESI-QQQ; MS2; Frag=135.0V CID@10.0; [M+Na]+
Name: Tschimganin
Class: Terpenoids
Formula: C18H24O4
Exact mass: 304.3896
SMILES: COc1cc(C(=O)OC2CC3CCC2(C)C3(C)C)ccc1O
InChI: InChI=1S/C18H24O4/c1-17(2)12-7-8-18(17,3)15(10-12)22-16(20)11-5-6-13(19)14(9-11)21-4/h5-6,9,12,15,19H,7-8,10H2,1-4H3
Instrument: Agilent 6410 Triple Quadrupole LC/MS system
Instrument type: LC-ESI-QQQ
Ms type: MS2
Ion mode: POSITIVE
Precursor type: [M+Na]+
m/z	relative intensity
190.4	2
190.5	4
190.6	8
190.7	12
190.8	12
190.9	9
191.0	5
326.5	0
326.6	2
326.7	14
326.8	38
326.9	70
327.0	93
327.1	98
327.2	91
327.3	78
327.4	62
327.5	39
327.6	20
327.7	5
