Mass spectrum: Haplophyllidine; LC-ESI-QQQ; MS; [M+H]+
Name: Haplophyllidine
Class: Alkaloids
Formula: C18H23NO4
Exact mass: 317.3883
SMILES: COc1c2c(nc3occc13)C(CC=C(C)C)(OC)C(O)CC2
InChI: InChI=1S/C18H23NO4/c1-11(2)7-9-18(22-4)14(20)6-5-12-15(21-3)13-8-10-23-17(13)19-16(12)18/h7-8,10,14,20H,5-6,9H2,1-4H3
Instrument: ABSciex API3200 LC/MS system
Instrument type: LC-ESI-QQQ
Ms type: MS
Ion mode: POSITIVE
Precursor type: [M+H]+
m/z	relative intensity
172.6000	25
172.7000	21
173.4000	26
173.5000	22
173.6000	22
173.7000	21
174.0000	54
175.5000	32
175.6000	28
175.7000	63
175.8000	56
175.9000	61
176.0000	53
176.1000	61
176.2000	63
176.3000	49
176.4000	40
185.4000	21
185.6000	24
185.7000	22
185.8000	25
185.9000	29
186.0000	28
186.1000	22
186.4000	21
186.5000	24
186.7000	26
186.9000	21
187.0000	25
187.2000	21
187.3000	27
187.4000	95
187.5000	192
187.6000	179
187.7000	205
187.8000	241
187.9000	399
188.0000	609
188.1000	153
188.2000	86
188.3000	93
188.4000	99
188.5000	57
188.6000	53
188.7000	48
188.8000	55
188.9000	44
189.0000	57
189.1000	47
189.2000	46
189.3000	49
189.4000	72
189.5000	44
189.6000	51
189.7000	49
189.8000	63
189.9000	51
190.0000	40
190.1000	42
190.2000	43
190.3000	37
190.4000	33
199.4000	43
199.5000	62
199.6000	82
199.7000	91
199.8000	92
199.9000	114
200.0000	94
200.1000	98
200.2000	98
200.3000	91
200.4000	97
200.5000	40
200.7000	22
200.9000	24
201.3000	47
201.4000	116
201.5000	186
201.6000	216
201.7000	243
201.8000	243
201.9000	256
202.0000	239
202.1000	234
202.2000	208
202.3000	183
202.4000	183
202.5000	75
202.6000	49
202.7000	39
202.8000	47
202.9000	55
203.0000	42
203.1000	39
203.2000	36
203.3000	33
203.4000	30
213.6000	22
213.8000	44
213.9000	38
214.0000	29
215.4000	21
215.5000	24
215.6000	32
215.7000	35
215.8000	45
215.9000	42
216.0000	49
216.1000	39
216.2000	42
216.3000	42
216.4000	36
216.5000	31
216.6000	28
216.7000	32
216.8000	35
216.9000	44
217.0000	31
217.1000	39
217.2000	102
217.3000	349
217.4000	760
217.5000	878
217.6000	979
217.7000	999
217.8000	947
217.9000	987
218.0000	989
218.1000	942
218.2000	982
218.3000	942
218.4000	879
218.5000	578
218.6000	416
218.7000	329
218.8000	359
218.9000	363
219.0000	368
219.1000	359
219.2000	351
219.3000	309
219.4000	264
219.5000	110
219.6000	70
219.7000	38
219.8000	53
219.9000	58
220.0000	60
220.1000	57
220.2000	51
220.3000	44
220.4000	38
225.5000	37
225.6000	27
225.8000	25
225.9000	22
226.0000	24
226.1000	26
226.2000	27
226.3000	22
227.5000	25
227.6000	28
227.7000	124
227.8000	38
227.9000	42
228.0000	34
228.1000	46
228.2000	49
228.3000	34
228.4000	30
229.3000	65
229.4000	194
229.5000	314
229.6000	404
229.7000	464
229.8000	409
229.9000	406
230.0000	435
230.1000	407
230.2000	397
230.3000	357
230.4000	271
230.5000	107
230.6000	78
230.7000	68
230.8000	84
230.9000	67
231.0000	78
231.1000	67
231.2000	60
231.3000	62
231.4000	45
231.5000	23
239.6000	30
239.7000	25
239.8000	33
239.9000	35
240.0000	40
240.1000	38
240.2000	34
240.3000	26
240.4000	28
241.6000	26
241.7000	25
241.8000	26
241.9000	29
242.0000	24
242.1000	25
242.2000	29
242.3000	34
242.4000	24
243.6000	23
243.8000	23
243.9000	21
267.4000	108
267.5000	197
267.6000	242
267.7000	244
267.8000	233
267.9000	265
268.0000	225
268.1000	229
268.2000	240
268.3000	220
268.4000	231
268.5000	108
268.6000	77
268.7000	84
268.8000	66
268.9000	48
269.0000	34
269.1000	48
269.2000	37
269.3000	37
269.4000	47
269.5000	23
285.2000	30
285.3000	80
285.4000	558
285.5000	855
285.6000	890
285.7000	879
285.8000	946
285.9000	949
286.0000	935
286.1000	932
286.2000	933
286.3000	929
286.4000	870
286.5000	615
286.6000	516
286.7000	506
286.8000	488
286.9000	559
287.0000	704
287.1000	608
287.2000	456
287.3000	478
287.4000	456
287.5000	235
287.6000	185
287.7000	149
287.8000	107
287.9000	114
288.0000	113
288.1000	128
288.2000	110
288.3000	100
288.4000	119
288.5000	37
288.6000	22
317.4000	69
317.5000	172
317.6000	277
317.7000	310
317.8000	310
317.9000	354
318.0000	354
318.1000	289
318.2000	350
318.3000	376
318.4000	305
318.5000	159
318.6000	126
318.7000	159
318.8000	116
318.9000	226
319.0000	282
319.1000	306
319.2000	306
319.3000	284
319.4000	261
319.5000	152
319.6000	82
319.7000	63
319.8000	43
319.9000	31
320.0000	37
320.1000	40
320.2000	26
320.3000	30
320.4000	25
