Mass spectrum: Samarcandin; LC-ESI-QQQ; MS; [M+H]+
Name: Samarcandin
Class: Benzopyranoids
Formula: C24H32O5
Exact mass: 400.5196
SMILES: CC1(C)[C@@H](O)CC[C@]2(C)[C@@H]1CC[C@](C)(O)[C@H]2COc1ccc2ccc(=O)oc2c1
InChI: InChI=1S/C24H32O5/c1-22(2)18-9-12-24(4,27)19(23(18,3)11-10-20(22)25)14-28-16-7-5-15-6-8-21(26)29-17(15)13-16/h5-8,13,18-20,25,27H,9-12,14H2,1-4H3/t18-,19+,20+,23-,24+/m1/s1
Instrument: ABSciex API3200 LC/MS system
Instrument type: LC-ESI-QQQ
Ms type: MS
Ion mode: POSITIVE
Precursor type: [M+H]+
m/z	relative intensity
100.4000	22
119.5000	22
132.7000	25
133.1000	24
133.2000	23
146.9000	23
162.4000	30
162.5000	50
162.6000	57
162.7000	62
162.8000	71
162.9000	56
163.0000	60
163.1000	63
163.2000	43
163.3000	34
163.4000	31
202.5000	77
202.6000	116
202.7000	132
202.8000	144
202.9000	171
203.0000	160
203.1000	172
203.2000	147
203.3000	166
203.4000	137
203.5000	148
203.6000	59
203.7000	51
203.8000	31
203.9000	41
204.0000	35
204.1000	29
204.2000	27
204.3000	26
204.4000	24
254.8000	24
268.7000	25
268.8000	29
268.9000	23
269.0000	23
364.4000	23
364.5000	44
364.6000	85
364.7000	108
364.8000	112
364.9000	93
365.0000	100
365.1000	108
365.2000	102
365.3000	144
365.4000	130
365.5000	42
365.6000	44
365.7000	28
365.8000	29
365.9000	24
366.0000	35
366.1000	38
366.2000	25
366.3000	21
366.4000	30
382.4000	38
382.5000	115
382.6000	210
382.7000	205
382.8000	224
382.9000	222
383.0000	238
383.1000	241
383.2000	241
383.3000	177
383.4000	188
383.5000	99
383.6000	55
383.7000	63
383.8000	55
383.9000	60
384.0000	63
384.1000	62
384.2000	68
384.3000	74
384.4000	49
384.5000	28
400.3000	22
400.4000	144
400.5000	415
400.6000	618
400.7000	608
400.8000	618
400.9000	643
401.0000	999
401.1000	634
401.2000	605
401.3000	548
401.4000	456
401.5000	296
401.6000	211
401.7000	228
401.8000	188
401.9000	194
402.0000	215
402.1000	186
402.2000	193
402.3000	198
402.4000	172
402.5000	85
402.6000	48
402.7000	53
402.8000	43
402.9000	104
403.0000	111
403.1000	28
403.2000	34
403.3000	22
403.4000	27
544.5000	42
544.6000	48
544.7000	44
544.8000	66
544.9000	52
545.0000	57
545.1000	62
545.2000	49
545.3000	53
545.4000	24
546.0000	22
546.1000	24
562.7000	21
562.8000	27
562.9000	27
563.0000	32
563.1000	24
563.2000	28
563.3000	21
764.5000	33
764.6000	51
764.7000	46
764.8000	54
764.9000	62
765.0000	58
765.1000	87
765.2000	79
765.3000	67
765.4000	61
765.5000	47
765.6000	42
765.7000	38
765.8000	48
765.9000	54
766.0000	48
766.1000	49
766.2000	43
766.3000	45
766.4000	32
782.5000	41
782.6000	41
782.7000	66
782.8000	61
782.9000	74
783.0000	93
783.1000	69
783.2000	72
783.3000	79
783.4000	54
783.5000	39
783.6000	37
783.7000	37
783.8000	43
783.9000	36
784.0000	44
784.1000	46
784.2000	39
784.3000	28
784.4000	32
800.3000	31
800.4000	30
800.5000	136
800.6000	231
800.7000	219
800.8000	278
800.9000	292
801.0000	273
801.1000	290
801.2000	237
801.3000	271
801.4000	224
801.5000	173
801.6000	136
801.7000	172
801.8000	140
801.9000	145
802.0000	149
802.1000	176
802.2000	143
802.3000	159
802.4000	122
802.5000	66
802.6000	44
802.7000	50
802.8000	42
802.9000	48
803.0000	52
803.1000	49
803.2000	58
803.3000	31
803.4000	34
1200.6000	35
1200.7000	27
1200.8000	36
1200.9000	31
1201.0000	47
1201.1000	50
1201.2000	59
1201.3000	53
1201.4000	47
1201.5000	47
1201.6000	27
1201.7000	30
1201.8000	27
1201.9000	46
1202.0000	36
1202.1000	32
1202.2000	32
1202.3000	50
1202.4000	29
1202.5000	25
