Mass spectrum: Ecdysterone 22-O-benzoate; LC-ESI-QQQ; MS2; Frag=135.0V CID@25.0; [M+H]+
Name: Ecdysterone 22-O-benzoate
Class: Steroids
Formula: C34H48O8
Exact mass: 584.7569
SMILES: CC(C)(O)CC[C@H](OC(=O)c1ccccc1)[C@](C)(O)C1CC[C@@]2(O)C3=CC(=O)C4CC(O)C(O)C[C@]4(C)C3CC[C@]12C
InChI: InChI=1S/C34H48O8/c1-30(2,39)14-13-28(42-29(38)20-9-7-6-8-10-20)33(5,40)27-12-16-34(41)22-17-24(35)23-18-25(36)26(37)19-31(23,3)21(22)11-15-32(27,34)4/h6-10,17,21,23,25-28,36-37,39-41H,11-16,18-19H2,1-5H3/t21?,23?,25?,26?,27?,28-,31+,32+,33+,34+/m0/s1
Instrument: Agilent 6410 Triple Quadrupole LC/MS system
Instrument type: LC-ESI-QQQ
Ms type: MS2
Ion mode: POSITIVE
Precursor type: [M+H]+
m/z	relative intensity
68.4	0
68.5	2
68.6	6
68.7	11
68.8	15
68.9	18
69.0	18
69.1	17
69.2	12
69.3	6
69.4	2
80.5	1
80.6	3
80.7	5
80.8	6
80.9	7
81.0	9
81.1	10
81.2	9
81.3	7
81.4	3
92.4	1
92.5	2
92.6	4
92.7	5
92.8	6
92.9	6
93.0	6
93.1	4
93.2	2
94.7	3
94.8	5
94.9	7
95.0	7
95.1	7
95.2	6
95.3	4
95.4	2
96.4	1
96.5	3
96.6	7
96.7	11
96.8	14
96.9	15
97.0	16
97.1	14
97.2	10
97.3	6
97.4	3
98.3	2
98.4	2
98.5	4
98.6	6
98.7	10
98.8	13
98.9	14
99.0	14
99.1	13
99.2	11
99.3	7
99.4	2
104.1	1
104.2	2
104.3	6
104.4	13
104.5	23
104.6	36
104.7	51
104.8	67
104.9	83
105.0	94
105.1	99
105.2	94
105.3	75
105.4	43
105.5	13
105.6	0
106.3	1
106.4	3
106.5	6
106.6	12
106.7	19
106.8	21
106.9	19
107.0	15
107.1	14
107.2	15
107.3	14
107.4	9
107.5	3
108.4	2
108.5	3
108.6	6
108.7	9
108.8	12
108.9	15
109.0	15
109.1	14
109.2	11
109.3	8
109.4	5
109.5	2
110.6	1
110.7	2
110.8	4
110.9	6
111.0	7
111.1	5
111.2	3
120.5	0
120.6	2
120.7	4
120.8	7
120.9	9
121.0	10
121.1	8
121.2	5
121.3	3
122.3	1
122.4	3
122.5	5
122.6	6
122.7	7
122.8	7
122.9	7
123.0	9
123.1	11
123.2	11
123.3	8
123.4	4
123.5	1
124.3	1
124.4	2
124.5	4
124.6	6
124.7	9
124.8	14
124.9	20
125.0	22
125.1	21
125.2	17
125.3	13
125.4	9
125.5	5
125.6	2
126.4	0
126.5	2
126.6	4
126.7	7
126.8	10
126.9	10
127.0	7
127.1	3
132.9	3
133.0	4
133.1	5
133.2	6
133.3	5
133.4	3
134.3	1
134.4	3
134.5	4
134.6	4
134.7	5
134.8	7
134.9	10
135.0	13
135.1	12
135.2	7
135.3	3
138.6	0
138.7	2
138.8	5
138.9	9
139.0	11
139.1	9
139.2	5
139.3	1
142.7	2
142.8	3
142.9	4
143.0	5
143.1	5
143.2	3
143.3	2
144.7	1
144.8	2
144.9	4
145.0	5
145.1	4
145.2	3
146.6	3
146.7	4
146.8	10
146.9	18
147.0	24
147.1	23
147.2	18
147.3	11
147.4	6
147.5	2
148.4	1
148.5	2
148.6	4
148.7	7
148.8	10
148.9	14
149.0	17
149.1	20
149.2	20
149.3	16
149.4	10
149.5	4
149.6	0
150.6	0
150.7	2
150.8	4
150.9	6
151.0	7
151.1	5
154.5	1
154.6	2
154.7	4
154.8	5
154.9	7
155.0	6
155.1	5
155.2	2
156.6	1
156.7	2
156.8	4
156.9	5
157.0	5
157.1	4
158.8	4
158.9	5
159.0	7
159.1	10
159.2	11
159.3	10
159.4	6
159.5	2
160.3	1
160.4	3
160.5	4
160.6	6
160.7	7
160.8	7
160.9	8
161.0	10
161.1	12
161.2	13
161.3	10
161.4	6
161.5	2
162.5	1
162.6	3
162.7	6
162.8	7
162.9	8
163.0	9
163.1	9
163.2	10
163.3	9
163.4	7
163.5	3
164.1	0
164.2	2
164.3	7
164.4	12
164.5	15
164.6	17
164.7	23
164.8	38
164.9	59
165.0	76
165.1	84
165.2	84
165.3	75
165.4	56
165.5	30
165.6	8
165.7	0
170.5	0
170.6	1
170.7	5
170.8	8
170.9	10
171.0	9
171.1	7
171.2	6
171.3	5
171.4	4
171.5	2
172.5	1
172.6	3
172.7	5
172.8	8
172.9	11
173.0	13
173.1	13
173.2	13
173.3	11
173.4	8
173.5	3
174.6	0
174.7	1
174.8	4
174.9	9
175.0	13
175.1	14
175.2	13
175.3	10
175.4	7
175.5	4
175.6	1
176.4	1
176.5	2
176.6	4
176.7	6
176.8	9
176.9	11
177.0	13
177.1	15
177.2	16
177.3	14
177.4	8
177.5	2
184.7	1
184.8	2
184.9	3
185.0	4
185.1	4
185.2	3
186.6	1
186.7	2
186.8	5
186.9	10
187.0	14
187.1	16
187.2	15
187.3	11
187.4	6
187.5	2
188.5	1
188.6	2
188.7	5
188.8	9
188.9	11
189.0	10
189.1	7
189.2	4
189.3	3
190.6	0
190.7	1
190.8	5
190.9	13
191.0	21
191.1	25
191.2	23
191.3	16
191.4	7
191.5	2
194.4	0
194.5	2
194.6	4
194.7	7
194.8	9
194.9	8
195.0	5
195.1	2
196.4	1
196.5	2
196.6	4
196.7	5
196.8	6
196.9	6
197.0	6
197.1	8
197.2	8
197.3	6
197.4	3
198.6	1
198.7	2
198.8	5
198.9	9
199.0	11
199.1	10
199.2	7
199.3	5
199.4	4
199.5	3
199.6	2
204.7	2
204.8	4
204.9	7
205.0	9
205.1	9
205.2	8
205.3	6
205.4	4
205.5	2
206.9	1
207.0	2
207.1	3
207.2	4
207.3	3
207.4	2
210.5	0
210.6	1
210.7	3
210.8	6
210.9	8
211.0	8
211.1	6
211.2	4
211.3	2
212.6	2
212.7	4
212.8	5
212.9	6
213.0	7
213.1	6
213.2	5
213.3	3
214.6	1
214.7	3
214.8	6
214.9	10
215.0	13
215.1	14
215.2	13
215.3	10
215.4	6
215.5	3
216.7	3
216.8	4
216.9	7
217.0	10
217.1	11
217.2	8
217.3	4
217.4	1
220.6	0
220.7	1
220.8	3
220.9	5
221.0	6
221.1	4
221.2	2
222.7	2
222.8	3
222.9	5
223.0	6
223.1	6
223.2	4
223.3	2
224.9	3
225.0	4
225.1	6
225.2	6
225.3	5
225.4	3
228.5	1
228.6	2
228.7	5
228.8	6
228.9	5
229.0	3
230.5	1
230.6	3
230.7	5
230.8	7
230.9	10
231.0	12
231.1	12
231.2	9
231.3	5
231.4	3
232.6	1
232.7	3
232.8	5
232.9	7
233.0	9
233.1	13
233.2	14
233.3	11
233.4	7
233.5	4
233.6	3
236.6	1
236.7	2
236.8	5
236.9	7
237.0	7
237.1	6
237.2	4
237.3	2
238.7	2
238.8	3
238.9	4
239.0	5
239.1	5
239.2	5
239.3	4
239.4	3
240.6	2
240.7	3
240.8	4
240.9	5
241.0	5
241.1	4
241.2	3
244.8	1
244.9	2
245.0	4
245.1	4
245.2	3
246.7	1
246.8	3
246.9	6
247.0	8
247.1	8
247.2	7
247.3	6
247.4	4
247.5	2
248.4	0
248.5	2
248.6	5
248.7	10
248.8	15
248.9	18
249.0	19
249.1	16
249.2	11
249.3	5
249.4	2
252.7	1
252.8	3
252.9	5
253.0	8
253.1	9
253.2	7
253.3	4
253.4	1
254.5	1
254.6	2
254.7	5
254.8	8
254.9	10
255.0	12
255.1	11
255.2	9
255.3	6
255.4	3
262.6	2
262.7	3
262.8	4
262.9	6
263.0	9
263.1	11
263.2	10
263.3	8
263.4	4
263.5	1
264.6	0
264.7	1
264.8	4
264.9	7
265.0	11
265.1	15
265.2	17
265.3	16
265.4	10
265.5	3
266.5	2
266.6	3
266.7	4
266.8	5
266.9	4
267.0	3
267.1	3
267.2	4
267.3	5
267.4	4
267.5	2
273.0	0
273.1	1
273.2	4
273.3	6
273.4	6
273.5	4
273.6	2
276.6	0
276.7	2
276.8	5
276.9	7
277.0	8
277.1	6
277.2	3
278.5	1
278.6	2
278.7	6
278.8	10
278.9	13
279.0	13
279.1	11
279.2	8
279.3	6
279.4	4
279.5	2
280.8	1
280.9	2
281.0	3
281.1	4
281.2	4
281.3	2
282.6	1
282.7	2
282.8	6
282.9	12
283.0	18
283.1	21
283.2	18
283.3	12
283.4	6
283.5	3
284.6	1
284.7	3
284.8	5
284.9	7
285.0	7
285.1	6
285.2	6
285.3	6
285.4	5
285.5	3
292.8	2
292.9	3
293.0	5
293.1	5
293.2	4
294.4	1
294.5	2
294.6	4
294.7	5
294.8	8
294.9	11
295.0	13
295.1	15
295.2	15
295.3	13
295.4	9
295.5	5
295.6	1
298.4	1
298.5	3
298.6	5
298.7	6
298.8	7
298.9	8
299.0	7
299.1	6
299.2	3
300.4	1
300.5	3
300.6	5
300.7	9
300.8	16
300.9	27
301.0	38
301.1	44
301.2	44
301.3	37
301.4	26
301.5	14
301.6	5
301.7	1
302.2	0
302.3	2
302.4	5
302.5	8
302.6	10
302.7	10
302.8	13
302.9	20
303.0	30
303.1	39
303.2	44
303.3	40
303.4	26
303.5	10
303.6	1
310.7	1
310.8	3
310.9	6
311.0	8
311.1	9
311.2	9
311.3	6
311.4	3
312.5	0
312.6	2
312.7	4
312.8	7
312.9	8
313.0	8
313.1	9
313.2	10
313.3	11
313.4	9
313.5	6
313.6	2
318.6	0
318.7	2
318.8	5
318.9	7
319.0	6
319.1	4
319.2	2
322.7	1
322.8	2
322.9	6
323.0	12
323.1	15
323.2	13
323.3	7
323.4	2
326.6	1
326.7	2
326.8	4
326.9	4
327.0	4
327.1	3
328.8	2
328.9	5
329.0	8
329.1	11
329.2	12
329.3	9
329.4	6
329.5	2
330.4	0
330.5	3
330.6	6
330.7	9
330.8	12
330.9	13
331.0	14
331.1	13
331.2	11
331.3	8
331.4	5
331.5	3
334.6	0
334.7	2
334.8	6
334.9	12
335.0	16
335.1	16
335.2	14
335.3	10
335.4	7
335.5	4
335.6	1
339.1	2
339.2	4
339.3	5
339.4	6
339.5	4
339.6	1
340.7	2
340.8	4
340.9	9
341.0	15
341.1	20
341.2	21
341.3	18
341.4	11
341.5	4
341.6	0
344.7	3
344.8	4
344.9	5
345.0	7
345.1	6
345.2	5
345.3	3
348.8	1
348.9	2
349.0	5
349.1	7
349.2	6
349.3	4
349.4	2
350.8	1
350.9	3
351.0	4
351.1	5
351.2	5
351.3	3
351.4	2
352.4	0
352.5	2
352.6	4
352.7	6
352.8	8
352.9	10
353.0	18
353.1	28
353.2	36
353.3	34
353.4	23
353.5	10
353.6	1
358.7	2
358.8	3
358.9	5
359.0	7
359.1	6
359.2	5
359.3	3
359.4	2
362.9	1
363.0	3
363.1	5
363.2	6
363.3	4
363.4	2
370.5	0
370.6	2
370.7	7
370.8	16
370.9	28
371.0	37
371.1	40
371.2	37
371.3	30
371.4	22
371.5	14
371.6	7
371.7	2
372.6	0
372.7	2
372.8	6
372.9	10
373.0	11
373.1	10
373.2	8
373.3	7
373.4	6
373.5	4
373.6	2
390.4	0
390.5	2
390.6	5
390.7	8
390.8	9
390.9	9
391.0	13
391.1	20
391.2	28
391.3	30
391.4	24
391.5	15
391.6	7
391.7	1
408.4	0
408.5	2
408.6	4
408.7	8
408.8	17
408.9	28
409.0	43
409.1	58
409.2	70
409.3	73
409.4	62
409.5	40
409.6	17
409.7	1
426.3	0
426.4	2
426.5	5
426.6	9
426.7	11
426.8	15
426.9	24
427.0	41
427.1	62
427.2	78
427.3	80
427.4	68
427.5	47
427.6	23
427.7	6
427.8	0
444.5	2
444.6	3
444.7	5
444.8	7
444.9	11
445.0	19
445.1	28
445.2	36
445.3	40
445.4	40
445.5	33
445.6	20
445.7	7
445.8	0
