Mass spectrum: Auraptene; LC-ESI-QQQ; MS2; Frag=135.0V CID@5.0; [M+H]+
Name: Auraptene
Class: Benzopyranoids
Formula: C19H22O3
Exact mass: 298.3854
SMILES: CC(C)=CCC/C(C)=C/COc1ccc2ccc(=O)oc2c1
InChI: InChI=1S/C19H22O3/c1-14(2)5-4-6-15(3)11-12-21-17-9-7-16-8-10-19(20)22-18(16)13-17/h5,7-11,13H,4,6,12H2,1-3H3/b15-11+
Instrument: Agilent 6410 Triple Quadrupole LC/MS system
Instrument type: LC-ESI-QQQ
Ms type: MS2
Ion mode: POSITIVE
Precursor type: [M+H]+
m/z	relative intensity
136.6	1
136.7	2
136.8	4
136.9	7
137.0	10
137.1	12
137.2	12
137.3	11
137.4	9
137.5	6
137.6	2
162.3	1
162.4	3
162.5	9
162.6	20
162.7	36
162.8	56
162.9	77
163.0	93
163.1	99
163.2	96
163.3	82
163.4	58
163.5	30
163.6	7
163.7	0
298.8	2
298.9	3
299.0	4
299.1	5
299.2	5
299.3	5
299.4	4
299.5	2
