Mass spectrum: 20,24-Epoxydammarane-3,11,25-triol; LC-ESI-QQQ; MS2; Frag=135.0V CID@10.0; [M+NH4]+
Name: 20,24-Epoxydammarane-3,11,25-triol
Class: Terpenoids
Formula: C30H52O4
Exact mass: 476.7465
SMILES: CC(C)(O)C1CC[C@](C)(C2CC[C@]3(C)C2C[C@@H](O)C2[C@@]4(C)CC[C@H](O)C(C)(C)C4CC[C@]23C)O1
InChI: InChI=1S/C30H52O4/c1-25(2)21-10-15-29(7)24(27(21,5)13-11-22(25)32)20(31)17-19-18(9-14-28(19,29)6)30(8)16-12-23(34-30)26(3,4)33/h18-24,31-33H,9-17H2,1-8H3/t18?,19?,20-,21?,22+,23?,24?,27+,28-,29-,30-/m1/s1
Instrument: Agilent 6410 Triple Quadrupole LC/MS system
Instrument type: LC-ESI-QQQ
Ms type: MS2
Ion mode: POSITIVE
Precursor type: [M+NH4]+
m/z	relative intensity
142.4	0
142.5	1
142.6	10
142.7	29
142.8	57
142.9	84
143.0	99
143.1	97
143.2	82
143.3	59
143.4	34
143.5	12
143.6	1
422.7	3
422.8	4
422.9	7
423.0	10
423.1	13
423.2	17
423.3	19
423.4	17
423.5	11
423.6	5
440.5	2
440.6	6
440.7	13
440.8	19
440.9	21
441.0	20
441.1	22
441.2	27
441.3	36
441.4	41
441.5	38
441.6	28
441.7	14
441.8	4
458.8	4
458.9	5
459.0	7
459.1	12
459.2	16
459.3	18
459.4	15
459.5	9
459.6	5
