Mass spectrum: Bucharaine; LC-ESI-QQQ; MS2; Frag=135.0V CID@5.0; [M+H]+
Name: Bucharaine
Class: Alkaloids
Formula: C19H25NO4
Exact mass: 331.4154
SMILES: C/C(=C\COc1cc(O)nc2ccccc12)CCC(O)C(C)(C)O
InChI: InChI=1S/C19H25NO4/c1-13(8-9-17(21)19(2,3)23)10-11-24-16-12-18(22)20-15-7-5-4-6-14(15)16/h4-7,10,12,17,21,23H,8-9,11H2,1-3H3,(H,20,22)/b13-10+
Instrument: Agilent 6410 Triple Quadrupole LC/MS system
Instrument type: LC-ESI-QQQ
Ms type: MS2
Ion mode: POSITIVE
Precursor type: [M+H]+
m/z	relative intensity
161.2	1
161.3	2
161.4	5
161.5	10
161.6	17
161.7	31
161.8	53
161.9	77
162.0	94
162.1	99
162.2	94
162.3	80
162.4	56
162.5	29
162.6	7
162.7	0
331.7	2
331.8	4
331.9	7
332.0	10
332.1	12
332.2	13
332.3	12
332.4	10
332.5	7
332.6	3
