Mass spectrum: Carmine red; LC-ESI-QQQ; MS2; Frag=135.0V CID@15.0; [M+H]+
Name: Carmine red
Class: Polycyclic aromatic natural products
Formula: C22H20O13
Exact mass: 492.3969
SMILES: Cc1c(C(=O)O)c(O)cc2c1C(=O)c1c(O)c([C@H]3O[C@H](CO)[C@@H](O)[C@H](O)[C@H]3O)c(O)c(O)c1C2=O
InChI: InChI=1S/C22H20O13/c1-4-8-5(2-6(24)9(4)22(33)34)13(25)10-11(15(8)27)16(28)12(18(30)17(10)29)21-20(32)19(31)14(26)7(3-23)35-21/h2,7,14,19-21,23-24,26,28-32H,3H2,1H3,(H,33,34)/t7-,14-,19+,20-,21-/m1/s1
Instrument: Agilent 6410 Triple Quadrupole LC/MS system
Instrument type: LC-ESI-QQQ
Ms type: MS2
Ion mode: POSITIVE
Precursor type: [M+H]+
m/z	relative intensity
342.6	1
342.7	3
342.8	4
342.9	5
343.0	5
343.1	4
343.2	3
354.1	1
354.2	3
354.3	5
354.4	7
354.5	10
354.6	19
354.7	34
354.8	55
354.9	76
355.0	89
355.1	89
355.2	74
355.3	48
355.4	20
355.5	2
372.0	0
372.1	2
372.2	6
372.3	11
372.4	14
372.5	15
372.6	22
372.7	37
372.8	57
372.9	77
373.0	92
373.1	99
373.2	95
373.3	76
373.4	46
373.5	17
373.6	2
378.5	3
378.6	4
378.7	7
378.8	10
378.9	13
379.0	15
379.1	13
379.2	9
379.3	5
379.4	2
396.3	1
396.4	2
396.5	4
396.6	8
396.7	15
396.8	23
396.9	30
397.0	32
397.1	29
397.2	21
397.3	12
397.4	4
402.5	1
402.6	2
402.7	5
402.8	6
402.9	6
403.0	5
403.1	3
403.2	2
408.4	2
408.5	3
408.6	5
408.7	9
408.8	13
408.9	17
409.0	21
409.1	23
409.2	23
409.3	20
409.4	13
409.5	5
409.6	0
420.2	1
420.3	3
420.4	4
420.5	5
420.6	7
420.7	11
420.8	17
420.9	22
421.0	25
421.1	24
421.2	20
421.3	13
421.4	6
421.5	1
426.5	2
426.6	4
426.7	7
426.8	9
426.9	11
427.0	13
427.1	16
427.2	16
427.3	13
427.4	7
427.5	1
438.3	0
438.4	2
438.5	4
438.6	5
438.7	6
438.8	7
438.9	8
439.0	9
439.1	9
439.2	7
439.3	4
439.4	1
456.5	0
456.6	1
456.7	4
456.8	7
456.9	9
457.0	8
457.1	6
457.2	4
457.3	2
