Mass spectrum: Desoxycortone; LC-ESI-QQQ; MS2; Frag=135.0V CID@25.0; [M+H]+
Name: Desoxycortone
Class: Steroids
Formula: C21H30O3
Exact mass: 330.4715
SMILES: C[C@]12CC[C@H]3[C@@H](CCC4=CC(=O)CC[C@@]43C)[C@@H]1CC[C@@H]2C(=O)CO
InChI: InChI=1S/C21H30O3/c1-20-9-7-14(23)11-13(20)3-4-15-16-5-6-18(19(24)12-22)21(16,2)10-8-17(15)20/h11,15-18,22H,3-10,12H2,1-2H3/t15-,16-,17-,18+,20-,21-/m0/s1
Instrument: Agilent 6410 Triple Quadrupole LC/MS system
Instrument type: LC-ESI-QQQ
Ms type: MS2
Ion mode: POSITIVE
Precursor type: [M+H]+
m/z	relative intensity
96.2	0
96.3	2
96.4	6
96.5	12
96.6	22
96.7	37
96.8	56
96.9	76
97.0	90
97.1	96
97.2	92
97.3	79
97.4	59
97.5	34
97.6	12
97.7	0
108.3	1
108.4	3
108.5	8
108.6	15
108.7	27
108.8	46
108.9	69
109.0	90
109.1	99
109.2	95
109.3	80
109.4	58
109.5	33
109.6	10
109.7	0
122.7	2
122.8	4
122.9	6
123.0	8
123.1	9
123.2	9
123.3	7
123.4	5
123.5	2
