Mass spectrum: Grosheimin; LC-ESI-QQQ; MS2; Frag=135.0V CID@10.0; [M+H]+
Name: Grosheimin
Class: Terpenoids
Formula: C15H18O4
Exact mass: 262.3083
SMILES: C=C1C[C@H](O)[C@H]2C(=C)C(=O)O[C@@H]2[C@H]2[C@H](C)C(=O)C[C@@H]12
InChI: InChI=1S/C15H18O4/c1-6-4-11(17)13-8(3)15(18)19-14(13)12-7(2)10(16)5-9(6)12/h7,9,11-14,17H,1,3-5H2,2H3/t7-,9+,11+,12+,13-,14-/m1/s1
Instrument: Agilent 6410 Triple Quadrupole LC/MS system
Instrument type: LC-ESI-QQQ
Ms type: MS2
Ion mode: POSITIVE
Precursor type: [M+H]+
m/z	relative intensity
92.5	1
92.6	3
92.7	5
92.8	8
92.9	11
93.0	12
93.1	11
93.2	9
93.3	6
93.4	3
106.2	1
106.3	3
106.4	7
106.5	12
106.6	21
106.7	37
106.8	60
106.9	84
107.0	98
107.1	99
107.2	90
107.3	74
107.4	51
107.5	27
107.6	7
107.7	0
120.5	1
120.6	3
120.7	6
120.8	10
120.9	13
121.0	15
121.1	15
121.2	14
121.3	11
121.4	6
121.5	2
130.7	1
130.8	3
130.9	5
131.0	6
131.1	5
131.2	4
131.3	3
148.4	2
148.5	3
148.6	7
148.7	14
148.8	24
148.9	35
149.0	42
149.1	41
149.2	35
149.3	27
149.4	16
149.5	6
149.6	0
156.4	1
156.5	3
156.6	5
156.7	8
156.8	11
156.9	13
157.0	15
157.1	15
157.2	15
157.3	13
157.4	9
157.5	3
170.7	2
170.8	4
170.9	9
171.0	14
171.1	18
171.2	20
171.3	18
171.4	12
171.5	5
171.6	0
180.5	1
180.6	2
180.7	4
180.8	6
180.9	6
181.0	5
181.1	4
181.2	3
181.3	2
181.4	1
181.5	0
181.6	0
181.7	0
181.8	0
181.9	0
182.0	0
182.1	0
182.2	0
182.3	0
182.4	0
182.5	0
182.6	0
182.7	0
182.8	0
182.9	1
183.0	1
183.1	1
183.2	2
183.3	2
183.4	2
183.5	1
183.6	0
183.7	0
183.8	0
183.9	0
184.0	0
184.1	0
184.2	0
184.3	0
184.4	0
184.5	1
184.6	2
184.7	2
184.8	3
184.9	3
185.0	4
185.1	4
185.2	4
185.3	4
185.4	2
198.4	2
198.5	3
198.6	6
198.7	10
198.8	16
198.9	24
199.0	31
199.1	35
199.2	34
199.3	28
199.4	17
199.5	6
199.6	0
202.7	3
202.8	5
202.9	7
203.0	9
203.1	10
203.2	10
203.3	8
203.4	5
203.5	2
226.5	2
226.6	3
226.7	4
226.8	6
226.9	8
227.0	10
227.1	11
227.2	9
227.3	6
227.4	3
244.7	1
244.8	2
244.9	6
245.0	10
245.1	13
245.2	12
245.3	7
245.4	2
