Mass spectrum: 3,3',4,4'-tetrahydroxylignan; LC-ESI-QQQ; MS2; Frag=135.0V CID@25.0; [M+H]+
Name: 3,3',4,4'-tetrahydroxylignan
Class: Lignans
Formula: C18H22O4
Exact mass: 302.3736
SMILES: CC(Cc1ccc(O)c(O)c1)C(C)Cc1ccc(O)c(O)c1
InChI: InChI=1S/C18H22O4/c1-11(7-13-3-5-15(19)17(21)9-13)12(2)8-14-4-6-16(20)18(22)10-14/h3-6,9-12,19-22H,7-8H2,1-2H3
Instrument: Agilent 6410 Triple Quadrupole LC/MS system
Instrument type: LC-ESI-QQQ
Ms type: MS2
Ion mode: POSITIVE
Precursor type: [M+H]+
m/z	relative intensity
122.2	0
122.3	2
122.4	6
122.5	13
122.6	24
122.7	40
122.8	62
122.9	82
123.0	96
123.1	99
123.2	92
123.3	72
123.4	43
123.5	15
123.6	0
132.5	1
132.6	2
132.7	4
132.8	6
132.9	7
133.0	7
133.1	7
133.2	8
133.3	7
133.4	4
133.5	2
