Mass spectrum: Ugaferin; LC-ESI-QQQ; MS2; Frag=135.0V CID@15.0; [M+H]+
Name: Ugaferin
Class: Polycyclic aromatic natural products
Formula: C25H36O7
Exact mass: 448.5615
SMILES: COc1cc(C(=O)O[C@H]2C/C(C)=C\CC[C@]3(C)O[C@@H]3C(O)C2C(C)C)cc(OC)c1OC
InChI: InChI=1S/C25H36O7/c1-14(2)20-17(11-15(3)9-8-10-25(4)23(32-25)21(20)26)31-24(27)16-12-18(28-5)22(30-7)19(13-16)29-6/h9,12-14,17,20-21,23,26H,8,10-11H2,1-7H3/b15-9-/t17-,20?,21?,23+,25-/m0/s1
Instrument: Agilent 6410 Triple Quadrupole LC/MS system
Instrument type: LC-ESI-QQQ
Ms type: MS2
Ion mode: POSITIVE
Precursor type: [M+H]+
m/z	relative intensity
56.6	2
56.7	3
56.8	5
56.9	7
57.0	8
57.1	7
57.2	5
57.3	2
66.5	1
66.6	2
66.7	4
66.8	5
66.9	5
67.0	4
67.1	3
67.2	3
67.3	2
67.4	1
67.5	0
67.6	0
67.7	0
67.8	0
67.9	0
68.0	0
68.1	0
68.2	0
68.3	1
68.4	2
68.5	3
68.6	4
68.7	7
68.8	11
68.9	15
69.0	18
69.1	20
69.2	18
69.3	14
69.4	8
69.5	2
80.2	1
80.3	3
80.4	5
80.5	7
80.6	11
80.7	18
80.8	29
80.9	42
81.0	50
81.1	50
81.2	43
81.3	32
81.4	20
81.5	9
81.6	2
82.5	3
82.6	4
82.7	7
82.8	10
82.9	13
83.0	16
83.1	16
83.2	13
83.3	8
83.4	2
84.6	1
84.7	3
84.8	5
84.9	7
85.0	9
85.1	8
85.2	6
85.3	3
92.5	3
92.6	5
92.7	10
92.8	17
92.9	24
93.0	29
93.1	31
93.2	27
93.3	20
93.4	11
93.5	4
94.3	0
94.4	3
94.5	8
94.6	15
94.7	26
94.8	40
94.9	57
95.0	69
95.1	72
95.2	65
95.3	52
95.4	37
95.5	20
95.6	5
95.7	0
96.4	1
96.5	3
96.6	5
96.7	9
96.8	12
96.9	13
97.0	13
97.1	12
97.2	11
97.3	9
97.4	5
97.5	1
104.2	1
104.3	3
104.4	6
104.5	8
104.6	9
104.7	12
104.8	17
104.9	25
105.0	31
105.1	33
105.2	30
105.3	23
105.4	14
105.5	5
105.6	0
106.2	1
106.3	3
106.4	4
106.5	6
106.6	10
106.7	16
106.8	25
106.9	35
107.0	43
107.1	47
107.2	46
107.3	38
107.4	24
107.5	11
107.6	2
108.3	2
108.4	3
108.5	6
108.6	12
108.7	21
108.8	31
108.9	40
109.0	47
109.1	50
109.2	48
109.3	42
109.4	30
109.5	16
109.6	4
110.6	3
110.7	4
110.8	6
110.9	10
111.0	14
111.1	16
111.2	14
111.3	10
111.4	5
111.5	1
118.4	2
118.5	3
118.6	5
118.7	10
118.8	18
118.9	26
119.0	31
119.1	30
119.2	25
119.3	19
119.4	11
119.5	4
120.3	2
120.4	3
120.5	5
120.6	10
120.7	20
120.8	34
120.9	45
121.0	53
121.1	60
121.2	64
121.3	60
121.4	43
121.5	20
121.6	2
122.4	2
122.5	3
122.6	6
122.7	13
122.8	24
122.9	39
123.0	50
123.1	54
123.2	51
123.3	40
123.4	24
123.5	9
123.6	0
124.6	3
124.7	4
124.8	6
124.9	7
125.0	7
125.1	7
125.2	6
125.3	4
125.4	3
130.5	2
130.6	3
130.7	5
130.8	7
130.9	8
131.0	9
131.1	9
131.2	9
131.3	8
131.4	5
131.5	1
132.5	2
132.6	4
132.7	7
132.8	10
132.9	13
133.0	16
133.1	17
133.2	16
133.3	12
133.4	6
133.5	1
134.2	1
134.3	2
134.4	5
134.5	7
134.6	10
134.7	16
134.8	25
134.9	39
135.0	54
135.1	64
135.2	66
135.3	59
135.4	44
135.5	24
135.6	7
135.7	0
136.6	1
136.7	4
136.8	10
136.9	16
137.0	19
137.1	19
137.2	16
137.3	14
137.4	11
137.5	7
137.6	2
138.7	2
138.8	3
138.9	4
139.0	5
139.1	5
139.2	4
139.3	3
144.2	1
144.3	2
144.4	5
144.5	10
144.6	14
144.7	18
144.8	24
144.9	32
145.0	42
145.1	51
145.2	57
145.3	57
145.4	48
145.5	30
145.6	11
145.7	0
146.4	2
146.5	3
146.6	5
146.7	8
146.8	11
146.9	15
147.0	18
147.1	21
147.2	22
147.3	19
147.4	12
147.5	5
147.6	1
148.4	1
148.5	3
148.6	5
148.7	9
148.8	14
148.9	20
149.0	26
149.1	29
149.2	26
149.3	19
149.4	10
149.5	3
150.6	3
150.7	5
150.8	9
150.9	14
151.0	19
151.1	21
151.2	20
151.3	15
151.4	9
151.5	3
158.3	2
158.4	4
158.5	7
158.6	11
158.7	19
158.8	36
158.9	59
159.0	83
159.1	97
159.2	96
159.3	81
159.4	56
159.5	30
159.6	8
159.7	0
160.2	1
160.3	2
160.4	4
160.5	4
160.6	5
160.7	10
160.8	22
160.9	41
161.0	60
161.1	72
161.2	73
161.3	66
161.4	50
161.5	31
161.6	13
161.7	1
162.5	3
162.6	4
162.7	8
162.8	15
162.9	23
163.0	29
163.1	33
163.2	32
163.3	26
163.4	16
163.5	6
163.6	0
168.7	2
168.8	4
168.9	5
169.0	7
169.1	9
169.2	9
169.3	6
169.4	2
172.6	3
172.7	4
172.8	6
172.9	11
173.0	16
173.1	19
173.2	19
173.3	18
173.4	14
173.5	8
173.6	2
174.5	1
174.6	3
174.7	5
174.8	7
174.9	10
175.0	12
175.1	13
175.2	14
175.3	14
175.4	12
175.5	7
175.6	3
176.7	4
176.8	7
176.9	12
177.0	17
177.1	20
177.2	21
177.3	22
177.4	19
177.5	13
177.6	6
177.7	1
188.8	1
188.9	3
189.0	4
189.1	6
189.2	7
189.3	7
189.4	5
189.5	3
190.5	1
190.6	2
190.7	5
190.8	13
190.9	24
191.0	33
191.1	39
191.2	39
191.3	34
191.4	27
191.5	16
191.6	6
191.7	0
194.1	2
194.2	4
194.3	5
194.4	9
194.5	13
194.6	19
194.7	33
194.8	55
194.9	80
195.0	97
195.1	99
195.2	89
195.3	69
195.4	43
195.5	18
195.6	1
200.3	1
200.4	3
200.5	6
200.6	10
200.7	19
200.8	32
200.9	50
201.0	68
201.1	79
201.2	83
201.3	80
201.4	69
201.5	50
201.6	25
201.7	5
201.8	0
212.2	1
212.3	2
212.4	4
212.5	4
212.6	4
212.7	5
212.8	7
212.9	11
213.0	13
213.1	13
213.2	9
213.3	4
218.3	2
218.4	3
218.5	5
218.6	6
218.7	9
218.8	16
218.9	28
219.0	40
219.1	46
219.2	46
219.3	41
219.4	33
219.5	22
219.6	10
219.7	2
