Mass spectrum: Guan-fu base Y; LC-ESI-QQQ; MS2;  Frag=135.0V CID@15.0 ; [M+HCOO]-
Name: Guan-fu base Y
Class: Alkaloids
Formula: C22H29NO5
Exact mass: 387.4801300000001
SMILES: C=C1C[C@@]23CC4C5C6(C)C[C@H](OC(C)=O)CC57C2[C@H](O)C1[C@@H](O)[C@]3(O)[C@H]7N4C6
InChI: InChI=1S/C22H29NO5/c1-9-4-20-7-12-15-19(3)5-11(28-10(2)24)6-21(15)16(20)14(25)13(9)17(26)22(20,27)18(21)23(12)8-19/h11-18,25-27H,1,4-8H2,2-3H3/t11-,12?,13?,14+,15?,16?,17+,18-,19?,20+,21?,22-/m0/s1
Instrument: Agilent 6410 Triple Quadrupole LC/MS system
Instrument type: LC-ESI-QQQ
Ms type: MS2
Ion mode: NEGATIVE
Precursor type: [M+HCOO]-
m/z	relative intensity
50.3	8
50.4	12
50.5	18
50.6	19
50.7	15
50.8	8
51.0	6
51.1	12
51.2	17
51.3	16
51.4	9
51.6	4
51.7	10
51.8	17
51.9	19
52.0	15
52.3	8
52.4	14
52.5	17
52.6	15
52.7	9
52.9	5
53.0	11
53.1	18
53.2	21
53.3	17
53.4	10
54.1	5
54.2	10
54.3	16
54.4	20
54.5	16
54.6	8
54.8	2
54.9	9
55.0	17
55.1	20
55.2	17
55.3	11
55.5	9
55.6	14
55.7	17
55.8	15
55.9	10
56.1	7
56.2	12
56.3	18
56.4	17
56.5	11
56.7	5
56.8	12
56.9	20
57.0	23
57.1	19
57.2	9
57.4	3
57.5	9
57.6	16
57.7	16
57.8	12
58.0	8
58.1	13
58.2	19
58.3	22
58.4	21
58.5	21
58.6	25
58.7	33
58.8	36
58.9	29
59.0	17
59.1	5
59.3	6
59.4	14
59.5	19
59.6	17
59.7	11
59.9	3
60.0	9
60.1	17
60.2	20
60.3	16
60.4	8
60.6	7
60.7	14
60.8	19
60.9	19
61.0	13
61.2	6
61.3	11
61.4	17
61.5	19
61.6	15
61.9	6
62.0	14
62.1	20
62.2	19
62.3	12
62.5	6
62.6	13
62.7	18
62.8	18
62.9	13
63.1	4
63.2	8
63.3	14
63.4	18
63.5	16
63.6	10
63.8	8
63.9	15
64.0	20
64.1	20
64.2	15
64.4	8
64.5	12
64.6	17
64.7	18
64.8	13
65.0	4
65.1	9
65.2	17
65.3	21
65.4	18
65.5	11
65.7	8
65.8	14
65.9	18
66.0	18
66.1	12
66.3	7
66.4	12
66.5	19
66.6	21
66.7	16
66.8	8
67.0	5
67.1	11
67.2	15
67.3	14
67.4	9
67.6	6
67.7	14
67.8	21
67.9	20
68.0	12
68.2	4
68.3	10
68.4	18
68.5	20
68.6	15
68.7	9
68.9	6
69.0	11
69.1	15
69.2	16
69.3	13
69.5	8
69.6	13
69.7	18
69.8	20
69.9	15
70.2	8
70.3	15
70.4	20
70.5	18
70.6	11
70.8	4
70.9	10
71.0	16
71.1	19
71.2	15
72.1	6
72.2	12
72.3	18
72.4	18
72.5	14
72.7	9
72.8	13
72.9	18
73.0	19
73.1	14
73.3	3
73.4	8
73.5	17
73.6	22
73.7	19
73.8	11
74.0	6
74.1	12
74.2	18
74.3	19
74.4	14
74.6	9
74.7	13
74.8	19
74.9	20
75.0	16
75.1	9
75.3	4
75.4	10
75.5	16
75.6	16
75.7	12
75.9	8
76.0	13
76.1	18
76.2	19
76.3	15
76.6	7
76.7	14
76.8	19
76.9	19
77.0	13
77.2	6
77.3	10
77.4	15
77.5	16
77.6	12
77.8	6
77.9	9
78.0	16
78.1	20
78.2	18
78.3	11
78.5	7
78.6	14
78.7	21
78.8	20
78.9	14
79.1	6
79.2	12
79.3	18
79.4	19
79.5	14
79.6	7
79.8	6
79.9	12
80.0	16
80.1	15
80.2	9
80.4	7
80.5	14
80.6	20
80.7	21
80.8	16
81.0	8
81.1	12
81.2	18
81.3	20
81.4	16
81.5	9
81.7	4
81.8	9
81.9	16
82.0	18
82.1	15
82.4	8
82.5	14
82.6	18
82.7	16
83.0	9
83.1	15
83.2	19
83.3	17
83.4	10
83.6	5
83.7	12
83.8	18
83.9	19
84.0	15
84.3	10
84.4	14
84.5	17
84.6	15
84.7	10
84.9	8
85.0	14
85.1	19
85.2	18
85.3	12
85.5	4
85.6	9
85.7	15
85.8	18
85.9	15
86.8	6
86.9	13
87.0	18
87.1	16
87.2	10
87.4	4
87.5	9
87.6	16
87.7	19
87.8	16
87.9	10
88.1	8
88.2	15
88.3	21
88.4	21
88.5	15
88.7	7
88.8	11
88.9	17
89.0	18
89.1	14
89.3	6
89.4	10
89.5	17
89.6	21
89.7	19
89.8	11
90.0	6
90.1	12
90.2	17
90.3	17
90.4	10
90.6	4
90.7	9
90.8	17
90.9	20
91.0	16
91.1	8
91.3	7
91.4	14
91.5	20
91.6	19
91.7	12
91.9	3
92.0	8
92.1	16
92.2	19
92.3	14
92.6	8
92.7	15
92.8	19
92.9	17
93.0	10
93.2	6
93.3	12
93.4	17
93.5	18
93.6	14
93.9	9
94.0	15
94.1	19
94.2	16
94.3	8
94.5	7
94.6	14
94.7	18
94.8	16
94.9	7
95.1	1
95.2	9
95.3	19
95.4	22
95.5	16
95.6	6
95.8	5
95.9	13
96.0	19
96.1	19
96.2	13
96.4	6
96.5	11
96.6	17
96.7	19
96.8	14
97.0	3
97.1	7
97.2	16
97.3	21
97.4	17
97.5	8
97.7	5
97.8	13
97.9	19
98.0	18
98.1	12
98.3	5
98.4	11
98.5	18
98.6	21
98.7	17
98.8	9
99.0	6
99.1	14
99.2	21
99.3	21
99.4	16
99.6	8
99.7	12
99.8	18
99.9	18
100.0	13
100.2	5
100.3	9
100.4	16
100.5	18
100.6	14
100.7	7
100.9	5
101.0	10
101.1	15
101.2	17
101.3	14
101.5	10
101.6	13
101.7	18
101.8	18
101.9	13
102.0	7
102.2	6
102.3	12
102.4	15
102.5	14
102.6	10
102.8	8
102.9	13
103.0	19
103.1	19
103.2	13
103.4	4
103.5	8
103.6	14
103.7	18
103.8	15
104.1	9
104.2	15
104.3	18
104.4	16
104.6	9
104.7	12
104.8	18
104.9	23
105.0	23
105.1	16
105.2	7
105.4	5
105.5	14
105.6	21
105.7	19
105.8	10
106.0	2
106.1	10
106.2	19
106.3	22
106.4	15
106.5	7
106.7	6
106.8	13
106.9	17
107.0	16
107.1	11
107.3	8
107.4	12
107.5	16
107.6	15
107.7	11
107.9	6
108.0	11
108.1	18
108.2	19
108.3	15
108.6	9
108.7	16
108.8	20
108.9	17
109.0	11
109.2	6
109.3	10
109.4	16
109.5	17
109.6	13
109.9	7
110.0	14
110.1	18
110.2	16
110.3	9
110.5	6
110.6	12
110.7	17
110.8	17
110.9	12
111.1	6
111.2	10
111.3	16
111.4	18
111.5	15
111.6	9
111.8	7
111.9	13
112.0	18
112.1	16
112.2	10
112.4	3
112.5	8
112.6	15
112.7	18
112.8	14
113.0	4
113.1	9
113.2	18
113.3	23
113.4	20
113.5	10
113.7	3
113.8	9
113.9	15
114.0	15
114.1	10
114.3	4
114.4	9
114.5	14
114.6	16
114.7	12
114.9	4
115.0	9
115.1	17
115.2	23
115.3	20
115.4	12
115.6	7
115.7	14
115.8	20
115.9	21
116.0	15
116.2	7
116.3	13
116.4	20
116.5	21
116.6	13
116.8	1
116.9	7
117.0	15
117.1	20
117.2	18
117.3	10
117.5	2
117.6	7
117.7	14
117.8	18
117.9	15
118.8	5
118.9	10
119.0	16
119.1	19
119.2	16
119.3	10
119.5	8
119.6	14
119.7	18
119.8	15
119.9	8
120.1	6
120.2	14
120.3	21
120.4	22
120.5	17
121.4	7
121.5	15
121.6	20
121.7	19
121.8	11
122.0	4
122.1	12
122.2	19
122.3	21
122.4	16
122.5	9
122.7	8
122.8	14
122.9	18
123.0	17
123.1	11
123.3	9
123.4	15
123.5	19
123.6	17
123.7	10
123.9	3
124.0	9
124.1	15
124.2	18
124.3	15
124.5	6
124.6	9
124.7	17
124.8	22
124.9	19
125.0	11
125.2	4
125.3	11
125.4	19
125.5	20
125.6	15
125.8	5
125.9	10
126.0	17
126.1	19
126.2	15
126.5	9
126.6	16
126.7	21
126.8	19
126.9	13
127.1	6
127.2	10
127.3	17
127.4	20
127.5	19
127.6	14
127.8	12
127.9	18
128.0	21
128.1	18
128.2	9
128.4	1
128.5	9
128.6	18
128.7	20
128.8	15
129.1	8
129.2	16
129.3	20
129.4	18
129.5	11
129.7	8
129.8	15
129.9	21
130.0	20
130.1	15
130.3	8
130.4	11
130.5	16
130.6	17
130.7	13
130.9	4
131.0	8
131.1	16
131.2	21
131.3	19
131.4	12
131.6	4
131.7	11
131.8	18
131.9	19
132.0	15
132.2	9
132.3	12
132.4	16
132.5	17
132.6	15
132.7	10
132.9	7
133.0	12
133.1	18
133.2	18
133.3	11
133.5	6
133.6	14
133.7	21
133.8	22
133.9	15
134.0	6
134.2	5
134.3	11
134.4	17
134.5	16
134.6	10
134.8	6
134.9	12
135.0	19
135.1	21
135.2	18
135.3	10
135.5	8
135.6	15
135.7	21
135.8	19
135.9	12
136.1	7
136.2	13
136.3	19
136.4	19
136.5	13
136.7	5
136.8	9
136.9	14
137.0	17
137.1	15
137.2	10
137.4	8
137.5	14
137.6	19
137.7	19
137.8	12
138.0	5
138.1	11
138.2	18
138.3	20
138.4	14
138.7	7
138.8	14
138.9	18
139.0	16
139.1	9
139.3	6
139.4	14
139.5	20
139.6	20
139.7	14
139.9	5
140.0	11
140.1	18
140.2	19
140.3	13
140.6	5
140.7	14
140.8	20
140.9	18
141.0	11
141.2	8
141.3	14
141.4	17
141.5	15
141.6	8
141.8	4
141.9	11
142.0	18
142.1	19
142.2	14
142.5	6
142.6	13
142.7	20
142.8	19
142.9	12
143.1	8
143.2	15
143.3	21
143.4	21
143.5	13
143.7	2
143.8	6
143.9	15
144.0	20
144.1	19
144.2	13
144.4	6
144.5	12
144.6	18
144.7	20
144.8	15
144.9	7
145.1	6
145.2	12
145.3	16
145.4	14
145.7	8
145.8	14
145.9	19
146.0	17
146.1	10
146.3	3
146.4	9
146.5	17
146.6	20
146.7	16
146.8	9
147.0	6
147.1	13
147.2	19
147.3	18
147.4	12
147.6	5
147.7	10
147.8	16
147.9	17
148.0	12
148.3	5
148.4	13
148.5	18
148.6	15
148.7	7
148.9	4
149.0	13
149.1	20
149.2	20
149.3	14
149.5	4
149.6	9
149.7	15
149.8	18
149.9	15
150.0	9
150.2	6
150.3	11
150.4	15
150.5	14
150.8	7
150.9	15
151.0	22
151.1	23
151.2	16
151.5	9
151.6	15
151.7	18
151.8	16
151.9	11
152.1	8
152.2	12
152.3	16
152.4	16
152.5	11
152.7	4
152.8	9
152.9	17
153.0	19
153.1	15
154.0	5
154.1	12
154.2	18
154.3	19
154.4	14
154.6	7
154.7	12
154.8	19
154.9	20
155.0	15
155.1	7
155.3	7
155.4	13
155.5	19
155.6	17
155.7	11
155.9	4
156.0	11
156.1	19
156.2	21
156.3	15
156.6	5
156.7	14
156.8	20
156.9	17
157.0	10
157.2	5
157.3	11
157.4	16
157.5	17
157.6	12
157.8	5
157.9	9
158.0	16
158.1	19
158.2	16
158.3	9
158.5	8
158.6	14
158.7	20
158.8	19
158.9	13
159.0	6
159.2	5
159.3	11
159.4	16
159.5	15
159.6	9
159.8	7
159.9	13
160.0	16
160.1	14
160.4	8
160.5	15
160.6	19
160.7	19
160.8	13
161.1	6
161.2	12
161.3	16
161.4	15
161.5	10
161.7	7
161.8	12
161.9	17
162.0	16
162.1	11
162.3	7
162.4	12
162.5	15
162.6	15
162.7	10
162.9	5
163.0	11
163.1	20
163.2	24
163.3	19
163.4	10
163.6	4
163.7	10
163.8	15
163.9	15
164.0	11
164.2	5
164.3	8
164.4	13
164.5	15
164.6	12
164.9	7
165.0	12
165.1	16
165.2	16
165.3	11
165.5	5
165.6	11
165.7	18
165.8	20
165.9	15
166.2	7
166.3	15
166.4	21
166.5	19
166.6	12
166.8	5
166.9	11
167.0	18
167.1	22
167.2	17
168.0	7
168.1	10
168.2	16
168.3	20
168.4	17
168.5	9
168.7	4
168.8	10
168.9	17
169.0	18
169.1	14
169.3	7
169.4	11
169.5	17
169.6	20
169.7	17
169.8	10
170.0	3
170.1	10
170.2	18
170.3	21
170.4	17
170.5	11
170.7	9
170.8	14
170.9	18
171.0	18
171.1	14
171.3	11
171.4	17
171.5	21
171.6	19
171.7	12
171.9	5
172.0	10
172.1	15
172.2	16
172.3	13
172.5	7
172.6	10
172.7	16
172.8	19
172.9	17
173.0	11
173.2	4
173.3	10
173.4	18
173.5	21
173.6	17
173.8	7
173.9	12
174.0	20
174.1	23
174.2	18
174.3	10
174.5	5
174.6	11
174.7	17
174.8	21
174.9	18
175.0	11
175.2	5
175.3	10
175.4	16
175.5	16
175.8	10
175.9	16
176.0	20
176.1	17
176.2	10
176.4	5
176.5	11
176.6	17
176.7	19
176.8	16
177.0	8
177.1	12
177.2	18
177.3	22
177.4	19
177.5	12
177.7	6
177.8	12
177.9	19
178.0	21
178.1	15
178.3	7
178.4	11
178.5	16
178.6	18
178.7	13
178.9	3
179.0	8
179.1	16
179.2	21
179.3	18
179.4	9
179.6	5
179.7	12
179.8	18
179.9	18
180.0	12
180.2	4
180.3	11
180.4	20
180.5	23
180.6	18
180.7	9
180.9	5
181.0	12
181.1	18
181.2	17
181.3	12
181.5	8
181.6	12
181.7	17
181.8	18
181.9	16
182.2	10
182.3	15
182.4	18
182.5	16
182.8	9
182.9	16
183.0	21
183.1	20
183.2	12
183.4	0
183.5	5
183.6	14
183.7	17
183.8	14
184.0	5
184.1	10
184.2	19
184.3	23
184.4	20
184.5	11
184.7	4
184.8	10
184.9	18
185.0	20
185.1	17
185.4	12
185.5	17
185.6	20
185.7	17
185.8	10
186.0	1
186.1	5
186.2	13
186.3	18
186.4	16
186.5	10
186.7	9
186.8	15
186.9	20
187.0	18
187.3	10
187.4	18
187.5	24
187.6	21
187.7	11
187.9	3
188.0	12
188.1	21
188.2	22
188.3	16
188.4	6
188.6	4
188.7	11
188.8	16
188.9	17
189.0	12
189.2	7
189.3	12
189.4	17
189.5	18
189.6	13
189.8	5
189.9	10
190.0	17
190.1	19
190.2	14
190.4	3
190.5	7
190.6	17
190.7	22
190.8	19
190.9	10
191.1	1
191.2	8
191.3	17
191.4	20
191.5	17
191.6	10
191.8	8
191.9	14
192.0	17
192.1	14
192.2	6
192.4	3
192.5	12
192.6	21
192.7	21
192.8	14
193.0	5
193.1	11
193.2	18
193.3	20
193.4	13
193.7	6
193.8	13
193.9	17
194.0	16
194.1	11
194.3	6
194.4	13
194.5	21
194.6	23
194.7	17
194.8	8
195.0	5
195.1	13
195.2	18
195.3	17
195.4	9
195.6	2
195.7	8
195.8	16
195.9	19
196.0	17
196.1	10
196.3	8
196.4	13
196.5	16
196.6	13
196.8	5
196.9	8
197.0	14
197.1	17
197.2	16
197.3	11
197.5	7
197.6	13
197.7	19
197.8	22
197.9	17
198.0	10
198.2	6
198.3	12
198.4	19
198.5	20
198.6	14
199.4	7
199.5	10
199.6	15
199.7	17
199.8	14
200.0	7
200.1	11
200.2	17
200.3	20
200.4	17
200.5	10
200.7	5
200.8	10
200.9	17
201.0	19
201.1	14
201.4	6
201.5	13
201.6	19
201.7	18
201.8	12
202.0	8
202.1	13
202.2	19
202.3	19
202.4	13
202.6	3
202.7	7
202.8	15
202.9	18
203.0	16
203.1	10
203.3	7
203.4	13
203.5	18
203.6	19
203.7	13
203.9	3
204.0	7
204.1	14
204.2	16
204.3	13
204.5	6
204.6	8
204.7	14
204.8	19
204.9	18
205.0	13
205.2	7
205.3	11
205.4	18
205.5	20
205.6	15
205.9	7
206.0	15
206.1	19
206.2	16
206.3	9
206.5	7
206.6	12
206.7	17
206.8	16
206.9	10
207.1	3
207.2	9
207.3	16
207.4	17
207.5	12
207.8	7
207.9	12
208.0	16
208.1	14
208.4	8
208.5	14
208.6	21
208.7	22
208.8	15
209.1	7
209.2	16
209.3	21
209.4	18
209.5	10
209.7	5
209.8	12
209.9	18
210.0	18
210.1	11
210.3	6
210.4	13
210.5	20
210.6	21
210.7	14
210.8	6
211.0	5
211.1	12
211.2	17
211.3	15
211.4	11
211.6	8
211.7	13
211.8	18
211.9	19
212.0	13
212.3	7
212.4	14
212.5	18
212.6	16
212.7	9
212.9	4
213.0	13
213.1	20
213.2	22
213.3	16
213.4	9
214.1	5
214.2	9
214.3	15
214.4	19
214.5	17
214.6	12
214.8	9
214.9	14
215.0	18
215.1	19
215.2	15
215.3	9
215.5	8
215.6	14
215.7	17
215.8	15
215.9	9
216.1	7
216.2	13
216.3	17
216.4	16
216.5	12
216.8	6
216.9	12
217.0	15
217.1	14
217.4	8
217.5	15
217.6	20
217.7	19
217.8	12
218.0	6
218.1	12
218.2	17
218.3	17
218.4	12
218.6	4
218.7	9
218.8	15
218.9	17
219.0	14
219.3	7
219.4	14
219.5	20
219.6	20
219.7	14
220.0	7
220.1	15
220.2	20
220.3	18
220.4	10
220.6	6
220.7	13
220.8	19
220.9	18
221.0	12
221.2	8
221.3	14
221.4	18
221.5	16
221.6	10
221.8	5
221.9	10
222.0	17
222.1	18
222.2	14
222.3	7
222.5	6
222.6	12
222.7	18
222.8	19
222.9	12
223.1	3
223.2	9
223.3	17
223.4	22
223.5	20
223.6	14
223.8	11
223.9	16
224.0	19
224.1	16
224.2	9
224.4	4
224.5	10
224.6	16
224.7	18
224.8	14
225.0	8
225.1	12
225.2	18
225.3	21
225.4	19
225.5	13
225.7	10
225.8	14
225.9	17
226.0	17
226.1	13
226.3	6
226.4	10
226.5	17
226.6	20
226.7	17
226.8	9
227.0	3
227.1	9
227.2	16
227.3	17
227.4	12
227.6	5
227.7	10
227.8	16
227.9	17
228.0	13
228.2	7
228.3	12
228.4	19
228.5	22
228.6	19
228.7	12
228.9	8
229.0	14
229.1	19
229.2	18
229.3	12
229.5	5
229.6	10
229.7	17
229.8	19
229.9	14
230.1	4
230.2	9
230.3	18
230.4	22
230.5	19
230.6	12
230.8	6
230.9	11
231.0	16
231.1	16
231.2	12
231.4	9
231.5	15
231.6	19
231.7	19
231.8	13
232.1	7
232.2	13
232.3	18
232.4	17
232.5	13
232.7	6
232.8	9
232.9	14
233.0	16
233.1	14
233.3	8
233.4	11
233.5	16
233.6	19
233.7	18
233.8	13
234.6	4
234.7	8
234.8	15
234.9	20
235.0	18
235.1	11
235.3	5
235.4	11
235.5	17
235.6	17
235.7	13
235.9	9
236.0	14
236.1	19
236.2	19
236.3	14
236.5	6
236.6	10
236.7	17
236.8	18
236.9	13
237.2	5
237.3	14
237.4	21
237.5	21
237.6	14
237.9	5
238.0	14
238.1	20
238.2	18
238.3	9
238.5	3
238.6	11
238.7	18
238.8	19
238.9	13
239.1	4
239.2	9
239.3	15
239.4	17
239.5	14
239.7	7
239.8	11
239.9	17
240.0	20
240.1	18
240.2	12
240.4	3
240.5	8
240.6	16
240.7	20
240.8	17
240.9	11
241.1	9
241.2	15
241.3	18
241.4	13
241.7	7
241.8	14
241.9	18
242.0	17
242.1	12
242.3	4
242.4	7
242.5	13
242.6	19
242.7	17
242.8	11
243.0	7
243.1	14
243.2	20
243.3	19
243.4	12
243.6	3
243.7	8
243.8	15
243.9	18
244.0	16
244.1	10
244.3	8
244.4	14
244.5	18
244.6	17
244.7	10
244.9	5
245.0	9
245.1	13
245.2	14
245.5	9
245.6	15
245.7	19
245.8	19
245.9	13
246.2	6
246.3	13
246.4	18
246.5	16
246.6	10
246.8	5
246.9	12
247.0	21
247.1	22
247.2	15
247.4	3
247.5	8
247.6	17
247.7	20
247.8	16
248.1	6
248.2	15
248.3	21
248.4	20
248.5	13
248.7	5
248.8	10
248.9	16
249.0	19
249.1	17
249.2	10
249.4	7
249.5	12
249.6	17
249.7	18
249.8	14
250.0	9
250.1	13
250.2	17
250.3	17
250.4	12
250.6	6
250.7	10
250.8	15
250.9	17
251.0	13
251.3	8
251.4	13
251.5	18
251.6	18
251.7	14
252.5	4
252.6	9
252.7	18
252.8	23
252.9	21
253.0	12
253.2	7
253.3	15
253.4	21
253.5	20
253.6	12
253.8	4
253.9	9
254.0	17
254.1	21
254.2	18
254.3	12
254.5	8
254.6	13
254.7	17
254.8	16
254.9	9
255.1	2
255.2	8
255.3	17
255.4	21
255.5	17
255.6	9
255.8	8
255.9	15
256.0	20
256.1	19
256.2	11
256.4	6
256.5	14
256.6	21
256.7	21
256.8	15
256.9	6
257.1	3
257.2	12
257.3	19
257.4	18
257.5	10
257.7	5
257.8	12
257.9	18
258.0	18
258.1	12
258.3	5
258.4	11
258.5	18
258.6	19
258.7	14
259.0	7
259.1	15
259.2	21
259.3	20
259.4	14
259.6	7
259.7	11
259.8	16
259.9	18
260.0	15
260.1	10
260.3	9
260.4	12
260.5	13
260.6	11
260.8	6
260.9	8
261.0	13
261.1	18
261.2	17
261.3	12
261.5	6
261.6	11
261.7	18
261.8	20
261.9	16
262.2	9
262.3	16
262.4	20
262.5	18
262.6	12
262.8	8
262.9	12
263.0	15
263.1	16
263.2	13
263.4	7
263.5	11
263.6	17
263.7	20
263.8	17
263.9	12
264.1	10
264.2	16
264.3	20
264.4	19
264.5	12
264.7	5
264.8	10
264.9	17
265.0	19
265.1	15
265.2	8
265.4	5
265.5	12
265.6	18
265.7	18
265.8	11
266.0	5
266.1	11
266.2	17
266.3	17
266.4	12
266.6	6
266.7	10
266.8	16
266.9	19
267.0	16
267.2	8
267.3	11
267.4	18
267.5	22
267.6	19
267.7	11
267.9	4
268.0	9
268.1	16
268.2	19
268.3	16
268.4	9
268.6	4
268.7	11
268.8	18
268.9	18
269.0	12
269.2	5
269.3	11
269.4	17
269.5	19
269.6	14
270.4	5
270.5	10
270.6	18
270.7	22
270.8	19
270.9	11
271.1	4
271.2	9
271.3	14
271.4	17
271.5	15
271.8	8
271.9	14
272.0	19
272.1	19
272.2	12
272.4	6
272.5	11
272.6	17
272.7	18
272.8	14
273.0	6
273.1	9
273.2	15
273.3	17
273.4	13
273.7	6
273.8	14
273.9	19
274.0	18
274.1	13
274.3	7
274.4	10
274.5	14
274.6	14
274.7	10
274.9	5
275.0	9
275.1	15
275.2	20
275.3	19
275.4	13
275.6	7
275.7	13
275.8	19
275.9	18
276.0	12
276.2	4
276.3	9
276.4	15
276.5	18
276.6	16
276.7	10
276.9	9
277.0	15
277.1	20
277.2	20
277.3	14
277.5	7
277.6	12
277.7	19
277.8	21
277.9	16
278.0	8
278.2	6
278.3	15
278.4	21
278.5	19
278.6	11
278.8	5
278.9	11
279.0	18
279.1	20
279.2	15
279.4	8
279.5	13
279.6	17
279.7	18
279.8	13
279.9	6
280.1	4
280.2	11
280.3	19
280.4	21
280.5	16
281.4	7
281.5	14
281.6	19
281.7	19
281.8	13
282.0	7
282.1	11
282.2	16
282.3	18
282.4	14
282.7	8
282.8	14
282.9	18
283.0	17
283.1	12
283.3	8
283.4	14
283.5	20
283.6	20
283.7	14
283.9	5
284.0	9
284.1	15
284.2	17
284.3	14
284.5	6
284.6	9
284.7	15
284.8	18
284.9	15
285.0	9
285.2	5
285.3	12
285.4	20
285.5	21
285.6	16
285.8	6
285.9	10
286.0	17
286.1	19
286.2	13
286.5	6
286.6	14
286.7	21
286.8	21
286.9	16
287.1	9
287.2	13
287.3	18
287.4	19
287.5	14
287.6	7
287.8	6
287.9	12
288.0	17
288.1	17
288.2	13
288.4	9
288.5	13
288.6	17
288.7	17
288.8	11
289.0	3
289.1	8
289.2	15
289.3	19
289.4	18
289.5	12
289.7	6
289.8	11
289.9	16
290.0	17
290.1	13
290.3	9
290.4	13
290.5	18
290.6	19
290.7	15
291.0	8
291.1	14
291.2	20
291.3	19
291.4	13
291.6	6
291.7	11
291.8	16
291.9	18
292.0	14
292.2	6
292.3	9
292.4	15
292.5	20
292.6	18
292.7	12
292.9	6
293.0	11
293.1	16
293.2	16
293.3	12
293.5	6
293.6	9
293.7	15
293.8	18
293.9	15
294.2	9
294.3	16
294.4	20
294.5	17
294.6	10
294.8	7
294.9	12
295.0	16
295.1	16
295.2	12
295.4	7
295.5	10
295.6	16
295.7	19
295.8	17
295.9	10
296.1	6
296.2	13
296.3	18
296.4	17
296.5	11
296.7	4
296.8	10
296.9	17
297.0	19
297.1	13
297.3	1
297.4	6
297.5	15
297.6	20
297.7	19
297.8	12
298.0	7
298.1	13
298.2	19
298.3	18
298.4	13
298.6	6
298.7	10
298.8	16
298.9	19
299.0	15
299.1	9
299.3	8
299.4	12
299.5	15
299.6	15
299.7	10
299.9	5
300.0	12
300.1	19
300.2	21
300.3	16
300.4	8
300.6	7
300.7	15
300.8	20
300.9	19
301.0	12
301.2	3
301.3	8
301.4	15
301.5	16
301.6	12
301.8	3
301.9	8
302.0	16
302.1	21
302.2	18
302.3	10
302.5	6
302.6	14
302.7	21
302.8	22
302.9	15
303.1	5
303.2	9
303.3	16
303.4	18
303.5	13
303.8	6
303.9	14
304.0	18
304.1	16
304.2	6
304.4	2
304.5	13
304.6	21
304.7	20
304.8	11
305.0	2
305.1	9
305.2	17
305.3	21
305.4	17
305.5	8
305.7	6
305.8	14
305.9	21
306.0	20
306.1	13
306.3	4
306.4	10
306.5	18
306.6	20
306.7	15
306.8	7
307.0	6
307.1	13
307.2	19
307.3	17
307.4	8
307.6	2
307.7	10
307.8	18
307.9	20
308.0	16
308.9	6
309.0	12
309.1	18
309.2	20
309.3	16
310.1	4
310.2	8
310.3	15
310.4	19
310.5	16
310.6	11
310.8	9
310.9	14
311.0	19
311.1	18
311.2	11
311.4	2
311.5	7
311.6	15
311.7	19
311.8	18
311.9	11
312.1	4
312.2	9
312.3	15
312.4	16
312.5	13
313.3	8
313.4	11
313.5	16
313.6	19
313.7	16
313.8	10
314.0	6
314.1	12
314.2	18
314.3	20
314.4	14
314.7	7
314.8	14
314.9	18
315.0	15
315.1	7
315.3	3
315.4	12
315.5	20
315.6	21
315.7	14
315.8	6
316.0	6
316.1	11
316.2	14
316.3	13
316.6	9
316.7	13
316.8	16
316.9	14
317.2	7
317.3	13
317.4	20
317.5	20
317.6	14
317.9	6
318.0	15
318.1	22
318.2	21
318.3	13
318.5	5
318.6	11
318.7	17
318.8	17
318.9	12
319.1	5
319.2	10
319.3	16
319.4	17
319.5	13
319.7	6
319.8	11
319.9	18
320.0	20
320.1	15
320.2	8
320.4	5
320.5	12
320.6	18
320.7	17
320.8	10
321.0	6
321.1	12
321.2	18
321.3	18
321.4	13
321.7	5
321.8	13
321.9	20
322.0	19
322.1	11
322.3	5
322.4	12
322.5	19
322.6	21
322.7	16
322.8	8
323.0	6
323.1	13
323.2	18
323.3	17
323.4	11
323.6	6
323.7	13
323.8	19
323.9	19
324.0	12
324.2	6
324.3	11
324.4	19
324.5	24
324.6	20
324.7	10
324.9	5
325.0	13
325.1	21
325.2	21
325.3	14
325.5	5
325.6	9
325.7	15
325.8	17
325.9	13
326.1	6
326.2	11
326.3	18
326.4	23
326.5	20
326.6	12
326.8	3
326.9	9
327.0	17
327.1	20
327.2	16
328.1	7
328.2	14
328.3	20
328.4	19
328.5	12
328.7	7
328.8	13
328.9	19
329.0	21
329.1	16
329.3	5
329.4	9
329.5	19
329.6	25
329.7	22
329.8	13
330.0	3
330.1	11
330.2	19
330.3	21
330.4	15
330.7	7
330.8	16
330.9	21
331.0	18
331.1	11
331.3	7
331.4	14
331.5	19
331.6	18
331.7	12
331.9	7
332.0	13
332.1	19
332.2	20
332.3	14
332.6	6
332.7	14
332.8	21
332.9	19
333.0	11
333.2	2
333.3	8
333.4	16
333.5	20
333.6	16
333.8	7
333.9	11
334.0	18
334.1	21
334.2	18
334.3	10
334.5	6
334.6	13
334.7	18
334.8	17
334.9	11
335.1	6
335.2	11
335.3	18
335.4	20
335.5	17
335.6	10
335.8	8
335.9	14
336.0	19
336.1	18
336.2	12
336.4	7
336.5	13
336.6	18
336.7	19
336.8	14
337.0	5
337.1	9
337.2	17
337.3	22
337.4	20
337.5	12
337.7	4
337.8	10
337.9	17
338.0	17
338.1	12
338.3	6
338.4	12
338.5	18
338.6	19
338.7	15
338.9	6
339.0	10
339.1	18
339.2	23
339.3	20
339.4	11
339.6	4
339.7	12
339.8	20
339.9	22
340.0	16
340.1	7
340.3	7
340.4	14
340.5	18
340.6	16
340.7	10
340.9	7
341.0	11
341.1	16
341.2	17
341.3	14
341.5	8
341.6	12
341.7	18
341.8	20
341.9	16
342.0	10
342.2	8
342.3	11
342.4	14
342.5	12
342.8	7
342.9	12
343.0	17
343.1	16
343.2	11
343.4	2
343.5	7
343.6	15
343.7	20
343.8	16
343.9	8
344.1	5
344.2	13
344.3	20
344.4	21
344.5	14
344.7	5
344.8	10
344.9	17
345.0	19
345.1	15
345.4	9
345.5	15
345.6	19
345.7	16
345.8	10
346.0	6
346.1	13
346.2	19
346.3	19
346.4	13
346.6	4
346.7	11
346.8	19
346.9	23
347.0	19
347.1	11
347.3	6
347.4	13
347.5	20
347.6	20
347.7	14
347.9	5
348.0	10
348.1	15
348.2	16
348.3	10
348.5	0
348.6	5
348.7	14
348.8	20
348.9	19
349.0	13
349.2	9
349.3	13
349.4	18
349.5	19
349.6	15
350.5	3
350.6	9
350.7	15
350.8	16
350.9	11
351.1	3
351.2	7
351.3	14
351.4	17
351.5	13
351.7	4
351.8	7
351.9	15
352.0	22
352.1	23
352.2	16
353.0	6
353.1	10
353.2	15
353.3	17
353.4	15
353.5	10
353.7	8
353.8	13
353.9	17
354.0	17
354.1	13
354.3	4
354.4	8
354.5	16
354.6	21
354.7	18
354.8	10
355.0	3
355.1	10
355.2	18
355.3	19
355.4	13
355.6	7
355.7	12
355.8	19
355.9	20
356.0	15
356.9	9
357.0	16
357.1	21
357.2	19
357.3	13
357.5	8
357.6	13
357.7	18
357.8	19
357.9	14
358.2	8
358.3	14
358.4	17
358.5	16
358.6	10
358.8	8
358.9	13
359.0	18
359.1	17
359.2	11
359.4	5
359.5	9
359.6	15
359.7	17
359.8	15
359.9	9
360.1	8
360.2	13
360.3	17
360.4	15
360.5	9
360.7	5
360.8	11
360.9	18
361.0	19
361.1	14
361.3	5
361.4	10
361.5	16
361.6	18
361.7	14
361.8	8
362.0	6
362.1	12
362.2	17
362.3	17
362.4	12
362.6	5
362.7	9
362.8	16
362.9	19
363.0	15
363.3	8
363.4	15
363.5	20
363.6	17
363.7	10
363.9	6
364.0	11
364.1	15
364.2	16
364.3	13
364.5	4
364.6	7
364.7	15
364.8	20
364.9	18
365.0	10
365.2	6
365.3	14
365.4	19
365.5	17
365.6	10
365.8	2
365.9	9
366.0	17
366.1	19
366.2	15
366.3	7
366.5	4
366.6	12
366.7	19
366.8	19
366.9	13
367.1	4
367.2	9
367.3	16
367.4	19
367.5	14
367.7	3
367.8	8
367.9	16
368.0	20
368.1	16
368.2	9
368.4	3
368.5	9
368.6	15
368.7	18
368.8	15
368.9	10
369.1	9
369.2	13
369.3	16
369.4	14
369.7	8
369.8	15
369.9	21
370.0	21
370.1	14
370.9	6
371.0	11
371.1	18
371.2	21
371.3	18
371.4	10
371.6	4
371.7	9
371.8	16
371.9	17
372.0	13
372.2	8
372.3	12
372.4	17
372.5	18
372.6	15
372.7	10
372.9	7
373.0	12
373.1	16
373.2	16
373.3	11
373.5	4
373.6	9
373.7	15
373.8	17
373.9	13
374.1	4
374.2	9
374.3	18
374.4	22
374.5	18
374.6	10
374.8	6
374.9	12
375.0	19
375.1	21
375.2	16
375.4	6
375.5	10
375.6	18
375.7	22
375.8	18
375.9	8
376.1	3
376.2	11
376.3	19
376.4	20
376.5	14
376.7	6
376.8	10
376.9	16
377.0	19
377.1	15
377.4	9
377.5	16
377.6	21
377.7	19
377.8	13
378.0	8
378.1	11
378.2	15
378.3	15
378.4	12
378.6	8
378.7	12
378.8	17
378.9	17
379.0	12
379.2	1
379.3	6
379.4	15
379.5	21
379.6	21
379.7	14
379.9	6
380.0	11
380.1	17
380.2	20
380.3	19
380.4	14
380.6	12
380.7	17
380.8	20
380.9	17
381.0	9
381.2	3
381.3	8
381.4	15
381.5	17
381.6	15
381.9	9
382.0	15
382.1	20
382.2	19
382.3	11
382.5	3
382.6	10
382.7	17
382.8	19
382.9	15
383.1	7
383.2	13
383.3	20
383.4	22
383.5	17
383.6	8
383.8	5
383.9	13
384.0	19
384.1	18
384.2	11
384.4	7
384.5	13
384.6	18
384.7	17
384.8	11
385.0	6
385.1	12
385.2	18
385.3	20
385.4	15
385.6	6
385.7	10
385.8	17
385.9	22
386.0	21
386.1	15
386.3	5
386.4	10
386.5	16
386.6	19
386.7	15
387.6	7
387.7	14
387.8	20
387.9	19
388.0	14
388.2	8
388.3	11
388.4	15
388.5	16
388.6	13
389.5	2
389.6	9
389.7	17
389.8	19
389.9	15
390.0	8
390.2	6
390.3	12
390.4	18
390.5	18
390.6	12
390.8	9
390.9	15
391.0	20
391.1	21
391.2	17
391.3	11
391.5	7
391.6	13
391.7	18
391.8	18
391.9	14
392.1	9
392.2	13
392.3	16
392.4	13
392.5	7
392.7	5
392.8	11
392.9	17
393.0	20
393.1	16
393.2	8
393.4	6
393.5	13
393.6	19
393.7	19
393.8	13
394.0	6
394.1	11
394.2	16
394.3	17
394.4	14
394.7	8
394.8	12
394.9	15
395.0	14
395.3	7
395.4	13
395.5	18
395.6	19
395.7	16
396.6	5
396.7	10
396.8	16
396.9	16
397.0	12
397.2	8
397.3	13
397.4	18
397.5	17
397.6	11
397.8	3
397.9	7
398.0	14
398.1	16
398.2	13
398.3	8
398.5	7
398.6	12
398.7	16
398.8	17
398.9	13
399.7	9
399.8	11
399.9	16
400.0	18
400.1	16
400.2	9
400.4	3
400.5	10
400.6	16
400.7	17
400.8	12
401.0	6
401.1	12
401.2	19
401.3	22
401.4	18
401.5	10
401.7	6
401.8	13
401.9	18
402.0	19
402.1	13
402.3	7
402.4	12
402.5	17
402.6	18
402.7	12
402.9	3
403.0	7
403.1	16
403.2	21
403.3	18
403.4	9
403.6	4
403.7	11
403.8	19
403.9	19
404.0	14
404.2	9
404.3	15
404.4	20
404.5	20
404.6	13
404.9	4
405.0	12
405.1	18
405.2	19
405.3	14
406.1	4
406.2	8
406.3	15
406.4	18
406.5	16
406.6	9
406.8	5
406.9	11
407.0	17
407.1	19
407.2	13
407.4	1
407.5	6
407.6	15
407.7	22
407.8	19
407.9	10
408.1	3
408.2	10
408.3	17
408.4	18
408.5	13
408.7	6
408.8	10
408.9	15
409.0	17
409.1	14
410.0	8
410.1	13
410.2	16
410.3	15
410.4	10
410.6	6
410.7	12
410.8	17
410.9	19
411.0	14
411.1	6
411.3	5
411.4	12
411.5	18
411.6	17
411.7	11
411.9	4
412.0	10
412.1	17
412.2	19
412.3	15
412.4	9
412.6	8
412.7	13
412.8	16
412.9	14
413.2	8
413.3	13
413.4	18
413.5	16
413.6	10
413.8	4
413.9	9
414.0	16
414.1	19
414.2	16
414.3	9
414.5	7
414.6	14
414.7	21
414.8	21
414.9	14
415.1	5
415.2	10
415.3	17
415.4	20
415.5	16
415.6	8
415.8	6
415.9	13
416.0	19
416.1	18
416.2	12
416.4	7
416.5	12
416.6	17
416.7	17
416.8	12
417.0	4
417.1	9
417.2	16
417.3	19
417.4	15
417.7	5
417.8	14
417.9	20
418.0	21
418.1	16
418.4	10
418.5	16
418.6	20
418.7	18
418.8	14
419.0	11
419.1	13
419.2	14
419.3	13
419.4	10
419.6	7
419.7	11
419.8	17
419.9	18
420.0	13
420.3	6
420.4	14
420.5	19
420.6	16
420.7	9
420.9	5
421.0	12
421.1	18
421.2	18
421.3	14
421.6	7
421.7	12
421.8	15
421.9	12
422.1	6
422.2	10
422.3	16
422.4	20
422.5	19
422.6	13
422.8	8
422.9	12
423.0	18
423.1	20
423.2	15
423.5	8
423.6	16
423.7	21
423.8	19
423.9	11
424.1	8
424.2	14
424.3	18
424.4	17
424.5	12
424.7	4
424.8	8
424.9	16
425.0	20
425.1	17
425.2	10
425.4	8
425.5	15
425.6	20
425.7	17
425.8	10
426.0	5
426.1	10
426.2	14
426.3	15
426.4	11
426.6	4
426.7	10
426.8	18
426.9	21
427.0	18
427.1	11
427.3	6
427.4	12
427.5	18
427.6	19
427.7	14
427.9	7
428.0	11
428.1	17
428.2	18
428.3	13
428.5	3
428.6	7
428.7	16
428.8	21
428.9	20
429.0	13
429.2	5
429.3	11
429.4	19
429.5	20
429.6	15
429.8	4
429.9	9
430.0	16
430.1	20
430.2	17
430.3	10
430.5	8
430.6	15
430.7	19
430.8	17
430.9	9
431.1	0
431.2	6
431.3	14
431.4	19
431.5	17
431.6	11
431.8	8
431.9	15
432.0	21
432.1	20
432.2	12
432.4	5
432.5	11
432.6	18
432.7	20
432.8	16
433.0	7
433.1	11
433.2	18
433.3	21
433.4	16
433.5	9
433.7	6
433.8	12
433.9	18
434.0	18
434.1	12
434.3	7
434.4	13
434.5	20
434.6	24
434.7	20
434.8	11
435.0	7
435.1	13
435.2	19
435.3	18
435.4	11
435.6	4
435.7	8
435.8	12
435.9	13
436.0	8
436.2	4
436.3	10
436.4	16
436.5	18
436.6	14
436.7	8
436.9	5
437.0	11
437.1	16
437.2	18
437.3	13
437.5	6
437.6	11
437.7	18
437.8	20
437.9	15
438.1	7
438.2	12
438.3	20
438.4	22
438.5	17
438.6	9
438.8	6
438.9	12
439.0	18
439.1	19
439.2	14
439.4	6
439.5	10
439.6	16
439.7	18
439.8	16
440.1	9
440.2	16
440.3	21
440.4	20
440.5	14
440.7	8
440.8	13
440.9	18
441.0	17
441.1	11
441.3	3
441.4	7
441.5	14
441.6	17
441.7	15
441.8	11
442.0	7
442.1	11
442.2	15
442.3	16
442.4	12
442.6	5
442.7	9
442.8	16
442.9	19
443.0	17
443.1	11
443.3	6
443.4	10
443.5	16
443.6	17
443.7	12
443.9	4
444.0	9
444.1	18
444.2	21
444.3	17
444.4	8
444.6	6
444.7	13
444.8	18
444.9	16
445.0	10
445.2	6
445.3	11
445.4	17
445.5	19
445.6	15
445.9	8
446.0	15
446.1	19
446.2	17
446.3	10
446.5	6
446.6	13
446.7	20
446.8	20
446.9	12
447.1	4
447.2	11
447.3	17
447.4	17
447.5	11
447.7	3
447.8	8
447.9	15
448.0	19
448.1	16
448.2	10
448.4	7
448.5	14
448.6	20
448.7	20
448.8	13
449.0	3
449.1	8
449.2	16
449.3	20
449.4	18
449.5	10
449.7	7
449.8	15
449.9	23
450.0	23
450.1	16
450.3	5
450.4	10
450.5	17
450.6	19
450.7	14
450.9	5
451.0	9
451.1	16
451.2	20
451.3	17
451.4	8
451.6	3
451.7	11
451.8	18
451.9	18
452.0	11
452.2	4
452.3	11
452.4	20
452.5	23
452.6	17
452.7	9
452.9	5
453.0	10
453.1	14
453.2	15
453.3	13
453.5	9
453.6	13
453.7	17
453.8	18
453.9	13
454.1	5
454.2	9
454.3	15
454.4	17
454.5	15
454.6	9
454.8	7
454.9	14
455.0	20
455.1	21
455.2	15
455.5	8
455.6	16
455.7	20
455.8	18
455.9	11
456.1	8
456.2	13
456.3	18
456.4	19
456.5	14
457.3	5
457.4	10
457.5	17
457.6	22
457.7	20
457.8	13
458.0	5
458.1	9
458.2	14
458.3	15
458.4	11
458.6	3
458.7	7
458.8	15
458.9	19
459.0	16
459.1	9
459.3	7
459.4	14
459.5	19
459.6	18
459.7	11
459.9	3
460.0	9
460.1	16
460.2	19
460.3	15
461.2	3
461.3	8
461.4	14
461.5	17
461.6	15
461.9	10
462.0	15
462.1	19
462.2	17
462.3	11
462.5	5
462.6	10
462.7	16
462.8	18
462.9	14
463.1	9
463.2	13
463.3	18
463.4	17
463.5	11
463.7	2
463.8	8
463.9	16
464.0	21
464.1	19
464.2	12
464.4	5
464.5	11
464.6	18
464.7	20
464.8	14
465.0	5
465.1	10
465.2	18
465.3	22
465.4	18
465.5	10
465.7	6
465.8	12
465.9	17
466.0	16
466.1	11
466.3	7
466.4	13
466.5	19
466.6	20
466.7	14
466.9	6
467.0	10
467.1	16
467.2	17
467.3	12
467.6	4
467.7	11
467.8	18
467.9	20
468.0	15
468.9	6
469.0	14
469.1	20
469.2	20
469.3	14
470.1	4
470.2	9
470.3	17
470.4	21
470.5	18
470.6	11
470.8	6
470.9	10
471.0	14
471.1	16
471.2	13
471.4	7
471.5	10
471.6	15
471.7	18
471.8	15
472.1	8
472.2	15
472.3	20
472.4	18
472.5	11
472.7	6
472.8	13
472.9	20
473.0	21
473.1	15
473.4	7
473.5	15
473.6	20
473.7	19
473.8	13
474.0	9
474.1	16
474.2	20
474.3	19
474.4	12
474.6	5
474.7	10
474.8	16
474.9	17
475.0	12
475.2	3
475.3	8
475.4	15
475.5	21
475.6	20
475.7	14
475.9	8
476.0	13
476.1	19
476.2	21
476.3	16
476.4	7
476.6	5
476.7	13
476.8	19
476.9	17
477.0	11
477.2	7
477.3	12
477.4	16
477.5	16
477.6	12
477.8	5
477.9	9
478.0	15
478.1	18
478.2	15
478.3	9
478.5	7
478.6	12
478.7	17
478.8	16
478.9	11
479.1	8
479.2	12
479.3	17
479.4	18
479.5	16
479.6	11
479.8	10
479.9	14
480.0	18
480.1	16
480.2	10
480.4	7
480.5	14
480.6	21
480.7	22
480.8	14
481.0	1
481.1	7
481.2	19
481.3	25
481.4	21
481.5	11
481.7	6
481.8	12
481.9	17
482.0	18
482.1	14
482.3	7
482.4	11
482.5	17
482.6	19
482.7	14
482.8	5
483.0	4
483.1	11
483.2	16
483.3	16
483.4	12
483.6	9
483.7	15
483.8	22
483.9	23
484.0	17
484.3	9
484.4	16
484.5	20
484.6	17
484.7	9
484.9	6
485.0	14
485.1	20
485.2	20
485.3	13
485.5	6
485.6	13
485.7	20
485.8	22
485.9	16
486.0	7
486.2	6
486.3	13
486.4	17
486.5	16
486.8	10
486.9	16
487.0	20
487.1	19
487.2	12
487.4	3
487.5	7
487.6	15
487.7	20
487.8	18
487.9	11
488.1	7
488.2	13
488.3	17
488.4	16
488.5	10
488.7	4
488.8	9
488.9	15
489.0	17
489.1	13
489.4	8
489.5	14
489.6	18
489.7	16
490.0	10
490.1	16
490.2	22
490.3	21
490.4	15
490.6	4
490.7	8
490.8	16
490.9	20
491.0	18
491.1	11
491.3	6
491.4	11
491.5	16
491.6	16
491.7	12
491.9	6
492.0	11
492.1	17
492.2	19
492.3	17
492.4	11
492.6	10
492.7	14
492.8	17
492.9	16
493.0	11
493.2	7
493.3	12
493.4	16
493.5	17
493.6	12
493.8	5
493.9	8
494.0	14
494.1	18
494.2	15
494.3	9
494.5	5
494.6	12
494.7	18
494.8	18
494.9	13
495.1	6
495.2	10
495.3	15
495.4	16
495.5	14
495.7	8
495.8	11
495.9	17
496.0	20
496.1	19
496.2	13
496.4	7
496.5	13
496.6	19
496.7	21
496.8	16
496.9	8
497.1	7
497.2	14
497.3	18
497.4	17
497.5	12
497.7	8
497.8	11
497.9	14
498.0	14
498.1	11
498.3	6
498.4	10
498.5	14
498.6	16
498.7	13
499.0	6
499.1	13
499.2	19
499.3	19
499.4	12
499.6	3
499.7	8
499.8	15
499.9	17
500.0	13
500.2	4
500.3	9
500.4	18
500.5	24
500.6	22
500.7	15
500.9	8
501.0	11
501.1	16
501.2	17
501.3	13
501.6	8
501.7	14
501.8	17
501.9	15
502.0	10
502.2	8
502.3	13
502.4	15
502.5	14
502.6	9
502.8	7
502.9	12
503.0	16
503.1	16
503.2	12
503.4	7
503.5	11
503.6	17
503.7	20
503.8	17
503.9	11
504.1	8
504.2	13
504.3	17
504.4	15
504.5	10
504.7	4
504.8	9
504.9	15
505.0	16
505.1	12
505.3	4
505.4	7
505.5	15
505.6	21
505.7	20
505.8	13
506.0	5
506.1	11
506.2	17
506.3	18
506.4	13
506.7	5
506.8	13
506.9	19
507.0	19
507.1	14
507.3	8
507.4	13
507.5	17
507.6	16
507.7	11
507.9	2
508.0	8
508.1	16
508.2	20
508.3	16
508.4	7
508.6	5
508.7	12
508.8	17
508.9	16
509.0	10
509.2	6
509.3	12
509.4	17
509.5	18
509.6	13
509.8	5
509.9	8
510.0	15
510.1	18
510.2	14
510.3	6
510.5	3
510.6	13
510.7	22
510.8	23
510.9	15
511.1	4
511.2	9
511.3	17
511.4	21
511.5	18
511.6	11
511.8	7
511.9	13
512.0	18
512.1	17
512.2	11
512.4	7
512.5	11
512.6	17
512.7	18
512.8	14
513.7	5
513.8	10
513.9	13
514.0	13
514.3	8
514.4	13
514.5	19
514.6	20
514.7	14
515.0	9
515.1	15
515.2	18
515.3	16
515.4	10
515.6	6
515.7	11
515.8	17
515.9	17
516.0	13
516.2	7
516.3	10
516.4	15
516.5	17
516.6	13
516.7	7
516.9	5
517.0	12
517.1	18
517.2	17
517.3	9
517.5	4
517.6	12
517.7	19
517.8	19
517.9	14
518.1	6
518.2	10
518.3	15
518.4	17
518.5	14
518.6	8
518.8	5
518.9	11
519.0	15
519.1	15
519.2	10
519.4	4
519.5	9
519.6	16
519.7	21
519.8	19
519.9	11
520.1	4
520.2	10
520.3	17
520.4	18
520.5	11
520.7	2
520.8	9
520.9	18
521.0	22
521.1	17
521.2	9
521.4	6
521.5	14
521.6	20
521.7	20
521.8	13
522.0	6
522.1	11
522.2	18
522.3	18
522.4	12
522.6	4
522.7	11
522.8	20
522.9	24
523.0	19
523.1	10
523.3	6
523.4	12
523.5	17
523.6	16
523.7	11
523.9	7
524.0	11
524.1	15
524.2	15
524.3	10
524.5	2
524.6	7
524.7	15
524.8	21
524.9	20
525.0	12
525.2	2
525.3	9
525.4	17
525.5	19
525.6	14
525.9	8
526.0	15
526.1	20
526.2	18
526.3	12
526.5	8
526.6	12
526.7	16
526.8	14
527.1	11
527.2	16
527.3	19
527.4	17
527.5	11
527.7	5
527.8	9
527.9	15
528.0	18
528.1	17
528.2	13
528.4	8
528.5	12
528.6	17
528.7	18
528.8	14
529.0	7
529.1	11
529.2	17
529.3	20
529.4	17
529.5	10
529.7	5
529.8	10
529.9	14
530.0	13
530.1	8
530.3	6
530.4	12
530.5	19
530.6	21
530.7	17
530.8	10
531.0	9
531.1	15
531.2	19
531.3	18
531.4	14
531.6	10
531.7	15
531.8	20
531.9	21
532.0	16
532.1	9
532.3	7
532.4	12
532.5	15
532.6	13
532.8	6
532.9	9
533.0	16
533.1	21
533.2	21
533.3	14
533.5	4
533.6	9
533.7	16
533.8	19
533.9	15
534.0	8
534.2	7
534.3	13
534.4	18
534.5	16
534.6	11
534.8	8
534.9	12
535.0	18
535.1	19
535.2	13
535.4	3
535.5	7
535.6	15
535.7	20
535.8	17
535.9	10
536.1	6
536.2	13
536.3	19
536.4	19
536.5	13
536.7	5
536.8	10
536.9	17
537.0	20
537.1	16
537.2	10
537.4	9
537.5	15
537.6	19
537.7	18
537.8	12
538.0	8
538.1	14
538.2	19
538.3	19
538.4	13
538.6	2
538.7	7
538.8	15
538.9	20
539.0	17
539.1	10
539.3	8
539.4	16
539.5	23
539.6	22
539.7	14
539.9	6
540.0	12
540.1	18
540.2	19
540.3	13
540.5	3
540.6	8
540.7	17
540.8	23
540.9	21
541.0	13
541.2	5
541.3	11
541.4	18
541.5	18
541.6	12
541.8	7
541.9	13
542.0	19
542.1	20
542.2	15
542.4	4
542.5	8
542.6	16
542.7	22
542.8	21
542.9	13
543.1	6
543.2	12
543.3	18
543.4	20
543.5	15
543.8	9
543.9	15
544.0	19
544.1	16
544.2	11
544.4	7
544.5	12
544.6	19
544.7	20
544.8	15
545.1	8
545.2	14
545.3	18
545.4	15
545.5	8
545.7	6
545.8	14
545.9	20
546.0	20
546.1	13
546.3	5
546.4	10
546.5	15
546.6	17
546.7	13
546.9	6
547.0	10
547.1	16
547.2	20
547.3	18
547.4	11
547.6	5
547.7	10
547.8	17
547.9	20
548.0	15
548.3	6
548.4	14
548.5	19
548.6	18
548.7	11
548.9	10
549.0	15
549.1	19
549.2	17
549.3	10
549.5	1
549.6	7
549.7	16
549.8	20
549.9	15
550.1	4
550.2	9
550.3	17
550.4	22
550.5	18
550.6	10
550.8	8
550.9	15
551.0	19
551.1	18
551.2	11
551.4	3
551.5	9
551.6	16
551.7	19
551.8	14
551.9	5
552.1	3
552.2	13
552.3	20
552.4	19
552.5	11
552.7	3
552.8	11
552.9	19
553.0	21
553.1	13
553.3	3
553.4	8
553.5	16
553.6	20
553.7	17
553.8	11
554.0	8
554.1	13
554.2	18
554.3	18
554.4	11
554.6	0
554.7	6
554.8	16
554.9	22
555.0	19
555.1	11
555.3	8
555.4	13
555.5	16
555.6	14
555.9	8
556.0	13
556.1	19
556.2	19
556.3	15
556.4	8
556.6	6
556.7	13
556.8	18
556.9	17
557.0	11
557.2	5
557.3	10
557.4	17
557.5	19
557.6	14
557.8	4
557.9	9
558.0	17
558.1	21
558.2	19
558.3	13
558.5	7
558.6	11
558.7	16
558.8	18
558.9	14
559.1	8
559.2	11
559.3	17
559.4	20
559.5	15
559.6	8
559.8	7
559.9	14
560.0	19
560.1	17
560.2	11
560.4	6
560.5	11
560.6	16
560.7	16
560.8	10
561.0	2
561.1	9
561.2	19
561.3	23
561.4	18
561.5	8
561.7	3
561.8	11
561.9	17
562.0	18
562.1	12
562.3	5
562.4	10
562.5	15
562.6	16
562.7	12
562.9	3
563.0	7
563.1	15
563.2	20
563.3	18
563.4	10
563.6	4
563.7	9
563.8	15
563.9	17
564.0	14
564.2	8
564.3	11
564.4	17
564.5	19
564.6	15
564.7	6
564.9	3
565.0	11
565.1	17
565.2	17
565.3	11
565.5	2
565.6	7
565.7	15
565.8	19
565.9	16
566.2	7
566.3	16
566.4	22
566.5	19
566.6	10
566.8	3
566.9	10
567.0	16
567.1	17
567.2	12
567.4	6
567.5	10
567.6	16
567.7	17
567.8	13
568.7	2
568.8	8
568.9	16
569.0	19
569.1	16
569.2	10
569.4	9
569.5	14
569.6	17
569.7	14
570.0	6
570.1	14
570.2	21
570.3	22
570.4	16
570.6	6
570.7	11
570.8	17
570.9	19
571.0	15
571.1	8
571.3	3
571.4	8
571.5	14
571.6	16
571.7	13
571.9	5
572.0	8
572.1	14
572.2	17
572.3	14
572.6	9
572.7	15
572.8	19
572.9	17
573.0	11
573.2	5
573.3	10
573.4	16
573.5	19
573.6	16
574.5	6
574.6	14
574.7	20
574.8	21
574.9	16
575.0	10
575.2	8
575.3	13
575.4	16
575.5	14
575.8	9
575.9	15
576.0	20
576.1	19
576.2	12
576.4	1
576.5	7
576.6	15
576.7	19
576.8	16
577.1	10
577.2	16
577.3	20
577.4	17
577.5	11
577.7	9
577.8	14
577.9	18
578.0	16
578.1	10
578.3	6
578.4	11
578.5	18
578.6	19
578.7	15
579.0	7
579.1	14
579.2	19
579.3	18
579.4	12
579.6	5
579.7	12
579.8	21
579.9	24
580.0	18
580.1	9
580.3	8
580.4	15
580.5	19
580.6	15
580.9	9
581.0	16
581.1	19
581.2	16
581.3	11
581.5	10
581.6	15
581.7	19
581.8	18
581.9	13
582.2	6
582.3	13
582.4	19
582.5	18
582.6	10
582.8	5
582.9	14
583.0	22
583.1	23
583.2	15
583.4	3
583.5	9
583.6	19
583.7	22
583.8	18
583.9	10
584.1	6
584.2	12
584.3	18
584.4	17
584.5	12
584.7	9
584.8	14
584.9	20
585.0	21
585.1	16
585.2	9
585.4	8
585.5	14
585.6	17
585.7	15
586.0	7
586.1	14
586.2	20
586.3	20
586.4	14
586.7	9
586.8	15
586.9	18
587.0	16
587.1	11
587.3	5
587.4	10
587.5	15
587.6	16
587.7	13
587.9	8
588.0	14
588.1	20
588.2	20
588.3	13
588.5	4
588.6	10
588.7	18
588.8	23
588.9	20
589.0	12
589.2	8
589.3	14
589.4	20
589.5	21
589.6	16
590.4	4
590.5	8
590.6	16
590.7	20
590.8	18
590.9	10
591.1	3
591.2	9
591.3	16
591.4	18
591.5	13
592.4	7
592.5	12
592.6	17
592.7	17
592.8	12
593.0	4
593.1	7
593.2	13
593.3	18
593.4	17
593.5	13
593.7	11
593.8	14
593.9	18
594.0	18
594.1	14
594.3	8
594.4	13
594.5	19
594.6	21
594.7	15
594.9	4
595.0	8
595.1	16
595.2	21
595.3	18
595.4	11
595.6	6
595.7	12
595.8	19
595.9	20
596.0	14
596.1	7
596.3	5
596.4	11
596.5	16
596.6	17
596.7	13
596.9	10
597.0	15
597.1	19
597.2	18
597.3	13
597.5	6
597.6	11
597.7	18
597.8	21
597.9	16
598.0	8
598.2	6
598.3	13
598.4	18
598.5	15
598.6	8
598.8	5
598.9	12
599.0	19
599.1	20
599.2	16
