Mass spectrum: Dubinidine; LC-ESI-QQQ; MS2; Frag=135.0V CID@5.0; [M+H]+
Name: Dubinidine
Class: Alkaloids
Formula: C15H17NO4
Exact mass: 275.307
SMILES: COc1c2c(nc3ccccc13)OC(C(C)(O)CO)C2
InChI: InChI=1S/C15H17NO4/c1-15(18,8-17)12-7-10-13(19-2)9-5-3-4-6-11(9)16-14(10)20-12/h3-6,12,17-18H,7-8H2,1-2H3
Instrument: Agilent 6410 Triple Quadrupole LC/MS system
Instrument type: LC-ESI-QQQ
Ms type: MS2
Ion mode: POSITIVE
Precursor type: [M+H]+
m/z	relative intensity
257.7	1
257.8	3
257.9	6
258.0	8
258.1	9
258.2	9
258.3	7
258.4	5
258.5	2
275.2	0
275.3	1
275.4	4
275.5	7
275.6	12
275.7	23
275.8	42
275.9	65
276.0	86
276.1	97
276.2	99
276.3	92
276.4	73
276.5	46
276.6	18
276.7	1
