Mass spectrum: (+)-beta-Hydrastine; LC-ESI-QQQ; MS2; Frag=135.0V CID@10.0; [M+H]+
Name: (+)-beta-Hydrastine
Class: Alkaloids
Formula: C21H21NO6
Exact mass: 383.4046
SMILES: COc1ccc2c(c1OC)C(=O)O[C@H]2[C@@H]1c2cc3c(cc2CCN1C)OCO3
InChI: InChI=1S/C21H21NO6/c1-22-7-6-11-8-15-16(27-10-26-15)9-13(11)18(22)19-12-4-5-14(24-2)20(25-3)17(12)21(23)28-19/h4-5,8-9,18-19H,6-7,10H2,1-3H3/t18-,19+/m0/s1
Instrument: Agilent 6410 Triple Quadrupole LC/MS system
Instrument type: LC-ESI-QQQ
Ms type: MS2
Ion mode: POSITIVE
Precursor type: [M+H]+
m/z	relative intensity
189.5	1
189.6	2
189.7	4
189.8	7
189.9	11
190.0	14
190.1	16
190.2	16
190.3	14
190.4	10
190.5	5
190.6	1
322.6	2
322.7	3
322.8	6
322.9	9
323.0	12
323.1	14
323.2	15
323.3	13
323.4	10
323.5	5
323.6	1
383.3	0
383.4	2
383.5	6
383.6	11
383.7	20
383.8	34
383.9	53
384.0	74
384.1	92
384.2	99
384.3	94
384.4	75
384.5	45
384.6	17
384.7	0
