Mass spectrum: Bryoamaride; LC-ESI-QQQ; MS2; Frag=135.0V CID@25.0; [M-OH]+
Name: Bryoamaride
Class: Terpenoids
Formula: C36H54O12
Exact mass: 678.8246
SMILES: CC(C)(O)CCC(=O)[C@](C)(O)C1[C@H](O)C[C@@]2(C)C3CC=C4[C@@H](C=C(OC5OC(CO)C(O)C(O)C5O)C(=O)C4(C)C)[C@]3(C)C(=O)C[C@]12C
InChI: InChI=1S/C36H54O12/c1-31(2,45)12-11-23(39)36(8,46)28-19(38)14-33(5)22-10-9-17-18(35(22,7)24(40)15-34(28,33)6)13-20(29(44)32(17,3)4)47-30-27(43)26(42)25(41)21(16-37)48-30/h9,13,18-19,21-22,25-28,30,37-38,41-43,45-46H,10-12,14-16H2,1-8H3/t18-,19-,21?,22?,25?,26?,27?,28?,30?,33+,34-,35+,36+/m1/s1
Instrument: Agilent 6410 Triple Quadrupole LC/MS system
Instrument type: LC-ESI-QQQ
Ms type: MS2
Ion mode: POSITIVE
Precursor type: [M-OH]+
m/z	relative intensity
108.4	1
108.5	3
108.6	6
108.7	9
108.8	9
108.9	7
109.0	6
109.1	5
109.2	6
109.3	5
109.4	4
110.6	2
110.7	3
110.8	6
110.9	8
111.0	8
111.1	7
111.2	6
111.3	4
112.1	1
112.2	5
112.3	11
112.4	20
112.5	28
112.6	35
112.7	47
112.8	64
112.9	81
113.0	92
113.1	98
113.2	92
113.3	69
113.4	35
113.5	7
113.6	0
122.8	3
122.9	5
123.0	7
123.1	10
123.2	12
123.3	12
123.4	9
123.5	4
138.7	2
138.8	5
138.9	9
139.0	11
139.1	10
139.2	8
139.3	5
139.4	3
140.6	3
140.7	4
140.8	6
140.9	10
141.0	13
141.1	13
141.2	11
141.3	7
141.4	3
146.6	1
146.7	3
146.8	6
146.9	9
147.0	11
147.1	10
147.2	7
147.3	3
148.5	4
148.6	6
148.7	8
148.8	12
148.9	14
149.0	17
149.1	20
149.2	22
149.3	21
149.4	15
149.5	7
149.6	1
164.8	2
164.9	3
165.0	6
165.1	11
165.2	16
165.3	17
165.4	13
165.5	6
166.4	1
166.5	3
166.6	9
166.7	16
166.8	22
166.9	23
167.0	19
167.1	15
167.2	14
167.3	14
167.4	12
167.5	8
167.6	4
174.5	0
174.6	1
174.7	6
174.8	17
174.9	27
175.0	29
175.1	23
175.2	15
175.3	11
175.4	7
175.5	4
176.7	2
176.8	5
176.9	8
177.0	9
177.1	8
177.2	5
177.3	5
177.4	6
177.5	6
177.6	4
178.6	1
178.7	5
178.8	12
178.9	18
179.0	17
179.1	10
179.2	3
180.7	2
180.8	4
180.9	6
181.0	6
181.1	4
184.9	3
185.0	5
185.1	7
185.2	10
185.3	10
185.4	8
185.5	4
186.6	2
186.7	3
186.8	5
186.9	7
187.0	9
187.1	10
187.2	11
187.3	8
187.4	5
278.6	1
278.7	4
278.8	8
278.9	11
279.0	11
279.1	8
279.2	3
280.5	1
280.6	3
280.7	5
280.8	8
280.9	8
281.0	5
282.8	1
282.9	3
283.0	6
283.1	10
283.2	12
283.3	10
283.4	5
295.1	3
295.2	5
295.3	6
295.4	7
295.5	5
296.7	3
296.8	4
296.9	7
297.0	8
297.1	8
297.2	6
297.3	4
298.5	1
298.6	5
298.7	13
298.8	24
298.9	34
299.0	38
299.1	34
299.2	24
299.3	13
299.4	5
316.5	0
316.6	1
316.7	6
316.8	16
316.9	25
317.0	27
317.1	20
317.2	12
317.3	6
317.4	4
322.6	2
322.7	4
322.8	7
322.9	8
323.0	6
323.1	4
324.6	1
324.7	3
324.8	6
324.9	9
325.0	11
325.1	11
325.2	9
325.3	6
325.4	3
334.7	3
334.8	5
334.9	8
335.0	10
335.1	10
335.2	8
335.3	5
340.3	3
340.4	5
340.5	7
340.6	8
340.7	8
340.8	7
340.9	8
341.0	10
341.1	10
341.2	7
341.3	3
384.7	1
384.8	3
384.9	8
385.0	12
385.1	14
385.2	11
385.3	8
385.4	4
394.8	1
394.9	3
395.0	7
395.1	8
395.2	6
395.3	3
424.9	1
425.0	3
425.1	6
425.2	7
425.3	5
456.6	1
456.7	3
456.8	9
456.9	16
457.0	22
457.1	22
457.2	19
457.3	17
457.4	17
457.5	14
457.6	8
457.7	2
462.6	3
462.7	4
462.8	9
462.9	20
463.0	32
463.1	36
463.2	27
463.3	13
463.4	2
480.4	3
480.5	5
480.6	9
480.7	14
480.8	20
480.9	25
481.0	33
481.1	43
481.2	53
481.3	55
481.4	43
481.5	22
481.6	5
498.2	1
498.3	4
498.4	8
498.5	10
498.6	9
498.7	7
498.8	12
498.9	32
499.0	63
499.1	90
499.2	99
499.3	94
499.4	78
499.5	55
499.6	27
499.7	5
