Mass spectrum: Pantoyl lactone; LC-ESI-QQQ; MS2; Frag=135.0V CID@5.0; [M+H]+
Name: Pantoyl lactone
Class: Oxygen heterocycles
Formula: C6H10O3
Exact mass: 130.1448
SMILES: CC1(C)COC(=O)C1O
InChI: InChI=1S/C6H10O3/c1-6(2)3-9-5(8)4(6)7/h4,7H,3H2,1-2H3
Instrument: Agilent 6410 Triple Quadrupole LC/MS system
Instrument type: LC-ESI-QQQ
Ms type: MS2
Ion mode: POSITIVE
Precursor type: [M+H]+
m/z	relative intensity
56.4	1
56.5	4
56.6	7
56.7	12
56.8	17
56.9	23
57.0	29
57.1	31
57.2	30
57.3	26
57.4	20
57.5	12
57.6	5
57.7	0
66.4	0
66.5	1
66.6	4
66.7	9
66.8	15
66.9	20
67.0	24
67.1	24
67.2	21
67.3	16
67.4	10
67.5	4
67.6	1
68.5	1
68.6	2
68.7	5
68.8	7
68.9	8
69.0	6
84.4	0
84.5	2
84.6	5
84.7	8
84.8	10
84.9	11
85.0	13
85.1	15
85.2	15
85.3	12
85.4	7
85.5	3
94.3	1
94.4	3
94.5	5
94.6	12
94.7	22
94.8	35
94.9	47
95.0	55
95.1	58
95.2	54
95.3	45
95.4	31
95.5	15
95.6	3
112.2	1
112.3	3
112.4	6
112.5	11
112.6	22
112.7	39
112.8	60
112.9	80
113.0	94
113.1	99
113.2	94
113.3	78
113.4	54
113.5	27
113.6	7
113.7	0
130.2	0
130.3	1
130.4	5
130.5	10
130.6	14
130.7	21
130.8	33
130.9	49
131.0	59
131.1	61
131.2	58
131.3	51
131.4	37
131.5	18
131.6	3
