Mass spectrum: 20-Hydroxyecdysone 2,3:20,22-diacetonide; LC-ESI-QQQ; MS2; Frag=135.0V CID@25.0; [M+HOO]-
Name: 20-Hydroxyecdysone 2,3:20,22-diacetonide
Class: Steroids
Formula: C33H52O7
Exact mass: 560.7782
SMILES: CC(C)(O)CC[C@H]1OC(C)(C)O[C@]1(C)[C@H]1CC[C@@]2(O)C3=CC(=O)[C@@H]4C[C@H]5OC(C)(C)O[C@H]5C[C@]4(C)[C@H]3CC[C@]12C
InChI: InChI=1S/C33H52O7/c1-27(2,35)13-12-26-32(9,40-29(5,6)39-26)25-11-15-33(36)20-16-22(34)21-17-23-24(38-28(3,4)37-23)18-30(21,7)19(20)10-14-31(25,33)8/h16,19,21,23-26,35-36H,10-15,17-18H2,1-9H3/t19-,21-,23+,24-,25-,26+,30+,31+,32+,33+/m0/s1
Instrument: Agilent 6410 Triple Quadrupole LC/MS system
Instrument type: LC-ESI-QQQ
Ms type: MS2
Ion mode: NEGATIVE
Precursor type: [M+HOO]-
m/z	relative intensity
50.8	6
50.9	9
51.0	11
51.1	12
51.2	11
51.3	10
51.4	11
51.5	12
51.6	13
51.7	13
51.8	13
51.9	13
52.0	14
52.1	15
52.2	14
52.3	12
52.6	9
52.7	11
52.8	12
52.9	12
53.0	10
53.2	8
53.3	10
53.4	12
53.5	13
53.6	13
53.7	11
53.8	9
54.1	8
54.2	11
54.3	14
54.4	15
54.5	15
54.6	14
54.7	13
54.8	12
54.9	12
55.0	11
55.1	10
56.1	6
56.2	8
56.3	10
56.4	13
56.5	15
56.6	13
56.7	11
57.6	7
57.7	8
57.8	10
57.9	10
58.0	8
58.3	7
58.4	9
58.5	10
58.6	10
58.7	9
58.8	7
59.1	6
59.2	7
59.3	9
59.4	10
59.5	10
59.6	10
59.7	10
59.8	11
59.9	13
60.0	12
60.1	10
60.2	7
60.3	6
60.6	5
60.7	7
60.8	9
60.9	12
61.0	12
61.1	11
61.9	8
62.0	10
62.1	13
62.2	14
62.3	13
62.4	10
63.2	7
63.3	8
63.4	10
63.5	11
63.6	11
64.3	9
64.4	11
64.5	12
64.6	12
64.7	11
65.0	9
65.1	11
65.2	11
65.3	11
65.4	10
65.7	9
65.8	11
65.9	12
66.0	11
66.3	8
66.4	10
66.5	12
66.6	11
66.7	10
66.8	10
66.9	11
67.0	13
67.1	15
67.2	15
67.3	14
68.3	10
68.4	11
68.5	11
68.6	11
68.7	12
68.8	13
68.9	12
69.0	10
69.2	9
69.3	10
69.4	13
69.5	16
69.6	16
69.7	15
69.8	12
69.9	10
70.2	10
70.3	10
70.4	11
70.5	12
70.6	12
70.7	12
70.8	12
70.9	12
71.0	12
71.1	12
71.2	11
71.6	11
71.7	11
71.8	12
71.9	13
72.0	13
72.1	13
72.2	13
72.3	12
72.4	11
72.8	11
72.9	12
73.0	13
73.1	13
73.2	12
73.5	10
73.6	11
73.7	12
73.8	12
74.7	10
74.8	12
74.9	14
75.0	15
75.1	12
75.2	9
75.4	8
75.5	10
75.6	12
75.7	12
75.8	11
75.9	10
76.0	10
76.5	9
76.6	10
76.7	11
76.8	12
76.9	13
77.0	13
77.1	12
77.2	12
77.3	13
77.4	14
77.5	14
77.6	12
77.9	9
78.0	11
78.1	13
78.2	14
78.3	13
78.4	11
78.5	8
78.8	7
78.9	9
79.0	11
79.1	12
79.2	13
79.3	13
79.4	13
79.7	11
79.8	14
79.9	18
80.0	20
80.1	20
80.2	18
80.3	16
81.1	13
81.2	15
81.3	15
81.4	15
81.5	15
81.6	15
81.7	15
81.8	14
81.9	14
82.2	13
82.3	14
82.4	17
82.5	18
82.6	16
82.9	13
83.0	16
83.1	17
83.2	16
84.6	13
84.7	14
84.8	16
84.9	16
85.0	15
85.6	12
85.7	14
85.8	16
85.9	15
87.3	11
87.4	13
87.5	14
87.6	14
87.7	15
87.8	15
87.9	15
88.0	13
89.3	9
89.4	11
89.5	12
89.6	12
89.7	12
89.8	13
89.9	13
90.2	11
90.3	14
90.4	16
90.5	15
90.6	12
90.8	9
90.9	11
91.0	14
91.1	16
91.2	15
91.3	13
92.3	11
92.4	13
92.5	14
92.6	14
92.7	12
92.9	10
93.0	12
93.1	15
93.2	16
93.3	13
95.1	7
95.2	10
95.3	15
95.4	19
95.5	20
95.6	18
95.7	15
97.4	9
97.5	12
97.6	15
97.7	15
97.8	14
99.3	8
99.4	10
99.5	11
99.6	12
99.7	12
99.8	13
99.9	13
100.0	13
100.1	11
100.9	7
101.0	10
101.1	14
101.2	15
101.3	13
101.5	9
101.6	12
101.7	16
101.8	17
101.9	16
102.0	13
102.1	11
102.2	10
102.5	8
102.6	10
102.7	12
102.8	13
102.9	13
103.7	10
103.8	11
103.9	12
104.0	12
104.1	11
104.2	11
104.3	12
104.4	13
104.5	13
104.6	12
105.7	6
105.8	9
105.9	12
106.0	14
106.1	15
106.2	13
106.3	11
106.4	8
106.6	6
106.7	8
106.8	10
106.9	11
107.0	10
107.1	10
107.2	11
107.3	13
107.4	13
107.5	13
107.6	12
107.7	10
109.7	6
109.8	8
109.9	10
110.0	11
110.1	10
110.2	10
110.3	9
110.4	7
110.6	6
110.7	7
110.8	11
110.9	13
111.0	14
111.1	14
112.1	7
112.2	9
112.3	10
112.4	10
112.5	9
112.6	10
112.7	12
112.8	13
112.9	14
113.0	13
113.1	12
113.8	10
113.9	13
114.0	15
114.1	14
114.2	12
114.3	9
114.9	7
115.0	9
115.1	12
115.2	13
115.3	13
115.4	10
115.5	7
115.7	6
115.8	8
115.9	10
116.0	11
116.1	11
116.2	11
116.3	10
116.4	11
116.5	11
116.6	11
116.7	10
116.8	7
117.1	6
117.2	8
117.3	10
117.4	11
117.5	11
117.6	10
117.7	10
117.8	9
118.1	7
118.2	9
118.3	11
118.4	11
118.5	10
118.6	9
118.7	8
119.2	7
119.3	9
119.4	10
119.5	11
119.6	12
119.7	11
119.8	9
119.9	7
120.8	7
120.9	8
121.0	10
121.1	11
121.2	10
121.3	9
121.4	9
121.5	10
121.6	10
121.7	10
121.8	9
122.1	7
122.2	8
122.3	9
122.4	9
122.5	8
122.8	6
122.9	9
123.0	12
123.1	13
123.2	10
123.9	11
124.0	12
124.1	12
124.2	12
124.3	10
124.4	9
124.8	8
124.9	10
125.0	13
125.1	14
125.2	13
125.5	10
125.6	13
125.7	15
125.8	14
125.9	11
126.2	8
126.3	11
126.4	13
126.5	14
126.6	13
126.7	15
126.8	16
126.9	16
127.0	14
127.1	11
127.4	10
127.5	11
127.6	12
127.7	13
127.8	13
127.9	13
128.0	12
128.1	11
128.4	9
128.5	12
128.6	15
128.7	16
128.8	14
128.9	11
129.1	9
129.2	11
129.3	13
129.4	13
129.5	12
129.6	12
129.7	13
129.8	12
131.9	10
132.0	12
132.1	14
132.2	13
132.3	11
133.9	9
134.0	10
134.1	12
134.2	14
134.3	12
134.4	8
134.6	5
134.7	9
134.8	14
134.9	15
135.0	12
135.1	10
135.4	9
135.5	10
135.6	11
135.7	13
135.8	15
135.9	16
136.0	14
136.1	11
136.4	9
136.5	10
136.6	11
136.7	11
136.8	12
136.9	13
137.0	14
137.1	15
137.2	15
137.3	14
137.4	12
137.5	10
137.6	9
137.9	8
138.0	9
138.1	12
138.2	15
138.3	16
138.4	15
138.5	12
139.2	11
139.3	12
139.4	13
139.5	14
139.6	13
139.7	11
140.0	10
140.1	11
140.2	12
140.3	13
140.4	14
140.5	14
140.6	14
140.7	15
140.8	14
140.9	11
141.2	8
141.3	11
141.4	13
141.5	14
141.6	14
141.7	14
141.8	15
141.9	14
142.0	14
142.1	13
142.2	13
142.3	14
142.4	15
142.5	16
142.6	16
142.7	15
143.0	12
143.1	14
143.2	17
143.3	18
143.4	16
143.5	14
143.7	12
143.8	14
143.9	16
144.0	17
144.1	17
145.0	11
145.1	12
145.2	12
145.3	13
145.4	13
145.5	13
145.6	12
145.7	12
145.8	13
145.9	14
146.0	14
146.1	14
146.2	14
146.3	14
146.4	14
146.5	13
146.6	13
146.7	12
146.8	13
146.9	13
147.0	13
147.3	11
147.4	14
147.5	16
147.6	15
148.3	13
148.4	14
148.5	15
148.6	15
148.7	14
148.8	13
149.2	13
149.3	14
149.4	15
149.5	15
149.6	13
151.4	11
151.5	11
151.6	12
151.7	12
151.8	12
151.9	10
152.1	8
152.2	10
152.3	12
152.4	13
152.5	12
152.8	10
152.9	13
153.0	14
153.1	15
153.2	16
153.3	17
153.4	16
153.5	13
153.8	10
153.9	13
154.0	16
154.1	18
154.2	17
154.3	14
154.4	12
154.7	10
154.8	12
154.9	15
155.0	17
155.1	17
155.2	16
155.3	14
155.4	12
155.7	10
155.8	12
155.9	15
156.0	15
157.4	13
157.5	14
157.6	15
157.7	15
157.8	14
158.1	13
158.2	14
158.3	16
158.4	18
158.5	17
158.6	15
158.7	13
158.8	13
158.9	12
159.2	9
159.3	11
159.4	13
159.5	14
159.6	14
159.7	14
160.8	9
160.9	11
161.0	13
161.1	13
161.2	11
161.4	9
161.5	11
161.6	12
161.7	12
161.8	11
161.9	11
162.0	12
162.1	15
162.2	17
162.3	17
162.4	15
162.5	12
163.2	10
163.3	11
163.4	13
163.5	15
163.6	16
163.7	14
163.8	10
164.0	10
164.1	12
164.2	13
164.5	10
164.6	12
164.7	14
164.8	14
164.9	13
165.0	11
165.1	9
165.4	8
165.5	9
165.6	9
165.7	10
165.8	11
165.9	11
166.0	12
166.1	12
166.2	13
166.3	13
166.4	13
166.5	12
168.1	9
168.2	10
168.3	13
168.4	14
168.5	12
168.6	9
168.8	6
168.9	9
169.0	10
169.1	11
169.2	11
169.3	10
169.4	10
169.5	9
169.8	7
169.9	9
170.0	10
170.1	10
170.2	9
170.3	9
170.4	9
170.5	9
170.6	9
170.7	8
170.8	8
170.9	10
171.0	12
171.1	13
171.2	12
171.3	10
171.6	8
171.7	9
171.8	11
171.9	11
172.0	11
172.1	11
172.2	11
172.3	11
172.4	10
172.5	9
172.6	9
173.0	7
173.1	8
173.2	9
173.3	10
173.4	12
173.5	12
173.6	12
173.7	12
173.8	11
173.9	11
175.2	9
175.3	10
175.4	12
175.5	12
175.6	11
175.7	9
176.0	8
176.1	10
176.2	12
176.3	11
177.5	9
177.6	10
177.7	13
177.8	14
177.9	13
178.0	11
178.6	8
178.7	10
178.8	11
178.9	11
180.5	9
180.6	10
180.7	12
180.8	12
180.9	12
181.0	9
181.3	7
181.4	10
181.5	12
181.6	13
181.7	12
181.8	11
181.9	10
182.0	9
182.1	8
182.2	8
183.0	6
183.1	8
183.2	11
183.3	12
183.4	11
183.5	9
183.8	7
183.9	9
184.0	10
184.1	10
184.2	9
184.3	6
184.5	5
184.6	6
184.7	8
184.8	8
184.9	10
185.0	12
185.1	13
185.2	12
185.5	9
185.6	10
185.7	11
185.8	11
185.9	9
186.0	7
186.2	6
186.3	7
186.4	9
186.5	10
186.6	11
186.7	13
186.8	14
186.9	13
187.0	12
187.1	9
188.2	6
188.3	9
188.4	11
188.5	12
188.6	11
188.7	10
188.8	10
188.9	13
189.0	16
189.1	17
189.2	14
189.3	9
189.5	6
189.6	9
189.7	11
189.8	12
189.9	10
190.3	10
190.4	10
190.5	11
190.6	13
190.7	15
190.8	14
190.9	12
191.2	9
191.3	10
191.4	12
191.5	13
191.6	14
191.7	13
192.0	11
192.1	13
192.2	15
192.3	15
192.4	14
192.5	12
193.9	10
194.0	12
194.1	15
194.2	15
194.3	13
194.6	10
194.7	11
194.8	12
194.9	12
195.0	14
195.1	16
195.2	16
195.3	15
195.4	13
196.2	7
196.3	10
196.4	13
196.5	13
196.6	13
196.7	14
196.8	14
196.9	13
197.0	11
197.2	9
197.3	12
197.4	14
197.5	14
197.6	12
197.7	10
198.0	9
198.1	11
198.2	13
198.3	14
198.4	12
198.7	9
198.8	13
198.9	14
199.0	13
199.1	11
199.6	11
199.7	11
199.8	13
199.9	13
200.0	12
200.3	9
200.4	10
200.5	12
200.6	13
200.7	12
200.8	11
201.6	7
201.7	8
201.8	9
201.9	10
202.0	10
202.1	10
202.2	10
202.3	10
202.4	9
202.5	9
202.6	9
202.7	9
202.8	8
202.9	8
203.0	10
203.1	13
203.2	14
203.3	13
203.4	12
203.5	12
203.6	13
203.7	12
204.0	8
204.1	11
204.2	14
204.3	14
204.6	12
204.7	14
204.8	16
204.9	16
205.0	15
205.1	13
205.4	12
205.5	12
205.6	13
205.7	13
205.8	12
205.9	12
206.0	12
206.1	14
206.2	15
206.3	15
206.4	14
206.5	13
206.8	12
206.9	13
207.0	15
207.1	16
207.2	16
207.3	16
207.4	15
207.5	15
207.6	16
207.7	17
207.8	18
207.9	16
208.0	13
208.2	8
208.3	10
208.4	14
208.5	17
208.6	18
208.7	17
208.8	16
208.9	14
209.0	13
209.3	12
209.4	14
209.5	16
209.6	17
209.7	16
210.0	13
210.1	16
210.2	17
210.3	17
210.4	14
210.7	12
210.8	13
210.9	15
211.0	17
211.1	16
211.2	14
211.9	11
212.0	13
212.1	14
212.2	16
212.3	16
212.4	15
214.0	9
214.1	11
214.2	12
214.3	13
214.4	14
214.5	14
214.6	14
214.7	12
214.9	9
215.0	12
215.1	15
215.2	16
215.3	14
215.4	11
215.6	8
215.7	10
215.8	12
215.9	13
216.0	13
216.1	12
216.4	10
216.5	12
216.6	15
216.7	17
216.8	16
216.9	14
217.0	10
217.3	10
217.4	11
217.5	11
217.6	13
217.7	15
217.8	15
217.9	13
218.0	9
218.2	8
218.3	11
218.4	14
218.5	14
218.6	14
218.7	12
218.8	10
219.0	8
219.1	10
219.2	13
219.3	15
219.4	16
219.5	16
219.6	15
219.9	13
220.0	14
220.1	16
220.2	16
220.3	15
221.1	11
221.2	14
221.3	16
221.4	16
221.5	14
221.6	12
221.7	12
221.8	12
222.1	8
222.2	11
222.3	16
222.4	18
222.5	17
222.6	13
223.9	13
224.0	14
224.1	15
224.2	15
224.3	13
224.4	11
224.7	9
224.8	11
224.9	12
225.0	12
225.1	12
225.2	12
225.3	12
225.4	11
225.7	10
225.8	11
225.9	12
226.0	12
226.1	12
226.2	12
226.3	11
226.4	11
226.5	12
226.6	12
226.7	11
226.8	11
226.9	10
227.0	10
227.1	10
227.2	10
227.3	10
227.4	11
227.5	13
227.6	13
227.7	10
228.8	6
228.9	8
229.0	11
229.1	14
229.2	14
229.3	10
230.6	9
230.7	10
230.8	13
230.9	14
231.0	14
231.1	12
232.3	7
232.4	8
232.5	10
232.6	10
232.7	9
232.8	8
232.9	9
233.0	11
233.1	11
233.2	9
234.1	9
234.2	10
234.3	10
234.4	11
234.5	12
234.6	12
234.7	12
234.8	11
235.1	8
235.2	10
235.3	11
235.4	11
235.5	11
235.6	12
235.7	13
235.8	13
235.9	11
236.2	10
236.3	12
236.4	14
236.5	13
236.6	10
236.8	9
236.9	12
237.0	12
237.1	11
237.2	10
237.5	10
237.6	11
237.7	12
237.8	12
237.9	11
238.0	9
238.3	7
238.4	8
238.5	12
238.6	16
238.7	16
238.8	13
238.9	9
239.1	8
239.2	10
239.3	12
239.4	12
239.5	12
239.8	9
239.9	10
240.0	11
240.1	12
240.2	13
240.3	13
240.4	12
240.5	11
241.4	3
241.5	5
241.6	7
241.7	9
241.8	11
241.9	12
242.0	14
242.1	14
242.2	14
242.3	13
242.4	10
242.5	8
243.3	10
243.4	10
243.5	10
243.6	11
243.7	12
243.8	11
243.9	9
244.0	6
244.2	5
244.3	7
244.4	9
244.5	12
244.6	14
244.7	15
244.8	15
244.9	14
245.0	12
246.2	8
246.3	9
246.4	12
246.5	13
246.6	14
246.7	13
247.5	9
247.6	11
247.7	12
247.8	13
247.9	13
248.0	12
248.7	11
248.8	12
248.9	13
249.0	13
249.1	13
250.2	7
250.3	8
250.4	10
250.5	13
250.6	15
250.7	16
250.8	15
251.9	10
252.0	10
252.1	11
252.2	12
252.3	14
252.4	14
252.5	14
252.6	14
252.7	13
252.8	12
253.9	10
254.0	12
254.1	14
254.2	15
254.3	12
255.7	7
255.8	9
255.9	11
256.0	11
256.1	10
256.2	9
256.3	10
256.4	10
256.5	9
256.8	7
256.9	9
257.0	10
257.1	10
257.4	8
257.5	10
257.6	13
257.7	13
257.8	11
257.9	8
258.1	5
258.2	7
258.3	10
258.4	14
258.5	15
258.6	14
259.6	10
259.7	11
259.8	13
259.9	15
260.0	15
260.1	14
260.4	11
260.5	14
260.6	15
260.7	14
260.8	12
261.1	11
261.2	12
261.3	14
261.4	16
261.5	16
261.6	13
261.9	10
262.0	12
262.1	14
262.2	14
262.3	13
262.6	12
262.7	13
262.8	15
262.9	15
263.0	12
263.9	10
264.0	12
264.1	13
264.2	12
264.6	10
264.7	10
264.8	12
264.9	13
265.0	14
265.1	14
265.9	9
266.0	11
266.1	13
266.2	15
266.3	15
266.4	15
266.5	15
266.6	16
266.7	14
266.8	11
267.0	9
267.1	11
267.2	13
267.3	13
267.4	13
267.5	13
267.6	13
267.7	14
267.8	15
267.9	15
268.9	11
269.0	12
269.1	14
269.2	15
269.3	16
269.4	15
269.5	13
269.6	11
270.4	10
270.5	11
270.6	12
270.7	13
270.8	12
270.9	12
271.0	11
271.1	11
271.2	9
271.4	7
271.5	10
271.6	13
271.7	15
271.8	15
271.9	13
272.1	11
272.2	13
272.3	15
272.4	14
273.7	8
273.8	11
273.9	15
274.0	18
274.1	17
274.2	14
274.3	11
274.6	10
274.7	11
274.8	12
274.9	13
275.0	13
275.1	13
275.2	13
275.7	12
275.8	13
275.9	15
276.0	16
276.1	14
276.2	11
276.5	9
276.6	11
276.7	12
276.8	11
277.1	10
277.2	10
277.3	12
277.4	13
277.5	13
277.6	13
277.7	11
278.0	11
278.1	11
278.2	12
278.3	13
278.4	12
278.7	11
278.8	12
278.9	15
279.0	16
279.1	15
279.2	12
279.3	9
280.3	9
280.4	11
280.5	13
280.6	14
280.7	15
280.8	14
280.9	13
281.2	11
281.3	12
281.4	13
281.7	11
281.8	13
281.9	15
282.0	17
282.1	16
283.0	8
283.1	10
283.2	11
283.3	10
283.4	10
283.5	12
283.6	14
283.7	14
283.8	13
283.9	12
284.0	13
284.1	13
284.2	10
284.5	7
284.6	11
284.7	14
284.8	14
284.9	12
285.8	9
285.9	11
286.0	13
286.1	15
286.2	12
286.3	8
286.5	5
286.6	9
286.7	12
286.8	13
286.9	13
287.0	13
287.1	12
287.2	13
287.3	13
287.4	15
287.5	16
287.6	14
287.7	11
287.9	8
288.0	10
288.1	13
288.2	16
288.3	17
288.4	17
288.5	15
288.6	11
288.7	8
288.9	6
289.0	8
289.1	11
289.2	12
289.3	14
289.4	15
289.5	14
289.6	12
289.9	9
290.0	11
290.1	13
290.2	14
290.3	13
290.4	12
290.7	10
290.8	12
290.9	13
291.0	13
291.3	10
291.4	13
291.5	15
291.6	15
291.7	14
291.8	15
291.9	15
292.0	13
292.1	10
292.7	9
292.8	10
292.9	12
293.0	12
293.1	10
294.1	9
294.2	11
294.3	12
294.4	12
294.7	10
294.8	11
294.9	12
295.0	11
295.1	11
295.2	10
296.2	7
296.3	9
296.4	12
296.5	14
296.6	14
296.7	11
297.6	9
297.7	10
297.8	10
297.9	10
298.0	11
298.1	12
298.2	13
298.3	13
298.4	12
298.5	11
299.2	11
299.3	12
299.4	13
299.5	14
299.6	14
299.7	13
299.8	11
300.0	9
300.1	11
300.2	13
300.3	14
300.4	14
300.5	14
300.6	13
300.7	12
300.8	10
300.9	8
301.1	6
301.2	9
301.3	12
301.4	14
301.5	14
301.6	13
301.7	11
302.0	9
302.1	11
302.2	13
302.3	13
302.6	10
302.7	12
302.8	14
302.9	13
303.0	11
303.2	8
303.3	10
303.4	13
303.5	13
303.6	13
303.7	12
303.8	12
303.9	12
304.0	13
304.1	13
304.2	13
304.3	13
304.4	12
304.5	11
305.1	10
305.2	11
305.3	13
305.4	13
305.5	13
305.6	11
305.7	8
305.9	6
306.0	8
306.1	10
306.2	12
306.3	12
306.4	10
306.5	9
307.8	3
307.9	5
308.0	8
308.1	10
308.2	10
308.3	10
308.4	9
308.5	7
308.6	5
308.8	3
308.9	6
309.0	9
309.1	11
309.2	11
309.3	10
309.4	9
309.5	8
309.6	7
309.7	7
310.0	5
310.1	6
310.2	9
310.3	10
310.4	10
310.5	8
310.7	6
310.8	8
310.9	10
311.0	12
311.1	11
311.2	10
311.3	10
311.4	11
311.5	11
311.6	10
311.8	7
311.9	10
312.0	13
312.1	15
312.2	13
312.8	12
312.9	14
313.0	15
313.1	16
313.2	15
313.3	13
313.4	12
313.5	11
313.6	10
313.9	8
314.0	9
314.1	12
314.2	13
314.3	14
314.4	14
314.5	12
315.4	8
315.5	10
315.6	12
315.7	13
315.8	12
315.9	11
316.0	11
316.1	12
316.2	13
316.3	14
316.4	14
316.5	13
316.6	13
316.7	15
316.8	16
316.9	14
317.0	10
317.2	6
317.3	8
317.4	12
317.5	14
317.6	14
317.7	12
317.9	9
318.0	11
318.1	13
318.2	14
318.3	13
318.4	13
318.5	14
318.6	14
318.7	13
319.1	12
319.2	14
319.3	14
319.4	14
319.5	14
319.6	13
319.7	13
320.0	10
320.1	12
320.2	13
320.3	13
320.4	11
320.5	11
320.6	12
320.7	13
320.8	11
321.6	7
321.7	10
321.8	13
321.9	16
322.0	16
322.1	15
322.2	12
322.3	11
322.4	10
323.0	8
323.1	9
323.2	11
323.3	13
323.4	14
323.5	13
323.6	11
323.9	8
324.0	11
324.1	13
324.2	13
324.3	12
325.2	6
325.3	9
325.4	11
325.5	12
325.6	11
325.7	12
325.8	14
325.9	15
326.0	13
326.3	10
326.4	12
326.5	13
326.6	13
326.7	11
327.1	10
327.2	12
327.3	14
327.4	15
327.5	14
327.6	15
327.7	15
327.8	15
327.9	14
329.5	9
329.6	13
329.7	17
329.8	18
329.9	17
330.9	13
331.0	13
331.1	14
331.2	15
331.3	16
331.4	15
331.7	14
331.8	15
331.9	15
332.2	13
332.3	15
332.4	18
332.5	18
332.8	15
332.9	19
333.0	20
333.1	18
333.2	16
333.3	15
333.4	14
335.4	10
335.5	12
335.6	15
335.7	15
335.8	14
335.9	12
336.3	11
336.4	13
336.5	14
336.6	14
336.7	13
337.3	11
337.4	12
337.5	15
337.6	16
337.7	15
337.8	11
339.0	8
339.1	10
339.2	13
339.3	14
339.4	14
339.5	12
339.8	9
339.9	11
340.0	13
340.1	13
340.2	12
340.3	12
340.4	12
340.5	13
340.6	14
340.7	16
340.8	15
340.9	12
341.0	9
341.2	8
341.3	10
341.4	12
341.5	13
341.6	12
342.1	12
342.2	12
342.3	12
342.4	14
342.5	15
342.6	14
342.7	12
342.8	11
342.9	10
343.1	8
343.2	9
343.3	12
343.4	16
343.5	18
343.6	17
343.7	13
344.0	13
344.1	14
344.2	15
344.3	16
344.4	15
344.5	14
344.8	12
344.9	13
345.0	15
345.1	16
345.2	15
345.3	12
346.3	12
346.4	13
346.5	14
346.6	14
346.7	14
346.8	14
346.9	14
347.0	13
347.1	14
347.2	16
347.3	18
347.4	18
347.5	17
347.6	14
347.7	11
347.9	10
348.0	11
348.1	13
348.2	14
348.3	13
348.6	11
348.7	12
348.8	13
348.9	13
349.0	14
349.1	13
349.2	13
349.3	13
349.4	13
349.5	13
349.6	13
349.7	13
349.8	12
350.1	11
350.2	13
350.3	15
350.4	15
350.5	13
350.6	11
350.7	9
350.8	7
351.0	5
351.1	8
351.2	11
351.3	12
351.4	11
351.7	9
351.8	11
351.9	12
352.0	14
352.1	16
352.2	16
352.3	13
352.4	9
352.6	8
352.7	10
352.8	10
352.9	11
353.0	12
353.1	14
353.2	14
353.3	12
354.1	8
354.2	9
354.3	12
354.4	13
354.5	14
354.6	14
354.7	13
354.8	12
354.9	12
355.0	11
355.1	10
355.3	7
355.4	9
355.5	13
355.6	15
355.7	15
355.8	13
355.9	10
356.0	8
356.3	7
356.4	8
356.5	9
356.6	10
356.7	11
356.8	12
356.9	12
357.0	12
357.1	11
357.4	9
357.5	10
357.6	11
357.7	12
357.8	12
357.9	11
358.2	9
358.3	10
358.4	11
358.5	11
358.8	10
358.9	11
359.0	11
359.1	12
359.2	12
359.3	13
359.4	13
359.5	11
359.7	8
359.8	10
359.9	13
360.0	14
360.1	12
360.4	10
360.5	13
360.6	15
360.7	14
360.8	11
360.9	8
361.8	9
361.9	10
362.0	12
362.1	12
362.2	12
362.3	12
362.4	12
362.5	12
362.6	11
362.7	11
362.8	12
362.9	13
363.0	13
364.2	9
364.3	11
364.4	14
364.5	15
364.6	13
364.7	8
365.8	8
365.9	9
366.0	12
366.1	13
366.2	12
366.3	9
366.4	6
366.6	4
366.7	7
366.8	11
366.9	13
367.0	13
367.1	9
367.2	5
367.4	2
367.5	6
367.6	8
367.7	8
367.8	7
367.9	8
368.0	10
368.1	11
368.2	11
368.3	9
369.8	7
369.9	9
370.0	11
370.1	11
370.2	8
370.3	6
370.6	6
370.7	7
370.8	9
370.9	11
371.0	12
371.1	11
371.2	9
371.5	7
371.6	8
371.7	9
371.8	9
371.9	8
372.0	8
372.1	8
372.2	9
372.3	9
372.4	9
372.5	9
372.6	8
372.7	9
372.8	9
372.9	9
373.0	10
373.1	11
373.2	11
373.3	10
373.4	10
373.5	9
373.8	6
373.9	8
374.0	11
374.1	13
374.2	13
374.3	11
374.4	9
374.7	9
374.8	10
374.9	11
375.0	13
375.1	13
375.2	14
375.3	13
375.4	12
376.5	8
376.6	9
376.7	11
376.8	13
376.9	14
377.0	14
377.1	14
377.2	12
378.0	9
378.1	10
378.2	12
378.3	14
378.4	14
378.5	13
378.6	10
378.9	8
379.0	9
379.1	11
379.2	11
379.3	11
379.4	11
379.5	11
379.6	11
379.7	9
380.0	7
380.1	9
380.2	10
380.3	11
380.4	10
380.5	10
380.6	11
380.7	11
380.8	9
381.0	8
381.1	9
381.2	11
381.3	12
381.4	11
381.5	11
381.6	11
381.7	11
381.8	12
381.9	14
382.0	14
382.1	13
382.2	11
382.9	9
383.0	10
383.1	11
383.2	11
383.5	9
383.6	11
383.7	13
383.8	14
383.9	14
384.0	13
384.1	11
384.2	8
384.4	6
384.5	9
384.6	14
384.7	17
384.8	15
385.1	10
385.2	15
385.3	17
385.4	15
385.5	11
385.8	8
385.9	10
386.0	11
386.1	12
386.2	13
386.3	13
386.4	13
386.5	12
386.6	12
386.7	13
386.8	14
386.9	14
387.0	14
387.1	12
387.2	10
387.5	9
387.6	11
387.7	12
387.8	14
387.9	13
388.2	9
388.3	12
388.4	14
388.5	14
388.6	13
388.7	12
388.8	13
388.9	14
389.0	15
389.1	13
389.4	10
389.5	12
389.6	15
389.7	16
390.6	10
390.7	14
390.8	17
390.9	17
392.8	12
392.9	13
393.0	17
393.1	18
393.2	16
393.3	12
393.5	10
393.6	13
393.7	14
393.8	15
393.9	15
394.0	16
394.1	16
394.2	16
394.3	14
394.4	13
394.5	11
394.8	8
394.9	10
395.0	13
395.1	15
395.2	15
395.3	14
396.1	12
396.2	13
396.3	15
396.4	16
396.5	17
396.6	17
396.7	16
396.8	14
396.9	11
397.1	9
397.2	13
397.3	18
397.4	19
397.5	17
397.6	14
398.3	12
398.4	13
398.5	14
398.6	15
398.7	14
398.8	12
399.0	11
399.1	13
399.2	14
399.3	15
399.4	15
399.5	16
399.6	15
399.7	13
400.0	11
400.1	14
400.2	17
400.3	17
400.4	14
401.2	9
401.3	10
401.4	11
401.5	13
401.6	14
401.7	14
401.8	13
402.4	11
402.5	13
402.6	15
402.7	16
402.8	14
402.9	11
403.1	10
403.2	12
403.3	12
403.6	10
403.7	12
403.8	13
403.9	13
404.0	12
404.1	12
404.2	14
404.3	15
404.4	15
404.5	13
404.6	12
406.1	11
406.2	12
406.3	13
406.4	13
406.5	14
406.6	15
406.7	15
407.0	12
407.1	15
407.2	17
407.3	15
407.4	10
407.7	9
407.8	11
407.9	13
408.0	14
408.1	14
408.2	12
408.3	10
408.6	10
408.7	11
408.8	11
408.9	12
409.0	14
409.1	15
409.2	15
409.3	13
410.9	9
411.0	10
411.1	11
411.2	13
411.3	15
411.4	15
411.5	13
411.6	10
411.8	9
411.9	10
412.0	11
412.1	11
412.2	10
412.3	10
412.4	10
412.5	12
412.6	13
412.7	13
412.8	13
412.9	13
413.0	14
413.1	14
413.2	11
413.5	8
413.6	10
413.7	12
413.8	12
413.9	11
414.2	8
414.3	12
414.4	15
414.5	17
414.6	16
414.7	15
414.8	13
415.1	11
415.2	14
415.3	15
415.4	15
415.5	13
415.6	10
415.9	8
416.0	12
416.1	15
416.2	14
416.5	11
416.6	14
416.7	16
416.8	15
416.9	11
418.1	10
418.2	12
418.3	13
418.4	12
418.5	10
418.7	9
418.8	10
418.9	12
419.0	12
419.1	11
420.7	8
420.8	10
420.9	11
421.0	12
421.1	10
421.4	8
421.5	10
421.6	11
421.7	12
421.8	13
421.9	12
422.0	9
422.2	5
422.3	8
422.4	12
422.5	13
422.6	11
422.8	9
422.9	12
423.0	14
423.1	14
423.2	12
423.3	11
423.4	10
423.5	10
424.3	9
424.4	10
424.5	12
424.6	14
424.7	15
424.8	14
424.9	12
425.0	10
425.9	6
426.0	8
426.1	11
426.2	13
426.3	14
426.4	13
426.5	13
426.6	13
426.7	13
426.8	12
427.5	6
427.6	9
427.7	12
427.8	13
427.9	12
428.0	11
428.1	11
428.2	12
428.3	12
428.4	10
429.7	8
429.8	8
429.9	8
430.0	9
430.1	10
430.2	11
430.3	10
431.1	6
431.2	10
431.3	13
431.4	14
431.5	12
431.6	10
431.7	10
431.8	10
431.9	8
432.2	4
432.3	7
432.4	10
432.5	9
432.6	8
433.0	7
433.1	8
433.2	8
433.3	8
433.4	8
433.5	8
433.6	8
433.7	8
433.8	8
434.1	7
434.2	8
434.3	9
434.4	10
434.5	9
434.6	8
436.1	8
436.2	9
436.3	10
436.4	10
436.7	8
436.8	9
436.9	11
437.0	13
437.1	14
437.2	14
437.3	14
437.4	12
438.2	9
438.3	9
438.4	11
438.5	12
438.6	12
438.7	11
438.8	10
439.6	9
439.7	10
439.8	12
439.9	14
440.0	15
440.1	13
440.4	10
440.5	11
440.6	12
440.7	13
440.8	13
440.9	13
441.0	11
441.3	9
441.4	11
441.5	13
441.6	12
441.9	8
442.0	11
442.1	14
442.2	16
442.3	15
442.4	14
442.5	13
443.4	10
443.5	10
443.6	11
443.7	13
443.8	13
443.9	13
444.0	12
444.7	10
444.8	12
444.9	14
445.0	15
445.1	12
445.4	9
445.5	11
445.6	12
445.7	13
445.8	12
446.5	8
446.6	10
446.7	14
446.8	17
446.9	18
447.0	16
447.1	12
447.2	9
449.4	10
449.5	11
449.6	12
449.7	12
449.8	11
450.5	10
450.6	12
450.7	14
450.8	14
450.9	13
451.2	11
451.3	13
451.4	14
451.5	14
451.6	14
451.7	11
451.9	9
452.0	12
452.1	15
452.2	16
452.3	14
452.4	14
452.5	15
452.6	17
452.7	16
453.8	11
453.9	13
454.0	15
454.1	16
454.2	14
454.4	12
454.5	13
454.6	16
454.7	17
454.8	16
454.9	15
455.8	11
455.9	13
456.0	14
456.1	15
456.2	15
456.3	15
456.4	15
456.5	14
456.6	14
456.7	14
456.8	13
457.1	11
457.2	13
457.3	15
457.4	16
457.5	15
457.8	12
457.9	14
458.0	15
458.1	15
458.2	15
458.3	15
458.4	17
458.5	17
458.6	15
458.9	12
459.0	14
459.1	15
459.2	17
459.3	17
459.4	15
459.5	13
459.9	11
460.0	12
460.1	14
460.2	15
460.3	14
460.4	12
461.1	10
461.2	12
461.3	13
461.4	13
461.5	13
461.6	13
461.7	13
461.8	13
461.9	13
462.2	10
462.3	11
462.4	13
462.5	14
462.6	14
462.7	13
462.8	12
465.3	9
465.4	10
465.5	13
465.6	16
465.7	15
465.8	11
466.0	7
466.1	10
466.2	13
466.3	15
466.4	15
466.5	15
466.6	14
466.7	13
466.8	13
468.2	10
468.3	13
468.4	18
468.5	22
468.6	21
468.7	18
468.8	14
469.1	14
469.2	14
469.3	16
469.4	16
469.5	14
469.7	12
469.8	14
469.9	16
470.0	15
470.3	11
470.4	15
470.5	17
470.6	18
470.7	17
470.8	15
470.9	13
471.1	11
471.2	13
471.3	15
471.4	16
471.5	16
471.6	16
471.7	15
471.8	13
471.9	11
472.2	11
472.3	12
472.4	12
472.5	13
472.6	13
472.7	13
472.8	14
472.9	16
473.0	17
473.1	16
473.2	12
473.3	8
473.5	7
473.6	10
473.7	15
473.8	18
473.9	17
474.0	13
475.2	7
475.3	9
475.4	12
475.5	13
475.6	12
475.7	10
476.0	8
476.1	9
476.2	11
476.3	11
476.4	9
476.6	7
476.7	10
476.8	12
476.9	12
477.0	8
477.2	5
477.3	8
477.4	12
477.5	13
477.6	13
477.7	12
477.8	11
477.9	9
478.2	8
478.3	10
478.4	13
478.5	16
478.6	15
478.7	11
478.9	9
479.0	12
479.1	13
479.2	12
479.3	11
480.3	9
480.4	10
480.5	10
480.6	11
480.7	11
480.8	11
480.9	11
481.0	12
481.1	12
481.2	12
481.3	11
481.4	10
481.5	10
481.6	8
481.9	7
482.0	9
482.1	10
482.2	10
482.5	8
482.6	10
482.7	11
483.0	8
483.1	13
483.2	22
483.3	26
483.4	22
484.7	8
484.8	10
484.9	13
485.0	14
485.1	13
485.2	12
485.3	12
485.4	13
485.5	14
485.6	14
485.7	13
485.8	12
485.9	11
486.2	9
486.3	10
486.4	11
486.5	12
486.6	11
486.7	11
486.8	12
486.9	12
487.0	13
487.1	13
487.2	12
487.3	12
487.4	12
487.5	11
487.6	10
487.7	9
488.6	3
488.7	8
488.8	11
488.9	12
489.0	10
489.9	6
490.0	7
490.1	10
490.2	13
490.3	15
490.4	13
490.5	9
490.8	6
490.9	7
491.0	8
491.1	8
491.2	10
491.3	11
491.4	11
491.5	10
492.9	8
493.0	11
493.1	13
493.2	13
494.4	8
494.5	9
494.6	12
494.7	14
494.8	14
494.9	13
495.0	12
495.1	11
495.2	10
495.5	7
495.6	9
495.7	11
495.8	11
495.9	9
496.6	9
496.7	10
496.8	12
496.9	13
497.0	12
497.1	9
497.4	7
497.5	10
497.6	12
497.7	12
497.8	11
497.9	11
498.0	13
498.1	14
498.2	14
498.3	12
498.4	10
498.7	8
498.8	10
498.9	12
499.0	13
499.1	13
499.2	13
499.3	13
500.6	11
500.7	11
500.8	14
500.9	16
501.0	17
501.1	15
501.2	11
501.5	7
501.6	10
501.7	13
501.8	14
501.9	14
502.0	12
502.3	10
502.4	12
502.5	14
502.6	15
502.7	14
502.8	12
503.1	9
503.2	12
503.3	13
503.4	13
503.5	10
503.6	8
504.5	9
504.6	10
504.7	11
504.8	10
504.9	9
505.0	10
505.1	12
505.2	15
505.3	14
505.4	11
505.7	9
505.8	10
505.9	12
506.0	13
506.1	13
506.2	13
506.3	12
506.4	10
506.5	9
506.8	8
506.9	11
507.0	14
507.1	15
507.2	13
507.3	10
507.5	9
507.6	10
507.7	12
507.8	13
507.9	14
508.0	14
508.1	13
508.2	11
509.1	10
509.2	12
509.3	15
509.4	16
509.5	15
509.6	12
509.7	9
509.9	8
510.0	10
510.1	13
510.2	15
510.3	15
510.4	12
510.5	9
510.8	10
510.9	10
511.0	12
511.1	13
511.2	14
511.3	15
511.4	14
511.5	13
511.6	11
511.9	10
512.0	11
512.1	12
512.2	12
512.3	11
512.4	11
512.5	11
512.6	12
512.7	12
512.8	11
512.9	10
513.5	8
513.6	10
513.7	13
513.8	15
513.9	16
514.0	14
514.1	11
514.4	8
514.5	12
514.6	15
514.7	15
514.8	14
514.9	14
515.0	13
515.1	12
517.1	7
517.2	8
517.3	9
517.4	10
517.5	12
517.6	14
517.7	15
517.8	14
517.9	13
518.8	11
518.9	13
519.0	15
519.1	16
519.2	15
520.1	12
520.2	13
520.3	15
520.4	16
520.5	16
520.6	15
520.9	13
521.0	15
521.1	16
521.2	15
522.2	11
522.3	12
522.4	13
522.5	14
522.6	15
522.7	16
522.8	16
522.9	17
523.0	17
523.1	16
523.2	15
525.0	11
525.1	11
525.2	13
525.3	14
525.4	15
525.5	15
525.6	16
525.7	16
525.8	14
525.9	11
526.2	7
526.3	9
526.4	11
526.5	11
526.6	11
526.7	11
526.8	12
526.9	12
527.0	13
527.1	13
527.2	12
528.3	8
528.4	10
528.5	12
528.6	12
528.7	12
528.8	13
528.9	15
529.0	14
529.1	12
529.9	8
530.0	10
530.1	13
530.2	15
530.3	14
530.4	11
530.6	9
530.7	11
530.8	14
530.9	15
531.0	14
531.1	13
531.2	11
531.4	9
531.5	10
531.6	13
531.7	15
531.8	15
531.9	13
532.0	11
532.1	10
532.4	9
532.5	10
532.6	12
532.7	13
532.8	13
533.1	10
533.2	13
533.3	14
533.4	13
533.5	11
533.8	9
533.9	10
534.0	12
534.1	13
534.2	13
534.3	12
534.4	12
534.5	12
534.6	11
534.7	10
534.9	8
535.0	9
535.1	12
535.2	13
535.3	13
535.4	12
535.5	12
535.6	12
535.9	9
536.0	11
536.1	12
536.2	12
536.3	12
536.4	13
536.5	13
537.4	7
537.5	9
537.6	10
537.7	12
537.8	12
537.9	12
539.0	9
539.1	11
539.2	12
539.3	12
539.4	13
539.5	13
539.6	12
539.7	9
540.0	8
540.1	10
540.2	12
540.3	12
540.4	9
540.7	9
540.8	9
540.9	12
541.0	20
541.1	29
541.2	31
541.3	23
541.4	13
541.5	7
541.8	8
541.9	9
542.0	10
542.1	11
542.2	12
542.3	11
542.6	8
542.7	10
542.8	10
542.9	10
543.0	10
543.1	10
543.2	10
543.3	9
543.7	8
543.8	9
543.9	10
544.0	10
544.3	7
544.4	10
544.5	14
544.6	15
544.7	13
544.8	8
545.0	7
545.1	9
545.2	11
545.3	10
546.0	10
546.1	11
546.2	13
546.3	15
546.4	17
546.5	15
546.6	12
548.1	8
548.2	10
548.3	13
548.4	15
548.5	15
548.6	14
548.7	13
548.8	11
549.4	11
549.5	12
549.6	14
549.7	16
549.8	15
549.9	12
550.2	8
550.3	10
550.4	13
550.5	13
550.8	11
550.9	13
551.0	15
551.1	16
551.2	14
551.3	13
551.4	11
551.7	7
551.8	10
551.9	14
552.0	17
552.1	18
552.2	16
553.2	6
553.3	8
553.4	11
553.5	13
553.6	14
553.7	13
554.5	10
554.6	13
554.7	15
554.8	15
554.9	14
555.0	13
555.1	11
555.2	9
555.5	7
555.6	10
555.7	12
555.8	12
556.6	7
556.7	9
556.8	11
556.9	10
557.8	5
557.9	8
558.0	11
558.1	10
558.2	7
558.4	0
558.5	2
558.6	11
558.7	23
558.8	29
558.9	24
559.0	16
559.2	13
559.3	16
559.4	20
559.5	22
559.6	20
559.7	15
559.8	10
560.6	7
560.7	9
560.8	10
560.9	10
561.0	11
561.1	10
561.2	9
561.3	10
561.4	12
561.5	13
561.6	12
561.7	11
561.8	11
561.9	12
562.0	12
562.1	12
562.2	11
562.3	11
562.4	11
562.7	9
562.8	11
562.9	12
563.0	12
563.3	9
563.4	11
563.5	12
563.6	12
563.7	12
563.8	13
563.9	13
564.0	12
564.1	10
564.2	9
564.5	8
564.6	10
564.7	12
564.8	14
564.9	13
565.0	11
565.1	10
565.2	10
565.3	9
565.5	7
565.6	8
565.7	11
565.8	14
565.9	13
566.0	10
566.2	9
566.3	11
566.4	12
566.5	12
566.6	10
567.4	9
567.5	10
567.6	12
567.7	12
567.8	12
567.9	11
569.1	6
569.2	7
569.3	9
569.4	10
569.5	11
569.6	11
569.7	10
569.8	11
569.9	12
570.0	12
570.1	12
570.2	12
570.3	12
570.4	11
570.5	10
570.6	9
571.0	9
571.1	10
571.2	11
571.3	13
571.4	15
571.5	15
571.6	14
571.7	11
572.4	7
572.5	9
572.6	13
572.7	14
572.8	13
572.9	11
573.0	10
573.3	8
573.4	9
573.5	10
573.6	11
573.7	12
573.8	14
573.9	14
574.0	13
575.1	8
575.2	9
575.3	10
575.4	11
575.5	12
575.6	14
575.7	15
575.8	13
576.1	12
576.2	13
576.3	14
576.4	14
576.5	15
576.6	17
576.7	18
576.8	17
576.9	14
577.2	11
577.3	14
577.4	17
577.5	17
577.6	16
578.4	12
578.5	15
578.6	18
578.7	18
578.8	13
579.0	9
579.1	12
579.2	16
579.3	16
579.4	15
580.5	12
580.6	13
580.7	16
580.8	17
580.9	15
581.7	11
581.8	13
581.9	14
582.0	15
582.1	15
582.2	14
582.3	15
582.4	16
582.5	17
582.6	16
582.7	15
582.8	14
582.9	13
583.2	11
583.3	12
583.4	14
583.5	16
583.6	16
583.7	14
584.8	10
584.9	12
585.0	15
585.1	16
585.2	14
585.3	11
585.5	8
585.6	10
585.7	12
585.8	12
586.0	9
586.1	11
586.2	15
586.3	18
586.4	17
586.5	14
586.6	10
587.1	10
587.2	10
587.3	12
587.4	13
587.5	13
587.6	13
587.7	14
587.8	14
587.9	13
588.8	8
588.9	10
589.0	10
589.1	11
589.2	12
589.3	14
589.4	14
589.5	12
589.8	10
589.9	11
590.0	12
590.1	13
590.2	14
590.3	14
590.4	13
590.5	13
590.6	13
590.7	12
590.8	10
591.4	10
591.5	12
591.6	14
591.7	16
591.8	18
591.9	18
592.0	17
592.1	16
592.2	14
593.1	11
593.2	14
593.3	16
593.4	18
593.5	18
593.6	16
593.7	14
593.8	13
593.9	12
594.2	10
594.3	12
594.4	16
594.5	17
594.6	15
594.7	12
595.2	11
595.3	11
595.4	14
595.5	17
595.6	18
595.7	17
595.8	14
596.1	12
596.2	13
596.3	15
596.4	15
596.5	15
596.6	14
596.7	12
597.0	11
597.1	12
597.2	12
597.3	13
597.4	13
597.5	12
597.8	11
597.9	12
598.0	12
598.1	12
598.2	11
598.3	9
598.8	9
598.9	11
599.0	12
599.1	12
599.2	10
600.1	7
600.2	10
600.3	12
600.4	12
600.5	10
600.8	8
600.9	11
601.0	14
601.1	17
601.2	17
601.3	14
601.6	10
601.7	13
601.8	15
601.9	14
602.0	13
602.1	12
602.2	12
602.3	12
602.8	10
602.9	11
603.0	12
603.1	14
603.2	13
603.3	12
604.5	10
604.6	11
604.7	11
604.8	13
604.9	14
605.0	14
605.1	12
605.2	11
606.4	8
606.5	10
606.6	12
606.7	13
606.8	12
606.9	12
607.3	11
607.4	13
607.5	15
607.6	17
607.7	15
607.8	13
608.0	11
608.1	14
608.2	18
608.3	18
608.4	16
608.5	13
609.4	9
609.5	10
609.6	11
609.7	11
609.8	11
609.9	12
610.0	13
610.1	13
610.9	12
611.0	13
611.1	14
612.1	6
612.2	8
612.3	11
612.4	13
612.5	14
612.6	13
612.7	11
612.8	9
612.9	7
613.3	7
613.4	9
613.5	11
613.6	12
613.7	11
613.8	9
614.7	9
614.8	10
614.9	11
615.0	12
615.1	12
615.2	11
615.3	9
615.5	7
615.6	8
615.7	10
615.8	11
615.9	9
616.7	7
616.8	10
616.9	12
617.0	12
617.1	11
618.1	7
618.2	8
618.3	10
618.4	12
618.5	11
618.6	9
618.7	7
619.2	6
619.3	6
619.4	9
619.5	10
619.6	11
619.7	11
619.8	9
619.9	7
622.1	7
622.2	9
622.3	10
622.4	10
622.5	9
622.6	10
622.7	11
622.8	12
622.9	11
623.2	8
623.3	10
623.4	14
623.5	17
623.6	18
623.7	16
623.8	12
625.1	6
625.2	8
625.3	12
625.4	16
625.5	15
625.6	12
625.7	9
626.0	8
626.1	10
626.2	12
626.3	11
626.4	10
626.5	11
626.6	12
626.7	13
626.8	13
626.9	12
627.0	11
627.1	11
627.2	10
628.5	8
628.6	9
628.7	11
628.8	11
628.9	12
629.0	12
629.1	13
629.2	13
629.3	12
629.4	9
629.6	7
629.7	9
629.8	11
629.9	13
630.0	14
630.1	14
630.2	12
632.8	9
632.9	10
633.0	11
633.1	13
633.2	14
633.3	14
633.4	13
633.5	11
633.8	10
633.9	11
634.0	11
634.1	11
634.9	8
635.0	11
635.1	13
635.2	14
635.3	13
635.4	10
635.6	9
635.7	10
635.8	12
635.9	12
636.0	11
636.1	11
636.2	11
636.3	11
636.4	14
636.5	16
636.6	15
636.7	11
636.9	7
637.0	11
637.1	14
637.2	15
637.3	14
637.4	14
637.5	15
637.6	14
637.7	13
638.5	11
638.6	13
638.7	16
638.8	17
638.9	16
639.0	14
639.1	12
639.2	11
639.5	10
639.6	12
639.7	14
639.8	16
639.9	16
640.0	15
640.1	13
640.2	11
640.5	9
640.6	11
640.7	12
640.8	12
640.9	12
641.0	14
641.1	15
641.2	16
641.3	14
641.4	10
641.7	10
641.8	11
641.9	12
642.0	13
642.1	13
642.2	13
642.3	15
642.4	16
642.5	17
642.6	16
642.7	13
643.0	10
643.1	13
643.2	15
643.3	16
643.4	15
643.7	13
643.8	14
643.9	15
644.0	15
644.8	12
644.9	14
645.0	15
645.1	15
645.2	14
645.7	12
645.8	13
645.9	15
646.0	17
646.1	18
646.2	17
646.3	15
646.6	11
646.7	13
646.8	16
646.9	17
647.0	17
647.1	15
647.2	13
647.6	13
647.7	14
647.8	14
647.9	14
648.0	15
648.1	15
648.2	16
648.3	17
648.4	16
648.5	15
649.3	13
649.4	14
649.5	16
649.6	17
