Mass spectrum: Tavicone; LC-ESI-QQQ; MS2; Frag=135.0V CID@5.0; [M+H]+
Name: Tavicone
Class: Benzopyranoids
Formula: C23H26O4
Exact mass: 366.4613
SMILES: CC1=CCC2C(C)(C)C(=O)CC2(C)C1COc1ccc2ccc(=O)oc2c1
InChI: InChI=1S/C23H26O4/c1-14-5-9-19-22(2,3)20(24)12-23(19,4)17(14)13-26-16-8-6-15-7-10-21(25)27-18(15)11-16/h5-8,10-11,17,19H,9,12-13H2,1-4H3
Instrument: Agilent 6410 Triple Quadrupole LC/MS system
Instrument type: LC-ESI-QQQ
Ms type: MS2
Ion mode: POSITIVE
Precursor type: [M+H]+
m/z	relative intensity
162.7	1
162.8	3
162.9	4
163.0	5
163.1	5
163.2	4
163.3	3
186.7	1
186.8	2
186.9	4
187.0	5
187.1	6
187.2	6
187.3	5
187.4	4
187.5	2
366.3	1
366.4	3
366.5	6
366.6	11
366.7	17
366.8	29
366.9	48
367.0	71
367.1	90
367.2	99
367.3	97
367.4	80
367.5	53
367.6	23
367.7	3
