Mass spectrum: 11-Deoxy-PGE1.; LC-ESI-QQQ; MS2; Frag=135.0V CID@10.0; [M+Na]+
Name: 11-Deoxy-PGE1.
Class: Aliphatic natural products
Formula: C20H34O4
Exact mass: 338.4916
SMILES: CCCCC[C@H](O)/C=C/[C@H]1CCC(=O)[C@@H]1CCCCCCC(=O)O
InChI: InChI=1S/C20H34O4/c1-2-3-6-9-17(21)14-12-16-13-15-19(22)18(16)10-7-4-5-8-11-20(23)24/h12,14,16-18,21H,2-11,13,15H2,1H3,(H,23,24)/b14-12+/t16-,17-,18+/m0/s1
Instrument: Agilent 6410 Triple Quadrupole LC/MS system
Instrument type: LC-ESI-QQQ
Ms type: MS2
Ion mode: POSITIVE
Precursor type: [M+Na]+
m/z	relative intensity
360.4	1
360.5	3
360.6	8
360.7	15
360.8	26
360.9	41
361.0	60
361.1	80
361.2	94
361.3	99
361.4	91
361.5	69
361.6	39
361.7	12
361.8	0
