Mass spectrum: Barbatic acid; LC-ESI-QQQ; MS2; Frag=135.0V CID@10.0; [M+Na]+
Name: Barbatic acid
Class: Carbohydrates
Formula: C19H20O7
Exact mass: 360.3671
SMILES: COc1cc(C)c(C(=O)Oc2cc(C)c(C(=O)O)c(O)c2C)c(O)c1C
InChI: InChI=1S/C19H20O7/c1-8-7-13(11(4)16(20)14(8)18(22)23)26-19(24)15-9(2)6-12(25-5)10(3)17(15)21/h6-7,20-21H,1-5H3,(H,22,23)
Instrument: Agilent 6410 Triple Quadrupole LC/MS system
Instrument type: LC-ESI-QQQ
Ms type: MS2
Ion mode: POSITIVE
Precursor type: [M+Na]+
m/z	relative intensity
200.1	0
200.2	1
200.3	4
200.4	7
200.5	14
200.6	25
200.7	42
200.8	60
200.9	76
201.0	89
201.1	98
201.2	99
201.3	84
201.4	52
201.5	19
201.6	1
204.5	1
204.6	3
204.7	7
204.8	12
204.9	16
205.0	17
205.1	16
205.2	15
205.3	13
205.4	8
205.5	3
383.1	1
383.2	3
383.3	5
383.4	5
383.5	4
383.6	2
