Mass spectrum: Strophanthidinic acid; LC-ESI-QQQ; MS2; Frag=135.0V CID@10.0 ; [M+H]+
Name: Strophanthidinic acid
Class: Steroids
Formula: C23H32O7
Exact mass: 420.50729
SMILES: C[C@]12CCC3C(CCC4(O)CC(O)CC[C@]34C(=O)O)C1(O)CCC2C1=CC(=O)OC1
InChI: InChI=1S/C23H32O7/c1-20-6-3-16-17(23(20,29)9-5-15(20)13-10-18(25)30-12-13)4-7-21(28)11-14(24)2-8-22(16,21)19(26)27/h10,14-17,24,28-29H,2-9,11-12H2,1H3,(H,26,27)/t14?,15?,16?,17?,20-,21?,22-,23?/m1/s1
Instrument: Agilent 6410 Triple Quadrupole LC/MS system
Instrument type: LC-ESI-QQQ
Ms type: MS2
Ion mode: POSITIVE
Precursor type: [M+H]+
m/z	relative intensity
154.8	3
154.9	4
155.0	6
155.1	6
155.2	6
155.3	4
155.4	2
320.4	1
320.5	3
320.6	6
320.7	9
320.8	13
320.9	17
321.0	22
321.1	26
321.2	29
321.3	30
321.4	26
321.5	16
321.6	6
321.7	0
322.7	1
322.8	3
322.9	6
323.0	9
323.1	12
323.2	12
323.3	11
323.4	7
323.5	4
338.3	0
338.4	2
338.5	5
338.6	10
338.7	17
338.8	29
338.9	48
339.0	71
339.1	90
339.2	99
339.3	95
339.4	78
339.5	51
339.6	22
339.7	2
340.5	2
340.6	3
340.7	4
340.8	6
340.9	9
341.0	12
341.1	14
341.2	15
341.3	15
341.4	14
341.5	10
341.6	4
341.7	0
348.4	1
348.5	2
348.6	4
348.7	7
348.8	10
348.9	13
349.0	17
349.1	21
349.2	24
349.3	24
349.4	19
349.5	11
349.6	3
356.4	0
356.5	1
356.6	4
356.7	7
356.8	11
356.9	17
357.0	24
357.1	30
357.2	32
357.3	30
357.4	24
357.5	15
357.6	6
357.7	1
366.3	0
366.4	2
366.5	6
366.6	13
366.7	23
366.8	38
366.9	58
367.0	76
367.1	87
367.2	89
367.3	82
367.4	67
367.5	45
367.6	20
367.7	3
384.3	1
384.4	2
384.5	4
384.6	6
384.7	10
384.8	17
384.9	27
385.0	38
385.1	47
385.2	50
385.3	46
385.4	35
385.5	22
385.6	9
385.7	0
402.6	2
402.7	3
402.8	6
402.9	10
403.0	14
403.1	16
403.2	17
403.3	15
403.4	10
403.5	4
403.6	0
