Mass spectrum: Speciosine; LC-ESI-QQQ; MS2; Frag=135.0V CID@25.0; [M+H]+
Name: Speciozine
Name: Speciosin
Name: Speciozin
Name: (7S)-7-(((2-hydroxyphenyl)methyl)methylamino)-1,2,3,10-tetramethoxy-5,6,7-trihydrobenzo(a)heptalen-9-one
Name: Speciosine
Class: Alkaloids
Formula: C28H31NO6
Exact mass: 477.5624
SMILES: COc1cc2c(c(OC)c1OC)-c1ccc(OC)c(=O)cc1[C@@H](N(C)Cc1ccccc1O)CC2
InChI: InChI=1S/C28H31NO6/c1-29(16-18-8-6-7-9-22(18)30)21-12-10-17-14-25(33-3)27(34-4)28(35-5)26(17)19-11-13-24(32-2)23(31)15-20(19)21/h6-9,11,13-15,21,30H,10,12,16H2,1-5H3/t21-/m0/s1
Instrument: Agilent 6410 Triple Quadrupole LC/MS system
Instrument type: LC-ESI-QQQ
Ms type: MS2
Ion mode: POSITIVE
Precursor type: [M+H]+
m/z	relative intensity
71.7	2
71.8	3
71.9	4
72.0	5
72.1	5
72.2	5
72.3	4
72.4	2
308.7	2
308.8	3
308.9	5
309.0	7
309.1	8
309.2	9
309.3	8
309.7	6
309.8	10
309.9	16
310.0	22
310.1	25
310.2	25
310.3	22
310.4	16
310.5	9
310.6	3
311.8	3
311.9	5
312.0	7
312.1	8
312.2	9
312.3	8
312.4	7
312.5	4
314.7	2
314.8	4
314.9	6
315.0	8
315.1	9
315.2	9
315.3	8
315.4	6
315.5	3
325.7	2
325.8	4
325.9	6
326.0	7
326.1	9
326.2	9
326.3	8
326.4	6
326.5	3
339.6	2
339.7	4
339.8	9
339.9	14
340.0	20
340.1	24
340.2	24
340.3	23
340.4	18
340.5	11
340.8	4
340.9	8
341.0	12
341.1	15
341.2	15
341.3	13
341.4	10
341.5	6
341.6	2
371.3	1
371.4	3
371.5	6
371.6	10
371.7	17
371.8	32
371.9	53
372.0	76
372.1	93
372.2	99
372.3	95
372.4	80
372.5	54
372.6	26
372.7	6
372.8	0
