Mass spectrum: Huperzine A; LC-ESI-QQQ; MS2; Frag=135.0V CID@25.0; [M+H]+
Name: Huperzine A
Class: Terpenoids
Formula: C15H18N2O
Exact mass: 242.3235
SMILES: C/C=C1\C2C=C(C)CC1(N)c1ccc(O)nc1C2
InChI: InChI=1S/C15H18N2O/c1-3-11-10-6-9(2)8-15(11,16)12-4-5-14(18)17-13(12)7-10/h3-6,10H,7-8,16H2,1-2H3,(H,17,18)/b11-3+
Instrument: Agilent 6410 Triple Quadrupole LC/MS system
Instrument type: LC-ESI-QQQ
Ms type: MS2
Ion mode: POSITIVE
Precursor type: [M+H]+
m/z	relative intensity
91.6	2
91.7	4
91.8	6
91.9	7
92.0	7
92.1	6
92.2	5
92.3	4
92.4	2
133.4	2
133.5	4
133.6	7
133.7	10
133.8	13
133.9	16
134.0	18
134.1	20
134.2	19
134.3	18
134.4	14
134.5	9
134.6	4
152.7	1
152.8	3
152.9	4
153.0	6
153.1	7
153.2	7
153.3	7
153.4	6
153.5	4
154.8	2
154.9	4
155.0	6
155.1	6
155.2	6
155.3	5
157.7	3
157.8	5
157.9	7
158.0	7
158.1	7
158.2	7
158.3	7
158.4	5
158.5	2
164.6	1
164.7	2
164.8	6
164.9	9
165.0	10
165.1	9
165.2	7
165.5	5
165.6	7
165.7	11
165.8	16
165.9	23
166.0	29
166.1	33
166.2	32
166.3	26
166.4	17
166.5	9
166.6	3
167.6	1
167.7	3
167.8	6
167.9	9
168.0	12
168.1	14
168.2	14
168.3	11
168.4	7
168.7	6
168.8	9
168.9	11
169.0	15
169.1	17
169.2	17
169.3	15
169.4	11
169.7	7
169.8	9
169.9	11
170.0	11
170.1	11
170.2	12
170.3	13
170.4	11
170.5	6
170.6	2
177.5	1
177.6	2
177.7	4
177.8	5
177.9	6
178.0	7
178.1	8
178.2	8
178.3	7
178.4	6
178.8	4
178.9	6
179.0	8
179.1	9
179.2	10
179.3	9
179.4	7
179.7	5
179.8	9
179.9	13
180.0	16
180.1	16
180.2	14
180.3	11
180.6	7
180.7	9
180.8	15
180.9	23
181.0	30
181.1	34
181.2	34
181.3	32
181.4	26
181.5	17
181.8	9
181.9	13
182.0	15
182.1	15
182.2	14
182.3	12
182.4	9
182.7	7
182.8	12
182.9	16
183.0	20
183.1	20
183.2	19
183.3	17
183.4	15
183.7	9
183.8	13
183.9	19
184.0	24
184.1	28
184.2	27
184.3	23
184.4	16
184.5	9
184.6	3
186.6	3
186.7	4
186.8	7
186.9	10
187.0	12
187.1	14
187.2	13
187.3	10
187.4	7
187.5	3
191.6	5
191.7	6
191.8	8
191.9	10
192.0	12
192.1	14
192.2	14
192.3	11
192.6	6
192.7	11
192.8	19
192.9	26
193.0	31
193.1	32
193.2	30
193.3	25
193.4	18
193.5	9
193.6	2
195.4	2
195.5	5
195.6	13
195.7	25
195.8	40
195.9	54
196.0	65
196.1	69
196.2	67
196.3	59
196.4	45
196.5	28
196.7	16
196.8	26
196.9	40
197.0	52
197.1	58
197.2	57
197.3	50
197.4	38
197.5	24
197.6	12
197.8	9
197.9	14
198.0	20
198.1	22
198.2	22
198.3	20
198.4	15
198.5	9
198.6	3
205.5	1
205.6	2
205.7	4
205.8	6
205.9	8
206.0	10
206.1	12
206.2	11
206.3	9
206.4	6
206.5	2
207.4	3
207.5	4
207.6	7
207.7	13
207.8	23
207.9	33
208.0	40
208.1	44
208.2	43
208.3	39
208.4	31
208.5	19
208.6	8
208.8	4
208.9	8
209.0	11
209.1	12
209.2	11
209.3	11
209.4	12
209.5	14
209.6	21
209.7	34
209.8	53
209.9	75
210.0	91
210.1	99
210.2	98
210.3	89
210.4	70
210.5	46
210.6	24
210.8	18
210.9	28
211.0	36
211.1	40
211.2	39
211.3	34
211.4	26
211.5	16
211.6	7
212.8	3
212.9	5
213.0	7
213.1	9
213.2	9
213.3	7
213.4	4
213.5	1
223.5	1
223.6	3
223.7	7
223.8	12
223.9	18
224.0	21
224.1	22
224.2	21
224.3	18
224.4	13
224.5	6
224.6	1
225.2	1
225.3	3
225.4	5
225.5	8
225.6	14
225.7	23
225.8	38
225.9	56
226.0	71
226.1	79
226.2	80
226.3	75
226.4	64
226.5	45
226.6	25
226.9	18
227.0	25
227.1	32
227.2	34
227.3	32
227.4	24
227.5	13
227.6	5
227.8	1
227.9	5
228.0	10
228.1	13
228.2	13
228.3	11
228.4	6
228.5	2
242.3	0
242.4	1
242.5	4
242.6	10
242.7	20
242.8	34
242.9	50
243.0	64
243.1	72
243.2	76
243.3	75
243.4	66
243.5	45
243.6	20
243.7	2
