Mass spectrum: Machilin D; LC-ESI-QQQ; MS2; Frag=135.0V CID@5.0; [M+Na]+
Name: Machilin D
Class: Lignans
Formula: C20H24O5
Exact mass: 344.4113
SMILES: C/C=C/c1ccc(OC(C)[C@@H](O)c2ccc(O)c(OC)c2)c(OC)c1
InChI: InChI=1S/C20H24O5/c1-5-6-14-7-10-17(19(11-14)24-4)25-13(2)20(22)15-8-9-16(21)18(12-15)23-3/h5-13,20-22H,1-4H3/b6-5+/t13?,20-/m1/s1
Instrument: Agilent 6410 Triple Quadrupole LC/MS system
Instrument type: LC-ESI-QQQ
Ms type: MS2
Ion mode: POSITIVE
Precursor type: [M+Na]+
m/z	relative intensity
190.7	2
190.8	3
190.9	5
191.0	7
191.1	8
191.2	7
191.3	4
202.7	2
202.8	4
202.9	7
203.0	11
203.1	14
203.2	13
203.3	9
203.4	6
203.5	4
366.4	0
366.5	2
366.6	8
366.7	21
366.8	44
366.9	71
367.0	93
367.1	99
367.2	94
367.3	81
367.4	62
367.5	37
367.6	13
367.7	0
