Mass spectrum: Aucubin; LC-ESI-QQQ; MS2;  Frag=135.0V CID@25.0 ; [M+Na]+
Name: Aucubin
Class: Terpenoids
Formula: C15H22O9
Exact mass: 346.33719
SMILES: OCC1=C[C@@H](O)[C@@H]2C=COC(OC3OC(CO)C(O)C(O)C3O)[C@H]12
InChI: InChI=1S/C15H22O9/c16-4-6-3-8(18)7-1-2-22-14(10(6)7)24-15-13(21)12(20)11(19)9(5-17)23-15/h1-3,7-21H,4-5H2/t7-,8+,9?,10+,11?,12?,13?,14?,15?/m0/s1
Instrument: Agilent 6410 Triple Quadrupole LC/MS system
Instrument type: LC-ESI-QQQ
Ms type: MS2
Ion mode: POSITIVE
Precursor type: [M+Na]+
m/z	relative intensity
202.7	6
202.8	8
202.9	10
203.0	10
203.1	9
203.2	7
203.3	6
203.4	6
203.5	6
203.6	6
203.7	5
203.8	6
203.9	6
204.0	6
204.1	6
204.2	6
204.3	6
204.4	6
204.5	6
204.6	6
204.7	6
204.8	6
204.9	6
205.0	6
205.1	6
205.2	6
205.3	6
205.4	5
205.5	5
205.6	6
205.7	6
205.8	6
205.9	6
206.0	6
206.1	6
206.2	6
206.3	5
206.4	6
206.5	6
206.6	6
206.7	6
206.8	6
206.9	6
207.0	6
207.1	6
207.2	6
207.3	6
207.4	6
207.5	6
207.6	6
207.7	6
207.8	6
207.9	6
208.0	6
208.1	6
208.2	6
208.3	6
208.4	6
208.5	6
208.6	6
208.7	6
208.8	6
208.9	5
209.0	5
209.1	6
209.2	5
209.3	6
209.4	6
209.5	6
209.6	6
209.7	6
209.8	6
209.9	6
210.0	6
210.1	5
210.2	5
210.3	6
210.4	6
210.5	6
210.6	5
210.7	5
210.8	6
210.9	6
211.0	6
211.1	6
211.2	6
211.3	6
211.4	6
211.5	6
211.6	6
211.7	6
211.8	6
211.9	6
212.0	6
212.1	6
212.2	6
212.3	6
212.4	6
212.5	6
212.6	6
212.7	6
212.8	6
212.9	6
213.0	6
213.1	6
213.2	6
213.3	6
213.4	6
213.5	6
213.6	6
213.7	6
213.8	6
213.9	6
214.0	6
214.1	6
214.2	6
214.3	6
214.4	6
214.5	6
214.6	6
214.7	6
214.8	6
214.9	6
215.0	6
215.1	6
215.2	6
215.3	6
215.4	6
215.5	6
215.6	6
215.7	6
215.8	6
215.9	6
216.0	6
216.1	6
216.2	5
216.3	6
216.4	6
216.5	6
216.6	6
216.7	6
216.8	6
216.9	6
217.0	6
217.1	6
217.2	6
217.3	6
217.4	6
217.5	6
217.6	6
217.7	6
217.8	6
217.9	6
218.0	6
218.1	6
218.2	6
218.3	6
218.4	6
218.5	6
218.6	6
218.7	6
218.8	6
218.9	6
219.0	6
219.1	6
219.2	6
219.3	6
219.4	6
219.5	6
219.6	6
219.7	6
219.8	6
219.9	6
220.0	6
220.1	6
220.2	6
220.3	6
220.4	6
220.5	6
220.6	6
220.7	6
220.8	5
220.9	5
221.0	6
221.1	6
221.2	6
221.3	6
221.4	6
221.5	6
221.6	6
221.7	6
221.8	6
221.9	6
222.0	6
222.1	6
222.2	6
222.3	6
222.4	6
222.5	6
222.6	6
222.7	6
222.8	6
222.9	5
223.0	6
223.1	6
223.2	6
223.3	5
223.4	5
223.5	6
223.6	6
223.7	6
223.8	5
223.9	6
224.0	6
224.1	6
224.2	6
224.3	6
224.4	5
224.5	5
224.6	5
224.7	5
224.8	6
224.9	6
225.0	6
225.1	5
225.2	6
225.3	6
225.4	6
225.5	6
225.6	6
225.7	6
225.8	6
225.9	6
226.0	6
226.1	6
226.2	6
226.3	6
226.4	6
226.5	6
226.6	6
226.7	6
226.8	6
226.9	6
227.0	6
227.1	6
227.2	6
227.3	6
227.4	6
227.5	5
227.6	5
227.7	6
227.8	6
227.9	6
228.0	6
228.1	6
228.2	6
228.3	6
228.4	6
228.5	6
228.6	6
228.7	6
228.8	6
228.9	6
229.0	6
229.1	6
229.2	5
229.3	5
229.4	6
229.5	6
229.6	6
229.7	6
229.8	6
229.9	6
230.0	6
230.1	6
230.2	6
230.3	6
230.4	6
230.5	6
230.6	5
230.7	6
230.8	6
230.9	6
231.0	5
231.1	6
231.2	6
231.3	6
231.4	6
231.5	6
231.6	6
231.7	6
231.8	6
231.9	6
232.0	6
232.1	6
232.2	5
232.3	5
232.4	5
232.5	6
232.6	5
232.7	5
232.8	5
232.9	6
233.0	6
233.1	6
233.2	6
233.3	6
233.4	6
233.5	6
233.6	6
233.7	6
233.8	6
233.9	6
234.0	6
234.1	6
234.2	6
234.3	6
234.4	6
234.5	6
234.6	6
234.7	6
234.8	6
234.9	5
235.0	6
235.1	6
235.2	6
235.3	6
235.4	6
235.5	6
235.6	6
235.7	5
235.8	6
235.9	6
236.0	6
236.1	5
236.2	5
236.3	5
236.4	6
236.5	6
236.6	6
236.7	6
236.8	6
236.9	6
237.0	6
237.1	6
237.2	6
237.3	6
237.4	5
237.5	5
237.6	6
237.7	6
237.8	6
237.9	6
238.0	6
238.1	6
238.2	5
238.3	5
238.4	6
238.5	6
238.6	6
238.7	6
238.8	6
238.9	6
239.0	6
239.1	6
239.2	6
239.3	6
239.4	6
239.5	6
239.6	6
239.7	6
239.8	6
239.9	6
240.0	6
240.1	6
240.2	6
240.3	6
240.4	6
240.5	6
240.6	6
240.7	6
240.8	6
240.9	6
241.0	6
241.1	6
241.2	6
241.3	6
241.4	5
241.5	6
241.6	6
241.7	6
241.8	6
241.9	6
242.0	6
242.1	6
242.2	6
242.3	6
242.4	6
242.5	6
242.6	6
242.7	6
242.8	6
242.9	6
243.0	6
243.1	6
243.2	6
243.3	6
243.4	5
243.5	6
243.6	6
243.7	6
243.8	6
243.9	6
244.0	6
244.1	6
244.2	6
244.3	6
244.4	6
244.5	6
244.6	6
244.7	6
244.8	6
244.9	6
245.0	6
245.1	6
245.2	6
245.3	6
245.4	6
245.5	6
245.6	6
245.7	6
245.8	6
245.9	6
246.0	5
246.1	6
246.2	6
246.3	6
246.4	6
246.5	6
246.6	6
246.7	6
246.8	5
246.9	6
247.0	6
247.1	6
247.2	5
247.3	5
247.4	6
247.5	6
247.6	6
247.7	6
247.8	6
247.9	6
248.0	6
248.1	6
248.2	6
248.3	6
248.4	6
248.5	6
248.6	6
248.7	6
248.8	6
248.9	6
249.0	6
249.1	6
249.2	6
249.3	6
249.4	6
249.5	6
249.6	6
249.7	6
249.8	6
249.9	6
250.0	6
250.1	6
250.2	5
250.3	6
250.4	6
250.5	6
250.6	6
250.7	5
250.8	5
250.9	5
251.0	5
251.1	6
251.2	6
251.3	6
251.4	6
251.5	6
251.6	6
251.7	6
251.8	6
251.9	6
252.0	5
252.1	6
252.2	6
252.3	6
252.4	6
252.5	6
252.6	6
252.7	6
252.8	6
252.9	6
253.0	6
253.1	6
253.2	6
253.3	6
253.4	6
253.5	6
253.6	6
253.7	6
253.8	6
253.9	6
254.0	6
254.1	6
254.2	6
254.3	6
254.4	6
254.5	6
254.6	6
254.7	6
254.8	6
254.9	5
255.0	6
255.1	6
255.2	6
255.3	6
255.4	6
255.5	6
255.6	6
255.7	6
255.8	6
255.9	6
256.0	6
256.1	5
256.2	5
256.3	6
256.4	6
256.5	6
256.6	5
256.7	5
256.8	6
256.9	6
257.0	6
257.1	6
257.2	6
257.3	6
257.4	6
257.5	6
257.6	6
257.7	6
257.8	5
257.9	5
258.0	6
258.1	6
258.2	6
258.3	6
258.4	6
258.5	6
258.6	6
258.7	6
258.8	6
258.9	6
259.0	6
259.1	6
259.2	6
259.3	6
259.4	6
259.5	6
259.6	6
259.7	6
259.8	6
259.9	6
260.0	5
260.1	5
260.2	6
260.3	6
260.4	6
260.5	6
260.6	6
260.7	6
260.8	6
260.9	6
261.0	6
261.1	6
261.2	6
261.3	6
261.4	6
261.5	6
261.6	6
261.7	6
261.8	6
261.9	6
262.0	6
262.1	6
262.2	6
262.3	6
262.4	6
262.5	6
262.6	6
262.7	6
262.8	6
262.9	6
263.0	6
263.1	6
263.2	6
263.3	6
263.4	5
263.5	6
263.6	6
263.7	6
263.8	6
263.9	6
264.0	6
264.1	6
264.2	6
264.3	6
264.4	6
264.5	6
264.6	6
264.7	6
264.8	6
264.9	6
265.0	6
265.1	6
265.2	5
265.3	5
265.4	6
265.5	5
265.6	5
265.7	6
265.8	6
265.9	6
266.0	6
266.1	6
266.2	6
266.3	6
266.4	6
266.5	6
266.6	6
266.7	6
266.8	5
266.9	5
267.0	6
267.1	6
267.2	6
267.3	5
267.4	5
267.5	6
267.6	6
267.7	6
267.8	6
267.9	6
268.0	6
268.1	5
268.2	5
268.3	6
268.4	6
268.5	6
268.6	6
268.7	6
268.8	6
268.9	6
269.0	6
269.1	6
269.2	6
269.3	6
269.4	5
269.5	6
269.6	6
269.7	6
269.8	6
269.9	6
270.0	6
270.1	6
270.2	6
270.3	6
270.4	6
270.5	6
270.6	6
270.7	5
270.8	5
270.9	6
271.0	6
271.1	6
271.2	6
271.3	6
271.4	6
271.5	6
271.6	5
271.7	5
271.8	6
271.9	5
272.0	5
272.1	5
272.2	6
272.3	6
272.4	6
272.5	5
272.6	6
272.7	6
272.8	6
272.9	6
273.0	6
273.1	6
273.2	6
273.3	5
273.4	6
273.5	6
273.6	6
273.7	6
273.8	6
273.9	6
274.0	6
274.1	6
274.2	6
274.3	6
274.4	6
274.5	5
274.6	5
274.7	5
274.8	5
274.9	5
275.0	6
275.1	6
275.2	7
275.3	6
275.4	6
275.5	6
275.6	6
275.7	6
275.8	6
275.9	6
276.0	6
276.1	6
276.2	6
276.3	6
276.4	6
276.5	6
276.6	6
276.7	6
276.8	6
276.9	6
277.0	6
277.1	6
277.2	6
277.3	6
277.4	6
277.5	6
277.6	5
277.7	6
277.8	6
277.9	6
278.0	6
278.1	6
278.2	6
278.3	6
278.4	6
278.5	5
278.6	6
278.7	6
278.8	6
278.9	6
279.0	6
279.1	6
279.2	6
279.3	6
279.4	6
279.5	6
279.6	6
279.7	6
279.8	6
279.9	6
280.0	6
280.1	6
280.2	6
280.3	6
280.4	6
280.5	6
280.6	6
280.7	6
280.8	6
280.9	5
281.0	5
281.1	6
281.2	6
281.3	6
281.4	6
281.5	6
281.6	6
281.7	6
281.8	6
281.9	6
282.0	6
282.1	6
282.2	5
282.3	6
282.4	6
282.5	6
282.6	6
282.7	6
282.8	6
282.9	6
283.0	6
283.1	6
283.2	6
283.3	6
283.4	6
283.5	6
283.6	5
283.7	5
283.8	5
283.9	5
284.0	6
284.1	6
284.2	6
284.3	6
284.4	6
284.5	6
284.6	6
284.7	6
284.8	6
284.9	6
285.0	6
285.1	6
285.2	6
285.3	6
285.4	6
285.5	6
285.6	6
285.7	6
285.8	6
285.9	6
286.0	6
286.1	6
286.2	6
286.3	6
286.4	6
286.5	6
286.6	6
286.7	6
286.8	6
286.9	5
287.0	6
287.1	6
287.2	6
287.3	6
287.4	5
287.5	6
287.6	6
287.7	6
287.8	6
287.9	6
288.0	6
288.1	6
288.2	6
288.3	6
288.4	6
288.5	6
288.6	6
288.7	6
288.8	6
288.9	6
289.0	5
289.1	5
289.2	6
289.3	6
289.4	6
289.5	6
289.6	6
289.7	6
289.8	6
289.9	6
290.0	6
290.1	6
290.2	6
290.3	5
290.4	6
290.5	6
290.6	6
290.7	6
290.8	6
290.9	6
291.0	6
291.1	6
291.2	6
291.3	6
291.4	6
291.5	6
291.6	6
291.7	6
291.8	6
291.9	6
292.0	5
292.1	5
292.2	6
292.3	6
292.4	6
292.5	5
292.6	5
292.7	5
292.8	5
292.9	5
293.0	5
293.1	6
293.2	6
293.3	6
293.4	6
293.5	6
293.6	6
293.7	6
293.8	5
293.9	6
294.0	6
294.1	6
294.2	6
294.3	6
294.4	6
294.5	6
294.6	5
294.7	5
294.8	6
294.9	6
295.0	6
295.1	6
295.2	5
295.3	5
295.4	5
295.5	5
295.6	6
295.7	6
295.8	6
295.9	6
296.0	6
296.1	6
296.2	6
296.3	6
296.4	6
296.5	6
296.6	5
296.7	5
296.8	6
296.9	6
297.0	6
297.1	6
297.2	6
297.3	6
297.4	6
297.5	6
297.6	6
297.7	6
297.8	6
297.9	6
298.0	6
298.1	5
298.2	6
298.3	6
298.4	6
298.5	6
298.6	6
298.7	6
298.8	6
298.9	6
299.0	6
299.1	6
299.2	6
299.3	5
299.4	6
299.5	6
299.6	6
299.7	6
299.8	6
299.9	6
300.0	6
300.1	6
300.2	6
300.3	6
300.4	6
300.5	6
300.6	5
300.7	6
300.8	6
300.9	6
301.0	6
301.1	6
301.2	6
301.3	6
301.4	5
301.5	5
301.6	6
301.7	6
301.8	5
301.9	5
302.0	5
302.1	6
302.2	6
302.3	6
302.4	5
302.5	5
302.6	5
302.7	5
302.8	6
302.9	6
303.0	6
303.1	6
303.2	6
303.3	6
303.4	6
303.5	6
303.6	6
303.7	6
303.8	6
303.9	6
304.0	6
304.1	6
304.2	6
304.3	6
304.4	6
304.5	6
304.6	6
304.7	6
304.8	6
304.9	6
305.0	6
305.1	6
305.2	6
305.3	6
305.4	6
305.5	6
305.6	5
305.7	6
305.8	6
305.9	6
306.0	6
306.1	6
306.2	6
306.3	6
306.4	6
306.5	6
306.6	6
306.7	6
306.8	6
306.9	6
307.0	5
307.1	6
307.2	6
307.3	6
307.4	6
307.5	6
307.6	6
307.7	6
307.8	6
307.9	6
308.0	6
308.1	6
308.2	6
308.3	6
308.4	6
308.5	6
308.6	6
308.7	5
308.8	6
308.9	6
309.0	6
309.1	6
309.2	6
309.3	6
309.4	6
309.5	6
309.6	5
309.7	5
309.8	6
309.9	6
310.0	6
310.1	6
310.2	6
310.3	6
310.4	6
310.5	5
310.6	6
310.7	6
310.8	6
310.9	6
311.0	6
311.1	6
311.2	6
311.3	6
311.4	6
311.5	6
311.6	6
311.7	6
311.8	6
311.9	6
312.0	6
312.1	6
312.2	6
312.3	6
312.4	6
312.5	6
312.6	6
312.7	6
312.8	6
312.9	6
313.0	6
313.1	6
313.2	6
313.3	5
313.4	5
313.5	5
313.6	6
313.7	6
313.8	6
313.9	6
314.0	6
314.1	6
314.2	5
314.3	5
314.4	6
314.5	6
314.6	6
314.7	6
314.8	6
314.9	6
315.0	6
315.1	6
315.2	6
315.3	6
315.4	6
315.5	6
315.6	6
315.7	6
315.8	6
315.9	6
316.0	6
316.1	6
316.2	6
316.3	6
316.4	6
316.5	6
316.6	6
316.7	6
316.8	6
316.9	6
317.0	6
317.1	6
317.2	6
317.3	6
317.4	6
317.5	6
317.6	6
317.7	6
317.8	6
317.9	5
318.0	5
318.1	5
318.2	6
318.3	6
318.4	6
318.5	6
318.6	6
318.7	6
318.8	6
318.9	6
319.0	6
319.1	6
319.2	6
319.3	5
319.4	5
319.5	6
319.6	6
319.7	6
319.8	6
319.9	6
320.0	6
320.1	6
320.2	5
320.3	5
320.4	6
320.5	6
320.6	6
320.7	6
320.8	6
320.9	6
321.0	6
321.1	6
321.2	6
321.3	6
321.4	6
321.5	6
321.6	6
321.7	6
321.8	6
321.9	6
322.0	6
322.1	6
322.2	6
322.3	6
322.4	6
322.5	6
322.6	6
322.7	6
322.8	5
322.9	6
323.0	6
323.1	6
323.2	6
323.3	6
323.4	6
323.5	6
323.6	6
323.7	6
323.8	6
323.9	6
324.0	6
324.1	6
324.2	6
324.3	6
324.4	6
324.5	6
324.6	6
324.7	6
324.8	6
324.9	6
325.0	6
325.1	6
325.2	6
325.3	6
325.4	6
325.5	6
325.6	6
325.7	6
325.8	6
325.9	6
326.0	6
326.1	6
326.2	6
326.3	6
326.4	6
326.5	6
326.6	6
326.7	6
326.8	6
326.9	6
327.0	6
327.1	5
327.2	6
327.3	6
327.4	6
327.5	6
327.6	6
327.7	6
327.8	6
327.9	6
328.0	6
328.1	6
328.2	6
328.3	6
328.4	6
328.5	6
328.6	6
328.7	6
328.8	6
328.9	6
329.0	6
329.1	6
329.2	6
329.3	6
329.4	6
329.5	5
329.6	5
329.7	6
329.8	6
329.9	6
330.0	6
330.1	6
330.2	6
330.3	6
330.4	6
330.5	6
330.6	6
330.7	6
330.8	6
330.9	6
331.0	6
331.1	6
331.2	6
331.3	6
331.4	6
331.5	6
331.6	6
331.7	6
331.8	6
331.9	6
332.0	6
332.1	6
332.2	5
332.3	5
332.4	5
332.5	5
332.6	5
332.7	6
332.8	6
332.9	6
333.0	6
333.1	6
333.2	6
333.3	6
333.4	6
333.5	6
333.6	6
333.7	6
333.8	6
333.9	6
334.0	6
334.1	6
334.2	5
334.3	5
334.4	6
334.5	6
334.6	6
334.7	6
334.8	6
334.9	6
335.0	6
335.1	6
335.2	6
335.3	6
335.4	6
335.5	6
335.6	6
335.7	6
335.8	6
335.9	6
336.0	6
336.1	6
336.2	6
336.3	6
336.4	6
336.5	6
336.6	6
336.7	6
336.8	6
336.9	6
337.0	6
337.1	6
337.2	6
337.3	7
337.4	7
337.5	6
337.6	5
337.7	5
337.8	5
337.9	5
338.0	5
338.1	6
338.2	6
338.3	6
338.4	6
338.5	5
338.6	5
338.7	6
338.8	6
338.9	6
339.0	6
339.1	6
339.2	6
339.3	6
339.4	6
339.5	6
339.6	6
339.7	6
339.8	6
339.9	6
340.0	6
340.1	6
340.2	6
340.3	6
340.4	6
340.5	6
340.6	6
340.7	6
340.8	6
340.9	6
341.0	6
341.1	6
341.2	6
341.3	6
341.4	6
341.5	6
341.6	6
341.7	6
341.8	6
341.9	5
342.0	5
342.1	6
342.2	6
342.3	6
342.4	6
342.5	6
342.6	6
342.7	6
342.8	6
342.9	6
343.0	6
343.1	6
343.2	6
343.3	6
343.4	6
343.5	6
343.6	6
343.7	6
343.8	6
343.9	6
344.0	6
344.1	5
344.2	6
344.3	6
344.4	6
344.5	5
344.6	6
344.7	6
344.8	6
344.9	6
345.0	6
345.1	6
345.2	6
345.3	6
345.4	6
345.5	6
345.6	6
345.7	6
345.8	6
345.9	6
346.0	6
346.1	6
346.2	6
346.3	6
346.4	6
346.5	6
346.6	6
346.7	5
346.8	6
346.9	6
347.0	6
347.1	6
347.2	6
347.3	6
347.4	6
347.5	6
347.6	5
347.7	6
347.8	6
347.9	6
348.0	6
348.1	7
348.2	6
348.3	6
348.4	6
348.5	6
348.6	6
348.7	6
348.8	5
348.9	6
349.0	6
349.1	6
349.2	6
349.3	6
349.4	6
349.5	6
349.6	6
349.7	5
349.8	6
349.9	6
350.0	6
350.1	6
350.2	6
350.3	6
350.4	6
350.5	6
350.6	6
350.7	6
350.8	5
350.9	5
351.0	5
351.1	6
351.2	6
351.3	6
351.4	6
351.5	6
351.6	6
351.7	6
351.8	6
351.9	6
352.0	6
352.1	6
352.2	6
352.3	6
352.4	6
352.5	6
352.6	6
352.7	6
352.8	6
352.9	6
353.0	6
353.1	5
353.2	6
353.3	6
353.4	6
353.5	5
353.6	6
353.7	6
353.8	6
353.9	6
354.0	6
354.1	6
354.2	6
354.3	5
354.4	5
354.5	6
354.6	6
354.7	6
354.8	6
354.9	6
355.0	6
355.1	5
355.2	5
355.3	6
355.4	6
355.5	6
355.6	6
355.7	6
355.8	6
355.9	6
356.0	5
356.1	6
356.2	6
356.3	6
356.4	6
356.5	6
356.6	6
356.7	6
356.8	6
356.9	6
357.0	6
357.1	6
357.2	6
357.3	6
357.4	6
357.5	6
357.6	6
357.7	6
357.8	6
357.9	6
358.0	6
358.1	6
358.2	6
358.3	6
358.4	6
358.5	6
358.6	6
358.7	6
358.8	6
358.9	6
359.0	6
359.1	6
359.2	6
359.3	6
359.4	6
359.5	6
359.6	5
359.7	5
359.8	6
359.9	6
360.0	6
360.1	6
360.2	6
360.3	5
360.4	6
360.5	6
360.6	6
360.7	6
360.8	6
360.9	6
361.0	6
361.1	6
361.2	6
361.3	6
361.4	6
361.5	6
361.6	6
361.7	6
361.8	6
361.9	6
362.0	6
362.1	6
362.2	6
362.3	6
362.4	6
362.5	6
362.6	6
362.7	6
362.8	6
362.9	6
363.0	6
363.1	6
363.2	6
363.3	5
363.4	5
363.5	6
363.6	6
363.7	6
363.8	6
363.9	6
364.0	6
364.1	6
364.2	6
364.3	6
364.4	6
364.5	6
364.6	5
364.7	5
364.8	5
364.9	5
365.0	5
365.1	6
365.2	6
365.3	6
365.4	6
365.5	5
365.6	6
365.7	6
365.8	6
365.9	6
366.0	6
366.1	6
366.2	6
366.3	6
366.4	6
366.5	6
366.6	6
366.7	6
366.8	6
366.9	6
367.0	6
367.1	6
367.2	6
367.3	6
367.4	6
367.5	6
367.6	6
367.7	6
367.8	6
367.9	6
368.0	6
368.1	6
368.2	6
368.3	5
368.5	0
368.6	3
368.7	24
368.8	64
368.9	96
369.0	94
369.1	69
369.2	50
369.3	49
369.4	48
369.5	35
369.6	17
369.7	5
