Mass spectrum: Kokanidin; LC-ESI-QQQ; MS2; Frag=135.0V CID@15.0; [M+Na]+
Name: Kokanidin
Class: Benzopyranoids
Formula: C26H34O6
Exact mass: 442.5573
SMILES: CC(=O)OC1CC[C@]2(C)C(CC[C@@](C)(O)[C@H]2COc2ccc3ccc(=O)oc3c2)C1(C)C
InChI: InChI=1S/C26H34O6/c1-16(27)31-22-11-12-25(4)20(24(22,2)3)10-13-26(5,29)21(25)15-30-18-8-6-17-7-9-23(28)32-19(17)14-18/h6-9,14,20-22,29H,10-13,15H2,1-5H3/t20?,21-,22?,25+,26+/m0/s1
Instrument: Agilent 6410 Triple Quadrupole LC/MS system
Instrument type: LC-ESI-QQQ
Ms type: MS2
Ion mode: POSITIVE
Precursor type: [M+Na]+
m/z	relative intensity
404.6	0
404.7	2
404.8	5
404.9	7
405.0	9
405.1	9
405.2	8
405.3	7
405.4	4
405.5	1
464.2	0
464.3	1
464.4	5
464.5	9
464.6	14
464.7	22
464.8	34
464.9	51
465.0	71
465.1	89
465.2	99
465.3	99
465.4	84
465.5	57
465.6	27
465.7	5
465.8	0
