Mass spectrum: 3-Hydroxy-12-ursen-28-oic acid; LC-ESI-QQQ; MS2; Frag=135.0V CID@25.0; [M+Na]+
Name: 3-Hydroxy-12-ursen-28-oic acid
Class: Terpenoids
Formula: C30H48O3
Exact mass: 456.7153
SMILES: C[C@@H]1C2C3=CC[C@@H]4[C@@]5(C)CCC(O)C(C)(C)[C@@H]5CC[C@@]4(C)[C@]3(C)CCC2(C(=O)O)CC[C@H]1C
InChI: InChI=1S/C30H48O3/c1-18-10-15-30(25(32)33)17-16-28(6)20(24(30)19(18)2)8-9-22-27(5)13-12-23(31)26(3,4)21(27)11-14-29(22,28)7/h8,18-19,21-24,31H,9-17H2,1-7H3,(H,32,33)/t18-,19+,21+,22-,23?,24?,27+,28-,29-,30?/m1/s1
Instrument: Agilent 6410 Triple Quadrupole LC/MS system
Instrument type: LC-ESI-QQQ
Ms type: MS2
Ion mode: POSITIVE
Precursor type: [M+Na]+
m/z	relative intensity
50.9	5
51.0	9
51.1	13
51.2	15
51.3	13
52.1	8
52.2	10
52.3	13
52.4	15
52.5	14
52.6	10
52.8	6
52.9	10
53.0	14
53.1	15
53.2	13
53.3	9
53.5	7
53.6	10
53.7	11
53.8	11
53.9	10
54.0	10
54.1	11
54.2	14
54.3	15
54.4	13
54.7	9
54.8	14
54.9	17
55.0	16
55.1	11
55.3	4
55.4	9
55.5	16
55.6	19
55.7	16
55.8	9
56.0	8
56.1	13
56.2	15
56.3	13
56.5	6
56.6	9
56.7	15
56.8	19
56.9	18
57.0	13
57.2	8
57.3	11
57.4	16
57.5	18
57.6	14
57.7	8
57.9	5
58.0	9
58.1	15
58.2	16
58.3	14
58.6	9
58.7	12
58.8	14
58.9	13
59.8	6
59.9	9
60.0	11
60.1	12
60.2	10
60.4	7
60.5	10
60.6	13
60.7	15
60.8	13
61.7	6
61.8	9
61.9	12
62.0	13
62.1	10
62.3	5
62.4	11
62.5	18
62.6	22
62.7	19
62.8	12
63.1	6
63.2	12
63.3	15
63.4	13
63.5	9
64.2	5
64.3	8
64.4	13
64.5	17
64.6	16
64.7	13
64.9	8
65.0	11
65.1	15
65.2	16
65.3	13
66.2	7
66.3	11
66.4	15
66.5	17
66.6	13
66.9	7
67.0	12
67.1	16
67.2	14
67.3	9
67.5	7
67.6	11
67.7	14
67.8	15
67.9	12
68.0	9
68.2	8
68.3	11
68.4	12
68.5	12
68.7	9
68.8	12
68.9	16
69.0	18
69.1	15
69.2	10
69.4	6
69.5	9
69.6	13
69.7	15
69.8	13
70.7	10
70.8	12
70.9	13
71.0	12
71.3	9
71.4	13
71.5	17
71.6	19
71.7	16
72.0	11
72.1	16
72.2	19
72.3	17
72.4	12
72.6	9
72.7	13
72.8	17
72.9	17
73.0	13
73.3	7
73.4	12
73.5	16
73.6	17
73.7	13
73.9	8
74.0	11
74.1	15
74.2	15
74.3	11
74.5	5
74.6	8
74.7	12
74.8	13
74.9	10
75.2	5
75.3	12
75.4	17
75.5	16
75.6	11
75.7	6
75.9	5
76.0	8
76.1	11
76.2	10
76.3	9
76.4	9
76.5	11
76.6	13
76.7	13
76.8	10
77.1	8
77.2	11
77.3	15
77.4	15
77.5	12
77.7	6
77.8	10
77.9	16
78.0	17
78.1	13
78.2	7
78.4	5
78.5	10
78.6	13
78.7	14
78.8	12
79.0	8
79.1	10
79.2	13
79.3	15
79.4	13
79.7	8
79.8	12
79.9	15
80.0	14
80.1	9
80.3	7
80.4	12
80.5	16
80.6	14
80.7	9
80.9	3
81.0	9
81.1	14
81.2	15
81.3	12
81.6	7
81.7	11
81.8	13
81.9	12
82.0	10
82.2	8
82.3	11
82.4	15
82.5	14
82.6	10
82.8	4
82.9	8
83.0	13
83.1	17
83.2	16
83.3	11
84.0	6
84.1	10
84.2	15
84.3	19
84.4	18
84.5	13
84.7	9
84.8	13
84.9	19
85.0	21
85.1	18
85.2	11
85.4	5
85.5	8
85.6	13
85.7	16
85.8	14
85.9	10
86.1	9
86.2	13
86.3	14
86.4	12
86.6	8
86.7	10
86.8	14
86.9	15
87.0	12
87.3	7
87.4	12
87.5	17
87.6	19
87.7	16
88.0	11
88.1	14
88.2	16
88.3	15
88.4	12
88.5	10
89.1	6
89.2	9
89.3	14
89.4	16
89.5	16
89.6	11
89.9	7
90.0	13
90.1	16
90.2	15
90.3	9
90.5	7
90.6	12
90.7	17
90.8	16
90.9	11
91.1	5
91.2	8
91.3	14
91.4	18
91.5	16
91.6	12
92.4	5
92.5	9
92.6	15
92.7	16
92.8	13
93.1	9
93.2	14
93.3	16
93.4	14
93.5	10
93.7	6
93.8	10
93.9	15
94.0	17
94.1	14
95.0	7
95.1	11
95.2	13
95.3	13
95.4	11
95.6	8
95.7	10
95.8	14
95.9	15
96.0	12
96.2	7
96.3	10
96.4	14
96.5	16
96.6	14
96.7	10
97.6	5
97.7	9
97.8	14
97.9	14
98.0	11
98.2	9
98.3	12
98.4	13
98.5	13
98.6	12
99.5	7
99.6	10
99.7	13
99.8	13
100.0	8
100.1	10
100.2	14
100.3	17
100.4	16
100.5	12
100.8	8
100.9	11
101.0	14
101.1	14
101.2	11
101.4	9
101.5	12
101.6	16
101.7	17
101.8	15
102.7	6
102.8	13
102.9	17
103.0	16
103.1	11
103.3	5
103.4	9
103.5	16
103.6	19
103.7	17
103.8	12
104.0	10
104.1	14
104.2	17
104.3	15
104.4	9
104.6	4
104.7	8
104.8	11
104.9	12
105.0	11
105.1	10
105.2	10
105.3	12
105.4	14
105.5	15
105.6	13
105.7	8
105.9	5
106.0	9
106.1	12
106.2	13
106.3	11
106.5	8
106.6	10
106.7	14
106.8	14
106.9	10
107.1	2
107.2	5
107.3	12
107.4	17
107.5	18
107.6	14
107.8	10
107.9	15
108.0	19
108.1	17
108.2	12
108.4	7
108.5	10
108.6	13
108.7	13
108.8	11
109.1	6
109.2	11
109.3	14
109.4	12
109.6	7
109.7	10
109.8	14
109.9	16
110.0	14
110.1	10
110.3	4
110.4	6
110.5	11
110.6	14
110.7	13
110.8	10
111.5	6
111.6	7
111.7	11
111.8	16
111.9	18
112.0	14
112.1	9
112.3	8
112.4	12
112.5	15
112.6	14
112.7	9
112.9	2
113.0	6
113.1	12
113.2	15
113.3	13
114.1	5
114.2	8
114.3	12
114.4	15
114.5	14
114.6	11
114.8	8
114.9	10
115.0	13
115.1	13
115.2	10
115.4	6
115.5	8
115.6	12
115.7	17
115.8	18
115.9	15
116.0	10
116.2	6
116.3	9
116.4	14
116.5	15
116.6	12
116.8	6
116.9	10
117.0	13
117.1	14
117.2	13
117.9	5
118.0	7
118.1	11
118.2	15
118.3	18
118.4	17
118.5	13
118.7	8
118.8	13
118.9	18
119.0	19
119.1	15
119.2	9
119.9	5
120.0	8
120.1	14
120.2	18
120.3	17
120.4	12
120.6	8
120.7	12
120.8	15
120.9	16
121.0	14
121.3	10
121.4	14
121.5	17
121.6	16
121.7	11
121.9	7
122.0	11
122.1	13
122.2	12
122.3	7
122.5	5
122.6	10
122.7	14
122.8	15
122.9	14
123.0	11
123.2	9
123.3	11
123.4	15
123.5	15
123.6	12
123.8	7
123.9	10
124.0	14
124.1	15
124.2	13
124.3	9
124.5	7
124.6	10
124.7	13
124.8	13
125.1	9
125.2	14
125.3	19
125.4	20
125.5	14
125.8	6
125.9	13
126.0	18
126.1	16
126.2	9
126.4	5
126.5	12
126.6	18
126.7	18
126.8	13
127.0	6
127.1	9
127.2	14
127.3	16
127.4	12
127.6	4
127.7	7
127.8	13
127.9	16
128.0	13
128.1	7
128.3	6
128.4	10
128.5	13
128.6	12
128.7	9
128.9	6
129.0	8
129.1	11
129.2	12
129.3	10
129.5	6
129.6	9
129.7	13
129.8	16
129.9	14
130.0	9
130.2	3
130.3	6
130.4	10
130.5	12
130.8	9
130.9	13
131.0	18
131.1	20
131.2	17
131.3	11
131.5	7
131.6	11
131.7	15
131.8	15
131.9	11
132.1	6
132.2	11
132.3	16
132.4	18
132.5	15
133.4	8
133.5	13
133.6	17
133.7	16
133.8	12
134.0	7
134.1	11
134.2	17
134.3	19
134.4	17
134.5	11
134.7	9
134.8	12
134.9	15
135.0	15
135.1	11
135.3	6
135.4	9
135.5	14
135.6	15
135.7	12
135.9	7
136.0	11
136.1	16
136.2	18
136.3	15
136.4	11
136.6	8
136.7	10
136.8	12
136.9	12
137.0	9
137.2	6
137.3	9
137.4	13
137.5	14
137.6	11
138.5	6
138.6	9
138.7	11
138.8	13
138.9	11
139.1	6
139.2	8
139.3	14
139.4	17
139.5	15
139.6	10
139.8	6
139.9	10
140.0	17
140.1	19
140.2	15
140.3	9
140.5	8
140.6	13
140.7	16
140.8	13
140.9	8
141.1	6
141.2	10
141.3	13
141.4	13
141.5	9
141.7	4
141.8	8
141.9	13
142.0	14
142.1	12
142.3	7
142.4	11
142.5	16
142.6	17
142.7	12
143.0	6
143.1	11
143.2	15
143.3	15
143.4	10
143.6	5
143.7	8
143.8	12
143.9	13
144.0	11
144.3	6
144.4	11
144.5	15
144.6	14
144.7	10
144.9	7
145.0	12
145.1	17
145.2	19
145.3	16
145.4	9
145.6	4
145.7	9
145.8	14
145.9	14
146.0	10
146.2	6
146.3	10
146.4	16
146.5	19
146.6	17
146.7	13
147.4	5
147.5	9
147.6	15
147.7	19
147.8	17
147.9	11
148.1	6
148.2	11
148.3	17
148.4	20
148.5	19
148.6	16
149.4	9
149.5	12
149.6	16
149.7	17
149.8	13
150.0	9
150.1	13
150.2	17
150.3	16
150.4	11
150.7	5
150.8	13
150.9	19
151.0	19
151.1	14
151.9	10
152.0	12
152.1	15
152.2	15
152.3	13
152.4	8
152.6	5
152.7	8
152.8	12
152.9	13
153.0	9
153.2	7
153.3	12
153.4	18
153.5	18
153.6	12
153.9	6
154.0	13
154.1	18
154.2	17
154.3	12
154.5	8
154.6	13
154.7	17
154.8	17
154.9	14
155.0	10
155.2	9
155.3	12
155.4	15
155.5	15
155.6	11
155.8	7
155.9	11
156.0	15
156.1	16
156.2	13
157.0	5
157.1	8
157.2	13
157.3	17
157.4	16
157.5	11
158.3	2
158.4	6
158.5	13
158.6	18
158.7	17
158.8	13
159.0	8
159.1	13
159.2	17
159.3	18
159.4	14
159.5	9
159.7	8
159.8	11
159.9	14
160.0	12
160.1	8
160.3	5
160.4	10
160.5	15
160.6	16
160.7	12
161.5	7
161.6	9
161.7	13
161.8	15
161.9	14
162.8	7
162.9	10
163.0	13
163.1	14
163.2	13
163.5	8
163.6	14
163.7	19
163.8	19
163.9	13
164.2	6
164.3	12
164.4	16
164.5	17
164.6	14
165.3	10
165.4	12
165.5	16
165.6	18
165.7	17
165.8	13
166.7	8
166.8	13
166.9	15
167.0	14
167.1	10
167.3	6
167.4	9
167.5	14
167.6	17
167.7	16
167.8	12
168.6	7
168.7	11
168.8	14
168.9	13
169.0	9
169.2	6
169.3	10
169.4	14
169.5	17
169.6	18
169.7	16
169.8	11
170.0	7
170.1	10
170.2	13
170.3	11
171.1	7
171.2	10
171.3	13
171.4	13
171.5	9
171.8	5
171.9	9
172.0	13
172.1	14
172.2	13
173.0	7
173.1	10
173.2	13
173.3	16
173.4	14
173.5	10
174.3	4
174.4	9
174.5	16
174.6	20
174.7	18
174.8	12
174.9	7
175.1	6
175.2	10
175.3	12
175.4	11
175.7	5
175.8	11
175.9	15
176.0	16
176.1	13
176.9	5
177.0	9
177.1	14
177.2	16
177.3	14
178.1	7
178.2	9
178.3	14
178.4	19
178.5	19
178.6	14
179.5	3
179.6	9
179.7	16
179.8	19
179.9	16
180.8	7
180.9	13
181.0	19
181.1	19
181.2	14
181.4	9
181.5	14
181.6	17
181.7	16
181.8	11
182.0	8
182.1	10
182.2	13
182.3	15
182.4	14
182.5	10
182.7	6
182.8	8
182.9	13
183.0	15
183.1	13
183.4	9
183.5	14
183.6	18
183.7	17
183.8	12
184.5	4
184.6	7
184.7	12
184.8	16
184.9	14
185.0	9
185.2	4
185.3	8
185.4	14
185.5	16
185.6	13
185.7	7
185.9	6
186.0	11
186.1	14
186.2	12
186.5	7
186.6	11
186.7	14
186.8	14
186.9	11
187.1	7
187.2	11
187.3	16
187.4	18
187.5	16
187.6	11
187.8	8
187.9	12
188.0	15
188.1	15
188.2	11
188.4	6
188.5	9
188.6	13
188.7	15
188.8	13
189.1	8
189.2	13
189.3	17
189.4	16
189.5	12
190.3	7
190.4	9
190.5	13
190.6	16
190.7	15
190.8	10
191.6	5
191.7	8
191.8	13
191.9	15
192.0	13
192.3	7
192.4	12
192.5	16
192.6	16
192.7	13
192.9	10
193.0	13
193.1	16
193.2	16
193.3	12
193.4	7
193.6	6
193.7	11
193.8	17
193.9	18
194.0	15
194.1	11
194.8	6
194.9	10
195.0	15
195.1	16
195.2	14
196.1	8
196.2	12
196.3	15
196.4	15
196.5	11
196.7	7
196.8	9
196.9	13
197.0	15
197.1	13
197.2	9
197.4	7
197.5	12
197.6	16
197.7	16
197.8	11
198.0	6
198.1	10
198.2	16
198.3	17
198.4	14
199.3	4
199.4	8
199.5	12
199.6	14
199.7	12
199.9	6
200.0	9
200.1	14
200.2	17
200.3	15
200.4	10
200.6	7
200.7	11
200.8	14
200.9	14
201.0	11
201.2	8
201.3	10
201.4	12
201.5	13
201.6	10
201.8	5
201.9	7
202.0	12
202.1	15
202.2	13
202.3	7
202.5	4
202.6	9
202.7	14
202.8	15
202.9	12
203.8	7
203.9	10
204.0	14
204.1	15
204.2	13
205.1	7
205.2	11
205.3	13
205.4	12
205.7	8
205.8	13
205.9	17
206.0	17
206.1	12
206.9	4
207.0	7
207.1	11
207.2	15
207.3	15
207.4	11
207.6	7
207.7	11
207.8	14
207.9	15
208.0	12
208.2	7
208.3	10
208.4	15
208.5	20
208.6	20
208.7	15
208.8	9
209.0	8
209.1	12
209.2	14
209.3	12
209.6	8
209.7	11
209.8	13
209.9	14
210.2	12
210.3	15
210.4	17
210.5	16
210.6	12
210.9	8
211.0	12
211.1	14
211.2	14
212.1	8
212.2	12
212.3	15
212.4	15
212.5	11
212.8	4
212.9	11
213.0	16
213.1	17
213.2	13
213.4	9
213.5	11
213.6	14
213.7	14
213.8	11
214.0	6
214.1	9
214.2	13
214.3	14
214.4	11
214.7	7
214.8	11
214.9	14
215.0	14
215.1	11
215.4	6
215.5	10
215.6	12
215.7	12
215.8	11
216.0	9
216.1	11
216.2	13
216.3	12
216.6	8
216.7	12
216.8	15
216.9	14
217.0	10
217.2	7
217.3	10
217.4	14
217.5	15
217.6	13
217.7	8
217.9	6
218.0	10
218.1	14
218.2	14
218.3	12
218.6	6
218.7	10
218.8	12
219.1	8
219.2	12
219.3	16
219.4	16
219.5	13
219.8	8
219.9	12
220.0	15
220.1	16
220.2	12
220.3	7
220.5	6
220.6	9
220.7	12
220.8	10
221.1	5
221.2	11
221.3	17
221.4	17
221.5	13
222.4	6
222.5	11
222.6	15
222.7	15
222.8	12
223.0	8
223.1	10
223.2	13
223.3	13
223.4	9
223.6	5
223.7	11
223.8	18
223.9	20
224.0	15
224.1	8
224.3	6
224.4	11
224.5	14
224.6	14
224.7	10
224.9	6
225.0	10
225.1	16
225.2	18
225.3	14
225.4	7
225.6	6
225.7	12
225.8	16
225.9	14
226.0	9
226.2	7
226.3	12
226.4	18
226.5	19
226.6	15
226.7	9
226.9	7
227.0	12
227.1	18
227.2	19
227.3	15
227.4	11
228.0	8
228.1	10
228.2	14
228.3	17
228.4	17
228.5	13
228.6	9
228.8	7
228.9	12
229.0	16
229.1	15
229.2	10
229.4	7
229.5	10
229.6	13
229.7	13
229.8	10
230.0	7
230.1	9
230.2	12
230.3	15
230.4	15
230.5	12
231.3	11
231.4	13
231.5	15
231.6	14
231.7	10
232.6	4
232.7	9
232.8	13
232.9	14
233.0	9
233.2	4
233.3	10
233.4	17
233.5	19
233.6	14
233.7	8
233.9	8
234.0	12
234.1	14
234.2	13
234.3	9
234.5	3
234.6	7
234.7	13
234.8	18
234.9	17
235.0	14
235.7	8
235.8	9
235.9	13
236.0	16
236.1	16
236.2	13
236.4	7
236.5	10
236.6	14
236.7	16
236.8	14
236.9	9
237.1	8
237.2	12
237.3	14
237.4	11
237.7	8
237.8	11
237.9	13
238.0	11
238.1	8
238.3	3
238.4	5
238.5	9
238.6	13
238.7	14
238.8	12
239.0	10
239.1	13
239.2	16
239.3	15
239.4	10
239.6	6
239.7	9
239.8	13
239.9	14
240.0	11
240.3	10
240.4	13
240.5	15
240.6	14
240.7	10
240.9	6
241.0	10
241.1	14
241.2	16
241.3	13
241.6	9
241.7	14
241.8	17
241.9	15
242.0	11
242.3	8
242.4	12
242.5	14
242.6	14
244.1	5
244.2	7
244.3	11
244.4	13
244.5	12
244.7	8
244.8	10
244.9	14
245.0	16
245.1	15
245.2	10
245.4	5
245.5	8
245.6	13
245.7	15
245.8	12
246.1	7
246.2	13
246.3	16
246.4	13
246.7	7
246.8	13
246.9	17
247.0	16
247.1	11
247.3	7
247.4	11
247.5	15
247.6	16
247.7	13
247.8	9
248.0	7
248.1	9
248.2	11
248.3	9
248.5	5
248.6	8
248.7	12
248.8	16
248.9	16
249.0	12
249.8	9
249.9	12
250.0	15
250.1	16
250.2	14
250.3	9
250.5	6
250.6	12
250.7	18
250.8	19
250.9	13
251.2	7
251.3	13
251.4	16
251.5	14
251.6	10
251.8	6
251.9	9
252.0	11
252.1	11
252.2	9
252.4	6
252.5	9
252.6	13
252.7	14
252.8	14
253.1	10
253.2	13
253.3	14
253.4	12
253.5	7
253.7	3
253.8	6
253.9	11
254.0	13
254.1	11
254.3	7
254.4	10
254.5	14
254.6	16
254.7	14
254.9	11
255.0	13
255.1	16
255.2	16
255.3	14
255.4	11
255.6	8
255.7	11
255.8	15
255.9	18
256.0	18
256.1	14
256.3	11
256.4	14
256.5	16
256.6	14
256.7	10
256.9	7
257.0	11
257.1	15
257.2	16
257.3	14
258.2	11
258.3	15
258.4	18
258.5	17
258.6	14
258.7	9
258.9	8
259.0	12
259.1	15
259.2	14
259.3	10
259.5	6
259.6	11
259.7	16
259.8	15
259.9	11
260.1	7
260.2	11
260.3	15
260.4	15
260.5	12
260.7	6
260.8	8
260.9	13
261.0	16
261.1	14
261.2	9
261.4	6
261.5	11
261.6	16
261.7	17
261.8	12
262.0	5
262.1	9
262.2	15
262.3	19
262.4	16
262.5	11
262.7	6
262.8	9
262.9	12
263.0	13
263.3	9
263.4	12
263.5	15
263.6	15
263.7	11
263.9	5
264.0	8
264.1	13
264.2	17
264.3	16
264.4	12
264.6	8
264.7	12
264.8	15
264.9	16
265.0	13
265.1	9
265.3	8
265.4	11
265.5	12
265.6	11
265.9	5
266.0	11
266.1	17
266.2	18
266.3	13
267.2	7
267.3	11
267.4	13
267.5	12
267.6	8
267.8	5
267.9	9
268.0	14
268.1	14
268.2	10
268.4	5
268.5	10
268.6	14
268.7	14
268.8	10
269.0	5
269.1	9
269.2	15
269.3	18
269.4	16
269.5	11
271.0	10
271.1	13
271.2	14
271.3	13
271.4	10
271.6	8
271.7	11
271.8	15
271.9	16
272.0	14
272.2	8
272.3	11
272.4	17
272.5	20
272.6	17
272.7	12
272.9	6
273.0	8
273.1	12
273.2	14
273.3	13
273.5	11
273.6	13
273.7	16
273.8	18
273.9	17
274.0	13
274.2	8
274.3	11
274.4	15
274.5	16
274.6	11
274.8	3
274.9	6
275.0	13
275.1	17
275.2	16
275.3	10
275.5	5
275.6	9
275.7	13
275.8	13
275.9	11
276.1	7
276.2	10
276.3	13
276.4	14
276.5	11
277.4	5
277.5	10
277.6	16
277.7	18
277.8	13
278.0	6
278.1	10
278.2	16
278.3	18
278.4	14
278.5	7
278.7	2
278.8	7
278.9	13
279.0	14
279.1	12
279.3	8
279.4	11
279.5	14
279.6	14
279.7	10
279.9	6
280.0	10
280.1	14
280.2	14
280.3	10
280.5	3
280.6	6
280.7	12
280.8	15
280.9	14
281.0	10
281.2	9
281.3	11
281.4	13
281.5	13
281.8	9
281.9	12
282.0	15
282.1	16
282.2	13
282.3	9
282.5	5
282.6	9
282.7	13
282.8	14
282.9	12
283.2	7
283.3	11
283.4	15
283.5	15
283.6	11
284.3	2
284.4	5
284.5	13
284.6	17
284.7	16
284.8	11
285.0	9
285.1	14
285.2	18
285.3	17
285.4	14
285.6	9
285.7	12
285.8	16
285.9	18
286.0	16
286.1	12
287.0	8
287.1	11
287.2	15
287.3	15
287.4	12
287.7	8
287.8	12
287.9	16
288.0	16
288.1	13
288.3	8
288.4	11
288.5	15
288.6	17
288.7	15
288.8	11
289.0	10
289.1	12
289.2	14
289.3	13
290.1	12
290.2	13
290.3	15
290.4	15
290.5	14
290.6	11
290.8	5
290.9	8
291.0	13
291.1	16
291.2	14
291.3	10
291.5	8
291.6	12
291.7	15
291.8	14
291.9	10
292.1	7
292.2	11
292.3	16
292.4	18
292.5	14
292.6	8
292.8	4
292.9	9
293.0	15
293.1	17
293.2	15
294.0	7
294.1	11
294.2	15
294.3	15
294.4	10
294.6	5
294.7	8
294.8	13
294.9	15
295.0	12
295.1	6
295.3	4
295.4	10
295.5	16
295.6	18
295.7	14
296.0	8
296.1	13
296.2	15
296.3	14
296.4	10
296.6	9
296.7	11
296.8	13
296.9	12
297.0	11
297.2	8
297.3	11
297.4	15
297.5	17
297.6	14
297.7	9
297.9	6
298.0	10
298.1	13
298.2	13
298.3	9
298.5	6
298.6	11
298.7	16
298.8	16
298.9	11
299.2	6
299.3	12
299.4	16
299.5	14
299.6	9
299.8	5
299.9	10
300.0	15
300.1	15
300.2	9
300.4	1
300.5	6
300.6	13
300.7	17
300.8	16
301.1	12
301.2	15
301.3	17
301.4	16
301.5	12
301.8	8
301.9	12
302.0	15
302.1	14
302.4	10
302.5	14
302.6	18
302.7	16
302.8	10
303.0	3
303.1	8
303.2	14
303.3	17
303.4	15
303.7	11
303.8	15
303.9	17
304.0	15
304.1	10
304.3	8
304.4	12
304.5	17
304.6	17
304.7	14
304.9	10
305.0	13
305.1	15
305.2	14
305.3	11
305.5	8
305.6	11
305.7	15
305.8	17
305.9	14
306.0	9
306.2	6
306.3	11
306.4	16
306.5	16
306.6	12
307.4	7
307.5	10
307.6	13
307.7	14
307.8	13
307.9	10
308.1	8
308.2	10
308.3	11
308.4	11
308.7	9
308.8	11
308.9	14
309.0	15
309.1	12
309.9	11
310.0	13
310.1	15
310.2	15
310.3	12
310.4	8
310.6	5
310.7	8
310.8	13
310.9	15
311.0	13
311.1	8
311.3	6
311.4	11
311.5	16
311.6	16
311.7	12
311.9	6
312.0	10
312.1	13
312.2	14
312.3	10
312.5	4
312.6	6
312.7	12
312.8	16
312.9	18
313.0	16
313.8	5
313.9	8
314.0	12
314.1	16
314.2	16
314.3	12
315.1	6
315.2	9
315.3	14
315.4	17
315.5	14
315.8	8
315.9	13
316.0	15
316.1	13
316.2	9
316.4	7
316.5	10
316.6	13
316.7	14
316.8	12
317.0	6
317.1	8
317.2	14
317.3	17
317.4	17
317.5	12
317.7	7
317.8	10
317.9	15
318.0	17
318.1	15
318.2	10
318.4	9
318.5	13
318.6	16
318.7	15
319.0	10
319.1	15
319.2	19
319.3	18
319.4	13
319.6	7
319.7	11
319.8	17
319.9	19
320.0	14
320.3	8
320.4	15
320.5	18
320.6	16
320.7	10
320.9	6
321.0	10
321.1	14
321.2	15
321.3	13
321.4	8
321.6	7
321.7	10
321.8	12
321.9	11
322.0	7
322.2	4
322.3	8
322.4	12
322.5	13
322.8	9
322.9	13
323.0	17
323.1	17
323.2	13
323.3	8
323.5	7
323.6	11
323.7	14
323.8	12
324.0	6
324.1	10
324.2	16
324.3	19
324.4	17
324.5	12
325.4	5
325.5	10
325.6	15
325.7	16
325.8	12
326.1	8
326.2	11
326.3	13
326.4	11
326.6	6
326.7	9
326.8	13
326.9	16
327.0	16
327.1	12
327.4	7
327.5	11
327.6	14
327.7	13
328.6	5
328.7	10
328.8	14
328.9	15
329.0	13
330.5	5
330.6	9
330.7	13
330.8	15
330.9	13
331.0	8
331.2	6
331.3	9
331.4	11
331.5	11
331.8	6
331.9	10
332.0	16
332.1	18
332.2	17
332.3	13
332.5	9
332.6	12
332.7	15
332.8	14
332.9	10
333.1	9
333.2	12
333.3	15
333.4	14
333.5	11
333.7	9
333.8	12
333.9	16
334.0	16
334.1	12
334.3	7
334.4	11
334.5	17
334.6	20
334.7	17
334.8	13
335.0	10
335.1	13
335.2	16
335.3	14
335.4	10
335.6	8
335.7	12
335.8	17
335.9	18
336.0	14
336.1	8
336.3	7
336.4	12
336.5	16
336.6	16
336.7	12
337.5	9
337.6	14
337.7	17
337.8	16
337.9	10
338.1	5
338.2	9
338.3	15
338.4	17
338.5	16
338.6	11
338.7	6
338.9	4
339.0	9
339.1	12
339.2	11
339.4	5
339.5	8
339.6	14
339.7	17
339.8	16
339.9	10
340.1	5
340.2	9
340.3	13
340.4	14
340.5	11
340.8	7
340.9	13
341.0	16
341.1	16
341.2	12
342.0	4
342.1	8
342.2	14
342.3	16
342.4	14
342.5	10
342.7	9
342.8	12
342.9	14
343.0	13
343.1	11
343.3	10
343.4	11
343.5	12
343.6	11
343.9	8
344.0	12
344.1	16
344.2	17
344.3	15
344.4	10
344.6	9
344.7	12
344.8	14
344.9	13
345.0	10
345.2	9
345.3	11
345.4	13
345.5	13
345.6	11
345.9	6
346.0	12
346.1	16
346.2	16
346.3	12
346.6	8
346.7	12
346.8	15
346.9	14
347.2	10
347.3	13
347.4	15
347.5	14
347.8	9
347.9	13
348.0	15
348.1	14
348.2	10
348.4	8
348.5	11
348.6	14
348.7	14
348.8	12
348.9	9
349.1	7
349.2	10
349.3	14
349.4	14
349.5	12
350.3	6
350.4	9
350.5	14
350.6	16
350.7	15
351.0	11
351.1	14
351.2	17
351.3	16
351.4	13
351.6	9
351.7	13
351.8	17
351.9	17
352.0	13
352.3	9
352.4	12
352.5	15
352.6	14
352.9	10
353.0	13
353.1	16
353.2	16
353.3	14
353.4	10
353.6	7
353.7	10
353.8	13
353.9	13
354.0	9
354.2	7
354.3	12
354.4	16
354.5	17
354.6	12
354.8	4
354.9	9
355.0	15
355.1	18
355.2	14
355.4	6
355.5	10
355.6	15
355.7	17
355.8	14
355.9	9
356.1	6
356.2	9
356.3	13
356.4	14
356.5	12
356.8	7
356.9	11
357.0	14
357.1	14
357.2	11
358.0	6
358.1	8
358.2	12
358.3	14
358.4	13
358.5	9
358.7	6
358.8	10
358.9	13
359.0	13
359.1	10
359.3	7
359.4	11
359.5	14
359.6	13
359.7	10
359.9	7
360.0	10
360.1	14
360.2	14
360.3	12
360.4	8
360.6	5
360.7	7
360.8	11
360.9	13
361.0	11
361.3	8
361.4	12
361.5	15
361.6	14
361.7	10
361.9	8
362.0	11
362.1	13
362.2	12
362.3	8
362.5	6
362.6	10
362.7	14
362.8	14
362.9	11
363.7	8
363.8	9
363.9	13
364.0	16
364.1	16
364.2	12
364.4	7
364.5	10
364.6	14
364.7	16
364.8	14
365.1	10
365.2	13
365.3	15
365.4	14
365.7	10
365.8	15
365.9	19
366.0	17
366.1	13
366.3	8
366.4	12
366.5	17
366.6	19
366.7	17
366.8	11
367.0	7
367.1	12
367.2	17
367.3	19
367.4	15
367.7	10
367.8	15
367.9	17
368.0	15
368.1	10
368.3	8
368.4	12
368.5	14
368.6	13
369.5	5
369.6	9
369.7	13
369.8	14
369.9	12
370.7	10
370.8	13
370.9	16
371.0	17
371.1	15
371.2	10
371.4	5
371.5	8
371.6	12
371.7	14
371.8	14
372.1	10
372.2	12
372.3	15
372.4	15
372.5	13
373.3	8
373.4	10
373.5	14
373.6	16
373.7	16
373.8	13
374.7	8
374.8	12
374.9	15
375.0	15
375.1	12
375.9	8
376.0	12
376.1	16
376.2	16
376.3	11
376.5	3
376.6	7
376.7	13
376.8	16
376.9	14
377.0	9
377.2	5
377.3	8
377.4	12
377.5	14
377.6	12
377.9	7
378.0	12
378.1	17
378.2	18
378.3	15
378.4	10
378.6	6
378.7	9
378.8	12
378.9	11
379.1	6
379.2	8
379.3	13
379.4	16
379.5	16
379.6	12
379.8	9
379.9	12
380.0	15
380.1	16
380.2	14
380.5	9
380.6	13
380.7	14
380.8	13
381.0	10
381.1	11
381.2	14
381.3	16
381.4	15
381.5	12
381.7	10
381.8	13
381.9	17
382.0	18
382.1	15
383.0	8
383.1	14
383.2	17
383.3	15
383.4	8
383.6	1
383.7	5
383.8	11
383.9	15
384.0	14
384.1	11
384.3	8
384.4	10
384.5	12
384.6	11
384.9	8
385.0	11
385.1	14
385.2	13
385.3	10
385.5	6
385.6	9
385.7	13
385.8	15
385.9	14
386.2	9
386.3	14
386.4	18
386.5	18
386.6	13
386.9	8
387.0	13
387.1	16
387.2	15
387.3	11
388.1	8
388.2	10
388.3	12
388.4	11
388.5	7
388.7	5
388.8	7
388.9	9
389.0	11
389.1	11
389.2	9
389.3	9
389.4	11
389.5	14
389.6	17
389.7	17
389.8	13
389.9	9
390.7	5
390.8	10
390.9	15
391.0	16
391.1	12
391.3	9
391.4	14
391.5	17
391.6	17
391.7	13
392.0	8
392.1	14
392.2	18
392.3	16
392.4	10
392.6	8
392.7	12
392.8	15
392.9	13
393.0	8
393.2	4
393.3	8
393.4	12
393.5	12
393.8	8
393.9	12
394.0	16
394.1	18
394.2	15
394.3	11
395.1	8
395.2	10
395.3	14
395.4	18
395.5	17
395.6	13
395.8	8
395.9	13
396.0	16
396.1	16
396.2	12
396.4	9
396.5	14
396.6	18
396.7	19
396.8	15
397.1	10
397.2	14
397.3	17
397.4	16
397.5	13
397.7	11
397.8	12
397.9	15
398.0	16
398.1	14
398.2	11
398.4	10
398.5	12
398.6	15
398.7	15
398.8	11
399.1	7
399.2	11
399.3	14
399.4	12
399.6	7
399.7	10
399.8	15
399.9	17
400.0	14
400.1	8
400.3	7
400.4	11
400.5	14
400.6	14
400.7	11
400.9	7
401.0	10
401.1	14
401.2	16
401.3	14
401.6	10
401.7	14
401.8	16
401.9	15
402.0	10
402.2	6
402.3	11
402.4	16
402.5	16
402.6	11
403.5	9
403.6	11
403.7	13
403.8	13
403.9	11
404.1	9
404.2	11
404.3	13
404.4	12
404.5	10
404.7	9
404.8	11
404.9	13
405.0	15
405.1	13
405.2	10
406.0	6
406.1	11
406.2	17
406.3	19
406.4	15
406.5	9
406.7	7
406.8	12
406.9	15
407.0	15
407.1	11
408.0	7
408.1	10
408.2	12
408.3	12
408.4	8
408.6	5
408.7	9
408.8	14
408.9	16
409.0	14
409.1	11
409.3	9
409.4	13
409.5	15
409.6	14
409.7	10
409.9	7
410.0	10
410.1	14
410.2	14
410.3	12
410.5	8
410.6	11
410.7	14
410.8	14
410.9	12
411.2	11
411.3	14
411.4	16
411.5	16
411.6	13
411.8	8
411.9	11
412.0	15
412.1	17
412.2	14
412.3	8
412.5	6
412.6	10
412.7	13
412.8	13
413.1	10
413.2	15
413.3	17
413.4	16
413.5	12
413.7	9
413.8	13
413.9	17
414.0	17
414.1	13
414.3	8
414.4	11
414.5	15
414.6	16
414.7	14
414.8	10
415.0	8
415.1	12
415.2	16
415.3	15
415.4	11
415.7	7
415.8	10
415.9	13
416.0	12
416.8	7
416.9	9
417.0	14
417.1	19
417.2	19
417.3	14
418.2	5
418.3	10
418.4	13
418.5	13
418.6	9
418.8	6
418.9	12
419.0	17
419.1	18
419.2	14
419.3	9
419.5	8
419.6	11
419.7	14
419.8	14
419.9	11
420.1	7
420.2	9
420.3	13
420.4	15
420.5	13
420.8	8
420.9	12
421.0	15
421.1	13
421.4	10
421.5	13
421.6	15
421.7	14
421.8	11
422.1	9
422.2	12
422.3	15
422.4	14
422.5	10
422.7	7
422.8	12
422.9	17
423.0	18
423.1	13
423.2	8
423.4	7
423.5	10
423.6	11
423.7	9
423.9	4
424.0	6
424.1	12
424.2	17
424.3	16
424.4	10
424.6	5
424.7	11
424.8	18
424.9	19
425.0	15
425.1	8
425.3	7
425.4	11
425.5	15
425.6	15
425.7	12
425.9	7
426.0	11
426.1	14
426.2	14
426.3	10
426.5	5
426.6	8
426.7	12
426.8	14
426.9	13
427.2	9
427.3	14
427.4	17
427.5	17
427.6	12
427.8	9
427.9	13
428.0	16
428.1	16
428.2	11
428.4	7
428.5	11
428.6	17
428.7	20
428.8	18
428.9	13
429.1	9
429.2	13
429.3	17
429.4	16
429.5	11
429.7	6
429.8	10
429.9	15
430.0	16
430.1	13
430.4	8
430.5	12
430.6	15
430.7	15
430.8	12
431.6	9
431.7	11
431.8	12
431.9	10
432.0	6
432.2	3
432.3	7
432.4	12
432.5	16
432.6	18
432.7	16
432.9	11
433.0	13
433.1	17
433.2	19
433.3	17
433.4	11
433.6	6
433.7	10
433.8	13
433.9	13
434.2	8
434.3	12
434.4	15
434.5	14
434.6	10
434.8	8
434.9	10
435.0	12
435.1	12
435.2	8
435.4	5
435.5	9
435.6	14
435.7	16
435.8	14
435.9	9
436.1	6
436.2	10
436.3	14
436.4	16
436.5	14
436.6	10
436.8	6
436.9	9
437.0	13
437.1	14
437.2	12
438.1	7
438.2	12
438.3	16
438.4	15
438.5	11
438.7	7
438.8	10
438.9	14
439.0	15
439.1	12
439.2	8
439.9	7
440.0	10
440.1	14
440.2	14
440.3	12
440.4	8
440.6	6
440.7	10
440.8	13
440.9	14
441.0	12
441.3	7
441.4	11
441.5	14
441.6	14
441.7	10
442.4	5
442.5	7
442.6	12
442.7	18
442.8	20
442.9	17
443.0	11
443.2	10
443.3	15
443.4	18
443.5	16
443.6	11
443.8	9
443.9	13
444.0	16
444.1	16
444.4	12
444.5	15
444.6	17
444.7	16
444.8	12
445.0	8
445.1	10
445.2	13
445.3	16
445.4	15
445.5	11
445.7	6
445.8	9
445.9	12
446.0	13
446.1	9
446.3	5
446.4	8
446.5	13
446.6	17
446.7	15
446.8	11
447.0	8
447.1	10
447.2	13
447.3	13
447.4	12
447.7	10
447.8	13
447.9	15
448.0	14
448.1	11
448.3	10
448.4	12
448.5	14
448.6	13
448.7	11
449.5	4
449.6	7
449.7	12
449.8	16
449.9	14
450.0	10
450.2	8
450.3	11
450.4	14
450.5	13
450.6	9
450.8	6
450.9	9
451.0	13
451.1	12
451.2	8
451.4	3
451.5	7
451.6	13
451.7	16
451.8	14
451.9	8
452.1	3
452.2	7
452.3	13
452.4	16
452.5	14
453.4	4
453.5	9
453.6	14
453.7	14
453.8	12
454.7	7
454.8	12
454.9	16
455.0	17
455.1	14
455.4	10
455.5	12
455.6	14
455.7	14
456.6	7
456.7	11
456.8	16
456.9	16
457.0	13
457.2	5
457.3	9
457.4	15
457.5	18
457.6	15
457.7	8
457.9	6
458.0	13
458.1	18
458.2	19
458.3	15
459.1	6
459.2	9
459.3	14
459.4	18
459.5	18
459.6	13
459.8	7
459.9	11
460.0	15
460.1	17
460.2	15
460.3	12
460.4	9
460.9	7
461.0	8
461.1	11
461.2	14
461.3	16
461.4	15
461.5	11
461.7	8
461.8	11
461.9	13
462.0	13
462.1	11
463.0	7
463.1	12
463.2	16
463.3	15
463.4	11
463.6	6
463.7	9
463.8	14
463.9	17
464.0	15
464.1	11
464.8	5
464.9	8
465.0	13
465.1	16
465.2	15
465.3	9
465.5	1
465.6	6
465.7	12
465.8	16
465.9	15
466.0	10
466.2	4
466.3	7
466.4	12
466.5	14
466.6	12
467.5	5
467.6	10
467.7	13
467.8	12
468.1	6
468.2	13
468.3	17
468.4	16
468.5	12
469.4	9
469.5	13
469.6	16
469.7	15
469.8	11
470.7	7
470.8	12
470.9	15
471.0	15
471.1	11
471.3	7
471.4	10
471.5	13
471.6	13
471.7	11
472.6	9
472.7	11
472.8	13
472.9	13
473.0	10
473.2	6
473.3	10
473.4	14
473.5	16
473.6	12
473.9	9
474.0	14
474.1	18
474.2	19
474.3	16
475.1	9
475.2	12
475.3	13
475.4	11
475.7	9
475.8	12
475.9	15
476.0	18
476.1	17
476.2	13
477.1	5
477.2	10
477.3	13
477.4	14
477.5	13
478.3	6
478.4	9
478.5	12
478.6	13
478.9	5
479.0	14
479.1	26
479.2	32
479.3	27
479.4	15
479.6	5
479.7	11
479.8	16
479.9	16
480.0	12
480.3	7
480.4	12
480.5	16
480.6	15
480.7	10
480.9	5
481.0	8
481.1	12
481.2	14
481.3	12
481.6	6
481.7	13
481.8	16
481.9	14
482.0	8
482.2	6
482.3	12
482.4	18
482.5	18
482.6	14
482.7	7
482.9	5
483.0	11
483.1	16
483.2	15
483.3	11
483.5	8
483.6	11
483.7	14
483.8	13
483.9	10
484.1	6
484.2	10
484.3	15
484.4	17
484.5	14
484.6	10
485.3	9
485.4	12
485.5	14
485.6	14
485.7	12
485.8	9
486.0	5
486.1	8
486.2	12
486.3	14
486.4	12
486.6	6
486.7	8
486.8	14
486.9	18
487.0	16
487.1	11
487.3	5
487.4	9
487.5	13
487.6	13
487.7	10
487.9	7
488.0	10
488.1	14
488.2	16
488.3	14
488.6	8
488.7	13
488.8	17
488.9	15
489.0	10
489.2	4
489.3	7
489.4	12
489.5	16
489.6	15
489.7	12
489.9	11
490.0	13
490.1	14
490.2	12
490.4	8
490.5	11
490.6	15
490.7	19
490.8	19
490.9	14
491.2	9
491.3	14
491.4	18
491.5	16
491.6	10
491.8	4
491.9	7
492.0	12
492.1	14
492.2	11
492.4	7
492.5	10
492.6	13
492.7	13
492.8	9
492.9	5
493.1	3
493.2	7
493.3	12
493.4	13
493.7	10
493.8	12
493.9	14
494.0	13
494.1	10
494.3	7
494.4	9
494.5	13
494.6	15
494.7	13
494.8	9
495.0	5
495.1	8
495.2	13
495.3	15
495.4	13
495.7	8
495.8	12
495.9	15
496.0	14
496.1	10
496.3	7
496.4	11
496.5	13
496.6	12
496.9	6
497.0	12
497.1	18
497.2	19
497.3	16
497.4	10
497.6	6
497.7	9
497.8	12
497.9	12
498.0	9
498.2	6
498.3	10
498.4	14
498.5	14
498.6	10
498.8	5
498.9	8
499.0	13
499.1	16
499.2	14
499.3	8
499.5	5
499.6	11
499.7	16
499.8	17
499.9	12
500.1	8
500.2	11
500.3	14
500.4	14
500.5	11
500.7	7
500.8	9
500.9	14
501.0	17
501.1	15
501.2	9
501.4	4
501.5	10
501.6	16
501.7	18
501.8	14
501.9	9
502.1	8
502.2	11
502.3	13
502.4	12
502.7	9
502.8	13
502.9	15
503.0	13
503.1	8
503.3	5
503.4	10
503.5	15
503.6	17
503.7	15
503.8	11
504.0	8
504.1	10
504.2	13
504.3	13
504.4	9
504.6	6
504.7	11
504.8	16
504.9	18
505.0	16
505.9	9
506.0	11
506.1	14
506.2	14
506.3	13
507.1	9
507.2	12
507.3	17
507.4	20
507.5	17
507.6	10
507.8	8
507.9	13
508.0	18
508.1	18
508.2	14
508.3	9
508.5	6
508.6	10
508.7	13
508.8	12
508.9	9
509.1	8
509.2	11
509.3	13
509.4	12
509.5	9
509.7	7
509.8	9
509.9	12
510.0	14
510.1	14
510.4	11
510.5	14
510.6	17
510.7	15
510.8	10
511.0	8
511.1	11
511.2	14
511.3	15
511.4	12
511.6	7
511.7	9
511.8	14
511.9	16
512.0	14
512.9	5
513.0	9
513.1	14
513.2	16
513.3	13
514.2	6
514.3	12
514.4	16
514.5	17
514.6	13
514.7	9
514.9	8
515.0	10
515.1	13
515.2	15
515.3	13
516.1	9
516.2	13
516.3	15
516.4	15
516.5	12
517.3	7
517.4	11
517.5	16
517.6	17
517.7	13
517.8	8
518.0	7
518.1	11
518.2	13
518.3	13
518.4	10
518.6	7
518.7	9
518.8	14
518.9	18
519.0	19
519.1	15
519.2	12
519.9	8
520.0	11
520.1	13
520.2	15
520.3	14
520.4	11
520.6	8
520.7	11
520.8	16
520.9	18
521.0	17
521.1	14
521.3	11
521.4	13
521.5	15
521.6	14
521.7	10
521.9	9
522.0	12
522.1	15
522.2	15
522.3	11
523.1	8
523.2	10
523.3	13
523.4	14
523.5	13
523.6	10
523.8	8
523.9	11
524.0	14
524.1	14
524.2	10
524.4	4
524.5	7
524.6	12
524.7	14
524.8	12
525.1	8
525.2	12
525.3	15
525.4	14
525.7	9
525.8	13
525.9	16
526.0	14
526.1	9
526.3	5
526.4	10
526.5	16
526.6	18
526.7	13
527.0	5
527.1	12
527.2	17
527.3	16
527.4	12
528.3	8
528.4	10
528.5	13
528.6	13
528.7	11
528.9	9
529.0	12
529.1	13
529.2	10
529.5	7
529.6	11
529.7	14
529.8	14
529.9	11
530.2	5
530.3	11
530.4	15
530.5	14
530.6	9
530.8	4
530.9	8
531.0	13
531.1	16
531.2	14
531.3	11
531.5	8
531.6	11
531.7	14
531.8	13
531.9	9
532.1	5
532.2	9
532.3	15
532.4	17
532.5	14
533.4	8
533.5	13
533.6	16
533.7	14
533.8	10
534.0	6
534.1	11
534.2	16
534.3	17
534.4	13
534.7	7
534.8	12
534.9	14
535.0	14
535.1	10
535.3	8
535.4	12
535.5	15
535.6	16
535.7	14
536.0	10
536.1	13
536.2	15
536.3	13
536.5	10
536.6	12
536.7	16
536.8	19
536.9	20
537.0	16
537.9	9
538.0	15
538.1	18
538.2	16
538.3	12
538.5	8
538.6	10
538.7	13
538.8	14
538.9	12
539.2	9
539.3	14
539.4	17
539.5	15
539.6	9
539.8	3
539.9	7
540.0	13
540.1	14
540.2	11
540.4	5
540.5	9
540.6	15
540.7	18
540.8	16
540.9	11
541.7	7
541.8	9
541.9	12
542.0	13
542.1	13
542.2	12
542.3	12
542.4	13
542.5	13
542.6	13
542.7	11
542.9	8
543.0	10
543.1	14
543.2	17
543.3	16
543.4	12
543.7	7
543.8	11
543.9	15
544.0	15
544.3	11
544.4	15
544.5	17
544.6	15
544.7	8
544.9	2
545.0	7
545.1	12
545.2	14
545.3	12
545.6	9
545.7	13
545.8	17
545.9	15
546.0	11
546.2	6
546.3	10
546.4	15
546.5	16
546.6	14
546.7	11
546.9	9
547.0	13
547.1	16
547.2	14
547.3	9
547.5	7
547.6	11
547.7	14
547.8	12
547.9	8
548.1	4
548.2	8
548.3	13
548.4	16
548.5	13
548.7	7
548.8	10
548.9	15
549.0	18
549.1	15
549.2	9
549.4	8
549.5	13
549.6	15
549.7	13
549.8	7
550.0	0
550.1	4
550.2	10
550.3	14
550.4	14
551.3	8
551.4	11
551.5	15
551.6	16
551.7	14
552.0	10
552.1	14
552.2	18
552.3	17
552.4	13
552.6	11
552.7	16
552.8	18
552.9	16
553.0	12
553.2	8
553.3	10
553.4	14
553.5	16
553.6	14
553.7	10
553.9	7
554.0	12
554.1	17
554.2	18
554.3	14
554.4	7
554.6	6
554.7	11
554.8	15
554.9	13
555.0	8
555.2	6
555.3	11
555.4	15
555.5	14
555.6	11
555.8	7
555.9	10
556.0	13
556.1	13
556.4	9
556.5	12
556.6	15
556.7	15
556.8	12
557.1	6
557.2	11
557.3	15
557.4	16
557.5	12
557.7	5
557.8	8
557.9	14
558.0	17
558.1	14
558.2	8
558.4	6
558.5	11
558.6	13
558.7	11
559.0	7
559.1	11
559.2	15
559.3	14
559.4	10
559.6	7
559.7	10
559.8	14
559.9	15
560.0	10
560.3	6
560.4	12
560.5	15
560.6	15
560.7	10
561.5	5
561.6	7
561.7	12
561.8	16
561.9	16
562.0	12
562.2	6
562.3	10
562.4	15
562.5	17
562.6	13
562.7	7
562.9	6
563.0	11
563.1	14
563.2	11
563.5	8
563.6	13
563.7	16
563.8	15
563.9	10
564.1	8
564.2	12
564.3	15
564.4	16
564.5	12
564.7	7
564.8	10
564.9	14
565.0	16
565.1	14
565.4	10
565.5	13
565.6	15
565.7	15
565.8	12
566.0	7
566.1	10
566.2	15
566.3	17
566.4	14
566.5	10
566.7	9
566.8	12
566.9	14
567.0	14
567.1	11
567.3	10
567.4	12
567.5	14
567.6	13
567.7	11
567.9	8
568.0	11
568.1	16
568.2	20
568.3	19
568.4	13
569.2	4
569.3	8
569.4	14
569.5	17
569.6	14
569.7	8
569.9	7
570.0	12
570.1	15
570.2	15
570.3	10
570.5	7
570.6	12
570.7	15
570.8	14
570.9	9
571.1	3
571.2	6
571.3	11
571.4	15
571.5	16
571.6	13
572.5	6
572.6	10
572.7	12
572.8	11
573.7	5
573.8	10
573.9	16
574.0	18
574.1	13
575.0	4
575.1	11
575.2	16
575.3	16
575.4	11
575.6	6
575.7	11
575.8	15
575.9	15
576.0	10
576.2	6
576.3	10
576.4	15
576.5	18
576.6	17
576.7	13
576.8	9
577.0	6
577.1	9
577.2	11
577.3	11
577.6	9
577.7	12
577.8	16
577.9	15
578.0	11
578.2	5
578.3	8
578.4	13
578.5	15
578.6	13
578.9	9
579.0	13
579.1	15
579.2	15
579.3	11
579.5	7
579.6	10
579.7	15
579.8	17
579.9	14
580.7	5
580.8	9
580.9	14
581.0	17
581.1	15
581.2	11
581.4	8
581.5	11
581.6	14
581.7	15
581.8	12
581.9	8
582.1	6
582.2	11
582.3	15
582.4	16
582.5	14
583.3	7
583.4	12
583.5	17
583.6	19
583.7	15
584.5	5
584.6	9
584.7	15
584.8	19
584.9	18
585.0	13
585.2	6
585.3	9
585.4	14
585.5	15
585.6	12
585.7	6
585.9	4
586.0	10
586.1	16
586.2	16
586.3	13
586.5	7
586.6	10
586.7	15
586.8	18
586.9	14
587.2	6
587.3	16
587.4	22
587.5	19
587.6	11
587.8	5
587.9	9
588.0	14
588.1	14
588.2	11
588.5	7
588.6	11
588.7	13
588.8	12
589.7	6
589.8	9
589.9	13
590.0	14
590.1	11
590.4	8
590.5	11
590.6	13
590.7	12
590.8	10
591.1	6
591.2	9
591.3	12
591.4	14
591.5	12
591.6	11
591.7	12
591.8	14
591.9	15
592.0	12
592.3	6
592.4	12
592.5	17
592.6	18
592.7	15
593.5	6
593.6	9
593.7	14
593.8	17
593.9	16
594.0	13
594.2	10
594.3	12
594.4	16
594.5	17
594.6	15
594.7	11
594.9	8
595.0	11
595.1	14
595.2	13
595.3	10
595.5	7
595.6	10
595.7	13
595.8	14
595.9	11
596.1	8
596.2	11
596.3	15
596.4	14
596.5	9
596.7	3
596.8	8
596.9	15
597.0	18
597.1	14
597.4	8
597.5	14
597.6	17
597.7	15
597.8	11
598.0	10
598.1	13
598.2	17
598.3	17
598.4	15
598.7	11
598.8	14
598.9	17
599.0	15
599.2	12
599.3	15
599.4	17
599.5	17
599.6	14
