Mass spectrum: Lysergol; LC-ESI-QQQ; MS2; Frag=135.0V CID@10.0; [M+H]+
Name: Lysergol
Class: Alkaloids
Formula: C16H18N2O
Exact mass: 254.3347
SMILES: CN1C[C@H](CO)C=C2c3cccc4[nH]cc(c34)C[C@H]21
InChI: InChI=1S/C16H18N2O/c1-18-8-10(9-19)5-13-12-3-2-4-14-16(12)11(7-17-14)6-15(13)18/h2-5,7,10,15,17,19H,6,8-9H2,1H3/t10-,15-/m1/s1
Instrument: Agilent 6410 Triple Quadrupole LC/MS system
Instrument type: LC-ESI-QQQ
Ms type: MS2
Ion mode: POSITIVE
Precursor type: [M+H]+
m/z	relative intensity
239.7	1
239.8	3
239.9	5
240.0	6
240.1	7
240.2	7
240.3	6
240.4	5
240.5	3
254.3	1
254.4	3
254.5	7
254.6	12
254.7	21
254.8	37
254.9	60
255.0	82
255.1	96
255.2	99
255.3	91
255.4	74
255.5	49
255.6	23
255.7	4
