Mass spectrum: Stepharine; LC-ESI-QQQ; MS2; Frag=135.0V CID@10.0; [M+H]+
Name: Stepharine
Class: Alkaloids
Formula: C18H19NO3
Exact mass: 297.357
SMILES: COc1cc2c3c(c1OC)C1(C=CC(=O)C=C1)CC3NCC2
InChI: InChI=1S/C18H19NO3/c1-21-14-9-11-5-8-19-13-10-18(6-3-12(20)4-7-18)16(15(11)13)17(14)22-2/h3-4,6-7,9,13,19H,5,8,10H2,1-2H3
Instrument: Agilent 6410 Triple Quadrupole LC/MS system
Instrument type: LC-ESI-QQQ
Ms type: MS2
Ion mode: POSITIVE
Precursor type: [M+H]+
m/z	relative intensity
160.8	3
160.9	4
161.0	6
161.1	7
161.2	7
161.3	6
161.4	4
161.5	2
191.4	2
191.5	3
191.6	5
191.7	9
191.8	16
191.9	22
192.0	28
192.1	31
192.2	32
192.3	29
192.4	24
192.5	15
192.6	6
192.7	0
268.7	1
268.8	3
268.9	5
269.0	6
269.1	7
269.2	7
269.3	7
269.4	5
269.5	3
297.3	0
297.4	2
297.5	6
297.6	11
297.7	21
297.8	38
297.9	60
298.0	81
298.1	95
298.2	99
298.3	94
298.4	80
298.5	56
298.6	29
298.7	6
298.8	0
