Mass spectrum: Hinokitiol; LC-ESI-QQQ; MS2; Frag=135.0V CID@15.0; [M+H]+
Name: beta-Thujaplicin
Name: beta.-Thujaplicine
Name: 2-Hydroxy-4-isopropyl-2,4,6-cycloheptatrien-1-one
Name: 4-Isopropyltropolon
Name: Hinokitiol
Class: Terpenoids
Formula: C10H12O2
Exact mass: 164.2059
SMILES: CC(C)c1cccc(O)c(=O)c1
InChI: InChI=1S/C10H12O2/c1-7(2)8-4-3-5-9(11)10(12)6-8/h3-7H,1-2H3,(H,11,12)
Instrument: Agilent 6410 Triple Quadrupole LC/MS system
Instrument type: LC-ESI-QQQ
Ms type: MS2
Ion mode: POSITIVE
Precursor type: [M+H]+
m/z	relative intensity
54.6	2
54.7	3
54.8	5
54.9	7
55.0	9
55.1	10
55.2	9
55.3	8
55.4	6
55.5	3
90.6	2
90.7	3
90.8	5
90.9	8
91.0	9
91.1	9
91.2	8
91.3	7
91.4	4
91.5	2
118.7	2
118.8	3
118.9	5
119.0	6
119.1	7
119.2	6
119.3	5
119.4	4
119.5	2
122.5	2
122.6	4
122.7	7
122.8	11
122.9	15
123.0	17
123.1	17
123.2	16
123.3	13
123.4	9
123.5	4
123.6	1
149.6	2
149.7	4
149.8	8
149.9	11
150.0	14
150.1	15
150.2	15
150.3	12
150.4	8
150.5	4
164.3	1
164.4	3
164.5	7
164.6	14
164.7	27
164.8	47
164.9	71
165.0	90
165.1	99
165.2	98
165.3	88
165.4	69
165.5	42
165.6	15
165.7	0
