Mass spectrum: O-Acetylsolasodine; LC-ESI-QQQ; MS2; Frag=135.0V CID@25.0 ; [M+H]+
Name: O-Acetylsolasodine
Class: Alkaloids
Formula: C29H45NO3
Exact mass: 455.68690000000004
SMILES: CC(=O)OC1CC[C@@]2(C)C(=CCC3C4CC5O[C@]6(CCC(C)CN6)C(C)C5[C@@]4(C)CCC32)C1
InChI: InChI=1S/C29H45NO3/c1-17-8-13-29(30-16-17)18(2)26-25(33-29)15-24-22-7-6-20-14-21(32-19(3)31)9-11-27(20,4)23(22)10-12-28(24,26)5/h6,17-18,21-26,30H,7-16H2,1-5H3/t17?,18?,21?,22?,23?,24?,25?,26?,27-,28-,29+/m0/s1
Instrument: Agilent 6410 Triple Quadrupole LC/MS system
Instrument type: LC-ESI-QQQ
Ms type: MS2
Ion mode: POSITIVE
Precursor type: [M+H]+
m/z	relative intensity
156.7	2
156.8	4
156.9	5
157.0	7
157.1	7
157.2	6
157.3	5
157.4	4
157.5	2
252.7	1
252.8	3
252.9	5
253.0	8
253.1	11
253.2	12
253.3	12
253.4	10
253.5	7
253.6	3
253.7	1
437.7	1
437.8	2
437.9	4
438.0	6
438.1	9
438.2	12
438.3	14
438.4	14
438.5	11
438.6	7
438.7	3
455.4	1
455.5	3
455.6	5
455.7	10
455.8	18
455.9	32
456.0	51
456.1	72
456.2	89
456.3	99
456.4	99
456.5	88
456.6	66
456.7	38
456.8	14
456.9	0
