Mass spectrum: Monensin A, Na salt; LC-ESI-QQQ; MS2;  Frag=135.0V CID@15.0 ; [M+Na]+
Name: Monensin A, Na salt
Class: Polyketides
Formula: C36H61NaO11
Exact mass: 692.87077
SMILES: CC[C@@]1([C@@H]2O[C@@H]([C@H]3O[C@@](O)(CO)[C@H](C)C[C@@H]3C)C[C@@H]2C)CCC([C@]2(C)CC[C@]3(C[C@H](O)[C@@H](C)[C@@H]([C@@H](C)[C@@H](OC)[C@@H](C)C(=O)[O-])O3)O2)O1.[Na+]
InChI: InChI=1S/C36H62O11.Na/c1-10-34(31-20(3)16-26(43-31)28-19(2)15-21(4)36(41,18-37)46-28)12-11-27(44-34)33(8)13-14-35(47-33)17-25(38)22(5)30(45-35)23(6)29(42-9)24(7)32(39)40;/h19-31,37-38,41H,10-18H2,1-9H3,(H,39,40);/q;+1/p-1/t19-,20-,21+,22+,23-,24+,25-,26+,27?,28-,29+,30-,31+,33-,34-,35+,36-;/m0./s1
Instrument: Agilent 6410 Triple Quadrupole LC/MS system
Instrument type: LC-ESI-QQQ
Ms type: MS2
Ion mode: POSITIVE
Precursor type: [M+Na]+
m/z	relative intensity
692.2	0
692.3	2
692.4	4
692.5	7
692.6	10
692.7	14
692.8	24
692.9	39
693.0	57
693.1	73
693.2	85
693.3	93
693.4	99
693.5	99
693.6	89
693.7	66
693.8	36
693.9	11
694.0	0
