Mass spectrum: Acetyldiphyllin; LC-ESI-QQQ; MS2; Frag=135.0V CID@25.0; [M+H]+
Name: Acetyldiphyllin
Class: Lignans
Formula: C23H18O8
Exact mass: 422.3951
SMILES: COc1cc2c(OC(C)=O)c3c(c(-c4ccc5c(c4)OCO5)c2cc1OC)C(=O)OC3
InChI: InChI=1S/C23H18O8/c1-11(24)31-22-14-8-18(27-3)17(26-2)7-13(14)20(21-15(22)9-28-23(21)25)12-4-5-16-19(6-12)30-10-29-16/h4-8H,9-10H2,1-3H3
Instrument: Agilent 6410 Triple Quadrupole LC/MS system
Instrument type: LC-ESI-QQQ
Ms type: MS2
Ion mode: POSITIVE
Precursor type: [M+H]+
m/z	relative intensity
276.7	2
276.8	3
276.9	4
277.0	5
277.1	6
277.2	5
277.3	5
277.4	3
304.5	1
304.6	3
304.7	7
304.8	12
304.9	17
305.0	22
305.1	24
305.2	23
305.3	19
305.4	12
305.5	5
305.6	1
306.8	2
306.9	4
307.0	5
307.1	6
307.2	6
307.3	5
307.4	4
307.5	1
318.7	3
318.8	4
318.9	6
319.0	8
319.1	9
319.2	9
319.3	7
319.4	4
319.5	2
332.3	1
332.4	3
332.5	7
332.6	12
332.7	19
332.8	29
332.9	42
333.0	54
333.1	61
333.2	59
333.3	49
333.4	32
333.5	14
333.6	2
334.6	1
334.7	2
334.8	4
334.9	6
335.0	8
335.1	9
335.2	9
335.3	7
335.4	5
335.5	2
336.5	1
336.6	2
336.7	6
336.8	11
336.9	16
337.0	21
337.1	23
337.2	22
337.3	18
337.4	12
337.5	5
337.6	1
350.5	1
350.6	3
350.7	4
350.8	8
350.9	12
351.0	16
351.1	19
351.2	18
351.3	14
351.4	8
351.5	3
362.3	1
362.4	2
362.5	5
362.6	8
362.7	14
362.8	24
362.9	36
363.0	47
363.1	52
363.2	50
363.3	42
363.4	28
363.5	12
363.6	2
380.2	0
380.3	2
380.4	6
380.5	10
380.6	18
380.7	30
380.8	48
380.9	69
381.0	88
381.1	99
381.2	99
381.3	85
381.4	60
381.5	31
381.6	8
381.7	0
