Mass spectrum: Glycocitridine; LC-ESI-QQQ; MS2; Frag=135.0V CID@25.0; [M+H]+
Name: Glycocitridine
Class: Alkaloids
Formula: C13H13NO5
Exact mass: 263.2523
SMILES: COc1ccc2c(OC)c(C=O)c(O)nc2c1OC
InChI: InChI=1S/C13H13NO5/c1-17-9-5-4-7-10(12(9)19-3)14-13(16)8(6-15)11(7)18-2/h4-6H,1-3H3,(H,14,16)
Instrument: Agilent 6410 Triple Quadrupole LC/MS system
Instrument type: LC-ESI-QQQ
Ms type: MS2
Ion mode: POSITIVE
Precursor type: [M+H]+
m/z	relative intensity
163.4	2
163.5	4
163.6	6
163.7	10
163.8	14
163.9	18
164.0	20
164.1	21
164.2	21
164.3	17
164.4	11
164.5	5
164.6	1
173.6	3
173.7	4
173.8	6
173.9	8
174.0	10
174.1	12
174.2	12
174.3	11
174.4	8
174.7	4
174.8	7
174.9	9
175.0	10
175.1	11
175.2	11
175.3	9
175.4	7
175.5	3
201.4	1
201.5	3
201.6	4
201.7	5
201.8	8
201.9	12
202.0	15
202.1	17
202.2	16
202.3	13
202.4	9
202.5	5
203.7	3
203.8	4
203.9	6
204.0	7
204.1	7
204.2	5
204.3	3
205.4	2
205.5	3
205.6	5
205.7	8
205.8	12
205.9	15
206.0	16
206.1	16
206.2	15
206.3	13
206.4	8
206.5	2
217.5	2
217.6	3
217.7	5
217.8	8
217.9	11
218.0	13
218.1	13
218.2	12
218.3	10
218.4	6
218.5	3
219.2	3
219.3	4
219.4	6
219.5	9
219.6	14
219.7	23
219.8	37
219.9	51
220.0	61
220.1	65
220.2	60
220.3	46
220.4	27
220.5	9
220.6	0
231.5	3
231.6	4
231.7	7
231.8	10
231.9	14
232.0	15
232.1	14
232.2	12
232.3	8
232.4	4
232.5	1
233.1	0
233.2	2
233.3	4
233.4	8
233.5	15
233.6	25
233.7	42
233.8	64
233.9	84
234.0	96
234.1	99
234.2	95
234.3	78
234.4	49
234.5	19
234.6	0
247.6	2
247.7	3
247.8	6
247.9	11
248.0	15
248.1	17
248.2	16
248.3	12
248.4	8
248.7	5
248.8	8
248.9	10
249.0	11
249.1	11
249.2	10
249.3	9
249.4	7
249.5	3
261.6	2
261.7	3
261.8	4
261.9	7
262.0	10
262.1	12
262.2	12
262.3	9
262.4	5
262.5	1
263.4	1
263.5	2
263.6	3
263.7	5
263.8	7
263.9	9
264.0	10
264.1	11
264.2	10
264.3	8
264.4	6
264.5	3
