Mass spectrum: Cyclogaleginoside A.; LC-ESI-QQQ; MS2; Frag=135.0V CID@10.0; [M+H]+
Name: Cyclogaleginoside A.
Class: Terpenoids
Formula: C37H60O10
Exact mass: 664.8848
SMILES: CC(=O)O[C@H]1[C@H](OC2CC[C@]34C[C@]35CC[C@]3(C)C([C@@]6(C)CC[C@@H](C(C)(C)O)O6)[C@@H](O)C[C@@]3(C)C5C[C@H](O)C4C2(C)C)OC[C@@H](O)[C@@H]1O
InChI: InChI=1S/C37H60O10/c1-19(38)45-27-26(42)22(41)17-44-30(27)46-24-10-12-37-18-36(37)14-13-33(6)29(35(8)11-9-25(47-35)32(4,5)43)21(40)16-34(33,7)23(36)15-20(39)28(37)31(24,2)3/h20-30,39-43H,9-18H2,1-8H3/t20-,21-,22+,23?,24?,25-,26-,27+,28?,29?,30-,33+,34-,35+,36-,37+/m0/s1
Instrument: Agilent 6410 Triple Quadrupole LC/MS system
Instrument type: LC-ESI-QQQ
Ms type: MS2
Ion mode: POSITIVE
Precursor type: [M+H]+
m/z	relative intensity
142.4	3
142.5	3
142.6	9
142.7	25
142.8	50
142.9	72
143.0	77
143.1	66
143.2	53
143.3	45
143.4	38
143.5	24
143.6	8
143.7	0
156.5	1
156.6	4
156.7	10
156.8	16
156.9	21
157.0	24
157.1	23
157.2	19
157.3	13
157.4	7
157.5	2
174.0	0
174.1	2
174.2	5
174.3	8
174.4	9
174.5	10
174.6	15
174.7	31
174.8	56
174.9	80
175.0	93
175.1	99
175.2	99
175.3	91
175.4	64
175.5	29
175.6	2
418.9	1
419.0	3
419.1	5
419.2	6
419.3	5
419.4	4
436.8	4
436.9	5
437.0	9
437.1	14
437.2	19
437.3	20
437.4	18
437.5	13
437.6	7
437.7	2
454.7	1
454.8	2
454.9	5
455.0	7
455.1	9
455.2	9
455.3	9
455.4	9
455.5	7
455.6	4
473.1	1
473.2	3
473.3	5
473.4	5
473.5	3
