Mass spectrum: Monocrotaline; LC-ESI-QQQ; MS2; Frag=135.0V CID@5.0 ; [M+H]+
Name: Monocrotaline
Class: Alkaloids
Formula: C16H23NO6
Exact mass: 325.36481000000003
SMILES: C[C@H]1C(=O)O[C@@H]2CCN3CC=C(COC(=O)C(C)(O)C1(C)O)C23
InChI: InChI=1S/C16H23NO6/c1-9-13(18)23-11-5-7-17-6-4-10(12(11)17)8-22-14(19)16(3,21)15(9,2)20/h4,9,11-12,20-21H,5-8H2,1-3H3/t9-,11+,12?,15?,16?/m0/s1
Instrument: Agilent 6410 Triple Quadrupole LC/MS system
Instrument type: LC-ESI-QQQ
Ms type: MS2
Ion mode: POSITIVE
Precursor type: [M+H]+
m/z	relative intensity
325.3	0
325.4	1
325.5	4
325.6	9
325.7	16
325.8	29
325.9	47
326.0	69
326.1	88
326.2	99
326.3	99
326.4	84
326.5	57
326.6	26
326.7	4
