Mass spectrum: Hupehemonoside; LC-ESI-QQQ; MS2;  Frag=135.0V CID@25.0 ; [M+HCOO]-
Name: Hupehemonoside
Class: Alkaloids
Formula: C33H53NO8
Exact mass: 591.79226
SMILES: CC1CC[C@@H]2N(C1)CC1C(CC[C@H]3[C@@H]4CC(=O)[C@H]5CC(O[C@@H]6O[C@H](CO)[C@@H](O)[C@H](O)[C@H]6O)CC[C@]5(C)[C@H]4C[C@@H]13)[C@]2(C)O
InChI: InChI=1S/C33H53NO8/c1-16-4-7-27-33(3,40)22-6-5-18-19(21(22)14-34(27)13-16)11-23-20(18)12-25(36)24-10-17(8-9-32(23,24)2)41-31-30(39)29(38)28(37)26(15-35)42-31/h16-24,26-31,35,37-40H,4-15H2,1-3H3/t16?,17?,18-,19-,20+,21?,22?,23+,24-,26-,27+,28-,29+,30-,31-,32-,33+/m1/s1
Instrument: Agilent 6410 Triple Quadrupole LC/MS system
Instrument type: LC-ESI-QQQ
Ms type: MS2
Ion mode: NEGATIVE
Precursor type: [M+HCOO]-
m/z	relative intensity
51.0	9
51.1	10
51.2	11
51.3	11
51.4	10
51.5	10
51.6	13
51.7	16
51.8	16
51.9	13
52.7	12
52.8	13
52.9	15
53.0	16
53.1	14
53.2	11
53.4	10
53.5	13
53.6	15
53.7	14
53.8	12
53.9	10
54.1	9
54.2	10
54.3	11
54.4	11
55.2	8
55.3	9
55.4	10
55.5	12
55.6	13
55.7	13
55.8	13
55.9	14
56.0	16
56.1	16
56.2	15
56.3	14
57.4	9
57.5	10
57.6	11
57.7	13
57.8	15
57.9	16
58.0	16
58.1	14
58.2	9
58.4	3
58.5	6
58.6	11
58.7	14
58.8	14
58.9	12
59.2	9
59.3	11
59.4	13
59.5	15
59.6	15
59.7	13
59.8	10
60.0	10
60.1	11
60.2	11
60.3	11
60.4	12
60.5	13
60.6	13
60.7	14
60.8	12
61.0	8
61.1	10
61.2	16
61.3	21
61.4	23
61.5	20
61.6	14
61.9	10
62.0	13
62.1	14
62.2	13
62.3	14
62.4	16
62.5	18
62.6	18
62.7	15
62.8	12
63.1	10
63.2	12
63.3	15
63.4	17
63.5	17
64.3	9
64.4	11
64.5	11
64.6	10
64.7	11
64.8	14
64.9	16
65.0	16
65.1	15
65.4	11
65.5	14
65.6	17
65.7	17
65.8	14
65.9	10
66.2	6
66.3	9
66.4	12
66.5	14
66.6	14
66.9	11
67.0	13
67.1	14
67.2	13
67.3	11
67.6	11
67.7	12
67.8	14
67.9	15
68.0	14
68.1	10
68.4	7
68.5	9
68.6	11
68.7	11
68.8	11
68.9	10
69.0	10
69.1	11
69.2	13
69.3	16
69.4	17
69.5	14
69.6	9
70.1	10
70.2	10
70.3	12
70.4	15
70.5	16
70.6	15
71.3	7
71.4	9
71.5	9
71.6	9
71.7	10
71.8	14
71.9	17
72.0	16
72.1	13
72.2	10
74.3	7
74.4	9
74.5	12
74.6	16
74.7	15
75.7	8
75.8	10
75.9	12
76.0	14
76.1	15
76.2	16
76.3	15
76.4	14
76.5	12
76.8	11
76.9	12
77.0	14
77.1	14
77.2	13
77.3	10
77.8	10
77.9	11
78.0	12
78.1	13
78.2	13
78.3	12
78.6	10
78.7	11
78.8	12
78.9	12
79.0	11
79.1	10
79.2	9
80.0	5
80.1	7
80.2	10
80.3	12
80.4	11
80.5	9
80.9	8
81.0	8
81.1	10
81.2	13
81.3	15
81.4	15
81.5	12
81.6	9
82.4	7
82.5	8
82.6	11
82.7	13
82.8	14
82.9	15
83.0	14
83.1	14
83.2	13
83.3	11
84.0	6
84.1	9
84.2	13
84.3	16
84.4	15
84.5	11
84.6	7
84.9	7
85.0	8
85.1	9
85.2	11
85.3	11
85.4	9
85.6	5
85.7	8
85.8	12
85.9	16
86.0	18
86.1	16
86.2	13
86.3	9
86.5	6
86.6	8
86.7	10
86.8	11
86.9	11
87.0	12
87.1	12
87.2	11
87.3	11
87.4	10
87.5	10
87.6	12
87.7	13
87.8	12
87.9	8
88.1	4
88.2	7
88.3	11
88.4	13
88.5	12
88.8	10
88.9	13
89.0	15
89.1	15
89.2	14
89.3	14
89.4	13
89.5	10
89.8	7
89.9	11
90.0	16
90.1	17
90.2	14
90.3	11
91.0	7
91.1	9
91.2	11
91.3	12
91.6	10
91.7	12
91.8	14
91.9	15
92.0	13
92.2	10
92.3	12
92.4	15
92.5	17
92.6	18
92.7	18
92.8	16
92.9	14
93.2	9
93.3	13
93.4	16
93.5	17
94.3	7
94.4	11
94.5	15
94.6	17
94.7	17
94.8	16
94.9	13
95.8	10
95.9	12
96.0	14
96.1	14
96.4	12
96.5	14
96.6	16
96.7	17
96.8	15
97.1	13
97.2	14
97.3	15
97.4	15
97.5	15
97.6	13
97.8	11
97.9	12
98.0	15
98.1	17
98.2	17
98.3	14
98.4	12
98.5	10
98.7	5
98.8	7
98.9	12
99.0	18
99.1	19
99.2	16
99.5	14
99.6	15
99.7	16
99.8	16
99.9	15
100.0	13
101.0	9
101.1	11
101.2	13
101.3	14
101.4	12
101.5	10
101.6	9
101.8	7
101.9	8
102.0	11
102.1	16
102.2	19
102.3	19
102.4	17
103.6	8
103.7	9
103.8	11
103.9	13
104.0	14
104.1	13
104.2	12
105.1	4
105.2	6
105.3	10
105.4	13
105.5	14
105.6	15
105.7	14
105.8	13
106.8	10
106.9	11
107.0	14
107.1	19
107.2	21
107.3	20
107.4	17
107.5	14
107.6	14
107.7	14
108.0	13
108.1	15
108.2	16
108.3	16
108.4	13
108.6	12
108.7	14
108.8	17
108.9	19
109.0	20
109.1	20
109.2	18
109.3	13
109.6	9
109.7	12
109.8	14
109.9	14
110.0	12
110.3	11
110.4	13
110.5	14
110.6	14
110.7	14
110.8	13
111.7	8
111.8	11
111.9	20
112.0	31
112.1	34
112.2	24
112.3	13
112.5	9
112.6	12
112.7	13
112.8	14
112.9	16
113.0	16
113.1	15
113.2	14
113.3	12
113.5	10
113.6	12
113.7	14
113.8	15
113.9	12
114.0	7
114.2	6
114.3	9
114.4	10
114.5	9
114.6	8
114.7	11
114.8	15
114.9	18
115.0	16
115.1	12
115.3	6
115.4	9
115.5	14
115.6	16
115.7	14
115.8	11
116.1	9
116.2	10
116.3	13
116.4	17
116.5	20
116.6	21
116.7	20
116.8	18
116.9	16
117.0	15
117.1	15
117.2	15
117.3	14
117.4	10
117.7	7
117.8	11
117.9	17
118.0	23
118.1	23
118.2	16
118.4	12
118.5	18
118.6	20
118.7	16
118.8	10
119.0	9
119.1	11
119.2	11
119.3	12
119.4	14
119.5	14
119.6	13
119.7	10
120.1	11
120.2	10
120.3	11
120.4	13
120.5	16
120.6	15
120.7	11
121.0	8
121.1	11
121.2	12
121.3	11
122.0	10
122.1	12
122.2	14
122.3	15
122.4	14
122.5	11
122.7	11
122.8	12
122.9	13
123.0	14
123.1	13
123.2	12
123.4	10
123.5	12
123.6	14
123.7	14
124.0	12
124.1	14
124.2	16
124.3	18
124.4	18
124.5	17
124.6	16
124.7	15
124.8	14
125.1	11
125.2	15
125.3	18
125.4	17
125.5	13
125.6	8
125.8	7
125.9	9
126.0	12
126.1	13
126.2	12
126.5	10
126.6	12
126.7	14
126.8	16
126.9	18
127.0	19
127.1	17
127.2	14
127.3	11
127.5	9
127.6	11
127.7	14
127.8	16
127.9	16
128.0	15
129.2	9
129.3	9
129.4	11
129.5	14
129.6	14
129.7	13
129.8	13
129.9	14
130.0	13
130.1	11
130.5	9
130.6	10
130.7	10
130.8	12
130.9	13
131.0	12
131.1	11
131.2	9
132.6	7
132.7	8
132.8	9
132.9	11
133.0	11
133.1	10
133.7	8
133.8	10
133.9	13
134.0	15
134.1	14
134.2	11
134.9	10
135.0	10
135.1	11
135.2	11
135.3	11
135.4	9
135.7	6
135.8	9
135.9	12
136.0	12
136.1	11
136.2	9
137.0	7
137.1	9
137.2	10
137.3	9
137.4	8
137.5	11
137.6	14
137.7	17
137.8	16
137.9	14
138.0	11
138.2	9
138.3	12
138.4	15
138.5	17
138.6	16
138.7	13
138.9	10
139.0	12
139.1	15
139.2	16
139.3	16
139.4	14
139.7	11
139.8	14
139.9	18
140.0	19
140.1	16
141.8	9
141.9	10
142.0	12
142.1	13
142.2	13
142.3	12
142.4	10
142.5	7
142.7	6
142.8	8
142.9	11
143.0	12
143.1	11
143.2	10
143.5	9
143.6	10
143.7	12
143.8	13
143.9	12
144.0	10
144.3	9
144.4	10
144.5	11
144.6	11
144.7	11
144.8	11
144.9	10
145.0	9
145.3	8
145.4	9
145.5	11
145.6	11
145.7	10
145.8	9
145.9	10
146.0	12
146.1	11
146.2	9
146.3	5
146.5	1
146.6	3
146.7	7
146.8	12
146.9	14
147.0	15
147.1	15
147.2	15
147.3	13
147.4	10
147.6	8
147.7	10
147.8	12
147.9	13
148.0	13
148.1	12
148.2	11
148.3	10
148.4	10
148.7	7
148.8	9
148.9	13
149.0	15
149.1	15
149.2	13
149.3	9
149.5	6
149.6	8
149.7	11
149.8	14
149.9	15
150.0	14
150.1	12
151.1	9
151.2	10
151.3	13
151.4	14
151.5	13
151.6	11
151.9	8
152.0	9
152.1	11
152.2	12
152.3	13
152.4	14
152.5	13
152.6	13
153.0	11
153.1	12
153.2	14
153.3	15
153.4	15
153.5	13
153.8	12
153.9	13
154.0	14
154.1	13
154.4	11
154.5	14
154.6	16
154.7	16
154.8	15
154.9	17
155.0	18
155.1	16
155.2	13
155.3	10
155.5	10
155.6	11
155.7	14
155.8	16
155.9	16
156.0	13
156.7	12
156.8	13
156.9	15
157.0	17
157.1	19
157.2	19
157.3	17
157.4	13
157.6	12
157.7	15
157.8	18
157.9	19
158.0	17
158.1	14
158.2	13
158.3	12
159.1	7
159.2	10
159.3	12
159.4	12
159.5	11
160.9	10
161.0	11
161.1	13
161.2	15
161.3	15
161.4	14
161.7	11
161.8	13
161.9	13
162.0	13
162.1	11
162.3	10
162.4	11
162.5	13
162.6	14
162.7	11
162.8	8
163.0	7
163.1	9
163.2	10
163.3	10
163.4	10
163.5	11
163.6	11
163.7	10
163.8	10
163.9	10
164.0	12
164.1	14
164.2	15
164.3	14
164.4	11
165.0	9
165.1	12
165.2	15
165.3	15
165.4	13
165.6	10
165.7	12
165.8	14
165.9	14
166.0	13
166.1	10
166.2	8
166.4	7
166.5	9
166.6	11
166.7	11
166.8	10
166.9	9
167.0	10
167.1	13
167.2	14
167.3	14
167.4	12
167.8	11
167.9	12
168.0	15
168.1	17
168.2	18
168.3	17
168.4	15
168.5	15
168.6	15
168.9	13
169.0	15
169.1	17
169.2	17
169.3	16
169.4	14
169.5	13
169.6	12
170.0	11
170.1	14
170.2	15
170.3	15
170.4	15
170.5	16
170.6	18
170.7	18
170.8	18
170.9	17
171.0	18
171.1	20
171.2	20
171.3	17
171.4	12
171.7	9
171.8	12
171.9	15
172.0	16
172.1	16
172.2	15
172.3	15
172.4	15
172.5	14
172.6	12
173.3	10
173.4	12
173.5	14
173.6	14
173.7	14
173.8	13
173.9	12
174.0	11
174.1	10
174.4	7
174.5	10
174.6	15
174.7	20
174.8	21
174.9	18
175.0	14
175.3	13
175.4	13
175.5	14
175.6	15
175.7	14
176.0	9
176.1	14
176.2	17
176.3	16
176.4	13
177.9	4
178.0	7
178.1	11
178.2	14
178.3	13
178.4	10
178.6	8
178.7	12
178.8	15
178.9	15
179.0	12
179.6	7
179.7	10
179.8	15
179.9	17
180.0	15
181.4	12
181.5	13
181.6	14
181.7	14
181.8	12
181.9	11
182.8	8
182.9	10
183.0	12
183.1	12
183.2	8
183.5	6
183.6	7
183.7	9
183.8	11
183.9	14
184.0	15
184.1	15
184.2	15
184.3	14
184.4	12
184.6	10
184.7	12
184.8	14
184.9	14
185.2	11
185.3	13
185.4	16
185.5	16
185.6	15
185.7	13
185.8	11
186.1	11
186.2	11
186.3	11
186.4	12
186.5	15
186.6	17
186.7	17
186.8	15
186.9	12
187.7	9
187.8	10
187.9	11
188.0	10
188.1	9
188.2	10
188.3	12
188.4	16
188.5	17
188.6	16
188.7	11
189.0	7
189.1	11
189.2	14
189.3	13
189.4	11
189.6	9
189.7	11
189.8	12
189.9	11
190.0	10
190.1	11
190.2	13
190.3	14
190.4	15
190.5	15
190.6	13
190.7	10
192.0	7
192.1	10
192.2	15
192.3	18
192.4	15
192.5	11
193.2	6
193.3	7
193.4	11
193.5	15
193.6	15
193.7	11
193.8	7
194.0	7
194.1	9
194.2	10
194.3	10
194.4	10
194.5	12
194.6	14
194.7	14
194.8	13
194.9	12
195.0	10
195.2	9
195.3	10
195.4	13
195.5	13
195.6	12
195.7	10
196.0	9
196.1	10
196.2	11
196.3	13
196.4	14
196.5	12
196.6	9
196.8	5
196.9	8
197.0	11
197.1	12
197.2	10
197.3	5
197.6	3
197.7	6
197.8	10
197.9	13
198.0	15
198.1	16
198.2	15
198.3	14
198.4	12
198.5	10
198.6	8
198.9	7
199.0	8
199.1	10
199.2	12
199.3	14
199.4	14
199.5	13
199.6	11
199.9	9
200.0	12
200.1	16
200.2	18
200.3	15
200.5	12
200.6	15
200.7	18
200.8	17
200.9	12
201.1	5
201.2	8
201.3	14
201.4	17
201.5	16
202.3	11
202.4	15
202.5	19
202.6	19
202.7	16
202.8	12
203.0	11
203.1	14
203.2	16
203.3	16
203.4	15
203.5	12
203.6	9
203.9	8
204.0	9
204.1	11
204.2	13
204.3	14
204.4	14
204.5	13
205.5	8
205.6	10
205.7	14
205.8	18
205.9	19
206.0	17
206.1	13
206.4	10
206.5	12
206.6	12
206.7	13
206.8	14
206.9	15
207.0	14
207.1	11
207.2	9
207.4	8
207.5	10
207.6	12
207.7	13
207.8	12
207.9	9
208.1	6
208.2	7
208.3	10
208.4	13
208.5	15
208.6	16
208.7	14
208.8	11
209.0	10
209.1	11
209.2	13
209.3	14
209.4	14
209.5	13
209.6	12
209.7	12
209.8	11
211.3	6
211.4	10
211.5	16
211.6	18
211.7	15
211.8	10
212.0	9
212.1	12
212.2	13
212.3	12
212.4	11
212.5	12
212.6	13
212.7	12
212.8	11
212.9	9
213.1	8
213.2	10
213.3	12
213.4	11
213.7	9
213.8	11
213.9	12
214.0	11
214.1	10
214.2	8
214.5	6
214.6	7
214.7	10
214.8	10
215.1	9
215.2	12
215.3	14
215.4	13
215.7	11
215.8	13
215.9	15
216.0	14
216.3	12
216.4	14
216.5	15
216.6	15
216.7	12
217.0	9
217.1	12
217.2	17
217.3	21
217.4	21
217.5	16
217.6	9
217.8	6
217.9	10
218.0	13
218.1	12
218.2	11
218.3	10
218.4	10
218.5	10
218.8	9
218.9	10
219.0	11
219.1	11
219.2	13
219.3	15
219.4	16
219.5	15
219.6	14
219.7	14
219.8	13
219.9	11
220.1	7
220.2	9
220.3	13
220.4	16
220.5	16
220.6	13
221.5	11
221.6	12
221.7	13
221.8	14
221.9	15
222.0	14
222.1	11
223.1	7
223.2	8
223.3	11
223.4	13
223.5	13
223.6	12
224.5	10
224.6	12
224.7	13
224.8	13
225.1	8
225.2	12
225.3	16
225.4	16
225.5	15
225.6	13
226.6	7
226.7	9
226.8	12
226.9	16
227.0	16
227.1	13
227.2	8
227.4	6
227.5	9
227.6	9
227.7	9
227.8	9
227.9	11
228.0	14
228.1	16
228.2	16
228.3	14
228.4	11
229.1	10
229.2	11
229.3	13
229.4	14
229.5	14
229.8	11
229.9	13
230.0	13
230.1	12
230.6	13
230.7	13
230.8	13
230.9	14
231.0	17
231.1	18
231.2	18
231.3	18
231.4	18
231.5	18
231.6	14
231.8	10
231.9	13
232.0	17
232.1	19
232.2	18
232.3	14
232.6	11
232.7	14
232.8	15
232.9	14
233.0	14
233.1	16
233.2	19
233.3	20
233.4	17
233.5	13
233.8	11
233.9	12
234.0	12
234.1	12
234.2	13
234.3	13
234.4	14
234.5	14
234.6	14
234.7	13
235.7	9
235.8	12
235.9	13
236.0	12
236.2	10
236.3	11
236.4	15
236.5	17
236.6	16
236.7	14
236.8	13
237.6	9
237.7	10
237.8	13
237.9	13
238.0	12
238.3	11
238.4	13
238.5	15
238.6	15
238.7	14
238.8	10
239.0	9
239.1	11
239.2	12
239.3	11
239.4	11
239.5	12
239.6	13
239.7	12
240.0	9
240.1	11
240.2	12
240.3	14
240.4	15
240.5	13
240.6	11
240.9	9
241.0	11
241.1	12
241.2	12
242.6	10
242.7	11
242.8	12
242.9	13
243.0	13
243.1	12
243.4	11
243.5	12
243.6	13
243.7	14
243.8	15
243.9	15
244.0	15
244.1	14
244.2	10
245.0	8
245.1	10
245.2	12
245.3	12
245.4	12
245.5	11
245.6	10
245.7	9
245.9	7
246.0	8
246.1	12
246.2	15
246.3	15
246.4	12
246.6	10
246.7	13
246.8	17
246.9	19
247.0	20
247.1	19
247.2	19
248.2	11
248.3	15
248.4	19
248.5	20
248.6	17
248.7	13
248.8	9
249.0	7
249.1	9
249.2	12
249.3	14
249.4	15
249.5	15
249.6	14
249.7	14
249.8	15
249.9	17
250.0	17
250.1	14
250.2	11
250.5	11
250.6	12
250.7	13
250.8	14
250.9	15
251.0	13
251.1	12
251.7	10
251.8	11
251.9	12
252.0	12
252.3	9
252.4	10
252.5	12
252.6	16
252.7	19
252.8	19
252.9	16
254.4	8
254.5	11
254.6	12
254.7	12
254.8	9
255.4	6
255.5	9
255.6	13
255.7	16
255.8	16
255.9	12
256.0	7
256.2	7
256.3	10
256.4	13
256.5	15
256.6	15
256.7	15
256.8	14
256.9	13
257.0	12
257.5	11
257.6	12
257.7	14
257.8	14
258.1	12
258.2	14
258.3	17
258.4	16
258.5	12
258.6	8
258.9	5
259.0	8
259.1	10
259.2	11
259.3	13
259.4	13
259.5	11
259.7	6
259.8	9
259.9	12
260.0	14
260.1	12
260.2	8
260.4	7
260.5	9
260.6	11
260.7	12
260.8	13
261.1	10
261.2	13
261.3	16
261.4	15
261.5	11
261.8	10
261.9	12
262.0	13
262.1	13
262.2	14
262.3	13
262.6	10
262.7	13
262.8	16
262.9	17
263.0	15
263.1	12
264.5	6
264.6	9
264.7	12
264.8	14
264.9	14
265.0	12
265.1	9
265.2	8
265.5	7
265.6	8
265.7	10
265.8	11
265.9	12
266.0	12
266.8	10
266.9	11
267.0	12
267.1	11
267.2	9
267.6	9
267.7	10
267.8	10
267.9	11
268.0	11
268.1	12
268.2	13
268.3	13
268.4	12
268.5	10
270.0	7
270.1	9
270.2	11
270.3	12
270.4	12
270.5	11
270.6	9
270.9	7
271.0	8
271.1	10
271.2	10
271.3	10
271.4	10
271.5	11
271.6	11
271.9	9
272.0	11
272.1	12
272.2	12
272.3	11
272.4	10
272.6	8
272.7	10
272.8	12
272.9	12
273.0	11
274.4	7
274.5	8
274.6	11
274.7	15
274.8	15
274.9	13
275.0	10
275.1	8
275.4	7
275.5	8
275.6	12
275.7	14
275.8	12
275.9	9
276.4	8
276.5	10
276.6	11
276.7	12
276.8	12
276.9	11
277.4	10
277.5	11
277.6	12
277.7	12
277.8	11
277.9	11
278.0	12
278.1	16
278.2	18
278.3	17
278.4	13
278.7	10
278.8	12
278.9	13
279.0	13
279.1	11
279.2	10
279.5	8
279.6	10
279.7	14
279.8	18
279.9	20
280.0	20
280.1	17
280.2	12
280.5	9
280.6	12
280.7	15
280.8	16
280.9	15
281.0	12
281.2	10
281.3	12
281.4	13
281.5	11
281.6	8
281.8	6
281.9	9
282.0	11
282.1	13
282.2	13
282.3	13
282.4	13
282.5	11
282.6	9
282.8	7
282.9	8
283.0	11
283.1	14
283.2	16
283.3	15
283.4	12
283.5	9
283.7	9
283.8	10
283.9	12
284.0	14
284.1	16
284.2	16
284.3	15
284.4	17
284.5	19
284.6	19
284.7	14
284.8	8
285.0	5
285.1	8
285.2	10
285.3	11
285.4	12
285.5	11
286.3	9
286.4	10
286.5	10
286.6	10
286.7	11
286.8	12
286.9	13
287.0	12
287.1	9
287.4	7
287.5	9
287.6	10
287.7	10
287.8	11
287.9	12
288.0	14
288.1	15
288.2	14
288.5	11
288.6	13
288.7	14
288.8	14
288.9	13
289.6	11
289.7	13
289.8	14
289.9	14
290.0	14
290.1	14
290.2	12
290.5	10
290.6	13
290.7	15
290.8	15
290.9	13
291.0	12
291.1	11
291.4	10
291.5	11
291.6	12
291.7	12
291.8	12
291.9	12
292.0	13
292.1	13
292.4	12
292.5	13
292.6	14
292.7	14
292.8	13
292.9	13
293.0	12
293.1	11
293.4	9
293.5	12
293.6	15
293.7	18
293.8	19
293.9	19
294.0	17
294.3	17
294.4	17
294.5	18
294.6	19
294.7	19
294.8	17
294.9	16
295.0	15
295.1	15
295.2	15
295.3	13
296.1	10
296.2	12
296.3	15
296.4	17
296.5	16
296.6	14
296.7	14
296.8	13
297.1	9
297.2	13
297.3	16
297.4	16
297.5	13
297.6	10
297.8	9
297.9	11
298.0	13
298.1	15
298.2	15
298.3	14
298.4	12
299.5	9
299.6	10
299.7	14
299.8	17
299.9	16
300.0	12
300.1	8
300.3	6
300.4	7
300.5	9
300.6	11
300.7	13
300.8	14
300.9	13
301.1	10
301.2	12
301.3	15
301.4	17
301.5	16
301.6	15
301.7	14
301.8	13
302.7	11
302.8	13
302.9	14
303.0	14
303.1	13
303.4	12
303.5	14
303.6	17
303.7	18
303.8	17
303.9	14
304.0	11
304.2	9
304.3	11
304.4	13
304.5	13
304.6	13
304.7	12
304.8	11
305.0	8
305.1	10
305.2	13
305.3	14
305.4	15
305.5	16
305.6	17
305.7	15
305.8	12
305.9	9
306.8	7
306.9	8
307.0	10
307.1	12
307.2	14
307.3	16
307.4	16
307.5	16
307.8	14
307.9	15
308.0	17
308.1	18
308.2	16
308.3	12
308.6	9
308.7	13
308.8	16
308.9	19
309.0	19
309.1	17
309.2	14
309.5	12
309.6	13
309.7	15
309.8	16
309.9	15
310.0	14
310.1	14
310.2	14
310.5	11
310.6	14
310.7	17
310.8	19
310.9	17
311.0	14
311.1	12
311.3	11
311.4	12
311.5	13
311.6	14
311.7	13
311.8	13
311.9	13
312.0	15
312.1	16
312.2	15
312.3	13
312.4	11
313.2	11
313.3	13
313.4	16
313.5	17
313.6	16
313.7	13
313.8	11
314.7	8
314.8	9
314.9	11
315.0	13
315.1	16
315.2	17
315.3	16
315.4	14
315.5	12
315.6	10
315.9	8
316.0	11
316.1	12
316.2	12
316.3	11
316.4	11
316.5	10
316.6	9
316.8	7
316.9	10
317.0	13
317.1	14
317.2	12
317.3	9
317.6	8
317.7	9
317.8	10
317.9	10
318.0	10
318.1	10
318.2	10
318.3	9
318.6	8
318.7	9
318.8	10
318.9	11
319.0	10
319.3	8
319.4	10
319.5	13
319.6	14
319.7	12
319.8	8
320.1	6
320.2	9
320.3	10
320.4	11
320.5	10
320.6	10
320.7	9
320.8	10
320.9	12
321.0	15
321.1	15
321.2	13
321.3	10
321.8	8
321.9	10
322.0	12
322.1	14
322.2	14
322.3	13
322.4	11
322.5	9
322.6	7
322.9	5
323.0	8
323.1	11
323.2	12
323.3	10
323.5	8
323.6	9
323.7	12
323.8	12
324.1	10
324.2	12
324.3	16
324.4	17
324.5	17
324.6	16
325.9	12
326.0	13
326.1	14
326.2	14
326.3	11
326.4	7
326.7	5
326.8	7
326.9	9
327.0	12
327.1	16
327.2	18
327.3	15
327.4	10
327.6	9
327.7	12
327.8	14
327.9	12
328.0	10
328.3	7
328.4	9
328.5	10
328.6	11
328.7	12
328.8	13
328.9	14
329.0	13
329.1	11
329.2	9
329.4	7
329.5	8
329.6	10
329.7	12
329.8	13
329.9	14
330.0	13
331.0	5
331.1	7
331.2	10
331.3	11
331.4	11
331.5	11
331.6	12
331.7	13
331.8	14
331.9	12
332.0	10
332.6	7
332.7	9
332.8	13
332.9	15
333.0	13
333.1	11
333.2	9
333.3	9
333.4	9
333.5	8
333.8	4
333.9	7
334.0	11
334.1	12
334.2	12
334.3	12
334.4	13
334.5	15
334.6	16
334.7	15
334.8	12
335.0	10
335.1	13
335.2	15
335.3	14
335.6	12
335.7	13
335.8	14
335.9	13
336.1	10
336.2	11
336.3	15
336.4	17
336.5	14
336.6	8
336.8	7
336.9	10
337.0	11
337.1	10
337.2	9
337.3	10
337.4	12
337.5	12
337.6	11
337.7	10
337.8	8
338.1	5
338.2	8
338.3	12
338.4	14
338.5	15
338.6	14
338.7	13
339.0	12
339.1	14
339.2	16
339.3	16
339.4	15
339.5	12
339.7	11
339.8	12
339.9	15
340.0	16
340.1	15
340.2	11
340.4	6
340.5	10
340.6	16
340.7	18
340.8	17
341.8	10
341.9	12
342.0	13
342.1	13
342.2	12
342.5	10
342.6	12
342.7	14
342.8	15
342.9	13
343.0	11
343.4	10
343.5	11
343.6	13
343.7	14
343.8	12
344.0	10
344.1	12
344.2	14
344.3	15
344.4	14
344.5	12
344.6	9
344.8	8
344.9	10
345.0	12
345.1	13
345.2	12
345.3	11
345.4	13
345.5	15
345.6	15
345.7	12
346.0	12
346.1	13
346.2	14
346.3	15
346.4	15
346.5	14
346.6	12
346.7	11
346.8	11
347.1	9
347.2	11
347.3	13
347.4	14
347.5	13
347.6	11
347.8	8
347.9	10
348.0	13
348.1	16
348.2	17
348.3	15
348.4	13
348.5	10
348.8	10
348.9	11
349.0	13
349.1	14
349.2	14
349.3	14
349.4	14
349.5	13
349.6	11
351.2	8
351.3	10
351.4	11
351.5	10
351.6	10
351.7	11
351.8	13
351.9	16
352.0	15
352.1	14
352.2	12
352.7	11
352.8	11
352.9	12
353.0	13
353.1	15
353.2	16
353.3	14
353.4	11
353.8	11
353.9	11
354.0	14
354.1	16
354.2	16
354.3	14
355.6	7
355.7	11
355.8	17
355.9	21
356.0	22
356.1	20
356.2	17
357.0	12
357.1	14
357.2	15
357.3	14
357.4	14
357.5	15
357.6	16
357.7	15
359.9	9
360.0	13
360.1	16
360.2	17
360.3	15
360.4	13
360.5	11
360.6	11
360.9	9
361.0	11
361.1	14
361.2	14
361.3	12
361.6	8
361.7	11
361.8	15
361.9	19
362.0	19
362.1	17
362.2	13
362.4	11
362.5	13
362.6	14
362.7	15
362.8	15
362.9	15
363.0	15
363.1	14
363.2	12
363.3	10
363.6	8
363.7	10
363.8	12
363.9	15
364.0	17
364.1	16
364.2	13
364.3	10
364.4	8
364.6	6
364.7	8
364.8	9
364.9	10
365.0	10
365.1	12
365.2	15
365.3	15
365.4	13
365.6	11
365.7	14
365.8	16
365.9	18
366.0	17
366.1	14
366.2	12
367.0	8
367.1	12
367.2	15
367.3	14
367.4	12
367.5	9
367.7	7
367.8	8
367.9	10
368.0	12
368.1	13
368.2	13
369.5	10
369.6	11
369.7	12
369.8	13
369.9	13
370.0	12
370.1	11
370.4	9
370.5	10
370.6	11
370.7	12
370.8	12
370.9	12
371.0	14
371.1	15
371.2	16
371.3	15
371.5	13
371.6	14
371.7	16
371.8	17
371.9	16
372.0	14
373.0	12
373.1	13
373.2	14
373.3	15
373.4	13
373.5	11
373.6	10
373.7	10
373.8	10
374.1	8
374.2	10
374.3	13
374.4	13
374.5	11
375.3	7
375.4	9
375.5	11
375.6	13
375.7	13
375.8	13
375.9	13
376.0	14
376.1	15
376.2	15
376.3	13
376.4	11
376.6	10
376.7	11
376.8	13
376.9	13
377.2	11
377.3	13
377.4	16
377.5	15
377.6	12
377.9	8
378.0	12
378.1	15
378.2	14
378.3	11
379.7	7
379.8	9
379.9	11
380.0	13
380.1	14
380.2	13
380.3	10
380.5	7
380.6	9
380.7	12
380.8	12
380.9	11
381.8	7
381.9	9
382.0	11
382.1	12
382.2	10
382.3	9
382.4	8
382.5	7
382.8	5
382.9	7
383.0	10
383.1	13
383.2	13
383.3	10
383.6	8
383.7	10
383.8	10
383.9	11
384.0	12
384.1	12
384.2	10
384.3	8
384.8	8
384.9	9
385.0	10
385.1	11
385.2	11
385.3	11
385.4	10
385.5	10
385.6	10
385.7	11
385.8	12
385.9	12
386.0	12
386.1	12
386.2	11
386.4	9
386.5	11
386.6	15
386.7	17
386.8	17
386.9	15
387.0	13
387.1	12
387.4	11
387.5	13
387.6	14
387.7	15
387.8	14
387.9	12
388.0	12
388.1	11
388.8	10
388.9	11
389.0	12
389.1	14
389.2	14
389.3	14
389.4	12
390.6	6
390.7	8
390.8	12
390.9	14
391.0	13
391.1	10
391.8	6
391.9	9
392.0	11
392.1	11
392.2	10
392.3	10
392.4	10
392.5	10
392.6	9
392.7	7
392.9	6
393.0	7
393.1	9
393.2	14
393.3	17
393.4	17
393.5	14
393.6	10
395.0	6
395.1	8
395.2	8
395.3	8
395.4	8
395.5	10
395.6	13
395.7	15
395.8	15
395.9	13
396.0	11
396.1	8
396.3	4
396.4	6
396.5	9
396.6	10
396.7	9
396.8	9
396.9	10
397.0	11
397.1	12
397.2	11
397.3	10
397.4	10
397.5	11
397.6	13
397.7	14
397.8	12
398.1	9
398.2	13
398.3	16
398.4	16
398.5	13
398.6	10
398.8	9
398.9	10
399.0	11
399.1	12
399.2	12
399.3	13
399.4	13
399.5	13
399.6	13
399.7	13
399.8	13
399.9	13
400.2	11
400.3	13
400.4	15
400.5	14
400.6	11
400.8	9
400.9	12
401.0	14
401.1	13
401.3	10
401.4	12
401.5	14
401.6	13
401.7	12
402.4	8
402.5	11
402.6	14
402.7	16
402.8	18
402.9	20
403.0	19
403.1	17
403.2	15
403.3	14
403.4	14
403.5	14
403.6	13
403.9	11
404.0	12
404.1	13
404.2	14
404.3	14
404.4	15
404.5	16
404.6	16
404.7	14
404.8	12
405.0	10
405.1	12
405.2	13
405.3	13
405.4	12
405.5	12
405.8	10
405.9	11
406.0	13
406.1	13
406.2	11
406.4	8
406.5	12
406.6	15
406.7	16
406.8	14
406.9	12
407.0	11
407.4	10
407.5	13
407.6	16
407.7	17
407.8	15
407.9	12
408.0	9
408.5	8
408.6	10
408.7	14
408.8	16
408.9	15
409.0	12
409.1	9
409.8	9
409.9	11
410.0	11
410.1	12
410.2	11
410.3	11
410.6	9
410.7	10
410.8	11
410.9	11
411.0	11
411.1	12
411.2	13
411.3	14
411.4	14
411.5	14
411.6	14
411.7	14
411.8	14
411.9	13
412.0	14
412.1	14
413.0	12
413.1	14
413.2	15
413.3	13
413.4	8
413.6	3
413.7	6
413.8	11
413.9	14
414.0	15
414.1	15
414.2	14
414.3	13
414.4	12
414.5	10
414.8	8
414.9	11
415.0	13
415.1	12
416.0	8
416.1	9
416.2	11
416.3	13
416.4	14
416.5	14
416.6	13
416.7	13
416.8	14
416.9	16
417.0	19
417.1	20
417.2	18
417.3	16
418.5	11
418.6	14
418.7	17
418.8	18
418.9	16
419.0	13
419.8	11
419.9	12
420.0	13
420.1	13
420.2	13
420.6	12
420.7	13
420.8	14
420.9	15
421.0	14
421.1	13
421.2	12
421.3	12
421.6	10
421.7	12
421.8	15
421.9	15
422.0	12
422.2	9
422.3	12
422.4	14
422.5	14
423.2	8
423.3	11
423.4	13
423.5	13
423.6	9
423.8	3
423.9	7
424.0	13
424.1	18
424.2	17
424.3	11
424.5	8
424.6	12
424.7	14
424.8	13
424.9	13
425.0	14
425.1	15
425.2	14
425.3	12
425.4	10
425.5	9
425.8	8
425.9	9
426.0	10
426.1	10
426.4	9
426.5	10
426.6	11
426.7	12
426.8	12
426.9	12
427.0	13
427.1	13
427.2	13
427.9	11
428.0	14
428.1	17
428.2	18
428.3	17
428.4	13
428.5	10
428.7	10
428.8	12
428.9	12
429.0	13
429.1	13
429.2	14
429.3	13
430.8	10
430.9	12
431.0	16
431.1	17
431.2	14
431.5	10
431.6	14
431.7	16
431.8	16
431.9	14
432.0	12
432.1	11
432.2	11
432.5	9
432.6	11
432.7	13
432.8	14
432.9	14
433.0	14
433.1	13
433.2	12
433.3	10
433.6	8
433.7	11
433.8	15
433.9	16
434.0	16
434.1	15
434.2	14
434.3	13
435.1	11
435.2	13
435.3	14
435.4	13
436.5	7
436.6	9
436.7	11
436.8	11
436.9	11
437.0	11
437.1	11
437.2	11
438.0	7
438.1	9
438.2	11
438.3	12
438.4	12
438.5	12
438.6	13
438.7	15
438.8	14
438.9	12
439.3	12
439.4	12
439.5	13
439.6	14
439.7	14
439.8	12
439.9	9
440.1	8
440.2	10
440.3	11
440.4	13
440.5	13
440.6	12
440.7	13
440.8	14
440.9	15
441.0	15
441.1	13
441.2	10
441.3	6
441.5	5
441.6	7
441.7	8
441.8	8
441.9	9
442.0	11
442.1	12
442.2	12
442.3	11
443.4	7
443.5	8
443.6	9
443.7	11
443.8	13
443.9	14
444.0	13
444.1	11
444.3	9
444.4	11
444.5	13
444.6	14
444.7	14
444.8	11
445.1	9
445.2	10
445.3	11
445.4	12
445.5	12
445.6	12
445.7	12
445.8	11
445.9	9
446.7	7
446.8	9
446.9	14
447.0	16
447.1	15
447.2	10
447.4	5
447.5	8
447.6	13
447.7	16
447.8	18
447.9	18
448.0	16
448.1	15
448.2	15
448.3	14
448.4	13
448.7	10
448.8	13
448.9	16
449.0	17
449.1	16
451.8	8
451.9	12
452.0	16
452.1	16
452.2	13
453.1	11
453.2	12
453.3	14
453.4	15
453.5	14
453.6	10
453.8	7
453.9	10
454.0	12
454.1	12
454.2	12
454.3	11
454.4	12
454.5	13
454.6	14
454.7	15
454.8	15
454.9	14
455.0	12
455.1	9
455.5	9
455.6	10
455.7	11
455.8	13
455.9	13
456.0	12
456.3	8
456.4	12
456.5	14
456.6	12
456.7	8
456.9	6
457.0	8
457.1	11
457.2	14
457.3	18
457.4	19
457.5	19
457.6	16
457.7	14
457.8	13
457.9	12
458.2	9
458.3	11
458.4	14
458.5	16
458.6	16
458.7	14
458.8	11
459.1	9
459.2	12
459.3	14
459.4	13
459.5	11
459.6	9
460.2	7
460.3	8
460.4	11
460.5	14
460.6	14
460.7	10
460.8	6
461.0	4
461.1	6
461.2	9
461.3	10
461.4	11
461.5	11
461.6	10
461.7	9
462.0	9
462.1	10
462.2	11
462.3	13
462.4	15
462.5	15
462.6	11
462.9	7
463.0	11
463.1	13
463.2	12
463.3	11
463.4	10
463.7	9
463.8	11
463.9	14
464.0	14
464.1	12
464.7	10
464.8	12
464.9	14
465.0	15
465.1	14
465.3	12
465.4	14
465.5	16
465.6	18
465.7	18
465.8	16
465.9	12
466.1	8
466.2	11
466.3	14
466.4	15
466.5	13
466.7	10
466.8	12
466.9	14
467.0	14
467.1	11
467.4	8
467.5	11
467.6	12
467.7	11
467.9	8
468.0	10
468.1	15
468.2	18
468.3	17
468.4	15
468.5	13
469.3	9
469.4	11
469.5	13
469.6	12
469.7	11
469.8	11
469.9	12
470.0	12
470.1	12
470.2	11
470.3	11
470.4	10
470.5	10
470.8	9
470.9	11
471.0	14
471.1	16
471.2	16
471.3	14
471.4	10
471.6	8
471.7	11
471.8	13
471.9	12
472.0	10
472.5	9
472.6	11
472.7	13
472.8	14
472.9	14
473.0	14
473.1	14
473.2	14
473.3	14
473.4	12
473.5	9
473.7	7
473.8	11
473.9	15
474.0	16
474.1	13
474.2	7
474.4	3
474.5	7
474.6	10
474.7	11
474.8	10
474.9	10
475.0	12
475.1	15
475.2	16
475.3	14
475.4	10
475.6	9
475.7	11
475.8	11
475.9	11
476.0	11
476.1	13
476.2	16
476.3	16
476.4	15
476.5	13
477.3	8
477.4	12
477.5	13
477.6	12
477.7	11
477.9	9
478.0	10
478.1	13
478.2	14
478.3	13
478.4	9
478.6	7
478.7	9
478.8	10
478.9	11
479.0	12
479.1	15
479.2	18
479.3	20
479.4	19
479.5	18
479.6	18
479.7	16
479.8	14
480.1	13
480.2	14
480.3	15
480.4	16
480.5	19
480.6	21
480.7	22
480.8	19
480.9	13
481.1	10
481.2	13
481.3	17
481.4	18
481.5	18
481.6	18
481.7	17
481.8	16
481.9	15
482.6	14
482.7	15
482.8	16
482.9	15
483.0	12
483.3	9
483.4	12
483.5	14
483.6	13
483.7	10
483.9	9
484.0	11
484.1	13
484.2	14
484.3	12
484.4	10
484.6	9
484.7	10
484.8	12
484.9	11
485.0	11
485.1	10
485.2	11
485.3	12
485.4	13
485.5	14
485.6	15
485.7	17
485.8	17
485.9	15
486.0	11
486.1	7
486.3	6
486.4	7
486.5	8
486.6	10
486.7	12
486.8	14
486.9	14
487.0	12
487.8	7
487.9	10
488.0	13
488.1	14
488.2	14
488.3	13
488.5	11
488.6	13
488.7	16
488.8	16
488.9	14
489.0	11
489.3	10
489.4	11
489.5	13
489.6	13
489.7	11
490.0	9
490.1	10
490.2	12
490.3	14
490.4	14
490.5	12
490.6	10
490.8	9
490.9	10
491.0	12
491.1	13
491.2	14
491.3	14
491.4	12
491.5	10
491.7	8
491.8	10
491.9	12
492.0	11
492.2	6
492.3	9
492.4	13
492.5	15
492.6	14
492.9	11
493.0	15
493.1	20
493.2	21
493.3	18
493.4	13
493.6	11
493.7	14
493.8	15
493.9	13
494.0	10
494.2	8
494.3	10
494.4	14
494.5	16
494.6	16
494.7	15
494.8	15
494.9	16
495.0	16
495.1	15
495.2	15
495.3	14
495.4	12
495.7	8
495.8	12
495.9	17
496.0	19
496.1	18
496.2	17
496.3	16
496.4	14
496.5	12
496.6	9
496.8	8
496.9	10
497.0	13
497.1	16
497.2	16
497.3	14
497.4	12
497.7	11
497.8	11
497.9	13
498.0	15
498.1	17
498.2	16
498.3	14
499.3	8
499.4	11
499.5	15
499.6	17
499.7	18
499.8	16
499.9	14
500.7	7
500.8	9
500.9	11
501.0	12
501.1	13
501.2	15
501.3	15
501.4	15
501.5	15
501.6	13
501.7	11
501.8	10
502.1	8
502.2	9
502.3	11
502.4	14
502.5	17
502.6	17
502.7	15
502.8	12
505.2	7
505.3	8
505.4	10
505.5	12
505.6	12
505.7	12
505.8	10
506.0	8
506.1	11
506.2	11
506.3	10
506.4	10
506.5	10
506.6	11
506.7	10
506.8	9
506.9	10
507.0	13
507.1	15
507.2	13
507.3	10
507.5	6
507.6	8
507.7	13
507.8	18
507.9	20
508.0	19
508.1	14
508.2	11
508.5	10
508.6	10
508.7	11
508.8	12
508.9	14
509.0	16
509.1	17
509.9	12
510.0	14
510.1	16
510.2	17
510.3	16
510.4	15
510.5	13
510.6	10
510.8	7
510.9	10
511.0	14
511.1	16
511.2	15
511.3	11
511.9	8
512.0	12
512.1	16
512.2	17
512.3	14
512.4	12
512.5	11
512.6	12
512.9	9
513.0	11
513.1	13
513.2	12
513.3	9
513.5	7
513.6	10
513.7	15
513.8	18
513.9	16
514.0	10
514.2	8
514.3	12
514.4	14
514.5	12
515.4	4
515.5	7
515.6	11
515.7	13
515.8	12
515.9	10
516.1	7
516.2	10
516.3	15
516.4	17
516.5	17
516.6	12
517.4	7
517.5	10
517.6	14
517.7	15
517.8	14
517.9	12
518.0	9
518.3	8
518.4	9
518.5	11
518.6	13
518.7	14
518.8	12
518.9	8
519.8	7
519.9	8
520.0	11
520.1	13
520.2	13
520.3	13
520.4	13
520.5	14
520.6	16
520.7	14
520.8	12
521.1	8
521.2	11
521.3	15
521.4	16
521.5	15
521.6	11
521.7	8
521.9	7
522.0	9
522.1	9
522.2	10
522.3	11
522.4	13
522.5	14
522.6	13
522.7	12
522.8	11
523.7	7
523.8	8
523.9	11
524.0	13
524.1	13
524.2	12
524.3	10
525.0	7
525.1	8
525.2	12
525.3	13
525.4	12
525.5	10
525.6	12
525.7	16
525.8	17
525.9	15
526.2	11
526.3	14
526.4	18
526.5	20
526.6	22
526.7	20
526.8	16
528.1	7
528.2	9
528.3	11
528.4	10
528.5	9
528.6	9
528.7	12
528.8	15
528.9	16
529.0	13
529.1	8
529.3	6
529.4	10
529.5	13
529.6	12
531.0	6
531.1	8
531.2	10
531.3	9
531.4	9
531.5	10
531.6	11
531.7	12
531.8	13
531.9	14
532.0	13
532.8	6
532.9	12
533.0	16
533.1	16
533.2	12
533.8	10
533.9	11
534.0	14
534.1	15
534.2	14
534.3	11
534.5	10
534.6	12
534.7	13
534.8	13
535.7	10
535.8	12
535.9	13
536.2	11
536.3	14
536.4	17
536.5	18
536.6	16
536.7	13
536.8	9
537.0	7
537.1	9
537.2	11
537.3	12
537.4	13
537.5	13
537.6	12
537.7	12
537.8	12
537.9	12
538.0	11
538.3	9
538.4	12
538.5	14
538.6	13
540.1	10
540.2	12
540.3	13
540.4	14
540.5	14
540.6	15
540.7	15
540.8	17
540.9	18
541.0	17
541.1	14
541.2	11
541.5	8
541.6	11
541.7	14
541.8	15
542.1	13
542.2	15
542.3	17
542.4	17
542.5	15
542.6	13
542.8	10
542.9	12
543.0	15
543.1	18
543.2	18
543.3	18
543.4	17
543.5	17
543.8	15
543.9	16
544.0	17
544.1	17
544.2	15
544.3	13
544.4	13
544.5	14
544.6	13
544.8	9
544.9	11
545.0	15
545.1	17
545.2	17
545.3	14
545.5	11
545.6	13
545.7	16
545.8	16
545.9	14
546.0	11
546.2	9
546.3	12
546.4	15
546.5	16
546.6	14
546.7	11
546.9	8
547.0	12
547.1	17
547.2	19
547.3	18
547.4	16
547.5	13
547.6	11
547.9	10
548.0	12
548.1	14
548.2	15
548.3	15
548.4	14
548.5	12
549.3	10
549.4	11
549.5	13
549.6	13
549.7	12
549.8	12
549.9	14
550.0	14
550.1	13
550.4	10
550.5	12
550.6	13
550.7	14
550.8	15
550.9	16
551.0	15
551.8	11
551.9	13
552.0	14
552.1	15
552.2	12
552.3	9
552.8	7
552.9	9
553.0	12
553.1	15
553.2	16
553.3	15
553.4	14
554.4	12
554.5	13
554.6	13
554.7	14
554.8	14
554.9	13
555.0	13
555.1	14
555.2	16
555.3	16
555.4	14
555.5	11
555.7	10
555.8	12
555.9	14
556.0	15
556.1	15
556.8	13
556.9	15
557.0	17
557.1	20
557.2	22
557.3	20
557.4	16
560.4	4
560.5	6
560.6	8
560.7	12
560.8	16
560.9	19
561.0	19
561.1	17
561.2	14
561.3	12
562.0	9
562.1	11
562.2	15
562.3	18
562.4	17
562.5	14
562.8	11
562.9	13
563.0	14
563.1	13
563.2	11
564.6	7
564.7	9
564.8	11
564.9	12
565.0	13
565.1	14
565.2	14
565.3	14
565.6	13
565.7	14
565.8	15
565.9	15
566.0	12
566.1	7
566.3	3
566.4	7
566.5	11
566.6	13
566.7	13
566.8	11
567.1	9
567.2	10
567.3	11
567.4	11
567.5	12
567.6	13
567.7	13
567.8	12
567.9	11
568.0	11
568.1	11
568.2	9
568.3	6
568.5	2
568.6	5
568.7	10
568.8	13
568.9	14
569.0	12
569.1	10
570.0	4
570.1	7
570.2	11
570.3	14
570.4	15
570.5	15
570.6	13
570.7	9
571.0	6
571.1	8
571.2	11
571.3	12
571.4	12
571.5	11
572.1	10
572.2	11
572.3	13
572.4	13
572.5	15
572.6	17
572.7	18
572.8	17
572.9	15
573.0	14
573.1	12
573.2	11
573.5	9
573.6	10
573.7	12
573.8	14
573.9	13
574.0	10
574.3	8
574.4	9
574.5	12
574.6	16
574.7	18
574.8	17
574.9	15
575.0	15
575.1	15
575.2	14
575.3	12
575.9	9
576.0	13
576.1	17
576.2	17
576.3	14
576.4	10
576.5	7
576.8	7
576.9	7
577.0	10
577.1	12
577.2	13
577.5	11
577.6	13
577.7	15
577.8	16
577.9	16
578.0	14
578.1	12
578.2	11
579.8	4
579.9	6
580.0	9
580.1	12
580.2	13
580.3	12
580.4	11
580.5	13
580.6	14
580.7	13
580.8	10
581.0	9
581.1	11
581.2	14
581.3	15
581.4	14
581.5	13
581.6	11
581.7	10
583.2	6
583.3	9
583.4	10
583.5	11
583.6	11
583.7	12
583.8	14
583.9	15
584.0	13
584.1	9
584.3	7
584.4	10
584.5	12
584.6	12
584.7	11
584.8	11
585.1	10
585.2	12
585.3	16
585.4	18
585.5	19
585.6	17
585.7	15
585.8	14
585.9	14
586.0	13
586.1	12
586.2	10
586.4	7
586.5	8
586.6	11
586.7	14
586.8	14
586.9	13
587.0	12
588.6	12
588.7	13
588.8	14
588.9	15
589.0	15
589.1	15
589.2	15
589.3	15
589.4	15
589.5	14
589.6	13
589.7	11
591.0	9
591.1	11
591.2	13
591.3	14
591.4	13
591.6	10
591.7	12
591.8	14
591.9	13
592.2	9
592.3	13
592.4	14
592.5	12
593.3	8
593.4	10
593.5	12
593.6	12
593.7	9
594.0	6
594.1	9
594.2	12
594.3	11
594.4	9
594.5	10
594.6	12
594.7	15
594.8	14
594.9	11
595.3	11
595.4	11
595.5	13
595.6	14
595.7	13
595.8	13
595.9	15
596.0	16
596.1	14
596.4	11
596.5	13
596.6	14
596.7	14
596.8	12
596.9	10
597.0	9
597.3	8
597.4	9
597.5	11
597.6	13
597.7	13
598.6	9
598.7	10
598.8	13
598.9	14
599.0	14
599.8	8
599.9	9
600.0	12
600.1	14
600.2	13
600.4	10
600.5	13
600.6	15
600.7	16
600.8	13
601.6	10
601.7	12
601.8	14
601.9	15
602.0	15
602.1	12
602.3	9
602.4	11
602.5	15
602.6	20
602.7	21
602.8	17
602.9	12
603.1	10
603.2	13
603.3	14
603.6	12
603.7	14
603.8	17
603.9	17
604.0	16
604.9	12
605.0	13
605.1	15
605.2	16
605.3	16
605.4	14
605.5	12
605.7	11
605.8	12
605.9	15
606.0	16
606.1	16
608.3	13
608.4	15
608.5	17
608.6	19
608.7	18
609.6	9
609.7	13
609.8	16
609.9	17
610.0	17
610.1	15
610.2	12
610.3	9
610.5	8
610.6	10
610.7	12
610.8	13
610.9	13
611.3	12
611.4	14
611.5	16
611.6	16
611.7	15
611.8	13
611.9	10
612.4	8
612.5	11
612.6	16
612.7	19
612.8	18
612.9	15
613.0	13
613.1	14
613.2	14
613.3	12
613.5	10
613.6	12
613.7	16
613.8	17
613.9	16
614.0	14
615.9	11
616.0	12
616.1	13
616.2	14
616.3	14
617.2	11
617.3	13
617.4	14
617.5	14
618.2	14
618.3	15
618.4	16
618.5	17
618.6	19
618.7	20
618.8	20
618.9	18
619.0	17
619.1	17
619.2	16
619.3	15
619.4	12
619.6	10
619.7	12
619.8	15
619.9	17
620.0	17
620.1	15
620.2	12
620.3	10
620.5	8
620.6	10
620.7	11
620.8	13
620.9	12
621.3	11
621.4	11
621.5	12
621.6	13
621.7	15
621.8	15
621.9	14
622.1	11
622.2	13
622.3	16
622.4	18
622.5	16
622.6	14
622.7	12
622.8	10
623.1	9
623.2	10
623.3	11
623.4	10
623.5	10
623.6	10
623.7	10
623.8	9
623.9	9
624.0	11
624.1	13
624.2	14
624.3	13
624.4	12
626.0	9
626.1	10
626.2	11
626.3	12
626.4	12
626.5	10
627.0	9
627.1	9
627.2	11
627.3	12
627.4	11
627.5	10
627.7	7
627.8	9
627.9	12
628.0	14
628.1	14
628.2	11
628.5	8
628.6	11
628.7	12
628.8	12
628.9	11
629.0	10
629.3	9
629.4	10
629.5	13
629.6	14
629.7	14
629.8	12
629.9	10
630.0	10
630.1	11
630.2	9
630.4	4
630.5	7
630.6	12
630.7	14
630.8	12
631.1	9
631.2	11
631.3	12
631.4	11
631.5	10
632.1	9
632.2	10
632.3	12
632.4	13
632.5	12
632.6	11
632.7	11
632.8	12
632.9	13
633.0	14
633.1	14
633.2	11
633.5	8
633.6	10
633.7	12
633.8	12
633.9	12
634.0	12
634.1	11
634.4	10
634.5	12
634.6	14
634.7	14
634.8	12
635.0	9
635.1	11
635.2	15
635.3	18
635.4	16
635.5	12
635.7	11
635.8	14
635.9	15
636.0	13
636.1	12
636.2	12
636.3	11
636.5	6
636.6	8
636.7	13
636.8	18
636.9	19
637.0	18
637.1	15
637.2	14
637.3	12
637.6	10
637.7	13
637.8	15
637.9	14
638.0	10
638.1	5
638.4	4
638.5	6
638.6	9
638.7	12
638.8	13
638.9	11
639.8	8
639.9	11
640.0	14
640.1	17
640.2	15
640.3	12
641.5	8
641.6	9
641.7	10
641.8	10
641.9	9
642.8	5
642.9	8
643.0	11
643.1	13
643.2	14
643.3	14
643.4	11
644.8	6
644.9	8
645.0	10
645.1	11
645.2	11
645.3	10
645.4	10
645.5	9
645.7	7
645.8	9
645.9	10
646.0	10
646.1	9
646.2	8
646.4	6
646.5	8
646.6	9
646.7	10
646.8	10
646.9	9
647.0	10
647.1	12
647.2	13
647.3	13
647.4	12
647.5	13
647.6	12
648.5	8
648.6	10
648.7	13
648.8	16
648.9	18
649.0	17
649.1	15
649.2	12
649.5	12
649.6	12
649.7	12
649.8	14
649.9	16
650.0	17
650.1	16
651.4	9
651.5	11
651.6	13
651.7	15
651.8	15
651.9	13
652.0	8
652.2	7
652.3	11
652.4	14
652.5	14
652.8	11
652.9	13
653.0	14
653.1	13
653.4	10
653.5	13
653.6	14
653.7	14
653.8	13
654.6	9
654.7	10
654.8	12
654.9	12
655.0	12
655.1	13
655.2	13
655.3	12
657.2	9
657.3	11
657.4	12
657.5	12
657.6	10
657.9	10
658.0	11
658.1	12
658.2	12
658.3	12
658.4	13
658.5	14
658.6	16
658.7	17
658.8	15
660.0	9
660.1	10
660.2	13
660.3	15
660.4	14
660.6	11
660.7	13
660.8	15
660.9	14
661.0	12
662.1	10
662.2	11
662.3	12
662.4	14
662.5	15
662.6	16
662.7	16
662.8	17
662.9	18
663.0	19
663.1	17
663.2	14
663.4	10
663.5	12
663.6	15
663.7	15
663.8	12
664.0	11
664.1	13
664.2	15
664.3	16
664.4	16
664.5	16
664.6	15
664.7	14
665.0	13
665.1	15
665.2	17
665.3	17
665.4	16
665.5	15
665.8	13
665.9	14
666.0	15
666.1	16
666.2	16
666.3	16
666.4	18
666.5	18
666.6	15
666.8	10
666.9	14
667.0	17
667.1	17
667.2	15
667.3	14
668.2	10
668.3	12
668.4	14
668.5	15
668.6	16
668.7	17
668.8	16
668.9	15
669.0	12
669.1	10
669.6	9
669.7	10
669.8	13
669.9	15
670.0	17
670.1	17
671.3	7
671.4	10
671.5	14
671.6	16
671.7	17
671.8	17
671.9	15
672.0	12
672.3	10
672.4	13
672.5	18
672.6	20
672.7	19
672.8	17
672.9	14
673.0	13
673.1	11
673.4	9
673.5	11
673.6	13
673.7	14
673.8	15
673.9	16
674.0	16
674.1	14
674.2	10
674.4	8
674.5	10
674.6	12
674.7	15
674.8	17
674.9	18
675.0	16
675.1	12
675.2	9
675.5	9
675.6	10
675.7	11
675.8	11
675.9	12
676.0	12
676.1	13
676.2	14
676.3	13
676.4	13
676.5	13
676.9	12
677.0	13
677.1	13
677.2	14
677.3	13
677.4	12
678.1	10
678.2	13
678.3	16
678.4	16
678.5	13
678.6	9
678.8	7
678.9	10
679.0	12
679.1	13
679.2	13
679.3	11
679.5	9
679.6	10
679.7	12
679.8	13
679.9	12
680.0	11
680.1	12
680.2	15
680.3	17
680.4	18
680.5	16
680.6	14
680.9	12
681.0	14
681.1	16
681.2	16
681.5	15
681.6	17
681.7	18
681.8	17
681.9	16
682.0	15
682.1	14
682.4	12
682.5	14
682.6	15
682.7	16
682.8	15
682.9	12
683.0	9
683.3	5
683.4	8
683.5	13
683.6	16
683.7	15
683.8	12
684.0	9
684.1	12
684.2	16
684.3	17
684.4	15
684.5	13
684.6	12
684.7	11
684.8	10
684.9	9
685.2	9
685.3	11
685.4	15
685.5	17
685.6	17
685.7	13
685.8	8
686.0	7
686.1	9
686.2	10
686.3	11
686.4	12
686.5	12
686.6	11
686.9	9
687.0	11
687.1	12
687.2	13
687.3	14
687.4	14
687.5	11
687.8	11
687.9	11
688.0	12
688.1	15
688.2	16
688.3	14
688.4	12
689.2	7
689.3	9
689.4	10
689.5	11
689.6	12
689.7	12
689.8	11
689.9	12
690.0	14
690.1	16
690.2	16
690.3	14
690.4	12
692.6	5
692.7	7
692.8	9
692.9	9
693.0	7
693.1	7
693.2	11
693.3	14
693.4	13
693.5	10
693.7	8
693.8	11
693.9	12
694.0	13
694.1	12
694.2	10
694.5	9
694.6	10
694.7	11
694.8	12
694.9	11
695.0	10
695.1	11
695.2	13
695.3	14
695.4	11
695.6	8
695.7	10
695.8	13
695.9	13
696.0	12
696.3	10
696.4	12
696.5	14
696.6	15
696.7	15
696.8	14
696.9	12
697.6	6
697.7	9
697.8	13
697.9	13
698.0	11
698.2	9
698.3	11
698.4	13
698.5	12
698.8	10
698.9	12
699.0	13
699.1	13
699.2	13
699.3	15
699.4	15
699.5	14
699.6	13
699.7	13
699.8	11
700.1	8
700.2	10
700.3	13
700.4	15
700.5	16
700.6	15
700.7	14
700.8	13
700.9	12
701.0	12
702.1	3
702.2	5
702.3	11
702.4	14
702.5	12
702.6	7
702.9	1
703.0	6
703.1	11
703.2	13
703.3	13
703.4	12
704.2	6
704.3	8
704.4	10
704.5	11
704.6	11
704.7	9
705.3	9
705.4	10
705.5	11
705.6	12
705.7	11
706.8	8
706.9	8
707.0	9
707.1	10
707.2	12
707.3	13
707.4	12
707.5	9
708.1	10
708.2	10
708.3	11
708.4	12
708.5	12
708.6	12
708.7	13
708.8	14
708.9	14
709.0	11
709.2	8
709.3	11
709.4	13
709.5	12
709.6	9
709.9	9
710.0	9
710.1	11
710.2	13
710.3	15
710.4	14
710.5	12
710.8	10
710.9	11
711.0	11
711.1	11
711.2	11
711.3	14
711.4	16
711.5	17
711.6	15
711.7	15
711.8	16
711.9	17
712.0	16
712.1	14
712.4	12
712.5	13
712.6	15
712.7	17
712.8	17
712.9	16
713.0	13
713.7	14
713.8	15
713.9	16
714.0	16
714.1	15
714.2	13
714.3	12
714.4	12
714.7	10
714.8	10
714.9	12
715.0	15
715.1	18
715.2	18
715.3	15
716.1	11
716.2	13
716.3	13
716.4	13
716.5	12
716.6	12
716.7	11
717.0	8
717.1	10
717.2	13
717.3	16
717.4	16
717.5	15
718.4	11
718.5	13
718.6	14
718.7	14
718.8	12
719.6	7
719.7	9
719.8	12
719.9	14
720.0	12
720.2	8
720.3	11
720.4	14
720.5	16
720.6	15
720.9	12
721.0	13
721.1	15
721.2	15
721.3	15
721.4	14
721.5	11
721.6	9
721.9	7
722.0	9
722.1	11
722.2	13
722.3	12
722.4	10
722.7	8
722.8	11
722.9	13
723.0	13
723.1	10
723.4	7
723.5	9
723.6	10
723.7	11
723.8	11
723.9	11
724.0	10
724.1	12
724.2	14
724.3	13
724.6	7
724.7	13
724.8	16
724.9	16
725.0	12
725.2	10
725.3	12
725.4	14
725.5	14
725.6	14
725.7	13
726.1	12
726.2	13
726.3	14
726.6	12
726.7	14
726.8	17
726.9	18
727.0	16
727.1	13
727.3	12
727.4	13
727.5	15
727.6	17
727.7	19
727.8	20
727.9	19
728.0	16
728.1	13
729.1	12
729.2	13
729.3	13
729.4	14
729.5	14
729.6	12
729.8	10
729.9	11
730.0	14
730.1	15
730.2	13
730.5	10
730.6	12
730.7	16
730.8	17
730.9	15
731.0	13
731.2	12
731.3	13
731.4	14
731.5	14
731.8	11
731.9	14
732.0	17
732.1	18
732.2	14
732.3	10
732.5	9
732.6	11
732.7	12
732.8	13
732.9	13
733.0	11
733.1	9
733.4	8
733.5	9
733.6	10
733.7	11
733.8	11
733.9	12
734.0	13
734.1	12
734.2	11
735.6	8
735.7	10
735.8	13
735.9	15
736.0	15
736.3	12
736.4	14
736.5	15
736.6	16
736.7	14
736.8	10
737.0	7
737.1	11
737.2	14
737.3	15
737.4	12
737.5	8
737.7	8
737.8	10
737.9	12
738.0	13
738.1	13
738.2	12
738.3	10
738.4	8
738.6	5
738.7	7
738.8	11
738.9	14
739.2	11
739.3	15
739.4	18
739.5	17
739.6	12
740.3	9
740.4	11
740.5	13
740.6	15
740.7	17
740.8	18
740.9	17
741.0	15
741.1	13
741.3	9
741.4	11
741.5	15
741.6	18
741.7	19
741.8	19
741.9	17
742.0	15
742.1	14
742.2	12
742.5	11
742.6	13
742.7	16
742.8	18
742.9	19
743.0	16
743.1	12
743.3	10
743.4	12
743.5	15
743.6	16
743.7	14
743.8	12
743.9	11
744.0	11
744.3	8
744.4	11
744.5	14
744.6	15
744.7	13
744.9	11
745.0	13
745.1	15
745.2	15
745.3	14
745.4	10
745.6	8
745.7	11
745.8	13
745.9	13
746.0	12
746.1	11
746.4	8
746.5	11
746.6	13
746.7	11
746.8	8
747.0	7
747.1	9
747.2	10
747.3	11
747.4	11
747.5	11
747.6	10
747.8	7
747.9	9
748.0	12
748.1	14
748.2	14
748.3	12
748.4	8
748.6	6
748.7	9
748.8	13
748.9	13
749.0	13
749.1	12
749.4	10
749.5	13
749.6	15
749.7	14
749.8	9
749.9	5
750.1	6
750.2	7
750.3	9
750.4	11
750.5	13
750.6	14
750.7	13
750.8	12
750.9	12
751.0	12
751.1	12
751.2	11
751.3	9
751.6	9
751.7	10
751.8	11
751.9	13
752.0	15
752.1	16
752.2	14
752.3	11
752.6	7
752.7	11
752.8	15
752.9	18
753.0	17
753.1	12
753.2	8
753.4	5
753.5	8
753.6	11
753.7	13
753.8	14
753.9	14
754.0	13
754.7	8
754.8	13
754.9	18
755.0	19
755.1	15
755.2	9
755.9	6
756.0	10
756.1	14
756.2	14
756.3	13
756.6	10
756.7	11
756.8	11
756.9	11
757.0	12
757.1	13
757.2	12
757.3	9
757.5	7
757.6	9
757.7	12
757.8	14
757.9	16
758.0	16
758.1	14
758.2	11
758.4	10
758.5	12
758.6	14
758.7	16
758.8	19
758.9	20
759.0	18
759.1	13
759.2	9
759.5	8
759.6	10
759.7	14
759.8	19
759.9	20
760.0	18
760.1	15
760.2	13
760.3	11
760.4	10
761.5	8
761.6	8
761.7	9
761.8	11
761.9	14
762.0	17
762.1	18
762.2	17
762.3	13
762.6	10
762.7	14
762.8	16
762.9	16
763.0	15
763.1	12
763.2	9
763.4	6
763.5	8
763.6	12
763.7	15
763.8	16
763.9	15
764.0	13
764.1	12
764.2	13
764.3	12
764.6	8
764.7	12
764.8	14
764.9	13
765.0	9
765.2	7
765.3	10
765.4	13
765.5	12
766.1	10
766.2	11
766.3	13
766.4	12
766.5	10
766.7	7
766.8	10
766.9	12
767.0	14
767.1	15
767.2	15
767.3	13
767.4	11
768.2	10
768.3	11
768.4	12
768.5	14
768.6	14
768.7	12
768.9	10
769.0	12
769.1	16
769.2	17
769.3	14
769.4	10
769.6	6
769.7	8
769.8	12
769.9	13
770.0	14
770.1	15
770.2	16
770.3	16
770.4	14
770.5	11
770.7	9
770.8	10
770.9	11
771.0	11
771.1	9
771.2	8
771.5	5
771.6	7
771.7	11
771.8	14
771.9	15
772.0	15
772.1	14
772.2	13
772.3	12
772.4	10
772.8	9
772.9	10
773.0	12
773.1	14
773.2	16
773.3	17
773.4	16
773.5	14
773.8	11
773.9	12
774.0	14
774.1	15
774.2	14
774.3	11
774.5	9
774.6	11
774.7	15
774.8	17
774.9	17
775.0	15
775.1	12
775.4	11
775.5	12
775.6	13
775.7	15
775.8	14
776.1	11
776.2	13
776.3	14
776.4	13
776.5	10
776.6	9
776.7	9
777.0	8
777.1	9
777.2	12
777.3	13
777.6	11
777.7	13
777.8	14
777.9	13
778.0	10
778.2	8
778.3	10
778.4	11
778.5	12
778.6	12
778.7	13
778.8	14
778.9	13
779.0	10
779.1	6
779.3	2
779.4	4
779.5	7
779.6	11
779.7	14
779.8	14
779.9	13
780.0	12
780.1	12
780.2	11
780.3	10
781.1	9
781.2	11
781.3	13
781.4	13
781.5	11
781.7	9
781.8	11
781.9	14
782.0	15
782.1	16
782.2	14
782.3	11
782.5	6
782.6	9
782.7	12
782.8	13
782.9	12
783.7	9
783.8	12
783.9	15
784.0	15
784.1	11
784.8	6
784.9	8
785.0	11
785.1	10
785.3	5
785.4	7
785.5	12
785.6	16
785.7	16
785.8	15
785.9	13
786.0	13
786.1	13
786.2	12
786.3	9
786.6	8
786.7	10
786.8	13
786.9	14
787.0	12
788.6	9
788.7	10
788.8	14
788.9	18
789.0	20
789.1	18
789.2	14
789.5	11
789.6	13
789.7	15
789.8	16
789.9	15
790.0	14
790.1	14
790.2	14
790.5	11
790.6	13
790.7	15
790.8	15
790.9	13
791.0	10
791.2	8
791.3	10
791.4	13
791.5	14
791.6	14
792.6	9
792.7	10
792.8	11
792.9	11
793.0	12
793.1	14
793.2	18
793.3	20
793.4	21
793.5	21
793.6	19
793.7	16
793.8	12
794.5	12
794.6	14
794.7	16
794.8	16
794.9	14
795.7	9
795.8	10
795.9	13
796.0	15
796.1	15
796.4	12
796.5	14
796.6	15
796.7	14
796.8	10
797.0	7
797.1	10
797.2	13
797.3	13
797.5	10
797.6	12
797.7	15
797.8	17
797.9	15
798.2	11
798.3	13
798.4	14
798.5	14
798.6	14
798.9	12
799.0	14
799.1	15
799.2	16
799.3	14
