Mass spectrum: Andrographolide; LC-ESI-QQQ; MS2; Frag=135.0V CID@10.0; [M+HCOO]-
Name: Andrographolide
Class: Terpenoids
Formula: C20H30O5
Exact mass: 350.4591
SMILES: C=C1CCC2C(C)(CO)C(O)CC[C@]2(C)C1C/C=C1/C(=O)OCC1O
InChI: InChI=1S/C20H30O5/c1-12-4-7-16-19(2,9-8-17(23)20(16,3)11-21)14(12)6-5-13-15(22)10-25-18(13)24/h5,14-17,21-23H,1,4,6-11H2,2-3H3/b13-5+/t14?,15?,16?,17?,19-,20?/m1/s1
Instrument: Agilent 6410 Triple Quadrupole LC/MS system
Instrument type: LC-ESI-QQQ
Ms type: MS2
Ion mode: NEGATIVE
Precursor type: [M+HCOO]-
m/z	relative intensity
286.4	0
286.5	1
286.6	6
286.7	14
286.8	26
286.9	41
287.0	56
287.1	65
287.2	64
287.3	54
287.4	39
287.5	23
287.6	9
287.7	1
330.3	0
330.4	1
330.5	5
330.6	14
330.7	28
330.8	47
330.9	71
331.0	91
331.1	99
331.2	96
331.3	85
331.4	70
331.5	49
331.6	25
331.7	6
331.8	0
