Mass spectrum: 3-O-Acetyldiosgenin; LC-ESI-QQQ; MS2; Frag=135.0V CID@15.0 ; [M+H]+
Name: 3-O-Acetyldiosgenin
Class: Steroids
Formula: C29H44O4
Exact mass: 456.67163
SMILES: CC(=O)OC1CC[C@@]2(C)C(=CCC3C4CC5O[C@]6(CCC(C)CO6)C(C)C5[C@@]4(C)CCC32)C1
InChI: InChI=1S/C29H44O4/c1-17-8-13-29(31-16-17)18(2)26-25(33-29)15-24-22-7-6-20-14-21(32-19(3)30)9-11-27(20,4)23(22)10-12-28(24,26)5/h6,17-18,21-26H,7-16H2,1-5H3/t17?,18?,21?,22?,23?,24?,25?,26?,27-,28-,29+/m0/s1
Instrument: Agilent 6410 Triple Quadrupole LC/MS system
Instrument type: LC-ESI-QQQ
Ms type: MS2
Ion mode: POSITIVE
Precursor type: [M+H]+
m/z	relative intensity
68.7	1
68.8	3
68.9	7
69.0	11
69.1	13
69.2	11
69.3	6
69.4	2
107.0	2
107.1	4
107.2	6
107.3	6
107.4	5
107.5	3
146.7	2
146.8	4
146.9	6
147.0	6
147.1	5
148.8	2
148.9	4
149.0	5
149.1	6
149.2	5
149.3	3
156.5	1
156.6	2
156.7	7
156.8	17
156.9	25
157.0	27
157.1	20
157.2	9
157.3	2
252.2	1
252.3	3
252.4	6
252.5	12
252.6	20
252.7	31
252.8	44
252.9	59
253.0	76
253.1	91
253.2	99
253.3	94
253.4	75
253.5	46
253.6	17
253.7	1
312.4	0
312.5	2
312.6	7
312.7	12
312.8	16
312.9	28
313.0	50
313.1	77
313.2	89
313.3	77
313.4	50
313.5	22
313.6	6
313.7	0
456.7	1
456.8	4
456.9	10
457.0	22
457.1	37
457.2	50
457.3	54
457.4	49
457.5	38
457.6	24
457.7	11
457.8	2
