Mass spectrum: Dehydroabietic acid; LC-ESI-QQQ; MS2; Frag=135.0V CID@25.0; [M+H]+
Name: Dehydroabietic acid
Class: Terpenoids
Formula: C20H28O2
Exact mass: 300.445
SMILES: CC(C)c1ccc2c(c1)CCC1[C@]2(C)CCC[C@@]1(C)C(=O)O
InChI: InChI=1S/C20H28O2/c1-13(2)14-6-8-16-15(12-14)7-9-17-19(16,3)10-5-11-20(17,4)18(21)22/h6,8,12-13,17H,5,7,9-11H2,1-4H3,(H,21,22)/t17?,19-,20-/m1/s1
Instrument: Agilent 6410 Triple Quadrupole LC/MS system
Instrument type: LC-ESI-QQQ
Ms type: MS2
Ion mode: POSITIVE
Precursor type: [M+H]+
m/z	relative intensity
66.5	1
66.6	2
66.7	4
66.8	5
66.9	5
90.4	2
90.5	3
90.6	5
90.7	6
90.8	6
90.9	5
91.0	5
91.1	6
91.2	4
91.3	2
104.4	1
104.5	2
104.6	4
104.7	6
104.8	6
104.9	7
105.0	6
105.1	5
105.2	3
108.4	1
108.5	2
108.6	6
108.7	10
108.8	15
108.9	20
109.0	21
109.1	18
109.2	11
109.3	5
109.4	3
116.4	1
116.5	2
116.6	4
116.7	9
116.8	14
116.9	18
117.0	18
117.1	13
117.2	6
117.3	1
130.4	3
130.5	4
130.6	7
130.7	14
130.8	23
130.9	32
131.0	36
131.1	36
131.2	33
131.3	27
131.4	18
131.5	9
131.6	2
132.3	2
132.4	3
132.5	6
132.6	12
132.7	23
132.8	37
132.9	56
133.0	76
133.1	92
133.2	99
133.3	93
133.4	73
133.5	43
133.6	15
133.7	0
142.6	2
142.7	5
142.8	9
142.9	13
143.0	14
143.1	12
143.2	8
143.3	4
144.6	0
144.7	2
144.8	4
144.9	8
145.0	10
145.1	9
145.2	5
145.3	2
146.6	0
146.7	2
146.8	4
146.9	7
147.0	9
147.1	9
147.2	6
147.3	3
158.5	2
158.6	3
158.7	9
158.8	18
158.9	29
159.0	36
159.1	35
159.2	28
159.3	19
159.4	11
159.5	5
159.6	2
172.4	1
172.5	3
172.6	8
172.7	14
172.8	19
172.9	21
173.0	21
173.1	23
173.2	28
173.3	31
173.4	24
173.5	12
173.6	1
184.4	2
184.5	4
184.6	6
184.7	6
184.8	5
184.9	4
185.0	3
185.1	6
185.2	9
185.3	11
185.4	11
185.5	8
185.6	3
