Mass spectrum: 6-Hydroxyhyoscyamine; LC-ESI-QQQ; MS2; Frag=135.0V CID@15.0; [M+H]+
Name: 6-Hydroxyhyoscyamine
Class: Alkaloids
Formula: C17H23NO4
Exact mass: 305.3772
SMILES: CN1C2CC(OC(=O)C(CO)c3ccccc3)CC1C(O)C2
InChI: InChI=1S/C17H23NO4/c1-18-12-7-13(9-15(18)16(20)8-12)22-17(21)14(10-19)11-5-3-2-4-6-11/h2-6,12-16,19-20H,7-10H2,1H3
Instrument: Agilent 6410 Triple Quadrupole LC/MS system
Instrument type: LC-ESI-QQQ
Ms type: MS2
Ion mode: POSITIVE
Precursor type: [M+H]+
m/z	relative intensity
139.4	1
139.5	3
139.6	5
139.7	10
139.8	16
139.9	23
140.0	29
140.1	31
140.2	30
140.3	26
140.4	19
140.5	12
140.6	4
140.7	0
305.3	1
305.4	3
305.5	6
305.6	10
305.7	17
305.8	30
305.9	49
306.0	73
306.1	92
306.2	99
306.3	92
306.4	71
306.5	43
306.6	16
306.7	1
