Mass spectrum: lomatin; LC-ESI-QQQ; MS2; Frag=135.0V CID@5.0; [M+H]+
Name: lomatin
Class: Benzopyranoids
Formula: C14H14O4
Exact mass: 246.2653
SMILES: CC1(C)Oc2ccc3ccc(=O)oc3c2CC1O
InChI: InChI=1S/C14H14O4/c1-14(2)11(15)7-9-10(18-14)5-3-8-4-6-12(16)17-13(8)9/h3-6,11,15H,7H2,1-2H3
Instrument: Agilent 6410 Triple Quadrupole LC/MS system
Instrument type: LC-ESI-QQQ
Ms type: MS2
Ion mode: POSITIVE
Precursor type: [M+H]+
m/z	relative intensity
246.3	0
246.4	3
246.5	8
246.6	18
246.7	31
246.8	49
246.9	70
247.0	88
247.1	99
247.2	99
247.3	87
247.4	63
247.5	34
247.6	9
247.7	0
