Mass spectrum: 17alpha-Strophadogenin; LC-ESI-QQQ; MS2; Frag=135.0V CID@15.0; [M+HCOO]-
Name: 17alpha-Strophadogenin
Class: Steroids
Formula: C23H32O7
Exact mass: 420.5073
SMILES: C[C@]12CCC3C(CCC4(O)CC(O)CC[C@]34C=O)C1(O)CC(O)[C@H]2C1=CC(=O)OC1
InChI: InChI=1S/C23H32O7/c1-20-5-3-15-16(4-7-22(28)9-14(25)2-6-21(15,22)12-24)23(20,29)10-17(26)19(20)13-8-18(27)30-11-13/h8,12,14-17,19,25-26,28-29H,2-7,9-11H2,1H3/t14?,15?,16?,17?,19-,20-,21+,22?,23?/m1/s1
Instrument: Agilent 6410 Triple Quadrupole LC/MS system
Instrument type: LC-ESI-QQQ
Ms type: MS2
Ion mode: NEGATIVE
Precursor type: [M+HCOO]-
m/z	relative intensity
308.3	0
308.4	2
308.5	4
308.6	6
308.7	7
308.8	9
308.9	10
309.0	10
309.1	10
309.2	11
309.3	11
309.4	9
309.5	6
309.6	1
326.7	1
326.8	3
326.9	4
327.0	5
327.1	7
327.2	7
327.3	6
327.4	3
364.6	1
364.7	3
364.8	6
364.9	9
365.0	12
365.1	13
365.2	12
365.3	9
365.4	5
365.5	2
382.5	0
382.6	3
382.7	6
382.8	9
382.9	10
383.0	10
383.1	11
383.2	11
383.3	10
383.4	7
383.5	3
383.6	1
400.3	0
400.4	2
400.5	9
400.6	20
400.7	32
400.8	47
400.9	64
401.0	82
401.1	95
401.2	99
401.3	93
401.4	76
401.5	50
401.6	23
401.7	3
418.4	1
418.5	2
418.6	4
418.7	7
418.8	11
418.9	15
419.0	17
419.1	17
419.2	18
419.3	17
419.4	13
419.5	7
419.6	2
464.5	0
464.6	1
464.7	3
464.8	6
464.9	7
465.0	6
465.1	5
465.2	4
465.3	4
465.4	2
