Mass spectrum: Foliosidine; LC-ESI-QQQ; MS2; Frag=135.0V CID@25.0; [M+H]+
Name: Foliosidine
Class: Alkaloids
Formula: C16H21NO5
Exact mass: 307.3495
SMILES: COc1cc(=O)n(C)c2c(OCC(O)C(C)(C)O)cccc12
InChI: InChI=1S/C16H21NO5/c1-16(2,20)13(18)9-22-11-7-5-6-10-12(21-4)8-14(19)17(3)15(10)11/h5-8,13,18,20H,9H2,1-4H3
Instrument: Agilent 6410 Triple Quadrupole LC/MS system
Instrument type: LC-ESI-QQQ
Ms type: MS2
Ion mode: POSITIVE
Precursor type: [M+H]+
m/z	relative intensity
173.7	4
173.8	7
173.9	9
174.0	11
174.1	11
174.2	10
174.3	9
174.4	7
174.5	3
187.5	1
187.6	3
187.7	5
187.8	9
187.9	12
188.0	15
188.1	17
188.2	16
188.3	14
188.4	10
188.5	5
188.6	1
189.7	2
189.8	4
189.9	6
190.0	8
190.1	8
190.2	8
190.3	6
190.7	4
190.8	5
190.9	8
191.0	9
191.1	10
191.2	10
191.3	9
191.4	6
191.5	3
203.6	3
203.7	5
203.8	8
203.9	11
204.0	13
204.1	14
204.2	15
204.3	14
204.4	14
204.5	14
204.6	16
204.7	24
204.8	40
204.9	64
205.0	87
205.1	99
205.2	99
205.3	89
205.4	70
205.5	47
205.7	23
205.8	34
205.9	50
206.0	63
206.1	68
206.2	67
206.3	59
206.4	43
206.5	23
206.6	6
206.7	0
217.6	2
217.7	3
217.8	6
217.9	9
218.0	11
218.1	12
218.2	12
218.3	10
218.4	7
218.5	4
229.7	2
229.8	3
229.9	5
230.0	6
230.1	6
230.2	6
230.3	5
230.4	3
289.5	2
289.6	3
289.7	6
289.8	10
289.9	16
290.0	23
290.1	28
290.2	30
290.3	26
290.4	20
290.5	11
290.6	4
