Mass spectrum: 3-Hydroxyspirost-9(11)-en-12-one, 3-Ac ; LC-ESI-QQQ; MS2; Frag=135.0V CID@5.0 ; [M+H]+
Name: 3-Hydroxyspirost-9(11)-en-12-one, 3-Ac 
Class: Steroids
Formula: C29H42O5
Exact mass: 470.65509000000003
SMILES: CC(=O)OC1CC[C@]2(C)C3=CC(=O)[C@@]4(C)C(CC5O[C@]6(CCC(C)CO6)[C@@H](C)C54)C3CC[C@H]2C1
InChI: InChI=1S/C29H42O5/c1-16-8-11-29(32-15-16)17(2)26-24(34-29)13-23-21-7-6-19-12-20(33-18(3)30)9-10-27(19,4)22(21)14-25(31)28(23,26)5/h14,16-17,19-21,23-24,26H,6-13,15H2,1-5H3/t16?,17-,19-,20?,21?,23?,24?,26?,27-,28+,29+/m0/s1
Instrument: Agilent 6410 Triple Quadrupole LC/MS system
Instrument type: LC-ESI-QQQ
Ms type: MS2
Ion mode: POSITIVE
Precursor type: [M+H]+
m/z	relative intensity
470.4	1
470.5	2
470.6	5
470.7	9
470.8	16
470.9	29
471.0	48
471.1	69
471.2	86
471.3	97
471.4	99
471.5	89
471.6	66
471.7	35
471.8	9
471.9	0
