Mass spectrum: Glycocitridine; LC-ESI-QQQ; MS2; Frag=135.0V CID@15.0; [M+H]+
Name: Glycocitridine
Class: Alkaloids
Formula: C13H13NO5
Exact mass: 263.2523
SMILES: COc1ccc2c(OC)c(C=O)c(O)nc2c1OC
InChI: InChI=1S/C13H13NO5/c1-17-9-5-4-7-10(12(9)19-3)14-13(16)8(6-15)11(7)18-2/h4-6H,1-3H3,(H,14,16)
Instrument: Agilent 6410 Triple Quadrupole LC/MS system
Instrument type: LC-ESI-QQQ
Ms type: MS2
Ion mode: POSITIVE
Precursor type: [M+H]+
m/z	relative intensity
219.5	2
219.6	4
219.7	7
219.8	10
219.9	14
220.0	17
220.1	19
220.2	19
220.3	16
220.4	11
220.5	5
220.6	1
233.4	2
233.5	4
233.6	6
233.7	11
233.8	18
233.9	25
234.0	29
234.1	30
234.2	27
234.3	21
234.4	12
234.5	4
234.6	0
248.6	5
248.7	8
248.8	12
248.9	18
249.0	23
249.1	26
249.2	25
249.3	20
249.4	13
249.5	5
249.6	0
261.5	1
261.6	2
261.7	4
261.8	5
261.9	6
262.0	8
262.1	10
262.2	11
262.3	9
262.4	6
262.5	2
263.2	1
263.3	2
263.4	5
263.5	10
263.6	18
263.7	30
263.8	49
263.9	72
264.0	90
264.1	99
264.2	97
264.3	84
264.4	60
264.5	31
264.6	7
264.7	0
