Mass spectrum: Galantamine; LC-ESI-QQQ; MS2; Frag=135.0V CID@25.0; [M+H]+
Name: Galantamine
Class: Benzopyranoids
Formula: C17H21NO3
Exact mass: 287.3618
SMILES: COc1ccc2c3c1OC1CC(O)C=C[C@@]31CCN(C)C2
InChI: InChI=1S/C17H21NO3/c1-18-8-7-17-6-5-12(19)9-14(17)21-16-13(20-2)4-3-11(10-18)15(16)17/h3-6,12,14,19H,7-10H2,1-2H3/t12?,14?,17-/m0/s1
Instrument: Agilent 6410 Triple Quadrupole LC/MS system
Instrument type: LC-ESI-QQQ
Ms type: MS2
Ion mode: POSITIVE
Precursor type: [M+H]+
m/z	relative intensity
54.6	1
54.7	3
54.8	4
54.9	5
55.0	6
55.1	6
55.2	5
55.3	4
55.4	3
57.6	2
57.7	4
57.8	6
57.9	8
58.0	9
58.1	10
58.2	9
58.3	8
58.4	5
58.5	3
174.6	1
174.7	3
174.8	4
174.9	6
175.0	8
175.1	8
175.2	8
175.3	8
175.4	6
175.5	3
178.8	2
178.9	3
179.0	4
179.1	5
179.2	5
179.3	5
179.4	3
180.6	1
180.7	2
180.8	4
180.9	6
181.0	8
181.1	9
181.2	9
181.3	8
181.4	7
181.8	5
181.9	8
182.0	10
182.1	11
182.2	10
182.3	9
182.4	7
182.5	3
184.8	2
184.9	4
185.0	5
185.1	6
185.2	7
185.3	6
185.4	5
185.5	3
196.7	2
196.8	4
196.9	6
197.0	7
197.1	7
197.2	7
197.3	8
197.4	8
197.5	9
197.6	12
197.7	19
197.8	31
197.9	43
198.0	52
198.1	56
198.2	55
198.3	48
198.4	35
198.5	18
198.6	5
202.7	2
202.8	3
202.9	5
203.0	6
203.1	7
203.2	7
203.3	6
203.4	5
203.5	2
212.2	1
212.3	2
212.4	5
212.5	10
212.6	18
212.7	30
212.8	49
212.9	71
213.0	89
213.1	99
213.2	99
213.3	90
213.4	70
213.5	41
213.6	14
213.7	0
224.7	2
224.8	3
224.9	5
225.0	7
225.1	7
225.2	7
225.3	6
225.4	5
225.5	3
230.6	1
230.7	3
230.8	5
230.9	7
231.0	10
231.1	11
231.2	11
231.3	9
231.4	7
231.5	3
