Mass spectrum: Cyclogaleginoside A.; LC-ESI-QQQ; MS2; Frag=135.0V CID@5.0; [M+H]+
Name: Cyclogaleginoside A.
Class: Terpenoids
Formula: C37H60O10
Exact mass: 664.8848
SMILES: CC(=O)O[C@H]1[C@H](OC2CC[C@]34C[C@]35CC[C@]3(C)C([C@@]6(C)CC[C@@H](C(C)(C)O)O6)[C@@H](O)C[C@@]3(C)C5C[C@H](O)C4C2(C)C)OC[C@@H](O)[C@@H]1O
InChI: InChI=1S/C37H60O10/c1-19(38)45-27-26(42)22(41)17-44-30(27)46-24-10-12-37-18-36(37)14-13-33(6)29(35(8)11-9-25(47-35)32(4,5)43)21(40)16-34(33,7)23(36)15-20(39)28(37)31(24,2)3/h20-30,39-43H,9-18H2,1-8H3/t20-,21-,22+,23?,24?,25-,26-,27+,28?,29?,30-,33+,34-,35+,36-,37+/m0/s1
Instrument: Agilent 6410 Triple Quadrupole LC/MS system
Instrument type: LC-ESI-QQQ
Ms type: MS2
Ion mode: POSITIVE
Precursor type: [M+H]+
m/z	relative intensity
142.4	2
142.5	4
142.6	7
142.7	12
142.8	21
142.9	37
143.0	57
143.1	73
143.2	73
143.3	55
143.4	29
143.5	8
143.6	0
156.6	1
156.7	4
156.8	8
156.9	13
157.0	16
157.1	16
157.2	12
157.3	6
157.4	1
174.1	1
174.2	3
174.3	5
174.4	6
174.5	8
174.6	15
174.7	31
174.8	57
174.9	83
175.0	98
175.1	99
175.2	90
175.3	70
175.4	43
175.5	16
175.6	1
437.0	3
437.1	4
437.2	8
437.3	14
437.4	17
437.5	14
437.6	7
437.7	1
455.0	4
455.1	5
455.2	8
455.3	12
455.4	16
455.5	15
455.6	9
455.7	3
473.0	1
473.1	3
473.2	5
473.3	7
473.4	7
473.5	5
473.6	2
664.2	0
664.3	1
664.4	6
664.5	12
664.6	15
664.7	12
664.8	9
664.9	14
665.0	29
665.1	48
665.2	61
665.3	61
665.4	54
665.5	50
665.6	49
665.7	41
665.8	24
665.9	6
666.0	0
