Mass spectrum: Galanthamine; LC-ESI-QQQ; MS2; Frag=135.0V CID@15.0; [M+H]+
Name: Galanthamine
Class: Alkaloids
Formula: C17H21NO3
Exact mass: 287.3618
SMILES: COc1ccc2c3c1O[C@H]1C[C@@H](O)C=C[C@@]31CCN(C)C2
InChI: InChI=1S/C17H21NO3/c1-18-8-7-17-6-5-12(19)9-14(17)21-16-13(20-2)4-3-11(10-18)15(16)17/h3-6,12,14,19H,7-10H2,1-2H3/t12-,14-,17-/m0/s1
Instrument: Agilent 6410 Triple Quadrupole LC/MS system
Instrument type: LC-ESI-QQQ
Ms type: MS2
Ion mode: POSITIVE
Precursor type: [M+H]+
m/z	relative intensity
57.5	2
57.6	3
57.7	5
57.8	8
57.9	11
58.0	13
58.1	14
58.2	14
58.3	12
58.4	9
58.5	5
58.6	1
196.6	1
196.7	2
196.8	4
196.9	6
197.0	8
197.1	9
197.2	9
197.3	7
197.4	6
197.8	4
197.9	6
198.0	8
198.1	9
198.2	9
198.3	8
198.4	6
202.8	2
202.9	4
203.0	5
203.1	6
203.2	6
203.3	6
203.4	4
203.5	2
208.6	2
208.7	4
208.8	6
208.9	8
209.0	11
209.1	13
209.2	13
209.3	12
209.4	9
209.5	5
209.6	2
212.3	1
212.4	3
212.5	8
212.6	15
212.7	27
212.8	44
212.9	67
213.0	87
213.1	99
213.2	99
213.3	86
213.4	62
213.5	34
213.6	9
213.7	0
224.4	1
224.5	2
224.6	5
224.7	9
224.8	14
224.9	20
225.0	25
225.1	28
225.2	29
225.3	25
225.4	19
225.5	10
225.6	3
230.3	0
230.4	2
230.5	5
230.6	9
230.7	15
230.8	24
230.9	35
231.0	45
231.1	51
231.2	51
231.3	46
231.4	36
231.5	22
231.6	8
231.7	0
269.5	1
269.6	3
269.7	6
269.8	10
269.9	17
270.0	23
270.1	27
270.2	29
270.3	27
270.4	21
270.5	14
270.6	5
270.7	0
287.4	0
287.5	2
287.6	7
287.7	15
287.8	25
287.9	38
288.0	50
288.1	60
288.2	65
288.3	62
288.4	52
288.5	35
288.6	16
288.7	2
