Mass spectrum: Diversolide A.; LC-ESI-QQQ; MS2; Frag=135.0V CID@5.0; [M+H]+
Name: Diversolide A.
Class: Terpenoids
Formula: C25H30O7
Exact mass: 442.5136
SMILES: C/C=C(\C)C(=O)O[C@H]1CC(C)=C2C(=O)C=C(C)[C@@H]2[C@H]2OC(=O)[C@](C)(OC(=O)/C(C)=C/C)[C@H]12
InChI: InChI=1S/C25H30O7/c1-8-12(3)22(27)30-17-11-15(6)18-16(26)10-14(5)19(18)21-20(17)25(7,24(29)31-21)32-23(28)13(4)9-2/h8-10,17,19-21H,11H2,1-7H3/b12-8+,13-9+/t17-,19-,20+,21+,25+/m0/s1
Instrument: Agilent 6410 Triple Quadrupole LC/MS system
Instrument type: LC-ESI-QQQ
Ms type: MS2
Ion mode: POSITIVE
Precursor type: [M+H]+
m/z	relative intensity
82.2	1
82.3	2
82.4	4
82.5	7
82.6	12
82.7	21
82.8	34
82.9	46
83.0	53
83.1	55
83.2	52
83.3	44
83.4	30
83.5	14
83.6	2
242.2	0
242.3	2
242.4	7
242.5	14
242.6	23
242.7	34
242.8	50
242.9	70
243.0	89
243.1	99
243.2	95
243.3	76
243.4	48
243.5	21
243.6	3
342.6	2
342.7	4
342.8	10
342.9	18
343.0	25
343.1	30
343.2	29
343.3	24
343.4	15
343.5	6
343.6	1
360.6	2
360.7	3
360.8	6
360.9	9
361.0	12
361.1	16
361.2	18
361.3	18
361.4	14
361.5	7
361.6	2
442.6	1
442.7	3
442.8	5
442.9	7
443.0	9
443.1	12
443.2	15
443.3	16
443.4	13
443.5	8
443.6	2
