Mass spectrum: Podophyllotoxin; LC-ESI-QQQ; MS2; Frag=135.0V CID@5.0; [M+HCOO]-
Name: Podophyllotoxin
Class: Polycyclic aromatic natural products
Formula: C22H22O8
Exact mass: 414.4158
SMILES: COc1cc([C@@H]2c3cc4c(cc3[C@H](O)C3COC(=O)[C@@H]32)OCO4)cc(OC)c1OC
InChI: InChI=1S/C22H22O8/c1-25-16-4-10(5-17(26-2)21(16)27-3)18-11-6-14-15(30-9-29-14)7-12(11)20(23)13-8-28-22(24)19(13)18/h4-7,13,18-20,23H,8-9H2,1-3H3/t13?,18-,19+,20+/m1/s1
Instrument: Agilent 6410 Triple Quadrupole LC/MS system
Instrument type: LC-ESI-QQQ
Ms type: MS2
Ion mode: NEGATIVE
Precursor type: [M+HCOO]-
m/z	relative intensity
74.0	5
74.1	6
74.2	7
74.3	7
107.9	5
108.0	7
108.1	8
108.2	7
192.4	5
192.5	6
192.6	7
192.7	7
257.7	4
257.8	6
257.9	7
258.0	6
258.1	5
258.2	5
258.3	5
258.4	6
258.5	7
258.6	7
258.7	6
258.8	5
258.9	5
259.0	5
259.1	6
259.2	6
259.3	5
259.4	5
259.5	5
259.6	6
259.7	7
259.8	7
259.9	7
269.8	5
269.9	6
270.0	7
270.1	7
285.2	5
285.3	6
285.4	7
285.5	7
285.6	6
285.7	5
285.8	5
285.9	5
286.0	6
286.1	6
286.2	5
286.3	5
286.4	4
286.5	5
286.6	6
286.7	7
286.8	6
286.9	5
287.0	5
287.1	5
287.2	6
287.3	7
287.4	6
287.5	5
287.6	4
287.7	4
287.8	5
287.9	6
288.0	7
288.1	6
288.2	5
288.3	4
288.4	5
288.5	6
288.6	6
288.7	6
288.8	5
288.9	4
289.0	5
289.1	6
289.2	6
289.3	7
289.4	6
289.5	5
289.6	5
289.7	5
289.8	6
289.9	7
290.0	6
379.9	5
380.0	6
380.1	7
380.2	7
382.6	6
382.7	7
382.8	8
382.9	10
383.0	11
383.1	10
383.2	8
383.3	7
399.8	5
399.9	6
400.0	8
400.1	8
413.2	5
413.3	6
413.4	7
413.5	6
430.5	4
430.6	7
430.7	13
430.8	22
430.9	33
431.0	36
431.1	28
431.2	16
431.3	7
442.6	5
442.7	6
442.8	7
442.9	7
450.3	4
450.4	6
450.5	7
450.6	7
458.2	4
458.3	4
458.4	10
458.5	27
458.6	47
458.7	57
458.8	50
458.9	42
459.0	55
459.1	82
459.2	93
459.3	69
459.4	29
459.5	3
459.7	1
459.8	4
459.9	5
460.0	6
460.1	7
460.2	7
460.3	6
460.4	5
460.5	4
460.6	5
460.7	6
460.8	6
460.9	6
461.0	5
461.1	5
461.2	5
461.3	6
461.4	7
461.5	6
461.6	5
461.7	4
461.8	5
461.9	6
462.0	7
462.1	7
462.2	6
462.3	5
462.4	4
462.5	5
462.6	6
462.7	7
462.8	6
462.9	5
463.0	4
463.1	4
463.2	5
463.3	6
463.4	6
463.5	6
463.6	5
463.7	5
463.8	6
463.9	6
464.0	7
464.1	6
464.2	5
464.3	4
464.4	4
464.5	5
464.6	6
464.7	6
464.8	5
464.9	4
465.0	5
465.1	6
465.2	7
465.3	7
491.9	4
492.0	6
492.1	8
492.2	7
495.1	4
495.2	6
495.3	7
495.4	7
495.5	6
495.6	5
495.7	5
495.8	6
495.9	7
496.0	7
570.0	4
570.1	6
570.2	7
570.3	7
570.4	5
570.5	5
570.6	5
570.7	5
570.8	6
570.9	6
571.0	5
571.1	4
571.2	4
571.3	5
571.4	6
571.5	7
571.6	6
571.7	5
571.8	4
571.9	5
572.0	6
572.1	6
572.2	6
572.3	5
572.4	4
572.5	4
572.6	5
572.7	6
572.8	7
572.9	6
573.0	5
573.1	4
573.2	5
573.3	6
573.4	6
573.5	6
573.6	5
573.7	4
573.8	4
573.9	6
574.0	7
574.1	7
591.1	5
591.2	6
591.3	7
591.4	7
