Mass spectrum: 1alpha-Hydroxy-1-desoxotamirin; LC-ESI-QQQ; MS2; Frag=135.0V CID@10.0; [M+H]+
Name: 1alpha-Hydroxy-1-desoxotamirin
Class: Terpenoids
Formula: C15H20O4
Exact mass: 264.3243
SMILES: C=C1C(=O)O[C@H]2CC(=C)[C@H](O)CC/C(C)=C/[C@@H](O)C12
InChI: InChI=1S/C15H20O4/c1-8-4-5-11(16)9(2)7-13-14(12(17)6-8)10(3)15(18)19-13/h6,11-14,16-17H,2-5,7H2,1H3/b8-6+/t11-,12-,13+,14?/m1/s1
Instrument: Agilent 6410 Triple Quadrupole LC/MS system
Instrument type: LC-ESI-QQQ
Ms type: MS2
Ion mode: POSITIVE
Precursor type: [M+H]+
m/z	relative intensity
80.3	1
80.4	2
80.5	4
80.6	7
80.7	11
80.8	15
80.9	19
81.0	23
81.1	25
81.2	22
81.3	15
81.4	7
81.5	2
90.4	1
90.5	3
90.6	6
90.7	8
90.8	8
90.9	7
91.0	7
91.1	6
91.2	5
91.3	3
92.4	2
92.5	3
92.6	5
92.7	6
92.8	9
92.9	11
93.0	13
93.1	12
93.2	8
93.3	4
94.5	1
94.6	3
94.7	7
94.8	11
94.9	13
95.0	12
95.1	10
95.2	8
95.3	6
95.4	3
96.7	2
96.8	3
96.9	5
97.0	6
97.1	7
97.2	8
97.3	8
97.4	6
97.5	4
104.4	1
104.5	3
104.6	6
104.7	9
104.8	11
104.9	12
105.0	12
105.1	9
105.2	6
105.3	3
106.6	2
106.7	5
106.8	12
106.9	20
107.0	23
107.1	21
107.2	15
107.3	9
107.4	6
107.5	3
108.6	1
108.7	2
108.8	4
108.9	6
109.0	7
109.1	6
109.2	4
109.3	2
118.5	0
118.6	1
118.7	4
118.8	8
118.9	11
119.0	10
119.1	7
119.2	4
120.7	2
120.8	3
120.9	5
121.0	6
121.1	5
121.2	3
122.3	2
122.4	3
122.5	6
122.6	9
122.7	13
122.8	18
122.9	23
123.0	28
123.1	32
123.2	32
123.3	25
123.4	14
123.5	4
130.3	0
130.4	1
130.5	5
130.6	11
130.7	15
130.8	14
130.9	9
131.0	5
132.4	2
132.5	4
132.6	8
132.7	19
132.8	35
132.9	48
133.0	54
133.1	54
133.2	48
133.3	38
133.4	23
133.5	8
133.6	0
142.4	1
142.5	2
142.6	5
142.7	7
142.8	11
142.9	17
143.0	23
143.1	24
143.2	20
143.3	13
143.4	7
143.5	3
144.3	3
144.4	5
144.5	6
144.6	8
144.7	8
144.8	8
144.9	9
145.0	12
145.1	14
145.2	14
145.3	9
145.4	4
146.7	2
146.8	4
146.9	5
147.0	6
147.1	6
147.2	4
147.3	3
150.4	2
150.5	4
150.6	9
150.7	17
150.8	25
150.9	29
151.0	29
151.1	28
151.2	27
151.3	25
151.4	21
151.5	15
151.6	7
151.7	1
156.6	1
156.7	3
156.8	5
156.9	8
157.0	10
157.1	10
157.2	9
157.3	7
157.4	4
157.5	2
158.7	2
158.8	4
158.9	6
159.0	8
159.1	7
159.2	6
159.3	4
159.4	2
160.8	2
160.9	4
161.0	6
161.1	6
161.2	5
161.3	3
170.9	1
171.0	3
171.1	5
171.2	6
171.3	5
171.4	2
172.3	1
172.4	2
172.5	4
172.6	6
172.7	11
172.8	17
172.9	24
173.0	31
173.1	32
173.2	27
173.3	18
173.4	8
173.5	1
182.4	0
182.5	3
182.6	10
182.7	19
182.8	29
182.9	40
183.0	49
183.1	55
183.2	53
183.3	40
183.4	22
183.5	7
183.6	0
186.7	1
186.8	3
186.9	6
187.0	7
187.1	7
187.2	6
187.3	3
188.8	2
188.9	4
189.0	6
189.1	7
189.2	5
189.3	2
192.6	1
192.7	2
192.8	4
192.9	6
193.0	7
193.1	7
193.2	7
193.3	6
193.4	3
200.2	1
200.3	3
200.4	7
200.5	12
200.6	16
200.7	22
200.8	34
200.9	53
201.0	76
201.1	95
201.2	99
201.3	86
201.4	59
201.5	30
201.6	8
201.7	0
210.7	2
210.8	5
210.9	9
211.0	11
211.1	11
211.2	9
211.3	7
211.4	5
211.5	3
218.4	0
218.5	2
218.6	6
218.7	10
218.8	13
218.9	14
219.0	16
219.1	17
219.2	18
219.3	16
219.4	10
219.5	5
219.6	1
228.3	1
228.4	3
228.5	4
228.6	7
228.7	12
228.8	22
228.9	36
229.0	47
229.1	54
229.2	55
229.3	47
229.4	33
229.5	16
229.6	3
246.6	0
246.7	2
246.8	6
246.9	14
247.0	21
247.1	23
247.2	19
247.3	11
247.4	4
264.9	2
265.0	4
265.1	5
265.2	6
265.3	7
265.4	8
265.5	6
265.6	3
