Mass spectrum: 3-Hydroxyspirost-9(11)-en-12-one, 3-Ac ; LC-ESI-QQQ; MS2; Frag=135.0V CID@25.0 ; [M+H]+
Name: 3-Hydroxyspirost-9(11)-en-12-one, 3-Ac 
Class: Steroids
Formula: C29H42O5
Exact mass: 470.65509000000003
SMILES: CC(=O)OC1CC[C@]2(C)C3=CC(=O)[C@@]4(C)C(CC5O[C@]6(CCC(C)CO6)[C@@H](C)C54)C3CC[C@H]2C1
InChI: InChI=1S/C29H42O5/c1-16-8-11-29(32-15-16)17(2)26-24(34-29)13-23-21-7-6-19-12-20(33-18(3)30)9-10-27(19,4)22(21)14-25(31)28(23,26)5/h14,16-17,19-21,23-24,26H,6-13,15H2,1-5H3/t16?,17-,19-,20?,21?,23?,24?,26?,27-,28+,29+/m0/s1
Instrument: Agilent 6410 Triple Quadrupole LC/MS system
Instrument type: LC-ESI-QQQ
Ms type: MS2
Ion mode: POSITIVE
Precursor type: [M+H]+
m/z	relative intensity
56.5	1
56.6	3
56.7	5
56.8	7
56.9	7
57.0	5
57.1	3
68.4	2
68.5	3
68.6	5
68.7	9
68.8	14
68.9	20
69.0	26
69.1	30
69.2	32
69.3	28
69.4	18
69.5	7
69.6	1
80.8	2
80.9	3
81.0	5
81.1	7
81.2	7
81.3	6
81.4	3
84.6	1
84.7	3
84.8	5
84.9	6
85.0	7
85.1	8
85.2	9
85.3	7
85.4	3
92.6	1
92.7	3
92.8	5
92.9	6
93.0	6
93.1	4
94.5	1
94.6	3
94.7	6
94.8	11
94.9	16
95.0	20
95.1	22
95.2	20
95.3	13
95.4	6
95.5	1
96.6	0
96.7	3
96.8	8
96.9	12
97.0	13
97.1	11
97.2	7
97.3	4
97.4	2
98.9	2
99.0	3
99.1	5
99.2	5
99.3	5
99.4	3
104.7	1
104.8	4
104.9	7
105.0	8
105.1	7
105.2	5
105.3	3
106.6	1
106.7	4
106.8	10
106.9	22
107.0	33
107.1	38
107.2	34
107.3	25
107.4	16
107.5	8
107.6	2
108.4	1
108.5	3
108.6	7
108.7	12
108.8	17
108.9	25
109.0	32
109.1	38
109.2	39
109.3	34
109.4	24
109.5	11
109.6	2
114.5	2
114.6	3
114.7	5
114.8	5
114.9	5
115.0	4
115.1	3
115.2	3
115.3	2
115.4	2
115.5	1
115.6	1
115.7	0
115.8	0
115.9	0
116.0	0
116.1	0
116.2	0
116.3	0
116.4	0
116.5	1
116.6	1
116.7	1
116.8	1
116.9	1
117.0	3
117.1	5
117.2	6
117.3	5
117.4	3
120.4	0
120.5	2
120.6	9
120.7	20
120.8	30
120.9	37
121.0	39
121.1	35
121.2	27
121.3	18
121.4	9
121.5	3
122.5	0
122.6	1
122.7	5
122.8	13
122.9	18
123.0	17
123.1	12
123.2	7
123.3	4
123.4	3
124.6	3
124.7	4
124.8	9
124.9	19
125.0	30
125.1	38
125.2	41
125.3	36
125.4	24
125.5	12
125.6	3
128.6	1
128.7	2
128.8	4
128.9	4
129.0	4
129.1	2
129.2	2
129.3	2
129.4	2
129.5	1
129.6	0
129.7	0
129.8	0
129.9	0
130.0	0
130.1	0
130.2	0
130.3	0
130.4	1
130.5	2
130.6	2
130.7	2
130.8	1
130.9	1
131.0	1
131.1	1
131.2	2
131.3	2
131.4	1
131.5	1
131.6	0
131.7	0
131.8	0
131.9	0
132.0	0
132.1	0
132.2	0
132.3	0
132.4	0
132.5	1
132.6	1
132.7	1
132.8	1
132.9	1
133.0	4
133.1	7
133.2	11
133.3	12
133.4	8
133.5	3
134.5	1
134.6	2
134.7	5
134.8	9
134.9	12
135.0	13
135.1	12
135.2	11
135.3	9
135.4	6
135.5	3
136.7	1
136.8	3
136.9	4
137.0	6
137.1	5
137.2	4
138.6	1
138.7	2
138.8	4
138.9	6
139.0	7
139.1	5
139.2	3
144.5	1
144.6	3
144.7	7
144.8	14
144.9	20
145.0	22
145.1	21
145.2	20
145.3	17
145.4	11
145.5	4
146.4	0
146.5	2
146.6	5
146.7	10
146.8	16
146.9	21
147.0	24
147.1	26
147.2	28
147.3	28
147.4	22
147.5	13
147.6	5
147.7	1
148.5	1
148.6	3
148.7	4
148.8	5
148.9	6
149.0	6
149.1	7
149.2	7
149.3	6
149.4	5
149.5	3
150.5	1
150.6	3
150.7	7
150.8	9
150.9	10
151.0	8
151.1	6
151.2	4
156.6	1
156.7	2
156.8	4
156.9	7
157.0	8
157.1	8
157.2	6
157.3	5
157.4	4
157.5	3
158.4	0
158.5	2
158.6	6
158.7	12
158.8	18
158.9	22
159.0	26
159.1	30
159.2	35
159.3	35
159.4	25
159.5	11
159.6	1
160.6	2
160.7	5
160.8	11
160.9	18
161.0	22
161.1	21
161.2	18
161.3	16
161.4	13
161.5	8
161.6	2
164.4	0
164.5	0
164.6	4
164.7	13
164.8	23
164.9	30
165.0	33
165.1	32
165.2	30
165.3	29
165.4	24
165.5	14
165.6	5
168.5	1
168.6	2
168.7	4
168.8	7
168.9	12
169.0	15
169.1	14
169.2	12
169.3	9
169.4	6
169.5	3
170.4	1
170.5	2
170.6	5
170.7	8
170.8	10
170.9	12
171.0	14
171.1	17
171.2	19
171.3	19
171.4	14
171.5	6
171.6	1
172.5	2
172.6	4
172.7	11
172.8	24
172.9	37
173.0	40
173.1	33
173.2	23
173.3	17
173.4	14
173.5	9
173.6	3
174.6	0
174.7	1
174.8	4
174.9	9
175.0	14
175.1	15
175.2	13
175.3	8
175.4	3
177.0	3
177.1	5
177.2	7
177.3	7
177.4	5
177.5	2
180.4	1
180.5	3
180.6	5
180.7	9
180.8	16
180.9	24
181.0	28
181.1	27
181.2	24
181.3	19
181.4	11
181.5	3
182.5	1
182.6	3
182.7	6
182.8	9
182.9	13
183.0	16
183.1	17
183.2	16
183.3	14
183.4	13
183.5	10
183.6	5
183.7	1
184.3	2
184.4	4
184.5	7
184.6	11
184.7	16
184.8	20
184.9	24
185.0	29
185.1	34
185.2	34
185.3	27
185.4	16
185.5	6
185.6	0
186.5	2
186.6	3
186.7	4
186.8	5
186.9	7
187.0	10
187.1	12
187.2	12
187.3	12
187.4	12
187.5	10
187.6	6
187.7	2
188.5	0
188.6	1
188.7	4
188.8	12
188.9	20
189.0	25
189.1	22
189.2	14
189.3	8
189.4	5
189.5	3
190.6	1
190.7	4
190.8	9
190.9	15
191.0	20
191.1	20
191.2	17
191.3	14
191.4	11
191.5	8
191.6	4
192.7	1
192.8	3
192.9	8
193.0	13
193.1	17
193.2	17
193.3	14
193.4	8
193.5	3
194.6	1
194.7	3
194.8	6
194.9	10
195.0	13
195.1	14
195.2	14
195.3	13
195.4	9
195.5	5
195.6	1
196.5	2
196.6	4
196.7	7
196.8	9
196.9	11
197.0	16
197.1	22
197.2	25
197.3	21
197.4	12
197.5	4
198.5	0
198.6	2
198.7	8
198.8	15
198.9	20
199.0	22
199.1	24
199.2	26
199.3	23
199.4	15
199.5	5
199.6	0
200.6	1
200.7	3
200.8	8
200.9	16
201.0	23
201.1	26
201.2	25
201.3	23
201.4	19
201.5	13
201.6	6
201.7	0
202.6	1
202.7	2
202.8	6
202.9	11
203.0	14
203.1	14
203.2	13
203.3	13
203.4	13
203.5	10
203.6	5
203.7	1
208.7	1
208.8	4
208.9	11
209.0	17
209.1	19
209.2	16
209.3	11
209.4	7
209.5	4
210.6	1
210.7	4
210.8	9
210.9	17
211.0	23
211.1	26
211.2	23
211.3	16
211.4	8
211.5	2
212.7	1
212.8	4
212.9	7
213.0	8
213.1	8
213.2	9
213.3	13
213.4	14
213.5	10
213.6	4
214.6	2
214.7	3
214.8	5
214.9	10
215.0	17
215.1	22
215.2	22
215.3	15
215.4	7
215.5	2
222.2	0
222.3	2
222.4	4
222.5	6
222.6	5
223.0	3
223.1	5
223.2	8
223.3	11
223.4	10
223.5	6
223.6	1
224.5	3
224.6	4
224.7	6
224.8	9
224.9	11
225.0	13
225.1	15
225.2	17
225.3	18
225.4	15
225.5	9
225.6	4
228.5	0
228.6	1
228.7	6
228.8	18
228.9	32
229.0	42
229.1	44
229.2	38
229.3	28
229.4	17
229.5	8
229.6	2
236.7	1
236.8	4
236.9	7
237.0	8
237.1	8
237.2	6
237.3	4
237.4	2
238.7	3
238.8	4
238.9	7
239.0	9
239.1	10
239.2	12
239.3	14
239.4	16
239.5	14
239.6	8
239.7	2
240.7	1
240.8	4
240.9	7
241.0	8
241.1	7
248.6	2
248.7	4
248.8	6
248.9	8
249.0	10
249.1	11
249.2	10
249.3	7
249.4	4
250.9	4
251.0	6
251.1	8
251.2	8
251.3	6
251.4	3
252.7	1
252.8	2
252.9	5
253.0	7
253.1	8
253.2	7
253.3	6
253.4	4
254.1	1
254.2	3
254.3	5
254.4	5
266.3	0
266.4	2
266.5	5
266.6	7
266.7	10
266.8	14
266.9	20
267.0	30
267.1	39
267.2	44
267.3	45
267.4	41
267.5	31
267.6	17
267.7	5
267.8	0
268.5	0
268.6	2
268.7	4
268.8	7
268.9	11
269.0	13
269.1	13
269.2	12
269.3	10
269.4	7
269.5	3
270.8	1
270.9	2
271.0	4
271.1	6
271.2	6
271.3	4
274.7	1
274.8	3
274.9	5
275.0	6
275.1	7
275.2	6
275.3	4
275.4	3
278.6	5
278.7	7
278.8	13
278.9	24
279.0	37
279.1	46
279.2	50
279.3	48
279.4	44
279.5	34
279.6	20
279.7	6
279.8	0
280.9	1
281.0	3
281.1	5
281.2	6
281.3	6
281.4	4
296.6	0
296.7	1
296.8	6
296.9	15
297.0	27
297.1	38
297.2	43
297.3	39
297.4	28
297.5	16
297.6	7
297.7	2
298.6	1
298.7	4
298.8	8
298.9	8
299.0	6
299.1	3
326.7	0
326.8	2
326.9	8
327.0	15
327.1	17
327.2	13
327.3	9
327.4	6
327.5	4
327.6	3
336.7	2
336.8	4
336.9	8
337.0	11
337.1	14
337.2	17
337.3	19
337.4	17
337.5	11
337.6	5
337.7	1
344.8	1
344.9	3
345.0	4
345.1	6
345.2	5
345.3	4
356.3	1
356.4	2
356.5	4
356.6	6
356.7	8
356.8	11
356.9	17
357.0	29
357.1	45
357.2	60
357.3	69
357.4	69
357.5	59
357.6	39
357.7	16
357.8	1
374.6	1
374.7	3
374.8	6
374.9	12
375.0	17
375.1	19
375.2	17
375.3	14
375.4	9
375.5	5
375.6	1
392.7	2
392.8	2
392.9	8
393.0	22
393.1	37
393.2	45
393.3	44
393.4	37
393.5	28
393.6	16
393.7	5
393.8	0
434.6	1
434.7	3
434.8	8
434.9	16
435.0	23
435.1	29
435.2	35
435.3	40
435.4	39
435.5	29
435.6	15
435.7	4
452.3	1
452.4	3
452.5	8
452.6	13
452.7	15
452.8	17
452.9	25
453.0	42
453.1	63
453.2	83
453.3	97
453.4	99
453.5	83
453.6	51
453.7	17
453.8	0
471.0	3
471.1	4
471.2	5
471.3	6
471.4	6
471.5	6
471.6	4
471.7	2
