Mass spectrum: 7-Hydroxy-4-methyl-2H-1-benzopyran-2-one, 9CI, O-beta-D-Glucopyranoside; LC-ESI-QQQ; MS2; Frag=135.0V CID@5.0; [M+H]+
Name: 7-Hydroxy-4-methyl-2H-1-benzopyran-2-one, 9CI, O-beta-D-Glucopyranoside
Class: Benzopyranoids
Formula: C16H18O8
Exact mass: 338.3171
SMILES: Cc1cc(=O)oc2cc(O[C@@H]3O[C@H](CO)[C@@H](O)[C@H](O)[C@H]3O)ccc12
InChI: InChI=1S/C16H18O8/c1-7-4-12(18)23-10-5-8(2-3-9(7)10)22-16-15(21)14(20)13(19)11(6-17)24-16/h2-5,11,13-17,19-21H,6H2,1H3/t11-,13-,14+,15-,16-/m1/s1
Instrument: Agilent 6410 Triple Quadrupole LC/MS system
Instrument type: LC-ESI-QQQ
Ms type: MS2
Ion mode: POSITIVE
Precursor type: [M+H]+
m/z	relative intensity
176.2	0
176.3	2
176.4	6
176.5	13
176.6	25
176.7	41
176.8	60
176.9	79
177.0	93
177.1	99
177.2	97
177.3	86
177.4	64
177.5	35
177.6	10
177.7	0
338.5	1
338.6	2
338.7	4
338.8	7
338.9	10
339.0	14
339.1	16
339.2	16
339.3	14
339.4	9
339.5	4
339.6	0
