Mass spectrum: Ajugalide E; LC-ESI-QQQ; MS2; Frag=135.0V CID@15.0; [M+H]+
Name: Ajugalide E
Class: Terpenoids
Formula: C31H46O9
Exact mass: 562.7069
SMILES: CC(=O)O[C@H](CC1C(C)OC(=O)C1C)[C@](C)(O)C1CC[C@@]2(O)C3=CC(=O)[C@@H]4C[C@@H](O)C(O)C[C@]4(C)C3CC[C@]12C
InChI: InChI=1S/C31H46O9/c1-15-18(16(2)39-27(15)36)11-26(40-17(3)32)30(6,37)25-8-10-31(38)20-12-22(33)21-13-23(34)24(35)14-28(21,4)19(20)7-9-29(25,31)5/h12,15-16,18-19,21,23-26,34-35,37-38H,7-11,13-14H2,1-6H3/t15?,16?,18?,19?,21-,23+,24?,25?,26+,28+,29+,30+,31+/m0/s1
Instrument: Agilent 6410 Triple Quadrupole LC/MS system
Instrument type: LC-ESI-QQQ
Ms type: MS2
Ion mode: POSITIVE
Precursor type: [M+H]+
m/z	relative intensity
182.3	1
182.4	3
182.5	5
182.6	7
182.7	9
182.8	13
182.9	17
183.0	19
183.1	18
183.2	17
183.3	16
183.4	12
183.5	6
183.6	1
200.8	0
200.9	2
201.0	4
201.1	4
201.2	4
201.3	3
201.4	2
242.7	1
242.8	2
242.9	3
243.0	4
243.1	3
278.6	0
278.7	2
278.8	3
278.9	5
279.0	5
279.1	5
279.2	3
279.3	2
280.8	1
280.9	3
281.0	5
281.1	6
281.2	5
281.3	4
281.4	2
284.5	0
284.6	2
284.7	3
284.8	5
284.9	7
285.0	8
285.1	8
285.2	8
285.3	8
285.4	7
285.5	4
285.6	1
302.3	0
302.4	1
302.5	5
302.6	13
302.7	23
302.8	38
302.9	55
303.0	73
303.1	89
303.2	98
303.3	99
303.4	87
303.5	60
303.6	27
303.7	3
430.5	1
430.6	3
430.7	5
430.8	8
430.9	11
431.0	13
431.1	16
431.2	18
431.3	20
431.4	19
431.5	14
431.6	7
431.7	1
448.6	1
448.7	3
448.8	7
448.9	14
449.0	24
449.1	35
449.2	42
449.3	42
449.4	36
449.5	25
449.6	13
449.7	3
466.4	0
466.5	2
466.6	4
466.7	7
466.8	10
466.9	13
467.0	19
467.1	26
467.2	31
467.3	29
467.4	21
467.5	10
467.6	2
484.5	0
484.6	2
484.7	3
484.8	6
484.9	8
485.0	11
485.1	13
485.2	15
485.3	17
485.4	17
485.5	14
485.6	8
485.7	2
526.6	1
526.7	2
526.8	4
526.9	6
527.0	10
527.1	14
527.2	16
527.3	16
527.4	12
527.5	6
527.6	1
544.5	2
544.6	2
544.7	4
544.8	11
544.9	22
545.0	33
545.1	39
545.2	39
545.3	36
545.4	33
545.5	26
545.6	16
545.7	6
545.8	0
562.9	1
563.0	2
563.1	3
563.2	3
563.3	3
563.4	1
