Mass spectrum: Spirosol-5-en-3-ol; LC-ESI-QQQ; MS2; Frag=135.0V CID@25.0; [M+H]+
Name: Spirosol-5-en-3-ol
Class: Alkaloids
Formula: C27H43NO2
Exact mass: 413.6493
SMILES: CC1CC[C@@]2(NC1)O[C@H]1C[C@H]3[C@@H]4CC=C5CC(O)CC[C@]5(C)C4CC[C@]3(C)[C@H]1[C@@H]2C
InChI: InChI=1S/C27H43NO2/c1-16-7-12-27(28-15-16)17(2)24-23(30-27)14-22-20-6-5-18-13-19(29)8-10-25(18,3)21(20)9-11-26(22,24)4/h5,16-17,19-24,28-29H,6-15H2,1-4H3/t16?,17-,19?,20+,21?,22-,23-,24-,25-,26-,27+/m0/s1
Instrument: Agilent 6410 Triple Quadrupole LC/MS system
Instrument type: LC-ESI-QQQ
Ms type: MS2
Ion mode: POSITIVE
Precursor type: [M+H]+
m/z	relative intensity
252.8	2
252.9	4
253.0	6
253.1	8
253.2	9
253.3	9
253.4	8
253.5	6
253.6	2
270.8	2
270.9	4
271.0	5
271.1	7
271.2	7
271.3	7
271.4	6
271.5	4
271.6	1
395.8	2
395.9	3
396.0	6
396.1	10
396.2	14
396.3	16
396.4	16
396.5	15
396.6	11
396.7	6
396.8	1
413.4	1
413.5	2
413.6	5
413.7	8
413.8	12
413.9	21
414.0	37
414.1	59
414.2	82
414.3	97
414.4	99
414.5	89
414.6	66
414.7	37
414.8	12
414.9	0
