Mass spectrum: lycoperodine I; LC-ESI-QQQ; MS2; Frag=135.0V CID@5.0; [M+H]+
Name: lycoperodine I
Class: Flavonoids
Formula: C12H12N2O2
Exact mass: 216.2416
SMILES: O=C(O)[C@H]1Cc2c([nH]c3ccccc23)CN1
InChI: InChI=1S/C12H12N2O2/c15-12(16)10-5-8-7-3-1-2-4-9(7)14-11(8)6-13-10/h1-4,10,13-14H,5-6H2,(H,15,16)/t10-/m1/s1
Instrument: Agilent 6410 Triple Quadrupole LC/MS system
Instrument type: LC-ESI-QQQ
Ms type: MS2
Ion mode: POSITIVE
Precursor type: [M+H]+
m/z	relative intensity
143.2	0
143.3	3
143.4	6
143.5	12
143.6	19
143.7	32
143.8	52
143.9	74
144.0	91
144.1	99
144.2	99
144.3	89
144.4	66
144.5	37
144.6	10
144.7	0
216.3	1
216.4	3
216.5	5
216.6	8
216.7	14
216.8	25
216.9	40
217.0	52
217.1	58
217.2	58
217.3	53
217.4	43
217.5	27
217.6	10
217.7	0
