Mass spectrum: Zearalenol; LC-ESI-QQQ; MS2; Frag=135.0V CID@10.0; [M+H]+
Name: Zearalenol
Class: Carbohydrates
Formula: C18H24O5
Exact mass: 320.389
SMILES: C[C@H]1CCCC(O)CCC/C=C/c2cc(O)cc(O)c2C(=O)O1
InChI: InChI=1S/C18H24O5/c1-12-6-5-9-14(19)8-4-2-3-7-13-10-15(20)11-16(21)17(13)18(22)23-12/h3,7,10-12,14,19-21H,2,4-6,8-9H2,1H3/b7-3+/t12-,14?/m0/s1
Instrument: Agilent 6410 Triple Quadrupole LC/MS system
Instrument type: LC-ESI-QQQ
Ms type: MS2
Ion mode: POSITIVE
Precursor type: [M+H]+
m/z	relative intensity
80.7	2
80.8	3
80.9	4
81.0	5
81.1	5
81.2	5
81.3	4
120.9	4
121.0	5
121.1	6
121.2	7
121.3	7
121.4	5
121.5	2
134.6	2
134.7	4
134.8	6
134.9	7
135.0	8
135.1	8
135.2	7
135.3	7
135.4	5
135.5	2
174.5	1
174.6	3
174.7	5
174.8	9
174.9	12
175.0	15
175.1	15
175.2	12
175.3	9
175.4	5
175.5	2
176.4	1
176.5	2
176.6	5
176.7	8
176.8	12
176.9	16
177.0	18
177.1	20
177.2	19
177.3	17
177.4	11
177.5	4
188.5	2
188.6	3
188.7	5
188.8	10
188.9	15
189.0	19
189.1	20
189.2	18
189.3	14
189.4	8
189.5	2
200.7	2
200.8	5
200.9	8
201.0	10
201.1	9
201.2	6
201.3	3
202.6	2
202.7	4
202.8	7
202.9	10
203.0	12
203.1	12
203.2	12
203.3	10
203.4	7
203.5	4
214.5	1
214.6	3
214.7	7
214.8	11
214.9	14
215.0	15
215.1	14
215.2	12
215.3	8
215.4	5
215.5	2
216.5	3
216.6	5
216.7	6
216.8	8
216.9	10
217.0	11
217.1	10
217.2	9
217.3	8
217.4	6
217.5	3
228.6	2
228.7	4
228.8	6
228.9	9
229.0	12
229.1	13
229.2	12
229.3	10
229.4	7
229.5	4
232.7	1
232.8	2
232.9	4
233.0	5
233.1	4
233.2	4
233.3	3
233.4	2
233.5	1
233.6	0
233.7	0
233.8	0
233.9	0
234.0	0
234.1	0
234.2	0
234.3	0
234.4	0
234.5	0
234.6	0
234.7	0
234.8	0
234.9	0
235.0	0
235.1	0
235.2	0
235.3	0
235.4	0
235.5	0
235.6	0
235.7	0
235.8	0
235.9	0
236.0	0
236.1	0
236.2	0
236.3	0
236.4	0
236.5	0
236.6	0
236.7	0
236.8	0
236.9	0
237.0	0
237.1	0
237.2	0
237.3	0
237.4	0
237.5	0
237.6	0
237.7	0
237.8	0
237.9	0
238.0	0
238.1	0
238.2	0
238.3	0
238.4	0
238.5	0
238.6	0
238.7	0
238.8	1
238.9	1
239.0	1
239.1	0
239.2	0
239.3	0
239.4	0
239.5	0
239.6	0
239.7	0
239.8	0
239.9	0
240.0	0
240.1	0
240.2	0
240.3	0
240.4	0
240.5	0
240.6	0
240.7	0
240.8	0
240.9	0
241.0	0
241.1	0
241.2	0
241.3	0
241.4	0
241.5	0
241.6	0
241.7	0
241.8	0
241.9	0
242.0	0
242.1	0
242.2	0
242.3	0
242.4	0
242.5	0
242.6	0
242.7	1
242.8	1
242.9	1
243.0	1
243.1	2
243.2	3
243.3	3
243.4	2
243.5	1
243.6	0
243.7	0
243.8	0
243.9	0
244.0	0
244.1	0
244.2	0
244.3	0
244.4	0
244.5	0
244.6	0
244.7	0
244.8	0
244.9	0
245.0	0
245.1	0
245.2	0
245.3	0
245.4	0
245.5	0
245.6	0
245.7	0
245.8	0
245.9	0
246.0	0
246.1	0
246.2	0
246.3	0
246.4	0
246.5	0
246.6	0
246.7	0
246.8	1
246.9	1
247.0	1
247.1	1
247.2	1
247.3	0
247.4	0
247.5	0
247.6	0
247.7	0
247.8	0
247.9	0
248.0	0
248.1	0
248.2	0
248.3	0
248.4	0
248.5	0
248.6	0
248.7	0
248.8	1
248.9	1
249.0	1
249.1	0
249.2	0
249.3	0
249.4	0
249.5	0
249.6	0
249.7	0
249.8	0
249.9	0
250.0	0
250.1	0
250.2	0
250.3	0
250.4	0
250.5	0
250.6	0
250.7	0
250.8	0
250.9	0
251.0	0
251.1	0
251.2	0
251.3	0
251.4	0
251.5	0
251.6	0
251.7	0
251.8	0
251.9	0
252.0	0
252.1	0
252.2	0
252.3	0
252.4	0
252.5	0
252.6	0
252.7	0
252.8	0
252.9	0
253.0	0
253.1	0
253.2	0
253.3	0
253.4	0
253.5	0
253.6	0
253.7	0
253.8	0
253.9	0
254.0	0
254.1	0
254.2	0
254.3	0
254.4	0
254.5	0
254.6	0
254.7	0
254.8	0
254.9	0
255.0	0
255.1	0
255.2	0
255.3	0
255.4	0
255.5	0
255.6	0
255.7	0
255.8	0
255.9	0
256.0	0
256.1	0
256.2	0
256.3	0
256.4	0
256.5	0
256.6	1
256.7	2
256.8	4
256.9	7
257.0	11
257.1	14
257.2	15
257.3	15
257.4	12
257.5	7
257.6	2
258.7	1
258.8	3
258.9	4
259.0	5
259.1	6
259.2	6
259.3	5
259.4	4
266.5	1
266.6	2
266.7	5
266.8	10
266.9	19
267.0	29
267.1	37
267.2	38
267.3	33
267.4	25
267.5	14
267.6	5
267.7	0
284.2	0
284.3	2
284.4	5
284.5	9
284.6	12
284.7	20
284.8	36
284.9	61
285.0	86
285.1	99
285.2	99
285.3	89
285.4	71
285.5	45
285.6	18
285.7	0
302.5	3
302.6	6
302.7	11
302.8	18
302.9	27
303.0	37
303.1	44
303.2	46
303.3	41
303.4	31
303.5	18
303.6	6
303.7	0
320.6	1
320.7	2
320.8	5
320.9	7
321.0	7
321.1	8
321.2	8
321.3	9
321.4	8
321.5	6
321.6	3
