Mass spectrum: (+)-beta-Hydrastine; LC-ESI-QQQ; MS2; Frag=135.0V CID@15.0; [M+H]+
Name: (+)-beta-Hydrastine
Class: Alkaloids
Formula: C21H21NO6
Exact mass: 383.4046
SMILES: COc1ccc2c(c1OC)C(=O)O[C@H]2[C@@H]1c2cc3c(cc2CCN1C)OCO3
InChI: InChI=1S/C21H21NO6/c1-22-7-6-11-8-15-16(27-10-26-15)9-13(11)18(22)19-12-4-5-14(24-2)20(25-3)17(12)21(23)28-19/h4-5,8-9,18-19H,6-7,10H2,1-3H3/t18-,19+/m0/s1
Instrument: Agilent 6410 Triple Quadrupole LC/MS system
Instrument type: LC-ESI-QQQ
Ms type: MS2
Ion mode: POSITIVE
Precursor type: [M+H]+
m/z	relative intensity
189.3	2
189.4	3
189.5	5
189.6	10
189.7	19
189.8	32
189.9	47
190.0	60
190.1	67
190.2	67
190.3	59
190.4	44
190.5	25
190.6	8
190.7	0
322.3	3
322.4	4
322.5	7
322.6	12
322.7	22
322.8	37
322.9	56
323.0	73
323.1	82
323.2	82
323.3	73
323.4	53
323.5	29
323.6	8
323.7	0
334.6	1
334.7	3
334.8	5
334.9	8
335.0	10
335.1	12
335.2	11
335.3	10
335.4	7
335.5	3
383.2	0
383.3	1
383.4	4
383.5	7
383.6	11
383.7	18
383.8	30
383.9	50
384.0	72
384.1	91
384.2	99
384.3	96
384.4	79
384.5	51
384.6	22
384.7	2
