Mass spectrum: Guan-fu base Y; LC-ESI-QQQ; MS2; Frag=135.0V CID@10.0; [M+H]+
Name: Guanfu base Y
Name: 11,13,14-trihydroxyhetisan-2-yl acetate
Name: (1S,3S,16S,19S,10R,14R)-9,10,19-trihydroxy-5-methyl-12-methylene-7-azaheptacyclo(9.6.2.0(1,8).0(5,17).0(7,16).0(9,14).0(14,18))nonadec-3-yl acetate
Name: Guan-fu base Y
Class: Alkaloids
Formula: C22H29NO5
Exact mass: 387.4801
SMILES: C=C1C[C@@]23CC4C5C6(C)C[C@H](OC(C)=O)CC57C2[C@H](O)C1[C@@H](O)[C@]3(O)[C@H]7N4C6
InChI: InChI=1S/C22H29NO5/c1-9-4-20-7-12-15-19(3)5-11(28-10(2)24)6-21(15)16(20)14(25)13(9)17(26)22(20,27)18(21)23(12)8-19/h11-18,25-27H,1,4-8H2,2-3H3/t11-,12?,13?,14+,15?,16?,17+,18-,19?,20+,21?,22-/m0/s1
Instrument: Agilent 6410 Triple Quadrupole LC/MS system
Instrument type: LC-ESI-QQQ
Ms type: MS2
Ion mode: POSITIVE
Precursor type: [M+H]+
m/z	relative intensity
387.3	0
387.4	2
387.5	5
387.6	9
387.7	15
387.8	26
387.9	43
388.0	65
388.1	86
388.2	98
388.3	99
388.4	88
388.5	65
388.6	37
388.7	12
388.8	0
