Mass spectrum: angelicin; LC-ESI-QQQ; MS2; Frag=135.0V CID@15.0; [M+H]+
Name: angelicin
Class: Benzopyranoids
Formula: C11H6O3
Exact mass: 186.1687
SMILES: O=c1ccc2ccc3occc3c2o1
InChI: InChI=1S/C11H6O3/c12-10-4-2-7-1-3-9-8(5-6-13-9)11(7)14-10/h1-6H
Instrument: Agilent 6410 Triple Quadrupole LC/MS system
Instrument type: LC-ESI-QQQ
Ms type: MS2
Ion mode: POSITIVE
Precursor type: [M+H]+
m/z	relative intensity
114.6	1
114.7	2
114.8	3
114.9	5
115.0	6
115.1	6
115.2	6
115.3	5
115.4	3
130.3	1
130.4	3
130.5	9
130.6	17
130.7	28
130.8	41
130.9	53
131.0	60
131.1	61
131.2	57
131.3	48
131.4	34
131.5	17
131.6	4
131.7	0
142.5	1
142.6	2
142.7	3
142.8	5
142.9	7
143.0	8
143.1	9
143.2	8
143.3	7
143.4	4
143.5	2
158.5	1
158.6	2
158.7	3
158.8	5
158.9	6
159.0	8
159.1	8
159.2	7
159.3	5
159.4	3
159.5	1
186.2	0
186.3	2
186.4	7
186.5	17
186.6	30
186.7	46
186.8	65
186.9	82
187.0	95
187.1	99
187.2	94
187.3	76
187.4	48
187.5	19
187.6	1
