Mass spectrum: Delsoline; LC-ESI-QQQ; MS2; Frag=135.0V CID@10.0; [M+H]+
Name: Delsoline
Class: Alkaloids
Formula: C25H41NO7
Exact mass: 467.608
SMILES: CCN1C[C@]2(COC)CC[C@H](O)[C@@]34C5C[C@@H]6[C@@H](OC)C[C@@](O)(C5[C@H]6OC)[C@@](O)([C@@H](OC)C23)[C@@H]14
InChI: InChI=1S/C25H41NO7/c1-6-26-11-22(12-30-2)8-7-16(27)24-14-9-13-15(31-3)10-23(28,17(14)18(13)32-4)25(29,21(24)26)20(33-5)19(22)24/h13-21,27-29H,6-12H2,1-5H3/t13-,14?,15+,16+,17?,18+,19?,20+,21+,22+,23-,24+,25-/m1/s1
Instrument: Agilent 6410 Triple Quadrupole LC/MS system
Instrument type: LC-ESI-QQQ
Ms type: MS2
Ion mode: POSITIVE
Precursor type: [M+H]+
m/z	relative intensity
467.4	0
467.5	1
467.6	4
467.7	9
467.8	16
467.9	27
468.0	44
468.1	65
468.2	86
468.3	99
468.4	99
468.5	85
468.6	59
468.7	30
468.8	8
468.9	0
