Mass spectrum: 3-Isoreserpine; LC-ESI-QQQ; MS2; Frag=135.0V CID@25.0; [M+HCOO]-
Name: 3-Epireserpine
Name: 3-Isoreserpine
Name: Mepireserpate
Name: (1S,13bS,14aS,4aS,2R,3R)-2,11-dimethoxy-1-(methoxycarbonyl)-1,2,3,4,5,8,14,13b,14a,4a-decahydrobenzo(3,4-g)indolo(2,3-a)quinolizin-3-yl 3,4,5-trimethoxybenzoate
Class: Alkaloids
Formula: C33H40N2O9
Exact mass: 608.6947
SMILES: COC(=O)[C@H]1[C@H]2C[C@H]3c4[nH]c5cc(OC)ccc5c4CCN3C[C@H]2C[C@@H](OC(=O)c2cc(OC)c(OC)c(OC)c2)[C@@H]1OC
InChI: InChI=1S/C33H40N2O9/c1-38-19-7-8-20-21-9-10-35-16-18-13-27(44-32(36)17-11-25(39-2)30(41-4)26(12-17)40-3)31(42-5)28(33(37)43-6)22(18)15-24(35)29(21)34-23(20)14-19/h7-8,11-12,14,18,22,24,27-28,31,34H,9-10,13,15-16H2,1-6H3/t18-,22+,24+,27-,28+,31+/m1/s1
Instrument: Agilent 6410 Triple Quadrupole LC/MS system
Instrument type: LC-ESI-QQQ
Ms type: MS2
Ion mode: NEGATIVE
Precursor type: [M+HCOO]-
m/z	relative intensity
180.6	1
180.7	3
180.8	5
180.9	6
181.0	4
181.1	2
210.7	2
210.8	3
210.9	5
211.0	5
211.1	4
211.2	2
576.7	0
576.8	2
576.9	4
577.0	6
577.1	7
577.2	5
577.3	2
591.2	2
591.3	3
591.4	4
591.5	7
591.6	13
591.7	24
591.8	38
591.9	46
592.0	46
592.1	47
592.2	55
592.3	65
592.4	62
592.5	43
592.6	18
592.7	1
606.3	1
606.4	2
606.5	6
606.6	14
606.7	28
606.8	46
606.9	63
607.0	76
607.1	84
607.2	92
607.3	99
607.4	95
607.5	69
607.6	33
607.7	4
607.8	0
