Mass spectrum: Trachelanthine; LC-ESI-QQQ; MS2; Frag=135.0V CID@25.0; [M+H]+
Name: Trachelanthamine oxide
Name: Trachelanthamine N-oxide
Name: ((7aS,1R)-4-hydroxyperhydropyrrolizinyl)methyl 2,3-dihydroxy-2-(methylethyl)butanoate
Name: Trachelanthine
Class: Alkaloids
Formula: C15H27NO5
Exact mass: 301.3861
SMILES: CC(C)C(O)(C(=O)OC[C@@H]1CC[N+]2([O-])CCC[C@@H]12)C(C)O
InChI: InChI=1S/C15H27NO5/c1-10(2)15(19,11(3)17)14(18)21-9-12-6-8-16(20)7-4-5-13(12)16/h10-13,17,19H,4-9H2,1-3H3/t11?,12-,13-,15?,16?/m0/s1
Instrument: Agilent 6410 Triple Quadrupole LC/MS system
Instrument type: LC-ESI-QQQ
Ms type: MS2
Ion mode: POSITIVE
Precursor type: [M+H]+
m/z	relative intensity
157.3	1
157.4	4
157.5	7
157.6	12
157.7	20
157.8	36
157.9	59
158.0	82
158.1	97
158.2	99
158.3	90
158.4	70
158.5	43
158.6	17
158.7	1
301.7	2
301.8	3
301.9	6
302.0	8
302.1	11
302.2	12
302.3	12
302.4	11
302.5	8
302.6	4
