Mass spectrum: Isoimperatorin; LC-ESI-QQQ; MS2; Frag=135.0V CID@15.0; [M+H]+
Name: Isoimperatorin
Class: Benzopyranoids
Formula: C16H14O4
Exact mass: 270.2876
SMILES: CC(C)=CCOc1c2ccoc2cc2oc(=O)ccc12
InChI: InChI=1S/C16H14O4/c1-10(2)5-7-19-16-11-3-4-15(17)20-14(11)9-13-12(16)6-8-18-13/h3-6,8-9H,7H2,1-2H3
Instrument: Agilent 6410 Triple Quadrupole LC/MS system
Instrument type: LC-ESI-QQQ
Ms type: MS2
Ion mode: POSITIVE
Precursor type: [M+H]+
m/z	relative intensity
68.5	2
68.6	3
68.7	4
68.8	7
68.9	10
69.0	12
69.1	13
69.2	13
69.3	11
69.4	8
69.5	4
69.6	1
146.7	2
146.8	3
146.9	5
147.0	5
147.1	6
147.2	5
147.3	4
147.4	3
147.5	1
202.2	0
202.3	2
202.4	5
202.5	13
202.6	25
202.7	41
202.8	61
202.9	79
203.0	93
203.1	99
203.2	95
203.3	77
203.4	50
203.5	21
203.6	2
