Mass spectrum: 17alpha-Strophadogenin; LC-ESI-QQQ; MS2; Frag=135.0V CID@25.0; [M+H]+
Name: 17alpha-Strophadogenin
Class: Steroids
Formula: C23H32O7
Exact mass: 420.5073
SMILES: C[C@]12CCC3C(CCC4(O)CC(O)CC[C@]34C=O)C1(O)CC(O)[C@H]2C1=CC(=O)OC1
InChI: InChI=1S/C23H32O7/c1-20-5-3-15-16(4-7-22(28)9-14(25)2-6-21(15,22)12-24)23(20,29)10-17(26)19(20)13-8-18(27)30-11-13/h8,12,14-17,19,25-26,28-29H,2-7,9-11H2,1H3/t14?,15?,16?,17?,19-,20-,21+,22?,23?/m1/s1
Instrument: Agilent 6410 Triple Quadrupole LC/MS system
Instrument type: LC-ESI-QQQ
Ms type: MS2
Ion mode: POSITIVE
Precursor type: [M+H]+
m/z	relative intensity
118.6	1
118.7	3
118.8	5
118.9	7
119.0	7
119.1	6
119.2	5
119.3	3
119.4	2
120.5	1
120.6	2
120.7	3
120.8	5
120.9	6
121.0	5
121.1	4
130.5	1
130.6	3
130.7	5
130.8	6
130.9	5
132.6	1
132.7	2
132.8	5
132.9	9
133.0	12
133.1	12
133.2	10
133.3	6
133.4	3
134.5	1
134.6	2
134.7	3
134.8	4
134.9	4
135.0	4
135.1	3
140.7	1
140.8	2
140.9	4
141.0	5
141.1	5
141.2	4
141.3	2
142.5	1
142.6	2
142.7	4
142.8	6
142.9	7
143.0	9
143.1	10
143.2	10
143.3	8
143.4	4
143.5	1
144.3	1
144.4	3
144.5	4
144.6	6
144.7	10
144.8	18
144.9	28
145.0	36
145.1	38
145.2	34
145.3	25
145.4	15
145.5	6
145.6	0
148.6	0
148.7	2
148.8	3
148.9	5
149.0	5
149.1	4
149.2	3
156.7	3
156.8	5
156.9	6
157.0	7
157.1	7
157.2	5
157.3	4
157.4	2
158.6	1
158.7	3
158.8	6
158.9	10
159.0	11
159.1	11
159.2	8
159.3	6
159.4	3
159.5	2
160.2	1
160.3	2
160.4	6
160.5	11
160.6	19
160.7	30
160.8	46
160.9	64
161.0	82
161.1	95
161.2	99
161.3	94
161.4	78
161.5	52
161.6	22
161.7	2
162.6	1
162.7	2
162.8	5
162.9	7
163.0	9
163.1	9
163.2	5
163.3	2
168.5	1
168.6	2
168.7	3
168.8	4
168.9	4
169.0	3
169.1	3
169.2	3
169.3	3
170.5	2
170.6	4
170.7	6
170.8	9
170.9	12
171.0	14
171.1	16
171.2	15
171.3	10
171.4	5
171.5	1
172.6	1
172.7	3
172.8	5
172.9	5
173.0	5
173.1	4
173.2	5
173.3	5
173.4	5
173.5	3
173.6	1
174.6	1
174.7	3
174.8	6
174.9	9
175.0	11
175.1	11
175.2	7
175.3	4
175.4	1
178.6	1
178.7	3
178.8	4
178.9	4
179.0	3
179.1	2
180.5	1
180.6	2
180.7	4
180.8	6
180.9	6
181.0	5
181.1	4
181.2	3
181.3	2
183.0	6
183.1	7
183.2	9
183.3	9
183.4	7
183.5	3
184.5	1
184.6	3
184.7	6
184.8	9
184.9	11
185.0	12
185.1	11
185.2	10
185.3	7
185.4	3
186.4	1
186.5	2
186.6	3
186.7	5
186.8	8
186.9	10
187.0	13
187.1	14
187.2	13
187.3	9
187.4	5
187.5	3
188.8	4
188.9	5
189.0	7
189.1	9
189.2	9
189.3	6
189.4	3
192.7	1
192.8	3
192.9	5
193.0	6
193.1	5
193.2	3
196.4	1
196.5	2
196.6	4
196.7	7
196.8	11
196.9	14
197.0	15
197.1	14
197.2	11
197.3	8
197.4	5
197.5	2
198.4	2
198.5	3
198.6	4
198.7	5
198.8	6
198.9	9
199.0	14
199.1	18
199.2	18
199.3	14
199.4	7
199.5	2
208.6	0
208.7	2
208.8	4
208.9	6
209.0	6
209.1	5
209.2	3
212.7	2
212.8	4
212.9	5
213.0	6
213.1	5
213.2	3
213.3	2
214.6	1
214.7	2
214.8	4
214.9	5
215.0	6
215.1	7
215.2	6
215.3	5
215.4	4
218.7	1
218.8	2
218.9	4
219.0	5
219.1	4
219.2	3
226.6	1
226.7	2
226.8	4
226.9	5
227.0	5
227.1	4
227.2	3
227.3	2
227.4	2
227.5	2
227.6	1
227.7	0
227.8	0
227.9	0
228.0	0
228.1	0
228.2	0
228.3	0
228.4	0
228.5	0
228.6	0
228.7	0
228.8	1
228.9	2
229.0	3
229.1	3
229.2	3
230.6	1
230.7	3
230.8	5
230.9	5
231.0	4
231.1	2
232.7	1
232.8	3
232.9	4
233.0	5
233.1	5
233.2	4
233.3	2
242.8	2
242.9	3
243.0	5
243.1	5
243.2	4
243.3	2
246.6	1
246.7	3
246.8	5
246.9	6
247.0	5
247.1	4
247.2	2
260.6	3
260.7	3
260.8	5
260.9	7
261.0	8
261.1	8
261.2	7
261.3	4
261.4	1
274.5	0
274.6	1
274.7	3
274.8	5
274.9	6
275.0	9
275.1	12
275.2	15
275.3	14
275.4	9
275.5	4
275.6	0
284.7	1
284.8	2
284.9	4
285.0	5
285.1	5
285.2	3
285.3	1
292.8	3
292.9	4
293.0	6
293.1	7
293.2	7
293.3	5
293.4	2
302.6	1
302.7	3
302.8	5
302.9	7
303.0	9
303.1	9
303.2	9
303.3	9
303.4	7
303.5	4
303.6	1
320.4	2
320.5	3
320.6	4
320.7	6
320.8	10
320.9	18
321.0	27
321.1	35
321.2	38
321.3	35
321.4	25
321.5	13
321.6	3
330.6	1
330.7	2
330.8	3
330.9	4
331.0	5
331.1	4
331.2	4
331.3	3
338.7	1
338.8	4
338.9	9
339.0	16
339.1	22
339.2	24
339.3	22
339.4	16
339.5	9
339.6	3
348.7	2
348.8	3
348.9	5
349.0	8
349.1	10
349.2	10
349.3	8
349.4	4
349.5	1
366.6	0
366.7	2
366.8	3
366.9	4
367.0	3
367.1	2
367.2	1
367.3	1
367.4	0
367.5	0
367.6	0
367.7	0
367.8	0
367.9	0
368.0	0
368.1	0
368.2	0
368.3	0
368.4	0
368.5	0
368.6	0
368.7	0
368.8	0
368.9	0
369.0	0
369.1	0
369.2	0
369.3	0
369.4	0
369.5	0
369.6	0
369.7	0
369.8	0
369.9	0
370.0	0
370.1	0
370.2	0
370.3	0
370.4	0
370.5	0
370.6	0
370.7	0
370.8	0
370.9	0
371.0	0
371.1	0
371.2	0
371.3	0
371.4	0
371.5	0
371.6	0
371.7	0
371.8	0
371.9	0
372.0	0
372.1	0
372.2	0
372.3	0
372.4	0
372.5	0
372.6	0
372.7	0
372.8	0
372.9	0
373.0	0
373.1	0
373.2	0
373.3	0
373.4	0
373.5	0
373.6	0
373.7	0
373.8	0
373.9	0
374.0	0
374.1	0
374.2	0
374.3	0
374.4	0
374.5	0
374.6	0
374.7	0
374.8	0
374.9	0
375.0	0
375.1	0
375.2	0
375.3	0
375.4	0
375.5	0
375.6	0
375.7	0
375.8	0
375.9	0
376.0	0
376.1	0
376.2	0
376.3	0
376.4	0
376.5	0
376.6	0
376.7	0
376.8	0
376.9	0
377.0	0
377.1	0
377.2	0
377.3	0
377.4	0
377.5	0
377.6	0
377.7	0
377.8	0
377.9	0
378.0	0
378.1	0
378.2	0
378.3	0
378.4	0
378.5	0
378.6	0
378.7	0
378.8	0
378.9	0
379.0	0
379.1	0
379.2	0
379.3	0
379.4	0
379.5	0
379.6	0
379.7	0
379.8	0
379.9	0
380.0	0
380.1	0
380.2	0
380.3	0
380.4	0
380.5	0
380.6	0
380.7	0
380.8	0
380.9	0
381.0	0
381.1	0
381.2	0
381.3	0
381.4	0
381.5	0
381.6	0
381.7	0
381.8	0
381.9	0
382.0	0
382.1	0
382.2	0
382.3	0
382.4	0
382.5	0
382.6	0
382.7	0
382.8	0
382.9	0
383.0	0
383.1	0
383.2	0
383.3	0
383.4	0
383.5	0
383.6	0
383.7	0
383.8	0
383.9	0
384.0	0
384.1	0
384.2	0
384.3	0
384.4	0
384.5	0
384.6	0
384.7	0
384.8	0
384.9	0
385.0	0
385.1	0
385.2	0
385.3	1
385.4	1
385.5	1
385.6	0
385.7	0
385.8	0
385.9	0
386.0	0
386.1	0
386.2	0
386.3	0
386.4	0
386.5	0
386.6	0
386.7	0
386.8	0
386.9	0
387.0	0
387.1	0
387.2	0
387.3	0
387.4	0
387.5	0
387.6	0
387.7	0
387.8	0
387.9	0
388.0	0
388.1	0
388.2	0
388.3	0
388.4	0
388.5	0
388.6	0
388.7	0
388.8	0
388.9	0
389.0	0
389.1	0
389.2	0
389.3	0
389.4	0
389.5	0
389.6	0
389.7	0
389.8	0
389.9	0
390.0	0
390.1	0
390.2	0
390.3	0
390.4	0
390.5	0
390.6	0
390.7	0
390.8	0
390.9	0
391.0	0
391.1	0
391.2	0
391.3	0
391.4	0
391.5	0
391.6	0
391.7	0
391.8	0
391.9	0
392.0	0
392.1	0
392.2	0
392.3	0
392.4	0
392.5	0
392.6	0
392.7	0
392.8	0
392.9	0
393.0	0
393.1	0
393.2	0
393.3	0
393.4	0
393.5	0
393.6	0
393.7	0
393.8	0
393.9	0
394.0	0
394.1	0
394.2	0
394.3	0
394.4	0
394.5	0
394.6	0
394.7	0
394.8	0
394.9	0
395.0	0
395.1	0
395.2	0
395.3	0
395.4	0
395.5	0
395.6	0
395.7	0
395.8	0
395.9	0
396.0	0
396.1	0
396.2	0
396.3	0
396.4	0
396.5	0
396.6	0
396.7	0
396.8	0
396.9	0
397.0	0
397.1	0
397.2	0
397.3	0
397.4	0
397.5	0
397.6	0
397.7	0
397.8	0
397.9	0
398.0	0
398.1	0
398.2	0
398.3	0
398.4	0
398.5	0
398.6	0
398.7	0
398.8	0
398.9	0
399.0	0
399.1	0
399.2	0
399.3	0
399.4	0
399.5	0
399.6	0
399.7	0
399.8	0
399.9	0
400.0	0
400.1	0
400.2	0
400.3	0
400.4	0
400.5	0
400.6	0
400.7	0
400.8	0
400.9	0
401.0	0
401.1	0
401.2	0
401.3	0
401.4	0
401.5	0
401.6	0
401.7	0
401.8	0
401.9	0
402.0	0
402.1	0
402.2	0
402.3	0
402.4	1
402.5	2
402.6	3
402.7	4
402.8	7
402.9	11
403.0	16
403.1	21
403.2	24
403.3	24
403.4	19
403.5	10
403.6	2
420.6	1
420.7	2
420.8	5
420.9	6
421.0	7
421.1	8
421.2	9
421.3	9
421.4	7
421.5	3
