Mass spectrum: Purpurin; LC-ESI-QQQ; MS2; Frag=135.0V CID@25.0; [M+H]+
Name: Purpurin
Class: Polycyclic aromatic natural products
Formula: C14H8O5
Exact mass: 256.2169
SMILES: O=C1c2ccccc2C(=O)c2c(O)c(O)cc(O)c21
InChI: InChI=1S/C14H8O5/c15-8-5-9(16)14(19)11-10(8)12(17)6-3-1-2-4-7(6)13(11)18/h1-5,15-16,19H
Instrument: Agilent 6410 Triple Quadrupole LC/MS system
Instrument type: LC-ESI-QQQ
Ms type: MS2
Ion mode: POSITIVE
Precursor type: [M+H]+
m/z	relative intensity
68.5	2
68.6	3
68.7	6
68.8	12
68.9	17
69.0	19
69.1	19
69.2	16
69.3	12
69.4	7
69.5	2
126.6	0
126.7	2
126.8	4
126.9	6
127.0	7
127.1	6
127.2	4
127.3	2
130.5	1
130.6	3
130.7	6
130.8	9
130.9	12
131.0	15
131.1	15
131.2	14
131.3	12
131.4	7
131.5	3
154.6	2
154.7	4
154.8	5
154.9	6
155.0	6
155.1	6
155.2	5
155.3	3
158.3	1
158.4	2
158.5	5
158.6	10
158.7	15
158.8	20
158.9	25
159.0	30
159.1	33
159.2	31
159.3	24
159.4	14
159.5	5
159.6	0
160.5	1
160.6	3
160.7	5
160.8	7
160.9	9
161.0	10
161.1	11
161.2	11
161.3	9
161.4	6
161.5	2
182.5	1
182.6	2
182.7	4
182.8	6
182.9	8
183.0	9
183.1	10
183.2	10
183.3	7
183.4	3
186.2	1
186.3	3
186.4	7
186.5	12
186.6	23
186.7	39
186.8	61
186.9	82
187.0	96
187.1	99
187.2	92
187.3	75
187.4	48
187.5	21
187.6	3
210.7	2
210.8	3
210.9	5
211.0	5
211.1	5
211.2	4
211.3	3
228.1	0
228.2	2
228.3	5
228.4	9
228.5	12
228.6	17
228.7	24
228.8	36
228.9	50
229.0	62
229.1	69
229.2	68
229.3	56
229.4	35
229.5	12
229.6	0
256.2	0
256.3	2
256.4	5
256.5	8
256.6	13
256.7	20
256.8	30
256.9	40
257.0	46
257.1	48
257.2	47
257.3	42
257.4	29
257.5	12
257.6	1
