Mass spectrum: taxifolin; LC-ESI-QQQ; MS2; Frag=135.0V CID@5.0; [M+H]+
Name: Dihydro-Quer
Name: Taxifolin
Name: (2R,3R)-3,3',4',5,7-Pentahydroxyflavanone
Name: trans-Dihydroquercetin
Name: Distylin
Name: Taxifoliol
Name: Catechin
Name: taxifolin
Class: Flavonoids
Formula: C15H12O7
Exact mass: 304.2587
SMILES: O=C1c2c(O)cc(O)cc2OC(c2ccc(O)c(O)c2)C1O
InChI: InChI=1S/C15H12O7/c16-7-4-10(19)12-11(5-7)22-15(14(21)13(12)20)6-1-2-8(17)9(18)3-6/h1-5,14-19,21H
Instrument: Agilent 6410 Triple Quadrupole LC/MS system
Instrument type: LC-ESI-QQQ
Ms type: MS2
Ion mode: POSITIVE
Precursor type: [M+H]+
m/z	relative intensity
148.6	2
148.7	3
148.8	5
148.9	6
149.0	7
149.1	7
149.2	6
149.3	4
149.4	2
152.3	1
152.4	3
152.5	7
152.6	12
152.7	18
152.8	25
152.9	31
153.0	36
153.1	39
153.2	39
153.3	33
153.4	22
153.5	10
153.6	1
194.4	1
194.5	3
194.6	6
194.7	9
194.8	12
194.9	15
195.0	17
195.1	18
195.2	18
195.3	15
195.4	8
195.5	3
230.7	2
230.8	3
230.9	5
231.0	6
231.1	7
231.2	7
231.3	6
231.4	4
231.5	1
258.3	0
258.4	3
258.5	7
258.6	13
258.7	20
258.8	29
258.9	41
259.0	50
259.1	56
259.2	57
259.3	50
259.4	36
259.5	17
259.6	3
286.4	1
286.5	3
286.6	7
286.7	12
286.8	18
286.9	25
287.0	31
287.1	32
287.2	29
287.3	21
287.4	12
287.5	4
304.2	0
304.3	1
304.4	5
304.5	10
304.6	18
304.7	30
304.8	50
304.9	73
305.0	91
305.1	99
305.2	97
305.3	83
305.4	58
305.5	28
305.6	5
305.7	0
