Mass spectrum: Kopsinine; LC-ESI-QQQ; MS2; Frag=135.0V CID@5.0; [M+H]+
Name: methyl(2|A,3|A,5|A)-aspidofractinine-3-carboxylate
Name: Aspidofractinine-3-carboxylic acid, methyl ester, (2alpha,3beta,5alpha)-
Name: Kopsinine
Class: Alkaloids
Formula: C21H26N2O2
Exact mass: 338.4536
SMILES: COC(=O)C1CC23CCCN4CCC5(c6ccccc6NC15CC2)[C@@H]43
InChI: InChI=1S/C21H26N2O2/c1-25-17(24)15-13-19-7-4-11-23-12-10-20(18(19)23)14-5-2-3-6-16(14)22-21(15,20)9-8-19/h2-3,5-6,15,18,22H,4,7-13H2,1H3/t15?,18-,19?,20?,21?/m0/s1
Instrument: Agilent 6410 Triple Quadrupole LC/MS system
Instrument type: LC-ESI-QQQ
Ms type: MS2
Ion mode: POSITIVE
Precursor type: [M+H]+
m/z	relative intensity
338.3	0
338.4	2
338.5	5
338.6	9
338.7	15
338.8	27
338.9	47
339.0	69
339.1	88
339.2	99
339.3	99
339.4	88
339.5	64
339.6	35
339.7	10
339.8	0
