Mass spectrum: 17alpha-Strophadogenin; LC-ESI-QQQ; MS2;  Frag=135.0V CID@10.0 ; [M+HCOO]-
Name: 17alpha-Strophadogenin
Class: Steroids
Formula: C23H32O7
Exact mass: 420.50729
SMILES: C[C@]12CCC3C(CCC4(O)CC(O)CC[C@]34C=O)C1(O)CC(O)[C@H]2C1=CC(=O)OC1
InChI: InChI=1S/C23H32O7/c1-20-5-3-15-16(4-7-22(28)9-14(25)2-6-21(15,22)12-24)23(20,29)10-17(26)19(20)13-8-18(27)30-11-13/h8,12,14-17,19,25-26,28-29H,2-7,9-11H2,1H3/t14?,15?,16?,17?,19-,20-,21+,22?,23?/m1/s1
Instrument: Agilent 6410 Triple Quadrupole LC/MS system
Instrument type: LC-ESI-QQQ
Ms type: MS2
Ion mode: NEGATIVE
Precursor type: [M+HCOO]-
m/z	relative intensity
308.6	1
308.7	2
308.8	4
308.9	6
309.0	6
309.1	5
309.2	3
309.3	1
364.5	1
364.6	2
364.7	3
364.8	4
364.9	5
365.0	5
365.1	5
365.2	5
365.3	6
365.4	6
365.5	4
365.6	2
382.8	3
382.9	4
383.0	6
383.1	6
383.2	5
383.3	5
383.4	5
383.5	5
383.6	2
400.3	0
400.4	3
400.5	11
400.6	25
400.7	41
400.8	57
400.9	70
401.0	81
401.1	88
401.2	95
401.3	99
401.4	92
401.5	69
401.6	37
401.7	9
401.8	0
418.3	0
418.4	1
418.5	3
418.6	7
418.7	12
418.8	17
418.9	22
419.0	25
419.1	27
419.2	26
419.3	23
419.4	18
419.5	10
419.6	3
464.2	0
464.3	2
464.4	4
464.5	7
464.6	11
464.7	15
464.8	21
464.9	26
465.0	31
465.1	33
465.2	31
465.3	28
465.4	24
465.5	17
465.6	8
465.7	2
