Mass spectrum: 17alpha-Strophadogenin; LC-ESI-QQQ; MS2; Frag=135.0V CID@10.0; [M+H]+
Name: 17alpha-Strophadogenin
Class: Steroids
Formula: C23H32O7
Exact mass: 420.5073
SMILES: C[C@]12CCC3C(CCC4(O)CC(O)CC[C@]34C=O)C1(O)CC(O)[C@H]2C1=CC(=O)OC1
InChI: InChI=1S/C23H32O7/c1-20-5-3-15-16(4-7-22(28)9-14(25)2-6-21(15,22)12-24)23(20,29)10-17(26)19(20)13-8-18(27)30-11-13/h8,12,14-17,19,25-26,28-29H,2-7,9-11H2,1H3/t14?,15?,16?,17?,19-,20-,21+,22?,23?/m1/s1
Instrument: Agilent 6410 Triple Quadrupole LC/MS system
Instrument type: LC-ESI-QQQ
Ms type: MS2
Ion mode: POSITIVE
Precursor type: [M+H]+
m/z	relative intensity
160.6	1
160.7	2
160.8	4
160.9	5
161.0	7
161.1	7
161.2	7
161.3	7
161.4	7
161.5	5
161.6	2
356.7	1
356.8	2
356.9	4
357.0	5
357.1	6
357.2	6
357.3	6
357.4	5
357.5	4
357.6	1
402.7	1
402.8	2
402.9	4
403.0	5
403.1	6
403.2	7
403.3	6
403.4	5
403.5	3
420.3	0
420.4	2
420.5	6
420.6	12
420.7	21
420.8	32
420.9	49
421.0	68
421.1	86
421.2	97
421.3	99
421.4	90
421.5	67
421.6	37
421.7	11
421.8	0
