Mass spectrum: Neotigogenin; LC-ESI-QQQ; MS2; Frag=135.0V CID@15.0; [M+H]+
Name: Neotigogenin
Class: Steroids
Formula: C27H44O3
Exact mass: 416.6499
SMILES: CC1CC[C@@]2(OC1)OC1CC3C4CC[C@H]5CC(O)CC[C@]5(C)C4CC[C@]3(C)C1[C@@H]2C
InChI: InChI=1S/C27H44O3/c1-16-7-12-27(29-15-16)17(2)24-23(30-27)14-22-20-6-5-18-13-19(28)8-10-25(18,3)21(20)9-11-26(22,24)4/h16-24,28H,5-15H2,1-4H3/t16?,17-,18-,19?,20?,21?,22?,23?,24?,25-,26-,27+/m0/s1
Instrument: Agilent 6410 Triple Quadrupole LC/MS system
Instrument type: LC-ESI-QQQ
Ms type: MS2
Ion mode: POSITIVE
Precursor type: [M+H]+
m/z	relative intensity
160.8	3
160.9	4
161.0	6
161.1	7
161.2	7
161.3	6
161.4	4
161.5	2
254.6	1
254.7	2
254.8	4
254.9	7
255.0	10
255.1	12
255.2	11
255.3	9
255.4	6
255.5	4
255.6	2
272.2	0
272.3	2
272.4	4
272.5	7
272.6	10
272.7	16
272.8	29
272.9	49
273.0	73
273.1	91
273.2	99
273.3	94
273.4	78
273.5	52
273.6	24
273.7	4
416.6	2
416.7	3
416.8	5
416.9	7
417.0	10
417.1	14
417.2	18
417.3	22
417.4	22
417.5	19
417.6	11
417.7	4
