Mass spectrum: Olitoriside; LC-ESI-QQQ; MS2; Frag=135.0V CID@15.0; [M+H]+
Name: Olitoriside
Class: Steroids
Formula: C35H52O14
Exact mass: 696.7963
SMILES: C[C@H]1O[C@@H](OC2CC[C@]3(C=O)C4CC[C@]5(C)C(C6=CC(=O)OC6)CCC5(O)C4CCC3(O)C2)C[C@H](O)C1OC1O[C@H](CO)[C@@H](O)[C@H](O)[C@H]1O
InChI: InChI=1S/C35H52O14/c1-17-30(49-31-29(42)28(41)27(40)24(14-36)48-31)23(38)12-26(46-17)47-19-3-8-33(16-37)21-4-7-32(2)20(18-11-25(39)45-15-18)6-10-35(32,44)22(21)5-9-34(33,43)13-19/h11,16-17,19-24,26-31,36,38,40-44H,3-10,12-15H2,1-2H3/t17-,19?,20?,21?,22?,23+,24-,26+,27-,28+,29-,30?,31?,32-,33+,34?,35?/m1/s1
Instrument: Agilent 6410 Triple Quadrupole LC/MS system
Instrument type: LC-ESI-QQQ
Ms type: MS2
Ion mode: POSITIVE
Precursor type: [M+H]+
m/z	relative intensity
68.5	3
68.6	6
68.7	9
68.8	9
68.9	7
69.0	4
94.7	3
94.8	7
94.9	14
95.0	23
95.1	29
95.2	27
95.3	19
95.4	8
96.6	2
96.7	5
96.8	12
96.9	22
97.0	31
97.1	34
97.2	29
97.3	19
97.4	8
97.5	2
112.3	0
112.4	2
112.5	10
112.6	32
112.7	67
112.8	95
112.9	97
113.0	77
113.1	53
113.2	35
113.3	22
113.4	11
113.5	3
114.9	4
115.0	8
115.1	18
115.2	29
115.3	31
115.4	23
115.5	10
115.6	2
154.5	3
154.6	4
154.7	7
154.8	10
154.9	11
155.0	8
208.5	3
208.6	6
208.7	11
208.8	15
208.9	14
209.0	10
209.1	4
322.6	2
322.7	3
322.8	7
322.9	18
323.0	34
323.1	44
323.2	39
323.3	22
323.4	5
340.5	1
340.6	5
340.7	20
340.8	44
340.9	61
341.0	57
341.1	34
341.2	11
358.1	1
358.2	3
358.3	11
358.4	25
358.5	35
358.6	35
368.8	4
368.9	8
369.0	18
369.1	35
369.2	51
369.3	58
369.4	50
369.5	31
369.6	12
369.7	2
386.8	0
386.9	2
387.0	10
387.1	28
387.2	47
387.3	56
387.4	45
387.5	23
387.6	5
404.3	2
404.4	4
404.5	8
404.6	12
404.7	13
404.8	10
404.9	5
