Mass spectrum: 1-Hydroxy-2-methoxyanthraquinone; LC-ESI-QQQ; MS2; Frag=135.0V CID@5.0 ; [M+H]+
Name: 1-Hydroxy-2-methoxyanthraquinone
Class: Polycyclic aromatic natural products
Formula: C15H10O4
Exact mass: 254.24455000000003
SMILES: COc1ccc2c(c1O)C(=O)c1ccccc1C2=O
InChI: InChI=1S/C15H10O4/c1-19-11-7-6-10-12(15(11)18)14(17)9-5-3-2-4-8(9)13(10)16/h2-7,18H,1H3
Instrument: Agilent 6410 Triple Quadrupole LC/MS system
Instrument type: LC-ESI-QQQ
Ms type: MS2
Ion mode: POSITIVE
Precursor type: [M+H]+
m/z	relative intensity
254.2	0
254.3	0
254.4	4
254.5	12
254.6	26
254.7	43
254.8	60
254.9	77
255.0	92
255.1	99
255.2	99
255.3	89
255.4	66
255.5	36
255.6	9
255.7	0
