Mass spectrum: 1alpha-Hydroxy-1-desoxotamirin; LC-ESI-QQQ; MS2; Frag=135.0V CID@25.0 ; [M+H]+
Name: 1alpha-Hydroxy-1-desoxotamirin
Class: Terpenoids
Formula: C15H20O4
Exact mass: 264.32425
SMILES: C=C1C(=O)O[C@H]2CC(=C)[C@H](O)CC/C(C)=C/[C@@H](O)C12
InChI: InChI=1S/C15H20O4/c1-8-4-5-11(16)9(2)7-13-14(12(17)6-8)10(3)15(18)19-13/h6,11-14,16-17H,2-5,7H2,1H3/b8-6+/t11-,12-,13+,14?/m1/s1
Instrument: Agilent 6410 Triple Quadrupole LC/MS system
Instrument type: LC-ESI-QQQ
Ms type: MS2
Ion mode: POSITIVE
Precursor type: [M+H]+
m/z	relative intensity
54.6	4
54.7	5
54.8	6
54.9	8
55.0	11
55.1	14
55.2	17
55.3	15
55.4	10
55.5	4
56.7	2
56.8	5
56.9	7
57.0	9
57.1	9
57.2	6
57.3	3
66.4	3
66.5	5
66.6	10
66.7	17
66.8	24
66.9	26
67.0	23
67.1	17
67.2	10
67.3	5
67.4	3
68.3	1
68.4	3
68.5	6
68.6	9
68.7	10
68.8	8
68.9	5
69.0	3
78.5	3
78.6	5
78.7	8
78.8	12
78.9	14
79.0	15
79.1	14
79.2	11
79.3	8
79.4	5
79.5	3
80.0	1
80.1	4
80.2	7
80.3	10
80.4	12
80.5	14
80.6	21
80.7	38
80.8	64
80.9	86
81.0	97
81.1	99
81.2	99
81.3	90
81.4	63
81.5	27
81.6	3
90.0	0
90.1	2
90.2	5
90.3	9
90.4	14
90.5	21
90.6	32
90.7	49
90.8	63
90.9	69
91.0	71
91.1	70
91.2	66
91.3	52
91.4	30
91.5	10
91.6	2
92.0	1
92.1	2
92.2	4
92.3	6
92.4	8
92.5	10
92.6	14
92.7	20
92.8	26
92.9	32
93.0	36
93.1	40
93.2	43
93.3	39
93.4	26
93.5	11
93.6	1
94.3	2
94.4	4
94.5	8
94.6	14
94.7	20
94.8	22
94.9	22
95.0	21
95.1	22
95.2	26
95.3	26
95.4	19
95.5	9
95.6	1
96.5	2
96.6	5
96.7	8
96.8	10
96.9	9
97.0	7
97.1	4
104.2	0
104.3	3
104.4	10
104.5	21
104.6	37
104.7	55
104.8	69
104.9	72
105.0	67
105.1	61
105.2	55
105.3	44
105.4	28
105.5	11
105.6	2
106.2	2
106.3	4
106.4	7
106.5	13
106.6	19
106.7	23
106.8	23
106.9	20
107.0	19
107.1	23
107.2	27
107.3	25
107.4	15
107.5	5
108.5	1
108.6	2
108.7	5
108.8	10
108.9	13
109.0	13
109.1	9
109.2	5
115.8	2
115.9	3
116.0	5
116.1	7
116.2	6
116.6	4
116.7	7
116.8	11
116.9	14
117.0	17
117.1	17
117.2	16
117.3	15
117.4	11
117.5	6
117.6	2
118.3	1
118.4	3
118.5	5
118.6	7
118.7	9
118.8	9
118.9	9
119.0	8
119.1	7
119.2	5
120.5	3
120.6	5
120.7	7
120.8	8
120.9	8
121.0	7
121.1	7
121.2	6
121.3	5
121.4	3
122.2	1
122.3	2
122.4	5
122.5	8
122.6	10
122.7	10
122.8	12
122.9	15
123.0	18
123.1	18
123.2	12
123.3	5
127.4	1
127.5	5
127.6	13
127.7	23
127.8	29
127.9	28
128.0	20
128.1	12
128.2	6
128.3	2
130.3	5
130.4	8
130.5	14
130.6	21
130.7	27
130.8	35
130.9	43
131.0	46
131.1	42
131.2	33
131.3	22
131.4	13
131.5	7
131.6	3
132.1	1
132.2	2
132.3	6
132.4	11
132.5	16
132.6	18
132.7	19
132.8	23
132.9	29
133.0	38
133.1	47
133.2	50
133.3	44
133.4	28
133.5	11
133.6	1
140.7	2
140.8	5
140.9	11
141.0	16
141.1	16
141.2	12
141.3	7
141.6	6
141.7	8
141.8	11
141.9	11
142.4	8
142.5	11
142.6	18
142.7	28
142.8	37
142.9	39
143.0	36
143.1	32
143.2	26
143.3	17
143.4	8
143.5	2
144.4	2
144.5	5
144.6	9
144.7	13
144.8	15
144.9	14
145.0	9
145.1	5
147.0	2
147.1	4
147.2	7
147.3	8
147.4	6
147.5	4
152.7	3
152.8	5
152.9	6
153.0	7
153.1	5
153.2	2
154.3	1
154.4	3
154.5	7
154.6	15
154.7	25
154.8	33
154.9	35
155.0	31
155.1	25
155.2	20
155.3	16
155.4	12
155.5	8
155.6	4
156.4	1
156.5	4
156.6	7
156.7	10
156.8	12
156.9	13
157.0	12
157.1	10
157.2	7
158.5	3
158.6	5
158.7	9
158.8	12
158.9	13
159.0	11
159.1	8
159.2	5
159.3	3
167.5	4
167.6	6
167.7	11
167.8	18
167.9	24
168.0	27
168.1	26
168.2	22
168.3	16
168.4	11
168.5	6
168.6	3
172.6	1
172.7	3
172.8	6
172.9	9
173.0	12
173.1	13
173.2	13
173.3	12
173.4	8
173.5	4
182.4	2
182.5	5
182.6	10
182.7	17
182.8	25
182.9	30
183.0	30
183.1	25
183.2	18
183.3	11
183.4	6
183.5	3
195.6	1
195.7	2
195.8	6
195.9	10
196.0	12
196.1	9
196.2	4
200.6	3
200.7	4
200.8	5
200.9	7
201.0	6
201.1	4
