Mass spectrum: turkesterone; LC-ESI-QQQ; MS2; Frag=135.0V CID@10.0; [M+H]+
Name: turkesterone
Class: Steroids
Formula: C27H44O8
Exact mass: 496.6469
SMILES: CC(C)(O)CC[C@H](O)[C@](C)(O)C1CC[C@@]2(O)C3=CC(=O)C4CC(O)C(O)C[C@]4(C)C3[C@H](O)C[C@]12C
InChI: InChI=1S/C27H44O8/c1-23(2,33)8-7-21(32)26(5,34)20-6-9-27(35)15-11-16(28)14-10-17(29)18(30)12-24(14,3)22(15)19(31)13-25(20,27)4/h11,14,17-22,29-35H,6-10,12-13H2,1-5H3/t14?,17?,18?,19-,20?,21+,22?,24+,25-,26-,27-/m1/s1
Instrument: Agilent 6410 Triple Quadrupole LC/MS system
Instrument type: LC-ESI-QQQ
Ms type: MS2
Ion mode: POSITIVE
Precursor type: [M+H]+
m/z	relative intensity
98.5	1
98.6	3
98.7	6
98.8	9
98.9	11
99.0	11
99.1	10
99.2	9
99.3	8
99.4	5
99.5	3
318.7	1
318.8	3
318.9	6
319.0	6
319.1	5
319.2	3
344.8	2
344.9	3
345.0	4
345.1	5
345.2	4
362.9	2
363.0	4
363.1	8
363.2	12
363.3	13
363.4	11
363.5	5
363.6	1
386.6	1
386.7	3
386.8	8
386.9	17
387.0	30
387.1	41
387.2	47
387.3	42
387.4	30
387.5	16
387.6	5
424.6	2
424.7	2
424.8	5
424.9	11
425.0	21
425.1	30
425.2	31
425.3	25
425.4	16
425.5	9
425.6	3
442.5	1
442.6	3
442.7	8
442.8	14
442.9	26
443.0	44
443.1	63
443.2	76
443.3	77
443.4	68
443.5	49
443.6	27
443.7	8
443.8	0
460.2	0
460.3	2
460.4	5
460.5	7
460.6	8
460.7	11
460.8	19
460.9	34
461.0	56
461.1	80
461.2	97
461.3	99
461.4	85
461.5	57
461.6	27
461.7	6
461.8	0
478.7	0
478.8	2
478.9	6
479.0	9
479.1	9
479.2	6
479.3	3
496.7	2
496.8	3
496.9	7
497.0	11
497.1	13
497.2	12
497.3	9
497.4	7
497.5	6
497.6	5
497.7	3
