Mass spectrum: Convolamine; LC-ESI-QQQ; MS2; Frag=135.0V CID@15.0 ; [M+H]+
Name: Convolamine
Class: Alkaloids
Formula: C17H23NO4
Exact mass: 305.37716
SMILES: COc1ccc(C(=O)O[C@@H]2C[C@@H]3CC[C@H](C2)N3C)cc1OC
InChI: InChI=1S/C17H23NO4/c1-18-12-5-6-13(18)10-14(9-12)22-17(19)11-4-7-15(20-2)16(8-11)21-3/h4,7-8,12-14H,5-6,9-10H2,1-3H3/t12-,13+,14+
Instrument: Agilent 6410 Triple Quadrupole LC/MS system
Instrument type: LC-ESI-QQQ
Ms type: MS2
Ion mode: POSITIVE
Precursor type: [M+H]+
m/z	relative intensity
92.6	1
92.7	3
92.8	4
92.9	6
93.0	8
93.1	8
93.2	8
93.3	7
93.4	5
93.5	3
123.3	0
123.4	2
123.5	4
123.6	8
123.7	14
123.8	24
123.9	37
124.0	48
124.1	56
124.2	57
124.3	52
124.4	42
124.5	28
124.6	13
124.7	2
305.4	1
305.5	4
305.6	8
305.7	16
305.8	30
305.9	51
306.0	75
306.1	93
306.2	99
306.3	95
306.4	81
306.5	58
306.6	30
306.7	8
306.8	0
