Mass spectrum: 14,16-Dianhydrogitoxigenin; LC-ESI-QQQ; MS2; Frag=135.0V CID@10.0 ; [M+H]+
Name: 14,16-Dianhydrogitoxigenin
Class: Steroids
Formula: C23H30O3
Exact mass: 354.49375
SMILES: C[C@]12CCC3C(CCC4CC(O)CC[C@@]43C)C1=CC=C2C1=CC(=O)OC1
InChI: InChI=1S/C23H30O3/c1-22-9-7-16(24)12-15(22)3-4-17-19-6-5-18(14-11-21(25)26-13-14)23(19,2)10-8-20(17)22/h5-6,11,15-17,20,24H,3-4,7-10,12-13H2,1-2H3/t15?,16?,17?,20?,22-,23+/m0/s1
Instrument: Agilent 6410 Triple Quadrupole LC/MS system
Instrument type: LC-ESI-QQQ
Ms type: MS2
Ion mode: POSITIVE
Precursor type: [M+H]+
m/z	relative intensity
336.6	1
336.7	2
336.8	4
336.9	6
337.0	10
337.1	13
337.2	15
337.3	15
337.4	13
337.5	10
337.6	5
337.7	1
354.4	0
354.5	3
354.6	8
354.7	15
354.8	27
354.9	43
355.0	64
355.1	83
355.2	96
355.3	99
355.4	91
355.5	70
355.6	40
355.7	13
355.8	0
