Mass spectrum: Reserpinine; LC-ESI-QQQ; MS2; Frag=135.0V CID@25.0; [M+H]+
Name: Reserpinine
Class: Alkaloids
Formula: C22H26N2O4
Exact mass: 382.4635
SMILES: COC(=O)C1=CO[C@@H](C)[C@@H]2CN3CCc4c([nH]c5cc(OC)ccc45)[C@@H]3C[C@H]12
InChI: InChI=1S/C22H26N2O4/c1-12-17-10-24-7-6-15-14-5-4-13(26-2)8-19(14)23-21(15)20(24)9-16(17)18(11-28-12)22(25)27-3/h4-5,8,11-12,16-17,20,23H,6-7,9-10H2,1-3H3/t12-,16-,17-,20-/m0/s1
Instrument: Agilent 6410 Triple Quadrupole LC/MS system
Instrument type: LC-ESI-QQQ
Ms type: MS2
Ion mode: POSITIVE
Precursor type: [M+H]+
m/z	relative intensity
173.3	1
173.4	3
173.5	7
173.6	12
173.7	23
173.8	41
173.9	64
174.0	86
174.1	98
174.2	99
174.3	89
174.4	69
174.5	41
174.6	16
174.7	1
221.6	2
221.7	3
221.8	7
221.9	11
222.0	15
222.1	18
222.2	18
222.3	16
222.4	12
222.5	7
222.6	2
