Mass spectrum: Erythromycin; LC-ESI-QQQ; MS2; Frag=135.0V CID@5.0; [M+H]+
Name: Erythromycin
Class: Polyketides
Formula: C37H67NO13
Exact mass: 733.9454
SMILES: CCC1OC(=O)C(C)C(OC2CC(C)(OC)C(O)C(C)O2)C(C)C(OC2OC(C)CC(N(C)C)C2O)C(C)(O)CC(C)C(=O)C(C)C(O)C1(C)O
InChI: InChI=1S/C37H67NO13/c1-14-25-37(10,45)30(41)20(4)27(39)18(2)16-35(8,44)32(51-34-28(40)24(38(11)12)15-19(3)47-34)21(5)29(22(6)33(43)49-25)50-26-17-36(9,46-13)31(42)23(7)48-26/h18-26,28-32,34,40-42,44-45H,14-17H2,1-13H3
Instrument: Agilent 6410 Triple Quadrupole LC/MS system
Instrument type: LC-ESI-QQQ
Ms type: MS2
Ion mode: POSITIVE
Precursor type: [M+H]+
m/z	relative intensity
575.7	2
575.8	3
575.9	4
576.0	6
576.1	8
576.2	10
576.3	10
576.4	9
576.5	6
576.6	3
733.3	1
733.4	2
733.5	5
733.6	9
733.7	16
733.8	26
733.9	40
734.0	58
734.1	75
734.2	90
734.3	99
734.4	99
734.5	87
734.6	65
734.7	37
734.8	15
734.9	2
