Mass spectrum: Confoline; LC-ESI-QQQ; MS2; Frag=135.0V CID@5.0; [M+H]+
Name: Confoline
Class: Alkaloids
Formula: C17H21NO5
Exact mass: 319.3606
SMILES: COc1ccc(C(=O)OC2C[C@@H]3CC[C@H](C2)N3C=O)cc1OC
InChI: InChI=1S/C17H21NO5/c1-21-15-6-3-11(7-16(15)22-2)17(20)23-14-8-12-4-5-13(9-14)18(12)10-19/h3,6-7,10,12-14H,4-5,8-9H2,1-2H3/t12-,13+,14?
Instrument: Agilent 6410 Triple Quadrupole LC/MS system
Instrument type: LC-ESI-QQQ
Ms type: MS2
Ion mode: POSITIVE
Precursor type: [M+H]+
m/z	relative intensity
137.3	0
137.4	3
137.5	8
137.6	17
137.7	30
137.8	48
137.9	70
138.0	89
138.1	99
138.2	99
138.3	90
138.4	70
138.5	43
138.6	17
138.7	1
182.6	2
182.7	3
182.8	6
182.9	9
183.0	11
183.1	13
183.2	12
183.3	10
183.4	8
183.5	4
183.6	1
319.4	1
319.5	2
319.6	3
319.7	6
319.8	10
319.9	16
320.0	24
320.1	31
320.2	35
320.3	34
320.4	29
320.5	18
320.6	7
320.7	0
