Mass spectrum: Songorine; LC-ESI-QQQ; MS2; Frag=135.0V CID@25.0 ; [M+H]+
Name: Songorine
Class: Alkaloids
Formula: C22H31NO3
Exact mass: 357.49727000000007
SMILES: C=C1[C@@H]2C[C@]3(C(CC2=O)[C@@]24C(O)CC[C@@]5(C)CN(CC)C2[C@@H]3CC54)[C@@H]1O
InChI: InChI=1S/C22H31NO3/c1-4-23-10-20(3)6-5-17(25)22-15(20)7-13(18(22)23)21-9-12(11(2)19(21)26)14(24)8-16(21)22/h12-13,15-19,25-26H,2,4-10H2,1,3H3/t12-,13-,15?,16?,17?,18?,19+,20-,21-,22-/m0/s1
Instrument: Agilent 6410 Triple Quadrupole LC/MS system
Instrument type: LC-ESI-QQQ
Ms type: MS2
Ion mode: POSITIVE
Precursor type: [M+H]+
m/z	relative intensity
339.4	0
339.5	2
339.6	5
339.7	12
339.8	22
339.9	37
340.0	57
340.1	78
340.2	93
340.3	99
340.4	94
340.5	75
340.6	46
340.7	18
340.8	0
357.5	0
357.6	2
357.7	5
357.8	9
357.9	15
358.0	24
358.1	33
358.2	41
358.3	44
358.4	42
358.5	35
358.6	22
358.7	9
358.8	0
