Mass spectrum: 1,4,6-Trihydroxy-11(13)-eudesmen-12,8-olide 6-Tigloyl; LC-ESI-QQQ; MS2; Frag=135.0V CID@5.0; [M+H]+
Name: 1,4,6-Trihydroxy-11(13)-eudesmen-12,8-olide 6-Tigloyl
Class: Terpenoids
Formula: C20H28O6
Exact mass: 364.4426
SMILES: C=C1C(=O)O[C@H]2CC3(C)C(O)CCC(C)(O)C3[C@@H](OC(=O)/C(C)=C/C)C12
InChI: InChI=1S/C20H28O6/c1-6-10(2)17(22)26-15-14-11(3)18(23)25-12(14)9-19(4)13(21)7-8-20(5,24)16(15)19/h6,12-16,21,24H,3,7-9H2,1-2,4-5H3/b10-6+/t12-,13?,14?,15-,16?,19?,20?/m0/s1
Instrument: Agilent 6410 Triple Quadrupole LC/MS system
Instrument type: LC-ESI-QQQ
Ms type: MS2
Ion mode: POSITIVE
Precursor type: [M+H]+
m/z	relative intensity
158.6	0
158.7	2
158.8	4
158.9	6
159.0	7
159.1	8
159.2	8
159.3	7
159.4	6
159.5	4
159.6	1
182.5	1
182.6	3
182.7	5
182.8	7
182.9	9
183.0	11
183.1	13
183.2	14
183.3	11
183.4	6
183.5	2
200.5	0
200.6	2
200.7	4
200.8	7
200.9	10
201.0	11
201.1	11
201.2	9
201.3	7
201.4	3
218.7	1
218.8	3
218.9	5
219.0	8
219.1	9
219.2	9
219.3	7
219.4	4
219.5	1
228.6	3
228.7	5
228.8	11
228.9	21
229.0	32
229.1	41
229.2	45
229.3	41
229.4	31
229.5	16
229.6	4
229.7	0
246.4	3
246.5	4
246.6	6
246.7	12
246.8	26
246.9	47
247.0	66
247.1	75
247.2	73
247.3	64
247.4	49
247.5	27
247.6	8
247.7	0
264.5	0
264.6	2
264.7	3
264.8	6
264.9	9
265.0	12
265.1	14
265.2	14
265.3	11
265.4	7
265.5	3
364.2	1
364.3	3
364.4	4
364.5	6
364.6	11
364.7	21
364.8	38
364.9	60
365.0	80
365.1	92
365.2	99
365.3	99
365.4	85
365.5	55
365.6	21
365.7	0
