Mass spectrum: Methyl galbanate; LC-ESI-QQQ; MS2; Frag=135.0V CID@10.0; [M+H]+
Name: Methyl galbanate
Class: Benzopyranoids
Formula: C25H32O5
Exact mass: 412.5308
SMILES: COC(=O)CC[C@H]1C(=C(C)C)CC[C@H](C)[C@]1(C)COc1ccc2ccc(=O)oc2c1
InChI: InChI=1S/C25H32O5/c1-16(2)20-10-6-17(3)25(4,21(20)11-13-23(26)28-5)15-29-19-9-7-18-8-12-24(27)30-22(18)14-19/h7-9,12,14,17,21H,6,10-11,13,15H2,1-5H3/t17-,21-,25-/m0/s1
Instrument: Agilent 6410 Triple Quadrupole LC/MS system
Instrument type: LC-ESI-QQQ
Ms type: MS2
Ion mode: POSITIVE
Precursor type: [M+H]+
m/z	relative intensity
94.7	1
94.8	2
94.9	4
95.0	5
95.1	6
95.2	6
95.3	5
95.4	3
108.5	1
108.6	3
108.7	6
108.8	10
108.9	14
109.0	18
109.1	20
109.2	19
109.3	16
109.4	12
109.5	7
109.6	2
122.8	2
122.9	3
123.0	5
123.1	5
123.2	5
123.3	4
123.4	3
134.7	1
134.8	3
134.9	4
135.0	5
135.1	5
135.2	5
135.3	3
135.4	2
148.7	2
148.8	3
148.9	5
149.0	6
149.1	7
149.2	7
149.3	6
149.4	4
149.5	2
162.2	1
162.3	3
162.4	6
162.5	10
162.6	16
162.7	28
162.8	49
162.9	73
163.0	92
163.1	99
163.2	93
163.3	76
163.4	51
163.5	25
163.6	5
163.7	0
166.6	1
166.7	2
166.8	5
166.9	8
167.0	11
167.1	12
167.2	11
167.3	10
167.4	7
167.5	4
176.7	1
176.8	3
176.9	5
177.0	7
177.1	8
177.2	8
177.3	8
177.4	7
177.5	4
177.6	2
180.6	2
180.7	4
180.8	7
180.9	11
181.0	16
181.1	19
181.2	20
181.3	18
181.4	13
181.5	6
181.6	1
188.5	2
188.6	3
188.7	6
188.8	11
188.9	17
189.0	21
189.1	22
189.2	20
189.3	16
189.4	10
189.5	4
189.6	0
194.5	1
194.6	2
194.7	4
194.8	9
194.9	15
195.0	22
195.1	26
195.2	27
195.3	24
195.4	19
195.5	12
195.6	5
195.7	0
200.8	2
200.9	4
201.0	5
201.1	6
201.2	6
201.3	6
201.4	5
201.5	4
201.6	2
218.6	1
218.7	3
218.8	6
218.9	10
219.0	14
219.1	17
219.2	17
219.3	15
219.4	12
219.5	7
219.6	3
250.4	1
250.5	3
250.6	4
250.7	7
250.8	13
250.9	22
251.0	33
251.1	42
251.2	47
251.3	46
251.4	41
251.5	30
251.6	16
251.7	4
