Mass spectrum: Dihydrosamidin; LC-ESI-QQQ; MS2; Frag=135.0V CID@25.0; [M+NH4]+
Name: Dihydrosamidin
Class: Benzopyranoids
Formula: C21H24O7
Exact mass: 388.4212
SMILES: CC(=O)OC1c2c(ccc3ccc(=O)oc23)OC(C)(C)C1OC(=O)CC(C)C
InChI: InChI=1S/C21H24O7/c1-11(2)10-16(24)27-20-19(25-12(3)22)17-14(28-21(20,4)5)8-6-13-7-9-15(23)26-18(13)17/h6-9,11,19-20H,10H2,1-5H3
Instrument: Agilent 6410 Triple Quadrupole LC/MS system
Instrument type: LC-ESI-QQQ
Ms type: MS2
Ion mode: POSITIVE
Precursor type: [M+NH4]+
m/z	relative intensity
56.4	2
56.5	3
56.6	4
56.7	6
56.8	10
56.9	17
57.0	24
57.1	28
57.2	28
57.3	24
57.4	18
57.5	10
57.6	3
84.6	1
84.7	2
84.8	4
84.9	7
85.0	9
85.1	10
85.2	8
85.3	6
85.4	3
174.5	1
174.6	3
174.7	5
174.8	8
174.9	9
175.0	8
175.1	6
175.2	5
175.3	3
226.3	1
226.4	4
226.5	6
226.6	11
226.7	20
226.8	34
226.9	46
227.0	53
227.1	56
227.2	55
227.3	50
227.4	37
227.5	19
227.6	4
244.1	1
244.2	3
244.3	5
244.4	6
244.5	8
244.6	13
244.7	26
244.8	49
244.9	74
245.0	93
245.1	99
245.2	96
245.3	85
245.4	64
245.5	36
245.6	11
245.7	0
