Mass spectrum: Na-Desacetylisoretuline; LC-ESI-QQQ; MS2; Frag=135.0V CID@25.0 ; [M+H]+
Name: Na-Desacetylisoretuline
Class: Alkaloids
Formula: C19H24N2O
Exact mass: 296.41593
SMILES: C/C=C1/CN2CCC34c5ccccc5NC3[C@H](CO)[C@H]1CC24
InChI: InChI=1S/C19H24N2O/c1-2-12-10-21-8-7-19-15-5-3-4-6-16(15)20-18(19)14(11-22)13(12)9-17(19)21/h2-6,13-14,17-18,20,22H,7-11H2,1H3/b12-2-/t13-,14+,17?,18?,19?/m0/s1
Instrument: Agilent 6410 Triple Quadrupole LC/MS system
Instrument type: LC-ESI-QQQ
Ms type: MS2
Ion mode: POSITIVE
Precursor type: [M+H]+
m/z	relative intensity
105.7	1
105.8	3
105.9	4
106.0	5
106.1	5
106.2	4
106.3	4
106.4	3
107.3	1
107.4	4
107.5	10
107.6	20
107.7	35
107.8	54
107.9	74
108.0	90
108.1	97
108.2	94
108.3	82
108.4	62
108.5	38
108.6	15
108.7	1
137.7	2
137.8	3
137.9	4
138.0	5
138.1	6
138.2	6
138.3	5
138.4	4
138.5	2
143.5	1
143.6	3
143.7	5
143.8	8
143.9	11
144.0	13
144.1	14
144.2	14
144.3	12
144.4	9
144.5	5
144.6	2
296.4	1
296.5	4
296.6	9
296.7	16
296.8	29
296.9	48
297.0	70
297.1	88
297.2	98
297.3	99
297.4	89
297.5	66
297.6	35
297.7	9
297.8	0
