Mass spectrum: sipeimine; LC-ESI-QQQ; MS2; Frag=135.0V CID@25.0; [M+H]+
Name: sipeimine
Class: Alkaloids
Formula: C27H43NO3
Exact mass: 429.6487
SMILES: C[C@H]1CC[C@@H]2N(C1)C[C@H]1[C@@H]3C[C@H]4[C@@H](CC(=O)[C@H]5C[C@@H](O)CC[C@@]54C)[C@@H]3CC[C@H]1[C@]2(C)O
InChI: InChI=1S/C27H43NO3/c1-15-4-7-25-27(3,31)21-6-5-17-18(20(21)14-28(25)13-15)11-22-19(17)12-24(30)23-10-16(29)8-9-26(22,23)2/h15-23,25,29,31H,4-14H2,1-3H3/t15-,16-,17+,18+,19-,20-,21+,22-,23+,25-,26+,27-/m0/s1
Instrument: Agilent 6410 Triple Quadrupole LC/MS system
Instrument type: LC-ESI-QQQ
Ms type: MS2
Ion mode: POSITIVE
Precursor type: [M+H]+
m/z	relative intensity
411.4	0
411.5	2
411.6	5
411.7	11
411.8	21
411.9	36
412.0	55
412.1	74
412.2	90
412.3	99
412.4	99
412.5	87
412.6	63
412.7	33
412.8	9
412.9	0
429.5	1
429.6	2
429.7	6
429.8	13
429.9	24
430.0	38
430.1	52
430.2	62
430.3	67
430.4	66
430.5	60
430.6	46
430.7	27
430.8	9
430.9	0
