Mass spectrum: Rosamicin; LC-ESI-QQQ; MS2; Frag=135.0V CID@15.0; [M+H]+
Name: Rosamicin
Class: Polyketides
Formula: C31H51NO9
Exact mass: 581.7534
SMILES: CC[C@H]1OC(=O)C[C@@H](O)[C@H](C)[C@@H](O[C@@H]2O[C@H](C)C[C@H](N(C)C)C2O)[C@@H](CC=O)C[C@@H](C)C(=O)/C=C/[C@]2(C)O[C@H]2[C@@H]1C
InChI: InChI=1S/C31H51NO9/c1-9-25-20(5)29-31(6,41-29)12-10-23(34)17(2)14-21(11-13-33)28(19(4)24(35)16-26(36)39-25)40-30-27(37)22(32(7)8)15-18(3)38-30/h10,12-13,17-22,24-25,27-30,35,37H,9,11,14-16H2,1-8H3/b12-10+/t17-,18-,19+,20-,21+,22+,24-,25-,27?,28-,29+,30+,31+/m1/s1
Instrument: Agilent 6410 Triple Quadrupole LC/MS system
Instrument type: LC-ESI-QQQ
Ms type: MS2
Ion mode: POSITIVE
Precursor type: [M+H]+
m/z	relative intensity
115.7	2
115.8	3
115.9	4
116.0	6
116.1	6
116.2	6
116.3	5
116.4	3
157.3	1
157.4	4
157.5	9
157.6	17
157.7	31
157.8	50
157.9	72
158.0	90
158.1	99
158.2	98
158.3	86
158.4	66
158.5	41
158.6	18
158.7	3
581.8	2
581.9	3
582.0	6
582.1	8
582.2	10
582.3	11
582.4	11
582.5	10
582.6	8
582.7	5
582.8	1
