Mass spectrum: O-Acetylsolasodine; LC-ESI-QQQ; MS2; Frag=135.0V CID@5.0; [M+H]+
Name: Spirosol-5-en-3-yl acetate
Name: (9S,13R,26R)-7,9,13,23-tetramethyl-5-oxaspiro(pentacyclo(10.8.0.0(2,9).0(4,8).0(13,18))icosane-6,6'-piperidine)-18-en-16-yl acetate
Name: O-Acetylsolasodine
Class: Alkaloids
Formula: C29H45NO3
Exact mass: 455.6869
SMILES: CC(=O)OC1CC[C@@]2(C)C(=CCC3C4CC5O[C@]6(CCC(C)CN6)C(C)C5[C@@]4(C)CCC32)C1
InChI: InChI=1S/C29H45NO3/c1-17-8-13-29(30-16-17)18(2)26-25(33-29)15-24-22-7-6-20-14-21(32-19(3)31)9-11-27(20,4)23(22)10-12-28(24,26)5/h6,17-18,21-26,30H,7-16H2,1-5H3/t17?,18?,21?,22?,23?,24?,25?,26?,27-,28-,29+/m0/s1
Instrument: Agilent 6410 Triple Quadrupole LC/MS system
Instrument type: LC-ESI-QQQ
Ms type: MS2
Ion mode: POSITIVE
Precursor type: [M+H]+
m/z	relative intensity
455.4	1
455.5	2
455.6	5
455.7	10
455.8	17
455.9	31
456.0	50
456.1	72
456.2	90
456.3	99
456.4	98
456.5	87
456.6	66
456.7	39
456.8	14
456.9	0
