Mass spectrum: Usnone A; LC-ESI-QQQ; MS2; Frag=135.0V CID@5.0; [M+H]+
Name: Usnone A
Class: Terpenoids
Formula: C18H16O7
Exact mass: 344.324
SMILES: CC(=O)c1c(O)c(C)c(O)c2c1OC1=CC(=O)C(C(C)=O)C(=O)[C@@]12C
InChI: InChI=1S/C18H16O7/c1-6-14(22)12(8(3)20)16-13(15(6)23)18(4)10(25-16)5-9(21)11(7(2)19)17(18)24/h5,11,22-23H,1-4H3/t11?,18-/m0/s1
Instrument: Agilent 6410 Triple Quadrupole LC/MS system
Instrument type: LC-ESI-QQQ
Ms type: MS2
Ion mode: POSITIVE
Precursor type: [M+H]+
m/z	relative intensity
326.5	1
326.6	3
326.7	4
326.8	6
326.9	8
327.0	9
327.1	10
327.2	9
327.3	6
327.4	3
327.5	1
344.2	0
344.3	1
344.4	3
344.5	7
344.6	13
344.7	25
344.8	41
344.9	60
345.0	80
345.1	95
345.2	99
345.3	88
345.4	61
345.5	30
345.6	6
345.7	0
