Mass spectrum: Dihydroqinghaosu, Dihydroartemisinin.; LC-ESI-QQQ; MS2; Frag=135.0V CID@25.0; [M+H]+
Name: Dihydroqinghaosu, Dihydroartemisinin.
Class: Terpenoids
Formula: C15H24O5
Exact mass: 284.3555
SMILES: C[C@@H]1CC[C@H]2[C@@H](C)[C@@H](O)OC3O[C@]4(C)CCC1C32OO4
InChI: InChI=1S/C15H24O5/c1-8-4-5-11-9(2)12(16)17-13-15(11)10(8)6-7-14(3,18-13)19-20-15/h8-13,16H,4-7H2,1-3H3/t8-,9-,10?,11+,12+,13?,14+,15?/m1/s1
Instrument: Agilent 6410 Triple Quadrupole LC/MS system
Instrument type: LC-ESI-QQQ
Ms type: MS2
Ion mode: POSITIVE
Precursor type: [M+H]+
m/z	relative intensity
52.0	2
52.1	5
52.2	8
52.3	9
53.3	3
53.4	6
53.5	8
53.6	7
53.9	2
54.0	5
54.1	8
54.2	9
54.3	7
54.6	4
54.7	7
54.8	9
54.9	8
55.2	4
55.3	7
55.4	10
55.5	9
55.6	6
56.5	5
56.6	9
56.7	13
56.8	14
56.9	14
57.0	16
57.1	20
57.2	22
57.3	23
57.4	21
57.5	17
57.6	11
59.0	2
59.1	5
59.2	9
59.3	9
59.4	6
61.0	4
61.1	8
61.2	10
61.3	10
62.9	4
63.0	7
63.1	9
63.2	8
63.3	5
64.2	4
64.3	7
64.4	9
64.5	7
64.8	2
64.9	5
65.0	8
65.1	9
65.2	8
65.5	5
65.6	8
65.7	9
65.8	8
66.1	4
66.2	7
66.3	10
66.4	10
66.5	8
68.0	4
68.1	8
68.2	11
68.3	10
68.6	6
68.7	9
68.8	12
68.9	11
69.0	7
69.3	4
69.4	8
69.5	13
69.6	15
69.7	15
69.8	13
69.9	11
70.0	10
70.1	10
70.2	9
70.5	3
70.6	8
70.7	17
70.8	24
70.9	26
71.0	23
71.1	16
71.2	9
74.4	1
74.5	4
74.6	7
74.7	8
74.8	5
75.7	3
75.8	6
75.9	8
76.0	8
76.1	7
76.2	5
76.3	5
76.4	7
76.5	8
76.6	8
78.9	4
79.0	7
79.1	9
79.2	8
79.3	6
80.2	3
80.3	6
80.4	7
80.5	7
80.6	5
80.7	4
80.8	7
80.9	10
81.0	12
82.1	4
82.2	6
82.3	9
82.4	8
82.5	6
83.4	4
83.5	6
83.6	7
83.7	7
83.8	5
83.9	4
84.0	5
84.1	8
84.2	10
84.3	8
84.4	4
84.6	1
84.7	4
84.8	7
84.9	9
85.0	7
85.3	4
85.4	7
85.5	9
85.6	9
85.7	6
87.2	4
87.3	9
87.4	11
87.5	9
87.6	7
87.7	13
87.8	30
87.9	53
88.0	68
88.1	62
88.2	40
88.3	17
88.4	4
89.1	2
89.2	5
89.3	8
89.4	7
89.5	4
91.7	2
91.8	5
91.9	8
92.0	9
93.6	4
93.7	7
93.8	9
93.9	9
94.0	6
95.5	3
95.6	5
95.7	8
95.8	9
95.9	7
96.8	3
96.9	6
97.0	9
97.1	9
97.2	7
97.5	4
97.6	6
97.7	7
97.8	6
98.1	3
98.2	7
98.3	9
98.4	9
98.5	6
100.0	4
100.1	7
100.2	10
100.3	9
100.6	3
100.7	6
100.8	9
100.9	9
101.0	6
101.9	5
102.0	8
102.1	10
102.2	9
102.3	7
104.5	4
104.6	8
104.7	11
104.8	10
104.9	6
105.8	3
105.9	6
106.0	8
106.1	7
106.4	4
106.5	6
106.6	9
106.7	9
106.8	7
107.7	3
107.8	8
107.9	11
108.0	9
108.3	3
108.4	7
108.5	10
108.6	10
108.7	7
109.0	4
109.1	7
109.2	8
109.3	7
109.6	4
109.7	7
109.8	9
109.9	9
110.0	6
110.9	4
111.0	6
111.1	8
111.2	7
112.8	5
112.9	7
113.0	9
113.1	9
113.2	6
114.1	3
114.2	6
114.3	8
114.4	8
115.3	4
115.4	8
115.5	14
115.6	15
115.7	10
115.8	4
116.0	2
116.1	5
116.2	8
116.3	8
116.4	6
117.2	3
117.3	6
117.4	10
117.5	12
117.6	9
117.7	5
121.1	2
121.2	6
121.3	9
121.4	9
121.5	6
122.4	3
122.5	7
122.6	10
122.7	10
122.8	7
124.3	3
124.4	6
124.5	10
124.6	10
124.7	7
125.0	3
125.1	7
125.2	9
125.3	8
126.2	2
126.3	5
126.4	8
126.5	10
126.6	8
126.9	3
127.0	6
127.1	8
127.2	8
128.2	5
128.3	7
128.4	8
128.5	7
128.8	5
128.9	7
129.0	9
129.1	8
132.0	5
132.1	8
132.2	10
132.3	9
132.4	5
133.3	4
133.4	8
133.5	11
133.6	10
133.7	6
135.2	2
135.3	5
135.4	8
135.5	9
135.6	7
136.5	3
136.6	7
136.7	11
136.8	10
136.9	6
138.4	3
138.5	7
138.6	9
138.7	9
138.8	7
139.7	3
139.8	5
139.9	8
140.0	8
142.3	3
142.4	5
142.5	6
142.6	6
142.7	6
142.8	5
142.9	5
143.0	7
143.1	8
143.2	7
144.1	3
144.2	5
144.3	9
144.4	10
144.5	8
144.8	3
144.9	6
145.0	8
145.1	7
148.0	3
148.1	6
148.2	9
148.3	9
148.4	6
149.3	4
149.4	7
149.5	10
149.6	9
149.9	4
150.0	7
150.1	10
150.2	9
150.3	6
150.6	3
150.7	7
150.8	9
150.9	9
151.0	6
151.9	4
152.0	7
152.1	9
152.2	9
152.3	6
153.8	4
153.9	7
154.0	9
154.1	8
154.2	5
155.7	3
155.8	6
155.9	8
156.0	7
156.3	3
156.4	6
156.5	9
156.6	9
156.7	6
157.6	2
157.7	6
157.8	9
157.9	9
158.0	7
158.9	4
159.0	7
159.1	9
159.2	8
160.8	4
160.9	8
161.0	11
161.1	12
161.2	8
161.5	3
161.6	6
161.7	7
161.8	6
161.9	4
162.0	3
162.1	5
162.2	7
162.3	9
162.4	8
163.4	5
163.5	7
163.6	8
163.7	8
164.0	5
164.1	8
164.2	10
164.3	9
164.4	5
167.2	4
167.3	7
167.4	9
167.5	9
167.6	6
169.1	4
169.2	7
169.3	10
169.4	11
169.5	8
169.8	5
169.9	8
170.0	9
170.1	8
172.3	3
172.4	6
172.5	8
172.6	8
172.7	5
174.9	4
175.0	7
175.1	9
175.2	9
175.5	5
175.6	7
175.7	10
175.8	10
175.9	7
176.2	3
176.3	6
176.4	8
176.5	8
176.8	5
176.9	8
177.0	10
177.1	9
177.2	6
180.0	3
180.1	6
180.2	8
180.3	7
180.6	3
180.7	6
180.8	9
180.9	10
181.0	8
181.3	4
181.4	7
181.5	8
181.6	7
184.5	4
184.6	7
184.7	9
184.8	8
185.1	3
185.2	7
185.3	10
185.4	9
185.5	6
186.4	4
186.5	7
186.6	9
186.7	8
186.8	5
188.3	2
188.4	5
188.5	8
188.6	9
188.7	7
189.0	4
189.1	7
189.2	9
189.3	9
189.4	6
190.9	5
191.0	7
191.1	9
191.2	8
192.2	4
192.3	6
192.4	8
192.5	7
192.8	2
192.9	5
193.0	8
193.1	8
193.2	5
194.1	4
194.2	7
194.3	10
194.4	10
194.5	7
196.6	5
196.7	7
196.8	9
196.9	9
197.0	7
197.3	3
197.4	5
197.5	8
197.6	8
197.7	6
198.0	4
198.1	6
198.2	7
198.3	7
198.6	3
198.7	6
198.8	8
198.9	7
199.2	2
199.3	5
199.4	8
199.5	8
201.8	4
201.9	6
202.0	8
202.1	8
203.0	3
203.1	6
203.2	9
203.3	10
203.4	7
203.7	1
203.8	6
203.9	10
204.0	9
204.1	6
205.0	4
205.1	7
205.2	9
205.3	8
205.6	4
205.7	7
205.8	9
205.9	8
206.9	4
207.0	7
207.1	9
207.2	8
208.8	2
208.9	5
209.0	8
209.1	8
210.1	4
210.2	7
210.3	9
210.4	8
210.5	5
211.4	3
211.5	7
211.6	9
211.7	8
211.8	4
212.0	1
212.1	4
212.2	8
212.3	9
213.3	4
213.4	7
213.5	9
213.6	8
213.7	6
215.2	4
215.3	7
215.4	10
215.5	10
215.6	7
217.1	3
217.2	6
217.3	9
217.4	9
217.5	7
218.4	4
218.5	6
218.6	8
218.7	8
219.7	3
219.8	6
219.9	9
220.0	9
220.1	6
221.6	3
221.7	7
221.8	10
221.9	11
222.0	8
222.9	4
223.0	7
223.1	9
223.2	8
223.5	4
223.6	7
223.7	8
223.8	8
223.9	6
224.8	5
224.9	7
225.0	8
225.1	8
226.7	4
226.8	7
226.9	10
227.0	9
227.1	6
228.0	4
228.1	7
228.2	9
228.3	9
228.4	5
229.3	4
229.4	6
229.5	8
229.6	7
230.6	3
230.7	7
230.8	9
230.9	8
231.2	4
231.3	7
231.4	9
231.5	9
231.6	7
232.5	4
232.6	6
232.7	8
232.8	8
234.4	3
234.5	6
234.6	9
234.7	8
237.6	5
237.7	7
237.8	9
237.9	8
239.5	3
239.6	6
239.7	8
239.8	9
239.9	8
245.9	3
246.0	7
246.1	10
246.2	10
246.3	7
246.6	3
246.7	7
246.8	9
246.9	9
247.0	6
247.8	1
247.9	4
248.0	8
248.1	9
248.2	7
248.5	3
248.6	7
248.7	9
248.8	8
250.4	2
250.5	5
250.6	8
250.7	10
250.8	8
251.1	4
251.2	8
251.3	10
251.4	8
251.7	3
251.8	6
251.9	8
252.0	8
253.6	4
253.7	7
253.8	9
253.9	9
254.0	6
255.5	4
255.6	6
255.7	9
255.8	9
256.8	4
256.9	7
257.0	9
257.1	9
257.2	6
258.1	4
258.2	7
258.3	9
258.4	8
260.0	2
260.1	6
260.2	10
260.3	10
260.4	7
261.3	2
261.4	5
261.5	8
261.6	8
263.2	3
263.3	6
263.4	8
263.5	9
263.6	7
264.5	4
264.6	7
264.7	9
264.8	8
264.9	5
265.8	5
265.9	7
266.0	9
266.1	8
266.2	5
267.7	3
267.8	7
267.9	9
268.0	9
268.1	6
270.2	2
270.3	5
270.4	9
270.5	9
270.6	7
270.9	3
271.0	6
271.1	8
271.2	8
272.8	4
272.9	8
273.0	10
273.1	8
273.4	3
273.5	6
273.6	9
273.7	9
273.8	7
274.1	4
274.2	6
274.3	7
274.4	6
274.7	3
274.8	5
274.9	8
275.0	8
275.1	6
275.4	4
275.5	7
275.6	8
275.7	7
276.0	5
276.1	8
276.2	9
276.3	8
279.2	3
279.3	5
279.4	8
279.5	8
280.5	4
280.6	7
280.7	9
280.8	8
281.1	3
281.2	6
281.3	8
281.4	9
281.5	7
282.4	1
282.5	4
282.6	7
282.7	8
284.8	2
284.9	4
285.0	13
285.1	32
285.2	56
285.3	75
285.4	74
285.5	53
285.6	26
285.7	10
285.8	6
286.2	3
286.3	6
286.4	8
286.5	9
286.6	6
290.1	4
290.2	7
290.3	10
290.4	9
290.5	6
293.3	4
293.4	7
293.5	8
293.6	7
293.9	4
294.0	7
294.1	10
294.2	10
294.3	8
294.6	3
294.7	6
294.8	8
294.9	7
295.8	3
295.9	6
296.0	9
296.1	9
296.2	7
296.5	4
296.6	7
296.7	9
296.8	8
297.8	5
297.9	8
298.0	9
298.1	9
299.7	3
299.8	6
299.9	8
300.0	7
300.3	3
300.4	6
300.5	9
300.6	10
300.7	8
301.6	4
301.7	6
301.8	8
301.9	7
302.2	2
302.3	5
302.4	8
302.5	9
302.6	6
302.9	4
303.0	6
303.1	8
303.2	8
303.5	4
303.6	7
303.7	9
303.8	9
303.9	8
304.8	4
304.9	7
305.0	9
305.1	8
305.2	6
306.7	3
306.8	5
306.9	8
307.0	9
307.1	6
307.4	3
307.5	6
307.6	8
307.7	8
312.5	2
312.6	6
312.7	9
312.8	9
313.8	3
313.9	6
314.0	8
314.1	8
314.2	7
314.3	5
314.4	5
314.5	6
314.6	7
314.7	6
315.0	2
315.1	5
315.2	8
315.3	9
315.4	7
315.7	3
315.8	6
315.9	8
316.0	8
318.9	1
319.0	5
319.1	9
319.2	10
319.3	8
320.8	4
320.9	7
321.0	10
321.1	9
321.2	6
321.5	4
321.6	8
321.7	10
321.8	9
321.9	6
322.7	4
322.8	7
322.9	8
323.0	8
323.1	6
325.3	4
325.4	7
325.5	9
325.6	8
326.5	3
326.6	5
326.7	8
326.8	9
326.9	7
327.2	3
327.3	6
327.4	8
327.5	9
327.6	7
328.5	4
328.6	7
328.7	9
328.8	8
329.8	2
329.9	5
330.0	8
330.1	8
331.7	4
331.8	7
331.9	9
332.0	9
332.1	6
333.6	4
333.7	6
333.8	8
333.9	8
334.0	5
334.9	4
335.0	7
335.1	10
335.2	8
335.5	3
335.6	6
335.7	8
335.8	7
336.8	3
336.9	6
337.0	8
337.1	8
338.1	4
338.2	7
338.3	10
338.4	9
338.5	5
338.7	2
338.8	5
338.9	9
339.0	10
339.1	7
339.4	4
339.5	8
339.6	10
339.7	9
340.0	4
340.1	7
340.2	9
340.3	9
340.4	6
341.9	3
342.0	6
342.1	9
342.2	9
342.3	6
344.5	4
344.6	7
344.7	9
344.8	8
346.4	2
346.5	5
346.6	8
346.7	8
349.0	5
349.1	7
349.2	9
349.3	8
349.6	3
349.7	6
349.8	9
349.9	8
350.0	6
352.8	3
352.9	6
353.0	8
353.1	8
354.7	5
354.8	7
354.9	9
355.0	9
355.1	6
356.7	3
356.8	5
356.9	8
357.0	8
357.3	5
357.4	8
357.5	10
357.6	8
357.7	5
358.6	4
358.7	7
358.8	9
358.9	7
359.2	2
359.3	6
359.4	9
359.5	9
359.6	7
360.5	4
360.6	7
360.7	9
360.8	8
361.1	3
361.2	6
361.3	8
361.4	9
361.5	7
362.4	2
362.5	6
362.6	10
362.7	10
362.8	7
365.6	3
365.7	6
365.8	8
365.9	9
366.0	7
366.9	3
367.0	6
367.1	8
367.2	7
367.5	3
367.6	6
367.7	9
367.8	9
367.9	7
368.8	4
368.9	6
369.0	8
369.1	7
369.4	2
369.5	5
369.6	8
369.7	9
369.8	8
370.7	5
370.8	8
370.9	10
371.0	10
371.1	7
371.4	3
371.5	6
371.6	9
371.7	9
371.8	7
373.9	3
374.0	6
374.1	8
374.2	8
375.2	5
375.3	7
375.4	9
375.5	8
375.6	5
377.1	3
377.2	6
377.3	9
377.4	10
377.5	8
377.8	5
377.9	7
378.0	8
378.1	7
378.4	4
378.5	8
378.6	10
378.7	9
378.8	6
380.3	4
380.4	6
380.5	9
380.6	9
380.7	7
381.6	4
381.7	7
381.8	9
381.9	8
382.2	3
382.3	6
382.4	9
382.5	9
382.6	7
382.9	3
383.0	6
383.1	9
383.2	9
383.3	6
384.2	4
384.3	7
384.4	10
384.5	9
384.6	6
386.1	4
386.2	8
386.3	11
386.4	10
386.5	7
387.4	3
387.5	5
387.6	7
387.7	7
388.7	4
388.8	6
388.9	8
389.0	7
389.3	4
389.4	6
389.5	8
389.6	7
389.9	4
390.0	6
390.1	8
390.2	9
390.3	6
390.6	4
390.7	7
390.8	9
390.9	7
391.2	4
391.3	7
391.4	10
391.5	9
391.6	5
393.8	4
393.9	8
394.0	10
394.1	8
394.2	4
395.7	4
395.8	7
395.9	9
396.0	8
396.3	3
396.4	6
396.5	8
396.6	8
396.7	6
397.6	3
397.7	6
397.8	8
397.9	8
398.2	3
398.3	6
398.4	9
398.5	9
398.6	6
398.9	2
399.0	5
399.1	8
399.2	8
400.8	3
400.9	6
401.0	8
401.1	9
401.2	7
402.1	3
402.2	6
402.3	8
402.4	7
404.7	3
404.8	6
404.9	8
405.0	7
405.3	3
405.4	6
405.5	7
405.6	7
405.9	4
406.0	6
406.1	8
406.2	8
406.3	6
406.6	4
406.7	7
406.8	9
406.9	9
407.0	6
407.8	4
407.9	6
408.0	9
408.1	9
408.2	6
409.1	4
409.2	7
409.3	9
409.4	8
409.5	6
410.4	4
410.5	7
410.6	9
410.7	8
410.8	4
411.7	4
411.8	6
411.9	8
412.0	8
412.3	3
412.4	5
412.5	9
412.6	10
412.7	8
413.0	5
413.1	8
413.2	9
413.3	8
414.2	3
414.3	6
414.4	9
414.5	10
414.6	8
414.9	4
415.0	7
415.1	9
415.2	8
415.5	4
415.6	7
415.7	9
415.8	9
415.9	6
416.8	3
416.9	6
417.0	9
417.1	10
417.2	8
418.1	5
418.2	8
418.3	10
418.4	8
418.5	5
419.4	5
419.5	8
419.6	10
419.7	10
419.8	7
421.9	3
422.0	7
422.1	10
422.2	10
422.3	7
422.6	4
422.7	7
422.8	9
422.9	8
425.1	5
425.2	7
425.3	9
425.4	9
425.5	6
425.8	4
425.9	8
426.0	11
426.1	11
426.2	7
432.8	4
432.9	7
433.0	8
433.1	7
436.0	4
436.1	7
436.2	9
436.3	9
436.4	6
437.3	4
437.4	6
437.5	7
437.6	6
437.9	2
438.0	5
438.1	8
438.2	8
438.3	6
439.2	3
439.3	6
439.4	9
439.5	10
439.6	8
441.7	4
441.8	7
441.9	9
442.0	9
442.1	5
442.4	2
442.5	6
442.6	9
442.7	8
442.8	6
443.7	3
443.8	6
443.9	8
444.0	7
444.3	3
444.4	6
444.5	10
444.6	10
444.7	7
445.6	4
445.7	7
445.8	8
445.9	8
447.5	3
447.6	6
447.7	9
447.8	10
447.9	9
448.2	4
448.3	7
448.4	9
448.5	8
449.5	4
449.6	6
449.7	8
449.8	7
450.1	3
450.2	5
450.3	8
450.4	8
452.0	2
452.1	5
452.2	9
452.3	9
452.4	7
453.3	4
453.4	6
453.5	8
453.6	8
454.6	3
454.7	7
454.8	9
454.9	9
455.8	3
455.9	6
456.0	8
456.1	8
456.2	6
457.1	4
457.2	6
457.3	8
457.4	8
459.7	4
459.8	7
459.9	8
460.0	7
460.3	4
460.4	6
460.5	9
460.6	9
460.7	6
463.5	5
463.6	8
463.7	10
463.8	10
463.9	6
464.2	3
464.3	7
464.4	9
464.5	9
464.6	6
466.1	3
466.2	6
466.3	8
466.4	7
468.6	3
468.7	6
468.8	8
468.9	9
469.0	7
469.3	4
469.4	7
469.5	9
469.6	8
471.2	2
471.3	5
471.4	9
471.5	10
471.6	7
473.8	3
473.9	6
474.0	9
474.1	9
474.4	4
474.5	7
474.6	10
474.7	10
474.8	7
475.1	3
475.2	6
475.3	8
475.4	7
475.7	3
475.8	6
475.9	8
476.0	8
476.1	5
477.0	4
477.1	8
477.2	10
477.3	10
477.4	6
478.9	3
479.0	6
479.1	7
479.2	6
479.5	3
479.6	7
479.7	10
479.8	9
479.9	7
480.2	3
480.3	6
480.4	7
480.5	6
480.6	4
480.7	4
480.8	5
480.9	7
481.0	9
481.1	9
481.2	6
482.1	3
482.2	7
482.3	10
482.4	9
484.0	3
484.1	6
484.2	8
484.3	8
484.4	5
485.3	3
485.4	5
485.5	8
485.6	9
485.7	8
487.2	1
487.3	5
487.4	8
487.5	9
487.6	7
487.7	6
487.8	5
487.9	6
488.0	7
488.1	8
488.2	7
488.5	4
488.6	7
488.7	9
488.8	8
489.8	4
489.9	7
490.0	9
490.1	8
491.7	4
491.8	7
491.9	8
492.0	7
494.9	4
495.0	7
495.1	9
495.2	8
495.5	2
495.6	6
495.7	9
495.8	9
495.9	6
496.2	3
496.3	6
496.4	8
496.5	8
498.1	3
498.2	7
498.3	9
498.4	7
498.7	2
498.8	6
498.9	10
499.0	11
499.1	9
499.2	5
501.3	5
501.4	8
501.5	10
501.6	9
501.7	6
503.2	3
503.3	5
503.4	8
503.5	9
503.6	7
504.5	3
504.6	7
504.7	9
504.8	8
505.1	3
505.2	6
505.3	9
505.4	9
505.5	7
507.0	3
507.1	6
507.2	9
507.3	9
507.4	6
507.7	3
507.8	7
507.9	9
508.0	9
508.3	4
508.4	7
508.5	10
508.6	9
508.7	6
509.0	4
509.1	8
509.2	10
509.3	10
509.4	7
510.2	3
510.3	5
510.4	9
510.5	10
510.6	8
510.9	4
511.0	6
511.1	8
511.2	8
512.2	3
512.3	6
512.4	8
512.5	8
514.1	3
514.2	6
514.3	8
514.4	7
515.4	4
515.5	7
515.6	9
515.7	9
517.9	3
518.0	6
518.1	9
518.2	10
518.3	7
519.2	2
519.3	5
519.4	8
519.5	7
520.4	2
520.5	5
520.6	10
520.7	12
520.8	10
520.9	5
522.4	3
522.5	7
522.6	10
522.7	9
522.8	5
523.0	1
523.1	5
523.2	8
523.3	10
523.4	8
524.3	4
524.4	7
524.5	10
524.6	10
524.7	7
525.6	2
525.7	6
525.8	9
525.9	9
526.0	7
526.9	2
527.0	6
527.1	9
527.2	9
528.2	3
528.3	6
528.4	8
528.5	8
530.1	3
530.2	7
530.3	9
530.4	8
530.7	3
530.8	6
530.9	9
531.0	9
531.1	6
532.0	4
532.1	8
532.2	10
532.3	10
532.4	6
533.3	4
533.4	6
533.5	8
533.6	7
533.9	3
534.0	6
534.1	8
534.2	8
534.3	6
535.9	4
536.0	7
536.1	8
536.2	7
537.1	4
537.2	6
537.3	9
537.4	9
537.5	6
538.4	3
538.5	6
538.6	8
538.7	7
539.0	2
539.1	4
539.2	8
539.3	10
539.4	9
541.0	4
541.1	7
541.2	9
541.3	7
542.9	4
543.0	7
543.1	8
543.2	8
544.8	4
544.9	7
545.0	10
545.1	9
545.2	7
546.1	5
546.2	7
546.3	9
546.4	7
546.7	3
546.8	6
546.9	8
547.0	7
549.9	4
550.0	6
550.1	8
550.2	8
551.2	4
551.3	7
551.4	9
551.5	9
553.1	2
553.2	5
553.3	8
553.4	10
553.5	8
553.8	4
553.9	7
554.0	8
554.1	7
554.4	4
554.5	6
554.6	9
554.7	9
554.8	6
555.7	4
555.8	7
555.9	9
556.0	8
556.3	3
556.4	6
556.5	10
556.6	10
556.7	7
557.6	4
557.7	7
557.8	8
557.9	8
558.0	5
558.9	4
559.0	7
559.1	9
559.2	9
559.5	5
559.6	7
559.7	9
559.8	8
559.9	5
560.8	3
560.9	6
561.0	9
561.1	9
561.2	7
562.1	4
562.2	6
562.3	7
562.4	6
562.7	3
562.8	6
562.9	8
563.0	9
563.1	7
563.4	4
563.5	7
563.6	8
563.7	7
564.0	3
564.1	6
564.2	9
564.3	9
564.4	6
564.7	4
564.8	7
564.9	8
565.0	8
565.3	4
565.4	7
565.5	9
565.6	8
565.9	2
566.0	5
566.1	8
566.2	9
566.3	7
566.6	5
566.7	8
566.8	10
566.9	9
567.0	6
569.1	2
569.2	4
569.3	8
569.4	9
569.5	8
570.4	5
570.5	8
570.6	9
570.7	8
572.9	4
573.0	6
573.1	9
573.2	10
573.3	8
573.6	4
573.7	7
573.8	8
573.9	7
574.2	2
574.3	5
574.4	8
574.5	8
574.6	5
575.5	3
575.6	5
575.7	9
575.8	9
575.9	8
576.2	4
576.3	7
576.4	8
576.5	7
576.8	3
576.9	6
577.0	8
577.1	8
580.0	3
580.1	6
580.2	9
580.3	9
580.4	7
580.7	3
580.8	7
580.9	9
581.0	9
583.2	4
583.3	6
583.4	9
583.5	8
584.5	4
584.6	7
584.7	9
584.8	9
584.9	5
586.4	3
586.5	6
586.6	9
586.7	9
588.3	4
588.4	6
588.5	8
588.6	8
588.7	6
590.9	5
591.0	7
591.1	9
591.2	8
592.8	3
592.9	6
593.0	9
593.1	8
594.7	1
594.8	4
594.9	8
595.0	9
595.1	7
596.0	2
596.1	6
596.2	9
596.3	9
596.4	7
597.3	4
597.4	7
597.5	8
597.6	8
