Mass spectrum: Aconosine; LC-ESI-QQQ; MS2; Frag=135.0V CID@25.0; [M+H]+
Name: Aconosine
Class: Alkaloids
Formula: C22H35NO4
Exact mass: 377.5286
SMILES: CCN1C[C@@H]2CCC(OC)C34C5C[C@@H]6[C@@H](OC)C[C@@](O)(C5[C@H]6O)C(CC23)[C@@H]14
InChI: InChI=1S/C22H35NO4/c1-4-23-10-11-5-6-17(27-3)22-13(11)8-15(20(22)23)21(25)9-16(26-2)12-7-14(22)18(21)19(12)24/h11-20,24-25H,4-10H2,1-3H3/t11-,12+,13?,14?,15?,16-,17?,18?,19-,20+,21-,22?/m0/s1
Instrument: Agilent 6410 Triple Quadrupole LC/MS system
Instrument type: LC-ESI-QQQ
Ms type: MS2
Ion mode: POSITIVE
Precursor type: [M+H]+
m/z	relative intensity
345.5	0
345.6	2
345.7	5
345.8	10
345.9	16
346.0	23
346.1	29
346.2	33
346.3	36
346.4	34
346.5	26
346.6	14
346.7	3
377.4	0
377.5	1
377.6	4
377.7	9
377.8	17
377.9	32
378.0	53
378.1	76
378.2	93
378.3	99
378.4	93
378.5	73
378.6	43
378.7	15
378.8	0
