Mass spectrum: Nor-C-fluorocurarine; LC-ESI-QQQ; MS2; Frag=135.0V CID@10.0 ; [M+H]+
Name: Nor-C-fluorocurarine
Class: Alkaloids
Formula: C19H20N2O
Exact mass: 292.38405
SMILES: C/C=C1/CN2CCC34C(=C(C=O)[C@H]1CC23)Nc1ccccc14
InChI: InChI=1S/C19H20N2O/c1-2-12-10-21-8-7-19-15-5-3-4-6-16(15)20-18(19)14(11-22)13(12)9-17(19)21/h2-6,11,13,17,20H,7-10H2,1H3/b12-2-/t13-,17?,19?/m0/s1
Instrument: Agilent 6410 Triple Quadrupole LC/MS system
Instrument type: LC-ESI-QQQ
Ms type: MS2
Ion mode: POSITIVE
Precursor type: [M+H]+
m/z	relative intensity
292.4	2
292.5	4
292.6	7
292.7	14
292.8	27
292.9	49
293.0	73
293.1	92
293.2	99
293.3	95
293.4	80
293.5	54
293.6	26
293.7	5
293.8	0
