Mass spectrum: Fellutanine A; LC-ESI-QQQ; MS2; Frag=135.0V CID@25.0; [M+H]+
Name: Fellutanine A
Class: Aminoacids and peptides
Formula: C22H20N4O2
Exact mass: 372.4303
SMILES: OC1=N[C@@H](Cc2c[nH]c3ccccc23)C(O)=NC1Cc1c[nH]c2ccccc12
InChI: InChI=1S/C22H20N4O2/c27-21-19(9-13-11-23-17-7-3-1-5-15(13)17)25-22(28)20(26-21)10-14-12-24-18-8-4-2-6-16(14)18/h1-8,11-12,19-20,23-24H,9-10H2,(H,25,28)(H,26,27)/t19-,20?/m0/s1
Instrument: Agilent 6410 Triple Quadrupole LC/MS system
Instrument type: LC-ESI-QQQ
Ms type: MS2
Ion mode: POSITIVE
Precursor type: [M+H]+
m/z	relative intensity
129.2	0
129.3	1
129.4	4
129.5	10
129.6	20
129.7	34
129.8	54
129.9	76
130.0	92
130.1	99
130.2	96
130.3	84
130.4	63
130.5	36
130.6	12
130.7	0
