Mass spectrum: Pantoyl lactone; LC-ESI-QQQ; MS2; Frag=135.0V CID@10.0; [M+H]+
Name: Pantoyl lactone
Class: Oxygen heterocycles
Formula: C6H10O3
Exact mass: 130.1448
SMILES: CC1(C)COC(=O)C1O
InChI: InChI=1S/C6H10O3/c1-6(2)3-9-5(8)4(6)7/h4,7H,3H2,1-2H3
Instrument: Agilent 6410 Triple Quadrupole LC/MS system
Instrument type: LC-ESI-QQQ
Ms type: MS2
Ion mode: POSITIVE
Precursor type: [M+H]+
m/z	relative intensity
56.2	2
56.3	3
56.4	5
56.5	7
56.6	14
56.7	27
56.8	41
56.9	53
57.0	63
57.1	70
57.2	73
57.3	65
57.4	47
57.5	25
57.6	8
57.7	0
66.3	0
66.4	3
66.5	8
66.6	16
66.7	29
66.8	49
66.9	75
67.0	95
67.1	99
67.2	87
67.3	65
67.4	40
67.5	18
67.6	4
68.5	1
68.6	3
68.7	4
68.8	5
68.9	6
69.0	8
69.1	9
69.2	8
69.3	5
69.4	3
70.5	2
70.6	4
70.7	8
70.8	15
70.9	21
71.0	23
71.1	20
71.2	14
71.3	10
71.4	6
71.5	3
84.4	2
84.5	3
84.6	4
84.7	7
84.8	13
84.9	18
85.0	22
85.1	23
85.2	21
85.3	15
85.4	7
85.5	1
94.2	1
94.3	2
94.4	6
94.5	13
94.6	23
94.7	36
94.8	50
94.9	60
95.0	64
95.1	63
95.2	58
95.3	48
95.4	32
95.5	14
95.6	2
112.2	2
112.3	3
112.4	6
112.5	8
112.6	11
112.7	15
112.8	21
112.9	31
113.0	38
113.1	38
113.2	33
113.3	24
113.4	15
113.5	7
113.6	1
