Mass spectrum: Haplophyllidine; LC-ESI-QQQ; MS2; Frag=135.0V CID@25.0; [M+H]+
Name: Haplophyllidine
Class: Alkaloids
Formula: C18H23NO4
Exact mass: 317.3883
SMILES: COc1c2c(nc3occc13)C(CC=C(C)C)(OC)C(O)CC2
InChI: InChI=1S/C18H23NO4/c1-11(2)7-9-18(22-4)14(20)6-5-12-15(21-3)13-8-10-23-17(13)19-16(12)18/h7-8,10,14,20H,5-6,9H2,1-4H3
Instrument: Agilent 6410 Triple Quadrupole LC/MS system
Instrument type: LC-ESI-QQQ
Ms type: MS2
Ion mode: POSITIVE
Precursor type: [M+H]+
m/z	relative intensity
68.7	1
68.8	3
68.9	4
69.0	6
69.1	6
69.2	6
69.3	5
69.4	4
69.5	2
187.7	3
187.8	5
187.9	6
188.0	8
188.1	9
188.2	9
188.3	8
188.4	6
188.5	3
201.7	2
201.8	3
201.9	5
202.0	6
202.1	6
202.2	5
202.3	4
202.4	3
217.2	2
217.3	4
217.4	7
217.5	10
217.6	15
217.7	28
217.8	48
217.9	72
218.0	91
218.1	99
218.2	96
218.3	80
218.4	56
218.5	29
218.6	8
218.7	0
229.6	2
229.7	3
229.8	5
229.9	7
230.0	9
230.1	10
230.2	10
230.3	8
230.4	5
230.5	2
