Mass spectrum: Perfamine; LC-ESI-QQQ; MS2; Frag=135.0V CID@10.0; [M+H]+
Name: Perfamine
Class: Alkaloids
Formula: C18H19NO4
Exact mass: 313.3564
SMILES: COc1c2c(nc3occc13)C(CC=C(C)C)(OC)C(=O)C=C2
InChI: InChI=1S/C18H19NO4/c1-11(2)7-9-18(22-4)14(20)6-5-12-15(21-3)13-8-10-23-17(13)19-16(12)18/h5-8,10H,9H2,1-4H3
Instrument: Agilent 6410 Triple Quadrupole LC/MS system
Instrument type: LC-ESI-QQQ
Ms type: MS2
Ion mode: POSITIVE
Precursor type: [M+H]+
m/z	relative intensity
230.7	2
230.8	3
230.9	5
231.0	6
231.1	6
231.2	5
231.3	4
231.4	3
245.2	0
245.3	2
245.4	5
245.5	9
245.6	15
245.7	27
245.8	47
245.9	71
246.0	91
246.1	99
246.2	95
246.3	77
246.4	50
246.5	22
246.6	3
313.6	1
313.7	3
313.8	6
313.9	9
314.0	13
314.1	15
314.2	16
314.3	15
314.4	12
314.5	7
314.6	2
