Mass spectrum: Nivalidine; LC-ESI-QQQ; MS2; Frag=135.0V CID@15.0; [M+H]+
Name: Nivalidine
Class: Alkaloids
Formula: C17H19NO2
Exact mass: 269.3465
SMILES: COc1ccc2c(c1O)-c1ccccc1CCN(C)C2
InChI: InChI=1S/C17H19NO2/c1-18-10-9-12-5-3-4-6-14(12)16-13(11-18)7-8-15(20-2)17(16)19/h3-8,19H,9-11H2,1-2H3
Instrument: Agilent 6410 Triple Quadrupole LC/MS system
Instrument type: LC-ESI-QQQ
Ms type: MS2
Ion mode: POSITIVE
Precursor type: [M+H]+
m/z	relative intensity
178.3	4
178.4	6
178.5	10
178.6	15
178.7	26
178.8	43
178.9	66
179.0	87
179.1	99
179.2	99
179.3	88
179.4	66
179.5	38
179.6	13
179.7	0
195.6	3
195.7	4
195.8	8
195.9	11
196.0	14
196.1	15
196.2	15
196.3	13
196.4	10
196.5	5
196.6	2
206.4	2
206.5	4
206.6	7
206.7	12
206.8	21
206.9	30
207.0	37
207.1	41
207.2	41
207.3	36
207.4	26
207.5	14
207.6	4
208.5	3
208.6	4
208.7	8
208.8	14
208.9	20
209.0	26
209.1	28
209.2	27
209.3	25
209.4	19
209.5	12
209.6	4
210.4	2
210.5	3
210.6	5
210.7	10
210.8	17
210.9	25
211.0	32
211.1	36
211.2	37
211.3	34
211.4	28
211.5	17
211.6	7
211.7	0
219.5	1
219.6	2
219.7	4
219.8	7
219.9	12
220.0	15
220.1	18
220.2	18
220.3	16
220.4	13
220.5	8
220.6	3
223.6	2
223.7	4
223.8	6
223.9	9
224.0	12
224.1	14
224.2	14
224.3	13
224.4	9
224.5	4
236.8	2
236.9	4
237.0	5
237.1	6
237.2	6
237.3	5
237.4	4
238.3	2
238.4	3
238.5	5
238.6	9
238.7	15
238.8	27
238.9	44
239.0	60
239.1	68
239.2	67
239.3	59
239.4	45
239.5	26
239.6	9
239.7	0
251.8	2
251.9	4
252.0	6
252.1	7
252.2	7
252.3	6
252.4	4
252.5	3
269.3	0
269.4	1
269.5	4
269.6	8
269.7	14
269.8	26
269.9	42
270.0	57
270.1	68
270.2	72
270.3	68
270.4	56
270.5	37
270.6	16
270.7	1
