Mass spectrum: Linichlorin A; LC-ESI-QQQ; MS2; Frag=135.0V CID@15.0 ; [M+H]+
Name: Linichlorin A
Class: Terpenoids
Formula: C19H23ClO6
Exact mass: 382.84456
SMILES: C=C(C)C(=O)O[C@H]1CC(=C)C2C[C@@H](O)[C@@](O)(CCl)C2[C@H]2OC(=O)C(=C)C12
InChI: InChI=1S/C19H23ClO6/c1-8(2)17(22)25-12-5-9(3)11-6-13(21)19(24,7-20)15(11)16-14(12)10(4)18(23)26-16/h11-16,21,24H,1,3-7H2,2H3/t11?,12-,13+,14?,15?,16-,19-/m0/s1
Instrument: Agilent 6410 Triple Quadrupole LC/MS system
Instrument type: LC-ESI-QQQ
Ms type: MS2
Ion mode: POSITIVE
Precursor type: [M+H]+
m/z	relative intensity
68.1	2
68.2	4
68.3	6
68.4	6
68.5	7
68.6	8
68.7	13
68.8	22
68.9	33
69.0	40
69.1	41
69.2	37
69.3	31
69.4	20
69.5	9
69.6	1
76.6	2
76.7	4
76.8	6
76.9	7
77.0	6
77.1	5
77.2	3
90.7	2
90.8	4
90.9	6
91.0	7
91.1	7
91.2	6
91.3	4
92.6	1
92.7	3
92.8	5
92.9	6
93.0	6
93.1	5
93.2	4
93.3	4
93.4	3
118.6	2
118.7	3
118.8	6
118.9	9
119.0	10
119.1	9
119.2	6
119.3	3
120.7	2
120.8	4
120.9	6
121.0	7
121.1	6
121.2	3
128.6	0
128.7	1
128.8	6
128.9	11
129.0	16
129.1	17
129.2	15
129.3	11
129.4	6
129.5	2
140.5	3
140.6	6
140.7	12
140.8	19
140.9	24
141.0	25
141.1	22
141.2	17
141.3	11
141.4	5
142.7	5
142.8	7
142.9	11
143.0	15
143.1	17
143.2	16
143.3	12
143.4	6
143.5	2
144.7	2
144.8	4
144.9	7
145.0	11
145.1	13
145.2	13
145.3	10
145.4	6
145.5	3
146.4	1
146.5	3
146.6	7
146.7	9
146.8	9
146.9	10
147.0	13
147.1	17
147.2	18
147.3	15
147.4	9
147.5	3
154.5	1
154.6	7
154.7	16
154.8	29
154.9	42
155.0	47
155.1	41
155.2	27
155.3	14
155.4	5
155.5	2
156.5	1
156.6	3
156.7	8
156.8	16
156.9	27
157.0	34
157.1	34
157.2	28
157.3	22
157.4	17
157.5	10
157.6	4
158.5	0
158.6	2
158.7	7
158.8	13
158.9	20
159.0	26
159.1	27
159.2	23
159.3	15
159.4	6
159.5	1
164.2	1
164.3	3
164.4	4
164.5	5
164.6	4
164.7	4
164.8	8
164.9	15
165.0	20
165.1	19
165.2	15
165.3	11
165.4	7
166.6	3
166.7	8
166.8	12
166.9	12
167.0	9
167.1	9
167.2	11
167.3	14
167.4	11
167.5	5
168.2	2
168.3	4
168.4	8
168.5	11
168.6	13
168.7	17
168.8	27
168.9	43
169.0	57
169.1	62
169.2	59
169.3	54
169.4	46
169.5	32
169.6	14
169.7	2
170.5	1
170.6	2
170.7	6
170.8	11
170.9	18
171.0	22
171.1	21
171.2	15
171.3	9
171.4	5
171.5	3
172.5	1
172.6	4
172.7	5
172.8	6
172.9	6
173.0	6
173.1	8
173.2	9
173.3	8
173.4	4
174.7	1
174.8	4
174.9	8
175.0	10
175.1	10
175.2	7
175.3	4
178.5	2
178.6	4
178.7	11
178.8	22
178.9	35
179.0	45
179.1	47
179.2	41
179.3	29
179.4	15
179.5	5
180.6	2
180.7	6
180.8	10
180.9	14
181.0	16
181.1	18
181.2	18
181.3	15
181.4	9
181.5	4
182.4	1
182.5	2
182.6	7
182.7	18
182.8	31
182.9	41
183.0	46
183.1	47
183.2	46
183.3	40
183.4	26
183.5	10
183.7	2
183.8	9
183.9	21
184.0	29
184.1	32
184.2	29
184.3	23
184.4	15
184.6	7
184.7	13
184.8	23
184.9	31
185.0	38
185.1	44
185.2	46
185.3	40
185.4	25
185.5	10
185.6	2
186.5	0
186.6	3
186.7	7
186.8	10
186.9	14
187.0	19
187.1	28
187.2	34
187.3	31
187.4	20
187.5	7
187.6	0
188.4	3
188.5	5
188.6	9
188.7	19
188.8	39
188.9	68
189.0	93
189.1	99
189.2	85
189.3	61
189.4	37
189.5	17
189.6	3
190.5	2
190.6	4
190.7	5
190.8	6
190.9	7
191.0	8
191.1	9
191.2	7
191.3	4
194.8	2
194.9	4
195.0	6
195.1	7
195.2	6
195.3	5
195.4	3
196.3	1
196.4	3
196.5	5
196.6	10
196.7	20
196.8	33
196.9	49
197.0	65
197.1	77
197.2	77
197.3	64
197.4	40
197.5	16
197.6	2
200.7	2
200.8	3
200.9	5
201.0	7
201.1	9
201.2	8
201.3	6
201.4	3
202.6	1
202.7	4
202.8	7
202.9	10
203.0	9
203.1	6
203.2	2
204.6	0
204.7	4
204.8	11
204.9	20
205.0	27
205.1	28
205.2	22
205.3	13
205.4	4
206.4	2
206.5	4
206.6	7
206.7	13
206.8	24
206.9	37
207.0	51
207.1	59
207.2	57
207.3	44
207.4	25
207.5	9
207.6	0
214.2	0
214.3	2
214.4	5
214.5	9
214.6	15
214.7	21
214.8	28
214.9	33
215.0	38
215.1	43
215.2	45
215.3	42
215.4	30
215.5	14
215.6	2
216.7	1
216.8	4
216.9	7
217.0	8
217.1	7
217.2	3
218.6	2
218.7	3
218.8	5
218.9	5
219.0	5
219.1	4
219.2	4
219.3	3
224.4	2
224.5	4
224.6	7
224.7	11
224.8	16
224.9	25
225.0	36
225.1	45
225.2	47
225.3	38
225.4	22
225.5	8
225.6	0
232.3	2
232.4	4
232.5	7
232.6	13
232.7	23
232.8	41
232.9	65
233.0	87
233.1	95
233.2	86
233.3	67
233.4	44
233.5	23
233.6	8
233.7	0
234.5	4
234.6	6
234.7	10
234.8	11
234.9	10
242.2	0
242.3	3
242.4	5
242.5	8
242.6	11
242.7	18
242.8	26
242.9	30
243.0	29
243.1	27
243.2	27
243.3	28
243.4	22
243.5	11
243.6	2
250.4	1
250.5	2
250.6	6
250.7	12
250.8	18
250.9	19
251.0	15
251.1	9
260.3	0
260.4	2
260.5	6
260.6	12
260.7	21
260.8	31
260.9	43
261.0	55
261.1	63
261.2	61
261.3	48
261.4	26
261.5	6
261.6	0
278.4	3
278.5	4
278.6	7
278.7	17
278.8	32
278.9	50
279.0	64
279.1	69
279.2	63
279.3	45
279.4	24
279.5	7
279.6	0
296.5	1
296.6	4
296.7	7
296.8	9
296.9	9
297.0	10
297.1	12
297.2	14
297.3	16
297.4	14
297.5	9
297.6	4
