Mass spectrum: 8-Acetylharpagide; LC-ESI-QQQ; MS2;  Frag=135.0V CID@15.0 ; [M+NH4]+
Name: 8-Acetylharpagide
Class: Terpenoids
Formula: C17H26O11
Exact mass: 406.39017
SMILES: CC(=O)O[C@@]1(C)CC(O)C2(O)C=COC(O[C@@H]3O[C@H](CO)[C@@H](O)[C@H](O)[C@H]3O)C21
InChI: InChI=1S/C17H26O11/c1-7(19)28-16(2)5-9(20)17(24)3-4-25-15(13(16)17)27-14-12(23)11(22)10(21)8(6-18)26-14/h3-4,8-15,18,20-24H,5-6H2,1-2H3/t8-,9?,10-,11+,12-,13?,14+,15?,16+,17?/m1/s1
Instrument: Agilent 6410 Triple Quadrupole LC/MS system
Instrument type: LC-ESI-QQQ
Ms type: MS2
Ion mode: POSITIVE
Precursor type: [M+NH4]+
m/z	relative intensity
148.5	3
148.6	4
148.7	7
148.8	10
148.9	13
149.0	14
149.1	14
149.2	13
149.3	10
149.4	6
149.5	3
166.1	0
166.2	2
166.3	5
166.4	8
166.5	9
166.6	12
166.7	26
166.8	50
166.9	78
167.0	96
167.1	99
167.2	91
167.3	73
167.4	48
167.5	23
167.6	5
