Mass spectrum: Iso-gamma-fagarine; LC-ESI-QQQ; MS2; Frag=135.0V CID@15.0; [M+H]+
Name: 8-methoxy-9-methyl-9-hydrofurano(2,3-b)quinolin-4-one
Name: 8-methoxy-9-methyl-iso-gamma-fagarine
Name: Iso-gamma-fagarine
Class: Alkaloids
Formula: C13H11NO3
Exact mass: 229.2375
SMILES: COc1cccc2c(=O)c3ccoc3n(C)c12
InChI: InChI=1S/C13H11NO3/c1-14-11-8(4-3-5-10(11)16-2)12(15)9-6-7-17-13(9)14/h3-7H,1-2H3
Instrument: Agilent 6410 Triple Quadrupole LC/MS system
Instrument type: LC-ESI-QQQ
Ms type: MS2
Ion mode: POSITIVE
Precursor type: [M+H]+
m/z	relative intensity
214.3	3
214.4	5
214.5	8
214.6	15
214.7	24
214.8	36
214.9	48
215.0	57
215.1	61
215.2	58
215.3	48
215.4	31
215.5	14
215.6	2
229.2	0
229.3	1
229.4	4
229.5	10
229.6	20
229.7	36
229.8	55
229.9	74
230.0	90
230.1	99
230.2	98
230.3	85
230.4	61
230.5	32
230.6	8
230.7	0
