Mass spectrum: Oxiglutathione; LC-ESI-QQQ; MS2; Frag=135.0V CID@5.0; [M+H]+
Name: GSSG
Name: Glutathiol
Name: Glutathione (oxidized form)
Name: Oxigluthione
Name: Oxidized glutathione
Name: (gamma-Glu-Cys-Gly) (gamma-Glu-Cys-Gly)(Disulfide bridge: 2a-2b)
Name: Oxiglutathione
Class: Aminoacids and peptides
Formula: C20H32N6O12S2
Exact mass: 612.639
SMILES: NC(CCC(O)=NC(CSSCC(N=C(O)CCC(N)C(=O)O)C(O)=NCC(=O)O)C(O)=NCC(=O)O)C(=O)O
InChI: InChI=1S/C20H32N6O12S2/c21-9(19(35)36)1-3-13(27)25-11(17(33)23-5-15(29)30)7-39-40-8-12(18(34)24-6-16(31)32)26-14(28)4-2-10(22)20(37)38/h9-12H,1-8,21-22H2,(H,23,33)(H,24,34)(H,25,27)(H,26,28)(H,29,30)(H,31,32)(H,35,36)(H,37,38)
Instrument: Agilent 6410 Triple Quadrupole LC/MS system
Instrument type: LC-ESI-QQQ
Ms type: MS2
Ion mode: POSITIVE
Precursor type: [M+H]+
m/z	relative intensity
483.6	1
483.7	2
483.8	5
483.9	9
484.0	12
484.1	14
484.2	13
484.3	9
484.4	5
484.5	2
612.1	0
612.2	1
612.3	4
612.4	8
612.5	14
612.6	22
612.7	32
612.8	45
612.9	62
613.0	81
613.1	96
613.2	99
613.3	89
613.4	66
613.5	37
613.6	13
613.7	0
