Mass spectrum: Diosgenin; LC-ESI-QQQ; MS2; Frag=135.0V CID@10.0 ; [M+H]+
Name: Diosgenin
Class: Steroids
Formula: C27H42O3
Exact mass: 414.63399000000004
SMILES: CC1C2C(CC3C4CC=C5CC(O)CC[C@]5(C)C4CC[C@@]32C)O[C@]12CC[C@@H](C)CO2
InChI: InChI=1S/C27H42O3/c1-16-7-12-27(29-15-16)17(2)24-23(30-27)14-22-20-6-5-18-13-19(28)8-10-25(18,3)21(20)9-11-26(22,24)4/h5,16-17,19-24,28H,6-15H2,1-4H3/t16-,17?,19?,20?,21?,22?,23?,24?,25+,26+,27-/m1/s1
Instrument: Agilent 6410 Triple Quadrupole LC/MS system
Instrument type: LC-ESI-QQQ
Ms type: MS2
Ion mode: POSITIVE
Precursor type: [M+H]+
m/z	relative intensity
252.8	2
252.9	4
253.0	6
253.1	8
253.2	8
253.3	7
253.4	4
253.5	2
270.5	2
270.6	3
270.7	6
270.8	15
270.9	31
271.0	49
271.1	63
271.2	69
271.3	66
271.4	56
271.5	39
271.6	19
271.7	3
414.3	0
414.4	2
414.5	5
414.6	7
414.7	9
414.8	13
414.9	24
415.0	44
415.1	69
415.2	89
415.3	99
415.4	97
415.5	82
415.6	57
415.7	28
415.8	6
415.9	0
