Mass spectrum: 1alpha-Hydroxy-1-desoxotamirin; LC-ESI-QQQ; MS2; Frag=135.0V CID@15.0; [M+H]+
Name: 1alpha-Hydroxy-1-desoxotamirin
Class: Terpenoids
Formula: C15H20O4
Exact mass: 264.3243
SMILES: C=C1C(=O)O[C@H]2CC(=C)[C@H](O)CC/C(C)=C/[C@@H](O)C12
InChI: InChI=1S/C15H20O4/c1-8-4-5-11(16)9(2)7-13-14(12(17)6-8)10(3)15(18)19-13/h6,11-14,16-17H,2-5,7H2,1H3/b8-6+/t11-,12-,13+,14?/m1/s1
Instrument: Agilent 6410 Triple Quadrupole LC/MS system
Instrument type: LC-ESI-QQQ
Ms type: MS2
Ion mode: POSITIVE
Precursor type: [M+H]+
m/z	relative intensity
66.4	2
66.5	4
66.6	8
66.7	13
66.8	16
66.9	17
67.0	15
67.1	11
67.2	7
67.3	4
78.5	1
78.6	3
78.7	5
78.8	7
78.9	8
79.0	10
79.1	10
79.2	9
79.3	6
79.4	3
80.4	3
80.5	5
80.6	13
80.7	29
80.8	52
80.9	74
81.0	85
81.1	81
81.2	62
81.3	37
81.4	15
81.5	3
90.4	2
90.5	3
90.6	6
90.7	12
90.8	20
90.9	27
91.0	31
91.1	30
91.2	25
91.3	17
91.4	9
91.5	3
92.3	1
92.4	3
92.5	5
92.6	7
92.7	10
92.8	16
92.9	25
93.0	33
93.1	34
93.2	26
93.3	14
93.4	5
93.5	1
94.5	2
94.6	4
94.7	6
94.8	12
94.9	21
95.0	29
95.1	30
95.2	23
95.3	13
95.4	4
96.0	1
96.1	3
96.2	6
96.3	8
96.4	9
96.5	7
96.6	6
96.7	7
96.8	10
96.9	13
97.0	14
97.1	13
97.2	9
97.3	5
97.4	2
104.3	3
104.4	5
104.5	7
104.6	11
104.7	15
104.8	20
104.9	25
105.0	25
105.1	20
105.2	14
105.3	9
105.4	6
105.5	3
106.3	2
106.4	3
106.5	6
106.6	12
106.7	22
106.8	32
106.9	38
107.0	39
107.1	35
107.2	29
107.3	21
107.4	12
107.5	4
108.6	3
108.7	5
108.8	8
108.9	10
109.0	10
109.1	8
109.2	4
116.4	1
116.5	2
116.6	7
116.7	12
116.8	17
116.9	17
117.0	12
117.1	7
117.2	3
118.4	1
118.5	2
118.6	6
118.7	11
118.8	16
118.9	19
119.0	19
119.1	16
119.2	11
119.3	6
119.4	2
120.8	2
120.9	4
121.0	5
121.1	6
121.2	5
121.3	3
122.4	4
122.5	4
122.6	6
122.7	11
122.8	19
122.9	26
123.0	32
123.1	36
123.2	35
123.3	28
123.4	18
123.5	7
123.6	1
127.6	1
127.7	3
127.8	5
127.9	7
128.0	9
128.1	9
128.2	7
128.3	4
130.1	2
130.2	4
130.3	5
130.4	6
130.5	6
130.6	7
130.7	12
130.8	20
130.9	27
131.0	28
131.1	23
131.2	16
131.3	10
131.4	6
131.5	2
132.4	3
132.5	5
132.6	13
132.7	31
132.8	56
132.9	77
133.0	91
133.1	99
133.2	99
133.3	80
133.4	45
133.5	12
133.6	0
142.3	4
142.4	5
142.5	7
142.6	9
142.7	16
142.8	28
142.9	39
143.0	44
143.1	41
143.2	31
143.3	19
143.4	9
143.5	3
144.4	2
144.5	6
144.6	11
144.7	16
144.8	18
144.9	17
145.0	19
145.1	25
145.2	31
145.3	28
145.4	18
145.5	6
145.6	1
146.7	2
146.8	3
146.9	5
147.0	7
147.1	8
147.2	7
147.3	5
147.4	3
148.7	2
148.8	4
148.9	5
149.0	6
149.1	8
149.2	8
149.3	5
149.4	2
150.6	0
150.7	4
150.8	12
150.9	21
151.0	25
151.1	23
151.2	18
151.3	13
151.4	8
151.5	3
154.7	5
154.8	7
154.9	11
155.0	20
155.1	29
155.2	31
155.3	24
155.4	11
155.5	2
156.4	4
156.5	6
156.6	9
156.7	16
156.8	23
156.9	27
157.0	24
157.1	17
157.2	11
157.3	6
157.4	3
158.5	2
158.6	4
158.7	8
158.8	17
158.9	25
159.0	27
159.1	22
159.2	13
159.3	5
167.3	1
167.4	3
167.5	6
167.6	10
167.7	14
167.8	15
167.9	14
168.0	11
168.1	7
168.2	4
172.0	1
172.1	3
172.2	6
172.3	10
172.4	11
172.5	9
172.6	8
172.7	12
172.8	23
172.9	37
173.0	49
173.1	51
173.2	44
173.3	31
173.4	17
173.5	6
173.6	1
175.0	2
175.1	4
175.2	7
175.3	8
175.4	7
175.5	4
180.6	1
180.7	3
180.8	5
180.9	7
181.0	6
181.1	4
182.3	1
182.4	4
182.5	9
182.6	15
182.7	22
182.8	29
182.9	42
183.0	60
183.1	73
183.2	70
183.3	49
183.4	23
183.5	5
184.5	2
184.6	3
184.7	5
184.8	6
184.9	7
185.0	7
185.1	7
185.2	6
185.3	5
186.8	2
186.9	5
187.0	9
187.1	13
187.2	15
187.3	11
187.4	6
187.5	1
188.7	2
188.8	5
188.9	8
189.0	12
189.1	14
189.2	14
189.3	10
189.4	5
192.6	1
192.7	3
192.8	6
192.9	9
193.0	11
193.1	10
193.2	7
198.6	1
198.7	3
198.8	6
198.9	7
199.0	7
199.1	4
200.4	4
200.5	4
200.6	7
200.7	17
200.8	35
200.9	58
201.0	77
201.1	81
201.2	68
201.3	46
201.4	23
201.5	6
201.6	1
210.6	2
210.7	5
210.8	8
210.9	13
211.0	16
211.1	16
211.2	13
211.3	9
211.4	5
218.5	1
218.6	3
218.7	5
218.8	7
218.9	7
219.0	5
219.1	4
219.2	4
219.3	3
219.4	3
219.5	2
219.6	1
219.7	1
219.8	1
219.9	1
220.0	1
220.1	1
220.2	1
220.3	1
220.4	1
220.5	1
220.6	1
220.7	1
220.8	1
220.9	1
221.0	1
221.1	1
221.2	1
221.3	1
221.4	1
221.5	1
221.6	1
221.7	1
221.8	1
221.9	1
222.0	1
222.1	1
222.2	1
222.3	1
222.4	1
222.5	1
222.6	1
222.7	1
222.8	1
222.9	1
223.0	1
223.1	1
223.2	1
223.3	1
223.4	1
223.5	1
223.6	1
223.7	1
223.8	1
223.9	1
224.0	1
224.1	1
224.2	1
224.3	1
224.4	1
224.5	1
224.6	1
224.7	1
224.8	1
224.9	1
225.0	1
225.1	1
225.2	1
225.3	1
225.4	1
225.5	1
225.6	1
225.7	1
225.8	1
225.9	1
226.0	1
226.1	1
226.2	1
226.3	1
226.4	1
226.5	1
226.6	1
226.7	1
226.8	1
226.9	1
227.0	1
227.1	1
227.2	1
227.3	1
227.4	1
227.5	1
227.6	1
227.7	1
227.8	1
227.9	1
228.0	1
228.1	1
228.2	2
228.3	2
228.4	3
228.5	4
228.6	4
228.7	8
228.8	17
228.9	28
229.0	31
229.1	23
229.2	10
229.3	3
246.7	2
246.8	4
246.9	7
247.0	8
247.1	8
247.2	5
247.3	2
264.8	2
264.9	4
265.0	7
265.1	7
265.2	5
265.3	2
