Mass spectrum: Vincanidine; LC-ESI-QQQ; MS2; Frag=135.0V CID@15.0 ; [M+H]+
Name: Vincanidine
Class: Alkaloids
Formula: C19H20N2O2
Exact mass: 308.38345000000004
SMILES: C/C=C1/CN2CCC34C(=C(C=O)[C@H]1C[C@H]23)Nc1c(O)cccc14
InChI: InChI=1S/C19H20N2O2/c1-2-11-9-21-7-6-19-14-4-3-5-15(23)17(14)20-18(19)13(10-22)12(11)8-16(19)21/h2-5,10,12,16,20,23H,6-9H2,1H3/b11-2-/t12-,16-,19?/m0/s1
Instrument: Agilent 6410 Triple Quadrupole LC/MS system
Instrument type: LC-ESI-QQQ
Ms type: MS2
Ion mode: POSITIVE
Precursor type: [M+H]+
m/z	relative intensity
308.3	1
308.4	2
308.5	5
308.6	9
308.7	15
308.8	28
308.9	49
309.0	73
309.1	92
309.2	99
309.3	92
309.4	72
309.5	44
309.6	18
309.7	2
