Mass spectrum: Bicuculline; LC-ESI-QQQ; MS2; Frag=135.0V CID@5.0; [M+H]+
Name: Bicuculline
Class: Alkaloids
Formula: C20H17NO6
Exact mass: 367.3616
SMILES: CN1CCc2cc3c(cc2[C@H]1[C@@H]1OC(=O)c2c1ccc1c2OCO1)OCO3
InChI: InChI=1S/C20H17NO6/c1-21-5-4-10-6-14-15(25-8-24-14)7-12(10)17(21)18-11-2-3-13-19(26-9-23-13)16(11)20(22)27-18/h2-3,6-7,17-18H,4-5,8-9H2,1H3/t17-,18+/m0/s1
Instrument: Agilent 6410 Triple Quadrupole LC/MS system
Instrument type: LC-ESI-QQQ
Ms type: MS2
Ion mode: POSITIVE
Precursor type: [M+H]+
m/z	relative intensity
367.3	1
367.4	3
367.5	7
367.6	14
367.7	25
367.8	42
367.9	64
368.0	84
368.1	97
368.2	99
368.3	88
368.4	64
368.5	34
368.6	10
368.7	0
