Mass spectrum: Galantamine; LC-ESI-QQQ; MS2; Frag=135.0V CID@10.0; [M+H]+
Name: Galantamine
Class: Benzopyranoids
Formula: C17H21NO3
Exact mass: 287.3618
SMILES: COc1ccc2c3c1OC1CC(O)C=C[C@@]31CCN(C)C2
InChI: InChI=1S/C17H21NO3/c1-18-8-7-17-6-5-12(19)9-14(17)21-16-13(20-2)4-3-11(10-18)15(16)17/h3-6,12,14,19H,7-10H2,1-2H3/t12?,14?,17-/m0/s1
Instrument: Agilent 6410 Triple Quadrupole LC/MS system
Instrument type: LC-ESI-QQQ
Ms type: MS2
Ion mode: POSITIVE
Precursor type: [M+H]+
m/z	relative intensity
57.7	1
57.8	3
57.9	4
58.0	5
58.1	5
58.2	5
58.3	4
58.4	3
212.5	2
212.6	3
212.7	5
212.8	9
212.9	14
213.0	18
213.1	21
213.2	20
213.3	18
213.4	14
213.5	8
213.6	2
224.6	1
224.7	3
224.8	5
224.9	7
225.0	10
225.1	10
225.2	10
225.3	9
225.4	6
225.5	4
230.5	2
230.6	3
230.7	6
230.8	10
230.9	15
231.0	19
231.1	21
231.2	21
231.3	18
231.4	13
231.5	7
231.6	2
269.6	1
269.7	3
269.8	6
269.9	9
270.0	12
270.1	14
270.2	15
270.3	14
270.4	11
270.5	6
270.6	2
287.3	0
287.4	2
287.5	6
287.6	10
287.7	19
287.8	33
287.9	54
288.0	77
288.1	94
288.2	99
288.3	94
288.4	79
288.5	55
288.6	27
288.7	6
288.8	0
