Mass spectrum: Protoporphyrin, disodium salt; LC-ESI-QQQ; MS2; Frag=135.0V CID@15.0; [M+H]+
Name: Protoporphyrin, disodium salt
Class: Polypyrroles
Formula: C34H32N4Na2O4
Exact mass: 606.6381
SMILES: C=CC1=C(C)c2cc3[nH]c(cc4nc(cc5[nH]c(cc1n2)c(C)c5C=C)C(C)=C4CCC(=O)[O-])c(CCC(=O)[O-])c3C.[Na+].[Na+]
InChI: InChI=1S/C34H34N4O4.2Na/c1-7-21-17(3)25-13-26-19(5)23(9-11-33(39)40)31(37-26)16-32-24(10-12-34(41)42)20(6)28(38-32)15-30-22(8-2)18(4)27(36-30)14-29(21)35-25;;/h7-8,13-16,36-37H,1-2,9-12H2,3-6H3,(H,39,40)(H,41,42);;/q;2*+1/p-2/b25-13-,26-13-,27-14-,28-15-,29-14-,30-15-,31-16-,32-16-;;
Instrument: Agilent 6410 Triple Quadrupole LC/MS system
Instrument type: LC-ESI-QQQ
Ms type: MS2
Ion mode: POSITIVE
Precursor type: [M+H]+
m/z	relative intensity
562.3	2
562.4	3
562.5	7
562.6	13
562.7	22
562.8	36
562.9	54
563.0	73
563.1	88
563.2	97
563.3	99
563.4	93
563.5	75
563.6	47
563.7	19
563.8	1
