Mass spectrum: Floridanine; LC-ESI-QQQ; MS2; Frag=135.0V CID@25.0; [M+H]+
Name: Floridanine
Class: Alkaloids
Formula: C21H31NO9
Exact mass: 441.4825
SMILES: CC(=O)O[C@@]1(C)C(=O)OC/C2=C/CN(C)CCC(OC(=O)[C@@](O)([C@H](C)O)C[C@H]1C)C2=O
InChI: InChI=1S/C21H31NO9/c1-12-10-21(28,13(2)23)19(27)30-16-7-9-22(5)8-6-15(17(16)25)11-29-18(26)20(12,4)31-14(3)24/h6,12-13,16,23,28H,7-11H2,1-5H3/b15-6-/t12-,13+,16?,20-,21+/m1/s1
Instrument: Agilent 6410 Triple Quadrupole LC/MS system
Instrument type: LC-ESI-QQQ
Ms type: MS2
Ion mode: POSITIVE
Precursor type: [M+H]+
m/z	relative intensity
121.5	1
121.6	2
121.7	4
121.8	7
121.9	9
122.0	10
122.1	10
122.2	10
122.3	9
122.4	6
122.5	4
149.5	1
149.6	3
149.7	5
149.8	7
149.9	10
150.0	12
150.1	14
150.2	13
150.3	12
150.4	9
150.5	5
150.6	2
167.4	0
167.5	2
167.6	4
167.7	7
167.8	11
167.9	15
168.0	19
168.1	21
168.2	22
168.3	20
168.4	16
168.5	10
168.6	4
381.6	1
381.7	3
381.8	5
381.9	7
382.0	10
382.1	13
382.2	15
382.3	14
382.4	12
382.5	8
382.6	3
441.3	0
441.4	2
441.5	4
441.6	9
441.7	19
441.8	34
441.9	54
442.0	76
442.1	92
442.2	99
442.3	94
442.4	76
442.5	49
442.6	22
442.7	4
442.8	0
