Mass spectrum: Heteratisine; LC-ESI-QQQ; MS2; Frag=135.0V CID@5.0; [M+H]+
Name: Heteratisine
Class: Alkaloids
Formula: C22H33NO5
Exact mass: 391.512
SMILES: CCN1C[C@]2(C)CC[C@H](OC)[C@@]34C5C[C@@H]6CC[C@@](O)(C5C(=O)O6)C([C@@H](O)C32)[C@@H]14
InChI: InChI=1S/C22H33NO5/c1-4-23-10-20(2)7-6-13(27-3)22-12-9-11-5-8-21(26,14(12)19(25)28-11)15(18(22)23)16(24)17(20)22/h11-18,24,26H,4-10H2,1-3H3/t11-,12?,13-,14?,15?,16+,17?,18+,20-,21+,22-/m0/s1
Instrument: Agilent 6410 Triple Quadrupole LC/MS system
Instrument type: LC-ESI-QQQ
Ms type: MS2
Ion mode: POSITIVE
Precursor type: [M+H]+
m/z	relative intensity
391.3	0
391.4	1
391.5	4
391.6	8
391.7	15
391.8	26
391.9	43
392.0	63
392.1	83
392.2	97
392.3	99
392.4	90
392.5	69
392.6	41
392.7	16
392.8	1
