Mass spectrum: Convolicine; LC-ESI-QQQ; MS2; Frag=135.0V CID@10.0; [M+H]+
Name: Convolicine
Class: Alkaloids
Formula: C18H23NO5
Exact mass: 333.3877
SMILES: COc1ccc(C(=O)OC2CC3CCC(C2)N3C(C)=O)cc1OC
InChI: InChI=1S/C18H23NO5/c1-11(20)19-13-5-6-14(19)10-15(9-13)24-18(21)12-4-7-16(22-2)17(8-12)23-3/h4,7-8,13-15H,5-6,9-10H2,1-3H3
Instrument: Agilent 6410 Triple Quadrupole LC/MS system
Instrument type: LC-ESI-QQQ
Ms type: MS2
Ion mode: POSITIVE
Precursor type: [M+H]+
m/z	relative intensity
109.4	1
109.5	3
109.6	6
109.7	12
109.8	19
109.9	27
110.0	34
110.1	38
110.2	38
110.3	34
110.4	26
110.5	16
110.6	6
110.7	0
151.3	0
151.4	3
151.5	7
151.6	14
151.7	26
151.8	44
151.9	67
152.0	88
152.1	99
152.2	99
152.3	87
152.4	66
152.5	39
152.6	15
152.7	1
333.7	2
333.8	3
333.9	6
334.0	8
334.1	10
334.2	10
334.3	10
334.4	8
334.5	5
334.6	2
