Mass spectrum: Laevopimaric acid; LC-ESI-QQQ; MS2; Frag=135.0V CID@25.0; [M+H]+
Name: Laevopimaric acid
Class: Terpenoids
Formula: C20H30O2
Exact mass: 302.4609
SMILES: CC(C)C1=CCC2C(=C1)CCC1[C@](C)(C(=O)O)CCC[C@]21C
InChI: InChI=1S/C20H30O2/c1-13(2)14-6-8-16-15(12-14)7-9-17-19(16,3)10-5-11-20(17,4)18(21)22/h6,12-13,16-17H,5,7-11H2,1-4H3,(H,21,22)/t16?,17?,19-,20-/m1/s1
Instrument: Agilent 6410 Triple Quadrupole LC/MS system
Instrument type: LC-ESI-QQQ
Ms type: MS2
Ion mode: POSITIVE
Precursor type: [M+H]+
m/z	relative intensity
68.4	2
68.5	4
68.6	7
68.7	15
68.8	27
68.9	37
69.0	36
69.1	24
69.2	10
69.3	1
80.3	0
80.4	3
80.5	17
80.6	46
80.7	77
80.8	88
80.9	67
81.0	31
81.1	5
92.5	4
92.6	8
92.7	17
92.8	23
92.9	19
93.0	10
94.5	1
94.6	6
94.7	16
94.8	27
94.9	34
95.0	33
95.1	27
95.2	20
95.3	13
95.4	7
95.5	3
108.3	3
108.4	7
108.5	25
108.6	57
108.7	82
108.8	82
108.9	54
109.0	22
109.1	4
122.5	2
122.6	8
122.7	20
122.8	31
122.9	31
123.0	21
132.2	3
132.3	5
132.4	8
132.5	7
132.6	5
134.3	3
134.4	6
134.5	8
134.6	10
134.7	15
134.8	19
134.9	19
135.0	13
135.1	6
138.6	3
138.7	6
138.8	8
138.9	9
139.0	7
139.1	5
144.4	2
144.5	5
144.6	9
144.7	9
144.8	6
200.2	2
200.3	4
200.4	6
200.5	6
390.2	2
390.3	4
390.4	6
390.5	5
511.8	2
511.9	4
512.0	5
512.1	5
