Mass spectrum: T2 Toxin; LC-ESI-QQQ; MS2; Frag=135.0V CID@25.0; [M+NH4]+
Name: T2 Toxin
Class: Terpenoids
Formula: C24H34O9
Exact mass: 466.5332
SMILES: CC(=O)OC[C@]12C[C@H](OC(=O)CC(C)C)C(C)=C[C@H]1OC1[C@H](O)[C@@H](OC(C)=O)[C@@]2(C)[C@@]12CO2
InChI: InChI=1S/C24H34O9/c1-12(2)7-18(27)32-16-9-23(10-29-14(4)25)17(8-13(16)3)33-21-19(28)20(31-15(5)26)22(23,6)24(21)11-30-24/h8,12,16-17,19-21,28H,7,9-11H2,1-6H3/t16-,17+,19+,20+,21?,22+,23+,24+/m0/s1
Instrument: Agilent 6410 Triple Quadrupole LC/MS system
Instrument type: LC-ESI-QQQ
Ms type: MS2
Ion mode: POSITIVE
Precursor type: [M+NH4]+
m/z	relative intensity
104.4	1
104.5	2
104.6	5
104.7	8
104.8	11
104.9	14
105.0	16
105.1	17
105.2	15
105.3	10
105.4	4
118.8	3
118.9	5
119.0	6
119.1	7
119.2	7
119.3	4
119.4	1
120.7	3
120.8	4
120.9	6
121.0	8
121.1	8
121.2	7
121.3	5
121.4	2
142.5	1
142.6	3
142.7	5
142.8	8
142.9	10
143.0	10
143.1	9
143.2	7
143.3	5
143.4	2
144.6	3
144.7	5
144.8	7
144.9	9
145.0	11
145.1	13
145.2	13
145.3	12
145.4	8
145.5	3
156.5	4
156.6	6
156.7	9
156.8	13
156.9	17
157.0	19
157.1	18
157.2	16
157.3	13
157.4	9
157.5	5
158.5	1
158.6	3
158.7	7
158.8	12
158.9	17
159.0	20
159.1	21
159.2	19
159.3	15
159.4	10
159.5	4
160.8	2
160.9	3
161.0	5
161.1	7
161.2	7
161.3	5
161.4	3
168.4	2
168.5	4
168.6	8
168.7	15
168.8	23
168.9	31
169.0	39
169.1	44
169.2	44
169.3	37
169.4	25
169.5	11
169.6	1
170.5	2
170.6	3
170.7	5
170.8	9
170.9	12
171.0	14
171.1	14
171.2	14
171.3	13
171.4	10
171.5	6
171.6	1
172.5	2
172.6	3
172.7	6
172.8	9
172.9	12
173.0	15
173.1	15
173.2	13
173.3	10
173.4	6
173.5	2
180.6	2
180.7	3
180.8	5
180.9	7
181.0	8
181.1	8
181.2	6
184.3	2
184.4	4
184.5	8
184.6	17
184.7	33
184.8	57
184.9	84
185.0	99
185.1	99
185.2	87
185.3	72
185.4	56
185.5	36
185.6	14
185.7	0
186.4	2
186.5	4
186.6	7
186.7	10
186.8	13
186.9	16
187.0	19
187.1	22
187.2	24
187.3	21
187.4	14
187.5	6
187.6	1
196.3	2
196.4	4
196.5	6
196.6	11
196.7	20
196.8	31
196.9	40
197.0	44
197.1	45
197.2	46
197.3	41
197.4	29
197.5	12
197.6	1
198.5	2
198.6	3
198.7	6
198.8	11
198.9	15
199.0	20
199.1	25
199.2	27
199.3	23
199.4	13
199.5	3
202.5	2
202.6	4
202.7	6
202.8	9
202.9	13
203.0	17
203.1	18
203.2	16
203.3	12
203.4	7
203.5	3
214.3	0
214.4	1
214.5	5
214.6	13
214.7	24
214.8	37
214.9	51
215.0	63
215.1	71
215.2	70
215.3	59
215.4	40
215.5	19
215.6	4
226.7	2
226.8	3
226.9	5
227.0	7
227.1	8
227.2	8
227.3	6
227.4	3
244.7	3
244.8	5
244.9	7
245.0	11
245.1	16
245.2	18
245.3	17
245.4	11
245.5	4
