Mass spectrum: Vinervine; LC-ESI-QQQ; MS2; Frag=135.0V CID@10.0 ; [M+H]+
Name: Vinervine
Class: Alkaloids
Formula: C20H22N2O3
Exact mass: 338.40994
SMILES: C/C=C1\CN2CCC34C(=C(C(=O)OC)[C@H]1C[C@@H]23)Nc1c(O)cccc14
InChI: InChI=1S/C20H22N2O3/c1-3-11-10-22-8-7-20-13-5-4-6-14(23)17(13)21-18(20)16(19(24)25-2)12(11)9-15(20)22/h3-6,12,15,21,23H,7-10H2,1-2H3/b11-3+/t12-,15+,20?/m0/s1
Instrument: Agilent 6410 Triple Quadrupole LC/MS system
Instrument type: LC-ESI-QQQ
Ms type: MS2
Ion mode: POSITIVE
Precursor type: [M+H]+
m/z	relative intensity
306.4	0
306.5	2
306.6	4
306.7	9
306.8	16
306.9	26
307.0	37
307.1	47
307.2	54
307.3	54
307.4	47
307.5	31
307.6	14
307.7	2
338.4	0
338.5	2
338.6	6
338.7	12
338.8	22
338.9	37
339.0	58
339.1	79
339.2	94
339.3	99
339.4	90
339.5	66
339.6	35
339.7	9
339.8	0
