Mass spectrum: Badrakemin acetate; LC-ESI-QQQ; MS2; Frag=135.0V CID@5.0; [M+Na]+
Name: Badrakemin acetate
Class: Benzopyranoids
Formula: C26H32O5
Exact mass: 424.5419
SMILES: C=C1CC[C@@H]2C(C)(C)[C@@H](OC(C)=O)CC[C@@]2(C)[C@@H]1COc1ccc2ccc(=O)oc2c1
InChI: InChI=1S/C26H32O5/c1-16-6-10-22-25(3,4)23(30-17(2)27)12-13-26(22,5)20(16)15-29-19-9-7-18-8-11-24(28)31-21(18)14-19/h7-9,11,14,20,22-23H,1,6,10,12-13,15H2,2-5H3/t20-,22-,23+,26+/m1/s1
Instrument: Agilent 6410 Triple Quadrupole LC/MS system
Instrument type: LC-ESI-QQQ
Ms type: MS2
Ion mode: POSITIVE
Precursor type: [M+Na]+
m/z	relative intensity
446.3	1
446.4	2
446.5	5
446.6	10
446.7	20
446.8	34
446.9	53
447.0	74
447.1	91
447.2	99
447.3	98
447.4	84
447.5	59
447.6	30
447.7	8
447.8	0
