Mass spectrum: Trachelanthamine; LC-ESI-QQQ; MS2; Frag=135.0V CID@25.0; [M+H]+
Name: Trachelanthamine
Class: Alkaloids
Formula: C15H27NO4
Exact mass: 285.3867
SMILES: CC(C)C(O)(C(=O)OC[C@@H]1CCN2CCC[C@@H]12)C(C)O
InChI: InChI=1S/C15H27NO4/c1-10(2)15(19,11(3)17)14(18)20-9-12-6-8-16-7-4-5-13(12)16/h10-13,17,19H,4-9H2,1-3H3/t11?,12-,13-,15?/m0/s1
Instrument: Agilent 6410 Triple Quadrupole LC/MS system
Instrument type: LC-ESI-QQQ
Ms type: MS2
Ion mode: POSITIVE
Precursor type: [M+H]+
m/z	relative intensity
123.4	4
123.5	8
123.6	16
123.7	29
123.8	39
123.9	40
141.4	5
141.5	7
141.6	10
141.7	17
141.8	34
141.9	63
142.0	90
142.1	98
142.2	80
142.3	47
142.4	18
142.5	1
285.2	2
285.3	4
285.4	9
285.5	14
285.6	18
285.7	18
285.8	15
285.9	10
286.0	5
