Mass spectrum: cyclo(methionylpropyl); LC-ESI-QQQ; MS2; Frag=135.0V CID@10.0; [M+H]+
Name: cyclo(methionylpropyl)
Class: -
Formula: C10H16N2O2S
Exact mass: 228.3152
SMILES: CSCC[C@@H]1N=C(O)[C@@H]2CCCN2C1=O
InChI: InChI=1S/C10H16N2O2S/c1-15-6-4-7-10(14)12-5-2-3-8(12)9(13)11-7/h7-8H,2-6H2,1H3,(H,11,13)/t7-,8-/m0/s1
Instrument: Agilent 6410 Triple Quadrupole LC/MS system
Instrument type: LC-ESI-QQQ
Ms type: MS2
Ion mode: POSITIVE
Precursor type: [M+H]+
m/z	relative intensity
180.3	0
180.4	3
180.5	8
180.6	16
180.7	29
180.8	47
180.9	68
181.0	87
181.1	98
181.2	99
181.3	91
181.4	72
181.5	46
181.6	19
181.7	1
