Mass spectrum: 3-O-Acetyldiosgenin; LC-ESI-QQQ; MS2; Frag=135.0V CID@5.0; [M+H]+
Name: 3-O-Acetyldiosgenin
Class: Steroids
Formula: C29H44O4
Exact mass: 456.6716
SMILES: CC(=O)OC1CC[C@@]2(C)C(=CCC3C4CC5O[C@]6(CCC(C)CO6)C(C)C5[C@@]4(C)CCC32)C1
InChI: InChI=1S/C29H44O4/c1-17-8-13-29(31-16-17)18(2)26-25(33-29)15-24-22-7-6-20-14-21(32-19(3)30)9-11-27(20,4)23(22)10-12-28(24,26)5/h6,17-18,21-26H,7-16H2,1-5H3/t17?,18?,21?,22?,23?,24?,25?,26?,27-,28-,29+/m0/s1
Instrument: Agilent 6410 Triple Quadrupole LC/MS system
Instrument type: LC-ESI-QQQ
Ms type: MS2
Ion mode: POSITIVE
Precursor type: [M+H]+
m/z	relative intensity
312.7	2
312.8	3
312.9	6
313.0	11
313.1	15
313.2	16
313.3	13
313.4	9
313.5	4
313.6	1
456.3	0
456.4	1
456.5	4
456.6	8
456.7	14
456.8	22
456.9	33
457.0	48
457.1	66
457.2	85
457.3	99
457.4	98
457.5	75
457.6	39
457.7	10
457.8	0
