Mass spectrum: Subcusine; LC-ESI-QQQ; MS2; Frag=135.0V CID@25.0; [M+H]+
Name: Subcusine
Class: Alkaloids
Formula: C24H39NO6
Exact mass: 437.5815
SMILES: CCN1C[C@]2(COC)CC[C@H](O)[C@]34C5C[C@@H]6[C@@H](OC)C[C@@](O)(C5[C@H]6O)[C@H](C13)[C@@H](OC)C24
InChI: InChI=1S/C24H39NO6/c1-5-25-10-22(11-29-2)7-6-15(26)24-13-8-12-14(30-3)9-23(28,16(13)18(12)27)17(21(24)25)19(31-4)20(22)24/h12-21,26-28H,5-11H2,1-4H3/t12-,13?,14+,15+,16?,17+,18+,19-,20?,21?,22+,23-,24+/m1/s1
Instrument: Agilent 6410 Triple Quadrupole LC/MS system
Instrument type: LC-ESI-QQQ
Ms type: MS2
Ion mode: POSITIVE
Precursor type: [M+H]+
m/z	relative intensity
419.7	1
419.8	2
419.9	4
420.0	6
420.1	8
420.2	10
420.3	11
420.4	10
420.5	8
420.6	5
420.7	2
437.4	1
437.5	3
437.6	6
437.7	11
437.8	21
437.9	37
438.0	57
438.1	77
438.2	92
438.3	99
438.4	96
438.5	81
438.6	55
438.7	27
438.8	6
438.9	0
