Mass spectrum: Cuscutamine; LC-ESI-QQQ; MS2; Frag=135.0V CID@10.0; [M+H]+
Name: Cuscutamine
Class: Alkaloids
Formula: C15H14N2O3
Exact mass: 270.2904
SMILES: O=C(O)[C@@H]1Cc2c([nH]c3ccccc23)C2CCC(=O)N21
InChI: InChI=1S/C15H14N2O3/c18-13-6-5-11-14-9(7-12(15(19)20)17(11)13)8-3-1-2-4-10(8)16-14/h1-4,11-12,16H,5-7H2,(H,19,20)/t11?,12-/m0/s1
Instrument: Agilent 6410 Triple Quadrupole LC/MS system
Instrument type: LC-ESI-QQQ
Ms type: MS2
Ion mode: POSITIVE
Precursor type: [M+H]+
m/z	relative intensity
224.3	0
224.4	2
224.5	7
224.6	16
224.7	30
224.8	49
224.9	71
225.0	90
225.1	99
225.2	98
225.3	88
225.4	68
225.5	42
225.6	16
225.7	0
