Mass spectrum: Dihydrosamidin; LC-ESI-QQQ; MS2; Frag=135.0V CID@15.0; [M+NH4]+
Name: Dihydrosamidin
Class: Benzopyranoids
Formula: C21H24O7
Exact mass: 388.4212
SMILES: CC(=O)OC1c2c(ccc3ccc(=O)oc23)OC(C)(C)C1OC(=O)CC(C)C
InChI: InChI=1S/C21H24O7/c1-11(2)10-16(24)27-20-19(25-12(3)22)17-14(28-21(20,4)5)8-6-13-7-9-15(23)26-18(13)17/h6-9,11,19-20H,10H2,1-5H3
Instrument: Agilent 6410 Triple Quadrupole LC/MS system
Instrument type: LC-ESI-QQQ
Ms type: MS2
Ion mode: POSITIVE
Precursor type: [M+NH4]+
m/z	relative intensity
56.6	1
56.7	2
56.8	4
56.9	5
57.0	5
57.1	6
57.2	6
57.3	5
57.4	4
57.5	2
226.3	1
226.4	2
226.5	5
226.6	7
226.7	10
226.8	16
226.9	24
227.0	31
227.1	33
227.2	31
227.3	24
227.4	16
227.5	8
227.6	2
244.2	2
244.3	3
244.4	4
244.5	7
244.6	11
244.7	21
244.8	40
244.9	65
245.0	88
245.1	99
245.2	97
245.3	81
245.4	53
245.5	23
245.6	2
328.4	2
328.5	3
328.6	7
328.7	13
328.8	26
328.9	45
329.0	64
329.1	77
329.2	81
329.3	77
329.4	62
329.5	37
329.6	13
329.7	0
