Mass spectrum: Quebrachidine; LC-ESI-QQQ; MS2; Frag=135.0V CID@25.0; [M+H]+
Name: Quebrachidine
Class: Alkaloids
Formula: C21H24N2O3
Exact mass: 352.437
SMILES: C/C=C1/CN2[C@H]3C[C@@H]1C1(C(=O)OC)[C@@H]2C[C@]2(c4ccccc4NC32)[C@H]1O
InChI: InChI=1S/C21H24N2O3/c1-3-11-10-23-15-8-13(11)21(19(25)26-2)16(23)9-20(18(21)24)12-6-4-5-7-14(12)22-17(15)20/h3-7,13,15-18,22,24H,8-10H2,1-2H3/b11-3-/t13-,15-,16-,17?,18+,20+,21?/m0/s1
Instrument: Agilent 6410 Triple Quadrupole LC/MS system
Instrument type: LC-ESI-QQQ
Ms type: MS2
Ion mode: POSITIVE
Precursor type: [M+H]+
m/z	relative intensity
352.4	1
352.5	3
352.6	8
352.7	14
352.8	25
352.9	42
353.0	63
353.1	83
353.2	96
353.3	99
353.4	89
353.5	64
353.6	32
353.7	7
353.8	0
