Mass spectrum: 8-hydroxy-2-oxo-1(10),3-guaiadiene-12,6-olide, Ac; LC-ESI-QQQ; MS2; Frag=135.0V CID@25.0 ; [M+H]+
Name: 8-hydroxy-2-oxo-1(10),3-guaiadiene-12,6-olide, Ac
Class: Terpenoids
Formula: C17H20O5
Exact mass: 304.34595
SMILES: CC(=O)O[C@H]1CC(C)=C2C(=O)C=C(C)[C@@H]2[C@H]2OC(=O)[C@@H](C)C12
InChI: InChI=1S/C17H20O5/c1-7-5-11(19)13-8(2)6-12(21-10(4)18)15-9(3)17(20)22-16(15)14(7)13/h5,9,12,14-16H,6H2,1-4H3/t9-,12-,14-,15?,16+/m0/s1
Instrument: Agilent 6410 Triple Quadrupole LC/MS system
Instrument type: LC-ESI-QQQ
Ms type: MS2
Ion mode: POSITIVE
Precursor type: [M+H]+
m/z	relative intensity
68.2	0
68.3	2
68.4	8
68.5	16
68.6	29
68.7	47
68.8	66
68.9	84
69.0	95
69.1	99
69.2	95
69.3	79
69.4	54
69.5	25
69.6	4
69.7	0
96.4	1
96.5	2
96.6	3
96.7	4
96.8	5
96.9	5
97.0	6
97.1	6
97.2	6
97.3	6
97.4	4
97.5	2
104.9	2
105.0	3
105.1	4
105.2	5
105.3	5
105.4	4
105.5	2
118.6	2
118.7	3
118.8	5
118.9	7
119.0	10
119.1	10
119.2	10
119.3	8
119.4	6
119.5	4
119.6	1
120.8	2
120.9	4
121.0	5
121.1	5
121.2	4
121.3	3
121.4	2
132.6	1
132.7	3
132.8	5
132.9	7
133.0	9
133.1	9
133.2	8
133.3	7
133.4	5
133.5	3
134.7	1
134.8	2
134.9	4
135.0	5
135.1	5
135.2	5
135.3	4
135.4	2
142.5	2
142.6	3
142.7	6
142.8	8
142.9	11
143.0	12
143.1	12
143.2	11
143.3	10
143.4	8
143.5	4
143.6	1
144.5	1
144.6	2
144.7	4
144.8	6
144.9	8
145.0	9
145.1	9
145.2	8
145.3	7
145.4	5
145.5	3
146.3	1
146.4	2
146.5	4
146.6	6
146.7	9
146.8	14
146.9	19
147.0	23
147.1	26
147.2	26
147.3	24
147.4	18
147.5	10
147.6	3
148.6	1
148.7	3
148.8	5
148.9	7
149.0	8
149.1	9
149.2	9
149.3	7
149.4	5
149.5	2
155.6	2
155.7	5
155.8	8
155.9	11
156.0	13
156.1	13
156.2	12
156.3	11
156.4	8
156.7	5
156.8	7
156.9	10
157.0	13
157.1	14
157.2	14
157.3	13
157.4	10
157.5	6
157.6	3
158.8	1
158.9	3
159.0	5
159.1	6
159.2	5
159.3	4
160.5	4
160.6	5
160.7	7
160.8	11
160.9	17
161.0	21
161.1	24
161.2	25
161.3	24
161.4	21
161.5	14
161.6	6
161.7	1
170.4	2
170.5	3
170.6	6
170.7	13
170.8	21
170.9	30
171.0	37
171.1	43
171.2	45
171.3	42
171.4	34
171.5	22
171.6	11
171.8	9
171.9	13
172.0	17
172.1	18
172.2	17
172.3	15
172.4	11
172.5	7
174.5	4
174.6	5
174.7	8
174.8	13
174.9	18
175.0	22
175.1	24
175.2	25
175.3	23
175.4	19
175.5	12
175.6	5
175.7	0
180.7	1
180.8	2
180.9	4
181.0	5
181.1	5
181.2	5
181.3	5
181.4	4
181.5	2
183.5	2
183.6	4
183.7	7
183.8	10
183.9	12
184.0	14
184.1	14
184.2	15
184.3	14
184.4	12
184.5	8
184.8	6
184.9	9
185.0	12
185.1	13
185.2	12
185.3	10
185.4	7
185.5	3
188.5	3
188.6	4
188.7	7
188.8	12
188.9	18
189.0	24
189.1	27
189.2	28
189.3	28
189.4	23
189.5	15
189.6	7
189.7	1
198.3	0
198.4	2
198.5	3
198.6	6
198.7	12
198.8	20
198.9	30
199.0	39
199.1	44
199.2	44
199.3	41
199.4	33
199.5	21
199.6	9
199.7	0
216.5	1
216.6	2
216.7	4
216.8	8
216.9	11
217.0	15
217.1	17
217.2	18
217.3	17
217.4	13
217.5	8
217.6	2
244.4	1
244.5	3
244.6	5
244.7	8
244.8	12
244.9	17
245.0	22
245.1	25
245.2	26
245.3	22
245.4	17
245.5	10
245.6	3
