Mass spectrum: Hyrcanogenin; LC-ESI-QQQ; MS2;  Frag=135.0V CID@15.0 ; [M+HCOO]-
Name: Hyrcanogenin
Class: Steroids
Formula: C23H30O5
Exact mass: 386.49255000000005
SMILES: C[C@]12CCC3C(CCC4=CC(O)CC[C@@]43C=O)C1(O)CCC2C1=CC(=O)OC1
InChI: InChI=1S/C23H30O5/c1-21-7-5-18-19(3-2-15-11-16(25)4-8-22(15,18)13-24)23(21,27)9-6-17(21)14-10-20(26)28-12-14/h10-11,13,16-19,25,27H,2-9,12H2,1H3/t16?,17?,18?,19?,21-,22-,23?/m1/s1
Instrument: Agilent 6410 Triple Quadrupole LC/MS system
Instrument type: LC-ESI-QQQ
Ms type: MS2
Ion mode: NEGATIVE
Precursor type: [M+HCOO]-
m/z	relative intensity
384.3	0
384.4	2
384.5	8
384.6	15
384.7	23
384.8	30
384.9	44
385.0	65
385.1	87
385.2	99
385.3	93
385.4	67
385.5	33
385.6	8
385.7	0
