Mass spectrum: 2'-N-denrthyl-N-3'-methylaplysinopsin; LC-ESI-QQQ; MS2; Frag=135.0V CID@15.0; [M+H]+
Name: 2'-N-denrthyl-N-3'-methylaplysinopsin
Class: Aminoacids and peptides
Formula: C12H9N3O2
Exact mass: 227.2244
SMILES: OC1=N/C(=C\c2c[nH]c3ccccc23)C(O)=N1
InChI: InChI=1S/C12H9N3O2/c16-11-10(14-12(17)15-11)5-7-6-13-9-4-2-1-3-8(7)9/h1-6,13H,(H2,14,15,16,17)/b10-5-
Instrument: Agilent 6410 Triple Quadrupole LC/MS system
Instrument type: LC-ESI-QQQ
Ms type: MS2
Ion mode: POSITIVE
Precursor type: [M+H]+
m/z	relative intensity
129.5	1
129.6	3
129.7	5
129.8	7
129.9	10
130.0	12
130.1	14
130.2	13
130.3	10
130.4	6
130.5	1
154.7	1
154.8	3
154.9	4
155.0	4
155.1	4
155.2	3
155.3	2
155.4	2
155.5	1
155.6	0
155.7	0
155.8	1
155.9	1
156.0	2
156.1	2
156.2	2
156.3	3
156.4	6
156.5	11
156.6	19
156.7	33
156.8	53
156.9	75
157.0	92
157.1	99
157.2	96
157.3	84
157.4	63
157.5	38
157.6	14
157.7	0
166.6	2
166.7	4
166.8	6
166.9	8
167.0	10
167.1	10
167.2	10
167.3	8
167.4	5
167.5	2
182.6	2
182.7	4
182.8	6
182.9	8
183.0	8
183.1	8
183.2	8
183.3	6
183.4	4
183.5	2
184.3	1
184.4	2
184.5	4
184.6	7
184.7	10
184.8	16
184.9	22
185.0	28
185.1	32
185.2	32
185.3	29
185.4	23
185.5	14
185.6	5
185.7	0
227.4	2
227.5	3
227.6	5
227.7	8
227.8	12
227.9	16
228.0	19
228.1	21
228.2	21
228.3	18
228.4	13
228.5	6
228.6	1
