Mass spectrum: Galanthamine; LC-ESI-QQQ; MS2; Frag=135.0V CID@5.0; [M+H]+
Name: Galanthamine
Class: Alkaloids
Formula: C17H21NO3
Exact mass: 287.3618
SMILES: COc1ccc2c3c1O[C@H]1C[C@@H](O)C=C[C@@]31CCN(C)C2
InChI: InChI=1S/C17H21NO3/c1-18-8-7-17-6-5-12(19)9-14(17)21-16-13(20-2)4-3-11(10-18)15(16)17/h3-6,12,14,19H,7-10H2,1-2H3/t12-,14-,17-/m0/s1
Instrument: Agilent 6410 Triple Quadrupole LC/MS system
Instrument type: LC-ESI-QQQ
Ms type: MS2
Ion mode: POSITIVE
Precursor type: [M+H]+
m/z	relative intensity
287.3	0
287.4	1
287.5	4
287.6	10
287.7	19
287.8	32
287.9	51
288.0	72
288.1	91
288.2	99
288.3	95
288.4	77
288.5	50
288.6	22
288.7	3
