Mass spectrum: 6-Benzoylheteratisine; LC-ESI-QQQ; MS2; Frag=135.0V CID@10.0; [M+H]+
Name: 6-Benzoylheteratisine
Class: Alkaloids
Formula: C29H37NO6
Exact mass: 495.6213
SMILES: CCN1C[C@]2(C)CC[C@H](OC)[C@]34C5C[C@@H]6CC[C@@](O)(C5C(=O)O6)[C@H](C13)[C@@H](OC(=O)c1ccccc1)C42
InChI: InChI=1S/C29H37NO6/c1-4-30-15-27(2)12-11-19(34-3)29-18-14-17-10-13-28(33,20(18)26(32)35-17)21(24(29)30)22(23(27)29)36-25(31)16-8-6-5-7-9-16/h5-9,17-24,33H,4,10-15H2,1-3H3/t17-,18?,19-,20?,21-,22+,23?,24?,27-,28+,29-/m0/s1
Instrument: Agilent 6410 Triple Quadrupole LC/MS system
Instrument type: LC-ESI-QQQ
Ms type: MS2
Ion mode: POSITIVE
Precursor type: [M+H]+
m/z	relative intensity
495.3	0
495.4	1
495.5	4
495.6	8
495.7	14
495.8	24
495.9	39
496.0	59
496.1	79
496.2	94
496.3	99
496.4	95
496.5	78
496.6	53
496.7	25
496.8	5
496.9	0
