Mass spectrum: 1,4,6-Trihydroxy-11(13)-eudesmen-12,8-olide 6-Tigloyl; LC-ESI-QQQ; MS2; Frag=135.0V CID@10.0 ; [M+H]+
Name: 1,4,6-Trihydroxy-11(13)-eudesmen-12,8-olide 6-Tigloyl
Class: Terpenoids
Formula: C20H28O6
Exact mass: 364.44256
SMILES: C=C1C(=O)O[C@H]2CC3(C)C(O)CCC(C)(O)C3[C@@H](OC(=O)/C(C)=C/C)C12
InChI: InChI=1S/C20H28O6/c1-6-10(2)17(22)26-15-14-11(3)18(23)25-12(14)9-19(4)13(21)7-8-20(5,24)16(15)19/h6,12-16,21,24H,3,7-9H2,1-2,4-5H3/b10-6+/t12-,13?,14?,15-,16?,19?,20?/m0/s1
Instrument: Agilent 6410 Triple Quadrupole LC/MS system
Instrument type: LC-ESI-QQQ
Ms type: MS2
Ion mode: POSITIVE
Precursor type: [M+H]+
m/z	relative intensity
82.5	1
82.6	3
82.7	5
82.8	8
82.9	9
83.0	7
83.1	5
158.5	2
158.6	3
158.7	5
158.8	7
158.9	11
159.0	15
159.1	17
159.2	16
159.3	14
159.4	10
159.5	6
159.6	2
182.6	2
182.7	5
182.8	10
182.9	16
183.0	23
183.1	29
183.2	30
183.3	24
183.4	15
183.5	5
200.5	3
200.6	4
200.7	8
200.8	14
200.9	21
201.0	26
201.1	28
201.2	28
201.3	26
201.4	21
201.5	14
201.6	6
201.7	0
218.6	1
218.7	4
218.8	7
218.9	12
219.0	16
219.1	17
219.2	16
219.3	11
219.4	6
219.5	2
228.1	0
228.2	1
228.3	5
228.4	8
228.5	10
228.6	10
228.7	13
228.8	21
228.9	35
229.0	49
229.1	57
229.2	59
229.3	53
229.4	40
229.5	23
229.6	7
229.7	0
246.3	2
246.4	4
246.5	5
246.6	7
246.7	13
246.8	26
246.9	49
247.0	75
247.1	95
247.2	99
247.3	86
247.4	60
247.5	29
247.6	7
247.7	0
264.7	2
264.8	3
264.9	5
265.0	7
265.1	8
265.2	9
265.3	7
265.4	5
265.5	2
364.6	1
364.7	4
364.8	10
364.9	18
365.0	26
365.1	33
365.2	36
365.3	33
365.4	23
365.5	10
365.6	1
