Mass spectrum: Convolidine; LC-ESI-QQQ; MS2; Frag=135.0V CID@25.0 ; [M+H]+
Name: Convolidine
Class: Alkaloids
Formula: C15H19NO4
Exact mass: 277.32298000000003
SMILES: COc1cc(C(=O)O[C@@H]2C[C@@H]3CC[C@H](C2)N3)ccc1O
InChI: InChI=1S/C15H19NO4/c1-19-14-6-9(2-5-13(14)17)15(18)20-12-7-10-3-4-11(8-12)16-10/h2,5-6,10-12,16-17H,3-4,7-8H2,1H3/t10-,11+,12+
Instrument: Agilent 6410 Triple Quadrupole LC/MS system
Instrument type: LC-ESI-QQQ
Ms type: MS2
Ion mode: POSITIVE
Precursor type: [M+H]+
m/z	relative intensity
66.7	2
66.8	3
66.9	4
67.0	5
67.1	6
67.2	6
67.3	5
67.4	3
67.5	2
76.5	1
76.6	2
76.7	4
76.8	7
76.9	10
77.0	12
77.1	13
77.2	12
77.3	10
77.4	6
77.5	3
90.4	1
90.5	2
90.6	4
90.7	8
90.8	13
90.9	19
91.0	23
91.1	24
91.2	23
91.3	19
91.4	13
91.5	7
91.6	2
92.2	0
92.3	2
92.4	5
92.5	11
92.6	20
92.7	33
92.8	53
92.9	75
93.0	92
93.1	99
93.2	96
93.3	85
93.4	67
93.5	42
93.6	18
93.7	2
109.4	1
109.5	3
109.6	6
109.7	11
109.8	19
109.9	29
110.0	37
110.1	41
110.2	40
110.3	35
110.4	27
110.5	17
110.6	7
110.7	1
150.3	0
150.4	2
150.5	4
150.6	8
150.7	13
150.8	20
150.9	26
151.0	31
151.1	33
151.2	31
151.3	26
151.4	18
151.5	9
151.6	2
277.7	1
277.8	3
277.9	4
278.0	6
278.1	8
278.2	9
278.3	8
278.4	6
278.5	4
278.6	1
