Mass spectrum: 13-Episclareol; LC-ESI-QQQ; MS2; Frag=135.0V CID@15.0; [M+Na]+
Name: 13-Episclareol
Class: Terpenoids
Formula: C20H36O2
Exact mass: 308.5087
SMILES: C=C[C@](C)(O)CC[C@@H]1[C@@]2(C)CCCC(C)(C)C2CC[C@@]1(C)O
InChI: InChI=1S/C20H36O2/c1-7-18(4,21)13-9-16-19(5)12-8-11-17(2,3)15(19)10-14-20(16,6)22/h7,15-16,21-22H,1,8-14H2,2-6H3/t15?,16-,18+,19+,20-/m1/s1
Instrument: Agilent 6410 Triple Quadrupole LC/MS system
Instrument type: LC-ESI-QQQ
Ms type: MS2
Ion mode: POSITIVE
Precursor type: [M+Na]+
m/z	relative intensity
330.4	3
330.5	3
330.6	5
330.7	9
330.8	15
330.9	27
331.0	47
331.1	71
331.2	90
331.3	99
331.4	98
331.5	84
331.6	56
331.7	23
331.8	2
