Mass spectrum: Dihydrolycorine; LC-ESI-QQQ; MS2; Frag=135.0V CID@15.0; [M+H]+
Name: Dihydrolycorine
Class: Alkaloids
Formula: C16H19NO4
Exact mass: 289.3341
SMILES: O[C@H]1CC2CCN3Cc4cc5c(cc4[C@H]([C@@H]1O)[C@@H]23)OCO5
InChI: InChI=1S/C16H19NO4/c18-11-3-8-1-2-17-6-9-4-12-13(21-7-20-12)5-10(9)14(15(8)17)16(11)19/h4-5,8,11,14-16,18-19H,1-3,6-7H2/t8?,11-,14-,15+,16+/m0/s1
Instrument: Agilent 6410 Triple Quadrupole LC/MS system
Instrument type: LC-ESI-QQQ
Ms type: MS2
Ion mode: POSITIVE
Precursor type: [M+H]+
m/z	relative intensity
289.2	0
289.3	2
289.4	4
289.5	7
289.6	11
289.7	19
289.8	35
289.9	58
290.0	81
290.1	96
290.2	99
290.3	91
290.4	73
290.5	48
290.6	22
290.7	3
