Mass spectrum: Alloside B; LC-ESI-QQQ; MS2; Frag=135.0V CID@10.0; [M+Na]+
Name: Alloside B
Class: Steroids
Formula: C39H66O14
Exact mass: 758.9525
SMILES: CC(C)CCC(O)[C@@H](C)C1C(O[C@@H]2OC(CO)[C@@H](O)C(O)C2O)CC2C3CC=C4C[C@@H](O)CC(O[C@@H]5OC(CO)[C@@H](O)C(O)C5O)[C@]4(C)C3CC[C@@]21C
InChI: InChI=1S/C39H66O14/c1-17(2)6-9-24(43)18(3)29-25(50-36-34(48)32(46)30(44)26(15-40)51-36)14-23-21-8-7-19-12-20(42)13-28(39(19,5)22(21)10-11-38(23,29)4)53-37-35(49)33(47)31(45)27(16-41)52-37/h7,17-18,20-37,40-49H,6,8-16H2,1-5H3/t18-,20-,21?,22?,23?,24?,25?,26?,27?,28?,29?,30-,31-,32?,33?,34?,35?,36-,37+,38+,39+/m1/s1
Instrument: Agilent 6410 Triple Quadrupole LC/MS system
Instrument type: LC-ESI-QQQ
Ms type: MS2
Ion mode: POSITIVE
Precursor type: [M+Na]+
m/z	relative intensity
53.6	4
53.7	5
53.8	6
53.9	6
54.0	6
54.1	6
54.2	5
54.3	5
54.4	5
54.5	4
54.6	4
54.7	4
54.8	4
54.9	4
55.0	5
55.1	5
55.2	5
55.3	5
55.4	5
55.5	4
55.6	4
55.7	3
55.8	3
55.9	3
56.0	3
56.1	4
56.2	4
56.3	5
56.4	5
56.5	5
56.6	6
56.7	6
56.8	5
64.0	2
64.1	3
64.2	4
64.3	5
64.4	5
64.5	4
64.6	3
64.7	3
64.8	3
64.9	4
65.0	4
65.1	5
65.2	5
65.3	5
65.4	4
65.5	3
65.6	3
65.7	3
65.8	4
65.9	4
66.0	4
66.1	4
66.2	4
66.3	5
66.4	5
66.5	6
66.6	5
66.7	4
75.0	3
75.1	4
75.2	5
75.3	6
75.4	6
75.5	5
79.5	2
79.6	4
79.7	5
79.8	6
79.9	6
80.0	6
80.1	6
80.2	4
87.4	2
87.5	4
87.6	5
87.7	6
87.8	6
87.9	5
88.0	5
88.1	4
88.2	3
88.3	3
88.4	3
88.5	4
88.6	5
88.7	6
88.8	6
88.9	6
89.0	6
89.1	5
107.4	3
107.5	4
107.6	5
107.7	6
107.8	5
107.9	5
108.0	4
108.1	4
108.2	3
108.3	3
108.4	3
108.5	2
108.6	2
108.7	2
108.8	2
108.9	3
109.0	3
109.1	4
109.2	4
109.3	4
109.4	3
109.5	3
109.6	3
109.7	3
109.8	4
109.9	5
110.0	5
110.1	4
110.2	4
110.3	3
110.4	3
110.5	3
110.6	3
110.7	3
110.8	3
110.9	3
111.0	3
111.1	3
111.2	3
111.3	4
111.4	4
111.5	4
111.6	4
111.7	3
111.8	3
111.9	3
112.0	3
112.1	4
112.2	4
112.3	4
112.4	4
112.5	4
112.6	4
112.7	4
112.8	3
112.9	3
113.0	3
113.1	3
113.2	4
113.3	5
113.4	5
113.5	5
113.6	4
113.7	3
113.8	2
114.3	1
114.4	3
114.5	4
114.6	4
114.7	4
114.8	4
114.9	3
115.0	2
115.1	2
115.2	3
115.3	4
115.4	5
115.5	6
115.6	6
115.7	6
115.8	5
115.9	5
116.0	4
116.1	3
116.2	3
116.3	3
116.4	3
116.5	3
116.6	3
116.7	4
116.8	3
116.9	3
117.0	2
117.1	2
117.2	2
117.3	3
117.4	3
117.5	4
117.6	4
117.7	4
117.8	4
117.9	4
118.0	5
118.1	4
118.2	4
118.3	3
118.4	3
118.5	3
118.6	3
118.7	3
118.8	4
118.9	4
119.0	5
119.1	5
119.2	4
119.3	4
119.4	4
119.5	4
119.6	5
119.7	5
119.8	5
119.9	5
120.0	5
120.1	5
120.2	4
120.3	4
120.4	3
120.5	4
120.6	4
120.7	4
120.8	5
120.9	5
121.0	5
121.1	5
121.2	5
121.3	5
121.4	5
121.5	4
122.0	3
122.1	4
122.2	5
122.3	6
122.4	6
122.5	5
133.4	3
133.5	5
133.6	6
133.7	6
133.8	6
142.2	4
142.3	5
142.4	6
142.5	6
142.6	6
142.7	5
143.3	4
143.4	5
143.5	6
143.6	6
143.7	7
143.8	6
143.9	5
144.0	4
144.1	4
144.2	4
144.3	5
144.4	5
144.5	5
144.6	5
144.7	6
144.8	6
144.9	6
145.0	5
145.1	4
145.2	4
145.3	4
145.4	4
145.5	4
145.6	5
145.7	5
145.8	4
145.9	4
146.0	4
146.1	3
146.2	3
146.3	2
146.4	2
146.5	2
146.6	3
146.7	4
146.8	5
146.9	6
147.0	6
147.1	6
147.2	5
147.3	4
147.4	3
147.5	3
147.6	3
147.7	4
147.8	4
147.9	5
148.0	6
148.1	6
148.2	6
148.3	5
148.4	5
148.5	4
148.6	4
148.7	4
148.8	4
148.9	4
149.0	4
149.1	4
149.2	5
149.3	5
149.4	6
149.5	5
155.7	3
155.8	4
155.9	6
156.0	6
156.1	6
156.2	5
157.9	4
158.0	5
158.1	6
158.2	7
158.3	6
158.4	5
177.0	4
177.1	5
177.2	7
177.3	7
177.4	6
184.6	2
184.7	3
184.8	5
184.9	5
185.0	5
185.1	5
185.2	5
185.3	5
185.4	5
185.5	4
185.6	4
185.7	4
185.8	4
185.9	4
186.0	5
186.1	5
186.2	5
186.3	5
186.4	4
202.8	2
202.9	3
203.0	4
203.1	4
203.2	4
203.3	3
203.4	3
203.5	2
203.6	3
203.7	3
203.8	3
203.9	4
204.0	4
204.1	4
204.2	4
204.3	3
204.4	3
204.5	2
204.6	2
204.7	3
204.8	4
204.9	5
205.0	5
205.1	5
205.2	5
205.3	4
205.4	4
205.5	3
205.6	2
205.7	2
205.8	2
205.9	2
206.0	3
206.1	3
206.2	4
206.3	5
206.4	5
206.5	5
206.6	4
206.7	4
206.8	4
206.9	3
207.0	3
207.1	4
207.2	5
207.3	6
207.4	6
207.5	5
207.6	4
207.7	4
207.8	4
207.9	4
208.0	4
208.1	4
208.2	4
208.3	3
208.4	3
208.5	3
208.6	4
208.7	4
208.8	4
208.9	4
209.0	4
209.1	4
209.2	3
209.3	4
209.4	4
209.5	4
209.6	4
209.7	4
209.8	5
209.9	4
210.0	4
210.1	3
210.2	3
210.3	3
210.4	3
210.5	3
210.6	4
210.7	5
210.8	5
210.9	5
211.0	4
211.1	3
211.2	2
211.3	2
211.4	3
211.5	3
211.6	3
211.7	4
211.8	5
211.9	6
212.0	6
212.1	5
212.2	4
224.9	3
225.0	4
225.1	5
225.2	5
225.3	5
225.4	5
225.5	4
226.1	2
226.2	3
226.3	4
226.4	5
226.5	5
226.6	5
226.7	4
226.8	3
226.9	3
227.0	3
227.1	3
227.2	4
227.3	4
227.4	4
227.5	3
227.6	3
227.7	3
227.8	3
227.9	2
228.0	2
228.1	2
228.2	2
228.3	2
228.4	3
228.5	4
228.6	5
228.7	6
228.8	6
228.9	5
229.0	4
229.1	3
229.2	3
229.3	3
229.4	3
229.5	3
229.6	3
229.7	3
229.8	3
229.9	3
230.0	3
230.1	3
230.2	2
230.3	2
230.4	2
230.5	3
230.6	4
230.7	4
230.8	4
230.9	4
231.0	4
231.1	3
231.2	3
231.3	2
231.4	1
231.5	2
231.6	3
231.7	4
231.8	6
231.9	6
232.0	6
232.1	5
232.2	4
232.6	1
232.7	3
232.8	5
232.9	6
233.0	6
233.1	6
238.3	3
238.4	4
238.5	5
238.6	5
238.7	5
238.8	4
238.9	4
239.0	3
239.1	3
239.2	3
239.3	3
239.4	4
239.5	5
239.6	6
239.7	6
239.8	5
239.9	5
240.4	3
240.5	5
240.6	6
240.7	6
240.8	6
240.9	6
241.0	5
241.1	4
241.2	4
241.3	3
241.4	3
241.5	3
241.6	4
241.7	4
241.8	4
241.9	4
242.0	4
242.1	4
242.2	4
242.3	3
242.4	3
242.5	2
242.6	2
242.7	3
242.8	4
242.9	4
243.0	4
243.1	5
243.2	5
243.3	5
243.4	5
243.5	4
243.6	4
243.7	4
243.8	4
243.9	5
244.0	5
244.1	5
244.2	5
244.3	5
244.4	5
244.5	4
244.6	4
244.7	3
244.8	3
244.9	2
245.0	2
245.1	3
245.2	4
245.3	5
245.4	6
245.5	5
245.6	4
245.7	3
245.8	3
245.9	3
246.0	3
246.1	4
246.2	4
246.3	5
246.4	5
246.5	5
246.6	5
246.7	5
261.8	4
261.9	5
262.0	7
262.1	7
262.2	7
262.3	6
279.7	2
279.8	4
279.9	5
280.0	7
280.1	7
280.2	6
280.3	5
280.8	3
280.9	4
281.0	6
281.1	6
281.2	6
281.3	5
281.4	5
281.5	4
281.6	3
281.7	3
281.8	3
281.9	4
282.0	5
282.1	5
282.2	6
282.3	6
282.4	6
282.5	6
282.6	5
289.9	4
290.0	5
290.1	6
290.2	6
290.3	6
290.4	5
294.3	4
294.4	5
294.5	6
294.6	6
294.7	6
294.8	5
294.9	3
296.6	4
296.7	5
296.8	6
296.9	6
297.0	6
297.1	6
297.2	5
297.3	4
297.4	4
297.5	4
297.6	4
297.7	4
297.8	4
297.9	4
298.0	4
298.1	4
298.2	4
298.3	4
298.4	4
298.5	4
298.6	3
298.7	3
298.8	2
298.9	2
299.0	3
299.1	4
299.2	5
299.3	5
299.4	4
299.5	3
299.6	3
299.7	3
299.8	3
299.9	4
300.0	4
300.1	5
300.2	6
300.3	6
300.4	5
300.5	4
301.0	4
301.1	5
301.2	6
301.3	7
301.4	6
301.5	5
310.0	3
310.1	4
310.2	5
310.3	6
310.4	6
310.5	6
310.6	5
312.2	2
312.3	4
312.4	5
312.5	6
312.6	5
312.7	4
312.8	4
312.9	3
313.0	3
313.1	3
313.2	3
313.3	3
313.4	3
313.5	5
313.6	6
313.7	6
313.8	5
313.9	4
353.8	4
353.9	5
354.0	6
354.1	6
354.2	5
354.3	4
354.4	4
354.5	4
354.6	4
354.7	4
354.8	4
354.9	4
355.0	4
355.1	4
355.2	3
355.3	3
355.4	2
355.5	3
355.6	3
355.7	4
355.8	4
355.9	3
356.0	3
356.1	3
356.2	3
356.3	3
356.4	3
356.5	4
356.6	4
356.7	3
356.8	3
356.9	4
357.0	4
357.1	5
357.2	5
357.3	5
357.4	5
357.5	4
357.6	4
357.7	3
357.8	3
357.9	2
358.0	3
358.1	4
358.2	5
358.3	6
358.4	7
358.5	7
358.6	6
358.7	5
388.2	2
388.3	3
388.4	4
388.5	5
388.6	6
388.7	6
388.8	6
388.9	5
389.0	5
391.6	3
391.7	4
391.8	5
391.9	6
392.0	6
392.1	6
392.2	5
392.3	4
392.4	4
392.5	4
392.6	4
392.7	4
392.8	4
392.9	4
393.0	5
393.1	5
393.2	4
393.3	4
393.4	3
393.5	2
393.6	2
393.7	3
393.8	4
393.9	5
394.0	6
394.1	6
394.2	5
394.3	5
394.4	4
394.5	4
394.6	3
394.7	3
394.8	3
394.9	4
395.0	4
395.1	5
395.2	5
395.3	6
395.4	6
395.5	6
395.6	5
395.7	4
395.8	3
395.9	3
396.0	3
396.1	3
396.2	3
396.3	4
396.4	4
396.5	5
396.6	4
396.7	4
396.8	4
396.9	4
397.0	4
397.1	3
397.2	4
397.3	4
397.4	5
397.5	5
397.6	6
397.7	6
397.8	6
397.9	5
398.0	4
398.1	3
398.2	3
398.3	4
398.4	5
398.5	5
398.6	6
398.7	6
398.8	5
398.9	5
399.0	4
399.1	3
399.2	3
399.3	3
399.4	3
399.5	3
399.6	3
399.7	4
399.8	5
399.9	5
400.0	5
400.1	4
400.2	4
400.3	3
400.4	3
400.5	3
400.6	3
400.7	4
400.8	4
400.9	5
401.0	5
401.1	4
401.2	4
401.3	4
401.4	3
401.5	3
401.6	3
401.7	3
401.8	3
401.9	3
402.0	4
402.1	5
402.2	6
402.3	5
402.4	5
402.5	4
402.6	3
402.7	3
402.8	4
402.9	4
403.0	5
403.1	5
403.2	5
403.3	5
403.4	4
403.5	4
403.6	3
403.7	3
403.8	3
403.9	4
404.0	4
404.1	5
404.2	5
404.3	5
404.4	4
404.5	3
404.6	3
404.7	3
404.8	3
404.9	3
405.0	4
405.1	5
405.2	6
405.3	6
405.4	6
405.5	7
405.6	6
405.7	5
407.4	3
407.5	4
407.6	5
407.7	6
407.8	6
407.9	5
408.0	5
408.1	5
408.2	4
408.3	4
408.4	3
408.5	3
408.6	3
408.7	3
408.8	3
408.9	4
409.0	4
409.1	3
409.2	3
409.3	2
409.4	2
409.5	3
409.6	3
409.7	4
409.8	4
409.9	5
410.0	5
410.1	4
410.2	3
410.3	3
410.4	3
410.5	3
410.6	3
410.7	4
410.8	5
410.9	5
411.0	6
411.1	6
411.2	5
411.3	5
411.4	4
411.5	4
411.6	4
411.7	5
411.8	5
411.9	5
412.0	5
412.1	4
412.2	3
412.3	2
412.4	2
412.5	3
412.6	4
412.7	4
412.8	4
412.9	4
413.0	4
413.1	5
413.2	5
413.3	5
413.4	4
424.0	3
424.1	5
424.2	6
424.3	7
424.4	7
424.5	6
424.6	5
433.0	2
433.1	3
433.2	4
433.3	5
433.4	5
433.5	5
433.6	4
433.7	4
433.8	3
433.9	3
434.0	3
434.1	3
434.2	4
434.3	5
434.4	5
434.5	6
434.6	5
434.7	5
434.8	4
451.1	3
451.2	4
451.3	5
451.4	5
451.5	5
459.9	2
460.0	3
460.1	5
460.2	6
460.3	6
460.4	5
460.5	4
460.6	4
460.7	3
460.8	3
460.9	3
461.0	3
461.1	3
461.2	4
461.3	5
461.4	6
461.5	5
461.6	5
461.7	4
461.8	4
461.9	4
462.0	3
462.1	3
462.2	3
462.3	3
462.4	4
462.5	4
462.6	4
462.7	4
462.8	3
462.9	3
463.0	3
463.1	3
463.2	4
463.3	5
463.4	5
463.5	6
463.6	6
463.7	6
463.8	6
463.9	5
464.0	4
464.1	3
464.2	3
464.3	4
464.4	4
464.5	4
464.6	4
464.7	4
464.8	4
465.3	3
465.4	4
465.5	5
465.6	5
465.7	5
465.8	6
465.9	5
466.0	5
466.1	5
466.2	4
466.3	3
466.4	3
466.5	3
466.6	4
466.7	5
466.8	6
466.9	6
467.0	6
467.1	5
467.2	4
467.7	3
467.8	4
467.9	5
468.0	6
468.1	6
468.2	5
468.3	4
472.1	3
472.2	4
472.3	5
472.4	6
472.5	6
472.6	6
472.7	5
472.8	4
472.9	4
473.0	3
473.1	2
473.2	2
473.3	3
473.4	4
473.5	5
473.6	6
473.7	6
473.8	5
473.9	5
474.0	4
474.1	4
474.2	3
474.3	4
474.4	4
474.5	4
474.6	4
474.7	5
474.8	5
474.9	5
475.0	4
475.1	4
475.2	3
475.3	3
475.4	2
475.5	2
475.6	2
475.7	3
475.8	4
475.9	6
476.0	6
476.1	5
483.3	5
483.4	6
483.5	7
483.6	7
483.7	7
483.8	6
486.7	3
486.8	4
486.9	6
487.0	6
487.1	6
487.2	5
487.3	5
487.4	4
487.5	4
487.6	4
487.7	4
487.8	4
487.9	5
488.0	6
488.1	6
488.2	6
488.3	5
488.4	5
488.5	5
488.6	5
488.7	4
488.8	4
488.9	4
489.0	4
489.1	5
489.2	6
489.3	6
489.4	5
489.5	4
489.6	4
489.7	4
489.8	4
489.9	3
490.0	3
490.1	3
490.2	4
490.3	5
490.4	5
490.5	5
490.6	5
490.7	4
490.8	4
490.9	4
491.0	4
491.1	4
491.2	4
491.3	5
491.4	6
491.5	6
491.6	6
491.7	5
491.8	5
491.9	4
492.0	3
492.1	3
492.2	3
492.3	3
492.4	4
492.5	5
492.6	6
492.7	5
492.8	5
492.9	4
493.0	4
493.1	4
493.2	4
493.3	4
493.4	4
493.5	4
493.6	6
493.7	6
493.8	6
493.9	5
497.8	3
497.9	4
498.0	5
498.1	6
498.2	7
498.3	6
498.4	5
498.5	4
522.6	2
522.7	4
522.8	5
522.9	5
523.0	5
523.1	5
523.2	5
523.3	4
523.4	3
523.5	3
523.6	2
523.7	2
523.8	2
523.9	3
524.0	3
524.1	3
524.2	4
524.3	5
524.4	5
524.5	4
524.6	3
524.7	2
524.8	2
524.9	3
525.0	4
525.1	5
525.2	6
525.3	6
525.4	5
525.5	4
525.9	2
526.0	3
526.1	4
526.2	5
526.3	5
526.4	5
526.5	5
526.6	4
526.7	3
526.8	2
526.9	2
527.0	3
527.1	3
527.2	4
527.3	5
527.4	6
527.5	6
527.6	5
527.7	5
527.8	4
527.9	3
528.0	2
528.1	2
528.2	2
528.3	3
528.4	3
528.5	4
528.6	4
528.7	4
528.8	4
528.9	4
529.0	3
529.1	2
529.2	2
529.3	2
529.4	3
529.5	4
529.6	5
529.7	6
529.8	6
529.9	6
530.0	5
541.6	3
541.7	4
541.8	5
541.9	6
542.0	5
542.1	4
542.7	3
542.8	4
542.9	5
543.0	6
543.1	5
543.2	5
543.3	5
543.4	4
543.5	3
543.6	3
543.7	3
543.8	3
543.9	3
544.0	3
544.1	3
544.2	3
544.3	3
544.4	4
544.5	5
544.6	5
544.7	4
554.1	3
554.2	4
554.3	5
554.4	6
554.5	5
554.6	4
576.6	3
576.7	4
576.8	5
576.9	6
577.0	5
577.5	4
577.6	5
577.7	6
577.8	6
577.9	6
578.0	6
578.1	5
578.2	4
578.3	4
578.4	3
578.5	3
578.6	3
578.7	3
578.8	4
578.9	5
579.0	6
579.1	5
579.2	4
579.3	3
579.4	3
579.5	3
579.6	3
579.7	3
579.8	4
579.9	4
580.0	4
580.1	4
580.2	5
580.3	5
580.4	5
580.5	4
580.6	4
580.7	3
580.8	3
580.9	4
581.0	4
581.1	5
581.2	6
581.3	6
581.4	6
581.5	5
581.6	5
581.7	4
581.8	4
581.9	3
582.0	3
582.1	4
582.2	4
582.3	5
582.4	6
582.5	6
582.6	5
582.7	5
582.8	4
582.9	4
583.0	4
583.1	4
583.2	5
583.3	5
583.4	5
583.5	5
583.6	5
583.7	5
583.8	5
583.9	5
584.0	5
584.1	5
584.2	4
584.3	4
584.4	3
584.5	4
584.6	5
584.7	5
584.8	6
584.9	5
585.0	5
585.1	4
585.2	3
585.3	2
585.4	2
585.5	3
585.6	4
585.7	6
585.8	7
585.9	7
586.0	6
588.8	2
588.9	4
589.0	5
589.1	5
589.2	5
589.3	5
589.4	5
589.5	4
589.6	4
589.7	3
589.8	3
589.9	3
590.0	4
590.1	5
590.2	5
590.3	5
590.4	4
590.5	3
590.6	3
590.7	3
590.8	3
590.9	3
591.0	3
591.1	4
591.2	5
591.3	6
591.4	6
591.5	6
591.6	6
591.7	5
591.8	5
591.9	4
592.0	4
592.1	5
592.2	5
592.3	6
592.4	6
592.5	6
592.6	5
592.7	5
592.8	5
592.9	5
593.0	4
593.1	4
593.2	4
593.3	4
593.4	4
593.5	4
593.6	4
593.7	5
593.8	5
593.9	5
594.0	5
594.1	5
594.2	5
594.3	5
594.4	5
594.5	5
594.6	5
594.7	5
594.8	6
594.9	6
595.0	6
595.1	5
595.2	4
595.3	3
595.4	3
595.5	3
595.6	4
595.7	4
595.8	5
595.9	5
596.0	6
596.1	5
596.2	5
596.3	5
596.4	4
596.5	4
596.6	4
596.7	4
596.8	5
596.9	5
597.0	6
597.1	6
597.2	6
597.3	5
597.4	4
597.5	3
597.6	3
597.7	4
597.8	5
597.9	6
598.0	6
598.1	6
598.2	7
598.3	6
598.4	6
598.5	4
598.9	2
599.0	3
599.1	5
599.2	7
599.3	7
599.4	7
610.2	3
610.3	4
610.4	5
610.5	5
610.6	6
610.7	5
610.8	4
610.9	4
611.0	3
611.1	3
611.2	3
611.3	3
611.4	4
611.5	5
611.6	5
611.7	5
611.8	5
611.9	5
612.0	4
612.1	3
612.2	3
612.3	3
612.4	3
612.5	4
612.6	4
612.7	4
612.8	5
612.9	5
613.0	4
613.1	4
613.2	4
613.3	5
613.4	5
613.5	5
613.6	5
613.7	5
613.8	4
613.9	4
614.0	4
614.1	4
614.2	4
614.3	4
614.4	4
614.5	4
614.6	4
614.7	5
614.8	5
614.9	5
615.0	6
615.1	6
615.2	5
615.3	5
615.4	4
615.5	3
615.6	3
615.7	2
615.8	2
615.9	3
616.0	4
616.1	5
616.2	6
616.3	6
616.4	5
616.5	4
616.6	4
616.7	3
616.8	3
616.9	3
617.0	3
617.1	4
617.2	4
617.3	3
617.4	3
617.5	3
617.6	3
617.7	4
617.8	5
617.9	5
618.0	6
618.1	6
618.2	5
618.3	5
618.4	4
618.5	4
618.6	4
618.7	4
618.8	4
618.9	4
619.0	3
619.1	3
619.2	3
619.3	4
619.4	5
619.5	5
619.6	4
619.7	3
619.8	2
619.9	2
620.0	2
620.1	3
620.2	4
620.3	5
620.4	6
620.5	6
620.6	7
620.7	7
620.8	6
646.2	2
646.3	4
646.4	6
646.5	6
646.6	5
650.6	3
650.7	4
650.8	5
650.9	5
651.0	6
651.1	5
651.2	4
651.6	2
651.7	3
651.8	5
651.9	5
652.0	5
652.1	5
652.2	4
652.3	4
652.4	3
652.5	3
652.6	3
652.7	2
652.8	2
652.9	2
653.0	2
653.1	2
653.2	3
653.3	4
653.4	4
653.5	5
653.6	5
653.7	5
656.1	3
656.2	4
656.3	5
656.4	6
656.5	6
656.6	6
656.7	5
656.8	4
658.4	3
658.5	4
658.6	5
658.7	6
658.8	6
658.9	5
675.2	2
675.3	3
675.4	5
675.5	6
675.6	6
675.7	6
675.8	5
675.9	5
676.0	4
676.1	4
676.2	4
676.3	5
676.4	6
676.5	6
676.6	5
693.2	2
693.3	4
693.4	6
693.5	7
693.6	8
693.7	7
693.8	6
693.9	4
697.7	2
697.8	3
697.9	5
698.0	5
698.1	6
698.2	6
698.3	6
702.2	3
702.3	4
702.4	6
702.5	7
702.6	7
702.7	7
702.8	7
702.9	6
703.0	5
703.1	5
703.2	5
703.3	4
703.4	5
703.5	5
703.6	5
703.7	5
703.8	5
703.9	5
704.0	5
704.1	4
704.2	4
704.3	3
704.4	3
704.5	4
704.6	4
704.7	5
704.8	5
704.9	5
705.0	5
705.1	5
705.2	5
705.3	4
705.4	4
705.5	3
705.6	3
705.7	4
705.8	5
705.9	6
706.0	5
706.1	4
706.2	4
706.3	3
706.4	3
706.5	3
706.6	3
706.7	3
706.8	3
706.9	3
707.0	4
707.1	4
707.2	5
707.3	5
707.4	5
707.5	5
707.6	4
707.7	4
707.8	4
707.9	4
708.0	5
708.1	5
708.2	5
708.3	5
708.4	5
708.5	4
708.6	4
708.7	3
708.8	3
708.9	3
709.0	3
709.1	4
709.2	5
709.3	5
709.4	5
709.5	5
709.6	5
709.7	5
709.8	5
709.9	5
710.0	5
710.1	5
710.2	5
710.3	5
710.4	6
710.5	6
710.6	5
710.7	4
710.8	4
710.9	3
711.0	3
711.1	3
711.2	4
711.3	5
711.4	5
711.5	5
711.6	5
711.7	4
711.8	4
711.9	3
712.0	4
712.1	4
712.2	5
712.3	5
712.4	5
712.5	5
712.6	5
712.7	5
712.8	5
712.9	5
713.0	4
713.1	4
713.2	3
713.3	2
713.4	3
713.5	4
713.6	5
713.7	6
713.8	6
713.9	6
714.0	5
714.1	4
714.2	4
714.3	3
714.4	3
714.5	3
714.6	4
714.7	5
714.8	5
714.9	6
715.0	6
715.1	5
715.2	4
715.3	4
715.4	3
715.5	3
715.6	3
715.7	4
715.8	4
715.9	4
716.0	4
716.1	5
716.2	5
716.3	5
716.4	5
716.5	4
716.6	4
716.7	3
716.8	4
716.9	4
717.0	5
717.1	6
717.2	6
717.3	5
717.4	5
717.5	5
717.6	4
717.7	3
717.8	3
717.9	3
718.0	4
718.1	5
718.2	6
718.3	7
718.4	6
724.7	3
724.8	4
724.9	5
725.0	6
725.1	5
725.2	4
725.3	3
725.4	3
725.5	3
725.6	4
725.7	4
725.8	5
725.9	5
726.0	5
726.1	5
726.2	4
726.3	4
726.4	3
726.5	3
726.6	3
726.7	3
726.8	3
726.9	3
727.0	4
727.1	4
727.2	4
727.3	5
727.4	5
727.5	5
727.6	4
727.7	4
727.8	4
727.9	4
728.0	4
728.1	4
728.2	3
728.3	3
728.4	3
728.5	4
728.6	4
728.7	5
728.8	5
728.9	5
729.0	4
729.1	4
729.2	3
729.3	3
729.4	4
729.5	5
729.6	5
729.7	5
729.8	5
729.9	4
730.0	4
730.1	4
730.2	4
730.3	4
730.4	4
730.5	5
730.6	6
730.7	6
730.8	5
730.9	4
731.0	4
731.1	3
731.2	3
731.3	3
731.4	3
731.5	3
731.6	3
731.7	4
731.8	5
731.9	5
732.0	5
732.1	5
732.2	5
732.3	4
732.4	3
732.5	3
732.6	3
732.7	3
732.8	4
732.9	5
733.0	5
733.1	5
733.2	4
733.3	4
733.4	3
733.5	3
733.6	4
733.7	4
733.8	4
733.9	4
734.0	4
734.1	4
734.2	4
734.3	4
734.4	4
734.5	3
734.6	2
734.7	2
734.8	3
734.9	4
735.0	5
735.1	6
735.2	6
735.3	5
735.4	5
735.5	4
735.6	4
735.7	3
735.8	3
735.9	4
736.0	4
736.1	5
736.2	5
736.3	4
736.4	4
736.5	3
736.6	3
736.7	3
736.8	3
736.9	3
737.0	4
737.1	4
737.2	5
737.3	5
737.4	5
737.5	5
737.6	4
737.7	4
737.8	3
737.9	3
738.0	2
738.1	3
738.2	3
738.3	4
738.4	4
738.5	5
738.6	5
738.7	5
738.8	5
741.5	3
741.6	5
741.7	6
741.8	6
741.9	6
742.0	5
757.3	3
757.4	5
757.5	6
757.6	6
757.7	6
757.8	5
757.9	4
758.0	3
758.1	3
758.2	2
758.3	2
758.4	3
758.5	4
758.6	5
758.7	5
758.8	5
758.9	5
759.0	4
759.1	4
759.2	4
759.3	4
759.4	4
759.5	4
759.6	3
759.7	3
759.8	3
759.9	4
760.0	4
760.1	4
760.2	4
760.3	3
760.4	3
760.5	3
760.6	3
760.7	4
760.8	5
760.9	5
761.0	6
761.1	5
761.2	5
761.3	4
761.4	3
761.5	3
761.6	2
761.7	2
761.8	3
761.9	3
762.0	3
762.1	4
762.2	4
762.3	5
762.4	5
762.5	4
772.0	3
772.1	4
772.2	6
772.3	6
772.4	6
774.0	2
774.1	4
774.2	5
774.3	5
774.4	5
774.5	4
774.6	4
774.7	4
774.8	4
774.9	4
775.0	4
775.1	3
775.2	3
775.3	4
775.4	4
775.5	4
775.6	4
775.7	3
775.8	3
775.9	3
776.0	4
776.1	4
776.2	3
776.3	3
776.4	3
776.5	4
776.6	4
776.7	5
776.8	5
776.9	4
777.0	3
777.1	3
777.2	2
777.3	2
777.4	3
777.5	3
777.6	4
777.7	5
777.8	6
777.9	6
778.0	5
778.1	5
778.2	4
778.3	3
778.4	3
778.5	3
778.6	3
778.7	4
778.8	4
778.9	4
779.0	4
779.1	4
779.2	3
779.3	3
779.4	2
779.5	2
779.6	2
779.7	2
779.8	3
779.9	3
780.0	4
780.1	5
780.2	5
780.3	5
780.4	4
780.5	4
780.6	5
780.7	9
780.8	15
780.9	26
781.0	43
781.1	64
781.2	75
781.3	66
781.4	39
781.5	13
781.6	0
796.3	3
796.4	4
796.5	5
796.6	5
796.7	5
796.8	5
796.9	5
797.0	6
797.1	6
797.2	5
797.3	4
797.9	3
798.0	4
798.1	5
798.2	6
798.3	5
798.4	5
798.9	3
799.0	4
799.1	5
799.2	6
799.3	6
799.4	5
799.5	5
799.6	4
799.7	4
799.8	3
799.9	3
800.0	4
800.1	4
800.2	4
800.3	4
800.4	4
800.5	4
800.6	4
800.7	4
800.8	4
800.9	4
801.0	5
801.1	5
801.2	5
801.3	5
801.4	4
801.5	4
801.6	4
801.7	5
801.8	5
801.9	5
802.0	4
802.1	3
802.2	3
802.3	3
802.4	3
802.5	4
802.6	6
802.7	7
802.8	6
802.9	5
810.4	3
810.5	5
810.6	6
810.7	6
810.8	6
810.9	6
811.0	5
811.1	4
811.2	4
811.3	4
811.4	4
811.5	6
811.6	7
811.7	7
811.8	7
811.9	6
812.0	4
842.1	3
842.2	4
842.3	5
842.4	5
842.5	5
842.6	4
842.7	3
842.8	3
842.9	3
843.0	4
843.1	4
843.2	5
843.3	5
843.4	5
856.5	3
856.6	4
856.7	5
856.8	6
856.9	5
857.0	4
861.0	2
861.1	4
861.2	5
861.3	6
861.4	6
861.5	5
861.6	5
861.7	4
861.8	3
861.9	3
862.0	2
862.1	3
862.2	4
862.3	4
862.4	4
862.5	5
862.6	5
862.7	5
862.8	4
862.9	3
863.0	3
863.1	4
863.2	4
863.3	3
863.4	3
863.5	3
863.6	4
863.7	5
863.8	5
863.9	4
872.2	3
872.3	4
872.4	5
872.5	6
872.6	6
872.7	5
872.8	4
872.9	3
873.0	3
873.1	3
873.2	3
873.3	3
873.4	3
873.5	3
873.6	4
873.7	4
873.8	4
873.9	4
874.0	4
874.1	3
874.6	1
874.7	3
874.8	5
874.9	6
875.0	7
875.1	6
875.2	5
875.3	3
883.7	3
883.8	4
883.9	5
884.0	6
884.1	6
884.2	4
884.7	3
884.8	5
884.9	6
885.0	7
885.1	6
885.2	5
885.3	4
887.1	3
887.2	5
887.3	6
887.4	7
887.5	7
887.6	6
887.7	4
894.0	3
894.1	4
894.2	6
894.3	7
894.4	7
894.5	6
898.5	4
898.6	5
898.7	6
898.8	7
898.9	6
