Mass spectrum: Boldine; LC-ESI-QQQ; MS2; Frag=135.0V CID@10.0; [M+H]+
Name: 2,9-Dihydroxy-1,10-dimethoxyaporphine
Name: 1,10-Dimethoxy-6aalpha-aporphine-2,9-diol
Name: 2,6-Dihydroxy-3,5-dimethoxyaporphin
Name: Boldine
Class: Alkaloids
Formula: C19H21NO4
Exact mass: 327.3835
SMILES: COc1cc2c(cc1O)CC1c3c(cc(O)c(OC)c3-2)CCN1C
InChI: InChI=1S/C19H21NO4/c1-20-5-4-10-7-15(22)19(24-3)18-12-9-16(23-2)14(21)8-11(12)6-13(20)17(10)18/h7-9,13,21-22H,4-6H2,1-3H3
Instrument: Agilent 6410 Triple Quadrupole LC/MS system
Instrument type: LC-ESI-QQQ
Ms type: MS2
Ion mode: POSITIVE
Precursor type: [M+H]+
m/z	relative intensity
264.2	0
264.3	2
264.4	5
264.5	9
264.6	15
264.7	26
264.8	45
264.9	67
265.0	85
265.1	92
265.2	87
265.3	71
265.4	48
265.5	24
265.6	6
265.7	0
296.3	1
296.4	3
296.5	6
296.6	9
296.7	16
296.8	29
296.9	47
297.0	64
297.1	73
297.2	73
297.3	63
297.4	46
297.5	25
297.6	8
297.7	0
327.3	1
327.4	3
327.5	6
327.6	11
327.7	20
327.8	34
327.9	55
328.0	76
328.1	93
328.2	99
328.3	92
328.4	71
328.5	42
328.6	15
328.7	1
