Mass spectrum: Dihydrosamidin; LC-ESI-QQQ; MS2; Frag=135.0V CID@10.0; [M+NH4]+
Name: Dihydrosamidin
Class: Benzopyranoids
Formula: C21H24O7
Exact mass: 388.4212
SMILES: CC(=O)OC1c2c(ccc3ccc(=O)oc23)OC(C)(C)C1OC(=O)CC(C)C
InChI: InChI=1S/C21H24O7/c1-11(2)10-16(24)27-20-19(25-12(3)22)17-14(28-21(20,4)5)8-6-13-7-9-15(23)26-18(13)17/h6-9,11,19-20H,10H2,1-5H3
Instrument: Agilent 6410 Triple Quadrupole LC/MS system
Instrument type: LC-ESI-QQQ
Ms type: MS2
Ion mode: POSITIVE
Precursor type: [M+NH4]+
m/z	relative intensity
226.7	1
226.8	3
226.9	6
227.0	8
227.1	8
227.2	6
227.3	4
227.4	2
244.6	2
244.7	5
244.8	9
244.9	15
245.0	19
245.1	22
245.2	22
245.3	20
245.4	13
245.5	6
245.6	0
328.2	0
328.3	2
328.4	5
328.5	8
328.6	11
328.7	16
328.8	27
328.9	46
329.0	70
329.1	90
329.2	99
329.3	94
329.4	75
329.5	45
329.6	17
329.7	0
