Mass spectrum: osajin; LC-ESI-QQQ; MS2; Frag=135.0V CID@15.0; [M+H]+
Name: osajin
Class: Flavonoids
Formula: C25H24O5
Exact mass: 404.467
SMILES: CC(C)=CCc1c2c(c3occ(-c4ccc(O)cc4)c(=O)c3c1O)C=CC(C)(C)O2
InChI: InChI=1S/C25H24O5/c1-14(2)5-10-17-21(27)20-22(28)19(15-6-8-16(26)9-7-15)13-29-24(20)18-11-12-25(3,4)30-23(17)18/h5-9,11-13,26-27H,10H2,1-4H3
Instrument: Agilent 6410 Triple Quadrupole LC/MS system
Instrument type: LC-ESI-QQQ
Ms type: MS2
Ion mode: POSITIVE
Precursor type: [M+H]+
m/z	relative intensity
348.2	0
348.3	2
348.4	5
348.5	10
348.6	19
348.7	33
348.8	52
348.9	72
349.0	90
349.1	99
349.2	98
349.3	84
349.4	59
349.5	31
349.6	9
349.7	0
