Mass spectrum: 3-Hydroxy-12-oleanen-28-oic acid; LC-ESI-QQQ; MS2; Frag=135.0V CID@15.0; [M-OH]+
Name: 3-Hydroxy-12-oleanen-28-oic acid
Class: Terpenoids
Formula: C30H48O3
Exact mass: 456.7153
SMILES: CC1(C)CCC2(C(=O)O)CC[C@]3(C)C(=CCC4[C@@]5(C)CCC(O)C(C)(C)C5CC[C@]43C)C2C1
InChI: InChI=1S/C30H48O3/c1-25(2)14-16-30(24(32)33)17-15-28(6)19(20(30)18-25)8-9-22-27(5)12-11-23(31)26(3,4)21(27)10-13-29(22,28)7/h8,20-23,31H,9-18H2,1-7H3,(H,32,33)/t20?,21?,22?,23?,27-,28+,29+,30?/m0/s1
Instrument: Agilent 6410 Triple Quadrupole LC/MS system
Instrument type: LC-ESI-QQQ
Ms type: MS2
Ion mode: POSITIVE
Precursor type: [M-OH]+
m/z	relative intensity
174.7	0
174.8	2
174.9	5
175.0	7
175.1	7
175.2	6
175.3	3
176.8	1
176.9	2
177.0	4
177.1	5
177.2	4
177.3	3
188.6	1
188.7	3
188.8	6
188.9	10
189.0	14
189.1	17
189.2	17
189.3	13
189.4	8
189.5	3
190.3	0
190.4	1
190.5	5
190.6	11
190.7	22
190.8	40
190.9	63
191.0	84
191.1	96
191.2	99
191.3	95
191.4	80
191.5	54
191.6	25
191.7	4
200.7	3
200.8	4
200.9	5
201.0	7
201.1	9
201.2	10
201.3	9
201.4	5
201.5	2
202.3	1
202.4	3
202.5	5
202.6	8
202.7	14
202.8	25
202.9	37
203.0	48
203.1	54
203.2	57
203.3	59
203.4	53
203.5	39
203.6	20
203.7	6
203.8	0
204.7	0
204.8	2
204.9	6
205.0	11
205.1	14
205.2	14
205.3	13
205.4	11
205.5	7
205.6	3
216.8	1
216.9	3
217.0	5
217.1	9
217.2	13
217.3	13
217.4	8
217.5	3
234.8	0
234.9	2
235.0	4
235.1	5
235.2	5
235.3	3
248.4	1
248.5	2
248.6	5
248.7	7
248.8	10
248.9	13
249.0	18
249.1	22
249.2	24
249.3	22
249.4	17
249.5	10
249.6	3
438.6	1
438.7	3
438.8	5
438.9	10
439.0	15
439.1	18
439.2	18
439.3	21
439.4	28
439.5	34
439.6	32
439.7	20
439.8	7
439.9	0
