Mass spectrum: Peuarenin; LC-ESI-QQQ; MS2; Frag=135.0V CID@15.0; [M+H]+
Name: Peuarenin
Class: Benzopyranoids
Formula: C24H26O9
Exact mass: 458.4694
SMILES: CC1OC1(C)C(=O)OC1c2cc3ccc(=O)oc3cc2OC(C)(C)C1OC(=O)C1(C)OC1C
InChI: InChI=1S/C24H26O9/c1-11-23(5,31-11)20(26)29-18-14-9-13-7-8-17(25)28-15(13)10-16(14)33-22(3,4)19(18)30-21(27)24(6)12(2)32-24/h7-12,18-19H,1-6H3
Instrument: Agilent 6410 Triple Quadrupole LC/MS system
Instrument type: LC-ESI-QQQ
Ms type: MS2
Ion mode: POSITIVE
Precursor type: [M+H]+
m/z	relative intensity
226.5	2
226.6	3
226.7	5
226.8	8
226.9	12
227.0	16
227.1	17
227.2	16
227.3	13
227.4	9
227.5	4
228.7	2
228.8	3
228.9	4
229.0	6
229.1	6
229.2	6
229.3	5
229.4	3
244.7	1
244.8	2
244.9	4
245.0	4
245.1	5
245.2	4
245.3	3
342.4	1
342.5	2
342.6	4
342.7	6
342.8	11
342.9	17
343.0	23
343.1	26
343.2	26
343.3	23
343.4	17
343.5	9
343.6	2
458.2	0
458.3	2
458.4	5
458.5	10
458.6	16
458.7	27
458.8	43
458.9	62
459.0	81
459.1	95
459.2	99
459.3	94
459.4	77
459.5	51
459.6	23
459.7	4
