Mass spectrum: Inosinic acid; LC-ESI-QQQ; MS2; Frag=135.0V CID@10.0; [M+H]+
Name: IMP
Name: 5'-IMP
Name: I-5'-P
Name: 5'-inosinate
Name: Inosinic Acid
Name: Inosinic acid
Class: Carbohydrates
Formula: C10H13N4O8P
Exact mass: 348.2109
SMILES: O=P(O)(O)OC[C@H]1O[C@@H](n2cnc3c(O)ncnc32)[C@H](O)[C@@H]1O
InChI: InChI=1S/C10H13N4O8P/c15-6-4(1-21-23(18,19)20)22-10(7(6)16)14-3-13-5-8(14)11-2-12-9(5)17/h2-4,6-7,10,15-16H,1H2,(H,11,12,17)(H2,18,19,20)/t4-,6-,7-,10-/m1/s1
Instrument: Agilent 6410 Triple Quadrupole LC/MS system
Instrument type: LC-ESI-QQQ
Ms type: MS2
Ion mode: POSITIVE
Precursor type: [M+H]+
m/z	relative intensity
96.3	0
96.4	2
96.5	3
96.6	4
96.7	3
96.8	3
96.9	3
97.0	4
97.1	5
97.2	4
97.3	2
136.2	0
136.3	1
136.4	6
136.5	17
136.6	32
136.7	49
136.8	67
136.9	84
137.0	97
137.1	99
137.2	94
137.3	82
137.4	60
137.5	32
137.6	8
137.7	0
