Mass spectrum: Scopolamine; LC-ESI-QQQ; MS2; Frag=135.0V CID@25.0; [M+H]+
Name: Scopolamine
Class: Alkaloids
Formula: C17H21NO4
Exact mass: 303.3612
SMILES: CN1C2CC(OC(=O)C(CO)c3ccccc3)CC1[C@H]1OC21
InChI: InChI=1S/C17H21NO4/c1-18-13-7-11(8-14(18)16-15(13)22-16)21-17(20)12(9-19)10-5-3-2-4-6-10/h2-6,11-16,19H,7-9H2,1H3/t11?,12?,13?,14?,15-,16?/m1/s1
Instrument: Agilent 6410 Triple Quadrupole LC/MS system
Instrument type: LC-ESI-QQQ
Ms type: MS2
Ion mode: POSITIVE
Precursor type: [M+H]+
m/z	relative intensity
78.6	2
78.7	4
78.8	7
78.9	10
79.0	11
79.1	12
79.2	11
79.3	8
79.4	5
79.5	2
83.8	3
83.9	5
84.0	6
84.1	7
84.2	6
84.3	5
84.4	3
97.6	4
97.7	8
97.8	12
97.9	16
98.0	18
98.1	18
98.2	17
98.3	14
98.4	9
98.5	4
102.4	1
102.5	3
102.6	6
102.7	13
102.8	20
102.9	28
103.0	32
103.1	33
103.2	31
103.3	25
103.4	17
103.5	8
103.6	1
109.5	2
109.6	4
109.7	7
109.8	12
109.9	18
110.0	23
110.1	25
110.2	24
110.3	21
110.4	15
110.5	8
110.6	2
120.4	4
120.5	5
120.6	8
120.7	13
120.8	21
120.9	29
121.0	34
121.1	37
121.2	37
121.3	34
121.4	27
121.5	17
121.6	7
121.7	0
137.2	1
137.3	2
137.4	5
137.5	9
137.6	15
137.7	27
137.8	47
137.9	71
138.0	91
138.1	99
138.2	95
138.3	79
138.4	54
138.5	27
138.6	7
138.7	0
155.3	1
155.4	2
155.5	4
155.6	6
155.7	11
155.8	20
155.9	31
156.0	40
156.1	45
156.2	45
156.3	42
156.4	34
156.5	23
156.6	10
156.7	2
303.8	2
303.9	4
304.0	5
304.1	6
304.2	6
304.3	5
304.4	4
304.5	2
