Mass spectrum: Felamidin; LC-ESI-QQQ; MS2; Frag=135.0V CID@5.0; [M+H]+
Name: Felamidin
Class: Benzopyranoids
Formula: C21H18O5
Exact mass: 350.3746
SMILES: CC(C)(OC(=O)c1ccccc1)C1Cc2cc3ccc(=O)oc3cc2O1
InChI: InChI=1S/C21H18O5/c1-21(2,26-20(23)13-6-4-3-5-7-13)18-11-15-10-14-8-9-19(22)25-16(14)12-17(15)24-18/h3-10,12,18H,11H2,1-2H3
Instrument: Agilent 6410 Triple Quadrupole LC/MS system
Instrument type: LC-ESI-QQQ
Ms type: MS2
Ion mode: POSITIVE
Precursor type: [M+H]+
m/z	relative intensity
228.6	1
228.7	3
228.8	6
228.9	9
229.0	11
229.1	12
229.2	11
229.3	9
229.4	6
229.5	3
350.2	1
350.3	3
350.4	5
350.5	7
350.6	13
350.7	25
350.8	44
350.9	68
351.0	88
351.1	99
351.2	98
351.3	83
351.4	58
351.5	29
351.6	7
351.7	0
