Mass spectrum: Vincanidine; LC-ESI-QQQ; MS2; Frag=135.0V CID@25.0; [M+H]+
Name: (11S,17S)-12-ethylidene-6-hydroxy-8,14-diazapentacyclo(9.5.2.0(1,9).0(2,7).0(14,17))octadeca-2(7),3,5,9-tetraene-10-carbaldehyde
Name: Vincanidine
Class: Alkaloids
Formula: C19H20N2O2
Exact mass: 308.3835
SMILES: C/C=C1/CN2CC[C@]34C(=C(C=O)[C@H]1C[C@H]23)Nc1c(O)cccc14
InChI: InChI=1S/C19H20N2O2/c1-2-11-9-21-7-6-19-14-4-3-5-15(23)17(14)20-18(19)13(10-22)12(11)8-16(19)21/h2-5,10,12,16,20,23H,6-9H2,1H3/b11-2-/t12-,16-,19+/m0/s1
Instrument: Agilent 6410 Triple Quadrupole LC/MS system
Instrument type: LC-ESI-QQQ
Ms type: MS2
Ion mode: POSITIVE
Precursor type: [M+H]+
m/z	relative intensity
55.8	3
55.9	4
56.0	6
56.1	7
56.2	6
56.3	5
56.4	3
67.8	3
67.9	4
68.0	5
68.1	6
68.2	5
68.3	4
68.4	3
94.8	4
94.9	5
95.0	6
95.1	7
95.2	6
95.3	5
95.4	4
107.7	2
107.8	4
107.9	6
108.0	7
108.1	8
108.2	7
108.3	6
108.4	5
108.5	3
121.6	1
121.7	3
121.8	5
121.9	7
122.0	9
122.1	9
122.2	8
122.3	5
122.4	3
122.5	1
133.7	3
133.8	4
133.9	6
134.0	7
134.1	8
134.2	7
134.3	5
134.4	3
145.4	2
145.5	4
145.6	7
145.7	11
145.8	16
145.9	20
146.0	22
146.1	23
146.2	22
146.3	19
146.4	14
146.5	8
158.8	3
158.9	4
159.0	5
159.1	6
159.2	5
159.3	5
159.4	5
159.5	5
159.6	6
159.7	9
159.8	14
159.9	19
160.0	23
160.1	24
160.2	23
160.3	19
160.4	15
160.5	8
160.6	2
161.7	2
161.8	3
161.9	4
162.0	5
162.1	6
162.2	6
162.3	6
162.4	5
162.5	3
169.7	2
169.8	4
169.9	5
170.0	6
170.1	7
170.2	6
170.3	5
170.4	3
171.6	2
171.7	4
171.8	6
171.9	9
172.0	11
172.1	12
172.2	13
172.3	12
172.4	9
172.5	5
172.6	2
173.4	3
173.5	4
173.6	5
173.7	9
173.8	12
173.9	15
174.0	17
174.1	18
174.2	19
174.3	18
174.4	13
174.5	7
174.6	2
182.5	3
182.6	5
182.7	8
182.8	13
182.9	19
183.0	24
183.1	25
183.2	24
183.3	20
183.4	16
183.6	12
183.7	16
183.8	24
183.9	35
184.0	43
184.1	48
184.2	47
184.3	43
184.4	34
184.5	23
184.6	13
184.8	12
184.9	17
185.0	22
185.1	23
185.2	23
185.3	21
185.4	17
185.5	12
185.6	7
186.6	5
186.7	8
186.8	13
186.9	20
187.0	24
187.1	26
187.2	25
187.3	22
187.4	16
187.5	9
187.6	4
195.4	2
195.5	4
195.6	8
195.7	14
195.8	21
195.9	27
196.0	30
196.1	33
196.2	34
196.3	32
196.4	25
196.5	16
196.8	7
196.9	12
197.0	15
197.1	17
197.2	16
197.3	15
197.4	11
197.7	6
197.8	10
197.9	15
198.0	19
198.1	20
198.2	19
198.3	17
198.4	12
198.5	7
198.8	5
198.9	8
199.0	11
199.1	13
199.2	13
199.3	11
199.4	8
199.7	3
199.8	6
199.9	9
200.0	10
200.1	10
200.2	9
200.3	8
200.4	6
200.5	3
201.4	2
201.5	4
201.6	7
201.7	12
201.8	19
201.9	27
202.0	34
202.1	38
202.2	37
202.3	29
202.4	18
202.5	6
202.6	0
206.7	3
206.8	4
206.9	6
207.0	7
207.1	8
207.2	8
207.3	8
207.4	6
207.8	4
207.9	5
208.0	7
208.1	8
208.2	9
208.3	8
208.4	6
208.7	2
208.8	4
208.9	6
209.0	7
209.1	7
209.6	4
209.7	6
209.8	9
209.9	13
210.0	16
210.1	17
210.2	16
210.3	14
210.4	10
210.5	6
210.8	4
210.9	7
211.0	9
211.1	9
211.2	8
211.7	6
211.8	9
211.9	13
212.0	17
212.1	18
212.2	17
212.3	15
212.4	11
212.5	7
214.3	3
214.4	4
214.5	5
214.6	8
214.7	13
214.8	21
214.9	30
215.0	36
215.1	39
215.2	38
215.3	33
215.4	26
215.5	15
215.6	6
215.7	0
219.7	3
219.8	4
219.9	6
220.0	8
220.1	8
220.2	8
220.3	7
220.7	4
220.8	6
220.9	9
221.0	12
221.1	13
221.2	14
221.3	12
221.4	10
221.7	5
221.8	8
221.9	12
222.0	15
222.1	17
222.2	17
222.3	14
222.4	10
222.7	5
222.8	9
222.9	13
223.0	16
223.1	16
223.2	15
223.3	14
223.4	12
223.7	10
223.8	13
223.9	17
224.0	21
224.1	23
224.2	24
224.3	24
224.4	20
224.5	13
224.6	6
224.8	4
224.9	8
225.0	11
225.1	12
225.2	12
225.3	11
225.4	9
225.7	4
225.8	6
225.9	10
226.0	14
226.1	17
226.2	18
226.3	16
226.4	11
226.5	6
226.6	2
232.6	2
232.7	3
232.8	6
232.9	8
233.0	9
233.1	9
233.2	9
233.3	8
233.4	6
233.7	4
233.8	6
233.9	8
234.0	9
234.1	10
234.2	10
234.3	9
234.7	6
234.8	9
234.9	13
235.0	16
235.1	18
235.2	19
235.3	19
235.4	17
235.7	12
235.8	19
235.9	28
236.0	35
236.1	39
236.2	38
236.3	34
236.4	27
236.5	17
236.6	8
236.8	6
236.9	10
237.0	14
237.1	16
237.2	16
237.3	15
237.4	13
237.6	8
237.7	11
237.8	18
237.9	27
238.0	35
238.1	38
238.2	38
238.3	34
238.4	26
238.5	16
238.6	6
247.7	4
247.8	7
247.9	10
248.0	12
248.1	14
248.2	14
248.3	13
248.4	11
248.5	7
248.8	5
248.9	7
249.0	10
249.1	11
249.2	11
249.3	11
249.4	9
249.5	7
249.8	4
249.9	6
250.0	9
250.1	11
250.2	11
250.3	10
250.4	8
250.7	4
250.8	6
250.9	9
251.0	11
251.1	13
251.2	13
251.3	13
251.4	11
251.7	6
251.8	10
251.9	15
252.0	19
252.1	21
252.2	20
252.3	18
252.4	15
252.5	10
252.6	5
252.9	4
253.0	6
253.1	7
253.2	8
253.3	8
253.4	7
253.7	4
253.8	6
253.9	8
254.0	11
254.1	12
254.2	12
254.3	11
254.4	9
254.5	5
254.8	2
254.9	4
255.0	5
255.1	6
255.2	7
255.3	6
255.4	4
255.5	1
261.6	2
261.7	4
261.8	6
261.9	8
262.0	10
262.1	12
262.2	13
262.3	13
262.4	10
262.5	6
262.8	3
262.9	5
263.0	7
263.1	8
263.2	7
263.3	7
263.7	5
263.8	8
263.9	12
264.0	15
264.1	19
264.2	20
264.3	19
264.4	15
264.5	9
264.8	3
264.9	6
265.0	8
265.1	9
265.2	8
265.3	8
265.4	7
265.5	6
265.6	6
265.7	8
265.8	12
265.9	16
266.0	20
266.1	22
266.2	22
266.3	19
266.4	15
266.5	9
266.6	4
279.7	3
279.8	5
279.9	8
280.0	11
280.1	13
280.2	14
280.3	12
280.4	10
280.7	5
280.8	7
280.9	12
281.0	17
281.1	21
281.2	21
281.3	19
281.4	15
281.5	9
281.6	4
290.7	2
290.8	3
290.9	5
291.0	7
291.1	9
291.2	10
291.3	9
291.4	7
291.5	4
308.3	0
308.4	1
308.5	5
308.6	12
308.7	23
308.8	38
308.9	57
309.0	76
309.1	91
309.2	99
309.3	97
309.4	82
309.5	55
309.6	25
309.7	3
