Mass spectrum: Tschimganin; LC-ESI-QQQ; MS2; Frag=135.0V CID@5.0; [M+Na]+
Name: Tschimganin
Class: Terpenoids
Formula: C18H24O4
Exact mass: 304.3896
SMILES: COc1cc(C(=O)OC2CC3CCC2(C)C3(C)C)ccc1O
InChI: InChI=1S/C18H24O4/c1-17(2)12-7-8-18(17,3)15(10-12)22-16(20)11-5-6-13(19)14(9-11)21-4/h5-6,9,12,15,19H,7-8,10H2,1-4H3
Instrument: Agilent 6410 Triple Quadrupole LC/MS system
Instrument type: LC-ESI-QQQ
Ms type: MS2
Ion mode: POSITIVE
Precursor type: [M+Na]+
m/z	relative intensity
326.4	3
326.5	5
326.6	9
326.7	18
326.8	36
326.9	59
327.0	81
327.1	95
327.2	99
327.3	93
327.4	74
327.5	45
327.6	16
327.7	0
