Mass spectrum: Harpagide; LC-ESI-QQQ; MS2; Frag=135.0V CID@15.0; [M+Na]+
Name: Harpagide
Class: Terpenoids
Formula: C15H24O10
Exact mass: 364.3525
SMILES: C[C@]1(O)CC(O)C2(O)C=COC(OC3O[C@H](CO)[C@@H](O)[C@H](O)[C@H]3O)C21
InChI: InChI=1S/C15H24O10/c1-14(21)4-7(17)15(22)2-3-23-13(11(14)15)25-12-10(20)9(19)8(18)6(5-16)24-12/h2-3,6-13,16-22H,4-5H2,1H3/t6-,7?,8-,9+,10-,11?,12?,13?,14+,15?/m1/s1
Instrument: Agilent 6410 Triple Quadrupole LC/MS system
Instrument type: LC-ESI-QQQ
Ms type: MS2
Ion mode: POSITIVE
Precursor type: [M+Na]+
m/z	relative intensity
386.2	0
386.3	3
386.4	7
386.5	13
386.6	19
386.7	27
386.8	43
386.9	67
387.0	89
387.1	99
387.2	93
387.3	72
387.4	43
387.5	15
387.6	1
