Mass spectrum: Piptanthine; LC-ESI-QQQ; MS2; Frag=135.0V CID@25.0 ; [M+H]+
Name: Piptanthine
Class: Alkaloids
Formula: C20H35N3
Exact mass: 317.52205000000004
SMILES: C1CC[C@H](C23CC(C[C@@H]4CCCN[C@H]42)[C@@H]2CCCCN2C3)NC1
InChI: InChI=1S/C20H35N3/c1-3-9-21-18(8-1)20-13-16(12-15-6-5-10-22-19(15)20)17-7-2-4-11-23(17)14-20/h15-19,21-22H,1-14H2/t15-,16?,17-,18+,19+,20?/m0/s1
Instrument: Agilent 6410 Triple Quadrupole LC/MS system
Instrument type: LC-ESI-QQQ
Ms type: MS2
Ion mode: POSITIVE
Precursor type: [M+H]+
m/z	relative intensity
83.7	2
83.8	3
83.9	4
84.0	5
84.1	5
84.2	4
84.3	3
84.4	2
97.7	2
97.8	4
97.9	5
98.0	7
98.1	7
98.2	7
98.3	5
98.4	2
317.5	2
317.6	3
317.7	6
317.8	13
317.9	26
318.0	46
318.1	70
318.2	90
318.3	99
318.4	97
318.5	82
318.6	58
318.7	30
318.8	7
318.9	0
