Mass spectrum: 14,16-Dianhydrogitoxigenin; LC-ESI-QQQ; MS2; Frag=135.0V CID@15.0; [M+H]+
Name: 14,16-Dianhydrogitoxigenin
Class: Steroids
Formula: C23H30O3
Exact mass: 354.4937
SMILES: C[C@]12CCC3C(CCC4CC(O)CC[C@@]43C)C1=CC=C2C1=CC(=O)OC1
InChI: InChI=1S/C23H30O3/c1-22-9-7-16(24)12-15(22)3-4-17-19-6-5-18(14-11-21(25)26-13-14)23(19,2)10-8-20(17)22/h5-6,11,15-17,20,24H,3-4,7-10,12-13H2,1-2H3/t15?,16?,17?,20?,22-,23+/m0/s1
Instrument: Agilent 6410 Triple Quadrupole LC/MS system
Instrument type: LC-ESI-QQQ
Ms type: MS2
Ion mode: POSITIVE
Precursor type: [M+H]+
m/z	relative intensity
174.8	2
174.9	3
175.0	5
175.1	6
175.2	6
175.3	6
175.4	4
175.5	2
212.6	2
212.7	3
212.8	4
212.9	6
213.0	8
213.1	9
213.2	9
213.3	8
213.4	6
213.5	4
213.6	1
226.5	1
226.6	2
226.7	4
226.8	6
226.9	9
227.0	10
227.1	11
227.2	11
227.3	10
227.4	8
227.5	5
227.6	2
336.5	1
336.6	3
336.7	6
336.8	11
336.9	18
337.0	27
337.1	36
337.2	42
337.3	44
337.4	39
337.5	28
337.6	14
337.7	3
354.4	0
354.5	2
354.6	6
354.7	13
354.8	23
354.9	38
355.0	58
355.1	79
355.2	95
355.3	99
355.4	91
355.5	69
355.6	41
355.7	14
355.8	0
