Mass spectrum: Methylevoxine; LC-ESI-QQQ; MS2; Frag=135.0V CID@25.0; [M+H]+
Name: Methylevoxine
Class: Alkaloids
Formula: C19H23NO6
Exact mass: 361.3983
SMILES: COc1c2ccoc2nc2c(OC)c(OCC(O)C(C)(C)OC)ccc12
InChI: InChI=1S/C19H23NO6/c1-19(2,24-5)14(21)10-26-13-7-6-11-15(17(13)23-4)20-18-12(8-9-25-18)16(11)22-3/h6-9,14,21H,10H2,1-5H3
Instrument: Agilent 6410 Triple Quadrupole LC/MS system
Instrument type: LC-ESI-QQQ
Ms type: MS2
Ion mode: POSITIVE
Precursor type: [M+H]+
m/z	relative intensity
198.6	1
198.7	2
198.8	4
198.9	5
199.0	7
199.1	8
199.2	7
199.3	6
199.4	4
199.5	1
215.5	1
215.6	3
215.7	5
215.8	9
215.9	12
216.0	14
216.1	14
216.2	12
216.3	8
216.4	4
226.2	1
226.3	3
226.4	5
226.5	9
226.6	16
226.7	26
226.8	38
226.9	47
227.0	50
227.1	48
227.2	43
227.3	36
227.4	24
227.5	11
227.6	1
230.3	2
230.4	6
230.5	12
230.6	22
230.7	38
230.8	57
230.9	77
231.0	92
231.1	99
231.2	93
231.3	72
231.4	41
231.5	13
231.6	0
242.6	3
242.7	4
242.8	6
242.9	9
243.0	12
243.1	15
243.2	16
243.3	14
243.6	8
243.7	13
243.8	20
243.9	27
244.0	32
244.1	36
244.2	34
244.3	28
244.4	17
244.5	7
244.9	3
245.0	4
245.1	5
245.2	6
245.3	7
245.4	7
245.5	9
245.6	14
245.7	25
245.8	43
245.9	63
246.0	78
246.1	83
246.2	77
246.3	60
246.4	36
246.5	13
246.6	0
257.4	2
257.5	3
257.6	7
257.7	14
257.8	23
257.9	30
258.0	35
258.1	38
258.2	38
258.3	33
258.4	21
258.5	8
258.6	1
311.8	2
311.9	3
312.0	5
312.1	7
312.2	7
312.3	6
312.4	3
329.2	1
329.3	2
329.4	3
329.5	5
329.6	8
329.7	15
329.8	29
329.9	47
330.0	63
330.1	74
330.2	76
330.3	68
330.4	50
330.5	28
330.6	8
330.7	0
