Mass spectrum: Convolidine; LC-ESI-QQQ; MS2; Frag=135.0V CID@15.0 ; [M+H]+
Name: Convolidine
Class: Alkaloids
Formula: C15H19NO4
Exact mass: 277.32298000000003
SMILES: COc1cc(C(=O)O[C@@H]2C[C@@H]3CC[C@H](C2)N3)ccc1O
InChI: InChI=1S/C15H19NO4/c1-19-14-6-9(2-5-13(14)17)15(18)20-12-7-10-3-4-11(8-12)16-10/h2,5-6,10-12,16-17H,3-4,7-8H2,1H3/t10-,11+,12+
Instrument: Agilent 6410 Triple Quadrupole LC/MS system
Instrument type: LC-ESI-QQQ
Ms type: MS2
Ion mode: POSITIVE
Precursor type: [M+H]+
m/z	relative intensity
92.3	1
92.4	2
92.5	4
92.6	8
92.7	15
92.8	25
92.9	37
93.0	47
93.1	50
93.2	48
93.3	41
93.4	31
93.5	19
93.6	7
93.7	0
109.4	1
109.5	3
109.6	6
109.7	11
109.8	19
109.9	29
110.0	38
110.1	42
110.2	41
110.3	36
110.4	28
110.5	18
110.6	7
110.7	0
150.6	2
150.7	3
150.8	5
150.9	8
151.0	9
151.1	9
151.2	8
151.3	6
151.4	4
151.5	1
277.3	1
277.4	3
277.5	6
277.6	10
277.7	18
277.8	34
277.9	56
278.0	79
278.1	94
278.2	99
278.3	93
278.4	76
278.5	50
278.6	22
278.7	3
