Mass spectrum: Rizinsan A; LC-ESI-QQQ; MS2; Frag=135.0V CID@5.0; [M+H]+
Name: Rizinsan A
Class: Terpenoids
Formula: C42H65NO16
Exact mass: 839.9835
SMILES: CC1(C)C2CC[C@]3(C)C(C(=O)C=C4[C@@H]5C[C@@](C)(C(=O)O)CC[C@]5(C)CC[C@]43C)[C@@]2(C)CC[C@@H]1O[C@H]1O[C@H](C(=O)O)[C@@H](O)[C@H](O)[C@H]1O[C@H]1O[C@@H](C(=O)O)[C@H](O)[C@@H](O)C1O.N
InChI: InChI=1S/C42H62O16.H3N/c1-37(2)21-8-11-42(7)31(20(43)16-18-19-17-39(4,36(53)54)13-12-38(19,3)14-15-41(18,42)6)40(21,5)10-9-22(37)55-35-30(26(47)25(46)29(57-35)33(51)52)58-34-27(48)23(44)24(45)28(56-34)32(49)50;/h16,19,21-31,34-35,44-48H,8-15,17H2,1-7H3,(H,49,50)(H,51,52)(H,53,54);1H3/t19-,21?,22-,23+,24+,25-,26-,27?,28+,29-,30+,31?,34+,35-,38+,39-,40-,41+,42+;/m0./s1
Instrument: Agilent 6410 Triple Quadrupole LC/MS system
Instrument type: LC-ESI-QQQ
Ms type: MS2
Ion mode: POSITIVE
Precursor type: [M+H]+
m/z	relative intensity
452.3	2
452.4	3
452.5	5
452.6	10
452.7	18
452.8	32
452.9	51
453.0	72
453.1	90
453.2	99
453.3	96
453.4	77
453.5	46
453.6	16
453.7	1
646.4	1
646.5	2
646.6	4
646.7	8
646.8	14
646.9	22
647.0	28
647.1	31
647.2	27
647.3	18
647.4	8
647.5	1
822.2	1
822.3	2
822.4	4
822.5	5
822.6	7
822.7	11
822.8	19
822.9	30
823.0	41
823.1	49
823.2	55
823.3	56
823.4	48
823.5	30
823.6	11
823.7	1
