Mass spectrum: isoosajin; LC-ESI-QQQ; MS2; Frag=135.0V CID@15.0; [M+H]+
Name: isoosajin
Class: Flavonoids
Formula: C25H24O5
Exact mass: 404.467
SMILES: CC1(C)C=Cc2c(c3c(c4c(=O)c(-c5ccc(O)cc5)coc24)OC(C)(C)CC3)O1
InChI: InChI=1S/C25H24O5/c1-24(2)11-9-16-21(29-24)17-10-12-25(3,4)30-23(17)19-20(27)18(13-28-22(16)19)14-5-7-15(26)8-6-14/h5-9,11,13,26H,10,12H2,1-4H3
Instrument: Agilent 6410 Triple Quadrupole LC/MS system
Instrument type: LC-ESI-QQQ
Ms type: MS2
Ion mode: POSITIVE
Precursor type: [M+H]+
m/z	relative intensity
348.2	0
348.3	1
348.4	4
348.5	9
348.6	18
348.7	31
348.8	49
348.9	71
349.0	89
349.1	99
349.2	98
349.3	85
349.4	62
349.5	34
349.6	11
349.7	0
404.4	1
404.5	2
404.6	5
404.7	8
404.8	14
404.9	21
405.0	27
405.1	32
405.2	34
405.3	32
405.4	27
405.5	19
405.6	10
405.7	2
