Mass spectrum: 11-Deoxy-PGE1.; LC-ESI-QQQ; MS2; Frag=135.0V CID@25.0; [M+Na]+
Name: 11-Deoxy-PGE1.
Class: Aliphatic natural products
Formula: C20H34O4
Exact mass: 338.4916
SMILES: CCCCC[C@H](O)/C=C/[C@H]1CCC(=O)[C@@H]1CCCCCCC(=O)O
InChI: InChI=1S/C20H34O4/c1-2-3-6-9-17(21)14-12-16-13-15-19(22)18(16)10-7-4-5-8-11-20(23)24/h12,14,16-18,21H,2-11,13,15H2,1H3,(H,23,24)/b14-12+/t16-,17-,18+/m0/s1
Instrument: Agilent 6410 Triple Quadrupole LC/MS system
Instrument type: LC-ESI-QQQ
Ms type: MS2
Ion mode: POSITIVE
Precursor type: [M+Na]+
m/z	relative intensity
360.4	3
360.5	8
360.6	22
360.7	42
360.8	55
360.9	57
361.0	61
361.1	73
361.2	85
361.3	87
361.4	76
361.5	54
361.6	28
361.7	7
