Mass spectrum: Diphyllin; LC-ESI-QQQ; MS2; Frag=135.0V CID@15.0; [M+H]+
Name: Diphyllin
Class: Lignans
Formula: C21H16O7
Exact mass: 380.3575
SMILES: COc1cc2c(O)c3c(c(-c4ccc5c(c4)OCO5)c2cc1OC)C(=O)OC3
InChI: InChI=1S/C21H16O7/c1-24-15-6-11-12(7-16(15)25-2)20(22)13-8-26-21(23)19(13)18(11)10-3-4-14-17(5-10)28-9-27-14/h3-7,22H,8-9H2,1-2H3
Instrument: Agilent 6410 Triple Quadrupole LC/MS system
Instrument type: LC-ESI-QQQ
Ms type: MS2
Ion mode: POSITIVE
Precursor type: [M+H]+
m/z	relative intensity
332.5	1
332.6	2
332.7	4
332.8	7
332.9	10
333.0	13
333.1	15
333.2	14
333.3	12
333.4	8
333.5	3
336.6	1
336.7	2
336.8	4
336.9	7
337.0	10
337.1	11
337.2	11
337.3	9
337.4	7
337.5	3
350.7	2
350.8	3
350.9	4
351.0	6
351.1	7
351.2	7
351.3	7
351.4	5
351.5	2
362.4	1
362.5	2
362.6	4
362.7	7
362.8	11
362.9	16
363.0	19
363.1	21
363.2	21
363.3	18
363.4	13
363.5	7
363.6	1
380.2	0
380.3	1
380.4	4
380.5	8
380.6	16
380.7	28
380.8	47
380.9	68
381.0	86
381.1	98
381.2	99
381.3	90
381.4	68
381.5	38
381.6	11
381.7	0
