Mass spectrum: Convolidine; LC-ESI-QQQ; MS2; Frag=135.0V CID@10.0 ; [M+H]+
Name: Convolidine
Class: Alkaloids
Formula: C15H19NO4
Exact mass: 277.32298000000003
SMILES: COc1cc(C(=O)O[C@@H]2C[C@@H]3CC[C@H](C2)N3)ccc1O
InChI: InChI=1S/C15H19NO4/c1-19-14-6-9(2-5-13(14)17)15(18)20-12-7-10-3-4-11(8-12)16-10/h2,5-6,10-12,16-17H,3-4,7-8H2,1H3/t10-,11+,12+
Instrument: Agilent 6410 Triple Quadrupole LC/MS system
Instrument type: LC-ESI-QQQ
Ms type: MS2
Ion mode: POSITIVE
Precursor type: [M+H]+
m/z	relative intensity
92.6	1
92.7	2
92.8	4
92.9	7
93.0	9
93.1	9
93.2	9
93.3	8
93.4	6
93.5	3
109.6	2
109.7	3
109.8	5
109.9	8
110.0	10
110.1	11
110.2	11
110.3	10
110.4	7
110.5	4
110.6	1
277.3	1
277.4	3
277.5	6
277.6	10
277.7	19
277.8	34
277.9	57
278.0	80
278.1	96
278.2	99
278.3	92
278.4	74
278.5	48
278.6	21
278.7	3
