Mass spectrum: 1alpha-Hydroxy-1-desoxotamirin; LC-ESI-QQQ; MS2; Frag=135.0V CID@25.0; [M+H]+
Name: 1alpha-Hydroxy-1-desoxotamirin
Class: Terpenoids
Formula: C15H20O4
Exact mass: 264.3243
SMILES: C=C1C(=O)O[C@H]2CC(=C)[C@@H](O)CC/C(C)=C/[C@@H](O)C12
InChI: InChI=1S/C15H20O4/c1-8-4-5-11(16)9(2)7-13-14(12(17)6-8)10(3)15(18)19-13/h6,11-14,16-17H,2-5,7H2,1H3/b8-6+/t11-,12+,13-,14?/m0/s1
Instrument: Agilent 6410 Triple Quadrupole LC/MS system
Instrument type: LC-ESI-QQQ
Ms type: MS2
Ion mode: POSITIVE
Precursor type: [M+H]+
m/z	relative intensity
54.5	2
54.6	4
54.7	7
54.8	10
54.9	11
55.0	12
55.1	13
55.2	12
55.3	8
55.4	4
66.3	2
66.4	4
66.5	5
66.6	8
66.7	13
66.8	21
66.9	28
67.0	29
67.1	26
67.2	23
67.3	21
67.4	16
67.5	9
67.6	2
68.8	3
68.9	5
69.0	8
69.1	11
69.2	12
69.3	9
69.4	4
69.5	1
70.8	1
70.9	3
71.0	5
71.1	5
71.2	3
77.0	4
77.1	5
77.2	8
77.3	10
77.4	8
77.5	4
77.6	2
78.4	1
78.5	2
78.6	5
78.7	10
78.8	16
78.9	20
79.0	21
79.1	20
79.2	19
79.3	15
79.4	9
79.5	3
80.1	1
80.2	2
80.3	6
80.4	13
80.5	21
80.6	27
80.7	35
80.8	50
80.9	71
81.0	91
81.1	99
81.2	95
81.3	79
81.4	53
81.5	24
81.6	3
82.7	1
82.8	2
82.9	4
83.0	5
83.1	5
83.2	4
83.3	2
90.1	0
90.2	1
90.3	5
90.4	10
90.5	16
90.6	21
90.7	29
90.8	44
90.9	62
91.0	72
91.1	71
91.2	62
91.3	52
91.4	38
91.5	19
91.6	4
92.3	2
92.4	4
92.5	7
92.6	13
92.7	23
92.8	34
92.9	40
93.0	38
93.1	36
93.2	36
93.3	34
93.4	24
93.5	10
93.6	0
94.5	1
94.6	2
94.7	7
94.8	13
94.9	20
95.0	25
95.1	26
95.2	23
95.3	15
95.4	7
95.5	2
96.3	2
96.4	3
96.5	5
96.6	6
96.7	6
96.8	6
96.9	5
97.0	4
102.7	1
102.8	2
102.9	4
103.0	4
103.1	4
103.2	3
104.2	1
104.3	2
104.4	4
104.5	8
104.6	16
104.7	31
104.8	51
104.9	67
105.0	73
105.1	72
105.2	70
105.3	62
105.4	43
105.5	18
105.6	1
106.4	1
106.5	2
106.6	5
106.7	13
106.8	23
106.9	30
107.0	32
107.1	34
107.2	37
107.3	37
107.4	28
107.5	14
107.6	3
108.6	2
108.7	3
108.8	5
108.9	8
109.0	8
109.1	8
109.2	5
109.3	3
116.5	0
116.6	2
116.7	5
116.8	11
116.9	16
117.0	20
117.1	23
117.2	23
117.3	19
117.4	12
117.5	5
117.6	1
118.3	1
118.4	2
118.5	4
118.6	6
118.7	6
118.8	7
118.9	9
119.0	10
119.1	11
119.2	10
119.3	7
119.4	5
119.5	2
122.5	1
122.6	4
122.7	9
122.8	14
122.9	17
123.0	16
123.1	14
123.2	14
123.3	14
123.4	12
123.5	6
123.6	1
126.3	0
126.4	1
126.5	4
126.6	7
126.7	7
126.8	5
126.9	2
127.5	2
127.6	4
127.7	5
127.8	7
127.9	10
128.0	13
128.1	16
128.2	16
128.3	12
128.4	7
128.7	3
128.8	5
128.9	6
129.0	6
129.1	6
129.2	6
129.3	5
129.4	3
130.5	3
130.6	5
130.7	12
130.8	21
130.9	28
131.0	31
131.1	29
131.2	24
131.3	17
131.4	9
131.5	4
132.4	1
132.5	3
132.6	7
132.7	14
132.8	23
132.9	30
133.0	32
133.1	29
133.2	24
133.3	19
133.4	15
133.5	9
133.6	3
140.4	2
140.5	4
140.6	5
140.7	5
140.8	4
140.9	5
141.0	6
141.1	8
141.2	7
141.3	5
141.6	1
141.7	3
141.8	7
141.9	11
142.0	13
142.1	13
142.2	12
142.3	12
142.4	11
142.5	13
142.6	17
142.7	21
142.8	24
142.9	27
143.0	32
143.1	37
143.2	37
143.3	32
143.4	23
143.5	12
143.6	4
144.5	1
144.6	4
144.7	10
144.8	15
144.9	21
145.0	24
145.1	24
145.2	21
145.3	15
145.4	9
145.5	4
150.9	1
151.0	3
151.1	4
151.2	4
151.3	3
152.4	0
152.5	1
152.6	5
152.7	10
152.8	14
152.9	13
153.0	9
153.1	5
153.2	3
154.5	0
154.6	2
154.7	6
154.8	12
154.9	18
155.0	20
155.1	21
155.2	20
155.3	18
155.4	13
155.5	7
155.6	2
156.7	2
156.8	3
156.9	7
157.0	12
157.1	17
157.2	20
157.3	18
157.4	12
157.5	5
158.5	3
158.6	5
158.7	7
158.8	10
158.9	12
159.0	12
159.1	10
159.2	8
159.3	6
159.4	4
159.5	2
162.7	1
162.8	3
162.9	4
163.0	4
163.1	3
167.4	3
167.5	3
167.6	8
167.7	14
167.8	17
167.9	19
168.0	20
168.1	23
168.2	24
168.3	22
168.4	17
168.5	11
168.6	5
172.6	0
172.7	3
172.8	10
172.9	19
173.0	26
173.1	26
173.2	22
173.3	15
173.4	8
173.5	3
182.5	1
182.6	2
182.7	7
182.8	15
182.9	22
183.0	25
183.1	26
183.2	24
183.3	21
183.4	14
183.5	7
183.6	2
200.6	0
200.7	2
200.8	4
200.9	7
201.0	7
201.1	6
201.2	6
201.3	6
201.4	6
201.5	5
201.6	2
