Mass spectrum: Lasalocid A, Na salt; LC-ESI-QQQ; MS2; Frag=135.0V CID@25.0; [M+Na]+
Name: Lasalocid A, Na salt
Class: Polyketide
Formula: C34H53NaO8
Exact mass: 612.7865
SMILES: CC[C@H](C(=O)[C@H](C)[C@H](O)[C@@H](C)CCc1ccc(C)c([O-])c1C(=O)O)[C@@H]1O[C@@](CC)([C@@H]2CC[C@@](O)(CC)[C@@H](C)O2)C[C@H]1C.[Na+]
InChI: InChI=1S/C34H54O8.Na/c1-9-25(31-21(6)18-34(11-3,42-31)26-16-17-33(40,10-2)23(8)41-26)30(37)22(7)28(35)19(4)12-14-24-15-13-20(5)29(36)27(24)32(38)39;/h13,15,19,21-23,25-26,28,31,35-36,40H,9-12,14,16-18H2,1-8H3,(H,38,39);/q;+1/p-1/t19-,21+,22+,23+,25+,26-,28+,31+,33-,34+;/m0./s1
Instrument: Agilent 6410 Triple Quadrupole LC/MS system
Instrument type: LC-ESI-QQQ
Ms type: MS2
Ion mode: POSITIVE
Precursor type: [M+Na]+
m/z	relative intensity
376.4	1
376.5	2
376.6	4
376.7	7
376.8	12
376.9	20
377.0	29
377.1	36
377.2	38
377.3	35
377.4	28
377.5	19
377.6	9
377.7	1
576.6	1
576.7	2
576.8	4
576.9	6
577.0	8
577.1	9
577.2	10
577.3	11
577.4	11
577.5	9
577.6	5
577.7	2
594.6	2
594.7	3
594.8	6
594.9	8
595.0	11
595.1	13
595.2	15
595.3	18
595.4	21
595.5	20
595.6	15
595.7	7
595.8	1
612.4	1
612.5	3
612.6	6
612.7	11
612.8	19
612.9	35
613.0	57
613.1	77
613.2	91
613.3	99
613.4	99
613.5	89
613.6	65
613.7	33
613.8	8
613.9	0
