Mass spectrum: Verticinone; LC-ESI-QQQ; MS2; Frag=135.0V CID@5.0; [M+H]+
Name: Verticinone
Class: Alkaloids
Formula: C27H45NO4
Exact mass: 447.664
SMILES: CC1CCC2N(C1)CC1C3CC4C(CC(=O)C5CC(O)CCC54C)C3CCC1[C@]2(C)O.O
InChI: InChI=1S/C27H43NO3.H2O/c1-15-4-7-25-27(3,31)21-6-5-17-18(20(21)14-28(25)13-15)11-22-19(17)12-24(30)23-10-16(29)8-9-26(22,23)2;/h15-23,25,29,31H,4-14H2,1-3H3;1H2/t15?,16?,17?,18?,19?,20?,21?,22?,23?,25?,26?,27-;/m0./s1
Instrument: Agilent 6410 Triple Quadrupole LC/MS system
Instrument type: LC-ESI-QQQ
Ms type: MS2
Ion mode: POSITIVE
Precursor type: [M+H]+
m/z	relative intensity
429.4	1
429.5	2
429.6	4
429.7	8
429.8	15
429.9	28
430.0	47
430.1	69
430.2	88
430.3	99
430.4	99
430.5	86
430.6	62
430.7	34
430.8	11
430.9	0
