Mass spectrum: 9,13-Epoxy-3,18-dihydroxy-15,16-labdanolide; LC-ESI-QQQ; MS2; Frag=135.0V CID@10.0; [M+HCOO]-
Name: 9,13-Epoxy-3,18-dihydroxy-15,16-labdanolide
Class: Terpenoids
Formula: C20H32O5
Exact mass: 352.475
SMILES: C[C@@H]1CCC2[C@](C)(CC[C@H](O)[C@@]2(C)CO)[C@@]12CC1(COC(=O)C1)CO2
InChI: InChI=1S/C20H32O5/c1-13-4-5-14-17(2,10-21)15(22)6-7-18(14,3)20(13)9-19(12-25-20)8-16(23)24-11-19/h13-15,21-22H,4-12H2,1-3H3/t13-,14?,15+,17+,18+,19?,20-/m1/s1
Instrument: Agilent 6410 Triple Quadrupole LC/MS system
Instrument type: LC-ESI-QQQ
Ms type: MS2
Ion mode: NEGATIVE
Precursor type: [M+HCOO]-
m/z	relative intensity
50.9	6
51.0	9
51.1	16
51.2	20
51.3	18
51.4	11
51.6	8
51.7	14
51.8	20
51.9	20
52.0	15
52.1	8
52.3	7
52.4	13
52.5	19
52.6	19
52.7	13
52.9	4
53.0	8
53.1	16
53.2	19
53.3	16
53.4	9
53.6	5
53.7	13
53.8	22
53.9	25
54.0	21
54.1	14
54.3	9
54.4	13
54.5	16
54.6	16
54.7	13
54.9	10
55.0	14
55.1	18
55.2	17
55.3	13
55.5	11
55.6	15
55.7	18
55.8	17
55.9	12
56.1	7
56.2	11
56.3	17
56.4	18
56.5	14
56.7	7
56.8	11
56.9	17
57.0	20
57.1	18
57.4	13
57.5	18
57.6	21
57.7	19
57.8	14
58.1	9
58.2	15
58.3	20
58.4	19
58.5	13
58.7	7
58.8	11
58.9	16
59.0	17
59.1	12
59.3	7
59.4	11
59.5	16
59.6	18
59.7	15
59.9	7
60.0	10
60.1	16
60.2	19
60.3	17
60.4	10
60.6	8
60.7	13
60.8	17
60.9	16
61.0	11
61.2	9
61.3	13
61.4	18
61.5	19
61.6	14
61.8	5
61.9	9
62.0	16
62.1	20
62.2	18
62.3	12
62.5	10
62.6	16
62.7	21
62.8	20
62.9	15
63.2	9
63.3	14
63.4	18
63.5	17
63.6	13
63.8	10
63.9	15
64.0	18
64.1	15
64.2	9
64.4	7
64.5	12
64.6	17
64.7	18
64.8	13
65.1	5
65.2	12
65.3	19
65.4	20
65.5	15
65.7	9
65.8	12
65.9	16
66.0	17
66.1	15
66.2	11
66.4	8
66.5	11
66.6	15
66.7	17
66.8	15
66.9	12
67.6	7
67.7	11
67.8	17
67.9	19
68.0	16
68.1	10
68.3	6
68.4	11
68.5	17
68.6	18
68.7	13
68.9	5
69.0	9
69.1	16
69.2	20
69.3	18
69.4	12
69.6	9
69.7	12
69.8	15
69.9	15
70.0	12
70.2	9
70.3	12
70.4	17
70.5	18
70.6	14
71.4	11
71.5	14
71.6	18
71.7	20
71.8	16
71.9	10
72.1	5
72.2	10
72.3	15
72.4	16
72.5	12
72.7	7
72.8	11
72.9	16
73.0	19
73.1	17
73.2	11
73.4	10
73.5	15
73.6	18
73.7	17
73.8	13
74.0	9
74.1	14
74.2	19
74.3	20
74.4	14
75.3	8
75.4	14
75.5	18
75.6	17
75.7	11
75.9	5
76.0	12
76.1	19
76.2	20
76.3	15
76.4	8
76.6	7
76.7	14
76.8	18
76.9	17
77.0	13
77.2	12
77.3	16
77.4	19
77.5	18
77.6	14
77.9	8
78.0	15
78.1	21
78.2	22
78.3	16
78.5	8
78.6	12
78.7	17
78.8	18
78.9	15
79.2	12
79.3	15
79.4	18
79.5	16
79.6	12
79.8	9
79.9	14
80.0	17
80.1	17
80.2	13
81.0	12
81.1	13
81.2	15
81.3	16
81.4	14
81.7	9
81.8	14
81.9	19
82.0	19
82.1	12
82.3	3
82.4	8
82.5	16
82.6	21
82.7	20
82.8	15
84.2	6
84.3	9
84.4	17
84.5	22
84.6	23
84.7	18
85.6	10
85.7	14
85.8	17
85.9	16
86.0	12
86.2	8
86.3	11
86.4	16
86.5	17
86.6	14
86.9	8
87.0	14
87.1	18
87.2	17
87.3	12
87.5	10
87.6	13
87.7	17
87.8	17
87.9	14
88.1	9
88.2	13
88.3	18
88.4	21
88.5	17
88.8	9
88.9	16
89.0	20
89.1	16
89.2	9
89.4	7
89.5	14
89.6	21
89.7	21
89.8	16
90.0	7
90.1	11
90.2	18
90.3	21
90.4	19
90.5	13
91.3	6
91.4	8
91.5	12
91.6	14
91.7	12
91.9	6
92.0	10
92.1	15
92.2	18
92.3	14
92.6	8
92.7	14
92.8	20
92.9	20
93.0	16
93.2	11
93.3	15
93.4	21
93.5	23
93.6	19
93.7	12
93.9	8
94.0	12
94.1	17
94.2	17
94.3	14
94.5	8
94.6	11
94.7	16
94.8	17
94.9	13
95.2	7
95.3	14
95.4	18
95.5	16
95.8	12
95.9	17
96.0	20
96.1	18
96.2	13
96.4	6
96.5	10
96.6	16
96.7	17
96.8	14
97.1	8
97.2	13
97.3	16
97.4	16
97.5	13
97.7	9
97.8	13
97.9	18
98.0	19
98.1	14
98.2	9
98.4	9
98.5	13
98.6	16
98.7	16
98.8	13
99.0	7
99.1	10
99.2	16
99.3	18
99.4	15
99.6	9
99.7	13
99.8	19
99.9	22
100.0	18
100.1	11
100.3	8
100.4	14
100.5	18
100.6	18
100.7	14
100.9	9
101.0	12
101.1	16
101.2	17
101.3	14
101.6	10
101.7	15
101.8	17
101.9	17
102.8	5
102.9	9
103.0	15
103.1	18
103.2	15
103.4	8
103.5	11
103.6	17
103.7	20
103.8	18
103.9	12
104.1	8
104.2	13
104.3	18
104.4	19
104.5	17
104.6	14
105.3	10
105.4	11
105.5	15
105.6	18
105.7	17
105.8	13
106.0	7
106.1	11
106.2	17
106.3	19
106.4	16
106.5	11
106.7	10
106.8	13
106.9	15
107.0	14
107.1	11
107.3	9
107.4	13
107.5	18
107.6	20
107.7	18
107.8	13
108.0	10
108.1	13
108.2	16
108.3	16
108.6	11
108.7	16
108.8	19
108.9	18
109.0	14
109.2	11
109.3	14
109.4	16
109.5	16
109.6	12
109.8	9
109.9	13
110.0	18
110.1	20
110.2	17
110.3	12
110.5	7
110.6	13
110.7	19
110.8	20
110.9	15
111.0	8
111.2	6
111.3	12
111.4	17
111.5	17
111.6	13
111.8	7
111.9	11
112.0	15
112.1	16
112.2	11
112.4	8
112.5	14
112.6	19
112.7	19
112.8	14
112.9	8
113.1	8
113.2	13
113.3	16
113.4	16
113.5	12
113.7	8
113.8	11
113.9	14
114.0	14
114.1	9
114.3	2
114.4	8
114.5	16
114.6	18
114.7	14
114.8	7
115.0	5
115.1	12
115.2	19
115.3	21
115.4	17
115.5	11
115.7	8
115.8	12
115.9	15
116.0	13
116.3	9
116.4	14
116.5	17
116.6	15
116.9	12
117.0	17
117.1	20
117.2	18
117.3	13
117.5	7
117.6	10
117.7	16
117.8	20
117.9	19
118.0	14
118.2	7
118.3	11
118.4	17
118.5	19
118.6	16
119.5	9
119.6	14
119.7	16
119.8	15
120.0	11
120.1	14
120.2	18
120.3	19
120.4	16
120.5	11
120.7	8
120.8	12
120.9	17
121.0	19
121.1	16
121.2	9
121.4	6
121.5	13
121.6	21
121.7	23
121.8	18
121.9	10
122.6	8
122.7	12
122.8	18
122.9	21
123.0	18
123.1	11
123.3	7
123.4	14
123.5	21
123.6	20
123.7	14
123.9	7
124.0	12
124.1	18
124.2	21
124.3	18
124.4	13
124.6	11
124.7	15
124.8	17
124.9	17
125.0	13
125.2	8
125.3	11
125.4	15
125.5	16
125.6	15
126.4	8
126.5	11
126.6	16
126.7	19
126.8	17
126.9	11
127.1	7
127.2	12
127.3	18
127.4	20
127.5	16
127.6	9
127.8	3
127.9	9
128.0	15
128.1	17
128.2	14
128.5	8
128.6	13
128.7	17
128.8	16
128.9	12
129.1	8
129.2	12
129.3	17
129.4	18
129.5	14
129.8	8
129.9	13
130.0	16
130.1	15
130.2	12
130.4	9
130.5	12
130.6	15
130.7	15
130.8	12
131.0	10
131.1	15
131.2	19
131.3	18
131.6	12
131.7	17
131.8	22
131.9	22
132.0	17
132.1	11
132.3	9
132.4	13
132.5	15
132.6	15
132.7	12
132.9	8
133.0	12
133.1	17
133.2	18
133.3	15
133.5	6
133.6	10
133.7	17
133.8	20
133.9	17
134.0	11
134.2	9
134.3	15
134.4	20
134.5	19
134.6	13
134.8	6
134.9	11
135.0	17
135.1	20
135.2	18
135.3	12
135.5	9
135.6	13
135.7	15
135.8	14
136.1	10
136.2	15
136.3	20
136.4	22
136.5	19
137.3	5
137.4	9
137.5	15
137.6	18
137.7	14
137.9	6
138.0	9
138.1	16
138.2	21
138.3	22
138.4	19
138.5	13
138.7	9
138.8	13
138.9	15
139.0	14
139.3	11
139.4	15
139.5	19
139.6	19
139.7	15
139.9	10
140.0	13
140.1	16
140.2	17
140.3	15
140.6	11
140.7	14
140.8	17
140.9	18
141.0	16
141.1	12
141.3	10
141.4	14
141.5	16
141.6	14
141.7	9
141.9	5
142.0	10
142.1	16
142.2	17
142.3	14
142.5	10
142.6	15
142.7	20
142.8	20
142.9	15
143.1	8
143.2	12
143.3	17
143.4	17
143.5	13
143.8	4
143.9	12
144.0	19
144.1	20
144.2	14
144.5	8
144.6	15
144.7	19
144.8	18
144.9	14
145.6	9
145.7	11
145.8	14
145.9	19
146.0	19
146.1	15
146.2	8
146.4	6
146.5	13
146.6	17
146.7	16
146.8	12
147.0	10
147.1	14
147.2	18
147.3	19
147.4	17
147.5	13
147.7	10
147.8	15
147.9	17
148.0	15
148.1	10
148.3	8
148.4	13
148.5	16
148.6	17
148.7	14
148.9	10
149.0	13
149.1	17
149.2	17
149.3	13
150.2	8
150.3	12
150.4	16
150.5	17
150.6	16
150.8	13
150.9	15
151.0	18
151.1	20
151.2	18
151.3	13
151.5	10
151.6	14
151.7	16
151.8	16
151.9	13
152.1	10
152.2	14
152.3	18
152.4	18
152.5	12
152.7	3
152.8	8
152.9	16
153.0	20
153.1	18
153.2	13
153.4	11
153.5	15
153.6	18
153.7	18
153.8	14
154.0	10
154.1	14
154.2	18
154.3	18
154.4	12
154.6	5
154.7	8
154.8	14
154.9	18
155.0	17
155.1	14
155.3	12
155.4	15
155.5	18
155.6	19
155.7	17
156.6	6
156.7	10
156.8	16
156.9	19
157.0	17
157.8	10
157.9	13
158.0	17
158.1	19
158.2	18
158.3	13
158.5	8
158.6	12
158.7	17
158.8	19
158.9	16
159.0	11
159.2	8
159.3	12
159.4	15
159.5	15
159.6	13
159.8	10
159.9	12
160.0	15
160.1	14
160.2	11
160.4	7
160.5	10
160.6	14
160.7	16
160.8	15
160.9	13
161.1	12
161.2	14
161.3	17
161.4	16
161.5	13
161.7	9
161.8	13
161.9	20
162.0	23
162.1	19
162.2	11
162.4	8
162.5	14
162.6	18
162.7	15
162.9	7
163.0	11
163.1	17
163.2	19
163.3	15
163.6	9
163.7	14
163.8	18
163.9	18
164.0	15
164.1	11
164.3	9
164.4	12
164.5	17
164.6	18
164.7	15
164.9	10
165.0	12
165.1	16
165.2	17
165.3	13
165.5	7
165.6	12
165.7	18
165.8	19
165.9	15
166.1	9
166.2	12
166.3	17
166.4	18
166.5	15
166.6	11
166.8	7
166.9	12
167.0	17
167.1	19
167.2	17
167.3	11
167.5	9
167.6	15
167.7	19
167.8	18
167.9	14
168.1	10
168.2	14
168.3	17
168.4	16
168.5	11
168.7	2
168.8	5
168.9	13
169.0	18
169.1	18
169.2	14
170.0	12
170.1	15
170.2	19
170.3	20
170.4	16
170.6	8
170.7	11
170.8	17
170.9	21
171.0	18
171.1	11
171.3	7
171.4	14
171.5	21
171.6	21
171.7	16
172.0	11
172.1	15
172.2	18
172.3	17
172.4	13
172.6	8
172.7	13
172.8	18
172.9	18
173.0	13
173.9	8
174.0	12
174.1	16
174.2	17
174.3	15
174.5	11
174.6	14
174.7	18
174.8	18
174.9	15
175.1	9
175.2	12
175.3	16
175.4	17
175.5	14
175.8	9
175.9	13
176.0	16
176.1	17
176.2	14
177.1	10
177.2	14
177.3	17
177.4	18
177.5	16
177.7	14
177.8	17
177.9	20
178.0	18
178.1	13
178.3	7
178.4	10
178.5	14
178.6	17
178.7	16
179.6	7
179.7	10
179.8	16
179.9	22
180.0	21
180.1	15
180.3	9
180.4	13
180.5	17
180.6	18
180.7	14
180.9	6
181.0	11
181.1	18
181.2	22
181.3	20
181.4	12
181.6	4
181.7	9
181.8	15
181.9	18
182.0	16
182.1	12
182.3	11
182.4	13
182.5	14
182.8	11
182.9	15
183.0	18
183.1	17
183.2	13
183.4	7
183.5	10
183.6	15
183.7	18
183.8	18
183.9	15
184.1	12
184.2	14
184.3	16
184.4	16
184.5	11
184.8	6
184.9	12
185.0	16
185.1	14
185.2	9
185.4	6
185.5	13
185.6	20
185.7	21
185.8	15
186.1	9
186.2	15
186.3	19
186.4	18
186.5	14
186.7	12
186.8	16
186.9	21
187.0	21
187.1	16
187.2	10
187.4	9
187.5	13
187.6	16
187.7	16
187.8	14
188.0	12
188.1	15
188.2	18
188.3	17
188.4	13
188.6	10
188.7	15
188.8	20
188.9	20
189.0	15
189.2	7
189.3	12
189.4	18
189.5	20
189.6	18
189.7	12
189.9	7
190.0	11
190.1	16
190.2	16
190.3	12
190.5	7
190.6	10
190.7	13
190.8	14
190.9	13
191.2	9
191.3	12
191.4	15
191.5	15
191.6	12
191.8	9
191.9	13
192.0	18
192.1	19
192.2	15
192.5	7
192.6	14
192.7	19
192.8	19
193.1	12
193.2	19
193.3	23
193.4	20
193.5	12
193.7	10
193.8	15
193.9	19
194.0	19
194.1	16
194.3	12
194.4	15
194.5	18
194.6	20
194.7	17
194.8	12
195.0	7
195.1	11
195.2	16
195.3	17
195.4	13
195.7	8
195.8	14
195.9	18
196.0	18
196.1	14
196.3	9
196.4	12
196.5	17
196.6	18
196.7	13
196.9	5
197.0	12
197.1	20
197.2	23
197.3	18
197.4	12
197.6	8
197.7	13
197.8	18
197.9	18
198.0	13
198.2	6
198.3	9
198.4	14
198.5	17
198.6	16
198.9	11
199.0	15
199.1	18
199.2	18
199.3	13
199.5	9
199.6	15
199.7	21
199.8	21
199.9	15
200.1	9
200.2	13
200.3	18
200.4	19
200.5	15
200.8	9
200.9	16
201.0	20
201.1	17
201.2	11
201.4	9
201.5	15
201.6	19
201.7	18
202.0	11
202.1	17
202.2	23
202.3	22
202.4	15
202.6	5
202.7	10
202.8	18
202.9	23
203.0	21
203.1	14
203.3	8
203.4	11
203.5	15
203.6	17
203.7	15
204.5	4
204.6	8
204.7	15
204.8	20
204.9	19
205.0	13
205.2	8
205.3	13
205.4	19
205.5	21
205.6	17
205.7	11
205.9	7
206.0	11
206.1	15
206.2	15
206.3	10
206.5	5
206.6	11
206.7	18
206.8	19
206.9	13
207.2	6
207.3	12
207.4	16
207.5	16
207.7	12
207.8	14
207.9	17
208.0	18
208.1	15
208.2	12
208.4	9
208.5	13
208.6	16
208.7	17
208.8	14
209.0	10
209.1	12
209.2	15
209.3	15
209.4	13
209.6	8
209.7	10
209.8	15
209.9	20
210.0	21
210.1	16
210.3	5
210.4	10
210.5	19
210.6	23
210.7	19
210.8	11
211.0	4
211.1	10
211.2	18
211.3	21
211.4	17
211.5	9
211.7	8
211.8	14
211.9	17
212.0	15
212.1	9
212.3	7
212.4	12
212.5	17
212.6	18
212.7	14
212.9	10
213.0	13
213.1	17
213.2	17
213.3	14
213.4	9
213.6	7
213.7	12
213.8	16
213.9	16
214.0	12
214.2	7
214.3	11
214.4	16
214.5	18
214.6	15
214.7	11
214.9	10
215.0	13
215.1	16
215.2	14
215.4	7
215.5	11
215.6	18
215.7	21
215.8	19
215.9	13
216.1	9
216.2	13
216.3	17
216.4	17
216.5	14
216.7	9
216.8	13
216.9	18
217.0	21
217.1	19
217.2	15
217.9	7
218.0	9
218.1	16
218.2	23
218.3	25
218.4	19
218.5	12
218.7	7
218.8	10
218.9	13
219.0	14
219.1	13
219.3	10
219.4	12
219.5	15
219.6	16
219.9	11
220.0	16
220.1	21
220.2	22
220.3	19
220.4	14
221.2	7
221.3	12
221.4	17
221.5	19
221.6	16
221.7	10
221.9	8
222.0	13
222.1	18
222.2	17
222.3	12
222.5	8
222.6	13
222.7	17
222.8	15
222.9	9
223.1	1
223.2	8
223.3	17
223.4	23
223.5	20
223.6	12
223.8	8
223.9	15
224.0	21
224.1	20
224.2	14
224.4	6
224.5	10
224.6	16
224.7	18
224.8	16
224.9	12
225.7	6
225.8	11
225.9	17
226.0	20
226.1	18
226.2	13
226.4	11
226.5	16
226.6	21
226.7	20
226.8	13
227.0	6
227.1	12
227.2	18
227.3	19
227.4	14
227.7	7
227.8	13
227.9	16
228.0	14
228.2	8
228.3	12
228.4	17
228.5	17
228.6	12
228.8	5
228.9	9
229.0	16
229.1	21
229.2	22
229.3	16
229.6	9
229.7	16
229.8	20
229.9	18
230.0	13
230.2	10
230.3	14
230.4	16
230.5	16
230.6	13
230.8	8
230.9	11
231.0	15
231.1	17
231.2	15
231.3	12
231.5	10
231.6	12
231.7	16
231.8	18
231.9	16
232.1	9
232.2	12
232.3	18
232.4	21
232.5	17
233.4	11
233.5	14
233.6	17
233.7	17
233.8	14
234.0	10
234.1	14
234.2	18
234.3	18
234.4	15
234.5	9
234.7	6
234.8	12
234.9	18
235.0	20
235.1	17
235.2	13
235.4	12
235.5	14
235.6	14
235.7	13
236.0	10
236.1	13
236.2	17
236.3	17
236.4	13
236.6	6
236.7	10
236.8	16
236.9	17
237.0	13
237.2	5
237.3	10
237.4	16
237.5	19
237.6	17
237.7	12
237.9	9
238.0	12
238.1	14
238.2	13
238.3	8
238.5	5
238.6	10
238.7	16
238.8	20
238.9	17
239.0	11
239.2	8
239.3	14
239.4	18
239.5	17
239.6	12
239.8	8
239.9	12
240.0	16
240.1	16
240.2	13
240.4	9
240.5	12
240.6	17
240.7	20
240.8	18
240.9	14
241.1	12
241.2	16
241.3	18
241.4	17
241.5	12
241.7	5
241.8	8
241.9	13
242.0	15
242.1	13
242.3	6
242.4	9
242.5	17
242.6	22
242.7	21
242.8	15
243.0	10
243.1	13
243.2	16
243.3	16
243.4	14
243.6	9
243.7	12
243.8	16
243.9	19
244.0	16
244.1	11
244.3	8
244.4	14
244.5	18
244.6	17
244.7	12
244.9	8
245.0	12
245.1	17
245.2	18
245.3	14
245.6	10
245.7	14
245.8	17
245.9	17
246.0	13
246.2	8
246.3	13
246.4	19
246.5	20
246.6	16
246.7	11
246.9	9
247.0	13
247.1	15
247.2	14
247.4	11
247.5	13
247.6	16
247.7	19
247.8	19
247.9	15
248.1	10
248.2	13
248.3	17
248.4	17
248.5	11
248.7	4
248.8	11
248.9	19
249.0	23
249.1	20
249.2	14
249.4	9
249.5	14
249.6	17
249.7	15
249.8	10
250.0	5
250.1	11
250.2	16
250.3	18
250.4	14
250.7	8
250.8	13
250.9	18
251.0	18
251.1	14
251.3	9
251.4	13
251.5	19
251.6	20
251.7	15
252.5	4
252.6	7
252.7	12
252.8	16
252.9	16
253.0	11
253.2	7
253.3	11
253.4	16
253.5	17
253.6	14
253.7	9
253.9	8
254.0	12
254.1	14
254.2	13
254.3	9
254.5	7
254.6	12
254.7	16
254.8	17
254.9	13
255.1	6
255.2	10
255.3	16
255.4	19
255.5	17
255.6	12
255.8	9
255.9	13
256.0	18
256.1	18
256.4	11
256.5	19
256.6	28
256.7	30
256.8	23
256.9	12
257.0	2
257.6	3
257.7	7
257.8	13
257.9	17
258.0	16
258.1	12
258.3	9
258.4	13
258.5	17
258.6	18
258.7	15
258.8	9
259.0	6
259.1	12
259.2	18
259.3	19
259.4	14
259.6	10
259.7	14
259.8	19
259.9	19
260.0	15
260.1	9
260.3	8
260.4	13
260.5	16
260.6	16
260.7	12
260.9	9
261.0	13
261.1	16
261.2	17
261.3	13
261.5	7
261.6	11
261.7	16
261.8	18
261.9	15
262.2	10
262.3	15
262.4	19
262.5	19
262.6	15
262.8	8
262.9	11
263.0	17
263.1	20
263.2	18
263.3	13
263.5	11
263.6	16
263.7	18
263.8	17
263.9	12
264.1	7
264.2	9
264.3	14
264.4	18
264.5	19
264.6	15
264.8	9
264.9	12
265.0	16
265.1	16
265.4	11
265.5	15
265.6	17
265.7	16
265.8	10
266.0	5
266.1	10
266.2	18
266.3	23
266.4	21
266.5	14
266.8	8
266.9	14
267.0	18
267.1	18
267.2	15
268.0	7
268.1	13
268.2	17
268.3	16
268.6	11
268.7	17
268.8	20
268.9	18
269.0	12
269.3	5
269.4	12
269.5	17
269.6	16
269.9	10
270.0	15
270.1	20
270.2	19
270.3	13
270.5	6
270.6	11
270.7	18
270.8	20
270.9	16
271.7	11
271.8	14
271.9	20
272.0	22
272.1	18
272.2	11
272.4	6
272.5	12
272.6	17
272.7	18
272.8	14
273.1	9
273.2	14
273.3	17
273.4	15
273.7	11
273.8	16
273.9	19
274.0	18
274.1	13
274.3	9
274.4	12
274.5	14
274.6	15
274.7	13
275.0	10
275.1	13
275.2	16
275.3	16
275.4	12
275.6	8
275.7	11
275.8	17
275.9	21
276.0	19
276.1	13
276.3	8
276.4	13
276.5	17
276.6	17
276.7	13
276.9	10
277.0	14
277.1	19
277.2	20
277.3	16
277.4	10
277.6	6
277.7	11
277.8	15
277.9	16
278.1	10
278.2	13
278.3	19
278.4	23
278.5	22
278.6	15
278.8	7
278.9	12
279.0	18
279.1	18
279.2	13
279.4	7
279.5	12
279.6	20
279.7	23
279.8	19
279.9	12
280.1	7
280.2	11
280.3	15
280.4	16
280.5	13
280.7	11
280.8	13
280.9	16
281.0	16
281.1	15
281.2	12
281.4	9
281.5	12
281.6	16
281.7	19
281.8	17
282.1	11
282.2	16
282.3	19
282.4	17
282.5	10
282.7	8
282.8	12
282.9	14
283.0	11
283.2	4
283.3	7
283.4	14
283.5	21
283.6	21
283.7	17
284.6	8
284.7	13
284.8	17
284.9	17
285.0	14
285.2	10
285.3	13
285.4	16
285.5	15
285.6	10
285.8	4
285.9	9
286.0	16
286.1	20
286.2	18
286.3	12
286.5	8
286.6	13
286.7	18
286.8	19
286.9	16
287.1	10
287.2	13
287.3	18
287.4	20
287.5	17
287.6	12
287.8	9
287.9	13
288.0	18
288.1	18
288.2	13
288.4	6
288.5	11
288.6	18
288.7	21
288.8	16
289.1	9
289.2	16
289.3	21
289.4	19
289.5	14
289.7	12
289.8	14
289.9	17
290.0	18
290.1	15
290.2	11
290.4	9
290.5	12
290.6	14
290.7	13
291.0	9
291.1	13
291.2	16
291.3	17
291.4	13
291.6	8
291.7	10
291.8	15
291.9	17
292.0	15
292.3	13
292.4	16
292.5	19
292.6	18
292.7	14
293.5	6
293.6	9
293.7	15
293.8	19
293.9	18
294.0	14
294.2	11
294.3	15
294.4	18
294.5	18
294.6	13
294.8	8
294.9	12
295.0	17
295.1	20
295.2	19
295.3	16
296.1	12
296.2	15
296.3	17
296.4	16
296.5	13
296.8	8
296.9	13
297.0	17
297.1	16
297.3	12
297.4	15
297.5	19
297.6	20
297.7	16
297.8	11
298.0	10
298.1	14
298.2	17
298.3	16
298.4	12
298.6	8
298.7	13
298.8	18
298.9	19
299.0	15
299.1	9
299.3	7
299.4	12
299.5	16
299.6	16
299.7	12
299.9	6
300.0	9
300.1	13
300.2	16
300.3	14
300.6	8
300.7	14
300.8	18
300.9	18
301.0	14
301.2	7
301.3	10
301.4	15
301.5	18
301.6	16
301.7	12
301.9	11
302.0	14
302.1	16
302.2	14
302.4	8
302.5	11
302.6	18
302.7	23
302.8	20
302.9	14
303.1	9
303.2	14
303.3	19
303.4	20
303.5	17
303.6	10
303.8	7
303.9	12
304.0	15
304.1	15
304.2	12
304.4	9
304.5	12
304.6	15
304.7	15
304.8	13
304.9	9
305.1	7
305.2	11
305.3	17
305.4	19
305.5	17
305.6	11
306.3	5
306.4	9
306.5	17
306.6	22
306.7	20
306.8	11
307.0	6
307.1	12
307.2	18
307.3	18
307.4	13
307.6	7
307.7	11
307.8	17
307.9	20
308.0	17
308.1	11
308.3	8
308.4	13
308.5	19
308.6	21
308.7	18
308.8	13
309.0	10
309.1	13
309.2	15
309.3	14
309.4	13
309.5	13
309.6	15
309.7	17
309.8	16
309.9	13
310.1	9
310.2	12
310.3	15
310.4	18
310.5	18
310.6	13
310.8	6
310.9	10
311.0	16
311.1	19
311.2	17
311.4	10
311.5	13
311.6	18
311.7	22
311.8	19
311.9	13
312.1	8
312.2	11
312.3	14
312.4	15
312.5	13
312.7	8
312.8	11
312.9	16
313.0	20
313.1	19
313.2	14
313.9	8
314.0	10
314.1	15
314.2	20
314.3	21
314.4	17
314.5	11
314.7	6
314.8	11
314.9	17
315.0	19
315.1	14
315.3	7
315.4	11
315.5	16
315.6	17
315.7	14
316.6	9
316.7	14
316.8	20
316.9	21
317.0	19
317.1	14
317.8	10
317.9	12
318.0	17
318.1	20
318.2	18
318.3	12
318.5	8
318.6	12
318.7	17
318.8	17
318.9	13
319.1	5
319.2	11
319.3	19
319.4	22
319.5	18
319.6	11
319.8	7
319.9	12
320.0	16
320.1	16
320.2	13
320.4	10
320.5	14
320.6	17
320.7	17
320.8	13
321.0	10
321.1	13
321.2	18
321.3	20
321.4	17
321.5	11
321.7	6
321.8	11
321.9	17
322.0	19
322.1	16
322.2	11
322.4	8
322.5	12
322.6	14
322.7	13
322.8	10
323.0	8
323.1	10
323.2	13
323.3	15
323.4	14
323.5	10
323.7	6
323.8	10
323.9	14
324.0	14
324.2	12
324.3	13
324.4	17
324.5	20
324.6	19
324.7	14
324.9	6
325.0	10
325.1	15
325.2	18
325.3	16
325.5	8
325.6	12
325.7	18
325.8	22
325.9	19
326.0	13
326.2	9
326.3	14
326.4	19
326.5	18
326.6	12
326.8	7
326.9	13
327.0	20
327.1	21
327.2	15
327.5	6
327.6	14
327.7	21
327.8	22
327.9	18
328.0	11
328.2	10
328.3	14
328.4	15
328.7	11
328.8	16
328.9	20
329.0	20
329.1	15
329.2	9
329.4	8
329.5	13
329.6	17
329.7	18
329.8	15
330.1	10
330.2	15
330.3	20
330.4	20
330.5	15
330.7	8
330.8	12
330.9	17
331.0	18
331.1	14
331.3	6
331.4	9
331.5	15
331.6	17
331.7	14
332.0	9
332.1	15
332.2	19
332.3	17
332.4	13
332.6	8
332.7	12
332.8	16
332.9	18
333.0	16
333.8	10
333.9	13
334.0	18
334.1	22
334.2	20
334.3	14
334.5	7
334.6	10
334.7	17
334.8	21
334.9	18
335.2	11
335.3	18
335.4	21
335.5	19
335.6	12
335.8	8
335.9	13
336.0	16
336.1	15
336.2	11
336.4	10
336.5	13
336.6	15
336.7	15
336.8	11
337.0	8
337.1	11
337.2	17
337.3	20
337.4	18
337.5	12
337.7	5
337.8	8
337.9	13
338.0	16
338.1	15
339.0	8
339.1	13
339.2	18
339.3	18
339.4	12
339.6	7
339.7	12
339.8	19
339.9	22
340.0	18
340.1	12
340.3	7
340.4	11
340.5	16
340.6	17
340.7	14
340.9	9
341.0	14
341.1	20
341.2	21
341.3	16
342.2	7
342.3	12
342.4	15
342.5	14
342.6	10
342.8	7
342.9	13
343.0	20
343.1	22
343.2	18
343.3	9
343.5	4
343.6	11
343.7	19
343.8	19
343.9	14
344.1	7
344.2	11
344.3	17
344.4	19
344.5	16
344.6	10
344.8	8
344.9	13
345.0	18
345.1	16
345.2	10
345.4	7
345.5	14
345.6	20
345.7	21
345.8	15
345.9	7
346.1	5
346.2	12
346.3	16
346.4	14
346.7	8
346.8	14
346.9	18
347.0	17
347.1	13
347.3	8
347.4	12
347.5	18
347.6	19
347.7	14
348.6	7
348.7	13
348.8	19
348.9	21
349.0	17
349.9	9
350.0	16
350.1	20
350.2	18
350.3	13
350.5	8
350.6	11
350.7	16
350.8	19
350.9	15
351.0	8
351.2	6
351.3	12
351.4	17
351.5	17
351.6	11
351.8	6
351.9	12
352.0	20
352.1	22
352.2	17
352.3	9
352.5	6
352.6	11
352.7	15
352.8	15
352.9	11
353.1	9
353.2	13
353.3	17
353.4	18
353.5	13
353.7	8
353.8	11
353.9	14
354.0	16
354.1	15
354.2	11
354.4	9
354.5	12
354.6	15
354.7	14
354.9	8
355.0	10
355.1	16
355.2	21
355.3	22
355.4	17
355.7	10
355.8	16
355.9	20
356.0	18
356.1	12
356.3	11
356.4	15
356.5	16
356.6	13
356.9	8
357.0	14
357.1	20
357.2	21
357.3	17
357.4	11
357.6	9
357.7	14
357.8	17
357.9	17
358.0	13
358.2	8
358.3	11
358.4	15
358.5	16
358.8	12
358.9	16
359.0	19
359.1	16
359.2	9
359.4	0
359.5	4
359.6	12
359.7	19
359.8	20
359.9	15
360.1	7
360.2	11
360.3	16
360.4	19
360.5	16
360.6	11
360.8	8
360.9	10
361.0	12
361.1	12
361.3	9
361.4	12
361.5	16
361.6	19
361.7	16
361.8	9
362.0	2
362.1	8
362.2	17
362.3	21
362.4	20
362.5	15
362.7	9
362.8	12
362.9	17
363.0	19
363.1	16
363.3	9
363.4	13
363.5	18
363.6	20
363.7	17
363.8	12
364.0	10
364.1	13
364.2	15
364.3	15
364.4	13
365.1	7
365.2	9
365.3	14
365.4	20
365.5	22
365.6	17
365.9	9
366.0	16
366.1	21
366.2	20
366.3	14
367.1	10
367.2	13
367.3	16
367.4	16
367.5	12
367.7	7
367.8	11
367.9	16
368.0	19
368.1	17
368.2	12
368.4	5
368.5	9
368.6	14
368.7	18
368.8	16
369.1	10
369.2	16
369.3	19
369.4	16
369.5	11
369.7	9
369.8	14
369.9	19
370.0	20
370.1	15
370.4	10
370.5	15
370.6	18
370.7	17
370.8	12
371.0	7
371.1	12
371.2	19
371.3	23
371.4	21
371.5	15
372.3	7
372.4	13
372.5	19
372.6	20
372.7	17
373.5	5
373.6	8
373.7	14
373.8	17
373.9	16
374.0	10
374.2	6
374.3	14
374.4	22
374.5	23
374.6	18
374.7	9
374.9	6
375.0	11
375.1	13
375.2	13
375.4	8
375.5	11
375.6	15
375.7	17
375.8	14
376.1	7
376.2	14
376.3	19
376.4	17
376.5	12
376.7	8
376.8	12
376.9	16
377.0	16
377.1	12
377.3	4
377.4	7
377.5	13
377.6	17
377.7	17
377.8	13
378.0	7
378.1	10
378.2	14
378.3	17
378.4	15
378.5	10
378.7	8
378.8	13
378.9	18
379.0	19
379.1	15
379.3	9
379.4	12
379.5	18
379.6	20
379.7	18
379.8	13
380.0	10
380.1	15
380.2	19
380.3	19
380.4	13
380.6	5
380.7	9
380.8	16
380.9	19
381.0	16
381.1	10
381.3	8
381.4	13
381.5	16
381.6	16
381.7	13
381.9	10
382.0	14
382.1	18
382.2	19
382.3	15
382.6	9
382.7	15
382.8	18
382.9	16
383.0	10
383.2	8
383.3	13
383.4	17
383.5	17
383.6	13
383.8	7
383.9	11
384.0	17
384.1	19
384.2	16
385.1	8
385.2	14
385.3	19
385.4	18
385.5	13
385.7	7
385.8	12
385.9	18
386.0	19
386.1	16
386.4	11
386.5	16
386.6	19
386.7	18
386.8	13
387.0	11
387.1	15
387.2	19
387.3	20
387.4	17
387.6	14
387.7	18
387.8	22
387.9	22
388.0	17
388.1	10
388.3	8
388.4	14
388.5	18
388.6	17
388.7	12
388.9	6
389.0	10
389.1	14
389.2	15
389.3	13
389.5	8
389.6	12
389.7	18
389.8	20
389.9	17
390.0	10
390.2	7
390.3	13
390.4	18
390.5	18
390.6	14
390.8	9
390.9	12
391.0	17
391.1	19
391.2	18
391.3	13
392.1	7
392.2	11
392.3	15
392.4	15
392.5	11
392.7	7
392.8	12
392.9	18
393.0	20
393.1	15
393.2	8
393.4	6
393.5	12
393.6	17
393.7	18
393.8	14
394.0	9
394.1	12
394.2	17
394.3	19
394.4	14
394.7	9
394.8	14
394.9	18
395.0	17
395.1	14
395.3	10
395.4	13
395.5	16
395.6	16
395.7	13
395.8	9
396.0	7
396.1	10
396.2	13
396.3	16
396.4	16
396.5	12
396.7	7
396.8	12
396.9	16
397.0	16
397.2	10
397.3	13
397.4	19
397.5	21
397.6	17
397.7	9
397.9	7
398.0	14
398.1	18
398.2	17
398.5	12
398.6	17
398.7	20
398.8	18
398.9	13
399.7	6
399.8	9
399.9	14
400.0	18
400.1	16
400.2	10
400.4	3
400.5	8
400.6	15
400.7	20
400.8	19
400.9	14
401.1	7
401.2	10
401.3	14
401.4	15
401.6	10
401.7	13
401.8	18
401.9	20
402.0	19
402.1	14
402.9	9
403.0	12
403.1	16
403.2	20
403.3	20
403.4	16
403.6	11
403.7	15
403.8	19
403.9	19
404.0	15
404.1	9
404.3	6
404.4	10
404.5	16
404.6	17
404.7	14
404.9	9
405.0	12
405.1	16
405.2	17
405.3	14
405.4	10
405.6	9
405.7	11
405.8	12
406.1	9
406.2	13
406.3	18
406.4	20
406.5	18
406.6	12
406.8	8
406.9	14
407.0	20
407.1	21
407.2	16
407.3	11
407.5	9
407.6	13
407.7	17
407.8	17
407.9	11
408.1	2
408.2	8
408.3	16
408.4	18
408.5	13
408.8	7
408.9	12
409.0	16
409.1	16
409.4	10
409.5	16
409.6	19
409.7	18
409.8	13
410.0	9
410.1	14
410.2	19
410.3	20
410.4	16
410.5	10
410.7	7
410.8	12
410.9	18
411.0	20
411.1	16
411.3	10
411.4	14
411.5	17
411.6	16
411.7	13
411.9	9
412.0	12
412.1	16
412.2	20
412.3	19
412.4	14
412.6	8
412.7	12
412.8	18
412.9	19
413.0	16
413.1	10
413.8	7
413.9	10
414.0	15
414.1	16
414.2	13
414.4	6
414.5	9
414.6	15
414.7	20
414.8	20
414.9	14
415.0	7
415.2	7
415.3	13
415.4	17
415.5	17
415.6	12
415.8	9
415.9	14
416.0	19
416.1	18
416.2	12
416.4	5
416.5	8
416.6	14
416.7	17
416.8	15
417.0	12
417.1	15
417.2	18
417.3	19
417.4	18
417.5	16
417.7	13
417.8	15
417.9	17
418.0	17
418.1	14
418.4	10
418.5	14
418.6	17
418.7	17
418.8	15
419.0	12
419.1	15
419.2	18
419.3	17
419.4	11
419.6	4
419.7	10
419.8	19
419.9	23
420.0	21
420.1	15
420.3	9
420.4	13
420.5	16
420.6	15
420.7	11
420.9	8
421.0	12
421.1	16
421.2	17
421.3	13
421.5	7
421.6	10
421.7	17
421.8	19
421.9	16
422.0	10
422.2	9
422.3	14
422.4	18
422.5	18
422.6	13
422.8	6
422.9	10
423.0	16
423.1	19
423.2	17
423.3	12
423.5	7
423.6	11
423.7	14
423.8	14
424.0	9
424.1	12
424.2	17
424.3	20
424.4	19
424.5	14
424.7	8
424.8	11
424.9	17
425.0	20
425.1	17
425.2	12
425.4	10
425.5	14
425.6	17
425.7	17
425.8	13
426.0	8
426.1	12
426.2	18
426.3	22
426.4	20
426.5	15
426.7	11
426.8	14
426.9	17
427.0	16
427.1	11
427.3	7
427.4	12
427.5	17
427.6	18
427.7	13
427.9	3
428.0	7
428.1	14
428.2	20
428.3	20
428.4	16
428.5	11
428.7	11
428.8	14
428.9	16
429.0	15
429.2	11
429.3	13
429.4	17
429.5	19
429.6	16
429.7	10
429.9	6
430.0	11
430.1	17
430.2	19
430.3	15
430.6	8
430.7	15
430.8	20
430.9	18
431.0	12
431.2	10
431.3	14
431.4	16
431.5	14
431.8	11
431.9	14
432.0	15
432.1	14
432.2	12
432.4	9
432.5	11
432.6	15
432.7	18
432.8	17
432.9	13
433.1	9
433.2	13
433.3	18
433.4	18
433.5	15
433.7	12
433.8	14
433.9	17
434.0	18
434.1	16
434.3	12
434.4	14
434.5	17
434.6	18
434.7	16
434.8	11
435.0	7
435.1	11
435.2	16
435.3	16
435.4	11
435.6	5
435.7	8
435.8	13
435.9	16
436.0	15
436.1	11
436.3	9
436.4	14
436.5	18
436.6	17
436.9	11
437.0	18
437.1	23
437.2	21
437.3	14
437.5	5
437.6	10
437.7	16
437.8	19
437.9	17
438.0	11
438.2	6
438.3	10
438.4	16
438.5	18
438.6	15
438.8	8
438.9	11
439.0	16
439.1	18
439.2	14
439.5	9
439.6	15
439.7	18
439.8	17
439.9	11
440.1	8
440.2	15
440.3	20
440.4	21
440.5	16
440.6	9
440.8	8
440.9	14
441.0	17
441.1	15
441.2	9
441.4	6
441.5	11
441.6	18
441.7	21
441.8	18
441.9	13
442.7	10
442.8	15
442.9	17
443.0	16
443.1	14
443.8	12
443.9	13
444.0	17
444.1	20
444.2	19
444.3	16
444.4	11
444.6	9
444.7	13
444.8	15
444.9	13
445.2	8
445.3	13
445.4	18
445.5	19
445.6	15
445.7	10
445.9	8
446.0	12
446.1	14
446.2	13
446.3	8
446.5	7
446.6	12
446.7	16
446.8	16
446.9	11
447.1	6
447.2	10
447.3	16
447.4	19
447.5	17
447.6	11
447.8	8
447.9	14
448.0	21
448.1	23
448.2	19
448.5	13
448.6	19
448.7	22
448.8	20
448.9	14
449.1	10
449.2	13
449.3	17
449.4	17
449.5	15
449.7	10
449.8	12
449.9	16
450.0	17
450.1	14
450.3	9
450.4	14
450.5	18
450.6	18
450.7	15
451.0	10
451.1	15
451.2	19
451.3	17
451.4	10
451.6	2
451.7	8
451.8	15
451.9	17
452.0	14
452.2	6
452.3	10
452.4	17
452.5	21
452.6	17
452.7	9
452.9	5
453.0	12
453.1	19
453.2	21
453.3	17
454.2	5
454.3	12
454.4	18
454.5	18
454.6	13
454.7	6
454.9	5
455.0	11
455.1	15
455.2	16
455.3	14
455.5	12
455.6	14
455.7	16
455.8	16
455.9	13
456.1	9
456.2	14
456.3	19
456.4	19
456.5	13
456.7	7
456.8	12
456.9	18
457.0	22
457.1	19
457.2	12
457.4	7
457.5	12
457.6	16
457.7	17
457.9	12
458.0	14
458.1	19
458.2	22
458.3	18
458.4	12
458.6	10
458.7	15
458.8	19
458.9	19
459.0	15
459.1	9
459.3	8
459.4	13
459.5	15
459.6	15
459.9	12
460.0	14
460.1	15
460.2	14
460.3	11
460.6	7
460.7	12
460.8	17
460.9	19
461.0	17
461.1	14
461.8	7
461.9	9
462.0	15
462.1	20
462.2	19
462.3	14
463.1	9
463.2	12
463.3	18
463.4	20
463.5	17
463.6	12
463.8	10
463.9	14
464.0	18
464.1	20
464.2	18
464.3	13
464.5	10
464.6	14
464.7	17
464.8	17
464.9	13
465.1	10
465.2	14
465.3	18
465.4	18
465.5	14
465.7	9
465.8	14
465.9	21
466.0	24
466.1	20
466.2	12
466.4	10
466.5	16
466.6	20
466.7	17
466.8	10
467.0	1
467.1	7
467.2	14
467.3	17
467.4	15
467.6	10
467.7	15
467.8	19
467.9	20
468.0	16
468.9	8
469.0	10
469.1	15
469.2	18
469.3	17
469.4	12
469.6	11
469.7	15
469.8	18
469.9	17
470.0	12
470.2	9
470.3	15
470.4	19
470.5	19
470.6	14
470.8	9
470.9	12
471.0	15
471.1	16
471.2	14
471.5	12
471.6	16
471.7	18
471.8	17
471.9	13
472.1	9
472.2	11
472.3	16
472.4	18
472.5	16
472.7	11
472.8	14
472.9	19
473.0	21
473.1	17
473.2	11
473.4	9
473.5	14
473.6	17
473.7	15
473.8	10
474.0	6
474.1	9
474.2	13
474.3	15
474.4	14
474.7	9
474.8	14
474.9	18
475.0	18
475.1	13
475.3	9
475.4	14
475.5	21
475.6	23
475.7	18
475.8	10
476.0	7
476.1	12
476.2	16
476.3	16
476.4	12
476.6	10
476.7	15
476.8	19
476.9	18
477.0	12
477.2	9
477.3	12
477.4	14
477.5	14
477.6	11
477.8	8
477.9	13
478.0	20
478.1	23
478.2	19
478.3	12
478.5	6
478.6	10
478.7	14
478.8	15
479.1	11
479.2	15
479.3	20
479.4	21
479.5	17
479.6	11
479.8	9
479.9	13
480.0	17
480.1	17
480.2	14
480.4	9
480.5	14
480.6	21
480.7	24
480.8	19
480.9	11
481.1	9
481.2	14
481.3	18
481.4	18
481.5	14
482.3	7
482.4	11
482.5	16
482.6	19
482.7	17
483.6	8
483.7	11
483.8	15
483.9	17
484.0	15
484.1	11
484.8	11
484.9	12
485.0	15
485.1	18
485.2	18
485.3	13
485.6	5
485.7	12
485.8	19
485.9	22
486.0	18
486.1	13
486.8	9
486.9	12
487.0	16
487.1	18
487.2	17
487.3	12
487.5	7
487.6	11
487.7	15
487.8	16
487.9	13
488.1	10
488.2	14
488.3	19
488.4	19
488.5	14
488.7	7
488.8	11
488.9	18
489.0	21
489.1	19
489.2	12
489.4	5
489.5	11
489.6	17
489.7	18
489.8	15
489.9	9
490.1	9
490.2	11
490.3	12
490.4	10
490.6	8
490.7	11
490.8	16
490.9	19
491.0	19
491.1	15
491.3	10
491.4	15
491.5	20
491.6	21
491.7	15
492.5	4
492.6	8
492.7	15
492.8	21
492.9	22
493.0	18
493.1	12
493.3	9
493.4	12
493.5	15
493.6	13
493.8	9
493.9	11
494.0	15
494.1	16
494.2	15
494.5	9
494.6	14
494.7	19
494.8	20
494.9	16
495.0	10
495.2	8
495.3	13
495.4	16
495.5	16
495.8	11
495.9	16
496.0	20
496.1	19
496.2	15
496.4	11
496.5	14
496.6	19
496.7	20
496.8	16
496.9	10
497.1	6
497.2	10
497.3	13
497.4	13
497.6	9
497.7	11
497.8	16
497.9	19
498.0	17
498.1	11
498.3	3
498.4	8
498.5	15
498.6	20
498.7	19
498.8	13
499.0	8
499.1	13
499.2	19
499.3	20
499.4	16
500.2	11
500.3	13
500.4	17
500.5	18
500.6	14
500.7	9
500.9	8
501.0	13
501.1	18
501.2	19
501.3	14
501.6	8
501.7	15
501.8	20
501.9	19
502.0	12
502.2	7
502.3	12
502.4	18
502.5	20
502.6	17
502.7	11
502.9	9
503.0	13
503.1	15
503.2	13
503.4	9
503.5	12
503.6	15
503.7	18
503.8	16
503.9	11
504.1	7
504.2	11
504.3	16
504.4	16
504.5	11
504.7	4
504.8	8
504.9	15
505.0	18
505.1	16
505.2	12
505.4	11
505.5	14
505.6	16
505.7	15
506.0	10
506.1	14
506.2	19
506.3	20
506.4	16
506.5	11
506.7	9
506.8	14
506.9	16
507.0	15
507.1	11
507.3	7
507.4	12
507.5	17
507.6	19
507.7	15
507.8	9
508.0	8
508.1	12
508.2	15
508.3	13
508.4	10
508.6	6
508.7	9
508.8	11
508.9	12
509.0	10
509.1	9
509.2	11
509.3	15
509.4	18
509.5	18
509.6	14
509.7	10
509.9	9
510.0	12
510.1	15
510.2	17
510.3	15
510.5	12
510.6	14
510.7	18
510.8	20
510.9	19
511.0	14
511.2	13
511.3	18
511.4	21
511.5	19
511.6	12
511.8	9
511.9	14
512.0	17
512.1	16
512.2	10
512.4	5
512.5	12
512.6	20
512.7	24
512.8	20
512.9	12
513.1	6
513.2	10
513.3	14
513.4	16
513.5	14
513.7	10
513.8	13
513.9	16
514.0	16
514.1	13
514.3	7
514.4	12
514.5	18
514.6	19
514.7	14
514.8	6
515.0	6
515.1	10
515.2	14
515.3	14
515.6	10
515.7	15
515.8	19
515.9	20
516.0	16
516.9	6
517.0	13
517.1	20
517.2	20
517.3	15
517.5	7
517.6	11
517.7	18
517.8	21
517.9	18
518.0	11
518.2	8
518.3	13
518.4	17
518.5	17
518.6	15
518.7	13
519.4	10
519.5	12
519.6	15
519.7	18
519.8	17
519.9	14
520.2	10
520.3	14
520.4	16
520.5	14
520.7	8
520.8	11
520.9	18
521.0	22
521.1	20
521.2	14
521.4	7
521.5	11
521.6	15
521.7	17
521.8	15
522.7	9
522.8	14
522.9	20
523.0	21
523.1	15
523.2	7
523.9	10
524.0	14
524.1	20
524.2	21
524.3	16
524.4	9
524.6	7
524.7	13
524.8	19
524.9	19
525.0	14
525.2	7
525.3	11
525.4	16
525.5	19
525.6	17
525.7	11
525.9	8
526.0	13
526.1	18
526.2	19
526.3	15
526.5	12
526.6	16
526.7	20
526.8	21
526.9	17
527.0	12
527.2	11
527.3	16
527.4	18
527.5	15
527.6	10
527.8	8
527.9	12
528.0	17
528.1	18
528.2	13
528.4	5
528.5	10
528.6	18
528.7	22
528.8	19
528.9	12
529.1	8
529.2	14
529.3	19
529.4	20
529.5	16
530.3	6
530.4	12
530.5	18
530.6	20
530.7	18
530.8	14
530.9	9
531.6	5
531.7	11
531.8	17
531.9	19
532.0	15
532.1	9
532.3	8
532.4	13
532.5	16
532.6	15
532.7	10
532.9	9
533.0	14
533.1	19
533.2	21
533.3	17
533.4	10
533.6	9
533.7	14
533.8	17
533.9	16
534.2	12
534.3	16
534.4	20
534.5	20
534.6	16
534.7	11
534.9	10
535.0	15
535.1	18
535.2	16
535.3	10
535.5	7
535.6	11
535.7	16
535.8	15
535.9	11
536.1	6
536.2	10
536.3	16
536.4	17
536.5	13
536.7	5
536.8	9
536.9	16
537.0	20
537.1	18
537.2	11
537.4	8
537.5	13
537.6	18
537.7	18
537.8	11
538.0	1
538.1	7
538.2	15
538.3	19
538.4	16
538.5	11
538.7	10
538.8	13
538.9	15
539.0	14
539.1	11
539.3	6
539.4	8
539.5	12
539.6	15
539.7	13
539.9	7
540.0	10
540.1	15
540.2	18
540.3	16
540.6	10
540.7	16
540.8	20
540.9	18
541.0	14
541.2	9
541.3	13
541.4	18
541.5	20
541.6	17
541.7	11
541.9	7
542.0	10
542.1	14
542.2	15
542.5	12
542.6	16
542.7	19
542.8	20
542.9	16
543.2	10
543.3	16
543.4	20
543.5	17
543.6	10
543.8	8
543.9	15
544.0	22
544.1	22
544.2	17
544.3	9
544.5	8
544.6	13
544.7	16
544.8	14
544.9	9
545.1	7
545.2	12
545.3	16
545.4	16
545.5	12
545.7	7
545.8	11
545.9	16
546.0	18
546.1	14
547.0	10
547.1	14
547.2	16
547.3	16
547.4	13
547.6	11
547.7	14
547.8	18
547.9	19
548.0	16
548.9	12
549.0	16
549.1	20
549.2	20
549.3	16
549.5	7
549.6	10
549.7	17
549.8	21
549.9	19
550.0	12
550.2	8
550.3	13
550.4	18
550.5	18
550.6	12
550.8	5
550.9	9
551.0	15
551.1	17
551.2	14
551.5	11
551.6	15
551.7	18
551.8	18
551.9	16
552.1	11
552.2	13
552.3	17
552.4	17
552.5	12
552.7	7
552.8	14
552.9	20
553.0	21
553.1	17
553.2	10
553.4	9
553.5	15
553.6	19
553.7	19
553.8	15
554.7	8
554.8	14
554.9	18
555.0	17
555.1	12
555.3	5
555.4	8
555.5	13
555.6	15
555.7	14
555.9	10
556.0	13
556.1	19
556.2	22
556.3	20
556.4	16
556.6	13
556.7	15
556.8	17
556.9	17
557.0	15
557.2	12
557.3	14
557.4	18
557.5	20
557.6	17
557.7	10
557.9	8
558.0	15
558.1	23
558.2	24
558.3	18
558.4	9
558.6	8
558.7	14
558.8	17
558.9	15
559.1	8
559.2	11
559.3	18
559.4	23
559.5	23
559.6	17
559.8	9
559.9	13
560.0	17
560.1	17
560.2	12
560.4	9
560.5	14
560.6	18
560.7	18
560.8	13
561.0	6
561.1	10
561.2	15
561.3	19
561.4	17
561.5	12
561.7	8
561.8	12
561.9	16
562.0	17
562.1	14
562.3	9
562.4	13
562.5	16
562.6	17
562.7	13
563.0	9
563.1	14
563.2	19
563.3	20
563.4	16
564.3	9
564.4	16
564.5	20
564.6	19
564.7	14
564.9	11
565.0	14
565.1	18
565.2	18
565.3	15
565.4	11
565.6	9
565.7	13
565.8	18
565.9	18
566.0	15
566.1	10
566.8	8
566.9	11
567.0	15
567.1	18
567.2	18
567.3	15
567.5	11
567.6	13
567.7	16
567.8	17
567.9	14
568.1	10
568.2	13
568.3	18
568.4	20
568.5	16
568.6	9
568.8	7
568.9	12
569.0	17
569.1	18
569.2	15
570.0	5
570.1	10
570.2	17
570.3	20
570.4	18
570.5	13
570.7	10
570.8	13
570.9	16
571.0	15
571.1	10
571.3	8
571.4	12
571.5	16
571.6	17
571.7	14
572.0	10
572.1	14
572.2	17
572.3	16
572.4	12
572.6	11
572.7	14
572.8	15
572.9	14
573.1	9
573.2	10
573.3	17
573.4	22
573.5	22
573.6	16
573.8	7
573.9	12
574.0	19
574.1	20
574.2	14
574.3	8
574.5	7
574.6	11
574.7	15
574.8	16
574.9	14
575.1	10
575.2	13
575.3	17
575.4	18
575.5	15
575.7	8
575.8	11
575.9	17
576.0	21
576.1	19
576.2	13
576.3	8
576.5	7
576.6	11
576.7	15
576.8	15
577.1	10
577.2	14
577.3	17
577.4	16
577.5	11
577.7	8
577.8	11
577.9	15
578.0	16
578.1	14
578.3	10
578.4	12
578.5	15
578.6	17
578.7	14
579.0	8
579.1	15
579.2	21
579.3	22
579.4	18
579.5	11
580.2	7
580.3	11
580.4	17
580.5	21
580.6	20
580.7	16
581.6	10
581.7	15
581.8	17
581.9	15
582.0	11
582.2	9
582.3	14
582.4	17
582.5	17
582.6	12
582.8	8
582.9	13
583.0	17
583.1	18
583.2	14
583.3	9
583.5	7
583.6	13
583.7	19
583.8	20
583.9	16
584.1	8
584.2	12
584.3	17
584.4	18
584.5	15
584.6	11
584.8	10
584.9	14
585.0	17
585.1	17
585.2	13
585.4	8
585.5	12
585.6	16
585.7	17
585.8	12
585.9	5
586.1	5
586.2	10
586.3	14
586.4	14
586.7	12
586.8	15
586.9	18
587.0	18
587.1	15
587.3	10
587.4	13
587.5	17
587.6	19
587.7	17
587.8	13
588.0	9
588.1	12
588.2	15
588.3	17
588.4	15
588.6	13
588.7	16
588.8	18
588.9	16
589.0	11
589.2	8
589.3	12
589.4	17
589.5	19
589.6	16
589.8	10
589.9	13
590.0	18
590.1	21
590.2	17
590.3	11
590.5	9
590.6	16
590.7	21
590.8	20
590.9	13
591.7	7
591.8	11
591.9	16
592.0	20
592.1	18
592.2	13
592.4	8
592.5	13
592.6	19
592.7	20
592.8	15
593.1	9
593.2	14
593.3	17
593.4	16
593.5	10
593.7	6
593.8	11
593.9	16
594.0	17
594.1	14
594.3	10
594.4	13
594.5	17
594.6	18
594.7	15
595.0	9
595.1	15
595.2	20
595.3	21
595.4	16
595.5	10
595.7	10
595.8	15
595.9	16
596.0	14
596.2	8
596.3	11
596.4	16
596.5	19
596.6	16
596.7	9
596.9	5
597.0	12
597.1	20
597.2	20
597.3	13
597.5	2
597.6	7
597.7	15
597.8	20
597.9	18
598.0	12
598.2	10
598.3	15
598.4	19
598.5	20
598.6	15
598.9	9
599.0	15
599.1	19
599.2	17
599.3	11
