Mass spectrum: Obtusinin; LC-ESI-QQQ; MS2; Frag=135.0V CID@10.0; [M+H]+
Name: Obtusinin
Class: Terpenoids
Formula: C15H18O6
Exact mass: 294.3071
SMILES: COc1cc2ccc(=O)oc2cc1OCC(O)C(C)(C)O
InChI: InChI=1S/C15H18O6/c1-15(2,18)13(16)8-20-12-7-10-9(6-11(12)19-3)4-5-14(17)21-10/h4-7,13,16,18H,8H2,1-3H3
Instrument: Agilent 6410 Triple Quadrupole LC/MS system
Instrument type: LC-ESI-QQQ
Ms type: MS2
Ion mode: POSITIVE
Precursor type: [M+H]+
m/z	relative intensity
192.2	0
192.3	1
192.4	5
192.5	12
192.6	24
192.7	40
192.8	59
192.9	79
193.0	94
193.1	99
193.2	95
193.3	82
193.4	61
193.5	34
193.6	11
193.7	0
294.3	0
294.4	2
294.5	5
294.6	11
294.7	19
294.8	31
294.9	46
295.0	59
295.1	68
295.2	69
295.3	63
295.4	50
295.5	31
295.6	11
295.7	0
