Mass spectrum: 2'-N-denrthyl-N-3'-methylaplysinopsin; LC-ESI-QQQ; MS2; Frag=135.0V CID@5.0 ; [M+H]+
Name: 2'-N-denrthyl-N-3'-methylaplysinopsin
Class: Aminoacids and peptides
Formula: C12H9N3O2
Exact mass: 227.22443
SMILES: OC1=N/C(=C\c2c[nH]c3ccccc23)C(O)=N1
InChI: InChI=1S/C12H9N3O2/c16-11-10(14-12(17)15-11)5-7-6-13-9-4-2-1-3-8(7)9/h1-6,13H,(H2,14,15,16,17)/b10-5-
Instrument: Agilent 6410 Triple Quadrupole LC/MS system
Instrument type: LC-ESI-QQQ
Ms type: MS2
Ion mode: POSITIVE
Precursor type: [M+H]+
m/z	relative intensity
156.4	0
156.5	2
156.6	4
156.7	7
156.8	11
156.9	15
157.0	18
157.1	19
157.2	18
157.3	15
157.4	11
157.5	5
157.6	1
184.5	1
184.6	2
184.7	5
184.8	8
184.9	11
185.0	14
185.1	15
185.2	14
185.3	12
185.4	9
185.5	5
185.6	2
227.3	1
227.4	3
227.5	8
227.6	17
227.7	31
227.8	51
227.9	74
228.0	91
228.1	99
228.2	95
228.3	79
228.4	53
228.5	25
228.6	5
228.7	0
