Mass spectrum: Acarbose; LC-ESI-QQQ; MS2; Frag=135.0V CID@15.0; [M+H]+
Name: Acarbose
Class: Carbohydrates
Formula: C25H43NO18
Exact mass: 645.6174
SMILES: C[C@H]1OC(OC2[C@@H](CO)OC(OC3[C@@H](CO)OC(O)[C@H](O)[C@H]3O)[C@H](O)[C@H]2O)[C@H](O)[C@@H](O)C1N[C@H]1C=C(CO)[C@@H](O)[C@H](O)[C@H]1O
InChI: InChI=1S/C25H43NO18/c1-6-11(26-8-2-7(3-27)12(30)15(33)13(8)31)14(32)19(37)24(40-6)43-22-10(5-29)42-25(20(38)17(22)35)44-21-9(4-28)41-23(39)18(36)16(21)34/h2,6,8-39H,3-5H2,1H3/t6-,8+,9-,10-,11?,12-,13+,14+,15+,16-,17-,18-,19-,20-,21?,22?,23?,24?,25?/m1/s1
Instrument: Agilent 6410 Triple Quadrupole LC/MS system
Instrument type: LC-ESI-QQQ
Ms type: MS2
Ion mode: POSITIVE
Precursor type: [M+H]+
m/z	relative intensity
145.5	1
145.6	2
145.7	4
145.8	7
145.9	10
146.0	12
146.1	12
146.2	11
146.3	9
146.4	6
146.5	3
303.2	0
303.3	2
303.4	4
303.5	8
303.6	14
303.7	25
303.8	43
303.9	66
304.0	87
304.1	99
304.2	99
304.3	85
304.4	61
304.5	33
304.6	10
304.7	0
645.3	1
645.4	3
645.5	5
645.6	9
645.7	17
645.8	29
645.9	43
646.0	54
646.1	63
646.2	68
646.3	70
646.4	64
646.5	50
646.6	29
646.7	10
646.8	0
