Mass spectrum: alloyohimbine; LC-ESI-QQQ; MS2; Frag=135.0V CID@25.0; [M+H]+
Name: alloyohimbine
Class: Alkaloids
Formula: C21H26N2O3
Exact mass: 354.453
SMILES: COC(=O)[C@H]1[C@@H](O)CC[C@@H]2CN3CCc4c([nH]c5ccccc45)[C@@H]3C[C@@H]21
InChI: InChI=1S/C21H26N2O3/c1-26-21(25)19-15-10-17-20-14(13-4-2-3-5-16(13)22-20)8-9-23(17)11-12(15)6-7-18(19)24/h2-5,12,15,17-19,22,24H,6-11H2,1H3/t12-,15+,17+,18+,19-/m1/s1
Instrument: Agilent 6410 Triple Quadrupole LC/MS system
Instrument type: LC-ESI-QQQ
Ms type: MS2
Ion mode: POSITIVE
Precursor type: [M+H]+
m/z	relative intensity
143.2	0
143.3	1
143.4	4
143.5	10
143.6	20
143.7	34
143.8	53
143.9	74
144.0	92
144.1	99
144.2	97
144.3	87
144.4	68
144.5	42
144.6	17
144.7	1
211.4	0
211.5	1
211.6	4
211.7	8
211.8	13
211.9	21
212.0	28
212.1	33
212.2	35
212.3	33
212.4	26
212.5	16
212.6	6
212.7	0
223.8	2
223.9	3
224.0	4
224.1	5
224.2	5
224.3	4
224.4	3
224.5	2
354.6	1
354.7	2
354.8	4
354.9	7
355.0	9
355.1	12
355.2	13
355.3	14
355.4	13
355.5	10
355.6	6
355.7	2
