Mass spectrum: Suksdorfin; LC-ESI-QQQ; MS2; Frag=135.0V CID@25.0; [M+Na]+
Name: Suksdorfin
Class: Benzopyranoids
Formula: C21H24O7
Exact mass: 388.4212
SMILES: CC(=O)OC1C(OC(=O)CC(C)C)c2c(ccc3ccc(=O)oc23)OC1(C)C
InChI: InChI=1S/C21H24O7/c1-11(2)10-16(24)27-19-17-14(28-21(4,5)20(19)25-12(3)22)8-6-13-7-9-15(23)26-18(13)17/h6-9,11,19-20H,10H2,1-5H3
Instrument: Agilent 6410 Triple Quadrupole LC/MS system
Instrument type: LC-ESI-QQQ
Ms type: MS2
Ion mode: POSITIVE
Precursor type: [M+Na]+
m/z	relative intensity
226.4	3
226.5	5
226.6	9
226.7	16
226.8	27
226.9	38
227.0	41
227.1	36
227.2	26
227.3	15
227.4	6
227.5	2
244.1	2
244.2	4
244.3	7
244.4	8
244.5	10
244.6	15
244.7	32
244.8	59
244.9	86
245.0	99
245.1	94
245.2	72
245.3	42
245.4	16
245.5	2
308.4	2
308.5	4
308.6	7
308.7	12
308.8	16
308.9	19
309.0	17
309.1	12
309.2	7
309.3	4
