Mass spectrum: Diversolide A.; LC-ESI-QQQ; MS2; Frag=135.0V CID@25.0; [M+H]+
Name: Diversolide A.
Class: Terpenoids
Formula: C25H30O7
Exact mass: 442.5136
SMILES: C/C=C(\C)C(=O)O[C@H]1CC(C)=C2C(=O)C=C(C)[C@@H]2[C@H]2OC(=O)[C@](C)(OC(=O)/C(C)=C/C)[C@H]12
InChI: InChI=1S/C25H30O7/c1-8-12(3)22(27)30-17-11-15(6)18-16(26)10-14(5)19(18)21-20(17)25(7,24(29)31-21)32-23(28)13(4)9-2/h8-10,17,19-21H,11H2,1-7H3/b12-8+,13-9+/t17-,19-,20+,21+,25+/m0/s1
Instrument: Agilent 6410 Triple Quadrupole LC/MS system
Instrument type: LC-ESI-QQQ
Ms type: MS2
Ion mode: POSITIVE
Precursor type: [M+H]+
m/z	relative intensity
54.5	2
54.6	4
54.7	8
54.8	15
54.9	22
55.0	26
55.1	26
55.2	22
55.3	17
55.4	10
55.5	4
55.6	0
82.2	1
82.3	3
82.4	7
82.5	15
82.6	28
82.7	46
82.8	68
82.9	86
83.0	97
83.1	97
83.2	87
83.3	66
83.4	37
83.5	12
83.6	0
168.6	2
168.7	3
168.8	5
168.9	6
169.0	7
169.1	8
169.2	8
169.3	7
169.4	4
169.5	1
172.6	1
172.7	3
172.8	4
172.9	6
173.0	7
173.1	8
173.2	8
173.3	6
173.4	3
186.4	2
186.5	3
186.6	4
186.7	6
186.8	9
186.9	12
187.0	15
187.1	16
187.2	15
187.3	13
187.4	8
187.5	3
196.3	1
196.4	3
196.5	5
196.6	7
196.7	10
196.8	15
196.9	20
197.0	21
197.1	20
197.2	19
197.3	20
197.4	18
197.5	11
197.6	4
214.6	3
214.7	5
214.8	7
214.9	10
215.0	13
215.1	14
215.2	14
215.3	12
215.4	9
215.5	4
215.6	0
224.5	0
224.6	2
224.7	4
224.8	7
224.9	10
225.0	11
225.1	11
225.2	11
225.3	10
225.4	6
225.5	2
242.2	0
242.3	3
242.4	7
242.5	11
242.6	17
242.7	26
242.8	42
242.9	64
243.0	84
243.1	96
243.2	99
243.3	90
243.4	65
243.5	32
243.6	5
243.7	0
