Mass spectrum: 9(11)-dehydrohecogenin; LC-ESI-QQQ; MS2; Frag=135.0V CID@25.0; [M+H]+
Name: 9(11)-dehydrohecogenin
Class: Steroids
Formula: C27H40O4
Exact mass: 428.6175
SMILES: CC1CC[C@@]2(OC1)OC1CC3C4CC[C@H]5CC(O)CC[C@]5(C)C4=CC(=O)[C@]3(C)C1[C@@H]2C
InChI: InChI=1S/C27H40O4/c1-15-7-10-27(30-14-15)16(2)24-22(31-27)12-21-19-6-5-17-11-18(28)8-9-25(17,3)20(19)13-23(29)26(21,24)4/h13,15-19,21-22,24,28H,5-12,14H2,1-4H3/t15?,16-,17-,18?,19?,21?,22?,24?,25-,26+,27+/m0/s1
Instrument: Agilent 6410 Triple Quadrupole LC/MS system
Instrument type: LC-ESI-QQQ
Ms type: MS2
Ion mode: POSITIVE
Precursor type: [M+H]+
m/z	relative intensity
56.6	2
56.7	4
56.8	6
56.9	8
57.0	9
57.1	8
57.2	5
57.3	3
68.2	0
68.3	1
68.4	4
68.5	10
68.6	17
68.7	23
68.8	31
68.9	38
69.0	45
69.1	47
69.2	46
69.3	39
69.4	27
69.5	12
69.6	2
72.6	1
72.7	3
72.8	5
72.9	6
73.0	7
73.1	7
73.2	6
73.3	3
73.4	1
80.6	2
80.7	3
80.8	7
80.9	11
81.0	14
81.1	13
81.2	10
81.3	6
81.4	3
84.7	2
84.8	3
84.9	5
85.0	6
85.1	7
85.2	6
85.3	4
85.4	1
92.7	1
92.8	3
92.9	6
93.0	8
93.1	9
93.2	7
93.3	4
93.4	2
94.4	1
94.5	2
94.6	4
94.7	7
94.8	10
94.9	14
95.0	16
95.1	17
95.2	15
95.3	12
95.4	8
95.5	3
96.4	2
96.5	3
96.6	5
96.7	7
96.8	8
96.9	10
97.0	13
97.1	15
97.2	15
97.3	12
97.4	7
97.5	3
106.3	1
106.4	3
106.5	4
106.6	7
106.7	10
106.8	14
106.9	19
107.0	23
107.1	25
107.2	26
107.3	24
107.4	19
107.5	10
107.6	2
108.2	0
108.3	1
108.4	3
108.5	6
108.6	10
108.7	15
108.8	20
108.9	27
109.0	32
109.1	35
109.2	33
109.3	28
109.4	21
109.5	12
109.6	4
109.7	0
112.7	1
112.8	2
112.9	3
113.0	4
113.1	3
113.2	2
113.3	1
113.4	1
113.5	0
113.6	0
113.7	0
113.8	0
113.9	0
114.0	0
114.1	0
114.2	0
114.3	0
114.4	0
114.5	1
114.6	1
114.7	1
114.8	2
114.9	3
115.0	4
115.1	3
115.2	3
118.4	1
118.5	2
118.6	4
118.7	4
118.8	5
118.9	5
119.0	6
119.1	7
119.2	7
119.3	4
119.4	1
120.3	1
120.4	3
120.5	4
120.6	6
120.7	9
120.8	14
120.9	21
121.0	27
121.1	28
121.2	26
121.3	21
121.4	14
121.5	7
121.6	1
122.5	1
122.6	2
122.7	3
122.8	5
122.9	6
123.0	7
123.1	8
123.2	8
123.3	6
123.4	4
123.5	1
124.3	0
124.4	2
124.5	4
124.6	8
124.7	12
124.8	17
124.9	21
125.0	23
125.1	24
125.2	24
125.3	21
125.4	15
125.5	7
125.6	1
130.6	2
130.7	3
130.8	5
130.9	6
131.0	6
131.1	5
131.2	5
131.3	3
131.4	2
132.5	1
132.6	2
132.7	4
132.8	7
132.9	10
133.0	13
133.1	13
133.2	12
133.3	8
133.4	4
133.5	0
134.4	1
134.5	3
134.6	6
134.7	9
134.8	11
134.9	11
135.0	10
135.1	10
135.2	11
135.3	10
135.4	8
135.5	4
135.6	0
136.6	1
136.7	2
136.8	3
136.9	4
137.0	4
137.1	5
137.2	6
137.3	6
137.4	4
137.5	1
138.7	1
138.8	2
138.9	5
139.0	6
139.1	6
139.2	5
139.3	2
142.7	3
142.8	4
142.9	5
143.0	6
143.1	7
143.2	7
143.3	5
143.4	3
143.5	1
144.4	0
144.5	2
144.6	6
144.7	9
144.8	12
144.9	13
145.0	13
145.1	13
145.2	13
145.3	12
145.4	9
145.5	4
145.6	0
146.3	0
146.4	1
146.5	4
146.6	8
146.7	14
146.8	20
146.9	25
147.0	29
147.1	31
147.2	30
147.3	24
147.4	15
147.5	6
147.6	0
148.5	1
148.6	2
148.7	3
148.8	5
148.9	7
149.0	8
149.1	9
149.2	8
149.3	7
149.4	5
149.5	2
150.5	1
150.6	3
150.7	5
150.8	9
150.9	11
151.0	11
151.1	8
151.2	6
151.3	5
151.4	5
151.5	4
151.6	2
156.6	1
156.7	4
156.8	7
156.9	11
157.0	13
157.1	13
157.2	11
157.3	8
157.4	5
157.5	2
158.2	0
158.3	1
158.4	4
158.5	7
158.6	11
158.7	14
158.8	19
158.9	24
159.0	28
159.1	30
159.2	28
159.3	23
159.4	16
159.5	7
159.6	1
160.4	1
160.5	2
160.6	4
160.7	7
160.8	11
160.9	17
161.0	20
161.1	20
161.2	17
161.3	13
161.4	9
161.5	5
161.6	2
162.5	2
162.6	3
162.7	5
162.8	6
162.9	7
163.0	7
163.1	7
163.2	7
163.3	8
163.4	7
163.5	5
163.6	2
164.4	2
164.5	3
164.6	6
164.7	10
164.8	15
164.9	20
165.0	24
165.1	25
165.2	25
165.3	24
165.4	21
165.5	13
165.6	5
165.7	0
168.5	0
168.6	1
168.7	3
168.8	6
168.9	10
169.0	12
169.1	11
169.2	7
169.3	3
169.4	1
170.4	2
170.5	3
170.6	4
170.7	7
170.8	12
170.9	19
171.0	24
171.1	25
171.2	22
171.3	17
171.4	12
171.5	6
171.6	1
172.4	0
172.5	2
172.6	6
172.7	10
172.8	17
172.9	24
173.0	30
173.1	33
173.2	31
173.3	28
173.4	21
173.5	12
173.6	3
174.5	0
174.6	2
174.7	4
174.8	7
174.9	10
175.0	11
175.1	11
175.2	11
175.3	11
175.4	8
175.5	4
175.6	0
180.5	2
180.6	2
180.7	5
180.8	9
180.9	14
181.0	18
181.1	20
181.2	19
181.3	16
181.4	11
181.5	6
181.6	1
182.3	1
182.4	3
182.5	5
182.6	7
182.7	9
182.8	11
182.9	15
183.0	21
183.1	24
183.2	25
183.3	20
183.4	13
183.5	5
183.6	1
184.3	1
184.4	3
184.5	5
184.6	8
184.7	11
184.8	16
184.9	24
185.0	33
185.1	38
185.2	37
185.3	32
185.4	24
185.5	15
185.6	6
185.7	0
186.5	2
186.6	3
186.7	6
186.8	10
186.9	14
187.0	17
187.1	18
187.2	17
187.3	14
187.4	9
187.5	4
187.6	0
188.5	1
188.6	3
188.7	6
188.8	8
188.9	11
189.0	13
189.1	15
189.2	14
189.3	11
189.4	7
189.5	3
190.5	2
190.6	4
190.7	7
190.8	12
190.9	17
191.0	23
191.1	27
191.2	27
191.3	22
191.4	15
191.5	8
191.6	3
192.5	1
192.6	2
192.7	4
192.8	6
192.9	10
193.0	12
193.1	14
193.2	12
193.3	10
193.4	6
193.5	3
194.8	3
194.9	4
195.0	6
195.1	8
195.2	8
195.3	8
195.4	6
195.5	4
195.6	1
196.6	2
196.7	4
196.8	7
196.9	10
197.0	12
197.1	14
197.2	15
197.3	14
197.4	10
197.5	5
197.6	1
198.5	2
198.6	3
198.7	6
198.8	10
198.9	16
199.0	20
199.1	22
199.2	22
199.3	20
199.4	16
199.5	11
199.6	4
200.5	1
200.6	3
200.7	5
200.8	9
200.9	13
201.0	18
201.1	21
201.2	22
201.3	21
201.4	16
201.5	10
201.6	3
202.4	0
202.5	2
202.6	5
202.7	10
202.8	17
202.9	24
203.0	30
203.1	32
203.2	30
203.3	25
203.4	17
203.5	8
203.6	1
206.7	1
206.8	3
206.9	4
207.0	5
207.1	4
207.2	3
207.3	3
207.4	2
207.5	1
207.6	0
207.7	0
207.8	0
207.9	0
208.0	0
208.1	0
208.2	0
208.3	0
208.4	0
208.5	0
208.6	0
208.7	1
208.8	3
208.9	6
209.0	9
209.1	11
209.2	12
209.3	11
209.4	9
209.5	6
209.6	2
210.5	2
210.6	3
210.7	5
210.8	8
210.9	10
211.0	12
211.1	15
211.2	17
211.3	16
211.4	12
211.5	7
211.6	2
212.5	1
212.6	2
212.7	4
212.8	7
212.9	10
213.0	11
213.1	11
213.2	10
213.3	7
213.4	5
213.5	2
214.7	2
214.8	4
214.9	9
215.0	15
215.1	19
215.2	18
215.3	15
215.4	10
215.5	5
215.6	2
216.7	1
216.8	2
216.9	5
217.0	7
217.1	8
217.2	7
217.3	6
217.4	4
217.5	3
222.7	2
222.8	4
222.9	6
223.0	9
223.1	10
223.2	10
223.3	8
223.4	6
223.5	3
224.5	2
224.6	4
224.7	6
224.8	7
224.9	9
225.0	11
225.1	14
225.2	14
225.3	11
225.4	5
225.5	1
226.7	2
226.8	3
226.9	4
227.0	5
227.1	6
227.2	7
227.3	6
227.4	5
227.5	3
228.5	1
228.6	4
228.7	10
228.8	18
228.9	26
229.0	31
229.1	32
229.2	31
229.3	28
229.4	22
229.5	14
229.6	5
229.7	0
230.7	1
230.8	3
230.9	4
231.0	5
231.1	6
231.2	5
231.3	4
231.4	2
232.7	1
232.8	2
232.9	5
233.0	7
233.1	8
233.2	8
233.3	7
233.4	4
233.5	2
236.8	1
236.9	3
237.0	5
237.1	7
237.2	7
237.3	6
237.4	4
237.5	2
238.7	1
238.8	3
238.9	6
239.0	10
239.1	13
239.2	14
239.3	12
239.4	9
239.5	5
239.6	2
240.7	2
240.8	3
240.9	7
241.0	10
241.1	12
241.2	11
241.3	9
241.4	7
241.5	4
241.6	1
242.7	2
242.8	3
242.9	4
243.0	5
243.1	6
243.2	7
243.3	7
243.4	5
243.5	3
246.6	1
246.7	2
246.8	3
246.9	4
247.0	5
247.1	5
247.2	5
247.3	5
247.4	4
247.5	2
248.8	1
248.9	3
249.0	7
249.1	10
249.2	11
249.3	10
249.4	7
249.5	4
250.8	2
250.9	3
251.0	5
251.1	6
251.2	6
251.3	5
251.4	3
251.5	1
252.8	3
252.9	4
253.0	6
253.1	8
253.2	9
253.3	7
253.4	3
255.0	6
255.1	7
255.2	9
255.3	9
255.4	7
255.5	3
256.7	0
256.8	2
256.9	4
257.0	6
257.1	8
257.2	7
257.3	5
257.4	2
266.4	2
266.5	3
266.6	4
266.7	6
266.8	11
266.9	18
267.0	25
267.1	29
267.2	32
267.3	30
267.4	25
267.5	15
267.6	6
267.7	0
268.6	1
268.7	3
268.8	5
268.9	7
269.0	8
269.1	10
269.2	10
269.3	10
269.4	8
269.5	5
269.6	2
278.4	1
278.5	2
278.6	3
278.7	4
278.8	7
278.9	13
279.0	19
279.1	25
279.2	29
279.3	28
279.4	22
279.5	12
279.6	4
280.5	1
280.6	2
280.7	3
280.8	4
280.9	4
281.0	5
281.1	5
281.2	5
281.3	3
281.4	2
284.5	1
284.6	2
284.7	5
284.8	10
284.9	15
285.0	21
285.1	24
285.2	25
285.3	23
285.4	18
285.5	11
285.6	4
285.7	0
286.7	1
286.8	3
286.9	5
287.0	7
287.1	8
287.2	7
287.3	5
287.4	2
294.8	4
294.9	5
295.0	8
295.1	11
295.2	13
295.3	11
295.4	8
295.5	5
295.6	2
296.3	0
296.4	1
296.5	4
296.6	8
296.7	12
296.8	18
296.9	27
297.0	39
297.1	49
297.2	56
297.3	56
297.4	49
297.5	35
297.6	18
297.7	4
297.8	0
298.8	1
298.9	3
299.0	5
299.1	7
299.2	6
299.3	4
299.4	2
302.7	1
302.8	2
302.9	4
303.0	5
303.1	6
303.2	6
303.3	5
303.4	3
303.5	2
314.4	0
314.5	3
314.6	7
314.7	12
314.8	20
314.9	33
315.0	51
315.1	72
315.2	86
315.3	89
315.4	76
315.5	53
315.6	26
315.7	6
315.8	0
374.8	2
374.9	4
375.0	5
375.1	6
375.2	8
375.3	9
375.4	9
375.5	6
375.6	3
392.4	1
392.5	3
392.6	6
392.7	10
392.8	16
392.9	22
393.0	30
393.1	39
393.2	47
393.3	51
393.4	48
393.5	38
393.6	22
393.7	7
393.8	0
410.3	0
410.4	2
410.5	4
410.6	8
410.7	15
410.8	25
410.9	38
411.0	55
411.1	73
411.2	90
411.3	99
411.4	96
411.5	77
411.6	47
411.7	17
411.8	0
428.8	2
428.9	3
429.0	4
429.1	6
429.2	7
429.3	8
429.4	8
429.5	6
429.6	4
429.7	1
