Mass spectrum: Lactonic acid; LC-ESI-QQQ; MS2; Frag=135.0V CID@25.0; [M+Na]+
Name: Lactonic acid
Class: Aliphatic natural products
Formula: C12H22O12
Exact mass: 358.3019
SMILES: O=C(O)[C@@H](O)[C@@H](O)C(O[C@@H]1O[C@H](CO)[C@H](O)[C@H](O)[C@H]1O)[C@@H](O)CO
InChI: InChI=1S/C12H22O12/c13-1-3(15)10(7(18)8(19)11(21)22)24-12-9(20)6(17)5(16)4(2-14)23-12/h3-10,12-20H,1-2H2,(H,21,22)/t3-,4+,5-,6-,7+,8-,9+,10?,12-/m0/s1
Instrument: Agilent 6410 Triple Quadrupole LC/MS system
Instrument type: LC-ESI-QQQ
Ms type: MS2
Ion mode: POSITIVE
Precursor type: [M+Na]+
m/z	relative intensity
218.3	3
218.4	5
218.5	7
218.6	17
218.7	36
218.8	59
218.9	74
219.0	84
219.1	94
219.2	98
219.3	84
219.4	49
219.5	15
219.6	0
380.0	1
380.1	2
380.2	7
380.3	17
380.4	26
380.5	29
380.6	27
380.7	28
380.8	38
380.9	51
381.0	58
381.1	54
381.2	43
381.3	32
381.4	22
381.5	13
381.6	5
