Mass spectrum: turkesterone; LC-ESI-QQQ; MS2; Frag=135.0V CID@5.0; [M+HOO]-
Name: turkesterone
Class: Steroids
Formula: C27H44O8
Exact mass: 496.6469
SMILES: CC(C)(O)CC[C@H](O)[C@](C)(O)C1CC[C@@]2(O)C3=CC(=O)C4CC(O)C(O)C[C@]4(C)C3[C@H](O)C[C@]12C
InChI: InChI=1S/C27H44O8/c1-23(2,33)8-7-21(32)26(5,34)20-6-9-27(35)15-11-16(28)14-10-17(29)18(30)12-24(14,3)22(15)19(31)13-25(20,27)4/h11,14,17-22,29-35H,6-10,12-13H2,1-5H3/t14?,17?,18?,19-,20?,21+,22?,24+,25-,26-,27-/m1/s1
Instrument: Agilent 6410 Triple Quadrupole LC/MS system
Instrument type: LC-ESI-QQQ
Ms type: MS2
Ion mode: NEGATIVE
Precursor type: [M+HOO]-
m/z	relative intensity
334.5	3
334.6	3
334.7	4
334.8	7
334.9	11
335.0	12
335.1	12
335.2	13
335.3	13
335.4	11
335.5	6
335.6	1
476.8	1
476.9	3
477.0	4
477.1	6
477.2	6
477.3	6
477.4	6
477.5	4
477.6	2
494.5	1
494.6	2
494.7	4
494.8	5
494.9	7
495.0	9
495.1	11
495.2	12
495.3	13
495.4	13
495.5	11
495.6	7
495.7	2
540.2	0
540.3	2
540.4	4
540.5	8
540.6	13
540.7	24
540.8	41
540.9	59
541.0	72
541.1	79
541.2	86
541.3	95
541.4	99
541.5	88
541.6	60
541.7	26
541.8	2
