Mass spectrum: Solanidine; LC-ESI-QQQ; MS2; Frag=135.0V CID@10.0; [M+H]+
Name: Solanidin
Name: Solatubine
Name: Solatubin
Name: Solanid-5-en-3beta-ol
Name: 22R,25S-Solanidanine
Name: Solanidine
Class: Steroids
Formula: C27H43NO
Exact mass: 397.6499
SMILES: C[C@H]1CCC2[C@@H](C)[C@H]3[C@H](CC4[C@@H]5CC=C6CC(O)CC[C@]6(C)[C@H]5CC[C@@]43C)N2C1
InChI: InChI=1S/C27H43NO/c1-16-5-8-23-17(2)25-24(28(23)15-16)14-22-20-7-6-18-13-19(29)9-11-26(18,3)21(20)10-12-27(22,25)4/h6,16-17,19-25,29H,5,7-15H2,1-4H3/t16-,17+,19?,20+,21-,22?,23?,24-,25-,26-,27-/m0/s1
Instrument: Agilent 6410 Triple Quadrupole LC/MS system
Instrument type: LC-ESI-QQQ
Ms type: MS2
Ion mode: POSITIVE
Precursor type: [M+H]+
m/z	relative intensity
397.5	1
397.6	4
397.7	9
397.8	17
397.9	28
398.0	43
398.1	63
398.2	83
398.3	97
398.4	99
398.5	88
398.6	64
398.7	35
398.8	10
398.9	0
