Mass spectrum: Piptanthine; LC-ESI-QQQ; MS2; Frag=135.0V CID@10.0; [M+H]+
Name: Piptanthine
Class: Alkaloids
Formula: C20H35N3
Exact mass: 317.5221
SMILES: C1CC[C@H](C23CC(C[C@@H]4CCCN[C@H]42)[C@@H]2CCCCN2C3)NC1
InChI: InChI=1S/C20H35N3/c1-3-9-21-18(8-1)20-13-16(12-15-6-5-10-22-19(15)20)17-7-2-4-11-23(17)14-20/h15-19,21-22H,1-14H2/t15-,16?,17-,18+,19+,20?/m0/s1
Instrument: Agilent 6410 Triple Quadrupole LC/MS system
Instrument type: LC-ESI-QQQ
Ms type: MS2
Ion mode: POSITIVE
Precursor type: [M+H]+
m/z	relative intensity
317.5	0
317.6	3
317.7	7
317.8	14
317.9	27
318.0	47
318.1	69
318.2	88
318.3	98
318.4	99
318.5	91
318.6	70
318.7	39
318.8	12
318.9	0
