Mass spectrum: Crassicauline A; LC-ESI-QQQ; MS2; Frag=135.0V CID@15.0; [M+H]+
Name: Crassicauline A
Class: Alkaloids
Formula: C35H49NO10
Exact mass: 643.7815
SMILES: CCN1C[C@]2(COC)CCC(OC)[C@@]34C5C[C@]6(O)C(OC)C[C@@](OC(C)=O)(C5[C@H]6OC(=O)c5ccc(OC)cc5)C(C(OC)C23)[C@@H]14
InChI: InChI=1S/C35H49NO10/c1-8-36-17-32(18-40-3)14-13-23(42-5)35-22-15-33(39)24(43-6)16-34(46-19(2)37,26(29(35)36)27(44-7)28(32)35)25(22)30(33)45-31(38)20-9-11-21(41-4)12-10-20/h9-12,22-30,39H,8,13-18H2,1-7H3/t22?,23?,24?,25?,26?,27?,28?,29-,30-,32+,33+,34-,35+/m1/s1
Instrument: Agilent 6410 Triple Quadrupole LC/MS system
Instrument type: LC-ESI-QQQ
Ms type: MS2
Ion mode: POSITIVE
Precursor type: [M+H]+
m/z	relative intensity
643.3	0
643.4	1
643.5	4
643.6	8
643.7	15
643.8	26
643.9	40
644.0	57
644.1	75
644.2	90
644.3	99
644.4	99
644.5	89
644.6	68
644.7	40
644.8	15
644.9	1
