Mass spectrum: isoverticine; LC-ESI-QQQ; MS2; Frag=135.0V CID@15.0 ; [M+H]+
Name: isoverticine
Class: Alkaloids
Formula: C27H45NO3
Exact mass: 431.66460000000006
SMILES: CC1CC[C@@H]2N(C1)CC1[C@H](CC[C@H]3C4CC(O)[C@H]5CC(O)CCC5(C)[C@H]4C[C@@H]13)[C@]2(C)O
InChI: InChI=1S/C27H45NO3/c1-15-4-7-25-27(3,31)21-6-5-17-18(20(21)14-28(25)13-15)11-22-19(17)12-24(30)23-10-16(29)8-9-26(22,23)2/h15-25,29-31H,4-14H2,1-3H3/t15?,16?,17-,18-,19?,20?,21+,22+,23-,24?,25+,26?,27+/m1/s1
Instrument: Agilent 6410 Triple Quadrupole LC/MS system
Instrument type: LC-ESI-QQQ
Ms type: MS2
Ion mode: POSITIVE
Precursor type: [M+H]+
m/z	relative intensity
413.8	1
413.9	2
414.0	4
414.1	5
414.2	7
414.3	8
414.4	8
414.5	7
414.6	5
414.7	3
431.4	0
431.5	1
431.6	4
431.7	10
431.8	19
431.9	31
432.0	49
432.1	69
432.2	88
432.3	99
432.4	99
432.5	89
432.6	69
432.7	42
432.8	16
432.9	1
