Mass spectrum: Testosterone; LC-ESI-QQQ; MS2; Frag=135.0V CID@15.0; [M+H]+
Name: Testosterone
Class: Steroids
Formula: C19H28O2
Exact mass: 288.4338
SMILES: C[C@]12CC[C@H]3[C@@H](CCC4=CC(=O)CC[C@@]43C)[C@@H]1CC[C@@H]2O
InChI: InChI=1S/C19H28O2/c1-18-9-7-13(20)11-12(18)3-4-14-15-5-6-17(21)19(15,2)10-8-16(14)18/h11,14-17,21H,3-10H2,1-2H3/t14-,15-,16-,17-,18-,19-/m0/s1
Instrument: Agilent 6410 Triple Quadrupole LC/MS system
Instrument type: LC-ESI-QQQ
Ms type: MS2
Ion mode: POSITIVE
Precursor type: [M+H]+
m/z	relative intensity
82.8	2
82.9	3
83.0	4
83.1	5
83.2	5
83.3	4
83.4	2
96.2	0
96.3	1
96.4	4
96.5	11
96.6	22
96.7	39
96.8	59
96.9	79
97.0	94
97.1	98
97.2	94
97.3	81
97.4	61
97.5	36
97.6	13
97.7	0
108.3	1
108.4	3
108.5	8
108.6	15
108.7	26
108.8	40
108.9	53
109.0	62
109.1	64
109.2	60
109.3	52
109.4	39
109.5	23
109.6	8
109.7	0
122.7	2
122.8	3
122.9	5
123.0	6
123.1	6
123.2	6
123.3	5
123.4	3
252.7	2
252.8	3
252.9	5
253.0	8
253.1	11
253.2	12
253.3	12
253.4	11
253.5	8
253.6	4
253.7	1
270.7	1
270.8	2
270.9	4
271.0	6
271.1	8
271.2	9
271.3	9
271.4	7
271.5	5
271.6	2
288.4	0
288.5	3
288.6	8
288.7	16
288.8	27
288.9	43
289.0	64
289.1	84
289.2	97
289.3	99
289.4	89
289.5	67
289.6	37
289.7	11
289.8	0
