Mass spectrum: (3R,8aS)-Cyclo(phenylalanylprolyl); LC-ESI-QQQ; MS2; Frag=135.0V CID@25.0; [M+H]+
Name: (3R,8aS)-Cyclo(phenylalanylprolyl)
Class: Aminoacids and peptides
Formula: C14H16N2O2
Exact mass: 244.2958
SMILES: O=C1[C@@H](Cc2ccccc2)N=C(O)[C@@H]2CCCN12
InChI: InChI=1S/C14H16N2O2/c17-13-12-7-4-8-16(12)14(18)11(15-13)9-10-5-2-1-3-6-10/h1-3,5-6,11-12H,4,7-9H2,(H,15,17)/t11-,12+/m1/s1
Instrument: Agilent 6410 Triple Quadrupole LC/MS system
Instrument type: LC-ESI-QQQ
Ms type: MS2
Ion mode: POSITIVE
Precursor type: [M+H]+
m/z	relative intensity
69.2	0
69.3	2
69.4	6
69.5	10
69.6	17
69.7	30
69.8	50
69.9	73
70.0	92
70.1	99
70.2	96
70.3	83
70.4	60
70.5	32
70.6	9
70.7	0
97.6	2
97.7	3
97.8	6
97.9	8
98.0	9
98.1	9
98.2	8
98.3	7
98.4	5
98.5	2
119.3	1
119.4	3
119.5	5
119.6	10
119.7	20
119.8	33
119.9	47
120.0	55
120.1	57
120.2	55
120.3	48
120.4	36
120.5	19
120.6	5
120.7	0
152.6	1
152.7	2
152.8	4
152.9	6
153.0	6
153.1	6
153.2	6
153.3	7
153.4	8
153.5	8
153.6	9
153.7	13
153.8	23
153.9	34
154.0	44
154.1	48
154.2	46
154.3	40
154.4	28
154.5	15
154.6	4
154.7	0
171.5	2
171.6	3
171.7	5
171.8	8
171.9	12
172.0	15
172.1	18
172.2	18
172.3	17
172.4	13
172.5	7
172.6	2
