Mass spectrum: Galantamine; LC-ESI-QQQ; MS2; Frag=135.0V CID@15.0; [M+H]+
Name: Galantamine
Class: Benzopyranoids
Formula: C17H21NO3
Exact mass: 287.3618
SMILES: COc1ccc2c3c1OC1CC(O)C=C[C@@]31CCN(C)C2
InChI: InChI=1S/C17H21NO3/c1-18-8-7-17-6-5-12(19)9-14(17)21-16-13(20-2)4-3-11(10-18)15(16)17/h3-6,12,14,19H,7-10H2,1-2H3/t12?,14?,17-/m0/s1
Instrument: Agilent 6410 Triple Quadrupole LC/MS system
Instrument type: LC-ESI-QQQ
Ms type: MS2
Ion mode: POSITIVE
Precursor type: [M+H]+
m/z	relative intensity
57.5	1
57.6	2
57.7	4
57.8	7
57.9	11
58.0	14
58.1	15
58.2	14
58.3	12
58.4	8
58.5	3
196.7	2
196.8	4
196.9	6
197.0	7
197.1	8
197.2	9
197.3	8
197.4	7
197.8	5
197.9	7
198.0	8
198.1	9
198.2	9
198.3	8
198.4	6
198.8	3
198.9	4
199.0	5
199.1	6
199.2	6
199.3	5
199.4	3
202.7	2
202.8	3
202.9	4
203.0	5
203.1	5
203.2	5
203.3	5
203.4	4
203.5	2
208.6	1
208.7	3
208.8	6
208.9	9
209.0	12
209.1	13
209.2	13
209.3	11
209.4	8
209.5	5
209.6	2
212.2	1
212.3	2
212.4	5
212.5	9
212.6	15
212.7	27
212.8	45
212.9	68
213.0	88
213.1	98
213.2	99
213.3	90
213.4	70
213.5	42
213.6	15
213.7	0
224.4	2
224.5	3
224.6	5
224.7	8
224.8	14
224.9	20
225.0	26
225.1	29
225.2	28
225.3	25
225.4	19
225.5	11
225.6	4
230.3	0
230.4	2
230.5	4
230.6	8
230.7	13
230.8	21
230.9	33
231.0	45
231.1	53
231.2	53
231.3	46
231.4	33
231.5	17
231.6	4
231.7	0
269.5	1
269.6	2
269.7	5
269.8	10
269.9	16
270.0	22
270.1	27
270.2	28
270.3	27
270.4	21
270.5	12
270.6	4
270.7	0
287.3	1
287.4	2
287.5	4
287.6	7
287.7	13
287.8	22
287.9	36
288.0	51
288.1	63
288.2	67
288.3	62
288.4	48
288.5	29
288.6	11
288.7	0
