Mass spectrum: Cyclosieversigenin  Derivative: 3,6-Di-Ac; LC-ESI-QQQ; MS2; Frag=135.0V CID@15.0; [M+Na]+
Name: Cyclosieversigenin  Derivative: 3,6-Di-Ac
Class: Terpenoids
Formula: C34H54O7
Exact mass: 574.8053
SMILES: CC(=O)OC1CC[C@]23C[C@]24CC[C@]2(C)C([C@]5(C)CC[C@H](C(C)(C)O)O5)C(O)C[C@@]2(C)C4C[C@H](OC(C)=O)C3C1(C)C
InChI: InChI=1S/C34H54O7/c1-19(35)39-22-16-23-31(8)17-21(37)26(32(9)12-10-25(41-32)29(5,6)38)30(31,7)14-15-33(23)18-34(33)13-11-24(40-20(2)36)28(3,4)27(22)34/h21-27,37-38H,10-18H2,1-9H3/t21?,22-,23?,24?,25+,26?,27?,30+,31-,32-,33-,34+/m0/s1
Instrument: Agilent 6410 Triple Quadrupole LC/MS system
Instrument type: LC-ESI-QQQ
Ms type: MS2
Ion mode: POSITIVE
Precursor type: [M+Na]+
m/z	relative intensity
596.3	0
596.4	2
596.5	6
596.6	13
596.7	22
596.8	31
596.9	43
597.0	59
597.1	79
597.2	94
597.3	99
597.4	95
597.5	80
597.6	55
597.7	26
597.8	4
597.9	0
