Mass spectrum: Quinine; LC-ESI-QQQ; MS2; Frag=135.0V CID@25.0; [M+H]+
Name: Quinine
Class: Alkaloids
Formula: C20H24N2O2
Exact mass: 324.4265
SMILES: C=CC1CN2CCC1CC2[C@H](O)c1ccnc2ccc(OC)cc12
InChI: InChI=1S/C20H24N2O2/c1-3-13-12-22-9-7-14(13)10-19(22)20(23)16-6-8-21-18-5-4-15(24-2)11-17(16)18/h3-6,8,11,13-14,19-20,23H,1,7,9-10,12H2,2H3/t13?,14?,19?,20-/m1/s1
Instrument: Agilent 6410 Triple Quadrupole LC/MS system
Instrument type: LC-ESI-QQQ
Ms type: MS2
Ion mode: POSITIVE
Precursor type: [M+H]+
m/z	relative intensity
66.6	1
66.7	2
66.8	4
66.9	5
67.0	6
67.1	6
67.2	6
67.3	5
67.4	3
78.5	1
78.6	3
78.7	5
78.8	8
78.9	11
79.0	12
79.1	13
79.2	12
79.3	10
79.4	7
79.5	4
80.5	5
80.6	8
80.7	13
80.8	19
80.9	26
81.0	31
81.1	32
81.2	29
81.3	23
81.4	16
81.5	8
81.8	4
81.9	7
82.0	9
82.1	9
82.2	9
82.3	7
82.4	4
82.5	2
107.6	2
107.7	3
107.8	5
107.9	7
108.0	8
108.1	7
108.2	7
108.3	6
108.4	5
108.5	3
109.6	3
109.7	4
109.8	6
109.9	8
110.0	10
110.1	11
110.2	11
110.3	10
110.4	7
110.5	4
110.6	1
133.6	1
133.7	2
133.8	4
133.9	5
134.0	6
134.1	7
134.2	7
134.3	6
134.4	4
134.5	2
135.7	2
135.8	4
135.9	5
136.0	6
136.1	6
136.2	6
136.3	5
136.4	4
136.5	2
137.8	2
137.9	3
138.0	5
138.1	5
138.2	5
138.3	4
138.4	3
138.5	2
159.3	2
159.4	4
159.5	8
159.6	14
159.7	24
159.8	38
159.9	54
160.0	65
160.1	70
160.2	68
160.3	60
160.4	46
160.5	26
160.6	9
160.7	0
165.5	1
165.6	3
165.7	5
165.8	9
165.9	13
166.0	16
166.1	18
166.2	19
166.3	18
166.4	15
166.5	10
166.6	5
166.7	1
171.4	1
171.5	3
171.6	5
171.7	9
171.8	13
171.9	18
172.0	22
172.1	24
172.2	23
172.3	21
172.4	15
172.5	9
172.8	4
172.9	6
173.0	8
173.1	10
173.2	10
173.3	8
173.4	6
173.7	3
173.8	5
173.9	8
174.0	10
174.1	10
174.2	9
174.3	7
174.4	5
174.5	2
183.4	3
183.5	4
183.6	8
183.7	14
183.8	23
183.9	32
184.0	37
184.1	38
184.2	36
184.3	31
184.4	23
184.5	13
184.6	4
185.5	3
185.6	4
185.7	7
185.8	12
185.9	16
186.0	19
186.1	20
186.2	20
186.3	17
186.4	12
186.5	6
186.6	1
188.8	3
188.9	5
189.0	6
189.1	7
189.2	7
189.3	6
189.4	4
189.5	1
197.5	2
197.6	4
197.7	6
197.8	9
197.9	13
198.0	16
198.1	18
198.2	18
198.3	16
198.4	12
198.5	7
198.6	2
209.8	3
209.9	4
210.0	6
210.1	6
210.2	6
210.3	5
210.4	3
252.6	3
252.7	5
252.8	9
252.9	14
253.0	18
253.1	21
253.2	21
253.3	19
253.4	15
253.5	9
253.6	3
263.7	2
263.8	3
263.9	5
264.0	6
264.1	7
264.2	8
264.3	7
264.4	6
264.5	4
278.8	3
278.9	5
279.0	7
279.1	8
279.2	8
279.3	8
279.4	6
279.5	4
279.6	1
306.4	1
306.5	2
306.6	3
306.7	5
306.8	8
306.9	14
307.0	21
307.1	28
307.2	32
307.3	33
307.4	29
307.5	21
307.6	11
307.7	2
324.3	0
324.4	1
324.5	4
324.6	11
324.7	20
324.8	33
324.9	50
325.0	70
325.1	88
325.2	99
325.3	99
325.4	85
325.5	57
325.6	26
325.7	3
