Mass spectrum: Adrenoglomerulotropin; LC-ESI-QQQ; MS2; Frag=135.0V CID@5.0; [M+H]+
Name: Adrenoglomerulotropin
Class: Alkaloids
Formula: C13H16N2O
Exact mass: 216.2853
SMILES: COc1ccc2[nH]c3c(c2c1)CCN[C@H]3C
InChI: InChI=1S/C13H16N2O/c1-8-13-10(5-6-14-8)11-7-9(16-2)3-4-12(11)15-13/h3-4,7-8,14-15H,5-6H2,1-2H3/t8-/m0/s1
Instrument: Agilent 6410 Triple Quadrupole LC/MS system
Instrument type: LC-ESI-QQQ
Ms type: MS2
Ion mode: POSITIVE
Precursor type: [M+H]+
m/z	relative intensity
173.5	2
173.6	3
173.7	6
173.8	9
173.9	13
174.0	17
174.1	20
174.2	20
174.3	19
174.4	16
174.5	10
174.6	4
174.7	0
187.4	1
187.5	3
187.6	6
187.7	11
187.8	19
187.9	28
188.0	38
188.1	44
188.2	45
188.3	41
188.4	33
188.5	21
188.6	10
188.7	1
199.3	1
199.4	3
199.5	8
199.6	15
199.7	27
199.8	46
199.9	67
200.0	87
200.1	98
200.2	99
200.3	91
200.4	72
200.5	46
200.6	19
200.7	1
216.5	1
216.6	3
216.7	6
216.8	11
216.9	17
217.0	24
217.1	28
217.2	29
217.3	27
217.4	22
217.5	15
217.6	7
217.7	1
