Mass spectrum: (S)-Luteanine; LC-ESI-QQQ; MS2; Frag=135.0V CID@25.0; [M+H]+
Name: Artabotrine
Name: Artabotrin
Name: Luteanine
Name: Luteanin
Name: Uzokoridin
Name: (S)-Luteanine
Class: Alkaloids
Formula: C20H23NO4
Exact mass: 341.4106
SMILES: COc1ccc2c(c1O)-c1c(OC)c(OC)cc3c1[C@H](C2)N(C)CC3
InChI: InChI=1S/C20H23NO4/c1-21-8-7-12-10-15(24-3)20(25-4)18-16(12)13(21)9-11-5-6-14(23-2)19(22)17(11)18/h5-6,10,13,22H,7-9H2,1-4H3/t13-/m0/s1
Instrument: Agilent 6410 Triple Quadrupole LC/MS system
Instrument type: LC-ESI-QQQ
Ms type: MS2
Ion mode: POSITIVE
Precursor type: [M+H]+
m/z	relative intensity
190.7	2
190.8	4
190.9	7
191.0	9
191.1	10
191.2	10
191.3	8
191.4	6
191.5	3
218.6	2
218.7	3
218.8	5
218.9	7
219.0	9
219.1	11
219.2	11
219.3	9
219.4	6
219.5	3
235.5	6
235.6	8
235.7	13
235.8	20
235.9	29
236.0	36
236.1	39
236.2	37
236.3	30
236.4	20
236.5	10
236.6	3
246.5	2
246.6	4
246.7	7
246.8	11
246.9	16
247.0	19
247.1	19
247.2	19
247.3	17
247.6	14
247.7	20
247.8	31
247.9	45
248.0	57
248.1	63
248.2	61
248.3	51
248.4	35
248.5	18
248.6	5
250.5	3
250.6	4
250.7	7
250.8	12
250.9	18
251.0	22
251.1	25
251.2	24
251.3	22
251.4	16
251.5	9
251.6	3
263.3	5
263.4	7
263.5	10
263.6	15
263.7	26
263.8	42
263.9	60
264.0	73
264.1	77
264.2	72
264.3	59
264.4	41
264.5	23
264.8	15
264.9	25
265.0	32
265.1	36
265.2	36
265.3	31
265.4	23
265.5	13
265.6	4
278.2	3
278.3	4
278.4	7
278.5	10
278.6	15
278.7	25
278.8	44
278.9	68
279.0	89
279.1	99
279.2	97
279.3	83
279.4	61
279.5	35
279.6	15
279.8	11
279.9	21
280.0	29
280.1	34
280.2	34
280.3	31
280.4	24
280.5	16
280.7	8
280.8	13
280.9	20
281.0	26
281.1	28
281.2	27
281.3	24
281.4	18
281.5	10
281.6	3
295.3	1
295.4	3
295.5	4
295.6	6
295.7	10
295.8	17
295.9	25
296.0	32
296.1	37
296.2	37
296.3	31
296.4	21
296.5	10
296.6	2
310.6	2
310.7	3
310.8	6
310.9	9
311.0	12
311.1	14
311.2	14
311.3	13
311.4	9
311.5	4
311.6	1
