Mass spectrum: Carminomycin I; LC-ESI-QQQ; MS2; Frag=135.0V CID@15.0; [M+H]+
Name: Carminomycin I
Class: Polycyclic aromatic natural products
Formula: C26H27NO10
Exact mass: 513.5058
SMILES: CC(=O)[C@]1(O)Cc2c(O)c3c(c(O)c2[C@@H](O[C@H]2C[C@H](N)[C@H](O)[C@H](C)O2)C1)C(=O)c1c(O)cccc1C3=O
InChI: InChI=1S/C26H27NO10/c1-9-21(30)13(27)6-16(36-9)37-15-8-26(35,10(2)28)7-12-18(15)25(34)20-19(23(12)32)22(31)11-4-3-5-14(29)17(11)24(20)33/h3-5,9,13,15-16,21,29-30,32,34-35H,6-8,27H2,1-2H3/t9-,13-,15-,16-,21+,26-/m0/s1
Instrument: Agilent 6410 Triple Quadrupole LC/MS system
Instrument type: LC-ESI-QQQ
Ms type: MS2
Ion mode: POSITIVE
Precursor type: [M+H]+
m/z	relative intensity
85.5	2
85.6	3
85.7	6
85.8	10
85.9	14
86.0	17
86.1	17
86.2	17
86.3	14
86.4	10
86.5	5
86.6	1
112.6	3
112.7	4
112.8	7
112.9	9
113.0	10
113.1	11
113.2	10
113.3	8
113.4	6
113.5	3
129.2	0
129.3	2
129.4	6
129.5	11
129.6	19
129.7	32
129.8	52
129.9	76
130.0	94
130.1	99
130.2	92
130.3	76
130.4	53
130.5	29
130.6	9
130.7	0
306.5	2
306.6	3
306.7	5
306.8	9
306.9	12
307.0	14
307.1	14
307.2	14
307.3	11
307.4	7
307.5	3
348.6	2
348.7	4
348.8	7
348.9	10
349.0	12
349.1	12
349.2	11
349.3	8
349.4	4
349.5	1
