Mass spectrum: Karasamine; LC-ESI-QQQ; MS2; Frag=135.0V CID@25.0; [M+H]+
Name: Karasamine
Class: Alkaloids
Formula: C23H37NO4
Exact mass: 391.5556
SMILES: CCN1C[C@]2(C)CC[C@H](O)[C@@]34C5C[C@@H]6[C@@H](OC)C[C@@](O)(C5[C@H]6OC)[C@@H](CC32)[C@@H]14
InChI: InChI=1S/C23H37NO4/c1-5-24-11-21(2)7-6-17(25)23-13-8-12-15(27-3)10-22(26,18(13)19(12)28-4)14(20(23)24)9-16(21)23/h12-20,25-26H,5-11H2,1-4H3/t12-,13?,14+,15+,16?,17+,18?,19+,20-,21+,22+,23-/m1/s1
Instrument: Agilent 6410 Triple Quadrupole LC/MS system
Instrument type: LC-ESI-QQQ
Ms type: MS2
Ion mode: POSITIVE
Precursor type: [M+H]+
m/z	relative intensity
373.6	1
373.7	3
373.8	5
373.9	9
374.0	14
374.1	21
374.2	27
374.3	30
374.4	29
374.5	24
374.6	16
374.7	7
374.8	1
391.4	0
391.5	2
391.6	6
391.7	12
391.8	19
391.9	30
392.0	47
392.1	69
392.2	89
392.3	99
392.4	97
392.5	81
392.6	54
392.7	26
392.8	5
392.9	0
