Mass spectrum: Periplocin; LC-ESI-QQQ; MS2; Frag=135.0V CID@10.0; [M+HCOO]-
Name: Periplocin
Class: Terpenoids
Formula: C36H56O13
Exact mass: 696.8399
SMILES: CO[C@H]1C[C@H](OC2CC[C@]3(C)C4CC[C@]5(C)C(C6=CC(=O)OC6)CCC5(O)C4CCC3(O)C2)O[C@H](C)C1OC1O[C@H](CO)[C@@H](O)[C@H](O)[C@H]1O
InChI: InChI=1S/C36H56O13/c1-18-31(49-32-30(41)29(40)28(39)25(16-37)48-32)24(44-4)14-27(46-18)47-20-5-9-33(2)22-6-10-34(3)21(19-13-26(38)45-17-19)8-12-36(34,43)23(22)7-11-35(33,42)15-20/h13,18,20-25,27-32,37,39-43H,5-12,14-17H2,1-4H3/t18-,20?,21?,22?,23?,24+,25-,27+,28-,29+,30-,31?,32?,33-,34-,35?,36?/m1/s1
Instrument: Agilent 6410 Triple Quadrupole LC/MS system
Instrument type: LC-ESI-QQQ
Ms type: MS2
Ion mode: NEGATIVE
Precursor type: [M+HCOO]-
m/z	relative intensity
694.3	1
694.4	2
694.5	4
694.6	6
694.7	9
694.8	11
694.9	13
695.0	16
695.1	17
695.2	17
695.3	15
695.4	14
695.5	11
695.6	6
695.7	2
740.1	0
740.2	1
740.3	2
740.4	6
740.5	11
740.6	19
740.7	29
740.8	38
740.9	47
741.0	57
741.1	70
741.2	84
741.3	95
741.4	99
741.5	91
741.6	69
741.7	37
741.8	10
741.9	0
