Mass spectrum: 6-Hydroxyhyoscyamine; LC-ESI-QQQ; MS2; Frag=135.0V CID@5.0; [M+H]+
Name: 6-Hydroxyhyoscyamine
Class: Alkaloids
Formula: C17H23NO4
Exact mass: 305.3772
SMILES: CN1C2CC(OC(=O)C(CO)c3ccccc3)CC1C(O)C2
InChI: InChI=1S/C17H23NO4/c1-18-12-7-13(9-15(18)16(20)8-12)22-17(21)14(10-19)11-5-3-2-4-6-11/h2-6,12-16,19-20H,7-10H2,1H3
Instrument: Agilent 6410 Triple Quadrupole LC/MS system
Instrument type: LC-ESI-QQQ
Ms type: MS2
Ion mode: POSITIVE
Precursor type: [M+H]+
m/z	relative intensity
305.3	1
305.4	2
305.5	5
305.6	9
305.7	17
305.8	31
305.9	51
306.0	74
306.1	92
306.2	99
306.3	94
306.4	76
306.5	49
306.6	22
306.7	4
