Mass spectrum: 2'-Hydroxy-2,4,4'-trimethoxychalcone; LC-ESI-QQQ; MS2; Frag=135.0V CID@25.0; [M+H]+
Name: 2'-Hydroxy-2,4,4'-trimethoxychalcone
Class: Flavonoids
Formula: C18H18O5
Exact mass: 314.3412
SMILES: COc1ccc(C(=O)/C=C/c2ccc(OC)cc2OC)c(O)c1
InChI: InChI=1S/C18H18O5/c1-21-13-7-8-15(17(20)10-13)16(19)9-5-12-4-6-14(22-2)11-18(12)23-3/h4-11,20H,1-3H3/b9-5+
Instrument: Agilent 6410 Triple Quadrupole LC/MS system
Instrument type: LC-ESI-QQQ
Ms type: MS2
Ion mode: POSITIVE
Precursor type: [M+H]+
m/z	relative intensity
136.6	1
136.7	2
136.8	3
136.9	4
137.0	5
137.1	5
137.2	5
137.3	4
137.4	3
137.5	2
147.6	2
147.7	3
147.8	5
147.9	6
148.0	7
148.1	8
148.2	8
148.3	6
148.4	4
148.5	2
150.2	0
150.3	1
150.4	5
150.5	14
150.6	26
150.7	43
150.8	62
150.9	81
151.0	95
151.1	99
151.2	95
151.3	82
151.4	61
151.5	34
151.6	11
151.7	0
175.5	2
175.6	3
175.7	6
175.8	10
175.9	14
176.0	16
176.1	17
176.2	16
176.3	14
176.4	10
176.5	5
176.6	1
190.4	1
190.5	3
190.6	5
190.7	10
190.8	17
190.9	25
191.0	32
191.1	35
191.2	34
191.3	30
191.4	22
191.5	12
191.6	3
