Mass spectrum: Dubinine; LC-ESI-QQQ; MS2; Frag=135.0V CID@15.0; [M+H]+
Name: Dubinine
Class: Alkaloids
Formula: C17H19NO5
Exact mass: 317.3447
SMILES: COc1c2c(nc3ccccc13)OC([C@@](C)(O)COC(C)=O)C2
InChI: InChI=1S/C17H19NO5/c1-10(19)22-9-17(2,20)14-8-12-15(21-3)11-6-4-5-7-13(11)18-16(12)23-14/h4-7,14,20H,8-9H2,1-3H3/t14?,17-/m0/s1
Instrument: Agilent 6410 Triple Quadrupole LC/MS system
Instrument type: LC-ESI-QQQ
Ms type: MS2
Ion mode: POSITIVE
Precursor type: [M+H]+
m/z	relative intensity
187.4	1
187.5	3
187.6	6
187.7	12
187.8	20
187.9	29
188.0	36
188.1	40
188.2	40
188.3	34
188.4	24
188.5	12
188.6	2
201.6	1
201.7	2
201.8	4
201.9	6
202.0	7
202.1	8
202.2	8
202.3	8
202.4	6
202.5	3
215.3	0
215.4	1
215.5	5
215.6	10
215.7	20
215.8	34
215.9	51
216.0	65
216.1	74
216.2	75
216.3	68
216.4	52
216.5	31
216.6	11
216.7	0
229.5	1
229.6	2
229.7	4
229.8	7
229.9	11
230.0	15
230.1	17
230.2	18
230.3	16
230.4	13
230.5	8
230.6	3
239.6	1
239.7	2
239.8	4
239.9	6
240.0	7
240.1	8
240.2	8
240.3	7
240.4	5
240.5	3
257.3	0
257.4	2
257.5	6
257.6	12
257.7	24
257.8	41
257.9	64
258.0	85
258.1	98
258.2	99
258.3	89
258.4	68
258.5	40
258.6	15
258.7	0
317.4	1
317.5	3
317.6	6
317.7	10
317.8	16
317.9	26
318.0	36
318.1	45
318.2	48
318.3	46
318.4	37
318.5	24
318.6	10
318.7	0
