Mass spectrum: Olitoriside; LC-ESI-QQQ; MS2;  Frag=135.0V CID@10.0 ; [M+HCOO]-
Name: Olitoriside
Class: Steroids
Formula: C35H52O14
Exact mass: 696.79629
SMILES: C[C@H]1O[C@@H](OC2CC[C@]3(C=O)C4CC[C@]5(C)C(C6=CC(=O)OC6)CCC5(O)C4CCC3(O)C2)C[C@H](O)C1OC1O[C@H](CO)[C@@H](O)[C@H](O)[C@H]1O
InChI: InChI=1S/C35H52O14/c1-17-30(49-31-29(42)28(41)27(40)24(14-36)48-31)23(38)12-26(46-17)47-19-3-8-33(16-37)21-4-7-32(2)20(18-11-25(39)45-15-18)6-10-35(32,44)22(21)5-9-34(33,43)13-19/h11,16-17,19-24,26-31,36,38,40-44H,3-10,12-15H2,1-2H3/t17-,19?,20?,21?,22?,23+,24-,26+,27-,28+,29-,30?,31?,32-,33+,34?,35?/m1/s1
Instrument: Agilent 6410 Triple Quadrupole LC/MS system
Instrument type: LC-ESI-QQQ
Ms type: MS2
Ion mode: NEGATIVE
Precursor type: [M+HCOO]-
m/z	relative intensity
694.1	1
694.2	3
694.3	6
694.4	10
694.5	16
694.6	22
694.7	33
694.8	49
694.9	70
695.0	88
695.1	98
695.2	99
695.3	96
695.4	88
695.5	70
695.6	42
695.7	14
695.8	0
740.2	2
740.3	4
740.4	6
740.5	9
740.6	12
740.7	16
740.8	21
740.9	29
741.0	37
741.1	44
741.2	48
741.3	49
741.4	48
741.5	40
741.6	25
741.7	9
741.8	0
