Mass spectrum: Nor-C-fluorocurarine; LC-ESI-QQQ; MS2; Frag=135.0V CID@25.0; [M+H]+
Name: Nor-C-fluorocurarine
Class: Alkaloids
Formula: C19H20N2O
Exact mass: 292.3841
SMILES: C/C=C1/CN2CCC34C(=C(C=O)[C@H]1CC23)Nc1ccccc14
InChI: InChI=1S/C19H20N2O/c1-2-12-10-21-8-7-19-15-5-3-4-6-16(15)20-18(19)14(11-22)13(12)9-17(19)21/h2-6,11,13,17,20H,7-10H2,1H3/b12-2-/t13-,17?,19?/m0/s1
Instrument: Agilent 6410 Triple Quadrupole LC/MS system
Instrument type: LC-ESI-QQQ
Ms type: MS2
Ion mode: POSITIVE
Precursor type: [M+H]+
m/z	relative intensity
55.7	2
55.8	4
55.9	6
56.0	7
56.1	8
56.2	8
56.3	7
56.4	4
56.5	2
67.7	2
67.8	4
67.9	5
68.0	6
68.1	6
68.2	5
68.3	4
68.4	3
94.8	3
94.9	5
95.0	6
95.1	8
95.2	8
95.3	7
95.4	5
95.5	2
107.7	2
107.8	4
107.9	7
108.0	9
108.1	9
108.2	8
108.3	7
108.4	5
129.5	2
129.6	4
129.7	8
129.8	13
129.9	18
130.0	21
130.1	21
130.2	19
130.3	17
130.4	13
130.5	8
143.5	5
143.6	6
143.7	9
143.8	14
143.9	20
144.0	24
144.1	25
144.2	25
144.3	22
144.4	16
144.5	9
144.6	2
153.7	2
153.8	4
153.9	5
154.0	7
154.1	7
154.2	7
154.3	6
154.4	4
155.6	3
155.7	5
155.8	9
155.9	12
156.0	14
156.1	15
156.2	14
156.3	11
156.4	8
156.5	3
157.6	4
157.7	7
157.8	12
157.9	18
158.0	22
158.1	23
158.2	23
158.3	20
158.4	16
158.5	10
158.6	4
161.7	2
161.8	3
161.9	5
162.0	7
162.1	7
162.2	7
162.3	6
162.4	4
162.5	2
166.5	3
166.6	4
166.7	7
166.8	11
166.9	15
167.0	18
167.1	19
167.2	18
167.3	17
167.6	13
167.7	19
167.8	30
167.9	44
168.0	54
168.1	58
168.2	58
168.3	54
168.4	45
168.5	29
168.6	15
168.8	11
168.9	18
169.0	23
169.1	26
169.2	25
169.3	22
169.4	17
169.5	10
169.8	5
169.9	8
170.0	11
170.1	13
170.2	12
170.3	11
170.6	6
170.7	10
170.8	16
170.9	23
171.0	28
171.1	30
171.2	30
171.3	27
171.4	21
171.5	13
171.6	6
179.4	2
179.5	5
179.6	9
179.7	17
179.8	27
179.9	38
180.0	46
180.1	49
180.2	47
180.3	41
180.4	31
180.5	19
180.6	9
180.8	8
180.9	13
181.0	17
181.1	18
181.2	18
181.3	17
181.4	14
181.7	9
181.8	12
181.9	17
182.0	20
182.1	22
182.2	23
182.3	22
182.4	18
182.5	11
182.8	5
182.9	8
183.0	11
183.1	13
183.2	13
183.3	11
183.4	8
183.8	5
183.9	8
184.0	10
184.1	11
184.2	11
184.3	10
184.4	7
184.5	4
185.4	2
185.5	4
185.6	6
185.7	10
185.8	17
185.9	25
186.0	32
186.1	36
186.2	36
186.3	33
186.4	24
186.5	13
186.6	4
190.6	1
190.7	2
190.8	4
190.9	7
191.0	8
191.1	8
191.2	7
191.3	5
191.7	4
191.8	7
191.9	10
192.0	12
192.1	11
192.2	10
192.3	9
192.4	8
192.5	5
192.8	4
192.9	6
193.0	7
193.1	8
193.2	8
193.3	8
193.7	6
193.8	11
193.9	17
194.0	21
194.1	21
194.2	20
194.3	18
194.4	15
194.5	10
194.8	4
194.9	7
195.0	9
195.1	11
195.2	11
195.3	10
195.4	8
195.7	6
195.8	10
195.9	14
196.0	18
196.1	20
196.2	21
196.3	19
196.4	15
196.5	10
196.6	4
198.4	5
198.5	6
198.6	8
198.7	12
198.8	21
198.9	31
199.0	40
199.1	44
199.2	44
199.3	39
199.4	29
199.5	16
199.6	5
203.6	2
203.7	3
203.8	5
203.9	7
204.0	7
204.1	7
204.2	7
204.3	7
204.7	3
204.8	6
204.9	11
205.0	15
205.1	16
205.2	16
205.3	15
205.4	12
205.7	6
205.8	9
205.9	14
206.0	20
206.1	23
206.2	24
206.3	21
206.4	17
206.5	12
206.7	8
206.8	12
206.9	18
207.0	23
207.1	26
207.2	26
207.3	24
207.4	20
207.5	15
207.7	11
207.8	17
207.9	25
208.0	32
208.1	36
208.2	36
208.3	33
208.4	26
208.5	16
208.6	8
208.8	6
208.9	11
209.0	14
209.1	15
209.2	15
209.3	14
209.4	11
209.7	7
209.8	9
209.9	14
210.0	19
210.1	22
210.2	24
210.3	21
210.4	17
210.5	10
210.6	4
216.5	2
216.6	3
216.7	5
216.8	7
216.9	10
217.0	12
217.1	12
217.2	12
217.3	11
217.4	9
217.7	4
217.8	7
217.9	11
218.0	13
218.1	15
218.2	15
218.3	13
218.4	10
218.7	5
218.8	9
218.9	15
219.0	20
219.1	22
219.2	23
219.3	21
219.4	17
219.6	10
219.7	13
219.8	22
219.9	34
220.0	44
220.1	49
220.2	49
220.3	43
220.4	33
220.5	21
220.6	10
220.8	5
220.9	10
221.0	15
221.1	17
221.2	17
221.3	15
221.6	11
221.7	14
221.8	23
221.9	36
222.0	48
222.1	55
222.2	57
222.3	52
222.4	39
222.5	22
222.6	8
230.7	2
230.8	3
230.9	5
231.0	6
231.1	6
231.2	6
231.3	6
231.4	6
231.5	5
231.6	4
231.7	4
231.8	7
231.9	11
232.0	15
232.1	17
232.2	17
232.3	16
232.4	13
232.5	9
232.8	7
232.9	10
233.0	13
233.1	15
233.2	14
233.3	14
233.4	12
233.5	9
233.8	6
233.9	9
234.0	12
234.1	13
234.2	12
234.3	12
234.4	10
234.8	7
234.9	10
235.0	14
235.1	16
235.2	18
235.3	17
235.4	14
235.5	9
235.7	6
235.8	10
235.9	15
236.0	19
236.1	22
236.2	24
236.3	23
236.4	20
236.5	14
236.6	8
237.8	6
237.9	9
238.0	12
238.1	14
238.2	14
238.3	13
238.4	11
238.5	7
238.6	4
238.9	3
239.0	4
239.1	6
239.2	7
239.3	7
239.4	5
239.5	3
245.7	4
245.8	6
245.9	9
246.0	11
246.1	12
246.2	12
246.3	12
246.4	10
246.5	7
247.7	5
247.8	7
247.9	11
248.0	14
248.1	17
248.2	18
248.3	17
248.4	14
248.5	9
248.9	5
249.0	7
249.1	8
249.2	9
249.3	9
249.4	8
249.5	7
249.6	6
249.7	7
249.8	11
249.9	17
250.0	22
250.1	25
250.2	25
250.3	22
250.4	17
250.5	11
250.6	5
250.8	2
250.9	5
251.0	8
251.1	10
251.2	11
251.3	10
251.4	8
251.5	5
251.6	1
259.8	2
259.9	3
260.0	4
260.1	5
260.2	4
260.3	4
262.8	2
262.9	3
263.0	4
263.1	5
263.2	5
263.3	4
263.4	3
263.5	3
263.6	2
263.7	3
263.8	5
263.9	9
264.0	12
264.1	14
264.2	14
264.3	13
264.4	10
264.7	5
264.8	8
264.9	12
265.0	16
265.1	19
265.2	19
265.3	18
265.4	14
265.5	9
265.6	3
274.8	3
274.9	4
275.0	6
275.1	7
275.2	8
275.3	8
275.4	6
275.5	4
292.3	1
292.4	3
292.5	6
292.6	9
292.7	16
292.8	31
292.9	53
293.0	77
293.1	94
293.2	99
293.3	94
293.4	80
293.5	55
293.6	27
293.7	5
293.8	0
