Mass spectrum: Bicuculline; LC-ESI-QQQ; MS2; Frag=135.0V CID@15.0; [M+H]+
Name: Bicuculline
Class: Alkaloids
Formula: C20H17NO6
Exact mass: 367.3616
SMILES: CN1CCc2cc3c(cc2[C@H]1[C@@H]1OC(=O)c2c1ccc1c2OCO1)OCO3
InChI: InChI=1S/C20H17NO6/c1-21-5-4-10-6-14-15(25-8-24-14)7-12(10)17(21)18-11-2-3-13-19(26-9-23-13)16(11)20(22)27-18/h2-3,6-7,17-18H,4-5,8-9H2,1H3/t17-,18+/m0/s1
Instrument: Agilent 6410 Triple Quadrupole LC/MS system
Instrument type: LC-ESI-QQQ
Ms type: MS2
Ion mode: POSITIVE
Precursor type: [M+H]+
m/z	relative intensity
189.5	3
189.6	4
189.7	7
189.8	11
189.9	16
190.0	20
190.1	22
190.2	22
190.3	19
190.4	14
190.5	8
190.6	2
276.6	1
276.7	2
276.8	4
276.9	6
277.0	7
277.1	7
277.2	6
277.3	5
277.4	4
277.5	1
306.3	1
306.4	3
306.5	8
306.6	15
306.7	27
306.8	43
306.9	60
307.0	75
307.1	81
307.2	79
307.3	67
307.4	45
307.5	21
307.6	3
318.6	2
318.7	3
318.8	5
318.9	7
319.0	10
319.1	11
319.2	11
319.3	9
319.4	6
319.5	3
367.2	0
367.3	1
367.4	4
367.5	8
367.6	15
367.7	27
367.8	43
367.9	63
368.0	83
368.1	96
368.2	99
368.3	91
368.4	71
368.5	43
368.6	16
368.7	1
