Mass spectrum: Smilagenin ((3beta,5beta,25R)-form); LC-ESI-QQQ; MS2; Frag=135.0V CID@15.0; [M+H]+
Name: Isosarsasapogenin
Name: (25R)-5beta-Spirostan-3beta-ol
Name: 16,22:22,26-Bis(epoxy)cholestan-3beta-ol
Name: 5beta,20alpha,22alpha,25D-Spiranostan-3beta-ol
Name: Smilagenin ((3beta,5beta,25R)-form)
Class: Steroids
Formula: C27H44O3
Exact mass: 416.6499
SMILES: C[C@H]1C2C(CC3C4CCC5CC(O)CC[C@]5(C)C4CC[C@@]32C)O[C@]12CC[C@@H](C)CO2
InChI: InChI=1S/C27H44O3/c1-16-7-12-27(29-15-16)17(2)24-23(30-27)14-22-20-6-5-18-13-19(28)8-10-25(18,3)21(20)9-11-26(22,24)4/h16-24,28H,5-15H2,1-4H3/t16-,17+,18?,19?,20?,21?,22?,23?,24?,25+,26+,27-/m1/s1
Instrument: Agilent 6410 Triple Quadrupole LC/MS system
Instrument type: LC-ESI-QQQ
Ms type: MS2
Ion mode: POSITIVE
Precursor type: [M+H]+
m/z	relative intensity
254.6	1
254.7	2
254.8	5
254.9	9
255.0	13
255.1	17
255.2	19
255.3	19
255.4	16
255.5	12
255.6	6
255.7	2
272.3	0
272.4	1
272.5	4
272.6	10
272.7	18
272.8	29
272.9	43
273.0	59
273.1	78
273.2	93
273.3	99
273.4	89
273.5	63
273.6	31
273.7	7
273.8	0
416.4	0
416.5	1
416.6	3
416.7	6
416.8	10
416.9	14
417.0	19
417.1	25
417.2	30
417.3	33
417.4	35
417.5	32
417.6	24
417.7	13
417.8	3
