Mass spectrum: 2-Deoxycrustecdysone; LC-ESI-QQQ; MS2; Frag=135.0V CID@5.0; [M+H]+
Name: 2-Deoxycrustecdysone
Class: Steroids
Formula: C27H44O6
Exact mass: 464.6481
SMILES: CC(C)(O)CC[C@@H](O)[C@](C)(O)C1CC[C@@]2(O)C3=CC(=O)[C@@H]4C[C@@H](O)CC[C@]4(C)C3CC[C@]12C
InChI: InChI=1S/C27H44O6/c1-23(2,31)10-9-22(30)26(5,32)21-8-13-27(33)18-15-20(29)19-14-16(28)6-11-24(19,3)17(18)7-12-25(21,27)4/h15-17,19,21-22,28,30-33H,6-14H2,1-5H3/t16-,17?,19-,21?,22+,24+,25+,26+,27+/m0/s1
Instrument: Agilent 6410 Triple Quadrupole LC/MS system
Instrument type: LC-ESI-QQQ
Ms type: MS2
Ion mode: POSITIVE
Precursor type: [M+H]+
m/z	relative intensity
286.7	2
286.8	3
286.9	6
287.0	9
287.1	12
287.2	13
287.3	12
287.4	9
287.5	5
287.6	2
354.3	0
354.4	2
354.5	5
354.6	8
354.7	13
354.8	22
354.9	36
355.0	54
355.1	71
355.2	84
355.3	89
355.4	82
355.5	62
355.6	34
355.7	9
355.8	0
410.7	1
410.8	3
410.9	5
411.0	9
411.1	12
411.2	15
411.3	17
411.4	16
411.5	12
411.6	6
411.7	2
428.3	1
428.4	2
428.5	4
428.6	7
428.7	9
428.8	13
428.9	23
429.0	41
429.1	64
429.2	85
429.3	95
429.4	91
429.5	70
429.6	40
429.7	13
429.8	0
446.6	2
446.7	3
446.8	5
446.9	10
447.0	16
447.1	23
447.2	28
447.3	30
447.4	29
447.5	24
447.6	14
447.7	5
447.8	0
464.3	0
464.4	1
464.5	4
464.6	8
464.7	13
464.8	21
464.9	35
465.0	53
465.1	72
465.2	88
465.3	98
465.4	99
465.5	87
465.6	61
465.7	29
465.8	5
465.9	0
