Mass spectrum: Bovoside A; LC-ESI-QQQ; MS2; Frag=135.0V CID@10.0 ; [M+H]+
Name: Bovoside A
Class: Steroids
Formula: C31H44O9
Exact mass: 560.69093
SMILES: COC1C(O)C(C)OC(OC2CC[C@]3(C=O)C4CC[C@]5(C)C(c6ccc(=O)oc6)CCC5(O)C4CC[C@H]3C2)C1O
InChI: InChI=1S/C31H44O9/c1-17-25(34)27(37-3)26(35)28(39-17)40-20-8-12-30(16-32)19(14-20)5-6-23-22(30)9-11-29(2)21(10-13-31(23,29)36)18-4-7-24(33)38-15-18/h4,7,15-17,19-23,25-28,34-36H,5-6,8-14H2,1-3H3/t17?,19-,20?,21?,22?,23?,25?,26?,27?,28?,29+,30+,31?/m0/s1
Instrument: Agilent 6410 Triple Quadrupole LC/MS system
Instrument type: LC-ESI-QQQ
Ms type: MS2
Ion mode: POSITIVE
Precursor type: [M+H]+
m/z	relative intensity
560.3	1
560.4	2
560.5	5
560.6	8
560.7	13
560.8	22
560.9	37
561.0	57
561.1	77
561.2	93
561.3	99
561.4	95
561.5	80
561.6	55
561.7	27
561.8	6
561.9	0
