Mass spectrum: Ormosanine; LC-ESI-QQQ; MS2; Frag=135.0V CID@10.0; [M+H]+
Name: 1-((2R)(2-piperidyl))(1S,10S,2R)-3,15-diazatetracyclo(7.7.1.0(2,7).0(10,15))heptadecane
Name: Ormosanine
Class: Alkaloids
Formula: C20H35N3
Exact mass: 317.5221
SMILES: C1CCC([C@@]23CC(CC4CCCN[C@H]42)[C@@H]2CCCCN2C3)NC1
InChI: InChI=1S/C20H35N3/c1-3-9-21-18(8-1)20-13-16(12-15-6-5-10-22-19(15)20)17-7-2-4-11-23(17)14-20/h15-19,21-22H,1-14H2/t15?,16?,17-,18?,19+,20-/m0/s1
Instrument: Agilent 6410 Triple Quadrupole LC/MS system
Instrument type: LC-ESI-QQQ
Ms type: MS2
Ion mode: POSITIVE
Precursor type: [M+H]+
m/z	relative intensity
317.4	1
317.5	2
317.6	5
317.7	9
317.8	19
317.9	36
318.0	57
318.1	77
318.2	92
318.3	99
318.4	96
318.5	81
318.6	54
318.7	25
318.8	5
318.9	0
