Mass spectrum: Pseudojervine; LC-ESI-QQQ; MS2; Frag=135.0V CID@5.0; [M+H]+
Name: Pseudojervine
Class: Alkaloids
Formula: C33H49NO8
Exact mass: 587.7604
SMILES: CC1=C2C(=O)[C@H]3C(CC=C4CC(O[C@@H]5O[C@H](CO)[C@@H](O)[C@H](O)[C@H]5O)CCC43C)[C@@H]2CC[C@]12O[C@@H]1CC(C)CN[C@H]1[C@H]2C
InChI: InChI=1S/C33H49NO8/c1-15-11-22-26(34-13-15)17(3)33(42-22)10-8-20-21-6-5-18-12-19(40-31-30(39)29(38)27(36)23(14-35)41-31)7-9-32(18,4)25(21)28(37)24(20)16(33)2/h5,15,17,19-23,25-27,29-31,34-36,38-39H,6-14H2,1-4H3/t15?,17-,19?,20+,21?,22-,23-,25-,26+,27-,29+,30-,31-,32?,33+/m1/s1
Instrument: Agilent 6410 Triple Quadrupole LC/MS system
Instrument type: LC-ESI-QQQ
Ms type: MS2
Ion mode: POSITIVE
Precursor type: [M+H]+
m/z	relative intensity
587.4	0
587.5	2
587.6	5
587.7	11
587.8	20
587.9	33
588.0	51
588.1	70
588.2	87
588.3	98
588.4	99
588.5	91
588.6	72
588.7	46
588.8	21
588.9	3
