Mass spectrum: Iso-gamma-fagarine; LC-ESI-QQQ; MS2; Frag=135.0V CID@25.0; [M+H]+
Name: 8-methoxy-9-methyl-9-hydrofurano(2,3-b)quinolin-4-one
Name: 8-methoxy-9-methyl-iso-gamma-fagarine
Name: Iso-gamma-fagarine
Class: Alkaloids
Formula: C13H11NO3
Exact mass: 229.2375
SMILES: COc1cccc2c(=O)c3ccoc3n(C)c12
InChI: InChI=1S/C13H11NO3/c1-14-11-8(4-3-5-10(11)16-2)12(15)9-6-7-17-13(9)14/h3-7H,1-2H3
Instrument: Agilent 6410 Triple Quadrupole LC/MS system
Instrument type: LC-ESI-QQQ
Ms type: MS2
Ion mode: POSITIVE
Precursor type: [M+H]+
m/z	relative intensity
157.7	2
157.8	3
157.9	4
158.0	5
158.1	6
158.2	5
158.3	4
158.8	3
158.9	4
159.0	5
159.1	6
159.2	5
159.3	4
159.4	3
185.5	5
185.6	7
185.7	10
185.8	16
185.9	22
186.0	26
186.1	27
186.2	26
186.3	23
186.4	18
186.5	12
186.7	9
186.8	14
186.9	20
187.0	25
187.1	27
187.2	26
187.3	22
187.4	14
187.5	7
187.6	1
213.4	1
213.5	2
213.6	5
213.7	9
213.8	13
213.9	17
214.0	19
214.1	20
214.2	20
214.3	19
214.4	18
214.5	20
214.6	27
214.7	41
214.8	59
214.9	78
215.0	93
215.1	99
215.2	96
215.3	82
215.4	58
215.5	30
215.6	7
215.7	0
229.5	1
229.6	3
229.7	5
229.8	8
229.9	11
230.0	14
230.1	16
230.2	15
230.3	13
230.4	9
230.5	4
230.6	1
