Mass spectrum: Testosterone; LC-ESI-QQQ; MS2; Frag=135.0V CID@5.0; [M+H]+
Name: Testosterone
Class: Steroids
Formula: C19H28O2
Exact mass: 288.4338
SMILES: C[C@]12CC[C@H]3[C@@H](CCC4=CC(=O)CC[C@@]43C)[C@@H]1CC[C@@H]2O
InChI: InChI=1S/C19H28O2/c1-18-9-7-13(20)11-12(18)3-4-14-15-5-6-17(21)19(15,2)10-8-16(14)18/h11,14-17,21H,3-10H2,1-2H3/t14-,15-,16-,17-,18-,19-/m0/s1
Instrument: Agilent 6410 Triple Quadrupole LC/MS system
Instrument type: LC-ESI-QQQ
Ms type: MS2
Ion mode: POSITIVE
Precursor type: [M+H]+
m/z	relative intensity
288.4	0
288.5	3
288.6	8
288.7	16
288.8	28
288.9	46
289.0	68
289.1	87
289.2	99
289.3	99
289.4	89
289.5	66
289.6	37
289.7	12
289.8	0
