Mass spectrum: Haplophyllidine; LC-ESI-QQQ; MS2; Frag=135.0V CID@5.0; [M+H]+
Name: Haplophyllidine
Class: Alkaloids
Formula: C18H23NO4
Exact mass: 317.3883
SMILES: COc1c2c(nc3occc13)C(CC=C(C)C)(OC)C(O)CC2
InChI: InChI=1S/C18H23NO4/c1-11(2)7-9-18(22-4)14(20)6-5-12-15(21-3)13-8-10-23-17(13)19-16(12)18/h7-8,10,14,20H,5-6,9H2,1-4H3
Instrument: Agilent 6410 Triple Quadrupole LC/MS system
Instrument type: LC-ESI-QQQ
Ms type: MS2
Ion mode: POSITIVE
Precursor type: [M+H]+
m/z	relative intensity
217.6	2
217.7	3
217.8	6
217.9	8
218.0	9
218.1	10
218.2	9
218.3	8
218.4	5
218.5	3
285.3	1
285.4	3
285.5	6
285.6	11
285.7	20
285.8	36
285.9	58
286.0	81
286.1	96
286.2	99
286.3	91
286.4	71
286.5	44
286.6	19
286.7	2
317.8	2
317.9	4
318.0	6
318.1	7
318.2	8
318.3	8
318.4	6
318.5	4
