Mass spectrum: 17alpha-Strophadogenin; LC-ESI-QQQ; MS2; Frag=135.0V CID@5.0; [M+HCOO]-
Name: 17alpha-Strophadogenin
Class: Steroids
Formula: C23H32O7
Exact mass: 420.5073
SMILES: C[C@]12CCC3C(CCC4(O)CC(O)CC[C@]34C=O)C1(O)CC(O)[C@H]2C1=CC(=O)OC1
InChI: InChI=1S/C23H32O7/c1-20-5-3-15-16(4-7-22(28)9-14(25)2-6-21(15,22)12-24)23(20,29)10-17(26)19(20)13-8-18(27)30-11-13/h8,12,14-17,19,25-26,28-29H,2-7,9-11H2,1H3/t14?,15?,16?,17?,19-,20-,21+,22?,23?/m1/s1
Instrument: Agilent 6410 Triple Quadrupole LC/MS system
Instrument type: LC-ESI-QQQ
Ms type: MS2
Ion mode: NEGATIVE
Precursor type: [M+HCOO]-
m/z	relative intensity
400.3	0
400.4	2
400.5	9
400.6	21
400.7	35
400.8	48
400.9	59
401.0	69
401.1	76
401.2	78
401.3	76
401.4	67
401.5	47
401.6	23
401.7	4
401.8	0
418.3	0
418.4	1
418.5	4
418.6	8
418.7	12
418.8	16
418.9	18
419.0	19
419.1	21
419.2	23
419.3	23
419.4	18
419.5	11
419.6	3
419.7	0
464.2	0
464.3	0
464.4	3
464.5	12
464.6	28
464.7	46
464.8	61
464.9	71
465.0	80
465.1	91
465.2	99
465.3	98
465.4	82
465.5	56
465.6	26
465.7	5
465.8	0
