Mass spectrum: betulonaldehyde; LC-ESI-QQQ; MS2; Frag=135.0V CID@10.0; [M+H]+
Name: betulonaldehyde
Class: Terpenoids
Formula: C30H46O2
Exact mass: 438.6999
SMILES: C=C(C)[C@@H]1CCC2(C=O)CC[C@]3(C)C(CCC4[C@@]5(C)CCC(=O)C(C)(C)C5CC[C@]43C)C12
InChI: InChI=1S/C30H46O2/c1-19(2)20-10-15-30(18-31)17-16-28(6)21(25(20)30)8-9-23-27(5)13-12-24(32)26(3,4)22(27)11-14-29(23,28)7/h18,20-23,25H,1,8-17H2,2-7H3/t20-,21?,22?,23?,25?,27-,28+,29+,30?/m0/s1
Instrument: Agilent 6410 Triple Quadrupole LC/MS system
Instrument type: LC-ESI-QQQ
Ms type: MS2
Ion mode: POSITIVE
Precursor type: [M+H]+
m/z	relative intensity
108.6	1
108.7	2
108.8	4
108.9	5
109.0	4
109.1	3
176.4	0
176.5	2
176.6	7
176.7	14
176.8	20
176.9	24
177.0	26
177.1	28
177.2	28
177.3	25
177.4	19
177.5	11
177.6	4
177.7	0
188.7	1
188.8	2
188.9	4
189.0	6
189.1	7
189.2	6
189.3	4
189.4	2
202.8	1
202.9	3
203.0	4
203.1	4
203.2	3
220.7	1
220.8	3
220.9	4
221.0	5
221.1	3
221.2	2
244.9	2
245.0	3
245.1	4
245.2	5
245.3	4
245.4	2
326.8	1
326.9	3
327.0	6
327.1	7
327.2	6
327.3	4
327.4	2
410.6	1
410.7	2
410.8	3
410.9	5
411.0	6
411.1	6
411.2	3
411.3	1
420.5	0
420.6	2
420.7	5
420.8	10
420.9	15
421.0	20
421.1	26
421.2	36
421.3	48
421.4	52
421.5	44
421.6	25
421.7	7
421.8	0
438.3	1
438.4	3
438.5	6
438.6	10
438.7	14
438.8	17
438.9	24
439.0	38
439.1	56
439.2	73
439.3	89
439.4	99
439.5	93
439.6	65
439.7	29
439.8	3
