Mass spectrum: betulonaldehyde; LC-ESI-QQQ; MS2; Frag=135.0V CID@5.0 ; [M+H]+
Name: betulonaldehyde
Class: Terpenoids
Formula: C30H46O2
Exact mass: 438.6999200000001
SMILES: C=C(C)[C@@H]1CCC2(C=O)CC[C@]3(C)C(CCC4[C@@]5(C)CCC(=O)C(C)(C)C5CC[C@]43C)C12
InChI: InChI=1S/C30H46O2/c1-19(2)20-10-15-30(18-31)17-16-28(6)21(25(20)30)8-9-23-27(5)13-12-24(32)26(3,4)22(27)11-14-29(23,28)7/h18,20-23,25H,1,8-17H2,2-7H3/t20-,21?,22?,23?,25?,27-,28+,29+,30?/m0/s1
Instrument: Agilent 6410 Triple Quadrupole LC/MS system
Instrument type: LC-ESI-QQQ
Ms type: MS2
Ion mode: POSITIVE
Precursor type: [M+H]+
m/z	relative intensity
176.6	1
176.7	3
176.8	5
176.9	7
177.0	7
177.1	5
177.2	2
393.0	0
393.1	2
393.2	4
393.3	5
393.4	4
393.5	2
420.6	0
420.7	2
420.8	5
420.9	8
421.0	11
421.1	13
421.2	13
421.3	13
421.4	11
421.5	7
421.6	3
421.7	1
438.4	0
438.5	1
438.6	4
438.7	10
438.8	22
438.9	38
439.0	55
439.1	71
439.2	85
439.3	95
439.4	99
439.5	94
439.6	73
439.7	40
439.8	10
439.9	0
