Mass spectrum: 3-O-Acetyldiosgenin; LC-ESI-QQQ; MS2; Frag=135.0V CID@25.0 ; [M+H]+
Name: 3-O-Acetyldiosgenin
Class: Steroids
Formula: C29H44O4
Exact mass: 456.67163
SMILES: CC(=O)OC1CC[C@@]2(C)C(=CCC3C4CC5O[C@]6(CCC(C)CO6)C(C)C5[C@@]4(C)CCC32)C1
InChI: InChI=1S/C29H44O4/c1-17-8-13-29(31-16-17)18(2)26-25(33-29)15-24-22-7-6-20-14-21(32-19(3)30)9-11-27(20,4)23(22)10-12-28(24,26)5/h6,17-18,21-26H,7-16H2,1-5H3/t17?,18?,21?,22?,23?,24?,25?,26?,27-,28-,29+/m0/s1
Instrument: Agilent 6410 Triple Quadrupole LC/MS system
Instrument type: LC-ESI-QQQ
Ms type: MS2
Ion mode: POSITIVE
Precursor type: [M+H]+
m/z	relative intensity
68.4	3
68.5	4
68.6	6
68.7	10
68.8	14
68.9	18
69.0	20
69.1	23
69.2	25
69.3	25
69.4	19
69.5	10
69.6	3
106.6	3
106.7	4
106.8	7
106.9	9
107.0	9
107.1	9
107.2	8
107.3	6
107.4	4
108.5	2
108.6	5
108.7	11
108.8	19
108.9	29
109.0	36
109.1	36
109.2	29
109.3	19
109.4	12
109.5	7
109.6	4
120.4	2
120.5	4
120.6	8
120.7	12
120.8	14
120.9	15
121.0	15
121.1	13
121.2	9
121.3	6
130.5	2
130.6	4
130.7	9
130.8	14
130.9	16
131.0	13
131.1	7
131.2	2
132.5	2
132.6	6
132.7	11
132.8	13
132.9	12
133.0	8
133.1	5
142.4	2
142.5	3
142.6	7
142.7	13
142.8	18
142.9	18
143.0	13
143.1	6
144.8	3
144.9	6
145.0	10
145.1	11
145.2	10
145.3	5
146.2	3
146.3	5
146.4	8
146.5	8
146.6	8
146.7	8
146.8	11
146.9	15
147.0	16
147.1	14
147.2	9
147.3	4
148.6	3
148.7	4
148.8	7
148.9	10
149.0	11
149.1	8
156.3	0
156.4	7
156.5	22
156.6	38
156.7	45
156.8	42
156.9	42
157.0	48
157.1	52
157.2	47
157.3	33
157.4	18
157.5	6
158.5	3
158.6	5
158.7	6
158.8	7
158.9	8
159.0	9
159.1	8
159.2	7
159.3	7
159.4	6
159.5	5
184.9	3
185.0	5
185.1	7
185.2	7
185.3	5
210.8	3
210.9	6
211.0	9
211.1	8
211.2	5
252.5	2
252.6	4
252.7	11
252.8	29
252.9	55
253.0	82
253.1	98
253.2	95
253.3	73
253.4	41
253.5	14
253.6	1
312.7	2
312.8	4
312.9	7
313.0	11
313.1	14
313.2	13
313.3	10
313.4	5
