Mass spectrum: Aucubin; LC-ESI-QQQ; MS2; Frag=135.0V CID@25.0; [M+HCOO]-
Name: Aucubin
Class: Terpenoids
Formula: C15H22O9
Exact mass: 346.3372
SMILES: OCC1=C[C@@H](O)[C@@H]2C=COC(OC3OC(CO)C(O)C(O)C3O)[C@H]12
InChI: InChI=1S/C15H22O9/c16-4-6-3-8(18)7-1-2-22-14(10(6)7)24-15-13(21)12(20)11(19)9(5-17)23-15/h1-3,7-21H,4-5H2/t7-,8+,9?,10+,11?,12?,13?,14?,15?/m0/s1
Instrument: Agilent 6410 Triple Quadrupole LC/MS system
Instrument type: LC-ESI-QQQ
Ms type: MS2
Ion mode: NEGATIVE
Precursor type: [M+HCOO]-
m/z	relative intensity
134.3	4
134.4	6
134.5	9
134.6	11
134.7	10
134.8	7
136.1	4
136.2	6
136.3	9
136.4	10
136.5	8
138.2	1
138.3	2
138.4	11
138.5	29
138.6	50
138.7	60
138.8	54
138.9	39
139.0	26
139.1	17
139.2	9
139.3	5
164.5	0
164.6	2
164.7	15
164.8	44
164.9	79
165.0	98
165.1	88
165.2	57
165.3	29
165.4	8
