Mass spectrum: Brevicarine, N-Ac; LC-ESI-QQQ; MS2; Frag=135.0V CID@5.0; [M+H]+
Name: Brevicarine, N-Ac
Class: Alkaloids
Formula: C19H23N3O
Exact mass: 309.4147
SMILES: CC(=O)N(C)CCCCc1cnc(C)c2[nH]c3ccccc3c12
InChI: InChI=1S/C19H23N3O/c1-13-19-18(16-9-4-5-10-17(16)21-19)15(12-20-13)8-6-7-11-22(3)14(2)23/h4-5,9-10,12,21H,6-8,11H2,1-3H3
Instrument: Agilent 6410 Triple Quadrupole LC/MS system
Instrument type: LC-ESI-QQQ
Ms type: MS2
Ion mode: POSITIVE
Precursor type: [M+H]+
m/z	relative intensity
309.4	0
309.5	2
309.6	5
309.7	13
309.8	26
309.9	45
310.0	68
310.1	88
310.2	99
310.3	99
310.4	87
310.5	63
310.6	33
310.7	9
310.8	0
