Mass spectrum: Convoline; LC-ESI-QQQ; MS2; Frag=135.0V CID@15.0; [M+H]+
Name: Convoline
Class: Alkaloids
Formula: C16H21NO5
Exact mass: 307.3495
SMILES: COc1ccc(C(=O)OC2C[C@@H]3CC[C@H](C2)N3O)cc1OC
InChI: InChI=1S/C16H21NO5/c1-20-14-6-3-10(7-15(14)21-2)16(18)22-13-8-11-4-5-12(9-13)17(11)19/h3,6-7,11-13,19H,4-5,8-9H2,1-2H3/t11-,12+,13?
Instrument: Agilent 6410 Triple Quadrupole LC/MS system
Instrument type: LC-ESI-QQQ
Ms type: MS2
Ion mode: POSITIVE
Precursor type: [M+H]+
m/z	relative intensity
92.3	0
92.4	1
92.5	4
92.6	8
92.7	13
92.8	20
92.9	27
93.0	33
93.1	36
93.2	35
93.3	30
93.4	23
93.5	14
93.6	5
93.7	0
125.3	1
125.4	4
125.5	8
125.6	16
125.7	28
125.8	45
125.9	64
126.0	78
126.1	84
126.2	81
126.3	72
126.4	57
126.5	35
126.6	14
126.7	1
164.6	2
164.7	3
164.8	5
164.9	7
165.0	9
165.1	9
165.2	9
165.3	8
165.4	6
165.5	3
307.3	1
307.4	3
307.5	6
307.6	11
307.7	21
307.8	36
307.9	58
308.0	80
308.1	95
308.2	99
308.3	93
308.4	75
308.5	49
308.6	21
308.7	3
