Mass spectrum: Auraptene; LC-ESI-QQQ; MS2; Frag=135.0V CID@10.0; [M+H]+
Name: Auraptene
Class: Benzopyranoids
Formula: C19H22O3
Exact mass: 298.3854
SMILES: CC(C)=CCC/C(C)=C/COc1ccc2ccc(=O)oc2c1
InChI: InChI=1S/C19H22O3/c1-14(2)5-4-6-15(3)11-12-21-17-9-7-16-8-10-19(20)22-18(16)13-17/h5,7-11,13H,4,6,12H2,1-3H3/b15-11+
Instrument: Agilent 6410 Triple Quadrupole LC/MS system
Instrument type: LC-ESI-QQQ
Ms type: MS2
Ion mode: POSITIVE
Precursor type: [M+H]+
m/z	relative intensity
162.2	0
162.3	1
162.4	5
162.5	11
162.6	21
162.7	35
162.8	55
162.9	76
163.0	93
163.1	99
163.2	94
163.3	77
163.4	50
163.5	23
163.6	4
