Mass spectrum: Carmine red; LC-ESI-QQQ; MS2; Frag=135.0V CID@25.0; [M+H]+
Name: Carmine red
Class: Polycyclic aromatic natural products
Formula: C22H20O13
Exact mass: 492.3969
SMILES: Cc1c(C(=O)O)c(O)cc2c1C(=O)c1c(O)c([C@H]3O[C@H](CO)[C@@H](O)[C@H](O)[C@H]3O)c(O)c(O)c1C2=O
InChI: InChI=1S/C22H20O13/c1-4-8-5(2-6(24)9(4)22(33)34)13(25)10-11(15(8)27)16(28)12(18(30)17(10)29)21-20(32)19(31)14(26)7(3-23)35-21/h2,7,14,19-21,23-24,26,28-32H,3H2,1H3,(H,33,34)/t7-,14-,19+,20-,21-/m1/s1
Instrument: Agilent 6410 Triple Quadrupole LC/MS system
Instrument type: LC-ESI-QQQ
Ms type: MS2
Ion mode: POSITIVE
Precursor type: [M+H]+
m/z	relative intensity
324.5	1
324.6	2
324.7	4
324.8	6
324.9	9
325.0	11
325.1	11
325.2	8
325.3	4
336.6	1
336.7	3
336.8	5
336.9	7
337.0	6
337.1	3
354.1	1
354.2	2
354.3	4
354.4	7
354.5	12
354.6	20
354.7	33
354.8	53
354.9	76
355.0	92
355.1	99
355.2	95
355.3	77
355.4	48
355.5	18
355.6	1
372.6	1
372.7	3
372.8	5
372.9	8
373.0	11
373.1	10
373.2	7
373.3	3
378.4	1
378.5	2
378.6	5
378.7	8
378.8	14
378.9	19
379.0	24
379.1	25
379.2	21
379.3	14
379.4	7
379.5	1
390.5	1
390.6	2
390.7	4
390.8	5
390.9	7
391.0	8
391.1	9
391.2	7
391.3	4
391.4	1
402.6	3
402.7	4
402.8	7
402.9	10
403.0	13
403.1	13
403.2	10
403.3	5
403.4	2
408.5	0
408.6	2
408.7	6
408.8	9
408.9	11
409.0	10
409.1	10
409.2	10
409.3	10
409.4	7
409.5	4
420.7	3
420.8	5
420.9	7
421.0	9
421.1	11
421.2	9
421.3	6
421.4	3
