Mass spectrum: turkesterone; LC-ESI-QQQ; MS2; Frag=135.0V CID@10.0; [M+HOO]-
Name: turkesterone
Class: Steroids
Formula: C27H44O8
Exact mass: 496.6469
SMILES: CC(C)(O)CC[C@H](O)[C@](C)(O)C1CC[C@@]2(O)C3=CC(=O)C4CC(O)C(O)C[C@]4(C)C3[C@H](O)C[C@]12C
InChI: InChI=1S/C27H44O8/c1-23(2,33)8-7-21(32)26(5,34)20-6-9-27(35)15-11-16(28)14-10-17(29)18(30)12-24(14,3)22(15)19(31)13-25(20,27)4/h11,14,17-22,29-35H,6-10,12-13H2,1-5H3/t14?,17?,18?,19-,20?,21+,22?,24+,25-,26-,27-/m1/s1
Instrument: Agilent 6410 Triple Quadrupole LC/MS system
Instrument type: LC-ESI-QQQ
Ms type: MS2
Ion mode: NEGATIVE
Precursor type: [M+HOO]-
m/z	relative intensity
250.5	0
250.6	2
250.7	5
250.8	10
250.9	14
251.0	18
251.1	18
251.2	15
251.3	10
251.4	5
251.5	1
316.6	1
316.7	2
316.8	3
316.9	3
317.0	2
334.3	0
334.4	2
334.5	5
334.6	10
334.7	18
334.8	27
334.9	33
335.0	37
335.1	39
335.2	40
335.3	37
335.4	29
335.5	17
335.6	6
335.7	0
476.4	0
476.5	1
476.6	3
476.7	5
476.8	7
476.9	9
477.0	13
477.1	16
477.2	18
477.3	17
477.4	14
477.5	9
477.6	4
477.7	0
494.5	0
494.6	3
494.7	7
494.8	10
494.9	12
495.0	12
495.1	12
495.2	15
495.3	17
495.4	17
495.5	12
495.6	5
495.7	0
540.3	1
540.4	3
540.5	5
540.6	10
540.7	19
540.8	31
540.9	46
541.0	63
541.1	81
541.2	95
541.3	99
541.4	92
541.5	73
541.6	46
541.7	19
541.8	2
