Mass spectrum: Subcusine; LC-ESI-QQQ; MS2; Frag=135.0V CID@10.0; [M+H]+
Name: Subcusine
Class: Alkaloids
Formula: C24H39NO6
Exact mass: 437.5815
SMILES: CCN1C[C@]2(COC)CC[C@H](O)[C@]34C5C[C@@H]6[C@@H](OC)C[C@@](O)(C5[C@H]6O)[C@H](C13)[C@@H](OC)C24
InChI: InChI=1S/C24H39NO6/c1-5-25-10-22(11-29-2)7-6-15(26)24-13-8-12-14(30-3)9-23(28,16(13)18(12)27)17(21(24)25)19(31-4)20(22)24/h12-21,26-28H,5-11H2,1-4H3/t12-,13?,14+,15+,16?,17+,18+,19-,20?,21?,22+,23-,24+/m1/s1
Instrument: Agilent 6410 Triple Quadrupole LC/MS system
Instrument type: LC-ESI-QQQ
Ms type: MS2
Ion mode: POSITIVE
Precursor type: [M+H]+
m/z	relative intensity
437.4	1
437.5	3
437.6	7
437.7	12
437.8	22
437.9	39
438.0	60
438.1	80
438.2	94
438.3	99
438.4	95
438.5	78
438.6	52
438.7	25
438.8	5
438.9	0
