Mass spectrum: Resistomycin; LC-ESI-QQQ; MS2; Frag=135.0V CID@25.0 ; [M+H]+
Name: Resistomycin
Class: Polycyclic aromatic natural products
Formula: C22H16O6
Exact mass: 376.36922000000004
SMILES: Cc1cc(O)c2c3c4c(cc(O)c13)C(C)(C)C(=O)c1c(O)cc(O)c(c1-4)C2=O
InChI: InChI=1S/C22H16O6/c1-7-4-9(23)15-18-13(7)10(24)5-8-14(18)19-16(20(15)27)11(25)6-12(26)17(19)21(28)22(8,2)3/h4-6,23-26H,1-3H3
Instrument: Agilent 6410 Triple Quadrupole LC/MS system
Instrument type: LC-ESI-QQQ
Ms type: MS2
Ion mode: POSITIVE
Precursor type: [M+H]+
m/z	relative intensity
360.9	1
361.0	3
361.1	5
361.2	7
361.3	8
361.4	8
361.5	10
361.6	18
361.7	33
361.8	52
361.9	71
362.0	87
362.1	99
362.2	99
362.3	85
362.4	56
362.5	23
362.6	1
376.3	0
376.4	3
376.5	8
376.6	16
376.7	25
376.8	38
376.9	54
377.0	72
377.1	85
377.2	89
377.3	80
377.4	61
377.5	35
377.6	11
377.7	0
