Mass spectrum: Monocrotaline; LC-ESI-QQQ; MS2; Frag=135.0V CID@25.0; [M+H]+
Name: Monocrotaline
Class: Alkaloids
Formula: C16H23NO6
Exact mass: 325.3648
SMILES: C[C@H]1C(=O)O[C@@H]2CCN3CC=C(COC(=O)C(C)(O)C1(C)O)C23
InChI: InChI=1S/C16H23NO6/c1-9-13(18)23-11-5-7-17-6-4-10(12(11)17)8-22-14(19)16(3,21)15(9,2)20/h4,9,11-12,20-21H,5-8H2,1-3H3/t9-,11+,12?,15?,16?/m0/s1
Instrument: Agilent 6410 Triple Quadrupole LC/MS system
Instrument type: LC-ESI-QQQ
Ms type: MS2
Ion mode: POSITIVE
Precursor type: [M+H]+
m/z	relative intensity
93.7	2
93.8	4
93.9	6
94.0	8
94.1	8
94.2	8
94.3	8
94.4	6
119.4	1
119.5	2
119.6	5
119.7	10
119.8	16
119.9	23
120.0	28
120.1	30
120.2	30
120.3	27
120.4	22
120.7	14
120.8	23
120.9	34
121.0	45
121.1	51
121.2	49
121.3	42
121.4	33
121.5	22
121.6	11
121.9	4
122.0	7
122.1	8
122.2	8
122.3	7
122.4	6
122.5	4
137.7	2
137.8	3
137.9	5
138.0	6
138.1	7
138.2	7
138.3	7
138.4	5
138.5	2
163.6	1
163.7	2
163.8	4
163.9	6
164.0	8
164.1	9
164.2	10
164.3	9
164.4	7
164.5	4
164.6	1
193.5	1
193.6	2
193.7	4
193.8	7
193.9	11
194.0	15
194.1	18
194.2	19
194.3	18
194.4	14
194.5	9
194.6	3
236.6	1
236.7	3
236.8	5
236.9	8
237.0	11
237.1	13
237.2	14
237.3	13
237.4	10
237.5	7
237.6	3
279.7	1
279.8	3
279.9	5
280.0	8
280.1	10
280.2	11
280.3	10
280.4	8
280.5	5
280.6	1
325.4	2
325.5	4
325.6	7
325.7	15
325.8	28
325.9	48
326.0	71
326.1	90
326.2	99
326.3	97
326.4	81
326.5	54
326.6	25
326.7	4
