Mass spectrum: Convolamine; LC-ESI-QQQ; MS2; Frag=135.0V CID@10.0; [M+H]+
Name: Convolamine
Class: Alkaloids
Formula: C17H23NO4
Exact mass: 305.3772
SMILES: COc1ccc(C(=O)O[C@@H]2C[C@@H]3CC[C@H](C2)N3C)cc1OC
InChI: InChI=1S/C17H23NO4/c1-18-12-5-6-13(18)10-14(9-12)22-17(19)11-4-7-15(20-2)16(8-11)21-3/h4,7-8,12-14H,5-6,9-10H2,1-3H3/t12-,13+,14+
Instrument: Agilent 6410 Triple Quadrupole LC/MS system
Instrument type: LC-ESI-QQQ
Ms type: MS2
Ion mode: POSITIVE
Precursor type: [M+H]+
m/z	relative intensity
123.6	2
123.7	3
123.8	6
123.9	9
124.0	12
124.1	13
124.2	14
124.3	13
124.4	11
124.5	7
124.6	3
305.3	0
305.4	1
305.5	4
305.6	9
305.7	18
305.8	33
305.9	53
306.0	75
306.1	91
306.2	99
306.3	98
306.4	85
306.5	61
306.6	32
306.7	8
306.8	0
