Mass spectrum: turkesterone; LC-ESI-QQQ; MS2; Frag=135.0V CID@15.0; [M+HOO]-
Name: turkesterone
Class: Steroids
Formula: C27H44O8
Exact mass: 496.6469
SMILES: CC(C)(O)CC[C@H](O)[C@](C)(O)C1CC[C@@]2(O)C3=CC(=O)C4CC(O)C(O)C[C@]4(C)C3[C@H](O)C[C@]12C
InChI: InChI=1S/C27H44O8/c1-23(2,33)8-7-21(32)26(5,34)20-6-9-27(35)15-11-16(28)14-10-17(29)18(30)12-24(14,3)22(15)19(31)13-25(20,27)4/h11,14,17-22,29-35H,6-10,12-13H2,1-5H3/t14?,17?,18?,19-,20?,21+,22?,24+,25-,26-,27-/m1/s1
Instrument: Agilent 6410 Triple Quadrupole LC/MS system
Instrument type: LC-ESI-QQQ
Ms type: MS2
Ion mode: NEGATIVE
Precursor type: [M+HOO]-
m/z	relative intensity
82.5	0
82.6	3
82.7	6
82.8	8
82.9	8
83.0	7
83.1	4
83.2	2
238.5	0
238.6	2
238.7	7
238.8	15
238.9	23
239.0	25
239.1	22
239.2	19
239.3	17
239.4	13
239.5	7
239.6	1
250.2	0
250.3	1
250.4	4
250.5	8
250.6	13
250.7	19
250.8	24
250.9	27
251.0	31
251.1	35
251.2	38
251.3	35
251.4	24
251.5	10
251.6	1
316.6	1
316.7	3
316.8	6
316.9	8
317.0	7
317.1	5
317.2	2
334.3	0
334.4	2
334.5	9
334.6	21
334.7	34
334.8	49
334.9	68
335.0	87
335.1	99
335.2	99
335.3	85
335.4	61
335.5	33
335.6	10
335.7	0
476.7	1
476.8	2
476.9	8
477.0	18
477.1	29
477.2	37
477.3	40
477.4	33
477.5	21
477.6	8
477.7	1
494.6	3
494.7	4
494.8	6
494.9	8
495.0	11
495.1	14
495.2	18
495.3	20
495.4	18
495.5	13
495.6	6
495.7	1
540.4	1
540.5	3
540.6	5
540.7	9
540.8	16
540.9	27
541.0	42
541.1	54
541.2	60
541.3	62
541.4	56
541.5	41
541.6	20
541.7	4
