Mass spectrum: Bilirubin Ixalpha; LC-ESI-QQQ; MS2; Frag=135.0V CID@10.0; [M+H]+
Name: Haematoidin
Name: Hematoidin
Name: Hemetoidin
Name: Principal bile pigment
Name: Bilirubin Ixalpha
Class: Polypyrroles
Formula: C33H36N4O6
Exact mass: 584.6781
SMILES: C=CC1=C(C)/C(=C/c2[nH]c(Cc3[nH]c(/C=C4\N=C(O)C(C)=C4C=C)c(C)c3CCC(=O)O)c(CCC(=O)O)c2C)N=C1O
InChI: InChI=1S/C33H36N4O6/c1-7-20-19(6)32(42)37-27(20)14-25-18(5)23(10-12-31(40)41)29(35-25)15-28-22(9-11-30(38)39)17(4)24(34-28)13-26-16(3)21(8-2)33(43)36-26/h7-8,13-14,34-35H,1-2,9-12,15H2,3-6H3,(H,36,43)(H,37,42)(H,38,39)(H,40,41)/b26-13-,27-14-
Instrument: Agilent 6410 Triple Quadrupole LC/MS system
Instrument type: LC-ESI-QQQ
Ms type: MS2
Ion mode: POSITIVE
Precursor type: [M+H]+
m/z	relative intensity
264.2	4
264.3	5
264.4	7
264.5	7
264.6	6
264.7	6
264.8	5
264.9	5
265.0	5
265.1	5
265.2	5
265.3	5
265.4	5
265.5	5
265.6	5
265.7	5
265.8	5
265.9	5
266.0	5
266.1	5
266.2	5
266.3	5
266.4	5
266.5	5
266.6	6
266.7	6
266.8	5
266.9	5
267.0	5
267.1	5
267.2	5
267.3	5
267.4	5
267.5	5
267.6	6
267.7	6
267.8	6
267.9	6
268.0	6
268.1	5
268.2	5
268.3	5
268.4	5
268.5	6
268.6	6
268.7	5
268.8	5
268.9	5
269.0	4
269.1	4
269.2	5
269.3	5
269.4	5
269.5	6
269.6	6
269.7	6
269.8	5
269.9	4
270.0	4
270.1	4
270.2	4
270.3	5
270.4	6
270.5	5
270.6	5
270.7	5
270.8	5
270.9	5
271.0	5
271.1	5
271.2	5
271.3	5
271.4	5
271.5	5
271.6	5
271.7	4
271.8	4
271.9	4
272.0	5
272.1	5
272.2	5
272.3	5
272.4	6
272.5	6
272.6	6
272.7	5
272.8	5
272.9	5
273.0	5
273.1	5
273.2	5
273.3	5
273.4	5
273.5	6
273.6	6
273.7	6
273.8	5
273.9	5
274.0	5
274.1	5
274.2	5
274.3	5
274.4	5
274.5	6
274.6	6
274.7	5
274.8	5
274.9	5
275.0	5
275.1	5
275.2	6
275.3	7
275.4	7
275.5	7
275.6	7
275.7	5
275.8	4
275.9	4
276.0	5
276.1	5
276.2	5
276.3	5
276.4	5
276.5	5
276.6	5
276.7	5
276.8	4
276.9	4
277.0	4
277.1	4
277.2	4
277.3	4
277.4	5
277.5	6
277.6	7
277.7	6
277.8	6
277.9	5
278.0	5
278.1	6
278.2	7
278.3	7
278.4	7
278.5	7
278.6	6
278.7	6
278.8	5
278.9	5
279.0	5
279.1	5
279.2	6
279.3	6
279.4	5
279.5	5
279.6	5
279.7	5
279.8	5
279.9	5
280.0	5
280.1	5
280.2	5
280.3	5
280.4	5
280.5	5
280.6	4
280.7	5
280.8	5
280.9	6
281.0	6
281.1	5
281.2	5
281.3	5
281.4	5
281.5	5
281.6	4
281.7	5
281.8	5
281.9	5
282.0	5
282.1	5
282.2	5
282.3	5
282.4	5
282.5	5
282.6	5
282.7	5
282.8	5
282.9	5
283.0	5
283.1	5
283.2	5
283.3	6
283.4	6
283.5	6
283.6	5
283.7	5
283.8	6
283.9	5
284.0	4
284.1	4
284.2	4
284.3	4
284.4	5
284.5	6
284.6	6
284.7	5
284.8	5
284.9	4
285.0	4
285.1	4
285.2	3
285.3	3
285.4	4
285.5	5
285.6	6
285.7	6
285.8	7
285.9	6
286.0	5
286.1	5
286.2	5
286.3	5
286.4	5
286.5	5
286.6	5
286.7	5
286.8	5
286.9	5
287.0	5
287.1	5
287.2	5
287.3	4
287.4	4
287.5	5
287.6	6
287.7	6
287.8	6
287.9	5
288.0	4
288.1	4
288.2	5
288.3	5
288.4	6
288.5	6
288.6	6
288.7	6
288.8	5
288.9	4
289.0	4
289.1	4
289.2	4
289.3	5
289.4	6
289.5	6
289.6	6
289.7	5
289.8	5
289.9	6
290.0	6
290.1	6
290.2	6
290.3	5
290.4	5
290.5	5
290.6	4
290.7	4
290.8	4
290.9	4
291.0	5
291.1	6
291.2	6
291.3	7
291.4	6
291.5	6
291.6	6
291.7	5
291.8	5
291.9	5
292.0	5
292.1	5
292.2	6
292.3	6
292.4	6
292.5	5
292.6	5
292.7	4
292.8	4
292.9	4
293.0	5
293.1	5
293.2	5
293.3	5
293.4	5
293.5	5
293.6	5
293.7	5
293.8	6
293.9	6
294.0	7
294.1	7
294.2	6
294.3	5
294.4	4
294.5	5
294.6	5
294.7	6
294.8	6
294.9	6
295.0	5
295.1	5
295.2	5
295.3	5
295.4	5
295.5	5
295.6	6
295.7	6
295.8	5
295.9	5
296.0	5
296.1	6
296.2	6
296.3	5
296.4	5
296.5	5
296.6	4
296.7	4
296.8	4
296.9	5
297.0	6
297.1	6
297.2	5
297.3	5
297.4	5
297.5	5
297.6	6
297.7	5
297.8	4
297.9	4
298.0	4
298.1	3
298.2	3
298.3	3
298.4	3
298.5	10
298.6	33
298.7	64
298.8	84
298.9	84
299.0	80
299.1	80
299.2	75
299.3	58
299.4	34
299.5	15
299.6	6
583.7	4
583.8	7
583.9	11
584.0	12
584.1	9
584.4	8
584.5	10
584.6	14
584.7	17
584.8	16
584.9	12
585.0	12
585.1	25
585.2	53
585.3	80
585.4	85
585.5	63
585.6	29
585.7	6
