Mass spectrum: 19,28-Epoxy-3-oleananol; LC-ESI-QQQ; MS2; Frag=135.0V CID@15.0; [M+H]+
Name: 19,28-Epoxy-3-oleananol
Class: Terpenoids
Formula: C30H50O2
Exact mass: 442.7318
SMILES: CC1(C)CCC23CC[C@]4(C)C(CCC5[C@@]6(C)CCC(O)C(C)(C)C6CC[C@]54C)C2C1OC3
InChI: InChI=1S/C30H50O2/c1-25(2)14-16-30-17-15-28(6)19(23(30)24(25)32-18-30)8-9-21-27(5)12-11-22(31)26(3,4)20(27)10-13-29(21,28)7/h19-24,31H,8-18H2,1-7H3/t19?,20?,21?,22?,23?,24?,27-,28+,29+,30?/m0/s1
Instrument: Agilent 6410 Triple Quadrupole LC/MS system
Instrument type: LC-ESI-QQQ
Ms type: MS2
Ion mode: POSITIVE
Precursor type: [M+H]+
m/z	relative intensity
94.7	2
94.8	6
94.9	13
95.0	21
95.1	24
95.2	19
95.3	9
95.4	2
162.6	1
162.7	5
162.8	15
162.9	28
163.0	35
163.1	31
163.2	19
163.3	8
163.4	5
190.4	1
190.5	3
190.6	12
190.7	22
190.8	27
190.9	28
191.0	29
191.1	31
191.2	27
191.3	16
191.4	5
202.4	2
202.5	5
202.6	10
202.7	18
202.8	25
202.9	24
203.0	18
203.1	12
203.2	10
203.3	8
203.4	5
216.8	1
216.9	3
217.0	10
217.1	18
217.2	19
217.3	12
217.4	3
394.5	3
394.6	5
394.7	9
394.8	13
394.9	15
395.0	14
395.1	10
412.8	4
412.9	5
413.0	8
413.1	12
413.2	17
413.3	22
413.4	25
413.5	23
413.6	16
413.7	8
413.8	2
424.5	0
424.6	1
424.7	7
424.8	24
424.9	52
425.0	79
425.1	93
425.2	83
425.3	59
425.4	35
425.5	22
425.6	19
425.7	16
425.8	9
425.9	3
442.7	2
442.8	4
442.9	8
443.0	11
443.1	14
443.2	17
443.3	20
443.4	23
443.5	22
443.6	18
443.7	10
443.8	3
