Mass spectrum: 9(11)-dehydrohecogenin; LC-ESI-QQQ; MS2; Frag=135.0V CID@10.0; [M+H]+
Name: 9(11)-dehydrohecogenin
Class: Steroids
Formula: C27H40O4
Exact mass: 428.6175
SMILES: CC1CC[C@@]2(OC1)OC1CC3C4CC[C@H]5CC(O)CC[C@]5(C)C4=CC(=O)[C@]3(C)C1[C@@H]2C
InChI: InChI=1S/C27H40O4/c1-15-7-10-27(30-14-15)16(2)24-22(31-27)12-21-19-6-5-17-11-18(28)8-9-25(17,3)20(19)13-23(29)26(21,24)4/h13,15-19,21-22,24,28H,5-12,14H2,1-4H3/t15?,16-,17-,18?,19?,21?,22?,24?,25-,26+,27+/m0/s1
Instrument: Agilent 6410 Triple Quadrupole LC/MS system
Instrument type: LC-ESI-QQQ
Ms type: MS2
Ion mode: POSITIVE
Precursor type: [M+H]+
m/z	relative intensity
314.6	1
314.7	2
314.8	5
314.9	8
315.0	11
315.1	14
315.2	16
315.3	16
315.4	14
315.5	10
315.6	5
315.7	1
410.6	2
410.7	3
410.8	5
410.9	10
411.0	15
411.1	21
411.2	24
411.3	24
411.4	22
411.5	18
411.6	12
411.7	6
411.8	1
428.4	1
428.5	3
428.6	6
428.7	12
428.8	21
428.9	36
429.0	56
429.1	78
429.2	93
429.3	99
429.4	94
429.5	77
429.6	51
429.7	23
429.8	4
