Mass spectrum: Germine; LC-ESI-QQQ; MS2;  Frag=135.0V CID@5.0 ; [M+HCOO]-
Name: Germine
Class: Alkaloids
Formula: C27H43NO8
Exact mass: 509.6456600000001
SMILES: C[C@H]1CC[C@@H]2N(CC3[C@@H]4C[C@]56O[C@]7(O)C(O)CC[C@@]5(C)C7C[C@@H](O)[C@H]6[C@]4(O)[C@@H](O)C(O)[C@@H]3[C@]2(C)O)C1
InChI: InChI=1S/C27H43NO8/c1-12-4-5-17-24(3,33)19-13(11-28(17)10-12)14-9-25-21(26(14,34)22(32)20(19)31)15(29)8-16-23(25,2)7-6-18(30)27(16,35)36-25/h12-22,29-35H,4-11H2,1-3H3/t12-,13?,14-,15+,16?,17-,18?,19+,20?,21+,22-,23-,24+,25+,26-,27-/m0/s1
Instrument: Agilent 6410 Triple Quadrupole LC/MS system
Instrument type: LC-ESI-QQQ
Ms type: MS2
Ion mode: NEGATIVE
Precursor type: [M+HCOO]-
m/z	relative intensity
489.3	3
489.4	3
489.5	6
489.6	12
489.7	25
489.8	47
489.9	73
490.0	94
490.1	99
490.2	94
490.3	87
490.4	81
490.5	67
490.6	41
490.7	14
490.8	0
507.3	0
507.4	3
507.5	8
507.6	17
507.7	27
507.8	41
507.9	54
508.0	66
508.1	72
508.2	74
508.3	72
508.4	66
508.5	54
508.6	34
508.7	13
508.8	1
553.7	1
553.8	3
553.9	7
554.0	11
554.1	12
554.2	12
554.3	9
554.4	6
554.5	2
