Mass spectrum: Artemisinin; LC-ESI-QQQ; MS2; Frag=135.0V CID@15.0; [M+H]+
Name: Artemisinin
Class: Terpenoids
Formula: C15H22O5
Exact mass: 282.3396
SMILES: C[C@H]1C(=O)O[C@@H]2O[C@@]3(C)CC[C@H]4[C@H](C)CCC1[C@@]24OO3
InChI: InChI=1S/C15H22O5/c1-8-4-5-11-9(2)12(16)17-13-15(11)10(8)6-7-14(3,18-13)19-20-15/h8-11,13H,4-7H2,1-3H3/t8-,9-,10+,11?,13-,14-,15-/m1/s1
Instrument: Agilent 6410 Triple Quadrupole LC/MS system
Instrument type: LC-ESI-QQQ
Ms type: MS2
Ion mode: POSITIVE
Precursor type: [M+H]+
m/z	relative intensity
54.7	1
54.8	3
54.9	6
55.0	8
55.1	7
55.2	6
55.3	4
55.4	2
66.7	1
66.8	2
66.9	5
67.0	7
67.1	7
67.2	6
67.3	3
68.5	2
68.6	3
68.7	4
68.8	6
68.9	8
69.0	10
69.1	9
69.2	6
69.3	3
70.5	1
70.6	2
70.7	5
70.8	9
70.9	13
71.0	13
71.1	11
71.2	8
71.3	5
71.4	2
80.6	2
80.7	4
80.8	6
80.9	9
81.0	10
81.1	11
81.2	12
81.3	12
81.4	10
81.5	6
81.6	2
82.7	1
82.8	3
82.9	5
83.0	6
83.1	5
83.2	4
83.3	2
84.3	1
84.4	2
84.5	4
84.6	5
84.7	6
84.8	6
84.9	7
85.0	11
85.1	13
85.2	14
85.3	11
85.4	7
85.5	2
92.5	2
92.6	4
92.7	7
92.8	12
92.9	16
93.0	17
93.1	17
93.2	16
93.3	14
93.4	9
93.5	4
93.6	0
94.3	1
94.4	2
94.5	5
94.6	10
94.7	16
94.8	22
94.9	28
95.0	32
95.1	34
95.2	33
95.3	28
95.4	18
95.5	8
95.6	1
96.6	1
96.7	3
96.8	5
96.9	8
97.0	11
97.1	12
97.2	11
97.3	8
97.4	4
98.6	2
98.7	3
98.8	5
98.9	7
99.0	7
99.1	6
99.2	5
99.3	4
99.4	2
104.4	1
104.5	1
104.6	4
104.7	11
104.8	18
104.9	24
105.0	24
105.1	21
105.2	18
105.3	15
105.4	11
105.5	6
105.6	2
106.4	0
106.5	2
106.6	5
106.7	10
106.8	17
106.9	22
107.0	25
107.1	24
107.2	21
107.3	17
107.4	11
107.5	5
107.6	0
108.5	1
108.6	2
108.7	4
108.8	7
108.9	11
109.0	13
109.1	14
109.2	14
109.3	12
109.4	8
109.5	4
110.5	1
110.6	2
110.7	4
110.8	6
110.9	7
111.0	7
111.1	7
111.2	7
111.3	6
111.4	4
111.5	2
112.5	1
112.6	3
112.7	6
112.8	9
112.9	10
113.0	10
113.1	8
113.2	7
113.3	5
113.4	2
118.3	1
118.4	3
118.5	5
118.6	8
118.7	13
118.8	20
118.9	27
119.0	31
119.1	30
119.2	26
119.3	21
119.4	13
119.5	6
119.6	0
120.4	3
120.5	4
120.6	6
120.7	11
120.8	18
120.9	27
121.0	34
121.1	37
121.2	36
121.3	28
121.4	17
121.5	7
121.6	1
122.3	1
122.4	2
122.5	6
122.6	12
122.7	18
122.8	23
122.9	27
123.0	32
123.1	37
123.2	40
123.3	36
123.4	25
123.5	11
123.6	2
124.6	1
124.7	3
124.8	7
124.9	11
125.0	13
125.1	14
125.2	13
125.3	11
125.4	7
125.5	3
130.4	0
130.5	1
130.6	4
130.7	9
130.8	16
130.9	24
131.0	30
131.1	32
131.2	31
131.3	25
131.4	17
131.5	9
131.6	2
132.3	1
132.4	2
132.5	4
132.6	6
132.7	10
132.8	16
132.9	24
133.0	30
133.1	34
133.2	33
133.3	26
133.4	17
133.5	8
133.6	2
134.4	1
134.5	2
134.6	4
134.7	6
134.8	8
134.9	11
135.0	14
135.1	16
135.2	18
135.3	18
135.4	14
135.5	7
135.6	2
136.8	2
136.9	5
137.0	7
137.1	9
137.2	8
137.3	5
137.4	3
138.5	0
138.6	2
138.7	4
138.8	7
138.9	8
139.0	11
139.1	14
139.2	16
139.3	14
139.4	9
139.5	4
139.6	1
140.7	1
140.8	3
140.9	6
141.0	8
141.1	8
141.2	6
141.3	3
142.5	1
142.6	2
142.7	5
142.8	8
142.9	12
143.0	15
143.1	16
143.2	15
143.3	12
143.4	7
143.5	3
144.4	3
144.5	6
144.6	9
144.7	13
144.8	23
144.9	37
145.0	50
145.1	56
145.2	54
145.3	47
145.4	34
145.5	19
145.6	6
145.7	0
146.6	2
146.7	4
146.8	8
146.9	11
147.0	14
147.1	15
147.2	14
147.3	11
147.4	7
147.5	3
148.4	4
148.5	5
148.6	8
148.7	14
148.8	21
148.9	29
149.0	34
149.1	38
149.2	41
149.3	39
149.4	27
149.5	12
149.6	1
150.4	1
150.5	4
150.6	9
150.7	17
150.8	28
150.9	41
151.0	52
151.1	58
151.2	57
151.3	49
151.4	37
151.5	23
151.6	9
151.7	2
156.7	2
156.8	4
156.9	6
157.0	10
157.1	12
157.2	12
157.3	9
157.4	4
158.4	5
158.5	7
158.6	11
158.7	17
158.8	27
158.9	39
159.0	50
159.1	56
159.2	53
159.3	43
159.4	30
159.5	16
159.6	6
159.7	1
160.3	1
160.4	3
160.5	7
160.6	10
160.7	16
160.8	25
160.9	36
161.0	42
161.1	44
161.2	41
161.3	35
161.4	23
161.5	10
161.6	1
162.4	1
162.5	3
162.6	6
162.7	10
162.8	14
162.9	21
163.0	29
163.1	35
163.2	37
163.3	36
163.4	32
163.5	22
163.6	10
163.7	1
164.6	1
164.7	2
164.8	4
164.9	5
165.0	5
165.1	6
165.2	6
165.3	6
165.4	5
165.5	2
170.6	1
170.7	2
170.8	6
170.9	11
171.0	13
171.1	13
171.2	11
171.3	8
171.4	5
171.5	2
172.1	1
172.2	3
172.3	5
172.4	8
172.5	12
172.6	18
172.7	27
172.8	42
172.9	65
173.0	87
173.1	99
173.2	99
173.3	87
173.4	66
173.5	39
173.6	14
173.7	0
174.6	3
174.7	4
174.8	6
174.9	7
175.0	8
175.1	7
175.2	7
175.3	7
175.4	5
175.5	2
176.3	1
176.4	3
176.5	6
176.6	11
176.7	18
176.8	25
176.9	30
177.0	33
177.1	36
177.2	40
177.3	41
177.4	33
177.5	20
177.6	6
177.7	0
178.6	3
178.7	3
178.8	5
178.9	9
179.0	14
179.1	18
179.2	17
179.3	14
179.4	8
179.5	3
180.6	1
180.7	3
180.8	7
180.9	10
181.0	11
181.1	10
181.2	10
181.3	8
181.4	6
181.5	3
182.6	1
182.7	3
182.8	6
182.9	10
183.0	12
183.1	11
183.2	9
183.3	8
183.4	6
183.5	3
186.6	2
186.7	4
186.8	7
186.9	11
187.0	15
187.1	17
187.2	18
187.3	16
187.4	11
187.5	5
187.6	1
188.5	2
188.6	4
188.7	8
188.8	13
188.9	17
189.0	20
189.1	21
189.2	21
189.3	19
189.4	14
189.5	7
189.6	2
190.4	0
190.5	1
190.6	4
190.7	11
190.8	25
190.9	42
191.0	58
191.1	67
191.2	67
191.3	58
191.4	42
191.5	23
191.6	8
191.7	0
192.9	1
193.0	3
193.1	5
193.2	5
193.3	3
200.2	0
200.3	1
200.4	4
200.5	7
200.6	9
200.7	13
200.8	21
200.9	35
201.0	48
201.1	56
201.2	57
201.3	51
201.4	40
201.5	24
201.6	9
201.7	0
202.8	4
202.9	5
203.0	7
203.1	8
203.2	8
203.3	7
203.4	5
203.5	2
204.6	3
204.7	4
204.8	6
204.9	9
205.0	14
205.1	19
205.2	22
205.3	22
205.4	17
205.5	10
205.6	2
206.6	2
206.7	3
206.8	5
206.9	7
207.0	11
207.1	15
207.2	16
207.3	12
207.4	7
207.5	2
208.6	0
208.7	1
208.8	4
208.9	7
209.0	8
209.1	8
209.2	8
209.3	6
209.4	4
209.5	2
210.7	1
210.8	2
210.9	5
211.0	8
211.1	9
211.2	7
211.3	3
218.4	2
218.5	3
218.6	6
218.7	11
218.8	19
218.9	28
219.0	38
219.1	45
219.2	46
219.3	41
219.4	28
219.5	14
219.6	3
228.6	0
228.7	2
228.8	9
228.9	17
229.0	24
229.1	26
229.2	22
229.3	15
229.4	8
229.5	3
236.7	1
236.8	3
236.9	5
237.0	5
237.1	5
237.2	3
246.4	2
246.5	4
246.6	5
246.7	8
246.8	14
246.9	23
247.0	31
247.1	35
247.2	36
247.3	34
247.4	26
247.5	14
247.6	3
264.6	0
264.7	2
264.8	4
264.9	7
265.0	9
265.1	10
265.2	8
265.3	6
265.4	5
265.5	3
