Mass spectrum: Isoimperatorin; LC-ESI-QQQ; MS2; Frag=135.0V CID@5.0; [M+H]+
Name: Isoimperatorin
Class: Benzopyranoids
Formula: C16H14O4
Exact mass: 270.2876
SMILES: CC(C)=CCOc1c2ccoc2cc2oc(=O)ccc12
InChI: InChI=1S/C16H14O4/c1-10(2)5-7-19-16-11-3-4-15(17)20-14(11)9-13-12(16)6-8-18-13/h3-6,8-9H,7H2,1-2H3
Instrument: Agilent 6410 Triple Quadrupole LC/MS system
Instrument type: LC-ESI-QQQ
Ms type: MS2
Ion mode: POSITIVE
Precursor type: [M+H]+
m/z	relative intensity
68.6	2
68.7	3
68.8	5
68.9	7
69.0	9
69.1	10
69.2	10
69.3	8
69.4	6
69.5	3
202.2	0
202.3	2
202.4	6
202.5	14
202.6	25
202.7	42
202.8	62
202.9	82
203.0	95
203.1	99
203.2	94
203.3	77
203.4	51
203.5	23
203.6	4
270.6	1
270.7	2
270.8	4
270.9	5
271.0	7
271.1	9
271.2	10
271.3	9
271.4	6
271.5	3
