Mass spectrum: 13-Episclareol; LC-ESI-QQQ; MS2; Frag=135.0V CID@25.0; [M+Na]+
Name: 13-Episclareol
Class: Terpenoids
Formula: C20H36O2
Exact mass: 308.5087
SMILES: C=C[C@](C)(O)CC[C@@H]1[C@@]2(C)CCCC(C)(C)C2CC[C@@]1(C)O
InChI: InChI=1S/C20H36O2/c1-7-18(4,21)13-9-16-19(5)12-8-11-17(2,3)15(19)10-14-20(16,6)22/h7,15-16,21-22H,1,8-14H2,2-6H3/t15?,16-,18+,19+,20-/m1/s1
Instrument: Agilent 6410 Triple Quadrupole LC/MS system
Instrument type: LC-ESI-QQQ
Ms type: MS2
Ion mode: POSITIVE
Precursor type: [M+Na]+
m/z	relative intensity
330.6	1
330.7	7
330.8	26
330.9	56
331.0	74
331.1	71
331.2	68
331.3	82
331.4	98
331.5	88
331.6	51
331.7	15
331.8	0
