Mass spectrum: Foliosidine; LC-ESI-QQQ; MS2; Frag=135.0V CID@15.0; [M+H]+
Name: Foliosidine
Class: Alkaloids
Formula: C16H21NO5
Exact mass: 307.3495
SMILES: COc1cc(=O)n(C)c2c(OCC(O)C(C)(C)O)cccc12
InChI: InChI=1S/C16H21NO5/c1-16(2,20)13(18)9-22-11-7-5-6-10-12(21-4)8-14(19)17(3)15(10)11/h5-8,13,18,20H,9H2,1-4H3
Instrument: Agilent 6410 Triple Quadrupole LC/MS system
Instrument type: LC-ESI-QQQ
Ms type: MS2
Ion mode: POSITIVE
Precursor type: [M+H]+
m/z	relative intensity
203.7	2
203.8	4
203.9	6
204.0	7
204.1	8
204.2	8
204.3	7
204.4	6
204.5	5
204.6	6
204.7	9
204.8	15
204.9	25
205.0	33
205.1	37
205.2	36
205.3	32
205.4	24
205.5	15
205.8	9
205.9	15
206.0	19
206.1	21
206.2	21
206.3	18
206.4	13
206.5	7
206.6	2
217.6	1
217.7	3
217.8	5
217.9	7
218.0	9
218.1	10
218.2	9
218.3	8
218.4	6
218.5	3
229.6	1
229.7	2
229.8	4
229.9	6
230.0	7
230.1	7
230.2	7
230.3	6
230.4	4
230.5	2
289.3	1
289.4	3
289.5	6
289.6	12
289.7	23
289.8	40
289.9	62
290.0	83
290.1	96
290.2	99
290.3	93
290.4	76
290.5	50
290.6	22
290.7	3
307.3	0
307.4	3
307.5	6
307.6	11
307.7	19
307.8	33
307.9	51
308.0	69
308.1	81
308.2	85
308.3	81
308.4	67
308.5	43
308.6	18
308.7	2
