Mass spectrum: 3-Hydroxyspirostan-12-one (3beta,5alpha,25R)-form, Ac; LC-ESI-QQQ; MS2; Frag=135.0V CID@10.0; [M+H]+
Name: 3-Hydroxyspirostan-12-one (3beta,5alpha,25R)-form, Ac
Class: Steroids
Formula: C29H44O5
Exact mass: 472.671
SMILES: CC(=O)OC1CC[C@]2(C)C3CC(=O)[C@@]4(C)C(CC5OC6(CC[C@@H](C)CO6)[C@@H](C)C54)C3CC[C@H]2C1
InChI: InChI=1S/C29H44O5/c1-16-8-11-29(32-15-16)17(2)26-24(34-29)13-23-21-7-6-19-12-20(33-18(3)30)9-10-27(19,4)22(21)14-25(31)28(23,26)5/h16-17,19-24,26H,6-15H2,1-5H3/t16-,17+,19+,20?,21?,22?,23?,24?,26?,27+,28-,29?/m1/s1
Instrument: Agilent 6410 Triple Quadrupole LC/MS system
Instrument type: LC-ESI-QQQ
Ms type: MS2
Ion mode: POSITIVE
Precursor type: [M+H]+
m/z	relative intensity
280.8	1
280.9	3
281.0	5
281.1	5
281.2	6
281.3	5
281.4	5
281.5	3
281.6	1
340.6	1
340.7	2
340.8	3
340.9	5
341.0	7
341.1	9
341.2	11
341.3	11
341.4	10
341.5	7
341.6	4
341.7	1
358.9	3
359.0	3
359.1	4
359.2	5
359.3	5
359.4	5
359.5	3
359.6	1
436.7	1
436.8	2
436.9	3
437.0	6
437.1	8
437.2	9
437.3	9
437.4	8
437.5	7
437.6	4
437.7	1
454.6	1
454.7	3
454.8	5
454.9	9
455.0	13
455.1	17
455.2	19
455.3	19
455.4	18
455.5	14
455.6	8
455.7	3
472.4	0
472.5	3
472.6	8
472.7	15
472.8	26
472.9	41
473.0	59
473.1	78
473.2	92
473.3	99
473.4	99
473.5	89
473.6	67
473.7	37
473.8	10
473.9	0
