Mass spectrum: 3,3',4,4'-tetrahydroxylignan; LC-ESI-QQQ; MS2; Frag=135.0V CID@5.0; [M+H]+
Name: 3,3',4,4'-tetrahydroxylignan
Class: Lignans
Formula: C18H22O4
Exact mass: 302.3736
SMILES: CC(Cc1ccc(O)c(O)c1)C(C)Cc1ccc(O)c(O)c1
InChI: InChI=1S/C18H22O4/c1-11(7-13-3-5-15(19)17(21)9-13)12(2)8-14-4-6-16(20)18(22)10-14/h3-6,9-12,19-22H,7-8H2,1-2H3
Instrument: Agilent 6410 Triple Quadrupole LC/MS system
Instrument type: LC-ESI-QQQ
Ms type: MS2
Ion mode: POSITIVE
Precursor type: [M+H]+
m/z	relative intensity
122.3	1
122.4	2
122.5	5
122.6	10
122.7	17
122.8	24
122.9	30
123.0	33
123.1	32
123.2	28
123.3	21
123.4	13
123.5	6
123.6	1
174.6	1
174.7	3
174.8	6
174.9	10
175.0	12
175.1	12
175.2	12
175.3	11
175.4	9
175.5	6
175.6	2
192.2	0
192.3	1
192.4	4
192.5	9
192.6	16
192.7	27
192.8	43
192.9	65
193.0	85
193.1	97
193.2	99
193.3	94
193.4	79
193.5	54
193.6	25
193.7	3
302.5	1
302.6	2
302.7	3
302.8	6
302.9	9
303.0	13
303.1	14
303.2	14
303.3	12
303.4	10
303.5	6
303.6	2
