Mass spectrum: sipeimine; LC-ESI-QQQ; MS2; Frag=135.0V CID@10.0; [M+H]+
Name: sipeimine
Class: Alkaloids
Formula: C27H43NO3
Exact mass: 429.6487
SMILES: C[C@H]1CC[C@@H]2N(C1)C[C@H]1[C@@H]3C[C@H]4[C@@H](CC(=O)[C@H]5C[C@@H](O)CC[C@@]54C)[C@@H]3CC[C@H]1[C@]2(C)O
InChI: InChI=1S/C27H43NO3/c1-15-4-7-25-27(3,31)21-6-5-17-18(20(21)14-28(25)13-15)11-22-19(17)12-24(30)23-10-16(29)8-9-26(22,23)2/h15-23,25,29,31H,4-14H2,1-3H3/t15-,16-,17+,18+,19-,20-,21+,22-,23+,25-,26+,27-/m0/s1
Instrument: Agilent 6410 Triple Quadrupole LC/MS system
Instrument type: LC-ESI-QQQ
Ms type: MS2
Ion mode: POSITIVE
Precursor type: [M+H]+
m/z	relative intensity
429.4	0
429.5	2
429.6	6
429.7	12
429.8	22
429.9	35
430.0	53
430.1	73
430.2	89
430.3	99
430.4	99
430.5	86
430.6	61
430.7	32
430.8	9
430.9	0
