Mass spectrum: 20-Hydroxyecdysone 2,3:20,22-diacetonide; LC-ESI-QQQ; MS2; Frag=135.0V CID@5.0; [M+H]+
Name: 20-Hydroxyecdysone 2,3:20,22-diacetonide
Class: Steroids
Formula: C33H52O7
Exact mass: 560.7782
SMILES: CC(C)(O)CC[C@H]1OC(C)(C)O[C@]1(C)[C@H]1CC[C@@]2(O)C3=CC(=O)[C@@H]4C[C@H]5OC(C)(C)O[C@H]5C[C@]4(C)[C@H]3CC[C@]12C
InChI: InChI=1S/C33H52O7/c1-27(2,35)13-12-26-32(9,40-29(5,6)39-26)25-11-15-33(36)20-16-22(34)21-17-23-24(38-28(3,4)37-23)18-30(21,7)19(20)10-14-31(25,33)8/h16,19,21,23-26,35-36H,10-15,17-18H2,1-9H3/t19-,21-,23+,24-,25-,26+,30+,31+,32+,33+/m0/s1
Instrument: Agilent 6410 Triple Quadrupole LC/MS system
Instrument type: LC-ESI-QQQ
Ms type: MS2
Ion mode: POSITIVE
Precursor type: [M+H]+
m/z	relative intensity
408.9	1
409.0	2
409.1	4
409.2	5
409.3	4
409.4	3
426.8	3
426.9	4
427.0	5
427.1	6
427.2	7
427.3	7
427.4	7
427.5	5
427.6	2
484.4	1
484.5	3
484.6	4
484.7	6
484.8	10
484.9	18
485.0	30
485.1	41
485.2	49
485.3	53
485.4	52
485.5	45
485.6	32
485.7	17
485.8	4
485.9	0
502.7	0
502.8	2
502.9	5
503.0	9
503.1	11
503.2	11
503.3	10
503.4	10
503.5	9
503.6	6
503.7	3
542.4	1
542.5	3
542.6	4
542.7	4
542.8	5
542.9	8
543.0	11
543.1	16
543.2	20
543.3	25
543.4	28
543.5	28
543.6	21
543.7	12
543.8	3
560.4	1
560.5	3
560.6	7
560.7	10
560.8	14
560.9	23
561.0	40
561.1	61
561.2	80
561.3	93
561.4	99
561.5	99
561.6	84
561.7	54
561.8	21
561.9	1
