Mass spectrum: betulonaldehyde; LC-ESI-QQQ; MS2; Frag=135.0V CID@25.0; [M+H]+
Name: betulonaldehyde
Class: Terpenoids
Formula: C30H46O2
Exact mass: 438.6999
SMILES: C=C(C)[C@@H]1CCC2(C=O)CC[C@]3(C)C(CCC4[C@@]5(C)CCC(=O)C(C)(C)C5CC[C@]43C)C12
InChI: InChI=1S/C30H46O2/c1-19(2)20-10-15-30(18-31)17-16-28(6)21(25(20)30)8-9-23-27(5)13-12-24(32)26(3,4)22(27)11-14-29(23,28)7/h18,20-23,25H,1,8-17H2,2-7H3/t20-,21?,22?,23?,25?,27-,28+,29+,30?/m0/s1
Instrument: Agilent 6410 Triple Quadrupole LC/MS system
Instrument type: LC-ESI-QQQ
Ms type: MS2
Ion mode: POSITIVE
Precursor type: [M+H]+
m/z	relative intensity
80.4	1
80.5	2
80.6	6
80.7	11
80.8	15
80.9	14
81.0	10
81.1	6
81.2	4
82.2	2
82.3	4
82.4	7
82.5	9
82.6	8
94.3	1
94.4	2
94.5	6
94.6	13
94.7	22
94.8	33
94.9	45
95.0	54
95.1	54
95.2	45
95.3	30
95.4	15
95.5	5
104.6	2
104.7	4
104.8	6
104.9	9
105.0	11
105.1	12
105.2	9
105.3	5
106.3	1
106.4	4
106.5	10
106.6	15
106.7	18
106.8	16
106.9	13
107.0	12
107.1	11
107.2	9
107.3	6
107.4	3
108.7	5
108.8	6
108.9	9
109.0	15
109.1	21
109.2	25
109.3	24
109.4	16
109.5	7
109.6	2
118.4	2
118.5	4
118.6	9
118.7	15
118.8	19
118.9	17
119.0	11
119.1	4
120.2	2
120.3	4
120.4	7
120.5	10
120.6	13
120.7	17
120.8	22
120.9	30
121.0	37
121.1	40
121.2	36
121.3	26
121.4	15
121.5	7
121.6	2
122.7	2
122.8	4
122.9	8
123.0	14
123.1	18
123.2	17
123.3	11
123.4	5
126.2	2
126.3	3
126.4	5
126.5	6
126.6	7
126.7	9
126.8	11
126.9	12
127.0	12
127.1	9
127.2	7
127.3	4
130.2	2
130.3	4
130.4	6
130.5	8
130.6	7
130.7	6
130.8	4
132.5	1
132.6	3
132.7	7
132.8	13
132.9	17
133.0	20
133.1	20
133.2	17
133.3	12
133.4	7
133.5	2
134.5	2
134.6	4
134.7	10
134.8	18
134.9	25
135.0	28
135.1	29
135.2	27
135.3	22
135.4	16
135.5	8
135.6	3
136.5	2
136.6	3
136.7	6
136.8	9
136.9	12
137.0	13
137.1	11
137.2	9
144.6	2
144.7	5
144.8	8
144.9	11
145.0	11
145.1	10
145.2	8
145.3	5
145.4	3
146.3	2
146.4	3
146.5	5
146.6	7
146.7	7
146.8	7
146.9	9
147.0	14
147.1	20
147.2	22
147.3	20
147.4	13
147.5	5
148.4	1
148.5	3
148.6	7
148.7	14
148.8	24
148.9	31
149.0	32
149.1	27
149.2	18
149.3	11
149.4	6
149.5	3
150.6	2
150.7	3
150.8	6
150.9	8
151.0	7
151.1	5
156.8	2
156.9	4
157.0	5
157.1	5
157.2	4
158.8	3
158.9	5
159.0	6
159.1	8
159.2	7
159.3	5
159.4	3
162.6	1
162.7	4
162.8	8
162.9	15
163.0	22
163.1	26
163.2	24
163.3	15
163.4	6
163.5	1
172.7	4
172.8	6
172.9	9
173.0	12
173.1	13
173.2	12
173.3	9
173.4	7
173.5	4
174.6	2
174.7	5
174.8	14
174.9	27
175.0	38
175.1	40
175.2	34
175.3	23
175.4	13
175.5	4
176.3	5
176.4	7
176.5	11
176.6	18
176.7	30
176.8	52
176.9	76
177.0	91
177.1	93
177.2	95
177.3	99
177.4	92
177.5	65
177.6	29
177.7	4
184.8	2
184.9	4
185.0	7
185.1	9
185.2	8
185.3	6
185.4	3
188.4	1
188.5	3
188.6	8
188.7	15
188.8	21
188.9	25
189.0	24
189.1	19
189.2	13
189.3	8
189.4	6
189.5	4
190.8	3
190.9	5
191.0	8
191.1	9
191.2	9
191.3	7
191.4	5
191.5	2
196.6	2
196.7	5
196.8	8
196.9	12
197.0	13
197.1	10
197.2	6
197.3	3
198.2	1
198.3	4
198.4	8
198.5	13
198.6	15
198.7	13
200.2	1
200.3	2
200.4	5
200.5	7
200.6	7
200.7	6
200.8	6
200.9	9
201.0	16
201.1	21
201.2	23
201.3	18
201.4	11
201.5	4
202.6	2
202.7	4
202.8	10
202.9	18
203.0	25
203.1	25
203.2	21
203.3	15
203.4	10
203.5	8
203.6	5
203.7	2
204.5	3
204.6	4
204.7	6
204.8	8
204.9	9
205.0	10
205.1	9
205.2	7
205.3	5
214.7	1
214.8	4
214.9	12
215.0	23
215.1	30
215.2	26
215.3	14
215.4	5
230.9	2
231.0	3
231.1	5
231.2	7
231.3	7
231.4	4
238.6	2
238.7	3
238.8	5
238.9	6
239.0	5
239.1	4
242.5	2
242.6	4
242.7	6
242.8	6
242.9	7
243.0	7
243.1	9
243.2	10
243.3	10
243.4	10
243.5	7
243.6	3
268.9	1
269.0	3
269.1	6
269.2	9
269.3	10
269.4	8
269.5	4
420.8	2
420.9	4
421.0	7
421.1	9
421.2	9
421.3	6
438.6	1
438.7	3
438.8	6
438.9	10
439.0	13
439.1	13
439.2	11
439.3	7
439.4	4
