Mass spectrum: 8-hydroxy-2-oxo-1(10),3-guaiadiene-12,6-olide, Ac; LC-ESI-QQQ; MS2; Frag=135.0V CID@15.0; [M+H]+
Name: 8-hydroxy-2-oxo-1(10),3-guaiadiene-12,6-olide, Ac
Class: Terpenoids
Formula: C17H20O5
Exact mass: 304.346
SMILES: CC(=O)O[C@H]1CC(C)=C2C(=O)C=C(C)[C@@H]2[C@H]2OC(=O)[C@@H](C)C12
InChI: InChI=1S/C17H20O5/c1-7-5-11(19)13-8(2)6-12(21-10(4)18)15-9(3)17(20)22-16(15)14(7)13/h5,9,12,14-16H,6H2,1-4H3/t9-,12-,14-,15?,16+/m0/s1
Instrument: Agilent 6410 Triple Quadrupole LC/MS system
Instrument type: LC-ESI-QQQ
Ms type: MS2
Ion mode: POSITIVE
Precursor type: [M+H]+
m/z	relative intensity
68.5	1
68.6	3
68.7	6
68.8	9
68.9	12
69.0	14
69.1	14
69.2	12
69.3	10
69.4	7
69.5	3
69.6	0
160.8	2
160.9	3
161.0	4
161.1	4
161.2	4
161.3	3
161.4	2
170.6	1
170.7	2
170.8	4
170.9	5
171.0	7
171.1	7
171.2	7
171.3	6
171.4	5
171.5	3
174.7	2
174.8	4
174.9	5
175.0	7
175.1	7
175.2	7
175.3	7
175.4	5
175.5	3
188.6	1
188.7	3
188.8	5
188.9	7
189.0	10
189.1	11
189.2	11
189.3	11
189.4	9
189.5	5
189.6	2
198.4	0
198.5	2
198.6	3
198.7	6
198.8	10
198.9	14
199.0	17
199.1	20
199.2	20
199.3	19
199.4	15
199.5	9
199.6	3
216.5	1
216.6	2
216.7	3
216.8	5
216.9	9
217.0	11
217.1	13
217.2	13
217.3	12
217.4	10
217.5	7
217.6	3
244.3	1
244.4	3
244.5	8
244.6	16
244.7	28
244.8	44
244.9	63
245.0	83
245.1	97
245.2	99
245.3	88
245.4	64
245.5	35
245.6	12
245.7	0
