Mass spectrum: turkesterone; LC-ESI-QQQ; MS2; Frag=135.0V CID@5.0; [M+H]+
Name: turkesterone
Class: Steroids
Formula: C27H44O8
Exact mass: 496.6469
SMILES: CC(C)(O)CC[C@H](O)[C@](C)(O)C1CC[C@@]2(O)C3=CC(=O)C4CC(O)C(O)C[C@]4(C)C3[C@H](O)C[C@]12C
InChI: InChI=1S/C27H44O8/c1-23(2,33)8-7-21(32)26(5,34)20-6-9-27(35)15-11-16(28)14-10-17(29)18(30)12-24(14,3)22(15)19(31)13-25(20,27)4/h11,14,17-22,29-35H,6-10,12-13H2,1-5H3/t14?,17?,18?,19-,20?,21+,22?,24+,25-,26-,27-/m1/s1
Instrument: Agilent 6410 Triple Quadrupole LC/MS system
Instrument type: LC-ESI-QQQ
Ms type: MS2
Ion mode: POSITIVE
Precursor type: [M+H]+
m/z	relative intensity
326.8	2
326.9	3
327.0	6
327.1	8
327.2	8
327.3	5
327.4	2
345.0	2
345.1	4
345.2	6
345.3	8
345.4	7
345.5	4
362.8	2
362.9	4
363.0	6
363.1	7
363.2	7
363.3	6
363.4	5
363.5	4
386.2	1
386.3	2
386.4	4
386.5	6
386.6	5
386.7	5
386.8	6
386.9	9
387.0	15
387.1	21
387.2	22
387.3	19
387.4	13
387.5	6
387.6	2
424.7	2
424.8	4
424.9	6
425.0	8
425.1	9
425.2	11
425.3	10
425.4	8
425.5	5
425.6	2
442.5	2
442.6	5
442.7	10
442.8	17
442.9	24
443.0	29
443.1	32
443.2	35
443.3	37
443.4	34
443.5	24
443.6	10
443.7	1
460.3	2
460.4	4
460.5	7
460.6	8
460.7	7
460.8	11
460.9	23
461.0	45
461.1	68
461.2	84
461.3	90
461.4	83
461.5	63
461.6	36
461.7	12
461.8	0
478.6	1
478.7	3
478.8	5
478.9	7
479.0	6
479.1	6
479.2	7
479.3	10
479.4	12
479.5	11
479.6	7
479.7	3
496.4	1
496.5	2
496.6	5
496.7	11
496.8	25
496.9	46
497.0	67
497.1	82
497.2	93
497.3	99
497.4	94
497.5	69
497.6	34
497.7	6
497.8	0
