Mass spectrum: Puberanidine; LC-ESI-QQQ; MS2; Frag=135.0V CID@15.0; [M+H]+
Name: N-Deacetyllappaconitine
Name: 4-Anthraniloyllappaconine
Name: (1S,2S,3S,4S,6S,8S,9S,13S,16S,17S,5R)-11-ethyl-3,8-dihydroxy-4,6,16-trimethoxy-11-azahexacyclo(7.7.2.1(2,5).0(1,10).0(3,8).0(13,17))nonadec-13-yl 2-aminobenzoate
Name: Puberanidine
Class: Alkaloids
Formula: C30H42N2O7
Exact mass: 542.6784
SMILES: CCN1C[C@]2(OC(=O)c3ccccc3N)CC[C@H](OC)[C@]34C1[C@H](CC23)[C@@]1(O)C[C@H](OC)[C@H]2CC4[C@]1(O)[C@H]2OC
InChI: InChI=1S/C30H42N2O7/c1-5-32-15-27(39-26(33)16-8-6-7-9-19(16)31)11-10-23(37-3)29-21(27)13-18(24(29)32)28(34)14-20(36-2)17-12-22(29)30(28,35)25(17)38-4/h6-9,17-18,20-25,34-35H,5,10-15,31H2,1-4H3/t17-,18+,20+,21?,22?,23+,24?,25+,27-,28+,29+,30+/m1/s1
Instrument: Agilent 6410 Triple Quadrupole LC/MS system
Instrument type: LC-ESI-QQQ
Ms type: MS2
Ion mode: POSITIVE
Precursor type: [M+H]+
m/z	relative intensity
542.3	0
542.4	1
542.5	4
542.6	7
542.7	12
542.8	20
542.9	34
543.0	52
543.1	72
543.2	90
543.3	99
543.4	99
543.5	86
543.6	63
543.7	35
543.8	11
543.9	0
