Mass spectrum: o-hydroxydibenzoylmethane; LC-ESI-QQQ; MS2; Frag=135.0V CID@15.0; [M+H]+
Name: o-hydroxydibenzoylmethane
Class: Benzopyranoids
Formula: C15H12O3
Exact mass: 240.2611
SMILES: O=C(CC(=O)c1ccccc1O)c1ccccc1
InChI: InChI=1S/C15H12O3/c16-13-9-5-4-8-12(13)15(18)10-14(17)11-6-2-1-3-7-11/h1-9,16H,10H2
Instrument: Agilent 6410 Triple Quadrupole LC/MS system
Instrument type: LC-ESI-QQQ
Ms type: MS2
Ion mode: POSITIVE
Precursor type: [M+H]+
m/z	relative intensity
104.2	0
104.3	2
104.4	5
104.5	11
104.6	19
104.7	33
104.8	50
104.9	65
105.0	75
105.1	78
105.2	72
105.3	61
105.4	43
105.5	22
105.6	5
105.7	0
120.2	0
120.3	3
120.4	8
120.5	18
120.6	32
120.7	51
120.8	71
120.9	89
121.0	98
121.1	99
121.2	93
121.3	80
121.4	59
121.5	32
121.6	9
121.7	0
146.6	1
146.7	3
146.8	5
146.9	6
147.0	7
147.1	7
147.2	7
147.3	6
147.4	4
147.5	2
