Mass spectrum: 1,4,6-Trihydroxy-11(13)-eudesmen-12,8-olide 6-Tigloyl; LC-ESI-QQQ; MS2; Frag=135.0V CID@15.0; [M+H]+
Name: 1,4,6-Trihydroxy-11(13)-eudesmen-12,8-olide 6-Tigloyl
Class: Terpenoids
Formula: C20H28O6
Exact mass: 364.4426
SMILES: C=C1C(=O)O[C@H]2CC3(C)C(O)CCC(C)(O)C3[C@@H](OC(=O)/C(C)=C/C)C12
InChI: InChI=1S/C20H28O6/c1-6-10(2)17(22)26-15-14-11(3)18(23)25-12(14)9-19(4)13(21)7-8-20(5,24)16(15)19/h6,12-16,21,24H,3,7-9H2,1-2,4-5H3/b10-6+/t12-,13?,14?,15-,16?,19?,20?/m0/s1
Instrument: Agilent 6410 Triple Quadrupole LC/MS system
Instrument type: LC-ESI-QQQ
Ms type: MS2
Ion mode: POSITIVE
Precursor type: [M+H]+
m/z	relative intensity
54.6	2
54.7	3
54.8	5
54.9	6
55.0	7
55.1	6
55.2	5
55.3	3
82.5	2
82.6	3
82.7	5
82.8	8
82.9	11
83.0	16
83.1	19
83.2	18
83.3	12
83.4	6
83.5	1
118.7	3
118.8	5
118.9	7
119.0	8
119.1	6
119.2	4
132.8	3
132.9	4
133.0	6
133.1	6
133.2	5
133.3	3
142.6	3
142.7	4
142.8	7
142.9	12
143.0	17
143.1	19
143.2	17
143.3	13
143.4	7
143.5	3
156.4	2
156.5	3
156.6	5
156.7	6
156.8	8
156.9	10
157.0	14
157.1	17
157.2	17
157.3	13
157.4	7
157.5	4
158.5	3
158.6	5
158.7	9
158.8	21
158.9	40
159.0	58
159.1	64
159.2	54
159.3	36
159.4	19
159.5	8
159.6	2
168.6	1
168.7	3
168.8	5
168.9	5
169.0	5
169.1	5
169.2	5
169.3	4
169.4	2
170.6	1
170.7	3
170.8	5
170.9	6
171.0	6
171.1	5
171.2	4
171.3	3
172.6	2
172.7	4
172.8	8
172.9	11
173.0	12
173.1	11
173.2	12
173.3	13
173.4	11
173.5	6
173.6	2
177.0	2
177.1	3
177.2	4
177.3	5
177.4	4
177.5	3
182.2	1
182.3	2
182.4	6
182.5	10
182.6	14
182.7	19
182.8	31
182.9	50
183.0	72
183.1	90
183.2	99
183.3	95
183.4	73
183.5	40
183.6	11
183.7	1
186.5	0
186.6	2
186.7	7
186.8	16
186.9	24
187.0	26
187.1	23
187.2	18
187.3	13
187.4	9
187.5	4
187.6	1
188.6	2
188.7	3
188.8	5
188.9	7
189.0	9
189.1	8
189.2	6
189.3	4
189.4	2
200.3	1
200.4	2
200.5	5
200.6	13
200.7	25
200.8	40
200.9	56
201.0	68
201.1	73
201.2	73
201.3	67
201.4	53
201.5	31
201.6	10
201.7	0
210.6	1
210.7	4
210.8	9
210.9	16
211.0	20
211.1	20
211.2	16
211.3	10
211.4	4
211.5	1
218.4	1
218.5	3
218.6	6
218.7	10
218.8	12
218.9	15
219.0	19
219.1	25
219.2	29
219.3	28
219.4	21
219.5	11
219.6	4
228.2	1
228.3	3
228.4	5
228.5	5
228.6	8
228.7	20
228.8	40
228.9	61
229.0	77
229.1	89
229.2	93
229.3	81
229.4	52
229.5	21
229.6	3
246.2	1
246.3	3
246.4	7
246.5	12
246.6	16
246.7	20
246.8	30
246.9	49
247.0	71
247.1	85
247.2	85
247.3	73
247.4	53
247.5	29
247.6	9
247.7	0
364.5	1
364.6	2
364.7	4
364.8	7
364.9	9
365.0	9
365.1	7
