Mass spectrum: Glabranin; LC-ESI-QQQ; MS2; Frag=135.0V CID@25.0; [M+H]+
Name: Glabranin
Class: Flavonoids
Formula: C20H20O4
Exact mass: 324.38
SMILES: CC(C)=CCc1c(O)cc(O)c2c1O[C@H](c1ccccc1)CC2=O
InChI: InChI=1S/C20H20O4/c1-12(2)8-9-14-15(21)10-16(22)19-17(23)11-18(24-20(14)19)13-6-4-3-5-7-13/h3-8,10,18,21-22H,9,11H2,1-2H3/t18-/m0/s1
Instrument: Agilent 6410 Triple Quadrupole LC/MS system
Instrument type: LC-ESI-QQQ
Ms type: MS2
Ion mode: POSITIVE
Precursor type: [M+H]+
m/z	relative intensity
90.3	1
90.4	2
90.5	4
90.6	7
90.7	13
90.8	20
90.9	28
91.0	34
91.1	35
91.2	33
91.3	27
91.4	19
91.5	10
91.6	2
130.6	1
130.7	2
130.8	4
130.9	6
131.0	7
131.1	7
131.2	7
131.3	5
131.4	3
164.1	0
164.2	1
164.3	4
164.4	7
164.5	15
164.6	28
164.7	46
164.8	67
164.9	85
165.0	96
165.1	99
165.2	93
165.3	77
165.4	51
165.5	24
165.6	4
165.7	0
268.5	2
268.6	3
268.7	6
268.8	10
268.9	17
269.0	23
269.1	25
269.2	24
269.3	20
269.4	14
269.5	7
269.6	1
