Mass spectrum: Lasiocarpine; LC-ESI-QQQ; MS2; Frag=135.0V CID@25.0; [M+H]+
Name: Lasiocarpine
Class: Alkaloids
Formula: C21H33NO7
Exact mass: 411.4997
SMILES: C/C=C(/C)C(=O)O[C@H]1CCN2CC=C(COC(=O)C(O)(C(C)OC)C(C)(C)O)[C@H]12
InChI: InChI=1S/C21H33NO7/c1-7-13(2)18(23)29-16-9-11-22-10-8-15(17(16)22)12-28-19(24)21(26,14(3)27-6)20(4,5)25/h7-8,14,16-17,25-26H,9-12H2,1-6H3/b13-7-/t14?,16-,17+,21?/m0/s1
Instrument: Agilent 6410 Triple Quadrupole LC/MS system
Instrument type: LC-ESI-QQQ
Ms type: MS2
Ion mode: POSITIVE
Precursor type: [M+H]+
m/z	relative intensity
119.2	1
119.3	2
119.4	5
119.5	11
119.6	21
119.7	37
119.8	58
119.9	78
120.0	94
120.1	99
120.2	95
120.3	80
120.4	58
120.5	32
120.6	11
120.7	0
219.7	2
219.8	3
219.9	5
220.0	7
220.1	8
220.2	8
220.3	7
220.4	6
220.5	4
220.6	2
237.8	2
237.9	3
238.0	4
238.1	5
238.2	5
238.3	5
238.4	4
238.5	2
335.8	2
335.9	3
336.0	5
336.1	6
336.2	7
336.3	7
336.4	6
336.5	4
336.6	1
