Mass spectrum: 2'-N-denrthyl-N-3'-methylaplysinopsin; LC-ESI-QQQ; MS2; Frag=135.0V CID@10.0; [M+H]+
Name: 2'-N-denrthyl-N-3'-methylaplysinopsin
Class: Aminoacids and peptides
Formula: C12H9N3O2
Exact mass: 227.2244
SMILES: OC1=N/C(=C\c2c[nH]c3ccccc23)C(O)=N1
InChI: InChI=1S/C12H9N3O2/c16-11-10(14-12(17)15-11)5-7-6-13-9-4-2-1-3-8(7)9/h1-6,13H,(H2,14,15,16,17)/b10-5-
Instrument: Agilent 6410 Triple Quadrupole LC/MS system
Instrument type: LC-ESI-QQQ
Ms type: MS2
Ion mode: POSITIVE
Precursor type: [M+H]+
m/z	relative intensity
129.6	2
129.7	3
129.8	5
129.9	6
130.0	7
130.1	7
130.2	6
130.3	4
130.4	2
156.2	1
156.3	2
156.4	5
156.5	11
156.6	20
156.7	33
156.8	50
156.9	68
157.0	84
157.1	92
157.2	92
157.3	83
157.4	63
157.5	34
157.6	9
157.7	0
166.7	3
166.8	4
166.9	5
167.0	7
167.1	7
167.2	7
167.3	5
167.4	3
167.5	1
182.5	1
182.6	2
182.7	4
182.8	6
182.9	7
183.0	9
183.1	9
183.2	9
183.3	7
183.4	4
183.5	1
184.3	0
184.4	2
184.5	5
184.6	10
184.7	17
184.8	27
184.9	37
185.0	45
185.1	48
185.2	49
185.3	47
185.4	39
185.5	25
185.6	9
185.7	0
227.2	0
227.3	2
227.4	4
227.5	10
227.6	20
227.7	36
227.8	55
227.9	74
228.0	90
228.1	99
228.2	99
228.3	86
228.4	62
228.5	32
228.6	8
228.7	0
