Mass spectrum: Conferone; LC-ESI-QQQ; MS2; Frag=135.0V CID@25.0; [M+H]+
Name: Conferone
Class: Benzopyranoids
Formula: C24H28O4
Exact mass: 380.4884
SMILES: CC1=CC[C@@H]2C(C)(C)C(=O)CC[C@@]2(C)[C@@H]1COc1ccc2ccc(=O)oc2c1
InChI: InChI=1S/C24H28O4/c1-15-5-9-20-23(2,3)21(25)11-12-24(20,4)18(15)14-27-17-8-6-16-7-10-22(26)28-19(16)13-17/h5-8,10,13,18,20H,9,11-12,14H2,1-4H3/t18-,20-,24+/m1/s1
Instrument: Agilent 6410 Triple Quadrupole LC/MS system
Instrument type: LC-ESI-QQQ
Ms type: MS2
Ion mode: POSITIVE
Precursor type: [M+H]+
m/z	relative intensity
92.7	2
92.8	3
92.9	5
93.0	6
93.1	6
93.2	6
93.3	5
93.4	4
93.5	1
94.6	2
94.7	3
94.8	6
94.9	7
95.0	9
95.1	9
95.2	9
95.3	8
95.4	6
95.5	3
104.7	2
104.8	3
104.9	4
105.0	5
105.1	6
105.2	6
105.3	5
105.4	4
105.5	2
106.5	1
106.6	2
106.7	4
106.8	7
106.9	9
107.0	12
107.1	13
107.2	12
107.3	11
107.4	8
107.5	4
107.6	1
108.6	1
108.7	2
108.8	4
108.9	7
109.0	9
109.1	10
109.2	10
109.3	9
109.4	6
109.5	3
118.5	1
118.6	2
118.7	4
118.8	7
118.9	10
119.0	13
119.1	14
119.2	13
119.3	11
119.4	9
119.5	5
119.6	1
120.6	1
120.7	3
120.8	5
120.9	7
121.0	9
121.1	10
121.2	9
121.3	8
121.4	6
121.5	4
121.6	1
130.7	2
130.8	3
130.9	4
131.0	5
131.1	4
131.2	4
131.3	4
131.4	3
132.5	2
132.6	4
132.7	5
132.8	8
132.9	11
133.0	15
133.1	16
133.2	16
133.3	13
133.4	9
133.5	5
133.6	1
134.7	2
134.8	3
134.9	5
135.0	7
135.1	9
135.2	9
135.3	9
135.4	7
135.5	4
135.6	1
144.5	2
144.6	3
144.7	6
144.8	9
144.9	13
145.0	16
145.1	17
145.2	16
145.3	14
145.4	10
145.5	6
145.6	2
146.7	1
146.8	3
146.9	4
147.0	5
147.1	5
147.2	5
147.3	5
147.4	4
147.5	2
158.5	1
158.6	2
158.7	4
158.8	8
158.9	13
159.0	18
159.1	21
159.2	21
159.3	19
159.4	14
159.5	8
159.6	3
160.6	2
160.7	3
160.8	6
160.9	9
161.0	13
161.1	16
161.2	16
161.3	14
161.4	12
161.5	9
161.6	5
161.7	1
162.2	0
162.3	2
162.4	6
162.5	13
162.6	24
162.7	40
162.8	59
162.9	78
163.0	93
163.1	99
163.2	95
163.3	80
163.4	56
163.5	27
163.6	5
163.7	0
174.7	1
174.8	2
174.9	4
175.0	6
175.1	6
175.2	6
175.3	5
175.4	4
175.5	2
200.6	2
200.7	3
200.8	5
200.9	7
201.0	9
201.1	11
201.2	12
201.3	12
201.4	10
201.5	8
201.6	4
201.7	1
