Mass spectrum: cycloanthranilylproline; LC-ESI-QQQ; MS2; Frag=135.0V CID@5.0; [M+H]+
Name: cycloanthranilylproline
Class: Polycyclic aromatic natural products
Formula: C12H12N2O2
Exact mass: 216.2416
SMILES: O=C1c2ccccc2N=C(O)[C@@H]2CCCN12
InChI: InChI=1S/C12H12N2O2/c15-11-10-6-3-7-14(10)12(16)8-4-1-2-5-9(8)13-11/h1-2,4-5,10H,3,6-7H2,(H,13,15)/t10-/m0/s1
Instrument: Agilent 6410 Triple Quadrupole LC/MS system
Instrument type: LC-ESI-QQQ
Ms type: MS2
Ion mode: POSITIVE
Precursor type: [M+H]+
m/z	relative intensity
216.3	0
216.4	3
216.5	8
216.6	17
216.7	31
216.8	49
216.9	70
217.0	88
217.1	99
217.2	99
217.3	91
217.4	74
217.5	48
217.6	21
217.7	2
