Mass spectrum: Yohimbic acid; LC-ESI-QQQ; MS2; Frag=135.0V CID@25.0; [M+H]+
Name: Yohimbic acid
Class: Alkaloids
Formula: C20H24N2O3
Exact mass: 340.4259
SMILES: O=C(O)[C@H]1[C@@H](O)CCC2CN3CCc4c([nH]c5ccccc45)[C@@H]3C[C@@H]21
InChI: InChI=1S/C20H24N2O3/c23-17-6-5-11-10-22-8-7-13-12-3-1-2-4-15(12)21-19(13)16(22)9-14(11)18(17)20(24)25/h1-4,11,14,16-18,21,23H,5-10H2,(H,24,25)/t11?,14-,16-,17-,18+/m0/s1
Instrument: Agilent 6410 Triple Quadrupole LC/MS system
Instrument type: LC-ESI-QQQ
Ms type: MS2
Ion mode: POSITIVE
Precursor type: [M+H]+
m/z	relative intensity
143.3	1
143.4	4
143.5	9
143.6	17
143.7	31
143.8	51
143.9	73
144.0	91
144.1	99
144.2	98
144.3	87
144.4	67
144.5	40
144.6	15
144.7	1
197.5	2
197.6	3
197.7	6
197.8	11
197.9	18
198.0	24
198.1	28
198.2	29
198.3	26
198.4	21
198.5	13
198.6	5
198.7	0
340.7	1
340.8	3
340.9	5
341.0	8
341.1	11
341.2	13
341.3	13
341.4	12
341.5	8
341.6	4
341.7	0
