Mass spectrum: 1alpha-Hydroxy-1-desoxotamirin; LC-ESI-QQQ; MS2; Frag=135.0V CID@5.0 ; [M+H]+
Name: 1alpha-Hydroxy-1-desoxotamirin
Class: Terpenoids
Formula: C15H20O4
Exact mass: 264.32425
SMILES: C=C1C(=O)O[C@H]2CC(=C)[C@H](O)CC/C(C)=C/[C@@H](O)C12
InChI: InChI=1S/C15H20O4/c1-8-4-5-11(16)9(2)7-13-14(12(17)6-8)10(3)15(18)19-13/h6,11-14,16-17H,2-5,7H2,1H3/b8-6+/t11-,12-,13+,14?/m1/s1
Instrument: Agilent 6410 Triple Quadrupole LC/MS system
Instrument type: LC-ESI-QQQ
Ms type: MS2
Ion mode: POSITIVE
Precursor type: [M+H]+
m/z	relative intensity
80.4	2
80.5	3
80.6	4
80.7	6
80.8	9
80.9	12
81.0	15
81.1	15
81.2	12
81.3	8
81.4	3
92.5	3
92.6	4
92.7	7
92.8	9
92.9	10
93.0	9
93.1	7
93.2	5
93.3	3
94.6	1
94.7	3
94.8	6
94.9	7
95.0	7
95.1	5
96.6	3
96.7	5
96.8	8
96.9	10
97.0	10
97.1	7
97.2	3
106.8	5
106.9	7
107.0	8
107.1	9
107.2	8
107.3	5
107.4	2
122.4	0
122.5	2
122.6	7
122.7	15
122.8	20
122.9	19
123.0	16
123.1	12
123.2	11
123.3	11
123.4	9
123.5	6
123.6	2
132.4	2
132.5	3
132.6	6
132.7	13
132.8	23
132.9	30
133.0	32
133.1	33
133.2	34
133.3	32
133.4	23
133.5	9
133.6	1
142.4	1
142.5	3
142.6	6
142.7	9
142.8	10
142.9	9
143.0	10
143.1	12
143.2	13
143.3	10
143.4	5
143.5	1
150.5	1
150.6	3
150.7	8
150.8	14
150.9	21
151.0	26
151.1	28
151.2	28
151.3	26
151.4	19
151.5	10
151.6	3
158.7	2
158.8	4
158.9	6
159.0	7
159.1	7
159.2	5
159.3	3
172.5	0
172.6	2
172.7	7
172.8	14
172.9	21
173.0	23
173.1	20
173.2	14
173.3	8
173.4	4
182.4	2
182.5	3
182.6	5
182.7	12
182.8	21
182.9	30
183.0	36
183.1	39
183.2	37
183.3	27
183.4	14
183.5	3
186.9	4
187.0	5
187.1	7
187.2	8
187.3	7
187.4	5
187.5	3
188.6	2
188.7	4
188.8	6
188.9	6
189.0	5
189.1	3
200.2	1
200.3	4
200.4	7
200.5	11
200.6	16
200.7	24
200.8	40
200.9	64
201.0	86
201.1	98
201.2	99
201.3	91
201.4	73
201.5	45
201.6	16
201.7	0
210.6	2
210.7	3
210.8	5
210.9	6
211.0	8
211.1	10
211.2	12
211.3	10
211.4	6
211.5	2
218.4	2
218.5	3
218.6	5
218.7	9
218.8	15
218.9	23
219.0	27
219.1	26
219.2	21
219.3	15
219.4	9
219.5	4
228.1	1
228.2	4
228.3	7
228.4	8
228.5	7
228.6	7
228.7	15
228.8	34
228.9	56
229.0	74
229.1	82
229.2	78
229.3	65
229.4	45
229.5	23
229.6	6
229.7	0
246.4	2
246.5	3
246.6	6
246.7	17
246.8	33
246.9	49
247.0	59
247.1	61
247.2	58
247.3	51
247.4	38
247.5	21
247.6	6
247.7	0
264.5	0
264.6	3
264.7	8
264.8	16
264.9	23
265.0	28
265.1	31
265.2	32
265.3	30
265.4	24
265.5	15
265.6	7
265.7	1
