Mass spectrum: Peuarenin; LC-ESI-QQQ; MS2; Frag=135.0V CID@25.0; [M+H]+
Name: Peuarenin
Class: Benzopyranoids
Formula: C24H26O9
Exact mass: 458.4694
SMILES: CC1OC1(C)C(=O)OC1c2cc3ccc(=O)oc3cc2OC(C)(C)C1OC(=O)C1(C)OC1C
InChI: InChI=1S/C24H26O9/c1-11-23(5,31-11)20(26)29-18-14-9-13-7-8-17(25)28-15(13)10-16(14)33-22(3,4)19(18)30-21(27)24(6)12(2)32-24/h7-12,18-19H,1-6H3
Instrument: Agilent 6410 Triple Quadrupole LC/MS system
Instrument type: LC-ESI-QQQ
Ms type: MS2
Ion mode: POSITIVE
Precursor type: [M+H]+
m/z	relative intensity
184.4	2
184.5	3
184.6	6
184.7	11
184.8	17
184.9	24
185.0	29
185.1	31
185.2	29
185.3	24
185.4	15
185.5	7
185.6	1
186.5	1
186.6	3
186.7	6
186.8	9
186.9	11
187.0	12
187.1	12
187.2	11
187.3	8
187.4	5
187.5	1
188.6	2
188.7	3
188.8	4
188.9	5
189.0	5
189.1	5
189.2	5
189.3	3
190.5	1
190.6	3
190.7	5
190.8	8
190.9	12
191.0	15
191.1	14
191.2	12
191.3	9
191.4	5
191.5	2
198.5	1
198.6	2
198.7	4
198.8	7
198.9	10
199.0	13
199.1	13
199.2	12
199.3	10
199.4	6
199.5	2
212.3	1
212.4	2
212.5	4
212.6	7
212.7	12
212.8	19
212.9	26
213.0	31
213.1	32
213.2	29
213.3	22
213.4	13
213.5	4
213.6	0
216.4	1
216.5	2
216.6	4
216.7	7
216.8	12
216.9	16
217.0	17
217.1	16
217.2	15
217.3	12
217.4	9
217.5	5
217.6	1
226.2	1
226.3	3
226.4	8
226.5	13
226.6	20
226.7	31
226.8	50
226.9	75
227.0	94
227.1	99
227.2	91
227.3	74
227.4	52
227.5	29
227.6	11
227.8	6
227.9	12
228.0	16
228.1	18
228.2	17
228.3	13
228.6	10
228.7	17
228.8	32
228.9	50
229.0	66
229.1	71
229.2	66
229.3	54
229.4	38
229.5	19
229.6	5
229.7	0
244.4	3
244.5	5
244.6	9
244.7	16
244.8	26
244.9	39
245.0	48
245.1	52
245.2	50
245.3	42
245.4	29
245.5	14
245.6	2
314.7	2
314.8	3
314.9	5
315.0	5
315.1	6
315.2	6
315.3	6
315.4	4
315.5	2
342.3	1
342.4	3
342.5	7
342.6	13
342.7	24
342.8	42
342.9	65
343.0	85
343.1	96
343.2	95
343.3	81
343.4	55
343.5	26
343.6	5
343.7	0
458.4	1
458.5	2
458.6	4
458.7	6
458.8	10
458.9	14
459.0	19
459.1	22
459.2	24
459.3	24
459.4	21
459.5	14
459.6	6
459.7	0
