Mass spectrum: Kopsinine; LC-ESI-QQQ; MS2; Frag=135.0V CID@15.0 ; [M+H]+
Name: Kopsinine
Class: Alkaloids
Formula: C21H26N2O2
Exact mass: 338.45357
SMILES: COC(=O)C1CC23CCCN4CCC5(c6ccccc6NC15CC2)[C@@H]43
InChI: InChI=1S/C21H26N2O2/c1-25-17(24)15-13-19-7-4-11-23-12-10-20(18(19)23)14-5-2-3-6-16(14)22-21(15,20)9-8-19/h2-3,5-6,15,18,22H,4,7-13H2,1H3/t15?,18-,19?,20?,21?/m0/s1
Instrument: Agilent 6410 Triple Quadrupole LC/MS system
Instrument type: LC-ESI-QQQ
Ms type: MS2
Ion mode: POSITIVE
Precursor type: [M+H]+
m/z	relative intensity
338.3	1
338.4	2
338.5	5
338.6	9
338.7	18
338.8	32
338.9	52
339.0	73
339.1	89
339.2	99
339.3	99
339.4	88
339.5	63
339.6	34
339.7	9
339.8	0
