Mass spectrum: Subhirsine; LC-ESI-QQQ; MS2; Frag=135.0V CID@10.0; [M+H]+
Name: Subhirsine
Class: Alkaloids
Formula: C33H40N2O9
Exact mass: 608.6947
SMILES: COc1ccc(C(=O)OC2C[C@@H]3CC[C@H](C2)N3C(=O)N2[C@H]3CC[C@@H]2CC(OC(=O)c2ccc(OC)c(OC)c2)C3)cc1OC
InChI: InChI=1S/C33H40N2O9/c1-39-27-11-5-19(13-29(27)41-3)31(36)43-25-15-21-7-8-22(16-25)34(21)33(38)35-23-9-10-24(35)18-26(17-23)44-32(37)20-6-12-28(40-2)30(14-20)42-4/h5-6,11-14,21-26H,7-10,15-18H2,1-4H3/t21-,22+,23-,24+,25?,26?
Instrument: Agilent 6410 Triple Quadrupole LC/MS system
Instrument type: LC-ESI-QQQ
Ms type: MS2
Ion mode: POSITIVE
Precursor type: [M+H]+
m/z	relative intensity
244.4	1
244.5	2
244.6	3
244.7	6
244.8	10
244.9	17
245.0	25
245.1	30
245.2	31
245.3	29
245.4	23
245.5	14
245.6	5
245.7	0
426.3	1
426.4	3
426.5	6
426.6	11
426.7	20
426.8	35
426.9	53
427.0	73
427.1	88
427.2	98
427.3	99
427.4	89
427.5	66
427.6	37
427.7	12
427.8	0
608.4	1
608.5	3
608.6	5
608.7	9
608.8	14
608.9	20
609.0	26
609.1	31
609.2	34
609.3	34
609.4	30
609.5	24
609.6	14
609.7	5
609.8	0
