Mass spectrum: Centaurepensin; LC-ESI-QQQ; MS2; Frag=135.0V CID@25.0; [M+H]+
Name: Centaurepensin
Class: Terpenoids
Formula: C19H24Cl2O7
Exact mass: 435.3049
SMILES: C=C1C[C@H](OC(=O)C(C)(O)CCl)C2C(=C)C(=O)O[C@@H]2C2C1C[C@H](O)[C@]2(O)CCl
InChI: InChI=1S/C19H24Cl2O7/c1-8-4-11(27-17(24)18(3,25)6-20)13-9(2)16(23)28-15(13)14-10(8)5-12(22)19(14,26)7-21/h10-15,22,25-26H,1-2,4-7H2,3H3/t10?,11-,12-,13?,14?,15-,18?,19+/m0/s1
Instrument: Agilent 6410 Triple Quadrupole LC/MS system
Instrument type: LC-ESI-QQQ
Ms type: MS2
Ion mode: POSITIVE
Precursor type: [M+H]+
m/z	relative intensity
76.3	2
76.4	3
76.5	5
76.6	7
76.7	8
76.8	9
76.9	9
77.0	8
77.1	6
77.2	4
77.3	3
80.8	3
80.9	4
81.0	5
81.1	6
81.2	5
81.3	3
91.8	0
91.9	2
92.0	6
92.1	11
92.2	15
92.3	14
92.4	12
92.5	13
92.6	20
92.7	35
92.8	56
92.9	78
93.0	95
93.1	99
93.2	85
93.3	55
93.4	22
93.5	1
104.5	2
104.6	4
104.7	6
104.8	7
104.9	6
105.0	4
118.6	2
118.7	5
118.8	8
118.9	11
119.0	11
119.1	10
119.2	7
119.3	5
119.4	2
128.6	1
128.7	3
128.8	9
128.9	16
129.0	20
129.1	19
129.2	16
129.3	13
129.4	9
129.5	4
130.5	2
130.6	3
130.7	5
130.8	8
130.9	11
131.0	14
131.1	13
131.2	10
131.3	4
140.4	2
140.5	4
140.6	7
140.7	13
140.8	19
140.9	22
141.0	20
141.1	14
141.2	10
141.3	7
141.4	5
142.4	2
142.5	3
142.6	5
142.7	8
142.8	13
142.9	18
143.0	21
143.1	20
143.2	16
143.3	11
143.4	6
143.5	2
144.4	1
144.5	4
144.6	8
144.7	11
144.8	11
144.9	10
145.0	8
145.1	5
145.2	2
146.6	2
146.7	5
146.8	8
146.9	11
147.0	10
147.1	7
147.2	4
154.5	4
154.6	8
154.7	12
154.8	20
154.9	30
155.0	40
155.1	44
155.2	41
155.3	31
155.4	19
155.5	7
156.5	2
156.6	5
156.7	13
156.8	22
156.9	29
157.0	31
157.1	28
157.2	22
157.3	15
157.4	9
157.5	4
158.4	1
158.5	3
158.6	5
158.7	9
158.8	13
158.9	16
159.0	18
159.1	19
159.2	18
159.3	16
159.4	10
159.5	4
164.4	1
164.5	2
164.6	6
164.7	11
164.8	13
164.9	12
165.0	10
165.1	8
168.4	0
168.5	3
168.6	10
168.7	25
168.8	45
168.9	63
169.0	71
169.1	66
169.2	52
169.3	37
169.4	25
169.5	15
169.6	6
169.7	1
170.6	2
170.7	4
170.8	7
170.9	9
171.0	10
171.1	11
171.2	11
171.3	11
171.4	8
171.5	5
178.1	1
178.2	2
178.3	5
178.4	8
178.5	11
178.6	15
178.7	20
178.8	25
178.9	29
179.0	36
179.1	46
179.2	51
179.3	44
179.4	28
179.5	12
179.6	4
180.8	6
180.9	8
181.0	13
181.1	18
181.2	19
181.3	15
181.4	8
182.5	0
182.6	1
182.7	8
182.8	23
182.9	39
183.0	48
183.1	45
183.2	35
183.3	24
183.4	14
183.7	11
183.8	17
183.9	21
184.0	21
184.1	18
184.2	13
184.5	8
184.6	11
184.7	16
184.8	21
184.9	24
185.0	28
185.1	30
185.2	29
185.3	21
185.4	11
185.5	3
186.6	2
186.7	5
186.8	8
186.9	11
187.0	12
187.1	10
187.2	7
187.3	4
188.5	4
188.6	6
188.7	11
188.8	19
188.9	27
189.0	33
189.1	33
189.2	27
189.3	18
189.4	7
189.5	1
196.5	1
196.6	2
196.7	10
196.8	26
196.9	45
197.0	57
197.1	56
197.2	42
197.3	23
197.4	7
197.5	2
200.4	2
200.5	5
200.6	10
200.7	18
200.8	27
200.9	29
201.0	26
201.1	23
201.2	24
201.3	22
201.4	13
201.5	4
202.6	2
202.7	4
202.8	7
202.9	8
203.0	6
203.1	4
204.6	2
204.7	3
204.8	7
204.9	11
205.0	14
205.1	15
205.2	13
205.3	9
205.4	4
206.2	1
206.3	3
206.4	6
206.5	11
206.6	20
206.7	30
206.8	38
206.9	41
207.0	36
207.1	26
207.2	16
207.3	8
207.4	3
214.2	1
214.3	3
214.4	5
214.5	7
214.6	10
214.7	13
214.8	13
214.9	12
215.0	11
215.1	12
215.2	11
215.3	8
215.4	4
224.3	1
224.4	3
224.5	6
224.6	7
224.7	7
224.8	9
224.9	13
225.0	17
225.1	18
225.2	15
225.3	10
225.4	6
225.5	3
232.1	2
232.2	3
232.3	5
232.4	6
232.5	8
232.6	12
232.7	19
232.8	28
232.9	37
233.0	43
233.1	46
233.2	43
233.3	34
233.4	20
233.5	6
233.6	0
234.5	1
234.6	3
234.7	6
234.8	8
234.9	8
235.0	5
235.1	2
242.3	2
242.4	3
242.5	5
242.6	7
242.7	7
242.8	5
242.9	3
