Mass spectrum: Acetylenoxolone; LC-ESI-QQQ; MS2; Frag=135.0V CID@25.0; [M+H]+
Name: Acetylenoxolone
Class: Terpenoids
Formula: C32H48O5
Exact mass: 512.7364
SMILES: CC(=O)O[C@H]1CC[C@@]2(C)C(CC[C@]3(C)C2C(=O)C=C2C4C[C@@](C)(C(=O)O)CC[C@]4(C)CC[C@]23C)C1(C)C
InChI: InChI=1S/C32H48O5/c1-19(33)37-24-10-11-30(6)23(27(24,2)3)9-12-32(8)25(30)22(34)17-20-21-18-29(5,26(35)36)14-13-28(21,4)15-16-31(20,32)7/h17,21,23-25H,9-16,18H2,1-8H3,(H,35,36)/t21?,23?,24-,25?,28+,29-,30-,31+,32+/m0/s1
Instrument: Agilent 6410 Triple Quadrupole LC/MS system
Instrument type: LC-ESI-QQQ
Ms type: MS2
Ion mode: POSITIVE
Precursor type: [M+H]+
m/z	relative intensity
134.7	3
134.8	3
134.9	4
135.0	5
135.1	5
135.2	4
135.3	2
188.7	1
188.8	3
188.9	8
189.0	13
189.1	16
189.2	14
189.3	10
189.4	6
189.5	2
216.8	1
216.9	2
217.0	4
217.1	5
217.2	6
217.3	7
217.4	6
217.5	4
217.6	1
234.7	1
234.8	2
234.9	4
235.0	5
235.1	5
235.2	6
235.3	6
235.4	5
235.5	3
262.6	1
262.7	2
262.8	4
262.9	4
263.0	4
263.1	3
263.2	2
263.3	3
263.4	3
263.5	2
263.6	1
263.7	0
263.8	0
263.9	0
264.0	0
264.1	0
264.2	0
264.3	0
264.4	0
264.5	0
264.6	0
264.7	0
264.8	0
264.9	0
265.0	0
265.1	0
265.2	0
265.3	0
265.4	0
265.5	0
265.6	0
265.7	0
265.8	0
265.9	0
266.0	0
266.1	0
266.2	0
266.3	0
266.4	0
266.5	0
266.6	0
266.7	0
266.8	0
266.9	0
267.0	0
267.1	0
267.2	0
267.3	0
267.4	0
267.5	0
267.6	0
267.7	0
267.8	0
267.9	0
268.0	0
268.1	0
268.2	0
268.3	0
268.4	0
268.5	0
268.6	0
268.7	0
268.8	0
268.9	0
269.0	0
269.1	0
269.2	0
269.3	0
269.4	0
269.5	0
269.6	0
269.7	0
269.8	0
269.9	0
270.0	0
270.1	0
270.2	0
270.3	0
270.4	0
270.5	0
270.6	0
270.7	0
270.8	0
270.9	1
271.0	1
271.1	2
271.2	2
271.3	2
271.4	1
271.5	0
271.6	0
271.7	0
271.8	0
271.9	0
272.0	0
272.1	0
272.2	0
272.3	0
272.4	0
272.5	0
272.6	0
272.7	0
272.8	0
272.9	0
273.0	0
273.1	0
273.2	0
273.3	0
273.4	0
273.5	0
273.6	0
273.7	0
273.8	0
273.9	0
274.0	0
274.1	0
274.2	0
274.3	0
274.4	0
274.5	0
274.6	0
274.7	0
274.8	0
274.9	0
275.0	0
275.1	0
275.2	0
275.3	0
275.4	0
275.5	0
275.6	0
275.7	0
275.8	0
275.9	0
276.0	0
276.1	0
276.2	0
276.3	0
276.4	0
276.5	0
276.6	0
276.7	1
276.8	2
276.9	3
277.0	3
277.1	3
277.2	3
316.7	1
316.8	2
316.9	4
317.0	5
317.1	6
317.2	6
317.3	4
317.4	2
512.3	0
512.4	1
512.5	3
512.6	7
512.7	11
512.8	19
512.9	32
513.0	52
513.1	73
513.2	89
513.3	97
513.4	99
513.5	94
513.6	75
513.7	44
513.8	15
513.9	0
