Mass spectrum: 3-Dimethylaminoacetyl-5-methoxyindole; LC-ESI-QQQ; MS2; Frag=135.0V CID@25.0; [M+H]+
Name: 3-Dimethylaminoacetyl-5-methoxyindole
Class: Alkaloids
Formula: C13H16N2O2
Exact mass: 232.2847
SMILES: COc1ccc2[nH]cc(C(=O)CN(C)C)c2c1
InChI: InChI=1S/C13H16N2O2/c1-15(2)8-13(16)11-7-14-12-5-4-9(17-3)6-10(11)12/h4-7,14H,8H2,1-3H3
Instrument: Agilent 6410 Triple Quadrupole LC/MS system
Instrument type: LC-ESI-QQQ
Ms type: MS2
Ion mode: POSITIVE
Precursor type: [M+H]+
m/z	relative intensity
57.3	1
57.4	4
57.5	9
57.6	19
57.7	35
57.8	55
57.9	76
58.0	92
58.1	99
58.2	96
58.3	83
58.4	59
58.5	32
58.6	9
58.7	0
159.6	2
159.7	3
159.8	6
159.9	8
160.0	10
160.1	11
160.2	11
160.3	10
160.4	7
160.5	4
160.6	1
