Mass spectrum: Vincadifformine; LC-ESI-QQQ; MS2; Frag=135.0V CID@15.0 ; [M+H]+
Name: Vincadifformine
Class: Alkaloids
Formula: C21H26N2O2
Exact mass: 338.45357
SMILES: CC[C@]12CCCN3CCC4(C(=C(C(=O)OC)C1)Nc1ccccc14)C32
InChI: InChI=1S/C21H26N2O2/c1-3-20-9-6-11-23-12-10-21(19(20)23)15-7-4-5-8-16(15)22-17(21)14(13-20)18(24)25-2/h4-5,7-8,19,22H,3,6,9-13H2,1-2H3/t19?,20-,21?/m0/s1
Instrument: Agilent 6410 Triple Quadrupole LC/MS system
Instrument type: LC-ESI-QQQ
Ms type: MS2
Ion mode: POSITIVE
Precursor type: [M+H]+
m/z	relative intensity
137.8	2
137.9	3
138.0	5
138.1	5
138.2	6
138.3	5
138.4	4
138.5	2
306.4	1
306.5	3
306.6	6
306.7	12
306.8	22
306.9	37
307.0	55
307.1	70
307.2	78
307.3	78
307.4	69
307.5	48
307.6	23
307.7	4
307.8	0
338.3	0
338.4	1
338.5	4
338.6	9
338.7	15
338.8	25
338.9	42
339.0	63
339.1	83
339.2	96
339.3	99
339.4	91
339.5	70
339.6	41
339.7	14
339.8	0
