Mass spectrum: Phlorizin; LC-ESI-QQQ; MS2; Frag=135.0V CID@5.0; [M+H]+
Name: Phlr-2p-Glc
Name: Phloridzin
Name: Phlorhizin
Name: Phlorizin
Name: Phlorizoside
Name: Phlorrhizin
Name: Phlorrhizen
Name: 2'-(beta-D-Glucopyranosyloxy)-4',6'-dihydroxy-3-(4-hydroxyphenyl)propiophenone
Class: Carbohydrates
Formula: C21H24O10
Exact mass: 436.4194
SMILES: O=C(CCc1ccc(O)cc1)c1c(O)cc(O)cc1O[C@@H]1OC(CO)[C@@H](O)C(O)C1O
InChI: InChI=1S/C21H24O10/c22-9-16-18(27)19(28)20(29)21(31-16)30-15-8-12(24)7-14(26)17(15)13(25)6-3-10-1-4-11(23)5-2-10/h1-2,4-5,7-8,16,18-24,26-29H,3,6,9H2/t16?,18-,19?,20?,21-/m1/s1
Instrument: Agilent 6410 Triple Quadrupole LC/MS system
Instrument type: LC-ESI-QQQ
Ms type: MS2
Ion mode: POSITIVE
Precursor type: [M+H]+
m/z	relative intensity
106.5	2
106.6	3
106.7	5
106.8	8
106.9	10
107.0	9
107.1	6
107.2	3
148.5	2
148.6	3
148.7	4
148.8	5
148.9	5
149.0	4
274.1	1
274.2	3
274.3	7
274.4	12
274.5	18
274.6	28
274.7	43
274.8	59
274.9	69
275.0	78
275.1	90
275.2	99
275.3	89
275.4	56
275.5	19
275.6	1
298.5	1
298.6	4
298.7	12
298.8	24
298.9	33
299.0	36
299.1	31
299.2	21
299.3	11
299.4	4
316.2	1
316.3	3
316.4	4
316.5	8
316.6	16
316.7	25
316.8	36
316.9	47
317.0	58
317.1	63
317.2	58
317.3	44
317.4	24
317.5	8
317.6	1
340.4	1
340.5	1
340.6	5
340.7	11
340.8	19
340.9	26
341.0	32
341.1	34
341.2	31
341.3	24
341.4	14
341.5	5
341.6	1
352.4	1
352.5	4
352.6	8
352.7	13
352.8	17
352.9	17
353.0	14
353.1	9
353.2	4
382.3	1
382.4	2
382.5	4
382.6	7
382.7	10
382.8	14
382.9	19
383.0	21
383.1	19
383.2	13
383.3	6
383.4	1
400.4	1
400.5	2
400.6	4
400.7	5
400.8	5
400.9	6
401.0	9
401.1	12
401.2	11
401.3	7
401.4	3
418.5	2
418.6	4
418.7	13
418.8	28
418.9	45
419.0	56
419.1	55
419.2	42
419.3	26
419.4	12
419.5	5
419.6	1
436.1	2
436.2	3
436.3	6
436.4	10
436.5	16
436.6	24
436.7	33
436.8	40
436.9	43
437.0	42
437.1	38
437.2	32
437.3	23
437.4	13
437.5	5
437.6	1
