Mass spectrum: Polyanthinin; LC-ESI-QQQ; MS2; Frag=135.0V CID@25.0; [M+H]+
Name: Polyanthinin
Class: Benzopyranoids
Formula: C26H32O5
Exact mass: 424.5419
SMILES: C=C1CC[C@@H]2C(C)(C)[C@@H](OC(C)=O)CC[C@@]2(C)[C@H]1COc1ccc2ccc(=O)oc2c1
InChI: InChI=1S/C26H32O5/c1-16-6-10-22-25(3,4)23(30-17(2)27)12-13-26(22,5)20(16)15-29-19-9-7-18-8-11-24(28)31-21(18)14-19/h7-9,11,14,20,22-23H,1,6,10,12-13,15H2,2-5H3/t20-,22+,23-,26-/m0/s1
Instrument: Agilent 6410 Triple Quadrupole LC/MS system
Instrument type: LC-ESI-QQQ
Ms type: MS2
Ion mode: POSITIVE
Precursor type: [M+H]+
m/z	relative intensity
80.6	2
80.7	4
80.8	6
80.9	8
81.0	8
81.1	8
81.2	7
81.3	6
81.4	4
81.5	2
94.2	1
94.3	3
94.4	4
94.5	4
94.6	4
94.7	3
94.8	4
94.9	7
95.0	13
95.1	18
95.2	19
95.3	14
95.4	7
95.5	2
104.5	1
104.6	2
104.7	6
104.8	10
104.9	12
105.0	11
105.1	8
105.2	5
105.3	3
106.5	1
106.6	3
106.7	5
106.8	7
106.9	8
107.0	7
107.1	6
107.2	5
107.3	4
107.4	3
108.6	2
108.7	4
108.8	7
108.9	10
109.0	13
109.1	14
109.2	12
109.3	8
109.4	3
118.5	2
118.6	4
118.7	7
118.8	10
118.9	12
119.0	12
119.1	11
119.2	9
119.3	7
119.4	4
119.5	1
120.7	2
120.8	3
120.9	4
121.0	5
121.1	6
121.2	6
121.3	5
121.4	3
122.6	2
122.7	3
122.8	5
122.9	7
123.0	9
123.1	8
123.2	6
123.3	3
132.5	2
132.6	5
132.7	9
132.8	12
132.9	14
133.0	15
133.1	18
133.2	19
133.3	16
133.4	9
133.5	3
136.7	2
136.8	4
136.9	5
137.0	7
137.1	7
137.2	6
137.3	4
146.5	2
146.6	4
146.7	11
146.8	19
146.9	28
147.0	36
147.1	42
147.2	43
147.3	38
147.4	26
147.5	13
147.6	4
160.6	2
160.7	3
160.8	6
160.9	9
161.0	14
161.1	15
161.2	13
161.3	9
161.4	5
161.5	2
162.0	1
162.1	2
162.2	4
162.3	6
162.4	7
162.5	10
162.6	19
162.7	37
162.8	60
162.9	82
163.0	96
163.1	99
163.2	88
163.3	64
163.4	34
163.5	9
163.6	0
174.5	3
174.6	5
174.7	8
174.8	13
174.9	19
175.0	22
175.1	23
175.2	21
175.3	17
175.4	11
175.5	5
175.6	1
202.5	1
202.6	2
202.7	6
202.8	13
202.9	22
203.0	30
203.1	35
203.2	37
203.3	35
203.4	28
203.5	18
203.6	8
203.7	1
214.5	0
214.6	2
214.7	4
214.8	6
214.9	6
215.0	5
215.1	5
215.2	5
215.3	4
215.4	3
