Mass spectrum: Isoimperatorin; LC-ESI-QQQ; MS2; Frag=135.0V CID@10.0; [M+H]+
Name: Isoimperatorin
Class: Benzopyranoids
Formula: C16H14O4
Exact mass: 270.2876
SMILES: CC(C)=CCOc1c2ccoc2cc2oc(=O)ccc12
InChI: InChI=1S/C16H14O4/c1-10(2)5-7-19-16-11-3-4-15(17)20-14(11)9-13-12(16)6-8-18-13/h3-6,8-9H,7H2,1-2H3
Instrument: Agilent 6410 Triple Quadrupole LC/MS system
Instrument type: LC-ESI-QQQ
Ms type: MS2
Ion mode: POSITIVE
Precursor type: [M+H]+
m/z	relative intensity
68.6	2
68.7	4
68.8	6
68.9	9
69.0	11
69.1	13
69.2	13
69.3	11
69.4	8
69.5	4
69.6	1
202.2	0
202.3	2
202.4	6
202.5	13
202.6	23
202.7	38
202.8	59
202.9	81
203.0	96
203.1	99
203.2	93
203.3	77
203.4	54
203.5	28
203.6	7
203.7	0
