Mass spectrum: 2-Deoxycrustecdysone; LC-ESI-QQQ; MS2; Frag=135.0V CID@25.0; [M+H]+
Name: 2-Deoxycrustecdysone
Class: Steroids
Formula: C27H44O6
Exact mass: 464.6481
SMILES: CC(C)(O)CC[C@@H](O)[C@](C)(O)C1CC[C@@]2(O)C3=CC(=O)[C@@H]4C[C@@H](O)CC[C@]4(C)C3CC[C@]12C
InChI: InChI=1S/C27H44O6/c1-23(2,31)10-9-22(30)26(5,32)21-8-13-27(33)18-15-20(29)19-14-16(28)6-11-24(19,3)17(18)7-12-25(21,27)4/h15-17,19,21-22,28,30-33H,6-14H2,1-5H3/t16-,17?,19-,21?,22+,24+,25+,26+,27+/m0/s1
Instrument: Agilent 6410 Triple Quadrupole LC/MS system
Instrument type: LC-ESI-QQQ
Ms type: MS2
Ion mode: POSITIVE
Precursor type: [M+H]+
m/z	relative intensity
68.5	0
68.6	2
68.7	7
68.8	12
68.9	15
69.0	15
69.1	14
69.2	12
69.3	10
69.4	5
69.5	1
80.5	1
80.6	2
80.7	5
80.8	8
80.9	12
81.0	13
81.1	11
81.2	8
81.3	4
81.4	1
96.6	1
96.7	3
96.8	6
96.9	11
97.0	13
97.1	13
97.2	10
97.3	6
97.4	3
98.5	1
98.6	3
98.7	5
98.8	7
98.9	8
99.0	8
99.1	7
99.2	5
99.3	3
106.6	2
106.7	3
106.8	6
106.9	9
107.0	13
107.1	13
107.2	11
107.3	6
107.4	2
108.7	1
108.8	3
108.9	5
109.0	8
109.1	9
109.2	9
109.3	7
109.4	4
109.5	2
122.5	1
122.6	3
122.7	5
122.8	8
122.9	11
123.0	14
123.1	16
123.2	16
123.3	13
123.4	7
123.5	1
124.4	1
124.5	2
124.6	5
124.7	8
124.8	11
124.9	14
125.0	18
125.1	20
125.2	20
125.3	15
125.4	8
125.5	2
126.8	3
126.9	4
127.0	6
127.1	7
127.2	8
127.3	6
127.4	3
130.7	2
130.8	3
130.9	5
131.0	5
131.1	5
131.2	3
142.8	3
142.9	5
143.0	7
143.1	8
143.2	6
143.3	3
144.7	2
144.8	4
144.9	6
145.0	6
145.1	5
145.2	3
146.7	2
146.8	4
146.9	7
147.0	10
147.1	11
147.2	10
147.3	8
147.4	4
147.5	1
148.8	1
148.9	3
149.0	4
149.1	5
149.2	5
149.3	4
149.4	3
158.8	3
158.9	5
159.0	6
159.1	6
159.2	5
159.3	4
159.4	2
160.6	1
160.7	2
160.8	5
160.9	7
161.0	8
161.1	8
161.2	7
161.3	4
161.4	2
164.3	2
164.4	4
164.5	5
164.6	6
164.7	13
164.8	28
164.9	49
165.0	68
165.1	80
165.2	87
165.3	85
165.4	72
165.5	45
165.6	17
165.7	0
170.5	1
170.6	3
170.7	5
170.8	8
170.9	9
171.0	10
171.1	11
171.2	11
171.3	9
171.4	6
171.5	3
172.6	1
172.7	4
172.8	7
172.9	9
173.0	10
173.1	8
173.2	5
173.3	4
173.4	2
174.6	2
174.7	4
174.8	6
174.9	9
175.0	11
175.1	12
175.2	13
175.3	12
175.4	9
175.5	4
188.6	2
188.7	3
188.8	5
188.9	8
189.0	10
189.1	11
189.2	9
189.3	6
189.4	3
192.6	1
192.7	2
192.8	4
192.9	6
193.0	7
193.1	5
193.2	3
214.7	2
214.8	3
214.9	6
215.0	8
215.1	9
215.2	9
215.3	6
215.4	3
216.8	1
216.9	3
217.0	4
217.1	5
217.2	4
217.3	2
232.7	1
232.8	4
232.9	9
233.0	13
233.1	15
233.2	14
233.3	12
233.4	10
233.5	6
233.6	2
248.7	2
248.8	3
248.9	4
249.0	6
249.1	7
249.2	7
249.3	7
249.4	5
249.5	2
266.7	1
266.8	3
266.9	6
267.0	8
267.1	9
267.2	10
267.3	10
267.4	9
267.5	7
267.6	3
268.7	1
268.8	2
268.9	5
269.0	7
269.1	7
269.2	5
269.3	3
284.5	2
284.6	3
284.7	5
284.8	8
284.9	9
285.0	11
285.1	13
285.2	16
285.3	17
285.4	15
285.5	8
285.6	2
286.8	2
286.9	4
287.0	7
287.1	9
287.2	9
287.3	7
287.4	4
302.7	1
302.8	3
302.9	6
303.0	7
303.1	7
303.2	5
303.3	2
312.8	1
312.9	3
313.0	4
313.1	5
313.2	5
313.3	4
313.4	3
314.8	3
314.9	4
315.0	6
315.1	8
315.2	10
315.3	10
315.4	8
315.5	4
336.9	3
337.0	5
337.1	6
337.2	7
337.3	5
337.4	3
354.4	2
354.5	4
354.6	6
354.7	11
354.8	22
354.9	40
355.0	64
355.1	87
355.2	99
355.3	98
355.4	82
355.5	53
355.6	23
355.7	3
392.7	1
392.8	3
392.9	7
393.0	11
393.1	12
393.2	10
393.3	7
393.4	5
393.5	4
410.7	2
410.8	4
410.9	7
411.0	12
411.1	17
411.2	22
411.3	22
411.4	17
411.5	9
411.6	2
428.7	2
428.8	6
428.9	14
429.0	21
429.1	26
429.2	28
429.3	27
429.4	25
429.5	21
429.6	14
429.7	5
429.8	0
