Mass spectrum: Hyrcanogenin; LC-ESI-QQQ; MS2; Frag=135.0V CID@25.0 ; [M+H]+
Name: Hyrcanogenin
Class: Steroids
Formula: C23H30O5
Exact mass: 386.49255000000005
SMILES: C[C@]12CCC3C(CCC4=CC(O)CC[C@@]43C=O)C1(O)CCC2C1=CC(=O)OC1
InChI: InChI=1S/C23H30O5/c1-21-7-5-18-19(3-2-15-11-16(25)4-8-22(15,18)13-24)23(21,27)9-6-17(21)14-10-20(26)28-12-14/h10-11,13,16-19,25,27H,2-9,12H2,1H3/t16?,17?,18?,19?,21-,22-,23?/m1/s1
Instrument: Agilent 6410 Triple Quadrupole LC/MS system
Instrument type: LC-ESI-QQQ
Ms type: MS2
Ion mode: POSITIVE
Precursor type: [M+H]+
m/z	relative intensity
66.6	1
66.7	3
66.8	5
66.9	7
67.0	8
67.1	9
67.2	9
67.3	8
67.4	5
67.5	2
78.6	1
78.7	3
78.8	5
78.9	6
79.0	6
79.1	7
79.2	8
79.3	7
79.4	5
79.5	2
80.5	2
80.6	4
80.7	6
80.8	10
80.9	13
81.0	15
81.1	15
81.2	13
81.3	9
81.4	4
81.5	1
90.3	0
90.4	3
90.5	7
90.6	11
90.7	13
90.8	15
90.9	18
91.0	21
91.1	22
91.2	20
91.3	15
91.4	10
91.5	4
92.4	1
92.5	3
92.6	6
92.7	8
92.8	9
92.9	12
93.0	14
93.1	16
93.2	16
93.3	14
93.4	9
93.5	4
94.5	2
94.6	4
94.7	6
94.8	9
94.9	11
95.0	12
95.1	12
95.2	10
95.3	7
95.4	5
95.5	2
104.3	1
104.4	2
104.5	4
104.6	6
104.7	8
104.8	11
104.9	15
105.0	18
105.1	20
105.2	19
105.3	16
105.4	12
105.5	6
105.6	1
106.6	3
106.7	4
106.8	6
106.9	9
107.0	12
107.1	15
107.2	15
107.3	13
107.4	9
107.5	4
107.6	1
108.4	1
108.5	3
108.6	5
108.7	8
108.8	11
108.9	13
109.0	15
109.1	18
109.2	18
109.3	14
109.4	9
109.5	4
116.3	0
116.4	2
116.5	5
116.6	10
116.7	15
116.8	22
116.9	29
117.0	33
117.1	33
117.2	29
117.3	23
117.4	14
117.5	6
117.6	0
118.2	0
118.3	2
118.4	7
118.5	13
118.6	21
118.7	30
118.8	44
118.9	61
119.0	76
119.1	83
119.2	78
119.3	66
119.4	48
119.5	26
119.6	8
119.7	0
120.6	2
120.7	3
120.8	5
120.9	7
121.0	11
121.1	14
121.2	14
121.3	11
121.4	7
121.5	2
124.2	0
124.3	1
124.4	6
124.5	13
124.6	22
124.7	30
124.8	40
124.9	53
125.0	68
125.1	77
125.2	75
125.3	61
125.4	41
125.5	21
125.6	7
125.7	0
128.3	1
128.4	3
128.5	4
128.6	7
128.7	9
128.8	11
128.9	13
129.0	15
129.1	15
129.2	14
129.3	11
129.4	8
129.5	5
129.6	2
130.3	1
130.4	3
130.5	5
130.6	8
130.7	13
130.8	19
130.9	26
131.0	32
131.1	33
131.2	30
131.3	25
131.4	17
131.5	9
131.6	4
132.4	0
132.5	2
132.6	5
132.7	10
132.8	16
132.9	21
133.0	24
133.1	25
133.2	23
133.3	20
133.4	16
133.5	10
133.6	4
134.6	3
134.7	4
134.8	6
134.9	10
135.0	13
135.1	15
135.2	13
135.3	10
135.4	6
135.5	3
136.7	2
136.8	4
136.9	5
137.0	7
137.1	7
137.2	6
137.3	4
140.4	0
140.5	2
140.6	5
140.7	9
140.8	13
140.9	15
141.0	16
141.1	17
141.2	17
141.3	15
141.4	9
141.5	3
142.2	0
142.3	3
142.4	6
142.5	9
142.6	10
142.7	14
142.8	24
142.9	36
143.0	45
143.1	47
143.2	43
143.3	35
143.4	23
143.5	9
143.6	1
144.3	2
144.4	4
144.5	8
144.6	13
144.7	20
144.8	36
144.9	62
145.0	87
145.1	99
145.2	95
145.3	80
145.4	59
145.5	35
145.6	14
145.7	1
146.4	0
146.5	1
146.6	5
146.7	10
146.8	15
146.9	19
147.0	20
147.1	19
147.2	16
147.3	13
147.4	9
147.5	4
147.6	1
148.6	0
148.7	2
148.8	4
148.9	7
149.0	8
149.1	10
149.2	10
149.3	7
149.4	3
152.3	1
152.4	3
152.5	7
152.6	11
152.7	17
152.8	25
152.9	34
153.0	43
153.1	47
153.2	47
153.3	42
153.4	31
153.5	17
153.6	5
154.4	3
154.5	5
154.6	9
154.7	13
154.8	19
154.9	24
155.0	30
155.1	35
155.2	36
155.3	33
155.4	24
155.5	13
155.6	4
156.5	2
156.6	4
156.7	7
156.8	12
156.9	19
157.0	26
157.1	28
157.2	26
157.3	21
157.4	17
157.5	12
157.6	5
158.3	3
158.4	4
158.5	8
158.6	14
158.7	20
158.8	27
158.9	33
159.0	40
159.1	44
159.2	46
159.3	43
159.4	33
159.5	17
159.6	4
160.4	1
160.5	3
160.6	5
160.7	8
160.8	10
160.9	11
161.0	12
161.1	13
161.2	15
161.3	14
161.4	10
161.5	5
161.6	1
162.6	1
162.7	3
162.8	5
162.9	7
163.0	8
163.1	6
163.2	5
163.3	3
166.5	0
166.6	2
166.7	5
166.8	9
166.9	9
167.0	9
167.1	8
167.2	8
167.3	7
167.4	5
167.5	3
168.4	2
168.5	4
168.6	6
168.7	9
168.8	14
168.9	19
169.0	24
169.1	27
169.2	28
169.3	26
169.4	21
169.5	14
169.6	6
169.7	1
170.3	0
170.4	2
170.5	5
170.6	10
170.7	16
170.8	21
170.9	27
171.0	34
171.1	44
171.2	52
171.3	50
171.4	37
171.5	20
171.6	6
172.4	1
172.5	3
172.6	8
172.7	14
172.8	20
172.9	24
173.0	26
173.1	26
173.2	25
173.3	22
173.4	15
173.5	7
173.6	1
174.6	3
174.7	5
174.8	8
174.9	11
175.0	14
175.1	15
175.2	16
175.3	15
175.4	11
175.5	6
175.6	1
176.5	1
176.6	2
176.7	5
176.8	9
176.9	12
177.0	13
177.1	13
177.2	11
177.3	10
177.4	7
177.5	4
178.7	2
178.8	4
178.9	6
179.0	8
179.1	9
179.2	8
179.3	4
180.7	2
180.8	6
180.9	12
181.0	17
181.1	20
181.2	20
181.3	17
181.4	12
181.5	6
182.5	4
182.6	5
182.7	7
182.8	11
182.9	15
183.0	18
183.1	20
183.2	19
183.3	15
183.4	8
183.5	2
184.5	2
184.6	5
184.7	8
184.8	14
184.9	21
185.0	28
185.1	32
185.2	32
185.3	30
185.4	25
185.5	16
185.6	6
185.7	0
186.5	2
186.6	4
186.7	8
186.8	14
186.9	20
187.0	25
187.1	28
187.2	28
187.3	24
187.4	19
187.5	12
187.6	6
187.7	1
189.0	4
189.1	5
189.2	7
189.3	8
189.4	8
189.5	6
189.6	2
190.8	2
190.9	4
191.0	6
191.1	6
191.2	6
191.3	4
191.4	3
192.9	4
193.0	6
193.1	8
193.2	9
193.3	9
193.4	6
193.5	3
194.5	1
194.6	4
194.7	9
194.8	14
194.9	18
195.0	19
195.1	19
195.2	18
195.3	14
195.4	9
195.5	4
196.5	4
196.6	6
196.7	8
196.8	11
196.9	16
197.0	24
197.1	31
197.2	34
197.3	29
197.4	20
197.5	10
197.6	4
198.6	2
198.7	4
198.8	7
198.9	13
199.0	19
199.1	22
199.2	20
199.3	15
199.4	8
199.5	3
200.7	3
200.8	4
200.9	6
201.0	7
201.1	9
201.2	11
201.3	11
201.4	7
201.5	3
204.9	3
205.0	5
205.1	7
205.2	8
205.3	7
205.4	5
205.5	2
206.8	2
206.9	3
207.0	4
207.1	6
207.2	8
207.3	9
207.4	8
207.5	5
207.6	2
208.7	2
208.8	4
208.9	6
209.0	9
209.1	12
209.2	14
209.3	15
209.4	13
209.5	9
209.6	4
210.6	4
210.7	5
210.8	8
210.9	13
211.0	18
211.1	21
211.2	21
211.3	19
211.4	14
211.5	8
211.6	2
212.7	1
212.8	2
212.9	4
213.0	6
213.1	6
213.2	6
213.3	5
213.4	4
214.5	1
214.6	3
214.7	5
214.8	8
214.9	10
215.0	8
216.9	3
217.0	5
217.1	8
217.2	11
217.3	11
217.4	7
217.5	3
220.7	4
220.8	5
220.9	7
221.0	11
221.1	14
221.2	15
221.3	14
221.4	10
221.5	6
221.6	2
222.7	1
222.8	3
222.9	6
223.0	8
223.1	8
223.2	8
223.3	7
223.4	5
223.5	2
226.8	2
226.9	4
227.0	5
227.1	6
227.2	5
227.3	4
227.4	3
232.6	0
232.7	2
232.8	4
232.9	7
233.0	7
233.1	7
233.2	7
233.3	7
233.4	7
233.5	4
234.7	2
234.8	5
234.9	9
235.0	13
235.1	13
235.2	10
235.3	5
235.4	2
238.8	0
238.9	2
239.0	4
239.1	6
239.2	6
239.3	4
239.4	2
248.5	1
248.6	2
248.7	4
248.8	5
248.9	5
249.0	4
249.1	4
249.2	5
249.3	5
249.4	5
249.5	3
260.7	1
260.8	2
260.9	5
261.0	8
261.1	10
261.2	8
261.3	5
261.4	2
262.6	0
262.7	1
262.8	5
262.9	10
263.0	14
263.1	15
263.2	13
263.3	11
263.4	9
263.5	6
263.6	3
273.1	1
273.2	3
273.3	4
273.4	4
273.5	2
276.5	1
276.6	3
276.7	5
276.8	7
276.9	9
277.0	10
277.1	12
277.2	12
277.3	12
277.4	9
277.5	6
277.6	2
286.8	2
286.9	3
287.0	5
287.1	7
287.2	9
287.3	9
287.4	7
287.5	4
287.6	1
304.6	1
304.7	3
304.8	5
304.9	7
305.0	8
305.1	10
305.2	11
305.3	12
305.4	11
305.5	7
305.6	2
322.5	1
322.6	3
322.7	5
322.8	7
322.9	9
323.0	12
323.1	15
323.2	17
323.3	18
323.4	17
323.5	13
323.6	6
323.7	1
332.9	4
333.0	7
333.1	11
333.2	15
333.3	16
333.4	12
333.5	5
333.6	1
350.6	2
350.7	3
350.8	6
350.9	8
351.0	11
351.1	13
351.2	13
351.3	12
351.4	8
351.5	3
