Mass spectrum: Convolamine; LC-ESI-QQQ; MS2; Frag=135.0V CID@25.0 ; [M+H]+
Name: Convolamine
Class: Alkaloids
Formula: C17H23NO4
Exact mass: 305.37716
SMILES: COc1ccc(C(=O)O[C@@H]2C[C@@H]3CC[C@H](C2)N3C)cc1OC
InChI: InChI=1S/C17H23NO4/c1-18-12-5-6-13(18)10-14(9-12)22-17(19)11-4-7-15(20-2)16(8-11)21-3/h4,7-8,12-14H,5-6,9-10H2,1-3H3/t12-,13+,14+
Instrument: Agilent 6410 Triple Quadrupole LC/MS system
Instrument type: LC-ESI-QQQ
Ms type: MS2
Ion mode: POSITIVE
Precursor type: [M+H]+
m/z	relative intensity
90.7	2
90.8	3
90.9	5
91.0	6
91.1	6
91.2	5
91.3	5
91.4	3
92.3	0
92.4	2
92.5	4
92.6	9
92.7	15
92.8	24
92.9	34
93.0	42
93.1	46
93.2	45
93.3	39
93.4	29
93.5	17
93.6	6
93.7	0
123.3	1
123.4	4
123.5	8
123.6	16
123.7	29
123.8	48
123.9	70
124.0	89
124.1	99
124.2	99
124.3	90
124.4	72
124.5	48
124.6	23
124.7	5
124.8	0
305.7	2
305.8	4
305.9	6
306.0	9
306.1	12
306.2	13
306.3	12
306.4	10
306.5	6
306.6	3
