Mass spectrum: Perforine; LC-ESI-QQQ; MS2; Frag=135.0V CID@5.0; [M+H]+
Name: Perforine
Class: Alkaloids
Formula: C18H25NO5
Exact mass: 335.4037
SMILES: COc1c2c(nc3occc13)C(CCC(C)(C)O)(OC)C(O)CC2
InChI: InChI=1S/C18H25NO5/c1-17(2,21)8-9-18(23-4)13(20)6-5-11-14(22-3)12-7-10-24-16(12)19-15(11)18/h7,10,13,20-21H,5-6,8-9H2,1-4H3
Instrument: Agilent 6410 Triple Quadrupole LC/MS system
Instrument type: LC-ESI-QQQ
Ms type: MS2
Ion mode: POSITIVE
Precursor type: [M+H]+
m/z	relative intensity
285.4	0
285.5	1
285.6	4
285.7	7
285.8	12
285.9	20
286.0	29
286.1	35
286.2	38
286.3	36
286.4	29
286.5	19
286.6	8
286.7	0
303.3	0
303.4	1
303.5	4
303.6	8
303.7	17
303.8	30
303.9	50
304.0	72
304.1	91
304.2	99
304.3	93
304.4	72
304.5	42
304.6	15
304.7	0
335.7	2
335.8	4
335.9	6
336.0	9
336.1	13
336.2	15
336.3	16
336.4	14
336.5	10
336.6	5
336.7	1
