Mass spectrum: Emamectin; LC-ESI-QQQ; MS2; Frag=135.0V CID@25.0; [M+H]+
Name: Emamectin
Class: Polyketides
Formula: C49H75NO13
Exact mass: 886.143
SMILES: CC[C@H](C)[C@H]1O[C@]2(C=C[C@@H]1C)C[C@@H]1C[C@@H](C/C=C(\C)[C@@H](O[C@H]3C[C@H](OC)[C@@H](O[C@H]4C[C@H](OC)[C@H](NC)[C@H](C)O4)[C@H](C)O3)[C@@H](C)/C=C/C=C3\CO[C@@H]4[C@H](O)C(C)=C[C@@H](C(=O)O1)[C@]34O)O2
InChI: InChI=1S/C49H75NO13/c1-12-26(2)44-29(5)18-19-48(63-44)24-35-21-34(62-48)17-16-28(4)43(27(3)14-13-15-33-25-56-46-42(51)30(6)20-36(47(52)59-35)49(33,46)53)60-40-23-38(55-11)45(32(8)58-40)61-39-22-37(54-10)41(50-9)31(7)57-39/h13-16,18-20,26-27,29,31-32,34-46,50-51,53H,12,17,21-25H2,1-11H3/b14-13+,28-16+,33-15+/t26-,27-,29-,31-,32-,34+,35-,36-,37-,38-,39-,40-,41+,42+,43-,44+,45-,46+,48+,49+/m0/s1
Instrument: Agilent 6410 Triple Quadrupole LC/MS system
Instrument type: LC-ESI-QQQ
Ms type: MS2
Ion mode: POSITIVE
Precursor type: [M+H]+
m/z	relative intensity
157.1	1
157.2	3
157.3	6
157.4	11
157.5	19
157.6	31
157.7	48
157.8	69
157.9	87
158.0	98
158.1	99
158.2	90
158.3	70
158.4	43
158.5	18
158.6	2
301.7	2
301.8	4
301.9	5
302.0	6
302.1	6
302.2	4
302.3	2
885.4	1
885.5	2
885.6	4
885.7	5
885.8	8
885.9	13
886.0	18
886.1	24
886.2	30
886.3	33
886.4	35
886.5	33
886.6	26
886.7	15
886.8	5
886.9	0
