Mass spectrum: Physodic acid; LC-ESI-QQQ; MS2; Frag=135.0V CID@10.0; [M+H]+
Name: Physodic acid
Class: Carbohydrates
Formula: C26H30O8
Exact mass: 470.5242
SMILES: CCCCCC(=O)Cc1cc(O)cc2c1C(=O)Oc1cc(O)c(C(=O)O)c(CCCCC)c1O2
InChI: InChI=1S/C26H30O8/c1-3-5-7-9-16(27)11-15-12-17(28)13-20-22(15)26(32)34-21-14-19(29)23(25(30)31)18(24(21)33-20)10-8-6-4-2/h12-14,28-29H,3-11H2,1-2H3,(H,30,31)
Instrument: Agilent 6410 Triple Quadrupole LC/MS system
Instrument type: LC-ESI-QQQ
Ms type: MS2
Ion mode: POSITIVE
Precursor type: [M+H]+
m/z	relative intensity
356.7	2
356.8	4
356.9	7
357.0	10
357.1	11
357.2	11
357.3	9
357.4	6
357.5	3
382.6	2
382.7	4
382.8	6
382.9	9
383.0	11
383.1	13
383.2	12
383.3	10
383.4	6
383.5	2
384.5	1
384.6	2
384.7	4
384.8	7
384.9	11
385.0	15
385.1	18
385.2	20
385.3	20
385.4	17
385.5	12
385.6	5
385.7	0
410.3	0
410.4	2
410.5	5
410.6	11
410.7	21
410.8	36
410.9	56
411.0	75
411.1	89
411.2	95
411.3	90
411.4	74
411.5	49
411.6	22
411.7	3
426.5	1
426.6	2
426.7	5
426.8	9
426.9	15
427.0	22
427.1	26
427.2	28
427.3	26
427.4	21
427.5	14
427.6	6
427.7	1
452.4	1
452.5	3
452.6	7
452.7	12
452.8	20
452.9	29
453.0	39
453.1	46
453.2	50
453.3	49
453.4	41
453.5	28
453.6	13
453.7	1
470.3	1
470.4	2
470.5	5
470.6	11
470.7	21
470.8	38
470.9	60
471.0	80
471.1	95
471.2	99
471.3	93
471.4	76
471.5	49
471.6	22
471.7	3
