Mass spectrum: Ajmaline; LC-ESI-QQQ; MS2;  Frag=135.0V CID@15.0 ; [M+HCOO]-
Name: Ajmaline
Class: Alkaloids
Formula: C20H26N2O2
Exact mass: 326.44242
SMILES: CC[C@H]1C2CC3C4N(C)c5ccccc5[C@]45C[C@@H](C2C5O)N3[C@@H]1O
InChI: InChI=1S/C20H26N2O2/c1-3-10-11-8-14-17-20(12-6-4-5-7-13(12)21(17)2)9-15(16(11)18(20)23)22(14)19(10)24/h4-7,10-11,14-19,23-24H,3,8-9H2,1-2H3/t10-,11?,14?,15-,16?,17?,18?,19+,20+/m0/s1
Instrument: Agilent 6410 Triple Quadrupole LC/MS system
Instrument type: LC-ESI-QQQ
Ms type: MS2
Ion mode: NEGATIVE
Precursor type: [M+HCOO]-
m/z	relative intensity
50.8	1
50.9	5
51.0	11
51.1	14
51.2	12
51.5	7
51.6	12
51.7	15
51.8	13
51.9	7
52.1	1
52.2	6
52.3	12
52.4	14
52.5	11
52.8	6
52.9	11
53.0	15
53.1	14
53.2	10
54.1	6
54.2	10
54.3	14
54.4	13
54.5	9
54.7	6
54.8	11
54.9	15
55.0	14
55.1	8
55.3	2
55.4	7
55.5	15
55.6	18
55.7	14
55.8	7
56.0	4
56.1	10
56.2	15
56.3	16
56.4	12
56.6	6
56.7	9
56.8	14
56.9	15
57.0	11
57.9	6
58.0	10
58.1	12
58.2	12
58.3	8
58.5	3
58.6	7
58.7	12
58.8	16
58.9	14
59.2	9
59.3	13
59.4	16
59.5	13
59.6	8
59.8	5
59.9	9
60.0	14
60.1	15
60.2	13
60.5	7
60.6	11
60.7	15
60.8	15
60.9	12
61.1	9
61.2	12
61.3	16
61.4	16
61.5	12
62.4	4
62.5	9
62.6	14
62.7	15
62.8	11
63.0	5
63.1	8
63.2	13
63.3	14
63.4	9
63.6	3
63.7	8
63.8	13
63.9	16
64.0	13
64.1	7
64.3	2
64.4	6
64.5	10
64.6	12
64.7	10
65.0	5
65.1	9
65.2	13
65.3	11
65.4	7
65.6	4
65.7	9
65.8	13
65.9	11
66.2	3
66.3	10
66.4	16
66.5	18
66.6	13
66.9	8
67.0	12
67.1	15
67.2	13
67.3	8
67.5	4
67.6	8
67.7	13
67.8	13
67.9	10
68.8	4
68.9	8
69.0	13
69.1	14
69.2	11
69.5	6
69.6	11
69.7	13
69.8	11
70.1	8
70.2	13
70.3	16
70.4	14
70.5	8
70.7	3
70.8	9
70.9	14
71.0	14
71.1	10
71.3	3
71.4	6
71.5	12
71.6	16
71.7	14
71.8	9
72.0	7
72.1	11
72.2	14
72.3	13
72.4	8
72.6	4
72.7	7
72.8	11
72.9	12
73.0	10
73.2	6
73.3	9
73.4	13
73.5	16
73.6	15
73.7	11
74.0	6
74.1	9
74.2	11
74.3	10
74.6	5
74.7	10
74.8	14
74.9	13
75.2	7
75.3	12
75.4	15
75.5	14
75.6	9
75.8	6
75.9	9
76.0	13
76.1	13
76.2	11
76.4	7
76.5	10
76.6	14
76.7	15
76.8	12
77.1	7
77.2	12
77.3	16
77.4	14
77.5	9
77.7	4
77.8	8
77.9	11
78.0	12
78.1	9
78.4	5
78.5	9
78.6	13
78.7	14
78.8	10
79.7	6
79.8	11
79.9	14
80.0	13
80.1	10
80.3	7
80.4	10
80.5	12
80.6	11
80.7	7
80.9	4
81.0	7
81.1	11
81.2	14
81.3	12
81.6	7
81.7	11
81.8	13
81.9	12
82.0	7
82.2	4
82.3	9
82.4	15
82.5	17
82.6	13
83.5	7
83.6	11
83.7	15
83.8	14
83.9	11
84.8	5
84.9	8
85.0	12
85.1	13
85.2	9
85.4	5
85.5	9
85.6	14
85.7	15
85.8	12
86.1	5
86.2	11
86.3	15
86.4	14
86.5	8
86.7	4
86.8	9
86.9	14
87.0	13
87.1	9
87.3	6
87.4	10
87.5	14
87.6	15
87.7	11
88.6	5
88.7	10
88.8	15
88.9	16
89.0	12
89.9	7
90.0	11
90.1	15
90.2	14
90.3	11
90.5	7
90.6	11
90.7	15
90.8	15
90.9	11
91.0	5
91.2	3
91.3	8
91.4	14
91.5	14
91.6	10
91.8	4
91.9	8
92.0	12
92.1	12
92.2	9
92.4	4
92.5	8
92.6	12
92.7	14
92.8	11
92.9	6
93.1	3
93.2	7
93.3	11
93.4	12
93.5	9
93.7	6
93.8	10
93.9	15
94.0	16
94.1	13
94.2	7
94.4	5
94.5	10
94.6	15
94.7	14
94.8	9
95.0	7
95.1	11
95.2	15
95.3	15
95.4	11
96.3	3
96.4	8
96.5	13
96.6	14
96.7	11
97.0	5
97.1	9
97.2	13
97.3	12
97.6	7
97.7	12
97.8	16
97.9	15
98.0	10
98.2	6
98.3	9
98.4	13
98.5	13
98.6	10
98.9	6
99.0	11
99.1	14
99.2	13
99.3	8
99.5	5
99.6	10
99.7	14
99.8	15
99.9	10
100.1	2
100.2	7
100.3	14
100.4	17
100.5	14
100.8	7
100.9	12
101.0	14
101.1	12
101.2	8
101.4	4
101.5	8
101.6	12
101.7	14
101.8	11
102.1	5
102.2	11
102.3	15
102.4	13
102.7	6
102.8	12
102.9	17
103.0	17
103.1	12
104.0	7
104.1	12
104.2	15
104.3	15
104.4	10
104.6	3
104.7	7
104.8	12
104.9	15
105.0	12
105.3	4
105.4	10
105.5	15
105.6	15
105.7	10
105.9	4
106.0	8
106.1	12
106.2	13
106.3	9
106.5	4
106.6	8
106.7	12
106.8	14
106.9	12
107.0	7
107.2	4
107.3	7
107.4	10
107.5	12
107.8	8
107.9	10
108.0	13
108.1	13
108.2	11
108.4	6
108.5	8
108.6	13
108.7	16
108.8	13
108.9	7
109.1	5
109.2	9
109.3	14
109.4	14
109.5	10
109.7	4
109.8	8
109.9	12
110.0	14
110.1	11
110.4	6
110.5	10
110.6	14
110.7	14
110.8	10
111.0	5
111.1	8
111.2	12
111.3	13
111.4	11
111.7	7
111.8	11
111.9	14
112.0	13
112.1	9
112.3	6
112.4	9
112.5	12
112.6	13
112.7	11
113.0	8
113.1	12
113.2	14
113.3	12
114.2	3
114.3	8
114.4	14
114.5	15
114.6	11
115.5	6
115.6	11
115.7	15
115.8	15
115.9	11
116.2	6
116.3	10
116.4	12
116.5	10
116.8	6
116.9	11
117.0	15
117.1	15
117.2	11
118.1	6
118.2	12
118.3	15
118.4	14
118.5	10
118.7	6
118.8	9
118.9	13
119.0	13
119.1	10
119.4	6
119.5	11
119.6	15
119.7	15
119.8	10
120.0	7
120.1	10
120.2	12
120.3	11
120.4	7
120.6	2
120.7	5
120.8	9
120.9	11
121.0	10
121.2	5
121.3	8
121.4	14
121.5	18
121.6	15
121.7	8
121.9	3
122.0	9
122.1	15
122.2	15
122.3	10
122.6	5
122.7	11
122.8	15
122.9	14
123.2	7
123.3	12
123.4	16
123.5	15
123.6	10
123.8	4
123.9	9
124.0	14
124.1	15
124.2	12
124.5	5
124.6	10
124.7	13
124.8	13
124.9	10
125.7	5
125.8	8
125.9	12
126.0	14
126.1	12
126.4	6
126.5	10
126.6	14
126.7	13
126.8	8
127.0	3
127.1	8
127.2	13
127.3	15
127.4	11
128.3	8
128.4	12
128.5	15
128.6	14
128.7	9
128.9	3
129.0	7
129.1	12
129.2	15
129.3	12
129.6	6
129.7	11
129.8	14
129.9	13
130.0	8
130.2	3
130.3	7
130.4	11
130.5	12
130.6	8
130.8	4
130.9	8
131.0	12
131.1	12
131.2	10
131.5	7
131.6	11
131.7	13
131.8	13
131.9	9
132.8	4
132.9	9
133.0	13
133.1	12
133.2	8
133.4	5
133.5	9
133.6	13
133.7	13
133.8	9
134.0	5
134.1	9
134.2	13
134.3	14
134.4	11
134.5	5
134.7	1
134.8	6
134.9	12
135.0	14
135.1	12
135.4	6
135.5	11
135.6	13
135.7	11
135.8	7
136.0	5
136.1	9
136.2	11
136.3	10
136.6	6
136.7	10
136.8	15
136.9	16
137.0	12
137.1	5
137.3	3
137.4	8
137.5	12
137.6	12
137.9	9
138.0	13
138.1	15
138.2	14
138.3	8
138.5	3
138.6	7
138.7	12
138.8	14
138.9	12
139.0	8
139.2	6
139.3	10
139.4	14
139.5	14
139.6	9
139.8	6
139.9	9
140.0	13
140.1	13
140.2	8
140.4	4
140.5	8
140.6	14
140.7	16
140.8	13
140.9	6
141.1	2
141.2	7
141.3	12
141.4	14
141.5	12
142.4	5
142.5	10
142.6	14
142.7	13
142.8	7
143.0	4
143.1	9
143.2	13
143.3	14
143.4	11
143.7	6
143.8	11
143.9	13
144.0	12
144.1	9
144.3	6
144.4	9
144.5	12
144.6	13
144.7	11
144.9	8
145.0	10
145.1	13
145.2	14
145.3	10
145.6	5
145.7	11
145.8	15
145.9	14
146.0	9
146.2	5
146.3	9
146.4	13
146.5	14
146.6	11
146.9	7
147.0	11
147.1	13
147.2	12
147.3	8
147.5	4
147.6	7
147.7	11
147.8	12
147.9	10
148.7	3
148.8	7
148.9	13
149.0	15
149.1	13
149.2	9
149.4	7
149.5	10
149.6	13
149.7	13
149.8	11
150.1	7
150.2	11
150.3	12
150.4	11
150.7	9
150.8	13
150.9	17
151.0	16
151.1	12
152.0	7
152.1	12
152.2	15
152.3	14
152.4	10
152.6	6
152.7	11
152.8	15
152.9	16
153.0	13
153.9	6
154.0	11
154.1	15
154.2	16
154.3	12
154.6	7
154.7	12
154.8	15
154.9	13
155.2	8
155.3	12
155.4	16
155.5	15
155.6	9
155.8	4
155.9	7
156.0	12
156.1	13
156.2	9
156.4	4
156.5	8
156.6	14
156.7	17
156.8	15
156.9	9
157.1	5
157.2	11
157.3	17
157.4	17
157.5	12
158.4	5
158.5	9
158.6	13
158.7	13
158.8	10
159.1	6
159.2	10
159.3	12
159.4	12
159.7	9
159.8	13
159.9	16
160.0	15
160.1	11
161.6	6
161.7	10
161.8	13
161.9	10
162.0	5
162.2	2
162.3	7
162.4	13
162.5	15
162.6	14
163.5	5
163.6	10
163.7	14
163.8	13
163.9	9
164.1	3
164.2	7
164.3	13
164.4	16
164.5	14
164.8	8
164.9	13
165.0	15
165.1	13
165.2	8
165.4	6
165.5	11
165.6	15
165.7	16
165.8	12
166.1	6
166.2	10
166.3	13
166.4	12
166.5	7
166.7	4
166.8	9
166.9	14
167.0	16
167.1	11
168.0	5
168.1	9
168.2	12
168.3	12
168.4	9
168.6	3
168.7	8
168.8	14
168.9	16
169.0	12
169.9	6
170.0	11
170.1	15
170.2	15
170.3	10
170.5	6
170.6	10
170.7	14
170.8	15
170.9	12
171.2	6
171.3	11
171.4	15
171.5	14
171.6	9
171.8	6
171.9	10
172.0	14
172.1	15
172.2	12
172.5	6
172.6	10
172.7	13
172.8	12
173.1	7
173.2	12
173.3	15
173.4	14
173.5	9
173.7	4
173.8	9
173.9	14
174.0	15
174.1	12
174.2	5
174.4	3
174.5	8
174.6	12
174.7	11
174.8	6
175.0	4
175.1	9
175.2	13
175.3	14
175.4	10
175.7	5
175.8	11
175.9	15
176.0	14
176.1	9
176.3	6
176.4	10
176.5	14
176.6	13
176.7	8
176.9	2
177.0	7
177.1	12
177.2	14
177.3	10
178.2	3
178.3	8
178.4	12
178.5	13
178.6	10
179.5	3
179.6	9
179.7	15
179.8	16
179.9	12
180.8	6
180.9	12
181.0	16
181.1	14
181.2	7
181.4	4
181.5	9
181.6	13
181.7	13
181.8	9
182.0	5
182.1	7
182.2	11
182.3	13
182.4	12
182.5	9
182.7	6
182.8	9
182.9	12
183.0	13
183.1	9
183.3	4
183.4	8
183.5	12
183.6	15
183.7	12
183.8	7
184.0	6
184.1	9
184.2	12
184.3	12
184.4	7
184.6	4
184.7	8
184.8	13
184.9	14
185.0	10
185.2	6
185.3	10
185.4	15
185.5	17
185.6	14
185.7	7
185.9	5
186.0	10
186.1	14
186.2	14
186.3	9
186.5	4
186.6	7
186.7	12
186.8	13
186.9	10
187.2	5
187.3	10
187.4	13
187.5	11
187.6	7
187.8	3
187.9	6
188.0	10
188.1	13
188.2	12
189.1	3
189.2	6
189.3	10
189.4	10
189.5	7
189.7	2
189.8	7
189.9	13
190.0	16
190.1	13
190.2	7
190.4	4
190.5	9
190.6	13
190.7	12
191.0	7
191.1	12
191.2	16
191.3	15
191.4	9
192.3	5
192.4	10
192.5	14
192.6	14
192.7	10
193.6	8
193.7	13
193.8	16
193.9	14
194.0	8
194.2	3
194.3	8
194.4	14
194.5	15
194.6	10
195.4	7
195.5	11
195.6	15
195.7	15
195.8	13
195.9	10
196.8	6
196.9	11
197.0	13
197.1	11
197.4	6
197.5	11
197.6	15
197.7	15
197.8	11
198.1	7
198.2	10
198.3	12
198.4	10
198.7	8
198.8	12
198.9	15
199.0	14
199.1	9
199.3	5
199.4	9
199.5	14
199.6	16
199.7	12
200.0	6
200.1	11
200.2	14
200.3	13
200.4	9
200.6	3
200.7	7
200.8	12
200.9	14
201.0	10
201.2	4
201.3	7
201.4	13
201.5	16
201.6	15
201.7	9
201.9	3
202.0	7
202.1	12
202.2	13
202.3	10
202.5	5
202.6	8
202.7	12
202.8	12
202.9	9
203.2	6
203.3	11
203.4	14
203.5	14
203.6	10
203.8	4
203.9	8
204.0	13
204.1	16
204.2	14
204.3	10
204.5	7
204.6	11
204.7	14
204.8	13
204.9	8
205.1	7
205.2	10
205.3	12
205.4	9
205.7	6
205.8	11
205.9	15
206.0	15
206.1	11
206.4	5
206.5	10
206.6	15
206.7	16
206.8	12
207.6	5
207.7	9
207.8	14
207.9	16
208.0	14
208.1	9
208.3	6
208.4	10
208.5	14
208.6	15
208.7	10
209.0	6
209.1	12
209.2	17
209.3	15
209.4	10
209.6	6
209.7	10
209.8	14
209.9	13
210.0	9
210.2	6
210.3	10
210.4	14
210.5	15
210.6	11
211.5	5
211.6	9
211.7	12
211.8	13
211.9	10
212.7	4
212.8	7
212.9	13
213.0	16
213.1	14
213.2	8
213.4	3
213.5	8
213.6	14
213.7	15
213.8	12
214.1	6
214.2	12
214.3	16
214.4	14
214.5	8
214.7	5
214.8	9
214.9	14
215.0	15
215.1	9
215.4	4
215.5	11
215.6	14
215.7	13
216.0	7
216.1	12
216.2	15
216.3	13
216.4	8
216.6	3
216.7	8
216.8	14
216.9	16
217.0	13
217.3	7
217.4	12
217.5	16
217.6	14
217.7	9
217.9	6
218.0	10
218.1	15
218.2	14
218.3	8
218.5	2
218.6	8
218.7	16
218.8	19
218.9	15
219.0	9
219.2	5
219.3	9
219.4	13
219.5	14
219.6	11
219.8	7
219.9	10
220.0	13
220.1	14
220.2	10
220.5	5
220.6	9
220.7	13
220.8	12
220.9	9
221.1	7
221.2	10
221.3	13
221.4	12
221.7	8
221.8	12
221.9	15
222.0	15
222.1	11
223.0	5
223.1	11
223.2	17
223.3	17
223.4	11
224.3	5
224.4	9
224.5	13
224.6	14
224.7	10
224.9	5
225.0	8
225.1	12
225.2	13
225.3	10
225.6	5
225.7	11
225.8	15
225.9	14
226.0	10
226.2	6
226.3	9
226.4	13
226.5	14
226.6	12
226.9	6
227.0	11
227.1	15
227.2	14
227.3	10
227.5	7
227.6	10
227.7	14
227.8	14
227.9	11
228.7	8
228.8	11
228.9	13
229.0	14
229.1	11
229.2	7
229.4	3
229.5	6
229.6	10
229.7	13
229.8	11
230.6	5
230.7	14
230.8	21
230.9	21
231.0	15
231.1	7
231.3	4
231.4	9
231.5	14
231.6	15
231.7	12
232.0	5
232.1	10
232.2	14
232.3	14
232.4	11
232.6	5
232.7	8
232.8	13
232.9	15
233.0	12
233.9	5
234.0	9
234.1	13
234.2	13
234.3	10
234.5	6
234.6	9
234.7	14
234.8	15
234.9	12
235.2	7
235.3	11
235.4	14
235.5	13
235.6	9
235.8	6
235.9	9
236.0	13
236.1	13
236.2	9
236.4	1
236.5	5
236.6	11
236.7	14
236.8	12
237.1	5
237.2	10
237.3	15
237.4	15
237.5	11
237.8	6
237.9	12
238.0	16
238.1	15
238.2	9
238.4	5
238.5	10
238.6	15
238.7	15
238.8	9
239.0	1
239.1	6
239.2	13
239.3	16
239.4	13
239.5	7
239.7	5
239.8	10
239.9	14
240.0	13
240.1	7
240.3	4
240.4	9
240.5	14
240.6	16
240.7	13
241.5	3
241.6	6
241.7	11
241.8	13
241.9	13
242.0	8
242.2	4
242.3	7
242.4	12
242.5	13
242.6	9
242.9	5
243.0	11
243.1	14
243.2	12
243.5	5
243.6	10
243.7	14
243.8	13
243.9	10
244.7	1
244.8	5
244.9	11
245.0	16
245.1	17
245.2	13
245.5	7
245.6	11
245.7	12
245.8	10
246.0	5
246.1	8
246.2	13
246.3	15
246.4	13
246.5	8
246.7	4
246.8	8
246.9	13
247.0	14
247.1	10
247.3	4
247.4	7
247.5	12
247.6	14
247.7	12
247.9	7
248.0	10
248.1	15
248.2	17
248.3	13
248.4	8
248.6	5
248.7	9
248.8	13
248.9	13
249.0	9
249.2	3
249.3	6
249.4	12
249.5	15
249.6	14
249.9	8
250.0	13
250.1	17
250.2	17
250.3	14
251.2	5
251.3	9
251.4	12
251.5	12
251.6	9
251.8	6
251.9	9
252.0	12
252.1	14
252.2	12
252.5	7
252.6	11
252.7	14
252.8	12
253.1	6
253.2	10
253.3	13
253.4	12
253.5	8
253.7	3
253.8	7
253.9	12
254.0	15
254.1	13
254.2	8
254.4	5
254.5	9
254.6	13
254.7	13
254.8	9
255.0	6
255.1	9
255.2	13
255.3	14
255.4	12
255.7	6
255.8	11
255.9	14
256.0	14
256.1	11
256.3	7
256.4	10
256.5	13
256.6	12
256.7	7
256.9	3
257.0	7
257.1	11
257.2	13
257.3	11
257.6	7
257.7	11
257.8	14
257.9	12
258.0	7
258.2	2
258.3	5
258.4	10
258.5	13
258.6	11
258.9	8
259.0	11
259.1	13
259.2	11
259.4	5
259.5	8
259.6	13
259.7	16
259.8	14
259.9	8
260.1	2
260.2	6
260.3	11
260.4	13
260.5	11
261.4	4
261.5	8
261.6	13
261.7	15
261.8	11
262.0	4
262.1	8
262.2	14
262.3	15
262.4	12
262.7	4
262.8	10
262.9	15
263.0	16
263.1	13
263.4	8
263.5	12
263.6	14
263.7	12
264.0	8
264.1	12
264.2	15
264.3	14
264.4	10
264.6	5
264.7	8
264.8	12
264.9	13
265.0	10
265.2	4
265.3	8
265.4	14
265.5	16
265.6	14
265.7	8
265.9	5
266.0	10
266.1	14
266.2	13
266.3	10
267.2	6
267.3	9
267.4	11
267.5	10
267.8	5
267.9	9
268.0	13
268.1	14
268.2	11
268.5	7
268.6	11
268.7	13
268.8	12
268.9	8
269.1	6
269.2	9
269.3	12
269.4	12
269.5	9
269.7	5
269.8	9
269.9	15
270.0	17
270.1	13
270.2	6
270.4	2
270.5	8
270.6	12
270.7	13
270.8	10
272.3	3
272.4	9
272.5	14
272.6	14
272.7	10
273.6	5
273.7	9
273.8	14
273.9	14
274.0	11
274.8	4
274.9	8
275.0	14
275.1	17
275.2	14
275.3	8
275.5	6
275.6	11
275.7	15
275.8	15
275.9	10
276.2	6
276.3	11
276.4	15
276.5	14
276.6	9
276.8	7
276.9	11
277.0	14
277.1	13
277.2	8
277.4	5
277.5	9
277.6	13
277.7	13
277.8	10
278.1	6
278.2	11
278.3	15
278.4	14
278.5	9
278.7	6
278.8	11
278.9	15
279.0	14
279.1	9
279.3	1
279.4	10
279.5	22
279.6	28
279.7	22
279.8	11
280.0	6
280.1	11
280.2	14
280.3	11
280.4	6
280.6	2
280.7	6
280.8	13
280.9	16
281.0	13
281.3	8
281.4	14
281.5	18
281.6	16
281.7	11
281.9	6
282.0	10
282.1	14
282.2	14
282.3	9
282.5	4
282.6	7
282.7	11
282.8	13
282.9	10
283.2	6
283.3	12
283.4	16
283.5	14
283.6	9
283.8	3
283.9	7
284.0	12
284.1	13
284.2	10
284.4	5
284.5	8
284.6	13
284.7	16
284.8	12
284.9	6
285.1	2
285.2	7
285.3	13
285.4	14
285.5	10
285.8	6
285.9	10
286.0	13
286.1	12
286.4	7
286.5	12
286.6	15
286.7	14
286.8	9
287.0	4
287.1	9
287.2	14
287.3	16
287.4	12
288.3	6
288.4	10
288.5	13
288.6	14
288.7	10
289.6	4
289.7	10
289.8	15
289.9	15
290.0	10
290.2	4
290.3	8
290.4	12
290.5	13
290.6	9
290.8	5
290.9	8
291.0	13
291.1	15
291.2	11
291.5	5
291.6	11
291.7	15
291.8	14
291.9	10
292.1	3
292.2	7
292.3	13
292.4	15
292.5	11
292.8	7
292.9	12
293.0	16
293.1	14
293.2	8
293.4	3
293.5	8
293.6	14
293.7	15
293.8	11
294.1	7
294.2	11
294.3	14
294.4	14
294.5	10
294.7	6
294.8	9
294.9	12
295.0	13
295.1	10
295.3	5
295.4	7
295.5	12
295.6	14
295.7	12
295.8	7
296.0	5
296.1	9
296.2	13
296.3	13
296.4	9
296.6	6
296.7	10
296.8	14
296.9	16
297.0	12
297.1	6
297.3	4
297.4	9
297.5	13
297.6	12
297.7	7
297.9	3
298.0	8
298.1	12
298.2	13
298.3	9
298.5	5
298.6	9
298.7	13
298.8	13
298.9	9
299.2	4
299.3	8
299.4	11
299.5	10
299.8	6
299.9	11
300.0	15
300.1	16
300.2	12
301.1	4
301.2	10
301.3	14
301.4	14
301.5	10
301.7	5
301.8	10
301.9	14
302.0	15
302.1	11
302.4	4
302.5	11
302.6	15
302.7	14
302.8	9
303.0	3
303.1	7
303.2	12
303.3	14
303.4	12
303.7	6
303.8	11
303.9	15
304.0	14
304.1	8
304.3	4
304.4	9
304.5	14
304.6	15
304.7	12
305.6	6
305.7	9
305.8	12
305.9	13
306.0	12
307.5	7
307.6	11
307.7	14
307.8	13
307.9	10
308.1	7
308.2	10
308.3	14
308.4	16
308.5	13
309.4	5
309.5	10
309.6	16
309.7	17
309.8	14
310.1	8
310.2	13
310.3	16
310.4	15
310.5	10
310.7	6
310.8	9
310.9	12
311.0	12
311.1	9
311.4	6
311.5	10
311.6	12
311.7	11
312.0	5
312.1	10
312.2	13
312.3	13
312.4	9
312.6	4
312.7	8
312.8	12
312.9	12
313.0	8
313.2	2
313.3	5
313.4	10
313.5	13
313.6	13
313.7	9
313.9	6
314.0	10
314.1	13
314.2	11
314.3	5
314.5	1
314.6	7
314.7	16
314.8	21
314.9	18
315.0	12
315.2	9
315.3	13
315.4	16
315.5	14
315.6	9
315.8	4
315.9	8
316.0	12
316.1	14
316.2	11
317.1	5
317.2	11
317.3	14
317.4	12
317.5	8
317.7	5
317.8	10
317.9	15
318.0	17
318.1	12
318.4	4
318.5	11
318.6	17
318.7	16
318.8	10
319.6	5
319.7	7
319.8	11
319.9	13
320.0	12
320.3	9
320.4	13
320.5	17
320.6	16
320.7	10
321.5	6
321.6	9
321.7	14
321.8	17
321.9	15
322.0	9
322.2	4
322.3	8
322.4	13
322.5	14
322.6	11
322.9	6
323.0	12
323.1	16
323.2	14
323.3	9
323.5	5
323.6	9
323.7	14
323.8	15
323.9	12
324.7	5
324.8	8
324.9	12
325.0	15
325.1	13
325.2	8
325.4	4
325.5	8
325.6	13
325.7	15
325.8	13
325.9	8
326.1	6
326.2	10
326.3	13
326.4	12
326.5	8
326.7	4
326.8	8
326.9	11
327.0	11
327.1	8
327.3	4
327.4	7
327.5	11
327.6	14
327.7	12
327.8	7
328.0	5
328.1	10
328.2	15
328.3	15
328.4	11
329.3	4
329.4	10
329.5	14
329.6	14
329.7	9
329.9	6
330.0	10
330.1	12
330.2	11
330.3	7
330.5	4
330.6	8
330.7	13
330.8	14
330.9	11
331.2	7
331.3	11
331.4	14
331.5	14
331.6	10
331.8	8
331.9	11
332.0	15
332.1	16
332.2	13
332.5	7
332.6	11
332.7	15
332.8	13
332.9	8
333.1	3
333.2	9
333.3	13
333.4	13
333.5	9
333.7	7
333.8	11
333.9	15
334.0	15
334.1	12
334.2	7
334.4	5
334.5	8
334.6	11
334.7	12
334.8	8
335.0	4
335.1	7
335.2	12
335.3	13
335.4	10
335.6	3
335.7	7
335.8	13
335.9	17
336.0	15
336.1	9
336.3	5
336.4	11
336.5	16
336.6	15
336.7	9
336.9	2
337.0	7
337.1	13
337.2	16
337.3	13
337.6	7
337.7	11
337.8	14
337.9	13
338.0	9
338.2	6
338.3	9
338.4	13
338.5	13
338.6	10
340.1	3
340.2	7
340.3	11
340.4	12
340.5	10
340.8	7
340.9	12
341.0	16
341.1	16
341.2	13
342.0	4
342.1	7
342.2	12
342.3	14
342.4	12
342.5	7
342.7	5
342.8	9
342.9	14
343.0	15
343.1	12
344.0	7
344.1	10
344.2	13
344.3	13
344.6	11
344.7	13
344.8	15
344.9	15
345.0	12
345.9	5
346.0	11
346.1	16
346.2	15
346.3	10
346.5	5
346.6	8
346.7	13
346.8	15
346.9	13
347.2	7
347.3	11
347.4	14
347.5	12
347.6	8
347.8	6
347.9	10
348.0	13
348.1	14
348.2	10
348.5	6
348.6	12
348.7	16
348.8	14
348.9	9
349.1	4
349.2	8
349.3	14
349.4	15
349.5	11
350.4	6
350.5	11
350.6	15
350.7	15
350.8	11
351.0	6
351.1	10
351.2	14
351.3	15
351.4	11
352.3	5
352.4	9
352.5	14
352.6	14
352.7	10
353.0	6
353.1	11
353.2	14
353.3	13
353.4	8
353.6	4
353.7	8
353.8	11
353.9	10
354.0	8
354.2	5
354.3	9
354.4	12
354.5	13
354.6	12
355.5	6
355.6	9
355.7	11
355.8	12
355.9	9
356.1	6
356.2	9
356.3	13
356.4	14
356.5	12
356.8	7
356.9	10
357.0	12
357.1	11
357.4	5
357.5	10
357.6	14
357.7	15
357.8	12
358.1	7
358.2	10
358.3	13
358.4	12
358.5	9
358.7	7
358.8	10
358.9	14
359.0	15
359.1	12
359.3	7
359.4	10
359.5	15
359.6	16
359.7	12
360.0	4
360.1	11
360.2	16
360.3	15
360.4	10
360.6	5
360.7	10
360.8	14
360.9	15
361.0	11
361.1	5
361.3	3
361.4	8
361.5	13
361.6	15
361.9	10
362.0	13
362.1	17
362.2	16
362.3	12
362.4	6
362.6	6
362.7	9
362.8	11
362.9	10
363.8	4
363.9	10
364.0	15
364.1	16
364.2	12
364.5	5
364.6	10
364.7	14
364.8	14
364.9	10
365.1	5
365.2	9
365.3	13
365.4	14
365.5	11
366.4	5
366.5	10
366.6	13
366.7	13
366.8	9
367.0	3
367.1	7
367.2	12
367.3	13
367.4	11
367.7	5
367.8	10
367.9	14
368.0	13
368.1	8
368.3	5
368.4	9
368.5	13
368.6	13
368.7	10
369.6	5
369.7	10
369.8	14
369.9	14
370.0	10
370.3	7
370.4	11
370.5	13
370.6	11
370.9	7
371.0	12
371.1	14
371.2	12
371.3	7
371.5	4
371.6	10
371.7	14
371.8	13
372.0	2
372.1	5
372.2	18
372.3	30
372.4	30
372.5	18
372.6	6
372.8	7
372.9	14
373.0	21
373.1	34
373.2	51
373.3	57
373.4	43
373.5	22
373.6	11
373.7	11
373.8	11
374.7	6
374.8	11
374.9	14
375.0	13
375.1	9
375.3	4
375.4	7
375.5	11
375.6	13
375.7	9
376.0	3
376.1	8
376.2	12
376.3	12
376.4	8
376.6	2
376.7	6
376.8	11
376.9	13
377.0	11
377.3	7
377.4	12
377.5	16
377.6	15
377.7	9
377.9	5
378.0	10
378.1	14
378.2	15
378.3	11
378.6	6
378.7	10
378.8	13
378.9	11
379.2	6
379.3	10
379.4	12
379.5	11
379.8	5
379.9	9
380.0	13
380.1	13
380.2	9
380.5	5
380.6	11
380.7	15
380.8	13
380.9	7
381.1	1
381.2	6
381.3	10
381.4	9
381.5	4
381.7	0
381.8	5
381.9	10
382.0	12
382.1	10
382.4	7
382.5	11
382.6	14
382.7	13
382.8	9
383.0	3
383.1	7
383.2	13
383.3	14
383.4	10
383.6	4
383.7	7
383.8	13
383.9	16
384.0	14
384.1	9
384.3	6
384.4	10
384.5	14
384.6	14
384.7	9
384.9	2
385.0	6
385.1	12
385.2	15
385.3	12
385.6	7
385.7	12
385.8	14
385.9	12
386.0	7
386.2	4
386.3	8
386.4	13
386.5	14
386.6	11
386.9	6
387.0	10
387.1	12
387.2	11
387.5	5
387.6	10
387.7	14
387.8	15
387.9	11
388.2	4
388.3	10
388.4	14
388.5	13
388.6	10
388.8	8
388.9	11
389.0	13
389.1	12
389.2	8
389.4	4
389.5	9
389.6	15
389.7	17
389.8	13
390.1	7
390.2	11
390.3	15
390.4	14
390.5	9
390.7	5
390.8	9
390.9	13
391.0	13
391.1	8
391.3	3
391.4	6
391.5	11
391.6	14
391.7	11
391.8	6
392.0	4
392.1	8
392.2	13
392.3	14
392.4	12
393.9	3
394.0	9
394.1	14
394.2	14
394.3	10
395.2	5
395.3	9
395.4	11
395.5	10
395.8	5
395.9	10
396.0	14
396.1	14
396.2	10
396.4	6
396.5	11
396.6	15
396.7	15
396.8	10
397.1	3
397.2	9
397.3	14
397.4	14
397.5	10
397.7	5
397.8	9
397.9	14
398.0	15
398.1	11
398.2	5
398.4	3
398.5	7
398.6	11
398.7	12
398.8	10
399.6	6
399.7	9
399.8	14
399.9	16
400.0	13
400.3	6
400.4	11
400.5	16
400.6	16
400.7	12
401.5	3
401.6	7
401.7	13
401.8	17
401.9	15
402.0	8
402.2	3
402.3	8
402.4	14
402.5	16
402.6	12
402.9	7
403.0	13
403.1	18
403.2	16
403.3	11
403.5	5
403.6	9
403.7	13
403.8	13
403.9	9
404.1	5
404.2	9
404.3	13
404.4	14
404.5	12
404.8	7
404.9	11
405.0	14
405.1	14
405.2	10
405.4	7
405.5	11
405.6	17
405.7	18
405.8	14
405.9	7
406.1	5
406.2	10
406.3	14
406.4	14
406.5	11
406.7	6
406.8	10
406.9	14
407.0	15
407.1	11
408.0	5
408.1	10
408.2	15
408.3	15
408.4	11
408.6	5
408.7	9
408.8	13
408.9	14
409.0	10
409.3	5
409.4	10
409.5	13
409.6	12
409.7	9
409.9	5
410.0	8
410.1	11
410.2	12
410.3	11
410.5	7
410.6	9
410.7	14
410.8	17
410.9	14
411.0	8
411.2	5
411.3	10
411.4	14
411.5	14
411.6	10
411.8	5
411.9	8
412.0	12
412.1	15
412.2	13
412.3	8
412.5	6
412.6	10
412.7	13
412.8	12
413.1	8
413.2	11
413.3	13
413.4	13
413.5	11
413.8	8
413.9	12
414.0	14
414.1	13
414.2	8
414.4	5
414.5	9
414.6	13
414.7	13
414.8	9
415.0	5
415.1	9
415.2	13
415.3	13
415.4	10
415.6	5
415.7	8
415.8	13
415.9	16
416.0	14
416.1	10
416.9	4
417.0	8
417.1	13
417.2	16
417.3	13
417.6	6
417.7	11
417.8	14
417.9	13
418.0	9
418.2	6
418.3	10
418.4	13
418.5	13
418.6	10
418.8	6
418.9	10
419.0	14
419.1	16
419.2	13
419.3	9
419.5	6
419.6	9
419.7	12
419.8	12
419.9	8
420.1	3
420.2	7
420.3	12
420.4	14
420.5	12
420.8	7
420.9	12
421.0	17
421.1	16
421.2	10
421.4	4
421.5	8
421.6	13
421.7	14
421.8	11
422.1	5
422.2	9
422.3	12
422.4	11
422.5	6
422.7	1
422.8	6
422.9	11
423.0	12
423.1	8
423.3	3
423.4	7
423.5	13
423.6	15
423.7	13
424.0	8
424.1	14
424.2	17
424.3	14
424.4	8
424.6	4
424.7	8
424.8	13
424.9	14
425.0	11
425.9	4
426.0	8
426.1	12
426.2	12
426.3	9
426.5	6
426.6	9
426.7	14
426.8	14
426.9	10
427.2	4
427.3	10
427.4	13
427.5	13
427.6	9
427.8	4
427.9	7
428.0	12
428.1	13
428.2	9
428.4	4
428.5	8
428.6	13
428.7	15
428.8	12
428.9	6
429.1	2
429.2	8
429.3	14
429.4	15
429.5	11
429.7	5
429.8	8
429.9	13
430.0	16
430.1	13
430.4	7
430.5	13
430.6	17
430.7	15
430.8	9
431.0	4
431.1	9
431.2	14
431.3	16
431.4	12
431.7	7
431.8	11
431.9	14
432.0	12
432.1	8
432.3	4
432.4	8
432.5	12
432.6	12
432.7	8
432.9	4
433.0	7
433.1	12
433.2	14
433.3	11
433.6	5
433.7	10
433.8	13
433.9	12
434.2	6
434.3	10
434.4	14
434.5	14
434.6	10
434.9	5
435.0	9
435.1	12
435.2	11
435.5	6
435.6	10
435.7	14
435.8	14
435.9	10
436.1	5
436.2	8
436.3	14
436.4	15
436.5	11
436.8	4
436.9	10
437.0	15
437.1	15
437.2	10
438.0	4
438.1	7
438.2	12
438.3	14
438.4	12
438.5	7
438.7	4
438.8	8
438.9	12
439.0	12
439.1	9
439.3	6
439.4	10
439.5	14
439.6	14
439.7	10
439.9	3
440.0	7
440.1	12
440.2	15
440.3	14
440.4	10
440.6	7
440.7	11
440.8	15
440.9	15
441.0	11
441.3	6
441.4	11
441.5	14
441.6	12
441.9	7
442.0	11
442.1	15
442.2	14
442.3	9
442.5	3
442.6	7
442.7	12
442.8	14
442.9	9
443.2	4
443.3	10
443.4	14
443.5	12
443.6	8
443.8	5
443.9	11
444.0	15
444.1	15
444.2	10
445.1	5
445.2	9
445.3	13
445.4	13
445.5	10
445.7	6
445.8	9
445.9	13
446.0	14
446.1	12
446.4	7
446.5	12
446.6	15
446.7	14
446.8	10
447.0	6
447.1	9
447.2	13
447.3	15
447.4	12
447.7	6
447.8	10
447.9	13
448.0	11
448.3	7
448.4	11
448.5	13
448.6	11
448.7	6
448.9	2
449.0	7
449.1	14
449.2	16
449.3	13
449.4	7
449.6	5
449.7	11
449.8	15
449.9	14
450.0	9
450.2	4
450.3	8
450.4	11
450.5	11
450.6	8
450.8	6
450.9	8
451.0	12
451.1	13
451.2	11
451.5	8
451.6	11
451.7	13
451.8	12
452.1	7
452.2	11
452.3	15
452.4	15
452.5	11
452.8	6
452.9	10
453.0	13
453.1	11
453.2	7
453.4	3
453.5	7
453.6	12
453.7	13
453.8	9
454.0	4
454.1	7
454.2	12
454.3	15
454.4	13
454.5	10
454.7	7
454.8	10
454.9	12
455.0	13
455.1	11
455.3	8
455.4	11
455.5	15
455.6	15
455.7	12
455.8	6
456.0	4
456.1	9
456.2	13
456.3	12
456.6	6
456.7	10
456.8	14
456.9	15
457.0	11
457.3	6
457.4	11
457.5	14
457.6	13
457.7	9
457.9	6
458.0	11
458.1	16
458.2	16
458.3	11
459.1	5
459.2	7
459.3	12
459.4	15
459.5	14
459.6	10
459.8	3
459.9	6
460.0	12
460.1	14
460.2	13
461.1	5
461.2	11
461.3	17
461.4	17
461.5	12
462.4	4
462.5	9
462.6	13
462.7	13
462.8	8
463.0	4
463.1	9
463.2	14
463.3	15
463.4	11
464.3	4
464.4	8
464.5	12
464.6	13
464.7	9
464.9	4
465.0	8
465.1	15
465.2	20
465.3	18
465.4	12
466.2	8
466.3	11
466.4	13
466.5	13
466.6	10
466.8	3
466.9	6
467.0	12
467.1	16
467.2	14
467.3	9
467.5	8
467.6	11
467.7	13
467.8	12
467.9	8
468.1	5
468.2	8
468.3	12
468.4	13
468.5	10
468.8	7
468.9	11
469.0	14
469.1	13
469.2	9
469.4	3
469.5	6
469.6	12
469.7	16
469.8	15
469.9	10
470.1	7
470.2	12
470.3	15
470.4	13
470.5	8
470.7	6
470.8	10
470.9	13
471.0	13
471.1	10
471.4	6
471.5	12
471.6	15
471.7	14
471.8	9
472.0	6
472.1	10
472.2	14
472.3	14
472.4	9
472.6	3
472.7	7
472.8	12
472.9	15
473.0	13
473.3	8
473.4	12
473.5	15
473.6	13
473.7	7
473.9	2
474.0	7
474.1	13
474.2	15
474.3	11
474.6	6
474.7	12
474.8	15
474.9	13
475.0	8
475.2	6
475.3	10
475.4	12
475.5	11
475.8	6
475.9	10
476.0	14
476.1	14
476.2	10
476.5	4
476.6	8
476.7	12
476.8	12
476.9	8
477.1	5
477.2	8
477.3	12
477.4	11
477.5	8
477.7	3
477.8	6
477.9	11
478.0	14
478.1	13
478.2	11
479.0	6
479.1	9
479.2	12
479.3	12
479.4	8
479.6	3
479.7	6
479.8	11
479.9	14
480.0	12
480.1	8
480.8	3
480.9	6
481.0	11
481.1	16
481.2	17
481.3	13
481.4	8
481.6	6
481.7	11
481.8	14
481.9	13
482.0	9
482.3	5
482.4	10
482.5	13
482.6	12
483.5	6
483.6	11
483.7	16
483.8	15
483.9	10
484.1	5
484.2	9
484.3	14
484.4	14
484.5	10
484.8	4
484.9	10
485.0	15
485.1	14
485.2	9
485.4	4
485.5	9
485.6	14
485.7	14
485.8	9
486.0	3
486.1	7
486.2	12
486.3	15
486.4	13
486.5	8
486.7	5
486.8	9
486.9	13
487.0	13
487.1	10
487.4	7
487.5	11
487.6	13
487.7	11
488.0	7
488.1	11
488.2	15
488.3	15
488.4	12
489.3	7
489.4	12
489.5	14
489.6	12
489.7	6
489.9	1
490.0	6
490.1	12
490.2	13
490.3	9
490.5	3
490.6	7
490.7	12
490.8	14
490.9	12
491.2	6
491.3	10
491.4	14
491.5	12
491.6	6
491.8	1
491.9	7
492.0	13
492.1	15
492.2	11
492.5	4
492.6	10
492.7	15
492.8	15
492.9	10
494.4	5
494.5	8
494.6	12
494.7	12
494.8	10
495.0	5
495.1	8
495.2	14
495.3	17
495.4	14
495.5	7
495.7	6
495.8	12
495.9	16
496.0	15
496.1	9
496.3	4
496.4	9
496.5	14
496.6	15
496.7	11
497.6	4
497.7	11
497.8	15
497.9	14
498.0	9
498.2	6
498.3	10
498.4	15
498.5	16
498.6	12
499.5	6
499.6	11
499.7	15
499.8	14
499.9	9
500.1	2
500.2	5
500.3	11
500.4	14
500.5	14
500.6	10
500.8	6
500.9	9
501.0	11
501.1	11
501.2	8
501.4	5
501.5	9
501.6	14
501.7	14
501.8	9
502.0	1
502.1	8
502.2	16
502.3	18
502.4	14
502.5	7
502.7	4
502.8	10
502.9	16
503.0	16
503.1	10
503.9	5
504.0	8
504.1	12
504.2	15
504.3	13
504.4	8
504.6	4
504.7	8
504.8	11
504.9	12
505.0	9
505.3	5
505.4	7
505.5	9
505.6	9
505.7	7
505.8	7
505.9	9
506.0	12
506.1	15
506.2	14
506.3	10
506.5	4
506.6	7
506.7	13
506.8	15
506.9	13
507.0	8
507.2	5
507.3	10
507.4	14
507.5	13
507.6	9
507.8	5
507.9	9
508.0	14
508.1	16
508.2	14
508.3	10
508.5	8
508.6	11
508.7	13
508.8	12
509.1	7
509.2	11
509.3	14
509.4	14
509.5	10
510.4	7
510.5	11
510.6	15
510.7	15
510.8	12
511.6	4
511.7	8
511.8	14
511.9	17
512.0	15
512.1	10
512.3	4
512.4	8
512.5	13
512.6	15
512.7	11
513.6	5
513.7	12
513.8	17
513.9	16
514.0	11
514.2	6
514.3	10
514.4	14
514.5	16
514.6	13
514.9	7
515.0	11
515.1	14
515.2	12
515.5	7
515.6	11
515.7	15
515.8	15
515.9	12
516.2	7
516.3	11
516.4	13
516.5	12
516.8	7
516.9	11
517.0	14
517.1	13
517.2	8
517.4	4
517.5	8
517.6	12
517.7	13
517.8	11
518.1	7
518.2	11
518.3	14
518.4	13
518.5	9
518.7	5
518.8	9
518.9	12
519.0	11
519.1	7
519.3	1
519.4	5
519.5	12
519.6	16
519.7	13
520.0	6
520.1	11
520.2	15
520.3	15
520.4	10
520.6	6
520.7	9
520.8	13
520.9	14
521.0	11
521.2	4
521.3	8
521.4	13
521.5	16
521.6	14
521.7	9
521.9	4
522.0	8
522.1	12
522.2	12
522.3	9
522.5	4
522.6	7
522.7	12
522.8	15
522.9	13
523.2	7
523.3	12
523.4	15
523.5	13
523.6	9
523.8	5
523.9	9
524.0	13
524.1	14
524.2	10
524.4	4
524.5	8
524.6	13
524.7	15
524.8	13
524.9	8
525.1	5
525.2	9
525.3	13
525.4	13
525.5	9
525.7	4
525.8	8
525.9	14
526.0	15
526.1	12
526.4	5
526.5	10
526.6	14
526.7	13
526.8	9
527.0	5
527.1	8
527.2	14
527.3	17
527.4	14
527.5	9
527.7	7
527.8	11
527.9	13
528.0	12
528.1	8
528.3	6
528.4	10
528.5	14
528.6	13
528.7	9
528.9	5
529.0	10
529.1	16
529.2	18
529.3	14
529.6	8
529.7	12
529.8	15
529.9	15
530.0	11
530.3	6
530.4	10
530.5	12
530.6	10
531.5	3
531.6	8
531.7	12
531.8	12
531.9	9
532.1	5
532.2	10
532.3	15
532.4	16
532.5	11
532.6	4
532.8	1
532.9	7
533.0	11
533.1	13
533.2	10
534.1	5
534.2	11
534.3	15
534.4	15
534.5	9
534.7	4
534.8	8
534.9	12
535.0	14
535.1	12
535.3	8
535.4	11
535.5	15
535.6	16
535.7	12
536.0	5
536.1	10
536.2	15
536.3	15
536.4	10
536.6	2
536.7	6
536.8	12
536.9	15
537.0	13
537.1	8
537.3	6
537.4	10
537.5	12
537.6	11
537.7	7
537.9	4
538.0	8
538.1	12
538.2	13
538.3	9
538.6	6
538.7	11
538.8	14
538.9	13
539.8	5
539.9	10
540.0	15
540.1	15
540.2	12
541.1	3
541.2	8
541.3	14
541.4	16
541.5	12
542.4	6
542.5	10
542.6	14
542.7	14
542.8	10
543.0	5
543.1	8
543.2	13
543.3	14
543.4	10
543.6	5
543.7	8
543.8	13
543.9	15
544.0	12
544.1	6
544.3	4
544.4	8
544.5	13
544.6	14
544.7	11
545.0	7
545.1	11
545.2	13
545.3	12
545.4	8
545.6	6
545.7	10
545.8	13
545.9	13
546.0	10
546.3	6
546.4	8
546.5	10
546.6	9
546.9	6
547.0	11
547.1	14
547.2	12
547.3	7
547.5	3
547.6	8
547.7	12
547.8	12
547.9	8
548.1	4
548.2	10
548.3	16
548.4	17
548.5	12
548.8	6
548.9	11
549.0	14
549.1	12
549.2	7
549.4	4
549.5	9
549.6	14
549.7	15
549.8	12
550.1	6
550.2	10
550.3	13
550.4	12
550.5	7
550.7	4
550.8	10
550.9	15
551.0	16
551.1	12
551.2	6
551.4	5
551.5	9
551.6	13
551.7	12
552.6	4
552.7	10
552.8	15
552.9	15
553.0	11
553.3	6
553.4	12
553.5	16
553.6	14
553.7	9
553.9	5
554.0	9
554.1	13
554.2	14
554.3	11
554.5	5
554.6	8
554.7	13
554.8	15
554.9	12
555.2	6
555.3	10
555.4	13
555.5	12
555.6	9
555.8	7
555.9	10
556.0	13
556.1	14
556.2	11
556.5	7
556.6	13
556.7	17
556.8	15
556.9	9
557.1	4
557.2	9
557.3	14
557.4	15
557.5	11
558.4	6
558.5	10
558.6	13
558.7	13
558.8	10
559.0	6
559.1	8
559.2	12
559.3	14
559.4	11
559.5	7
559.7	5
559.8	8
559.9	11
560.0	11
560.1	8
560.3	5
560.4	9
560.5	13
560.6	14
560.7	12
560.9	9
561.0	12
561.1	14
561.2	14
561.3	10
561.5	3
561.6	6
561.7	12
561.8	16
561.9	14
562.0	9
562.2	4
562.3	8
562.4	13
562.5	14
562.6	10
562.8	4
562.9	8
563.0	13
563.1	15
563.2	13
563.5	9
563.6	12
563.7	14
563.8	12
563.9	9
564.1	6
564.2	10
564.3	14
564.4	15
564.5	11
564.8	5
564.9	10
565.0	15
565.1	14
565.2	10
565.4	7
565.5	11
565.6	14
565.7	14
565.8	9
566.0	5
566.1	9
566.2	14
566.3	17
566.4	14
566.5	8
566.7	5
566.8	9
566.9	13
567.0	13
567.1	10
567.3	5
567.4	8
567.5	12
567.6	14
567.7	12
568.0	7
568.1	11
568.2	13
568.3	11
568.6	5
568.7	9
568.8	13
568.9	13
569.0	9
569.2	3
569.3	7
569.4	13
569.5	16
569.6	13
569.7	7
569.9	4
570.0	10
570.1	15
570.2	15
570.3	11
570.5	5
570.6	9
570.7	14
570.8	16
570.9	13
571.2	7
571.3	12
571.4	16
571.5	14
571.6	8
571.8	4
571.9	8
572.0	13
572.1	12
572.2	8
572.4	2
572.5	5
572.6	11
572.7	13
572.8	11
573.1	5
573.2	10
573.3	13
573.4	12
573.5	6
573.7	2
573.8	6
573.9	11
574.0	13
574.1	11
574.4	7
574.5	11
574.6	13
574.7	12
574.8	8
575.0	4
575.1	8
575.2	13
575.3	16
575.4	13
575.7	7
575.8	12
575.9	15
576.0	14
576.1	10
576.3	7
576.4	10
576.5	12
576.6	11
576.9	6
577.0	9
577.1	13
577.2	15
577.3	12
577.6	6
577.7	10
577.8	14
577.9	14
578.0	9
578.2	2
578.3	6
578.4	12
578.5	15
578.6	12
578.9	6
579.0	12
579.1	16
579.2	14
579.3	8
579.5	4
579.6	9
579.7	14
579.8	15
579.9	11
580.8	6
580.9	12
581.0	16
581.1	15
581.2	10
581.4	5
581.5	9
581.6	13
581.7	13
581.8	10
582.7	6
582.8	10
582.9	14
583.0	15
583.1	11
584.6	3
584.7	7
584.8	12
584.9	14
585.0	11
585.3	5
585.4	9
585.5	13
585.6	13
585.7	10
585.9	6
586.0	9
586.1	12
586.2	12
586.5	6
586.6	10
586.7	14
586.8	15
586.9	11
587.0	6
587.2	3
587.3	7
587.4	11
587.5	10
587.6	5
587.8	1
587.9	6
588.0	13
588.1	15
588.2	11
589.1	6
589.2	11
589.3	15
589.4	15
589.5	11
590.4	6
590.5	12
590.6	15
590.7	13
590.8	8
591.0	5
591.1	9
591.2	14
591.3	14
591.4	11
591.7	8
591.8	12
591.9	14
592.0	13
592.1	9
592.3	7
592.4	10
592.5	13
592.6	12
592.7	8
592.9	6
593.0	10
593.1	14
593.2	15
593.3	11
593.6	8
593.7	12
593.8	15
593.9	14
594.0	9
594.2	4
594.3	9
594.4	15
594.5	16
594.6	14
594.7	9
594.9	7
595.0	11
595.1	12
595.2	11
595.5	6
595.6	10
595.7	14
595.8	15
595.9	12
596.8	7
596.9	11
597.0	14
597.1	13
597.4	9
597.5	12
597.6	14
597.7	13
597.8	10
598.0	4
598.1	7
598.2	12
598.3	15
598.4	13
598.5	7
598.7	2
598.8	8
598.9	13
599.0	14
599.1	10
