Mass spectrum: Demecolcine; LC-ESI-QQQ; MS2; Frag=135.0V CID@15.0; [M+H]+
Name: Demecolcine
Class: Alkaloids
Formula: C21H25NO5
Exact mass: 371.4371
SMILES: CN[C@H]1CCc2cc(OC)c(OC)c(OC)c2-c2ccc(OC)c(=O)cc21
InChI: InChI=1S/C21H25NO5/c1-22-15-8-6-12-10-18(25-3)20(26-4)21(27-5)19(12)13-7-9-17(24-2)16(23)11-14(13)15/h7,9-11,15,22H,6,8H2,1-5H3/t15-/m0/s1
Instrument: Agilent 6410 Triple Quadrupole LC/MS system
Instrument type: LC-ESI-QQQ
Ms type: MS2
Ion mode: POSITIVE
Precursor type: [M+H]+
m/z	relative intensity
71.7	2
71.8	3
71.9	5
72.0	6
72.1	6
72.2	5
72.3	4
72.4	3
281.8	2
281.9	4
282.0	5
282.1	5
282.2	5
282.3	5
282.4	3
308.7	2
308.8	4
308.9	6
309.0	8
309.1	10
309.2	10
309.3	10
309.7	7
309.8	12
309.9	19
310.0	25
310.1	29
310.2	29
310.3	26
310.4	20
310.5	12
310.6	5
310.9	2
311.0	4
311.1	5
311.2	5
311.3	5
311.4	4
311.5	3
311.6	2
311.7	2
311.8	4
311.9	6
312.0	8
312.1	10
312.2	10
312.3	9
312.4	7
312.5	4
314.7	1
314.8	3
314.9	6
315.0	8
315.1	9
315.2	9
315.3	7
315.4	5
315.5	3
325.7	3
325.8	4
325.9	7
326.0	10
326.1	11
326.2	10
326.3	8
326.4	6
326.5	3
339.6	3
339.7	5
339.8	9
339.9	15
340.0	21
340.1	25
340.2	26
340.3	24
340.4	20
340.5	14
340.6	8
340.8	5
340.9	9
341.0	14
341.1	17
341.2	18
341.3	17
341.4	14
341.5	9
341.6	4
343.8	2
343.9	3
344.0	4
344.1	5
344.2	5
344.3	5
344.4	4
344.5	2
371.3	1
371.4	3
371.5	6
371.6	10
371.7	17
371.8	30
371.9	51
372.0	74
372.1	92
372.2	99
372.3	95
372.4	79
372.5	53
372.6	25
372.7	5
372.8	0
