Mass spectrum: Fellutanine A; LC-ESI-QQQ; MS2; Frag=135.0V CID@5.0; [M+H]+
Name: Fellutanine A
Class: Aminoacids and peptides
Formula: C22H20N4O2
Exact mass: 372.4303
SMILES: OC1=N[C@@H](Cc2c[nH]c3ccccc23)C(O)=NC1Cc1c[nH]c2ccccc12
InChI: InChI=1S/C22H20N4O2/c27-21-19(9-13-11-23-17-7-3-1-5-15(13)17)25-22(28)20(26-21)10-14-12-24-18-8-4-2-6-16(14)18/h1-8,11-12,19-20,23-24H,9-10H2,(H,25,28)(H,26,27)/t19-,20?/m0/s1
Instrument: Agilent 6410 Triple Quadrupole LC/MS system
Instrument type: LC-ESI-QQQ
Ms type: MS2
Ion mode: POSITIVE
Precursor type: [M+H]+
m/z	relative intensity
129.3	0
129.4	1
129.5	4
129.6	7
129.7	12
129.8	20
129.9	28
130.0	34
130.1	36
130.2	34
130.3	29
130.4	21
130.5	11
130.6	3
241.5	1
241.6	2
241.7	4
241.8	6
241.9	8
242.0	11
242.1	12
242.2	13
242.3	12
242.4	9
242.5	5
242.6	1
372.4	1
372.5	4
372.6	9
372.7	17
372.8	31
372.9	52
373.0	74
373.1	91
373.2	99
373.3	97
373.4	81
373.5	54
373.6	23
373.7	2
