Mass spectrum: Heliotrine; LC-ESI-QQQ; MS2; Frag=135.0V CID@10.0; [M+H]+
Name: Heliotrine
Class: Alkaloids
Formula: C16H27NO5
Exact mass: 313.3973
SMILES: COC(C)C(O)(C(=O)OCC1=CCN2CCC(O)[C@@H]12)C(C)C
InChI: InChI=1S/C16H27NO5/c1-10(2)16(20,11(3)21-4)15(19)22-9-12-5-7-17-8-6-13(18)14(12)17/h5,10-11,13-14,18,20H,6-9H2,1-4H3/t11?,13?,14-,16?/m1/s1
Instrument: Agilent 6410 Triple Quadrupole LC/MS system
Instrument type: LC-ESI-QQQ
Ms type: MS2
Ion mode: POSITIVE
Precursor type: [M+H]+
m/z	relative intensity
137.3	0
137.4	1
137.5	4
137.6	8
137.7	15
137.8	24
137.9	35
138.0	43
138.1	47
138.2	46
138.3	41
138.4	32
138.5	19
138.6	7
138.7	0
313.4	0
313.5	2
313.6	6
313.7	14
313.8	26
313.9	43
314.0	65
314.1	86
314.2	99
314.3	99
314.4	85
314.5	58
314.6	28
314.7	6
314.8	0
