Mass spectrum: laudanosine; LC-ESI-QQQ; MS2; Frag=135.0V CID@15.0; [M+H]+
Name: Laudanoside
Name: N-Methyltetrahydropapaverine
Name: 6,7-Dimethoxy-2-methyl-1-veratryl-1,2,3,4-tetrahydroisoquinoline
Name: 1-((3,4-dimethoxyphenyl)methyl)-6,7-dimethoxy-2-methyl-1,2,3,4-tetrahydroisoquinoline
Name: laudanosine
Class: Alkaloids
Formula: C21H27NO4
Exact mass: 357.4536
SMILES: COc1ccc(CC2c3cc(OC)c(OC)cc3CCN2C)cc1OC
InChI: InChI=1S/C21H27NO4/c1-22-9-8-15-12-20(25-4)21(26-5)13-16(15)17(22)10-14-6-7-18(23-2)19(11-14)24-3/h6-7,11-13,17H,8-10H2,1-5H3
Instrument: Agilent 6410 Triple Quadrupole LC/MS system
Instrument type: LC-ESI-QQQ
Ms type: MS2
Ion mode: POSITIVE
Precursor type: [M+H]+
m/z	relative intensity
150.6	1
150.7	2
150.8	4
150.9	5
151.0	6
151.1	7
151.2	7
151.3	6
151.4	4
151.5	2
188.5	1
188.6	2
188.7	4
188.8	6
188.9	8
189.0	11
189.1	13
189.2	13
189.3	11
189.4	9
189.5	5
189.6	2
205.3	0
205.4	2
205.5	6
205.6	15
205.7	27
205.8	44
205.9	64
206.0	83
206.1	96
206.2	99
206.3	92
206.4	74
206.5	47
206.6	19
206.7	1
326.7	1
326.8	3
326.9	4
327.0	6
327.1	6
327.2	7
327.3	7
327.4	6
327.5	4
327.6	1
357.5	1
357.6	2
357.7	4
357.8	8
357.9	13
358.0	19
358.1	24
358.2	28
358.3	28
358.4	25
358.5	17
358.6	8
358.7	1
