Mass spectrum: Crustecdysone; LC-ESI-QQQ; MS2; Frag=135.0V CID@25.0; [M+HCOO]-
Name: Crustecdysone
Class: Steroids
Formula: C27H44O7
Exact mass: 480.6475
SMILES: CC(C)(O)CC[C@@H](O)[C@](C)(O)[C@H]1CC[C@@]2(O)C3=CC(=O)[C@@H]4C[C@@H](O)[C@@H](O)C[C@]4(C)[C@H]3CC[C@]12C
InChI: InChI=1S/C27H44O7/c1-23(2,32)9-8-22(31)26(5,33)21-7-11-27(34)16-12-18(28)17-13-19(29)20(30)14-24(17,3)15(16)6-10-25(21,27)4/h12,15,17,19-22,29-34H,6-11,13-14H2,1-5H3/t15-,17-,19+,20-,21-,22+,24+,25+,26+,27+/m0/s1
Instrument: Agilent 6410 Triple Quadrupole LC/MS system
Instrument type: LC-ESI-QQQ
Ms type: MS2
Ion mode: NEGATIVE
Precursor type: [M+HCOO]-
m/z	relative intensity
82.6	1
82.7	3
82.8	6
82.9	9
83.0	11
83.1	10
83.2	7
83.3	3
114.4	1
114.5	3
114.6	4
114.7	5
114.8	3
158.1	0
158.2	1
158.3	4
158.4	10
158.5	12
158.6	12
158.7	13
158.8	26
158.9	50
159.0	73
159.1	82
159.2	72
159.3	50
159.4	27
159.5	12
159.6	3
282.8	1
282.9	3
283.0	4
283.1	5
283.2	4
283.3	2
300.8	1
300.9	2
301.0	5
301.1	7
301.2	7
301.3	4
301.4	2
318.5	0
318.6	4
318.7	13
318.8	24
318.9	33
319.0	36
319.1	35
319.2	35
319.3	33
319.4	26
319.5	15
319.6	5
319.7	0
442.6	1
442.7	3
442.8	4
442.9	4
443.0	3
460.9	1
461.0	3
461.1	5
461.2	6
461.3	5
461.4	3
478.3	1
478.4	4
478.5	10
478.6	19
478.7	31
478.8	44
478.9	52
479.0	57
479.1	68
479.2	85
479.3	99
479.4	98
479.5	78
479.6	46
479.7	16
479.8	1
