Mass spectrum: 9,13-Epoxy-3,18-dihydroxy-15,16-labdanolide; LC-ESI-QQQ; MS2; Frag=135.0V CID@15.0; [M+NH4]+
Name: 9,13-Epoxy-3,18-dihydroxy-15,16-labdanolide
Class: Terpenoids
Formula: C20H32O5
Exact mass: 352.475
SMILES: C[C@@H]1CCC2[C@](C)(CC[C@H](O)[C@@]2(C)CO)[C@@]12CC1(COC(=O)C1)CO2
InChI: InChI=1S/C20H32O5/c1-13-4-5-14-17(2,10-21)15(22)6-7-18(14,3)20(13)9-19(12-25-20)8-16(23)24-11-19/h13-15,21-22H,4-12H2,1-3H3/t13-,14?,15+,17+,18+,19?,20-/m1/s1
Instrument: Agilent 6410 Triple Quadrupole LC/MS system
Instrument type: LC-ESI-QQQ
Ms type: MS2
Ion mode: POSITIVE
Precursor type: [M+NH4]+
m/z	relative intensity
118.6	1
118.7	3
118.8	6
118.9	6
119.0	5
119.1	3
132.3	2
132.4	4
132.5	5
132.6	7
132.7	14
132.8	28
132.9	44
133.0	55
133.1	59
133.2	57
133.3	50
133.4	35
133.5	16
133.6	2
140.5	2
140.6	4
140.7	6
140.8	7
140.9	6
146.5	1
146.6	2
146.7	5
146.8	6
146.9	6
147.0	3
148.5	3
148.6	5
148.7	10
148.8	19
148.9	31
149.0	44
149.1	50
149.2	45
149.3	32
149.4	18
149.5	8
149.6	2
158.4	0
158.5	2
158.6	6
158.7	12
158.8	16
158.9	19
159.0	19
159.1	19
159.2	16
159.3	11
159.4	5
159.5	1
166.6	1
166.7	3
166.8	5
166.9	6
167.0	6
167.1	4
172.6	3
172.7	5
172.8	12
172.9	21
173.0	29
173.1	30
173.2	24
173.3	14
173.4	5
173.5	1
174.8	1
174.9	2
175.0	5
175.1	7
175.2	9
175.3	8
175.4	6
175.5	3
178.5	1
178.6	2
178.7	5
178.8	7
178.9	9
179.0	9
179.1	6
179.2	4
180.2	1
180.3	3
180.4	6
180.5	10
180.6	14
180.7	23
180.8	38
180.9	59
181.0	81
181.1	97
181.2	99
181.3	85
181.4	56
181.5	24
181.6	3
186.5	1
186.6	3
186.7	6
186.8	9
186.9	14
187.0	23
187.1	33
187.2	37
187.3	30
187.4	17
187.5	5
187.6	0
198.5	0
198.6	2
198.7	5
198.8	7
198.9	8
199.0	8
199.1	7
199.2	6
199.3	4
199.4	2
204.7	1
204.8	2
204.9	5
205.0	7
205.1	9
205.2	8
205.3	5
205.4	2
216.5	2
216.6	3
216.7	5
216.8	5
216.9	4
217.0	3
217.1	2
217.2	2
217.3	1
217.4	1
217.5	0
217.6	0
217.7	0
217.8	0
217.9	0
218.0	0
218.1	0
218.2	0
218.3	0
218.4	0
218.5	0
218.6	0
218.7	0
218.8	0
218.9	0
219.0	0
219.1	0
219.2	0
219.3	0
219.4	0
219.5	0
219.6	0
219.7	0
219.8	0
219.9	0
220.0	0
220.1	0
220.2	0
220.3	0
220.4	0
220.5	0
220.6	0
220.7	0
220.8	0
220.9	0
221.0	0
221.1	0
221.2	0
221.3	0
221.4	0
221.5	0
221.6	0
221.7	0
221.8	0
221.9	0
222.0	0
222.1	0
222.2	0
222.3	0
222.4	0
222.5	0
222.6	0
222.7	0
222.8	0
222.9	0
223.0	0
223.1	0
223.2	0
223.3	0
223.4	0
223.5	0
223.6	0
223.7	0
223.8	0
223.9	0
224.0	0
224.1	0
224.2	0
224.3	0
224.4	0
224.5	0
224.6	0
224.7	0
224.8	0
224.9	0
225.0	0
225.1	0
225.2	0
225.3	0
225.4	0
225.5	0
225.6	0
225.7	0
225.8	0
225.9	0
226.0	0
226.1	0
226.2	0
226.3	0
226.4	0
226.5	0
226.6	0
226.7	0
226.8	0
226.9	0
227.0	0
227.1	0
227.2	0
227.3	0
227.4	0
227.5	0
227.6	0
227.7	0
227.8	0
227.9	0
228.0	0
228.1	0
228.2	0
228.3	0
228.4	0
228.5	0
228.6	0
228.7	0
228.8	0
228.9	1
229.0	1
229.1	2
229.2	2
229.3	1
229.4	1
229.5	0
229.6	0
229.7	0
229.8	0
229.9	0
230.0	0
230.1	0
230.2	0
230.3	0
230.4	0
230.5	0
230.6	0
230.7	0
230.8	0
230.9	0
231.0	0
231.1	0
231.2	0
231.3	0
231.4	0
231.5	0
231.6	0
231.7	0
231.8	0
231.9	0
232.0	0
232.1	0
232.2	0
232.3	0
232.4	0
232.5	0
232.6	0
232.7	0
232.8	0
232.9	0
233.0	0
233.1	0
233.2	0
233.3	0
233.4	0
233.5	0
233.6	0
233.7	0
233.8	0
233.9	0
234.0	0
234.1	0
234.2	0
234.3	0
234.4	0
234.5	0
234.6	0
234.7	0
234.8	0
234.9	0
235.0	0
235.1	0
235.2	0
235.3	0
235.4	0
235.5	0
235.6	0
235.7	0
235.8	0
235.9	0
236.0	0
236.1	0
236.2	0
236.3	0
236.4	1
236.5	1
236.6	1
236.7	1
236.8	1
236.9	1
237.0	2
237.1	2
237.2	2
237.3	1
237.4	0
237.5	0
237.6	0
237.7	0
237.8	0
237.9	0
238.0	0
238.1	1
238.2	1
238.3	2
238.4	2
238.5	3
238.6	3
238.7	4
238.8	11
238.9	24
239.0	38
239.1	43
239.2	36
239.3	24
239.4	12
239.5	4
252.8	2
252.9	4
253.0	6
253.1	8
253.2	10
253.3	9
253.4	6
253.5	2
258.7	1
258.8	4
258.9	8
259.0	13
259.1	15
259.2	13
259.3	10
259.4	6
259.5	3
276.4	1
276.5	3
276.6	5
276.7	6
276.8	6
276.9	8
277.0	15
277.1	26
277.2	34
277.3	34
277.4	24
277.5	12
277.6	3
280.7	1
280.8	5
280.9	11
281.0	17
281.1	20
281.2	17
281.3	10
281.4	3
298.5	1
298.6	4
298.7	9
298.8	15
298.9	20
299.0	24
299.1	26
299.2	29
299.3	29
299.4	23
299.5	13
299.6	4
304.3	2
304.4	3
304.5	4
304.6	5
304.7	6
304.8	10
304.9	19
305.0	34
305.1	47
305.2	51
305.3	44
305.4	28
305.5	11
305.6	1
316.2	1
316.3	2
316.4	4
316.5	7
316.6	10
316.7	15
316.8	27
316.9	46
317.0	64
317.1	75
317.2	83
317.3	84
317.4	72
317.5	46
317.6	17
317.7	1
334.3	1
334.4	3
334.5	7
334.6	14
334.7	22
334.8	31
334.9	45
335.0	64
335.1	80
335.2	86
335.3	77
335.4	56
335.5	29
335.6	8
335.7	0
369.8	0
369.9	1
370.0	5
370.1	11
370.2	15
370.3	17
370.4	14
370.5	10
370.6	5
370.7	1
