Mass spectrum: evodiamine; LC-ESI-QQQ; MS2; Frag=135.0V CID@5.0; [M+H]+
Name: evodiamine
Class: Alkaloids
Formula: C19H17N3O
Exact mass: 303.3668
SMILES: CN1c2ccccc2C(=O)N2CCc3c([nH]c4ccccc34)[C@H]21
InChI: InChI=1S/C19H17N3O/c1-21-16-9-5-3-7-14(16)19(23)22-11-10-13-12-6-2-4-8-15(12)20-17(13)18(21)22/h2-9,18,20H,10-11H2,1H3/t18-/m0/s1
Instrument: Agilent 6410 Triple Quadrupole LC/MS system
Instrument type: LC-ESI-QQQ
Ms type: MS2
Ion mode: POSITIVE
Precursor type: [M+H]+
m/z	relative intensity
133.4	1
133.5	3
133.6	6
133.7	11
133.8	18
133.9	25
134.0	31
134.1	32
134.2	29
134.3	23
134.4	15
134.5	7
134.6	1
170.5	1
170.6	2
170.7	4
170.8	7
170.9	9
171.0	12
171.1	13
171.2	13
171.3	12
171.4	9
171.5	5
171.6	2
303.3	0
303.4	2
303.5	6
303.6	12
303.7	23
303.8	39
303.9	60
304.0	79
304.1	94
304.2	99
304.3	96
304.4	81
304.5	54
304.6	24
304.7	3
