Mass spectrum: Neotigogenin; LC-ESI-QQQ; MS2; Frag=135.0V CID@10.0; [M+H]+
Name: Neotigogenin
Class: Steroids
Formula: C27H44O3
Exact mass: 416.6499
SMILES: CC1CC[C@@]2(OC1)OC1CC3C4CC[C@H]5CC(O)CC[C@]5(C)C4CC[C@]3(C)C1[C@@H]2C
InChI: InChI=1S/C27H44O3/c1-16-7-12-27(29-15-16)17(2)24-23(30-27)14-22-20-6-5-18-13-19(28)8-10-25(18,3)21(20)9-11-26(22,24)4/h16-24,28H,5-15H2,1-4H3/t16?,17-,18-,19?,20?,21?,22?,23?,24?,25-,26-,27+/m0/s1
Instrument: Agilent 6410 Triple Quadrupole LC/MS system
Instrument type: LC-ESI-QQQ
Ms type: MS2
Ion mode: POSITIVE
Precursor type: [M+H]+
m/z	relative intensity
254.6	1
254.7	2
254.8	3
254.9	4
255.0	4
255.1	5
255.2	5
255.3	4
255.4	2
272.3	0
272.4	2
272.5	7
272.6	15
272.7	26
272.8	38
272.9	51
273.0	69
273.1	87
273.2	98
273.3	97
273.4	82
273.5	58
273.6	31
273.7	9
273.8	0
416.4	1
416.5	3
416.6	7
416.7	15
416.8	26
416.9	42
417.0	59
417.1	75
417.2	87
417.3	95
417.4	99
417.5	91
417.6	66
417.7	34
417.8	7
417.9	0
