Mass spectrum: Laevopimaric acid; LC-ESI-QQQ; MS2; Frag=135.0V CID@5.0; [M+H]+
Name: Laevopimaric acid
Class: Terpenoids
Formula: C20H30O2
Exact mass: 302.4609
SMILES: CC(C)C1=CCC2C(=C1)CCC1[C@](C)(C(=O)O)CCC[C@]21C
InChI: InChI=1S/C20H30O2/c1-13(2)14-6-8-16-15(12-14)7-9-17-19(16,3)10-5-11-20(17,4)18(21)22/h6,12-13,16-17H,5,7-11H2,1-4H3,(H,21,22)/t16?,17?,19-,20-/m1/s1
Instrument: Agilent 6410 Triple Quadrupole LC/MS system
Instrument type: LC-ESI-QQQ
Ms type: MS2
Ion mode: POSITIVE
Precursor type: [M+H]+
m/z	relative intensity
108.7	2
108.8	4
108.9	7
109.0	10
109.1	12
109.2	11
109.3	7
109.4	4
122.5	1
122.6	2
122.7	6
122.8	14
122.9	22
123.0	29
123.1	30
123.2	24
123.3	13
123.4	4
148.4	1
148.5	4
148.6	10
148.7	17
148.8	22
148.9	19
149.0	11
149.1	4
256.6	1
256.7	3
256.8	5
256.9	10
257.0	15
257.1	16
257.2	12
257.3	6
302.3	2
302.4	3
302.5	8
302.6	17
302.7	27
302.8	35
302.9	44
303.0	59
303.1	78
303.2	95
303.3	97
303.4	77
303.5	44
303.6	13
303.7	1
