Mass spectrum: Dihydroqinghaosu, Dihydroartemisinin.; LC-ESI-QQQ; MS2; Frag=135.0V CID@10.0; [M+H]+
Name: Dihydroqinghaosu, Dihydroartemisinin.
Class: Terpenoids
Formula: C15H24O5
Exact mass: 284.3555
SMILES: C[C@@H]1CC[C@H]2[C@@H](C)[C@@H](O)OC3O[C@]4(C)CCC1C32OO4
InChI: InChI=1S/C15H24O5/c1-8-4-5-11-9(2)12(16)17-13-15(11)10(8)6-7-14(3,18-13)19-20-15/h8-13,16H,4-7H2,1-3H3/t8-,9-,10?,11+,12+,13?,14+,15?/m1/s1
Instrument: Agilent 6410 Triple Quadrupole LC/MS system
Instrument type: LC-ESI-QQQ
Ms type: MS2
Ion mode: POSITIVE
Precursor type: [M+H]+
m/z	relative intensity
284.5	1
284.6	4
284.7	15
284.8	32
284.9	49
285.0	59
285.1	68
285.2	84
285.3	98
285.4	91
285.5	59
285.6	22
285.7	2
