Mass spectrum: Haplamidine; LC-ESI-QQQ; MS2; Frag=135.0V CID@15.0; [M+H]+
Name: Haplamidine
Class: Alkaloids
Formula: C20H22N2O2
Exact mass: 322.4105
SMILES: OC(/C=C/c1ccccc1)=NCCCCN=C(O)c1ccccc1
InChI: InChI=1S/C20H22N2O2/c23-19(14-13-17-9-3-1-4-10-17)21-15-7-8-16-22-20(24)18-11-5-2-6-12-18/h1-6,9-14H,7-8,15-16H2,(H,21,23)(H,22,24)/b14-13+
Instrument: Agilent 6410 Triple Quadrupole LC/MS system
Instrument type: LC-ESI-QQQ
Ms type: MS2
Ion mode: POSITIVE
Precursor type: [M+H]+
m/z	relative intensity
71.6	1
71.7	2
71.8	4
71.9	6
72.0	7
72.1	8
72.2	8
72.3	7
72.4	5
72.5	3
104.5	1
104.6	2
104.7	4
104.8	6
104.9	8
105.0	10
105.1	10
105.2	9
105.3	7
105.4	5
105.5	2
130.2	0
130.3	1
130.4	5
130.5	12
130.6	24
130.7	41
130.8	61
130.9	79
131.0	94
131.1	99
131.2	94
131.3	79
131.4	55
131.5	28
131.6	7
131.7	0
175.6	4
175.7	6
175.8	10
175.9	14
176.0	17
176.1	20
176.2	20
176.3	19
176.4	15
176.5	9
176.6	3
192.4	0
192.5	1
192.6	3
192.7	6
192.8	10
192.9	15
193.0	20
193.1	23
193.2	25
193.3	24
193.4	20
193.5	14
193.6	6
193.7	0
201.7	3
201.8	5
201.9	7
202.0	9
202.1	10
202.2	10
202.3	10
202.4	9
202.5	6
202.6	3
218.6	1
218.7	2
218.8	4
218.9	6
219.0	7
219.1	8
219.2	8
219.3	7
219.4	6
219.5	3
322.8	2
322.9	3
323.0	4
323.1	5
323.2	6
323.3	6
323.4	4
323.5	3
