Mass spectrum: Aconifine; LC-ESI-QQQ; MS2; Frag=135.0V CID@10.0; [M+H]+
Name: Aconifine
Class: Alkaloids
Formula: C34H47NO12
Exact mass: 661.7532
SMILES: CCN1C[C@@]2(COC)C3[C@@H](OC)[C@H]4[C@@H]1[C@]3([C@@H](OC)C[C@H]2O)[C@]1(O)C[C@]2(O)[C@@H](OC)[C@H](O)[C@@]4(OC(C)=O)C1[C@H]2OC(=O)c1ccccc1
InChI: InChI=1S/C34H47NO12/c1-7-35-15-30(16-42-3)19(37)13-20(43-4)33-23(30)22(44-5)21(25(33)35)34(47-17(2)36)24-27(46-29(39)18-11-9-8-10-12-18)31(40,14-32(24,33)41)28(45-6)26(34)38/h8-12,19-28,37-38,40-41H,7,13-16H2,1-6H3/t19-,20+,21+,22+,23?,24?,25-,26+,27-,28+,30+,31-,32+,33-,34+/m1/s1
Instrument: Agilent 6410 Triple Quadrupole LC/MS system
Instrument type: LC-ESI-QQQ
Ms type: MS2
Ion mode: POSITIVE
Precursor type: [M+H]+
m/z	relative intensity
661.3	0
661.4	2
661.5	5
661.6	9
661.7	15
661.8	26
661.9	42
662.0	61
662.1	78
662.2	90
662.3	98
662.4	99
662.5	90
662.6	68
662.7	38
662.8	12
662.9	0
