Mass spectrum: Feselol; LC-ESI-QQQ; MS2; Frag=135.0V CID@10.0; [M+H]+
Name: Feselol
Class: Benzopyranoids
Formula: C24H30O4
Exact mass: 382.5043
SMILES: CC1=CC[C@@H]2C(C)(C)[C@H](O)CC[C@@]2(C)[C@@H]1COc1ccc2ccc(=O)oc2c1
InChI: InChI=1S/C24H30O4/c1-15-5-9-20-23(2,3)21(25)11-12-24(20,4)18(15)14-27-17-8-6-16-7-10-22(26)28-19(16)13-17/h5-8,10,13,18,20-21,25H,9,11-12,14H2,1-4H3/t18-,20-,21-,24+/m1/s1
Instrument: Agilent 6410 Triple Quadrupole LC/MS system
Instrument type: LC-ESI-QQQ
Ms type: MS2
Ion mode: POSITIVE
Precursor type: [M+H]+
m/z	relative intensity
92.8	2
92.9	3
93.0	4
93.1	5
93.2	5
93.3	4
93.4	2
94.6	2
94.7	3
94.8	5
94.9	7
95.0	9
95.1	11
95.2	12
95.3	11
95.4	10
95.5	6
95.6	3
106.6	2
106.7	3
106.8	6
106.9	9
107.0	12
107.1	13
107.2	13
107.3	11
107.4	9
107.5	5
107.6	2
108.5	1
108.6	2
108.7	4
108.8	7
108.9	10
109.0	13
109.1	14
109.2	14
109.3	13
109.4	11
109.5	7
109.6	3
118.6	1
118.7	3
118.8	5
118.9	7
119.0	9
119.1	9
119.2	9
119.3	7
119.4	5
119.5	3
132.5	1
132.6	2
132.7	3
132.8	6
132.9	9
133.0	11
133.1	13
133.2	12
133.3	11
133.4	8
133.5	5
133.6	1
146.6	1
146.7	3
146.8	6
146.9	9
147.0	11
147.1	13
147.2	13
147.3	12
147.4	9
147.5	5
147.6	1
160.7	2
160.8	3
160.9	6
161.0	8
161.1	10
161.2	10
161.3	10
161.4	8
161.5	5
161.6	2
162.3	1
162.4	3
162.5	8
162.6	16
162.7	27
162.8	42
162.9	60
163.0	74
163.1	80
163.2	75
163.3	61
163.4	41
163.5	20
163.6	5
163.7	0
174.7	2
174.8	3
174.9	5
175.0	6
175.1	7
175.2	7
175.3	6
175.4	5
175.5	3
202.3	0
202.4	1
202.5	4
202.6	9
202.7	17
202.8	29
202.9	47
203.0	69
203.1	88
203.2	99
203.3	99
203.4	86
203.5	62
203.6	33
203.7	10
203.8	0
214.7	1
214.8	3
214.9	5
215.0	6
215.1	6
215.2	5
215.3	4
215.4	2
254.6	2
254.7	3
254.8	5
254.9	7
255.0	10
255.1	11
255.2	12
255.3	10
255.4	7
255.5	4
255.6	1
268.5	1
268.6	2
268.7	4
268.8	7
268.9	11
269.0	13
269.1	15
269.2	15
269.3	14
269.4	11
269.5	7
269.6	2
364.6	1
364.7	3
364.8	6
364.9	11
365.0	16
365.1	21
365.2	24
365.3	25
365.4	23
365.5	16
365.6	8
365.7	1
382.8	1
382.9	2
383.0	4
383.1	5
383.2	6
383.3	6
383.4	5
383.5	4
383.6	1
