Mass spectrum: Olitoriside; LC-ESI-QQQ; MS2;  Frag=135.0V CID@25.0 ; [M+HCOO]-
Name: Olitoriside
Class: Steroids
Formula: C35H52O14
Exact mass: 696.79629
SMILES: C[C@H]1O[C@@H](OC2CC[C@]3(C=O)C4CC[C@]5(C)C(C6=CC(=O)OC6)CCC5(O)C4CCC3(O)C2)C[C@H](O)C1OC1O[C@H](CO)[C@@H](O)[C@H](O)[C@H]1O
InChI: InChI=1S/C35H52O14/c1-17-30(49-31-29(42)28(41)27(40)24(14-36)48-31)23(38)12-26(46-17)47-19-3-8-33(16-37)21-4-7-32(2)20(18-11-25(39)45-15-18)6-10-35(32,44)22(21)5-9-34(33,43)13-19/h11,16-17,19-24,26-31,36,38,40-44H,3-10,12-15H2,1-2H3/t17-,19?,20?,21?,22?,23+,24-,26+,27-,28+,29-,30?,31?,32-,33+,34?,35?/m1/s1
Instrument: Agilent 6410 Triple Quadrupole LC/MS system
Instrument type: LC-ESI-QQQ
Ms type: MS2
Ion mode: NEGATIVE
Precursor type: [M+HCOO]-
m/z	relative intensity
100.3	1
100.4	2
100.5	3
100.6	5
100.7	6
100.8	6
100.9	6
101.0	4
101.1	3
112.4	1
112.5	2
112.6	3
112.7	5
112.8	7
112.9	7
113.0	6
113.1	3
113.2	1
160.2	1
160.3	1
160.4	3
160.5	6
160.6	10
160.7	14
160.8	18
160.9	23
161.0	27
161.1	28
161.2	23
161.3	12
161.4	2
220.5	2
220.6	3
220.7	4
220.8	6
220.9	7
221.0	6
221.1	3
221.2	1
246.3	1
246.4	2
246.5	5
246.6	10
246.7	15
246.8	19
246.9	19
247.0	16
247.1	12
247.2	9
247.3	6
247.4	3
247.5	1
384.3	1
384.4	3
384.5	7
384.6	15
384.7	27
384.8	39
384.9	49
385.0	58
385.1	66
385.2	72
385.3	67
385.4	46
385.5	19
385.6	1
532.3	1
532.4	2
532.5	5
532.6	11
532.7	16
532.8	21
532.9	24
533.0	28
533.1	30
533.2	28
533.3	23
533.4	15
533.5	8
533.6	2
694.1	1
694.2	2
694.3	4
694.4	10
694.5	18
694.6	29
694.7	40
694.8	53
694.9	69
695.0	85
695.1	95
695.2	99
695.3	99
695.4	97
695.5	83
695.6	54
695.7	20
695.8	0
