Mass spectrum: Lambertianic acid; LC-ESI-QQQ; MS2; Frag=135.0V CID@5.0; [M+H]+
Name: Lambertianic acid
Class: Polycyclic aromatic natural products
Formula: C20H28O3
Exact mass: 316.4444
SMILES: C=C1CCC2[C@@](C)(C(=O)O)CCC[C@]2(C)[C@H]1CCc1ccoc1
InChI: InChI=1S/C20H28O3/c1-14-5-8-17-19(2,10-4-11-20(17,3)18(21)22)16(14)7-6-15-9-12-23-13-15/h9,12-13,16-17H,1,4-8,10-11H2,2-3H3,(H,21,22)/t16-,17?,19+,20-/m0/s1
Instrument: Agilent 6410 Triple Quadrupole LC/MS system
Instrument type: LC-ESI-QQQ
Ms type: MS2
Ion mode: POSITIVE
Precursor type: [M+H]+
m/z	relative intensity
134.6	3
134.7	4
134.8	5
134.9	7
135.0	7
135.1	7
135.2	7
135.3	5
135.4	3
148.5	1
148.6	3
148.7	6
148.8	9
148.9	10
149.0	10
149.1	9
149.2	10
149.3	9
149.4	7
149.5	3
176.8	2
176.9	3
177.0	4
177.1	5
177.2	6
177.3	6
177.4	5
177.5	3
222.8	1
222.9	3
223.0	5
223.1	7
223.2	6
223.3	5
223.4	4
223.5	2
252.7	2
252.8	4
252.9	6
253.0	8
253.1	10
253.2	11
253.3	10
253.4	8
253.5	3
270.5	0
270.6	2
270.7	4
270.8	7
270.9	11
271.0	14
271.1	17
271.2	20
271.3	20
271.4	17
271.5	11
271.6	5
271.7	0
298.7	3
298.8	4
298.9	9
299.0	13
299.1	16
299.2	17
299.3	19
299.4	18
299.5	13
299.6	6
299.7	0
316.3	0
316.4	2
316.5	6
316.6	10
316.7	17
316.8	32
316.9	53
317.0	76
317.1	92
317.2	99
317.3	96
317.4	83
317.5	59
317.6	30
317.7	6
317.8	0
