Mass spectrum: ononin; LC-ESI-QQQ; MS2; Frag=135.0V CID@5.0; [M+HCOO]-
Name: Fmnn-7-Glc
Name: formononetin-7-O-glucoside
Name: Formononetin-7-O-beta-D-glucopyranoside
Name: 4'-Methoxyisoflavone-7-O-beta-D-glucopyranoside
Name: Glucosyl-7-O-formononetin
Name: calycosin-7-O-beta-D-glucoside
Name: ononin
Class: Flavonoids
Formula: C22H22O9
Exact mass: 430.4152
SMILES: COc1ccc(-c2coc3cc(O[C@@H]4O[C@H](CO)[C@@H](O)[C@H](O)[C@H]4O)ccc3c2=O)cc1
InChI: InChI=1S/C22H22O9/c1-28-12-4-2-11(3-5-12)15-10-29-16-8-13(6-7-14(16)18(15)24)30-22-21(27)20(26)19(25)17(9-23)31-22/h2-8,10,17,19-23,25-27H,9H2,1H3/t17-,19-,20+,21-,22-/m1/s1
Instrument: Agilent 6410 Triple Quadrupole LC/MS system
Instrument type: LC-ESI-QQQ
Ms type: MS2
Ion mode: NEGATIVE
Precursor type: [M+HCOO]-
m/z	relative intensity
266.3	0
266.4	2
266.5	10
266.6	25
266.7	45
266.8	65
266.9	83
267.0	95
267.1	99
267.2	92
267.3	73
267.4	46
267.5	19
267.6	1
474.5	1
474.6	3
474.7	4
474.8	4
474.9	5
475.0	7
475.1	8
475.2	7
475.3	5
475.4	2
