Mass spectrum: Olitoriside; LC-ESI-QQQ; MS2; Frag=135.0V CID@15.0; [M+HCOO]-
Name: Olitoriside
Class: Steroids
Formula: C35H52O14
Exact mass: 696.7963
SMILES: C[C@H]1O[C@@H](OC2CC[C@]3(C=O)C4CC[C@]5(C)C(C6=CC(=O)OC6)CCC5(O)C4CCC3(O)C2)C[C@H](O)C1OC1O[C@H](CO)[C@@H](O)[C@H](O)[C@H]1O
InChI: InChI=1S/C35H52O14/c1-17-30(49-31-29(42)28(41)27(40)24(14-36)48-31)23(38)12-26(46-17)47-19-3-8-33(16-37)21-4-7-32(2)20(18-11-25(39)45-15-18)6-10-35(32,44)22(21)5-9-34(33,43)13-19/h11,16-17,19-24,26-31,36,38,40-44H,3-10,12-15H2,1-2H3/t17-,19?,20?,21?,22?,23+,24-,26+,27-,28+,29-,30?,31?,32-,33+,34?,35?/m1/s1
Instrument: Agilent 6410 Triple Quadrupole LC/MS system
Instrument type: LC-ESI-QQQ
Ms type: MS2
Ion mode: NEGATIVE
Precursor type: [M+HCOO]-
m/z	relative intensity
384.5	1
384.6	2
384.7	3
384.8	5
384.9	7
385.0	8
385.1	7
385.2	4
385.3	2
532.7	2
532.8	2
532.9	4
533.0	5
533.1	6
533.2	7
533.3	6
533.4	5
533.5	3
533.6	2
694.1	1
694.2	2
694.3	4
694.4	8
694.5	14
694.6	25
694.7	39
694.8	54
694.9	67
695.0	76
695.1	85
695.2	94
695.3	99
695.4	96
695.5	79
695.6	51
695.7	22
695.8	3
695.9	0
740.4	1
740.5	2
740.6	3
740.7	5
740.8	7
740.9	8
741.0	9
741.1	10
741.2	12
741.3	11
741.4	8
741.5	3
