Mass spectrum: 2,3,14,20,22,25-Hexahydroxycholest-7-en-6-one; LC-ESI-QQQ; MS2; Frag=135.0V CID@25.0; [M+HCOO]-
Name: 2,3,14,20,22,25-Hexahydroxycholest-7-en-6-one
Class: Steroids
Formula: C27H44O7
Exact mass: 480.6475
SMILES: CC(C)(O)CC[C@H](O)[C@](C)(O)C1CC[C@@]2(O)C3=CC(=O)C4CC(O)C(O)C[C@]4(C)C3CC[C@]12C
InChI: InChI=1S/C27H44O7/c1-23(2,32)9-8-22(31)26(5,33)21-7-11-27(34)16-12-18(28)17-13-19(29)20(30)14-24(17,3)15(16)6-10-25(21,27)4/h12,15,17,19-22,29-34H,6-11,13-14H2,1-5H3/t15?,17?,19?,20?,21?,22-,24+,25+,26+,27+/m0/s1
Instrument: Agilent 6410 Triple Quadrupole LC/MS system
Instrument type: LC-ESI-QQQ
Ms type: MS2
Ion mode: NEGATIVE
Precursor type: [M+HCOO]-
m/z	relative intensity
114.8	1
114.9	3
115.0	7
115.1	9
115.2	8
115.3	4
158.2	0
158.3	1
158.4	5
158.5	13
158.6	25
158.7	39
158.8	51
158.9	58
159.0	59
159.1	55
159.2	53
159.3	52
159.4	41
159.5	21
159.6	3
300.4	0
300.5	2
300.6	6
300.7	11
300.8	15
300.9	14
301.0	10
318.4	0
318.5	4
318.6	11
318.7	20
318.8	29
318.9	34
319.0	35
319.1	32
319.2	26
319.3	18
319.4	12
319.5	8
319.6	5
319.7	2
478.4	0
478.5	1
478.6	5
478.7	12
478.8	24
478.9	41
479.0	64
479.1	87
479.2	99
479.3	97
479.4	84
479.5	64
479.6	38
479.7	14
479.8	1
