Mass spectrum: Convolidine; LC-ESI-QQQ; MS2; Frag=135.0V CID@5.0; [M+H]+
Name: (5S,1R)-8-azabicyclo(3.2.1)oct-3-yl 4-hydroxy-3-methoxybenzoate
Name: Convolidine
Class: Alkaloids
Formula: C15H19NO4
Exact mass: 277.323
SMILES: COc1cc(C(=O)O[C@@H]2C[C@@H]3CC[C@H](C2)N3)ccc1O
InChI: InChI=1S/C15H19NO4/c1-19-14-6-9(2-5-13(14)17)15(18)20-12-7-10-3-4-11(8-12)16-10/h2,5-6,10-12,16-17H,3-4,7-8H2,1H3/t10-,11+,12+
Instrument: Agilent 6410 Triple Quadrupole LC/MS system
Instrument type: LC-ESI-QQQ
Ms type: MS2
Ion mode: POSITIVE
Precursor type: [M+H]+
m/z	relative intensity
277.3	0
277.4	2
277.5	5
277.6	10
277.7	20
277.8	36
277.9	59
278.0	81
278.1	95
278.2	99
278.3	94
278.4	78
278.5	53
278.6	25
278.7	4
