Mass spectrum: Cryptopine; LC-ESI-QQQ; MS2; Frag=135.0V CID@15.0; [M+H]+
Name: Cryptopine
Class: Alkaloids
Formula: C21H23NO5
Exact mass: 369.4212
SMILES: COc1cc2c(cc1OC)C(=O)Cc1ccc3c(c1CN(C)CC2)OCO3
InChI: InChI=1S/C21H23NO5/c1-22-7-6-14-9-19(24-2)20(25-3)10-15(14)17(23)8-13-4-5-18-21(16(13)11-22)27-12-26-18/h4-5,9-10H,6-8,11-12H2,1-3H3
Instrument: Agilent 6410 Triple Quadrupole LC/MS system
Instrument type: LC-ESI-QQQ
Ms type: MS2
Ion mode: POSITIVE
Precursor type: [M+H]+
m/z	relative intensity
164.6	2
164.7	3
164.8	6
164.9	9
165.0	11
165.1	12
165.2	12
165.3	10
165.4	8
165.5	4
165.6	1
203.6	1
203.7	3
203.8	5
203.9	7
204.0	9
204.1	9
204.2	9
204.3	8
204.4	7
204.5	5
369.3	0
369.4	2
369.5	5
369.6	9
369.7	17
369.8	31
369.9	51
370.0	74
370.1	92
370.2	99
370.3	95
370.4	78
370.5	52
370.6	23
370.7	3
