Mass spectrum: testolactone; LC-ESI-QQQ; MS2; Frag=135.0V CID@25.0; [M+H]+
Name: testolactone
Class: Steroids
Formula: C19H24O3
Exact mass: 300.4013
SMILES: C[C@]12CCC3C(CCC4=CC(=O)C=C[C@@]43C)C1CCC(=O)O2
InChI: InChI=1S/C19H24O3/c1-18-9-7-13(20)11-12(18)3-4-14-15(18)8-10-19(2)16(14)5-6-17(21)22-19/h7,9,11,14-16H,3-6,8,10H2,1-2H3/t14?,15?,16?,18-,19-/m0/s1
Instrument: Agilent 6410 Triple Quadrupole LC/MS system
Instrument type: LC-ESI-QQQ
Ms type: MS2
Ion mode: POSITIVE
Precursor type: [M+H]+
m/z	relative intensity
106.8	3
106.9	4
107.0	5
107.1	6
107.2	6
107.3	5
107.4	4
107.5	2
120.3	0
120.4	3
120.5	10
120.6	22
120.7	38
120.8	56
120.9	75
121.0	92
121.1	99
121.2	96
121.3	84
121.4	63
121.5	36
121.6	11
121.7	0
146.5	1
146.6	2
146.7	5
146.8	8
146.9	12
147.0	15
147.1	16
147.2	15
147.3	13
147.4	10
147.5	6
147.6	2
172.5	0
172.6	1
172.7	3
172.8	6
172.9	9
173.0	11
173.1	12
173.2	12
173.3	10
173.4	8
173.5	4
173.6	1
