Mass spectrum: Ugaferin; LC-ESI-QQQ; MS2; Frag=135.0V CID@5.0 ; [M+H]+
Name: Ugaferin
Class: Polycyclic aromatic natural products
Formula: C25H36O7
Exact mass: 448.56147
SMILES: COc1cc(C(=O)O[C@H]2C/C(C)=C\CC[C@]3(C)O[C@@H]3C(O)C2C(C)C)cc(OC)c1OC
InChI: InChI=1S/C25H36O7/c1-14(2)20-17(11-15(3)9-8-10-25(4)23(32-25)21(20)26)31-24(27)16-12-18(28-5)22(30-7)19(13-16)29-6/h9,12-14,17,20-21,23,26H,8,10-11H2,1-7H3/b15-9-/t17-,20?,21?,23+,25-/m0/s1
Instrument: Agilent 6410 Triple Quadrupole LC/MS system
Instrument type: LC-ESI-QQQ
Ms type: MS2
Ion mode: POSITIVE
Precursor type: [M+H]+
m/z	relative intensity
80.5	1
80.6	2
80.7	5
80.8	9
80.9	12
81.0	13
81.1	13
81.2	11
81.3	8
81.4	5
81.5	1
94.3	1
94.4	2
94.5	4
94.6	6
94.7	9
94.8	12
94.9	16
95.0	20
95.1	22
95.2	21
95.3	15
95.4	8
95.5	2
96.7	2
96.8	3
96.9	4
97.0	6
97.1	6
97.2	5
97.3	3
104.7	2
104.8	3
104.9	5
105.0	7
105.1	8
105.2	7
105.3	6
105.4	3
105.5	1
106.5	2
106.6	3
106.7	4
106.8	7
106.9	10
107.0	12
107.1	12
107.2	10
107.3	7
107.4	3
108.4	1
108.5	2
108.6	4
108.7	7
108.8	11
108.9	14
109.0	16
109.1	17
109.2	16
109.3	13
109.4	8
109.5	3
118.5	1
118.6	3
118.7	5
118.8	6
118.9	8
119.0	8
119.1	7
119.2	5
119.3	3
120.4	1
120.5	2
120.6	4
120.7	7
120.8	11
120.9	15
121.0	18
121.1	19
121.2	18
121.3	16
121.4	12
121.5	7
121.6	2
122.4	1
122.5	3
122.6	5
122.7	8
122.8	12
122.9	17
123.0	20
123.1	21
123.2	20
123.3	17
123.4	12
123.5	6
123.6	1
134.5	2
134.6	4
134.7	8
134.8	14
134.9	19
135.0	23
135.1	25
135.2	25
135.3	22
135.4	16
135.5	8
135.6	2
136.7	1
136.8	3
136.9	4
137.0	6
137.1	6
137.2	7
137.3	6
137.4	4
137.5	2
144.4	1
144.5	2
144.6	4
144.7	6
144.8	9
144.9	12
145.0	15
145.1	16
145.2	15
145.3	13
145.4	10
145.5	5
145.6	1
146.5	1
146.6	2
146.7	4
146.8	7
146.9	10
147.0	12
147.1	12
147.2	10
147.3	8
147.4	6
147.5	3
148.7	1
148.8	3
148.9	6
149.0	8
149.1	10
149.2	10
149.3	9
149.4	6
149.5	2
150.6	2
150.7	4
150.8	6
150.9	8
151.0	9
151.1	10
151.2	10
151.3	9
151.4	6
151.5	3
158.3	1
158.4	3
158.5	5
158.6	7
158.7	9
158.8	14
158.9	20
159.0	26
159.1	29
159.2	29
159.3	25
159.4	17
159.5	8
159.6	1
160.4	1
160.5	2
160.6	5
160.7	9
160.8	15
160.9	23
161.0	30
161.1	35
161.2	36
161.3	33
161.4	25
161.5	15
161.6	5
161.7	0
162.6	1
162.7	3
162.8	5
162.9	8
163.0	12
163.1	14
163.2	12
163.3	9
163.4	5
163.5	2
174.6	1
174.7	2
174.8	4
174.9	6
175.0	8
175.1	11
175.2	12
175.3	10
175.4	6
175.5	2
176.7	2
176.8	4
176.9	6
177.0	8
177.1	10
177.2	10
177.3	9
177.4	6
177.5	3
178.8	2
178.9	3
179.0	4
179.1	5
179.2	6
179.3	5
179.4	3
179.5	1
188.8	1
188.9	2
189.0	4
189.1	4
189.2	4
189.3	3
189.4	2
189.5	1
189.6	0
189.7	0
189.8	0
189.9	0
190.0	0
190.1	0
190.2	0
190.3	1
190.4	2
190.5	4
190.6	7
190.7	11
190.8	16
190.9	23
191.0	33
191.1	42
191.2	49
191.3	50
191.4	44
191.5	32
191.6	17
191.7	4
191.8	0
194.3	1
194.4	3
194.5	5
194.6	8
194.7	13
194.8	22
194.9	34
195.0	43
195.1	46
195.2	42
195.3	32
195.4	20
195.5	8
195.6	1
200.3	1
200.4	3
200.5	5
200.6	8
200.7	13
200.8	24
200.9	40
201.0	56
201.1	66
201.2	66
201.3	62
201.4	52
201.5	36
201.6	17
201.7	2
212.6	3
212.7	4
212.8	6
212.9	9
213.0	11
213.1	11
213.2	10
213.3	8
213.4	4
213.5	1
218.3	0
218.4	3
218.5	6
218.6	11
218.7	19
218.8	31
218.9	50
219.0	72
219.1	91
219.2	99
219.3	94
219.4	76
219.5	47
219.6	19
219.7	1
236.7	2
236.8	4
236.9	8
237.0	14
237.1	19
237.2	21
237.3	21
237.4	17
237.5	10
237.6	3
448.8	3
448.9	4
449.0	6
449.1	8
449.2	11
449.3	12
449.4	11
449.5	8
449.6	3
