Mass spectrum: norbraylin; LC-ESI-QQQ; MS2; Frag=135.0V CID@10.0; [M+H]+
Name: norbraylin
Class: Benzopyranoids
Formula: C14H12O4
Exact mass: 244.2493
SMILES: CC1(C)Oc2ccc3ccc(=O)oc3c2CC1=O
InChI: InChI=1S/C14H12O4/c1-14(2)11(15)7-9-10(18-14)5-3-8-4-6-12(16)17-13(8)9/h3-6H,7H2,1-2H3
Instrument: Agilent 6410 Triple Quadrupole LC/MS system
Instrument type: LC-ESI-QQQ
Ms type: MS2
Ion mode: POSITIVE
Precursor type: [M+H]+
m/z	relative intensity
174.3	0
174.4	1
174.5	4
174.6	9
174.7	15
174.8	22
174.9	28
175.0	34
175.1	36
175.2	35
175.3	29
175.4	20
175.5	10
175.6	2
244.2	0
244.3	1
244.4	5
244.5	11
244.6	19
244.7	31
244.8	50
244.9	73
245.0	91
245.1	99
245.2	96
245.3	82
245.4	59
245.5	31
245.6	8
245.7	0
