Mass spectrum: Olitoriside; LC-ESI-QQQ; MS2; Frag=135.0V CID@10.0 ; [M+H]+
Name: Olitoriside
Class: Steroids
Formula: C35H52O14
Exact mass: 696.79629
SMILES: C[C@H]1O[C@@H](OC2CC[C@]3(C=O)C4CC[C@]5(C)C(C6=CC(=O)OC6)CCC5(O)C4CCC3(O)C2)C[C@H](O)C1OC1O[C@H](CO)[C@@H](O)[C@H](O)[C@H]1O
InChI: InChI=1S/C35H52O14/c1-17-30(49-31-29(42)28(41)27(40)24(14-36)48-31)23(38)12-26(46-17)47-19-3-8-33(16-37)21-4-7-32(2)20(18-11-25(39)45-15-18)6-10-35(32,44)22(21)5-9-34(33,43)13-19/h11,16-17,19-24,26-31,36,38,40-44H,3-10,12-15H2,1-2H3/t17-,19?,20?,21?,22?,23+,24-,26+,27-,28+,29-,30?,31?,32-,33+,34?,35?/m1/s1
Instrument: Agilent 6410 Triple Quadrupole LC/MS system
Instrument type: LC-ESI-QQQ
Ms type: MS2
Ion mode: POSITIVE
Precursor type: [M+H]+
m/z	relative intensity
112.1	2
112.2	5
112.3	12
112.4	23
112.5	35
112.6	49
112.7	56
112.8	53
112.9	40
274.5	1
274.6	2
274.7	12
274.8	32
274.9	53
275.0	58
275.1	43
275.2	21
275.3	7
323.0	7
323.1	8
323.2	13
323.3	18
323.4	18
323.5	12
323.6	5
340.4	2
340.5	3
340.6	8
340.7	16
340.8	27
340.9	33
341.0	34
341.1	31
341.2	26
341.3	20
341.4	12
341.5	5
351.0	4
351.1	6
351.2	10
351.3	13
351.4	12
351.5	8
351.6	3
358.4	3
358.5	5
358.6	9
358.7	17
358.8	26
358.9	33
359.0	41
359.1	54
359.2	67
359.3	68
359.4	50
359.5	24
359.6	4
368.4	2
368.5	3
368.6	11
368.7	29
368.8	50
368.9	63
369.0	66
369.1	63
369.2	59
369.3	52
369.4	37
369.5	19
369.6	5
386.6	1
386.7	4
386.8	13
386.9	27
387.0	41
387.1	49
387.2	56
387.3	61
387.4	57
387.5	38
387.6	15
387.7	2
404.4	3
404.5	6
404.6	12
404.7	17
404.8	28
404.9	55
405.0	87
405.1	99
405.2	76
405.3	36
405.4	7
697.0	3
697.1	5
697.2	9
697.3	11
697.4	10
697.5	7
