Mass spectrum: Haplamidine; LC-ESI-QQQ; MS2; Frag=135.0V CID@25.0; [M+H]+
Name: Haplamidine
Class: Alkaloids
Formula: C20H22N2O2
Exact mass: 322.4105
SMILES: OC(/C=C/c1ccccc1)=NCCCCN=C(O)c1ccccc1
InChI: InChI=1S/C20H22N2O2/c23-19(14-13-17-9-3-1-4-10-17)21-15-7-8-16-22-20(24)18-11-5-2-6-12-18/h1-6,9-14H,7-8,15-16H2,(H,21,23)(H,22,24)/b14-13+
Instrument: Agilent 6410 Triple Quadrupole LC/MS system
Instrument type: LC-ESI-QQQ
Ms type: MS2
Ion mode: POSITIVE
Precursor type: [M+H]+
m/z	relative intensity
71.7	1
71.8	2
71.9	4
72.0	5
72.1	5
72.2	5
72.3	4
72.4	2
102.4	1
102.5	2
102.6	5
102.7	9
102.8	14
102.9	19
103.0	22
103.1	23
103.2	21
103.3	18
103.4	13
103.5	8
103.6	3
104.4	0
104.5	2
104.6	3
104.7	6
104.8	9
104.9	11
105.0	13
105.1	13
105.2	12
105.3	11
105.4	8
105.5	4
105.6	1
130.2	0
130.3	1
130.4	6
130.5	15
130.6	28
130.7	44
130.8	64
130.9	83
131.0	96
131.1	99
131.2	92
131.3	76
131.4	53
131.5	27
131.6	7
131.7	0
175.6	2
175.7	3
175.8	5
175.9	8
176.0	10
176.1	11
176.2	11
176.3	10
176.4	9
176.5	6
176.6	2
