Mass spectrum: Kanamycin; LC-ESI-QQQ; MS2; Frag=135.0V CID@15.0; [M+H]+
Name: Kanamycin
Class: Carbohydrates
Formula: C18H36N4O11
Exact mass: 484.5078
SMILES: NC[C@@H]1O[C@@H](O[C@@H]2[C@@H](N)C[C@@H](N)[C@H](O[C@@H]3O[C@@H](CO)[C@H](O)[C@@H](N)[C@@H]3O)[C@H]2O)[C@@H](O)[C@H](O)[C@H]1O
InChI: InChI=1S/C18H36N4O11/c19-2-6-10(25)12(27)13(28)18(30-6)33-16-5(21)1-4(20)15(14(16)29)32-17-11(26)8(22)9(24)7(3-23)31-17/h4-18,23-29H,1-3,19-22H2/t4-,5+,6+,7+,8-,9+,10+,11+,12-,13+,14-,15+,16-,17+,18+/m1/s1
Instrument: Agilent 6410 Triple Quadrupole LC/MS system
Instrument type: LC-ESI-QQQ
Ms type: MS2
Ion mode: POSITIVE
Precursor type: [M+H]+
m/z	relative intensity
161.4	2
161.5	3
161.6	5
161.7	8
161.8	11
161.9	12
162.0	14
162.1	15
162.2	15
162.3	13
162.5	8
162.6	12
162.7	21
162.8	36
162.9	56
163.0	79
163.1	96
163.2	99
163.3	88
163.4	64
163.5	35
163.6	10
163.7	0
204.5	4
204.6	5
204.7	6
204.8	9
204.9	15
205.0	23
205.1	28
205.2	27
205.3	21
205.4	15
205.5	8
205.6	3
323.3	0
323.4	2
323.5	5
323.6	10
323.7	15
323.8	21
323.9	29
324.0	40
324.1	49
324.2	54
324.3	53
324.4	44
324.5	29
324.6	12
324.7	0
347.9	2
348.0	4
348.1	7
348.2	7
348.3	6
348.4	4
348.5	2
365.5	1
365.6	2
365.7	4
365.8	4
365.9	5
366.0	6
366.1	9
366.2	12
366.3	12
366.4	8
366.5	3
484.4	1
484.5	2
484.6	5
484.7	9
484.8	14
484.9	18
485.0	20
485.1	24
485.2	30
485.3	36
485.4	39
485.5	33
485.6	20
485.7	7
485.8	1
