Mass spectrum: Subhirsine; LC-ESI-QQQ; MS2; Frag=135.0V CID@15.0; [M+H]+
Name: Subhirsine
Class: Alkaloids
Formula: C33H40N2O9
Exact mass: 608.6947
SMILES: COc1ccc(C(=O)OC2C[C@@H]3CC[C@H](C2)N3C(=O)N2[C@H]3CC[C@@H]2CC(OC(=O)c2ccc(OC)c(OC)c2)C3)cc1OC
InChI: InChI=1S/C33H40N2O9/c1-39-27-11-5-19(13-29(27)41-3)31(36)43-25-15-21-7-8-22(16-25)34(21)33(38)35-23-9-10-24(35)18-26(17-23)44-32(37)20-6-12-28(40-2)30(14-20)42-4/h5-6,11-14,21-26H,7-10,15-18H2,1-4H3/t21-,22+,23-,24+,25?,26?
Instrument: Agilent 6410 Triple Quadrupole LC/MS system
Instrument type: LC-ESI-QQQ
Ms type: MS2
Ion mode: POSITIVE
Precursor type: [M+H]+
m/z	relative intensity
164.6	1
164.7	3
164.8	5
164.9	7
165.0	8
165.1	8
165.2	7
165.3	6
165.4	3
165.5	1
182.5	1
182.6	2
182.7	4
182.8	6
182.9	8
183.0	9
183.1	9
183.2	8
183.3	6
183.4	4
183.5	1
244.3	0
244.4	1
244.5	4
244.6	8
244.7	13
244.8	22
244.9	35
245.0	50
245.1	61
245.2	63
245.3	56
245.4	42
245.5	25
245.6	9
245.7	0
426.3	0
426.4	2
426.5	5
426.6	11
426.7	19
426.8	32
426.9	49
427.0	69
427.1	88
427.2	99
427.3	99
427.4	86
427.5	61
427.6	31
427.7	7
427.8	0
