Mass spectrum: Rizinsan A; LC-ESI-QQQ; MS2; Frag=135.0V CID@10.0; [M+H]+
Name: Rizinsan A
Class: Terpenoids
Formula: C42H65NO16
Exact mass: 839.9835
SMILES: CC1(C)C2CC[C@]3(C)C(C(=O)C=C4[C@@H]5C[C@@](C)(C(=O)O)CC[C@]5(C)CC[C@]43C)[C@@]2(C)CC[C@@H]1O[C@H]1O[C@H](C(=O)O)[C@@H](O)[C@H](O)[C@H]1O[C@H]1O[C@@H](C(=O)O)[C@H](O)[C@@H](O)C1O.N
InChI: InChI=1S/C42H62O16.H3N/c1-37(2)21-8-11-42(7)31(20(43)16-18-19-17-39(4,36(53)54)13-12-38(19,3)14-15-41(18,42)6)40(21,5)10-9-22(37)55-35-30(26(47)25(46)29(57-35)33(51)52)58-34-27(48)23(44)24(45)28(56-34)32(49)50;/h16,19,21-31,34-35,44-48H,8-15,17H2,1-7H3,(H,49,50)(H,51,52)(H,53,54);1H3/t19-,21?,22-,23+,24+,25-,26-,27?,28+,29-,30+,31?,34+,35-,38+,39-,40-,41+,42+;/m0./s1
Instrument: Agilent 6410 Triple Quadrupole LC/MS system
Instrument type: LC-ESI-QQQ
Ms type: MS2
Ion mode: POSITIVE
Precursor type: [M+H]+
m/z	relative intensity
452.2	1
452.3	2
452.4	4
452.5	7
452.6	12
452.7	21
452.8	35
452.9	55
453.0	76
453.1	90
453.2	99
453.3	99
453.4	86
453.5	56
453.6	22
453.7	1
470.6	1
470.7	3
470.8	5
470.9	6
471.0	7
471.1	6
471.2	4
471.3	2
646.2	1
646.3	2
646.4	4
646.5	7
646.6	10
646.7	13
646.8	17
646.9	22
647.0	27
647.1	32
647.2	33
647.3	29
647.4	21
647.5	12
647.6	5
647.7	1
822.7	2
822.8	3
822.9	6
823.0	10
823.1	14
823.2	15
823.3	12
823.4	7
823.5	3
