Mass spectrum: Adenosine; LC-ESI-QQQ; MS2; Frag=135.0V CID@5.0; [M+H]+
Name: Ado
Name: Ade-Rib
Name: 9-beta-D-Ribofuranosyladenine
Name: Adenine riboside
Name: Adenyldeoxyriboside
Name: Sandesin
Name: Boniton
Name: Myocol
Name: Nucleocardyl
Name: Adenocard
Name: Adenosine
Class: Carbohydrates
Formula: C10H13N5O4
Exact mass: 267.2462
SMILES: Nc1ncnc2c1ncn2[C@@H]1O[C@H](CO)[C@@H](O)[C@H]1O
InChI: InChI=1S/C10H13N5O4/c11-8-5-9(13-2-12-8)15(3-14-5)10-7(18)6(17)4(1-16)19-10/h2-4,6-7,10,16-18H,1H2,(H2,11,12,13)/t4-,6-,7-,10-/m1/s1
Instrument: Agilent 6410 Triple Quadrupole LC/MS system
Instrument type: LC-ESI-QQQ
Ms type: MS2
Ion mode: POSITIVE
Precursor type: [M+H]+
m/z	relative intensity
135.2	1
135.3	3
135.4	7
135.5	12
135.6	19
135.7	31
135.8	51
135.9	74
136.0	92
136.1	99
136.2	95
136.3	80
136.4	56
136.5	29
136.6	7
136.7	0
267.3	0
267.4	2
267.5	4
267.6	8
267.7	14
267.8	26
267.9	41
268.0	55
268.1	63
268.2	64
268.3	58
268.4	46
268.5	29
268.6	11
268.7	1
