Mass spectrum: Physodic acid; LC-ESI-QQQ; MS2; Frag=135.0V CID@25.0; [M+H]+
Name: Physodic acid
Class: Carbohydrates
Formula: C26H30O8
Exact mass: 470.5242
SMILES: CCCCCC(=O)Cc1cc(O)cc2c1C(=O)Oc1cc(O)c(C(=O)O)c(CCCCC)c1O2
InChI: InChI=1S/C26H30O8/c1-3-5-7-9-16(27)11-15-12-17(28)13-20-22(15)26(32)34-21-14-19(29)23(25(30)31)18(24(21)33-20)10-8-6-4-2/h12-14,28-29H,3-11H2,1-2H3,(H,30,31)
Instrument: Agilent 6410 Triple Quadrupole LC/MS system
Instrument type: LC-ESI-QQQ
Ms type: MS2
Ion mode: POSITIVE
Precursor type: [M+H]+
m/z	relative intensity
176.7	2
176.8	3
176.9	4
177.0	6
177.1	6
177.2	5
177.3	4
177.4	3
248.8	2
248.9	3
249.0	4
249.1	5
249.2	4
249.3	4
249.4	2
300.8	2
300.9	3
301.0	4
301.1	5
301.2	5
301.3	4
301.4	3
301.5	2
356.6	1
356.7	3
356.8	5
356.9	8
357.0	12
357.1	14
357.2	14
357.3	13
357.4	10
357.5	6
357.6	2
382.7	2
382.8	4
382.9	6
383.0	8
383.1	9
383.2	9
383.3	7
383.4	5
383.5	2
384.7	1
384.8	3
384.9	5
385.0	8
385.1	10
385.2	11
385.3	11
385.4	9
385.5	6
385.6	2
410.3	0
410.4	2
410.5	5
410.6	12
410.7	22
410.8	38
410.9	57
411.0	77
411.1	93
411.2	99
411.3	95
411.4	77
411.5	50
411.6	22
411.7	3
