Mass spectrum: O-Methylcassyfiline; LC-ESI-QQQ; MS2; Frag=135.0V CID@10.0; [M+H]+
Name: O-Methylcassyfiline
Class: Alkaloids
Formula: C20H21NO5
Exact mass: 355.3941
SMILES: COc1cc2c(cc1OC)-c1c3c(c(OC)c4c1C(C2)NCC4)OCO3
InChI: InChI=1S/C20H21NO5/c1-22-14-7-10-6-13-16-11(4-5-21-13)18(24-3)20-19(25-9-26-20)17(16)12(10)8-15(14)23-2/h7-8,13,21H,4-6,9H2,1-3H3
Instrument: Agilent 6410 Triple Quadrupole LC/MS system
Instrument type: LC-ESI-QQQ
Ms type: MS2
Ion mode: POSITIVE
Precursor type: [M+H]+
m/z	relative intensity
308.6	2
308.7	4
308.8	7
308.9	12
309.0	16
309.1	19
309.2	20
309.3	19
309.4	14
309.5	8
309.6	2
338.3	0
338.4	3
338.5	6
338.6	12
338.7	20
338.8	34
338.9	54
339.0	75
339.1	92
339.2	99
339.3	94
339.4	75
339.5	45
339.6	16
339.7	0
