Mass spectrum: Nivalidine; LC-ESI-QQQ; MS2; Frag=135.0V CID@5.0; [M+H]+
Name: Nivalidine
Class: Alkaloids
Formula: C17H19NO2
Exact mass: 269.3465
SMILES: COc1ccc2c(c1O)-c1ccccc1CCN(C)C2
InChI: InChI=1S/C17H19NO2/c1-18-10-9-12-5-3-4-6-14(12)16-13(11-18)7-8-15(20-2)17(16)19/h3-8,19H,9-11H2,1-2H3
Instrument: Agilent 6410 Triple Quadrupole LC/MS system
Instrument type: LC-ESI-QQQ
Ms type: MS2
Ion mode: POSITIVE
Precursor type: [M+H]+
m/z	relative intensity
238.7	2
238.8	4
238.9	6
239.0	8
239.1	9
239.2	9
239.3	8
239.4	7
239.5	4
239.6	1
269.3	0
269.4	2
269.5	5
269.6	10
269.7	20
269.8	35
269.9	57
270.0	79
270.1	94
270.2	99
270.3	93
270.4	75
270.5	49
270.6	21
270.7	3
