Mass spectrum: Vulgarin; LC-ESI-QQQ; MS2; Frag=135.0V CID@5.0; [M+H]+
Name: Vulgarin
Class: Terpenoids
Formula: C15H20O4
Exact mass: 264.3243
SMILES: C[C@@H]1C(=O)O[C@H]2C1CC[C@@]1(C)C(=O)C=C[C@@](C)(O)[C@H]21
InChI: InChI=1S/C15H20O4/c1-8-9-4-6-14(2)10(16)5-7-15(3,18)12(14)11(9)19-13(8)17/h5,7-9,11-12,18H,4,6H2,1-3H3/t8-,9?,11-,12+,14-,15+/m0/s1
Instrument: Agilent 6410 Triple Quadrupole LC/MS system
Instrument type: LC-ESI-QQQ
Ms type: MS2
Ion mode: POSITIVE
Precursor type: [M+H]+
m/z	relative intensity
132.3	0
132.4	2
132.5	4
132.6	8
132.7	12
132.8	18
132.9	24
133.0	29
133.1	32
133.2	31
133.3	27
133.4	20
133.5	11
133.6	3
144.7	2
144.8	3
144.9	5
145.0	8
145.1	9
145.2	8
145.3	6
145.4	4
145.5	1
151.0	2
151.1	4
151.2	6
151.3	6
151.4	4
151.5	2
158.8	2
158.9	3
159.0	5
159.1	6
159.2	6
159.3	5
159.4	3
159.5	2
172.3	1
172.4	3
172.5	5
172.6	7
172.7	12
172.8	23
172.9	35
173.0	43
173.1	45
173.2	44
173.3	40
173.4	31
173.5	17
173.6	5
173.7	0
176.5	0
176.6	3
176.7	5
176.8	7
176.9	7
177.0	7
177.1	8
177.2	8
177.3	8
177.4	7
177.5	5
177.6	2
182.9	3
183.0	5
183.1	6
183.2	7
183.3	6
183.4	3
190.6	1
190.7	3
190.8	6
190.9	9
191.0	12
191.1	13
191.2	13
191.3	12
191.4	9
191.5	5
191.6	1
200.3	1
200.4	2
200.5	4
200.6	5
200.7	8
200.8	14
200.9	22
201.0	30
201.1	37
201.2	39
201.3	36
201.4	27
201.5	14
201.6	4
204.9	2
205.0	3
205.1	5
205.2	6
205.3	5
205.4	3
218.4	1
218.5	3
218.6	6
218.7	10
218.8	17
218.9	27
219.0	39
219.1	49
219.2	52
219.3	48
219.4	39
219.5	26
219.6	12
219.7	2
228.7	1
228.8	3
228.9	6
229.0	8
229.1	8
229.2	7
229.3	6
229.4	5
229.5	3
246.4	1
246.5	2
246.6	4
246.7	8
246.8	15
246.9	24
247.0	31
247.1	36
247.2	37
247.3	34
247.4	27
247.5	16
247.6	5
247.7	0
264.2	0
264.3	2
264.4	6
264.5	11
264.6	14
264.7	19
264.8	31
264.9	51
265.0	74
265.1	91
265.2	99
265.3	99
265.4	88
265.5	62
265.6	30
265.7	5
265.8	0
