Mass spectrum: Komarovicine; LC-ESI-QQQ; MS2; Frag=135.0V CID@25.0; [M+H]+
Name: Komarovicine
Class: Alkaloids
Formula: C20H17N3
Exact mass: 299.3786
SMILES: c1cnc2c(C3NCCc4c3[nH]c3ccccc43)cccc2c1
InChI: InChI=1S/C20H17N3/c1-2-9-17-14(7-1)15-10-12-22-19(20(15)23-17)16-8-3-5-13-6-4-11-21-18(13)16/h1-9,11,19,22-23H,10,12H2
Instrument: Agilent 6410 Triple Quadrupole LC/MS system
Instrument type: LC-ESI-QQQ
Ms type: MS2
Ion mode: POSITIVE
Precursor type: [M+H]+
m/z	relative intensity
143.2	2
143.3	3
143.4	5
143.5	8
143.6	14
143.7	26
143.8	45
143.9	65
144.0	80
144.1	86
144.2	83
144.3	72
144.4	54
144.5	30
144.6	10
144.7	0
156.4	1
156.5	3
156.6	6
156.7	10
156.8	18
156.9	26
157.0	33
157.1	36
157.2	35
157.3	31
157.4	24
157.5	13
157.6	4
255.3	3
255.4	5
255.5	9
255.6	15
255.7	27
255.8	44
255.9	65
256.0	86
256.1	98
256.2	99
256.3	88
256.4	65
256.5	36
256.6	11
256.7	0
268.6	2
268.7	3
268.8	5
268.9	8
269.0	11
269.1	14
269.2	14
269.3	12
269.4	8
269.5	5
269.6	1
270.4	2
270.5	4
270.6	6
270.7	11
270.8	21
270.9	32
271.0	44
271.1	50
271.2	52
271.3	49
271.4	39
271.5	25
271.6	10
271.7	0
