Mass spectrum: Roemerine; LC-ESI-QQQ; MS2; Frag=135.0V CID@25.0; [M+H]+
Name: Remerin
Name: Aporheine
Name: Roemerine
Class: Alkaloids
Formula: C18H17NO2
Exact mass: 279.3417
SMILES: CN1CCc2cc3c(c4c2[C@H]1Cc1ccccc1-4)OCO3
InChI: InChI=1S/C18H17NO2/c1-19-7-6-12-9-15-18(21-10-20-15)17-13-5-3-2-4-11(13)8-14(19)16(12)17/h2-5,9,14H,6-8,10H2,1H3/t14-/m1/s1
Instrument: Agilent 6410 Triple Quadrupole LC/MS system
Instrument type: LC-ESI-QQQ
Ms type: MS2
Ion mode: POSITIVE
Precursor type: [M+H]+
m/z	relative intensity
177.7	1
177.8	3
177.9	4
178.0	5
178.1	6
178.2	5
178.3	5
178.4	4
190.4	8
190.5	9
190.6	13
190.7	23
190.8	40
190.9	61
191.0	81
191.1	93
191.2	95
191.3	84
191.4	63
191.5	36
191.6	12
191.7	0
192.8	2
192.9	4
193.0	5
193.1	6
193.2	7
193.3	6
193.4	5
193.5	3
200.5	2
200.6	3
200.7	5
200.8	9
200.9	13
201.0	17
201.1	19
201.2	18
201.3	16
201.4	12
201.5	7
201.6	2
202.7	3
202.8	5
202.9	8
203.0	11
203.1	13
203.2	13
203.3	12
203.4	9
203.5	5
203.6	1
206.8	2
206.9	4
207.0	5
207.1	6
207.2	6
207.3	5
207.4	3
218.3	1
218.4	2
218.5	4
218.6	7
218.7	14
218.8	25
218.9	38
219.0	48
219.1	53
219.2	51
219.3	45
219.4	33
219.5	18
219.6	5
219.7	0
248.2	0
248.3	2
248.4	4
248.5	8
248.6	15
248.7	26
248.8	44
248.9	67
249.0	88
249.1	99
249.2	99
249.3	90
249.4	71
249.5	45
249.6	18
249.7	1
