Mass spectrum: 3-Hydroxyspirostan-12-one (3beta,5alpha,25R)-form, Ac; LC-ESI-QQQ; MS2; Frag=135.0V CID@15.0; [M+H]+
Name: 3-Hydroxyspirostan-12-one (3beta,5alpha,25R)-form, Ac
Class: Steroids
Formula: C29H44O5
Exact mass: 472.671
SMILES: CC(=O)OC1CC[C@]2(C)C3CC(=O)[C@@]4(C)C(CC5OC6(CC[C@@H](C)CO6)[C@@H](C)C54)C3CC[C@H]2C1
InChI: InChI=1S/C29H44O5/c1-16-8-11-29(32-15-16)17(2)26-24(34-29)13-23-21-7-6-19-12-20(33-18(3)30)9-10-27(19,4)22(21)14-25(31)28(23,26)5/h16-17,19-24,26H,6-15H2,1-5H3/t16-,17+,19+,20?,21?,22?,23?,24?,26?,27+,28-,29?/m1/s1
Instrument: Agilent 6410 Triple Quadrupole LC/MS system
Instrument type: LC-ESI-QQQ
Ms type: MS2
Ion mode: POSITIVE
Precursor type: [M+H]+
m/z	relative intensity
172.7	1
172.8	3
172.9	5
173.0	6
173.1	7
173.2	6
173.3	4
173.4	2
182.6	0
182.7	2
182.8	3
182.9	4
183.0	4
183.1	4
183.2	4
183.3	3
183.4	2
184.8	1
184.9	3
185.0	4
185.1	5
185.2	5
185.3	4
185.4	2
186.7	1
186.8	3
186.9	4
187.0	5
187.1	5
187.2	4
187.3	3
187.4	2
280.5	2
280.6	3
280.7	7
280.8	11
280.9	17
281.0	24
281.1	30
281.2	33
281.3	32
281.4	27
281.5	19
281.6	10
281.7	2
298.5	1
298.6	2
298.7	4
298.8	7
298.9	11
299.0	15
299.1	19
299.2	21
299.3	20
299.4	17
299.5	11
299.6	4
299.7	0
340.4	0
340.5	2
340.6	4
340.7	8
340.8	14
340.9	24
341.0	36
341.1	48
341.2	55
341.3	55
341.4	47
341.5	33
341.6	17
341.7	5
341.8	0
346.9	1
347.0	3
347.1	4
347.2	5
347.3	5
347.4	4
347.5	2
358.6	1
358.7	2
358.8	4
358.9	8
359.0	11
359.1	13
359.2	15
359.3	16
359.4	16
359.5	13
359.6	7
359.7	2
436.5	0
436.6	2
436.7	5
436.8	11
436.9	19
437.0	28
437.1	37
437.2	42
437.3	43
437.4	40
437.5	33
437.6	22
437.7	9
437.8	1
454.4	1
454.5	2
454.6	4
454.7	8
454.8	16
454.9	27
455.0	41
455.1	55
455.2	66
455.3	70
455.4	66
455.5	54
455.6	36
455.7	17
455.8	3
472.3	0
472.4	1
472.5	4
472.6	9
472.7	17
472.8	28
472.9	41
473.0	58
473.1	75
473.2	91
473.3	99
473.4	98
473.5	85
473.6	60
473.7	30
473.8	6
473.9	0
