Mass spectrum: Salutaridine; LC-ESI-QQQ; MS2; Frag=135.0V CID@10.0; [M+H]+
Name: Salutaridine
Class: Alkaloids
Formula: C19H21NO4
Exact mass: 327.3835
SMILES: COC1=CC23CCN(C)C(Cc4ccc(OC)c(O)c42)C3=CC1=O
InChI: InChI=1S/C19H21NO4/c1-20-7-6-19-10-16(24-3)14(21)9-12(19)13(20)8-11-4-5-15(23-2)18(22)17(11)19/h4-5,9-10,13,22H,6-8H2,1-3H3
Instrument: Agilent 6410 Triple Quadrupole LC/MS system
Instrument type: LC-ESI-QQQ
Ms type: MS2
Ion mode: POSITIVE
Precursor type: [M+H]+
m/z	relative intensity
327.3	0
327.4	1
327.5	4
327.6	9
327.7	19
327.8	34
327.9	55
328.0	77
328.1	93
328.2	99
328.3	95
328.4	78
328.5	50
328.6	21
328.7	2
