Mass spectrum: Lappaconitine; LC-ESI-QQQ; MS2; Frag=135.0V CID@5.0; [M+HCOO]-
Name: Lappaconitine
Class: Alkaloids
Formula: C32H44N2O8
Exact mass: 584.7161
SMILES: CCN1C[C@]2(OC(=O)c3ccccc3N=C(C)O)CC[C@H](OC)[C@]34C1[C@H](CC23)[C@@]1(O)C[C@H](OC)[C@H]2CC4[C@]1(O)[C@H]2OC
InChI: InChI=1S/C32H44N2O8/c1-6-34-16-29(42-28(36)18-9-7-8-10-21(18)33-17(2)35)12-11-25(40-4)31-23(29)14-20(26(31)34)30(37)15-22(39-3)19-13-24(31)32(30,38)27(19)41-5/h7-10,19-20,22-27,37-38H,6,11-16H2,1-5H3,(H,33,35)/t19-,20+,22+,23?,24?,25+,26?,27+,29-,30+,31+,32+/m1/s1
Instrument: Agilent 6410 Triple Quadrupole LC/MS system
Instrument type: LC-ESI-QQQ
Ms type: MS2
Ion mode: NEGATIVE
Precursor type: [M+HCOO]-
m/z	relative intensity
159.2	0
159.3	2
159.4	8
159.5	21
159.6	35
159.7	49
159.8	67
159.9	89
160.0	99
160.1	83
160.2	45
160.3	12
160.4	0
421.4	2
421.5	3
421.6	6
421.7	8
421.8	9
421.9	10
422.0	12
422.1	17
422.2	20
422.3	18
422.4	11
422.5	3
582.7	0
582.8	5
582.9	20
583.0	36
583.1	37
583.2	23
583.3	7
583.4	0
628.6	1
628.7	2
628.8	6
628.9	11
629.0	18
629.1	24
629.2	27
629.3	30
629.4	29
629.5	22
629.6	10
629.7	2
