Mass spectrum: 1alpha-Hydroxy-1-desoxotamirin; LC-ESI-QQQ; MS2; Frag=135.0V CID@10.0; [M+H]+
Name: 1alpha-Hydroxy-1-desoxotamirin
Class: Terpenoids
Formula: C15H20O4
Exact mass: 264.3243
SMILES: C=C1C(=O)O[C@H]2CC(=C)[C@@H](O)CC/C(C)=C/[C@@H](O)C12
InChI: InChI=1S/C15H20O4/c1-8-4-5-11(16)9(2)7-13-14(12(17)6-8)10(3)15(18)19-13/h6,11-14,16-17H,2-5,7H2,1H3/b8-6+/t11-,12+,13-,14?/m0/s1
Instrument: Agilent 6410 Triple Quadrupole LC/MS system
Instrument type: LC-ESI-QQQ
Ms type: MS2
Ion mode: POSITIVE
Precursor type: [M+H]+
m/z	relative intensity
80.3	1
80.4	4
80.5	7
80.6	11
80.7	13
80.8	18
80.9	24
81.0	29
81.1	30
81.2	28
81.3	25
81.4	18
81.5	10
81.6	2
90.5	0
90.6	2
90.7	7
90.8	11
90.9	14
91.0	14
91.1	10
91.2	5
91.3	2
92.4	1
92.5	2
92.6	5
92.7	8
92.8	12
92.9	15
93.0	16
93.1	16
93.2	14
93.3	11
93.4	6
93.5	2
94.5	1
94.6	3
94.7	4
94.8	5
94.9	7
95.0	9
95.1	9
95.2	8
95.3	6
95.4	4
96.5	1
96.6	2
96.7	4
96.8	8
96.9	12
97.0	14
97.1	13
97.2	9
97.3	6
97.4	3
104.6	3
104.7	4
104.8	6
104.9	10
105.0	12
105.1	11
105.2	9
105.3	8
105.4	7
105.5	5
105.6	2
106.7	3
106.8	6
106.9	13
107.0	20
107.1	25
107.2	23
107.3	17
107.4	8
107.5	2
108.6	0
108.7	3
108.8	6
108.9	8
109.0	8
109.1	7
109.2	6
109.3	6
109.4	4
109.5	2
122.3	0
122.4	3
122.5	5
122.6	6
122.7	6
122.8	8
122.9	13
123.0	20
123.1	24
123.2	24
123.3	20
123.4	12
123.5	5
123.6	1
130.7	3
130.8	4
130.9	7
131.0	9
131.1	9
131.2	8
131.3	6
131.4	4
131.5	2
132.2	0
132.3	1
132.4	5
132.5	12
132.6	19
132.7	27
132.8	36
132.9	48
133.0	60
133.1	64
133.2	59
133.3	48
133.4	34
133.5	19
133.6	5
133.7	0
142.2	1
142.3	2
142.4	4
142.5	6
142.6	8
142.7	10
142.8	15
142.9	22
143.0	29
143.1	32
143.2	30
143.3	22
143.4	13
143.5	6
143.6	1
144.5	0
144.6	2
144.7	6
144.8	10
144.9	13
145.0	12
145.1	10
145.2	7
145.3	5
145.4	3
148.7	3
148.8	4
148.9	6
149.0	9
149.1	8
149.2	6
149.3	3
150.3	1
150.4	3
150.5	6
150.6	10
150.7	15
150.8	19
150.9	24
151.0	27
151.1	28
151.2	28
151.3	26
151.4	19
151.5	10
151.6	2
156.8	3
156.9	5
157.0	9
157.1	11
157.2	11
157.3	7
157.4	4
158.4	1
158.5	3
158.6	5
158.7	8
158.8	11
158.9	14
159.0	16
159.1	16
159.2	13
159.3	10
159.4	6
159.5	2
167.8	2
167.9	4
168.0	6
168.1	7
168.2	6
168.3	3
168.6	2
168.7	3
168.8	4
168.9	4
169.0	4
169.1	4
169.2	3
169.3	2
169.4	1
169.5	1
169.6	0
169.7	0
169.8	0
169.9	0
170.0	0
170.1	0
170.2	0
170.3	0
170.4	0
170.5	0
170.6	1
170.7	2
170.8	3
170.9	3
171.0	3
171.1	4
171.2	4
171.3	3
172.3	1
172.4	3
172.5	4
172.6	6
172.7	12
172.8	22
172.9	34
173.0	41
173.1	41
173.2	36
173.3	29
173.4	20
173.5	10
173.6	2
180.8	2
180.9	4
181.0	6
181.1	6
181.2	4
181.3	2
182.3	0
182.4	3
182.5	8
182.6	15
182.7	24
182.8	35
182.9	47
183.0	55
183.1	56
183.2	52
183.3	48
183.4	39
183.5	23
183.6	7
183.7	0
188.6	1
188.7	3
188.8	6
188.9	9
189.0	10
189.1	8
189.2	6
189.3	5
189.4	4
189.5	2
191.1	1
191.2	3
191.3	4
191.4	4
191.5	3
192.6	2
192.7	4
192.8	5
192.9	7
193.0	7
193.1	8
193.2	9
193.3	8
193.4	5
193.5	2
200.2	0
200.3	0
200.4	5
200.5	13
200.6	21
200.7	30
200.8	46
200.9	70
201.0	91
201.1	99
201.2	99
201.3	94
201.4	80
201.5	52
201.6	21
201.7	1
210.6	0
210.7	3
210.8	11
210.9	20
211.0	23
211.1	20
211.2	14
211.3	9
211.4	4
211.5	2
218.6	1
218.7	3
218.8	7
218.9	12
219.0	17
219.1	19
219.2	17
219.3	13
219.4	8
219.5	3
228.3	1
228.4	2
228.5	6
228.6	12
228.7	19
228.8	30
228.9	44
229.0	60
229.1	71
229.2	75
229.3	69
229.4	52
229.5	28
229.6	7
229.7	0
246.6	2
246.7	4
246.8	7
246.9	13
247.0	20
247.1	25
247.2	26
247.3	22
247.4	14
247.5	6
247.6	1
264.6	1
264.7	3
264.8	7
264.9	12
265.0	14
265.1	12
265.2	10
265.3	9
265.4	8
265.5	5
265.6	2
