Mass spectrum: Deltaline; LC-ESI-QQQ; MS2; Frag=135.0V CID@15.0; [M+H]+
Name: Deltaline
Class: Alkaloids
Formula: C27H41NO8
Exact mass: 507.6297
SMILES: CCN1C[C@]2(C)CCC(OC)C34C2[C@H](OC(C)=O)C2(OCO[C@@]25C[C@H](OC)[C@H]2C[C@]3(O)C5[C@H]2OC)[C@@H]14
InChI: InChI=1S/C27H41NO8/c1-7-28-12-23(3)9-8-17(32-5)26-20(23)21(36-14(2)29)27(22(26)28)25(34-13-35-27)11-16(31-4)15-10-24(26,30)19(25)18(15)33-6/h15-22,30H,7-13H2,1-6H3/t15-,16+,17?,18+,19?,20?,21+,22+,23+,24+,25-,26?,27?/m1/s1
Instrument: Agilent 6410 Triple Quadrupole LC/MS system
Instrument type: LC-ESI-QQQ
Ms type: MS2
Ion mode: POSITIVE
Precursor type: [M+H]+
m/z	relative intensity
507.3	0
507.4	2
507.5	4
507.6	8
507.7	13
507.8	23
507.9	39
508.0	59
508.1	79
508.2	93
508.3	99
508.4	96
508.5	82
508.6	58
508.7	31
508.8	9
508.9	0
