Mass spectrum: Ugaferin; LC-ESI-QQQ; MS2; Frag=135.0V CID@10.0 ; [M+H]+
Name: Ugaferin
Class: Polycyclic aromatic natural products
Formula: C25H36O7
Exact mass: 448.56147
SMILES: COc1cc(C(=O)O[C@H]2C/C(C)=C\CC[C@]3(C)O[C@@H]3C(O)C2C(C)C)cc(OC)c1OC
InChI: InChI=1S/C25H36O7/c1-14(2)20-17(11-15(3)9-8-10-25(4)23(32-25)21(20)26)31-24(27)16-12-18(28-5)22(30-7)19(13-16)29-6/h9,12-14,17,20-21,23,26H,8,10-11H2,1-7H3/b15-9-/t17-,20?,21?,23+,25-/m0/s1
Instrument: Agilent 6410 Triple Quadrupole LC/MS system
Instrument type: LC-ESI-QQQ
Ms type: MS2
Ion mode: POSITIVE
Precursor type: [M+H]+
m/z	relative intensity
68.6	3
68.7	4
68.8	7
68.9	9
69.0	10
69.1	9
69.2	7
69.3	5
69.4	2
80.3	1
80.4	3
80.5	5
80.6	7
80.7	11
80.8	17
80.9	24
81.0	27
81.1	28
81.2	27
81.3	22
81.4	14
81.5	6
81.6	0
82.5	1
82.6	2
82.7	5
82.8	7
82.9	9
83.0	9
83.1	8
83.2	6
83.3	5
83.4	3
84.6	2
84.7	3
84.8	5
84.9	7
85.0	7
85.1	6
85.2	4
92.6	2
92.7	4
92.8	6
92.9	9
93.0	12
93.1	13
93.2	11
93.3	9
93.4	6
93.5	3
94.3	1
94.4	2
94.5	4
94.6	9
94.7	18
94.8	28
94.9	36
95.0	42
95.1	44
95.2	43
95.3	37
95.4	24
95.5	10
95.6	1
96.6	1
96.7	3
96.8	5
96.9	8
97.0	9
97.1	10
97.2	11
97.3	9
97.4	5
97.5	2
104.5	1
104.6	2
104.7	5
104.8	8
104.9	12
105.0	15
105.1	18
105.2	17
105.3	11
105.4	5
105.5	0
106.3	0
106.4	2
106.5	5
106.6	9
106.7	15
106.8	21
106.9	27
107.0	32
107.1	34
107.2	30
107.3	23
107.4	14
107.5	5
107.6	0
108.2	1
108.3	2
108.4	4
108.5	7
108.6	10
108.7	15
108.8	21
108.9	27
109.0	32
109.1	35
109.2	36
109.3	33
109.4	24
109.5	12
109.6	2
110.5	1
110.6	3
110.7	4
110.8	6
110.9	7
111.0	8
111.1	9
111.2	9
111.3	8
111.4	5
111.5	1
118.4	0
118.5	2
118.6	4
118.7	8
118.8	12
118.9	16
119.0	18
119.1	18
119.2	16
119.3	11
119.4	5
119.5	1
120.4	3
120.5	4
120.6	8
120.7	15
120.8	27
120.9	38
121.0	45
121.1	45
121.2	42
121.3	35
121.4	25
121.5	13
121.6	3
122.4	2
122.5	4
122.6	7
122.7	13
122.8	21
122.9	30
123.0	38
123.1	42
123.2	41
123.3	35
123.4	25
123.5	13
123.6	4
132.5	1
132.6	2
132.7	5
132.8	8
132.9	12
133.0	15
133.1	16
133.2	14
133.3	9
133.4	4
133.5	1
134.4	2
134.5	4
134.6	8
134.7	14
134.8	23
134.9	34
135.0	45
135.1	53
135.2	56
135.3	48
135.4	33
135.5	15
135.6	3
136.6	1
136.7	3
136.8	5
136.9	8
137.0	10
137.1	12
137.2	12
137.3	10
137.4	7
137.5	2
144.4	2
144.5	4
144.6	8
144.7	16
144.8	25
144.9	33
145.0	40
145.1	42
145.2	40
145.3	35
145.4	25
145.5	14
145.6	4
146.5	2
146.6	3
146.7	5
146.8	10
146.9	14
147.0	17
147.1	17
147.2	15
147.3	12
147.4	8
147.5	4
147.6	1
148.6	2
148.7	5
148.8	9
148.9	15
149.0	19
149.1	20
149.2	18
149.3	13
149.4	8
149.5	4
150.5	1
150.6	3
150.7	6
150.8	11
150.9	14
151.0	16
151.1	17
151.2	18
151.3	17
151.4	12
151.5	5
151.6	0
158.3	1
158.4	4
158.5	6
158.6	10
158.7	17
158.8	28
158.9	42
159.0	54
159.1	61
159.2	61
159.3	55
159.4	40
159.5	21
159.6	5
159.7	0
160.3	1
160.4	3
160.5	6
160.6	9
160.7	15
160.8	25
160.9	38
161.0	49
161.1	55
161.2	56
161.3	52
161.4	43
161.5	27
161.6	10
161.7	0
162.4	1
162.5	3
162.6	8
162.7	13
162.8	18
162.9	22
163.0	25
163.1	27
163.2	27
163.3	24
163.4	18
163.5	10
163.6	3
172.6	2
172.7	4
172.8	6
172.9	9
173.0	12
173.1	14
173.2	14
173.3	14
173.4	11
173.5	6
173.6	2
174.5	0
174.6	2
174.7	6
174.8	10
174.9	13
175.0	15
175.1	16
175.2	17
175.3	15
175.4	10
175.5	5
175.6	1
176.5	1
176.6	2
176.7	5
176.8	11
176.9	18
177.0	23
177.1	25
177.2	22
177.3	16
177.4	10
177.5	4
177.6	1
188.7	1
188.8	2
188.9	4
189.0	6
189.1	7
189.2	7
189.3	6
189.4	4
189.5	3
190.4	1
190.5	3
190.6	6
190.7	12
190.8	20
190.9	30
191.0	41
191.1	50
191.2	56
191.3	54
191.4	45
191.5	30
191.6	15
191.7	3
194.3	2
194.4	3
194.5	7
194.6	15
194.7	27
194.8	41
194.9	54
195.0	64
195.1	70
195.2	68
195.3	55
195.4	33
195.5	11
195.6	0
200.3	1
200.4	3
200.5	7
200.6	11
200.7	20
200.8	36
200.9	60
201.0	83
201.1	97
201.2	99
201.3	93
201.4	78
201.5	54
201.6	25
201.7	4
212.4	1
212.5	3
212.6	5
212.7	8
212.8	11
212.9	13
213.0	15
213.1	17
213.2	17
213.3	12
213.4	6
213.5	1
218.3	1
218.4	4
218.5	8
218.6	13
218.7	20
218.8	32
218.9	48
219.0	64
219.1	75
219.2	80
219.3	75
219.4	60
219.5	37
219.6	14
219.7	1
236.8	1
236.9	3
237.0	5
237.1	7
237.2	8
237.3	8
237.4	6
237.5	3
