Mass spectrum: Smilagenin ((3beta,5beta,25R)-form); LC-ESI-QQQ; MS2; Frag=135.0V CID@25.0; [M+H]+
Name: Isosarsasapogenin
Name: (25R)-5beta-Spirostan-3beta-ol
Name: 16,22:22,26-Bis(epoxy)cholestan-3beta-ol
Name: 5beta,20alpha,22alpha,25D-Spiranostan-3beta-ol
Name: Smilagenin ((3beta,5beta,25R)-form)
Class: Steroids
Formula: C27H44O3
Exact mass: 416.6499
SMILES: C[C@H]1C2C(CC3C4CCC5CC(O)CC[C@]5(C)C4CC[C@@]32C)O[C@]12CC[C@@H](C)CO2
InChI: InChI=1S/C27H44O3/c1-16-7-12-27(29-15-16)17(2)24-23(30-27)14-22-20-6-5-18-13-19(28)8-10-25(18,3)21(20)9-11-26(22,24)4/h16-24,28H,5-15H2,1-4H3/t16-,17+,18?,19?,20?,21?,22?,23?,24?,25+,26+,27-/m1/s1
Instrument: Agilent 6410 Triple Quadrupole LC/MS system
Instrument type: LC-ESI-QQQ
Ms type: MS2
Ion mode: POSITIVE
Precursor type: [M+H]+
m/z	relative intensity
68.5	2
68.6	3
68.7	5
68.8	8
68.9	10
69.0	11
69.1	11
69.2	10
69.3	8
69.4	5
69.5	2
120.6	1
120.7	3
120.8	4
120.9	5
121.0	5
121.1	5
121.2	5
121.3	4
121.4	2
132.9	1
133.0	3
133.1	5
133.2	5
133.3	3
133.4	1
144.8	3
144.9	4
145.0	6
145.1	6
145.2	6
145.3	4
145.4	2
146.4	1
146.5	2
146.6	4
146.7	6
146.8	10
146.9	14
147.0	17
147.1	19
147.2	18
147.3	16
147.4	11
147.5	6
147.6	2
158.5	1
158.6	2
158.7	4
158.8	6
158.9	8
159.0	9
159.1	10
159.2	11
159.3	10
159.4	7
159.5	3
160.6	2
160.7	3
160.8	5
160.9	7
161.0	9
161.1	11
161.2	11
161.3	11
161.4	10
161.5	7
161.6	3
172.8	3
172.9	5
173.0	8
173.1	10
173.2	10
173.3	9
173.4	5
173.5	2
254.3	0
254.4	2
254.5	6
254.6	10
254.7	17
254.8	26
254.9	40
255.0	59
255.1	80
255.2	95
255.3	99
255.4	89
255.5	65
255.6	36
255.7	10
255.8	0
272.4	1
272.5	3
272.6	7
272.7	17
272.8	32
272.9	48
273.0	63
273.1	73
273.2	79
273.3	82
273.4	76
273.5	58
273.6	32
273.7	8
273.8	0
