Mass spectrum: Dubinidine; LC-ESI-QQQ; MS2; Frag=135.0V CID@15.0; [M+H]+
Name: Dubinidine
Class: Alkaloids
Formula: C15H17NO4
Exact mass: 275.307
SMILES: COc1c2c(nc3ccccc13)OC(C(C)(O)CO)C2
InChI: InChI=1S/C15H17NO4/c1-15(18,8-17)12-7-10-13(19-2)9-5-3-4-6-11(9)16-14(10)20-12/h3-6,12,17-18H,7-8H2,1-2H3
Instrument: Agilent 6410 Triple Quadrupole LC/MS system
Instrument type: LC-ESI-QQQ
Ms type: MS2
Ion mode: POSITIVE
Precursor type: [M+H]+
m/z	relative intensity
187.3	1
187.4	2
187.5	5
187.6	11
187.7	20
187.8	33
187.9	47
188.0	56
188.1	60
188.2	59
188.3	52
188.4	39
188.5	21
188.6	6
188.7	0
201.7	2
201.8	4
201.9	6
202.0	8
202.1	8
202.2	8
202.3	7
202.4	5
202.5	2
215.2	0
215.3	1
215.4	4
215.5	8
215.6	13
215.7	23
215.8	42
215.9	66
216.0	87
216.1	98
216.2	99
216.3	91
216.4	74
216.5	48
216.6	20
216.7	2
217.7	1
217.8	3
217.9	5
218.0	6
218.1	7
218.2	6
218.3	5
218.4	4
218.5	2
229.6	1
229.7	2
229.8	5
229.9	8
230.0	11
230.1	12
230.2	12
230.3	11
230.4	9
230.5	5
230.6	2
245.7	2
245.8	4
245.9	6
246.0	7
246.1	8
246.2	8
246.3	7
246.4	5
246.5	3
257.4	1
257.5	2
257.6	4
257.7	7
257.8	13
257.9	22
258.0	30
258.1	34
258.2	34
258.3	30
258.4	22
258.5	12
258.6	4
275.4	1
275.5	3
275.6	4
275.7	8
275.8	14
275.9	22
276.0	29
276.1	33
276.2	33
276.3	31
276.4	25
276.5	16
276.6	7
276.7	0
