Mass spectrum: Hydrocortisone acetate; LC-ESI-QQQ; MS2; Frag=135.0V CID@25.0; [M+H]+
Name: Hydrocortisone acetate
Class: Steroids
Formula: C23H32O6
Exact mass: 404.5079
SMILES: CC(=O)OCC(=O)[C@@]1(O)CCC2C3CCC4=CC(=O)CC[C@]4(C)C3C(O)C[C@@]21C
InChI: InChI=1S/C23H32O6/c1-13(24)29-12-19(27)23(28)9-7-17-16-5-4-14-10-15(25)6-8-21(14,2)20(16)18(26)11-22(17,23)3/h10,16-18,20,26,28H,4-9,11-12H2,1-3H3/t16?,17?,18?,20?,21-,22-,23-/m0/s1
Instrument: Agilent 6410 Triple Quadrupole LC/MS system
Instrument type: LC-ESI-QQQ
Ms type: MS2
Ion mode: POSITIVE
Precursor type: [M+H]+
m/z	relative intensity
60.6	1
60.7	3
60.8	4
60.9	4
61.0	4
61.1	2
72.5	2
72.6	3
72.7	5
72.8	7
72.9	9
73.0	11
73.1	12
73.2	11
73.3	8
73.4	4
73.5	1
80.6	3
80.7	4
80.8	5
80.9	7
81.0	9
81.1	9
81.2	7
81.3	4
81.4	2
82.5	1
82.6	2
82.7	5
82.8	8
82.9	11
83.0	12
83.1	12
83.2	9
83.3	6
83.4	3
92.5	1
92.6	3
92.7	6
92.8	9
92.9	11
93.0	12
93.1	11
93.2	9
93.3	5
93.4	2
94.7	4
94.8	5
94.9	6
95.0	7
95.1	8
95.2	7
95.3	5
95.4	2
96.3	1
96.4	3
96.5	7
96.6	14
96.7	22
96.8	33
96.9	42
97.0	48
97.1	48
97.2	45
97.3	41
97.4	32
97.5	18
97.6	6
97.7	0
98.4	1
98.5	3
98.6	4
98.7	5
98.8	6
98.9	8
99.0	10
99.1	11
99.2	10
99.3	7
99.4	3
100.3	1
100.4	2
100.5	5
100.6	9
100.7	13
100.8	16
100.9	19
101.0	22
101.1	22
101.2	20
101.3	15
101.4	9
101.5	2
104.5	2
104.6	2
104.7	4
104.8	7
104.9	10
105.0	11
105.1	9
105.2	7
105.3	6
105.4	4
105.5	2
106.5	1
106.6	3
106.7	5
106.8	7
106.9	10
107.0	12
107.1	11
107.2	9
107.3	6
107.4	3
108.4	2
108.5	3
108.6	5
108.7	9
108.8	16
108.9	23
109.0	29
109.1	29
109.2	26
109.3	19
109.4	12
109.5	5
109.6	1
110.6	1
110.7	3
110.8	4
110.9	5
111.0	5
111.1	5
111.2	4
111.3	2
118.3	1
118.4	3
118.5	6
118.6	9
118.7	15
118.8	25
118.9	38
119.0	49
119.1	52
119.2	49
119.3	41
119.4	29
119.5	15
119.6	4
120.1	0
120.2	2
120.3	5
120.4	10
120.5	18
120.6	28
120.7	42
120.8	59
120.9	74
121.0	86
121.1	92
121.2	93
121.3	84
121.4	61
121.5	31
121.6	7
121.7	0
122.3	1
122.4	2
122.5	4
122.6	7
122.7	11
122.8	16
122.9	22
123.0	28
123.1	30
123.2	30
123.3	25
123.4	16
123.5	7
123.6	1
130.4	1
130.5	3
130.6	6
130.7	8
130.8	10
130.9	12
131.0	14
131.1	15
131.2	15
131.3	13
131.4	9
131.5	4
131.6	1
132.4	2
132.5	3
132.6	5
132.7	8
132.8	13
132.9	18
133.0	20
133.1	21
133.2	18
133.3	13
133.4	7
133.5	2
134.4	2
134.5	2
134.6	5
134.7	10
134.8	17
134.9	25
135.0	29
135.1	29
135.2	25
135.3	20
135.4	13
135.5	6
135.6	0
136.7	2
136.8	3
136.9	5
137.0	8
137.1	10
137.2	9
137.3	6
137.4	2
140.6	2
140.7	3
140.8	4
140.9	5
141.0	6
141.1	8
141.2	7
141.3	5
141.4	2
142.5	2
142.6	4
142.7	9
142.8	15
142.9	20
143.0	21
143.1	21
143.2	21
143.3	18
143.4	13
143.5	6
143.6	2
144.3	1
144.4	3
144.5	5
144.6	7
144.7	12
144.8	20
144.9	30
145.0	37
145.1	39
145.2	35
145.3	27
145.4	16
145.5	7
145.6	1
146.4	2
146.5	4
146.6	8
146.7	15
146.8	24
146.9	33
147.0	39
147.1	41
147.2	38
147.3	32
147.4	22
147.5	11
147.6	2
148.4	2
148.5	3
148.6	4
148.7	6
148.8	8
148.9	11
149.0	15
149.1	17
149.2	18
149.3	16
149.4	12
149.5	7
149.6	3
150.7	3
150.8	4
150.9	5
151.0	6
151.1	7
151.2	6
151.3	4
151.4	2
154.5	2
154.6	3
154.7	6
154.8	11
154.9	15
155.0	18
155.1	17
155.2	13
155.3	8
155.4	4
155.5	1
156.4	1
156.5	2
156.6	4
156.7	10
156.8	19
156.9	26
157.0	30
157.1	31
157.2	30
157.3	28
157.4	22
157.5	12
157.6	4
158.2	1
158.3	2
158.4	5
158.5	8
158.6	12
158.7	17
158.8	26
158.9	36
159.0	45
159.1	50
159.2	51
159.3	45
159.4	31
159.5	15
159.6	3
160.3	1
160.4	3
160.5	4
160.6	6
160.7	8
160.8	13
160.9	20
161.0	25
161.1	28
161.2	29
161.3	28
161.4	23
161.5	15
161.6	5
161.7	0
162.2	0
162.3	2
162.4	3
162.5	5
162.6	7
162.7	12
162.8	21
162.9	32
163.0	40
163.1	43
163.2	40
163.3	33
163.4	22
163.5	11
163.6	4
164.8	2
164.9	4
165.0	5
165.1	6
165.2	6
165.3	4
165.4	2
166.7	1
166.8	3
166.9	6
167.0	8
167.1	8
167.2	6
167.3	4
168.4	1
168.5	4
168.6	8
168.7	13
168.8	19
168.9	25
169.0	31
169.1	34
169.2	33
169.3	28
169.4	21
169.5	12
169.6	4
170.2	0
170.3	2
170.4	4
170.5	6
170.6	7
170.7	9
170.8	13
170.9	21
171.0	30
171.1	36
171.2	37
171.3	31
171.4	21
171.5	10
171.6	3
172.2	2
172.3	4
172.4	5
172.5	6
172.6	6
172.7	8
172.8	15
172.9	27
173.0	38
173.1	44
173.2	44
173.3	38
173.4	27
173.5	15
173.6	4
174.6	2
174.7	4
174.8	7
174.9	13
175.0	21
175.1	26
175.2	26
175.3	20
175.4	12
175.5	5
175.6	0
176.8	3
176.9	4
177.0	5
177.1	6
177.2	7
177.3	7
177.4	6
177.5	3
178.6	1
178.7	2
178.8	4
178.9	5
179.0	5
179.1	4
179.2	3
179.3	2
179.4	1
179.5	0
179.6	0
179.7	0
179.8	0
179.9	0
180.0	1
180.1	1
180.2	1
180.3	1
180.4	0
180.5	0
180.6	2
180.7	5
180.8	10
180.9	13
181.0	15
181.1	15
181.2	14
181.3	12
181.4	8
181.5	3
182.5	2
182.6	5
182.7	9
182.8	14
182.9	21
183.0	28
183.1	35
183.2	39
183.3	36
183.4	26
183.5	12
183.6	3
184.2	2
184.3	3
184.4	5
184.5	8
184.6	11
184.7	14
184.8	20
184.9	28
185.0	37
185.1	44
185.2	46
185.3	43
185.4	33
185.5	18
185.6	5
185.7	0
186.1	0
186.2	2
186.3	4
186.4	6
186.5	8
186.6	10
186.7	14
186.8	23
186.9	34
187.0	42
187.1	45
187.2	46
187.3	46
187.4	39
187.5	25
187.6	10
187.7	1
188.6	2
188.7	4
188.8	7
188.9	12
189.0	15
189.1	17
189.2	16
189.3	12
189.4	7
189.5	3
192.5	1
192.6	2
192.7	4
192.8	6
192.9	8
193.0	9
193.1	10
193.2	10
193.3	9
193.4	8
193.5	5
193.6	2
194.5	3
194.6	4
194.7	6
194.8	10
194.9	15
195.0	18
195.1	19
195.2	18
195.3	15
195.4	11
195.5	6
195.6	2
196.5	2
196.6	3
196.7	6
196.8	11
196.9	18
197.0	25
197.1	29
197.2	31
197.3	27
197.4	18
197.5	7
197.6	1
198.4	2
198.5	3
198.6	5
198.7	8
198.8	14
198.9	21
199.0	28
199.1	32
199.2	31
199.3	25
199.4	16
199.5	7
199.6	1
200.5	2
200.6	3
200.7	5
200.8	8
200.9	10
201.0	13
201.1	16
201.2	18
201.3	17
201.4	13
201.5	6
201.6	1
206.5	3
206.6	4
206.7	5
206.8	7
206.9	9
207.0	12
207.1	15
207.2	16
207.3	13
207.4	8
207.5	3
208.5	3
208.6	4
208.7	8
208.8	15
208.9	23
209.0	29
209.1	30
209.2	27
209.3	21
209.4	15
209.5	8
209.6	3
210.5	2
210.6	3
210.7	6
210.8	12
210.9	18
211.0	24
211.1	26
211.2	25
211.3	20
211.4	14
211.5	7
211.6	1
212.5	3
212.6	4
212.7	6
212.8	12
212.9	21
213.0	30
213.1	36
213.2	35
213.3	30
213.4	22
213.5	14
213.6	6
213.7	1
214.6	0
214.7	2
214.8	4
214.9	8
215.0	10
215.1	10
215.2	9
215.3	7
215.4	5
215.5	2
220.7	4
220.8	6
220.9	10
221.0	14
221.1	15
221.2	13
221.3	9
221.4	5
221.5	2
222.6	2
222.7	5
222.8	11
222.9	20
223.0	26
223.1	29
223.2	28
223.3	27
223.4	23
223.5	15
223.6	6
223.7	0
224.4	2
224.5	4
224.6	6
224.7	9
224.8	13
224.9	17
225.0	23
225.1	29
225.2	32
225.3	30
225.4	22
225.5	12
225.6	4
226.6	2
226.7	5
226.8	9
226.9	15
227.0	20
227.1	19
227.2	16
227.3	11
227.4	6
227.5	2
228.7	2
228.8	4
228.9	6
229.0	7
229.1	8
229.2	7
229.3	6
229.4	4
229.5	2
232.6	1
232.7	3
232.8	4
232.9	5
233.0	6
233.1	5
233.2	5
233.3	4
234.7	3
234.8	4
234.9	4
235.0	6
235.1	8
235.2	9
235.3	8
235.4	5
236.6	2
236.7	3
236.8	6
236.9	8
237.0	9
237.1	8
237.2	6
237.3	3
238.3	2
238.4	4
238.5	7
238.6	11
238.7	17
238.8	25
238.9	37
239.0	49
239.1	56
239.2	55
239.3	46
239.4	34
239.5	19
239.6	7
239.7	0
240.2	1
240.3	2
240.4	5
240.5	7
240.6	12
240.7	22
240.8	38
240.9	59
241.0	80
241.1	94
241.2	99
241.3	93
241.4	74
241.5	46
241.6	18
241.7	1
242.7	2
242.8	4
242.9	6
243.0	8
243.1	8
243.2	7
243.3	5
243.4	2
246.7	1
246.8	2
246.9	5
247.0	7
247.1	9
247.2	8
247.3	5
247.4	2
247.8	1
247.9	3
248.0	4
248.1	4
248.2	3
248.3	2
248.4	1
248.5	3
248.6	5
248.7	7
248.8	9
248.9	13
249.0	18
249.1	23
249.2	26
249.3	25
249.4	18
249.5	8
249.6	2
250.3	1
250.4	2
250.5	4
250.6	6
250.7	8
250.8	11
250.9	16
251.0	19
251.1	22
251.2	22
251.3	21
251.4	16
251.5	8
251.6	2
252.7	2
252.8	4
252.9	7
253.0	11
253.1	13
253.2	14
253.3	13
253.4	8
253.5	3
262.6	3
262.7	5
262.8	8
262.9	12
263.0	16
263.1	18
263.2	18
263.3	15
263.4	11
263.5	6
263.6	2
264.7	3
264.8	4
264.9	6
265.0	7
265.1	9
265.2	9
265.3	8
265.4	5
265.5	2
265.8	1
265.9	2
266.0	4
266.1	5
266.2	5
266.3	4
266.4	4
266.5	6
266.6	8
266.7	11
266.8	16
266.9	25
267.0	36
267.1	47
267.2	55
267.3	55
267.4	47
267.5	31
267.6	15
267.7	4
268.8	6
268.9	10
269.0	16
269.1	21
269.2	22
269.3	19
269.4	13
269.5	7
269.6	2
272.8	2
272.9	3
273.0	5
273.1	8
273.2	10
273.3	10
273.4	7
273.5	4
280.4	1
280.5	3
280.6	6
280.7	10
280.8	16
280.9	23
281.0	31
281.1	37
281.2	42
281.3	41
281.4	34
281.5	22
281.6	8
281.7	0
284.7	2
284.8	3
284.9	5
285.0	7
285.1	8
285.2	9
285.3	9
285.4	8
285.5	5
285.6	2
290.3	1
290.4	2
290.5	4
290.6	5
290.7	8
290.8	13
290.9	23
291.0	32
291.1	36
291.2	35
291.3	31
291.4	24
291.5	16
291.6	7
291.7	0
296.9	3
297.0	6
297.1	8
297.2	10
297.3	10
297.4	7
297.5	4
297.6	1
298.6	0
298.7	2
298.8	4
298.9	6
299.0	7
299.1	7
299.2	6
299.3	5
299.4	3
308.3	1
308.4	3
308.5	5
308.6	8
308.7	14
308.8	26
308.9	43
309.0	61
309.1	74
309.2	79
309.3	75
309.4	62
309.5	42
309.6	20
309.7	3
326.3	1
326.4	2
326.5	4
326.6	7
326.7	11
326.8	19
326.9	34
327.0	51
327.1	64
327.2	70
327.3	69
327.4	60
327.5	42
327.6	20
327.7	4
327.8	0
344.6	0
344.7	1
344.8	4
344.9	8
345.0	11
345.1	14
345.2	14
345.3	12
345.4	7
345.5	3
404.7	1
404.8	2
404.9	4
405.0	5
405.1	4
405.2	3
