Mass spectrum: Resistomycin; LC-ESI-QQQ; MS2; Frag=135.0V CID@10.0; [M+H]+
Name: Resistomycin
Class: Polycyclic aromatic natural products
Formula: C22H16O6
Exact mass: 376.3692
SMILES: Cc1cc(O)c2c3c4c(cc(O)c13)C(C)(C)C(=O)c1c(O)cc(O)c(c1-4)C2=O
InChI: InChI=1S/C22H16O6/c1-7-4-9(23)15-18-13(7)10(24)5-8-14(18)19-16(20(15)27)11(25)6-12(26)17(19)21(28)22(8,2)3/h4-6,23-26H,1-3H3
Instrument: Agilent 6410 Triple Quadrupole LC/MS system
Instrument type: LC-ESI-QQQ
Ms type: MS2
Ion mode: POSITIVE
Precursor type: [M+H]+
m/z	relative intensity
376.2	0
376.3	2
376.4	5
376.5	8
376.6	14
376.7	25
376.8	44
376.9	67
377.0	88
377.1	99
377.2	99
377.3	90
377.4	69
377.5	39
377.6	12
377.7	0
