Mass spectrum: Feselol; LC-ESI-QQQ; MS2; Frag=135.0V CID@25.0; [M+H]+
Name: Feselol
Class: Benzopyranoids
Formula: C24H30O4
Exact mass: 382.5043
SMILES: CC1=CC[C@@H]2C(C)(C)[C@H](O)CC[C@@]2(C)[C@@H]1COc1ccc2ccc(=O)oc2c1
InChI: InChI=1S/C24H30O4/c1-15-5-9-20-23(2,3)21(25)11-12-24(20,4)18(15)14-27-17-8-6-16-7-10-22(26)28-19(16)13-17/h5-8,10,13,18,20-21,25H,9,11-12,14H2,1-4H3/t18-,20-,21-,24+/m1/s1
Instrument: Agilent 6410 Triple Quadrupole LC/MS system
Instrument type: LC-ESI-QQQ
Ms type: MS2
Ion mode: POSITIVE
Precursor type: [M+H]+
m/z	relative intensity
68.7	2
68.8	3
68.9	4
69.0	6
69.1	7
69.2	7
69.3	6
69.4	4
69.5	2
80.8	3
80.9	4
81.0	5
81.1	6
81.2	6
81.3	5
81.4	3
81.5	1
92.7	2
92.8	3
92.9	5
93.0	6
93.1	7
93.2	7
93.3	5
93.4	3
93.5	1
94.5	1
94.6	3
94.7	5
94.8	9
94.9	13
95.0	17
95.1	18
95.2	18
95.3	16
95.4	11
95.5	6
95.6	2
104.5	1
104.6	2
104.7	3
104.8	5
104.9	6
105.0	8
105.1	8
105.2	8
105.3	7
105.4	5
105.5	3
106.4	0
106.5	1
106.6	4
106.7	7
106.8	11
106.9	17
107.0	21
107.1	24
107.2	23
107.3	19
107.4	12
107.5	5
107.6	1
108.5	2
108.6	3
108.7	5
108.8	8
108.9	12
109.0	15
109.1	17
109.2	17
109.3	16
109.4	13
109.5	8
109.6	3
109.7	0
118.5	1
118.6	3
118.7	6
118.8	11
118.9	16
119.0	19
119.1	20
119.2	19
119.3	16
119.4	12
119.5	7
119.6	2
120.7	2
120.8	3
120.9	5
121.0	6
121.1	7
121.2	7
121.3	6
121.4	5
121.5	2
122.8	2
122.9	3
123.0	4
123.1	5
123.2	5
123.3	5
123.4	3
123.5	2
132.4	1
132.5	2
132.6	3
132.7	6
132.8	10
132.9	15
133.0	18
133.1	20
133.2	21
133.3	21
133.4	18
133.5	12
133.6	5
133.7	0
146.5	1
146.6	2
146.7	5
146.8	9
146.9	13
147.0	18
147.1	21
147.2	21
147.3	19
147.4	16
147.5	11
147.6	6
147.7	1
160.6	2
160.7	3
160.8	4
160.9	7
161.0	10
161.1	12
161.2	12
161.3	12
161.4	10
161.5	6
161.6	3
162.2	0
162.3	2
162.4	6
162.5	13
162.6	24
162.7	39
162.8	56
162.9	75
163.0	91
163.1	99
163.2	96
163.3	81
163.4	58
163.5	31
163.6	9
163.7	0
174.7	2
174.8	3
174.9	5
175.0	7
175.1	8
175.2	8
175.3	6
175.4	4
175.5	2
198.6	1
198.7	3
198.8	5
198.9	6
199.0	7
199.1	7
199.2	7
199.3	6
199.4	5
199.5	2
202.6	1
202.7	3
202.8	5
202.9	8
203.0	12
203.1	16
203.2	17
203.3	16
203.4	14
203.5	10
203.6	6
203.7	1
