Mass spectrum: Poststerone; LC-ESI-QQQ; MS2;  Frag=135.0V CID@15.0 ; [M+HCOO]-
Name: Poststerone
Class: Steroids
Formula: C21H30O5
Exact mass: 362.47025
SMILES: CC(=O)C1CC[C@@]2(O)C3=CC(=O)C4CC(O)C(O)C[C@]4(C)C3CC[C@]12C
InChI: InChI=1S/C21H30O5/c1-11(22)12-5-7-21(26)14-8-16(23)15-9-17(24)18(25)10-19(15,2)13(14)4-6-20(12,21)3/h8,12-13,15,17-18,24-26H,4-7,9-10H2,1-3H3/t12?,13?,15?,17?,18?,19-,20-,21-/m1/s1
Instrument: Agilent 6410 Triple Quadrupole LC/MS system
Instrument type: LC-ESI-QQQ
Ms type: MS2
Ion mode: NEGATIVE
Precursor type: [M+HCOO]-
m/z	relative intensity
272.5	2
272.6	3
272.7	5
272.8	7
272.9	10
273.0	11
273.1	10
273.2	8
273.3	5
273.4	3
327.0	3
327.1	4
327.2	6
327.3	6
327.4	4
342.5	2
342.6	3
342.7	5
342.8	10
342.9	17
343.0	24
343.1	24
343.2	16
343.3	7
343.4	1
360.2	0
360.3	2
360.4	8
360.5	23
360.6	40
360.7	51
360.8	50
361.0	36
361.1	43
361.2	67
361.3	93
361.4	99
361.5	76
361.6	40
361.7	14
361.8	3
