Mass spectrum: Trachelanthamine; LC-ESI-QQQ; MS2; Frag=135.0V CID@15.0; [M+H]+
Name: Trachelanthamine
Class: Alkaloids
Formula: C15H27NO4
Exact mass: 285.3867
SMILES: CC(C)C(O)(C(=O)OC[C@@H]1CCN2CCC[C@@H]12)C(C)O
InChI: InChI=1S/C15H27NO4/c1-10(2)15(19,11(3)17)14(18)20-9-12-6-8-16-7-4-5-13(12)16/h10-13,17,19H,4-9H2,1-3H3/t11?,12-,13-,15?/m0/s1
Instrument: Agilent 6410 Triple Quadrupole LC/MS system
Instrument type: LC-ESI-QQQ
Ms type: MS2
Ion mode: POSITIVE
Precursor type: [M+H]+
m/z	relative intensity
123.9	6
124.0	7
124.1	11
124.2	16
124.3	16
124.4	11
124.5	5
141.5	2
141.6	6
141.7	9
141.8	10
141.9	9
142.0	7
142.1	6
142.2	7
142.3	6
142.4	5
285.4	3
285.5	5
285.6	9
285.7	20
285.8	39
285.9	63
286.0	86
286.1	99
286.2	97
286.3	78
286.4	47
286.5	17
286.6	2
