Mass spectrum: Ajmaline; LC-ESI-QQQ; MS2; Frag=135.0V CID@10.0; [M+H]+
Name: Ajmalin
Name: Cardiorythmine
Name: Raugalline
Name: Rauwolfine
Name: Tachmalin
Name: Ajmalan-17,21-diol
Name: (13S,16S,18S,1R,14R,17R)-13-ethyl-8-methyl-8,15-diazahexacyclo(14.2.1.0(1,9).0(2,7).0(10,15).0(12,17))nonadeca-2(7),3,5-triene-14,18-diol
Name: Ajmaline
Class: Alkaloids
Formula: C20H26N2O2
Exact mass: 326.4424
SMILES: CCC1[C@@H]2CC3C4N(C)c5ccccc5C45C[C@@H](C2[C@@H]5O)N3[C@@H]1O
InChI: InChI=1S/C20H26N2O2/c1-3-10-11-8-14-17-20(12-6-4-5-7-13(12)21(17)2)9-15(16(11)18(20)23)22(14)19(10)24/h4-7,10-11,14-19,23-24H,3,8-9H2,1-2H3/t10?,11-,14?,15-,16?,17?,18-,19+,20?/m0/s1
Instrument: Agilent 6410 Triple Quadrupole LC/MS system
Instrument type: LC-ESI-QQQ
Ms type: MS2
Ion mode: POSITIVE
Precursor type: [M+H]+
m/z	relative intensity
326.4	0
326.5	1
326.6	5
326.7	12
326.8	23
326.9	39
327.0	61
327.1	83
327.2	97
327.3	99
327.4	87
327.5	62
327.6	32
327.7	8
327.8	0
