Mass spectrum: Strophanthidinic acid; LC-ESI-QQQ; MS2; Frag=135.0V CID@25.0 ; [M+H]+
Name: Strophanthidinic acid
Class: Steroids
Formula: C23H32O7
Exact mass: 420.50729
SMILES: C[C@]12CCC3C(CCC4(O)CC(O)CC[C@]34C(=O)O)C1(O)CCC2C1=CC(=O)OC1
InChI: InChI=1S/C23H32O7/c1-20-6-3-16-17(23(20,29)9-5-15(20)13-10-18(25)30-12-13)4-7-21(28)11-14(24)2-8-22(16,21)19(26)27/h10,14-17,24,28-29H,2-9,11-12H2,1H3,(H,26,27)/t14?,15?,16?,17?,20-,21?,22-,23?/m1/s1
Instrument: Agilent 6410 Triple Quadrupole LC/MS system
Instrument type: LC-ESI-QQQ
Ms type: MS2
Ion mode: POSITIVE
Precursor type: [M+H]+
m/z	relative intensity
104.5	1
104.6	2
104.7	4
104.8	5
104.9	6
105.0	5
105.1	4
108.2	1
108.3	3
108.4	5
108.5	6
108.6	7
108.7	8
108.8	10
108.9	13
109.0	15
109.1	15
109.2	15
109.3	13
109.4	8
109.5	4
116.7	1
116.8	3
116.9	4
117.0	5
117.1	4
117.2	2
118.5	1
118.6	3
118.7	5
118.8	7
118.9	8
119.0	8
119.1	7
119.2	6
119.3	6
119.4	4
119.5	2
124.3	2
124.4	3
124.5	5
124.6	6
124.7	8
124.8	11
124.9	14
125.0	16
125.1	17
125.2	14
125.3	10
125.4	4
125.5	0
132.5	0
132.6	2
132.7	4
132.8	7
132.9	9
133.0	9
133.1	7
133.2	5
133.3	3
133.4	2
136.5	1
136.6	2
136.7	4
136.8	6
136.9	8
137.0	9
137.1	9
137.2	8
137.3	7
137.4	4
137.5	1
140.6	1
140.7	2
140.8	4
140.9	5
141.0	6
141.1	5
141.2	3
142.7	3
142.8	4
142.9	7
143.0	10
143.1	10
143.2	8
143.3	5
143.4	2
144.5	2
144.6	4
144.7	6
144.8	9
144.9	14
145.0	17
145.1	17
145.2	16
145.3	14
145.4	10
145.5	6
145.6	2
146.9	2
147.0	3
147.1	5
147.2	6
147.3	4
147.4	2
152.3	0
152.4	2
152.5	3
152.6	7
152.7	12
152.8	22
152.9	34
153.0	44
153.1	46
153.2	41
153.3	32
153.4	21
153.5	11
153.6	3
154.2	1
154.3	2
154.4	3
154.5	5
154.6	11
154.7	20
154.8	30
154.9	37
155.0	38
155.1	37
155.2	35
155.3	32
155.4	25
155.5	13
155.6	3
156.6	1
156.7	3
156.8	5
156.9	7
157.0	8
157.1	7
157.2	5
157.3	2
158.5	1
158.6	3
158.7	6
158.8	9
158.9	12
159.0	14
159.1	15
159.2	13
159.3	8
159.4	3
162.4	0
162.5	1
162.6	3
162.7	5
162.8	6
162.9	6
163.0	6
163.1	5
163.2	4
163.3	2
166.6	0
166.7	1
166.8	3
166.9	6
167.0	7
167.1	6
167.2	4
167.3	1
168.4	1
168.5	2
168.6	5
168.7	8
168.8	11
168.9	14
169.0	16
169.1	17
169.2	16
169.3	12
169.4	7
169.5	3
170.3	1
170.4	2
170.5	4
170.6	6
170.7	9
170.8	11
170.9	15
171.0	19
171.1	22
171.2	22
171.3	17
171.4	10
171.5	4
172.4	1
172.5	2
172.6	4
172.7	5
172.8	7
172.9	7
173.0	7
173.1	6
173.2	5
173.3	4
173.4	3
173.5	2
174.6	1
174.7	2
174.8	5
174.9	7
175.0	7
175.1	5
175.2	3
180.4	1
180.5	2
180.6	4
180.7	4
180.8	4
180.9	3
181.0	4
181.1	5
181.2	6
181.3	5
181.4	3
182.5	1
182.6	2
182.7	6
182.8	10
182.9	14
183.0	16
183.1	15
183.2	13
183.3	10
183.4	6
183.5	2
184.2	0
184.3	2
184.4	6
184.5	13
184.6	21
184.7	29
184.8	41
184.9	57
185.0	72
185.1	81
185.2	80
185.3	70
185.4	50
185.5	26
185.6	7
185.7	0
186.6	2
186.7	3
186.8	4
186.9	6
187.0	7
187.1	9
187.2	9
187.3	7
187.4	4
187.5	1
194.6	1
194.7	2
194.8	4
194.9	7
195.0	11
195.1	14
195.2	14
195.3	10
195.4	5
195.5	2
196.4	1
196.5	3
196.6	6
196.7	9
196.8	13
196.9	15
197.0	17
197.1	19
197.2	20
197.3	17
197.4	10
197.5	4
197.6	0
198.5	1
198.6	4
198.7	10
198.8	19
198.9	26
199.0	30
199.1	33
199.2	33
199.3	29
199.4	19
199.5	8
199.6	1
202.6	1
202.7	2
202.8	4
202.9	6
203.0	6
203.1	5
203.2	3
208.6	1
208.7	3
208.8	4
208.9	5
209.0	7
209.1	8
209.2	8
209.3	7
209.4	4
209.5	2
210.2	1
210.3	2
210.4	3
210.5	4
210.6	3
210.7	2
210.8	2
210.9	3
211.0	4
211.1	4
211.2	3
211.3	3
214.7	3
214.8	4
214.9	6
215.0	8
215.1	8
215.2	6
215.3	4
215.4	3
216.5	1
216.6	2
216.7	4
216.8	6
216.9	7
217.0	6
217.1	5
217.2	4
217.3	3
218.6	0
218.7	2
218.8	4
218.9	6
219.0	6
219.1	5
220.7	3
220.8	4
220.9	7
221.0	9
221.1	10
221.2	8
221.3	4
221.4	1
222.7	1
222.8	2
222.9	4
223.0	5
223.1	5
223.2	3
232.4	1
232.5	2
232.6	3
232.7	4
232.8	4
232.9	4
233.0	3
233.1	3
233.2	3
233.3	3
233.4	2
233.5	1
233.6	0
233.7	0
233.8	0
233.9	0
234.0	0
234.1	0
234.2	0
234.3	0
234.4	1
234.5	2
234.6	2
234.7	3
234.8	4
234.9	7
235.0	11
235.1	13
235.2	12
235.3	9
235.4	5
235.5	2
236.7	1
236.8	3
236.9	8
237.0	12
237.1	13
237.2	11
237.3	6
237.4	2
248.9	4
249.0	5
249.1	6
249.2	7
249.3	6
249.4	4
249.5	1
250.6	1
250.7	2
250.8	3
250.9	5
251.0	6
251.1	6
251.2	5
251.3	3
260.5	2
260.6	4
260.7	6
260.8	8
260.9	10
261.0	10
261.1	13
261.2	17
261.3	18
261.4	13
261.5	6
261.6	0
262.8	2
262.9	3
263.0	6
263.1	7
263.2	7
263.3	5
263.4	2
274.4	0
274.5	1
274.6	4
274.7	9
274.8	15
274.9	20
275.0	25
275.1	28
275.2	27
275.3	21
275.4	11
275.5	4
276.6	1
276.7	2
276.8	5
276.9	8
277.0	11
277.1	14
277.2	15
277.3	13
277.4	10
277.5	6
277.6	3
278.7	1
278.8	2
278.9	5
279.0	8
279.1	13
279.2	16
279.3	15
279.4	10
279.5	4
279.6	0
284.9	1
285.0	2
285.1	4
285.2	6
285.3	7
285.4	6
285.5	3
292.4	1
292.5	3
292.6	4
292.7	5
292.8	8
292.9	10
293.0	12
293.1	13
293.2	15
293.3	19
293.4	21
293.5	17
293.6	9
293.7	2
294.7	1
294.8	3
294.9	4
295.0	6
295.1	7
295.2	7
295.3	5
295.4	2
302.3	1
302.4	2
302.5	3
302.6	5
302.7	8
302.8	13
302.9	20
303.0	26
303.1	30
303.2	30
303.3	24
303.4	14
303.5	5
303.6	0
304.6	1
304.7	2
304.8	4
304.9	5
305.0	7
305.1	7
305.2	5
305.3	3
320.3	0
320.4	0
320.5	4
320.6	12
320.7	22
320.8	34
320.9	51
321.0	71
321.1	90
321.2	99
321.3	95
321.4	77
321.5	48
321.6	18
321.7	1
322.4	1
322.5	2
322.6	4
322.7	6
322.8	8
322.9	9
323.0	11
323.1	14
323.2	17
323.3	17
323.4	12
323.5	5
323.6	0
330.8	4
330.9	5
331.0	8
331.1	11
331.2	14
331.3	13
331.4	10
331.5	5
331.6	1
338.3	0
338.4	3
338.5	7
338.6	14
338.7	22
338.8	31
338.9	40
339.0	52
339.1	66
339.2	79
339.3	81
339.4	65
339.5	37
339.6	11
339.7	0
340.8	0
340.9	2
341.0	4
341.1	5
341.2	6
341.3	5
341.4	4
341.5	2
348.4	1
348.5	3
348.6	5
348.7	7
348.8	11
348.9	19
349.0	29
349.1	36
349.2	36
349.3	31
349.4	23
349.5	13
349.6	5
349.7	0
366.4	2
366.5	3
366.6	5
366.7	9
366.8	14
366.9	20
367.0	23
367.1	24
367.2	25
367.3	26
367.4	24
367.5	17
367.6	7
367.7	0
