Mass spectrum: Linichlorin A; LC-ESI-QQQ; MS2; Frag=135.0V CID@25.0; [M+H]+
Name: Linichlorin A
Class: Terpenoids
Formula: C19H23ClO6
Exact mass: 382.8446
SMILES: C=C(C)C(=O)O[C@H]1CC(=C)C2C[C@@H](O)[C@@](O)(CCl)C2[C@H]2OC(=O)C(=C)C12
InChI: InChI=1S/C19H23ClO6/c1-8(2)17(22)25-12-5-9(3)11-6-13(21)19(24,7-20)15(11)16-14(12)10(4)18(23)26-16/h11-16,21,24H,1,3-7H2,2H3/t11?,12-,13+,14?,15?,16-,19-/m0/s1
Instrument: Agilent 6410 Triple Quadrupole LC/MS system
Instrument type: LC-ESI-QQQ
Ms type: MS2
Ion mode: POSITIVE
Precursor type: [M+H]+
m/z	relative intensity
68.2	1
68.3	2
68.4	4
68.5	6
68.6	8
68.7	11
68.8	20
68.9	30
69.0	38
69.1	41
69.2	35
69.3	23
69.4	10
69.5	2
76.6	1
76.7	4
76.8	8
76.9	13
77.0	15
77.1	14
77.2	12
77.3	9
77.4	4
90.6	2
90.7	4
90.8	7
90.9	12
91.0	15
91.1	16
91.2	12
91.3	7
91.4	4
92.5	1
92.6	5
92.7	13
92.8	20
92.9	20
93.0	15
93.1	9
93.2	6
93.3	5
93.4	4
102.8	2
102.9	3
103.0	4
103.1	5
103.2	4
103.3	2
104.5	1
104.6	2
104.7	5
104.8	10
104.9	13
105.0	14
105.1	12
105.2	9
105.3	6
105.4	4
105.5	3
116.6	3
116.7	6
116.8	10
116.9	12
117.0	12
117.1	11
117.2	10
117.3	8
117.4	5
117.5	2
118.5	3
118.6	5
118.7	8
118.8	12
118.9	15
119.0	16
119.1	14
119.2	13
119.3	12
119.4	9
119.5	4
121.0	2
121.1	3
121.2	5
121.3	5
121.4	4
127.8	2
127.9	4
128.0	6
128.1	6
128.2	4
128.5	2
128.6	3
128.7	7
128.8	12
128.9	16
129.0	19
129.1	21
129.2	23
129.3	22
129.4	18
129.5	10
129.6	4
130.6	0
130.7	6
130.8	15
130.9	24
131.0	28
131.1	26
131.2	22
131.3	17
131.4	10
131.5	5
140.4	2
140.5	3
140.6	7
140.7	16
140.8	26
140.9	34
141.0	38
141.1	38
141.2	37
141.3	32
141.4	22
141.5	11
141.8	4
141.9	8
142.0	10
142.1	10
142.2	9
142.3	7
142.6	5
142.7	12
142.8	23
142.9	33
143.0	41
143.1	46
143.2	46
143.3	39
143.4	25
143.5	10
143.6	1
144.6	4
144.7	4
144.8	7
144.9	13
145.0	20
145.1	26
145.2	25
145.3	20
145.4	12
145.5	4
146.4	1
146.5	2
146.6	5
146.7	7
146.8	9
146.9	10
147.0	11
147.1	11
147.2	10
147.3	7
147.4	3
152.5	2
152.6	3
152.7	6
152.8	9
152.9	11
153.0	11
153.1	12
153.2	14
153.3	16
153.4	13
153.7	7
153.8	16
153.9	23
154.0	23
154.1	19
154.2	15
154.3	12
154.6	5
154.7	10
154.8	24
154.9	40
155.0	49
155.1	50
155.2	47
155.3	39
155.4	28
155.5	14
155.6	5
156.6	8
156.7	11
156.8	15
156.9	18
157.0	23
157.1	30
157.2	38
157.3	39
157.4	30
157.5	16
157.6	6
158.5	3
158.6	6
158.7	11
158.8	16
158.9	21
159.0	26
159.1	32
159.2	35
159.3	31
159.4	21
159.5	10
159.6	3
164.5	2
164.6	4
164.7	6
164.8	10
164.9	18
165.0	25
165.1	29
165.2	27
165.3	19
165.4	10
165.7	9
165.8	12
165.9	14
166.0	16
166.1	17
166.2	16
166.3	15
166.4	12
166.5	8
166.7	2
166.8	6
166.9	15
167.0	22
167.1	23
167.2	19
167.3	13
167.4	7
168.5	7
168.6	10
168.7	20
168.8	41
168.9	68
169.0	90
169.1	99
169.2	96
169.3	83
169.4	60
169.5	32
169.6	8
169.7	0
169.9	0
170.0	2
170.1	3
170.2	4
170.3	4
170.4	4
170.5	4
170.6	4
170.7	6
170.8	9
170.9	13
171.0	15
171.1	17
171.2	19
171.3	20
171.4	17
171.5	9
171.6	2
172.6	1
172.7	4
172.8	8
172.9	12
173.0	12
173.1	10
173.2	7
173.3	4
173.4	3
174.9	2
175.0	4
175.1	7
175.2	8
175.3	8
175.4	6
175.5	3
178.1	2
178.2	3
178.3	5
178.4	9
178.5	14
178.6	23
178.7	34
178.8	48
178.9	66
179.0	84
179.1	94
179.2	90
179.3	72
179.4	48
179.5	25
179.6	9
179.7	3
180.6	3
180.7	8
180.8	15
180.9	19
181.0	21
181.1	24
181.2	28
181.3	29
181.4	23
181.5	13
181.6	5
182.0	5
182.1	6
182.2	9
182.3	12
182.4	11
182.7	6
182.8	14
182.9	22
183.0	26
183.1	26
183.2	23
183.3	19
183.4	13
183.6	6
183.7	12
183.8	22
183.9	28
184.0	30
184.1	31
184.2	30
184.3	26
184.4	18
184.6	15
184.7	20
184.8	22
184.9	22
185.0	25
185.1	33
185.2	42
185.3	44
185.4	34
185.5	17
185.6	3
186.8	3
186.9	5
187.0	10
187.1	16
187.2	18
187.3	15
187.4	8
187.5	3
188.4	1
188.5	2
188.6	8
188.7	21
188.8	36
188.9	45
189.0	45
189.1	43
189.2	46
189.3	49
189.4	42
189.5	24
189.6	6
189.7	0
190.7	1
190.8	3
190.9	5
191.0	6
191.1	5
191.2	3
196.4	3
196.5	4
196.6	7
196.7	17
196.8	35
196.9	59
197.0	77
197.1	80
197.2	69
197.3	54
197.4	37
197.5	19
197.6	5
200.7	1
200.8	3
200.9	7
201.0	10
201.1	11
201.2	7
201.3	2
202.6	1
202.7	3
202.8	6
202.9	8
203.0	7
203.1	4
204.6	2
204.7	4
204.8	6
204.9	8
205.0	10
205.1	11
205.2	10
205.3	7
205.4	4
206.3	4
206.4	5
206.5	7
206.6	11
206.7	20
206.8	34
206.9	47
207.0	49
207.1	41
207.2	30
207.3	21
207.4	14
207.5	7
207.6	2
214.3	1
214.4	3
214.5	7
214.6	12
214.7	18
214.8	24
214.9	29
215.0	32
215.1	35
215.2	34
215.3	27
215.4	15
215.5	5
224.6	0
224.7	4
224.8	10
224.9	17
225.0	22
225.1	26
225.2	27
225.3	24
225.4	14
225.5	4
232.4	2
232.5	4
232.6	7
232.7	13
232.8	25
232.9	38
233.0	47
233.1	48
233.2	41
233.3	31
233.4	20
233.5	9
233.6	2
242.6	2
242.7	3
242.8	5
242.9	7
243.0	9
243.1	10
243.2	9
243.3	6
243.4	4
260.8	3
260.9	4
261.0	6
261.1	7
261.2	6
261.3	4
278.9	2
279.0	4
279.1	6
279.2	6
279.3	4
