Mass spectrum: Yohimbic acid; LC-ESI-QQQ; MS2; Frag=135.0V CID@15.0; [M+H]+
Name: Yohimbic acid
Class: Alkaloids
Formula: C20H24N2O3
Exact mass: 340.4259
SMILES: O=C(O)[C@H]1[C@@H](O)CCC2CN3CCc4c([nH]c5ccccc45)[C@@H]3C[C@@H]21
InChI: InChI=1S/C20H24N2O3/c23-17-6-5-11-10-22-8-7-13-12-3-1-2-4-15(12)21-19(13)16(22)9-14(11)18(17)20(24)25/h1-4,11,14,16-18,21,23H,5-10H2,(H,24,25)/t11?,14-,16-,17-,18+/m0/s1
Instrument: Agilent 6410 Triple Quadrupole LC/MS system
Instrument type: LC-ESI-QQQ
Ms type: MS2
Ion mode: POSITIVE
Precursor type: [M+H]+
m/z	relative intensity
143.4	1
143.5	3
143.6	6
143.7	10
143.8	16
143.9	23
144.0	28
144.1	31
144.2	31
144.3	27
144.4	21
144.5	12
144.6	4
144.7	0
197.5	1
197.6	2
197.7	4
197.8	7
197.9	11
198.0	14
198.1	17
198.2	17
198.3	16
198.4	12
198.5	7
198.6	2
340.3	0
340.4	1
340.5	4
340.6	7
340.7	14
340.8	25
340.9	44
341.0	67
341.1	86
341.2	98
341.3	99
341.4	88
341.5	64
341.6	34
341.7	9
341.8	0
