Mass spectrum: Geniposide; LC-ESI-QQQ; MS2; Frag=135.0V CID@25.0; [M+Na]+
Name: Geniposide
Class: Terpenoids
Formula: C17H24O10
Exact mass: 388.3748
SMILES: COC(=O)C1=CO[C@@H](OC2O[C@H](CO)[C@@H](O)[C@H](O)[C@H]2O)[C@@H]2C(CO)=CC[C@H]12
InChI: InChI=1S/C17H24O10/c1-24-15(23)9-6-25-16(11-7(4-18)2-3-8(9)11)27-17-14(22)13(21)12(20)10(5-19)26-17/h2,6,8,10-14,16-22H,3-5H2,1H3/t8-,10-,11-,12-,13+,14-,16+,17?/m1/s1
Instrument: Agilent 6410 Triple Quadrupole LC/MS system
Instrument type: LC-ESI-QQQ
Ms type: MS2
Ion mode: POSITIVE
Precursor type: [M+Na]+
m/z	relative intensity
216.4	4
216.5	7
216.6	15
216.7	26
216.8	35
216.9	34
217.0	23
217.2	18
217.3	30
217.4	36
217.5	29
217.6	15
217.7	5
230.7	6
230.8	9
230.9	14
231.0	15
231.1	12
231.2	7
410.3	4
410.4	6
410.5	13
410.6	25
410.7	35
410.8	39
410.9	42
411.0	57
411.1	80
411.2	94
411.3	83
411.4	51
411.5	19
411.6	2
