Mass spectrum: Inosine; LC-ESI-QQQ; MS2; Frag=135.0V CID@10.0; [M+H]+
Name: INO
Name: (-)-Inosine
Name: beta-Inosine
Name: Hypoxanthine 9-beta-D-ribofuranoside
Name: 9-beta-D-ribofuranosylhypoxanthine
Name: Hypoxanthine ribonucleoside
Name: Oxiamin
Name: Ribonosine
Name: Trophicardyl
Name: Inosine
Class: Carbohydrates
Formula: C10H12N4O5
Exact mass: 268.2309
SMILES: OC[C@H]1O[C@@H](n2cnc3c(O)ncnc32)[C@H](O)[C@@H]1O
InChI: InChI=1S/C10H12N4O5/c15-1-4-6(16)7(17)10(19-4)14-3-13-5-8(14)11-2-12-9(5)18/h2-4,6-7,10,15-17H,1H2,(H,11,12,18)/t4-,6-,7-,10-/m1/s1
Instrument: Agilent 6410 Triple Quadrupole LC/MS system
Instrument type: LC-ESI-QQQ
Ms type: MS2
Ion mode: POSITIVE
Precursor type: [M+H]+
m/z	relative intensity
136.2	3
136.3	5
136.4	9
136.5	14
136.6	23
136.7	39
136.8	63
136.9	87
137.0	99
137.1	98
137.2	90
137.3	76
137.4	55
137.5	28
137.6	6
137.7	0
