Mass spectrum: Hyrcanogenin; LC-ESI-QQQ; MS2; Frag=135.0V CID@10.0; [M+H]+
Name: Hyrcanogenin
Class: Steroids
Formula: C23H30O5
Exact mass: 386.4926
SMILES: C[C@]12CCC3C(CCC4=CC(O)CC[C@@]43C=O)C1(O)CCC2C1=CC(=O)OC1
InChI: InChI=1S/C23H30O5/c1-21-7-5-18-19(3-2-15-11-16(25)4-8-22(15,18)13-24)23(21,27)9-6-17(21)14-10-20(26)28-12-14/h10-11,13,16-19,25,27H,2-9,12H2,1H3/t16?,17?,18?,19?,21-,22-,23?/m1/s1
Instrument: Agilent 6410 Triple Quadrupole LC/MS system
Instrument type: LC-ESI-QQQ
Ms type: MS2
Ion mode: POSITIVE
Precursor type: [M+H]+
m/z	relative intensity
118.6	0
118.7	2
118.8	4
118.9	6
119.0	7
119.1	6
119.2	5
119.3	5
119.4	4
119.5	3
144.6	1
144.7	3
144.8	5
144.9	7
145.0	7
145.1	7
145.2	6
145.3	6
145.4	4
145.5	2
152.3	0
152.4	1
152.5	4
152.6	8
152.7	13
152.8	19
152.9	25
153.0	29
153.1	32
153.2	32
153.3	28
153.4	20
153.5	10
153.6	2
154.4	1
154.5	2
154.6	4
154.7	7
154.8	10
154.9	14
155.0	17
155.1	20
155.2	20
155.3	18
155.4	13
155.5	7
155.6	2
170.7	1
170.8	3
170.9	4
171.0	5
171.1	7
171.2	8
171.3	8
171.4	6
171.5	3
174.7	1
174.8	3
174.9	5
175.0	8
175.1	9
175.2	9
175.3	7
175.4	4
175.5	2
184.7	1
184.8	2
184.9	4
185.0	6
185.1	8
185.2	8
185.3	6
185.4	3
186.5	1
186.6	2
186.7	4
186.8	7
186.9	11
187.0	16
187.1	20
187.2	21
187.3	19
187.4	14
187.5	8
187.6	2
196.8	2
196.9	4
197.0	5
197.1	6
197.2	7
197.3	7
197.4	5
197.5	3
262.9	3
263.0	4
263.1	6
263.2	7
263.3	6
263.4	4
263.5	2
276.8	1
276.9	2
277.0	4
277.1	5
277.2	6
277.3	6
277.4	5
277.5	4
277.6	2
304.7	2
304.8	3
304.9	6
305.0	9
305.1	11
305.2	11
305.3	9
305.4	7
305.5	4
305.6	1
322.3	0
322.4	1
322.5	4
322.6	8
322.7	15
322.8	27
322.9	45
323.0	66
323.1	83
323.2	92
323.3	94
323.4	83
323.5	59
323.6	29
323.7	5
323.8	0
332.5	0
332.6	1
332.7	4
332.8	7
332.9	11
333.0	15
333.1	17
333.2	18
333.3	18
333.4	16
333.5	11
333.6	4
333.7	0
340.4	1
340.5	3
340.6	8
340.7	13
340.8	22
340.9	37
341.0	58
341.1	81
341.2	97
341.3	99
341.4	87
341.5	61
341.6	31
341.7	7
341.8	0
350.3	1
350.4	3
350.5	4
350.6	7
350.7	12
350.8	24
350.9	42
351.0	63
351.1	79
351.2	86
351.3	85
351.4	74
351.5	52
351.6	25
351.7	4
368.6	2
368.7	3
368.8	6
368.9	11
369.0	15
369.1	19
369.2	22
369.3	24
369.4	23
369.5	18
369.6	9
369.7	2
