Mass spectrum: Andrographolide; LC-ESI-QQQ; MS2; Frag=135.0V CID@15.0; [M+H]+
Name: Andrographolide
Class: Terpenoids
Formula: C20H30O5
Exact mass: 350.4591
SMILES: C=C1CCC2C(C)(CO)C(O)CC[C@]2(C)C1C/C=C1/C(=O)OCC1O
InChI: InChI=1S/C20H30O5/c1-12-4-7-16-19(2,9-8-17(23)20(16,3)11-21)14(12)6-5-13-15(22)10-25-18(13)24/h5,14-17,21-23H,1,4,6-11H2,2-3H3/b13-5+/t14?,15?,16?,17?,19-,20?/m1/s1
Instrument: Agilent 6410 Triple Quadrupole LC/MS system
Instrument type: LC-ESI-QQQ
Ms type: MS2
Ion mode: POSITIVE
Precursor type: [M+H]+
m/z	relative intensity
94.6	1
94.7	3
94.8	5
94.9	6
95.0	5
104.5	0
104.6	2
104.7	5
104.8	7
104.9	7
105.0	5
105.1	3
106.6	0
106.7	2
106.8	5
106.9	8
107.0	9
107.1	7
107.2	3
132.6	1
132.7	3
132.8	6
132.9	8
133.0	9
133.1	9
133.2	8
133.3	6
133.4	3
174.7	1
174.8	3
174.9	6
175.0	8
175.1	10
175.2	9
175.3	7
175.4	4
214.7	1
214.8	3
214.9	4
215.0	5
215.1	3
350.4	0
350.5	1
350.6	5
350.7	11
350.8	18
350.9	27
351.0	44
351.1	70
351.2	92
351.3	99
351.4	87
351.5	61
351.6	32
351.7	8
351.8	0
