Mass spectrum: Lapidin; LC-ESI-QQQ; MS2; Frag=135.0V CID@5.0; [M+Na]+
Name: Lapidin
Class: Terpenoids
Formula: C20H30O4
Exact mass: 334.4597
SMILES: C/C=C(\C)C(=O)O[C@H]1CC(C)=CC(=O)[C@@]2(C)CC[C@@](O)(C(C)C)[C@H]12
InChI: InChI=1S/C20H30O4/c1-7-14(5)18(22)24-15-10-13(4)11-16(21)19(6)8-9-20(23,12(2)3)17(15)19/h7,11-12,15,17,23H,8-10H2,1-6H3/b14-7+/t15-,17+,19+,20+/m0/s1
Instrument: Agilent 6410 Triple Quadrupole LC/MS system
Instrument type: LC-ESI-QQQ
Ms type: MS2
Ion mode: POSITIVE
Precursor type: [M+Na]+
m/z	relative intensity
257.0	2
257.1	5
257.2	8
257.3	9
257.4	8
257.5	4
356.6	2
356.7	6
356.8	18
356.9	41
357.0	70
357.1	92
357.2	99
357.3	93
357.4	75
357.5	48
357.6	20
357.7	3
