Mass spectrum: Germine; LC-ESI-QQQ; MS2; Frag=135.0V CID@25.0; [M+H]+
Name: Germine
Class: Alkaloids
Formula: C27H43NO8
Exact mass: 509.6457
SMILES: C[C@H]1CC[C@@H]2N(CC3[C@@H]4C[C@]56O[C@]7(O)C(O)CC[C@@]5(C)C7C[C@@H](O)[C@H]6[C@]4(O)[C@@H](O)C(O)[C@@H]3[C@]2(C)O)C1
InChI: InChI=1S/C27H43NO8/c1-12-4-5-17-24(3,33)19-13(11-28(17)10-12)14-9-25-21(26(14,34)22(32)20(19)31)15(29)8-16-23(25,2)7-6-18(30)27(16,35)36-25/h12-22,29-35H,4-11H2,1-3H3/t12-,13?,14-,15+,16?,17-,18?,19+,20?,21+,22-,23-,24+,25+,26-,27-/m0/s1
Instrument: Agilent 6410 Triple Quadrupole LC/MS system
Instrument type: LC-ESI-QQQ
Ms type: MS2
Ion mode: POSITIVE
Precursor type: [M+H]+
m/z	relative intensity
491.6	1
491.7	2
491.8	5
491.9	8
492.0	12
492.1	15
492.2	16
492.3	17
492.4	16
492.5	13
492.6	9
492.7	4
492.8	0
509.3	0
509.4	2
509.5	6
509.6	11
509.7	17
509.8	27
509.9	43
510.0	62
510.1	80
510.2	94
510.3	99
510.4	97
510.5	84
510.6	61
510.7	33
510.8	10
510.9	0
