Mass spectrum: Samarcandin; LC-ESI-QQQ; MS2; Frag=135.0V CID@25.0; [M+H]+
Name: Samarcandin
Class: Benzopyranoids
Formula: C24H32O5
Exact mass: 400.5196
SMILES: CC1(C)[C@@H](O)CC[C@]2(C)[C@@H]1CC[C@](C)(O)[C@H]2COc1ccc2ccc(=O)oc2c1
InChI: InChI=1S/C24H32O5/c1-22(2)18-9-12-24(4,27)19(23(18,3)11-10-20(22)25)14-28-16-7-5-15-6-8-21(26)29-17(15)13-16/h5-8,13,18-20,25,27H,9-12,14H2,1-4H3/t18-,19+,20+,23-,24+/m1/s1
Instrument: Agilent 6410 Triple Quadrupole LC/MS system
Instrument type: LC-ESI-QQQ
Ms type: MS2
Ion mode: POSITIVE
Precursor type: [M+H]+
m/z	relative intensity
94.5	2
94.6	3
94.7	5
94.8	7
94.9	9
95.0	11
95.1	12
95.2	12
95.3	10
95.4	7
95.5	3
104.7	1
104.8	3
104.9	4
105.0	5
105.1	5
105.2	4
105.3	3
106.6	1
106.7	3
106.8	5
106.9	7
107.0	8
107.1	9
107.2	8
107.3	7
107.4	4
107.5	2
108.5	2
108.6	3
108.7	6
108.8	8
108.9	11
109.0	13
109.1	14
109.2	14
109.3	13
109.4	10
109.5	5
109.6	1
118.5	1
118.6	2
118.7	4
118.8	7
118.9	9
119.0	10
119.1	10
119.2	10
119.3	9
119.4	6
119.5	3
132.5	2
132.6	3
132.7	5
132.8	7
132.9	10
133.0	12
133.1	13
133.2	13
133.3	11
133.4	7
133.5	3
134.6	1
134.7	3
134.8	4
134.9	6
135.0	7
135.1	8
135.2	8
135.3	7
135.4	6
135.5	3
146.5	1
146.6	3
146.7	7
146.8	11
146.9	15
147.0	17
147.1	18
147.2	17
147.3	16
147.4	13
147.5	7
147.6	2
160.6	1
160.7	2
160.8	4
160.9	6
161.0	8
161.1	9
161.2	9
161.3	9
161.4	7
161.5	5
161.6	2
162.2	1
162.3	3
162.4	7
162.5	14
162.6	25
162.7	43
162.8	65
162.9	85
163.0	97
163.1	99
163.2	92
163.3	76
163.4	51
163.5	24
163.6	4
202.5	2
202.6	3
202.7	5
202.8	9
202.9	15
203.0	20
203.1	23
203.2	23
203.3	22
203.4	19
203.5	14
203.6	7
203.7	2
