Mass spectrum: Floridanine; LC-ESI-QQQ; MS2; Frag=135.0V CID@10.0 ; [M+H]+
Name: Floridanine
Class: Alkaloids
Formula: C21H31NO9
Exact mass: 441.48252
SMILES: CC(=O)O[C@@]1(C)C(=O)OC/C2=C/CN(C)CCC(OC(=O)[C@@](O)([C@H](C)O)C[C@H]1C)C2=O
InChI: InChI=1S/C21H31NO9/c1-12-10-21(28,13(2)23)19(27)30-16-7-9-22(5)8-6-15(17(16)25)11-29-18(26)20(12,4)31-14(3)24/h6,12-13,16,23,28H,7-11H2,1-5H3/b15-6-/t12-,13+,16?,20-,21+/m1/s1
Instrument: Agilent 6410 Triple Quadrupole LC/MS system
Instrument type: LC-ESI-QQQ
Ms type: MS2
Ion mode: POSITIVE
Precursor type: [M+H]+
m/z	relative intensity
441.3	0
441.4	1
441.5	4
441.6	9
441.7	19
441.8	34
441.9	53
442.0	74
442.1	91
442.2	99
442.3	97
442.4	81
442.5	55
442.6	26
442.7	5
442.8	0
