Mass spectrum: 3',4',6-Trimethoxyflavanone; LC-ESI-QQQ; MS2; Frag=135.0V CID@25.0; [M+H]+
Name: 3',4',6-Trimethoxyflavanone
Class: Flavonoids
Formula: C18H18O5
Exact mass: 314.3412
SMILES: COc1ccc2c(c1)C(=O)CC(c1ccc(OC)c(OC)c1)O2
InChI: InChI=1S/C18H18O5/c1-20-12-5-7-15-13(9-12)14(19)10-17(23-15)11-4-6-16(21-2)18(8-11)22-3/h4-9,17H,10H2,1-3H3
Instrument: Agilent 6410 Triple Quadrupole LC/MS system
Instrument type: LC-ESI-QQQ
Ms type: MS2
Ion mode: POSITIVE
Precursor type: [M+H]+
m/z	relative intensity
94.6	2
94.7	3
94.8	5
94.9	7
95.0	8
95.1	8
95.2	7
95.3	6
95.4	4
95.5	2
122.5	2
122.6	3
122.7	5
122.8	8
122.9	12
123.0	14
123.1	15
123.2	14
123.3	12
123.4	8
123.5	4
123.6	1
147.6	2
147.7	4
147.8	6
147.9	8
148.0	9
148.1	10
148.2	9
148.3	7
148.4	5
148.5	3
150.2	0
150.3	2
150.4	6
150.5	13
150.6	23
150.7	38
150.8	55
150.9	71
151.0	83
151.1	87
151.2	82
151.3	68
151.4	46
151.5	22
151.6	5
151.7	0
162.4	2
162.5	4
162.6	7
162.7	12
162.8	19
162.9	27
163.0	34
163.1	38
163.2	39
163.3	34
163.4	26
163.5	15
163.6	5
163.7	0
175.7	2
175.8	3
175.9	5
176.0	6
176.1	6
176.2	6
176.3	5
176.4	4
176.5	3
176.6	3
176.7	5
176.8	8
176.9	11
177.0	14
177.1	15
177.2	15
177.3	13
177.4	10
177.5	6
177.6	2
190.3	0
190.4	3
190.5	8
190.6	17
190.7	31
190.8	50
190.9	71
191.0	89
191.1	99
191.2	99
191.3	87
191.4	64
191.5	36
191.6	11
191.7	0
