Mass spectrum: Petilidine; LC-ESI-QQQ; MS2; Frag=135.0V CID@15.0; [M+H]+
Name: Petilidine
Class: Alkaloids
Formula: C27H45NO2
Exact mass: 415.6652
SMILES: C[C@@H]1CCC2[C@H](C)C3CCC4C(CC5C4C[C@H](O)[C@H]4C[C@@H](O)CC[C@]54C)C3CN2C1
InChI: InChI=1S/C27H45NO2/c1-15-4-7-25-16(2)18-5-6-19-20(22(18)14-28(25)13-15)11-23-21(19)12-26(30)24-10-17(29)8-9-27(23,24)3/h15-26,29-30H,4-14H2,1-3H3/t15-,16-,17+,18?,19?,20?,21?,22?,23?,24-,25?,26+,27-/m1/s1
Instrument: Agilent 6410 Triple Quadrupole LC/MS system
Instrument type: LC-ESI-QQQ
Ms type: MS2
Ion mode: POSITIVE
Precursor type: [M+H]+
m/z	relative intensity
415.4	0
415.5	2
415.6	5
415.7	12
415.8	25
415.9	43
416.0	66
416.1	87
416.2	98
416.3	99
416.4	92
416.5	78
416.6	57
416.7	31
416.8	9
416.9	0
