Mass spectrum: Ormosanine; LC-ESI-QQQ; MS2; Frag=135.0V CID@5.0 ; [M+H]+
Name: Ormosanine
Class: Alkaloids
Formula: C20H35N3
Exact mass: 317.52205000000004
SMILES: C1CCC([C@@]23CC(CC4CCCN[C@H]42)[C@@H]2CCCCN2C3)NC1
InChI: InChI=1S/C20H35N3/c1-3-9-21-18(8-1)20-13-16(12-15-6-5-10-22-19(15)20)17-7-2-4-11-23(17)14-20/h15-19,21-22H,1-14H2/t15?,16?,17-,18?,19+,20-/m0/s1
Instrument: Agilent 6410 Triple Quadrupole LC/MS system
Instrument type: LC-ESI-QQQ
Ms type: MS2
Ion mode: POSITIVE
Precursor type: [M+H]+
m/z	relative intensity
317.4	1
317.5	2
317.6	4
317.7	8
317.8	14
317.9	25
318.0	45
318.1	69
318.2	90
318.3	99
318.4	94
318.5	76
318.6	49
318.7	22
318.8	4
