Mass spectrum: 3-Hydroxypregn-16-en-20-one; LC-ESI-QQQ; MS2; Frag=135.0V CID@25.0; [M+Na]+
Name: 3-Hydroxypregn-16-en-20-one
Class: Steroids
Formula: C21H32O2
Exact mass: 316.488
SMILES: CC(=O)C1=CCC2C3CC[C@H]4C[C@H](O)CC[C@]4(C)C3CC[C@]12C
InChI: InChI=1S/C21H32O2/c1-13(22)17-6-7-18-16-5-4-14-12-15(23)8-10-20(14,2)19(16)9-11-21(17,18)3/h6,14-16,18-19,23H,4-5,7-12H2,1-3H3/t14-,15+,16?,18?,19?,20-,21+/m0/s1
Instrument: Agilent 6410 Triple Quadrupole LC/MS system
Instrument type: LC-ESI-QQQ
Ms type: MS2
Ion mode: POSITIVE
Precursor type: [M+Na]+
m/z	relative intensity
80.4	1
80.5	4
80.6	11
80.7	28
80.8	55
80.9	81
81.0	87
81.1	71
81.2	47
81.3	30
81.4	19
81.5	10
81.6	2
136.9	1
137.0	3
137.1	7
137.2	9
137.3	7
137.4	4
