Mass spectrum: 2'-Hydroxy-2,4,4'-trimethoxychalcone; LC-ESI-QQQ; MS2; Frag=135.0V CID@15.0; [M+H]+
Name: 2'-Hydroxy-2,4,4'-trimethoxychalcone
Class: Flavonoids
Formula: C18H18O5
Exact mass: 314.3412
SMILES: COc1ccc(C(=O)/C=C/c2ccc(OC)cc2OC)c(O)c1
InChI: InChI=1S/C18H18O5/c1-21-13-7-8-15(17(20)10-13)16(19)9-5-12-4-6-14(22-2)11-18(12)23-3/h4-11,20H,1-3H3/b9-5+
Instrument: Agilent 6410 Triple Quadrupole LC/MS system
Instrument type: LC-ESI-QQQ
Ms type: MS2
Ion mode: POSITIVE
Precursor type: [M+H]+
m/z	relative intensity
150.3	1
150.4	3
150.5	8
150.6	17
150.7	29
150.8	43
150.9	56
151.0	65
151.1	67
151.2	62
151.3	51
151.4	34
151.5	17
151.6	4
175.7	2
175.8	3
175.9	4
176.0	5
176.1	6
176.2	5
176.3	4
176.4	2
190.3	0
190.4	2
190.5	8
190.6	19
190.7	35
190.8	55
190.9	76
191.0	92
191.1	99
191.2	97
191.3	84
191.4	61
191.5	33
191.6	10
191.7	0
272.6	1
272.7	2
272.8	4
272.9	6
273.0	8
273.1	9
273.2	9
273.3	8
273.4	6
273.5	3
314.5	1
314.6	2
314.7	5
314.8	9
314.9	14
315.0	18
315.1	21
315.2	21
315.3	19
315.4	14
315.5	8
315.6	2
