Mass spectrum: 2,3,14,20,22,25-Hexahydroxycholest-7-en-6-one; LC-ESI-QQQ; MS2; Frag=135.0V CID@15.0 ; [M+H]+
Name: 2,3,14,20,22,25-Hexahydroxycholest-7-en-6-one
Class: Steroids
Formula: C27H44O7
Exact mass: 480.6475300000001
SMILES: CC(C)(O)CC[C@H](O)[C@](C)(O)C1CC[C@@]2(O)C3=CC(=O)C4CC(O)C(O)C[C@]4(C)C3CC[C@]12C
InChI: InChI=1S/C27H44O7/c1-23(2,32)9-8-22(31)26(5,33)21-7-11-27(34)16-12-18(28)17-13-19(29)20(30)14-24(17,3)15(16)6-10-25(21,27)4/h12,15,17,19-22,29-34H,6-11,13-14H2,1-5H3/t15?,17?,19?,20?,21?,22-,24+,25+,26+,27+/m0/s1
Instrument: Agilent 6410 Triple Quadrupole LC/MS system
Instrument type: LC-ESI-QQQ
Ms type: MS2
Ion mode: POSITIVE
Precursor type: [M+H]+
m/z	relative intensity
126.7	1
126.8	2
126.9	3
127.0	4
127.1	3
164.4	1
164.5	2
164.6	4
164.7	8
164.8	14
164.9	22
165.0	30
165.1	34
165.2	33
165.3	28
165.4	21
165.5	13
165.6	5
165.7	0
284.8	1
284.9	3
285.0	5
285.1	5
285.2	3
285.3	1
300.7	2
300.8	3
300.9	4
301.0	6
301.1	6
301.2	6
301.3	4
301.4	2
302.6	1
302.7	2
302.8	4
302.9	6
303.0	9
303.1	11
303.2	10
303.3	9
303.4	7
303.5	4
303.6	1
318.8	1
318.9	2
319.0	5
319.1	7
319.2	7
319.3	6
319.4	3
346.6	1
346.7	2
346.8	4
346.9	4
347.0	4
347.1	3
347.2	2
347.3	2
347.4	1
347.5	1
347.6	0
347.7	0
347.8	0
347.9	0
348.0	0
348.1	0
348.2	0
348.3	0
348.4	0
348.5	0
348.6	0
348.7	0
348.8	0
348.9	0
349.0	0
349.1	0
349.2	0
349.3	0
349.4	0
349.5	0
349.6	0
349.7	0
349.8	0
349.9	0
350.0	0
350.1	0
350.2	0
350.3	0
350.4	0
350.5	0
350.6	0
350.7	0
350.8	0
350.9	0
351.0	0
351.1	0
351.2	0
351.3	0
351.4	0
351.5	0
351.6	0
351.7	0
351.8	0
351.9	0
352.0	0
352.1	0
352.2	0
352.3	0
352.4	0
352.5	0
352.6	1
352.7	2
352.8	2
352.9	3
353.0	2
353.1	2
353.2	1
353.3	1
353.4	1
353.5	0
353.6	0
353.7	0
353.8	0
353.9	0
354.0	0
354.1	0
354.2	0
354.3	0
354.4	0
354.5	0
354.6	0
354.7	0
354.8	0
354.9	0
355.0	0
355.1	0
355.2	0
355.3	0
355.4	0
355.5	0
355.6	0
355.7	0
355.8	0
355.9	0
356.0	0
356.1	0
356.2	0
356.3	0
356.4	0
356.5	0
356.6	0
356.7	0
356.8	0
356.9	0
357.0	0
357.1	0
357.2	1
357.3	0
357.4	0
357.5	0
357.6	0
357.7	0
357.8	0
357.9	0
358.0	0
358.1	0
358.2	0
358.3	0
358.4	0
358.5	0
358.6	0
358.7	0
358.8	0
358.9	0
359.0	0
359.1	0
359.2	0
359.3	0
359.4	0
359.5	0
359.6	0
359.7	0
359.8	0
359.9	0
360.0	0
360.1	0
360.2	0
360.3	0
360.4	0
360.5	0
360.6	0
360.7	0
360.8	0
360.9	0
361.0	0
361.1	0
361.2	0
361.3	0
361.4	0
361.5	0
361.6	0
361.7	0
361.8	0
361.9	0
362.0	0
362.1	0
362.2	0
362.3	0
362.4	0
362.5	0
362.6	0
362.7	0
362.8	0
362.9	0
363.0	0
363.1	0
363.2	0
363.3	0
363.4	0
363.5	0
363.6	0
363.7	0
363.8	0
363.9	0
364.0	0
364.1	0
364.2	0
364.3	0
364.4	0
364.5	0
364.6	0
364.7	0
364.8	0
364.9	0
365.0	0
365.1	0
365.2	0
365.3	0
365.4	0
365.5	0
365.6	0
365.7	0
365.8	0
365.9	0
366.0	0
366.1	0
366.2	0
366.3	0
366.4	0
366.5	0
366.6	0
366.7	0
366.8	0
366.9	0
367.0	0
367.1	0
367.2	0
367.3	0
367.4	0
367.5	0
367.6	0
367.7	0
367.8	0
367.9	0
368.0	0
368.1	0
368.2	0
368.3	0
368.4	0
368.5	0
368.6	0
368.7	0
368.8	0
368.9	0
369.0	0
369.1	0
369.2	0
369.3	0
369.4	0
369.5	0
369.6	0
369.7	0
369.8	0
369.9	0
370.0	0
370.1	0
370.2	0
370.3	1
370.4	3
370.5	6
370.6	10
370.7	16
370.8	28
370.9	46
371.0	66
371.1	81
371.2	90
371.3	90
371.4	77
371.5	53
371.6	25
371.7	5
371.8	0
408.6	1
408.7	2
408.8	4
408.9	6
409.0	6
409.1	6
409.2	5
409.3	4
409.4	3
426.5	0
426.6	1
426.7	4
426.8	9
426.9	16
427.0	21
427.1	25
427.2	29
427.3	33
427.4	34
427.5	27
427.6	15
427.7	4
427.8	0
444.4	2
444.5	4
444.6	8
444.7	15
444.8	23
444.9	35
445.0	51
445.1	71
445.2	90
445.3	99
445.4	96
445.5	78
445.6	49
445.7	18
445.8	0
462.6	2
462.7	3
462.8	4
462.9	7
463.0	9
463.1	11
463.2	13
463.3	14
463.4	14
463.5	11
463.6	7
463.7	3
