Mass spectrum: Suksdorfin; LC-ESI-QQQ; MS2; Frag=135.0V CID@15.0; [M+Na]+
Name: Suksdorfin
Class: Benzopyranoids
Formula: C21H24O7
Exact mass: 388.4212
SMILES: CC(=O)OC1C(OC(=O)CC(C)C)c2c(ccc3ccc(=O)oc23)OC1(C)C
InChI: InChI=1S/C21H24O7/c1-11(2)10-16(24)27-19-17-14(28-21(4,5)20(19)25-12(3)22)8-6-13-7-9-15(23)26-18(13)17/h6-9,11,19-20H,10H2,1-5H3
Instrument: Agilent 6410 Triple Quadrupole LC/MS system
Instrument type: LC-ESI-QQQ
Ms type: MS2
Ion mode: POSITIVE
Precursor type: [M+Na]+
m/z	relative intensity
244.4	1
244.5	2
244.6	5
244.7	8
244.8	13
244.9	17
245.0	21
245.1	22
245.2	19
245.3	12
245.4	5
245.5	1
308.4	2
308.5	4
308.6	7
308.7	13
308.8	21
308.9	31
309.0	39
309.1	41
309.2	38
309.3	29
309.4	18
309.5	7
309.6	1
410.2	1
410.3	3
410.4	6
410.5	10
410.6	16
410.7	26
410.8	44
410.9	67
411.0	87
411.1	99
411.2	99
411.3	82
411.4	51
411.5	18
411.6	1
