Mass spectrum: Diversolide A.; LC-ESI-QQQ; MS2; Frag=135.0V CID@15.0 ; [M+H]+
Name: Diversolide A.
Class: Terpenoids
Formula: C25H30O7
Exact mass: 442.51365
SMILES: C/C=C(\C)C(=O)O[C@H]1CC(C)=C2C(=O)C=C(C)[C@@H]2[C@H]2OC(=O)[C@](C)(OC(=O)/C(C)=C/C)[C@H]12
InChI: InChI=1S/C25H30O7/c1-8-12(3)22(27)30-17-11-15(6)18-16(26)10-14(5)19(18)21-20(17)25(7,24(29)31-21)32-23(28)13(4)9-2/h8-10,17,19-21H,11H2,1-7H3/b12-8+,13-9+/t17-,19-,20+,21+,25+/m0/s1
Instrument: Agilent 6410 Triple Quadrupole LC/MS system
Instrument type: LC-ESI-QQQ
Ms type: MS2
Ion mode: POSITIVE
Precursor type: [M+H]+
m/z	relative intensity
54.7	3
54.8	4
54.9	6
55.0	7
55.1	7
55.2	6
55.3	4
55.4	2
82.1	0
82.2	1
82.3	4
82.4	8
82.5	13
82.6	20
82.7	31
82.8	44
82.9	57
83.0	67
83.1	71
83.2	65
83.3	51
83.4	30
83.5	11
83.6	0
196.8	3
196.9	4
197.0	5
197.1	6
197.2	6
197.3	4
197.4	3
224.7	0
224.8	2
224.9	4
225.0	5
225.1	5
225.2	4
225.3	2
242.2	1
242.3	2
242.4	6
242.5	12
242.6	19
242.7	29
242.8	46
242.9	69
243.0	89
243.1	99
243.2	96
243.3	79
243.4	52
243.5	23
243.6	3
260.7	1
260.8	3
260.9	4
261.0	5
261.1	5
261.2	4
261.3	3
