Mass spectrum: laudanosine; LC-ESI-QQQ; MS2; Frag=135.0V CID@25.0; [M+H]+
Name: Laudanoside
Name: N-Methyltetrahydropapaverine
Name: 6,7-Dimethoxy-2-methyl-1-veratryl-1,2,3,4-tetrahydroisoquinoline
Name: 1-((3,4-dimethoxyphenyl)methyl)-6,7-dimethoxy-2-methyl-1,2,3,4-tetrahydroisoquinoline
Name: laudanosine
Class: Alkaloids
Formula: C21H27NO4
Exact mass: 357.4536
SMILES: COc1ccc(CC2c3cc(OC)c(OC)cc3CCN2C)cc1OC
InChI: InChI=1S/C21H27NO4/c1-22-9-8-15-12-20(25-4)21(26-5)13-16(15)17(22)10-14-6-7-18(23-2)19(11-14)24-3/h6-7,11-13,17H,8-10H2,1-5H3
Instrument: Agilent 6410 Triple Quadrupole LC/MS system
Instrument type: LC-ESI-QQQ
Ms type: MS2
Ion mode: POSITIVE
Precursor type: [M+H]+
m/z	relative intensity
150.4	1
150.5	3
150.6	6
150.7	10
150.8	15
150.9	22
151.0	28
151.1	30
151.2	29
151.3	25
151.4	19
151.5	11
151.6	4
164.7	2
164.8	3
164.9	5
165.0	7
165.1	8
165.2	8
165.3	7
165.4	6
165.5	3
173.6	2
173.7	3
173.8	5
173.9	7
174.0	8
174.1	9
174.2	8
174.3	7
174.4	6
174.5	3
188.4	1
188.5	2
188.6	5
188.7	9
188.8	14
188.9	21
189.0	27
189.1	30
189.2	29
189.3	25
189.4	19
189.5	11
189.6	4
205.3	0
205.4	2
205.5	6
205.6	13
205.7	25
205.8	42
205.9	64
206.0	84
206.1	98
206.2	99
206.3	89
206.4	68
206.5	41
206.6	16
206.7	1
