Mass spectrum: Isoimperatorin; LC-ESI-QQQ; MS2; Frag=135.0V CID@25.0; [M+H]+
Name: Isoimperatorin
Class: Benzopyranoids
Formula: C16H14O4
Exact mass: 270.2876
SMILES: CC(C)=CCOc1c2ccoc2cc2oc(=O)ccc12
InChI: InChI=1S/C16H14O4/c1-10(2)5-7-19-16-11-3-4-15(17)20-14(11)9-13-12(16)6-8-18-13/h3-6,8-9H,7H2,1-2H3
Instrument: Agilent 6410 Triple Quadrupole LC/MS system
Instrument type: LC-ESI-QQQ
Ms type: MS2
Ion mode: POSITIVE
Precursor type: [M+H]+
m/z	relative intensity
68.5	1
68.6	3
68.7	5
68.8	9
68.9	12
69.0	15
69.1	15
69.2	14
69.3	12
69.4	8
69.5	4
130.4	1
130.5	3
130.6	5
130.7	9
130.8	12
130.9	16
131.0	18
131.1	18
131.2	17
131.3	15
131.4	11
131.5	6
131.6	1
146.2	0
146.3	1
146.4	5
146.5	13
146.6	25
146.7	42
146.8	59
146.9	75
147.0	86
147.1	87
147.2	77
147.3	57
147.4	32
147.5	11
147.6	1
156.6	2
156.7	3
156.8	6
156.9	8
157.0	9
157.1	9
157.2	8
157.3	6
157.4	4
157.5	1
158.5	1
158.6	2
158.7	4
158.8	6
158.9	7
159.0	8
159.1	8
159.2	7
159.3	5
159.4	3
159.5	1
174.4	2
174.5	4
174.6	6
174.7	11
174.8	17
174.9	24
175.0	28
175.1	29
175.2	26
175.3	21
175.4	14
175.5	7
175.6	1
184.6	2
184.7	3
184.8	4
184.9	4
185.0	5
185.1	5
185.2	5
185.3	4
185.4	2
202.2	1
202.3	2
202.4	7
202.5	14
202.6	24
202.7	39
202.8	58
202.9	78
203.0	94
203.1	99
203.2	93
203.3	75
203.4	48
203.5	21
203.6	2
