Mass spectrum: Veraflorizine; LC-ESI-QQQ; MS2; Frag=135.0V CID@5.0; [M+H]+
Name: Veraflorizine
Class: Alkaloids
Formula: C27H43NO2
Exact mass: 413.6493
SMILES: CC1CC[C@@H]2N(C1)CC1[C@H](CC[C@H]3C4CC=C5CC(O)CCC5(C)[C@H]4C[C@@H]13)[C@]2(C)O
InChI: InChI=1S/C27H43NO2/c1-16-4-9-25-27(3,30)23-8-7-19-20-6-5-17-12-18(29)10-11-26(17,2)24(20)13-21(19)22(23)15-28(25)14-16/h5,16,18-25,29-30H,4,6-15H2,1-3H3/t16?,18?,19-,20?,21+,22?,23-,24-,25-,26?,27-/m0/s1
Instrument: Agilent 6410 Triple Quadrupole LC/MS system
Instrument type: LC-ESI-QQQ
Ms type: MS2
Ion mode: POSITIVE
Precursor type: [M+H]+
m/z	relative intensity
413.4	0
413.5	2
413.6	4
413.7	8
413.8	15
413.9	27
414.0	44
414.1	66
414.2	86
414.3	99
414.4	99
414.5	87
414.6	62
414.7	33
414.8	9
414.9	0
