Mass spectrum: Diphyllin; LC-ESI-QQQ; MS2; Frag=135.0V CID@10.0; [M+H]+
Name: Diphyllin
Class: Lignans
Formula: C21H16O7
Exact mass: 380.3575
SMILES: COc1cc2c(O)c3c(c(-c4ccc5c(c4)OCO5)c2cc1OC)C(=O)OC3
InChI: InChI=1S/C21H16O7/c1-24-15-6-11-12(7-16(15)25-2)20(22)13-8-26-21(23)19(13)18(11)10-3-4-14-17(5-10)28-9-27-14/h3-7,22H,8-9H2,1-2H3
Instrument: Agilent 6410 Triple Quadrupole LC/MS system
Instrument type: LC-ESI-QQQ
Ms type: MS2
Ion mode: POSITIVE
Precursor type: [M+H]+
m/z	relative intensity
380.2	0
380.3	2
380.4	4
380.5	9
380.6	16
380.7	30
380.8	51
380.9	74
381.0	91
381.1	99
381.2	99
381.3	90
381.4	70
381.5	40
381.6	13
381.7	0
