Mass spectrum: Cyclosieversigenin  Derivative: 3,6-Di-Ac; LC-ESI-QQQ; MS2;  Frag=135.0V CID@10.0 ; [M+Na]+
Name: Cyclosieversigenin  Derivative: 3,6-Di-Ac
Class: Terpenoids
Formula: C34H54O7
Exact mass: 574.80528
SMILES: CC(=O)OC1CC[C@]23C[C@]24CC[C@]2(C)C([C@]5(C)CC[C@H](C(C)(C)O)O5)C(O)C[C@@]2(C)C4C[C@H](OC(C)=O)C3C1(C)C
InChI: InChI=1S/C34H54O7/c1-19(35)39-22-16-23-31(8)17-21(37)26(32(9)12-10-25(41-32)29(5,6)38)30(31,7)14-15-33(23)18-34(33)13-11-24(40-20(2)36)28(3,4)27(22)34/h21-27,37-38H,10-18H2,1-9H3/t21?,22-,23?,24?,25+,26?,27?,30+,31-,32-,33-,34+/m0/s1
Instrument: Agilent 6410 Triple Quadrupole LC/MS system
Instrument type: LC-ESI-QQQ
Ms type: MS2
Ion mode: POSITIVE
Precursor type: [M+Na]+
m/z	relative intensity
596.3	1
596.4	3
596.5	8
596.6	16
596.7	25
596.8	34
596.9	46
597.0	62
597.1	80
597.2	93
597.3	99
597.4	99
597.5	87
597.6	63
597.7	32
597.8	9
597.9	0
