Mass spectrum: Clarithromycin; LC-ESI-QQQ; MS2; Frag=135.0V CID@25.0; [M+HCOO]-
Name: Clarithromycin
Class: Polyketides
Formula: C38H69NO13
Exact mass: 747.9725
SMILES: CC[C@H]1OC(=O)[C@H](C)[C@@H](O[C@H]2C[C@@](C)(OC)[C@@H](O)[C@H](C)O2)[C@H](C)[C@@H](O[C@@H]2O[C@H](C)C[C@H](N(C)C)[C@H]2O)[C@](C)(OC)C[C@@H](C)C(=O)[C@H](C)[C@@H](O)[C@]1(C)O
InChI: InChI=1S/C38H69NO13/c1-15-26-38(10,45)31(42)21(4)28(40)19(2)17-37(9,47-14)33(52-35-29(41)25(39(11)12)16-20(3)48-35)22(5)30(23(6)34(44)50-26)51-27-18-36(8,46-13)32(43)24(7)49-27/h19-27,29-33,35,41-43,45H,15-18H2,1-14H3/t19-,20-,21+,22+,23-,24+,25+,26-,27+,29-,30+,31-,32+,33-,35+,36-,37-,38-/m1/s1
Instrument: Agilent 6410 Triple Quadrupole LC/MS system
Instrument type: LC-ESI-QQQ
Ms type: MS2
Ion mode: NEGATIVE
Precursor type: [M+HCOO]-
m/z	relative intensity
173.5	4
173.6	6
173.7	8
173.8	12
173.9	15
174.0	16
174.1	13
174.2	8
280.2	4
280.3	6
280.4	11
280.5	20
280.6	33
280.7	46
280.8	52
280.9	46
281.0	30
281.1	15
281.2	5
336.2	3
336.3	4
336.4	8
336.5	23
336.6	52
336.7	84
336.8	95
336.9	74
337.0	36
337.1	7
455.1	4
455.2	5
455.3	8
455.4	14
455.5	24
455.6	37
455.7	47
455.8	46
455.9	33
456.0	15
456.1	3
569.0	3
569.1	5
569.2	8
569.3	11
569.4	13
569.5	17
569.6	24
569.7	30
569.8	33
569.9	34
570.0	36
570.1	34
570.2	24
570.3	11
570.4	3
745.1	3
745.2	4
745.3	7
745.4	12
745.5	20
745.6	34
745.7	50
745.8	61
745.9	59
746.0	48
746.1	36
746.2	31
746.3	29
746.4	24
746.5	13
746.6	5
