Mass spectrum: Hyrcanogenin; LC-ESI-QQQ; MS2; Frag=135.0V CID@15.0 ; [M+H]+
Name: Hyrcanogenin
Class: Steroids
Formula: C23H30O5
Exact mass: 386.49255000000005
SMILES: C[C@]12CCC3C(CCC4=CC(O)CC[C@@]43C=O)C1(O)CCC2C1=CC(=O)OC1
InChI: InChI=1S/C23H30O5/c1-21-7-5-18-19(3-2-15-11-16(25)4-8-22(15,18)13-24)23(21,27)9-6-17(21)14-10-20(26)28-12-14/h10-11,13,16-19,25,27H,2-9,12H2,1H3/t16?,17?,18?,19?,21-,22-,23?/m1/s1
Instrument: Agilent 6410 Triple Quadrupole LC/MS system
Instrument type: LC-ESI-QQQ
Ms type: MS2
Ion mode: POSITIVE
Precursor type: [M+H]+
m/z	relative intensity
90.7	2
90.8	3
90.9	5
91.0	5
91.1	5
91.2	4
91.3	2
94.7	1
94.8	2
94.9	4
95.0	6
95.1	8
95.2	6
95.3	4
95.4	1
108.5	1
108.6	2
108.7	4
108.8	5
108.9	6
109.0	7
109.1	7
109.2	7
109.3	6
109.4	4
109.5	1
116.4	1
116.5	2
116.6	4
116.7	6
116.8	8
116.9	9
117.0	10
117.1	11
117.2	13
117.3	13
117.4	10
117.5	5
117.6	1
118.4	1
118.5	2
118.6	5
118.7	9
118.8	16
118.9	24
119.0	31
119.1	34
119.2	32
119.3	26
119.4	18
119.5	9
119.6	2
120.9	3
121.0	4
121.1	5
121.2	6
121.3	5
121.4	3
121.5	1
124.4	1
124.5	3
124.6	6
124.7	11
124.8	17
124.9	23
125.0	25
125.1	25
125.2	24
125.3	21
125.4	15
125.5	8
125.6	1
130.4	1
130.5	2
130.6	3
130.7	5
130.8	7
130.9	10
131.0	12
131.1	12
131.2	11
131.3	8
131.4	4
131.5	1
132.5	1
132.6	2
132.7	4
132.8	7
132.9	10
133.0	11
133.1	12
133.2	13
133.3	13
133.4	11
133.5	6
133.6	1
134.6	2
134.7	3
134.8	4
134.9	5
135.0	7
135.1	9
135.2	10
135.3	10
135.4	6
135.5	2
140.5	1
140.6	3
140.7	4
140.8	5
140.9	7
141.0	9
141.1	11
141.2	11
141.3	8
141.4	5
141.5	2
142.4	1
142.5	2
142.6	4
142.7	6
142.8	9
142.9	13
143.0	17
143.1	20
143.2	20
143.3	18
143.4	13
143.5	7
143.6	1
144.2	0
144.3	2
144.4	4
144.5	5
144.6	6
144.7	10
144.8	16
144.9	25
145.0	33
145.1	36
145.2	34
145.3	27
145.4	18
145.5	10
145.6	3
146.5	1
146.6	2
146.7	4
146.8	7
146.9	9
147.0	11
147.1	11
147.2	10
147.3	8
147.4	5
147.5	2
152.2	1
152.3	2
152.4	6
152.5	12
152.6	18
152.7	25
152.8	37
152.9	54
153.0	69
153.1	76
153.2	75
153.3	64
153.4	44
153.5	21
153.6	3
154.3	0
154.4	2
154.5	5
154.6	9
154.7	14
154.8	22
154.9	32
155.0	40
155.1	43
155.2	41
155.3	37
155.4	29
155.5	18
155.6	6
155.7	0
156.4	0
156.5	2
156.6	5
156.7	6
156.8	6
156.9	8
157.0	10
157.1	11
157.2	10
157.3	8
157.4	5
157.5	3
158.4	1
158.5	3
158.6	5
158.7	7
158.8	10
158.9	15
159.0	21
159.1	24
159.2	23
159.3	19
159.4	13
159.5	7
159.6	2
160.6	1
160.7	2
160.8	4
160.9	7
161.0	11
161.1	14
161.2	13
161.3	10
161.4	5
161.5	1
166.5	0
166.6	2
166.7	4
166.8	5
166.9	6
167.0	8
167.1	9
167.2	10
167.3	8
167.4	5
167.5	2
168.6	2
168.7	3
168.8	6
168.9	12
169.0	16
169.1	18
169.2	16
169.3	12
169.4	8
169.5	4
169.6	1
170.4	0
170.5	2
170.6	4
170.7	9
170.8	15
170.9	21
171.0	26
171.1	29
171.2	29
171.3	27
171.4	22
171.5	13
171.6	5
171.7	0
172.4	0
172.5	1
172.6	4
172.7	8
172.8	11
172.9	13
173.0	13
173.1	13
173.2	13
173.3	13
173.4	12
173.5	8
173.6	3
174.5	1
174.6	2
174.7	4
174.8	6
174.9	9
175.0	12
175.1	13
175.2	13
175.3	13
175.4	12
175.5	9
175.6	3
176.7	2
176.8	3
176.9	4
177.0	5
177.1	6
177.2	6
177.3	5
177.4	3
178.7	1
178.8	3
178.9	5
179.0	6
179.1	5
179.2	3
180.6	0
180.7	2
180.8	5
180.9	10
181.0	13
181.1	13
181.2	10
181.3	7
181.4	4
181.5	2
182.6	2
182.7	3
182.8	6
182.9	9
183.0	12
183.1	14
183.2	14
183.3	11
183.4	6
183.5	2
184.4	1
184.5	2
184.6	4
184.7	7
184.8	9
184.9	13
185.0	17
185.1	22
185.2	23
185.3	21
185.4	15
185.5	7
185.6	1
186.4	0
186.5	2
186.6	6
186.7	13
186.8	23
186.9	34
187.0	42
187.1	45
187.2	43
187.3	38
187.4	30
187.5	19
187.6	7
187.7	1
188.6	1
188.7	3
188.8	4
188.9	6
189.0	6
189.1	7
189.2	6
189.3	5
189.4	3
190.8	1
190.9	3
191.0	4
191.1	5
191.2	4
191.3	2
192.7	2
192.8	3
192.9	4
193.0	5
193.1	6
193.2	6
193.3	4
193.4	2
194.4	0
194.5	2
194.6	4
194.7	5
194.8	5
194.9	5
195.0	6
195.1	9
195.2	11
195.3	11
195.4	7
195.5	3
196.4	1
196.5	2
196.6	4
196.7	7
196.8	11
196.9	14
197.0	17
197.1	18
197.2	18
197.3	17
197.4	14
197.5	9
197.6	4
197.7	1
198.6	1
198.7	3
198.8	4
198.9	5
199.0	5
199.1	7
199.2	10
199.3	11
199.4	8
199.5	3
200.7	3
200.8	5
200.9	7
201.0	9
201.1	12
201.2	13
201.3	11
201.4	8
201.5	5
201.6	1
203.0	4
203.1	5
203.2	6
203.3	6
203.4	5
203.5	3
208.6	2
208.7	3
208.8	5
208.9	7
209.0	8
209.1	9
209.2	9
209.3	8
209.4	7
209.5	5
209.6	2
210.6	2
210.7	3
210.8	5
210.9	9
211.0	12
211.1	14
211.2	14
211.3	13
211.4	10
211.5	6
211.6	2
212.6	0
212.7	2
212.8	5
212.9	7
213.0	8
213.1	5
213.2	2
214.7	2
214.8	4
214.9	7
215.0	10
215.1	11
215.2	10
215.3	8
215.4	5
215.5	3
215.6	1
216.7	1
216.8	3
216.9	5
217.0	7
217.1	8
217.2	9
217.3	7
217.4	5
217.5	2
218.6	1
218.7	2
218.8	3
218.9	5
219.0	6
219.1	5
219.2	4
219.3	1
220.8	0
220.9	2
221.0	5
221.1	7
221.2	8
221.3	6
221.4	4
221.5	1
222.9	3
223.0	4
223.1	6
223.2	6
223.3	6
223.4	3
223.5	1
226.7	0
226.8	2
226.9	4
227.0	4
227.1	3
227.2	3
227.3	3
227.4	2
227.5	1
227.6	0
227.7	0
227.8	0
227.9	0
228.0	0
228.1	0
228.2	0
228.3	0
228.4	0
228.5	1
228.6	1
228.7	2
228.8	2
228.9	4
229.0	6
229.1	8
229.2	8
229.3	7
229.4	4
229.5	1
232.7	1
232.8	3
232.9	6
233.0	10
233.1	11
233.2	9
233.3	5
233.4	2
236.7	0
236.8	2
236.9	4
237.0	6
237.1	6
237.2	6
237.3	3
237.4	1
260.6	1
260.7	3
260.8	4
260.9	5
261.0	6
261.1	7
261.2	9
261.3	9
261.4	6
261.5	3
262.5	1
262.6	2
262.7	5
262.8	7
262.9	10
263.0	13
263.1	16
263.2	18
263.3	18
263.4	16
263.5	11
263.6	5
263.7	0
272.6	1
272.7	2
272.8	4
272.9	5
273.0	6
273.1	6
273.2	5
273.3	4
273.4	3
273.5	2
276.6	2
276.7	3
276.8	5
276.9	9
277.0	15
277.1	20
277.2	23
277.3	22
277.4	18
277.5	11
277.6	3
280.8	0
280.9	2
281.0	3
281.1	5
281.2	5
281.3	3
286.6	1
286.7	3
286.8	4
286.9	6
287.0	8
287.1	9
287.2	10
287.3	9
287.4	6
287.5	3
294.7	0
294.8	2
294.9	3
295.0	5
295.1	7
295.2	8
295.3	8
295.4	6
295.5	5
295.6	2
304.5	1
304.6	2
304.7	5
304.8	9
304.9	14
305.0	17
305.1	21
305.2	24
305.3	26
305.4	23
305.5	16
305.6	7
305.7	1
322.4	1
322.5	5
322.6	11
322.7	19
322.8	31
322.9	49
323.0	71
323.1	87
323.2	97
323.3	99
323.4	92
323.5	71
323.6	39
323.7	11
323.8	0
332.6	2
332.7	4
332.8	10
332.9	19
333.0	28
333.1	32
333.2	31
333.3	28
333.4	23
333.5	15
333.6	6
333.7	0
340.3	0
340.4	0
340.5	5
340.6	11
340.7	17
340.8	24
340.9	35
341.0	54
341.1	77
341.2	92
341.3	92
341.4	78
341.5	53
341.6	25
341.7	5
341.8	0
350.3	0
350.4	2
350.5	7
350.6	14
350.7	22
350.8	32
350.9	45
351.0	61
351.1	76
351.2	88
351.3	91
351.4	80
351.5	56
351.6	25
351.7	3
368.7	3
368.8	4
368.9	7
369.0	12
369.1	19
369.2	25
369.3	26
369.4	20
369.5	10
369.6	2
