Mass spectrum: Ecdysterone 22-O-benzoate; LC-ESI-QQQ; MS2; Frag=135.0V CID@5.0; [M+H]+
Name: Ecdysterone 22-O-benzoate
Class: Steroids
Formula: C34H48O8
Exact mass: 584.7569
SMILES: CC(C)(O)CC[C@H](OC(=O)c1ccccc1)[C@](C)(O)C1CC[C@@]2(O)C3=CC(=O)C4CC(O)C(O)C[C@]4(C)C3CC[C@]12C
InChI: InChI=1S/C34H48O8/c1-30(2,39)14-13-28(42-29(38)20-9-7-6-8-10-20)33(5,40)27-12-16-34(41)22-17-24(35)23-18-25(36)26(37)19-31(23,3)21(22)11-15-32(27,34)4/h6-10,17,21,23,25-28,36-37,39-41H,11-16,18-19H2,1-5H3/t21?,23?,25?,26?,27?,28-,31+,32+,33+,34+/m0/s1
Instrument: Agilent 6410 Triple Quadrupole LC/MS system
Instrument type: LC-ESI-QQQ
Ms type: MS2
Ion mode: POSITIVE
Precursor type: [M+H]+
m/z	relative intensity
302.6	2
302.7	3
302.8	4
302.9	5
303.0	7
303.1	8
303.2	9
303.3	8
303.4	5
303.5	2
408.6	1
408.7	3
408.8	5
408.9	7
409.0	9
409.1	11
409.2	12
409.3	12
409.4	9
409.5	5
409.6	1
426.7	2
426.8	4
426.9	7
427.0	12
427.1	17
427.2	20
427.3	19
427.4	16
427.5	11
427.6	6
427.7	1
444.5	1
444.6	2
444.7	4
444.8	6
444.9	11
445.0	18
445.1	26
445.2	31
445.3	32
445.4	29
445.5	23
445.6	14
445.7	5
445.8	0
530.8	2
530.9	4
531.0	7
531.1	10
531.2	11
531.3	10
531.4	7
531.5	4
531.6	1
548.6	2
548.7	3
548.8	5
548.9	8
549.0	12
549.1	17
549.2	21
549.3	24
549.4	23
549.5	17
549.6	8
549.7	1
566.3	0
566.4	2
566.5	4
566.6	8
566.7	13
566.8	22
566.9	38
567.0	60
567.1	81
567.2	94
567.3	99
567.4	99
567.5	89
567.6	64
567.7	31
567.8	6
567.9	0
584.3	1
584.4	2
584.5	5
584.6	8
584.7	12
584.8	21
584.9	35
585.0	54
585.1	74
585.2	89
585.3	97
585.4	96
585.5	82
585.6	58
585.7	29
585.8	7
585.9	0
