Mass spectrum: Monticoline; LC-ESI-QQQ; MS2; Frag=135.0V CID@25.0; [M+H]+
Name: Monticoline
Class: Alkaloids
Formula: C22H33NO6
Exact mass: 407.5114
SMILES: CCN1C[C@]23O[C@H]2C[C@H](O)[C@@]24C5C[C@@H]6[C@@H](OC)C[C@@](O)(C5[C@H]6OC)[C@@](O)(CC32)C14
InChI: InChI=1S/C22H33NO6/c1-4-23-9-19-13-8-21(26)18(23)22(13,14(24)6-15(19)29-19)11-5-10-12(27-2)7-20(21,25)16(11)17(10)28-3/h10-18,24-26H,4-9H2,1-3H3/t10-,11?,12+,13?,14+,15+,16?,17+,18?,19-,20-,21-,22-/m1/s1
Instrument: Agilent 6410 Triple Quadrupole LC/MS system
Instrument type: LC-ESI-QQQ
Ms type: MS2
Ion mode: POSITIVE
Precursor type: [M+H]+
m/z	relative intensity
407.3	0
407.4	1
407.5	4
407.6	8
407.7	15
407.8	26
407.9	42
408.0	61
408.1	81
408.2	95
408.3	99
408.4	91
408.5	69
408.6	41
408.7	15
408.8	1
