Mass spectrum: Nivalidine; LC-ESI-QQQ; MS2; Frag=135.0V CID@25.0; [M+H]+
Name: Nivalidine
Class: Alkaloids
Formula: C17H19NO2
Exact mass: 269.3465
SMILES: COc1ccc2c(c1O)-c1ccccc1CCN(C)C2
InChI: InChI=1S/C17H19NO2/c1-18-10-9-12-5-3-4-6-14(12)16-13(11-18)7-8-15(20-2)17(16)19/h3-8,19H,9-11H2,1-2H3
Instrument: Agilent 6410 Triple Quadrupole LC/MS system
Instrument type: LC-ESI-QQQ
Ms type: MS2
Ion mode: POSITIVE
Precursor type: [M+H]+
m/z	relative intensity
177.6	2
177.7	4
177.8	7
177.9	11
178.0	13
178.1	14
178.2	14
178.3	14
178.4	14
178.5	16
178.6	20
178.7	30
178.8	48
178.9	70
179.0	89
179.1	99
179.2	99
179.3	89
179.4	69
179.5	41
179.6	15
179.7	0
180.6	2
180.7	3
180.8	6
180.9	9
181.0	13
181.1	14
181.2	14
181.3	13
181.4	10
181.5	6
181.6	2
195.6	4
195.7	6
195.8	11
195.9	17
196.0	21
196.1	22
196.2	22
196.3	20
196.4	15
196.5	9
196.6	3
206.5	2
206.6	3
206.7	5
206.8	9
206.9	13
207.0	17
207.1	18
207.2	17
207.3	15
207.4	11
207.5	6
207.6	2
208.7	2
208.8	5
208.9	7
209.0	10
209.1	11
209.2	11
209.3	9
209.4	7
209.5	4
209.6	1
210.6	1
210.7	3
210.8	5
210.9	8
211.0	11
211.1	13
211.2	13
211.3	12
211.4	10
211.5	6
211.6	3
223.6	2
223.7	3
223.8	5
223.9	8
224.0	10
224.1	11
224.2	11
224.3	9
224.4	6
224.5	3
