Mass spectrum: Tazettine; LC-ESI-QQQ; MS2; Frag=135.0V CID@5.0; [M+H]+
Name: Tazettine
Class: Alkaloids
Formula: C18H21NO5
Exact mass: 331.3718
SMILES: CO[C@@H]1C=C[C@@]23c4cc5c(cc4CO[C@]2(O)CN(C)[C@@H]3C1)OCO5
InChI: InChI=1S/C18H21NO5/c1-19-9-18(20)17(4-3-12(21-2)6-16(17)19)13-7-15-14(22-10-23-15)5-11(13)8-24-18/h3-5,7,12,16,20H,6,8-10H2,1-2H3/t12-,16-,17+,18-/m1/s1
Instrument: Agilent 6410 Triple Quadrupole LC/MS system
Instrument type: LC-ESI-QQQ
Ms type: MS2
Ion mode: POSITIVE
Precursor type: [M+H]+
m/z	relative intensity
313.3	0
313.4	2
313.5	5
313.6	10
313.7	19
313.8	34
313.9	54
314.0	75
314.1	90
314.2	96
314.3	92
314.4	75
314.5	49
314.6	21
314.7	2
331.3	0
331.4	2
331.5	5
331.6	9
331.7	18
331.8	32
331.9	53
332.0	76
332.1	92
332.2	99
332.3	95
332.4	78
332.5	51
332.6	23
332.7	4
