Mass spectrum: Ribalinine; LC-ESI-QQQ; MS2; Frag=135.0V CID@15.0; [M+H]+
Name: Ribalinine
Class: Alkaloids
Formula: C15H17NO3
Exact mass: 259.3076
SMILES: Cn1c2c(c(=O)c3ccccc31)C[C@@H](O)C(C)(C)O2
InChI: InChI=1S/C15H17NO3/c1-15(2)12(17)8-10-13(18)9-6-4-5-7-11(9)16(3)14(10)19-15/h4-7,12,17H,8H2,1-3H3/t12-/m1/s1
Instrument: Agilent 6410 Triple Quadrupole LC/MS system
Instrument type: LC-ESI-QQQ
Ms type: MS2
Ion mode: POSITIVE
Precursor type: [M+H]+
m/z	relative intensity
175.6	1
175.7	2
175.8	4
175.9	7
176.0	8
176.1	9
176.2	9
176.3	8
176.4	6
176.5	4
187.3	1
187.4	3
187.5	6
187.6	11
187.7	21
187.8	35
187.9	52
188.0	67
188.1	75
188.2	75
188.3	66
188.4	49
188.5	27
188.6	8
188.7	0
199.7	2
199.8	4
199.9	6
200.0	8
200.1	10
200.2	10
200.3	9
200.4	7
200.5	3
241.3	0
241.4	2
241.5	5
241.6	11
241.7	21
241.8	39
241.9	63
242.0	85
242.1	98
242.2	99
242.3	90
242.4	70
242.5	43
242.6	17
242.7	1
259.4	1
259.5	2
259.6	5
259.7	9
259.8	17
259.9	27
260.0	38
260.1	45
260.2	48
260.3	45
260.4	35
260.5	22
260.6	8
260.7	0
