Mass spectrum: 3,6-Cevanediol; LC-ESI-QQQ; MS2; Frag=135.0V CID@5.0; [M+H]+
Name: 3,6-Cevanediol
Class: Alkaloids
Formula: C27H45NO2
Exact mass: 415.6652
SMILES: C[C@@H]1CC[C@H]2[C@H](C)[C@H]3CC[C@H]4C5C[C@H](O)[C@H]6C[C@H](O)CC[C@]6(C)[C@H]5C[C@H]4C3CN2C1
InChI: InChI=1S/C27H45NO2/c1-15-4-7-25-16(2)18-5-6-19-20(22(18)14-28(25)13-15)11-23-21(19)12-26(30)24-10-17(29)8-9-27(23,24)3/h15-26,29-30H,4-14H2,1-3H3/t15-,16-,17-,18-,19-,20-,21?,22?,23+,24-,25+,26+,27-/m1/s1
Instrument: Agilent 6410 Triple Quadrupole LC/MS system
Instrument type: LC-ESI-QQQ
Ms type: MS2
Ion mode: POSITIVE
Precursor type: [M+H]+
m/z	relative intensity
415.5	1
415.6	3
415.7	6
415.8	13
415.9	23
416.0	40
416.1	61
416.2	81
416.3	95
416.4	99
416.5	93
416.6	74
416.7	46
416.8	19
416.9	2
