Mass spectrum: Tschimganin; LC-ESI-QQQ; MS2; Frag=135.0V CID@25.0; [M+Na]+
Name: Tschimganin
Class: Terpenoids
Formula: C18H24O4
Exact mass: 304.3896
SMILES: COc1cc(C(=O)OC2CC3CCC2(C)C3(C)C)ccc1O
InChI: InChI=1S/C18H24O4/c1-17(2)12-7-8-18(17,3)15(10-12)22-16(20)11-5-6-13(19)14(9-11)21-4/h5-6,9,12,15,19H,7-8,10H2,1-4H3
Instrument: Agilent 6410 Triple Quadrupole LC/MS system
Instrument type: LC-ESI-QQQ
Ms type: MS2
Ion mode: POSITIVE
Precursor type: [M+Na]+
m/z	relative intensity
52.3	3
52.4	4
52.5	5
52.6	5
52.7	4
52.8	5
52.9	6
53.0	6
57.6	4
57.7	5
57.8	6
57.9	7
58.0	7
58.1	7
58.2	5
58.5	3
58.6	4
58.7	5
58.8	5
58.9	5
59.0	4
59.1	3
59.2	4
59.3	5
59.4	4
59.5	3
59.6	2
59.7	3
59.8	5
59.9	6
60.0	6
60.1	5
60.2	5
60.3	4
60.4	4
60.5	4
60.6	5
60.7	5
60.8	5
60.9	5
61.0	6
61.1	6
61.2	5
66.2	3
66.3	4
66.4	4
66.5	5
66.6	5
66.7	5
66.8	4
66.9	4
67.0	5
67.1	6
67.2	5
67.3	5
67.4	5
67.5	6
67.6	4
67.9	3
68.0	4
68.1	5
68.2	6
68.3	7
68.4	6
69.5	3
69.6	5
69.7	7
69.8	6
69.9	6
70.0	6
70.1	6
70.2	6
70.3	5
70.4	6
70.5	6
70.6	5
70.7	4
70.8	4
70.9	5
71.0	5
71.1	4
71.2	4
71.3	5
71.4	6
71.5	6
71.6	6
71.7	7
71.8	6
72.1	3
72.2	5
72.3	6
72.4	5
72.5	5
72.6	5
72.7	5
72.8	4
72.9	4
73.0	4
73.1	5
73.2	5
73.3	6
73.4	7
73.5	6
79.9	2
80.0	3
80.1	4
80.2	6
80.3	7
80.4	5
80.5	6
80.6	11
80.7	18
80.8	23
80.9	29
81.0	32
81.1	31
81.2	21
81.3	10
81.4	4
82.3	3
82.4	5
82.5	6
82.6	5
82.7	4
82.8	4
84.8	4
84.9	5
85.0	5
85.1	5
85.2	5
85.3	7
85.4	8
85.5	6
88.5	4
88.6	5
88.7	6
88.8	8
88.9	7
89.0	5
89.8	2
89.9	4
90.0	7
90.1	9
90.2	7
90.5	4
90.6	5
90.7	5
90.8	6
90.9	7
91.0	6
91.4	4
91.5	4
91.6	5
91.7	5
91.8	6
94.3	5
94.4	8
94.5	10
94.6	9
94.7	6
94.8	4
101.1	4
101.2	5
101.3	6
101.4	5
101.5	5
101.6	5
101.7	5
101.8	5
101.9	5
102.0	6
102.1	5
102.2	4
102.3	4
102.4	5
102.5	5
102.6	5
102.7	4
102.8	4
102.9	4
103.0	4
103.1	4
103.2	4
103.3	4
103.4	5
103.5	5
103.6	6
103.7	6
104.0	4
104.1	6
104.2	7
104.3	7
104.4	6
104.5	6
104.6	5
109.1	2
109.2	4
109.3	6
109.4	6
109.5	5
117.1	4
117.2	4
117.3	6
117.4	7
117.5	6
122.5	4
122.6	5
122.7	5
122.8	6
122.9	6
123.0	5
123.1	4
123.2	4
123.3	6
123.4	6
123.5	5
128.0	3
128.1	5
128.2	5
128.3	5
128.4	5
128.5	5
128.6	5
128.7	4
128.8	5
128.9	5
129.0	5
129.1	3
129.2	3
129.3	4
129.4	4
129.5	3
129.6	3
129.7	4
129.8	5
129.9	4
130.0	3
130.1	4
130.2	5
130.3	6
130.4	6
132.2	2
132.3	5
132.4	7
132.5	7
132.6	7
132.7	6
132.8	5
157.5	4
157.6	5
157.7	6
157.8	7
157.9	7
159.6	3
159.7	3
159.8	4
159.9	5
160.0	5
160.1	5
160.2	4
160.6	3
160.7	4
160.8	6
160.9	8
161.0	7
161.1	6
161.2	4
161.3	4
164.7	3
164.8	4
164.9	5
165.0	5
165.1	4
165.2	4
165.3	3
165.4	3
165.5	4
165.6	5
165.7	5
165.8	5
165.9	5
166.0	5
166.1	5
166.2	4
166.3	4
166.4	4
166.5	5
166.6	5
168.9	4
169.0	6
169.1	6
169.2	6
169.3	5
169.4	5
169.5	5
169.6	4
169.7	4
169.8	5
169.9	6
170.0	5
170.1	4
170.2	4
170.3	4
170.4	5
170.5	4
170.6	5
170.7	6
170.8	7
170.9	5
175.3	2
175.4	4
175.5	4
175.6	3
175.7	3
175.8	5
175.9	7
176.0	7
176.1	6
176.2	5
176.3	6
176.4	6
176.5	6
176.6	5
180.0	2
180.1	4
180.2	6
180.3	5
180.4	4
180.5	4
180.6	4
180.7	3
180.8	4
180.9	4
181.0	4
181.1	4
181.2	5
181.3	6
181.4	7
188.5	5
188.6	6
188.7	7
188.8	7
191.1	3
191.2	4
191.3	6
191.4	6
191.5	5
191.6	5
192.4	4
192.5	5
192.6	6
192.7	6
192.8	6
192.9	6
196.2	3
196.3	5
196.4	6
196.5	5
196.6	4
196.7	5
196.8	6
196.9	6
197.0	5
197.1	5
201.3	3
201.4	5
201.5	6
201.6	6
201.7	5
201.8	6
201.9	6
207.0	3
207.1	4
207.2	5
207.3	5
207.4	5
210.7	3
210.8	5
210.9	6
211.0	5
211.1	4
211.2	4
211.3	4
211.4	4
211.5	4
211.6	4
211.7	4
211.8	4
211.9	4
212.0	5
212.1	6
212.2	6
212.3	5
212.4	4
212.5	4
212.6	5
212.7	4
212.8	4
212.9	4
213.0	4
213.1	4
213.2	4
213.3	5
213.4	5
214.1	0
214.2	2
214.3	4
214.4	5
214.5	8
214.6	12
214.7	13
214.8	9
218.8	3
218.9	5
219.0	6
219.1	6
219.2	5
219.6	3
219.7	4
219.8	6
219.9	7
220.0	5
220.1	5
220.2	5
220.3	5
220.4	4
220.5	3
220.6	4
220.7	5
220.8	4
220.9	4
221.0	4
221.1	4
221.2	3
221.3	2
221.4	2
221.5	4
221.6	4
221.7	5
221.8	6
221.9	6
222.0	5
222.1	4
222.2	5
222.3	6
222.4	6
233.0	3
233.1	6
233.2	7
233.3	7
233.4	6
233.5	4
237.2	3
237.3	5
237.4	6
237.5	5
237.6	4
237.7	4
237.8	4
237.9	4
238.0	5
238.1	7
238.2	8
238.3	6
243.6	5
243.7	6
243.8	7
243.9	6
244.0	6
244.1	6
244.2	4
249.9	3
250.0	5
250.1	6
250.2	7
250.3	6
250.4	6
250.5	5
250.8	4
250.9	6
251.0	8
251.1	7
251.2	6
252.2	6
252.3	5
252.4	8
252.5	13
252.6	17
252.7	15
252.8	9
252.9	4
254.5	3
254.6	4
254.7	5
254.8	6
254.9	5
255.9	2
256.0	4
256.1	6
256.2	6
256.3	5
256.4	5
256.5	5
256.6	6
256.7	7
256.8	7
256.9	6
257.0	5
258.9	2
259.0	4
259.1	5
259.2	4
259.3	4
259.4	4
259.5	4
259.6	3
259.7	2
259.8	2
259.9	4
260.0	5
260.1	5
260.2	5
260.3	5
260.4	4
260.5	4
260.6	5
260.7	7
260.8	7
260.9	5
266.6	3
266.7	5
266.8	7
266.9	7
267.0	7
267.1	6
267.2	4
268.4	2
268.5	4
268.6	5
268.7	6
268.8	7
268.9	7
269.0	6
269.1	6
270.0	5
270.1	7
270.2	8
270.3	8
270.4	6
270.5	3
270.8	2
270.9	4
271.0	5
271.1	5
271.2	5
271.3	6
271.4	7
271.5	6
271.6	4
279.0	3
279.1	5
279.2	6
279.3	6
279.4	4
282.7	3
282.8	5
282.9	9
283.0	12
283.1	11
283.2	7
283.3	4
284.6	3
284.7	4
284.8	5
284.9	6
285.0	7
285.1	7
285.2	5
287.0	3
287.1	5
287.2	6
287.3	6
287.4	5
287.5	5
287.6	5
287.7	5
287.8	4
287.9	4
288.0	4
288.1	4
288.2	4
288.3	4
288.4	5
288.5	6
288.6	5
288.7	4
288.8	4
288.9	4
289.0	4
289.1	4
289.2	5
289.3	6
289.4	6
289.5	5
289.6	4
289.7	5
289.8	5
289.9	4
290.0	4
290.1	5
290.2	5
290.3	4
290.4	4
290.5	4
290.6	6
290.7	6
290.8	5
291.3	3
291.4	5
291.5	6
291.6	6
291.7	5
291.8	5
291.9	5
292.0	5
292.1	4
292.2	4
292.3	4
292.4	5
292.5	5
292.6	6
292.7	7
292.8	6
296.2	3
296.3	4
296.4	5
296.5	6
296.6	5
296.7	4
296.8	3
296.9	5
297.0	6
300.0	5
300.1	5
300.2	6
300.3	6
300.4	5
301.5	3
301.6	4
301.7	7
301.8	8
301.9	6
304.5	2
304.6	4
304.7	6
304.8	5
305.1	4
305.2	5
305.3	5
305.4	5
305.5	6
305.6	6
305.7	6
305.8	5
305.9	5
306.0	5
306.1	5
306.2	4
306.3	5
306.4	6
306.5	5
306.6	4
306.7	4
306.8	5
306.9	5
307.0	3
307.1	3
307.2	4
307.3	5
307.4	5
307.5	5
307.6	6
307.7	5
307.8	5
307.9	4
308.0	4
308.1	5
308.2	5
308.3	5
308.4	6
308.5	6
308.6	6
308.7	6
308.8	5
308.9	5
309.0	4
311.5	3
311.6	4
311.7	4
311.8	5
311.9	5
312.0	5
312.1	5
312.2	4
312.3	5
312.4	6
312.5	5
312.6	4
312.7	4
312.8	5
312.9	4
313.0	4
313.1	5
313.2	7
313.3	7
313.4	6
313.5	4
313.6	3
314.3	2
314.4	4
314.5	6
314.6	7
317.4	3
317.5	4
317.6	5
317.7	5
317.8	4
317.9	4
318.0	3
318.1	4
318.2	5
318.3	6
318.4	6
324.7	4
324.8	5
324.9	5
325.0	5
325.1	6
325.2	6
325.3	4
325.7	4
325.8	4
325.9	6
326.0	7
326.1	6
326.2	5
326.5	3
326.6	4
326.7	8
326.8	14
326.9	22
327.0	32
327.1	47
327.2	57
327.3	49
327.4	27
327.5	6
327.9	3
328.0	4
328.1	6
328.2	7
328.3	6
330.0	4
330.1	5
330.2	6
330.3	6
330.4	5
330.9	3
331.0	4
331.1	6
331.2	8
331.3	6
336.2	3
336.3	5
336.4	6
336.5	5
336.6	5
336.7	5
336.8	5
336.9	5
337.0	5
337.1	5
337.2	5
337.3	4
337.4	4
337.5	5
337.6	5
338.7	3
338.8	5
338.9	6
339.0	5
339.1	5
339.2	6
339.3	5
339.4	4
339.5	4
339.6	4
339.7	4
339.8	3
339.9	3
340.0	5
340.1	6
340.2	6
340.8	3
340.9	5
341.0	5
341.1	4
341.2	3
341.3	4
341.4	5
341.5	5
341.6	5
341.7	5
341.8	6
341.9	6
342.0	4
342.1	4
342.2	4
342.3	4
342.4	4
342.5	4
342.6	4
342.7	5
342.8	5
342.9	5
343.0	5
343.1	5
348.1	3
348.2	5
348.3	5
348.4	5
348.5	4
348.6	4
348.7	4
348.8	4
348.9	4
349.0	4
349.1	4
349.2	3
349.3	4
349.4	5
349.5	6
353.0	4
353.1	4
353.2	6
353.3	7
359.2	3
359.3	5
359.4	6
359.5	6
365.6	3
365.7	5
365.8	6
365.9	6
366.0	7
366.1	6
366.2	4
370.0	5
370.1	6
370.2	7
370.3	6
370.4	5
371.9	3
372.0	4
372.1	6
372.2	6
372.3	5
372.4	5
372.5	6
372.6	6
372.7	5
372.8	5
372.9	6
373.0	6
374.1	4
374.2	5
374.3	7
374.4	6
378.2	5
378.3	5
378.4	6
378.5	7
378.6	7
378.7	6
381.0	2
381.1	3
381.2	6
381.3	7
381.4	7
381.5	6
381.6	4
381.9	4
382.0	4
382.1	4
382.2	5
382.3	6
382.4	7
382.5	7
382.6	6
382.7	6
385.5	3
385.6	5
385.7	7
385.8	7
385.9	5
388.6	3
388.7	5
388.8	6
388.9	6
389.0	5
389.1	4
389.2	5
389.3	5
389.4	5
389.5	5
389.6	4
389.7	3
389.8	3
389.9	4
390.0	5
390.1	4
390.2	3
390.3	3
390.4	5
390.5	6
390.6	5
390.7	4
390.8	4
390.9	5
391.0	5
391.1	5
391.2	4
394.2	3
394.3	5
394.4	5
394.5	5
394.6	5
394.7	4
394.8	4
394.9	4
395.0	5
395.1	6
395.2	6
396.3	4
396.4	5
396.5	5
396.6	5
396.7	5
396.8	5
396.9	6
400.8	4
400.9	5
401.0	6
401.1	6
401.2	5
402.6	2
402.7	4
402.8	7
402.9	8
403.0	7
403.1	6
403.2	6
403.3	7
403.4	6
403.5	4
403.9	3
404.0	4
404.1	6
404.2	6
404.3	5
414.2	1
414.3	3
414.4	5
414.5	5
414.6	4
414.7	5
414.8	6
418.2	3
418.3	5
418.4	6
418.5	6
418.6	6
418.7	5
419.4	3
419.5	4
419.6	5
419.7	4
419.8	4
419.9	4
420.0	4
420.1	3
420.2	3
420.3	4
420.4	4
420.5	5
420.6	5
420.7	5
420.8	4
424.6	3
424.7	4
424.8	6
424.9	7
425.0	6
425.1	5
426.4	4
426.5	5
426.6	6
426.7	7
426.8	7
426.9	4
427.3	2
427.4	4
427.5	6
427.6	7
427.7	5
433.4	3
433.5	5
433.6	7
433.7	6
433.8	5
436.8	3
436.9	6
437.0	7
437.1	6
441.7	4
441.8	5
441.9	6
442.0	8
442.1	8
442.2	6
442.3	4
444.9	3
445.0	6
445.1	7
445.2	5
445.3	4
445.4	5
445.5	6
445.6	5
445.7	4
445.8	4
445.9	5
446.0	5
446.1	4
446.2	4
446.3	5
446.4	6
446.5	6
446.6	5
446.7	6
449.3	4
449.4	5
449.5	5
449.6	6
449.7	5
455.9	3
456.0	4
456.1	6
456.2	7
456.3	6
456.4	5
456.5	4
456.9	3
457.0	4
457.1	5
457.2	5
457.3	5
457.4	5
458.1	4
458.2	5
458.3	6
458.4	6
458.5	5
458.6	5
458.7	5
471.8	3
471.9	5
472.0	6
472.1	6
472.2	5
472.3	5
472.4	5
472.5	5
472.6	5
472.7	5
472.8	5
473.1	3
473.2	5
473.3	6
473.4	5
473.5	5
473.6	6
473.7	6
473.8	5
473.9	4
474.0	4
474.3	1
474.4	3
474.5	7
474.6	8
474.7	7
474.8	5
475.1	1
475.2	3
475.3	5
475.4	6
475.5	5
475.6	4
475.7	5
475.8	5
475.9	5
481.2	2
481.3	4
481.4	5
481.5	5
481.6	4
481.7	4
481.8	5
481.9	5
482.0	5
482.1	5
482.2	5
482.3	5
482.4	4
482.5	4
482.6	5
482.7	4
482.8	4
482.9	4
483.0	6
483.1	6
483.2	4
483.3	4
483.4	5
483.5	6
483.6	6
483.7	6
483.8	6
483.9	5
487.2	2
487.3	4
487.4	6
487.5	5
487.6	4
487.7	4
487.8	4
487.9	4
488.0	4
488.1	4
488.2	4
488.3	4
488.4	3
488.5	4
488.6	5
488.7	4
488.8	4
488.9	4
489.0	5
489.1	4
489.2	3
489.3	4
489.4	5
489.5	5
489.6	4
489.7	4
489.8	5
489.9	5
490.4	4
490.5	4
490.6	6
490.7	7
490.8	6
494.0	2
494.1	4
494.2	6
494.3	7
494.4	6
494.5	5
499.2	4
499.3	5
499.4	6
499.5	6
499.6	6
