Mass spectrum: cycloanthranilylproline; LC-ESI-QQQ; MS2; Frag=135.0V CID@25.0; [M+H]+
Name: cycloanthranilylproline
Class: Polycyclic aromatic natural products
Formula: C12H12N2O2
Exact mass: 216.2416
SMILES: O=C1c2ccccc2N=C(O)[C@@H]2CCCN12
InChI: InChI=1S/C12H12N2O2/c15-11-10-6-3-7-14(10)12(16)8-4-1-2-5-9(8)13-11/h1-2,4-5,10H,3,6-7H2,(H,13,15)/t10-/m0/s1
Instrument: Agilent 6410 Triple Quadrupole LC/MS system
Instrument type: LC-ESI-QQQ
Ms type: MS2
Ion mode: POSITIVE
Precursor type: [M+H]+
m/z	relative intensity
69.2	0
69.3	1
69.4	4
69.5	11
69.6	21
69.7	36
69.8	56
69.9	76
70.0	92
70.1	99
70.2	98
70.3	87
70.4	65
70.5	36
70.6	11
70.7	0
76.6	2
76.7	3
76.8	4
76.9	6
77.0	7
77.1	8
77.2	7
77.3	6
77.4	4
77.5	2
91.5	1
91.6	3
91.7	5
91.8	8
91.9	10
92.0	12
92.1	12
92.2	11
92.3	9
92.4	6
92.5	3
119.4	1
119.5	2
119.6	4
119.7	7
119.8	11
119.9	15
120.0	17
120.1	18
120.2	16
120.3	13
120.4	8
120.5	4
120.6	0
145.7	2
145.8	3
145.9	5
146.0	6
146.1	7
146.2	7
146.3	5
146.4	4
147.4	2
147.5	3
147.6	5
147.7	7
147.8	11
147.9	14
148.0	17
148.1	18
148.2	17
148.3	14
148.4	9
148.5	4
148.6	0
216.4	1
216.5	3
216.6	5
216.7	8
216.8	12
216.9	17
217.0	21
217.1	24
217.2	25
217.3	24
217.4	20
217.5	14
217.6	6
217.7	1
