Mass spectrum: Delsemine A; LC-ESI-QQQ; MS2; Frag=135.0V CID@25.0; [M+H]+
Name: Delsemine A
Class: Alkaloids
Formula: C37H53N3O10
Exact mass: 699.8491
SMILES: CCN1CC2(COC(=O)c3ccccc3N=C(O)C(C)CC(=N)O)CC[C@@H](OC)C34C5C[C@@H]6C(OC)C[C@@](O)(C5[C@H]6OC)C(O)([C@@H](OC)C23)[C@@H]14
InChI: InChI=1S/C37H53N3O10/c1-7-40-17-34(18-50-32(43)20-10-8-9-11-23(20)39-31(42)19(2)14-26(38)41)13-12-25(47-4)36-22-15-21-24(46-3)16-35(44,27(22)28(21)48-5)37(45,33(36)40)30(49-6)29(34)36/h8-11,19,21-22,24-25,27-30,33,44-45H,7,12-18H2,1-6H3,(H2,38,41)(H,39,42)/t19?,21-,22?,24?,25-,27?,28+,29?,30+,33+,34?,35-,36?,37?/m1/s1
Instrument: Agilent 6410 Triple Quadrupole LC/MS system
Instrument type: LC-ESI-QQQ
Ms type: MS2
Ion mode: POSITIVE
Precursor type: [M+H]+
m/z	relative intensity
699.2	1
699.3	3
699.4	6
699.5	11
699.6	19
699.7	29
699.8	43
699.9	60
700.0	77
700.1	92
700.2	99
700.3	98
700.4	87
700.5	68
700.6	44
700.7	21
700.8	5
700.9	0
