Mass spectrum: Methyl galbanate; LC-ESI-QQQ; MS2; Frag=135.0V CID@25.0; [M+H]+
Name: Methyl galbanate
Class: Benzopyranoids
Formula: C25H32O5
Exact mass: 412.5308
SMILES: COC(=O)CC[C@H]1C(=C(C)C)CC[C@H](C)[C@]1(C)COc1ccc2ccc(=O)oc2c1
InChI: InChI=1S/C25H32O5/c1-16(2)20-10-6-17(3)25(4,21(20)11-13-23(26)28-5)15-29-19-9-7-18-8-12-24(27)30-22(18)14-19/h7-9,12,14,17,21H,6,10-11,13,15H2,1-5H3/t17-,21-,25-/m0/s1
Instrument: Agilent 6410 Triple Quadrupole LC/MS system
Instrument type: LC-ESI-QQQ
Ms type: MS2
Ion mode: POSITIVE
Precursor type: [M+H]+
m/z	relative intensity
94.6	2
94.7	3
94.8	6
94.9	8
95.0	10
95.1	11
95.2	10
95.3	9
95.4	6
95.5	3
106.5	1
106.6	2
106.7	4
106.8	7
106.9	9
107.0	11
107.1	11
107.2	11
107.3	9
107.4	6
107.5	3
108.5	1
108.6	3
108.7	5
108.8	9
108.9	14
109.0	18
109.1	20
109.2	20
109.3	17
109.4	12
109.5	7
109.6	2
120.5	2
120.6	4
120.7	7
120.8	12
120.9	16
121.0	20
121.1	21
121.2	20
121.3	18
121.4	14
121.5	8
121.6	2
122.7	2
122.8	3
122.9	5
123.0	6
123.1	7
123.2	7
123.3	6
123.4	4
123.5	2
134.6	2
134.7	3
134.8	6
134.9	10
135.0	14
135.1	16
135.2	15
135.3	13
135.4	10
135.5	6
135.6	2
148.6	1
148.7	3
148.8	6
148.9	8
149.0	9
149.1	10
149.2	9
149.3	8
149.4	6
149.5	3
162.1	0
162.2	2
162.3	4
162.4	7
162.5	11
162.6	20
162.7	35
162.8	58
162.9	80
163.0	95
163.1	99
163.2	94
163.3	79
163.4	56
163.5	28
163.6	7
163.7	0
176.6	1
176.7	2
176.8	4
176.9	7
177.0	9
177.1	11
177.2	12
177.3	12
177.4	10
177.5	7
177.6	3
188.6	2
188.7	4
188.8	6
188.9	10
189.0	13
189.1	14
189.2	13
189.3	11
189.4	7
189.5	3
