Mass spectrum: 2,3,14,20,22,25-Hexahydroxycholest-7-en-6-one; LC-ESI-QQQ; MS2; Frag=135.0V CID@10.0 ; [M+H]+
Name: 2,3,14,20,22,25-Hexahydroxycholest-7-en-6-one
Class: Steroids
Formula: C27H44O7
Exact mass: 480.6475300000001
SMILES: CC(C)(O)CC[C@H](O)[C@](C)(O)C1CC[C@@]2(O)C3=CC(=O)C4CC(O)C(O)C[C@]4(C)C3CC[C@]12C
InChI: InChI=1S/C27H44O7/c1-23(2,32)9-8-22(31)26(5,33)21-7-11-27(34)16-12-18(28)17-13-19(29)20(30)14-24(17,3)15(16)6-10-25(21,27)4/h12,15,17,19-22,29-34H,6-11,13-14H2,1-5H3/t15?,17?,19?,20?,21?,22-,24+,25+,26+,27+/m0/s1
Instrument: Agilent 6410 Triple Quadrupole LC/MS system
Instrument type: LC-ESI-QQQ
Ms type: MS2
Ion mode: POSITIVE
Precursor type: [M+H]+
m/z	relative intensity
164.6	1
164.7	3
164.8	5
164.9	8
165.0	10
165.1	11
165.2	9
165.3	6
165.4	2
302.6	1
302.7	3
302.8	4
302.9	6
303.0	7
303.1	10
303.2	12
303.3	12
303.4	9
303.5	5
303.6	1
370.2	0
370.3	2
370.4	5
370.5	8
370.6	10
370.7	13
370.8	22
370.9	39
371.0	60
371.1	78
371.2	85
371.3	79
371.4	62
371.5	39
371.6	17
371.7	2
408.8	1
408.9	2
409.0	3
409.1	4
409.2	4
409.3	4
409.4	4
409.5	3
409.6	2
426.6	1
426.7	3
426.8	6
426.9	13
427.0	20
427.1	25
427.2	25
427.3	22
427.4	18
427.5	13
427.6	7
427.7	2
444.3	0
444.4	2
444.5	5
444.6	9
444.7	15
444.8	24
444.9	38
445.0	56
445.1	75
445.2	91
445.3	99
445.4	94
445.5	74
445.6	44
445.7	15
445.8	0
462.6	1
462.7	3
462.8	6
462.9	9
463.0	14
463.1	18
463.2	21
463.3	20
463.4	18
463.5	14
463.6	8
463.7	3
480.6	1
480.7	2
480.8	4
480.9	7
481.0	9
481.1	10
481.2	12
481.3	13
481.4	13
481.5	11
481.6	7
481.7	2
