Mass spectrum: Guan-fu base Y; LC-ESI-QQQ; MS2;  Frag=135.0V CID@25.0 ; [M+HCOO]-
Name: Guan-fu base Y
Class: Alkaloids
Formula: C22H29NO5
Exact mass: 387.4801300000001
SMILES: C=C1C[C@@]23CC4C5C6(C)C[C@H](OC(C)=O)CC57C2[C@H](O)C1[C@@H](O)[C@]3(O)[C@H]7N4C6
InChI: InChI=1S/C22H29NO5/c1-9-4-20-7-12-15-19(3)5-11(28-10(2)24)6-21(15)16(20)14(25)13(9)17(26)22(20,27)18(21)23(12)8-19/h11-18,25-27H,1,4-8H2,2-3H3/t11-,12?,13?,14+,15?,16?,17+,18-,19?,20+,21?,22-/m0/s1
Instrument: Agilent 6410 Triple Quadrupole LC/MS system
Instrument type: LC-ESI-QQQ
Ms type: MS2
Ion mode: NEGATIVE
Precursor type: [M+HCOO]-
m/z	relative intensity
50.5	10
50.6	17
50.7	21
50.8	18
50.9	10
51.1	2
51.2	10
51.3	19
51.4	23
51.5	19
51.6	10
51.8	9
51.9	16
52.0	20
52.1	18
52.2	10
52.4	4
52.5	11
52.6	20
52.7	22
52.8	15
53.0	4
53.1	11
53.2	20
53.3	24
53.4	19
53.7	10
53.8	17
53.9	21
54.0	18
54.1	11
54.3	6
54.4	11
54.5	16
54.6	18
54.7	14
54.9	8
55.0	12
55.1	19
55.2	22
55.3	19
55.4	12
55.6	4
55.7	9
55.8	17
55.9	20
56.0	17
56.3	12
56.4	18
56.5	23
56.6	21
56.7	14
56.9	8
57.0	14
57.1	19
57.2	20
57.3	15
57.5	7
57.6	11
57.7	17
57.8	19
57.9	16
58.0	10
58.2	8
58.3	14
58.4	18
58.5	16
58.6	9
58.8	5
58.9	13
59.0	20
59.1	19
59.2	13
59.4	4
59.5	9
59.6	15
59.7	18
59.8	16
59.9	11
60.1	9
60.2	14
60.3	18
60.4	18
60.5	14
60.7	8
60.8	12
60.9	18
61.0	21
61.1	16
61.4	9
61.5	17
61.6	23
61.7	20
61.8	12
62.0	8
62.1	15
62.2	21
62.3	21
62.4	13
62.6	4
62.7	9
62.8	16
62.9	18
63.0	15
63.1	9
63.3	7
63.4	13
63.5	17
63.6	17
63.7	12
63.9	7
64.0	14
64.1	21
64.2	23
64.3	16
64.6	7
64.7	16
64.8	23
64.9	22
65.0	15
65.2	8
65.3	14
65.4	20
65.5	21
65.6	15
65.8	3
65.9	8
66.0	16
66.1	21
66.2	19
66.3	13
66.5	8
66.6	13
66.7	19
66.8	20
66.9	15
67.1	5
67.2	11
67.3	20
67.4	23
67.5	18
67.6	9
67.8	7
67.9	15
68.0	20
68.1	18
68.2	11
68.4	3
68.5	10
68.6	18
68.7	21
68.8	18
68.9	10
69.1	9
69.2	15
69.3	19
69.4	17
69.5	9
69.7	6
69.8	15
69.9	23
70.0	23
70.1	15
70.3	6
70.4	12
70.5	20
70.6	24
70.7	21
70.8	14
71.0	11
71.1	17
71.2	22
71.3	20
71.4	12
71.6	3
71.7	10
71.8	19
71.9	23
72.0	18
72.1	10
72.3	8
72.4	16
72.5	20
72.6	17
72.7	10
72.9	7
73.0	14
73.1	20
73.2	20
73.3	14
73.5	7
73.6	11
73.7	17
73.8	19
73.9	15
74.2	7
74.3	15
74.4	21
74.5	18
74.6	10
74.8	6
74.9	15
75.0	23
75.1	24
75.2	16
75.4	4
75.5	9
75.6	17
75.7	23
75.8	20
75.9	11
76.1	7
76.2	15
76.3	22
76.4	22
76.5	16
76.7	8
76.8	13
76.9	20
77.0	22
77.1	17
77.2	10
77.4	6
77.5	12
77.6	19
77.7	21
77.8	16
78.0	8
78.1	13
78.2	19
78.3	18
78.4	11
78.6	4
78.7	11
78.8	19
78.9	22
79.0	17
79.2	7
79.3	11
79.4	20
79.5	25
79.6	21
79.7	11
79.9	5
80.0	13
80.1	22
80.2	25
80.3	18
80.6	9
80.7	18
80.8	22
80.9	21
81.0	14
81.2	8
81.3	13
81.4	18
81.5	19
81.6	15
81.8	10
81.9	13
82.0	17
82.1	18
82.2	15
82.3	9
82.5	7
82.6	14
82.7	21
82.8	22
82.9	16
83.1	6
83.2	12
83.3	19
83.4	21
83.5	16
83.8	7
83.9	17
84.0	25
84.1	25
84.2	18
84.4	9
84.5	14
84.6	21
84.7	21
84.8	15
85.0	6
85.1	12
85.2	19
85.3	22
85.4	17
85.5	9
85.7	8
85.8	15
85.9	22
86.0	22
86.1	15
86.3	9
86.4	15
86.5	20
86.6	21
86.7	15
87.0	6
87.1	14
87.2	21
87.3	21
87.4	16
87.6	8
87.7	12
87.8	19
87.9	22
88.0	18
88.1	9
88.3	6
88.4	14
88.5	19
88.6	17
88.7	9
88.9	7
89.0	15
89.1	22
89.2	23
89.3	17
89.5	8
89.6	12
89.7	19
89.8	22
89.9	17
90.2	8
90.3	16
90.4	21
90.5	19
90.6	12
90.8	8
90.9	14
91.0	20
91.1	21
91.2	17
91.3	11
91.5	9
91.6	15
91.7	20
91.8	20
91.9	15
92.1	8
92.2	12
92.3	18
92.4	18
92.5	13
92.7	6
92.8	12
92.9	19
93.0	21
93.1	16
93.3	6
93.4	10
93.5	17
93.6	21
93.7	18
93.8	11
94.0	7
94.1	13
94.2	21
94.3	22
94.4	15
94.7	5
94.8	14
94.9	19
95.0	18
95.1	12
95.3	8
95.4	14
95.5	20
95.6	21
95.7	18
95.9	10
96.0	14
96.1	20
96.2	22
96.3	18
96.4	11
96.6	8
96.7	13
96.8	17
96.9	16
97.0	10
97.2	7
97.3	15
97.4	22
97.5	22
97.6	14
97.8	5
97.9	11
98.0	20
98.1	23
98.2	18
98.3	8
98.5	5
98.6	15
98.7	24
98.8	24
98.9	15
99.1	3
99.2	8
99.3	17
99.4	21
99.5	17
99.8	11
99.9	17
100.0	21
100.1	19
100.2	11
100.4	6
100.5	13
100.6	21
100.7	22
100.8	16
101.0	6
101.1	11
101.2	19
101.3	22
101.4	19
101.5	12
101.7	9
101.8	14
101.9	19
102.0	19
102.1	14
102.4	10
102.5	15
102.6	19
102.7	18
103.0	13
103.1	18
103.2	21
103.3	20
103.4	13
103.6	5
103.7	10
103.8	17
103.9	20
104.0	17
104.3	10
104.4	17
104.5	22
104.6	18
104.7	8
104.9	2
105.0	9
105.1	17
105.2	19
105.3	14
105.5	4
105.6	10
105.7	20
105.8	25
105.9	21
106.0	12
106.2	8
106.3	15
106.4	21
106.5	20
106.6	13
106.8	5
106.9	9
107.0	14
107.1	17
107.2	16
107.4	11
107.5	14
107.6	20
107.7	23
107.8	20
107.9	12
108.1	9
108.2	17
108.3	22
108.4	19
108.5	10
108.7	5
108.8	12
108.9	17
109.0	17
109.1	11
109.3	4
109.4	10
109.5	19
109.6	23
109.7	19
109.8	9
110.0	2
110.1	10
110.2	18
110.3	20
110.4	15
110.6	7
110.7	12
110.8	19
110.9	23
111.0	20
111.1	13
111.3	10
111.4	18
111.5	24
111.6	23
111.7	16
111.9	9
112.0	14
112.1	20
112.2	20
112.3	15
112.5	7
112.6	10
112.7	18
112.8	23
112.9	21
113.0	12
113.2	5
113.3	12
113.4	19
113.5	20
113.6	14
113.8	8
113.9	13
114.0	19
114.1	21
114.2	17
114.3	10
114.5	5
114.6	11
114.7	17
114.8	17
114.9	13
115.1	6
115.2	11
115.3	19
115.4	23
115.5	20
115.6	12
115.8	9
115.9	15
116.0	19
116.1	17
116.2	12
116.4	7
116.5	12
116.6	18
116.7	18
116.8	14
117.0	6
117.1	9
117.2	16
117.3	21
117.4	20
117.5	14
117.7	9
117.8	15
117.9	21
118.0	21
118.1	16
118.2	11
118.9	4
119.0	8
119.1	17
119.2	22
119.3	20
119.4	11
119.6	1
119.7	7
119.8	15
119.9	19
120.0	16
120.9	7
121.0	15
121.1	21
121.2	21
121.3	16
122.2	6
122.3	15
122.4	22
122.5	21
122.6	15
122.8	10
122.9	16
123.0	22
123.1	22
123.2	15
123.4	4
123.5	9
123.6	20
123.7	26
123.8	23
123.9	14
124.1	6
124.2	12
124.3	17
124.4	16
124.5	10
124.7	3
124.8	9
124.9	18
125.0	22
125.1	18
125.2	10
125.4	8
125.5	15
125.6	19
125.7	17
126.0	10
126.1	17
126.2	21
126.3	19
126.4	11
126.6	4
126.7	10
126.8	18
126.9	22
127.0	20
127.1	13
127.3	8
127.4	13
127.5	19
127.6	20
127.7	15
127.9	7
128.0	15
128.1	23
128.2	25
128.3	19
128.4	10
128.6	8
128.7	15
128.8	21
128.9	20
129.0	14
129.2	5
129.3	10
129.4	17
129.5	19
129.6	14
129.8	5
129.9	9
130.0	17
130.1	21
130.2	18
130.3	9
130.5	5
130.6	13
130.7	21
130.8	23
130.9	18
131.7	6
131.8	10
131.9	18
132.0	24
132.1	23
132.2	16
133.0	3
133.1	10
133.2	20
133.3	25
133.4	20
133.5	10
133.7	7
133.8	15
133.9	23
134.0	24
134.1	19
134.9	4
135.0	9
135.1	16
135.2	21
135.3	19
135.4	14
136.2	8
136.3	12
136.4	18
136.5	21
136.6	18
136.7	11
136.9	7
137.0	13
137.1	19
137.2	19
137.3	12
137.5	7
137.6	13
137.7	19
137.8	20
137.9	14
138.1	6
138.2	11
138.3	18
138.4	23
138.5	22
138.6	15
138.8	7
138.9	13
139.0	21
139.1	25
139.2	21
139.3	12
139.5	11
139.6	19
139.7	22
139.8	18
139.9	9
140.1	6
140.2	14
140.3	21
140.4	21
140.5	16
141.3	7
141.4	11
141.5	18
141.6	22
141.7	20
141.8	13
142.0	6
142.1	11
142.2	18
142.3	20
142.4	17
142.6	10
142.7	13
142.8	19
142.9	21
143.0	17
143.1	8
143.3	5
143.4	13
143.5	23
143.6	26
143.7	20
143.8	10
144.0	7
144.1	16
144.2	22
144.3	20
144.4	12
144.6	10
144.7	18
144.8	23
144.9	21
145.0	13
145.2	6
145.3	11
145.4	18
145.5	21
145.6	18
146.5	5
146.6	13
146.7	19
146.8	20
146.9	15
147.1	9
147.2	13
147.3	18
147.4	19
147.5	14
147.7	6
147.8	11
147.9	20
148.0	23
148.1	18
148.2	9
148.4	4
148.5	12
148.6	20
148.7	23
148.8	20
149.1	14
149.2	18
149.3	22
149.4	20
149.5	13
149.7	8
149.8	14
149.9	20
150.0	20
150.1	13
150.3	5
150.4	12
150.5	20
150.6	22
150.7	16
150.8	6
151.0	3
151.1	12
151.2	19
151.3	20
151.4	14
151.6	7
151.7	11
151.8	16
151.9	17
152.0	13
152.2	4
152.3	8
152.4	15
152.5	20
152.6	18
152.7	12
152.9	10
153.0	17
153.1	22
153.2	20
153.3	13
153.5	6
153.6	13
153.7	20
153.8	22
153.9	16
154.2	9
154.3	17
154.4	22
154.5	21
154.6	15
154.8	8
154.9	11
155.0	17
155.1	17
155.2	12
155.4	3
155.5	8
155.6	17
155.7	21
155.8	18
155.9	12
156.1	9
156.2	15
156.3	18
156.4	16
156.5	9
156.7	5
156.8	12
156.9	17
157.0	18
157.1	13
157.3	6
157.4	11
157.5	18
157.6	22
157.7	19
157.8	11
158.0	5
158.1	12
158.2	20
158.3	22
158.4	16
159.3	10
159.4	17
159.5	22
159.6	20
159.7	13
159.9	6
160.0	11
160.1	17
160.2	18
160.3	13
160.6	5
160.7	12
160.8	18
160.9	18
161.0	14
161.2	8
161.3	12
161.4	18
161.5	19
161.6	14
161.9	7
162.0	15
162.1	19
162.2	16
162.4	5
162.5	9
162.6	17
162.7	21
162.8	18
162.9	9
163.1	4
163.2	11
163.3	20
163.4	23
163.5	20
163.6	12
163.8	6
163.9	11
164.0	16
164.1	16
164.4	10
164.5	17
164.6	22
164.7	21
164.8	16
165.0	11
165.1	16
165.2	21
165.3	21
165.4	16
165.5	8
165.7	6
165.8	14
165.9	21
166.0	23
166.1	18
166.2	10
166.9	7
167.0	10
167.1	16
167.2	18
167.3	16
167.4	10
167.6	8
167.7	14
167.8	20
167.9	19
168.0	12
168.2	6
168.3	12
168.4	20
168.5	22
168.6	16
168.7	8
168.9	6
169.0	14
169.1	20
169.2	20
169.3	15
169.5	8
169.6	13
169.7	20
169.8	23
169.9	17
170.8	5
170.9	14
171.0	21
171.1	23
171.2	16
171.3	7
171.5	5
171.6	12
171.7	18
171.8	16
172.1	8
172.2	16
172.3	23
172.4	22
172.5	15
172.7	5
172.8	10
172.9	17
173.0	20
173.1	16
173.3	7
173.4	11
173.5	20
173.6	23
173.7	20
173.8	11
174.0	6
174.1	12
174.2	19
174.3	22
174.4	18
175.3	4
175.4	14
175.5	21
175.6	21
175.7	13
175.9	3
176.0	8
176.1	17
176.2	22
176.3	20
176.4	13
176.6	7
176.7	13
176.8	19
176.9	20
177.0	15
177.2	7
177.3	11
177.4	17
177.5	20
177.6	17
177.8	9
177.9	13
178.0	18
178.1	20
178.2	15
178.5	8
178.6	16
178.7	22
178.8	22
178.9	16
179.1	6
179.2	10
179.3	17
179.4	20
179.5	14
179.7	3
179.8	11
179.9	23
180.0	30
180.1	27
180.2	17
180.4	5
180.5	10
180.6	17
180.7	20
180.8	15
181.0	7
181.1	12
181.2	20
181.3	25
181.4	21
181.5	12
181.7	6
181.8	13
181.9	19
182.0	19
182.1	13
182.3	7
182.4	12
182.5	18
182.6	20
182.7	16
183.0	10
183.1	16
183.2	19
183.3	16
183.4	10
183.6	7
183.7	14
183.8	21
183.9	22
184.0	15
184.2	5
184.3	10
184.4	20
184.5	26
184.6	24
184.7	16
184.9	7
185.0	13
185.1	20
185.2	22
185.3	18
185.5	12
185.6	17
185.7	21
185.8	21
185.9	13
186.1	2
186.2	8
186.3	17
186.4	23
186.5	21
186.6	13
186.8	6
186.9	13
187.0	22
187.1	22
187.2	15
188.1	9
188.2	15
188.3	21
188.4	21
188.5	15
188.7	10
188.8	16
188.9	21
189.0	21
189.1	16
189.4	8
189.5	17
189.6	24
189.7	20
189.8	10
190.0	6
190.1	15
190.2	24
190.3	25
190.4	17
191.3	8
191.4	15
191.5	21
191.6	21
191.7	16
191.9	7
192.0	12
192.1	19
192.2	21
192.3	17
192.5	6
192.6	11
192.7	18
192.8	23
192.9	19
193.0	11
193.2	7
193.3	14
193.4	21
193.5	21
193.6	15
193.8	5
193.9	10
194.0	19
194.1	24
194.2	21
194.3	14
194.5	7
194.6	13
194.7	21
194.8	22
194.9	16
195.1	5
195.2	11
195.3	20
195.4	23
195.5	18
195.8	9
195.9	16
196.0	20
196.1	18
196.2	11
196.4	8
196.5	15
196.6	23
196.7	24
196.8	18
197.1	9
197.2	17
197.3	22
197.4	20
197.5	10
197.7	4
197.8	13
197.9	20
198.0	20
198.1	13
198.3	4
198.4	10
198.5	18
198.6	21
198.7	17
199.0	10
199.1	17
199.2	20
199.3	17
199.4	10
199.6	7
199.7	15
199.8	23
199.9	24
200.0	17
200.3	8
200.4	17
200.5	22
200.6	19
200.7	11
200.9	6
201.0	14
201.1	22
201.2	24
201.3	17
201.6	8
201.7	17
201.8	22
201.9	20
202.0	13
202.2	6
202.3	13
202.4	20
202.5	19
202.6	11
202.8	1
202.9	9
203.0	21
203.1	26
203.2	21
203.3	10
203.5	7
203.6	16
203.7	21
203.8	18
203.9	12
204.1	9
204.2	14
204.3	18
204.4	18
204.5	12
204.7	8
204.8	15
204.9	22
205.0	23
205.1	18
205.2	10
205.4	8
205.5	15
205.6	21
205.7	20
205.8	14
206.0	6
206.1	13
206.2	20
206.3	21
206.4	14
206.6	6
206.7	10
206.8	17
206.9	19
207.0	15
207.3	8
207.4	15
207.5	19
207.6	17
207.7	10
207.9	6
208.0	14
208.1	22
208.2	24
208.3	18
208.4	10
208.6	8
208.7	13
208.8	17
208.9	15
209.0	9
209.2	5
209.3	13
209.4	21
209.5	22
209.6	15
209.8	3
209.9	9
210.0	19
210.1	23
210.2	18
210.3	8
210.5	5
210.6	15
210.7	24
210.8	26
210.9	20
211.8	10
211.9	15
212.0	19
212.1	18
212.2	12
212.4	5
212.5	10
212.6	17
212.7	18
212.8	13
213.0	4
213.1	9
213.2	17
213.3	21
213.4	17
213.5	9
213.7	8
213.8	15
213.9	20
214.0	18
214.1	11
214.3	5
214.4	10
214.5	17
214.6	18
214.7	14
215.0	6
215.1	14
215.2	20
215.3	20
215.4	13
215.6	5
215.7	10
215.8	17
215.9	20
216.0	16
216.2	8
216.3	11
216.4	18
216.5	22
216.6	20
216.7	12
216.9	5
217.0	11
217.1	19
217.2	21
217.3	16
217.5	5
217.6	10
217.7	17
217.8	19
217.9	13
218.2	6
218.3	14
218.4	19
218.5	17
218.6	10
218.8	3
218.9	9
219.0	16
219.1	17
219.2	12
219.4	4
219.5	9
219.6	16
219.7	21
219.8	19
219.9	12
220.1	8
220.2	15
220.3	20
220.4	19
220.5	12
220.7	7
220.8	15
220.9	22
221.0	23
221.1	16
221.4	10
221.5	16
221.6	20
221.7	20
221.8	15
222.6	7
222.7	12
222.8	19
222.9	23
223.0	19
223.1	9
223.3	3
223.4	12
223.5	21
223.6	22
223.7	17
224.5	4
224.6	8
224.7	15
224.8	20
224.9	19
225.0	13
225.2	6
225.3	13
225.4	20
225.5	22
225.6	16
225.8	3
225.9	8
226.0	18
226.1	24
226.2	21
226.3	13
226.5	9
226.6	18
226.7	25
226.8	25
226.9	19
227.7	9
227.8	13
227.9	19
228.0	23
228.1	20
228.2	13
228.4	8
228.5	13
228.6	18
228.7	17
228.8	10
229.0	0
229.1	7
229.2	18
229.3	24
229.4	20
229.5	10
229.7	4
229.8	13
229.9	21
230.0	23
230.1	17
230.3	8
230.4	13
230.5	19
230.6	20
230.7	15
231.0	8
231.1	17
231.2	23
231.3	22
231.4	16
231.6	12
231.7	19
231.8	26
231.9	26
232.0	19
232.3	11
232.4	19
232.5	24
232.6	21
232.7	13
232.9	8
233.0	15
233.1	21
233.2	20
233.3	13
233.5	4
233.6	10
233.7	18
233.8	21
233.9	18
234.0	11
234.2	8
234.3	15
234.4	21
234.5	20
234.6	13
234.8	9
234.9	17
235.0	22
235.1	20
235.2	13
235.4	6
235.5	13
235.6	21
235.7	24
235.8	20
235.9	12
236.1	7
236.2	15
236.3	23
236.4	24
236.5	19
236.6	11
236.8	10
236.9	17
237.0	20
237.1	17
237.4	10
237.5	16
237.6	20
237.7	19
237.8	13
238.0	6
238.1	11
238.2	16
238.3	18
238.4	14
238.6	8
238.7	12
238.8	19
238.9	24
239.0	21
239.1	14
239.3	8
239.4	14
239.5	19
239.6	19
239.7	13
239.9	5
240.0	11
240.1	18
240.2	21
240.3	17
240.4	9
240.6	8
240.7	16
240.8	21
240.9	20
241.0	12
241.2	5
241.3	12
241.4	20
241.5	22
241.6	18
241.8	12
241.9	15
242.0	20
242.1	21
242.2	17
242.5	10
242.6	16
242.7	20
242.8	19
242.9	13
243.1	7
243.2	12
243.3	18
243.4	21
243.5	17
243.6	10
243.8	8
243.9	15
244.0	21
244.1	20
244.2	14
244.4	9
244.5	14
244.6	18
244.7	16
244.8	10
245.0	5
245.1	12
245.2	19
245.3	21
245.4	16
245.5	6
245.7	2
245.8	11
245.9	19
246.0	20
246.1	14
246.3	5
246.4	12
246.5	20
246.6	24
246.7	19
246.8	10
247.0	6
247.1	15
247.2	21
247.3	20
247.4	12
247.6	7
247.7	13
247.8	19
247.9	20
248.0	15
248.3	8
248.4	14
248.5	18
248.6	17
248.7	12
248.9	10
249.0	15
249.1	19
249.2	18
249.3	11
249.5	6
249.6	14
249.7	23
249.8	25
249.9	18
250.0	8
250.2	7
250.3	17
250.4	23
250.5	20
250.6	13
250.8	9
250.9	16
251.0	22
251.1	22
251.2	15
251.4	4
251.5	8
251.6	17
251.7	24
251.8	23
251.9	15
252.1	9
252.2	17
252.3	23
252.4	22
252.5	14
252.7	3
252.8	8
252.9	16
253.0	19
253.1	15
253.3	4
253.4	9
253.5	18
253.6	23
253.7	21
253.8	12
254.0	4
254.1	11
254.2	19
254.3	21
254.4	15
254.6	6
254.7	10
254.8	18
254.9	22
255.0	19
255.1	11
255.3	8
255.4	15
255.5	20
255.6	18
255.7	12
255.9	8
256.0	14
256.1	20
256.2	21
256.3	14
256.5	3
256.6	8
256.7	15
256.8	20
256.9	17
257.2	10
257.3	17
257.4	22
257.5	20
257.6	13
257.8	6
257.9	12
258.0	20
258.1	22
258.2	17
258.5	8
258.6	16
258.7	23
258.8	22
258.9	15
259.1	7
259.2	12
259.3	18
259.4	20
259.5	17
259.8	10
259.9	16
260.0	19
260.1	16
260.2	10
260.4	8
260.5	16
260.6	22
260.7	21
260.8	12
261.0	0
261.1	7
261.2	17
261.3	22
261.4	18
261.5	10
261.7	8
261.8	15
261.9	20
262.0	19
262.1	12
262.3	6
262.4	12
262.5	19
262.6	22
262.7	16
262.9	3
263.0	9
263.1	19
263.2	24
263.3	21
263.4	12
263.6	6
263.7	12
263.8	19
263.9	20
264.0	15
264.8	3
264.9	6
265.0	14
265.1	20
265.2	20
265.3	13
265.5	6
265.6	13
265.7	20
265.8	21
265.9	14
266.1	4
266.2	9
266.3	17
266.4	21
266.5	19
266.6	13
266.8	9
266.9	13
267.0	18
267.1	18
267.2	13
267.4	9
267.5	15
267.6	22
267.7	23
267.8	16
268.1	8
268.2	15
268.3	20
268.4	19
268.5	13
268.7	5
268.8	10
268.9	16
269.0	19
269.1	16
269.4	8
269.5	16
269.6	20
269.7	18
270.0	11
270.1	17
270.2	19
270.3	16
270.4	10
270.6	6
270.7	11
270.8	18
270.9	21
271.0	17
271.1	10
271.3	9
271.4	14
271.5	19
271.6	17
271.7	11
271.9	8
272.0	15
272.1	21
272.2	21
272.3	15
272.5	6
272.6	12
272.7	21
272.8	25
272.9	20
273.0	9
273.2	6
273.3	15
273.4	24
273.5	26
273.6	20
273.8	10
273.9	15
274.0	22
274.1	24
274.2	17
274.3	6
274.5	1
274.6	10
274.7	19
274.8	21
274.9	16
275.1	6
275.2	13
275.3	22
275.4	23
275.5	14
275.7	0
275.8	6
275.9	16
276.0	21
276.1	19
276.2	13
276.4	8
276.5	13
276.6	18
276.7	20
276.8	15
277.0	6
277.1	11
277.2	18
277.3	20
277.4	15
277.6	8
277.7	13
277.8	20
277.9	23
278.0	20
278.1	13
278.3	7
278.4	12
278.5	19
278.6	21
278.7	18
279.0	12
279.1	19
279.2	22
279.3	19
279.4	11
279.6	3
279.7	9
279.8	17
279.9	20
280.0	17
280.1	10
280.3	5
280.4	12
280.5	18
280.6	19
280.7	12
280.9	9
281.0	16
281.1	22
281.2	21
281.3	12
281.5	4
281.6	9
281.7	16
281.8	18
281.9	16
282.2	10
282.3	16
282.4	19
282.5	16
282.6	9
282.8	6
282.9	14
283.0	23
283.1	25
283.2	19
283.3	11
283.5	10
283.6	16
283.7	19
283.8	15
283.9	7
284.1	6
284.2	13
284.3	20
284.4	21
284.5	16
284.8	8
284.9	15
285.0	20
285.1	18
285.4	11
285.5	18
285.6	21
285.7	18
286.0	10
286.1	18
286.2	25
286.3	23
286.4	14
286.6	2
286.7	8
286.8	16
286.9	19
287.0	17
287.1	12
287.3	10
287.4	15
287.5	20
287.6	20
287.7	13
287.9	5
288.0	12
288.1	21
288.2	23
288.3	19
288.6	11
288.7	18
288.8	23
288.9	22
289.0	13
289.2	5
289.3	13
289.4	21
289.5	24
289.6	18
289.7	9
289.9	5
290.0	12
290.1	18
290.2	18
290.3	13
290.5	8
290.6	14
290.7	20
290.8	19
290.9	13
291.1	5
291.2	11
291.3	17
291.4	18
291.5	13
291.8	6
291.9	14
292.0	20
292.1	18
292.2	11
292.4	6
292.5	14
292.6	21
292.7	22
292.8	16
293.0	8
293.1	14
293.2	21
293.3	23
293.4	19
293.5	11
293.7	8
293.8	13
293.9	18
294.0	19
294.1	16
294.3	12
294.4	16
294.5	20
294.6	19
294.7	13
294.9	5
295.0	9
295.1	16
295.2	20
295.3	18
295.4	12
295.6	8
295.7	14
295.8	20
295.9	20
296.0	14
296.2	5
296.3	10
296.4	18
296.5	21
296.6	18
296.7	12
296.9	9
297.0	14
297.1	19
297.2	18
297.3	12
297.5	8
297.6	15
297.7	22
297.8	22
297.9	15
298.1	4
298.2	9
298.3	18
298.4	24
298.5	22
298.6	16
298.8	12
298.9	18
299.0	21
299.1	19
299.2	11
299.4	5
299.5	9
299.6	16
299.7	20
299.8	17
299.9	10
300.1	8
300.2	15
300.3	21
300.4	21
300.5	14
300.7	5
300.8	11
300.9	19
301.0	21
301.1	18
301.2	12
301.4	11
301.5	16
301.6	20
301.7	19
301.8	12
302.0	5
302.1	10
302.2	17
302.3	19
302.4	15
302.6	8
302.7	12
302.8	18
302.9	21
303.0	17
303.3	6
303.4	17
303.5	24
303.6	23
303.7	15
303.9	9
304.0	15
304.1	22
304.2	24
304.3	19
304.4	10
304.6	8
304.7	16
304.8	23
304.9	22
305.0	14
305.2	9
305.3	17
305.4	24
305.5	23
305.6	14
305.8	4
305.9	11
306.0	20
306.1	23
306.2	18
306.3	8
306.5	6
306.6	15
306.7	22
306.8	20
306.9	12
307.1	6
307.2	13
307.3	20
307.4	21
307.5	15
307.8	7
307.9	15
308.0	19
308.1	15
308.2	8
308.4	6
308.5	15
308.6	23
308.7	25
308.8	19
309.1	10
309.2	19
309.3	24
309.4	21
309.5	13
309.7	8
309.8	13
309.9	19
310.0	20
310.1	16
310.3	8
310.4	12
310.5	18
310.6	21
310.7	16
311.0	7
311.1	15
311.2	22
311.3	21
311.4	13
311.6	5
311.7	11
311.8	18
311.9	18
312.0	12
312.2	6
312.3	12
312.4	18
312.5	20
312.6	16
312.9	9
313.0	15
313.1	18
313.2	17
313.3	12
313.5	7
313.6	12
313.7	19
313.8	21
313.9	16
314.1	8
314.2	13
314.3	20
314.4	24
314.5	21
314.6	14
314.8	6
314.9	10
315.0	16
315.1	19
315.2	15
315.4	7
315.5	11
315.6	18
315.7	21
315.8	16
315.9	8
316.1	6
316.2	15
316.3	22
316.4	22
316.5	14
316.8	7
316.9	14
317.0	18
317.1	15
317.4	9
317.5	17
317.6	22
317.7	20
317.8	12
318.0	7
318.1	12
318.2	17
318.3	17
318.4	12
318.6	4
318.7	9
318.8	18
318.9	22
319.0	19
319.1	12
319.3	9
319.4	16
319.5	21
319.6	20
319.7	13
319.9	4
320.0	9
320.1	17
320.2	22
320.3	18
320.6	10
320.7	18
320.8	23
320.9	20
321.0	11
321.2	7
321.3	14
321.4	22
321.5	22
321.6	15
321.8	1
321.9	7
322.0	17
322.1	23
322.2	19
322.3	9
322.5	4
322.6	11
322.7	19
322.8	21
322.9	16
323.7	5
323.8	11
323.9	19
324.0	23
324.1	20
324.2	12
324.4	8
324.5	15
324.6	21
324.7	21
324.8	14
325.0	5
325.1	10
325.2	17
325.3	21
325.4	17
325.5	9
325.7	5
325.8	14
325.9	23
326.0	25
326.1	18
327.0	7
327.1	16
327.2	22
327.3	21
327.4	15
327.6	5
327.7	10
327.8	16
327.9	18
328.0	13
328.2	6
328.3	11
328.4	18
328.5	20
328.6	16
328.7	8
328.9	3
329.0	12
329.1	21
329.2	24
329.3	19
329.6	11
329.7	19
329.8	23
329.9	20
330.0	12
330.2	6
330.3	12
330.4	18
330.5	18
330.6	12
330.8	9
330.9	17
331.0	24
331.1	24
331.2	15
331.4	1
331.5	7
331.6	18
331.7	25
331.8	22
331.9	14
332.1	9
332.2	15
332.3	21
332.4	20
332.5	13
332.7	8
332.8	15
332.9	21
333.0	20
333.1	13
333.3	1
333.4	7
333.5	16
333.6	21
333.7	18
333.8	9
334.0	6
334.1	14
334.2	21
334.3	23
334.4	18
334.6	8
334.7	12
334.8	19
334.9	22
335.0	17
335.1	8
335.3	5
335.4	14
335.5	22
335.6	21
335.7	15
335.9	9
336.0	13
336.1	18
336.2	19
336.3	14
336.6	6
336.7	14
336.8	20
336.9	22
337.0	18
337.2	12
337.3	16
337.4	21
337.5	19
337.6	12
337.8	7
337.9	13
338.0	20
338.1	21
338.2	17
338.3	11
338.5	9
338.6	15
338.7	18
338.8	17
338.9	12
339.1	6
339.2	10
339.3	15
339.4	17
339.5	15
339.7	9
339.8	11
339.9	18
340.0	24
340.1	22
340.2	14
340.4	5
340.5	12
340.6	20
340.7	22
340.8	17
341.0	8
341.1	14
341.2	21
341.3	23
341.4	18
341.7	11
341.8	19
341.9	23
342.0	21
342.1	12
342.3	5
342.4	13
342.5	23
342.6	28
342.7	22
342.8	11
343.0	5
343.1	14
343.2	22
343.3	22
343.4	15
343.6	7
343.7	12
343.8	18
343.9	21
344.0	17
344.3	9
344.4	17
344.5	21
344.6	18
344.7	10
344.9	5
345.0	14
345.1	23
345.2	24
345.3	15
345.5	6
345.6	14
345.7	24
345.8	26
345.9	19
346.0	9
346.2	8
346.3	17
346.4	22
346.5	19
346.6	12
346.8	9
346.9	14
347.0	18
347.1	19
347.2	14
347.4	7
347.5	11
347.6	19
347.7	23
347.8	20
347.9	12
348.1	8
348.2	15
348.3	22
348.4	23
348.5	18
348.7	8
348.8	12
348.9	20
349.0	22
349.1	17
349.2	8
349.4	5
349.5	13
349.6	19
349.7	19
349.8	12
350.0	7
350.1	13
350.2	20
350.3	22
350.4	17
350.6	6
350.7	11
350.8	20
350.9	25
351.0	22
351.1	13
351.3	5
351.4	11
351.5	18
351.6	21
351.7	16
351.9	8
352.0	12
352.1	18
352.2	21
352.3	17
352.4	10
352.6	7
352.7	12
352.8	15
352.9	14
353.2	8
353.3	14
353.4	20
353.5	20
353.6	14
353.8	4
353.9	9
354.0	17
354.1	21
354.2	17
354.3	9
354.5	2
354.6	8
354.7	16
354.8	19
354.9	17
355.7	5
355.8	10
355.9	18
356.0	22
356.1	18
356.2	9
356.4	5
356.5	12
356.6	20
356.7	22
356.8	16
357.0	5
357.1	10
357.2	18
357.3	21
357.4	16
357.7	8
357.8	16
357.9	21
358.0	20
358.1	13
358.3	4
358.4	9
358.5	17
358.6	21
358.7	18
358.8	11
359.0	9
359.1	15
359.2	20
359.3	19
359.4	14
359.6	9
359.7	14
359.8	19
359.9	19
360.0	13
360.2	4
360.3	10
360.4	20
360.5	24
360.6	19
360.7	9
360.9	6
361.0	14
361.1	19
361.2	18
361.3	12
361.5	5
361.6	10
361.7	17
361.8	19
361.9	16
362.0	10
362.2	8
362.3	13
362.4	16
362.5	15
362.7	10
362.8	13
362.9	18
363.0	21
363.1	18
363.2	11
363.4	3
363.5	10
363.6	19
363.7	23
363.8	20
363.9	11
364.1	6
364.2	12
364.3	17
364.4	17
364.5	12
364.7	7
364.8	11
364.9	17
365.0	20
365.1	18
365.3	12
365.4	15
365.5	21
365.6	24
365.7	21
365.8	13
366.0	8
366.1	14
366.2	19
366.3	17
366.4	11
366.6	5
366.7	12
366.8	19
366.9	21
367.0	17
367.2	8
367.3	12
367.4	19
367.5	23
367.6	20
367.7	14
367.9	9
368.0	14
368.1	19
368.2	20
368.3	14
368.6	7
368.7	13
368.8	19
368.9	18
369.0	12
369.2	6
369.3	11
369.4	16
369.5	17
369.6	11
369.8	3
369.9	9
370.0	17
370.1	22
370.2	19
370.3	13
370.5	10
370.6	16
370.7	19
370.8	18
370.9	12
371.1	8
371.2	14
371.3	21
371.4	22
371.5	16
371.6	8
371.8	7
371.9	15
372.0	19
372.1	17
372.4	10
372.5	16
372.6	21
372.7	20
372.8	14
373.0	4
373.1	8
373.2	16
373.3	21
373.4	19
373.5	12
373.7	7
373.8	13
373.9	19
374.0	18
374.1	11
374.3	6
374.4	13
374.5	21
374.6	23
374.7	17
374.8	7
375.0	3
375.1	10
375.2	18
375.3	18
375.4	11
375.6	6
375.7	14
375.8	23
375.9	24
376.0	16
376.3	6
376.4	16
376.5	23
376.6	19
376.7	10
376.9	6
377.0	14
377.1	21
377.2	20
377.3	12
377.5	3
377.6	11
377.7	21
377.8	23
377.9	16
378.1	4
378.2	9
378.3	18
378.4	23
378.5	20
378.6	12
378.8	7
378.9	14
379.0	21
379.1	22
379.2	16
380.1	5
380.2	12
380.3	18
380.4	18
380.5	12
380.7	5
380.8	11
380.9	18
381.0	20
381.1	16
381.3	8
381.4	11
381.5	18
381.6	23
381.7	21
381.8	14
382.0	5
382.1	10
382.2	17
382.3	19
382.4	15
382.6	9
382.7	14
382.8	21
382.9	25
383.0	21
383.1	12
383.3	8
383.4	14
383.5	19
383.6	18
383.7	12
383.9	9
384.0	15
384.1	20
384.2	20
384.3	14
384.5	4
384.6	9
384.7	18
384.8	24
384.9	20
385.0	11
385.2	2
385.3	9
385.4	15
385.5	16
385.6	11
385.8	5
385.9	12
386.0	22
386.1	26
386.2	21
386.3	13
386.5	10
386.6	16
386.7	21
386.8	21
386.9	16
387.1	11
387.2	15
387.3	18
387.4	19
387.5	16
388.4	5
388.5	13
388.6	21
388.7	24
388.8	18
389.7	8
389.8	15
389.9	19
390.0	19
390.1	14
390.3	9
390.4	14
390.5	20
390.6	20
390.7	15
390.9	7
391.0	12
391.1	19
391.2	24
391.3	21
391.4	14
391.6	9
391.7	15
391.8	21
391.9	21
392.0	16
392.2	7
392.3	12
392.4	19
392.5	23
392.6	20
392.7	12
392.9	6
393.0	12
393.1	19
393.2	22
393.3	17
393.5	6
393.6	12
393.7	22
393.8	28
393.9	23
394.0	12
394.2	6
394.3	15
394.4	22
394.5	21
394.6	13
394.8	8
394.9	15
395.0	22
395.1	22
395.2	15
395.4	4
395.5	8
395.6	16
395.7	20
395.8	18
395.9	11
396.1	5
396.2	13
396.3	23
396.4	28
396.5	24
396.6	15
396.8	12
396.9	19
397.0	23
397.1	20
397.2	13
397.4	10
397.5	16
397.6	20
397.7	19
397.8	12
398.0	9
398.1	18
398.2	25
398.3	25
398.4	18
398.7	10
398.8	18
398.9	23
399.0	21
399.1	13
399.3	2
399.4	8
399.5	17
399.6	19
399.7	14
399.9	5
400.0	12
400.1	21
400.2	26
400.3	21
400.4	11
400.6	4
400.7	10
400.8	16
400.9	16
401.0	11
401.2	5
401.3	11
401.4	20
401.5	24
401.6	20
401.7	12
401.9	10
402.0	17
402.1	20
402.2	16
402.5	9
402.6	17
402.7	24
402.8	23
402.9	15
403.1	5
403.2	11
403.3	18
403.4	21
403.5	18
403.6	12
403.8	9
403.9	12
404.0	16
404.1	17
404.2	14
404.4	8
404.5	13
404.6	20
404.7	22
404.8	16
405.1	7
405.2	15
405.3	19
405.4	16
405.6	6
405.7	10
405.8	19
405.9	26
406.0	24
406.1	15
406.3	5
406.4	11
406.5	19
406.6	21
406.7	16
407.6	7
407.7	12
407.8	19
407.9	20
408.0	16
408.2	8
408.3	12
408.4	18
408.5	20
408.6	16
408.8	5
408.9	9
409.0	17
409.1	21
409.2	18
409.3	10
409.5	3
409.6	11
409.7	20
409.8	24
409.9	19
410.0	12
410.2	8
410.3	12
410.4	13
410.5	10
410.7	1
410.8	5
410.9	14
411.0	22
411.1	22
411.2	16
411.5	9
411.6	16
411.7	21
411.8	19
411.9	11
412.1	6
412.2	13
412.3	20
412.4	21
412.5	16
412.7	9
412.8	15
412.9	21
413.0	20
413.1	13
413.3	4
413.4	11
413.5	20
413.6	25
413.7	22
413.8	12
414.0	5
414.1	12
414.2	21
414.3	23
414.4	18
415.3	9
415.4	16
415.5	20
415.6	17
415.7	10
415.9	5
416.0	11
416.1	17
416.2	18
416.3	13
416.5	4
416.6	7
416.7	15
416.8	21
416.9	21
417.0	14
417.2	6
417.3	12
417.4	21
417.5	24
417.6	19
417.7	10
417.9	8
418.0	14
418.1	18
418.2	16
418.3	11
418.5	10
418.6	15
418.7	18
418.8	16
418.9	11
419.1	8
419.2	13
419.3	18
419.4	18
419.5	14
419.7	6
419.8	10
419.9	16
420.0	19
420.1	18
420.2	13
420.4	9
420.5	15
420.6	19
420.7	17
420.8	10
421.0	6
421.1	12
421.2	18
421.3	20
421.4	16
421.5	9
421.7	4
421.8	11
421.9	17
422.0	18
422.1	13
422.3	6
422.4	11
422.5	19
422.6	21
422.7	16
423.0	8
423.1	15
423.2	20
423.3	18
423.4	11
423.6	7
423.7	14
423.8	22
423.9	22
424.0	14
424.2	1
424.3	7
424.4	18
424.5	26
424.6	23
424.7	15
424.9	7
425.0	13
425.1	20
425.2	22
425.3	16
425.5	5
425.6	10
425.7	18
425.8	20
425.9	16
426.8	2
426.9	9
427.0	15
427.1	17
427.2	13
427.4	9
427.5	12
427.6	16
427.7	18
427.8	16
428.1	11
428.2	17
428.3	21
428.4	19
428.5	12
428.7	5
428.8	11
428.9	18
429.0	20
429.1	16
429.3	5
429.4	9
429.5	18
429.6	24
429.7	23
429.8	16
430.0	8
430.1	13
430.2	19
430.3	21
430.4	16
430.6	7
430.7	11
430.8	17
430.9	19
431.0	15
431.3	7
431.4	16
431.5	22
431.6	20
431.7	12
431.9	3
432.0	9
432.1	16
432.2	18
432.3	14
432.5	5
432.6	10
432.7	19
432.8	23
432.9	20
433.0	11
433.2	5
433.3	11
433.4	18
433.5	20
433.6	16
433.8	8
433.9	13
434.0	21
434.1	23
434.2	19
434.3	10
434.5	8
434.6	15
434.7	21
434.8	21
434.9	15
435.1	8
435.2	13
435.3	20
435.4	21
435.5	16
435.6	8
435.8	7
435.9	14
436.0	18
436.1	17
436.2	11
436.4	8
436.5	14
436.6	20
436.7	21
436.8	16
437.6	5
437.7	9
437.8	17
437.9	24
438.0	23
438.1	15
438.3	7
438.4	14
438.5	20
438.6	21
438.7	16
438.9	7
439.0	12
439.1	20
439.2	26
439.3	23
439.4	15
440.2	8
440.3	15
440.4	24
440.5	26
440.6	20
440.7	9
440.9	6
441.0	15
441.1	23
441.2	22
441.3	15
441.5	7
441.6	12
441.7	19
441.8	23
441.9	19
442.0	11
442.2	9
442.3	15
442.4	19
442.5	16
442.6	10
442.8	8
442.9	14
443.0	20
443.1	20
443.2	16
443.4	9
443.5	13
443.6	17
443.7	18
443.8	14
444.0	5
444.1	10
444.2	18
444.3	25
444.4	25
444.5	18
444.8	11
444.9	17
445.0	21
445.1	18
445.2	11
445.4	10
445.5	17
445.6	20
445.7	17
445.8	10
446.0	8
446.1	14
446.2	20
446.3	19
446.4	13
446.6	4
446.7	8
446.8	16
446.9	23
447.0	21
447.1	13
447.3	3
447.4	9
447.5	15
447.6	16
447.7	11
447.9	7
448.0	15
448.1	22
448.2	23
448.3	16
448.6	6
448.7	16
448.8	22
448.9	21
449.0	12
449.2	4
449.3	12
449.4	20
449.5	22
449.6	16
449.8	7
449.9	12
450.0	18
450.1	19
450.2	15
450.3	9
450.5	7
450.6	13
450.7	18
450.8	20
450.9	17
451.8	5
451.9	13
452.0	20
452.1	20
452.2	13
452.4	5
452.5	12
452.6	21
452.7	25
452.8	20
453.1	11
453.2	20
453.3	25
453.4	21
453.5	11
453.7	6
453.8	15
453.9	21
454.0	20
454.1	13
454.3	6
454.4	10
454.5	16
454.6	17
454.7	15
454.9	9
455.0	13
455.1	20
455.2	23
455.3	18
455.6	8
455.7	18
455.8	25
455.9	23
456.0	14
456.2	4
456.3	10
456.4	20
456.5	26
456.6	22
456.7	11
456.9	4
457.0	12
457.1	19
457.2	18
457.3	10
457.5	5
457.6	11
457.7	19
457.8	22
457.9	19
458.0	12
458.2	7
458.3	14
458.4	20
458.5	20
458.6	15
458.8	9
458.9	15
459.0	23
459.1	25
459.2	18
459.5	8
459.6	18
459.7	23
459.8	20
459.9	12
460.1	7
460.2	15
460.3	22
460.4	22
460.5	14
460.7	1
460.8	8
460.9	20
461.0	26
461.1	22
461.2	13
461.4	8
461.5	15
461.6	21
461.7	19
461.8	9
462.0	0
462.1	8
462.2	17
462.3	21
462.4	17
462.5	10
462.7	6
462.8	11
462.9	14
463.0	12
463.2	4
463.3	8
463.4	17
463.5	24
463.6	23
463.7	16
464.5	8
464.6	12
464.7	19
464.8	22
464.9	19
465.0	12
465.2	7
465.3	15
465.4	22
465.5	22
465.6	14
465.8	5
465.9	11
466.0	19
466.1	23
466.2	19
466.3	11
466.5	7
466.6	13
466.7	18
466.8	18
466.9	13
467.1	7
467.2	12
467.3	18
467.4	19
467.5	15
467.7	6
467.8	10
467.9	17
468.0	23
468.1	22
468.2	14
468.4	5
468.5	11
468.6	18
468.7	19
468.8	14
469.0	3
469.1	8
469.2	16
469.3	22
469.4	20
469.5	13
469.7	9
469.8	16
469.9	21
470.0	20
470.1	13
470.3	8
470.4	14
470.5	20
470.6	20
470.7	13
471.0	5
471.1	14
471.2	21
471.3	21
471.4	14
471.6	8
471.7	14
471.8	20
471.9	21
472.0	15
472.2	4
472.3	8
472.4	17
472.5	24
472.6	23
472.7	14
472.9	5
473.0	12
473.1	19
473.2	20
473.3	14
473.5	3
473.6	8
473.7	17
473.8	22
473.9	18
474.0	11
474.2	8
474.3	15
474.4	19
474.5	17
474.6	11
474.8	7
474.9	15
475.0	23
475.1	24
475.2	19
476.1	9
476.2	17
476.3	23
476.4	23
476.5	15
476.7	6
476.8	11
476.9	19
477.0	22
477.1	18
477.4	11
477.5	17
477.6	21
477.7	18
477.8	11
478.0	5
478.1	12
478.2	19
478.3	21
478.4	14
478.7	5
478.8	15
478.9	23
479.0	22
479.1	14
479.3	9
479.4	16
479.5	20
479.6	17
479.7	8
479.9	5
480.0	14
480.1	22
480.2	23
480.3	16
480.5	5
480.6	10
480.7	18
480.8	22
480.9	19
481.0	10
481.2	6
481.3	13
481.4	21
481.5	22
481.6	16
481.8	5
481.9	10
482.0	18
482.1	20
482.2	15
482.4	5
482.5	9
482.6	18
482.7	22
482.8	18
482.9	9
483.1	4
483.2	12
483.3	20
483.4	23
483.5	19
484.4	6
484.5	13
484.6	20
484.7	20
484.8	13
485.0	2
485.1	7
485.2	16
485.3	21
485.4	19
485.5	13
485.7	9
485.8	16
485.9	21
486.0	21
486.1	16
486.4	11
486.5	16
486.6	19
486.7	17
486.8	12
487.0	9
487.1	14
487.2	20
487.3	20
487.4	14
487.6	8
487.7	13
487.8	20
487.9	23
488.0	18
488.1	9
488.3	8
488.4	16
488.5	20
488.6	17
488.7	9
488.9	5
489.0	14
489.1	22
489.2	25
489.3	20
489.4	12
489.6	9
489.7	15
489.8	18
489.9	16
490.0	10
490.2	8
490.3	15
490.4	20
490.5	18
490.6	10
490.8	7
490.9	17
491.0	25
491.1	24
491.2	15
491.4	6
491.5	13
491.6	21
491.7	23
491.8	18
492.0	9
492.1	13
492.2	20
492.3	23
492.4	20
492.5	12
492.7	6
492.8	13
492.9	20
493.0	22
493.1	17
493.2	9
493.4	6
493.5	14
493.6	21
493.7	21
493.8	14
494.0	6
494.1	12
494.2	19
494.3	22
494.4	18
494.5	12
495.2	6
495.3	9
495.4	15
495.5	20
495.6	20
495.7	14
495.9	6
496.0	11
496.1	19
496.2	22
496.3	19
496.4	13
496.6	11
496.7	16
496.8	19
496.9	17
497.0	12
497.2	9
497.3	15
497.4	20
497.5	20
497.6	15
498.5	8
498.6	14
498.7	20
498.8	19
498.9	13
499.1	7
499.2	14
499.3	20
499.4	21
499.5	16
499.7	6
499.8	10
499.9	17
500.0	22
500.1	21
500.2	13
500.4	6
500.5	12
500.6	19
500.7	20
500.8	14
501.0	7
501.1	13
501.2	20
501.3	21
501.4	16
501.5	9
501.7	7
501.8	12
501.9	17
502.0	17
502.1	12
502.3	9
502.4	15
502.5	21
502.6	21
502.7	15
502.9	7
503.0	11
503.1	18
503.2	22
503.3	19
503.4	12
503.6	7
503.7	13
503.8	18
503.9	19
504.0	15
504.3	9
504.4	14
504.5	18
504.6	17
504.9	10
505.0	17
505.1	22
505.2	19
505.3	10
505.5	4
505.6	11
505.7	19
505.8	21
505.9	16
506.0	9
506.2	7
506.3	12
506.4	17
506.5	18
506.8	13
506.9	18
507.0	23
507.1	23
507.2	16
507.4	6
507.5	11
507.6	19
507.7	21
507.8	17
507.9	10
508.1	9
508.2	16
508.3	22
508.4	20
508.5	12
508.7	4
508.8	11
508.9	20
509.0	23
509.1	16
509.2	5
509.4	4
509.5	13
509.6	19
509.7	18
509.8	10
510.0	3
510.1	11
510.2	20
510.3	24
510.4	20
510.5	11
510.7	10
510.8	17
510.9	21
511.0	17
511.1	10
511.3	8
511.4	14
511.5	19
511.6	18
511.7	13
511.9	8
512.0	14
512.1	21
512.2	23
512.3	17
512.4	8
512.6	6
512.7	14
512.8	22
512.9	23
513.0	16
513.2	7
513.3	11
513.4	18
513.5	20
513.6	16
513.9	9
514.0	15
514.1	20
514.2	19
514.3	12
514.5	7
514.6	13
514.7	19
514.8	18
514.9	12
515.1	7
515.2	14
515.3	21
515.4	21
515.5	14
515.7	3
515.8	9
515.9	17
516.0	20
516.1	16
516.4	7
516.5	15
516.6	21
516.7	20
516.8	12
517.0	1
517.1	7
517.2	16
517.3	22
517.4	21
517.5	14
517.7	9
517.8	15
517.9	19
518.0	19
518.1	13
518.3	9
518.4	14
518.5	20
518.6	20
518.7	13
518.9	2
519.0	8
519.1	16
519.2	21
519.3	19
519.4	11
519.6	2
519.7	9
519.8	17
519.9	20
520.0	15
520.2	7
520.3	12
520.4	18
520.5	19
520.6	16
520.9	10
521.0	15
521.1	20
521.2	20
521.3	15
521.6	7
521.7	16
521.8	22
521.9	20
522.0	12
522.2	6
522.3	14
522.4	19
522.5	19
522.6	13
522.8	9
522.9	14
523.0	20
523.1	21
523.2	15
523.4	5
523.5	10
523.6	17
523.7	21
523.8	19
523.9	13
524.1	7
524.2	13
524.3	20
524.4	22
524.5	17
525.3	6
525.4	11
525.5	18
525.6	22
525.7	18
525.8	10
526.0	4
526.1	10
526.2	17
526.3	18
526.4	14
526.6	8
526.7	12
526.8	17
526.9	19
527.0	15
527.3	9
527.4	16
527.5	20
527.6	18
527.7	13
527.9	9
528.0	14
528.1	19
528.2	19
528.3	15
528.5	5
528.6	9
528.7	17
528.8	22
528.9	19
529.0	10
529.2	5
529.3	13
529.4	22
529.5	23
529.6	15
529.8	2
529.9	7
530.0	16
530.1	22
530.2	19
530.3	12
530.5	8
530.6	16
530.7	22
530.8	21
530.9	13
531.1	3
531.2	9
531.3	17
531.4	18
531.5	12
531.7	1
531.8	8
531.9	19
532.0	23
532.1	20
532.2	12
532.4	7
532.5	13
532.6	18
532.7	19
532.8	14
533.0	8
533.1	13
533.2	19
533.3	22
533.4	19
533.5	13
533.7	9
533.8	14
533.9	20
534.0	21
534.1	15
534.3	5
534.4	11
534.5	19
534.6	21
534.7	16
535.0	11
535.1	16
535.2	18
535.3	16
535.4	12
535.6	8
535.7	12
535.8	18
535.9	20
536.0	16
536.1	9
536.3	5
536.4	10
536.5	15
536.6	15
536.9	9
537.0	15
537.1	21
537.2	21
537.3	14
537.5	6
537.6	12
537.7	21
537.8	23
537.9	17
538.0	8
538.2	7
538.3	16
538.4	23
538.5	23
538.6	17
538.8	9
538.9	15
539.0	22
539.1	23
539.2	16
539.3	8
539.5	7
539.6	14
539.7	18
539.8	17
539.9	10
540.1	7
540.2	13
540.3	19
540.4	18
540.5	12
540.7	6
540.8	13
540.9	20
541.0	22
541.1	18
541.2	10
541.4	9
541.5	15
541.6	20
541.7	19
541.8	14
542.0	9
542.1	15
542.2	21
542.3	22
542.4	17
542.6	7
542.7	11
542.8	18
542.9	21
543.0	17
543.1	11
543.3	8
543.4	15
543.5	21
543.6	21
543.7	13
543.9	3
544.0	10
544.1	19
544.2	23
544.3	19
544.4	12
544.6	10
544.7	15
544.8	19
544.9	17
545.0	11
545.2	8
545.3	14
545.4	19
545.5	20
545.6	16
545.8	8
545.9	12
546.0	20
546.1	25
546.2	22
546.3	14
546.5	7
546.6	14
546.7	20
546.8	18
546.9	11
547.1	7
547.2	15
547.3	22
547.4	23
547.5	18
547.6	10
547.8	8
547.9	15
548.0	20
548.1	18
548.2	11
548.4	8
548.5	17
548.6	25
548.7	25
548.8	18
549.0	5
549.1	11
549.2	20
549.3	26
549.4	22
549.5	14
549.7	11
549.8	17
549.9	22
550.0	20
550.1	13
550.3	6
550.4	11
550.5	17
550.6	19
550.7	14
550.9	7
551.0	11
551.1	18
551.2	21
551.3	19
551.4	13
551.6	10
551.7	15
551.8	20
551.9	20
552.0	15
552.2	6
552.3	10
552.4	17
552.5	21
552.6	17
552.7	9
552.9	7
553.0	15
553.1	22
553.2	21
553.3	15
553.5	6
553.6	13
553.7	21
553.8	24
553.9	19
554.2	11
554.3	19
554.4	24
554.5	21
554.6	14
554.8	7
554.9	13
555.0	21
555.1	22
555.2	16
555.3	6
555.5	4
555.6	12
555.7	19
555.8	18
556.0	6
556.1	10
556.2	21
556.3	28
556.4	26
556.5	15
556.7	1
556.8	7
556.9	16
557.0	21
557.1	18
557.2	10
557.4	9
557.5	16
557.6	21
557.7	18
557.8	10
558.0	4
558.1	12
558.2	21
558.3	23
558.4	17
559.3	7
559.4	13
559.5	19
559.6	20
559.7	16
559.9	9
560.0	13
560.1	19
560.2	22
560.3	18
560.4	10
560.6	7
560.7	13
560.8	17
560.9	15
561.2	8
561.3	15
561.4	22
561.5	21
561.6	14
561.8	6
561.9	14
562.0	23
562.1	26
562.2	19
562.3	8
562.5	6
562.6	14
562.7	19
562.8	18
562.9	13
563.1	7
563.2	13
563.3	20
563.4	21
563.5	16
563.6	7
563.8	5
563.9	14
564.0	22
564.1	21
564.2	14
564.4	5
564.5	12
564.6	19
564.7	21
564.8	15
565.0	6
565.1	11
565.2	18
565.3	20
565.4	15
565.5	7
565.7	5
565.8	13
565.9	21
566.0	21
566.1	14
566.3	6
566.4	10
566.5	16
566.6	18
566.7	15
566.9	9
567.0	12
567.1	17
567.2	19
567.3	17
567.4	11
567.6	8
567.7	13
567.8	18
567.9	19
568.0	15
568.2	7
568.3	11
568.4	17
568.5	21
568.6	19
568.7	13
568.9	11
569.0	16
569.1	19
569.2	16
569.5	7
569.6	16
569.7	25
569.8	26
569.9	18
570.0	8
570.2	7
570.3	15
570.4	20
570.5	18
570.6	12
570.8	9
570.9	14
571.0	20
571.1	21
571.2	15
571.5	5
571.6	13
571.7	18
571.8	17
571.9	14
572.1	13
572.2	16
572.3	18
572.4	16
572.5	10
572.7	2
572.8	8
572.9	18
573.0	21
573.1	16
573.4	7
573.5	16
573.6	22
573.7	19
573.8	11
574.0	7
574.1	14
574.2	20
574.3	19
574.4	14
575.2	7
575.3	11
575.4	17
575.5	20
575.6	18
575.7	12
575.9	6
576.0	13
576.1	20
576.2	22
576.3	17
576.4	9
576.6	6
576.7	14
576.8	20
576.9	19
577.0	12
577.2	6
577.3	13
577.4	20
577.5	21
577.6	15
577.7	9
577.9	8
578.0	13
578.1	16
578.2	14
578.5	8
578.6	15
578.7	22
578.8	21
578.9	14
579.1	5
579.2	10
579.3	17
579.4	20
579.5	17
580.4	11
580.5	16
580.6	20
580.7	20
580.8	15
581.1	7
581.2	14
581.3	18
581.4	16
581.5	10
581.7	8
581.8	15
581.9	21
582.0	22
582.1	15
582.3	7
582.4	13
582.5	19
582.6	20
582.7	14
582.8	7
583.0	7
583.1	12
583.2	16
583.3	14
583.6	8
583.7	15
583.8	21
583.9	22
584.0	16
584.3	7
584.4	15
584.5	22
584.6	23
584.7	17
584.9	10
585.0	16
585.1	22
585.2	22
585.3	15
585.5	8
585.6	14
585.7	22
585.8	24
585.9	19
586.0	10
586.2	7
586.3	12
586.4	15
586.5	12
586.8	7
586.9	13
587.0	18
587.1	19
587.2	16
587.5	8
587.6	15
587.7	20
587.8	18
587.9	10
588.1	5
588.2	11
588.3	18
588.4	18
588.5	13
588.7	6
588.8	11
588.9	19
589.0	23
589.1	18
589.4	10
589.5	18
589.6	22
589.7	20
589.8	12
590.0	8
590.1	16
590.2	23
590.3	25
590.4	19
590.7	11
590.8	19
590.9	23
591.0	19
591.1	11
591.3	6
591.4	12
591.5	18
591.6	18
591.7	12
591.9	5
592.0	11
592.1	17
592.2	19
592.3	16
592.5	11
592.6	16
592.7	22
592.8	24
592.9	18
593.0	10
593.2	6
593.3	14
593.4	23
593.5	25
593.6	17
593.9	7
594.0	16
594.1	21
594.2	18
594.3	10
594.5	8
594.6	15
594.7	21
594.8	20
594.9	14
595.1	7
595.2	14
595.3	22
595.4	25
595.5	20
595.8	12
595.9	19
596.0	22
596.1	19
596.2	12
596.4	9
596.5	16
596.6	21
596.7	21
596.8	15
597.0	6
597.1	11
597.2	19
597.3	22
597.4	17
597.5	8
597.7	7
597.8	16
597.9	22
598.0	22
598.1	16
598.3	9
598.4	14
598.5	20
598.6	23
598.7	17
598.8	9
599.0	7
599.1	16
599.2	22
599.3	21
599.4	13
