Mass spectrum: Vincadifformine; LC-ESI-QQQ; MS2; Frag=135.0V CID@5.0 ; [M+H]+
Name: Vincadifformine
Class: Alkaloids
Formula: C21H26N2O2
Exact mass: 338.45357
SMILES: CC[C@]12CCCN3CCC4(C(=C(C(=O)OC)C1)Nc1ccccc14)C32
InChI: InChI=1S/C21H26N2O2/c1-3-20-9-6-11-23-12-10-21(19(20)23)15-7-4-5-8-16(15)22-17(21)14(13-20)18(24)25-2/h4-5,7-8,19,22H,3,6,9-13H2,1-2H3/t19?,20-,21?/m0/s1
Instrument: Agilent 6410 Triple Quadrupole LC/MS system
Instrument type: LC-ESI-QQQ
Ms type: MS2
Ion mode: POSITIVE
Precursor type: [M+H]+
m/z	relative intensity
306.9	2
307.0	3
307.1	5
307.2	5
307.3	6
307.4	5
307.5	3
307.6	1
338.4	1
338.5	3
338.6	6
338.7	11
338.8	21
338.9	39
339.0	62
339.1	82
339.2	96
339.3	99
339.4	89
339.5	63
339.6	31
339.7	6
339.8	0
