Mass spectrum: Lactonic acid; LC-ESI-QQQ; MS2;  Frag=135.0V CID@15.0 ; [M+Na]+
Name: Lactonic acid
Class: Aliphatic natural products
Formula: C12H22O12
Exact mass: 358.30194
SMILES: O=C(O)[C@@H](O)[C@@H](O)C(O[C@@H]1O[C@H](CO)[C@H](O)[C@H](O)[C@H]1O)[C@@H](O)CO
InChI: InChI=1S/C12H22O12/c13-1-3(15)10(7(18)8(19)11(21)22)24-12-9(20)6(17)5(16)4(2-14)23-12/h3-10,12-20H,1-2H2,(H,21,22)/t3-,4+,5-,6-,7+,8-,9+,10?,12-/m0/s1
Instrument: Agilent 6410 Triple Quadrupole LC/MS system
Instrument type: LC-ESI-QQQ
Ms type: MS2
Ion mode: POSITIVE
Precursor type: [M+Na]+
m/z	relative intensity
218.5	1
218.6	3
218.7	6
218.8	8
218.9	7
219.0	5
380.1	1
380.2	2
380.3	5
380.4	8
380.5	12
380.6	17
380.7	28
380.8	48
380.9	73
381.0	94
381.1	99
381.2	89
381.3	69
381.4	44
381.5	20
381.6	2
