Mass spectrum: Hyrcanogenin; LC-ESI-QQQ; MS2; Frag=135.0V CID@5.0; [M+H]+
Name: Hyrcanogenin
Class: Steroids
Formula: C23H30O5
Exact mass: 386.4926
SMILES: C[C@]12CCC3C(CCC4=CC(O)CC[C@@]43C=O)C1(O)CCC2C1=CC(=O)OC1
InChI: InChI=1S/C23H30O5/c1-21-7-5-18-19(3-2-15-11-16(25)4-8-22(15,18)13-24)23(21,27)9-6-17(21)14-10-20(26)28-12-14/h10-11,13,16-19,25,27H,2-9,12H2,1H3/t16?,17?,18?,19?,21-,22-,23?/m1/s1
Instrument: Agilent 6410 Triple Quadrupole LC/MS system
Instrument type: LC-ESI-QQQ
Ms type: MS2
Ion mode: POSITIVE
Precursor type: [M+H]+
m/z	relative intensity
152.6	2
152.7	3
152.8	5
152.9	7
153.0	9
153.1	10
153.2	9
153.3	7
153.4	5
153.5	2
154.5	1
154.6	2
154.7	4
154.8	7
154.9	9
155.0	10
155.1	10
155.2	10
155.3	8
155.4	6
155.5	3
186.5	0
186.6	1
186.7	3
186.8	5
186.9	6
187.0	8
187.1	10
187.2	11
187.3	10
187.4	7
187.5	3
304.9	1
305.0	2
305.1	4
305.2	5
305.3	4
305.4	3
305.5	2
322.3	0
322.4	1
322.5	4
322.6	7
322.7	11
322.8	18
322.9	30
323.0	46
323.1	61
323.2	70
323.3	70
323.4	62
323.5	45
323.6	24
323.7	6
323.8	0
332.7	2
332.8	3
332.9	6
333.0	9
333.1	12
333.2	12
333.3	11
333.4	9
333.5	6
333.6	2
340.4	1
340.5	3
340.6	7
340.7	16
340.8	29
340.9	46
341.0	65
341.1	83
341.2	95
341.3	99
341.4	90
341.5	65
341.6	34
341.7	8
341.8	0
350.4	2
350.5	4
350.6	7
350.7	13
350.8	22
350.9	36
351.0	51
351.1	64
351.2	72
351.3	73
351.4	64
351.5	46
351.6	22
351.7	4
368.4	1
368.5	2
368.6	5
368.7	9
368.8	13
368.9	19
369.0	25
369.1	31
369.2	34
369.3	34
369.4	31
369.5	24
369.6	14
369.7	4
369.8	0
386.6	2
386.7	3
386.8	6
386.9	10
387.0	14
387.1	20
387.2	24
387.3	25
387.4	22
387.5	15
387.6	7
387.7	1
