Mass spectrum: Crustecdysone; LC-ESI-QQQ; MS2; Frag=135.0V CID@10.0; [M+HCOO]-
Name: Crustecdysone
Class: Steroids
Formula: C27H44O7
Exact mass: 480.6475
SMILES: CC(C)(O)CC[C@@H](O)[C@](C)(O)[C@H]1CC[C@@]2(O)C3=CC(=O)[C@@H]4C[C@@H](O)[C@@H](O)C[C@]4(C)[C@H]3CC[C@]12C
InChI: InChI=1S/C27H44O7/c1-23(2,32)9-8-22(31)26(5,33)21-7-11-27(34)16-12-18(28)17-13-19(29)20(30)14-24(17,3)15(16)6-10-25(21,27)4/h12,15,17,19-22,29-34H,6-11,13-14H2,1-5H3/t15-,17-,19+,20-,21-,22+,24+,25+,26+,27+/m0/s1
Instrument: Agilent 6410 Triple Quadrupole LC/MS system
Instrument type: LC-ESI-QQQ
Ms type: MS2
Ion mode: NEGATIVE
Precursor type: [M+HCOO]-
m/z	relative intensity
158.8	2
158.9	3
159.0	5
159.1	7
159.2	7
159.3	5
159.4	2
478.3	0
478.4	2
478.5	7
478.6	15
478.7	25
478.8	39
478.9	61
479.0	85
479.1	99
479.2	99
479.3	93
479.4	88
479.5	82
479.6	65
479.7	36
479.8	10
479.9	0
524.3	0
524.4	1
524.5	4
524.6	8
524.7	15
524.8	20
524.9	24
525.0	29
525.1	35
525.2	43
525.3	48
525.4	47
525.5	38
525.6	23
525.7	8
525.8	1
