Mass spectrum: Vulgarin; LC-ESI-QQQ; MS2; Frag=135.0V CID@15.0; [M+H]+
Name: Vulgarin
Class: Terpenoids
Formula: C15H20O4
Exact mass: 264.3243
SMILES: C[C@@H]1C(=O)O[C@H]2C1CC[C@@]1(C)C(=O)C=C[C@@](C)(O)[C@H]21
InChI: InChI=1S/C15H20O4/c1-8-9-4-6-14(2)10(16)5-7-15(3,18)12(14)11(9)19-13(8)17/h5,7-9,11-12,18H,4,6H2,1-3H3/t8-,9?,11-,12+,14-,15+/m0/s1
Instrument: Agilent 6410 Triple Quadrupole LC/MS system
Instrument type: LC-ESI-QQQ
Ms type: MS2
Ion mode: POSITIVE
Precursor type: [M+H]+
m/z	relative intensity
68.5	3
68.6	5
68.7	8
68.8	13
68.9	18
69.0	22
69.1	24
69.2	21
69.3	15
69.4	7
69.5	1
82.6	2
82.7	4
82.8	6
82.9	8
83.0	10
83.1	9
83.2	6
83.3	3
92.6	2
92.7	5
92.8	9
92.9	12
93.0	13
93.1	12
93.2	10
93.3	8
93.4	5
93.5	2
96.5	2
96.6	4
96.7	5
96.8	7
96.9	8
97.0	9
97.1	10
97.2	9
97.3	6
97.4	2
104.6	3
104.7	4
104.8	6
104.9	10
105.0	14
105.1	17
105.2	16
105.3	11
105.4	7
105.5	3
106.5	2
106.6	3
106.7	4
106.8	5
106.9	6
107.0	7
107.1	7
107.2	6
107.3	4
107.4	3
118.4	0
118.5	1
118.6	4
118.7	8
118.8	10
118.9	11
119.0	13
119.1	15
119.2	17
119.3	14
119.4	9
119.5	4
120.6	2
120.7	4
120.8	7
120.9	9
121.0	12
121.1	15
121.2	17
121.3	14
121.4	8
121.5	3
130.5	3
130.6	4
130.7	6
130.8	11
130.9	15
131.0	16
131.1	13
131.2	10
131.3	8
131.4	5
131.5	2
132.3	1
132.4	3
132.5	6
132.6	12
132.7	23
132.8	38
132.9	54
133.0	68
133.1	77
133.2	81
133.3	74
133.4	56
133.5	30
133.6	8
133.7	0
134.8	3
134.9	4
135.0	5
135.1	7
135.2	8
135.3	9
135.4	6
135.5	3
144.2	1
144.3	2
144.4	5
144.5	9
144.6	14
144.7	20
144.8	28
144.9	33
145.0	36
145.1	40
145.2	45
145.3	46
145.4	38
145.5	22
145.6	7
145.7	0
148.7	3
148.8	5
148.9	7
149.0	9
149.1	9
149.2	8
149.3	6
149.4	3
150.5	2
150.6	3
150.7	4
150.8	6
150.9	6
151.0	5
151.1	4
151.2	3
151.3	2
151.4	1
151.5	0
151.6	0
151.7	0
151.8	0
151.9	0
152.0	0
152.1	0
152.2	0
152.3	0
152.4	0
152.5	0
152.6	0
152.7	0
152.8	0
152.9	0
153.0	0
153.1	0
153.2	0
153.3	1
153.4	1
153.5	1
153.6	0
153.7	0
153.8	0
153.9	0
154.0	0
154.1	0
154.2	0
154.3	1
154.4	0
154.5	0
154.6	1
154.7	3
154.8	5
154.9	6
155.0	4
155.1	2
158.0	2
158.1	4
158.2	6
158.3	7
158.4	5
158.5	4
158.6	5
158.7	9
158.8	16
158.9	24
159.0	30
159.1	31
159.2	29
159.3	23
159.4	16
159.5	8
159.6	2
160.7	3
160.8	5
160.9	7
161.0	9
161.1	10
161.2	10
161.3	8
161.4	5
161.5	3
162.6	1
162.7	4
162.8	9
162.9	15
163.0	17
163.1	15
163.2	10
163.3	5
163.4	1
172.1	2
172.2	4
172.3	8
172.4	12
172.5	13
172.6	14
172.7	22
172.8	38
172.9	59
173.0	80
173.1	95
173.2	99
173.3	93
173.4	75
173.5	46
173.6	17
173.7	0
176.6	2
176.7	3
176.8	8
176.9	16
177.0	24
177.1	27
177.2	24
177.3	18
177.4	12
177.5	7
177.6	3
182.7	3
182.8	5
182.9	11
183.0	18
183.1	24
183.2	24
183.3	20
183.4	13
183.5	6
183.6	2
188.7	1
188.8	3
188.9	5
189.0	6
189.1	5
189.2	3
190.5	1
190.6	2
190.7	5
190.8	12
190.9	20
191.0	28
191.1	30
191.2	26
191.3	20
191.4	12
191.5	6
191.6	2
200.1	0
200.2	2
200.3	5
200.4	8
200.5	9
200.6	7
200.7	11
200.8	22
200.9	38
201.0	52
201.1	58
201.2	58
201.3	53
201.4	43
201.5	27
201.6	10
201.7	0
218.6	1
218.7	4
218.8	11
218.9	19
219.0	24
219.1	27
219.2	25
219.3	21
219.4	15
219.5	8
219.6	2
228.6	0
228.7	2
228.8	5
228.9	8
229.0	9
229.1	8
229.2	6
229.3	3
246.7	1
246.8	3
246.9	5
247.0	7
247.1	7
247.2	5
247.3	3
264.6	1
264.7	3
264.8	5
264.9	7
265.0	7
265.1	7
265.2	8
265.3	10
265.4	9
265.5	5
265.6	1
