Mass spectrum: Vincadifformine; LC-ESI-QQQ; MS2; Frag=135.0V CID@10.0 ; [M+H]+
Name: Vincadifformine
Class: Alkaloids
Formula: C21H26N2O2
Exact mass: 338.45357
SMILES: CC[C@]12CCCN3CCC4(C(=C(C(=O)OC)C1)Nc1ccccc14)C32
InChI: InChI=1S/C21H26N2O2/c1-3-20-9-6-11-23-12-10-21(19(20)23)15-7-4-5-8-16(15)22-17(21)14(13-20)18(24)25-2/h4-5,7-8,19,22H,3,6,9-13H2,1-2H3/t19?,20-,21?/m0/s1
Instrument: Agilent 6410 Triple Quadrupole LC/MS system
Instrument type: LC-ESI-QQQ
Ms type: MS2
Ion mode: POSITIVE
Precursor type: [M+H]+
m/z	relative intensity
306.5	1
306.6	2
306.7	4
306.8	6
306.9	11
307.0	17
307.1	22
307.2	25
307.3	25
307.4	21
307.5	14
307.6	6
307.7	1
338.4	1
338.5	3
338.6	7
338.7	14
338.8	25
338.9	43
339.0	65
339.1	85
339.2	98
339.3	99
339.4	87
339.5	63
339.6	33
339.7	8
339.8	0
