Mass spectrum: Ugaferin; LC-ESI-QQQ; MS2; Frag=135.0V CID@25.0; [M+H]+
Name: Ugaferin
Class: Polycyclic aromatic natural products
Formula: C25H36O7
Exact mass: 448.5615
SMILES: COc1cc(C(=O)O[C@H]2C/C(C)=C\CC[C@]3(C)O[C@@H]3C(O)C2C(C)C)cc(OC)c1OC
InChI: InChI=1S/C25H36O7/c1-14(2)20-17(11-15(3)9-8-10-25(4)23(32-25)21(20)26)31-24(27)16-12-18(28-5)22(30-7)19(13-16)29-6/h9,12-14,17,20-21,23,26H,8,10-11H2,1-7H3/b15-9-/t17-,20?,21?,23+,25-/m0/s1
Instrument: Agilent 6410 Triple Quadrupole LC/MS system
Instrument type: LC-ESI-QQQ
Ms type: MS2
Ion mode: POSITIVE
Precursor type: [M+H]+
m/z	relative intensity
54.6	3
54.7	6
54.8	10
54.9	14
55.0	16
55.1	14
55.2	11
55.3	6
55.4	3
56.4	1
56.5	3
56.6	6
56.7	11
56.8	14
56.9	14
57.0	13
57.1	11
57.2	9
57.3	6
57.4	2
66.6	2
66.7	4
66.8	7
66.9	9
67.0	10
67.1	11
67.2	9
67.3	7
67.4	4
68.3	2
68.4	3
68.5	5
68.6	11
68.7	19
68.8	26
68.9	30
69.0	31
69.1	31
69.2	28
69.3	22
69.4	14
69.5	6
69.6	1
78.7	5
78.8	6
78.9	9
79.0	12
79.1	14
79.2	11
79.3	7
79.4	3
80.2	1
80.3	3
80.4	7
80.5	15
80.6	27
80.7	44
80.8	61
80.9	75
81.0	86
81.1	92
81.2	91
81.3	77
81.4	52
81.5	24
81.6	4
82.5	2
82.6	3
82.7	5
82.8	8
82.9	12
83.0	16
83.1	18
83.2	16
83.3	11
83.4	5
83.5	1
92.2	1
92.3	3
92.4	5
92.5	7
92.6	9
92.7	15
92.8	25
92.9	36
93.0	44
93.1	46
93.2	42
93.3	32
93.4	19
93.5	6
93.6	0
94.3	1
94.4	3
94.5	7
94.6	15
94.7	30
94.8	49
94.9	65
95.0	73
95.1	72
95.2	66
95.3	56
95.4	41
95.5	21
95.6	5
95.7	0
96.5	1
96.6	3
96.7	5
96.8	8
96.9	10
97.0	12
97.1	14
97.2	14
97.3	12
97.4	7
97.5	2
104.2	1
104.3	2
104.4	4
104.5	6
104.6	10
104.7	17
104.8	27
104.9	38
105.0	46
105.1	49
105.2	45
105.3	34
105.4	21
105.5	9
105.6	1
106.2	1
106.3	2
106.4	5
106.5	9
106.6	16
106.7	26
106.8	39
106.9	52
107.0	60
107.1	62
107.2	59
107.3	51
107.4	37
107.5	19
107.6	5
108.3	0
108.4	1
108.5	6
108.6	13
108.7	21
108.8	28
108.9	34
109.0	39
109.1	42
109.2	41
109.3	37
109.4	28
109.5	15
109.6	4
110.5	1
110.6	3
110.7	6
110.8	9
110.9	10
111.0	10
111.1	9
111.2	7
111.3	5
111.4	3
116.3	1
116.4	2
116.5	4
116.6	6
116.7	6
116.8	7
116.9	7
117.0	7
117.1	8
117.2	8
117.3	6
117.4	3
118.4	4
118.5	5
118.6	9
118.7	15
118.8	26
118.9	38
119.0	48
119.1	49
119.2	41
119.3	27
119.4	14
119.5	4
120.2	0
120.3	1
120.4	4
120.5	9
120.6	14
120.7	22
120.8	34
120.9	47
121.0	58
121.1	63
121.2	61
121.3	54
121.4	39
121.5	22
121.6	7
121.7	0
122.3	1
122.4	2
122.5	4
122.6	7
122.7	13
122.8	21
122.9	29
123.0	36
123.1	41
123.2	42
123.3	37
123.4	26
123.5	12
123.6	2
130.6	4
130.7	6
130.8	8
130.9	12
131.0	17
131.1	19
131.2	17
131.3	14
131.4	8
131.5	4
132.4	2
132.5	3
132.6	6
132.7	10
132.8	16
132.9	22
133.0	25
133.1	25
133.2	22
133.3	18
133.4	13
133.5	7
133.6	2
134.3	1
134.4	4
134.5	10
134.6	18
134.7	28
134.8	39
134.9	49
135.0	55
135.1	57
135.2	51
135.3	39
135.4	24
135.5	10
135.6	2
136.6	1
136.7	3
136.8	7
136.9	11
137.0	14
137.1	15
137.2	13
137.3	11
137.4	9
137.5	6
137.6	3
144.3	1
144.4	3
144.5	5
144.6	10
144.7	18
144.8	31
144.9	48
145.0	62
145.1	72
145.2	75
145.3	67
145.4	47
145.5	22
145.6	4
146.5	1
146.6	2
146.7	5
146.8	9
146.9	14
147.0	18
147.1	20
147.2	19
147.3	14
147.4	7
147.5	2
148.4	2
148.5	3
148.6	5
148.7	7
148.8	9
148.9	12
149.0	16
149.1	19
149.2	19
149.3	15
149.4	9
149.5	3
150.6	3
150.7	5
150.8	8
150.9	11
151.0	13
151.1	12
151.2	9
151.3	7
151.4	5
153.5	2
153.6	4
153.7	8
153.8	12
153.9	16
154.0	18
154.1	20
154.2	18
154.3	13
154.4	7
154.5	2
158.2	0
158.3	2
158.4	5
158.5	9
158.6	14
158.7	23
158.8	41
158.9	64
159.0	80
159.1	82
159.2	73
159.3	60
159.4	42
159.5	21
159.6	3
160.3	0
160.4	2
160.5	4
160.6	8
160.7	13
160.8	19
160.9	26
161.0	32
161.1	36
161.2	40
161.3	39
161.4	32
161.5	19
161.6	6
161.7	0
162.4	2
162.5	3
162.6	4
162.7	5
162.8	8
162.9	12
163.0	17
163.1	20
163.2	20
163.3	16
163.4	9
163.5	3
168.6	2
168.7	3
168.8	5
168.9	7
169.0	7
169.1	5
169.2	3
172.6	1
172.7	4
172.8	8
172.9	12
173.0	13
173.1	13
173.2	13
173.3	13
173.4	10
173.5	6
173.6	2
174.8	3
174.9	5
175.0	8
175.1	11
175.2	12
175.3	11
175.4	8
175.5	5
175.6	2
176.8	4
176.9	6
177.0	8
177.1	10
177.2	12
177.3	12
177.4	9
177.5	5
177.6	1
190.7	2
190.8	4
190.9	8
191.0	11
191.1	13
191.2	13
191.3	11
191.4	8
191.5	5
191.6	1
194.0	1
194.1	3
194.2	4
194.3	4
194.4	5
194.5	9
194.6	19
194.7	37
194.8	62
194.9	84
195.0	98
195.1	99
195.2	91
195.3	74
195.4	48
195.5	21
195.6	2
200.7	4
200.8	6
200.9	11
201.0	19
201.1	25
201.2	28
201.3	27
201.4	21
201.5	12
201.6	3
218.6	1
218.7	3
218.8	6
218.9	9
219.0	10
219.1	8
219.2	6
219.3	4
219.4	3
