Mass spectrum: Napelline; LC-ESI-QQQ; MS2; Frag=135.0V CID@15.0; [M+H]+
Name: Luciculine
Name: (5S,6S,10S,1R,2R,3R,9R,13R)-15-ethyl-13-methyl-4-methylene-15-azahexacyclo(7.7.2.1(2,5).0(2,8).0(9,16).0(13,18))nonadecane-3,6,10-triol
Name: Napelline
Class: Alkaloids
Formula: C22H33NO3
Exact mass: 359.5132
SMILES: C=C1[C@@H]2C[C@]3(C(C[C@@H]2O)[C@]24C5C[C@H]3[C@H]2N(CC)C[C@]5(C)CC[C@@H]4O)[C@@H]1O
InChI: InChI=1S/C22H33NO3/c1-4-23-10-20(3)6-5-17(25)22-15(20)7-13(18(22)23)21-9-12(11(2)19(21)26)14(24)8-16(21)22/h12-19,24-26H,2,4-10H2,1,3H3/t12-,13-,14-,15?,16?,17-,18+,19+,20-,21-,22-/m0/s1
Instrument: Agilent 6410 Triple Quadrupole LC/MS system
Instrument type: LC-ESI-QQQ
Ms type: MS2
Ion mode: POSITIVE
Precursor type: [M+H]+
m/z	relative intensity
341.7	1
341.8	3
341.9	5
342.0	9
342.1	12
342.2	15
342.3	15
342.4	14
342.5	12
342.6	7
342.7	3
359.4	1
359.5	3
359.6	7
359.7	11
359.8	20
359.9	35
360.0	56
360.1	78
360.2	93
360.3	99
360.4	96
360.5	81
360.6	55
360.7	26
360.8	5
360.9	0
