Mass spectrum: Gyrophoric acid; LC-ESI-QQQ; MS2; Frag=135.0V CID@10.0; [M+Na]+
Name: Gyrophoric acid
Class: Carbohydrates
Formula: C24H20O10
Exact mass: 468.421
SMILES: Cc1cc(OC(=O)c2c(C)cc(OC(=O)c3c(C)cc(O)cc3O)cc2O)cc(O)c1C(=O)O
InChI: InChI=1S/C24H20O10/c1-10-4-13(25)7-16(26)20(10)23(31)34-15-6-12(3)21(18(28)9-15)24(32)33-14-5-11(2)19(22(29)30)17(27)8-14/h4-9,25-28H,1-3H3,(H,29,30)
Instrument: Agilent 6410 Triple Quadrupole LC/MS system
Instrument type: LC-ESI-QQQ
Ms type: MS2
Ion mode: POSITIVE
Precursor type: [M+Na]+
m/z	relative intensity
172.0	0
172.1	2
172.2	5
172.3	9
172.4	15
172.5	24
172.6	38
172.7	55
172.8	69
172.9	81
173.0	92
173.1	99
173.2	93
173.3	66
173.4	30
173.5	4
322.7	3
322.8	5
322.9	8
323.0	11
323.1	12
323.2	11
323.3	7
323.4	3
