Mass spectrum: Lycaconitine; LC-ESI-QQQ; MS2; Frag=135.0V CID@10.0; [M+H]+
Name: Lycaconitine
Class: Alkaloids
Formula: C36H48N2O10
Exact mass: 668.7914
SMILES: CCN1C[C@]2(COC(=O)c3ccccc3N3C(=O)CCC3=O)CC[C@H](OC)[C@]34C5C[C@@H]6[C@@H](OC)C[C@@](O)(C5[C@H]6OC)[C@](O)(C13)[C@@H](OC)C24
InChI: InChI=1S/C36H48N2O10/c1-6-37-17-33(18-48-31(41)19-9-7-8-10-22(19)38-25(39)11-12-26(38)40)14-13-24(45-3)35-21-15-20-23(44-2)16-34(42,27(21)28(20)46-4)36(43,32(35)37)30(47-5)29(33)35/h7-10,20-21,23-24,27-30,32,42-43H,6,11-18H2,1-5H3/t20-,21?,23+,24+,27?,28+,29?,30+,32?,33+,34-,35+,36-/m1/s1
Instrument: Agilent 6410 Triple Quadrupole LC/MS system
Instrument type: LC-ESI-QQQ
Ms type: MS2
Ion mode: POSITIVE
Precursor type: [M+H]+
m/z	relative intensity
668.3	0
668.4	1
668.5	4
668.6	7
668.7	11
668.8	18
668.9	30
669.0	49
669.1	69
669.2	85
669.3	96
669.4	99
669.5	92
669.6	72
669.7	43
669.8	16
669.9	0
