Mass spectrum: 3',4',6-Trimethoxyflavanone; LC-ESI-QQQ; MS2; Frag=135.0V CID@10.0; [M+H]+
Name: 3',4',6-Trimethoxyflavanone
Class: Flavonoids
Formula: C18H18O5
Exact mass: 314.3412
SMILES: COc1ccc2c(c1)C(=O)CC(c1ccc(OC)c(OC)c1)O2
InChI: InChI=1S/C18H18O5/c1-20-12-5-7-15-13(9-12)14(19)10-17(23-15)11-4-6-16(21-2)18(8-11)22-3/h4-9,17H,10H2,1-3H3
Instrument: Agilent 6410 Triple Quadrupole LC/MS system
Instrument type: LC-ESI-QQQ
Ms type: MS2
Ion mode: POSITIVE
Precursor type: [M+H]+
m/z	relative intensity
150.4	1
150.5	2
150.6	5
150.7	9
150.8	13
150.9	18
151.0	21
151.1	21
151.2	20
151.3	16
151.4	11
151.5	6
151.6	1
176.5	1
176.6	3
176.7	6
176.8	9
176.9	12
177.0	14
177.1	15
177.2	15
177.3	13
177.4	10
177.5	5
177.6	1
190.4	1
190.5	3
190.6	8
190.7	14
190.8	22
190.9	30
191.0	36
191.1	40
191.2	40
191.3	36
191.4	28
191.5	16
191.6	5
191.7	0
314.3	0
314.4	1
314.5	5
314.6	12
314.7	23
314.8	40
314.9	62
315.0	82
315.1	96
315.2	99
315.3	92
315.4	71
315.5	42
315.6	15
315.7	0
