Mass spectrum: Brevicarine; LC-ESI-QQQ; MS2; Frag=135.0V CID@15.0; [M+H]+
Name: Brevicarine
Class: Alkaloids
Formula: C17H21N3
Exact mass: 267.377
SMILES: CNCCCCc1cnc(C)c2[nH]c3ccccc3c12
InChI: InChI=1S/C17H21N3/c1-12-17-16(14-8-3-4-9-15(14)20-17)13(11-19-12)7-5-6-10-18-2/h3-4,8-9,11,18,20H,5-7,10H2,1-2H3
Instrument: Agilent 6410 Triple Quadrupole LC/MS system
Instrument type: LC-ESI-QQQ
Ms type: MS2
Ion mode: POSITIVE
Precursor type: [M+H]+
m/z	relative intensity
194.5	1
194.6	2
194.7	4
194.8	6
194.9	7
195.0	9
195.1	9
195.2	8
195.3	5
195.4	2
236.3	1
236.4	2
236.5	5
236.6	9
236.7	15
236.8	25
236.9	38
237.0	52
237.1	62
237.2	63
237.3	55
237.4	42
237.5	26
237.6	10
237.7	0
267.2	0
267.3	1
267.4	4
267.5	7
267.6	14
267.7	24
267.8	39
267.9	57
268.0	76
268.1	91
268.2	99
268.3	98
268.4	85
268.5	60
268.6	30
268.7	7
268.8	0
