Mass spectrum: Neotigogenin; LC-ESI-QQQ; MS2; Frag=135.0V CID@5.0 ; [M+H]+
Name: Neotigogenin
Class: Steroids
Formula: C27H44O3
Exact mass: 416.64993000000004
SMILES: CC1CC[C@@]2(OC1)OC1CC3C4CC[C@H]5CC(O)CC[C@]5(C)C4CC[C@]3(C)C1[C@@H]2C
InChI: InChI=1S/C27H44O3/c1-16-7-12-27(29-15-16)17(2)24-23(30-27)14-22-20-6-5-18-13-19(28)8-10-25(18,3)21(20)9-11-26(22,24)4/h16-24,28H,5-15H2,1-4H3/t16?,17-,18-,19?,20?,21?,22?,23?,24?,25-,26-,27+/m0/s1
Instrument: Agilent 6410 Triple Quadrupole LC/MS system
Instrument type: LC-ESI-QQQ
Ms type: MS2
Ion mode: POSITIVE
Precursor type: [M+H]+
m/z	relative intensity
272.5	1
272.6	2
272.7	3
272.8	6
272.9	11
273.0	17
273.1	22
273.2	24
273.3	22
273.4	17
273.5	11
273.6	5
273.7	0
416.4	0
416.5	2
416.6	7
416.7	14
416.8	23
416.9	36
417.0	54
417.1	75
417.2	92
417.3	99
417.4	95
417.5	79
417.6	56
417.7	30
417.8	8
417.9	0
