Mass spectrum: Kokanidin; LC-ESI-QQQ; MS2; Frag=135.0V CID@25.0; [M+HCOO]-
Name: Kokanidin
Class: Benzopyranoids
Formula: C26H34O6
Exact mass: 442.5573
SMILES: CC(=O)OC1CC[C@]2(C)C(CC[C@@](C)(O)[C@H]2COc2ccc3ccc(=O)oc3c2)C1(C)C
InChI: InChI=1S/C26H34O6/c1-16(27)31-22-11-12-25(4)20(24(22,2)3)10-13-26(5,29)21(25)15-30-18-8-6-17-7-9-23(28)32-19(17)14-18/h6-9,14,20-22,29H,10-13,15H2,1-5H3/t20?,21-,22?,25+,26+/m0/s1
Instrument: Agilent 6410 Triple Quadrupole LC/MS system
Instrument type: LC-ESI-QQQ
Ms type: MS2
Ion mode: NEGATIVE
Precursor type: [M+HCOO]-
m/z	relative intensity
51.2	10
51.3	16
51.4	22
51.5	22
51.6	16
51.7	8
51.9	6
52.0	13
52.1	20
52.2	23
52.3	18
52.4	12
52.6	10
52.7	14
52.8	15
52.9	12
53.1	9
53.2	15
53.3	21
53.4	21
53.5	16
53.8	8
53.9	14
54.0	17
54.1	16
54.2	11
54.4	7
54.5	13
54.6	21
54.7	25
54.8	22
54.9	13
55.1	9
55.2	18
55.3	24
55.4	22
55.5	14
55.7	5
55.8	11
55.9	18
56.0	21
56.1	17
56.9	2
57.0	6
57.1	16
57.2	23
57.3	21
57.4	13
57.6	5
57.7	12
57.8	20
57.9	21
58.0	14
58.2	5
58.3	10
58.4	17
58.5	21
58.6	18
58.7	10
58.9	5
59.0	11
59.1	17
59.2	19
59.3	15
59.5	7
59.6	10
59.7	16
59.8	19
59.9	15
60.0	9
60.2	8
60.3	14
60.4	19
60.5	19
60.6	13
60.8	7
60.9	12
61.0	18
61.1	19
61.2	13
61.5	3
61.6	12
61.7	20
61.8	19
61.9	13
62.1	5
62.2	11
62.3	17
62.4	19
62.5	17
62.7	12
62.8	15
62.9	21
63.0	24
63.1	21
63.2	16
63.4	11
63.5	16
63.6	19
63.7	16
63.8	10
64.0	7
64.1	13
64.2	20
64.3	21
64.4	17
64.6	9
64.7	14
64.8	20
64.9	22
65.0	16
65.3	5
65.4	16
65.5	24
65.6	23
65.7	14
65.9	2
66.0	8
66.1	18
66.2	24
66.3	20
66.4	11
66.6	6
66.7	13
66.8	20
66.9	22
67.0	19
67.1	14
67.8	10
67.9	13
68.0	17
68.1	19
68.2	17
68.3	12
68.5	7
68.6	12
68.7	19
68.8	22
68.9	17
69.0	10
69.8	5
69.9	13
70.0	23
70.1	26
70.2	21
70.3	14
71.0	3
71.1	8
71.2	17
71.3	23
71.4	20
71.5	11
71.7	2
71.8	10
71.9	18
72.0	20
72.1	14
72.3	5
72.4	10
72.5	17
72.6	21
72.7	17
72.8	10
73.0	5
73.1	12
73.2	18
73.3	20
73.4	14
73.6	5
73.7	10
73.8	17
73.9	20
74.0	17
74.1	10
74.3	8
74.4	13
74.5	15
74.6	14
74.9	8
75.0	13
75.1	17
75.2	17
75.3	12
75.5	6
75.6	9
75.7	14
75.8	15
75.9	11
76.1	4
76.2	9
76.3	16
76.4	20
76.5	18
76.6	12
76.8	6
76.9	11
77.0	18
77.1	20
77.2	16
78.0	11
78.1	14
78.2	20
78.3	24
78.4	22
78.5	14
78.7	6
78.8	14
78.9	23
79.0	26
79.1	20
79.2	9
79.4	3
79.5	11
79.6	18
79.7	19
79.8	14
80.0	7
80.1	12
80.2	17
80.3	18
80.4	14
80.7	9
80.8	15
80.9	19
81.0	18
81.1	13
81.3	7
81.4	13
81.5	20
81.6	21
81.7	14
81.9	5
82.0	11
82.1	20
82.2	23
82.3	19
82.4	11
82.6	10
82.7	17
82.8	22
82.9	21
83.0	14
83.2	5
83.3	10
83.4	16
83.5	19
83.6	15
83.8	5
83.9	9
84.0	18
84.1	23
84.2	20
84.3	11
84.5	5
84.6	13
84.7	19
84.8	19
84.9	12
85.1	6
85.2	13
85.3	20
85.4	23
85.5	19
85.6	11
85.8	8
85.9	16
86.0	22
86.1	21
86.2	14
86.4	5
86.5	10
86.6	17
86.7	20
86.8	15
87.1	8
87.2	14
87.3	18
87.4	17
87.5	11
87.7	8
87.8	13
87.9	19
88.0	20
88.1	16
88.3	8
88.4	13
88.5	20
88.6	22
88.7	15
88.8	6
89.0	5
89.1	13
89.2	18
89.3	17
89.4	11
89.6	6
89.7	11
89.8	17
89.9	19
90.0	15
90.3	8
90.4	16
90.5	21
90.6	21
90.7	14
90.9	6
91.0	11
91.1	17
91.2	17
91.3	11
91.5	5
91.6	12
91.7	21
91.8	23
91.9	17
92.0	6
92.2	4
92.3	13
92.4	19
92.5	16
92.8	5
92.9	15
93.0	24
93.1	24
93.2	17
93.5	10
93.6	16
93.7	21
93.8	20
93.9	15
94.1	10
94.2	14
94.3	20
94.4	23
94.5	20
94.6	13
94.8	9
94.9	15
95.0	19
95.1	17
95.2	10
95.4	6
95.5	13
95.6	19
95.7	20
95.8	16
96.0	9
96.1	12
96.2	18
96.3	20
96.4	16
96.7	9
96.8	17
96.9	22
97.0	19
97.1	11
97.3	6
97.4	14
97.5	21
97.6	22
97.7	16
98.5	6
98.6	8
98.7	13
98.8	16
98.9	14
99.0	9
99.2	7
99.3	13
99.4	17
99.5	17
99.6	13
99.8	6
99.9	9
100.0	14
100.1	18
100.2	15
100.3	8
100.5	5
100.6	13
100.7	20
100.8	21
100.9	16
101.1	5
101.2	10
101.3	19
101.4	24
101.5	21
101.6	11
101.8	5
101.9	12
102.0	19
102.1	20
102.2	16
103.0	5
103.1	9
103.2	15
103.3	18
103.4	17
103.5	12
103.7	9
103.8	14
103.9	18
104.0	17
104.1	12
104.3	7
104.4	11
104.5	17
104.6	19
104.7	17
104.8	10
105.0	5
105.1	11
105.2	17
105.3	17
105.4	14
105.6	10
105.7	14
105.8	18
105.9	18
106.0	15
106.1	10
106.3	10
106.4	13
106.5	15
106.6	13
106.8	5
106.9	9
107.0	17
107.1	23
107.2	22
107.3	16
108.2	7
108.3	14
108.4	21
108.5	22
108.6	17
109.4	6
109.5	10
109.6	19
109.7	25
109.8	23
109.9	14
110.1	7
110.2	14
110.3	19
110.4	18
110.5	11
110.7	4
110.8	11
110.9	18
111.0	21
111.1	17
111.2	9
111.4	6
111.5	14
111.6	20
111.7	21
111.8	16
112.6	4
112.7	7
112.8	13
112.9	17
113.0	18
113.1	13
113.3	6
113.4	9
113.5	14
113.6	17
113.7	15
113.8	12
114.0	10
114.1	14
114.2	17
114.3	16
114.4	11
114.6	9
114.7	14
114.8	17
114.9	16
115.0	13
115.2	11
115.3	13
115.4	15
115.5	12
115.7	5
115.8	8
115.9	15
116.0	22
116.1	25
116.2	20
116.3	11
116.5	7
116.6	15
116.7	22
116.8	22
116.9	16
117.0	10
117.2	10
117.3	14
117.4	17
117.5	16
117.6	10
117.8	7
117.9	15
118.0	22
118.1	23
118.2	16
119.0	6
119.1	10
119.2	16
119.3	20
119.4	18
119.5	14
119.7	13
119.8	17
119.9	19
120.0	18
120.1	12
120.3	8
120.4	14
120.5	20
120.6	23
120.7	19
120.8	13
121.0	10
121.1	14
121.2	17
121.3	14
121.6	7
121.7	14
121.8	19
121.9	19
122.0	13
122.3	7
122.4	13
122.5	16
122.6	15
122.9	11
123.0	16
123.1	21
123.2	20
123.3	13
123.5	3
123.6	8
123.7	16
123.8	19
123.9	16
124.1	6
124.2	11
124.3	19
124.4	25
124.5	23
124.6	16
124.8	7
124.9	11
125.0	17
125.1	20
125.2	17
125.5	10
125.6	17
125.7	22
125.8	20
125.9	12
126.1	4
126.2	9
126.3	16
126.4	19
126.5	16
126.8	9
126.9	16
127.0	21
127.1	20
127.2	14
127.4	8
127.5	12
127.6	16
127.7	16
127.8	12
128.0	8
128.1	12
128.2	16
128.3	15
128.4	10
128.6	5
128.7	12
128.8	20
128.9	23
129.0	18
129.1	8
129.3	4
129.4	12
129.5	18
129.6	18
129.7	13
129.9	6
130.0	11
130.1	16
130.2	17
130.3	13
130.5	6
130.6	10
130.7	18
130.8	23
130.9	22
131.0	15
131.3	8
131.4	15
131.5	21
131.6	21
131.7	17
131.9	13
132.0	17
132.1	19
132.2	17
132.3	12
132.5	8
132.6	13
132.7	18
132.8	18
132.9	14
133.1	7
133.2	10
133.3	16
133.4	19
133.5	14
133.8	6
133.9	14
134.0	19
134.1	18
134.2	13
134.4	8
134.5	12
134.6	16
134.7	19
134.8	17
135.7	6
135.8	13
135.9	21
136.0	23
136.1	19
137.0	6
137.1	14
137.2	19
137.3	20
137.4	15
137.7	9
137.8	15
137.9	19
138.0	17
138.1	10
138.3	7
138.4	15
138.5	20
138.6	18
138.7	9
138.9	4
139.0	11
139.1	18
139.2	20
139.3	15
139.5	7
139.6	10
139.7	17
139.8	21
139.9	20
140.0	14
140.2	9
140.3	14
140.4	19
140.5	19
140.6	15
140.8	10
140.9	13
141.0	16
141.1	18
141.2	15
141.5	7
141.6	16
141.7	22
141.8	20
141.9	11
142.1	2
142.2	10
142.3	20
142.4	22
142.5	16
142.8	6
142.9	14
143.0	20
143.1	16
143.2	8
143.4	2
143.5	10
143.6	17
143.7	19
143.8	13
144.0	2
144.1	7
144.2	16
144.3	21
144.4	19
144.5	11
144.7	5
144.8	12
144.9	19
145.0	20
145.1	13
145.3	4
145.4	10
145.5	16
145.6	17
145.7	12
146.5	5
146.6	9
146.7	16
146.8	20
146.9	18
147.0	11
147.2	6
147.3	13
147.4	22
147.5	24
147.6	17
147.9	9
148.0	18
148.1	24
148.2	21
148.3	13
148.5	5
148.6	10
148.7	17
148.8	19
148.9	16
149.0	11
149.8	6
149.9	12
150.0	17
150.1	18
150.2	13
150.4	9
150.5	16
150.6	22
150.7	22
150.8	14
151.0	2
151.1	7
151.2	16
151.3	21
151.4	18
151.5	11
151.7	8
151.8	13
151.9	17
152.0	15
152.1	10
152.3	6
152.4	11
152.5	16
152.6	16
152.7	12
152.9	4
153.0	9
153.1	16
153.2	22
153.3	20
153.4	11
153.6	3
153.7	11
153.8	19
153.9	19
154.0	12
154.2	0
154.3	5
154.4	14
154.5	20
154.6	20
154.7	13
154.9	5
155.0	11
155.1	19
155.2	21
155.3	16
155.5	5
155.6	11
155.7	18
155.8	20
155.9	15
156.0	8
156.2	7
156.3	13
156.4	17
156.5	18
156.6	14
156.8	9
156.9	13
157.0	17
157.1	16
157.2	10
157.4	2
157.5	8
157.6	16
157.7	20
157.8	18
157.9	10
158.1	5
158.2	12
158.3	20
158.4	22
158.5	16
158.7	3
158.8	8
158.9	17
159.0	23
159.1	21
159.2	14
159.4	9
159.5	13
159.6	17
159.7	18
159.8	14
160.0	7
160.1	12
160.2	18
160.3	19
160.4	14
160.7	8
160.8	16
160.9	21
161.0	20
161.1	13
161.3	2
161.4	8
161.5	16
161.6	20
161.7	16
161.9	4
162.0	10
162.1	20
162.2	26
162.3	24
162.4	16
162.6	11
162.7	17
162.8	22
162.9	20
163.0	13
163.2	7
163.3	15
163.4	21
163.5	21
163.6	14
163.8	3
163.9	8
164.0	15
164.1	18
164.2	15
164.4	7
164.5	10
164.6	17
164.7	21
164.8	18
164.9	11
165.1	6
165.2	11
165.3	17
165.4	21
165.5	18
165.6	13
165.8	12
165.9	17
166.0	20
166.1	18
166.2	11
166.4	2
166.5	8
166.6	17
166.7	20
166.8	14
167.1	5
167.2	13
167.3	19
167.4	19
167.5	12
167.7	6
167.8	11
167.9	16
168.0	17
168.1	13
168.3	6
168.4	9
168.5	15
168.6	17
168.7	15
168.8	8
169.0	6
169.1	12
169.2	17
169.3	16
169.4	10
169.6	7
169.7	13
169.8	17
169.9	17
170.0	14
170.2	10
170.3	12
170.4	17
170.5	19
170.6	19
170.9	14
171.0	18
171.1	21
171.2	18
171.3	10
171.5	4
171.6	11
171.7	19
171.8	21
171.9	17
172.0	11
172.2	9
172.3	14
172.4	18
172.5	19
172.6	16
172.7	11
172.9	11
173.0	14
173.1	15
173.2	15
173.4	11
173.5	13
173.6	17
173.7	21
173.8	18
173.9	11
174.1	7
174.2	15
174.3	23
174.4	24
174.5	16
174.6	6
174.8	5
174.9	14
175.0	21
175.1	18
175.2	11
175.4	9
175.5	15
175.6	19
175.7	19
175.8	16
176.0	11
176.1	14
176.2	18
176.3	19
176.4	15
176.6	8
176.7	11
176.8	18
176.9	22
177.0	19
177.1	12
177.3	8
177.4	15
177.5	21
177.6	21
177.7	15
177.9	8
178.0	12
178.1	19
178.2	22
178.3	20
178.4	15
178.6	12
178.7	17
178.8	21
178.9	20
179.0	14
179.2	5
179.3	10
179.4	18
179.5	20
179.6	13
179.7	4
179.9	4
180.0	11
180.1	16
180.2	16
180.3	12
180.5	8
180.6	10
180.7	14
180.8	15
180.9	12
181.1	6
181.2	11
181.3	18
181.4	20
181.5	15
181.6	8
181.8	5
181.9	11
182.0	17
182.1	18
182.2	16
183.0	5
183.1	10
183.2	17
183.3	22
183.4	21
183.5	16
183.7	8
183.8	13
183.9	17
184.0	17
184.1	11
184.3	4
184.4	9
184.5	16
184.6	18
184.7	14
185.0	4
185.1	13
185.2	21
185.3	23
185.4	18
185.5	10
185.7	8
185.8	13
185.9	16
186.0	15
186.2	11
186.3	14
186.4	20
186.5	24
186.6	23
186.7	18
186.9	13
187.0	17
187.1	21
187.2	20
187.3	15
188.1	7
188.2	10
188.3	15
188.4	18
188.5	16
188.6	11
188.8	6
188.9	10
189.0	17
189.1	22
189.2	19
189.3	11
189.5	8
189.6	14
189.7	17
189.8	14
189.9	9
190.1	8
190.2	13
190.3	16
190.4	15
190.5	11
190.7	7
190.8	10
190.9	15
191.0	17
191.1	14
191.3	7
191.4	11
191.5	17
191.6	21
191.7	19
191.8	13
192.0	8
192.1	14
192.2	21
192.3	23
192.4	18
192.7	9
192.8	17
192.9	22
193.0	21
193.1	16
193.3	12
193.4	17
193.5	21
193.6	22
193.7	17
194.5	9
194.6	12
194.7	18
194.8	21
194.9	19
195.0	14
195.2	9
195.3	13
195.4	17
195.5	18
195.6	15
195.9	9
196.0	13
196.1	16
196.2	14
196.3	9
196.5	7
196.6	12
196.7	17
196.8	18
196.9	14
197.1	10
197.2	13
197.3	16
197.4	17
197.5	13
197.7	7
197.8	11
197.9	18
198.0	22
198.1	19
198.2	11
198.4	5
198.5	10
198.6	15
198.7	16
198.8	13
199.1	8
199.2	13
199.3	17
199.4	16
199.5	11
199.7	5
199.8	10
199.9	16
200.0	17
200.1	13
200.3	4
200.4	9
200.5	17
200.6	20
200.7	16
201.0	10
201.1	17
201.2	22
201.3	20
201.4	13
201.6	7
201.7	12
201.8	17
201.9	17
202.0	14
202.2	11
202.3	16
202.4	22
202.5	24
202.6	19
202.7	11
202.9	6
203.0	15
203.1	22
203.2	22
203.3	13
204.2	10
204.3	16
204.4	21
204.5	19
204.6	12
204.8	5
204.9	10
205.0	17
205.1	20
205.2	17
205.5	11
205.6	17
205.7	20
205.8	19
205.9	14
206.1	9
206.2	14
206.3	18
206.4	18
206.5	13
206.8	8
206.9	13
207.0	17
207.1	17
207.2	13
207.4	9
207.5	13
207.6	15
207.7	14
208.0	7
208.1	15
208.2	24
208.3	25
208.4	18
208.5	7
208.7	1
208.8	9
208.9	17
209.0	20
209.1	15
209.3	9
209.4	14
209.5	19
209.6	20
209.7	15
209.8	10
210.5	5
210.6	8
210.7	14
210.8	19
210.9	18
211.0	12
211.2	6
211.3	11
211.4	16
211.5	18
211.6	15
211.7	10
211.9	8
212.0	12
212.1	16
212.2	14
212.4	8
212.5	11
212.6	16
212.7	20
212.8	20
212.9	15
213.1	9
213.2	14
213.3	21
213.4	23
213.5	16
213.6	7
213.8	6
213.9	15
214.0	22
214.1	21
214.2	14
214.4	5
214.5	10
214.6	17
214.7	19
214.8	16
214.9	9
215.1	7
215.2	13
215.3	18
215.4	18
215.5	12
215.7	7
215.8	14
215.9	21
216.0	22
216.1	17
217.0	9
217.1	16
217.2	22
217.3	23
217.4	18
217.6	10
217.7	15
217.8	21
217.9	23
218.0	18
218.1	11
218.3	6
218.4	13
218.5	21
218.6	23
218.7	18
219.5	3
219.6	9
219.7	17
219.8	20
219.9	15
220.2	7
220.3	16
220.4	21
220.5	19
220.6	11
220.8	3
220.9	9
221.0	16
221.1	17
221.2	14
221.5	8
221.6	14
221.7	20
221.8	20
221.9	14
222.0	6
222.7	4
222.8	9
222.9	17
223.0	21
223.1	17
223.2	7
223.4	2
223.5	10
223.6	17
223.7	17
223.8	13
224.0	10
224.1	14
224.2	18
224.3	20
224.4	16
224.6	9
224.7	13
224.8	20
224.9	22
225.0	18
225.1	11
225.3	10
225.4	15
225.5	17
225.6	15
225.7	10
225.9	7
226.0	11
226.1	18
226.2	22
226.3	19
226.4	11
226.6	3
226.7	7
226.8	14
226.9	16
227.0	14
227.2	12
227.3	16
227.4	21
227.5	21
227.6	16
227.9	8
228.0	16
228.1	21
228.2	18
228.3	12
228.5	9
228.6	14
228.7	19
228.8	19
228.9	15
229.2	9
229.3	15
229.4	19
229.5	18
230.4	4
230.5	10
230.6	18
230.7	20
230.8	15
231.7	7
231.8	14
231.9	20
232.0	21
232.1	16
232.2	8
232.4	6
232.5	12
232.6	17
232.7	18
233.0	12
233.1	19
233.2	25
233.3	24
233.4	17
233.5	9
233.7	8
233.8	13
233.9	14
234.0	12
234.2	8
234.3	12
234.4	16
234.5	16
234.6	12
234.8	7
234.9	11
235.0	17
235.1	21
235.2	19
235.3	11
235.5	4
235.6	11
235.7	19
235.8	22
235.9	18
236.0	10
236.2	7
236.3	12
236.4	18
236.5	18
236.6	14
236.8	8
236.9	12
237.0	16
237.1	15
237.2	9
237.4	3
237.5	9
237.6	17
237.7	20
237.8	17
237.9	11
238.1	7
238.2	11
238.3	14
238.4	15
238.5	12
238.7	8
238.8	11
238.9	16
239.0	18
239.1	15
239.2	9
239.4	5
239.5	11
239.6	18
239.7	21
239.8	18
240.0	12
240.1	16
240.2	21
240.3	22
240.4	16
240.7	7
240.8	16
240.9	21
241.0	18
241.1	9
241.3	3
241.4	9
241.5	16
241.6	17
241.7	15
242.6	10
242.7	16
242.8	21
242.9	19
243.0	14
243.2	8
243.3	12
243.4	19
243.5	20
243.6	15
243.8	6
243.9	10
244.0	16
244.1	19
244.2	16
244.3	12
244.5	11
244.6	14
244.7	17
244.8	16
244.9	13
245.1	8
245.2	10
245.3	14
245.4	16
245.5	13
245.7	7
245.8	10
245.9	16
246.0	19
246.1	16
246.2	8
246.4	5
246.5	13
246.6	19
246.7	20
246.8	17
247.7	10
247.8	13
247.9	16
248.0	17
248.1	13
248.3	6
248.4	9
248.5	16
248.6	20
248.7	17
248.8	11
249.0	9
249.1	15
249.2	18
249.3	17
249.4	12
249.6	10
249.7	13
249.8	16
249.9	15
250.0	11
250.2	8
250.3	12
250.4	19
250.5	22
250.6	18
250.7	9
250.9	2
251.0	9
251.1	16
251.2	18
251.3	15
251.4	10
251.6	9
251.7	14
251.8	17
251.9	14
252.1	7
252.2	11
252.3	18
252.4	21
252.5	17
252.6	8
252.8	4
252.9	13
253.0	21
253.1	22
253.2	14
253.3	4
253.5	4
253.6	12
253.7	17
253.8	15
254.1	8
254.2	14
254.3	20
254.4	20
254.5	15
254.7	7
254.8	11
254.9	18
255.0	22
255.1	20
255.2	12
255.4	6
255.5	13
255.6	20
255.7	21
255.8	15
256.0	7
256.1	13
256.2	21
256.3	22
256.4	16
256.7	5
256.8	15
256.9	22
257.0	20
257.1	12
257.3	5
257.4	10
257.5	16
257.6	18
257.7	14
257.9	7
258.0	11
258.1	16
258.2	18
258.3	15
258.6	8
258.7	14
258.8	19
258.9	17
259.0	12
259.2	9
259.3	16
259.4	22
259.5	23
259.6	16
259.7	8
259.9	8
260.0	15
260.1	18
260.2	15
260.3	9
260.5	7
260.6	14
260.7	19
260.8	21
260.9	16
261.0	10
261.2	6
261.3	10
261.4	14
261.5	15
261.6	12
261.8	6
261.9	10
262.0	15
262.1	16
262.2	12
262.4	8
262.5	13
262.6	20
262.7	21
262.8	16
263.0	7
263.1	11
263.2	18
263.3	20
263.4	16
263.7	9
263.8	16
263.9	22
264.0	22
264.1	15
264.3	6
264.4	12
264.5	20
264.6	22
264.7	17
264.8	10
265.0	6
265.1	10
265.2	14
265.3	14
265.6	10
265.7	13
265.8	15
265.9	14
266.0	10
266.2	6
266.3	8
266.4	13
266.5	16
266.6	15
266.9	10
267.0	14
267.1	18
267.2	17
267.3	12
267.5	5
267.6	8
267.7	15
267.8	19
267.9	18
268.2	12
268.3	18
268.4	23
268.5	21
268.6	13
268.8	3
268.9	8
269.0	16
269.1	19
269.2	17
269.3	11
269.5	7
269.6	13
269.7	19
269.8	20
269.9	15
270.1	4
270.2	8
270.3	16
270.4	22
270.5	19
270.7	10
270.8	14
270.9	21
271.0	24
271.1	20
271.2	12
271.4	10
271.5	18
271.6	23
271.7	22
271.8	15
272.7	9
272.8	16
272.9	21
273.0	19
273.1	13
273.3	7
273.4	12
273.5	19
273.6	21
273.7	17
274.6	6
274.7	16
274.8	23
274.9	22
275.0	14
275.2	3
275.3	8
275.4	15
275.5	17
275.6	13
275.9	7
276.0	14
276.1	18
276.2	16
276.3	9
276.5	6
276.6	12
276.7	16
276.8	15
276.9	9
277.1	4
277.2	12
277.3	21
277.4	23
277.5	16
278.4	2
278.5	9
278.6	16
278.7	19
278.8	17
278.9	13
279.1	12
279.2	16
279.3	20
279.4	19
279.5	14
279.7	8
279.8	13
279.9	18
280.0	18
280.1	12
280.3	4
280.4	9
280.5	16
280.6	20
280.7	18
280.8	12
281.0	7
281.1	11
281.2	16
281.3	16
281.4	13
281.6	9
281.7	14
281.8	22
281.9	25
282.0	21
282.1	13
282.3	7
282.4	13
282.5	18
282.6	17
282.7	11
282.9	6
283.0	12
283.1	17
283.2	17
283.3	13
283.5	9
283.6	14
283.7	19
283.8	20
283.9	16
284.2	9
284.3	15
284.4	18
284.5	15
284.6	8
284.8	4
284.9	12
285.0	20
285.1	22
285.2	17
285.4	5
285.5	10
285.6	18
285.7	24
285.8	23
285.9	16
286.1	10
286.2	14
286.3	19
286.4	21
286.5	17
287.4	8
287.5	13
287.6	16
287.7	13
287.8	8
288.0	5
288.1	11
288.2	18
288.3	19
288.4	15
288.6	9
288.7	13
288.8	19
288.9	20
289.0	17
289.1	10
289.3	5
289.4	10
289.5	15
289.6	15
289.7	11
289.9	8
290.0	14
290.1	20
290.2	21
290.3	15
290.5	3
290.6	8
290.7	16
290.8	20
290.9	17
291.0	11
291.2	8
291.3	14
291.4	19
291.5	19
291.6	14
291.7	8
291.9	7
292.0	11
292.1	14
292.2	13
292.5	8
292.6	13
292.7	19
292.8	20
292.9	15
293.2	10
293.3	15
293.4	18
293.5	16
293.6	11
293.8	5
293.9	9
294.0	14
294.1	13
294.3	6
294.4	9
294.5	16
294.6	23
294.7	25
294.8	19
294.9	10
295.1	9
295.2	16
295.3	19
295.4	16
295.6	6
295.7	11
295.8	19
295.9	24
296.0	21
296.1	12
296.3	4
296.4	10
296.5	17
296.6	21
296.7	19
296.8	12
297.0	8
297.1	13
297.2	17
297.3	17
297.4	13
297.6	6
297.7	11
297.8	18
297.9	21
298.0	17
298.3	10
298.4	17
298.5	21
298.6	20
298.7	15
298.9	7
299.0	11
299.1	17
299.2	20
299.3	15
300.1	4
300.2	9
300.3	16
300.4	21
300.5	20
300.6	14
300.8	7
300.9	11
301.0	17
301.1	21
301.2	19
301.5	13
301.6	20
301.7	24
301.8	22
301.9	16
302.1	10
302.2	14
302.3	19
302.4	20
302.5	15
303.3	8
303.4	11
303.5	17
303.6	21
303.7	19
303.8	11
304.0	4
304.1	12
304.2	20
304.3	21
304.4	17
304.7	10
304.8	15
304.9	19
305.0	17
305.1	13
305.3	8
305.4	11
305.5	14
305.6	14
305.7	11
305.9	9
306.0	13
306.1	18
306.2	21
306.3	17
306.4	11
306.6	7
306.7	11
306.8	14
306.9	13
307.8	4
307.9	10
308.0	17
308.1	20
308.2	17
308.3	10
308.5	4
308.6	11
308.7	19
308.8	23
308.9	19
309.0	11
309.2	7
309.3	14
309.4	19
309.5	18
309.6	13
309.8	9
309.9	14
310.0	18
310.1	17
311.0	2
311.1	8
311.2	18
311.3	24
311.4	22
311.5	13
311.7	5
311.8	11
311.9	18
312.0	20
312.1	15
312.3	6
312.4	10
312.5	16
312.6	18
312.7	15
313.0	10
313.1	15
313.2	19
313.3	18
313.4	13
313.6	9
313.7	15
313.8	21
313.9	23
314.0	17
314.1	9
314.3	8
314.4	15
314.5	19
314.6	17
314.7	9
314.9	3
315.0	10
315.1	18
315.2	21
315.3	16
315.5	5
315.6	10
315.7	18
315.8	21
315.9	16
316.1	6
316.2	10
316.3	19
316.4	24
316.5	22
316.6	13
316.8	6
316.9	12
317.0	19
317.1	21
317.2	17
317.4	11
317.5	14
317.6	18
317.7	19
317.8	16
317.9	10
318.1	5
318.2	9
318.3	16
318.4	20
318.5	18
318.6	12
318.8	8
318.9	12
319.0	15
319.1	14
319.3	8
319.4	10
319.5	17
319.6	21
319.7	19
319.8	12
320.0	3
320.1	10
320.2	18
320.3	22
320.4	18
321.3	1
321.4	8
321.5	16
321.6	17
321.7	13
321.9	6
322.0	11
322.1	18
322.2	22
322.3	20
322.4	12
322.6	8
322.7	16
322.8	22
322.9	21
323.0	13
323.2	4
323.3	9
323.4	16
323.5	19
323.6	18
323.7	13
323.9	10
324.0	15
324.1	20
324.2	21
324.3	16
324.5	9
324.6	13
324.7	18
324.8	19
324.9	16
325.2	10
325.3	16
325.4	21
325.5	20
326.3	11
326.4	14
326.5	19
326.6	22
326.7	20
326.8	15
327.0	8
327.1	13
327.2	21
327.3	24
327.4	20
327.5	12
327.7	4
327.8	11
327.9	19
328.0	22
328.1	18
328.4	12
328.5	19
328.6	24
328.7	21
328.8	11
329.0	3
329.1	12
329.2	20
329.3	20
329.4	13
329.6	6
329.7	13
329.8	20
329.9	20
330.0	12
330.2	0
330.3	5
330.4	13
330.5	16
330.6	14
330.9	9
331.0	14
331.1	18
331.2	17
331.3	11
331.5	3
331.6	7
331.7	13
331.8	18
331.9	17
332.0	13
332.2	11
332.3	16
332.4	20
332.5	18
332.6	10
332.8	6
332.9	16
333.0	24
333.1	24
333.2	16
333.4	5
333.5	11
333.6	19
333.7	21
333.8	16
334.0	4
334.1	9
334.2	17
334.3	21
334.4	17
334.5	9
334.7	3
334.8	10
334.9	18
335.0	21
335.1	17
335.2	9
335.4	5
335.5	12
335.6	19
335.7	20
335.8	15
335.9	10
336.1	8
336.2	12
336.3	13
336.4	13
336.6	10
336.7	13
336.8	18
336.9	20
337.0	16
337.1	9
337.3	7
337.4	13
337.5	18
337.6	17
337.7	11
337.9	6
338.0	13
338.1	19
338.2	20
338.3	17
338.4	11
338.6	8
338.7	13
338.8	16
338.9	15
339.1	8
339.2	12
339.3	19
339.4	24
339.5	22
339.6	14
339.9	6
340.0	14
340.1	19
340.2	18
340.3	12
340.5	7
340.6	13
340.7	19
340.8	19
340.9	14
341.1	7
341.2	12
341.3	17
341.4	19
341.5	15
341.6	8
341.8	6
341.9	14
342.0	20
342.1	21
342.2	15
342.4	4
342.5	9
342.6	17
342.7	20
342.8	15
343.1	8
343.2	14
343.3	17
343.4	15
343.7	10
343.8	14
343.9	19
344.0	19
344.1	16
345.0	8
345.1	13
345.2	17
345.3	16
345.4	10
345.6	3
345.7	9
345.8	16
345.9	18
346.0	12
346.3	3
346.4	11
346.5	17
346.6	17
346.7	11
346.9	7
347.0	12
347.1	18
347.2	18
347.3	11
347.5	3
347.6	9
347.7	18
347.8	22
347.9	19
348.0	13
348.2	8
348.3	11
348.4	15
348.5	16
348.6	14
348.8	8
348.9	11
349.0	16
349.1	20
349.2	18
349.3	12
349.5	8
349.6	13
349.7	17
349.8	16
349.9	11
350.1	9
350.2	15
350.3	20
350.4	20
350.5	16
350.6	10
350.8	9
350.9	14
351.0	19
351.1	18
351.2	14
351.4	12
351.5	17
351.6	21
351.7	19
351.8	11
352.0	4
352.1	10
352.2	17
352.3	18
352.4	13
352.7	6
352.8	12
352.9	16
353.0	16
353.3	11
353.4	16
353.5	19
353.6	18
353.7	12
353.9	3
354.0	7
354.1	14
354.2	18
354.3	17
354.4	12
354.6	8
354.7	14
354.8	20
354.9	21
355.0	16
355.2	6
355.3	10
355.4	16
355.5	20
355.6	17
355.7	12
355.9	10
356.0	15
356.1	18
356.2	17
356.5	10
356.6	17
356.7	23
356.8	23
356.9	17
357.8	8
357.9	14
358.0	18
358.1	16
358.2	10
358.4	8
358.5	12
358.6	16
358.7	16
358.8	11
359.0	4
359.1	8
359.2	14
359.3	18
359.4	18
359.5	13
359.7	7
359.8	12
359.9	18
360.0	20
360.1	15
360.3	5
360.4	10
360.5	16
360.6	18
360.7	14
361.0	9
361.1	15
361.2	18
361.3	16
361.4	10
361.6	4
361.7	9
361.8	14
361.9	18
362.0	16
362.1	11
362.3	9
362.4	13
362.5	16
362.6	13
362.8	6
362.9	9
363.0	14
363.1	17
363.2	16
363.3	11
363.5	8
363.6	11
363.7	16
363.8	20
363.9	18
364.0	12
364.2	10
364.3	16
364.4	20
364.5	17
364.6	10
364.8	6
364.9	12
365.0	18
365.1	19
365.2	15
365.4	4
365.5	9
365.6	18
365.7	24
365.8	21
365.9	11
366.1	2
366.2	9
366.3	18
366.4	20
366.5	15
366.7	9
366.8	14
366.9	21
367.0	23
367.1	17
367.4	9
367.5	16
367.6	22
367.7	20
367.8	13
368.0	6
368.1	12
368.2	17
368.3	18
368.4	13
368.6	5
368.7	9
368.8	17
368.9	21
369.0	17
369.1	8
369.3	4
369.4	12
369.5	21
369.6	23
369.7	17
370.6	7
370.7	14
370.8	20
370.9	19
371.0	13
371.2	7
371.3	13
371.4	20
371.5	23
371.6	19
371.7	12
371.9	11
372.0	17
372.1	21
372.2	18
372.3	12
372.5	8
372.6	14
372.7	18
372.8	17
372.9	12
373.1	8
373.2	12
373.3	17
373.4	18
373.5	14
373.6	8
373.8	7
373.9	12
374.0	16
374.1	16
374.2	11
374.4	7
374.5	11
374.6	16
374.7	18
374.8	15
375.1	9
375.2	13
375.3	17
375.4	15
375.5	10
375.7	8
375.8	14
375.9	18
376.0	16
376.1	10
376.3	5
376.4	12
376.5	20
376.6	22
376.7	16
376.9	3
377.0	8
377.1	18
377.2	25
377.3	21
377.4	12
377.6	7
377.7	16
377.8	23
377.9	23
378.0	18
378.1	10
378.3	6
378.4	12
378.5	16
378.6	16
378.9	14
379.0	18
379.1	21
379.2	20
379.3	16
380.2	9
380.3	14
380.4	19
380.5	20
380.6	15
380.8	10
380.9	16
381.0	22
381.1	21
381.2	14
381.4	6
381.5	10
381.6	15
381.7	18
381.8	17
382.7	9
382.8	14
382.9	18
383.0	19
383.1	16
383.2	11
383.4	7
383.5	12
383.6	17
383.7	18
383.8	14
383.9	9
384.6	7
384.7	11
384.8	17
384.9	19
385.0	17
385.1	11
385.3	9
385.4	16
385.5	21
385.6	20
385.7	13
385.9	7
386.0	11
386.1	16
386.2	18
386.3	15
386.6	7
386.7	14
386.8	21
386.9	20
387.0	12
387.2	2
387.3	10
387.4	19
387.5	21
387.6	16
387.8	5
387.9	10
388.0	18
388.1	22
388.2	18
388.3	10
388.5	5
388.6	11
388.7	18
388.8	20
388.9	16
389.0	8
389.2	5
389.3	13
389.4	19
389.5	18
389.6	12
389.8	9
389.9	15
390.0	19
390.1	17
390.2	11
390.4	9
390.5	14
390.6	18
390.7	19
390.8	15
391.0	9
391.1	13
391.2	20
391.3	22
391.4	18
391.5	11
391.7	7
391.8	12
391.9	16
392.0	13
392.1	7
392.3	5
392.4	12
392.5	19
392.6	19
392.7	13
392.9	5
393.0	9
393.1	15
393.2	20
393.3	19
393.4	15
393.7	9
393.8	16
393.9	20
394.0	18
394.3	11
394.4	19
394.5	24
394.6	22
394.7	14
394.9	7
395.0	13
395.1	20
395.2	21
395.3	15
395.6	7
395.7	13
395.8	18
395.9	16
396.0	10
396.2	6
396.3	11
396.4	17
396.5	17
396.6	13
396.8	8
396.9	14
397.0	20
397.1	22
397.2	18
397.3	12
397.5	9
397.6	11
397.7	13
397.8	13
397.9	11
398.1	9
398.2	12
398.3	15
398.4	16
398.5	11
398.7	2
398.8	6
398.9	13
399.0	17
399.1	16
399.2	11
399.4	5
399.5	9
399.6	14
399.7	17
399.8	14
399.9	9
400.1	7
400.2	12
400.3	17
400.4	16
400.7	10
400.8	15
400.9	17
401.0	15
401.1	9
401.3	7
401.4	14
401.5	21
401.6	22
401.7	16
402.0	8
402.1	15
402.2	21
402.3	19
402.4	13
402.6	10
402.7	15
402.8	18
402.9	15
403.0	9
403.2	6
403.3	12
403.4	19
403.5	19
403.6	15
404.4	5
404.5	9
404.6	17
404.7	23
404.8	22
404.9	15
405.1	4
405.2	10
405.3	17
405.4	21
405.5	18
405.6	12
405.8	8
405.9	12
406.0	16
406.1	18
406.2	16
407.1	8
407.2	15
407.3	19
407.4	17
407.5	10
407.7	4
407.8	8
407.9	14
408.0	15
408.3	9
408.4	15
408.5	22
408.6	23
408.7	16
409.0	7
409.1	16
409.2	23
409.3	23
409.4	15
409.6	5
409.7	11
409.8	19
409.9	22
410.0	19
410.3	13
410.4	19
410.5	23
410.6	23
410.7	17
411.5	4
411.6	11
411.7	18
411.8	21
411.9	16
412.8	10
412.9	16
413.0	22
413.1	23
413.2	18
413.3	10
413.5	7
413.6	11
413.7	14
413.8	15
414.1	13
414.2	16
414.3	18
414.4	17
414.5	13
414.7	7
414.8	10
414.9	15
415.0	17
415.1	13
415.2	9
415.4	8
415.5	12
415.6	14
415.7	11
416.0	6
416.1	13
416.2	19
416.3	20
416.4	15
416.5	10
416.7	9
416.8	14
416.9	16
417.0	14
417.1	8
417.3	6
417.4	13
417.5	19
417.6	18
417.7	11
417.9	9
418.0	15
418.1	21
418.2	20
418.3	15
418.5	6
418.6	10
418.7	17
418.8	20
418.9	18
419.0	10
419.2	7
419.3	14
419.4	20
419.5	21
419.6	16
419.7	7
419.9	6
420.0	14
420.1	20
420.2	19
420.3	12
420.5	6
420.6	12
420.7	19
420.8	22
420.9	18
421.0	12
421.2	12
421.3	17
421.4	19
421.5	16
421.6	11
421.8	8
421.9	14
422.0	20
422.1	18
422.2	11
422.4	5
422.5	12
422.6	19
422.7	21
422.8	17
423.0	6
423.1	10
423.2	19
423.3	23
423.4	20
423.5	13
423.7	8
423.8	15
423.9	22
424.0	23
424.1	18
424.2	11
424.4	7
424.5	13
424.6	19
424.7	19
424.8	13
425.0	7
425.1	14
425.2	21
425.3	23
425.4	17
426.3	7
426.4	15
426.5	21
426.6	18
426.7	11
426.9	5
427.0	12
427.1	20
427.2	21
427.3	16
427.5	7
427.6	11
427.7	17
427.8	20
427.9	18
428.0	11
428.2	5
428.3	12
428.4	18
428.5	20
428.6	14
428.9	8
429.0	14
429.1	18
429.2	17
429.3	12
429.5	10
429.6	16
429.7	19
429.8	16
429.9	9
430.1	4
430.2	10
430.3	15
430.4	14
430.5	7
430.7	1
430.8	9
430.9	16
431.0	19
431.1	16
431.4	7
431.5	15
431.6	21
431.7	22
431.8	16
432.0	8
432.1	13
432.2	19
432.3	19
432.4	13
432.6	8
432.7	14
432.8	21
432.9	23
433.0	18
433.1	10
433.3	6
433.4	13
433.5	20
433.6	21
433.7	17
433.9	10
434.0	14
434.1	21
434.2	24
434.3	21
434.4	15
434.6	12
434.7	17
434.8	20
434.9	18
435.0	12
435.2	5
435.3	11
435.4	19
435.5	22
435.6	18
435.9	11
436.0	18
436.1	20
436.2	17
436.3	11
436.5	9
436.6	15
436.7	20
436.8	19
436.9	14
437.1	5
437.2	10
437.3	17
437.4	22
437.5	20
437.6	14
438.4	3
438.5	8
438.6	15
438.7	18
438.8	15
439.0	8
439.1	13
439.2	20
439.3	23
439.4	18
439.5	9
439.7	4
439.8	11
439.9	17
440.0	19
440.1	15
440.9	3
441.0	8
441.1	18
441.2	24
441.3	22
441.4	16
442.2	4
442.3	7
442.4	15
442.5	21
442.6	19
442.7	12
442.9	4
443.0	10
443.1	17
443.2	19
443.3	16
443.6	9
443.7	16
443.8	20
443.9	17
444.0	9
444.2	5
444.3	12
444.4	19
444.5	21
444.6	17
444.7	11
444.9	9
445.0	14
445.1	17
445.2	16
445.3	10
445.5	7
445.6	14
445.7	20
445.8	18
445.9	11
446.1	4
446.2	12
446.3	20
446.4	20
446.5	13
446.7	5
446.8	11
446.9	20
447.0	24
447.1	21
447.2	13
447.4	8
447.5	14
447.6	19
447.7	19
447.8	14
448.0	8
448.1	12
448.2	18
448.3	20
448.4	15
448.6	7
448.7	11
448.8	18
448.9	21
449.0	17
449.3	9
449.4	17
449.5	22
449.6	21
449.7	13
449.9	3
450.0	10
450.1	19
450.2	22
450.3	18
450.4	9
450.6	6
450.7	14
450.8	19
450.9	18
451.0	12
451.2	7
451.3	13
451.4	19
451.5	21
451.6	16
451.7	6
451.9	2
452.0	12
452.1	20
452.2	20
452.3	14
452.5	7
452.6	11
452.7	15
452.8	15
452.9	11
453.1	7
453.2	13
453.3	20
453.4	23
453.5	18
453.6	10
453.8	6
453.9	12
454.0	18
454.1	17
454.2	11
454.4	0
454.5	5
454.6	13
454.7	17
454.8	14
455.1	9
455.2	15
455.3	17
455.4	15
455.5	12
455.7	10
455.8	12
455.9	14
456.0	13
456.3	9
456.4	14
456.5	19
456.6	20
456.7	17
456.8	11
457.0	8
457.1	13
457.2	17
457.3	15
457.4	8
457.6	1
457.7	8
457.8	16
457.9	20
458.0	18
458.1	13
458.3	11
458.4	15
458.5	19
458.6	18
458.7	14
458.9	10
459.0	15
459.1	20
459.2	20
459.3	15
459.5	9
459.6	14
459.7	19
459.8	20
459.9	15
460.8	8
460.9	12
461.0	17
461.1	18
461.2	14
461.5	7
461.6	14
461.7	19
461.8	18
461.9	12
462.1	8
462.2	14
462.3	21
462.4	23
462.5	18
462.6	10
462.8	7
462.9	13
463.0	17
463.1	15
463.4	9
463.5	16
463.6	22
463.7	21
463.8	15
464.6	9
464.7	12
464.8	18
464.9	21
465.0	18
465.1	12
465.3	9
465.4	16
465.5	21
465.6	20
465.7	14
465.9	5
466.0	9
466.1	16
466.2	18
466.3	15
466.6	11
466.7	16
466.8	19
466.9	18
467.0	13
467.2	7
467.3	12
467.4	18
467.5	20
467.6	16
467.9	9
468.0	15
468.1	19
468.2	16
468.5	8
468.6	16
468.7	21
468.8	19
468.9	12
469.1	5
469.2	9
469.3	13
469.4	15
469.5	13
469.7	7
469.8	10
469.9	17
470.0	21
470.1	19
470.2	11
470.4	4
470.5	10
470.6	16
470.7	18
470.8	13
471.1	5
471.2	13
471.3	19
471.4	17
471.5	10
471.7	6
471.8	13
471.9	20
472.0	21
472.1	16
472.2	8
472.4	5
472.5	11
472.6	16
472.7	16
473.0	10
473.1	16
473.2	20
473.3	18
473.4	11
473.6	6
473.7	11
473.8	18
473.9	20
474.0	15
474.1	7
474.3	5
474.4	11
474.5	17
474.6	17
474.7	12
474.9	8
475.0	16
475.1	22
475.2	23
475.3	15
475.6	6
475.7	16
475.8	22
475.9	20
476.0	13
476.2	8
476.3	12
476.4	17
476.5	17
476.6	12
476.8	5
476.9	10
477.0	18
477.1	20
477.2	15
477.4	3
477.5	9
477.6	17
477.7	22
477.8	19
477.9	14
478.1	9
478.2	14
478.3	19
478.4	19
478.5	15
478.8	9
478.9	14
479.0	18
479.1	17
479.2	12
479.4	9
479.5	15
479.6	22
479.7	22
479.8	17
480.1	10
480.2	17
480.3	22
480.4	20
480.5	13
480.7	6
480.8	13
480.9	20
481.0	22
481.1	17
481.9	10
482.0	15
482.1	18
482.2	16
482.3	12
482.5	8
482.6	13
482.7	18
482.8	20
482.9	17
483.0	9
483.2	4
483.3	12
483.4	20
483.5	23
483.6	18
483.7	9
483.9	6
484.0	14
484.1	19
484.2	17
484.3	10
484.5	5
484.6	12
484.7	19
484.8	20
484.9	14
485.2	7
485.3	13
485.4	18
485.5	18
485.6	12
485.8	8
485.9	14
486.0	19
486.1	17
486.4	12
486.5	19
486.6	25
486.7	24
486.8	18
487.1	10
487.2	17
487.3	23
487.4	22
487.5	16
488.2	8
488.3	10
488.4	17
488.5	24
488.6	24
488.7	18
488.8	9
489.0	8
489.1	15
489.2	19
489.3	19
489.4	14
489.6	9
489.7	15
489.8	22
489.9	24
490.0	19
490.1	11
490.3	7
490.4	15
490.5	22
490.6	20
490.7	11
490.9	4
491.0	10
491.1	16
491.2	16
491.3	11
491.5	6
491.6	11
491.7	18
491.8	20
491.9	16
492.0	7
492.2	2
492.3	10
492.4	18
492.5	21
492.6	16
493.4	3
493.5	8
493.6	15
493.7	20
493.8	19
493.9	12
494.1	7
494.2	13
494.3	19
494.4	19
494.5	13
494.7	6
494.8	9
494.9	14
495.0	17
495.1	16
495.2	13
496.0	7
496.1	13
496.2	21
496.3	23
496.4	17
496.5	7
496.7	4
496.8	11
496.9	17
497.0	16
497.1	11
497.3	7
497.4	14
497.5	21
497.6	21
497.7	15
497.8	8
498.0	8
498.1	13
498.2	15
498.3	13
498.4	8
498.6	6
498.7	11
498.8	16
498.9	17
499.0	14
499.1	9
499.3	8
499.4	12
499.5	15
499.6	12
499.8	5
499.9	8
500.0	14
500.1	18
500.2	19
500.3	15
500.5	13
500.6	16
500.7	19
500.8	18
500.9	13
501.1	7
501.2	12
501.3	20
501.4	22
501.5	18
501.6	11
501.8	7
501.9	13
502.0	20
502.1	20
502.2	15
502.4	7
502.5	13
502.6	20
502.7	25
502.8	22
502.9	14
503.1	7
503.2	12
503.3	18
503.4	18
503.5	13
503.7	8
503.8	14
503.9	20
504.0	20
504.1	15
504.3	5
504.4	9
504.5	17
504.6	21
504.7	18
504.8	11
505.0	9
505.1	15
505.2	19
505.3	19
505.4	14
505.6	11
505.7	16
505.8	20
505.9	19
506.0	13
506.2	5
506.3	11
506.4	19
506.5	22
506.6	18
506.7	10
506.9	6
507.0	12
507.1	17
507.2	17
507.3	12
507.5	6
507.6	9
507.7	14
507.8	16
507.9	13
508.1	4
508.2	7
508.3	15
508.4	21
508.5	20
508.6	13
508.8	5
508.9	10
509.0	16
509.1	16
509.2	11
509.4	5
509.5	11
509.6	19
509.7	24
509.8	22
509.9	14
510.1	5
510.2	10
510.3	15
510.4	18
510.5	15
510.7	8
510.8	11
510.9	18
511.0	23
511.1	21
511.2	14
511.4	7
511.5	15
511.6	23
511.7	23
511.8	14
512.0	3
512.1	9
512.2	17
512.3	19
512.4	13
512.6	5
512.7	10
512.8	19
512.9	23
513.0	20
513.1	12
513.3	7
513.4	15
513.5	22
513.6	22
513.7	15
513.9	8
514.0	13
514.1	18
514.2	18
514.3	15
514.5	10
514.6	13
514.7	18
514.8	19
514.9	15
515.0	7
515.2	1
515.3	8
515.4	16
515.5	21
515.6	20
515.7	15
516.4	3
516.5	7
516.6	16
516.7	24
516.8	24
516.9	17
517.1	6
517.2	11
517.3	17
517.4	21
517.5	19
517.6	14
517.8	11
517.9	16
518.0	21
518.1	21
518.2	16
518.4	9
518.5	14
518.6	20
518.7	21
518.8	17
519.0	7
519.1	11
519.2	18
519.3	24
519.4	23
519.5	17
519.8	10
519.9	16
520.0	19
520.1	18
520.4	12
520.5	18
520.6	22
520.7	20
520.8	13
521.0	9
521.1	16
521.2	20
521.3	18
521.4	12
521.6	5
521.7	10
521.8	18
521.9	22
522.0	18
522.1	9
522.3	6
522.4	13
522.5	17
522.6	16
522.7	11
522.9	8
523.0	13
523.1	18
523.2	19
523.3	15
523.5	10
523.6	14
523.7	20
523.8	21
523.9	15
524.0	7
524.2	4
524.3	12
524.4	19
524.5	21
524.6	16
524.9	9
525.0	15
525.1	18
525.2	15
526.1	5
526.2	13
526.3	20
526.4	22
526.5	18
527.4	7
527.5	14
527.6	17
527.7	14
527.8	8
528.0	4
528.1	9
528.2	16
528.3	20
528.4	18
528.5	13
529.3	5
529.4	12
529.5	18
529.6	20
529.7	15
529.9	7
530.0	11
530.1	18
530.2	20
530.3	15
530.6	6
530.7	13
530.8	18
530.9	16
531.0	11
531.2	6
531.3	12
531.4	18
531.5	19
531.6	14
531.8	6
531.9	10
532.0	17
532.1	22
532.2	20
532.3	13
532.5	8
532.6	14
532.7	19
532.8	19
532.9	15
533.1	9
533.2	13
533.3	17
533.4	18
533.5	16
533.6	12
533.8	9
533.9	12
534.0	16
534.1	16
534.2	12
534.4	6
534.5	11
534.6	18
534.7	19
534.8	15
535.0	8
535.1	11
535.2	17
535.3	20
535.4	17
535.5	9
535.7	2
535.8	6
535.9	13
536.0	17
536.1	16
536.3	12
536.4	15
536.5	19
536.6	20
536.7	15
537.0	7
537.1	14
537.2	18
537.3	18
537.4	13
537.6	7
537.7	11
537.8	16
537.9	17
538.0	14
538.3	7
538.4	14
538.5	18
538.6	15
538.7	9
538.9	6
539.0	13
539.1	19
539.2	19
539.3	14
539.4	8
539.6	7
539.7	11
539.8	13
539.9	13
540.0	11
540.2	8
540.3	12
540.4	17
540.5	20
540.6	17
541.4	11
541.5	14
541.6	19
541.7	21
541.8	18
542.1	13
542.2	19
542.3	23
542.4	23
542.5	18
543.3	6
543.4	13
543.5	23
543.6	28
543.7	24
543.8	14
544.0	5
544.1	10
544.2	15
544.3	16
544.4	14
544.7	11
544.8	14
544.9	17
545.0	16
545.1	12
545.3	9
545.4	14
545.5	20
545.6	21
545.7	15
546.0	8
546.1	16
546.2	20
546.3	19
546.4	13
546.6	5
546.7	10
546.8	17
546.9	19
547.0	16
547.2	10
547.3	14
547.4	19
547.5	21
547.6	16
547.9	9
548.0	16
548.1	21
548.2	19
548.3	12
548.5	3
548.6	8
548.7	15
548.8	19
548.9	16
549.1	6
549.2	11
549.3	18
549.4	21
549.5	16
549.6	7
549.8	4
549.9	13
550.0	19
550.1	19
550.2	12
550.4	4
550.5	9
550.6	17
550.7	21
550.8	18
550.9	10
551.1	7
551.2	15
551.3	21
551.4	20
551.5	13
551.7	6
551.8	13
551.9	19
552.0	20
552.1	14
552.3	7
552.4	14
552.5	22
552.6	25
552.7	19
552.8	9
553.0	4
553.1	13
553.2	20
553.3	19
553.4	11
553.6	3
553.7	11
553.8	20
553.9	22
554.0	15
554.3	7
554.4	17
554.5	24
554.6	22
554.7	14
554.9	5
555.0	11
555.1	17
555.2	19
555.3	15
555.6	9
555.7	15
555.8	18
555.9	15
556.1	8
556.2	11
556.3	18
556.4	22
556.5	20
556.6	14
556.8	6
556.9	11
557.0	19
557.1	22
557.2	17
557.4	8
557.5	13
557.6	21
557.7	24
557.8	20
557.9	12
558.1	10
558.2	16
558.3	21
558.4	20
558.5	12
558.7	4
558.8	10
558.9	18
559.0	19
559.1	15
559.4	8
559.5	14
559.6	19
559.7	19
559.8	13
560.0	4
560.1	8
560.2	15
560.3	18
560.4	15
560.7	8
560.8	16
560.9	21
561.0	19
561.1	11
561.3	2
561.4	9
561.5	16
561.6	18
561.7	13
561.9	7
562.0	13
562.1	19
562.2	21
562.3	16
562.4	9
562.6	7
562.7	13
562.8	17
562.9	17
563.0	11
563.3	5
563.4	11
563.5	16
563.6	14
563.8	7
563.9	11
564.0	19
564.1	21
564.2	17
564.5	8
564.6	16
564.7	22
564.8	21
564.9	14
565.1	4
565.2	8
565.3	15
565.4	20
565.5	18
565.6	10
565.8	4
565.9	13
566.0	20
566.1	21
566.2	14
567.0	4
567.1	8
567.2	15
567.3	21
567.4	20
567.5	15
567.7	10
567.8	14
567.9	17
568.0	17
568.1	12
568.3	7
568.4	12
568.5	19
568.6	22
568.7	18
568.8	12
569.0	10
569.1	15
569.2	19
569.3	17
569.4	10
569.6	4
569.7	11
569.8	19
569.9	19
570.0	12
570.2	2
570.3	8
570.4	17
570.5	20
570.6	16
570.8	7
570.9	11
571.0	19
571.1	24
571.2	22
571.3	13
571.5	3
571.6	9
571.7	17
571.8	21
571.9	17
572.2	9
572.3	18
572.4	25
572.5	24
572.6	14
572.8	1
572.9	7
573.0	16
573.1	23
573.2	21
573.3	13
573.5	10
573.6	17
573.7	21
573.8	18
573.9	12
574.1	10
574.2	15
574.3	20
574.4	19
574.5	13
574.7	7
574.8	13
574.9	19
575.0	20
575.1	17
575.2	11
575.4	9
575.5	14
575.6	18
575.7	18
575.8	13
576.0	6
576.1	13
576.2	21
576.3	23
576.4	18
576.5	11
576.7	10
576.8	15
576.9	17
577.0	15
577.1	10
577.3	5
577.4	10
577.5	16
577.6	18
577.7	14
577.9	8
578.0	12
578.1	17
578.2	20
578.3	17
578.4	12
578.6	6
578.7	11
578.8	17
578.9	19
579.0	17
579.2	9
579.3	13
579.4	19
579.5	21
579.6	17
579.7	11
579.9	10
580.0	13
580.1	14
580.2	12
580.5	6
580.6	11
580.7	17
580.8	19
580.9	15
581.7	4
581.8	8
581.9	17
582.0	22
582.1	20
582.2	13
582.4	8
582.5	14
582.6	19
582.7	19
582.8	15
583.1	7
583.2	14
583.3	18
583.4	17
583.5	11
583.7	7
583.8	13
583.9	18
584.0	18
584.1	12
584.3	6
584.4	11
584.5	16
584.6	18
584.7	15
584.8	10
585.0	9
585.1	14
585.2	17
585.3	16
585.4	12
585.6	8
585.7	12
585.8	18
585.9	20
586.0	17
586.1	11
586.3	7
586.4	13
586.5	19
586.6	18
586.7	12
586.9	8
587.0	14
587.1	19
587.2	19
587.3	13
587.5	6
587.6	11
587.7	17
587.8	19
587.9	17
588.2	12
588.3	17
588.4	21
588.5	19
588.6	14
588.8	8
588.9	14
589.0	20
589.1	21
589.2	16
589.4	8
589.5	12
589.6	19
589.7	23
589.8	19
589.9	11
590.1	6
590.2	12
590.3	18
590.4	17
590.5	10
590.7	3
590.8	9
590.9	16
591.0	16
591.1	11
591.3	5
591.4	10
591.5	17
591.6	22
591.7	19
591.8	11
592.0	2
592.1	8
592.2	15
592.3	18
592.4	15
592.6	7
592.7	10
592.8	16
592.9	19
593.0	16
593.1	11
593.3	10
593.4	15
593.5	17
593.6	15
593.7	9
593.9	2
594.0	8
594.1	16
594.2	19
594.3	12
594.5	0
594.6	5
594.7	15
594.8	21
594.9	21
595.0	15
595.2	10
595.3	15
595.4	19
595.5	19
595.6	14
595.8	8
595.9	12
596.0	17
596.1	19
596.2	17
596.3	13
596.5	11
596.6	14
596.7	16
596.8	14
596.9	9
597.1	3
597.2	8
597.3	15
597.4	21
597.5	21
597.6	17
597.8	14
597.9	17
598.0	18
598.1	15
598.2	9
598.4	7
598.5	14
598.6	21
598.7	25
598.8	22
598.9	15
599.1	9
599.2	15
599.3	20
599.4	20
599.5	14
