Mass spectrum: Purpurin; LC-ESI-QQQ; MS2; Frag=135.0V CID@15.0; [M+H]+
Name: Purpurin
Class: Polycyclic aromatic natural products
Formula: C14H8O5
Exact mass: 256.2169
SMILES: O=C1c2ccccc2C(=O)c2c(O)c(O)cc(O)c21
InChI: InChI=1S/C14H8O5/c15-8-5-9(16)14(19)11-10(8)12(17)6-3-1-2-4-7(6)13(11)18/h1-5,15-16,19H
Instrument: Agilent 6410 Triple Quadrupole LC/MS system
Instrument type: LC-ESI-QQQ
Ms type: MS2
Ion mode: POSITIVE
Precursor type: [M+H]+
m/z	relative intensity
186.5	2
186.6	3
186.7	6
186.8	8
186.9	11
187.0	13
187.1	14
187.2	13
187.3	10
187.4	6
187.5	2
228.5	1
228.6	2
228.7	5
228.8	7
228.9	9
229.0	10
229.1	10
229.2	9
229.3	7
229.4	4
229.5	1
256.2	1
256.3	3
256.4	6
256.5	11
256.6	21
256.7	36
256.8	58
256.9	80
257.0	96
257.1	99
257.2	93
257.3	77
257.4	52
257.5	25
257.6	4
