Mass spectrum: Testosterone; LC-ESI-QQQ; MS2; Frag=135.0V CID@10.0; [M+H]+
Name: Testosterone
Class: Steroids
Formula: C19H28O2
Exact mass: 288.4338
SMILES: C[C@]12CC[C@H]3[C@@H](CCC4=CC(=O)CC[C@@]43C)[C@@H]1CC[C@@H]2O
InChI: InChI=1S/C19H28O2/c1-18-9-7-13(20)11-12(18)3-4-14-15-5-6-17(21)19(15,2)10-8-16(14)18/h11,14-17,21H,3-10H2,1-2H3/t14-,15-,16-,17-,18-,19-/m0/s1
Instrument: Agilent 6410 Triple Quadrupole LC/MS system
Instrument type: LC-ESI-QQQ
Ms type: MS2
Ion mode: POSITIVE
Precursor type: [M+H]+
m/z	relative intensity
96.4	0
96.5	2
96.6	4
96.7	8
96.8	13
96.9	17
97.0	20
97.1	21
97.2	19
97.3	16
97.4	12
97.5	6
97.6	2
108.5	1
108.6	2
108.7	4
108.8	7
108.9	10
109.0	12
109.1	12
109.2	12
109.3	10
109.4	7
109.5	4
109.6	1
288.4	0
288.5	3
288.6	8
288.7	16
288.8	28
288.9	46
289.0	67
289.1	87
289.2	98
289.3	99
289.4	90
289.5	69
289.6	40
289.7	14
289.8	0
