Mass spectrum: Boldenone; LC-ESI-QQQ; MS2; Frag=135.0V CID@25.0; [M+H]+
Name: Boldenone
Class: Steroids
Formula: C19H26O2
Exact mass: 286.4179
SMILES: C[C@]12C=CC(=O)C=C1CCC1C2CC[C@]2(C)C(O)CCC12
InChI: InChI=1S/C19H26O2/c1-18-9-7-13(20)11-12(18)3-4-14-15-5-6-17(21)19(15,2)10-8-16(14)18/h7,9,11,14-17,21H,3-6,8,10H2,1-2H3/t14?,15?,16?,17?,18-,19-/m0/s1
Instrument: Agilent 6410 Triple Quadrupole LC/MS system
Instrument type: LC-ESI-QQQ
Ms type: MS2
Ion mode: POSITIVE
Precursor type: [M+H]+
m/z	relative intensity
80.7	2
80.8	3
80.9	5
81.0	6
81.1	7
81.2	7
81.3	6
81.4	4
81.5	2
92.5	1
92.6	2
92.7	4
92.8	6
92.9	8
93.0	9
93.1	10
93.2	10
93.3	9
93.4	6
93.5	3
106.6	1
106.7	2
106.8	4
106.9	5
107.0	7
107.1	8
107.2	8
107.3	6
107.4	4
107.5	2
120.2	0
120.3	2
120.4	5
120.5	11
120.6	19
120.7	32
120.8	51
120.9	73
121.0	91
121.1	99
121.2	97
121.3	83
121.4	59
121.5	31
121.6	8
121.7	0
134.5	1
134.6	3
134.7	6
134.8	10
134.9	15
135.0	19
135.1	22
135.2	22
135.3	21
135.4	17
135.5	11
135.6	4
135.7	0
146.6	2
146.7	4
146.8	6
146.9	8
147.0	11
147.1	12
147.2	12
147.3	10
147.4	7
147.5	4
147.6	1
172.6	1
172.7	3
172.8	5
172.9	7
173.0	9
173.1	11
173.2	11
173.3	10
173.4	8
173.5	5
173.6	2
