Mass spectrum: Lauberine; LC-ESI-QQQ; MS2; Frag=135.0V CID@5.0; [M+H]+
Name: Lauberine
Class: Alkaloids
Formula: C37H40N2O6
Exact mass: 608.7412
SMILES: COc1ccc2cc1Oc1ccc(cc1)C[C@H]1c3cc(OC)c(O)c(c3CCN1C)Oc1cc3c(cc1OC)CCN(C)[C@@H]3C2
InChI: InChI=1S/C37H40N2O6/c1-38-14-12-24-19-32(42-4)34-20-27(24)29(38)17-23-8-11-31(41-3)33(18-23)44-25-9-6-22(7-10-25)16-30-28-21-35(43-5)36(40)37(45-34)26(28)13-15-39(30)2/h6-11,18-21,29-30,40H,12-17H2,1-5H3/t29-,30+/m1/s1
Instrument: Agilent 6410 Triple Quadrupole LC/MS system
Instrument type: LC-ESI-QQQ
Ms type: MS2
Ion mode: POSITIVE
Precursor type: [M+H]+
m/z	relative intensity
608.1	0
608.2	2
608.3	4
608.4	6
608.5	11
608.6	18
608.7	25
608.8	29
608.9	35
609.0	49
609.1	72
609.2	93
609.3	99
609.4	91
609.5	71
609.6	43
609.7	17
609.8	0
