Mass spectrum: 6-Hydroxyhyoscyamine; LC-ESI-QQQ; MS2; Frag=135.0V CID@10.0; [M+H]+
Name: 6-Hydroxyhyoscyamine
Class: Alkaloids
Formula: C17H23NO4
Exact mass: 305.3772
SMILES: CN1[C@@H]2CC(OC(=O)C(CO)c3ccccc3)C[C@H]1C(O)C2
InChI: InChI=1S/C17H23NO4/c1-18-12-7-13(9-15(18)16(20)8-12)22-17(21)14(10-19)11-5-3-2-4-6-11/h2-6,12-16,19-20H,7-10H2,1H3/t12-,13?,14?,15+,16?/m1/s1
Instrument: Agilent 6410 Triple Quadrupole LC/MS system
Instrument type: LC-ESI-QQQ
Ms type: MS2
Ion mode: POSITIVE
Precursor type: [M+H]+
m/z	relative intensity
139.7	1
139.8	3
139.9	4
140.0	6
140.1	7
140.2	7
140.3	6
140.4	4
140.5	2
305.4	1
305.5	3
305.6	8
305.7	17
305.8	30
305.9	49
306.0	70
306.1	89
306.2	99
306.3	98
306.4	83
306.5	57
306.6	28
306.7	5
306.8	0
