Mass spectrum: Piptanthine; LC-ESI-QQQ; MS2; Frag=135.0V CID@5.0 ; [M+H]+
Name: Piptanthine
Class: Alkaloids
Formula: C20H35N3
Exact mass: 317.52205000000004
SMILES: C1CC[C@H](C23CC(C[C@@H]4CCCN[C@H]42)[C@@H]2CCCCN2C3)NC1
InChI: InChI=1S/C20H35N3/c1-3-9-21-18(8-1)20-13-16(12-15-6-5-10-22-19(15)20)17-7-2-4-11-23(17)14-20/h15-19,21-22H,1-14H2/t15-,16?,17-,18+,19+,20?/m0/s1
Instrument: Agilent 6410 Triple Quadrupole LC/MS system
Instrument type: LC-ESI-QQQ
Ms type: MS2
Ion mode: POSITIVE
Precursor type: [M+H]+
m/z	relative intensity
317.4	1
317.5	2
317.6	5
317.7	10
317.8	18
317.9	31
318.0	50
318.1	71
318.2	89
318.3	99
318.4	99
318.5	87
318.6	63
318.7	33
318.8	8
318.9	0
