Mass spectrum: Andrographolide; LC-ESI-QQQ; MS2; Frag=135.0V CID@25.0; [M+HCOO]-
Name: Andrographolide
Class: Terpenoids
Formula: C20H30O5
Exact mass: 350.4591
SMILES: C=C1CCC2C(C)(CO)C(O)CC[C@]2(C)C1C/C=C1/C(=O)OCC1O
InChI: InChI=1S/C20H30O5/c1-12-4-7-16-19(2,9-8-17(23)20(16,3)11-21)14(12)6-5-13-15(22)10-25-18(13)24/h5,14-17,21-23H,1,4,6-11H2,2-3H3/b13-5+/t14?,15?,16?,17?,19-,20?/m1/s1
Instrument: Agilent 6410 Triple Quadrupole LC/MS system
Instrument type: LC-ESI-QQQ
Ms type: MS2
Ion mode: NEGATIVE
Precursor type: [M+HCOO]-
m/z	relative intensity
238.8	2
238.9	4
239.0	6
239.1	8
239.2	8
239.3	5
239.4	2
286.5	1
286.6	4
286.7	10
286.8	16
286.9	25
287.0	41
287.1	60
287.2	73
287.3	72
287.4	57
287.5	36
287.6	17
287.7	3
303.1	1
303.2	3
303.3	5
303.4	5
303.5	4
303.6	2
330.5	1
330.6	4
330.7	21
330.8	45
330.9	64
331.0	75
331.1	84
331.2	94
331.3	99
331.4	89
331.5	61
331.6	28
331.7	5
331.8	0
