Mass spectrum: Icariin; LC-ESI-QQQ; MS2; Frag=135.0V CID@10.0; [M+H]+
Name: Icariin
Class: Flavonoids
Formula: C33H40O15
Exact mass: 676.6778
SMILES: COc1ccc(-c2oc3c(CC=C(C)C)c(OC4OC(CO)C(O)C(O)C4O)cc(O)c3c(=O)c2OC2OC(C)C(O)C(O)C2O)cc1
InChI: InChI=1S/C33H40O15/c1-13(2)5-10-17-19(45-33-28(42)26(40)23(37)20(12-34)46-33)11-18(35)21-24(38)31(48-32-27(41)25(39)22(36)14(3)44-32)29(47-30(17)21)15-6-8-16(43-4)9-7-15/h5-9,11,14,20,22-23,25-28,32-37,39-42H,10,12H2,1-4H3
Instrument: Agilent 6410 Triple Quadrupole LC/MS system
Instrument type: LC-ESI-QQQ
Ms type: MS2
Ion mode: POSITIVE
Precursor type: [M+H]+
m/z	relative intensity
368.4	0
368.5	1
368.6	4
368.7	7
368.8	10
368.9	14
369.0	17
369.1	18
369.2	17
369.3	14
369.4	10
369.5	5
369.6	1
530.2	1
530.3	2
530.4	5
530.5	10
530.6	17
530.7	28
530.8	45
530.9	65
531.0	84
531.1	96
531.2	99
531.3	94
531.4	80
531.5	58
531.6	31
531.7	8
531.8	0
676.6	1
676.7	2
676.8	4
676.9	7
677.0	10
677.1	12
677.2	12
677.3	12
677.4	10
677.5	6
677.6	2
