Mass spectrum: Pseudojervine; LC-ESI-QQQ; MS2; Frag=135.0V CID@25.0; [M+HCOO]-
Name: Pseudojervine
Class: Alkaloids
Formula: C33H49NO8
Exact mass: 587.7604
SMILES: CC1=C2C(=O)[C@H]3C(CC=C4C[C@@H](OC5O[C@H](CO)[C@@H](O)[C@H](O)[C@H]5O)CC[C@@]43C)[C@@H]2CC[C@]12OC1C[C@H](C)CN[C@H]1[C@H]2C
InChI: InChI=1S/C33H49NO8/c1-15-11-22-26(34-13-15)17(3)33(42-22)10-8-20-21-6-5-18-12-19(40-31-30(39)29(38)27(36)23(14-35)41-31)7-9-32(18,4)25(21)28(37)24(20)16(33)2/h5,15,17,19-23,25-27,29-31,34-36,38-39H,6-14H2,1-4H3/t15-,17+,19-,20-,21?,22?,23+,25+,26-,27+,29-,30+,31?,32-,33-/m0/s1
Instrument: Agilent 6410 Triple Quadrupole LC/MS system
Instrument type: LC-ESI-QQQ
Ms type: MS2
Ion mode: NEGATIVE
Precursor type: [M+HCOO]-
m/z	relative intensity
51.8	8
51.9	10
52.0	11
52.1	13
52.2	13
52.3	13
52.4	10
52.5	8
52.8	8
52.9	10
53.0	11
53.1	11
53.2	10
53.3	9
54.1	5
54.2	7
54.3	8
54.4	8
54.5	7
54.6	6
54.7	6
54.8	8
54.9	9
55.0	9
55.1	10
55.2	12
55.3	13
55.4	12
55.5	9
55.7	7
55.8	9
55.9	11
56.0	12
56.1	12
56.2	10
56.5	8
56.6	12
56.7	15
56.8	15
56.9	13
58.5	7
58.6	10
58.7	15
58.8	19
58.9	17
59.0	11
59.8	9
59.9	11
60.0	12
60.1	12
60.2	12
60.3	13
60.4	13
60.5	11
60.8	9
60.9	11
61.0	12
61.1	13
61.2	14
61.3	13
61.4	13
61.5	13
61.6	13
62.5	8
62.6	11
62.7	14
62.8	14
62.9	12
65.6	7
65.7	10
65.8	12
65.9	12
66.0	10
66.1	9
66.2	9
66.6	8
66.7	9
66.8	11
66.9	13
67.0	12
67.1	11
67.2	9
69.1	6
69.2	10
69.3	14
69.4	15
69.5	13
69.6	10
69.7	8
69.8	7
69.9	6
70.6	2
70.7	5
70.8	20
70.9	37
71.0	41
71.1	30
71.2	19
71.3	19
71.4	22
71.5	19
71.6	11
71.8	9
71.9	13
72.0	16
72.1	16
73.3	10
73.4	11
73.5	13
73.6	13
73.7	12
74.7	10
74.8	11
74.9	12
75.0	13
75.1	13
75.2	12
75.3	12
75.4	12
75.5	12
75.6	11
75.7	10
75.8	11
75.9	13
76.0	13
76.1	12
76.2	10
76.5	9
76.6	10
76.7	11
76.8	13
76.9	13
78.1	8
78.2	10
78.3	11
78.4	11
78.5	10
79.8	8
79.9	10
80.0	11
80.1	11
80.4	8
80.5	10
80.6	12
80.7	11
80.8	9
81.1	6
81.2	7
81.3	9
81.4	11
81.5	12
81.6	11
81.7	10
83.9	9
84.0	11
84.1	12
84.2	11
84.3	8
85.5	6
85.6	8
85.7	10
85.8	11
85.9	12
86.0	12
86.1	12
86.4	8
86.5	11
86.6	14
86.7	14
86.8	12
87.1	9
87.2	11
87.3	13
87.4	13
87.5	12
87.7	10
87.8	11
87.9	14
88.0	15
88.1	14
88.2	12
88.5	10
88.6	11
88.7	13
88.8	15
88.9	14
89.0	11
89.1	8
89.6	10
89.7	10
89.8	12
89.9	13
90.0	13
90.1	13
90.2	13
90.3	12
90.4	11
91.3	8
91.4	9
91.5	11
91.6	12
91.7	13
91.8	13
91.9	11
92.6	5
92.7	8
92.8	13
92.9	16
93.0	15
93.1	12
93.4	6
93.5	10
93.6	13
93.7	14
93.8	13
93.9	11
95.4	8
95.5	10
95.6	12
95.7	12
95.8	11
95.9	11
96.0	10
96.1	10
97.0	8
97.1	10
97.2	12
97.3	11
97.6	7
97.7	10
97.8	12
97.9	10
98.0	7
98.2	6
98.3	8
98.4	11
98.5	12
98.6	10
99.7	6
99.8	8
99.9	8
100.0	7
100.1	6
100.2	6
100.3	8
100.4	10
100.5	11
100.6	10
101.2	8
101.3	9
101.4	12
101.5	13
101.6	14
101.7	14
101.8	14
101.9	13
102.0	12
102.9	13
103.0	16
103.1	17
103.2	17
104.5	8
104.6	9
104.7	12
104.8	14
104.9	14
105.0	12
105.1	10
105.7	9
105.8	10
105.9	12
106.0	14
106.1	15
106.2	15
106.3	13
106.4	10
106.7	8
106.8	9
106.9	10
107.0	10
107.1	9
107.2	9
107.3	9
107.4	9
107.5	9
107.6	8
107.7	8
107.8	9
107.9	10
108.0	10
108.1	9
108.2	8
108.3	8
108.4	8
108.5	9
108.6	10
108.7	9
108.8	8
110.8	4
110.9	6
111.0	9
111.1	10
111.2	10
111.3	9
111.4	7
111.7	4
111.8	6
111.9	8
112.0	9
112.1	8
112.2	7
112.3	8
112.4	10
112.5	11
112.6	10
112.7	9
112.8	8
112.9	9
113.0	9
113.3	6
113.4	8
113.5	9
113.6	9
113.9	7
114.0	10
114.1	13
114.2	15
114.3	15
114.4	13
114.5	9
114.8	7
114.9	9
115.0	11
115.1	11
115.2	12
115.3	12
115.4	12
115.5	11
115.6	11
115.7	11
115.8	9
116.1	6
116.2	8
116.3	10
116.4	11
116.5	10
116.6	9
116.7	10
116.8	11
116.9	12
117.0	10
117.3	8
117.4	11
117.5	13
117.6	12
117.7	11
117.8	10
117.9	11
118.0	11
118.1	10
118.4	8
118.5	12
118.6	19
118.7	25
118.8	24
118.9	18
119.0	14
120.5	8
120.6	10
120.7	11
120.8	12
120.9	11
121.0	10
121.1	11
121.2	11
121.3	13
121.4	13
121.5	13
121.6	11
121.7	9
122.5	6
122.6	8
122.7	10
122.8	9
122.9	7
123.0	7
123.1	9
123.2	10
123.3	11
123.4	10
123.5	9
123.6	9
123.7	9
123.8	10
123.9	10
124.0	9
124.9	9
125.0	11
125.1	13
125.2	13
125.3	12
125.4	10
125.5	7
125.6	5
125.8	3
125.9	5
126.0	8
126.1	11
126.2	11
126.3	10
129.8	9
129.9	10
130.0	12
130.1	12
130.2	12
130.3	11
130.4	9
131.9	5
132.0	6
132.1	8
132.2	11
132.3	13
132.4	12
132.5	9
132.8	8
132.9	9
133.0	10
133.1	10
133.2	12
133.3	12
133.4	13
133.5	12
133.6	11
133.7	9
134.0	8
134.1	10
134.2	13
134.3	14
134.4	13
134.5	13
134.6	15
134.7	17
134.8	17
134.9	14
135.9	9
136.0	10
136.1	12
136.2	14
136.3	14
136.4	12
140.1	9
140.2	11
140.3	13
140.4	13
140.5	10
140.6	7
140.8	6
140.9	8
141.0	10
141.1	11
141.2	11
141.3	9
141.6	5
141.7	10
141.8	14
141.9	14
142.0	11
142.3	6
142.4	9
142.5	10
142.6	9
142.7	8
142.8	8
142.9	10
143.0	12
143.1	13
143.2	13
143.3	11
143.6	9
143.7	12
143.8	15
143.9	15
144.0	13
144.1	10
148.1	9
148.2	11
148.3	13
148.4	13
148.5	13
148.6	12
148.7	12
148.8	12
148.9	12
149.0	11
149.1	10
149.2	11
149.3	12
149.4	13
149.5	12
149.6	12
149.7	12
149.8	12
149.9	14
150.0	15
150.1	15
150.2	14
150.3	14
150.4	14
150.5	14
150.6	14
150.7	14
150.8	14
150.9	12
151.0	7
151.2	3
151.3	7
151.4	12
151.5	15
151.6	13
151.7	10
153.4	7
153.5	8
153.6	11
153.7	14
153.8	15
153.9	14
154.0	11
154.2	9
154.3	12
154.4	13
154.5	12
154.6	9
154.9	8
155.0	9
155.1	10
155.2	11
155.3	13
155.4	13
155.5	10
157.0	4
157.1	7
157.2	10
157.3	12
157.4	10
158.8	7
158.9	8
159.0	9
159.1	10
159.2	10
159.3	10
159.4	9
160.9	8
161.0	9
161.1	11
161.2	14
161.3	15
161.4	13
161.5	9
161.6	7
162.2	5
162.3	6
162.4	7
162.5	7
162.6	7
162.7	7
162.8	7
162.9	6
163.0	6
163.1	8
163.2	9
163.3	10
163.4	10
163.5	9
163.6	8
163.9	6
164.0	8
164.1	10
164.2	11
164.3	11
164.4	11
164.5	11
164.6	11
164.7	10
164.8	10
164.9	11
165.0	12
165.1	13
165.2	12
165.3	12
165.4	11
165.5	12
165.6	13
166.7	8
166.8	9
166.9	12
167.0	13
167.1	12
168.8	5
168.9	7
169.0	10
169.1	11
169.2	10
169.3	9
169.4	9
169.5	9
169.6	8
169.7	8
169.8	10
169.9	13
170.0	15
170.1	14
170.2	9
170.5	5
170.6	8
170.7	11
170.8	12
170.9	12
171.0	11
171.8	6
171.9	8
172.0	11
172.1	11
172.2	9
172.4	6
172.5	8
172.6	11
172.7	12
172.8	11
175.0	4
175.1	7
175.2	10
175.3	11
175.4	11
175.5	9
175.6	9
175.7	10
175.8	10
175.9	10
176.0	10
176.1	9
176.2	9
176.3	9
176.4	10
176.5	11
176.6	11
176.7	10
176.8	9
176.9	10
177.0	12
177.1	12
177.2	10
177.5	9
177.6	11
177.7	13
177.8	13
177.9	10
178.0	8
178.1	6
178.4	5
178.5	7
178.6	8
178.7	9
178.8	9
178.9	10
179.0	11
179.1	12
179.2	11
179.3	9
179.4	7
179.6	5
179.7	7
179.8	11
179.9	14
180.0	16
180.1	14
180.2	11
180.3	7
180.6	6
180.7	8
180.8	11
180.9	12
181.0	12
181.1	12
181.2	12
181.3	13
181.4	13
181.5	14
181.6	14
181.7	13
181.8	11
182.4	10
182.5	11
182.6	12
182.7	13
182.8	14
182.9	14
183.0	13
183.1	10
183.2	8
183.5	8
183.6	9
183.7	11
183.8	12
183.9	13
184.0	12
184.3	8
184.4	11
184.5	13
184.6	12
184.9	11
185.0	12
185.1	13
185.2	14
185.3	14
185.4	12
185.5	11
186.2	9
186.3	10
186.4	11
186.5	12
186.6	11
186.7	11
186.8	11
186.9	12
187.0	11
187.1	10
187.2	10
187.3	12
187.4	12
187.5	11
188.0	9
188.1	10
188.2	11
188.3	12
188.4	10
189.2	8
189.3	10
189.4	12
189.5	13
189.6	13
189.7	10
192.4	8
192.5	10
192.6	11
192.7	10
192.8	9
192.9	9
193.0	10
193.1	11
193.2	10
193.3	9
193.4	8
194.7	8
194.8	9
194.9	11
195.0	11
195.1	11
195.2	12
195.3	12
197.1	11
197.2	13
197.3	14
197.4	14
197.5	12
198.9	8
199.0	9
199.1	10
199.2	10
199.3	10
199.4	10
199.5	11
199.6	12
199.7	13
199.8	12
199.9	11
200.4	9
200.5	10
200.6	12
200.7	14
200.8	15
200.9	15
201.0	13
201.1	11
201.2	10
201.3	10
201.4	9
201.7	6
201.8	8
201.9	11
202.0	13
202.1	14
202.2	14
202.3	13
202.4	11
202.5	10
204.7	6
204.8	9
204.9	12
205.0	14
205.1	14
205.2	11
206.1	7
206.2	9
206.3	10
206.4	11
206.5	11
206.6	10
206.7	9
206.8	9
206.9	9
207.0	9
207.1	10
207.2	10
207.3	10
207.4	11
207.5	12
207.6	12
207.7	10
207.8	7
208.6	5
208.7	7
208.8	9
208.9	9
209.0	8
211.7	10
211.8	12
211.9	14
212.0	14
212.1	13
212.2	12
212.3	14
212.4	16
212.5	16
212.6	15
212.7	13
212.8	11
212.9	11
213.0	10
213.3	7
213.4	8
213.5	10
213.6	11
213.7	10
214.0	8
214.1	9
214.2	11
214.3	11
214.4	11
214.5	11
214.6	11
214.7	12
214.8	12
214.9	13
215.0	12
215.1	9
215.3	7
215.4	9
215.5	12
215.6	12
215.7	10
216.0	7
216.1	8
216.2	11
216.3	13
216.4	13
216.5	11
216.8	10
216.9	12
217.0	13
217.1	13
217.2	13
217.3	12
217.6	10
217.7	11
217.8	13
217.9	14
218.0	13
218.1	12
218.2	10
219.5	6
219.6	9
219.7	11
219.8	11
219.9	10
220.0	7
220.1	5
220.5	4
220.6	6
220.7	9
220.8	12
220.9	13
221.9	4
222.0	6
222.1	9
222.2	13
222.3	15
222.4	13
222.5	10
222.6	7
222.9	6
223.0	8
223.1	9
223.2	10
223.3	10
223.4	10
223.5	9
223.8	7
223.9	9
224.0	12
224.1	13
224.2	11
224.3	8
224.6	5
224.7	7
224.8	9
224.9	10
225.0	10
225.1	11
225.2	12
225.3	13
225.4	12
225.5	11
227.0	9
227.1	11
227.2	13
227.3	15
227.4	16
227.5	17
227.6	16
227.7	14
229.3	9
229.4	11
229.5	12
229.6	13
229.7	12
229.8	12
229.9	12
230.0	12
230.1	10
232.1	7
232.2	9
232.3	11
232.4	11
232.5	10
232.6	9
232.7	7
233.0	5
233.1	8
233.2	11
233.3	13
233.4	12
233.5	11
233.6	9
234.5	5
234.6	7
234.7	10
234.8	11
234.9	9
235.0	8
235.1	7
235.2	6
235.6	5
235.7	6
235.8	7
235.9	7
236.0	8
236.1	8
236.2	10
236.3	12
236.4	13
236.5	13
236.6	10
237.3	8
237.4	10
237.5	11
237.6	11
237.7	9
238.0	7
238.1	9
238.2	10
238.3	11
238.4	10
238.7	7
238.8	9
238.9	10
239.0	10
239.1	10
239.2	11
239.3	11
239.4	9
240.3	7
240.4	8
240.5	9
240.6	11
240.7	12
240.8	12
240.9	10
241.0	7
241.4	6
241.5	7
241.6	9
241.7	12
241.8	13
241.9	13
242.7	11
242.8	12
242.9	14
243.0	15
243.1	14
243.2	13
244.0	10
244.1	12
244.2	13
244.3	13
244.4	13
244.5	13
244.6	13
244.7	13
244.8	11
245.1	8
245.2	10
245.3	12
245.4	12
245.5	11
246.3	8
246.4	10
246.5	12
246.6	13
246.7	13
246.8	13
246.9	12
247.0	10
249.2	4
249.3	6
249.4	10
249.5	13
249.6	14
249.7	12
251.5	8
251.6	11
251.7	13
251.8	12
251.9	10
252.0	8
252.2	5
252.3	7
252.4	11
252.5	14
252.6	14
253.8	7
253.9	9
254.0	11
254.1	13
254.2	12
254.3	10
254.6	7
254.7	9
254.8	10
254.9	10
255.2	6
255.3	8
255.4	12
255.5	14
255.6	12
255.7	9
256.0	8
256.1	10
256.2	11
256.3	12
256.4	11
256.7	10
256.8	11
256.9	13
257.0	13
258.0	9
258.1	13
258.2	15
258.3	15
258.6	11
258.7	13
258.8	16
258.9	16
260.8	7
260.9	9
261.0	12
261.1	14
261.2	13
261.3	10
262.2	7
262.3	10
262.4	12
262.5	12
262.6	12
262.7	11
262.8	10
262.9	10
263.0	9
263.3	7
263.4	10
263.5	12
263.6	13
263.7	11
263.8	10
264.1	9
264.2	10
264.3	12
264.4	12
264.5	10
266.2	8
266.3	9
266.4	11
266.5	13
266.6	13
266.7	12
266.8	9
267.1	6
267.2	7
267.3	9
267.4	10
267.5	11
267.6	9
267.9	8
268.0	10
268.1	11
268.2	11
268.3	10
269.4	10
269.5	10
269.6	11
269.7	13
269.8	14
269.9	13
270.0	10
271.4	9
271.5	10
271.6	11
271.7	12
271.8	11
271.9	10
272.0	9
272.3	7
272.4	9
272.5	11
272.6	12
272.7	12
272.8	12
272.9	12
274.4	8
274.5	12
274.6	13
274.7	13
274.8	11
274.9	12
275.0	13
275.1	15
275.2	15
275.3	13
275.4	10
276.1	7
276.2	8
276.3	9
276.4	9
276.5	9
276.6	10
276.7	11
277.0	8
277.1	10
277.2	12
277.3	14
277.4	13
277.5	11
279.2	7
279.3	8
279.4	10
279.5	12
279.6	13
279.7	12
279.8	10
281.1	7
281.2	9
281.3	13
281.4	16
281.5	15
281.6	11
282.4	6
282.5	8
282.6	11
282.7	13
282.8	13
282.9	10
283.2	6
283.3	9
283.4	10
283.5	9
283.6	8
284.2	7
284.3	8
284.4	10
284.5	10
284.6	10
284.7	9
284.8	9
284.9	9
285.0	9
285.3	7
285.4	9
285.5	9
285.6	9
285.7	9
285.8	10
285.9	11
286.0	10
287.0	5
287.1	8
287.2	10
287.3	10
287.4	10
287.5	11
287.6	13
287.7	14
287.8	11
287.9	7
289.7	9
289.8	10
289.9	12
290.0	14
290.1	13
290.2	12
290.6	10
290.7	11
290.8	12
290.9	12
291.0	11
291.1	8
291.4	7
291.5	9
291.6	10
291.7	11
291.8	11
291.9	10
292.0	10
292.1	10
292.2	10
292.3	9
292.4	9
292.5	9
292.6	9
292.7	10
292.8	10
292.9	10
293.0	10
293.1	9
293.2	9
293.3	10
293.4	11
293.5	11
293.6	9
295.1	9
295.2	9
295.3	10
295.4	11
295.5	11
295.6	10
295.7	9
295.8	8
296.6	5
296.7	7
296.8	9
296.9	12
297.0	13
297.1	11
297.2	9
297.5	6
297.6	7
297.7	9
297.8	12
297.9	14
298.0	12
298.1	8
298.4	7
298.5	9
298.6	11
298.7	13
298.8	14
298.9	13
299.0	10
302.1	6
302.2	10
302.3	13
302.4	13
302.5	11
302.6	11
302.7	11
302.8	12
302.9	10
303.0	7
303.2	5
303.3	7
303.4	10
303.5	11
303.6	9
304.6	7
304.7	9
304.8	11
304.9	13
305.0	13
305.1	13
305.2	12
305.3	11
305.4	12
305.5	12
305.6	13
305.7	14
305.8	13
306.1	9
306.2	12
306.3	14
306.4	13
307.5	7
307.6	8
307.7	11
307.8	13
307.9	14
308.0	13
308.1	11
308.2	10
308.3	10
308.7	8
308.8	10
308.9	13
309.0	14
309.1	14
309.2	13
310.2	9
310.3	11
310.4	12
310.5	12
310.6	11
310.7	10
310.8	11
310.9	11
311.0	11
311.1	11
311.2	12
311.3	12
311.4	13
311.5	12
311.6	11
312.7	8
312.8	9
312.9	11
313.0	12
313.1	12
313.2	11
313.3	11
313.4	10
313.5	8
313.8	5
313.9	7
314.0	9
314.1	10
314.2	11
314.3	12
314.4	12
314.5	10
314.8	9
314.9	11
315.0	13
315.1	13
315.2	10
315.3	6
315.5	4
315.6	6
315.7	8
315.8	9
315.9	9
316.0	9
316.1	8
316.4	6
316.5	9
316.6	11
316.7	10
316.8	9
316.9	7
317.2	4
317.3	6
317.4	9
317.5	11
317.6	10
317.7	7
318.3	7
318.4	8
318.5	9
318.6	9
318.7	10
318.8	10
318.9	9
319.9	6
320.0	7
320.1	9
320.2	11
320.3	11
320.4	11
320.5	10
320.9	9
321.0	11
321.1	13
321.2	14
321.3	14
321.4	15
321.5	16
321.6	17
321.7	17
321.8	17
321.9	16
322.0	15
322.1	13
322.2	11
322.5	9
322.6	11
322.7	14
322.8	15
322.9	15
323.0	14
323.1	12
324.1	9
324.2	12
324.3	14
324.4	15
324.5	13
325.4	5
325.5	7
325.6	10
325.7	12
325.8	12
325.9	10
326.0	9
326.1	11
326.2	13
326.3	15
326.4	14
326.5	12
326.6	9
327.5	7
327.6	9
327.7	11
327.8	12
329.0	7
329.1	9
329.2	10
329.3	10
329.4	9
329.7	7
329.8	9
329.9	10
330.0	11
330.1	10
331.0	8
331.1	11
331.2	12
331.3	12
331.4	11
332.3	8
332.4	10
332.5	13
332.6	13
332.7	11
335.6	11
335.7	12
335.8	15
335.9	16
336.0	15
336.1	15
336.2	16
336.3	16
336.4	14
336.5	10
336.7	8
336.8	11
336.9	15
337.0	16
337.1	16
337.2	15
337.3	14
337.4	13
338.0	10
338.1	12
338.2	14
338.3	15
338.4	14
338.5	11
339.4	10
339.5	11
339.6	12
339.7	12
339.8	11
340.1	9
340.2	11
340.3	13
340.4	13
340.5	11
340.6	8
340.8	6
340.9	8
341.0	11
341.1	11
341.2	10
341.3	10
341.4	10
341.5	10
341.6	9
341.7	8
341.8	8
341.9	8
342.0	9
342.1	10
342.2	11
342.3	11
342.4	11
342.5	10
342.6	8
343.4	7
343.5	9
343.6	11
343.7	12
343.8	12
343.9	11
344.0	9
344.1	7
344.5	6
344.6	7
344.7	9
344.8	12
344.9	15
345.0	15
345.1	12
345.2	9
345.6	7
345.7	9
345.8	10
345.9	11
346.0	11
346.1	12
346.2	13
346.3	12
346.4	10
346.7	7
346.8	9
346.9	11
347.0	12
347.1	11
347.9	6
348.0	8
348.1	10
348.2	11
348.3	11
348.4	8
348.7	6
348.8	9
348.9	13
349.0	14
349.1	14
349.2	12
349.3	9
351.7	10
351.8	13
351.9	16
352.0	16
353.3	7
353.4	9
353.5	11
353.6	12
353.7	11
353.8	12
353.9	13
354.0	13
354.1	12
354.2	10
354.5	8
354.6	11
354.7	13
354.8	12
354.9	11
355.9	8
356.0	10
356.1	12
356.2	13
356.3	12
356.4	11
356.5	10
356.6	8
356.7	6
357.0	3
357.1	5
357.2	7
357.3	9
357.4	10
357.5	10
357.6	9
357.7	7
357.8	6
358.1	4
358.2	6
358.3	8
358.4	10
358.5	9
358.6	8
358.7	9
358.8	9
358.9	10
359.0	10
359.1	9
359.2	5
359.5	2
359.6	7
359.7	10
359.8	11
359.9	10
360.3	7
360.4	9
360.5	11
360.6	12
360.7	11
360.8	8
361.1	6
361.2	9
361.3	13
361.4	13
361.5	11
361.6	8
362.4	8
362.5	9
362.6	10
362.7	11
362.8	10
362.9	10
363.0	11
363.1	13
363.2	14
363.3	12
363.4	9
363.5	7
364.0	4
364.1	5
364.2	9
364.3	12
364.4	13
364.5	11
364.6	10
364.7	10
364.8	9
365.6	8
365.7	10
365.8	11
365.9	11
366.7	8
366.8	10
366.9	12
367.0	12
367.1	12
367.2	12
367.3	12
367.4	14
367.5	15
367.6	17
367.7	16
367.8	12
368.7	11
368.8	11
368.9	13
369.0	14
369.1	13
369.8	8
369.9	11
370.0	12
370.1	11
370.2	9
370.3	7
370.8	7
370.9	8
371.0	11
371.1	13
371.2	12
371.3	9
372.0	6
372.1	8
372.2	11
372.3	12
372.4	11
373.5	9
373.6	10
373.7	12
373.8	12
373.9	10
374.2	7
374.3	8
374.4	9
374.5	8
374.6	7
374.7	7
374.8	8
374.9	9
375.0	10
375.1	9
376.1	7
376.2	8
376.3	10
376.4	12
376.5	12
377.9	7
378.0	9
378.1	10
378.2	11
378.3	11
378.4	11
379.3	5
379.4	7
379.5	8
379.6	7
379.7	6
379.8	7
379.9	10
380.0	12
380.1	13
380.2	13
380.3	12
380.4	11
380.5	9
380.6	8
380.9	6
381.0	8
381.1	9
381.2	10
381.3	9
381.6	7
381.7	9
381.8	11
381.9	12
382.0	12
383.0	8
383.1	11
383.2	14
383.3	16
383.4	16
383.5	16
383.6	16
383.7	16
383.8	14
383.9	11
384.0	9
384.4	8
384.5	10
384.6	13
384.7	14
384.8	12
385.7	5
385.8	8
385.9	12
386.0	15
386.1	14
386.2	12
386.3	11
386.4	9
386.5	8
386.9	7
387.0	8
387.1	9
387.2	9
387.3	10
387.4	12
387.5	12
387.6	11
387.9	9
388.0	10
388.1	11
388.2	12
388.3	12
388.4	13
388.5	13
388.6	12
388.7	10
388.8	9
388.9	9
389.0	8
389.3	7
389.4	8
389.5	10
389.6	12
389.7	12
389.8	11
390.6	6
390.7	9
390.8	13
390.9	14
391.0	14
392.8	9
392.9	12
393.0	14
393.1	14
393.2	12
393.3	9
393.6	6
393.7	8
393.8	10
393.9	11
394.0	11
394.1	10
394.2	10
394.3	11
394.4	12
394.5	11
394.6	9
394.9	5
395.0	7
395.1	10
395.2	13
395.3	15
395.4	14
395.5	10
395.7	8
395.8	11
395.9	13
396.0	15
396.1	13
396.2	11
396.5	7
396.6	10
396.7	12
396.8	12
397.1	9
397.2	11
397.3	12
397.4	11
397.5	11
397.6	12
397.7	14
397.8	13
397.9	11
398.2	8
398.3	10
398.4	12
398.5	12
398.6	12
398.7	11
398.8	11
398.9	12
399.0	13
399.1	14
399.2	15
399.3	15
399.4	14
399.5	13
399.6	12
399.7	11
399.8	9
400.3	8
400.4	9
400.5	10
400.6	11
400.7	11
400.8	10
401.1	7
401.2	9
401.3	12
401.4	13
401.5	12
402.4	7
402.5	9
402.6	10
402.7	10
402.8	10
402.9	11
403.0	11
403.1	11
403.2	12
403.3	12
403.4	12
403.5	13
403.6	12
403.7	11
405.3	5
405.4	8
405.5	11
405.6	13
405.7	12
406.8	7
406.9	7
407.0	9
407.1	10
407.2	9
407.6	8
407.7	10
407.8	12
407.9	13
408.0	12
408.1	9
408.4	7
408.5	9
408.6	10
408.7	10
408.8	9
408.9	8
409.0	8
409.1	8
409.2	9
409.3	9
411.0	8
411.1	9
411.2	11
411.3	12
411.4	11
411.5	8
411.6	6
411.9	5
412.0	7
412.1	9
412.2	10
412.3	11
412.4	12
412.5	13
412.6	12
412.7	9
413.0	7
413.1	9
413.2	10
413.3	11
413.4	13
413.5	15
413.6	14
413.7	11
414.6	12
414.7	14
414.8	16
414.9	16
415.0	14
417.5	5
417.6	8
417.7	12
417.8	14
417.9	13
418.0	11
419.0	8
419.1	12
419.2	16
419.3	17
419.4	15
419.5	11
419.6	8
419.7	7
419.8	7
419.9	7
420.2	5
420.3	8
420.4	11
420.5	12
420.6	11
420.7	11
424.0	7
424.1	8
424.2	10
424.3	12
424.4	12
424.5	11
424.6	10
425.5	6
425.6	8
425.7	10
425.8	10
425.9	8
426.2	5
426.3	7
426.4	10
426.5	12
426.6	12
426.7	11
428.2	7
428.3	8
428.4	9
428.5	10
428.6	10
428.7	11
428.8	11
428.9	12
429.0	11
429.1	9
429.4	8
429.5	9
429.6	11
429.7	13
429.8	15
429.9	15
430.0	14
430.1	14
430.2	12
430.3	10
430.4	9
430.7	7
430.8	9
430.9	13
431.0	15
431.1	15
431.2	12
432.0	8
432.1	12
432.2	14
432.3	13
432.4	10
433.2	8
433.3	9
433.4	10
433.5	10
433.9	8
434.0	10
434.1	12
434.2	13
434.3	14
434.4	13
434.5	9
434.8	6
434.9	9
435.0	10
435.1	10
435.2	10
435.3	9
435.4	9
435.5	10
435.6	10
435.7	11
435.8	11
435.9	11
436.0	11
436.1	10
436.2	10
436.3	10
436.4	10
436.5	10
436.6	11
436.7	12
436.8	13
436.9	12
437.0	11
437.9	8
438.0	9
438.1	11
438.2	13
438.3	13
439.2	4
439.3	6
439.4	10
439.5	13
439.6	14
439.7	12
439.8	10
439.9	7
440.2	6
440.3	7
440.4	8
440.5	10
440.6	11
440.7	10
441.8	6
441.9	7
442.0	9
442.1	11
442.2	11
442.3	11
442.4	10
442.5	10
442.6	11
442.7	11
442.8	11
442.9	11
443.0	11
443.1	9
444.7	7
444.8	9
444.9	12
445.0	13
445.1	12
445.2	12
445.3	12
445.4	14
445.5	15
445.6	15
445.7	15
445.8	14
445.9	14
446.0	13
446.1	13
446.2	13
446.3	13
446.4	12
446.5	12
446.6	13
446.7	13
447.0	10
447.1	12
447.2	14
447.3	14
447.4	12
447.8	10
447.9	11
448.0	13
448.1	14
448.2	13
448.3	12
448.4	11
448.5	10
448.8	9
448.9	10
449.0	12
449.1	12
449.2	11
450.1	7
450.2	9
450.3	12
450.4	13
450.5	12
452.7	4
452.8	7
452.9	12
453.0	16
453.1	16
453.2	11
453.3	6
453.5	5
453.6	8
453.7	10
453.8	10
453.9	10
454.0	10
454.1	9
454.2	8
454.5	7
454.6	8
454.7	10
454.8	13
454.9	14
455.0	13
455.1	10
455.2	7
455.4	6
455.5	7
455.6	9
455.7	10
455.8	12
455.9	13
456.0	13
456.1	13
456.2	12
456.3	10
457.2	7
457.3	10
457.4	12
457.5	13
457.6	12
457.7	9
459.7	9
459.8	11
459.9	12
460.0	12
460.1	13
460.2	13
460.3	12
460.4	10
460.7	9
460.8	12
460.9	16
461.0	17
461.1	16
461.2	14
461.3	13
461.4	12
461.5	10
461.8	8
461.9	10
462.0	12
462.1	12
462.2	12
462.3	11
463.1	8
463.2	10
463.3	12
463.4	11
463.5	10
463.6	10
463.7	10
463.8	11
463.9	11
465.3	8
465.4	10
465.5	12
465.6	13
465.7	13
465.8	13
465.9	13
466.0	12
466.1	10
466.2	8
466.6	7
466.7	8
466.8	10
466.9	12
467.0	13
467.1	11
467.2	9
468.4	6
468.5	10
468.6	13
468.7	14
468.8	12
468.9	10
469.0	9
470.0	7
470.1	9
470.2	12
470.3	15
470.4	16
470.5	14
470.6	11
470.7	8
471.0	6
471.1	9
471.2	11
471.3	12
471.4	10
471.5	7
471.6	5
471.9	4
472.0	5
472.1	7
472.2	8
472.3	8
472.4	8
472.5	8
472.6	9
472.7	10
472.8	10
473.1	6
473.2	10
473.3	14
473.4	16
473.5	14
473.6	10
476.0	8
476.1	10
476.2	13
476.3	16
476.4	18
476.5	17
476.6	15
477.7	12
477.8	14
477.9	15
478.0	15
478.1	13
480.2	8
480.3	9
480.4	10
480.5	10
480.6	9
480.7	9
480.8	8
480.9	8
481.0	8
481.1	9
481.2	10
481.3	10
482.7	4
482.8	5
482.9	7
483.0	10
483.1	11
483.2	10
484.7	7
484.8	9
484.9	10
485.0	12
485.1	11
485.2	9
485.8	5
485.9	7
486.0	9
486.1	11
486.2	11
488.2	7
488.3	8
488.4	11
488.5	13
488.6	13
489.6	9
489.7	11
489.8	13
489.9	13
490.0	11
490.3	10
490.4	12
490.5	13
490.6	13
490.7	11
490.8	9
491.1	9
491.2	11
491.3	12
491.4	12
491.5	12
491.6	12
491.7	12
491.8	12
491.9	13
492.0	13
492.3	11
492.4	13
492.5	16
492.6	17
492.7	15
492.8	11
494.4	6
494.5	8
494.6	12
494.7	14
494.8	14
494.9	12
495.0	9
496.0	7
496.1	8
496.2	11
496.3	14
496.4	14
496.5	11
496.6	8
496.9	5
497.0	7
497.1	11
497.2	14
497.3	13
497.4	10
497.7	9
497.8	10
497.9	10
498.0	11
498.1	10
498.2	10
499.7	7
499.8	10
499.9	11
500.0	12
500.1	13
500.2	15
500.3	14
500.4	11
500.7	9
500.8	10
500.9	11
501.0	12
501.1	11
501.2	9
501.5	8
501.6	11
501.7	14
501.8	15
501.9	13
502.0	10
503.7	5
503.8	8
503.9	11
504.0	12
504.1	12
504.2	11
504.3	11
504.4	12
504.5	12
504.6	11
504.7	9
505.0	7
505.1	8
505.2	10
505.3	10
505.4	9
505.7	7
505.8	10
505.9	12
506.0	12
506.1	11
506.2	9
506.7	8
506.8	10
506.9	13
507.0	15
507.1	15
507.2	14
507.3	12
508.2	11
508.3	13
508.4	15
508.5	15
508.6	14
508.7	10
509.0	7
509.1	9
509.2	12
509.3	12
509.4	11
510.0	8
510.1	9
510.2	12
510.3	15
510.4	14
510.5	10
510.8	6
510.9	10
511.0	13
511.1	13
511.2	11
511.3	10
511.9	6
512.0	8
512.1	11
512.2	14
512.3	13
512.4	11
513.5	5
513.6	8
513.7	11
513.8	12
513.9	13
514.0	12
514.1	10
516.1	4
516.2	7
516.3	11
516.4	12
516.5	11
516.6	10
516.7	10
516.8	9
517.6	8
517.7	10
517.8	13
517.9	13
518.0	11
518.9	7
519.0	9
519.1	11
519.2	11
521.2	8
521.3	10
521.4	11
521.5	12
521.6	10
521.9	8
522.0	9
522.1	11
522.2	12
522.6	10
522.7	12
522.8	14
522.9	15
523.0	14
523.1	13
523.4	11
523.5	14
523.6	16
523.7	16
523.8	13
523.9	10
524.3	9
524.4	9
524.5	11
524.6	13
524.7	13
524.8	11
524.9	9
525.2	9
525.3	11
525.4	13
525.5	14
525.6	12
525.9	7
526.0	10
526.1	10
526.2	9
526.3	8
526.4	9
526.5	10
526.6	9
526.7	8
527.0	6
527.1	7
527.2	9
527.3	12
527.4	12
527.5	10
527.6	8
527.9	7
528.0	8
528.1	10
528.2	13
528.3	14
528.4	14
528.5	13
528.6	12
528.7	11
528.8	9
529.1	8
529.2	10
529.3	12
529.4	13
529.5	12
530.0	10
530.1	11
530.2	13
530.3	14
531.5	6
531.6	8
531.7	12
531.8	14
531.9	14
532.0	11
532.3	8
532.4	11
532.5	13
532.6	12
532.7	10
533.0	7
533.1	10
533.2	12
533.3	12
533.4	10
533.7	8
533.8	10
533.9	12
534.0	12
534.1	10
534.9	8
535.0	9
535.1	11
535.2	13
535.3	14
535.4	12
535.5	9
535.8	6
535.9	7
536.0	9
536.1	11
536.2	13
536.3	14
536.4	14
536.5	12
536.6	10
536.7	8
537.1	8
537.2	8
537.3	10
537.4	10
537.5	10
537.6	8
538.0	7
538.1	8
538.2	9
538.3	10
538.4	11
538.5	12
538.6	12
538.7	12
538.8	11
538.9	11
539.0	11
539.1	12
539.2	12
539.3	11
539.4	11
539.5	12
539.6	13
539.7	13
541.5	9
541.6	10
541.7	12
541.8	14
541.9	13
542.0	11
542.1	9
542.2	8
542.5	6
542.6	8
542.7	10
542.8	10
542.9	9
543.0	8
543.1	10
543.2	12
543.3	12
543.4	10
543.6	8
543.7	10
543.8	12
543.9	13
544.0	13
544.1	11
544.2	9
546.3	8
546.4	10
546.5	11
546.6	11
546.7	9
546.8	7
547.1	6
547.2	7
547.3	8
547.4	8
547.5	9
547.6	10
547.7	10
547.8	8
548.1	7
548.2	9
548.3	10
548.4	11
548.5	11
548.6	9
548.9	6
549.0	8
549.1	10
549.2	9
549.9	6
550.0	8
550.1	10
550.2	9
552.3	5
552.4	7
552.5	9
552.6	12
552.7	15
552.8	15
552.9	13
553.0	11
554.6	10
554.7	11
554.8	13
554.9	16
555.0	17
555.1	16
555.2	13
555.5	11
555.6	12
555.7	13
555.8	13
555.9	12
556.0	12
557.8	9
557.9	10
558.0	12
558.1	14
558.2	12
558.5	11
558.6	13
558.7	14
558.8	14
558.9	13
560.4	10
560.5	10
560.6	11
560.7	12
560.8	13
560.9	12
561.0	11
561.1	11
561.2	12
561.3	14
561.4	14
561.5	12
561.6	11
562.8	9
562.9	10
563.0	11
563.1	10
563.2	9
564.1	7
564.2	9
564.3	10
564.4	9
564.7	7
564.8	9
564.9	11
565.0	12
565.1	12
565.2	11
565.3	9
565.4	7
565.9	6
566.0	6
566.1	9
566.2	14
566.3	17
566.4	14
566.5	8
568.5	6
568.6	7
568.7	10
568.8	11
568.9	12
569.0	12
569.1	12
569.2	12
569.3	11
569.4	12
569.5	15
569.6	16
569.7	15
570.0	11
570.1	14
570.2	14
570.3	13
570.6	10
570.7	12
570.8	13
570.9	13
571.0	12
571.1	13
571.2	14
571.3	15
571.4	15
571.5	12
571.6	9
571.9	8
572.0	9
572.1	11
572.2	14
572.3	15
572.4	14
572.5	11
572.9	10
573.0	10
573.1	11
573.2	12
573.3	14
573.4	16
573.5	15
573.6	12
573.7	6
573.9	3
574.0	8
574.1	12
574.2	14
574.3	13
574.4	12
574.5	12
574.6	13
574.7	14
574.8	12
574.9	9
575.2	8
575.3	10
575.4	12
575.5	13
575.6	14
575.7	11
575.8	7
576.0	3
576.1	6
576.2	9
576.3	11
576.4	10
576.7	7
576.8	9
576.9	11
577.0	13
577.1	13
577.2	11
577.3	9
577.6	7
577.7	9
577.8	11
577.9	12
578.0	11
578.1	9
578.7	5
578.8	7
578.9	10
579.0	12
579.1	11
579.2	10
579.9	7
580.0	9
580.1	10
580.2	11
580.3	11
580.4	12
580.5	13
580.6	14
580.7	13
580.8	9
581.1	7
581.2	9
581.3	10
581.4	10
581.5	9
581.6	9
581.7	10
581.8	10
581.9	10
582.0	10
582.1	9
582.2	10
582.3	11
582.4	13
582.5	13
582.6	13
582.7	11
583.0	8
583.1	11
583.2	14
583.3	15
583.4	14
583.5	13
583.6	12
583.7	11
583.8	9
584.8	10
584.9	10
585.0	11
585.1	15
585.2	21
585.3	24
585.4	21
585.5	15
587.2	10
587.3	12
587.4	13
587.5	13
587.8	11
587.9	13
588.0	14
588.1	14
588.2	13
589.0	7
589.1	9
589.2	12
589.3	14
589.4	13
589.5	11
590.9	6
591.0	8
591.1	9
591.2	8
591.3	6
591.6	6
591.7	8
591.8	9
591.9	10
592.0	10
592.1	8
593.6	6
593.7	8
593.8	10
593.9	11
594.0	11
594.1	10
596.9	6
597.0	9
597.1	12
597.2	11
597.3	8
597.5	5
597.6	7
597.7	10
597.8	10
597.9	10
598.0	10
598.1	10
598.2	8
598.4	6
598.5	8
598.6	11
598.7	13
598.8	13
598.9	10
599.2	8
599.3	9
599.4	11
599.5	13
599.6	12
599.7	12
599.8	12
599.9	12
600.0	10
600.3	7
600.4	10
600.5	14
600.6	14
600.7	12
601.0	11
601.1	13
601.2	15
601.3	16
601.4	16
601.5	13
601.6	9
601.8	7
601.9	11
602.0	13
602.1	13
602.2	11
602.3	10
602.4	12
602.5	13
602.6	14
602.7	13
602.8	12
602.9	12
603.0	11
603.1	10
604.0	7
604.1	8
604.2	10
604.3	12
604.4	13
604.5	12
604.6	11
604.7	9
605.0	6
605.1	7
605.2	10
605.3	12
605.4	11
606.2	8
606.3	9
606.4	11
606.5	11
606.6	10
606.7	7
607.3	8
607.4	9
607.5	11
607.6	12
607.7	12
607.8	11
607.9	10
608.0	10
609.6	6
609.7	8
609.8	9
609.9	8
610.0	7
610.1	8
610.2	9
610.3	11
610.4	13
610.5	13
610.6	13
610.7	12
610.8	11
613.0	7
613.1	10
613.2	13
613.3	12
614.6	9
614.7	12
614.8	14
614.9	13
615.0	10
615.5	10
615.6	12
615.7	14
615.8	13
617.0	11
617.1	15
617.2	19
617.3	20
617.4	16
617.5	10
620.0	9
620.1	11
620.2	14
620.3	13
620.4	9
621.8	10
621.9	11
622.0	13
622.1	13
622.2	11
622.5	8
622.6	11
622.7	12
622.8	11
622.9	8
623.1	5
623.2	7
623.3	10
623.4	13
623.5	14
623.6	12
625.3	7
625.4	10
625.5	13
625.6	12
625.7	9
627.8	5
627.9	7
628.0	9
628.1	10
628.2	10
628.3	9
632.0	8
632.1	9
632.2	12
632.3	14
632.4	15
632.5	14
634.2	7
634.3	11
634.4	14
634.5	14
634.6	12
637.7	8
637.8	11
637.9	14
638.0	14
638.1	12
638.4	8
638.5	12
638.6	15
638.7	15
638.8	13
638.9	11
639.0	10
639.7	8
639.8	11
639.9	13
640.0	12
640.1	8
640.3	6
640.4	10
640.5	12
640.6	12
641.5	8
641.6	9
641.7	12
641.8	14
641.9	14
642.0	13
642.1	11
642.2	10
642.3	9
642.6	5
642.7	7
642.8	10
642.9	12
643.0	11
643.1	9
643.4	7
643.5	9
643.6	12
643.7	14
643.8	14
643.9	13
644.0	10
644.2	7
644.3	9
644.4	12
644.5	13
646.1	9
646.2	10
646.3	12
646.4	15
646.5	18
646.6	20
646.7	20
646.8	16
646.9	12
648.0	9
648.1	11
648.2	13
648.3	13
648.4	11
651.1	8
651.2	9
651.3	11
651.4	13
651.5	14
651.6	12
651.7	9
652.0	7
652.1	8
652.2	9
652.3	10
652.4	11
652.5	11
652.6	11
652.7	10
652.8	11
652.9	10
653.0	10
653.3	7
653.4	9
653.5	12
653.6	13
653.7	11
653.8	8
654.1	7
654.2	9
654.3	10
654.4	11
654.5	11
654.6	11
654.7	10
654.8	11
654.9	11
655.0	10
655.1	9
655.2	9
655.3	10
655.4	9
657.4	10
657.5	10
657.6	11
657.7	13
657.8	15
657.9	14
658.0	12
658.8	4
658.9	7
659.0	11
659.1	13
659.2	13
659.3	10
659.6	5
659.7	9
659.8	12
659.9	12
660.0	9
661.0	7
661.1	8
661.2	10
661.3	12
661.4	12
661.5	11
661.9	9
662.0	10
662.1	11
662.2	13
662.3	15
662.4	15
662.5	14
662.6	11
663.5	10
663.6	12
663.7	14
663.8	15
663.9	13
665.0	8
665.1	11
665.2	13
665.3	14
665.4	13
665.5	12
667.9	9
668.0	10
668.1	11
668.2	11
668.5	9
668.6	11
668.7	14
668.8	14
668.9	11
669.0	7
669.2	3
669.3	6
669.4	11
669.5	14
669.6	14
669.7	12
669.8	10
669.9	10
670.0	8
670.3	6
670.4	9
670.5	12
670.6	12
670.7	10
670.8	7
671.5	5
671.6	8
671.7	11
671.8	12
671.9	10
672.8	5
672.9	6
673.0	8
673.1	8
673.2	8
673.3	6
673.6	2
673.7	5
673.8	9
673.9	12
674.0	12
674.1	9
674.2	5
674.4	3
674.5	6
674.6	10
674.7	12
674.8	13
674.9	11
676.0	4
676.1	6
676.2	8
676.3	10
676.4	10
676.5	9
676.6	8
676.9	7
677.0	9
677.1	12
677.2	14
677.3	13
677.4	10
677.7	7
677.8	11
677.9	13
678.0	13
678.1	12
678.2	10
678.7	9
678.8	11
678.9	12
679.0	13
679.1	12
679.2	11
679.3	11
679.4	10
679.5	11
679.6	11
679.7	11
679.8	12
679.9	11
681.4	7
681.5	9
681.6	11
681.7	11
681.8	8
682.0	5
682.1	7
682.2	10
682.3	13
682.4	13
684.1	7
684.2	7
684.3	8
684.4	10
684.5	12
684.6	13
684.7	12
685.1	10
685.2	11
685.3	12
685.4	13
685.5	13
685.6	14
685.7	13
685.8	11
685.9	9
686.2	8
686.3	9
686.4	11
686.5	14
686.6	15
686.7	13
686.8	7
687.0	3
687.1	8
687.2	13
687.3	15
687.4	13
687.5	9
688.4	8
688.5	9
688.6	11
688.7	13
688.8	14
688.9	14
689.0	12
689.1	9
689.2	6
689.5	4
689.6	5
689.7	8
689.8	10
689.9	11
690.0	9
690.1	9
690.2	10
690.3	12
690.4	12
690.5	10
692.2	7
692.3	9
692.4	11
692.5	13
692.6	13
692.7	11
692.8	9
693.3	8
693.4	10
693.5	13
693.6	14
693.7	14
693.8	12
693.9	12
694.0	12
694.1	13
694.2	11
694.5	10
694.6	12
694.7	14
694.8	16
694.9	15
695.0	12
695.7	11
695.8	13
695.9	15
696.0	16
696.1	13
696.2	9
696.4	7
696.5	9
696.6	11
696.7	12
696.8	12
696.9	12
697.0	12
697.1	11
697.2	10
697.3	10
697.4	10
697.5	10
697.6	10
697.7	10
697.8	10
697.9	9
698.0	8
698.1	10
698.2	12
698.3	13
698.4	12
698.5	11
698.6	9
698.9	8
699.0	9
699.1	10
699.2	11
699.3	13
699.4	14
699.5	14
699.6	12
699.7	11
699.8	10
700.1	8
700.2	11
700.3	14
700.4	15
700.5	14
700.6	11
700.7	8
700.9	5
701.0	7
701.1	11
701.2	12
701.3	10
702.1	6
702.2	7
702.3	10
702.4	12
702.5	14
702.6	13
702.7	10
702.8	7
703.0	5
703.1	7
703.2	10
703.3	11
703.4	10
703.5	8
703.6	6
703.9	6
704.0	8
704.1	10
704.2	11
704.3	10
704.4	10
706.6	6
706.7	7
706.8	8
706.9	10
707.0	12
707.1	12
707.2	11
707.9	9
708.0	11
708.1	13
708.2	15
708.3	15
708.4	12
708.7	8
708.8	11
708.9	14
709.0	14
709.1	13
709.2	12
709.3	12
709.4	13
709.5	14
709.6	14
709.7	13
709.8	13
709.9	13
710.0	13
710.1	14
710.2	15
710.3	16
710.4	16
710.5	15
711.8	8
711.9	10
712.0	11
712.1	12
712.2	12
712.3	11
712.4	10
715.6	4
715.7	9
715.8	12
715.9	11
716.0	10
716.1	9
716.2	10
716.3	10
716.4	10
716.5	9
716.6	8
716.7	9
716.8	9
717.2	8
717.3	10
717.4	12
717.5	14
717.6	16
717.7	16
717.8	13
717.9	11
718.0	10
718.1	9
718.2	9
718.5	7
718.6	10
718.7	12
718.8	13
718.9	11
719.7	7
719.8	9
719.9	11
720.0	13
720.1	13
720.2	13
720.3	12
720.4	11
720.5	11
720.6	10
720.7	9
721.0	5
721.1	7
721.2	10
721.3	12
721.4	11
721.7	7
721.8	9
721.9	11
722.0	10
722.1	8
722.2	8
722.3	9
722.4	10
722.5	11
722.6	11
722.7	10
725.4	8
725.5	10
725.6	14
725.7	17
725.8	18
725.9	17
726.0	14
726.1	12
726.4	9
726.5	12
726.6	14
726.7	15
726.8	14
726.9	12
728.8	7
728.9	8
729.0	9
729.1	11
729.2	12
729.3	12
729.4	10
729.5	8
729.8	8
729.9	9
730.0	9
730.1	10
730.2	11
730.3	11
730.4	10
730.5	8
731.9	9
732.0	10
732.1	12
732.2	11
732.3	10
732.4	7
732.7	7
732.8	8
732.9	9
733.0	9
733.1	9
733.2	10
733.3	10
733.4	8
733.7	7
733.8	8
733.9	10
734.0	10
734.1	11
734.2	9
736.1	3
736.2	5
736.3	7
736.4	8
736.5	10
736.6	13
736.7	15
736.8	15
736.9	12
738.4	6
738.5	9
738.6	11
738.7	13
738.8	13
738.9	12
739.0	11
739.1	12
739.2	13
739.3	12
739.4	11
739.9	10
740.0	11
740.1	12
740.2	13
740.3	13
740.4	13
740.5	13
740.6	13
740.7	13
740.8	13
740.9	13
741.0	13
741.1	13
741.2	13
741.3	12
741.4	12
741.5	11
741.6	11
741.7	11
741.8	10
742.1	8
742.2	10
742.3	12
742.4	11
742.5	10
742.6	10
743.0	8
743.1	11
743.2	13
743.3	13
743.4	11
744.1	8
744.2	10
744.3	13
744.4	14
744.5	13
744.6	13
744.7	13
744.8	13
744.9	12
745.0	12
745.1	12
745.2	12
745.3	11
745.4	10
745.5	8
745.6	6
745.9	6
746.0	8
746.1	9
746.2	10
746.3	10
746.4	10
746.5	9
746.6	9
746.7	10
746.8	10
746.9	8
747.2	4
747.3	7
747.4	9
747.5	10
747.6	10
747.7	10
747.8	12
747.9	13
748.0	13
748.1	13
748.2	12
748.3	10
748.6	9
748.7	11
748.8	13
748.9	13
750.4	6
750.5	7
750.6	9
750.7	10
750.8	9
750.9	8
751.0	9
751.1	10
751.2	11
751.3	10
751.4	11
751.5	11
751.6	10
751.9	9
752.0	12
752.1	13
752.2	14
752.3	14
752.4	12
752.5	10
752.6	8
752.9	7
753.0	9
753.1	10
753.2	11
753.3	10
753.4	10
753.5	9
753.6	9
753.7	11
753.8	11
753.9	12
754.0	11
754.1	10
754.3	7
754.4	9
754.5	13
754.6	15
754.7	15
754.8	13
754.9	12
755.0	11
755.1	10
755.2	9
755.5	8
755.6	9
755.7	10
755.8	10
755.9	9
756.0	10
756.1	12
756.2	14
756.3	13
756.4	10
758.2	6
758.3	10
758.4	12
758.5	12
758.6	11
758.7	9
759.9	8
760.0	9
760.1	10
760.2	10
760.3	9
760.4	9
760.5	11
760.6	12
760.7	10
760.8	8
761.1	7
761.2	9
761.3	10
761.4	10
761.5	10
761.6	11
761.7	11
761.8	12
761.9	11
764.9	5
765.0	7
765.1	10
765.2	12
765.3	13
765.4	11
765.5	8
767.3	6
767.4	8
767.5	11
767.6	12
767.7	13
767.8	12
767.9	10
768.0	7
768.3	7
768.4	9
768.5	10
768.6	10
768.9	7
769.0	9
769.1	11
769.2	10
769.3	7
769.4	5
769.6	3
769.7	5
769.8	8
769.9	11
770.0	12
770.9	7
771.0	9
771.1	11
771.2	10
771.5	7
771.6	9
771.7	10
771.8	9
772.0	7
772.1	9
772.2	12
772.3	15
772.4	16
772.5	15
773.2	10
773.3	12
773.4	14
773.5	14
773.6	11
773.7	9
774.8	7
774.9	9
775.0	11
775.1	12
775.2	13
775.3	13
775.4	13
775.5	13
775.6	12
775.7	10
776.6	7
776.7	8
776.8	9
776.9	11
777.0	13
777.1	14
777.2	14
777.3	11
777.5	9
777.6	11
777.7	13
777.8	15
777.9	14
778.0	13
779.2	6
779.3	9
779.4	12
779.5	14
779.6	13
780.8	8
780.9	10
781.0	12
781.1	11
781.2	10
781.3	10
781.4	10
781.5	10
783.0	7
783.1	9
783.2	12
783.3	13
783.4	12
783.5	8
784.7	6
784.8	8
784.9	9
785.0	9
785.1	9
785.2	10
785.3	10
785.4	10
785.5	10
785.6	9
785.9	7
786.0	10
786.1	13
786.2	15
786.3	14
786.4	12
786.5	11
786.9	10
787.0	12
787.1	12
787.2	12
787.3	12
787.4	12
787.5	12
788.3	9
788.4	11
788.5	13
788.6	14
788.7	14
788.8	12
788.9	10
789.4	9
789.5	11
789.6	14
789.7	15
789.8	13
789.9	10
791.2	8
791.3	10
791.4	12
791.5	11
791.6	10
791.7	10
791.8	10
791.9	11
792.0	11
792.1	10
792.2	10
792.3	10
793.2	9
793.3	12
793.4	14
793.5	15
793.6	13
793.7	9
794.0	5
794.1	8
794.2	10
794.3	11
794.4	12
794.5	13
794.6	13
794.7	11
794.8	7
795.0	6
795.1	8
795.2	10
795.3	10
795.4	9
795.5	9
795.6	10
795.7	10
795.8	9
796.1	7
796.2	8
796.3	10
796.4	10
796.5	10
796.6	8
796.7	7
797.1	7
797.2	9
797.3	10
797.4	10
798.4	7
798.5	12
798.6	14
798.7	13
798.8	9
798.9	7
