Mass spectrum: Aucubin; LC-ESI-QQQ; MS2; Frag=135.0V CID@15.0; [M+HCOO]-
Name: Aucubin
Class: Terpenoids
Formula: C15H22O9
Exact mass: 346.3372
SMILES: OCC1=C[C@@H](O)[C@@H]2C=COC(OC3OC(CO)C(O)C(O)C3O)[C@H]12
InChI: InChI=1S/C15H22O9/c16-4-6-3-8(18)7-1-2-22-14(10(6)7)24-15-13(21)12(20)11(19)9(5-17)23-15/h1-3,7-21H,4-5H2/t7-,8+,9?,10+,11?,12?,13?,14?,15?/m0/s1
Instrument: Agilent 6410 Triple Quadrupole LC/MS system
Instrument type: LC-ESI-QQQ
Ms type: MS2
Ion mode: NEGATIVE
Precursor type: [M+HCOO]-
m/z	relative intensity
98.3	2
98.4	4
98.5	7
98.6	12
98.7	14
98.8	13
98.9	8
99.0	4
112.8	2
112.9	4
113.0	5
113.1	7
113.2	6
113.3	5
118.2	1
118.3	1
118.4	6
118.5	18
118.6	31
118.7	37
118.8	35
118.9	29
119.0	20
119.1	12
119.2	4
130.6	2
130.7	4
130.8	6
130.9	9
131.0	9
131.1	7
131.2	4
136.3	1
136.4	2
136.5	6
136.6	14
136.7	23
136.8	27
136.9	22
137.0	11
137.1	3
138.5	1
138.6	2
138.7	8
138.8	21
138.9	36
139.0	44
139.1	41
139.2	28
139.3	13
139.4	4
164.3	1
164.4	3
164.5	8
164.6	19
164.7	32
164.8	38
164.9	33
165.0	20
165.1	8
165.2	2
182.1	0
182.2	1
182.3	6
182.4	18
182.5	33
182.6	42
182.7	47
182.8	60
182.9	82
183.0	98
183.1	88
183.2	57
183.3	25
183.4	8
183.5	0
