Mass spectrum: Ajmaline; LC-ESI-QQQ; MS2;  Frag=135.0V CID@10.0 ; [M+HCOO]-
Name: Ajmaline
Class: Alkaloids
Formula: C20H26N2O2
Exact mass: 326.44242
SMILES: CC[C@H]1C2CC3C4N(C)c5ccccc5[C@]45C[C@@H](C2C5O)N3[C@@H]1O
InChI: InChI=1S/C20H26N2O2/c1-3-10-11-8-14-17-20(12-6-4-5-7-13(12)21(17)2)9-15(16(11)18(20)23)22(14)19(10)24/h4-7,10-11,14-19,23-24H,3,8-9H2,1-2H3/t10-,11?,14?,15-,16?,17?,18?,19+,20+/m0/s1
Instrument: Agilent 6410 Triple Quadrupole LC/MS system
Instrument type: LC-ESI-QQQ
Ms type: MS2
Ion mode: NEGATIVE
Precursor type: [M+HCOO]-
m/z	relative intensity
164.9	2
165.0	5
165.1	7
165.2	8
165.3	6
192.5	2
192.6	4
192.7	6
192.8	5
192.9	4
193.0	2
193.1	2
193.2	4
193.3	6
193.4	6
193.5	5
193.6	3
193.7	2
193.8	3
193.9	5
194.0	6
194.1	5
194.2	4
194.3	3
194.4	3
194.5	4
194.6	5
194.7	5
194.8	4
194.9	3
195.0	3
195.1	5
195.2	6
195.3	6
200.8	3
200.9	5
201.0	7
201.1	6
215.6	1
215.7	5
215.8	16
215.9	35
216.0	53
216.1	57
216.2	40
216.3	18
216.4	4
216.7	2
216.8	3
216.9	5
217.0	6
217.1	5
217.2	4
217.3	3
217.4	3
217.5	4
217.6	5
217.7	5
217.8	4
217.9	3
218.0	3
218.1	4
218.2	6
218.3	7
218.4	6
230.3	3
230.4	5
230.5	7
230.6	7
230.7	5
230.8	4
230.9	5
231.0	7
231.1	8
231.2	7
307.7	3
307.8	5
307.9	6
308.0	6
308.1	5
308.2	3
308.3	3
308.4	4
308.5	5
308.6	5
308.7	4
308.8	3
308.9	2
309.0	3
309.1	4
309.2	5
309.3	4
309.4	3
309.5	1
309.6	2
309.7	3
309.8	5
309.9	5
310.0	4
310.1	2
310.2	2
310.3	3
310.4	5
310.5	6
310.6	5
310.7	4
310.8	3
310.9	3
311.0	4
311.1	5
311.2	5
311.3	4
311.4	2
311.5	3
311.6	4
311.7	6
311.8	6
311.9	4
312.0	2
312.1	2
312.2	3
312.3	5
312.4	6
312.5	5
312.6	3
312.7	3
312.8	3
312.9	5
313.0	6
313.1	5
313.2	4
313.3	2
313.4	2
313.5	4
313.6	6
313.7	6
313.8	5
328.8	2
328.9	5
329.0	7
329.1	6
372.3	0
372.4	1
372.5	7
372.6	25
372.7	57
372.8	85
372.9	86
373.0	57
373.1	21
373.2	2
373.5	2
373.6	3
373.7	4
373.8	6
373.9	6
374.0	5
374.1	3
374.2	3
374.3	4
374.4	5
374.5	6
374.6	5
374.7	4
374.8	3
374.9	3
375.0	4
375.1	5
375.2	5
375.3	4
375.4	3
375.5	4
375.6	5
375.7	6
375.8	5
410.1	2
410.2	5
410.3	7
410.4	6
440.8	3
440.9	5
441.0	6
441.1	6
584.8	3
584.9	5
585.0	6
585.1	7
585.2	6
585.3	4
585.4	3
585.5	3
585.6	4
585.7	5
585.8	4
585.9	3
586.0	2
586.1	3
586.2	5
586.3	5
586.4	5
586.5	3
586.6	3
586.7	3
586.8	5
586.9	6
587.0	7
587.1	5
