Mass spectrum: lomatin; LC-ESI-QQQ; MS2; Frag=135.0V CID@15.0; [M+H]+
Name: lomatin
Class: Benzopyranoids
Formula: C14H14O4
Exact mass: 246.2653
SMILES: CC1(C)Oc2ccc3ccc(=O)oc3c2CC1O
InChI: InChI=1S/C14H14O4/c1-14(2)11(15)7-9-10(18-14)5-3-8-4-6-12(16)17-13(8)9/h3-6,11,15H,7H2,1-2H3
Instrument: Agilent 6410 Triple Quadrupole LC/MS system
Instrument type: LC-ESI-QQQ
Ms type: MS2
Ion mode: POSITIVE
Precursor type: [M+H]+
m/z	relative intensity
158.6	2
158.7	3
158.8	5
158.9	7
159.0	8
159.1	9
159.2	9
159.3	7
159.4	4
159.5	1
174.2	0
174.3	1
174.4	5
174.5	12
174.6	23
174.7	39
174.8	59
174.9	80
175.0	95
175.1	99
175.2	92
175.3	75
175.4	50
175.5	24
175.6	5
175.7	0
186.4	1
186.5	2
186.6	4
186.7	7
186.8	11
186.9	16
187.0	19
187.1	21
187.2	19
187.3	17
187.4	12
187.5	6
187.6	1
200.5	1
200.6	2
200.7	5
200.8	8
200.9	11
201.0	13
201.1	13
201.2	13
201.3	12
201.4	9
201.5	5
201.6	1
228.4	1
228.5	2
228.6	5
228.7	10
228.8	17
228.9	26
229.0	34
229.1	38
229.2	37
229.3	31
229.4	22
229.5	12
229.6	3
246.3	1
246.4	2
246.5	6
246.6	13
246.7	24
246.8	39
246.9	56
247.0	71
247.1	80
247.2	80
247.3	72
247.4	54
247.5	31
247.6	10
247.7	0
