Mass spectrum: Quercetin 3-glycoside, disaccharide; LC-ESI-QQQ; MS2; Frag=135.0V CID@25.0; [M+H]+
Name: Quer-3-Glc-7-Rha
Name: SPECIES
Name: quercetin-3-glucoside-7-rhamnoside / Quer-3-Rha-7-Glc / Quer-3-Glc-6pp-Rha
Name: Rutin
Name: rutoside
Name: Rutinic acid
Name: Vitamin P
Name: Quercetin, 3-(6-O-alpha-L-rhamnopyranosyl-beta-D-glucopyranoside
Name: 3,3',4',5,7-Pentahydroxyflavone-3-rhamnoglucoside
Name: 3,3',4',5,7-pentahydroxyflavone-3-rutinoside
Name: Bioflavonoid
Name: Birutan
Name: Eldrin
Name: Globulariacitrin
Name: Globularicitrin
Name: Ilixathin
Name: Melin
Name: Myrticalorin
Name: Myrticolorin
Name: Osyritin
Name: Osyritrin
Name: Oxyritin
Name: Paliuroside
Name: Phytomelin
Name: Rutabion
Name: Sophorin
Name: Tanrutin
Name: Violaquercitrin
Name: Quercetin 3-glycoside, disaccharide
Class: Flavonoids
Formula: C27H30O16
Exact mass: 610.5306
SMILES: C[C@H]1O[C@@H](O[C@H]2[C@@H](CO)O[C@@H](Oc3c(-c4ccc(O)c(O)c4)oc4cc(O)cc(O)c4c3=O)[C@H](O)[C@H]2O)[C@H](O)[C@H](O)[C@H]1O
InChI: InChI=1S/C27H30O16/c1-8-17(33)19(35)21(37)26(39-8)42-24-15(7-28)41-27(22(38)20(24)36)43-25-18(34)16-13(32)5-10(29)6-14(16)40-23(25)9-2-3-11(30)12(31)4-9/h2-6,8,15,17,19-22,24,26-33,35-38H,7H2,1H3/t8-,15-,17+,19-,20-,21-,22-,24+,26+,27+/m1/s1
Instrument: Agilent 6410 Triple Quadrupole LC/MS system
Instrument type: LC-ESI-QQQ
Ms type: MS2
Ion mode: POSITIVE
Precursor type: [M+H]+
m/z	relative intensity
84.6	2
84.7	3
84.8	4
84.9	5
85.0	6
85.1	6
85.2	5
85.3	3
85.4	2
302.2	1
302.3	3
302.4	8
302.5	15
302.6	25
302.7	39
302.8	57
302.9	77
303.0	93
303.1	99
303.2	92
303.3	71
303.4	42
303.5	16
303.6	0
