Mass spectrum: 2,3,14,20,22,25-Hexahydroxycholest-7-en-6-one; LC-ESI-QQQ; MS2; Frag=135.0V CID@15.0; [M+HCOO]-
Name: 2,3,14,20,22,25-Hexahydroxycholest-7-en-6-one
Class: Steroids
Formula: C27H44O7
Exact mass: 480.6475
SMILES: CC(C)(O)CC[C@H](O)[C@](C)(O)C1CC[C@@]2(O)C3=CC(=O)C4CC(O)C(O)C[C@]4(C)C3CC[C@]12C
InChI: InChI=1S/C27H44O7/c1-23(2,32)9-8-22(31)26(5,33)21-7-11-27(34)16-12-18(28)17-13-19(29)20(30)14-24(17,3)15(16)6-10-25(21,27)4/h12,15,17,19-22,29-34H,6-11,13-14H2,1-5H3/t15?,17?,19?,20?,21?,22-,24+,25+,26+,27+/m0/s1
Instrument: Agilent 6410 Triple Quadrupole LC/MS system
Instrument type: LC-ESI-QQQ
Ms type: MS2
Ion mode: NEGATIVE
Precursor type: [M+HCOO]-
m/z	relative intensity
158.5	1
158.6	3
158.7	6
158.8	8
158.9	9
159.0	7
318.6	2
318.7	3
318.8	4
318.9	6
319.0	6
319.1	5
319.2	4
319.3	4
319.4	4
319.5	3
478.1	1
478.2	2
478.3	3
478.4	6
478.5	11
478.6	16
478.7	25
478.8	40
478.9	60
479.0	79
479.1	89
479.2	93
479.3	96
479.4	99
479.5	93
479.6	70
479.7	36
479.8	8
479.9	0
524.7	1
524.8	3
524.9	5
525.0	7
525.1	7
525.2	4
525.3	3
525.4	4
525.5	7
525.6	7
525.7	4
525.8	1
