Mass spectrum: 2,3,14,20,22,25-Hexahydroxycholest-7-en-6-one; LC-ESI-QQQ; MS2; Frag=135.0V CID@25.0 ; [M+H]+
Name: 2,3,14,20,22,25-Hexahydroxycholest-7-en-6-one
Class: Steroids
Formula: C27H44O7
Exact mass: 480.6475300000001
SMILES: CC(C)(O)CC[C@H](O)[C@](C)(O)C1CC[C@@]2(O)C3=CC(=O)C4CC(O)C(O)C[C@]4(C)C3CC[C@]12C
InChI: InChI=1S/C27H44O7/c1-23(2,32)9-8-22(31)26(5,33)21-7-11-27(34)16-12-18(28)17-13-19(29)20(30)14-24(17,3)15(16)6-10-25(21,27)4/h12,15,17,19-22,29-34H,6-11,13-14H2,1-5H3/t15?,17?,19?,20?,21?,22-,24+,25+,26+,27+/m0/s1
Instrument: Agilent 6410 Triple Quadrupole LC/MS system
Instrument type: LC-ESI-QQQ
Ms type: MS2
Ion mode: POSITIVE
Precursor type: [M+H]+
m/z	relative intensity
68.3	1
68.4	2
68.5	4
68.6	6
68.7	8
68.8	11
68.9	12
69.0	12
69.1	12
69.2	13
69.3	12
69.4	7
69.5	3
80.4	2
80.5	3
80.6	6
80.7	9
80.8	11
80.9	11
81.0	11
81.1	11
81.2	10
81.3	6
81.4	3
96.4	0
96.5	2
96.6	5
96.7	7
96.8	8
96.9	8
97.0	7
97.1	6
97.2	5
97.3	4
97.4	3
98.5	0
98.6	2
98.7	4
98.8	7
98.9	8
99.0	9
99.1	9
99.2	9
99.3	8
99.4	6
99.5	3
106.6	2
106.7	4
106.8	7
106.9	10
107.0	11
107.1	10
107.2	7
107.3	4
107.4	2
122.5	1
122.6	3
122.7	5
122.8	9
122.9	12
123.0	12
123.1	10
123.2	7
123.3	4
123.4	2
124.3	1
124.4	2
124.5	4
124.6	5
124.7	7
124.8	8
124.9	10
125.0	13
125.1	15
125.2	14
125.3	9
125.4	4
125.5	1
134.7	2
134.8	3
134.9	4
135.0	5
135.1	6
135.2	6
135.3	5
135.4	3
144.9	3
145.0	3
145.1	5
145.2	6
145.3	6
145.4	4
145.5	2
146.8	1
146.9	3
147.0	5
147.1	6
147.2	5
147.3	3
148.5	1
148.6	2
148.7	4
148.8	4
148.9	4
149.0	4
149.1	4
149.2	4
149.3	5
149.4	5
149.5	3
149.6	1
158.7	1
158.8	3
158.9	4
159.0	5
159.1	6
159.2	5
159.3	4
159.4	2
160.6	1
160.7	2
160.8	4
160.9	5
161.0	8
161.1	9
161.2	8
161.3	5
161.4	2
164.3	1
164.4	3
164.5	7
164.6	14
164.7	26
164.8	42
164.9	61
165.0	78
165.1	92
165.2	99
165.3	95
165.4	76
165.5	46
165.6	17
165.7	0
170.6	1
170.7	3
170.8	4
170.9	4
171.0	4
171.1	2
172.5	2
172.6	3
172.7	5
172.8	7
172.9	9
173.0	10
173.1	10
173.2	8
173.3	6
173.4	4
173.5	1
174.9	1
175.0	3
175.1	5
175.2	5
175.3	4
175.4	2
186.5	1
186.6	2
186.7	4
186.8	7
186.9	9
187.0	11
187.1	11
187.2	8
187.3	5
187.4	2
188.4	1
188.5	2
188.6	5
188.7	6
188.8	5
188.9	3
190.4	2
190.5	3
190.6	4
190.7	5
190.8	7
190.9	9
191.0	9
191.1	8
191.2	5
191.3	2
196.8	0
196.9	1
197.0	4
197.1	6
197.2	7
197.3	6
197.4	3
204.7	1
204.8	2
204.9	4
205.0	5
205.1	4
205.2	3
212.6	1
212.7	3
212.8	5
212.9	5
213.0	4
224.6	1
224.7	2
224.8	4
224.9	4
225.0	3
242.7	0
242.8	2
242.9	3
243.0	5
243.1	6
243.2	4
243.3	2
248.5	1
248.6	2
248.7	3
248.8	4
248.9	5
249.0	6
249.1	7
249.2	7
249.3	7
249.4	4
249.5	2
264.6	1
264.7	2
264.8	3
264.9	4
265.0	6
265.1	8
265.2	8
265.3	6
265.4	3
282.6	1
282.7	3
282.8	5
282.9	7
283.0	8
283.1	8
283.2	8
283.3	8
283.4	6
283.5	3
284.9	1
285.0	3
285.1	4
285.2	5
285.3	4
285.4	2
294.7	1
294.8	2
294.9	4
295.0	6
295.1	7
295.2	6
295.3	4
295.4	1
300.6	1
300.7	3
300.8	7
300.9	11
301.0	14
301.1	15
301.2	14
301.3	13
301.4	9
301.5	5
301.6	1
302.6	0
302.7	2
302.8	3
302.9	5
303.0	7
303.1	8
303.2	6
303.3	4
303.4	1
318.7	1
318.8	3
318.9	4
319.0	6
319.1	7
319.2	8
319.3	6
319.4	3
330.6	0
330.7	2
330.8	4
330.9	7
331.0	9
331.1	8
331.2	6
331.3	3
331.4	2
370.4	3
370.5	4
370.6	5
370.7	8
370.8	16
370.9	28
371.0	42
371.1	52
371.2	60
371.3	65
371.4	62
371.5	45
371.6	22
371.7	3
426.6	1
426.7	3
426.8	5
426.9	8
427.0	10
427.1	11
427.2	12
427.3	13
427.4	13
427.5	11
427.6	6
427.7	1
444.7	1
444.8	2
444.9	6
445.0	11
445.1	16
445.2	18
445.3	19
445.4	17
445.5	12
445.6	6
445.7	1
