Mass spectrum: Bryoamaride; LC-ESI-QQQ; MS2; Frag=135.0V CID@25.0; [M+HCOO]-
Name: Bryoamaride
Class: Terpenoids
Formula: C36H54O12
Exact mass: 678.8246
SMILES: CC(C)(O)CCC(=O)[C@](C)(O)C1[C@H](O)C[C@@]2(C)C3CC=C4[C@@H](C=C(OC5OC(CO)C(O)C(O)C5O)C(=O)C4(C)C)[C@]3(C)C(=O)C[C@]12C
InChI: InChI=1S/C36H54O12/c1-31(2,45)12-11-23(39)36(8,46)28-19(38)14-33(5)22-10-9-17-18(35(22,7)24(40)15-34(28,33)6)13-20(29(44)32(17,3)4)47-30-27(43)26(42)25(41)21(16-37)48-30/h9,13,18-19,21-22,25-28,30,37-38,41-43,45-46H,10-12,14-16H2,1-8H3/t18-,19-,21?,22?,25?,26?,27?,28?,30?,33+,34-,35+,36+/m1/s1
Instrument: Agilent 6410 Triple Quadrupole LC/MS system
Instrument type: LC-ESI-QQQ
Ms type: MS2
Ion mode: NEGATIVE
Precursor type: [M+HCOO]-
m/z	relative intensity
320.8	1
320.9	3
321.0	5
321.1	7
321.2	6
321.3	3
382.8	1
382.9	2
383.0	4
383.1	5
383.2	7
383.3	9
383.4	9
383.5	7
383.6	3
496.4	0
496.5	3
496.6	10
496.7	22
496.8	39
496.9	53
497.0	61
497.1	61
497.2	63
497.3	70
497.4	73
497.5	60
497.6	34
497.7	10
497.8	0
658.3	1
658.4	3
658.5	5
658.6	8
658.7	11
658.8	14
658.9	15
659.0	16
659.1	20
659.2	25
659.3	30
659.4	32
659.5	27
659.6	16
659.7	5
659.8	0
676.2	1
676.3	2
676.4	5
676.5	8
676.6	13
676.7	19
676.8	25
676.9	32
677.0	44
677.1	65
677.2	88
677.3	99
677.4	91
677.5	67
677.6	38
677.7	14
677.8	0
