Mass spectrum: 17alpha-Strophadogenin; LC-ESI-QQQ; MS2; Frag=135.0V CID@25.0; [M+HCOO]-
Name: 17alpha-Strophadogenin
Class: Steroids
Formula: C23H32O7
Exact mass: 420.5073
SMILES: C[C@]12CCC3C(CCC4(O)CC(O)CC[C@]34C=O)C1(O)CC(O)[C@H]2C1=CC(=O)OC1
InChI: InChI=1S/C23H32O7/c1-20-5-3-15-16(4-7-22(28)9-14(25)2-6-21(15,22)12-24)23(20,29)10-17(26)19(20)13-8-18(27)30-11-13/h8,12,14-17,19,25-26,28-29H,2-7,9-11H2,1H3/t14?,15?,16?,17?,19-,20-,21+,22?,23?/m1/s1
Instrument: Agilent 6410 Triple Quadrupole LC/MS system
Instrument type: LC-ESI-QQQ
Ms type: MS2
Ion mode: NEGATIVE
Precursor type: [M+HCOO]-
m/z	relative intensity
82.5	1
82.6	3
82.7	5
82.8	6
82.9	5
83.0	4
83.1	4
83.2	4
83.3	3
120.6	1
120.7	2
120.8	5
120.9	6
121.0	6
121.1	5
121.2	4
121.3	2
138.4	1
138.5	2
138.6	3
138.7	7
138.8	11
138.9	13
139.0	12
139.1	8
139.2	4
139.3	1
224.7	1
224.8	2
224.9	4
225.0	4
225.1	3
230.6	1
230.7	3
230.8	6
230.9	7
231.0	6
231.1	3
244.6	1
244.7	3
244.8	6
244.9	9
245.0	12
245.1	16
245.2	19
245.3	17
245.4	9
245.5	2
278.5	1
278.6	2
278.7	5
278.8	6
278.9	6
279.0	5
279.1	3
280.6	1
280.7	2
280.8	4
280.9	5
281.0	3
282.3	1
282.4	2
282.5	5
282.6	11
282.7	17
282.8	19
282.9	18
283.0	18
283.1	20
283.2	20
283.3	16
283.4	10
283.5	4
283.6	1
292.6	0
292.7	1
292.8	4
292.9	6
293.0	6
293.1	4
293.2	1
300.7	1
300.8	3
300.9	5
301.0	8
301.1	14
301.2	17
301.3	16
301.4	10
301.5	3
308.2	0
308.3	0
308.4	4
308.5	16
308.6	37
308.7	56
308.8	64
308.9	65
309.0	72
309.1	88
309.2	99
309.3	91
309.4	63
309.5	30
309.6	8
309.7	0
320.4	0
320.5	1
320.6	7
320.7	17
320.8	24
320.9	26
321.0	25
321.1	25
321.2	23
321.3	16
321.4	7
321.5	1
326.6	1
326.7	2
326.8	5
326.9	8
327.0	11
327.1	14
327.2	15
327.3	11
327.4	6
327.5	1
336.4	0
336.5	1
336.6	5
336.7	11
336.8	15
336.9	14
337.0	11
337.1	10
337.2	9
337.3	8
337.4	4
337.5	1
338.4	1
338.5	3
338.6	4
338.7	6
338.8	11
338.9	19
339.0	25
339.1	25
339.2	17
339.3	9
339.4	5
339.5	2
356.8	1
356.9	2
357.0	4
357.1	6
357.2	6
357.3	5
357.4	2
364.2	1
364.3	2
364.4	4
364.5	8
364.6	12
364.7	18
364.8	24
364.9	30
365.0	37
365.1	40
365.2	36
365.3	25
365.4	12
365.5	4
372.6	1
372.7	2
372.8	4
372.9	5
373.0	4
373.1	2
382.4	0
382.5	1
382.6	4
382.7	9
382.8	15
382.9	20
383.0	19
383.1	13
383.2	7
383.3	3
400.2	0
400.3	1
400.4	5
400.5	15
400.6	28
400.7	40
400.8	49
400.9	57
401.0	65
401.1	72
401.2	77
401.3	75
401.4	64
401.5	41
401.6	16
401.7	1
418.7	0
418.8	2
418.9	5
419.0	7
419.1	8
419.2	7
419.3	4
419.4	1
