Mass spectrum: Fagarine I; LC-ESI-QQQ; MS2; Frag=135.0V CID@10.0; [M+H]+
Name: Fagarine I
Class: Alkaloids
Formula: C21H23NO5
Exact mass: 369.4212
SMILES: COc1ccc2c(c1OC)CN(C)CCc1cc3c(cc1C(=O)C2)OCO3
InChI: InChI=1S/C21H23NO5/c1-22-7-6-14-9-19-20(27-12-26-19)10-15(14)17(23)8-13-4-5-18(24-2)21(25-3)16(13)11-22/h4-5,9-10H,6-8,11-12H2,1-3H3
Instrument: Agilent 6410 Triple Quadrupole LC/MS system
Instrument type: LC-ESI-QQQ
Ms type: MS2
Ion mode: POSITIVE
Precursor type: [M+H]+
m/z	relative intensity
369.3	1
369.4	3
369.5	6
369.6	12
369.7	21
369.8	37
369.9	58
370.0	79
370.1	94
370.2	99
370.3	93
370.4	74
370.5	47
370.6	20
370.7	2
