Mass spectrum: Versicoside; LC-ESI-QQQ; MS2; Frag=135.0V CID@25.0; [M+HCOO]-
Name: Versicoside
Class: Steroids
Formula: C32H42O15
Exact mass: 666.6825
SMILES: COc1cc(C2OC[C@@H]3C(c4ccc(O[C@@H]5O[C@H](CO[C@@H]6O[C@@H](C)[C@H](O)[C@@H](O)[C@H]6O)[C@@H](O)[C@H](O)[C@H]5O)c(OC)c4)OC[C@H]23)ccc1O
InChI: InChI=1S/C32H42O15/c1-13-23(34)25(36)27(38)31(45-13)44-12-22-24(35)26(37)28(39)32(47-22)46-19-7-5-15(9-21(19)41-3)30-17-11-42-29(16(17)10-43-30)14-4-6-18(33)20(8-14)40-2/h4-9,13,16-17,22-39H,10-12H2,1-3H3/t13-,16-,17-,22+,23-,24+,25+,26-,27+,28+,29?,30?,31+,32+/m0/s1
Instrument: Agilent 6410 Triple Quadrupole LC/MS system
Instrument type: LC-ESI-QQQ
Ms type: MS2
Ion mode: NEGATIVE
Precursor type: [M+HCOO]-
m/z	relative intensity
58.2	3
58.3	4
58.4	8
58.5	13
58.6	19
58.7	23
58.8	23
58.9	19
59.0	13
59.1	7
59.2	2
70.3	2
70.4	3
70.5	5
70.6	6
70.7	8
70.8	9
70.9	9
71.0	8
71.1	7
71.2	4
71.3	2
88.3	2
88.4	4
88.5	7
88.6	13
88.7	21
88.8	27
88.9	28
89.0	24
89.1	18
89.2	14
89.3	10
89.4	6
89.5	2
96.4	1
96.5	2
96.6	5
96.7	7
96.8	9
96.9	8
97.0	5
97.1	2
100.3	2
100.4	3
100.5	5
100.6	8
100.7	14
100.8	20
100.9	24
101.0	23
101.1	16
101.2	7
101.3	1
102.1	1
102.2	2
102.3	4
102.4	9
102.5	16
102.6	25
102.7	33
102.8	38
102.9	36
103.0	27
103.1	15
103.2	5
103.3	0
118.1	1
118.2	2
118.3	6
118.4	13
118.5	23
118.6	32
118.7	36
118.8	35
118.9	33
119.0	31
119.1	28
119.2	21
119.3	11
119.4	4
124.1	1
124.2	3
124.3	6
124.4	11
124.5	18
124.6	25
124.7	31
124.8	35
124.9	37
125.0	36
125.1	30
125.2	19
125.3	8
125.4	1
132.6	2
132.7	3
132.8	4
132.9	5
133.0	4
133.1	3
150.3	2
150.4	4
150.5	6
150.6	8
150.7	9
150.8	9
150.9	8
151.0	7
151.1	5
151.2	4
151.3	3
162.3	1
162.4	2
162.5	4
162.6	9
162.7	16
162.8	25
162.9	30
163.0	29
163.1	21
163.2	11
163.3	4
163.4	3
246.5	2
246.6	4
246.7	9
246.8	17
246.9	25
247.0	27
247.1	22
247.2	14
247.3	5
247.4	1
306.4	2
306.5	3
306.6	5
306.7	7
306.8	9
306.9	12
307.0	14
307.1	14
307.2	12
307.3	9
307.4	5
307.5	2
356.2	1
356.3	2
356.4	5
356.5	12
356.6	23
356.7	37
356.8	54
356.9	73
357.0	92
357.1	99
357.2	89
357.3	65
357.4	35
357.5	12
357.6	2
