Mass spectrum: 16-Deethylindanomycin; LC-ESI-QQQ; MS2; Frag=135.0V CID@5.0; [M+H]+
Name: 16-Deethylindanomycin
Class: Carbohydrates
Formula: C29H39NO4
Exact mass: 465.6385
SMILES: CC/C(=C\C=C\C1C=CC2CCCC2C1C(=O)c1ccc[nH]1)C1OC(C(C)C(=O)O)CCC1C
InChI: InChI=1S/C29H39NO4/c1-4-20(28-18(2)13-16-25(34-28)19(3)29(32)33)8-5-10-22-15-14-21-9-6-11-23(21)26(22)27(31)24-12-7-17-30-24/h5,7-8,10,12,14-15,17-19,21-23,25-26,28,30H,4,6,9,11,13,16H2,1-3H3,(H,32,33)/b10-5+,20-8+
Instrument: Agilent 6410 Triple Quadrupole LC/MS system
Instrument type: LC-ESI-QQQ
Ms type: MS2
Ion mode: POSITIVE
Precursor type: [M+H]+
m/z	relative intensity
465.4	0
465.5	1
465.6	5
465.7	11
465.8	21
465.9	38
466.0	58
466.1	78
466.2	94
466.3	99
466.4	92
466.5	73
466.6	46
466.7	20
466.8	3
