Mass spectrum: Erythromycin propionate; LC-ESI-QQQ; MS2; Frag=135.0V CID@25.0; [M+H]+
Name: Erythromycin propionate
Class: Polyketides
Formula: C40H71NO14
Exact mass: 790.0102
SMILES: CCC(=O)OC1C(O[C@@H]2C(C)[C@H](OC3CC(C)(OC)[C@H](O)[C@@H](C)O3)[C@@H](C)C(=O)OC(CC)[C@@](C)(O)[C@H](O)[C@@H](C)C(=O)[C@H](C)C[C@]2(C)O)OC(C)CC1N(C)C
InChI: InChI=1S/C40H71NO14/c1-15-27-40(11,48)33(44)22(5)30(43)20(3)18-38(9,47)35(55-37-32(53-28(42)16-2)26(41(12)13)17-21(4)50-37)23(6)31(24(7)36(46)52-27)54-29-19-39(10,49-14)34(45)25(8)51-29/h20-27,29,31-35,37,44-45,47-48H,15-19H2,1-14H3/t20-,21?,22+,23?,24-,25-,26?,27?,29?,31+,32?,33-,34-,35-,37?,38+,39?,40-/m1/s1
Instrument: Agilent 6410 Triple Quadrupole LC/MS system
Instrument type: LC-ESI-QQQ
Ms type: MS2
Ion mode: POSITIVE
Precursor type: [M+H]+
m/z	relative intensity
115.2	2
115.3	4
115.4	6
115.5	8
115.6	11
115.7	13
115.8	14
115.9	12
116.0	9
116.1	7
116.2	6
116.3	5
116.4	2
139.5	2
139.6	4
139.7	6
139.8	8
139.9	8
140.0	5
140.1	2
213.0	1
213.1	2
213.2	4
213.3	8
213.4	13
213.5	21
213.6	33
213.7	48
213.8	69
213.9	89
214.0	99
214.1	92
214.2	68
214.3	38
214.4	14
214.5	2
