Mass spectrum: Conferone; LC-ESI-QQQ; MS2; Frag=135.0V CID@5.0; [M+H]+
Name: Conferone
Class: Benzopyranoids
Formula: C24H28O4
Exact mass: 380.4884
SMILES: CC1=CCC2C(C)(C)C(=O)CC[C@]2(C)[C@@H]1COc1ccc2ccc(=O)oc2c1
InChI: InChI=1S/C24H28O4/c1-15-5-9-20-23(2,3)21(25)11-12-24(20,4)18(15)14-27-17-8-6-16-7-10-22(26)28-19(16)13-17/h5-8,10,13,18,20H,9,11-12,14H2,1-4H3/t18-,20?,24-/m1/s1
Instrument: Agilent 6410 Triple Quadrupole LC/MS system
Instrument type: LC-ESI-QQQ
Ms type: MS2
Ion mode: POSITIVE
Precursor type: [M+H]+
m/z	relative intensity
162.6	2
162.7	3
162.8	5
162.9	6
163.0	6
163.1	7
163.2	7
163.3	6
163.4	4
163.5	2
200.8	2
200.9	4
201.0	5
201.1	7
201.2	7
201.3	8
201.4	7
201.5	5
201.6	2
380.3	0
380.4	2
380.5	4
380.6	7
380.7	13
380.8	24
380.9	43
381.0	67
381.1	88
381.2	99
381.3	99
381.4	87
381.5	63
381.6	33
381.7	8
381.8	0
