Mass spectrum: Hyrcanogenin; LC-ESI-QQQ; MS2;  Frag=135.0V CID@5.0 ; [M+HCOO]-
Name: Hyrcanogenin
Class: Steroids
Formula: C23H30O5
Exact mass: 386.49255000000005
SMILES: C[C@]12CCC3C(CCC4=CC(O)CC[C@@]43C=O)C1(O)CCC2C1=CC(=O)OC1
InChI: InChI=1S/C23H30O5/c1-21-7-5-18-19(3-2-15-11-16(25)4-8-22(15,18)13-24)23(21,27)9-6-17(21)14-10-20(26)28-12-14/h10-11,13,16-19,25,27H,2-9,12H2,1H3/t16?,17?,18?,19?,21-,22-,23?/m1/s1
Instrument: Agilent 6410 Triple Quadrupole LC/MS system
Instrument type: LC-ESI-QQQ
Ms type: MS2
Ion mode: NEGATIVE
Precursor type: [M+HCOO]-
m/z	relative intensity
384.3	0
384.4	2
384.5	6
384.6	12
384.7	19
384.8	27
384.9	37
385.0	48
385.1	59
385.2	66
385.3	63
385.4	48
385.5	29
385.6	13
385.7	3
430.1	0
430.2	2
430.3	4
430.4	8
430.5	15
430.6	24
430.7	37
430.8	51
430.9	69
431.0	86
431.1	97
431.2	99
431.3	91
431.4	74
431.5	48
431.6	21
431.7	2
