Mass spectrum: Deltaline; LC-ESI-QQQ; MS2; Frag=135.0V CID@15.0; [M+HCOO]-
Name: Deltaline
Class: Alkaloids
Formula: C27H41NO8
Exact mass: 507.6297
SMILES: CCN1C[C@]2(C)CCC(OC)C34C2[C@H](OC(C)=O)C2(OCO[C@@]25C[C@H](OC)[C@H]2C[C@]3(O)C5[C@H]2OC)[C@@H]14
InChI: InChI=1S/C27H41NO8/c1-7-28-12-23(3)9-8-17(32-5)26-20(23)21(36-14(2)29)27(22(26)28)25(34-13-35-27)11-16(31-4)15-10-24(26,30)19(25)18(15)33-6/h15-22,30H,7-13H2,1-6H3/t15-,16+,17?,18+,19?,20?,21+,22+,23+,24+,25-,26?,27?/m1/s1
Instrument: Agilent 6410 Triple Quadrupole LC/MS system
Instrument type: LC-ESI-QQQ
Ms type: MS2
Ion mode: NEGATIVE
Precursor type: [M+HCOO]-
m/z	relative intensity
50.7	13
50.8	19
50.9	25
51.0	26
51.1	21
51.3	12
51.4	16
51.5	23
51.6	26
51.7	22
51.8	15
52.0	11
52.1	16
52.2	21
52.3	22
52.4	19
52.6	14
52.7	20
52.8	26
52.9	25
53.0	17
53.2	5
53.3	11
53.4	22
53.5	27
53.6	23
53.7	14
53.9	7
54.0	15
54.1	23
54.2	25
54.3	19
54.5	9
54.6	14
54.7	23
54.8	26
54.9	21
55.0	11
55.2	9
55.3	19
55.4	26
55.5	25
55.6	17
56.4	10
56.5	14
56.6	20
56.7	24
56.8	22
56.9	15
57.1	11
57.2	18
57.3	25
57.4	24
57.5	16
57.7	7
57.8	12
57.9	21
58.0	26
58.1	23
58.2	15
58.4	7
58.5	15
58.6	23
58.7	25
58.8	20
59.0	12
59.1	16
59.2	23
59.3	25
59.4	20
59.7	13
59.8	20
59.9	25
60.0	22
60.1	13
60.3	11
60.4	20
60.5	27
60.6	26
60.7	19
61.0	11
61.1	19
61.2	23
61.3	21
61.4	14
61.6	11
61.7	17
61.8	23
61.9	22
62.0	15
62.2	10
62.3	16
62.4	22
62.5	22
62.6	18
62.8	10
62.9	14
63.0	21
63.1	26
63.2	24
63.3	16
63.5	10
63.6	17
63.7	23
63.8	25
63.9	20
64.7	13
64.8	16
64.9	22
65.0	26
65.1	24
65.2	18
65.4	11
65.5	15
65.6	22
65.7	24
65.8	20
66.0	11
66.1	15
66.2	22
66.3	26
66.4	23
66.5	14
66.7	7
66.8	15
66.9	22
67.0	23
67.1	16
67.3	10
67.4	17
67.5	24
67.6	26
67.7	20
67.8	11
68.0	11
68.1	17
68.2	22
68.3	21
68.4	16
68.6	10
68.7	15
68.8	21
68.9	25
69.0	22
69.1	15
69.3	14
69.4	20
69.5	25
69.6	21
69.7	12
69.9	8
70.0	16
70.1	24
70.2	24
70.3	18
70.5	11
70.6	15
70.7	20
70.8	21
70.9	17
71.2	12
71.3	16
71.4	19
71.5	19
71.6	16
71.8	12
71.9	17
72.0	22
72.1	22
72.2	17
72.5	12
72.6	18
72.7	22
72.8	20
72.9	13
73.1	9
73.2	18
73.3	27
73.4	28
73.5	22
74.4	13
74.5	19
74.6	24
74.7	24
74.8	17
75.0	8
75.1	14
75.2	22
75.3	24
75.4	18
75.6	8
75.7	14
75.8	22
75.9	26
76.0	22
76.1	14
76.3	7
76.4	15
76.5	24
76.6	27
76.7	21
76.9	11
77.0	16
77.1	22
77.2	24
77.3	19
77.6	11
77.7	18
77.8	24
77.9	24
78.0	17
78.2	8
78.3	13
78.4	23
78.5	27
78.6	24
78.7	16
78.9	12
79.0	17
79.1	22
79.2	23
79.3	19
79.5	12
79.6	16
79.7	22
79.8	23
79.9	18
80.2	10
80.3	18
80.4	22
80.5	21
80.6	15
80.8	8
80.9	14
81.0	21
81.1	22
81.2	16
81.4	10
81.5	16
81.6	23
81.7	24
81.8	19
82.0	11
82.1	15
82.2	23
82.3	27
82.4	25
82.5	17
82.7	11
82.8	18
82.9	26
83.0	27
83.1	21
83.4	13
83.5	20
83.6	25
83.7	22
83.8	15
84.0	11
84.1	18
84.2	24
84.3	25
84.4	20
84.6	11
84.7	16
84.8	22
84.9	26
85.0	21
85.1	13
85.3	8
85.4	16
85.5	21
85.6	19
85.7	11
85.9	7
86.0	14
86.1	22
86.2	24
86.3	20
86.5	12
86.6	17
86.7	24
86.8	27
86.9	23
87.0	14
87.2	10
87.3	17
87.4	23
87.5	22
87.6	16
87.8	10
87.9	17
88.0	25
88.1	26
88.2	21
88.5	15
88.6	21
88.7	25
88.8	22
88.9	16
89.1	13
89.2	19
89.3	26
89.4	27
89.5	20
89.7	9
89.8	14
89.9	22
90.0	26
90.1	22
90.4	15
90.5	20
90.6	23
90.7	21
90.8	16
91.0	13
91.1	18
91.2	24
91.3	25
91.4	19
91.7	13
91.8	20
91.9	24
92.0	22
92.1	16
92.3	13
92.4	20
92.5	26
92.6	25
92.7	19
92.9	12
93.0	16
93.1	22
93.2	23
93.3	18
93.5	6
93.6	10
93.7	21
93.8	30
93.9	30
94.0	24
94.1	15
94.3	13
94.4	19
94.5	22
94.6	19
94.7	11
94.9	9
95.0	17
95.1	25
95.2	25
95.3	17
95.5	9
95.6	18
95.7	25
95.8	24
95.9	15
96.1	6
96.2	13
96.3	21
96.4	25
96.5	22
97.4	8
97.5	17
97.6	25
97.7	28
97.8	22
98.1	13
98.2	21
98.3	26
98.4	22
98.7	14
98.8	23
98.9	29
99.0	27
99.1	18
99.3	8
99.4	14
99.5	21
99.6	24
99.7	19
99.8	12
100.0	9
100.1	17
100.2	23
100.3	23
100.4	16
100.6	11
100.7	18
100.8	24
100.9	25
101.0	18
101.2	7
101.3	12
101.4	20
101.5	24
101.6	20
101.7	12
101.9	10
102.0	17
102.1	23
102.2	24
102.3	19
102.5	11
102.6	16
102.7	24
102.8	26
102.9	20
103.2	12
103.3	19
103.4	23
103.5	22
103.6	18
103.8	16
103.9	20
104.0	24
104.1	23
104.2	17
104.4	8
104.5	14
104.6	23
104.7	27
104.8	24
104.9	17
105.1	15
105.2	20
105.3	24
105.4	23
105.5	16
105.7	8
105.8	14
105.9	23
106.0	27
106.1	23
106.2	15
106.4	13
106.5	19
106.6	23
106.7	22
106.8	16
107.0	12
107.1	19
107.2	25
107.3	25
107.4	19
107.6	9
107.7	15
107.8	24
107.9	28
108.0	25
108.1	16
108.3	9
108.4	14
108.5	21
108.6	22
108.7	19
108.9	14
109.0	17
109.1	21
109.2	22
109.3	18
109.6	10
109.7	19
109.8	27
109.9	27
110.0	19
110.2	9
110.3	16
110.4	25
110.5	26
110.6	18
110.8	6
110.9	13
111.0	22
111.1	26
111.2	22
111.3	13
111.5	10
111.6	19
111.7	26
111.8	26
111.9	18
112.2	11
112.3	19
112.4	23
112.5	20
112.6	14
112.8	12
112.9	18
113.0	22
113.1	22
113.2	16
113.4	10
113.5	15
113.6	20
113.7	22
113.8	19
114.0	11
114.1	15
114.2	22
114.3	25
114.4	21
114.5	14
114.7	11
114.8	16
114.9	21
115.0	20
115.1	15
115.3	10
115.4	14
115.5	19
115.6	21
115.7	18
116.0	12
116.1	18
116.2	24
116.3	25
116.4	19
116.6	10
116.7	15
116.8	22
116.9	23
117.0	18
117.2	8
117.3	13
117.4	22
117.5	28
117.6	25
117.7	17
117.9	10
118.0	17
118.1	23
118.2	25
118.3	19
118.5	9
118.6	15
118.7	23
118.8	27
118.9	23
119.0	14
119.2	12
119.3	21
119.4	26
119.5	24
119.6	15
119.8	8
119.9	16
120.0	26
120.1	30
120.2	24
120.3	15
120.5	13
120.6	21
120.7	29
120.8	29
120.9	21
121.7	12
121.8	18
121.9	25
122.0	28
122.1	22
122.2	12
122.4	7
122.5	15
122.6	23
122.7	24
122.8	17
123.0	8
123.1	16
123.2	27
123.3	31
123.4	25
123.5	14
123.7	11
123.8	19
123.9	25
124.0	23
124.1	16
124.3	8
124.4	13
124.5	20
124.6	24
124.7	21
125.6	11
125.7	17
125.8	21
125.9	20
126.0	14
126.2	9
126.3	15
126.4	23
126.5	26
126.6	23
126.7	16
126.9	12
127.0	17
127.1	18
127.2	14
127.4	5
127.5	10
127.6	19
127.7	26
127.8	24
127.9	16
128.1	9
128.2	17
128.3	26
128.4	28
128.5	21
128.6	13
128.8	11
128.9	18
129.0	23
129.1	24
129.2	19
129.4	13
129.5	20
129.6	28
129.7	28
129.8	20
130.0	8
130.1	14
130.2	24
130.3	29
130.4	26
130.5	19
131.3	9
131.4	14
131.5	24
131.6	27
131.7	20
131.9	7
132.0	13
132.1	23
132.2	28
132.3	24
132.4	16
132.6	10
132.7	14
132.8	18
132.9	18
133.0	14
133.2	10
133.3	15
133.4	21
133.5	23
133.6	19
133.9	12
134.0	19
134.1	24
134.2	21
134.5	13
134.6	20
134.7	27
134.8	27
134.9	20
135.2	12
135.3	21
135.4	27
135.5	26
135.6	19
135.8	13
135.9	20
136.0	27
136.1	27
136.2	20
137.1	12
137.2	19
137.3	27
137.4	28
137.5	22
138.3	7
138.4	10
138.5	19
138.6	25
138.7	25
138.8	18
139.0	11
139.1	17
139.2	24
139.3	25
139.4	20
139.6	11
139.7	15
139.8	23
139.9	26
140.0	22
140.3	14
140.4	22
140.5	27
140.6	26
140.7	19
140.8	11
141.0	9
141.1	16
141.2	21
141.3	20
141.6	15
141.7	21
141.8	26
141.9	25
142.0	18
142.2	8
142.3	13
142.4	20
142.5	23
142.6	19
142.9	13
143.0	20
143.1	24
143.2	22
143.3	17
143.5	12
143.6	16
143.7	21
143.8	22
143.9	18
144.1	11
144.2	16
144.3	24
144.4	28
144.5	26
144.6	18
144.8	14
144.9	20
145.0	25
145.1	24
145.2	17
145.4	9
145.5	15
145.6	23
145.7	27
145.8	24
145.9	17
146.1	15
146.2	22
146.3	27
146.4	25
146.5	16
146.7	9
146.8	17
146.9	24
147.0	22
147.1	15
147.3	11
147.4	18
147.5	25
147.6	26
147.7	20
147.9	10
148.0	15
148.1	23
148.2	28
148.3	26
148.4	19
148.6	12
148.7	17
148.8	23
148.9	25
149.0	21
149.1	14
149.3	13
149.4	19
149.5	25
149.6	23
149.7	16
149.9	11
150.0	17
150.1	22
150.2	24
150.3	20
150.5	13
150.6	17
150.7	22
150.8	23
150.9	19
151.1	13
151.2	16
151.3	21
151.4	25
151.5	23
151.6	18
151.8	13
151.9	18
152.0	23
152.1	25
152.2	19
152.5	11
152.6	19
152.7	25
152.8	23
152.9	16
153.1	11
153.2	16
153.3	21
153.4	22
153.5	17
153.7	11
153.8	14
153.9	19
154.0	21
154.1	18
154.3	10
154.4	14
154.5	20
154.6	24
154.7	23
154.8	18
155.0	12
155.1	18
155.2	25
155.3	27
155.4	21
155.5	12
155.7	9
155.8	17
155.9	23
156.0	23
156.1	17
156.3	13
156.4	18
156.5	23
156.6	24
156.7	18
156.9	10
157.0	15
157.1	22
157.2	25
157.3	22
157.4	13
157.6	8
157.7	15
157.8	23
157.9	24
158.0	18
158.2	9
158.3	15
158.4	22
158.5	23
158.6	16
158.8	9
158.9	16
159.0	24
159.1	26
159.2	20
159.3	12
159.5	9
159.6	17
159.7	23
159.8	24
159.9	18
160.1	6
160.2	11
160.3	20
160.4	26
160.5	24
160.6	18
160.8	14
160.9	19
161.0	22
161.1	20
161.2	13
161.4	8
161.5	15
161.6	24
161.7	26
161.8	22
161.9	15
162.1	14
162.2	20
162.3	24
162.4	21
162.5	13
162.7	8
162.8	16
162.9	25
163.0	26
163.1	19
164.0	12
164.1	19
164.2	24
164.3	22
164.4	15
164.6	9
164.7	15
164.8	22
164.9	24
165.0	20
165.1	13
165.3	12
165.4	18
165.5	23
165.6	22
165.7	16
165.9	11
166.0	16
166.1	20
166.2	20
166.3	16
166.5	10
166.6	15
166.7	23
166.8	27
166.9	22
167.2	13
167.3	22
167.4	26
167.5	23
167.6	14
167.8	10
167.9	18
168.0	24
168.1	23
168.2	15
168.4	4
168.5	9
168.6	18
168.7	24
168.8	23
168.9	15
169.1	7
169.2	16
169.3	24
169.4	24
169.5	18
169.7	11
169.8	16
169.9	23
170.0	24
170.1	18
170.4	10
170.5	18
170.6	25
170.7	25
170.8	18
171.1	12
171.2	18
171.3	23
171.4	20
171.7	12
171.8	22
171.9	28
172.0	26
172.1	17
172.3	9
172.4	16
172.5	24
172.6	28
172.7	23
172.8	15
173.0	12
173.1	18
173.2	22
173.3	19
173.5	12
173.6	16
173.7	23
173.8	26
173.9	22
174.0	14
174.2	8
174.3	12
174.4	18
174.5	21
174.6	18
174.8	8
174.9	12
175.0	20
175.1	26
175.2	24
175.3	17
175.5	11
175.6	18
175.7	25
175.8	26
175.9	20
176.1	12
176.2	18
176.3	27
176.4	30
176.5	23
176.6	12
176.8	8
176.9	15
177.0	21
177.1	21
177.2	15
177.4	11
177.5	19
177.6	27
177.7	26
177.8	18
178.0	6
178.1	12
178.2	21
178.3	27
178.4	24
178.5	15
178.7	7
178.8	15
178.9	25
179.0	27
179.1	21
179.3	11
179.4	15
179.5	23
179.6	25
179.7	20
179.8	10
180.0	7
180.1	16
180.2	24
180.3	23
180.4	14
180.6	8
180.7	15
180.8	23
180.9	23
181.0	17
181.2	6
181.3	11
181.4	20
181.5	25
181.6	23
181.7	15
181.9	11
182.0	19
182.1	27
182.2	27
182.3	20
182.5	12
182.6	18
182.7	25
182.8	28
182.9	22
183.0	14
183.2	10
183.3	17
183.4	22
183.5	22
183.6	18
184.4	7
184.5	13
184.6	23
184.7	29
184.8	23
184.9	11
185.1	7
185.2	16
185.3	24
185.4	23
185.5	18
185.7	13
185.8	17
185.9	22
186.0	22
186.1	17
186.2	10
186.4	9
186.5	15
186.6	21
186.7	22
186.8	17
187.0	14
187.1	21
187.2	28
187.3	28
187.4	19
187.6	8
187.7	13
187.8	20
187.9	24
188.0	23
188.1	17
188.3	12
188.4	18
188.5	24
188.6	25
188.7	20
188.9	12
189.0	16
189.1	21
189.2	23
189.3	20
189.5	12
189.6	16
189.7	22
189.8	25
189.9	22
190.0	14
190.2	9
190.3	16
190.4	23
190.5	23
190.6	17
190.8	6
190.9	13
191.0	22
191.1	26
191.2	23
191.3	14
191.5	11
191.6	20
191.7	30
191.8	32
191.9	25
192.0	13
192.2	12
192.3	21
192.4	27
192.5	24
192.6	14
192.8	9
192.9	16
193.0	23
193.1	23
193.2	17
193.4	12
193.5	18
193.6	25
193.7	28
193.8	22
194.1	11
194.2	20
194.3	27
194.4	25
194.5	16
194.7	7
194.8	14
194.9	23
195.0	26
195.1	20
195.3	9
195.4	14
195.5	22
195.6	26
195.7	21
195.8	12
196.0	10
196.1	18
196.2	24
196.3	25
196.4	20
196.6	14
196.7	18
196.8	24
196.9	26
197.0	21
197.3	12
197.4	21
197.5	27
197.6	24
197.7	16
197.9	10
198.0	17
198.1	23
198.2	24
198.3	21
198.4	14
198.6	11
198.7	16
198.8	21
198.9	21
199.0	17
199.2	13
199.3	18
199.4	22
199.5	21
199.8	15
199.9	20
200.0	24
200.1	24
200.2	18
200.4	9
200.5	13
200.6	21
200.7	27
200.8	26
200.9	19
201.1	10
201.2	15
201.3	22
201.4	24
201.5	19
201.7	10
201.8	14
201.9	21
202.0	24
202.1	22
202.2	15
202.4	11
202.5	17
202.6	23
202.7	22
202.8	18
203.0	14
203.1	17
203.2	20
203.3	21
203.4	17
203.6	11
203.7	15
203.8	21
203.9	24
204.0	21
204.3	13
204.4	21
204.5	26
204.6	24
204.7	17
205.0	11
205.1	17
205.2	22
205.3	23
205.4	20
205.6	16
205.7	21
205.8	24
205.9	22
206.0	15
206.2	9
206.3	16
206.4	24
206.5	25
206.6	20
206.8	8
206.9	14
207.0	23
207.1	29
207.2	27
207.3	17
207.5	10
207.6	17
207.7	24
207.8	24
207.9	18
208.1	11
208.2	16
208.3	22
208.4	24
208.5	21
208.6	14
208.8	10
208.9	16
209.0	21
209.1	21
209.2	15
209.4	9
209.5	13
209.6	17
209.7	18
209.8	15
210.0	10
210.1	15
210.2	24
210.3	30
210.4	28
210.5	18
210.7	9
210.8	15
210.9	22
211.0	23
211.1	16
211.3	6
211.4	11
211.5	19
211.6	25
211.7	23
211.8	18
212.0	14
212.1	19
212.2	23
212.3	21
212.4	13
212.6	8
212.7	16
212.8	26
212.9	28
213.0	21
213.2	9
213.3	14
213.4	22
213.5	26
213.6	22
213.7	15
213.9	10
214.0	18
214.1	25
214.2	26
214.3	19
214.5	11
214.6	17
214.7	25
214.8	27
214.9	22
215.0	13
215.2	10
215.3	18
215.4	24
215.5	22
215.6	14
215.8	11
215.9	20
216.0	26
216.1	25
216.2	18
216.4	10
216.5	15
216.6	21
216.7	23
216.8	20
217.1	15
217.2	20
217.3	24
217.4	23
217.5	17
217.7	11
217.8	16
217.9	23
218.0	26
218.1	21
218.2	12
218.4	9
218.5	17
218.6	25
218.7	26
218.8	19
219.0	11
219.1	15
219.2	21
219.3	21
219.4	15
219.6	11
219.7	17
219.8	23
219.9	25
220.0	21
220.1	14
220.3	12
220.4	19
220.5	24
220.6	24
220.7	19
220.9	9
221.0	13
221.1	20
221.2	25
221.3	22
221.6	14
221.7	21
221.8	27
221.9	25
222.0	17
222.2	7
222.3	13
222.4	21
222.5	25
222.6	23
222.7	15
222.9	10
223.0	16
223.1	22
223.2	22
223.3	16
223.5	10
223.6	15
223.7	20
223.8	20
223.9	16
224.1	11
224.2	17
224.3	24
224.4	26
224.5	20
224.6	12
224.8	10
224.9	17
225.0	23
225.1	22
225.2	15
225.4	10
225.5	18
225.6	26
225.7	27
225.8	21
225.9	12
226.1	11
226.2	18
226.3	23
226.4	20
226.7	10
226.8	19
226.9	26
227.0	23
227.1	15
227.3	8
227.4	14
227.5	22
227.6	26
227.7	24
227.8	17
228.0	10
228.1	16
228.2	21
228.3	21
228.6	12
228.7	20
228.8	29
228.9	31
229.0	23
229.1	12
229.3	9
229.4	18
229.5	26
229.6	24
229.7	16
229.9	14
230.0	21
230.1	26
230.2	24
230.3	17
230.5	9
230.6	15
230.7	22
230.8	25
230.9	21
231.2	14
231.3	20
231.4	24
231.5	21
231.6	12
231.8	7
231.9	14
232.0	22
232.1	24
232.2	20
232.5	13
232.6	20
232.7	25
232.8	24
232.9	18
233.1	11
233.2	17
233.3	25
233.4	27
233.5	23
233.7	13
233.8	17
233.9	25
234.0	28
234.1	22
234.2	12
234.4	10
234.5	17
234.6	22
234.7	19
234.8	12
235.0	9
235.1	16
235.2	23
235.3	24
235.4	19
235.6	13
235.7	17
235.8	22
235.9	22
236.0	17
236.1	10
236.3	8
236.4	15
236.5	22
236.6	23
236.7	18
237.0	10
237.1	17
237.2	21
237.3	19
237.5	9
237.6	13
237.7	22
237.8	29
237.9	27
238.0	18
238.2	9
238.3	15
238.4	24
238.5	28
238.6	23
238.7	14
238.9	10
239.0	17
239.1	23
239.2	22
239.3	16
239.5	13
239.6	19
239.7	25
239.8	25
239.9	20
240.8	13
240.9	19
241.0	24
241.1	24
241.2	17
241.4	11
241.5	16
241.6	23
241.7	24
241.8	19
242.6	6
242.7	11
242.8	20
242.9	27
243.0	26
243.1	17
243.3	5
243.4	12
243.5	22
243.6	29
243.7	26
243.8	16
244.0	8
244.1	19
244.2	31
244.3	33
244.4	25
244.5	14
244.7	14
244.8	22
244.9	26
245.0	24
245.2	20
245.3	24
245.4	27
245.5	25
245.6	18
245.9	8
246.0	18
246.1	26
246.2	26
246.3	18
246.5	8
246.6	13
246.7	21
246.8	24
246.9	19
247.1	9
247.2	14
247.3	22
247.4	27
247.5	23
247.6	14
247.8	8
247.9	17
248.0	25
248.1	27
248.2	21
248.5	12
248.6	20
248.7	25
248.8	23
248.9	18
249.1	16
249.2	21
249.3	25
249.4	24
249.5	17
249.7	13
249.8	20
249.9	26
250.0	25
250.1	16
250.3	6
250.4	12
250.5	21
250.6	26
250.7	22
250.8	14
251.0	6
251.1	13
251.2	22
251.3	27
251.4	25
251.5	18
251.7	14
251.8	21
251.9	26
252.0	24
252.1	16
252.3	7
252.4	13
252.5	20
252.6	22
252.7	17
252.9	12
253.0	17
253.1	23
253.2	26
253.3	23
253.4	17
253.6	14
253.7	19
253.8	24
253.9	24
254.0	19
254.2	10
254.3	15
254.4	23
254.5	26
254.6	22
254.8	12
254.9	16
255.0	25
255.1	30
255.2	26
255.3	16
255.5	8
255.6	16
255.7	26
255.8	27
255.9	21
256.1	8
256.2	14
256.3	24
256.4	28
256.5	22
256.8	12
256.9	22
257.0	29
257.1	26
257.2	17
257.4	8
257.5	16
257.6	25
257.7	27
257.8	21
257.9	12
258.1	10
258.2	17
258.3	22
258.4	23
258.5	20
258.6	16
258.8	14
258.9	17
259.0	18
259.1	16
259.3	13
259.4	17
259.5	23
259.6	25
259.7	20
259.9	11
260.0	16
260.1	25
260.2	30
260.3	27
260.4	16
260.6	7
260.7	16
260.8	26
260.9	31
261.0	26
261.1	17
261.3	10
261.4	17
261.5	23
261.6	23
261.7	18
261.9	12
262.0	17
262.1	22
262.2	22
262.3	17
262.5	12
262.6	18
262.7	25
262.8	26
262.9	21
263.0	13
263.2	11
263.3	19
263.4	25
263.5	23
263.6	14
263.8	7
263.9	14
264.0	21
264.1	24
264.2	21
264.3	15
264.5	11
264.6	15
264.7	19
264.8	20
264.9	16
265.1	12
265.2	18
265.3	24
265.4	25
265.5	18
265.7	8
265.8	14
265.9	22
266.0	25
266.1	21
266.2	14
266.4	13
266.5	19
266.6	23
266.7	23
266.8	17
267.0	10
267.1	15
267.2	20
267.3	21
267.4	16
267.6	10
267.7	17
267.8	25
267.9	30
268.0	26
268.1	17
268.3	10
268.4	16
268.5	22
268.6	24
268.7	19
268.9	11
269.0	17
269.1	24
269.2	26
269.3	21
270.2	12
270.3	19
270.4	24
270.5	23
270.6	16
270.8	7
270.9	11
271.0	19
271.1	24
271.2	22
271.3	13
271.5	9
271.6	18
271.7	26
271.8	26
271.9	17
272.1	6
272.2	12
272.3	22
272.4	26
272.5	22
272.8	14
272.9	22
273.0	27
273.1	23
273.2	14
273.4	5
273.5	12
273.6	21
273.7	26
273.8	23
273.9	16
274.1	13
274.2	19
274.3	23
274.4	23
274.5	17
274.7	10
274.8	15
274.9	21
275.0	23
275.1	18
275.3	11
275.4	17
275.5	24
275.6	25
275.7	19
275.9	10
276.0	14
276.1	21
276.2	24
276.3	21
276.4	13
276.6	10
276.7	18
276.8	27
276.9	30
277.0	23
277.1	12
277.3	7
277.4	16
277.5	23
277.6	23
277.7	17
277.9	10
278.0	15
278.1	20
278.2	19
278.3	12
278.5	8
278.6	16
278.7	26
278.8	29
278.9	23
279.0	13
279.2	9
279.3	17
279.4	24
279.5	23
279.6	14
279.8	5
279.9	15
280.0	25
280.1	28
280.2	20
280.5	10
280.6	20
280.7	27
280.8	24
280.9	16
281.1	10
281.2	18
281.3	26
281.4	27
281.5	20
281.7	9
281.8	14
281.9	23
282.0	27
282.1	24
282.2	15
282.4	9
282.5	16
282.6	23
282.7	24
282.8	17
283.0	10
283.1	17
283.2	24
283.3	24
283.4	17
283.6	8
283.7	14
283.8	22
283.9	26
284.0	23
284.1	15
284.3	9
284.4	17
284.5	27
284.6	29
284.7	23
285.0	13
285.1	21
285.2	25
285.3	23
285.4	17
285.6	13
285.7	18
285.8	22
285.9	20
286.0	14
286.2	9
286.3	17
286.4	26
286.5	27
286.6	19
286.8	9
286.9	16
287.0	25
287.1	27
287.2	21
287.3	12
287.5	10
287.6	17
287.7	24
287.8	24
287.9	17
288.1	9
288.2	14
288.3	20
288.4	23
288.5	19
288.8	12
288.9	19
289.0	23
289.1	20
289.2	12
289.4	8
289.5	16
289.6	24
289.7	27
289.8	21
289.9	10
290.1	8
290.2	18
290.3	25
290.4	23
290.5	16
290.7	10
290.8	18
290.9	26
291.0	27
291.1	20
291.3	10
291.4	17
291.5	25
291.6	28
291.7	22
291.8	13
292.0	9
292.1	16
292.2	23
292.3	23
292.4	16
292.6	7
292.7	14
292.8	24
292.9	29
293.0	24
293.1	14
293.3	7
293.4	16
293.5	22
293.6	21
293.7	14
293.9	8
294.0	14
294.1	19
294.2	21
294.3	18
294.5	13
294.6	16
294.7	21
294.8	23
294.9	19
295.1	10
295.2	14
295.3	21
295.4	26
295.5	24
295.6	16
295.8	9
295.9	15
296.0	23
296.1	27
296.2	22
296.5	13
296.6	22
296.7	28
296.8	24
296.9	16
297.1	11
297.2	19
297.3	24
297.4	23
297.5	16
297.7	8
297.8	14
297.9	22
298.0	26
298.1	22
298.2	14
298.4	11
298.5	18
298.6	24
298.7	22
298.8	15
299.0	8
299.1	16
299.2	25
299.3	28
299.4	23
299.5	15
299.7	13
299.8	20
299.9	25
300.0	24
300.1	17
300.3	13
300.4	20
300.5	25
300.6	23
300.7	16
300.9	10
301.0	17
301.1	25
301.2	27
301.3	21
301.4	13
301.6	11
301.7	19
301.8	26
301.9	27
302.0	22
302.3	15
302.4	21
302.5	25
302.6	22
302.9	13
303.0	22
303.1	27
303.2	24
303.3	15
303.5	8
303.6	15
303.7	23
303.8	26
303.9	21
304.1	13
304.2	17
304.3	23
304.4	24
304.5	19
304.7	9
304.8	13
304.9	20
305.0	25
305.1	23
305.2	15
305.4	7
305.5	14
305.6	22
305.7	24
305.8	17
306.0	4
306.1	10
306.2	22
306.3	31
306.4	30
306.5	22
306.7	9
306.8	15
306.9	23
307.0	26
307.1	21
307.9	11
308.0	16
308.1	24
308.2	28
308.3	24
308.4	15
308.6	5
308.7	12
308.8	21
308.9	26
309.0	21
309.3	14
309.4	22
309.5	26
309.6	23
309.7	16
309.9	11
310.0	17
310.1	25
310.2	26
310.3	21
310.6	15
310.7	21
310.8	25
310.9	23
311.0	17
311.2	14
311.3	20
311.4	25
311.5	25
311.6	17
311.8	5
311.9	10
312.0	18
312.1	23
312.2	21
312.5	15
312.6	22
312.7	26
312.8	24
312.9	16
313.1	10
313.2	18
313.3	25
313.4	26
313.5	19
313.7	8
313.8	14
313.9	22
314.0	27
314.1	23
314.2	15
314.4	9
314.5	16
314.6	23
314.7	24
314.8	18
315.0	11
315.1	16
315.2	22
315.3	23
315.4	17
315.6	11
315.7	15
315.8	21
315.9	24
316.0	21
316.1	15
316.3	13
316.4	19
316.5	23
316.6	23
316.7	18
316.9	11
317.0	14
317.1	20
317.2	22
317.3	20
317.6	14
317.7	19
317.8	23
317.9	20
318.0	13
318.2	7
318.3	16
318.4	26
318.5	28
318.6	21
318.7	10
319.5	8
319.6	16
319.7	22
319.8	23
319.9	18
320.1	8
320.2	13
320.3	23
320.4	29
320.5	27
320.6	16
320.8	5
320.9	11
321.0	20
321.1	23
321.2	19
321.5	12
321.6	20
321.7	25
321.8	23
321.9	15
322.1	12
322.2	20
322.3	25
322.4	23
322.5	17
322.7	12
322.8	17
322.9	22
323.0	23
323.1	19
323.4	12
323.5	20
323.6	26
323.7	24
323.8	17
324.0	13
324.1	18
324.2	21
324.3	19
324.5	10
324.6	14
324.7	21
324.8	27
324.9	28
325.0	22
325.3	15
325.4	22
325.5	26
325.6	24
325.7	16
325.9	5
326.0	12
326.1	21
326.2	25
326.3	21
326.4	13
326.6	9
326.7	16
326.8	23
326.9	24
327.0	19
327.2	13
327.3	18
327.4	23
327.5	21
327.6	15
327.8	10
327.9	15
328.0	21
328.1	23
328.2	18
328.5	11
328.6	18
328.7	22
328.8	19
329.0	9
329.1	13
329.2	22
329.3	28
329.4	27
329.5	18
329.7	9
329.8	16
329.9	24
330.0	27
330.1	22
330.2	13
330.4	11
330.5	20
330.6	26
330.7	24
330.8	17
331.0	11
331.1	18
331.2	24
331.3	23
331.4	16
331.6	8
331.7	14
331.8	23
331.9	28
332.0	25
332.1	15
332.3	9
332.4	19
332.5	28
332.6	27
332.7	17
332.9	6
333.0	12
333.1	19
333.2	22
333.3	17
333.5	7
333.6	11
333.7	19
333.8	27
333.9	28
334.0	22
334.1	15
334.8	8
334.9	13
335.0	21
335.1	24
335.2	20
335.3	11
335.5	10
335.6	18
335.7	26
335.8	25
335.9	17
336.1	7
336.2	14
336.3	22
336.4	26
336.5	23
336.6	16
336.8	13
336.9	19
337.0	24
337.1	25
337.2	21
337.4	15
337.5	19
337.6	25
337.7	27
337.8	20
338.0	8
338.1	14
338.2	24
338.3	30
338.4	28
338.5	20
338.7	14
338.8	19
338.9	24
339.0	24
339.1	19
339.3	14
339.4	19
339.5	25
339.6	26
339.7	22
339.8	13
340.0	9
340.1	17
340.2	25
340.3	26
340.4	19
341.2	10
341.3	14
341.4	20
341.5	24
341.6	20
341.9	13
342.0	20
342.1	26
342.2	26
342.3	20
342.5	8
342.6	13
342.7	22
342.8	27
342.9	23
343.0	15
343.2	13
343.3	21
343.4	28
343.5	26
343.6	17
343.8	10
343.9	17
344.0	25
344.1	26
344.2	21
344.3	13
344.5	10
344.6	16
344.7	22
344.8	23
344.9	19
345.1	13
345.2	16
345.3	22
345.4	23
345.5	17
345.7	7
345.8	12
345.9	19
346.0	22
346.1	17
346.3	7
346.4	12
346.5	21
346.6	26
346.7	26
346.8	20
347.6	11
347.7	16
347.8	22
347.9	24
348.0	20
348.1	14
348.3	13
348.4	18
348.5	21
348.6	20
348.7	13
348.9	9
349.0	15
349.1	22
349.2	25
349.3	22
349.4	15
349.6	13
349.7	19
349.8	24
349.9	24
350.0	18
350.2	9
350.3	15
350.4	23
350.5	25
350.6	19
350.7	11
350.9	9
351.0	16
351.1	20
351.2	19
351.3	15
351.5	11
351.6	16
351.7	22
351.8	22
351.9	16
352.1	8
352.2	13
352.3	21
352.4	25
352.5	23
352.6	17
352.8	15
352.9	20
353.0	23
353.1	21
353.2	15
353.4	13
353.5	19
353.6	26
353.7	28
353.8	22
353.9	13
354.1	12
354.2	21
354.3	25
354.4	23
354.5	16
354.7	12
354.8	17
354.9	22
355.0	22
355.1	17
355.3	10
355.4	15
355.5	22
355.6	24
355.7	20
356.0	14
356.1	21
356.2	26
356.3	25
356.4	18
356.6	8
356.7	13
356.8	22
356.9	27
357.0	24
357.1	16
357.3	13
357.4	19
357.5	23
357.6	21
357.7	15
357.9	12
358.0	17
358.1	22
358.2	22
358.3	16
358.5	7
358.6	12
358.7	19
358.8	23
358.9	21
359.1	13
359.2	16
359.3	23
359.4	29
359.5	27
359.6	19
359.8	9
359.9	14
360.0	23
360.1	27
360.2	24
360.3	14
360.5	10
360.6	16
360.7	20
360.8	17
361.0	8
361.1	11
361.2	19
361.3	25
361.4	24
361.5	16
361.7	7
361.8	14
361.9	23
362.0	28
362.1	24
362.2	16
362.4	14
362.5	21
362.6	26
362.7	23
362.8	15
363.0	11
363.1	19
363.2	27
363.3	28
363.4	21
363.5	11
363.7	8
363.8	16
363.9	21
364.0	19
364.3	13
364.4	19
364.5	24
364.6	24
364.7	19
365.0	12
365.1	21
365.2	27
365.3	27
365.4	20
365.6	12
365.7	18
365.8	23
365.9	22
366.0	16
366.2	8
366.3	14
366.4	23
366.5	26
366.6	21
366.7	13
366.9	9
367.0	16
367.1	22
367.2	22
367.3	18
367.5	12
367.6	18
367.7	25
367.8	26
367.9	21
368.1	12
368.2	16
368.3	22
368.4	24
368.5	20
368.8	13
368.9	20
369.0	25
369.1	22
369.4	14
369.5	21
369.6	26
369.7	25
369.8	19
370.0	8
370.1	13
370.2	21
370.3	25
370.4	23
370.7	17
370.8	23
370.9	27
371.0	24
371.1	17
371.3	12
371.4	19
371.5	26
371.6	27
371.7	21
372.0	13
372.1	20
372.2	26
372.3	24
372.4	16
372.6	8
372.7	15
372.8	23
372.9	26
373.0	22
373.9	6
374.0	15
374.1	22
374.2	23
374.3	15
374.5	6
374.6	14
374.7	24
374.8	30
374.9	27
375.0	19
375.8	15
375.9	20
376.0	26
376.1	25
376.2	16
376.4	2
376.5	10
376.6	21
376.7	27
376.8	23
376.9	15
377.1	12
377.2	20
377.3	26
377.4	26
377.5	18
377.7	10
377.8	16
377.9	25
378.0	27
378.1	23
378.2	15
378.4	11
378.5	17
378.6	22
378.7	22
378.8	17
379.0	13
379.1	18
379.2	24
379.3	25
379.4	19
379.5	12
379.7	11
379.8	16
379.9	20
380.0	19
380.3	11
380.4	18
380.5	26
380.6	27
380.7	21
380.9	10
381.0	15
381.1	24
381.2	28
381.3	25
381.4	17
381.6	12
381.7	18
381.8	25
381.9	24
382.0	17
382.2	8
382.3	15
382.4	24
382.5	27
382.6	20
382.7	10
382.9	10
383.0	18
383.1	24
383.2	23
383.3	18
383.5	13
383.6	16
383.7	21
383.8	22
383.9	18
384.1	13
384.2	16
384.3	21
384.4	22
384.5	18
384.7	10
384.8	14
384.9	22
385.0	27
385.1	25
385.2	16
385.4	10
385.5	16
385.6	22
385.7	22
385.8	17
386.0	12
386.1	16
386.2	22
386.3	24
386.4	20
386.7	12
386.8	19
386.9	24
387.0	23
387.1	16
387.3	10
387.4	16
387.5	24
387.6	27
387.7	21
387.8	10
388.0	5
388.1	14
388.2	22
388.3	23
388.4	18
388.6	10
388.7	16
388.8	24
388.9	28
389.0	23
389.1	13
389.3	12
389.4	21
389.5	26
389.6	24
389.7	16
389.9	10
390.0	14
390.1	19
390.2	21
390.3	20
390.5	15
390.6	18
390.7	24
390.8	27
390.9	23
391.0	15
391.2	11
391.3	17
391.4	22
391.5	21
391.6	15
391.8	9
391.9	14
392.0	20
392.1	23
392.2	20
392.4	13
392.5	16
392.6	21
392.7	23
392.8	20
392.9	13
393.1	10
393.2	17
393.3	24
393.4	25
393.5	19
393.7	9
393.8	14
393.9	23
394.0	27
394.1	24
394.2	17
394.4	12
394.5	18
394.6	24
394.7	23
394.8	17
395.0	12
395.1	18
395.2	24
395.3	26
395.4	22
395.5	15
395.7	13
395.8	20
395.9	26
396.0	25
396.1	18
396.3	13
396.4	20
396.5	25
396.6	23
396.7	14
396.9	6
397.0	12
397.1	19
397.2	23
397.3	20
397.4	14
397.6	11
397.7	18
397.8	23
397.9	21
398.0	14
398.2	9
398.3	16
398.4	23
398.5	26
398.6	22
398.9	15
399.0	22
399.1	28
399.2	27
399.3	19
399.5	7
399.6	13
399.7	21
399.8	24
399.9	19
400.1	12
400.2	16
400.3	24
400.4	27
400.5	23
400.8	14
400.9	22
401.0	27
401.1	24
401.2	15
401.4	8
401.5	16
401.6	24
401.7	25
401.8	18
402.0	8
402.1	14
402.2	21
402.3	22
402.4	17
402.7	11
402.8	17
402.9	23
403.0	24
403.1	20
403.3	12
403.4	16
403.5	23
403.6	25
403.7	21
403.9	14
404.0	21
404.1	31
404.2	33
404.3	26
404.4	13
404.6	0
404.7	6
404.8	15
404.9	20
405.0	16
405.2	7
405.3	12
405.4	20
405.5	24
405.6	22
405.7	16
405.9	11
406.0	17
406.1	23
406.2	25
406.3	21
406.5	9
406.6	14
406.7	22
406.8	27
406.9	24
407.0	15
407.2	8
407.3	17
407.4	25
407.5	25
407.6	16
407.8	7
407.9	13
408.0	21
408.1	23
408.2	19
408.4	11
408.5	15
408.6	22
408.7	24
408.8	20
409.0	12
409.1	16
409.2	23
409.3	28
409.4	26
409.5	17
409.7	7
409.8	13
409.9	21
410.0	25
410.1	22
410.2	14
410.4	11
410.5	19
410.6	24
410.7	23
410.8	15
411.0	10
411.1	17
411.2	25
411.3	26
411.4	18
411.7	8
411.8	19
411.9	26
412.0	24
412.1	15
412.3	8
412.4	18
412.5	27
412.6	28
412.7	19
412.9	4
413.0	10
413.1	20
413.2	27
413.3	24
413.4	14
413.6	10
413.7	18
413.8	24
413.9	23
414.0	15
414.2	7
414.3	14
414.4	22
414.5	26
414.6	22
414.7	14
414.9	11
415.0	19
415.1	26
415.2	24
415.3	16
415.5	8
415.6	15
415.7	22
415.8	23
415.9	17
416.1	8
416.2	15
416.3	24
416.4	29
416.5	26
416.6	18
416.8	10
416.9	16
417.0	23
417.1	24
417.2	19
417.4	10
417.5	16
417.6	25
417.7	27
417.8	21
417.9	11
418.1	10
418.2	20
418.3	26
418.4	25
418.5	18
418.7	10
418.8	15
418.9	20
419.0	20
419.1	16
419.4	12
419.5	16
419.6	18
419.7	18
419.9	15
420.0	17
420.1	23
420.2	27
420.3	24
420.4	16
420.6	8
420.7	15
420.8	24
420.9	29
421.0	27
421.1	20
421.3	17
421.4	27
421.5	33
421.6	27
421.7	16
421.9	10
422.0	15
422.1	20
422.2	20
422.3	15
422.5	9
422.6	15
422.7	22
422.8	23
422.9	18
423.2	11
423.3	19
423.4	25
423.5	24
423.6	16
423.8	6
423.9	13
424.0	22
424.1	25
424.2	20
424.4	10
424.5	15
424.6	23
424.7	26
424.8	21
425.1	11
425.2	21
425.3	28
425.4	28
425.5	19
425.8	9
425.9	19
426.0	27
426.1	26
426.2	17
426.4	11
426.5	17
426.6	23
426.7	22
426.8	17
427.0	11
427.1	16
427.2	21
427.3	22
427.4	17
427.6	8
427.7	13
427.8	21
427.9	26
428.0	22
428.1	13
428.3	8
428.4	16
428.5	24
428.6	25
428.7	19
429.6	8
429.7	17
429.8	24
429.9	24
430.0	19
430.2	15
430.3	19
430.4	22
430.5	21
430.6	16
430.8	10
430.9	14
431.0	20
431.1	23
431.2	19
431.3	10
431.5	6
431.6	15
431.7	24
431.8	27
431.9	21
432.1	13
432.2	18
432.3	23
432.4	24
432.5	18
432.7	9
432.8	14
432.9	22
433.0	27
433.1	25
433.2	17
433.4	8
433.5	15
433.6	22
433.7	24
433.8	17
434.0	5
434.1	13
434.2	25
434.3	32
434.4	27
434.5	16
434.7	5
434.8	13
434.9	23
435.0	26
435.1	21
435.3	9
435.4	15
435.5	23
435.6	27
435.7	23
435.8	15
436.0	10
436.1	17
436.2	23
436.3	23
436.4	17
436.6	9
436.7	16
436.8	23
436.9	24
437.0	18
437.2	10
437.3	17
437.4	25
437.5	28
437.6	24
437.7	16
437.9	12
438.0	18
438.1	22
438.2	20
438.3	15
438.5	13
438.6	18
438.7	24
438.8	25
438.9	19
439.2	11
439.3	19
439.4	23
439.5	20
439.6	13
439.8	9
439.9	16
440.0	24
440.1	26
440.2	21
440.4	12
440.5	17
440.6	24
440.7	28
440.8	24
440.9	14
441.1	8
441.2	15
441.3	23
441.4	24
441.5	19
441.7	13
441.8	17
441.9	24
442.0	27
442.1	23
442.2	15
442.4	10
442.5	18
442.6	24
442.7	23
442.8	15
443.0	9
443.1	16
443.2	23
443.3	24
443.4	17
443.6	8
443.7	14
443.8	24
443.9	28
444.0	24
444.1	14
444.3	10
444.4	20
444.5	26
444.6	23
444.7	15
444.9	9
445.0	14
445.1	20
445.2	22
445.3	20
445.4	15
445.6	11
445.7	17
445.8	23
445.9	23
446.0	16
446.2	8
446.3	15
446.4	24
446.5	29
446.6	25
446.7	17
446.9	15
447.0	21
447.1	25
447.2	24
447.3	18
447.5	14
447.6	19
447.7	25
447.8	26
447.9	21
448.1	12
448.2	17
448.3	24
448.4	27
448.5	22
448.6	14
448.8	9
448.9	15
449.0	21
449.1	24
449.2	21
449.4	15
449.5	18
449.6	23
449.7	24
449.8	20
449.9	13
450.1	11
450.2	16
450.3	21
450.4	21
450.5	17
450.7	12
450.8	17
450.9	23
451.0	24
451.1	19
451.3	11
451.4	16
451.5	21
451.6	21
451.7	16
451.9	6
452.0	9
452.1	18
452.2	25
452.3	25
452.4	18
452.6	9
452.7	16
452.8	25
452.9	28
453.0	23
453.9	10
454.0	17
454.1	24
454.2	25
454.3	19
454.5	9
454.6	14
454.7	22
454.8	24
454.9	20
455.2	13
455.3	19
455.4	22
455.5	21
455.6	15
455.8	11
455.9	19
456.0	27
456.1	29
456.2	22
456.3	12
456.5	8
456.6	15
456.7	21
456.8	20
456.9	14
457.1	10
457.2	17
457.3	23
457.4	24
457.5	19
457.7	11
457.8	15
457.9	20
458.0	21
458.1	16
458.3	9
458.4	14
458.5	21
458.6	25
458.7	23
458.8	15
459.0	10
459.1	16
459.2	22
459.3	24
459.4	21
459.7	14
459.8	20
459.9	24
460.0	21
460.1	13
460.3	10
460.4	18
460.5	25
460.6	24
460.7	17
460.9	8
461.0	15
461.1	25
461.2	30
461.3	25
461.4	15
461.6	9
461.7	18
461.8	25
461.9	25
462.0	17
462.2	9
462.3	17
462.4	25
462.5	27
462.6	22
462.9	15
463.0	22
463.1	27
463.2	23
463.3	16
463.5	10
463.6	15
463.7	22
463.8	23
463.9	19
464.1	9
464.2	14
464.3	22
464.4	28
464.5	25
464.6	15
464.8	8
464.9	15
465.0	23
465.1	24
465.2	18
465.4	9
465.5	15
465.6	21
465.7	22
465.8	17
466.0	11
466.1	16
466.2	23
466.3	25
466.4	19
466.7	10
466.8	19
466.9	26
467.0	26
467.1	17
467.3	7
467.4	12
467.5	20
467.6	24
467.7	23
467.8	18
468.0	13
468.1	19
468.2	25
468.3	24
468.4	16
468.6	7
468.7	13
468.8	21
468.9	23
469.0	19
469.2	9
469.3	14
469.4	21
469.5	25
469.6	23
469.7	16
469.9	11
470.0	17
470.1	22
470.2	22
470.3	15
470.5	9
470.6	15
470.7	22
470.8	24
470.9	19
471.1	9
471.2	13
471.3	22
471.4	29
471.5	28
471.6	20
471.8	9
471.9	15
472.0	23
472.1	25
472.2	20
472.5	12
472.6	19
472.7	24
472.8	21
472.9	14
473.1	12
473.2	19
473.3	25
473.4	24
473.5	17
473.7	5
473.8	11
473.9	23
474.0	30
474.1	26
474.2	15
474.4	10
474.5	18
474.6	25
474.7	24
474.8	17
475.0	7
475.1	14
475.2	22
475.3	26
475.4	22
475.5	14
475.7	12
475.8	20
475.9	26
476.0	25
476.1	18
476.3	9
476.4	13
476.5	20
476.6	23
476.7	20
477.5	14
477.6	18
477.7	24
477.8	27
477.9	25
478.0	18
478.2	12
478.3	19
478.4	27
478.5	29
478.6	23
478.7	13
478.9	12
479.0	19
479.1	24
479.2	22
479.3	15
479.5	10
479.6	18
479.7	27
479.8	28
479.9	21
480.1	10
480.2	15
480.3	22
480.4	24
480.5	20
480.8	13
480.9	22
481.0	29
481.1	28
481.2	20
481.3	12
481.5	12
481.6	18
481.7	21
481.8	19
482.1	13
482.2	20
482.3	25
482.4	22
482.5	14
482.7	7
482.8	13
482.9	21
483.0	24
483.1	20
484.0	8
484.1	16
484.2	23
484.3	21
484.4	13
484.6	7
484.7	15
484.8	23
484.9	26
485.0	21
485.1	13
485.3	11
485.4	18
485.5	23
485.6	21
485.7	16
485.9	12
486.0	17
486.1	22
486.2	23
486.3	17
486.5	8
486.6	13
486.7	23
486.8	28
486.9	24
487.0	13
487.2	9
487.3	17
487.4	25
487.5	26
487.6	19
487.9	12
488.0	20
488.1	24
488.2	21
488.5	13
488.6	22
488.7	27
488.8	25
488.9	17
489.1	11
489.2	17
489.3	24
489.4	25
489.5	20
489.8	12
489.9	21
490.0	26
490.1	22
490.2	12
490.4	6
490.5	17
490.6	27
490.7	28
490.8	20
491.0	8
491.1	14
491.2	23
491.3	27
491.4	23
491.5	15
491.7	12
491.8	18
491.9	21
492.0	19
492.2	14
492.3	17
492.4	24
492.5	27
492.6	25
492.7	17
492.9	9
493.0	14
493.1	21
493.2	23
493.3	19
493.6	13
493.7	20
493.8	25
493.9	24
494.0	17
494.2	11
494.3	19
494.4	28
494.5	30
494.6	23
494.7	13
494.9	11
495.0	19
495.1	25
495.2	23
495.3	17
495.5	10
495.6	15
495.7	19
495.8	18
496.1	10
496.2	18
496.3	25
496.4	26
496.5	19
496.6	10
496.8	7
496.9	16
497.0	24
497.1	26
497.2	20
497.4	12
497.5	16
497.6	22
497.7	24
497.8	20
497.9	14
498.1	13
498.2	18
498.3	21
498.4	20
498.7	14
498.8	20
498.9	26
499.0	25
499.1	18
499.3	10
499.4	17
499.5	26
499.6	29
499.7	23
499.8	13
500.0	11
500.1	19
500.2	24
500.3	20
500.6	10
500.7	20
500.8	28
500.9	27
501.0	19
501.1	9
501.3	9
501.4	17
501.5	22
501.6	21
501.7	14
501.9	11
502.0	19
502.1	27
502.2	27
502.3	20
502.5	12
502.6	18
502.7	24
502.8	25
502.9	21
503.0	14
503.2	12
503.3	17
503.4	21
503.5	19
503.8	11
503.9	21
504.0	29
504.1	28
504.2	19
504.4	10
504.5	16
504.6	25
504.7	29
504.8	27
504.9	22
505.8	11
505.9	18
506.0	23
506.1	20
507.0	10
507.1	17
507.2	22
507.3	22
507.4	17
507.6	12
507.7	17
507.8	24
507.9	25
508.0	20
508.3	11
508.4	21
508.5	29
508.6	28
508.7	20
508.9	11
509.0	17
509.1	24
509.2	26
509.3	23
509.6	17
509.7	22
509.8	26
509.9	23
510.0	15
510.2	9
510.3	17
510.4	25
510.5	27
510.6	21
510.7	11
510.9	9
511.0	19
511.1	25
511.2	24
511.3	16
511.5	6
511.6	14
511.7	24
511.8	27
511.9	20
512.1	8
512.2	14
512.3	23
512.4	26
512.5	20
512.8	10
512.9	20
513.0	28
513.1	27
513.2	18
513.4	9
513.5	15
513.6	22
513.7	24
513.8	18
514.0	9
514.1	15
514.2	24
514.3	30
514.4	27
514.5	18
514.7	9
514.8	15
514.9	23
515.0	27
515.1	22
515.2	13
515.4	10
515.5	18
515.6	24
515.7	21
516.0	13
516.1	21
516.2	26
516.3	24
516.4	16
516.6	9
516.7	15
516.8	22
516.9	23
517.0	18
517.2	10
517.3	15
517.4	22
517.5	26
517.6	24
517.7	17
517.9	11
518.0	17
518.1	23
518.2	23
518.3	17
518.5	8
518.6	12
518.7	20
518.8	25
518.9	21
519.0	13
519.2	10
519.3	18
519.4	24
519.5	24
519.6	17
519.8	8
519.9	15
520.0	24
520.1	28
520.2	23
520.3	14
521.1	10
521.2	18
521.3	24
521.4	24
521.5	19
521.6	13
521.8	10
521.9	17
522.0	24
522.1	24
522.2	18
522.4	14
522.5	20
522.6	23
522.7	19
522.8	13
523.0	11
523.1	18
523.2	22
523.3	21
523.4	15
523.6	10
523.7	15
523.8	21
523.9	24
524.0	22
524.1	15
524.3	10
524.4	15
524.5	22
524.6	24
524.7	20
525.6	8
525.7	16
525.8	23
525.9	22
526.0	15
526.2	8
526.3	15
526.4	23
526.5	26
526.6	23
526.7	14
526.9	8
527.0	15
527.1	21
527.2	20
527.3	14
527.5	10
527.6	17
527.7	25
527.8	25
527.9	19
528.1	11
528.2	16
528.3	23
528.4	25
528.5	18
528.8	9
528.9	18
529.0	25
529.1	24
529.2	18
529.4	11
529.5	16
529.6	22
529.7	22
529.8	15
530.0	9
530.1	16
530.2	25
530.3	29
530.4	25
530.5	15
530.7	9
530.8	17
530.9	26
531.0	28
531.1	21
531.2	12
531.4	10
531.5	17
531.6	22
531.7	19
532.0	11
532.1	20
532.2	27
532.3	26
532.4	18
532.6	10
532.7	15
532.8	22
532.9	25
533.0	22
533.1	14
533.3	13
533.4	21
533.5	26
533.6	25
533.7	19
533.9	13
534.0	18
534.1	24
534.2	23
534.3	17
534.5	7
534.6	12
534.7	20
534.8	24
534.9	20
535.0	11
535.2	9
535.3	19
535.4	26
535.5	26
535.6	18
535.8	12
535.9	19
536.0	27
536.1	28
536.2	21
536.3	11
536.5	9
536.6	16
536.7	22
536.8	21
537.1	14
537.2	22
537.3	28
537.4	25
537.5	15
537.7	4
537.8	13
537.9	25
538.0	30
538.1	24
538.2	14
538.4	8
538.5	16
538.6	23
538.7	23
538.8	17
539.1	10
539.2	16
539.3	19
539.4	17
539.6	8
539.7	12
539.8	21
539.9	27
540.0	27
540.1	21
540.3	15
540.4	19
540.5	22
540.6	22
540.7	17
540.9	12
541.0	15
541.1	21
541.2	24
541.3	23
541.4	17
541.6	12
541.7	17
541.8	22
541.9	20
542.0	13
542.2	10
542.3	19
542.4	27
542.5	27
542.6	21
542.9	13
543.0	21
543.1	26
543.2	24
543.3	18
543.5	14
543.6	20
543.7	25
543.8	24
543.9	18
544.1	11
544.2	17
544.3	22
544.4	21
544.5	15
544.7	4
544.8	9
544.9	18
545.0	27
545.1	28
545.2	21
545.4	13
545.5	19
545.6	25
545.7	24
545.8	16
546.0	8
546.1	15
546.2	24
546.3	30
546.4	28
546.5	20
546.7	11
546.8	17
546.9	25
547.0	25
547.1	17
547.3	4
547.4	11
547.5	22
547.6	28
547.7	25
547.8	15
548.0	12
548.1	19
548.2	25
548.3	24
548.4	17
548.6	8
548.7	13
548.8	20
548.9	24
549.0	21
549.3	13
549.4	21
549.5	27
549.6	26
549.7	19
549.9	10
550.0	16
550.1	23
550.2	24
550.3	19
550.5	9
550.6	15
550.7	22
550.8	25
550.9	22
551.0	14
551.2	11
551.3	19
551.4	25
551.5	25
551.6	20
551.8	13
551.9	17
552.0	22
552.1	24
552.2	20
552.4	10
552.5	14
552.6	22
552.7	26
552.8	20
552.9	10
553.1	7
553.2	15
553.3	23
553.4	24
553.5	18
553.7	9
553.8	14
553.9	20
554.0	23
554.1	20
554.2	13
554.4	11
554.5	19
554.6	26
554.7	25
554.8	15
555.0	5
555.1	14
555.2	23
555.3	25
555.4	20
556.2	13
556.3	17
556.4	22
556.5	25
556.6	23
556.7	16
556.9	10
557.0	16
557.1	25
557.2	28
557.3	23
557.4	15
557.6	12
557.7	19
557.8	25
557.9	26
558.0	19
558.2	9
558.3	14
558.4	20
558.5	23
558.6	20
558.9	12
559.0	19
559.1	25
559.2	24
559.3	17
559.5	9
559.6	16
559.7	22
559.8	23
559.9	17
560.1	10
560.2	15
560.3	23
560.4	26
560.5	23
560.6	15
560.8	9
560.9	15
561.0	22
561.1	23
561.2	18
561.4	10
561.5	16
561.6	24
561.7	28
561.8	24
561.9	16
562.1	15
562.2	21
562.3	25
562.4	20
562.7	12
562.8	20
562.9	25
563.0	23
563.1	17
563.3	12
563.4	18
563.5	23
563.6	24
563.7	19
564.0	13
564.1	19
564.2	23
564.3	22
564.4	17
564.6	13
564.7	16
564.8	21
564.9	23
565.0	19
565.2	12
565.3	17
565.4	25
565.5	28
565.6	23
565.7	15
565.9	9
566.0	16
566.1	24
566.2	25
566.3	20
566.4	11
566.6	9
566.7	16
566.8	21
566.9	22
567.0	18
567.2	13
567.3	19
567.4	26
567.5	26
567.6	19
567.8	5
567.9	12
568.0	22
568.1	26
568.2	21
568.3	10
568.5	9
568.6	19
568.7	25
568.8	22
569.1	14
569.2	22
569.3	27
569.4	24
569.5	16
569.7	7
569.8	14
569.9	23
570.0	27
570.1	23
570.2	14
570.4	9
570.5	17
570.6	24
570.7	25
570.8	20
571.0	15
571.1	19
571.2	24
571.3	24
571.4	18
571.6	12
571.7	17
571.8	23
571.9	26
572.0	23
572.1	16
572.3	14
572.4	21
572.5	26
572.6	24
572.7	17
572.9	10
573.0	14
573.1	20
573.2	24
573.3	22
573.4	16
573.6	11
573.7	17
573.8	24
573.9	25
574.0	19
574.2	12
574.3	18
574.4	24
574.5	26
574.6	20
574.8	11
574.9	16
575.0	23
575.1	25
575.2	20
575.3	12
575.5	11
575.6	18
575.7	24
575.8	25
575.9	19
576.1	13
576.2	17
576.3	23
576.4	26
576.5	24
576.6	18
576.8	13
576.9	20
577.0	26
577.1	26
577.2	19
577.4	9
577.5	15
577.6	23
577.7	26
577.8	20
577.9	11
578.1	11
578.2	18
578.3	22
578.4	19
578.5	14
578.7	11
578.8	16
578.9	21
579.0	22
579.1	18
579.3	11
579.4	16
579.5	23
579.6	25
579.7	20
579.9	12
580.0	16
580.1	24
580.2	28
580.3	25
580.4	15
580.6	3
580.7	9
580.8	18
580.9	22
581.0	18
581.2	9
581.3	14
581.4	22
581.5	26
581.6	23
581.7	16
581.9	11
582.0	17
582.1	23
582.2	25
582.3	19
583.2	8
583.3	17
583.4	24
583.5	24
583.6	19
584.4	7
584.5	11
584.6	18
584.7	23
584.8	21
585.1	13
585.2	20
585.3	26
585.4	24
585.5	16
585.7	10
585.8	18
585.9	26
586.0	27
586.1	19
586.4	7
586.5	19
586.6	27
586.7	25
586.8	14
587.0	9
587.1	19
587.2	27
587.3	28
587.4	21
588.3	11
588.4	18
588.5	25
588.6	26
588.7	21
588.9	11
589.0	16
589.1	23
589.2	27
589.3	22
589.4	13
589.6	11
589.7	18
589.8	24
589.9	24
590.0	20
590.2	14
590.3	17
590.4	21
590.5	22
590.6	18
590.8	11
590.9	14
591.0	21
591.1	25
591.2	23
591.3	16
591.5	6
591.6	12
591.7	20
591.8	24
591.9	22
592.2	15
592.3	22
592.4	26
592.5	23
592.6	15
592.8	13
592.9	20
593.0	26
593.1	25
593.2	16
593.4	5
593.5	12
593.6	21
593.7	26
593.8	22
593.9	14
594.1	11
594.2	17
594.3	22
594.4	21
594.5	13
594.7	6
594.8	14
594.9	23
595.0	26
595.1	22
596.6	12
596.7	20
596.8	28
596.9	29
597.0	22
597.9	11
598.0	18
598.1	26
598.2	27
598.3	23
599.2	14
599.3	23
599.4	29
599.5	26
599.6	18
