Mass spectrum: Adrenoglomerulotropin; LC-ESI-QQQ; MS2; Frag=135.0V CID@10.0; [M+H]+
Name: Adrenoglomerulotropin
Class: Alkaloids
Formula: C13H16N2O
Exact mass: 216.2853
SMILES: COc1ccc2[nH]c3c(c2c1)CCN[C@H]3C
InChI: InChI=1S/C13H16N2O/c1-8-13-10(5-6-14-8)11-7-9(16-2)3-4-12(11)15-13/h3-4,7-8,14-15H,5-6H2,1-2H3/t8-/m0/s1
Instrument: Agilent 6410 Triple Quadrupole LC/MS system
Instrument type: LC-ESI-QQQ
Ms type: MS2
Ion mode: POSITIVE
Precursor type: [M+H]+
m/z	relative intensity
173.5	3
173.6	4
173.7	8
173.8	12
173.9	18
174.0	22
174.1	25
174.2	25
174.3	23
174.4	18
174.5	10
174.6	3
187.3	0
187.4	2
187.5	5
187.6	10
187.7	18
187.8	29
187.9	43
188.0	56
188.1	64
188.2	66
188.3	61
188.4	51
188.5	34
188.6	16
188.7	3
199.3	0
199.4	2
199.5	7
199.6	14
199.7	25
199.8	42
199.9	62
200.0	82
200.1	96
200.2	99
200.3	92
200.4	74
200.5	47
200.6	20
200.7	2
