Mass spectrum: Cyclogaleginoside A.; LC-ESI-QQQ; MS2; Frag=135.0V CID@15.0 ; [M+H]+
Name: Cyclogaleginoside A.
Class: Terpenoids
Formula: C37H60O10
Exact mass: 664.88475
SMILES: CC(=O)O[C@H]1[C@H](OC2CC[C@]34C[C@]35CC[C@]3(C)C([C@@]6(C)CC[C@@H](C(C)(C)O)O6)[C@@H](O)C[C@@]3(C)C5C[C@H](O)C4C2(C)C)OC[C@@H](O)[C@@H]1O
InChI: InChI=1S/C37H60O10/c1-19(38)45-27-26(42)22(41)17-44-30(27)46-24-10-12-37-18-36(37)14-13-33(6)29(35(8)11-9-25(47-35)32(4,5)43)21(40)16-34(33,7)23(36)15-20(39)28(37)31(24,2)3/h20-30,39-43H,9-18H2,1-8H3/t20-,21-,22+,23?,24?,25-,26-,27+,28?,29?,30-,33+,34-,35+,36-,37+/m0/s1
Instrument: Agilent 6410 Triple Quadrupole LC/MS system
Instrument type: LC-ESI-QQQ
Ms type: MS2
Ion mode: POSITIVE
Precursor type: [M+H]+
m/z	relative intensity
124.8	2
124.9	5
125.0	8
125.1	10
125.2	10
125.3	6
125.4	2
142.0	1
142.1	2
142.2	4
142.3	4
142.4	3
142.5	3
142.6	6
142.7	16
142.8	32
142.9	52
143.0	67
143.1	70
143.2	59
143.3	41
143.4	23
143.5	9
143.6	2
156.4	3
156.5	4
156.6	8
156.7	17
156.8	30
156.9	42
157.0	46
157.1	43
157.2	33
157.3	21
157.4	9
157.5	1
174.1	2
174.2	4
174.3	5
174.4	7
174.5	8
174.6	11
174.7	21
174.8	39
174.9	65
175.0	88
175.1	99
175.2	90
175.3	64
175.4	33
175.5	10
175.6	0
436.6	0
436.7	1
436.8	5
436.9	10
437.0	13
437.1	13
437.2	11
437.3	7
437.4	4
454.9	1
455.0	3
455.1	7
455.2	9
455.3	9
455.4	7
455.5	4
455.6	2
