Mass spectrum: Desoxycortone; LC-ESI-QQQ; MS2; Frag=135.0V CID@10.0; [M+H]+
Name: Desoxycortone
Class: Steroids
Formula: C21H30O3
Exact mass: 330.4715
SMILES: C[C@]12CC[C@H]3[C@@H](CCC4=CC(=O)CC[C@@]43C)[C@@H]1CC[C@@H]2C(=O)CO
InChI: InChI=1S/C21H30O3/c1-20-9-7-14(23)11-13(20)3-4-15-16-5-6-18(19(24)12-22)21(16,2)10-8-17(15)20/h11,15-18,22H,3-10,12H2,1-2H3/t15-,16-,17-,18+,20-,21-/m0/s1
Instrument: Agilent 6410 Triple Quadrupole LC/MS system
Instrument type: LC-ESI-QQQ
Ms type: MS2
Ion mode: POSITIVE
Precursor type: [M+H]+
m/z	relative intensity
96.5	1
96.6	3
96.7	5
96.8	9
96.9	13
97.0	16
97.1	18
97.2	17
97.3	15
97.4	11
97.5	6
97.6	2
108.6	2
108.7	3
108.8	5
108.9	8
109.0	10
109.1	11
109.2	10
109.3	9
109.4	6
109.5	3
330.4	0
330.5	2
330.6	5
330.7	11
330.8	20
330.9	35
331.0	56
331.1	77
331.2	93
331.3	99
331.4	93
331.5	73
331.6	43
331.7	15
331.8	0
