Mass spectrum: Skimmianine; LC-ESI-QQQ; MS2; Frag=135.0V CID@15.0; [M+H]+
Name: Skimmianine
Class: Alkaloids
Formula: C14H13NO4
Exact mass: 259.264
SMILES: COc1ccc2c(OC)c3ccoc3nc2c1OC
InChI: InChI=1S/C14H13NO4/c1-16-10-5-4-8-11(13(10)18-3)15-14-9(6-7-19-14)12(8)17-2/h4-7H,1-3H3
Instrument: Agilent 6410 Triple Quadrupole LC/MS system
Instrument type: LC-ESI-QQQ
Ms type: MS2
Ion mode: POSITIVE
Precursor type: [M+H]+
m/z	relative intensity
198.7	2
198.8	3
198.9	4
199.0	5
199.1	6
199.2	5
199.3	4
199.4	2
215.6	2
215.7	3
215.8	6
215.9	9
216.0	10
216.1	10
216.2	10
216.3	9
216.4	6
216.5	3
226.2	1
226.3	3
226.4	5
226.5	8
226.6	14
226.7	26
226.8	43
226.9	61
227.0	73
227.1	75
227.2	71
227.3	59
227.4	41
227.5	21
227.6	6
227.7	0
244.5	5
244.6	6
244.7	9
244.8	14
244.9	21
245.0	27
245.1	30
245.2	30
245.3	25
245.4	17
245.5	8
245.6	2
259.2	1
259.3	3
259.4	6
259.5	9
259.6	15
259.7	26
259.8	45
259.9	69
260.0	89
260.1	99
260.2	97
260.3	82
260.4	59
260.5	31
260.6	9
260.7	0
