Mass spectrum: Androst-5-ene-3,17-diol; LC-ESI-QQQ; MS2; Frag=135.0V CID@5.0; [M+H]+
Name: Androst-5-ene-3,17-diol
Class: Steroids
Formula: C19H30O2
Exact mass: 290.4498
SMILES: C[C@]12CCC3C(CC=C4CC(O)CC[C@@]43C)C1CCC2O
InChI: InChI=1S/C19H30O2/c1-18-9-7-13(20)11-12(18)3-4-14-15-5-6-17(21)19(15,2)10-8-16(14)18/h3,13-17,20-21H,4-11H2,1-2H3/t13?,14?,15?,16?,17?,18-,19-/m0/s1
Instrument: Agilent 6410 Triple Quadrupole LC/MS system
Instrument type: LC-ESI-QQQ
Ms type: MS2
Ion mode: POSITIVE
Precursor type: [M+H]+
m/z	relative intensity
254.3	1
254.4	3
254.5	8
254.6	17
254.7	26
254.8	31
254.9	38
255.0	52
255.1	76
255.2	97
255.3	98
255.4	70
255.5	30
255.6	4
272.4	1
272.5	3
272.6	8
272.7	15
272.8	24
272.9	31
273.0	36
273.1	36
273.2	32
273.3	22
273.4	12
273.5	4
290.4	1
290.5	3
290.6	8
290.7	18
290.8	35
290.9	54
291.0	65
291.1	67
291.2	63
291.3	54
291.4	38
291.5	19
291.6	6
