Mass spectrum: Glaucine; LC-ESI-QQQ; MS2; Frag=135.0V CID@5.0; [M+H]+
Name: Glaucine
Class: Alkaloids
Formula: C21H25NO4
Exact mass: 355.4377
SMILES: COc1cc2c(cc1OC)-c1c(OC)c(OC)cc3c1C(C2)N(C)CC3
InChI: InChI=1S/C21H25NO4/c1-22-7-6-12-9-18(25-4)21(26-5)20-14-11-17(24-3)16(23-2)10-13(14)8-15(22)19(12)20/h9-11,15H,6-8H2,1-5H3
Instrument: Agilent 6410 Triple Quadrupole LC/MS system
Instrument type: LC-ESI-QQQ
Ms type: MS2
Ion mode: POSITIVE
Precursor type: [M+H]+
m/z	relative intensity
293.7	2
293.8	4
293.9	6
294.0	9
294.1	10
294.2	11
294.3	10
294.4	7
294.5	4
294.6	1
309.7	1
309.8	2
309.9	4
310.0	5
310.1	6
310.2	6
310.3	5
310.4	4
310.5	2
324.5	2
324.6	3
324.7	6
324.8	11
324.9	18
325.0	26
325.1	32
325.2	34
325.3	32
325.4	25
325.5	16
325.6	6
325.7	0
355.3	0
355.4	1
355.5	4
355.6	8
355.7	14
355.8	26
355.9	45
356.0	69
356.1	89
356.2	99
356.3	98
356.4	84
356.5	58
356.6	28
356.7	6
356.8	0
