Mass spectrum: Aucubin; LC-ESI-QQQ; MS2; Frag=135.0V CID@5.0; [M+HCOO]-
Name: Aucubin
Class: Terpenoids
Formula: C15H22O9
Exact mass: 346.3372
SMILES: OCC1=C[C@@H](O)[C@@H]2C=COC(OC3OC(CO)C(O)C(O)C3O)[C@H]12
InChI: InChI=1S/C15H22O9/c16-4-6-3-8(18)7-1-2-22-14(10(6)7)24-15-13(21)12(20)11(19)9(5-17)23-15/h1-3,7-21H,4-5H2/t7-,8+,9?,10+,11?,12?,13?,14?,15?/m0/s1
Instrument: Agilent 6410 Triple Quadrupole LC/MS system
Instrument type: LC-ESI-QQQ
Ms type: MS2
Ion mode: NEGATIVE
Precursor type: [M+HCOO]-
m/z	relative intensity
118.6	2
118.7	4
118.8	6
118.9	7
119.0	6
119.1	4
164.3	2
164.4	3
164.5	7
164.6	11
164.7	12
164.8	11
164.9	8
165.0	7
165.1	7
165.2	6
165.3	3
178.6	1
178.7	3
178.8	6
178.9	10
179.0	11
179.1	9
179.2	5
182.1	1
182.2	2
182.3	6
182.4	12
182.5	21
182.6	34
182.7	54
182.8	77
182.9	95
183.0	99
183.1	91
183.2	77
183.3	61
183.4	39
183.5	16
183.6	1
344.3	2
344.4	3
344.5	6
344.6	13
344.7	21
344.8	26
344.9	29
345.0	29
345.1	25
345.2	17
345.3	7
345.4	2
390.4	2
390.5	4
390.6	6
390.7	9
390.8	12
390.9	12
391.0	11
391.1	14
391.2	18
391.3	19
391.4	12
391.5	4
