Mass spectrum: Peuarenin; LC-ESI-QQQ; MS2; Frag=135.0V CID@10.0; [M+H]+
Name: Peuarenin
Class: Benzopyranoids
Formula: C24H26O9
Exact mass: 458.4694
SMILES: CC1OC1(C)C(=O)OC1c2cc3ccc(=O)oc3cc2OC(C)(C)C1OC(=O)C1(C)OC1C
InChI: InChI=1S/C24H26O9/c1-11-23(5,31-11)20(26)29-18-14-9-13-7-8-17(25)28-15(13)10-16(14)33-22(3,4)19(18)30-21(27)24(6)12(2)32-24/h7-12,18-19H,1-6H3
Instrument: Agilent 6410 Triple Quadrupole LC/MS system
Instrument type: LC-ESI-QQQ
Ms type: MS2
Ion mode: POSITIVE
Precursor type: [M+H]+
m/z	relative intensity
342.7	1
342.8	2
342.9	4
343.0	4
343.1	5
343.2	5
343.3	4
343.4	3
458.2	0
458.3	2
458.4	5
458.5	9
458.6	14
458.7	24
458.8	39
458.9	59
459.0	79
459.1	94
459.2	99
459.3	95
459.4	79
459.5	53
459.6	24
459.7	4
459.8	0
