Mass spectrum: Dihydroergocristine; LC-ESI-QQQ; MS2; Frag=135.0V CID@15.0; [M+H]+
Name: Dihydroergocristine
Class: Alkaloids
Formula: C35H41N5O5
Exact mass: 611.7475
SMILES: CC(C)[C@@]1(N=C(O)[C@@H]2C[C@@H]3c4cccc5[nH]cc(c45)C[C@H]3N(C)C2)O[C@@]2(O)[C@@H]3CCCN3C(=O)[C@H](Cc3ccccc3)N2C1=O
InChI: InChI=1S/C35H41N5O5/c1-20(2)34(37-31(41)23-16-25-24-11-7-12-26-30(24)22(18-36-26)17-27(25)38(3)19-23)33(43)40-28(15-21-9-5-4-6-10-21)32(42)39-14-8-13-29(39)35(40,44)45-34/h4-7,9-12,18,20,23,25,27-29,36,44H,8,13-17,19H2,1-3H3,(H,37,41)/t23-,25-,27-,28+,29+,34-,35+/m1/s1
Instrument: Agilent 6410 Triple Quadrupole LC/MS system
Instrument type: LC-ESI-QQQ
Ms type: MS2
Ion mode: POSITIVE
Precursor type: [M+H]+
m/z	relative intensity
269.4	0
269.5	1
269.6	3
269.7	7
269.8	13
269.9	20
270.0	27
270.1	33
270.2	35
270.3	33
270.4	25
270.5	15
270.6	5
270.7	0
349.6	1
349.7	2
349.8	4
349.9	6
350.0	8
350.1	9
350.2	10
350.3	9
350.4	7
350.5	5
350.6	2
593.7	2
593.8	3
593.9	4
594.0	6
594.1	8
594.2	9
594.3	10
594.4	9
594.5	8
594.6	5
594.7	2
611.3	0
611.4	1
611.5	4
611.6	9
611.7	16
611.8	28
611.9	43
612.0	61
612.1	78
612.2	92
612.3	99
612.4	97
612.5	84
612.6	61
612.7	33
612.8	10
612.9	0
