Mass spectrum: evodiamine; LC-ESI-QQQ; MS2; Frag=135.0V CID@15.0; [M+H]+
Name: evodiamine
Class: Alkaloids
Formula: C19H17N3O
Exact mass: 303.3668
SMILES: CN1c2ccccc2C(=O)N2CCc3c([nH]c4ccccc34)[C@H]21
InChI: InChI=1S/C19H17N3O/c1-21-16-9-5-3-7-14(16)19(23)22-11-10-13-12-6-2-4-8-15(12)20-17(13)18(21)22/h2-9,18,20H,10-11H2,1H3/t18-/m0/s1
Instrument: Agilent 6410 Triple Quadrupole LC/MS system
Instrument type: LC-ESI-QQQ
Ms type: MS2
Ion mode: POSITIVE
Precursor type: [M+H]+
m/z	relative intensity
133.2	0
133.3	1
133.4	7
133.5	16
133.6	28
133.7	44
133.8	62
133.9	81
134.0	95
134.1	99
134.2	94
134.3	78
134.4	55
134.5	28
134.6	7
134.7	0
143.4	1
143.5	2
143.6	4
143.7	6
143.8	9
143.9	12
144.0	14
144.1	16
144.2	15
144.3	14
144.4	10
144.5	6
144.6	2
160.4	1
160.5	3
160.6	7
160.7	12
160.8	18
160.9	23
161.0	28
161.1	30
161.2	29
161.3	25
161.4	19
161.5	11
161.6	4
170.4	1
170.5	3
170.6	6
170.7	11
170.8	17
170.9	24
171.0	30
171.1	34
171.2	35
171.3	33
171.4	26
171.5	16
171.6	6
171.7	0
303.3	0
303.4	1
303.5	4
303.6	7
303.7	12
303.8	19
303.9	27
304.0	34
304.1	40
304.2	43
304.3	41
304.4	32
304.5	18
304.6	5
304.7	0
