Mass spectrum: Purpurin; LC-ESI-QQQ; MS2; Frag=135.0V CID@10.0; [M+H]+
Name: Purpurin
Class: Polycyclic aromatic natural products
Formula: C14H8O5
Exact mass: 256.2169
SMILES: O=C1c2ccccc2C(=O)c2c(O)c(O)cc(O)c21
InChI: InChI=1S/C14H8O5/c15-8-5-9(16)14(19)11-10(8)12(17)6-3-1-2-4-7(6)13(11)18/h1-5,15-16,19H
Instrument: Agilent 6410 Triple Quadrupole LC/MS system
Instrument type: LC-ESI-QQQ
Ms type: MS2
Ion mode: POSITIVE
Precursor type: [M+H]+
m/z	relative intensity
256.2	0
256.3	2
256.4	7
256.5	12
256.6	21
256.7	35
256.8	56
256.9	77
257.0	93
257.1	99
257.2	94
257.3	77
257.4	51
257.5	23
257.6	3
