Mass spectrum: Purpurin; LC-ESI-QQQ; MS2; Frag=135.0V CID@5.0; [M+H]+
Name: Purpurin
Class: Polycyclic aromatic natural products
Formula: C14H8O5
Exact mass: 256.2169
SMILES: O=C1c2ccccc2C(=O)c2c(O)c(O)cc(O)c21
InChI: InChI=1S/C14H8O5/c15-8-5-9(16)14(19)11-10(8)12(17)6-3-1-2-4-7(6)13(11)18/h1-5,15-16,19H
Instrument: Agilent 6410 Triple Quadrupole LC/MS system
Instrument type: LC-ESI-QQQ
Ms type: MS2
Ion mode: POSITIVE
Precursor type: [M+H]+
m/z	relative intensity
256.2	1
256.3	3
256.4	7
256.5	12
256.6	21
256.7	36
256.8	58
256.9	80
257.0	96
257.1	99
257.2	91
257.3	73
257.4	47
257.5	21
257.6	3
