Mass spectrum: retronecine; LC-ESI-QQQ; MS2; Frag=135.0V CID@15.0; [M+H]+
Name: retronecine
Class: Alkaloids
Formula: C8H13NO2
Exact mass: 155.1983
SMILES: OCC1=CCN2CC[C@@H](O)[C@@H]12
InChI: InChI=1S/C8H13NO2/c10-5-6-1-3-9-4-2-7(11)8(6)9/h1,7-8,10-11H,2-5H2/t7-,8-/m1/s1
Instrument: Agilent 6410 Triple Quadrupole LC/MS system
Instrument type: LC-ESI-QQQ
Ms type: MS2
Ion mode: POSITIVE
Precursor type: [M+H]+
m/z	relative intensity
93.7	1
93.8	3
93.9	4
94.0	5
94.1	6
94.2	6
94.3	5
94.4	3
107.6	1
107.7	3
107.8	5
107.9	8
108.0	10
108.1	11
108.2	10
108.3	8
108.4	6
108.5	3
111.6	2
111.7	3
111.8	6
111.9	10
112.0	13
112.1	13
112.2	12
112.3	10
112.4	7
112.5	4
112.6	1
137.6	1
137.7	2
137.8	5
137.9	7
138.0	8
138.1	9
138.2	8
138.3	7
138.4	6
138.5	3
155.2	0
155.3	1
155.4	4
155.5	8
155.6	13
155.7	24
155.8	45
155.9	70
156.0	90
156.1	99
156.2	99
156.3	91
156.4	72
156.5	45
156.6	17
156.7	0
