Mass spectrum: Bovoside A; LC-ESI-QQQ; MS2; Frag=135.0V CID@15.0; [M+HOO]-
Name: Bovoside A
Class: Steroids
Formula: C31H44O9
Exact mass: 560.6909
SMILES: COC1C(O)C(C)OC(OC2CC[C@]3(C=O)C4CC[C@]5(C)C(c6ccc(=O)oc6)CCC5(O)C4CC[C@H]3C2)C1O
InChI: InChI=1S/C31H44O9/c1-17-25(34)27(37-3)26(35)28(39-17)40-20-8-12-30(16-32)19(14-20)5-6-23-22(30)9-11-29(2)21(10-13-31(23,29)36)18-4-7-24(33)38-15-18/h4,7,15-17,19-23,25-28,34-36H,5-6,8-14H2,1-3H3/t17?,19-,20?,21?,22?,23?,25?,26?,27?,28?,29+,30+,31?/m0/s1
Instrument: Agilent 6410 Triple Quadrupole LC/MS system
Instrument type: LC-ESI-QQQ
Ms type: MS2
Ion mode: NEGATIVE
Precursor type: [M+HOO]-
m/z	relative intensity
558.6	3
558.7	5
558.8	11
558.9	22
559.0	35
559.1	43
559.2	44
559.3	43
559.4	41
559.5	35
559.6	22
559.7	9
559.8	2
604.3	0
604.4	2
604.5	13
604.6	34
604.7	62
604.8	85
604.9	88
605.0	71
605.1	51
605.2	46
605.3	52
605.4	48
605.5	29
605.6	9
