Mass spectrum: Erythromycin; LC-ESI-QQQ; MS2; Frag=135.0V CID@5.0; [M+HCOO]-
Name: Erythromycin
Class: Polyketides
Formula: C37H67NO13
Exact mass: 733.9454
SMILES: CCC1OC(=O)C(C)C(OC2CC(C)(OC)C(O)C(C)O2)C(C)C(OC2OC(C)CC(N(C)C)C2O)C(C)(O)CC(C)C(=O)C(C)C(O)C1(C)O
InChI: InChI=1S/C37H67NO13/c1-14-25-37(10,45)30(41)20(4)27(39)18(2)16-35(8,44)32(51-34-28(40)24(38(11)12)15-19(3)47-34)21(5)29(22(6)33(43)49-25)50-26-17-36(9,46-13)31(42)23(7)48-26/h18-26,28-32,34,40-42,44-45H,14-17H2,1-13H3
Instrument: Agilent 6410 Triple Quadrupole LC/MS system
Instrument type: LC-ESI-QQQ
Ms type: MS2
Ion mode: NEGATIVE
Precursor type: [M+HCOO]-
m/z	relative intensity
173.5	1
173.6	2
173.7	4
173.8	7
173.9	8
174.0	7
174.1	4
174.2	1
248.4	2
248.5	3
248.6	6
248.7	9
248.8	13
248.9	15
249.0	14
249.1	11
249.2	8
249.3	5
249.4	3
322.5	1
322.6	3
322.7	6
322.8	10
322.9	16
323.0	19
323.1	17
323.2	11
323.3	5
323.4	1
380.6	2
380.7	3
380.8	4
380.9	5
381.0	5
381.1	4
381.2	3
423.4	1
423.5	3
423.6	5
423.7	6
423.8	6
423.9	6
424.0	6
424.1	4
424.2	2
497.2	1
497.3	2
497.4	5
497.5	7
497.6	9
497.7	13
497.8	22
497.9	40
498.0	61
498.1	76
498.2	83
498.3	84
498.4	76
498.5	55
498.6	26
498.7	5
498.8	0
555.6	1
555.7	3
555.8	6
555.9	10
556.0	13
556.1	15
556.2	19
556.3	25
556.4	27
556.5	21
556.6	10
556.7	1
731.9	3
732.0	4
732.1	5
732.2	6
732.3	7
732.4	6
732.5	5
732.6	3
777.3	2
777.4	4
777.5	6
777.6	11
777.7	20
777.8	35
777.9	52
778.0	68
778.1	81
778.2	88
778.3	92
778.4	96
778.5	99
778.6	89
778.7	60
778.8	25
778.9	2
