Mass spectrum: Pseudokopsinine; LC-ESI-QQQ; MS2; Frag=135.0V CID@10.0; [M+H]+
Name: methyl (4S,19S,1R,20R)-20-methyl-5,15-diazahexacyclo(10.6.1.1(1,4).0(4,12).0(6,11).0(5,19))icosa-6(11),7,9-triene-3-carboxylate
Name: Pseudokopsinine
Class: Alkaloids
Formula: C21H26N2O2
Exact mass: 338.4536
SMILES: COC(=O)C1C[C@]23CCCN4CCC5(c6ccccc6N[C@@]15C2C)[C@@H]43
InChI: InChI=1S/C21H26N2O2/c1-13-19-8-5-10-23-11-9-20(18(19)23)14-6-3-4-7-16(14)22-21(13,20)15(12-19)17(24)25-2/h3-4,6-7,13,15,18,22H,5,8-12H2,1-2H3/t13?,15?,18-,19+,20?,21-/m0/s1
Instrument: Agilent 6410 Triple Quadrupole LC/MS system
Instrument type: LC-ESI-QQQ
Ms type: MS2
Ion mode: POSITIVE
Precursor type: [M+H]+
m/z	relative intensity
338.4	1
338.5	3
338.6	6
338.7	12
338.8	23
338.9	41
339.0	63
339.1	83
339.2	97
339.3	99
339.4	89
339.5	65
339.6	34
339.7	9
339.8	0
