Mass spectrum: Norlaudanosoline; LC-ESI-QQQ; MS2; Frag=135.0V CID@15.0; [M+H]+
Name: Norlaudanosoline
Class: Alkaloids
Formula: C16H17NO4
Exact mass: 287.3182
SMILES: Oc1ccc(CC2NCCc3cc(O)c(O)cc32)cc1O
InChI: InChI=1S/C16H17NO4/c18-13-2-1-9(6-14(13)19)5-12-11-8-16(21)15(20)7-10(11)3-4-17-12/h1-2,6-8,12,17-21H,3-5H2
Instrument: Agilent 6410 Triple Quadrupole LC/MS system
Instrument type: LC-ESI-QQQ
Ms type: MS2
Ion mode: POSITIVE
Precursor type: [M+H]+
m/z	relative intensity
122.3	1
122.4	3
122.5	7
122.6	12
122.7	19
122.8	27
122.9	34
123.0	38
123.1	39
123.2	36
123.3	30
123.4	20
123.5	9
123.6	1
142.5	2
142.6	3
142.7	6
142.8	8
142.9	10
143.0	12
143.1	12
143.2	11
143.3	10
143.4	7
143.5	3
160.3	0
160.4	2
160.5	5
160.6	10
160.7	18
160.8	28
160.9	38
161.0	46
161.1	48
161.2	45
161.3	38
161.4	28
161.5	16
161.6	5
161.7	0
163.2	0
163.3	1
163.4	4
163.5	10
163.6	19
163.7	34
163.8	55
163.9	77
164.0	93
164.1	99
164.2	97
164.3	85
164.4	63
164.5	35
164.6	10
164.7	0
270.4	1
270.5	2
270.6	3
270.7	6
270.8	9
270.9	14
271.0	18
271.1	21
271.2	21
271.3	18
271.4	13
271.5	7
271.6	2
287.5	1
287.6	3
287.7	5
287.8	8
287.9	12
288.0	16
288.1	19
288.2	20
288.3	18
288.4	14
288.5	8
288.6	2
