Mass spectrum: Icariin; LC-ESI-QQQ; MS2; Frag=135.0V CID@15.0; [M+HCOO]-
Name: Icariin
Class: Flavonoids
Formula: C33H40O15
Exact mass: 676.6778
SMILES: COc1ccc(-c2oc3c(CC=C(C)C)c(OC4OC(CO)C(O)C(O)C4O)cc(O)c3c(=O)c2OC2OC(C)C(O)C(O)C2O)cc1
InChI: InChI=1S/C33H40O15/c1-13(2)5-10-17-19(45-33-28(42)26(40)23(37)20(12-34)46-33)11-18(35)21-24(38)31(48-32-27(41)25(39)22(36)14(3)44-32)29(47-30(17)21)15-6-8-16(43-4)9-7-15/h5-9,11,14,20,22-23,25-28,32-37,39-42H,10,12H2,1-4H3
Instrument: Agilent 6410 Triple Quadrupole LC/MS system
Instrument type: LC-ESI-QQQ
Ms type: MS2
Ion mode: NEGATIVE
Precursor type: [M+HCOO]-
m/z	relative intensity
366.2	1
366.3	2
366.4	5
366.5	9
366.6	15
366.7	21
366.8	26
366.9	29
367.0	33
367.1	35
367.2	34
367.3	30
367.4	21
367.5	10
367.6	3
408.4	2
408.5	3
408.6	6
408.7	8
408.8	10
408.9	11
409.0	11
409.1	10
409.2	10
409.3	9
409.4	7
409.5	3
512.1	1
512.2	3
512.3	7
512.4	15
512.5	26
512.6	41
512.7	60
512.8	79
512.9	93
513.0	99
513.1	99
513.2	95
513.3	88
513.4	71
513.5	45
513.6	17
513.7	1
528.3	2
528.4	3
528.5	6
528.6	9
528.7	12
528.8	12
528.9	11
529.0	11
529.1	12
529.2	12
529.3	10
529.4	6
529.5	3
