Mass spectrum: Crustecdysone; LC-ESI-QQQ; MS2; Frag=135.0V CID@5.0; [M+HCOO]-
Name: Crustecdysone
Class: Steroids
Formula: C27H44O7
Exact mass: 480.6475
SMILES: CC(C)(O)CC[C@@H](O)[C@](C)(O)[C@H]1CC[C@@]2(O)C3=CC(=O)[C@@H]4C[C@@H](O)[C@@H](O)C[C@]4(C)[C@H]3CC[C@]12C
InChI: InChI=1S/C27H44O7/c1-23(2,32)9-8-22(31)26(5,33)21-7-11-27(34)16-12-18(28)17-13-19(29)20(30)14-24(17,3)15(16)6-10-25(21,27)4/h12,15,17,19-22,29-34H,6-11,13-14H2,1-5H3/t15-,17-,19+,20-,21-,22+,24+,25+,26+,27+/m0/s1
Instrument: Agilent 6410 Triple Quadrupole LC/MS system
Instrument type: LC-ESI-QQQ
Ms type: MS2
Ion mode: NEGATIVE
Precursor type: [M+HCOO]-
m/z	relative intensity
478.4	1
478.5	3
478.6	7
478.7	15
478.8	27
478.9	41
479.0	52
479.1	59
479.2	63
479.3	66
479.4	69
479.5	63
479.6	45
479.7	20
479.8	2
524.3	0
524.4	1
524.5	7
524.6	17
524.7	31
524.8	48
524.9	66
525.0	82
525.1	91
525.2	96
525.3	99
525.4	99
525.5	88
525.6	63
525.7	30
525.8	5
525.9	0
