Mass spectrum: O-DeMethylfoliosidine; LC-ESI-QQQ; MS2; Frag=135.0V CID@25.0; [M+H]+
Name: O-DeMethylfoliosidine
Class: Alkaloids
Formula: C15H19NO5
Exact mass: 293.3224
SMILES: Cn1c(O)cc(=O)c2cccc(OCC(O)C(C)(C)O)c21
InChI: InChI=1S/C15H19NO5/c1-15(2,20)12(18)8-21-11-6-4-5-9-10(17)7-13(19)16(3)14(9)11/h4-7,12,18-20H,8H2,1-3H3
Instrument: Agilent 6410 Triple Quadrupole LC/MS system
Instrument type: LC-ESI-QQQ
Ms type: MS2
Ion mode: POSITIVE
Precursor type: [M+H]+
m/z	relative intensity
58.6	1
58.7	2
58.8	4
58.9	5
59.0	7
59.1	7
59.2	7
59.3	6
59.4	4
59.5	2
135.4	1
135.5	2
135.6	4
135.7	6
135.8	9
135.9	11
136.0	13
136.1	13
136.2	13
136.3	11
136.4	7
136.5	3
136.6	0
147.5	1
147.6	2
147.7	5
147.8	7
147.9	9
148.0	11
148.1	11
148.2	10
148.3	8
148.4	5
148.5	2
149.4	1
149.5	2
149.6	5
149.7	8
149.8	11
149.9	15
150.0	18
150.1	19
150.2	18
150.3	16
150.4	11
150.5	5
150.6	1
160.6	2
160.7	3
160.8	5
160.9	7
161.0	8
161.1	8
161.2	8
161.3	8
161.4	8
161.5	10
161.6	13
161.7	21
161.8	32
161.9	44
162.0	53
162.1	57
162.2	57
162.3	51
162.4	38
162.5	22
162.6	7
162.7	0
175.6	2
175.7	3
175.8	5
175.9	8
176.0	11
176.1	12
176.2	12
176.3	11
176.4	8
176.5	5
189.6	1
189.7	2
189.8	3
189.9	4
190.0	5
190.1	6
190.2	6
190.3	6
190.4	7
190.5	10
190.6	16
190.7	26
190.8	40
190.9	54
191.0	65
191.1	71
191.2	71
191.3	67
191.4	56
191.5	43
191.7	37
191.8	53
191.9	72
192.0	88
192.1	98
192.2	99
192.3	91
192.4	70
192.5	40
192.6	13
192.7	0
201.7	2
201.8	3
201.9	4
202.0	5
202.1	5
202.2	5
202.3	4
202.4	2
215.6	2
215.7	3
215.8	4
215.9	6
216.0	8
216.1	9
216.2	9
216.3	8
216.4	5
216.5	3
275.4	0
275.5	2
275.6	4
275.7	8
275.8	14
275.9	20
276.0	25
276.1	29
276.2	29
276.3	27
276.4	20
276.5	12
276.6	4
276.7	0
