Mass spectrum: Selinidin; LC-ESI-QQQ; MS2; Frag=135.0V CID@10.0; [M+H]+
Name: Selinidin
Class: Benzopyranoids
Formula: C19H20O5
Exact mass: 328.3683
SMILES: C/C=C(\C)C(=O)OC1Cc2c(ccc3ccc(=O)oc23)OC1(C)C
InChI: InChI=1S/C19H20O5/c1-5-11(2)18(21)22-15-10-13-14(24-19(15,3)4)8-6-12-7-9-16(20)23-17(12)13/h5-9,15H,10H2,1-4H3/b11-5+
Instrument: Agilent 6410 Triple Quadrupole LC/MS system
Instrument type: LC-ESI-QQQ
Ms type: MS2
Ion mode: POSITIVE
Precursor type: [M+H]+
m/z	relative intensity
186.3	1
186.4	3
186.5	6
186.6	11
186.7	19
186.8	31
186.9	43
187.0	51
187.1	53
187.2	49
187.3	39
187.4	24
187.5	10
187.6	1
228.2	0
228.3	2
228.4	5
228.5	8
228.6	15
228.7	29
228.8	50
228.9	74
229.0	92
229.1	99
229.2	96
229.3	83
229.4	60
229.5	33
229.6	11
229.7	0
