Mass spectrum: Lappaconitine; LC-ESI-QQQ; MS2; Frag=135.0V CID@10.0; [M+H]+
Name: Lappaconitine
Class: Alkaloids
Formula: C32H44N2O8
Exact mass: 584.7161
SMILES: CCN1C[C@]2(OC(=O)c3ccccc3N=C(C)O)CC[C@H](OC)[C@]34C1[C@H](CC23)[C@@]1(O)C[C@H](OC)[C@H]2CC4[C@]1(O)[C@H]2OC
InChI: InChI=1S/C32H44N2O8/c1-6-34-16-29(42-28(36)18-9-7-8-10-21(18)33-17(2)35)12-11-25(40-4)31-23(29)14-20(26(31)34)30(37)15-22(39-3)19-13-24(31)32(30,38)27(19)41-5/h7-10,19-20,22-27,37-38H,6,11-16H2,1-5H3,(H,33,35)/t19-,20+,22+,23?,24?,25+,26?,27+,29-,30+,31+,32+/m1/s1
Instrument: Agilent 6410 Triple Quadrupole LC/MS system
Instrument type: LC-ESI-QQQ
Ms type: MS2
Ion mode: POSITIVE
Precursor type: [M+H]+
m/z	relative intensity
584.3	0
584.4	1
584.5	5
584.6	10
584.7	17
584.8	26
584.9	40
585.0	58
585.1	77
585.2	92
585.3	99
585.4	98
585.5	87
585.6	64
585.7	35
585.8	11
585.9	0
