Mass spectrum: Asiaticoside; LC-ESI-QQQ; MS2; Frag=135.0V CID@10.0; [M+HCOO]-
Name: Asiaticoside
Class: Terpenoids
Formula: C48H78O19
Exact mass: 959.1455
SMILES: C[C@@H]1[C@H]2C3=CCC4[C@@]5(C)C[C@@H](O)[C@@H](O)[C@@](C)(CO)C5CC[C@@]4(C)[C@]3(C)CC[C@@]2(C(=O)O[C@@H]2O[C@@H](CO[C@@H]3O[C@H](CO)[C@@H](O[C@@H]4O[C@H](C)[C@@H](O)[C@H](O)[C@H]4O)[C@H](O)[C@H]3O)[C@H](O)[C@@H](O)[C@H]2O)CC[C@H]1C
InChI: InChI=1S/C48H78O19/c1-20-10-13-48(15-14-46(6)23(29(48)21(20)2)8-9-28-44(4)16-24(51)39(60)45(5,19-50)27(44)11-12-47(28,46)7)43(61)67-42-36(58)33(55)31(53)26(65-42)18-62-40-37(59)34(56)38(25(17-49)64-40)66-41-35(57)32(54)30(52)22(3)63-41/h8,20-22,24-42,49-60H,9-19H2,1-7H3/t20-,21+,22-,24-,25-,26+,27?,28?,29+,30-,31+,32+,33-,34-,35-,36-,37-,38-,39-,40-,41+,42+,44+,45+,46-,47-,48+/m1/s1
Instrument: Agilent 6410 Triple Quadrupole LC/MS system
Instrument type: LC-ESI-QQQ
Ms type: MS2
Ion mode: NEGATIVE
Precursor type: [M+HCOO]-
m/z	relative intensity
956.0	2
956.1	4
956.2	7
956.3	9
956.4	10
956.5	8
956.6	9
956.7	16
956.8	29
956.9	48
957.0	69
957.1	85
957.2	88
957.3	78
957.4	65
957.5	51
957.6	37
957.7	21
957.8	7
957.9	0
1002.1	1
1002.2	3
1002.3	4
1002.4	6
1002.5	8
1002.6	15
1002.7	31
1002.8	56
1002.9	79
1003.0	91
1003.1	92
1003.2	92
1003.3	97
1003.4	99
1003.5	88
1003.6	62
1003.7	32
1003.8	12
1003.9	3
