Mass spectrum: Perfamine; LC-ESI-QQQ; MS2; Frag=135.0V CID@25.0; [M+H]+
Name: Perfamine
Class: Alkaloids
Formula: C18H19NO4
Exact mass: 313.3564
SMILES: COc1c2c(nc3occc13)C(CC=C(C)C)(OC)C(=O)C=C2
InChI: InChI=1S/C18H19NO4/c1-11(2)7-9-18(22-4)14(20)6-5-12-15(21-3)13-8-10-23-17(13)19-16(12)18/h5-8,10H,9H2,1-4H3
Instrument: Agilent 6410 Triple Quadrupole LC/MS system
Instrument type: LC-ESI-QQQ
Ms type: MS2
Ion mode: POSITIVE
Precursor type: [M+H]+
m/z	relative intensity
215.7	2
215.8	4
215.9	5
216.0	5
216.1	5
216.2	5
216.3	4
216.4	2
230.2	1
230.3	2
230.4	6
230.5	13
230.6	24
230.7	40
230.8	61
230.9	81
231.0	95
231.1	99
231.2	96
231.3	82
231.4	59
231.5	30
231.6	7
231.7	0
245.4	1
245.5	3
245.6	5
245.7	9
245.8	15
245.9	22
246.0	27
246.1	30
246.2	29
246.3	25
246.4	17
246.5	8
246.6	1
