Mass spectrum: Lagochilin; LC-ESI-QQQ; MS2; Frag=135.0V CID@10.0; [M+HCOO]-
Name: Lagochilin
Class: Terpenoids
Formula: C20H36O5
Exact mass: 356.5069
SMILES: C[C@@H]1CCC2[C@](C)(CC[C@H](O)[C@@]2(C)CO)[C@]12CCC(CO)(CCO)O2
InChI: InChI=1S/C20H36O5/c1-14-4-5-15-17(2,12-22)16(24)6-7-18(15,3)20(14)9-8-19(13-23,25-20)10-11-21/h14-16,21-24H,4-13H2,1-3H3/t14-,15?,16+,17+,18+,19?,20+/m1/s1
Instrument: Agilent 6410 Triple Quadrupole LC/MS system
Instrument type: LC-ESI-QQQ
Ms type: MS2
Ion mode: NEGATIVE
Precursor type: [M+HCOO]-
m/z	relative intensity
400.4	1
400.5	5
400.6	13
400.7	32
400.8	59
400.9	86
401.0	98
401.1	86
401.2	57
401.3	29
401.4	16
401.5	13
401.6	13
401.7	8
401.8	2
