Mass spectrum: 20,24-Epoxydammarane-3,11,25-triol; LC-ESI-QQQ; MS2; Frag=135.0V CID@5.0; [M+NH4]+
Name: 20,24-Epoxydammarane-3,11,25-triol
Class: Terpenoids
Formula: C30H52O4
Exact mass: 476.7465
SMILES: CC(C)(O)C1CC[C@](C)(C2CC[C@]3(C)C2C[C@@H](O)C2[C@@]4(C)CC[C@H](O)C(C)(C)C4CC[C@]23C)O1
InChI: InChI=1S/C30H52O4/c1-25(2)21-10-15-29(7)24(27(21,5)13-11-22(25)32)20(31)17-19-18(9-14-28(19,29)6)30(8)16-12-23(34-30)26(3,4)33/h18-24,31-33H,9-17H2,1-8H3/t18?,19?,20-,21?,22+,23?,24?,27+,28-,29-,30-/m1/s1
Instrument: Agilent 6410 Triple Quadrupole LC/MS system
Instrument type: LC-ESI-QQQ
Ms type: MS2
Ion mode: POSITIVE
Precursor type: [M+NH4]+
m/z	relative intensity
141.2	2
141.3	4
141.4	6
141.5	8
141.6	8
141.7	6
141.8	3
142.3	2
142.4	3
142.5	8
142.6	18
142.7	37
142.8	62
142.9	86
143.0	98
143.1	94
143.2	76
143.3	52
143.4	28
143.5	10
143.6	1
458.3	3
458.4	5
458.5	9
458.6	12
458.7	12
458.8	12
458.9	17
459.0	26
459.1	33
459.2	33
459.3	28
459.4	23
459.5	18
459.6	12
459.7	6
493.8	3
493.9	6
494.0	11
494.1	19
494.2	29
494.3	39
494.4	42
494.5	36
494.6	21
494.7	7
