Mass spectrum: Dihydroqinghaosu, Dihydroartemisinin.; LC-ESI-QQQ; MS2; Frag=135.0V CID@15.0; [M+H]+
Name: Dihydroqinghaosu, Dihydroartemisinin.
Class: Terpenoids
Formula: C15H24O5
Exact mass: 284.3555
SMILES: C[C@@H]1CC[C@H]2[C@@H](C)[C@@H](O)OC3O[C@]4(C)CCC1C32OO4
InChI: InChI=1S/C15H24O5/c1-8-4-5-11-9(2)12(16)17-13-15(11)10(8)6-7-14(3,18-13)19-20-15/h8-13,16H,4-7H2,1-3H3/t8-,9-,10?,11+,12+,13?,14+,15?/m1/s1
Instrument: Agilent 6410 Triple Quadrupole LC/MS system
Instrument type: LC-ESI-QQQ
Ms type: MS2
Ion mode: POSITIVE
Precursor type: [M+H]+
m/z	relative intensity
53.8	2
53.9	4
54.0	5
54.1	5
54.2	4
54.3	3
54.4	3
54.5	4
54.6	6
54.7	7
54.8	7
54.9	6
63.4	1
63.5	3
63.6	5
63.7	5
65.3	2
65.4	3
65.5	5
65.6	5
67.2	3
67.3	4
67.4	5
67.5	5
68.5	2
68.6	4
68.7	5
68.8	5
70.4	2
70.5	4
70.6	5
70.7	5
70.8	4
70.9	3
71.0	3
71.1	4
71.2	5
71.3	5
71.4	4
71.7	2
71.8	4
71.9	5
72.0	4
72.1	3
72.2	2
72.3	2
72.4	3
72.5	4
72.6	3
72.7	3
72.8	2
72.9	2
73.0	3
73.1	4
73.2	5
73.3	4
73.4	4
73.5	3
73.6	3
73.7	4
73.8	4
73.9	4
74.2	2
74.3	4
74.4	7
74.5	8
74.6	7
74.7	5
80.6	2
80.7	3
80.8	6
80.9	7
81.0	7
81.1	5
83.8	4
83.9	6
84.0	9
84.1	9
84.2	6
86.4	2
86.5	4
86.6	6
86.7	5
87.6	2
87.7	4
87.8	7
87.9	9
88.0	10
88.1	8
88.2	5
90.9	2
91.0	4
91.1	5
91.2	5
91.3	3
91.4	2
91.5	3
91.6	4
91.7	5
91.8	5
91.9	4
96.7	3
96.8	5
96.9	6
97.0	6
97.1	5
97.2	4
97.3	6
97.4	9
97.5	11
97.6	9
97.7	6
105.6	2
105.7	4
105.8	5
105.9	5
106.0	4
106.1	3
106.2	3
106.3	4
106.4	5
106.5	5
106.6	4
108.2	2
108.3	4
108.4	5
108.5	5
109.5	2
109.6	4
109.7	5
109.8	4
110.1	2
110.2	4
110.3	5
110.4	5
116.5	3
116.6	4
116.7	5
116.8	4
118.4	2
118.5	4
118.6	5
118.7	5
125.4	2
125.5	3
125.6	5
125.7	6
125.8	4
126.1	1
126.2	3
126.3	5
126.4	5
129.3	2
129.4	3
129.5	5
129.6	5
134.4	2
134.5	5
134.6	7
134.7	7
140.8	2
140.9	4
141.0	5
141.1	5
152.3	1
152.4	3
152.5	5
152.6	5
152.7	4
152.8	3
152.9	3
153.0	4
153.1	5
153.2	5
153.3	4
156.8	3
156.9	4
157.0	5
157.1	5
161.9	1
162.0	3
162.1	5
162.2	6
162.3	5
176.0	1
176.1	3
176.2	5
176.3	5
176.4	4
177.3	2
177.4	4
177.5	5
177.6	5
181.1	2
181.2	4
181.3	5
181.4	6
181.5	4
181.8	2
181.9	4
182.0	5
182.1	5
195.2	1
195.3	4
195.4	6
195.5	6
195.6	4
202.9	2
203.0	4
203.1	5
203.2	5
212.5	2
212.6	4
212.7	5
212.8	5
215.7	3
215.8	4
215.9	5
216.0	5
216.1	4
218.9	1
219.0	3
219.1	5
219.2	5
222.1	2
222.2	4
222.3	5
222.4	5
234.9	3
235.0	5
235.1	6
235.2	5
235.3	4
238.1	2
238.2	3
238.3	4
238.4	4
238.5	3
238.6	3
238.7	3
238.8	4
238.9	4
239.0	4
241.9	2
242.0	4
242.1	6
242.2	6
242.3	4
242.6	2
242.7	4
242.8	5
242.9	4
252.8	2
252.9	4
253.0	5
253.1	5
253.2	4
254.7	2
254.8	4
254.9	6
255.0	6
255.1	4
255.4	2
255.5	4
255.6	5
255.7	5
255.8	4
255.9	3
256.0	3
256.1	3
256.2	4
256.3	4
256.4	3
256.5	2
256.6	2
256.7	3
256.8	5
256.9	5
257.0	4
259.9	2
260.0	3
260.1	4
260.2	4
260.3	3
260.4	3
260.5	3
260.6	4
260.7	5
260.8	4
260.9	3
261.0	2
261.1	2
261.2	4
261.3	5
261.4	5
261.8	3
261.9	4
262.0	5
262.1	5
263.7	2
263.8	4
263.9	5
264.0	4
268.2	2
268.3	4
268.4	5
268.5	4
272.0	2
272.1	4
272.2	6
272.3	5
272.4	4
278.4	2
278.5	4
278.6	5
278.7	5
278.8	4
281.6	2
281.7	4
281.8	5
281.9	5
282.0	4
283.5	2
283.6	4
283.7	6
283.8	8
283.9	6
284.0	3
284.2	0
284.3	3
284.4	6
284.5	8
284.6	13
284.7	24
284.8	38
284.9	44
285.0	39
285.1	37
285.2	53
285.3	78
285.4	88
285.5	70
285.6	37
285.7	10
285.8	0
286.0	1
286.1	2
286.2	4
286.3	6
286.4	5
286.5	4
290.6	2
290.7	4
290.8	5
290.9	5
295.7	3
295.8	4
295.9	5
296.0	5
299.5	2
299.6	4
299.7	5
299.8	5
299.9	4
304.0	2
304.1	3
304.2	5
304.3	5
307.2	2
307.3	4
307.4	5
307.5	5
318.1	3
318.2	5
318.3	6
318.4	5
332.8	1
332.9	3
333.0	5
333.1	5
333.2	4
347.5	2
347.6	4
347.7	5
347.8	6
347.9	4
352.0	2
352.1	4
352.2	5
352.3	5
355.2	2
355.3	4
355.4	6
355.5	6
355.6	4
361.0	2
361.1	4
361.2	5
361.3	5
366.7	2
366.8	4
366.9	5
367.0	5
367.1	4
367.4	2
367.5	4
367.6	5
367.7	5
377.6	2
377.7	4
377.8	5
377.9	5
382.7	2
382.8	3
382.9	5
383.0	5
385.3	3
385.4	4
385.5	5
385.6	5
388.5	3
388.6	4
388.7	6
388.8	5
390.4	2
390.5	4
390.6	5
390.7	5
391.7	2
391.8	4
391.9	5
392.0	5
396.2	2
396.3	3
396.4	5
396.5	4
396.6	4
396.7	3
396.8	3
396.9	4
397.0	4
397.1	3
397.4	1
397.5	3
397.6	5
397.7	5
397.8	4
398.1	2
398.2	4
398.3	6
398.4	6
398.5	4
400.6	2
400.7	4
400.8	5
400.9	5
401.0	4
401.1	3
401.2	3
401.3	3
401.4	4
401.5	5
401.6	4
408.4	2
408.5	4
408.6	5
408.7	4
408.8	3
408.9	3
409.0	4
409.1	5
409.2	5
409.3	4
409.6	2
409.7	4
409.8	5
409.9	5
417.3	2
417.4	4
417.5	5
417.6	5
421.1	2
421.2	4
421.3	5
421.4	5
421.5	4
423.7	3
423.8	4
423.9	5
424.0	5
428.8	2
428.9	3
429.0	5
429.1	5
432.0	2
432.1	4
432.2	5
432.3	5
434.6	2
434.7	4
434.8	5
434.9	5
441.0	2
441.1	4
441.2	5
441.3	4
446.1	3
446.2	4
446.3	5
446.4	5
454.4	2
454.5	4
454.6	5
454.7	4
462.1	3
462.2	4
462.3	5
462.4	5
465.3	3
465.4	4
465.5	5
465.6	5
468.5	2
468.6	4
468.7	5
468.8	5
476.2	3
476.3	4
476.4	5
476.5	5
476.6	4
476.7	3
476.8	3
476.9	4
477.0	5
477.1	4
480.0	2
480.1	4
480.2	5
480.3	5
483.2	2
483.3	3
483.4	5
483.5	5
484.5	2
484.6	4
484.7	5
484.8	5
487.7	2
487.8	3
487.9	4
488.0	5
488.1	4
488.2	3
488.3	3
488.4	4
488.5	4
488.6	4
488.7	3
488.8	2
488.9	2
489.0	3
489.1	4
489.2	4
489.3	3
489.4	2
489.5	2
489.6	2
489.7	3
489.8	4
489.9	4
490.0	4
490.1	2
490.2	2
490.3	4
490.4	5
490.5	5
490.6	4
492.8	2
492.9	4
493.0	5
493.1	5
496.0	1
496.1	4
496.2	5
496.3	5
497.3	2
497.4	4
497.5	5
497.6	5
498.6	3
498.7	4
498.8	5
498.9	4
506.9	2
507.0	4
507.1	5
507.2	5
508.2	2
508.3	4
508.4	5
508.5	5
510.1	2
510.2	4
510.3	5
510.4	5
510.5	3
510.8	2
510.9	4
511.0	5
511.1	4
511.2	3
511.3	2
511.4	3
511.5	3
511.6	4
511.7	4
511.8	3
511.9	2
512.0	3
512.1	4
512.2	5
512.3	5
513.3	3
513.4	4
513.5	5
513.6	5
517.1	2
517.2	4
517.3	6
517.4	5
517.5	4
521.0	3
521.1	4
521.2	5
521.3	5
522.9	2
523.0	4
523.1	6
523.2	5
526.7	1
526.8	3
526.9	5
527.0	5
528.0	2
528.1	4
528.2	5
528.3	5
542.1	2
542.2	4
542.3	5
542.4	5
542.5	4
542.6	3
542.7	3
542.8	5
542.9	7
543.0	7
543.1	5
543.2	3
547.9	2
548.0	4
548.1	5
548.2	4
548.3	3
548.4	3
548.5	3
548.6	4
548.7	5
548.8	4
554.9	2
555.0	4
555.1	5
555.2	4
555.3	3
555.4	2
555.5	3
555.6	4
555.7	5
555.8	5
555.9	4
558.7	2
558.8	4
558.9	5
559.0	5
564.5	2
564.6	4
564.7	5
564.8	5
568.3	2
568.4	4
568.5	5
568.6	5
568.7	4
572.2	2
572.3	4
572.4	5
572.5	5
579.2	3
579.3	4
579.4	6
579.5	5
581.8	2
581.9	4
582.0	4
582.1	4
588.2	3
588.3	4
588.4	5
588.5	4
598.4	3
598.5	4
598.6	5
598.7	5
