Mass spectrum: urolithin B; LC-ESI-QQQ; MS2; Frag=135.0V CID@25.0; [M+H]+
Name: urolithin B
Class: Benzopyranoids
Formula: C13H8O3
Exact mass: 212.2069
SMILES: O=c1oc2cc(O)ccc2c2ccccc12
InChI: InChI=1S/C13H8O3/c14-8-5-6-10-9-3-1-2-4-11(9)13(15)16-12(10)7-8/h1-7,14H
Instrument: Agilent 6410 Triple Quadrupole LC/MS system
Instrument type: LC-ESI-QQQ
Ms type: MS2
Ion mode: POSITIVE
Precursor type: [M+H]+
m/z	relative intensity
114.4	1
114.5	3
114.6	7
114.7	13
114.8	21
114.9	28
115.0	35
115.1	37
115.2	36
115.3	30
115.4	22
115.5	12
115.6	4
138.7	2
138.8	3
138.9	4
139.0	5
139.1	6
139.2	6
139.3	5
139.4	3
140.3	1
140.4	3
140.5	9
140.6	19
140.7	33
140.8	51
140.9	72
141.0	90
141.1	99
141.2	97
141.3	84
141.4	62
141.5	35
141.6	11
141.7	0
156.7	2
156.8	3
156.9	5
157.0	7
157.1	8
157.2	7
157.3	6
157.4	4
157.5	2
166.7	1
166.8	3
166.9	4
167.0	5
167.1	6
167.2	5
167.3	4
167.4	3
167.5	2
167.6	2
167.7	3
167.8	5
167.9	7
168.0	9
168.1	10
168.2	9
168.3	8
168.7	6
168.8	9
168.9	13
169.0	15
169.1	15
169.2	14
169.3	13
169.4	10
169.5	6
169.6	2
212.6	2
212.7	3
212.8	5
212.9	7
213.0	9
213.1	10
213.2	9
213.3	7
213.4	5
213.5	3
