Mass spectrum: Physodic acid; LC-ESI-QQQ; MS2; Frag=135.0V CID@15.0; [M+H]+
Name: Physodic acid
Class: Carbohydrates
Formula: C26H30O8
Exact mass: 470.5242
SMILES: CCCCCC(=O)Cc1cc(O)cc2c1C(=O)Oc1cc(O)c(C(=O)O)c(CCCCC)c1O2
InChI: InChI=1S/C26H30O8/c1-3-5-7-9-16(27)11-15-12-17(28)13-20-22(15)26(32)34-21-14-19(29)23(25(30)31)18(24(21)33-20)10-8-6-4-2/h12-14,28-29H,3-11H2,1-2H3,(H,30,31)
Instrument: Agilent 6410 Triple Quadrupole LC/MS system
Instrument type: LC-ESI-QQQ
Ms type: MS2
Ion mode: POSITIVE
Precursor type: [M+H]+
m/z	relative intensity
356.7	2
356.8	4
356.9	7
357.0	10
357.1	12
357.2	12
357.3	11
357.4	8
357.5	5
357.6	1
382.6	1
382.7	3
382.8	5
382.9	8
383.0	10
383.1	10
383.2	10
383.3	8
383.4	5
383.5	2
384.5	1
384.6	2
384.7	4
384.8	6
384.9	9
385.0	13
385.1	15
385.2	17
385.3	16
385.4	14
385.5	10
385.6	5
385.7	1
410.3	0
410.4	2
410.5	5
410.6	13
410.7	24
410.8	40
410.9	60
411.0	79
411.1	94
411.2	99
411.3	94
411.4	77
411.5	51
411.6	24
411.7	4
411.8	0
426.6	2
426.7	3
426.8	5
426.9	8
427.0	11
427.1	14
427.2	16
427.3	15
427.4	12
427.5	7
427.6	2
452.5	1
452.6	2
452.7	5
452.8	8
452.9	13
453.0	18
453.1	20
453.2	22
453.3	21
453.4	17
453.5	11
453.6	5
453.7	0
470.6	1
470.7	3
470.8	5
470.9	7
471.0	9
471.1	11
471.2	12
471.3	11
471.4	9
471.5	6
471.6	2
