Mass spectrum: Poststerone; LC-ESI-QQQ; MS2; Frag=135.0V CID@25.0; [M+H]+
Name: Poststerone
Class: Steroids
Formula: C21H30O5
Exact mass: 362.4703
SMILES: CC(=O)C1CC[C@@]2(O)C3=CC(=O)C4CC(O)C(O)C[C@]4(C)C3CC[C@]12C
InChI: InChI=1S/C21H30O5/c1-11(22)12-5-7-21(26)14-8-16(23)15-9-17(24)18(25)10-19(15,2)13(14)4-6-20(12,21)3/h8,12-13,15,17-18,24-26H,4-7,9-10H2,1-3H3/t12?,13?,15?,17?,18?,19-,20-,21-/m1/s1
Instrument: Agilent 6410 Triple Quadrupole LC/MS system
Instrument type: LC-ESI-QQQ
Ms type: MS2
Ion mode: POSITIVE
Precursor type: [M+H]+
m/z	relative intensity
80.4	1
80.5	3
80.6	4
80.7	5
80.8	7
80.9	10
81.0	12
81.1	11
81.2	8
81.3	6
81.4	5
81.5	4
81.6	1
84.5	0
84.6	3
84.7	5
84.8	8
84.9	10
85.0	12
85.1	12
85.2	12
85.3	11
85.4	8
85.5	4
92.4	1
92.5	2
92.6	4
92.7	6
92.8	8
92.9	11
93.0	14
93.1	14
93.2	12
93.3	8
93.4	4
94.6	1
94.7	3
94.8	5
94.9	8
95.0	9
95.1	10
95.2	9
95.3	7
95.4	5
95.5	2
104.6	2
104.7	4
104.8	7
104.9	11
105.0	14
105.1	15
105.2	13
105.3	9
105.4	6
105.5	2
106.4	1
106.5	3
106.6	5
106.7	8
106.8	13
106.9	17
107.0	21
107.1	21
107.2	20
107.3	16
107.4	10
107.5	4
118.5	1
118.6	3
118.7	6
118.8	9
118.9	11
119.0	12
119.1	13
119.2	13
119.3	13
119.4	10
119.5	5
119.6	1
120.6	2
120.7	4
120.8	6
120.9	8
121.0	11
121.1	12
121.2	12
121.3	10
121.4	7
121.5	5
121.6	2
122.7	2
122.8	3
122.9	6
123.0	8
123.1	8
123.2	7
123.3	7
123.4	5
123.5	2
124.7	2
124.8	3
124.9	6
125.0	10
125.1	14
125.2	15
125.3	11
125.4	6
125.5	2
130.5	1
130.6	3
130.7	5
130.8	9
130.9	15
131.0	21
131.1	22
131.2	20
131.3	16
131.4	11
131.5	5
131.6	0
132.5	1
132.6	3
132.7	7
132.8	11
132.9	17
133.0	22
133.1	24
133.2	22
133.3	18
133.4	13
133.5	8
133.6	3
134.6	2
134.7	3
134.8	5
134.9	6
135.0	7
135.1	9
135.2	10
135.3	10
135.4	6
135.5	2
136.7	2
136.8	4
136.9	8
137.0	12
137.1	15
137.2	14
137.3	11
137.4	6
137.5	2
142.5	2
142.6	3
142.7	5
142.8	9
142.9	12
143.0	14
143.1	14
143.2	12
143.3	11
143.4	8
143.5	4
144.4	1
144.5	2
144.6	5
144.7	8
144.8	13
144.9	20
145.0	27
145.1	34
145.2	36
145.3	32
145.4	22
145.5	11
145.6	2
146.6	2
146.7	5
146.8	12
146.9	23
147.0	33
147.1	35
147.2	31
147.3	24
147.4	16
147.5	8
147.6	2
148.7	2
148.8	4
148.9	7
149.0	10
149.1	10
149.2	7
149.3	4
150.9	2
151.0	3
151.1	5
151.2	6
151.3	5
151.4	3
154.7	2
154.8	4
154.9	7
155.0	10
155.1	11
155.2	12
155.3	11
155.4	9
155.5	4
156.6	2
156.7	4
156.8	7
156.9	8
157.0	9
157.1	10
157.2	11
157.3	12
157.4	8
157.5	3
158.4	1
158.5	3
158.6	6
158.7	12
158.8	20
158.9	29
159.0	36
159.1	39
159.2	39
159.3	36
159.4	30
159.5	19
159.6	7
159.7	0
160.5	2
160.6	3
160.7	5
160.8	9
160.9	14
161.0	17
161.1	17
161.2	16
161.3	14
161.4	12
161.5	9
161.6	4
161.7	0
166.6	1
166.7	4
166.8	6
166.9	10
167.0	13
167.1	15
167.2	14
167.3	12
167.4	8
167.5	4
168.5	1
168.6	2
168.7	5
168.8	10
168.9	16
169.0	19
169.1	21
169.2	21
169.3	17
169.4	12
169.5	6
169.6	1
170.3	1
170.4	3
170.5	6
170.6	9
170.7	13
170.8	17
170.9	23
171.0	29
171.1	33
171.2	33
171.3	28
171.4	20
171.5	10
171.6	2
172.4	3
172.5	5
172.6	10
172.7	20
172.8	36
172.9	59
173.0	82
173.1	97
173.2	99
173.3	89
173.4	67
173.5	40
173.6	15
173.7	1
174.7	1
174.8	4
174.9	10
175.0	14
175.1	15
175.2	12
175.3	9
175.4	6
175.5	5
175.6	3
176.7	2
176.8	4
176.9	6
177.0	7
177.1	7
177.2	5
177.3	3
182.7	3
182.8	5
182.9	7
183.0	8
183.1	8
183.2	8
183.3	7
183.4	5
183.5	2
184.7	1
184.8	4
184.9	7
185.0	10
185.1	11
185.2	10
185.3	7
185.4	4
186.4	0
186.5	1
186.6	5
186.7	13
186.8	25
186.9	39
187.0	50
187.1	58
187.2	60
187.3	55
187.4	41
187.5	22
187.6	6
187.7	0
188.5	2
188.6	3
188.7	5
188.8	9
188.9	14
189.0	19
189.1	21
189.2	19
189.3	16
189.4	12
189.5	7
189.6	2
190.7	1
190.8	2
190.9	5
191.0	8
191.1	11
191.2	12
191.3	9
191.4	5
191.5	2
192.7	1
192.8	3
192.9	5
193.0	7
193.1	6
193.2	4
193.3	2
194.9	2
195.0	5
195.1	6
195.2	6
195.3	4
195.4	1
196.5	2
196.6	3
196.7	5
196.8	9
196.9	13
197.0	18
197.1	22
197.2	24
197.3	22
197.4	16
197.5	7
197.6	1
198.7	1
198.8	3
198.9	4
199.0	6
199.1	6
199.2	6
199.3	7
199.4	6
199.5	4
199.6	2
204.7	3
204.8	5
204.9	8
205.0	12
205.1	14
205.2	13
205.3	11
205.4	7
205.5	3
206.8	3
206.9	4
207.0	5
207.1	6
207.2	6
207.3	4
207.4	2
208.8	1
208.9	3
209.0	6
209.1	8
209.2	8
209.3	7
209.4	4
209.5	2
210.6	1
210.7	2
210.8	5
210.9	9
211.0	13
211.1	15
211.2	14
211.3	10
211.4	6
211.5	4
214.4	1
214.5	4
214.6	9
214.7	17
214.8	27
214.9	39
215.0	52
215.1	63
215.2	69
215.3	69
215.4	59
215.5	42
215.6	22
215.7	6
215.8	0
220.8	1
220.9	2
221.0	4
221.1	5
221.2	6
221.3	6
221.4	6
221.5	4
221.6	2
222.8	2
222.9	4
223.0	6
223.1	8
223.2	8
223.3	8
223.4	6
223.5	4
223.6	2
224.6	2
224.7	4
224.8	5
224.9	7
225.0	9
225.1	12
225.2	14
225.3	14
225.4	10
225.5	5
225.6	1
226.6	0
226.7	2
226.8	4
226.9	6
227.0	7
227.1	6
227.2	6
227.3	6
227.4	5
227.5	3
232.6	1
232.7	3
232.8	5
232.9	9
233.0	11
233.1	12
233.2	11
233.3	10
233.4	9
233.5	6
238.6	1
238.7	3
238.8	5
238.9	9
239.0	13
239.1	16
239.2	16
239.3	13
239.4	10
239.5	6
239.6	2
248.6	1
248.7	3
248.8	5
248.9	7
249.0	7
249.1	6
249.2	6
249.3	7
249.4	6
249.5	4
249.6	1
250.8	1
250.9	2
251.0	5
251.1	7
251.2	6
251.3	4
251.4	2
256.9	1
257.0	3
257.1	6
257.2	7
257.3	8
257.4	6
257.5	3
264.8	1
264.9	2
265.0	4
265.1	7
265.2	8
265.3	6
265.4	3
266.6	2
266.7	4
266.8	8
266.9	14
267.0	20
267.1	23
267.2	25
267.3	24
267.4	22
267.5	16
267.6	7
267.7	1
268.8	0
268.9	2
269.0	5
269.1	7
269.2	7
269.3	5
269.4	2
284.8	2
284.9	3
285.0	7
285.1	11
285.2	13
285.3	12
285.4	8
285.5	3
286.9	3
287.0	5
287.1	6
287.2	7
287.3	6
287.4	4
287.5	2
303.0	1
303.1	3
303.2	5
303.3	5
303.4	3
308.9	2
309.0	4
309.1	7
309.2	10
309.3	12
309.4	10
309.5	5
309.6	1
