Mass spectrum: Galbanic acid; LC-ESI-QQQ; MS2; Frag=135.0V CID@25.0; [M+H]+
Name: Galbanic acid
Class: Benzopyranoids
Formula: C24H30O5
Exact mass: 398.5037
SMILES: CC(C)=C1CC[C@H](C)[C@](C)(COc2ccc3ccc(=O)oc3c2)[C@H]1CCC(=O)O
InChI: InChI=1S/C24H30O5/c1-15(2)19-9-5-16(3)24(4,20(19)10-11-22(25)26)14-28-18-8-6-17-7-12-23(27)29-21(17)13-18/h6-8,12-13,16,20H,5,9-11,14H2,1-4H3,(H,25,26)/t16-,20-,24-/m0/s1
Instrument: Agilent 6410 Triple Quadrupole LC/MS system
Instrument type: LC-ESI-QQQ
Ms type: MS2
Ion mode: POSITIVE
Precursor type: [M+H]+
m/z	relative intensity
94.8	3
94.9	4
95.0	5
95.1	6
95.2	6
95.3	5
95.4	3
106.7	2
106.8	4
106.9	6
107.0	7
107.1	8
107.2	7
107.3	6
107.4	4
107.5	2
108.6	2
108.7	3
108.8	5
108.9	8
109.0	10
109.1	11
109.2	11
109.3	9
109.4	7
109.5	4
109.6	1
120.5	1
120.6	2
120.7	4
120.8	7
120.9	10
121.0	13
121.1	13
121.2	13
121.3	11
121.4	9
121.5	6
121.6	2
134.7	2
134.8	3
134.9	4
135.0	5
135.1	6
135.2	5
135.3	5
135.4	3
135.5	2
162.2	0
162.3	2
162.4	5
162.5	12
162.6	21
162.7	34
162.8	53
162.9	74
163.0	92
163.1	99
163.2	95
163.3	80
163.4	55
163.5	28
163.6	6
163.7	0
176.8	1
176.9	3
177.0	4
177.1	5
177.2	5
177.3	5
177.4	3
177.5	2
188.5	1
188.6	3
188.7	5
188.8	8
188.9	11
189.0	14
189.1	15
189.2	15
189.3	13
189.4	9
189.5	5
189.6	1
