Mass spectrum: Grosheimin; LC-ESI-QQQ; MS2; Frag=135.0V CID@5.0; [M+H]+
Name: Grosheimin
Class: Terpenoids
Formula: C15H18O4
Exact mass: 262.3083
SMILES: C=C1C[C@H](O)[C@H]2C(=C)C(=O)O[C@@H]2[C@H]2[C@H](C)C(=O)C[C@@H]12
InChI: InChI=1S/C15H18O4/c1-6-4-11(17)13-8(3)15(18)19-14(13)12-7(2)10(16)5-9(6)12/h7,9,11-14,17H,1,3-5H2,2H3/t7-,9+,11+,12+,13-,14-/m1/s1
Instrument: Agilent 6410 Triple Quadrupole LC/MS system
Instrument type: LC-ESI-QQQ
Ms type: MS2
Ion mode: POSITIVE
Precursor type: [M+H]+
m/z	relative intensity
92.8	3
92.9	4
93.0	5
93.1	6
93.2	6
93.3	4
93.4	3
106.1	1
106.2	2
106.3	5
106.4	7
106.5	10
106.6	16
106.7	29
106.8	50
106.9	72
107.0	88
107.1	96
107.2	95
107.3	83
107.4	59
107.5	31
107.6	9
107.7	0
120.4	0
120.5	2
120.6	5
120.7	8
120.8	11
120.9	12
121.0	11
121.1	11
121.2	10
121.3	10
121.4	7
121.5	4
148.1	2
148.2	3
148.3	4
148.4	6
148.5	9
148.6	20
148.7	38
148.8	60
148.9	80
149.0	94
149.1	99
149.2	93
149.3	74
149.4	48
149.5	21
149.6	5
149.7	0
156.7	1
156.8	4
156.9	8
157.0	11
157.1	12
157.2	10
157.3	6
157.4	2
160.7	1
160.8	3
160.9	4
161.0	5
161.1	4
161.2	2
170.5	0
170.6	1
170.7	4
170.8	9
170.9	12
171.0	12
171.1	12
171.2	12
171.3	11
171.4	9
171.5	4
171.6	1
180.7	1
180.8	3
180.9	6
181.0	8
181.1	7
181.2	4
181.3	2
198.5	3
198.6	4
198.7	10
198.8	21
198.9	34
199.0	43
199.1	44
199.2	40
199.3	30
199.4	18
199.5	7
199.6	1
202.5	1
202.6	3
202.7	6
202.8	10
202.9	13
203.0	14
203.1	13
203.2	11
203.3	9
203.4	6
203.5	3
216.7	2
216.8	4
216.9	5
217.0	6
217.1	6
217.2	5
217.3	5
217.4	4
217.5	3
226.5	2
226.6	3
226.7	5
226.8	8
226.9	12
227.0	16
227.1	18
227.2	18
227.3	14
227.4	8
227.5	2
244.3	1
244.4	2
244.5	5
244.6	9
244.7	13
244.8	18
244.9	23
245.0	28
245.1	31
245.2	30
245.3	24
245.4	16
245.5	7
245.6	2
262.6	1
262.7	3
262.8	7
262.9	10
263.0	11
263.1	10
263.2	9
263.3	7
263.4	5
263.5	2
