Mass spectrum: Resistomycin; LC-ESI-QQQ; MS2; Frag=135.0V CID@5.0 ; [M+H]+
Name: Resistomycin
Class: Polycyclic aromatic natural products
Formula: C22H16O6
Exact mass: 376.36922000000004
SMILES: Cc1cc(O)c2c3c4c(cc(O)c13)C(C)(C)C(=O)c1c(O)cc(O)c(c1-4)C2=O
InChI: InChI=1S/C22H16O6/c1-7-4-9(23)15-18-13(7)10(24)5-8-14(18)19-16(20(15)27)11(25)6-12(26)17(19)21(28)22(8,2)3/h4-6,23-26H,1-3H3
Instrument: Agilent 6410 Triple Quadrupole LC/MS system
Instrument type: LC-ESI-QQQ
Ms type: MS2
Ion mode: POSITIVE
Precursor type: [M+H]+
m/z	relative intensity
376.2	1
376.3	2
376.4	6
376.5	10
376.6	18
376.7	29
376.8	46
376.9	66
377.0	85
377.1	97
377.2	99
377.3	91
377.4	72
377.5	43
377.6	15
377.7	0
