Mass spectrum: 9(11)-dehydrohecogenin; LC-ESI-QQQ; MS2; Frag=135.0V CID@15.0; [M+H]+
Name: 9(11)-dehydrohecogenin
Class: Steroids
Formula: C27H40O4
Exact mass: 428.6175
SMILES: CC1CC[C@@]2(OC1)OC1CC3C4CC[C@H]5CC(O)CC[C@]5(C)C4=CC(=O)[C@]3(C)C1[C@@H]2C
InChI: InChI=1S/C27H40O4/c1-15-7-10-27(30-14-15)16(2)24-22(31-27)12-21-19-6-5-17-11-18(28)8-9-25(17,3)20(19)13-23(29)26(21,24)4/h13,15-19,21-22,24,28H,5-12,14H2,1-4H3/t15?,16-,17-,18?,19?,21?,22?,24?,25-,26+,27+/m0/s1
Instrument: Agilent 6410 Triple Quadrupole LC/MS system
Instrument type: LC-ESI-QQQ
Ms type: MS2
Ion mode: POSITIVE
Precursor type: [M+H]+
m/z	relative intensity
124.9	3
125.0	4
125.1	5
125.2	6
125.3	6
125.4	4
125.5	2
164.8	2
164.9	3
165.0	4
165.1	6
165.2	6
165.3	6
165.4	5
165.5	2
180.7	1
180.8	3
180.9	4
181.0	6
181.1	7
181.2	6
181.3	5
181.4	3
182.6	1
182.7	3
182.8	5
182.9	7
183.0	8
183.1	9
183.2	9
183.3	8
183.4	6
183.5	3
228.6	1
228.7	3
228.8	5
228.9	9
229.0	13
229.1	15
229.2	16
229.3	14
229.4	11
229.5	6
229.6	2
266.8	1
266.9	3
267.0	5
267.1	5
267.2	5
267.3	5
267.4	3
267.5	2
278.8	2
278.9	4
279.0	5
279.1	6
279.2	7
279.3	6
279.4	4
279.5	2
284.7	1
284.8	3
284.9	4
285.0	6
285.1	7
285.2	8
285.3	8
285.4	6
285.5	3
296.5	1
296.6	2
296.7	4
296.8	6
296.9	10
297.0	14
297.1	16
297.2	17
297.3	16
297.4	14
297.5	10
297.6	5
297.7	1
314.4	1
314.5	3
314.6	6
314.7	11
314.8	18
314.9	29
315.0	44
315.1	59
315.2	68
315.3	70
315.4	64
315.5	48
315.6	26
315.7	8
315.8	0
392.5	1
392.6	3
392.7	5
392.8	8
392.9	14
393.0	20
393.1	26
393.2	29
393.3	30
393.4	28
393.5	23
393.6	15
393.7	5
393.8	0
410.4	1
410.5	3
410.6	7
410.7	12
410.8	22
410.9	37
411.0	56
411.1	76
411.2	92
411.3	99
411.4	94
411.5	75
411.6	47
411.7	19
411.8	2
428.4	1
428.5	3
428.6	6
428.7	11
428.8	21
428.9	37
429.0	57
429.1	76
429.2	88
429.3	95
429.4	94
429.5	81
429.6	55
429.7	25
429.8	3
