Mass spectrum: Lincomycin; LC-ESI-QQQ; MS2; Frag=135.0V CID@15.0 ; [M+H]+
Name: Lincomycin
Class: Carbohydrates
Formula: C18H34N2O6S
Exact mass: 406.54548000000005
SMILES: CCC[C@H]1C[C@H](C(O)=NC(C(C)O)[C@H]2O[C@H](SC)[C@H](O)[C@@H](O)[C@H]2O)N(C)C1
InChI: InChI=1S/C18H34N2O6S/c1-5-6-10-7-11(20(3)8-10)17(25)19-12(9(2)21)16-14(23)13(22)15(24)18(26-16)27-4/h9-16,18,21-24H,5-8H2,1-4H3,(H,19,25)/t9?,10-,11+,12?,13-,14+,15+,16+,18+/m0/s1
Instrument: Agilent 6410 Triple Quadrupole LC/MS system
Instrument type: LC-ESI-QQQ
Ms type: MS2
Ion mode: POSITIVE
Precursor type: [M+H]+
m/z	relative intensity
125.3	1
125.4	4
125.5	8
125.6	16
125.7	30
125.8	50
125.9	72
126.0	90
126.1	99
126.2	98
126.3	88
126.4	69
126.5	44
126.6	19
126.7	2
358.6	2
358.7	3
358.8	5
358.9	9
359.0	14
359.1	18
359.2	20
359.3	20
359.4	17
359.5	12
359.6	6
359.7	1
406.3	0
406.4	2
406.5	4
406.6	8
406.7	15
406.8	27
406.9	45
407.0	67
407.1	86
407.2	95
407.3	93
407.4	79
407.5	55
407.6	29
407.7	8
407.8	0
