Mass spectrum: Diosgenin; LC-ESI-QQQ; MS2; Frag=135.0V CID@25.0 ; [M+H]+
Name: Diosgenin
Class: Steroids
Formula: C27H42O3
Exact mass: 414.63399000000004
SMILES: CC1C2C(CC3C4CC=C5CC(O)CC[C@]5(C)C4CC[C@@]32C)O[C@]12CC[C@@H](C)CO2
InChI: InChI=1S/C27H42O3/c1-16-7-12-27(29-15-16)17(2)24-23(30-27)14-22-20-6-5-18-13-19(28)8-10-25(18,3)21(20)9-11-26(22,24)4/h5,16-17,19-24,28H,6-15H2,1-4H3/t16-,17?,19?,20?,21?,22?,23?,24?,25+,26+,27-/m1/s1
Instrument: Agilent 6410 Triple Quadrupole LC/MS system
Instrument type: LC-ESI-QQQ
Ms type: MS2
Ion mode: POSITIVE
Precursor type: [M+H]+
m/z	relative intensity
68.4	2
68.5	3
68.6	6
68.7	8
68.8	11
68.9	15
69.0	19
69.1	20
69.2	19
69.3	14
69.4	8
69.5	2
106.6	2
106.7	5
106.8	9
106.9	13
107.0	14
107.1	11
107.2	6
107.3	2
108.6	1
108.7	3
108.8	8
108.9	12
109.0	14
109.1	12
109.2	9
109.3	6
109.4	3
120.5	1
120.6	2
120.7	5
120.8	10
120.9	16
121.0	19
121.1	18
121.2	14
121.3	8
121.4	3
130.8	1
130.9	3
131.0	6
131.1	7
131.2	6
131.3	3
132.5	1
132.6	2
132.7	5
132.8	9
132.9	12
133.0	14
133.1	15
133.2	12
133.3	7
133.4	3
142.6	0
142.7	1
142.8	4
142.9	7
143.0	8
143.1	7
143.2	4
143.3	2
144.4	2
144.5	3
144.6	5
144.7	8
144.8	13
144.9	16
145.0	16
145.1	15
145.2	12
145.3	8
145.4	3
146.3	1
146.4	2
146.5	4
146.6	7
146.7	10
146.8	15
146.9	18
147.0	19
147.1	18
147.2	15
147.3	12
147.4	8
147.5	4
147.6	1
150.8	1
150.9	3
151.0	5
151.1	6
151.2	5
151.3	3
156.5	2
156.6	5
156.7	11
156.8	25
156.9	43
157.0	59
157.1	63
157.2	57
157.3	43
157.4	27
157.5	11
157.6	0
158.5	1
158.6	4
158.7	10
158.8	18
158.9	24
159.0	27
159.1	28
159.2	27
159.3	24
159.4	16
159.5	7
159.6	1
160.8	1
160.9	3
161.0	5
161.1	6
161.2	5
161.3	3
170.5	1
170.6	2
170.7	4
170.8	6
170.9	6
171.0	7
171.1	10
171.2	14
171.3	15
171.4	11
171.5	4
172.6	1
172.7	2
172.8	6
172.9	9
173.0	10
173.1	8
173.2	4
173.3	1
174.6	2
174.7	3
174.8	7
174.9	13
175.0	20
175.1	24
175.2	24
175.3	20
175.4	12
175.5	4
182.7	0
182.8	2
182.9	4
183.0	7
183.1	7
183.2	6
183.3	4
183.4	2
184.8	1
184.9	2
185.0	5
185.1	7
185.2	7
185.3	5
185.4	3
196.6	1
196.7	3
196.8	6
196.9	10
197.0	11
197.1	11
197.2	9
197.3	8
197.4	5
197.5	2
210.7	3
210.8	4
210.9	6
211.0	7
211.1	6
211.2	5
211.3	3
212.9	1
213.0	2
213.1	4
213.2	5
213.3	4
213.4	2
252.2	0
252.3	2
252.4	5
252.5	9
252.6	11
252.7	15
252.8	27
252.9	49
253.0	72
253.1	90
253.2	98
253.3	99
253.4	88
253.5	61
253.6	26
253.7	2
270.3	1
270.4	4
270.5	7
270.6	10
270.7	13
270.8	20
270.9	34
271.0	55
271.1	73
271.2	79
271.3	72
271.4	53
271.5	30
271.6	10
271.7	0
