Mass spectrum: Iso-gamma-fagarine; LC-ESI-QQQ; MS2; Frag=135.0V CID@5.0; [M+H]+
Name: 8-methoxy-9-methyl-9-hydrofurano(2,3-b)quinolin-4-one
Name: 8-methoxy-9-methyl-iso-gamma-fagarine
Name: Iso-gamma-fagarine
Class: Alkaloids
Formula: C13H11NO3
Exact mass: 229.2375
SMILES: COc1cccc2c(=O)c3ccoc3n(C)c12
InChI: InChI=1S/C13H11NO3/c1-14-11-8(4-3-5-10(11)16-2)12(15)9-6-7-17-13(9)14/h3-7H,1-2H3
Instrument: Agilent 6410 Triple Quadrupole LC/MS system
Instrument type: LC-ESI-QQQ
Ms type: MS2
Ion mode: POSITIVE
Precursor type: [M+H]+
m/z	relative intensity
229.2	0
229.3	1
229.4	4
229.5	10
229.6	20
229.7	35
229.8	55
229.9	76
230.0	92
230.1	99
230.2	97
230.3	83
230.4	59
230.5	30
230.6	7
230.7	0
