Mass spectrum: Dubinidine; LC-ESI-QQQ; MS2; Frag=135.0V CID@25.0; [M+H]+
Name: Dubinidine
Class: Alkaloids
Formula: C15H17NO4
Exact mass: 275.307
SMILES: COc1c2c(nc3ccccc13)OC(C(C)(O)CO)C2
InChI: InChI=1S/C15H17NO4/c1-15(18,8-17)12-7-10-13(19-2)9-5-3-4-6-11(9)16-14(10)20-12/h3-6,12,17-18H,7-8H2,1-2H3
Instrument: Agilent 6410 Triple Quadrupole LC/MS system
Instrument type: LC-ESI-QQQ
Ms type: MS2
Ion mode: POSITIVE
Precursor type: [M+H]+
m/z	relative intensity
129.4	2
129.5	3
129.6	5
129.7	10
129.8	17
129.9	22
130.0	25
130.1	26
130.2	24
130.3	20
130.4	14
130.5	7
130.6	1
157.5	2
157.6	4
157.7	7
157.8	12
157.9	17
158.0	19
158.1	20
158.2	19
158.3	17
158.4	12
158.5	6
158.6	1
169.6	2
169.7	3
169.8	6
169.9	8
170.0	10
170.1	11
170.2	11
170.3	9
170.4	6
170.5	3
173.7	2
173.8	3
173.9	5
174.0	6
174.1	7
174.2	6
174.3	6
174.4	4
174.5	2
175.8	2
175.9	3
176.0	5
176.1	6
176.2	6
176.3	5
176.4	3
176.5	2
185.6	2
185.7	4
185.8	6
185.9	9
186.0	11
186.1	12
186.2	11
186.3	9
186.4	6
186.5	2
187.2	0
187.3	2
187.4	5
187.5	9
187.6	18
187.7	33
187.8	52
187.9	72
188.0	87
188.1	94
188.2	93
188.3	81
188.4	59
188.5	32
188.6	9
188.7	0
201.7	2
201.8	4
201.9	7
202.0	9
202.1	10
202.2	10
202.3	8
202.4	6
202.5	3
215.2	0
215.3	2
215.4	4
215.5	8
215.6	14
215.7	26
215.8	45
215.9	67
216.0	87
216.1	99
216.2	99
216.3	88
216.4	66
216.5	37
216.6	12
216.7	0
224.7	1
224.8	3
224.9	4
225.0	5
225.1	5
225.2	5
225.3	4
225.4	3
