Mass spectrum: Ajmaline; LC-ESI-QQQ; MS2; Frag=135.0V CID@25.0 ; [M+H]+
Name: Ajmaline
Class: Alkaloids
Formula: C20H26N2O2
Exact mass: 326.44242
SMILES: CC[C@H]1C2CC3C4N(C)c5ccccc5[C@]45C[C@@H](C2C5O)N3[C@@H]1O
InChI: InChI=1S/C20H26N2O2/c1-3-10-11-8-14-17-20(12-6-4-5-7-13(12)21(17)2)9-15(16(11)18(20)23)22(14)19(10)24/h4-7,10-11,14-19,23-24H,3,8-9H2,1-2H3/t10-,11?,14?,15-,16?,17?,18?,19+,20+/m0/s1
Instrument: Agilent 6410 Triple Quadrupole LC/MS system
Instrument type: LC-ESI-QQQ
Ms type: MS2
Ion mode: POSITIVE
Precursor type: [M+H]+
m/z	relative intensity
157.7	2
157.8	3
157.9	5
158.0	6
158.1	7
158.2	6
158.3	5
158.4	4
158.5	2
326.3	0
326.4	2
326.5	5
326.6	8
326.7	14
326.8	25
326.9	44
327.0	67
327.1	88
327.2	99
327.3	98
327.4	85
327.5	61
327.6	32
327.7	9
327.8	0
