Mass spectrum: Rotenone; LC-ESI-QQQ; MS2; Frag=135.0V CID@10.0; [M+H]+
Name: Rotenone
Class: Flavonoids
Formula: C23H22O6
Exact mass: 394.4282
SMILES: C=C(C)C1Cc2c(ccc3c2OC2COc4cc(OC)c(OC)cc4C2C3=O)O1
InChI: InChI=1S/C23H22O6/c1-11(2)16-8-14-15(28-16)6-5-12-22(24)21-13-7-18(25-3)19(26-4)9-17(13)27-10-20(21)29-23(12)14/h5-7,9,16,20-21H,1,8,10H2,2-4H3
Instrument: Agilent 6410 Triple Quadrupole LC/MS system
Instrument type: LC-ESI-QQQ
Ms type: MS2
Ion mode: POSITIVE
Precursor type: [M+H]+
m/z	relative intensity
191.7	2
191.8	3
191.9	4
192.0	5
192.1	6
192.2	6
192.3	5
192.4	3
212.6	1
212.7	2
212.8	4
212.9	6
213.0	8
213.1	9
213.2	9
213.3	7
213.4	5
213.5	2
394.2	0
394.3	2
394.4	4
394.5	8
394.6	14
394.7	24
394.8	41
394.9	63
395.0	84
395.1	97
395.2	99
395.3	90
395.4	70
395.5	43
395.6	17
395.7	1
