Mass spectrum: Kokanidin; LC-ESI-QQQ; MS2; Frag=135.0V CID@10.0; [M+Na]+
Name: Kokanidin
Class: Benzopyranoids
Formula: C26H34O6
Exact mass: 442.5573
SMILES: CC(=O)OC1CC[C@]2(C)C(CC[C@@](C)(O)[C@H]2COc2ccc3ccc(=O)oc3c2)C1(C)C
InChI: InChI=1S/C26H34O6/c1-16(27)31-22-11-12-25(4)20(24(22,2)3)10-13-26(5,29)21(25)15-30-18-8-6-17-7-9-23(28)32-19(17)14-18/h6-9,14,20-22,29H,10-13,15H2,1-5H3/t20?,21-,22?,25+,26+/m0/s1
Instrument: Agilent 6410 Triple Quadrupole LC/MS system
Instrument type: LC-ESI-QQQ
Ms type: MS2
Ion mode: POSITIVE
Precursor type: [M+Na]+
m/z	relative intensity
464.2	1
464.3	3
464.4	5
464.5	8
464.6	13
464.7	22
464.8	38
464.9	59
465.0	79
465.1	92
465.2	99
465.3	99
465.4	91
465.5	69
465.6	38
465.7	10
465.8	0
