Mass spectrum: Ormosanine; LC-ESI-QQQ; MS2; Frag=135.0V CID@25.0 ; [M+H]+
Name: Ormosanine
Class: Alkaloids
Formula: C20H35N3
Exact mass: 317.52205000000004
SMILES: C1CCC([C@@]23CC(CC4CCCN[C@H]42)[C@@H]2CCCCN2C3)NC1
InChI: InChI=1S/C20H35N3/c1-3-9-21-18(8-1)20-13-16(12-15-6-5-10-22-19(15)20)17-7-2-4-11-23(17)14-20/h15-19,21-22H,1-14H2/t15?,16?,17-,18?,19+,20-/m0/s1
Instrument: Agilent 6410 Triple Quadrupole LC/MS system
Instrument type: LC-ESI-QQQ
Ms type: MS2
Ion mode: POSITIVE
Precursor type: [M+H]+
m/z	relative intensity
97.8	3
97.9	4
98.0	6
98.1	8
98.2	7
98.3	4
98.4	1
317.3	0
317.4	2
317.5	4
317.6	7
317.7	11
317.8	20
317.9	36
318.0	58
318.1	80
318.2	95
318.3	99
318.4	91
318.5	70
318.6	41
318.7	14
318.8	0
