Mass spectrum: 2-dimethylaminoethyl cinnamate; LC-ESI-QQQ; MS2; Frag=135.0V CID@5.0; [M+H]+
Name: 2-dimethylaminoethyl cinnamate
Class: Carbohydrates
Formula: C13H17NO2
Exact mass: 219.2859
SMILES: CN(C)CCOC(=O)/C=C/c1ccccc1
InChI: InChI=1S/C13H17NO2/c1-14(2)10-11-16-13(15)9-8-12-6-4-3-5-7-12/h3-9H,10-11H2,1-2H3/b9-8+
Instrument: Agilent 6410 Triple Quadrupole LC/MS system
Instrument type: LC-ESI-QQQ
Ms type: MS2
Ion mode: POSITIVE
Precursor type: [M+H]+
m/z	relative intensity
71.3	0
71.4	2
71.5	6
71.6	13
71.7	22
71.8	36
71.9	51
72.0	63
72.1	70
72.2	69
72.3	62
72.4	47
72.5	27
72.6	9
72.7	0
89.7	2
89.8	3
89.9	5
90.0	6
90.1	7
90.2	7
90.3	7
90.4	5
90.5	3
130.4	0
130.5	2
130.6	4
130.7	8
130.8	13
130.9	17
131.0	20
131.1	21
131.2	20
131.3	16
131.4	11
131.5	5
131.6	1
174.4	1
174.5	3
174.6	7
174.7	13
174.8	21
174.9	30
175.0	37
175.1	41
175.2	40
175.3	34
175.4	24
175.5	12
175.6	2
219.3	0
219.4	1
219.5	5
219.6	13
219.7	26
219.8	44
219.9	64
220.0	83
220.1	96
220.2	99
220.3	93
220.4	77
220.5	52
220.6	25
220.7	5
220.8	0
