Mass spectrum: 8-Acetylharpagide; LC-ESI-QQQ; MS2;  Frag=135.0V CID@25.0 ; [M+NH4]+
Name: 8-Acetylharpagide
Class: Terpenoids
Formula: C17H26O11
Exact mass: 406.39017
SMILES: CC(=O)O[C@@]1(C)CC(O)C2(O)C=COC(O[C@@H]3O[C@H](CO)[C@@H](O)[C@H](O)[C@H]3O)C21
InChI: InChI=1S/C17H26O11/c1-7(19)28-16(2)5-9(20)17(24)3-4-25-15(13(16)17)27-14-12(23)11(22)10(21)8(6-18)26-14/h3-4,8-15,18,20-24H,5-6H2,1-2H3/t8-,9?,10-,11+,12-,13?,14+,15?,16+,17?/m1/s1
Instrument: Agilent 6410 Triple Quadrupole LC/MS system
Instrument type: LC-ESI-QQQ
Ms type: MS2
Ion mode: POSITIVE
Precursor type: [M+NH4]+
m/z	relative intensity
92.5	2
92.6	4
92.7	8
92.8	14
92.9	19
93.0	21
93.1	19
93.2	15
93.3	10
93.4	5
93.5	1
94.8	2
94.9	3
95.0	4
95.1	5
95.2	4
95.3	2
120.3	1
120.4	3
120.5	6
120.6	10
120.7	14
120.8	15
120.9	17
121.0	19
121.1	20
121.2	18
121.3	13
121.4	8
121.5	3
138.7	2
138.8	3
138.9	5
139.0	7
139.1	8
139.2	6
139.3	3
148.2	1
148.3	2
148.4	5
148.5	9
148.6	16
148.7	26
148.8	42
148.9	64
149.0	84
149.1	91
149.2	79
149.3	53
149.4	25
149.5	6
149.6	0
166.2	0
166.3	1
166.4	5
166.5	11
166.6	23
166.7	40
166.8	60
166.9	81
167.0	96
167.1	99
167.2	89
167.3	66
167.4	36
167.5	11
167.6	0
