Mass spectrum: Dubinine; LC-ESI-QQQ; MS2; Frag=135.0V CID@25.0; [M+H]+
Name: Dubinine
Class: Alkaloids
Formula: C17H19NO5
Exact mass: 317.3447
SMILES: COc1c2c(nc3ccccc13)OC([C@@](C)(O)COC(C)=O)C2
InChI: InChI=1S/C17H19NO5/c1-10(19)22-9-17(2,20)14-8-12-15(21-3)11-6-4-5-7-13(11)18-16(12)23-14/h4-7,14,20H,8-9H2,1-3H3/t14?,17-/m0/s1
Instrument: Agilent 6410 Triple Quadrupole LC/MS system
Instrument type: LC-ESI-QQQ
Ms type: MS2
Ion mode: POSITIVE
Precursor type: [M+H]+
m/z	relative intensity
129.6	1
129.7	2
129.8	4
129.9	6
130.0	7
130.1	7
130.2	7
130.3	6
130.4	4
130.5	2
157.6	1
157.7	3
157.8	5
157.9	7
158.0	8
158.1	9
158.2	9
158.3	7
158.4	5
158.5	3
187.3	0
187.4	3
187.5	7
187.6	13
187.7	23
187.8	38
187.9	55
188.0	70
188.1	78
188.2	76
188.3	66
188.4	48
188.5	27
188.6	8
188.7	0
201.6	1
201.7	3
201.8	5
201.9	8
202.0	10
202.1	11
202.2	11
202.3	9
202.4	6
202.5	3
207.6	1
207.7	2
207.8	4
207.9	6
208.0	7
208.1	8
208.2	8
208.3	7
208.4	5
208.5	2
215.3	0
215.4	2
215.5	6
215.6	14
215.7	26
215.8	44
215.9	65
216.0	85
216.1	98
216.2	99
216.3	88
216.4	65
216.5	36
216.6	11
216.7	0
229.6	1
229.7	3
229.8	5
229.9	8
230.0	11
230.1	12
230.2	13
230.3	12
230.4	9
230.5	6
230.6	2
239.7	1
239.8	3
239.9	4
240.0	5
240.1	6
240.2	6
240.3	6
240.4	4
240.5	2
257.5	1
257.6	2
257.7	5
257.8	8
257.9	13
258.0	16
258.1	19
258.2	19
258.3	18
258.4	13
258.5	8
258.6	2
