Mass spectrum: epicatechin; LC-ESI-QQQ; MS2; Frag=135.0V CID@5.0; [M+H]+
Name: EpCt-pl
Name: ent-Epicatechin
Name: Epicatechol
Name: (+)-3,3',4',5,7-Pentahydroxyflavan
Name: (2S,3S)-(+)-Epicatechin / EpCt-mi
Name: (-)-3,3',4',5,7-Pentahydroxyflavan
Name: (2R,3R)-(-)-Epicatechin
Name: epicatechin
Class: Flavonoids
Formula: C15H14O6
Exact mass: 290.2752
SMILES: Oc1cc(O)c2c(c1)O[C@H](c1ccc(O)c(O)c1)[C@H](O)C2
InChI: InChI=1S/C15H14O6/c16-8-4-11(18)9-6-13(20)15(21-14(9)5-8)7-1-2-10(17)12(19)3-7/h1-5,13,15-20H,6H2/t13-,15-/m1/s1
Instrument: Agilent 6410 Triple Quadrupole LC/MS system
Instrument type: LC-ESI-QQQ
Ms type: MS2
Ion mode: POSITIVE
Precursor type: [M+H]+
m/z	relative intensity
122.3	1
122.4	3
122.5	6
122.6	11
122.7	18
122.8	29
122.9	39
123.0	46
123.1	46
123.2	43
123.3	36
123.4	26
123.5	14
123.6	4
138.1	0
138.2	1
138.3	4
138.4	8
138.5	14
138.6	25
138.7	42
138.8	63
138.9	81
139.0	90
139.1	88
139.2	79
139.3	66
139.4	49
139.5	27
139.6	7
139.7	0
146.7	2
146.8	4
146.9	5
147.0	7
147.1	9
147.2	8
147.3	6
147.4	3
150.7	3
150.8	4
150.9	5
151.0	6
151.1	6
151.2	6
151.3	5
151.4	3
151.5	1
164.3	1
164.4	2
164.5	4
164.6	9
164.7	15
164.8	23
164.9	30
165.0	33
165.1	35
165.2	35
165.3	32
165.4	24
165.5	13
165.6	3
272.7	1
272.8	3
272.9	5
273.0	6
273.1	6
273.2	5
273.3	2
290.2	0
290.3	2
290.4	6
290.5	13
290.6	21
290.7	31
290.8	45
290.9	65
291.0	84
291.1	97
291.2	99
291.3	88
291.4	63
291.5	32
291.6	7
291.7	0
