Mass spectrum: Majdine; LC-ESI-QQQ; MS2; Frag=135.0V CID@15.0 ; [M+H]+
Name: Majdine
Class: Alkaloids
Formula: C23H28N2O6
Exact mass: 428.48941
SMILES: COC(=O)C1=CO[C@@H](C)C2CN3CC[C@]4(C(O)=Nc5c4ccc(OC)c5OC)C3CC12
InChI: InChI=1S/C23H28N2O6/c1-12-14-10-25-8-7-23(18(25)9-13(14)15(11-31-12)21(26)30-4)16-5-6-17(28-2)20(29-3)19(16)24-22(23)27/h5-6,11-14,18H,7-10H2,1-4H3,(H,24,27)/t12-,13?,14?,18?,23+/m0/s1
Instrument: Agilent 6410 Triple Quadrupole LC/MS system
Instrument type: LC-ESI-QQQ
Ms type: MS2
Ion mode: POSITIVE
Precursor type: [M+H]+
m/z	relative intensity
396.6	2
396.7	3
396.8	6
396.9	10
397.0	14
397.1	17
397.2	18
397.3	16
397.4	13
397.5	8
397.6	3
428.3	1
428.4	3
428.5	6
428.6	10
428.7	18
428.8	32
428.9	52
429.0	75
429.1	92
429.2	99
429.3	95
429.4	79
429.5	54
429.6	26
429.7	6
429.8	0
