Mass spectrum: Betulafolienetriol; LC-ESI-QQQ; MS2;  Frag=135.0V CID@15.0 ; [2M+H]+
Name: Betulafolienetriol
Class: Terpenoids
Formula: C30H52O3
Exact mass: 460.74714000000006
SMILES: CC(C)=CCC[C@](C)(O)C1CC[C@]2(C)C1C(O)CC1[C@@]3(C)CC[C@@H](O)C(C)(C)C3CC[C@]12C
InChI: InChI=1S/C30H52O3/c1-19(2)10-9-14-30(8,33)20-11-16-29(7)25(20)21(31)18-23-27(5)15-13-24(32)26(3,4)22(27)12-17-28(23,29)6/h10,20-25,31-33H,9,11-18H2,1-8H3/t20?,21?,22?,23?,24-,25?,27+,28-,29-,30+/m1/s1
Instrument: Agilent 6410 Triple Quadrupole LC/MS system
Instrument type: LC-ESI-QQQ
Ms type: MS2
Ion mode: POSITIVE
Precursor type: [2M+H]+
m/z	relative intensity
205.9	3
206.0	5
206.1	9
206.2	14
206.3	20
206.4	22
206.5	18
206.6	10
206.7	3
424.4	3
424.5	4
424.6	7
424.7	20
424.8	49
424.9	82
425.0	91
425.1	66
425.2	26
425.3	2
