Mass spectrum: Glycyrrhetic acid, Me ester; LC-ESI-QQQ; MS2; Frag=135.0V CID@10.0 ; [M+H]+
Name: Glycyrrhetic acid, Me ester
Class: Terpenoids
Formula: C31H48O4
Exact mass: 484.72581
SMILES: COC(=O)[C@@]1(C)CC[C@]2(C)CC[C@]3(C)C(=CC(=O)C4[C@@]5(C)CCC(O)C(C)(C)C5CC[C@]43C)C2C1
InChI: InChI=1S/C31H48O4/c1-26(2)22-9-12-31(7)24(29(22,5)11-10-23(26)33)21(32)17-19-20-18-28(4,25(34)35-8)14-13-27(20,3)15-16-30(19,31)6/h17,20,22-24,33H,9-16,18H2,1-8H3/t20?,22?,23?,24?,27-,28+,29+,30-,31-/m1/s1
Instrument: Agilent 6410 Triple Quadrupole LC/MS system
Instrument type: LC-ESI-QQQ
Ms type: MS2
Ion mode: POSITIVE
Precursor type: [M+H]+
m/z	relative intensity
484.4	0
484.5	2
484.6	4
484.7	8
484.8	15
484.9	28
485.0	46
485.1	67
485.2	85
485.3	97
485.4	99
485.5	92
485.6	73
485.7	46
485.8	19
485.9	2
