Mass spectrum: Diosgenin; LC-ESI-QQQ; MS2; Frag=135.0V CID@15.0; [M+H]+
Name: Nitogenin
Name: yamogenin
Name: 3beta-Hydroxy-5-spirostene
Name: (25R)-Spirost-5-en-3beta-ol
Name: Diosgenin
Class: Steroids
Formula: C27H42O3
Exact mass: 414.634
SMILES: CC1C2C(CC3C4CC=C5CC(O)CC[C@]5(C)C4CC[C@@]32C)O[C@]12CC[C@@H](C)CO2
InChI: InChI=1S/C27H42O3/c1-16-7-12-27(29-15-16)17(2)24-23(30-27)14-22-20-6-5-18-13-19(28)8-10-25(18,3)21(20)9-11-26(22,24)4/h5,16-17,19-24,28H,6-15H2,1-4H3/t16-,17?,19?,20?,21?,22?,23?,24?,25+,26+,27-/m1/s1
Instrument: Agilent 6410 Triple Quadrupole LC/MS system
Instrument type: LC-ESI-QQQ
Ms type: MS2
Ion mode: POSITIVE
Precursor type: [M+H]+
m/z	relative intensity
252.5	2
252.6	3
252.7	5
252.8	9
252.9	16
253.0	23
253.1	27
253.2	29
253.3	27
253.4	23
253.5	14
253.6	5
253.7	0
270.2	0
270.3	2
270.4	4
270.5	6
270.6	7
270.7	12
270.8	25
270.9	46
271.0	68
271.1	87
271.2	99
271.3	99
271.4	83
271.5	52
271.6	19
271.7	0
414.7	2
414.8	4
414.9	10
415.0	19
415.1	30
415.2	38
415.3	42
415.4	42
415.5	36
415.6	25
415.7	11
415.8	1
