Mass spectrum: Geniposide; LC-ESI-QQQ; MS2; Frag=135.0V CID@5.0; [M+HCOO]-
Name: Geniposide
Class: Terpenoids
Formula: C17H24O10
Exact mass: 388.3748
SMILES: COC(=O)C1=CO[C@@H](OC2O[C@H](CO)[C@@H](O)[C@H](O)[C@H]2O)[C@@H]2C(CO)=CC[C@H]12
InChI: InChI=1S/C17H24O10/c1-24-15(23)9-6-25-16(11-7(4-18)2-3-8(9)11)27-17-14(22)13(21)12(20)10(5-19)26-17/h2,6,8,10-14,16-22H,3-5H2,1H3/t8-,10-,11-,12-,13+,14-,16+,17?/m1/s1
Instrument: Agilent 6410 Triple Quadrupole LC/MS system
Instrument type: LC-ESI-QQQ
Ms type: MS2
Ion mode: NEGATIVE
Precursor type: [M+HCOO]-
m/z	relative intensity
100.3	0
100.4	1
100.5	3
100.6	5
100.7	6
100.8	8
100.9	10
101.0	11
101.1	9
101.2	5
101.3	2
122.3	1
122.4	3
122.5	6
122.6	10
122.7	12
122.8	14
122.9	18
123.0	22
123.1	24
123.2	20
123.3	13
123.4	5
123.5	0
224.3	0
224.4	3
224.5	12
224.6	26
224.7	43
224.8	60
224.9	77
225.0	93
225.1	99
225.2	92
225.3	72
225.4	45
225.5	19
225.6	2
386.9	4
387.0	7
387.1	9
387.2	9
387.3	7
387.4	4
387.5	2
432.4	1
432.5	2
432.6	5
432.7	8
432.8	12
432.9	16
433.0	18
433.1	19
433.2	18
433.3	15
433.4	9
433.5	3
