Mass spectrum: Icariin; LC-ESI-QQQ; MS2; Frag=135.0V CID@25.0; [M+H]+
Name: Icariin
Class: Flavonoids
Formula: C33H40O15
Exact mass: 676.6778
SMILES: COc1ccc(-c2oc3c(CC=C(C)C)c(OC4OC(CO)C(O)C(O)C4O)cc(O)c3c(=O)c2OC2OC(C)C(O)C(O)C2O)cc1
InChI: InChI=1S/C33H40O15/c1-13(2)5-10-17-19(45-33-28(42)26(40)23(37)20(12-34)46-33)11-18(35)21-24(38)31(48-32-27(41)25(39)22(36)14(3)44-32)29(47-30(17)21)15-6-8-16(43-4)9-7-15/h5-9,11,14,20,22-23,25-28,32-37,39-42H,10,12H2,1-4H3
Instrument: Agilent 6410 Triple Quadrupole LC/MS system
Instrument type: LC-ESI-QQQ
Ms type: MS2
Ion mode: POSITIVE
Precursor type: [M+H]+
m/z	relative intensity
368.3	1
368.4	3
368.5	8
368.6	15
368.7	26
368.8	42
368.9	63
369.0	83
369.1	96
369.2	99
369.3	91
369.4	70
369.5	43
369.6	16
369.7	1
530.7	2
530.8	3
530.9	5
531.0	6
531.1	7
531.2	8
531.3	7
531.4	6
531.5	4
531.6	1
