Mass spectrum: Pseudokopsinine; LC-ESI-QQQ; MS2; Frag=135.0V CID@25.0 ; [M+H]+
Name: Pseudokopsinine
Class: Alkaloids
Formula: C21H26N2O2
Exact mass: 338.45357
SMILES: COC(=O)C1C[C@]23CCCN4CCC5(c6ccccc6N[C@@]15C2C)[C@@H]43
InChI: InChI=1S/C21H26N2O2/c1-13-19-8-5-10-23-11-9-20(18(19)23)14-6-3-4-7-16(14)22-21(13,20)15(12-19)17(24)25-2/h3-4,6-7,13,15,18,22H,5,8-12H2,1-2H3/t13?,15?,18-,19+,20?,21-/m0/s1
Instrument: Agilent 6410 Triple Quadrupole LC/MS system
Instrument type: LC-ESI-QQQ
Ms type: MS2
Ion mode: POSITIVE
Precursor type: [M+H]+
m/z	relative intensity
95.5	2
95.6	3
95.7	6
95.8	11
95.9	16
96.0	21
96.1	24
96.2	23
96.3	20
96.4	14
96.5	8
96.6	2
338.4	1
338.5	4
338.6	7
338.7	13
338.8	23
338.9	41
339.0	63
339.1	83
339.2	97
339.3	99
339.4	89
339.5	66
339.6	35
339.7	9
339.8	0
