Mass spectrum: Spirosol-5-en-3-ol; LC-ESI-QQQ; MS2; Frag=135.0V CID@10.0; [M+H]+
Name: Spirosol-5-en-3-ol
Class: Alkaloids
Formula: C27H43NO2
Exact mass: 413.6493
SMILES: CC1CC[C@@]2(NC1)O[C@H]1C[C@H]3[C@@H]4CC=C5CC(O)CC[C@]5(C)C4CC[C@]3(C)[C@H]1[C@@H]2C
InChI: InChI=1S/C27H43NO2/c1-16-7-12-27(28-15-16)17(2)24-23(30-27)14-22-20-6-5-18-13-19(29)8-10-25(18,3)21(20)9-11-26(22,24)4/h5,16-17,19-24,28-29H,6-15H2,1-4H3/t16?,17-,19?,20+,21?,22-,23-,24-,25-,26-,27+/m0/s1
Instrument: Agilent 6410 Triple Quadrupole LC/MS system
Instrument type: LC-ESI-QQQ
Ms type: MS2
Ion mode: POSITIVE
Precursor type: [M+H]+
m/z	relative intensity
413.4	0
413.5	2
413.6	5
413.7	8
413.8	14
413.9	25
414.0	42
414.1	64
414.2	84
414.3	98
414.4	99
414.5	88
414.6	64
414.7	35
414.8	11
414.9	0
