Mass spectrum: Machilin D; LC-ESI-QQQ; MS2; Frag=135.0V CID@10.0; [M+Na]+
Name: Machilin D
Class: Lignans
Formula: C20H24O5
Exact mass: 344.4113
SMILES: C/C=C/c1ccc(OC(C)[C@@H](O)c2ccc(O)c(OC)c2)c(OC)c1
InChI: InChI=1S/C20H24O5/c1-5-6-14-7-10-17(19(11-14)24-4)25-13(2)20(22)15-8-9-16(21)18(12-15)23-3/h5-13,20-22H,1-4H3/b6-5+/t13?,20-/m1/s1
Instrument: Agilent 6410 Triple Quadrupole LC/MS system
Instrument type: LC-ESI-QQQ
Ms type: MS2
Ion mode: POSITIVE
Precursor type: [M+Na]+
m/z	relative intensity
162.8	1
162.9	2
163.0	4
163.1	4
163.2	3
190.7	3
190.8	5
190.9	6
191.0	7
191.1	7
191.2	7
191.3	6
191.4	4
366.2	0
366.3	1
366.4	4
366.5	9
366.6	14
366.7	20
366.8	33
366.9	54
367.0	78
367.1	95
367.2	99
367.3	89
367.4	64
367.5	33
367.6	8
367.7	0
