Mass spectrum: 3',4',6-Trimethoxyflavanone; LC-ESI-QQQ; MS2; Frag=135.0V CID@5.0; [M+H]+
Name: 3',4',6-Trimethoxyflavanone
Class: Flavonoids
Formula: C18H18O5
Exact mass: 314.3412
SMILES: COc1ccc2c(c1)C(=O)CC(c1ccc(OC)c(OC)c1)O2
InChI: InChI=1S/C18H18O5/c1-20-12-5-7-15-13(9-12)14(19)10-17(23-15)11-4-6-16(21-2)18(8-11)22-3/h4-9,17H,10H2,1-3H3
Instrument: Agilent 6410 Triple Quadrupole LC/MS system
Instrument type: LC-ESI-QQQ
Ms type: MS2
Ion mode: POSITIVE
Precursor type: [M+H]+
m/z	relative intensity
190.6	1
190.7	2
190.8	3
190.9	5
191.0	7
191.1	8
191.2	8
191.3	7
191.4	5
191.5	3
314.3	0
314.4	2
314.5	6
314.6	14
314.7	26
314.8	42
314.9	62
315.0	82
315.1	95
315.2	99
315.3	92
315.4	71
315.5	43
315.6	16
315.7	0
