Mass spectrum: Vincadifformine; LC-ESI-QQQ; MS2; Frag=135.0V CID@25.0 ; [M+H]+
Name: Vincadifformine
Class: Alkaloids
Formula: C21H26N2O2
Exact mass: 338.45357
SMILES: CC[C@]12CCCN3CCC4(C(=C(C(=O)OC)C1)Nc1ccccc14)C32
InChI: InChI=1S/C21H26N2O2/c1-3-20-9-6-11-23-12-10-21(19(20)23)15-7-4-5-8-16(15)22-17(21)14(13-20)18(24)25-2/h4-5,7-8,19,22H,3,6,9-13H2,1-2H3/t19?,20-,21?/m0/s1
Instrument: Agilent 6410 Triple Quadrupole LC/MS system
Instrument type: LC-ESI-QQQ
Ms type: MS2
Ion mode: POSITIVE
Precursor type: [M+H]+
m/z	relative intensity
123.5	1
123.6	2
123.7	4
123.8	7
123.9	11
124.0	14
124.1	16
124.2	15
124.3	13
124.4	10
124.5	6
124.6	2
137.5	2
137.6	3
137.7	6
137.8	11
137.9	17
138.0	22
138.1	24
138.2	24
138.3	21
138.4	17
138.5	11
138.6	4
138.7	0
278.7	2
278.8	3
278.9	6
279.0	9
279.1	11
279.2	13
279.3	13
279.4	11
279.5	7
279.6	4
306.3	0
306.4	1
306.5	4
306.6	9
306.7	15
306.8	27
306.9	45
307.0	67
307.1	87
307.2	99
307.3	99
307.4	85
307.5	57
307.6	27
307.7	5
307.8	0
338.7	2
338.8	3
338.9	6
339.0	9
339.1	13
339.2	15
339.3	16
339.4	14
339.5	11
339.6	6
339.7	1
