Mass spectrum: 7-O-acetyldaphnoretin; LC-ESI-QQQ; MS2; Frag=135.0V CID@25.0; [M+H]+
Name: 7-O-acetyldaphnoretin
Class: Benzopyranoids
Formula: C21H14O8
Exact mass: 394.3409
SMILES: COc1cc2cc(Oc3ccc4ccc(=O)oc4c3)c(=O)oc2cc1OC(C)=O
InChI: InChI=1S/C21H14O8/c1-11(22)26-18-10-16-13(7-17(18)25-2)8-19(21(24)29-16)27-14-5-3-12-4-6-20(23)28-15(12)9-14/h3-10H,1-2H3
Instrument: Agilent 6410 Triple Quadrupole LC/MS system
Instrument type: LC-ESI-QQQ
Ms type: MS2
Ion mode: POSITIVE
Precursor type: [M+H]+
m/z	relative intensity
178.3	0
178.4	1
178.5	4
178.6	7
178.7	11
178.8	16
178.9	21
179.0	25
179.1	28
179.2	27
179.3	23
179.4	15
179.5	6
179.6	0
191.7	2
191.8	3
191.9	5
192.0	5
192.1	6
192.2	5
192.3	4
192.4	2
320.7	2
320.8	3
320.9	4
321.0	6
321.1	6
321.2	5
321.3	3
321.4	1
337.5	2
337.6	4
337.7	7
337.8	10
337.9	12
338.0	13
338.1	13
338.2	12
338.3	10
338.4	6
338.5	2
352.2	0
352.3	1
352.4	4
352.5	10
352.6	20
352.7	35
352.8	54
352.9	75
353.0	91
353.1	99
353.2	97
353.3	82
353.4	55
353.5	24
353.6	3
