Mass spectrum: urolithin B; LC-ESI-QQQ; MS2; Frag=135.0V CID@10.0; [M+H]+
Name: urolithin B
Class: Benzopyranoids
Formula: C13H8O3
Exact mass: 212.2069
SMILES: O=c1oc2cc(O)ccc2c2ccccc12
InChI: InChI=1S/C13H8O3/c14-8-5-6-10-9-3-1-2-4-11(9)13(15)16-12(10)7-8/h1-7,14H
Instrument: Agilent 6410 Triple Quadrupole LC/MS system
Instrument type: LC-ESI-QQQ
Ms type: MS2
Ion mode: POSITIVE
Precursor type: [M+H]+
m/z	relative intensity
140.6	2
140.7	3
140.8	5
140.9	7
141.0	9
141.1	10
141.2	10
141.3	9
141.4	7
141.5	3
141.6	1
168.6	1
168.7	3
168.8	5
168.9	7
169.0	9
169.1	9
169.2	9
169.3	8
169.4	6
169.5	4
169.6	1
212.2	0
212.3	1
212.4	4
212.5	11
212.6	21
212.7	35
212.8	54
212.9	75
213.0	92
213.1	99
213.2	97
213.3	84
213.4	61
213.5	33
213.6	10
213.7	0
