Mass spectrum: Glycoperine; LC-ESI-QQQ; MS2; Frag=135.0V CID@10.0; [M+H]+
Name: Glycoperine
Class: Alkaloids
Formula: C19H21NO8
Exact mass: 391.3811
SMILES: COc1c2ccoc2nc2c(OC)c(O[C@H]3O[C@H](C)[C@@H](O)[C@H](O)[C@@H]3O)ccc12
InChI: InChI=1S/C19H21NO8/c1-8-13(21)14(22)15(23)19(27-8)28-11-5-4-9-12(17(11)25-3)20-18-10(6-7-26-18)16(9)24-2/h4-8,13-15,19,21-23H,1-3H3/t8-,13-,14+,15+,19-/m1/s1
Instrument: Agilent 6410 Triple Quadrupole LC/MS system
Instrument type: LC-ESI-QQQ
Ms type: MS2
Ion mode: POSITIVE
Precursor type: [M+H]+
m/z	relative intensity
245.3	1
245.4	4
245.5	8
245.6	17
245.7	31
245.8	51
245.9	73
246.0	92
246.1	99
246.2	93
246.3	75
246.4	48
246.5	21
246.6	3
391.7	2
391.8	3
391.9	5
392.0	7
392.1	8
392.2	9
392.3	8
392.4	6
392.5	3
