Mass spectrum: Foetoside C; LC-ESI-QQQ; MS2; Frag=135.0V CID@15.0; [M+Na]+
Name: Foetoside C
Class: Terpenoids
Formula: C58H94O25
Exact mass: 1191.3809
SMILES: CC1OC(OC2C(OC3CC[C@@]4(C)C(CC[C@]5(C)C4CC=C4C6CC(C)(C)CCC6(C(=O)OC6OC(COC7OC(CO)C(O)C(O)C7O)C(O)C(O)C6O)CC[C@]45C)C3(C)C)OCC(O)C2O)C(O)C(OC2OCC(O)C(O)C2O)C1O
InChI: InChI=1S/C58H94O25/c1-24-34(62)45(81-48-41(69)35(63)27(60)21-74-48)44(72)50(77-24)82-46-36(64)28(61)22-75-51(46)80-33-12-13-55(6)31(54(33,4)5)11-14-57(8)32(55)10-9-25-26-19-53(2,3)15-17-58(26,18-16-56(25,57)7)52(73)83-49-43(71)40(68)38(66)30(79-49)23-76-47-42(70)39(67)37(65)29(20-59)78-47/h9,24,26-51,59-72H,10-23H2,1-8H3/t24?,26?,27?,28?,29?,30?,31?,32?,33?,34?,35?,36?,37?,38?,39?,40?,41?,42?,43?,44?,45?,46?,47?,48?,49?,50?,51?,55-,56+,57+,58?/m0/s1
Instrument: Agilent 6410 Triple Quadrupole LC/MS system
Instrument type: LC-ESI-QQQ
Ms type: MS2
Ion mode: POSITIVE
Precursor type: [M+Na]+
m/z	relative intensity
51.1	7
51.2	8
51.3	9
51.4	10
51.5	9
51.6	9
51.7	9
51.8	9
51.9	10
52.0	10
52.1	10
52.2	10
52.3	10
52.4	10
52.5	9
52.6	9
52.7	10
52.8	12
52.9	12
53.0	12
53.1	11
53.2	9
53.5	8
53.6	9
53.7	10
53.8	11
53.9	10
54.0	10
54.4	8
54.5	10
54.6	11
54.7	12
54.8	12
54.9	10
55.0	8
55.3	6
55.4	7
55.5	8
55.6	10
55.7	10
55.8	11
55.9	11
56.0	11
56.1	10
56.2	10
56.3	11
56.4	11
56.5	11
56.6	10
56.9	7
57.0	8
57.1	10
57.2	11
57.3	12
57.4	11
60.3	7
60.4	8
60.5	9
60.6	10
60.7	10
60.8	9
60.9	9
61.0	9
61.1	9
61.2	9
61.3	10
61.4	10
61.5	11
61.6	10
61.7	10
61.8	10
61.9	12
62.0	12
62.1	12
62.2	11
62.3	11
62.4	11
62.5	10
62.6	10
62.7	10
62.8	10
62.9	10
63.0	10
63.1	10
63.2	10
63.3	11
63.4	12
63.5	13
63.6	11
63.7	10
66.0	9
66.1	10
66.2	11
66.3	10
66.4	10
66.5	9
66.6	10
66.7	11
66.8	12
66.9	12
67.0	13
67.1	12
67.2	12
67.3	11
67.4	11
67.5	11
67.6	11
67.7	10
67.8	10
67.9	10
68.0	10
68.1	10
68.2	10
68.3	11
68.4	12
68.5	12
68.6	12
70.0	7
70.1	8
70.2	9
70.3	10
70.4	11
70.5	12
70.6	12
70.7	11
70.8	10
74.8	8
74.9	10
75.0	11
75.1	11
75.2	10
76.8	8
76.9	10
77.0	12
77.1	14
77.2	14
77.3	13
77.4	11
77.5	9
78.3	10
78.4	11
78.5	13
78.6	13
78.7	13
78.8	12
78.9	10
79.0	8
81.2	10
81.3	11
81.4	11
81.5	12
81.6	12
81.7	12
81.8	11
81.9	10
82.0	8
82.3	7
82.4	9
82.5	10
82.6	12
82.7	12
82.8	11
82.9	11
83.0	11
83.1	12
83.2	11
83.3	10
83.4	9
83.8	8
83.9	10
84.0	12
84.1	13
84.2	13
84.3	11
84.4	9
84.7	7
84.8	9
84.9	11
85.0	11
85.1	11
85.2	10
85.3	10
85.4	11
85.5	12
85.6	12
85.7	11
85.8	10
88.1	6
88.2	8
88.3	9
88.4	10
88.5	10
88.6	10
88.7	10
88.8	10
88.9	10
89.0	10
90.8	9
90.9	10
91.0	11
91.1	13
91.2	13
91.3	12
91.4	9
91.8	8
91.9	9
92.0	10
92.1	11
92.2	11
92.3	10
93.2	9
93.3	10
93.4	12
93.5	12
93.6	11
95.4	9
95.5	10
95.6	11
95.7	11
95.8	11
95.9	11
96.0	11
102.6	9
102.7	10
102.8	11
102.9	11
103.0	11
104.0	6
104.1	7
104.2	8
104.3	8
104.4	9
104.5	9
104.6	8
104.7	8
104.8	7
104.9	8
105.0	8
105.1	9
105.2	9
105.3	10
105.4	10
105.5	10
105.6	10
105.7	10
105.8	9
105.9	8
106.3	6
106.4	7
106.5	9
106.6	10
106.7	11
106.8	11
106.9	10
107.0	9
107.1	10
107.2	10
107.3	10
110.3	9
110.4	10
110.5	10
110.6	12
110.7	12
110.8	12
110.9	10
111.0	8
111.1	6
111.4	5
111.5	6
111.6	8
111.7	8
111.8	8
112.1	7
112.2	8
112.3	10
112.4	11
112.5	10
114.1	6
114.2	7
114.3	9
114.4	10
114.5	10
114.6	8
114.7	6
115.0	5
115.1	7
115.2	9
115.3	11
115.4	12
115.5	12
115.6	12
115.7	11
115.8	9
117.5	6
117.6	8
117.7	9
117.8	10
117.9	11
118.0	10
119.6	7
119.7	8
119.8	9
119.9	9
120.0	9
120.6	7
120.7	8
120.8	10
120.9	10
121.0	10
121.1	9
121.2	9
121.3	8
121.7	7
121.8	9
121.9	10
122.0	11
122.1	11
122.2	10
122.3	9
124.9	8
125.0	9
125.1	10
125.2	10
125.3	9
125.4	9
125.5	8
125.6	8
125.7	8
125.8	8
125.9	9
126.0	9
126.1	10
126.2	10
126.3	10
126.4	9
126.7	8
126.8	9
126.9	11
127.0	11
127.1	11
127.2	10
127.3	8
128.8	8
128.9	9
129.0	9
129.1	10
129.2	10
129.3	10
129.4	9
129.5	8
132.5	8
132.6	9
132.7	10
132.8	10
132.9	10
133.0	8
133.1	6
133.3	4
133.4	6
133.5	8
133.6	10
133.7	11
133.8	11
133.9	10
135.2	6
135.3	7
135.4	8
135.5	8
135.6	8
135.9	6
136.0	8
136.1	10
136.2	11
136.3	11
136.4	10
136.5	9
136.6	7
136.9	4
137.0	6
137.1	7
137.2	9
137.3	10
137.4	10
137.5	10
137.6	9
137.7	9
137.8	8
138.3	7
138.4	8
138.5	9
138.6	9
138.7	8
138.8	7
138.9	7
139.0	7
139.1	7
139.2	7
139.3	7
139.4	8
139.5	7
139.6	7
139.7	7
139.8	7
139.9	7
140.0	8
140.1	8
140.2	9
140.3	9
140.4	8
140.5	8
140.6	9
140.7	10
140.8	10
140.9	11
141.0	11
141.1	11
141.2	10
141.3	9
141.4	8
141.5	7
141.9	6
142.0	7
142.1	8
142.2	9
142.3	10
142.4	9
142.5	8
143.5	8
143.6	10
143.7	11
143.8	11
143.9	10
144.0	9
144.1	8
145.1	6
145.2	8
145.3	10
145.4	12
145.5	12
145.6	11
145.7	10
145.8	9
148.9	7
149.0	8
149.1	8
149.2	9
149.3	9
149.4	8
150.2	8
150.3	9
150.4	10
150.5	10
150.6	8
151.0	8
151.1	8
151.2	9
151.3	9
151.4	10
151.5	10
151.6	10
151.7	9
151.8	9
151.9	8
152.0	6
152.3	5
152.4	7
152.5	9
152.6	10
152.7	11
152.8	11
152.9	10
153.0	9
156.1	8
156.2	9
156.3	9
156.4	10
156.5	10
156.9	9
157.0	10
157.1	11
157.2	11
157.3	10
157.4	9
158.1	8
158.2	9
158.3	10
158.4	10
158.5	11
158.6	10
158.7	9
160.6	7
160.7	9
160.8	10
160.9	11
161.0	12
161.1	11
161.2	10
161.5	7
161.6	9
161.7	10
161.8	11
161.9	10
162.0	10
162.1	10
162.2	9
162.3	9
162.4	8
162.5	8
162.6	9
162.7	10
162.8	11
162.9	11
163.0	10
163.1	10
163.2	11
163.3	11
163.4	11
163.5	9
163.6	8
164.6	8
164.7	9
164.8	11
164.9	13
165.0	13
165.1	11
166.2	6
166.3	7
166.4	9
166.5	10
166.6	12
166.7	12
166.8	11
166.9	10
167.3	9
167.4	10
167.5	11
167.6	12
167.7	12
167.8	12
167.9	11
168.0	10
168.5	9
168.6	10
168.7	11
168.8	11
168.9	12
169.0	11
169.1	10
169.2	9
175.5	7
175.6	8
175.7	10
175.8	11
175.9	11
176.0	10
176.1	10
176.2	10
176.3	10
176.4	9
177.0	8
177.1	9
177.2	11
177.3	11
177.4	11
177.5	9
177.9	7
178.0	9
178.1	10
178.2	11
178.3	12
178.4	12
178.5	11
178.6	10
178.9	9
179.0	10
179.1	11
179.2	12
179.3	12
179.4	12
179.5	11
179.6	10
180.0	8
180.1	9
180.2	10
180.3	11
180.4	11
180.5	11
180.6	10
180.7	9
180.8	8
181.1	7
181.2	8
181.3	9
181.4	10
181.5	10
181.6	10
181.7	10
181.8	11
181.9	12
182.0	12
182.1	11
182.2	11
182.3	12
182.4	13
182.5	13
182.6	12
182.7	11
182.8	11
182.9	10
183.0	10
183.1	9
183.9	9
184.0	10
184.1	10
184.2	11
184.3	12
184.4	12
184.5	11
185.8	10
185.9	11
186.0	12
186.1	13
186.2	14
186.3	14
186.4	13
186.5	12
188.5	9
188.6	10
188.7	10
188.8	11
188.9	12
189.0	13
189.1	12
189.2	11
189.5	9
189.6	10
189.7	11
189.8	11
189.9	10
192.0	8
192.1	9
192.2	10
192.3	12
192.4	14
192.5	15
192.6	15
192.7	14
192.8	11
193.1	8
193.2	9
193.3	11
193.4	11
193.5	11
193.6	10
193.7	9
194.0	8
194.1	9
194.2	11
194.3	12
194.4	12
194.5	12
194.6	10
196.5	10
196.6	11
196.7	12
196.8	12
196.9	12
197.0	12
197.1	12
197.2	11
197.3	11
197.4	10
197.5	10
197.6	10
197.7	10
197.8	10
197.9	10
198.0	10
198.1	11
198.2	11
198.3	11
198.4	10
200.0	9
200.1	11
200.2	12
200.3	12
200.4	12
200.5	11
200.6	10
201.0	8
201.1	10
201.2	11
201.3	12
201.4	12
201.5	11
201.6	11
201.7	11
201.8	11
201.9	11
202.0	11
202.1	10
202.2	10
202.3	10
202.4	10
202.5	11
202.6	13
202.7	14
202.8	14
202.9	14
203.0	12
203.3	9
203.4	11
203.5	12
203.6	14
203.7	14
203.8	15
203.9	15
204.0	13
204.1	11
204.2	9
204.5	8
204.6	9
204.7	11
204.8	12
204.9	12
205.0	11
207.2	9
207.3	10
207.4	12
207.5	14
207.6	15
207.7	14
207.8	13
207.9	11
209.2	9
209.3	10
209.4	11
209.5	12
209.6	12
209.7	12
209.8	13
209.9	13
210.0	13
210.1	13
210.2	12
210.3	11
210.4	9
210.5	8
211.7	2
211.8	3
211.9	5
212.0	8
212.1	10
212.2	10
212.3	9
217.6	7
217.7	9
217.8	10
217.9	11
218.0	12
218.1	12
218.2	11
218.3	10
218.4	9
219.7	4
219.8	5
219.9	7
220.0	8
220.1	9
220.2	9
220.3	9
220.4	8
220.5	8
220.6	8
220.7	8
220.8	8
220.9	9
221.0	11
221.1	11
221.2	11
221.3	10
221.4	10
221.5	10
221.6	9
221.7	9
221.8	8
223.0	8
223.1	9
223.2	10
223.3	11
223.4	11
223.5	11
223.6	10
223.7	10
223.8	9
223.9	8
224.4	7
224.5	9
224.6	10
224.7	11
224.8	11
224.9	10
225.0	9
225.4	8
225.5	9
225.6	10
225.7	11
228.1	9
228.2	10
228.3	12
228.4	12
228.5	11
228.6	9
228.7	7
229.0	6
229.1	7
229.2	8
229.3	9
229.4	10
229.5	11
229.6	11
229.7	9
229.8	7
230.2	7
230.3	7
230.4	8
230.5	9
230.6	11
230.7	12
230.8	12
230.9	12
231.0	11
232.5	6
232.6	7
232.7	9
232.8	11
232.9	11
233.0	11
233.1	10
234.6	6
234.7	7
234.8	8
234.9	9
235.0	9
235.1	8
235.2	7
235.3	7
235.4	8
235.5	9
235.6	9
235.7	9
235.8	9
239.4	5
239.5	6
239.6	7
239.7	8
239.8	8
239.9	8
240.0	8
240.1	8
240.2	9
240.3	8
240.4	8
240.5	8
240.6	8
240.7	8
240.8	8
240.9	9
241.0	10
241.1	11
241.2	11
241.3	11
241.4	11
241.5	10
241.6	9
242.8	6
242.9	8
243.0	9
243.1	10
243.2	10
243.3	10
243.4	10
243.5	9
243.6	8
243.7	7
244.4	5
244.5	6
244.6	8
244.7	9
244.8	8
244.9	8
245.0	9
245.1	10
245.2	10
245.3	9
245.4	9
245.5	9
245.6	10
245.7	11
245.8	12
245.9	11
246.0	9
246.4	7
246.5	8
246.6	8
246.7	9
246.8	10
246.9	11
247.0	12
247.1	11
247.2	9
247.8	8
247.9	9
248.0	9
248.1	10
248.2	9
248.3	9
248.4	8
248.5	8
248.6	9
248.7	10
248.8	11
248.9	11
249.0	10
249.1	9
249.2	8
249.3	7
250.1	6
250.2	7
250.3	9
250.4	10
250.5	10
250.6	8
250.9	6
251.0	8
251.1	8
251.2	8
251.3	8
251.4	9
251.5	9
251.6	9
251.7	9
251.8	9
251.9	8
252.6	7
252.7	8
252.8	9
252.9	11
253.0	12
253.1	11
253.2	9
254.9	6
255.0	7
255.1	8
255.2	9
255.3	9
255.4	9
255.5	9
255.6	9
255.7	9
255.8	9
255.9	9
256.0	9
256.1	9
256.2	9
256.3	10
256.4	10
256.5	9
256.6	8
256.9	7
257.0	9
257.1	11
257.2	12
257.3	11
257.4	10
259.2	8
259.3	10
259.4	11
259.5	11
259.6	11
259.7	9
259.8	8
259.9	7
260.3	6
260.4	8
260.5	10
260.6	12
260.7	13
260.8	12
260.9	11
261.0	9
261.1	7
261.4	6
261.5	7
261.6	9
261.7	10
261.8	10
261.9	10
262.0	9
262.1	9
262.2	9
262.3	9
262.4	9
262.5	9
262.6	9
262.7	8
262.8	8
262.9	9
263.0	10
263.1	11
263.2	11
263.3	11
263.4	12
263.5	11
263.6	11
263.7	9
264.1	7
264.2	8
264.3	9
264.4	9
264.5	9
264.9	8
265.0	9
265.1	10
265.2	10
265.3	10
265.4	11
265.5	11
265.6	10
265.7	9
266.1	8
266.2	9
266.3	10
266.4	11
266.5	11
266.6	12
266.7	12
266.8	11
266.9	10
267.0	8
267.4	7
267.5	8
267.6	9
267.7	11
267.8	11
267.9	11
268.0	10
272.0	6
272.1	7
272.2	9
272.3	9
272.4	9
272.5	9
272.6	9
272.7	8
272.8	8
272.9	8
273.0	8
273.1	8
273.2	8
273.3	8
273.4	7
273.5	7
273.6	8
273.7	8
273.8	8
273.9	8
274.0	8
274.1	7
274.2	6
276.7	8
276.8	8
276.9	9
277.0	11
277.1	12
277.2	13
277.3	13
277.4	12
277.5	10
279.2	7
279.3	9
279.4	10
279.5	10
279.6	9
279.7	9
279.8	8
279.9	9
280.0	9
280.1	11
280.2	11
280.3	11
280.4	9
280.8	7
280.9	8
281.0	8
281.1	9
281.2	10
281.3	10
281.4	10
281.5	10
281.6	10
281.7	9
281.8	9
281.9	10
282.0	11
282.1	12
282.2	12
282.3	11
282.4	11
282.5	11
282.6	11
282.7	10
282.8	10
282.9	10
283.0	10
283.1	10
283.2	11
283.3	11
283.4	12
283.5	12
283.6	10
285.2	9
285.3	10
285.4	10
285.5	11
285.6	11
285.7	10
285.8	9
286.5	9
286.6	10
286.7	11
286.8	11
286.9	11
287.0	11
287.1	10
287.2	10
287.3	10
287.4	10
287.5	10
287.6	10
287.7	11
287.8	11
287.9	11
288.0	11
288.1	11
288.2	11
288.3	11
288.4	10
288.5	10
288.6	9
288.7	8
288.8	7
289.8	8
289.9	9
290.0	10
290.1	11
290.2	10
290.3	10
290.4	9
290.5	10
290.6	10
290.7	11
290.8	10
290.9	10
291.0	10
291.1	9
291.2	9
291.3	8
291.4	8
291.5	8
291.6	8
291.7	7
291.8	7
291.9	7
292.0	8
292.1	11
292.2	12
292.3	13
292.4	12
292.5	11
296.4	6
296.5	7
296.6	9
296.7	10
296.8	12
296.9	13
297.0	13
297.1	12
297.2	10
297.8	9
297.9	10
298.0	12
298.1	12
298.2	11
298.3	8
298.7	7
298.8	8
298.9	8
299.0	9
299.1	10
299.2	11
299.3	11
299.4	11
299.5	9
300.2	9
300.3	10
300.4	11
300.5	12
300.6	12
300.7	11
300.8	9
301.2	8
301.3	9
301.4	10
301.5	11
301.6	13
301.7	13
301.8	12
303.6	9
303.7	10
303.8	11
303.9	11
304.0	11
304.1	9
304.5	9
304.6	10
304.7	10
304.8	11
304.9	12
305.0	12
305.1	12
305.2	12
305.3	11
306.4	9
306.5	10
306.6	11
306.7	12
306.8	11
306.9	11
307.0	11
307.1	11
307.2	12
307.3	12
307.4	11
307.5	10
307.9	9
308.0	10
308.1	11
308.2	12
308.3	11
308.4	10
309.0	10
309.1	10
309.2	11
309.3	12
309.4	13
309.5	12
309.6	11
310.8	10
310.9	11
311.0	12
311.1	13
311.2	13
311.3	12
311.4	11
311.5	9
312.8	9
312.9	10
313.0	11
313.1	12
313.2	11
313.3	9
313.4	8
313.5	6
313.9	5
314.0	7
314.1	9
314.2	10
314.3	11
314.4	11
314.5	10
314.6	9
319.9	8
320.0	10
320.1	12
320.2	12
320.3	11
320.4	10
320.5	9
320.8	7
320.9	9
321.0	10
321.1	10
321.2	10
321.3	10
321.4	10
321.5	9
321.6	9
321.7	10
321.8	10
321.9	10
322.0	10
322.1	11
322.2	11
322.3	11
322.4	10
324.2	8
324.3	10
324.4	13
324.5	14
324.6	13
324.7	10
324.8	8
325.2	8
325.3	9
325.4	10
325.5	12
325.6	13
325.7	13
325.8	12
325.9	11
326.0	9
326.3	8
326.4	10
326.5	10
326.6	11
326.7	11
326.8	11
326.9	12
327.0	12
327.1	12
327.2	11
327.3	9
327.4	8
327.8	8
327.9	8
328.0	9
328.1	11
328.2	13
328.3	13
328.4	12
328.5	9
328.9	7
329.0	8
329.1	9
329.2	10
329.3	10
329.4	9
329.5	9
329.6	9
329.7	9
329.8	8
329.9	7
330.0	7
330.1	9
330.2	11
330.3	12
330.4	11
330.5	10
330.6	9
331.0	8
331.1	9
331.2	10
331.3	10
331.4	10
331.5	9
331.6	9
331.7	9
331.8	9
332.2	7
332.3	8
332.4	9
332.5	10
332.6	11
332.7	11
332.8	11
332.9	10
337.4	8
337.5	8
337.6	10
337.7	11
337.8	11
339.0	7
339.1	8
339.2	10
339.3	10
339.4	9
340.7	7
340.8	8
340.9	10
341.0	11
341.1	12
341.2	12
341.3	12
341.4	10
342.6	6
342.7	7
342.8	8
342.9	9
343.0	9
343.1	10
343.2	10
343.3	11
343.4	12
343.5	13
343.6	12
343.7	11
343.8	9
344.1	8
344.2	9
344.3	10
344.4	11
344.5	11
344.6	10
344.7	9
345.2	8
345.3	9
345.4	10
345.5	11
345.6	11
345.7	10
345.8	9
345.9	8
346.0	7
346.3	6
346.4	7
346.5	9
346.6	11
346.7	12
346.8	12
346.9	11
347.0	11
347.1	9
349.6	7
349.7	8
349.8	8
349.9	9
350.0	11
350.1	12
350.2	12
350.3	12
350.4	10
350.5	9
351.9	5
352.0	6
352.1	8
352.2	9
352.3	10
352.4	10
352.5	10
352.6	10
352.7	9
352.8	9
352.9	9
353.0	9
353.1	9
353.2	9
353.3	8
353.4	8
353.5	8
353.6	9
353.7	10
353.8	10
353.9	9
354.0	8
354.5	7
354.6	8
354.7	9
354.8	9
354.9	8
355.8	7
355.9	9
356.0	10
356.1	11
356.2	10
356.3	9
356.4	8
356.8	6
356.9	8
357.0	9
357.1	10
357.2	10
357.3	11
357.4	11
357.5	12
357.6	12
357.7	11
357.8	10
357.9	9
358.0	8
364.1	6
364.2	7
364.3	9
364.4	9
364.5	8
364.6	7
365.0	6
365.1	7
365.2	9
365.3	10
365.4	11
365.5	10
365.6	9
370.0	8
370.1	9
370.2	10
370.3	10
370.4	10
370.5	9
370.6	7
370.9	4
371.0	6
371.1	8
371.2	10
371.3	10
371.4	9
371.5	8
371.8	7
371.9	8
372.0	10
372.1	11
372.2	11
372.3	10
374.5	6
374.6	7
374.7	8
374.8	9
374.9	9
375.0	9
375.1	9
375.2	8
375.3	8
375.4	8
375.5	8
375.6	9
375.7	9
375.8	9
375.9	10
376.0	10
379.2	8
379.3	9
379.4	10
379.5	10
379.6	10
379.7	9
379.8	7
380.1	5
380.2	7
380.3	8
380.4	10
380.5	11
380.6	11
380.7	11
380.8	10
380.9	9
381.4	7
381.5	9
381.6	10
381.7	11
381.8	11
381.9	10
382.0	9
382.1	9
382.2	10
382.3	11
382.4	11
382.5	11
382.6	10
382.7	9
382.8	7
384.9	7
385.0	9
385.1	11
385.2	11
385.3	10
385.4	9
385.5	8
385.8	7
385.9	8
386.0	9
386.1	10
386.2	10
386.3	11
386.4	11
386.5	11
386.6	11
386.7	10
386.8	9
387.2	8
387.3	9
387.4	10
387.5	12
387.6	12
387.7	11
387.8	9
387.9	6
388.3	5
388.4	6
388.5	8
388.6	9
388.7	10
388.8	10
388.9	10
389.0	9
389.4	8
389.5	9
389.6	10
389.7	11
389.8	12
389.9	12
390.0	12
390.1	11
390.2	9
392.8	8
392.9	9
393.0	10
393.1	10
393.2	10
393.3	10
393.4	10
393.5	10
393.6	9
393.7	9
393.8	8
394.2	7
394.3	9
394.4	9
394.5	10
394.6	10
394.7	10
394.8	10
394.9	10
395.0	11
395.1	12
395.2	13
395.3	12
398.7	9
398.8	10
398.9	11
399.0	11
399.1	10
399.2	10
399.3	10
399.4	10
399.5	10
399.6	10
399.7	10
399.8	10
399.9	10
400.0	10
400.1	9
400.2	10
400.3	11
400.4	12
400.5	13
400.6	13
400.7	12
400.8	11
401.2	9
401.3	10
401.4	11
401.5	11
401.6	11
402.0	10
402.1	11
402.2	12
402.3	12
402.4	11
402.5	11
402.6	11
402.7	11
404.8	10
404.9	11
405.0	12
405.1	13
405.2	12
405.3	11
409.1	10
409.2	12
409.3	13
409.4	13
409.5	11
409.6	9
409.9	8
410.0	9
410.1	10
410.2	11
410.3	11
410.4	11
410.5	11
410.6	10
410.7	11
410.8	12
410.9	12
411.0	12
411.1	11
411.2	10
411.3	9
411.7	8
411.8	10
411.9	11
412.0	12
412.1	11
412.2	10
412.3	8
412.6	7
412.7	8
412.8	9
412.9	9
413.0	9
413.1	10
413.2	10
413.3	9
413.4	9
413.5	9
413.6	9
413.7	9
413.8	8
413.9	8
414.0	8
414.1	9
414.2	10
414.3	10
414.4	10
414.5	10
414.6	9
414.7	9
414.8	9
414.9	8
415.0	8
415.1	8
415.2	10
415.3	12
415.4	14
415.5	14
415.6	12
415.7	10
416.1	9
416.2	10
416.3	11
416.4	12
416.5	12
416.6	12
416.7	12
416.8	12
416.9	11
419.5	9
419.6	9
419.7	11
419.8	12
419.9	12
420.0	11
420.1	11
420.2	11
420.3	10
420.4	8
420.8	7
420.9	9
421.0	11
421.1	12
421.2	12
421.3	11
421.4	12
421.5	13
421.6	13
421.7	13
421.8	11
421.9	9
422.3	9
422.4	10
422.5	11
422.6	12
422.7	13
422.8	12
426.8	9
426.9	10
427.0	12
427.1	13
427.2	12
427.3	11
427.4	10
427.7	8
427.8	10
427.9	12
428.0	14
428.1	15
428.2	16
428.3	15
428.4	13
428.5	10
428.8	8
428.9	9
429.0	11
429.1	12
429.2	12
429.3	12
429.4	12
429.5	11
429.6	10
429.7	10
429.8	9
429.9	8
430.2	6
430.3	8
430.4	9
430.5	10
430.6	10
430.7	9
430.8	9
430.9	9
431.0	10
431.1	9
431.2	9
431.3	9
431.4	9
431.5	9
431.6	9
431.7	9
431.8	10
431.9	10
432.0	11
432.1	10
432.2	10
432.3	10
432.4	10
432.5	10
432.6	10
432.7	10
432.8	10
432.9	10
433.0	10
433.1	9
434.4	8
434.5	9
434.6	10
434.7	10
434.8	10
434.9	10
435.0	11
435.1	12
435.2	13
435.3	13
435.4	13
435.5	12
436.3	9
436.4	10
436.5	12
436.6	12
436.7	11
436.8	9
437.1	6
437.2	7
437.3	8
437.4	8
437.5	9
437.6	9
437.7	10
437.8	10
437.9	10
438.0	10
438.1	10
438.2	10
438.3	10
438.4	10
438.5	9
438.6	8
439.5	8
439.6	8
439.7	10
439.8	11
439.9	11
440.0	10
441.7	8
441.8	9
441.9	10
442.0	11
442.1	10
442.5	9
442.6	10
442.7	11
442.8	11
442.9	12
443.0	12
443.1	11
443.2	10
443.3	10
443.4	9
443.5	9
443.6	8
444.1	7
444.2	8
444.3	9
444.4	10
444.5	10
444.6	10
444.7	9
444.8	9
444.9	9
445.0	10
445.1	10
445.2	11
445.3	11
445.4	10
448.7	8
448.8	9
448.9	9
449.0	10
449.1	9
449.2	8
449.5	4
449.6	6
449.7	8
449.8	9
449.9	9
450.0	9
450.1	9
450.2	11
450.3	12
450.4	12
450.5	10
450.6	8
450.9	7
451.0	8
451.1	9
451.2	10
451.3	11
451.4	12
451.5	11
451.6	10
451.7	9
452.1	8
452.2	9
452.3	10
452.4	10
452.5	10
452.6	10
455.4	7
455.5	8
455.6	9
455.7	11
455.8	11
455.9	12
456.0	11
456.1	10
456.2	9
456.7	7
456.8	9
456.9	10
457.0	12
457.1	12
457.2	11
457.3	10
457.4	9
458.8	7
458.9	9
459.0	10
459.1	10
459.2	9
460.3	6
460.4	7
460.5	8
460.6	8
460.7	9
460.8	10
460.9	9
461.0	7
463.9	6
464.0	7
464.1	8
464.2	8
464.3	8
464.4	8
464.5	8
464.6	8
464.7	8
464.8	7
464.9	7
465.0	7
465.1	8
465.2	10
465.3	11
465.4	10
465.5	10
465.6	9
465.7	9
465.8	10
465.9	10
466.0	9
467.0	7
467.1	8
467.2	9
467.3	10
467.4	10
467.5	10
469.6	7
469.7	8
469.8	9
469.9	10
470.0	9
470.1	9
470.2	8
470.3	9
470.4	10
470.5	11
470.6	10
470.7	10
470.8	9
470.9	8
471.2	7
471.3	9
471.4	9
471.5	10
471.6	9
471.7	9
471.8	9
471.9	9
472.0	8
472.1	7
472.6	6
472.7	7
472.8	8
472.9	10
473.0	11
473.1	11
473.2	11
473.3	11
473.4	11
473.5	10
473.6	9
473.7	8
475.3	7
475.4	8
475.5	9
475.6	10
475.7	10
475.8	11
475.9	10
476.0	10
476.1	9
476.2	9
476.3	9
476.4	9
476.5	9
476.6	10
476.7	9
476.8	9
476.9	9
477.0	9
477.1	10
477.2	10
477.3	10
477.4	9
477.5	7
478.6	8
478.7	9
478.8	10
478.9	11
479.0	10
479.1	10
479.2	9
479.3	9
479.4	10
479.5	10
479.6	10
479.7	9
479.8	7
480.0	5
480.1	6
480.2	9
480.3	11
480.4	13
480.5	13
480.6	11
481.7	7
481.8	9
481.9	10
482.0	11
482.1	11
482.2	10
483.8	7
483.9	7
484.0	8
484.1	9
484.2	10
484.3	11
484.4	10
484.5	10
484.6	10
484.7	10
484.8	10
484.9	10
485.0	10
485.1	9
485.2	9
485.3	9
485.4	9
485.5	9
485.6	9
485.7	8
485.8	8
485.9	8
486.0	8
486.1	10
486.2	10
486.3	10
486.4	11
486.5	11
486.6	10
486.7	8
487.0	7
487.1	8
487.2	10
487.3	11
487.4	11
487.5	11
487.6	10
487.7	9
487.8	9
490.2	7
490.3	8
490.4	10
490.5	10
490.6	10
490.7	9
490.8	9
490.9	9
491.0	9
491.1	10
491.2	10
491.3	9
491.4	9
491.5	8
491.6	8
491.7	9
491.8	10
491.9	9
492.0	9
492.1	9
492.2	8
492.3	8
492.4	8
492.5	8
492.6	9
492.7	11
492.8	13
492.9	13
493.0	12
493.1	10
493.2	7
494.2	6
494.3	7
494.4	8
494.5	10
494.6	11
494.7	11
494.8	10
498.6	8
498.7	9
498.8	10
498.9	10
499.0	10
502.8	8
502.9	8
503.0	9
503.1	10
503.2	11
503.3	10
503.4	10
503.5	10
503.6	11
503.7	11
503.8	10
504.6	10
504.7	11
504.8	11
504.9	11
505.0	11
505.1	11
505.2	11
505.3	10
505.7	8
505.8	9
505.9	11
506.0	11
506.1	11
506.2	11
506.6	9
506.7	10
506.8	11
506.9	13
507.0	14
507.1	14
507.2	13
507.3	11
510.3	7
510.4	8
510.5	9
510.6	10
510.7	9
510.8	9
510.9	8
511.0	8
511.1	9
511.2	9
511.3	10
511.4	9
511.5	8
511.8	7
511.9	9
512.0	10
512.1	11
512.2	10
512.8	9
512.9	10
513.0	11
513.1	12
513.2	13
513.3	12
513.4	11
513.5	9
513.6	7
513.9	5
514.0	6
514.1	8
514.2	9
514.3	10
514.4	10
514.5	9
514.8	6
514.9	7
515.0	9
515.1	11
515.2	13
515.3	13
515.4	13
515.5	12
515.6	10
516.4	9
516.5	9
516.6	10
516.7	11
516.8	10
516.9	9
517.2	8
517.3	9
517.4	10
517.5	11
517.6	12
517.7	12
520.7	8
520.8	9
520.9	11
521.0	12
521.1	13
521.2	13
521.3	13
521.4	13
521.5	12
521.6	11
521.7	9
522.0	7
522.1	9
522.2	11
522.3	13
522.4	12
522.5	10
522.6	8
525.8	8
525.9	9
526.0	10
526.1	11
526.2	12
526.3	11
527.4	8
527.5	10
527.6	11
527.7	11
527.8	11
527.9	10
529.9	9
530.0	11
530.1	12
530.2	12
530.3	12
530.4	11
530.5	10
532.3	10
532.4	11
532.5	12
532.6	13
532.7	12
532.8	10
534.7	8
534.8	9
534.9	10
535.0	10
535.1	11
535.2	11
535.3	11
535.4	11
535.5	11
535.6	11
535.7	10
535.8	10
535.9	10
536.0	10
536.1	10
536.2	10
536.3	10
536.4	9
536.5	9
536.6	9
536.7	9
536.8	9
536.9	10
537.0	11
537.1	12
537.2	12
537.3	11
537.4	9
537.8	7
537.9	9
538.0	10
538.1	12
538.2	12
538.3	11
538.4	9
540.3	6
540.4	8
540.5	10
540.6	12
540.7	12
540.8	12
540.9	12
541.0	11
541.1	10
541.2	9
541.5	8
541.6	10
541.7	12
541.8	12
541.9	12
542.0	12
542.1	12
542.2	12
542.3	12
542.4	11
542.5	10
542.6	8
542.9	7
543.0	9
543.1	9
543.2	9
543.3	9
543.4	8
543.5	8
543.6	9
543.7	10
543.8	11
543.9	11
544.0	10
544.1	10
544.2	10
544.3	10
544.4	11
544.5	12
544.6	12
545.4	8
545.5	10
545.6	11
545.7	12
545.8	11
545.9	9
546.2	7
546.3	8
546.4	9
546.5	10
546.6	11
546.7	11
546.8	11
546.9	10
547.2	8
547.3	10
547.4	12
547.5	13
547.6	13
547.7	12
547.8	11
547.9	10
549.6	8
549.7	9
549.8	10
549.9	11
550.0	12
550.1	12
550.2	11
551.3	8
551.4	9
551.5	10
551.6	10
551.7	10
551.8	8
552.1	6
552.2	8
552.3	9
552.4	9
552.5	9
552.6	9
552.7	9
552.8	9
552.9	8
553.0	8
553.1	7
553.2	7
553.3	7
553.4	7
553.5	7
553.6	7
553.7	7
553.8	8
553.9	8
554.0	8
554.1	8
554.5	6
554.6	8
554.7	11
554.8	12
554.9	13
555.0	12
555.1	10
555.2	9
555.3	7
555.7	7
555.8	8
555.9	9
556.0	10
556.1	10
556.2	10
556.3	10
556.4	10
556.5	10
556.6	10
556.7	9
557.8	7
557.9	8
558.0	9
558.1	10
558.2	10
558.3	10
558.4	9
558.5	9
558.6	9
558.7	8
558.8	8
558.9	8
559.0	8
559.1	8
559.2	9
559.3	10
559.4	10
559.5	9
559.6	8
559.9	7
560.0	9
560.1	11
560.2	11
560.3	11
560.4	10
561.5	9
561.6	11
561.7	12
561.8	13
561.9	12
565.1	9
565.2	10
565.3	12
565.4	12
565.5	11
565.6	10
565.7	9
566.1	7
566.2	8
566.3	10
566.4	11
566.5	10
566.6	10
566.7	9
566.8	9
566.9	10
567.0	10
567.1	9
567.2	8
567.3	8
567.4	8
567.5	10
567.6	11
567.7	11
567.8	10
567.9	10
568.0	10
568.1	11
568.2	12
568.3	12
568.4	11
569.5	8
569.6	9
569.7	9
569.8	10
569.9	10
570.0	11
570.1	11
570.2	10
570.3	8
570.6	7
570.7	9
570.8	11
570.9	11
571.0	11
571.1	11
571.2	11
571.3	11
571.4	10
571.5	9
572.0	8
572.1	9
572.2	10
572.3	11
572.4	11
572.5	10
572.6	9
572.7	8
573.0	5
573.1	7
573.2	9
573.3	12
573.4	12
573.5	11
573.6	8
573.9	7
574.0	8
574.1	9
574.2	9
574.3	9
574.4	9
574.5	8
574.6	8
574.7	7
574.8	7
574.9	8
575.0	8
575.1	8
575.2	8
575.3	9
575.4	9
575.5	9
575.6	9
575.7	10
575.8	11
575.9	12
576.0	12
576.1	11
576.2	10
577.9	6
578.0	7
578.1	9
578.2	10
578.3	10
578.4	9
578.5	9
578.6	8
578.7	8
578.8	8
578.9	8
579.0	8
579.1	7
579.2	7
579.3	6
579.4	6
579.5	6
579.6	7
579.7	8
579.8	8
579.9	9
580.0	9
580.1	9
580.2	10
580.3	9
580.4	9
580.5	9
584.1	7
584.2	8
584.3	9
584.4	9
584.5	9
584.6	9
584.9	7
585.0	8
585.1	10
585.2	11
585.3	11
585.4	11
585.5	10
585.6	10
586.1	9
586.2	10
586.3	11
586.4	11
586.5	10
586.6	9
587.0	7
587.1	8
587.2	9
587.3	10
587.4	10
587.5	9
587.9	7
588.0	8
588.1	9
588.2	9
588.3	9
588.4	8
588.5	8
588.9	7
589.0	8
589.1	10
589.2	10
589.3	9
590.1	6
590.2	7
590.3	8
590.4	9
590.5	10
590.6	11
590.7	11
590.8	10
590.9	8
591.0	6
591.3	5
591.4	7
591.5	8
591.6	9
591.7	9
591.8	8
591.9	8
592.0	8
592.1	8
592.2	9
592.3	8
592.4	7
595.2	7
595.3	8
595.4	9
595.5	10
595.6	10
595.7	10
595.8	9
595.9	7
596.2	7
596.3	8
596.4	10
596.5	12
596.6	13
596.7	12
596.8	10
596.9	9
597.2	7
597.3	8
597.4	9
597.5	10
597.6	10
597.7	10
597.8	9
597.9	9
598.0	8
598.1	6
599.5	6
599.6	7
599.7	8
599.8	9
599.9	9
600.0	9
600.1	10
600.2	10
600.3	11
600.4	11
600.5	11
600.6	10
600.7	9
600.8	8
601.1	7
601.2	8
601.3	9
601.4	9
601.5	9
601.6	9
602.1	8
602.2	9
602.3	10
602.4	11
602.5	11
602.6	10
602.7	9
602.8	7
603.1	5
603.2	7
603.3	9
603.4	10
603.5	10
603.6	10
603.7	10
603.8	10
603.9	9
604.0	8
604.7	9
604.8	10
604.9	11
605.0	12
605.1	12
605.2	11
605.3	10
605.4	9
607.9	6
608.0	7
608.1	8
608.2	9
608.3	9
608.4	9
608.5	9
608.6	9
608.7	9
608.8	7
609.1	6
609.2	7
609.3	8
609.4	10
609.5	11
609.6	10
609.7	9
609.8	7
610.1	6
610.2	7
610.3	8
610.4	8
610.5	8
610.6	9
610.7	9
610.8	8
610.9	8
611.0	8
611.1	7
611.2	7
611.3	8
611.4	8
611.5	8
611.6	8
611.7	9
611.8	9
611.9	10
612.0	11
612.1	10
612.2	8
612.3	7
612.7	6
612.8	7
612.9	10
613.0	11
613.1	11
613.2	10
614.6	7
614.7	8
614.8	8
614.9	9
615.0	9
615.1	9
615.2	9
615.3	9
615.4	10
615.5	10
615.6	9
615.7	9
615.8	9
615.9	9
616.0	9
616.1	9
616.2	9
616.3	10
616.4	11
616.5	13
616.6	14
616.7	14
616.8	13
616.9	11
617.0	8
619.8	8
619.9	9
620.0	10
620.1	11
620.2	12
620.3	12
620.4	12
620.5	12
620.6	11
620.7	12
620.8	12
620.9	13
621.0	12
621.1	12
621.2	10
624.2	5
624.3	6
624.4	8
624.5	10
624.6	12
624.7	14
624.8	15
624.9	15
625.0	14
625.1	12
625.2	10
625.3	9
626.1	9
626.2	10
626.3	11
626.4	14
626.5	16
626.6	16
626.7	13
626.8	11
627.1	10
627.2	11
627.3	12
627.4	12
627.5	11
627.6	10
628.0	8
628.1	9
628.2	11
628.3	12
628.4	12
628.5	11
628.6	10
628.7	9
628.8	8
629.2	7
629.3	8
629.4	9
629.5	10
629.6	11
629.7	11
629.8	11
629.9	11
630.0	11
630.1	11
630.2	11
630.3	11
630.4	11
630.5	11
630.6	10
633.4	8
633.5	9
633.6	10
633.7	12
633.8	12
633.9	12
634.0	11
634.1	10
634.2	8
634.3	6
634.6	5
634.7	7
634.8	10
634.9	12
635.0	13
635.1	13
635.2	12
635.3	12
635.4	11
635.5	10
636.0	9
636.1	10
636.2	11
636.3	11
636.4	10
636.5	9
636.6	9
636.7	10
636.8	11
636.9	11
637.0	11
638.3	8
638.4	10
638.5	11
638.6	12
638.7	12
638.8	11
638.9	10
639.3	9
639.4	10
639.5	10
639.6	11
639.7	11
639.8	11
639.9	11
640.0	10
640.4	9
640.5	10
640.6	11
640.7	11
640.8	11
640.9	10
641.0	11
641.1	11
641.2	12
641.3	11
641.7	10
641.8	11
641.9	12
642.0	12
642.1	13
642.2	13
642.3	12
642.4	11
644.2	10
644.3	11
644.4	13
644.5	13
644.6	14
644.7	13
644.8	12
644.9	10
646.3	8
646.4	10
646.5	11
646.6	12
646.7	13
646.8	12
646.9	12
647.0	11
649.7	9
649.8	10
649.9	11
650.0	12
650.1	10
652.5	7
652.6	8
652.7	10
652.8	12
652.9	13
653.0	12
653.1	11
653.2	10
653.3	8
653.7	6
653.8	8
653.9	9
654.0	10
654.1	10
654.6	8
654.7	9
654.8	10
654.9	10
655.0	12
655.1	13
655.2	13
655.3	12
655.4	11
655.5	10
655.9	9
656.0	10
656.1	12
656.2	12
656.3	11
656.4	9
656.7	7
656.8	8
656.9	10
657.0	11
657.1	12
657.2	13
657.3	12
657.4	11
657.5	10
659.1	8
659.2	9
659.3	10
659.4	11
659.5	11
659.6	11
659.7	10
660.0	7
660.1	9
660.2	10
660.3	12
660.4	13
660.5	13
660.6	12
660.7	12
660.8	11
660.9	12
661.0	13
661.1	13
661.2	13
661.3	12
661.4	11
661.8	10
661.9	11
662.0	12
662.1	12
662.2	13
662.3	13
662.4	13
662.5	12
662.6	11
664.6	7
664.7	9
664.8	10
664.9	10
665.0	10
665.1	9
665.2	9
665.3	10
665.4	11
665.5	11
665.6	10
665.7	10
665.8	10
665.9	10
666.0	11
666.1	11
666.2	10
667.3	8
667.4	10
667.5	11
667.6	12
667.7	12
667.8	12
667.9	11
669.3	7
669.4	8
669.5	10
669.6	10
669.7	9
670.0	8
670.1	9
670.2	11
670.3	10
673.2	5
673.3	6
673.4	7
673.5	8
673.6	10
673.7	11
673.8	11
673.9	9
674.0	7
674.4	6
674.5	8
674.6	9
674.7	10
674.8	10
674.9	10
675.0	10
675.1	10
675.2	10
675.6	8
675.7	10
675.8	11
675.9	11
676.0	11
676.1	9
676.2	8
676.5	7
676.6	8
676.7	9
676.8	10
676.9	11
677.0	12
677.1	12
677.2	11
677.3	10
682.1	8
682.2	9
682.3	10
682.4	10
682.5	10
682.6	9
682.9	7
683.0	8
683.1	10
683.2	10
683.3	9
684.9	5
685.0	7
685.1	10
685.2	11
685.3	12
685.4	11
685.5	9
685.9	9
686.0	10
686.1	11
686.2	11
686.3	11
686.4	10
686.5	10
686.6	10
686.7	9
688.5	8
688.6	9
688.7	10
688.8	11
688.9	11
689.0	11
689.1	11
689.2	9
689.5	6
689.6	8
689.7	10
689.8	12
689.9	12
690.0	11
690.1	10
690.2	8
694.6	7
694.7	8
694.8	9
694.9	10
695.0	10
695.1	9
695.2	9
695.3	9
695.4	10
695.5	9
695.6	9
695.7	8
695.8	8
695.9	8
696.0	7
696.1	6
696.2	6
696.3	7
696.4	8
696.5	9
696.6	10
696.7	9
696.8	8
698.7	4
698.8	5
698.9	7
699.0	9
699.1	10
699.2	11
699.3	12
699.4	11
699.5	10
699.6	8
700.2	7
700.3	8
700.4	9
700.5	9
700.6	9
700.7	9
701.1	7
701.2	8
701.3	9
701.4	10
701.5	9
701.6	10
701.7	10
701.8	11
701.9	11
702.0	9
702.1	8
702.5	6
702.6	8
702.7	10
702.8	12
702.9	13
703.0	13
703.1	12
703.2	10
703.3	8
703.8	7
703.9	8
704.0	10
704.1	10
704.2	9
704.3	8
704.9	8
705.0	9
705.1	11
705.2	12
705.3	13
705.4	12
705.5	11
705.6	9
706.0	9
706.1	10
706.2	11
706.3	11
706.4	12
706.5	13
706.6	12
706.7	11
706.8	9
706.9	8
707.3	6
707.4	7
707.5	9
707.6	10
707.7	10
707.8	10
707.9	9
709.2	8
709.3	9
709.4	11
709.5	11
709.6	10
709.7	8
710.0	7
710.1	8
710.2	9
710.3	9
711.8	9
711.9	10
712.0	10
712.1	10
712.2	11
712.3	10
712.4	9
712.5	8
712.9	6
713.0	8
713.1	9
713.2	10
713.3	9
713.4	9
715.1	8
715.2	9
715.3	10
715.4	11
717.5	8
717.6	9
717.7	9
717.8	10
717.9	11
718.0	11
718.1	10
718.2	10
718.3	10
718.4	9
719.9	7
720.0	9
720.1	10
720.2	10
720.3	10
723.4	7
723.5	8
723.6	10
723.7	10
723.8	10
723.9	10
724.0	9
724.1	9
725.2	9
725.3	10
725.4	11
725.5	11
725.6	11
725.7	10
725.8	10
725.9	10
726.0	10
726.1	9
726.2	9
726.3	9
726.4	10
726.5	10
726.6	11
726.7	12
726.8	12
726.9	11
727.3	10
727.4	11
727.5	11
727.6	12
727.7	11
727.8	11
727.9	9
730.4	7
730.5	8
730.6	10
730.7	12
730.8	13
730.9	13
731.0	12
731.1	10
731.2	8
731.6	7
731.7	8
731.8	9
731.9	10
732.0	11
732.1	11
732.2	11
732.3	10
732.4	9
732.5	8
732.8	7
732.9	9
733.0	10
733.1	11
733.2	11
733.3	11
733.4	10
733.5	10
733.6	9
733.7	8
734.1	7
734.2	8
734.3	9
734.4	10
734.5	10
734.6	9
734.7	9
734.8	9
734.9	9
735.0	8
735.1	8
735.2	9
735.3	10
735.4	11
735.5	11
735.6	10
735.7	10
735.8	9
735.9	9
736.0	10
736.1	10
736.2	10
736.3	9
737.3	8
737.4	9
737.5	10
737.6	10
737.7	11
737.8	10
737.9	10
738.0	10
738.1	9
738.5	8
738.6	9
738.7	11
738.8	12
738.9	11
739.0	11
739.1	10
739.2	9
740.0	9
740.1	11
740.2	12
740.3	12
740.4	11
740.5	11
743.4	7
743.5	8
743.6	9
743.7	10
743.8	10
743.9	9
744.0	9
744.1	9
744.2	9
744.3	10
744.4	10
744.5	11
744.6	11
744.7	11
744.8	11
744.9	11
745.0	11
745.1	10
745.2	10
745.3	9
745.4	9
745.5	9
745.6	9
745.7	9
745.8	10
745.9	12
746.0	13
746.1	14
746.2	12
746.3	10
746.8	10
746.9	10
747.0	11
747.1	12
747.2	13
747.3	13
747.4	11
747.5	10
747.6	8
747.7	7
748.1	7
748.2	7
748.3	8
748.4	8
748.5	8
748.6	7
748.7	7
748.8	7
748.9	8
749.0	8
749.1	8
749.2	8
749.3	7
749.4	8
749.5	9
749.6	9
749.7	9
749.8	9
749.9	9
750.0	8
750.1	8
750.2	8
750.3	8
750.4	9
750.5	10
750.6	10
750.7	10
750.8	10
750.9	9
754.0	7
754.1	9
754.2	10
754.3	12
754.4	12
754.5	10
756.3	8
756.4	9
756.5	11
756.6	13
756.7	13
756.8	12
756.9	11
757.0	9
757.3	8
757.4	10
757.5	12
757.6	13
757.7	12
757.8	11
758.8	8
758.9	10
759.0	11
759.1	11
759.2	10
759.6	8
759.7	9
759.8	11
759.9	12
760.0	13
760.1	14
760.2	13
760.3	12
760.6	11
760.7	12
760.8	13
760.9	13
761.0	12
761.1	10
761.9	10
762.0	11
762.1	12
762.2	12
762.3	12
762.4	11
762.5	10
762.6	9
765.7	8
765.8	9
765.9	11
766.0	12
766.1	13
766.2	13
766.3	12
766.4	11
769.3	9
769.4	10
769.5	11
769.6	12
769.7	12
769.8	10
774.7	10
774.8	11
774.9	12
775.0	12
775.1	11
775.2	10
776.2	7
776.3	8
776.4	10
776.5	11
776.6	10
776.7	9
776.8	9
778.4	7
778.5	8
778.6	9
778.7	11
778.8	11
778.9	11
779.0	10
779.1	8
779.9	8
780.0	9
780.1	11
780.2	12
780.3	12
780.4	11
785.1	7
785.2	9
785.3	11
785.4	12
785.5	12
785.6	13
785.7	13
785.8	12
785.9	12
786.0	11
787.5	6
787.6	8
787.7	10
787.8	11
787.9	11
788.0	10
788.1	9
788.2	9
788.9	8
789.0	9
789.1	10
789.2	11
789.3	11
789.4	11
789.5	10
789.6	9
789.7	9
789.8	9
789.9	9
790.0	9
790.1	8
790.2	8
790.3	9
790.4	9
790.5	9
790.6	9
790.7	8
790.8	8
790.9	9
791.0	10
791.1	10
791.2	10
791.3	10
793.6	7
793.7	8
793.8	9
793.9	11
794.0	12
794.1	11
794.2	9
794.5	7
794.6	8
794.7	10
794.8	10
794.9	10
795.0	11
795.1	11
795.2	11
795.3	10
795.4	9
797.1	8
797.2	10
797.3	11
797.4	11
797.5	11
797.6	10
797.7	9
801.1	8
801.2	9
801.3	10
801.4	10
801.8	8
801.9	9
802.0	10
802.1	11
802.2	11
802.3	11
802.4	9
802.7	8
802.8	10
802.9	11
803.0	12
803.1	12
803.2	11
804.3	8
804.4	9
804.5	10
804.6	10
804.7	10
804.8	10
804.9	9
805.0	8
805.3	7
805.4	8
805.5	9
805.6	10
805.7	10
805.8	9
805.9	8
806.0	7
806.3	6
806.4	7
806.5	9
806.6	10
806.7	11
806.8	10
806.9	9
807.0	7
807.3	6
807.4	8
807.5	10
807.6	10
807.7	10
809.7	4
809.8	6
809.9	8
810.0	9
810.1	9
810.2	9
810.3	8
810.4	8
810.5	8
810.6	8
812.0	8
812.1	9
812.2	10
812.3	11
812.4	11
812.5	10
812.6	9
812.7	8
812.8	6
814.7	7
814.8	8
814.9	9
815.0	10
815.1	10
815.2	8
815.3	6
815.5	4
815.6	6
815.7	8
815.8	9
815.9	10
816.0	9
816.1	9
816.2	7
816.5	6
816.6	8
816.7	9
816.8	9
816.9	10
817.0	10
817.1	10
817.2	10
817.3	9
819.5	7
819.6	8
819.7	9
819.8	9
819.9	9
820.0	9
820.1	10
820.2	11
820.3	10
820.4	9
820.5	7
820.8	5
820.9	7
821.0	8
821.1	8
821.2	8
821.3	8
821.4	7
821.5	8
821.6	9
821.7	9
821.8	9
821.9	10
822.0	10
822.1	11
822.2	11
822.3	10
824.9	5
825.0	7
825.1	9
825.2	10
825.3	11
825.4	10
825.5	9
829.7	7
829.8	8
829.9	9
830.0	9
830.1	9
830.2	8
830.3	8
830.4	7
830.5	7
830.6	7
830.7	7
830.8	9
830.9	10
831.0	11
831.1	11
831.2	10
831.3	10
836.9	8
837.0	9
837.1	9
837.2	10
837.3	11
837.4	11
837.5	10
837.6	8
838.1	6
838.2	7
838.3	8
838.4	9
838.5	8
838.6	7
838.7	6
838.8	7
838.9	7
839.0	7
839.1	7
839.2	8
839.3	10
839.4	11
839.5	11
839.6	10
839.7	8
840.5	9
840.6	10
840.7	10
840.8	11
840.9	10
841.3	8
841.4	9
841.5	10
841.6	11
841.7	11
841.8	10
841.9	9
842.2	6
842.3	8
842.4	9
842.5	10
842.6	10
842.7	10
842.8	11
842.9	11
843.0	12
843.1	11
845.6	8
845.7	9
845.8	10
845.9	11
846.0	10
846.1	10
846.2	9
846.3	10
846.4	11
846.5	12
846.6	14
846.7	14
846.8	13
846.9	11
849.4	6
849.5	8
849.6	10
849.7	11
849.8	12
849.9	12
850.0	12
850.1	12
850.2	11
850.9	9
851.0	10
851.1	11
851.2	11
851.3	10
852.7	10
852.8	11
852.9	12
853.0	13
853.1	12
853.2	10
853.5	7
853.6	9
853.7	10
853.8	12
853.9	12
854.0	11
854.1	10
854.5	9
854.6	10
854.7	11
854.8	11
854.9	11
855.0	10
855.1	9
855.4	8
855.5	10
855.6	12
855.7	13
855.8	13
855.9	12
856.0	10
856.5	9
856.6	10
856.7	11
856.8	11
856.9	12
857.0	12
857.1	11
858.1	9
858.2	10
858.3	11
858.4	13
858.5	14
858.6	14
858.7	13
858.8	11
859.9	7
860.0	9
860.1	10
860.2	11
860.3	12
860.4	12
860.5	11
860.6	10
861.4	10
861.5	11
861.6	12
861.7	12
861.8	11
861.9	9
862.2	8
862.3	9
862.4	10
862.5	10
862.6	10
862.7	10
862.8	9
862.9	9
863.0	9
863.1	9
863.2	9
863.3	8
863.4	7
863.5	7
863.6	7
863.7	8
863.8	8
863.9	8
864.0	8
864.1	9
864.2	10
864.3	11
864.4	12
864.5	13
864.6	13
864.7	14
864.8	14
864.9	12
865.9	9
866.0	11
866.1	12
866.2	12
866.3	12
869.1	8
869.2	9
869.3	10
869.4	11
869.5	12
869.6	12
869.7	12
869.8	12
869.9	12
870.0	12
870.1	12
870.2	12
870.3	11
870.4	10
871.5	6
871.6	7
871.7	9
871.8	10
871.9	11
872.0	11
872.1	11
872.2	12
872.3	11
872.4	11
872.5	10
872.6	10
872.7	10
872.8	11
872.9	11
873.0	11
873.1	11
873.2	10
874.1	9
874.2	10
874.3	12
874.4	13
874.5	12
874.6	10
876.2	10
876.3	11
876.4	12
876.5	12
876.6	12
876.7	12
876.8	11
876.9	9
877.2	7
877.3	9
877.4	10
877.5	11
877.6	10
877.7	10
877.8	9
877.9	9
878.0	9
878.1	9
878.2	9
878.3	9
878.4	10
878.5	10
878.6	10
878.7	10
878.8	9
878.9	9
879.0	10
879.1	11
879.2	12
879.3	12
879.4	12
879.5	10
880.6	10
880.7	11
880.8	12
880.9	12
881.0	11
882.3	9
882.4	10
882.5	12
882.6	13
882.7	13
882.8	13
882.9	12
884.3	6
884.4	7
884.5	8
884.6	9
884.7	10
884.8	10
884.9	10
885.0	9
885.1	9
885.2	9
885.3	9
885.4	10
885.5	10
885.6	11
885.7	11
885.8	11
886.6	10
886.7	11
886.8	12
886.9	13
887.0	14
887.1	13
887.2	13
887.3	11
889.1	9
889.2	11
889.3	12
889.4	12
889.5	12
889.6	12
889.7	11
889.8	10
889.9	8
890.3	8
890.4	9
890.5	10
890.6	11
890.7	12
890.8	11
890.9	10
894.7	7
894.8	8
894.9	9
895.0	10
895.1	11
895.2	10
898.2	8
898.3	9
898.4	11
898.5	12
898.6	12
898.7	12
898.8	11
898.9	9
899.0	8
899.7	7
899.8	8
899.9	9
900.0	10
900.1	11
900.2	10
900.3	9
900.4	9
900.5	10
900.6	10
900.7	10
900.8	11
900.9	11
901.0	11
901.1	12
901.2	13
901.3	12
901.4	10
902.4	10
902.5	11
902.6	12
902.7	12
902.8	12
902.9	11
903.9	9
904.0	10
904.1	11
904.2	11
904.3	10
904.6	9
904.7	10
904.8	11
904.9	11
905.0	10
905.1	8
905.5	7
905.6	8
905.7	9
905.8	10
905.9	10
906.0	10
906.1	10
906.2	9
906.3	9
906.4	9
906.5	10
906.6	11
906.7	11
906.8	11
906.9	11
907.0	10
907.1	10
907.2	10
907.3	8
907.4	7
907.7	6
907.8	7
907.9	8
908.0	9
908.1	10
908.2	10
908.3	10
908.4	10
908.5	9
908.6	9
908.7	9
908.8	9
908.9	9
909.0	8
909.1	8
909.2	8
909.3	9
909.4	9
909.5	9
911.1	5
911.2	6
911.3	7
911.4	8
911.5	9
911.6	9
911.7	9
911.8	9
911.9	9
912.0	9
912.1	10
912.2	10
912.3	10
912.4	10
913.9	6
914.0	8
914.1	9
914.2	9
914.3	9
914.4	9
914.5	9
914.6	9
914.7	9
914.8	9
914.9	10
915.0	9
915.1	9
915.2	9
915.3	9
915.4	9
915.5	8
916.1	7
916.2	8
916.3	9
916.4	10
916.5	11
916.6	11
916.7	10
916.8	9
919.4	5
919.5	6
919.6	7
919.7	7
919.8	7
919.9	8
920.0	9
920.1	10
920.2	10
920.3	10
920.7	8
920.8	9
920.9	10
921.0	10
921.1	9
921.2	8
921.3	6
921.7	5
921.8	7
921.9	8
922.0	9
922.1	10
922.2	10
922.3	10
922.4	10
922.5	10
922.6	9
923.0	8
923.1	9
923.2	10
923.3	10
923.4	10
927.4	9
927.5	9
927.6	10
927.7	11
927.8	11
927.9	10
928.0	10
928.1	9
928.2	8
928.3	6
928.4	5
928.7	4
928.8	6
928.9	8
929.0	10
929.1	11
929.2	10
929.3	10
929.4	9
929.5	8
930.8	5
930.9	7
931.0	9
931.1	10
931.2	10
931.3	11
931.4	11
931.5	11
931.6	10
931.7	9
933.6	5
933.7	6
933.8	8
933.9	10
934.0	11
934.1	10
934.2	8
934.3	5
934.6	2
934.7	4
934.8	7
934.9	10
935.0	12
935.1	12
936.7	5
936.8	6
936.9	7
937.0	8
937.1	9
937.2	10
937.3	11
937.4	11
937.5	10
937.6	8
937.7	7
939.1	7
939.2	8
939.3	8
939.4	9
939.5	9
939.6	9
939.7	9
939.8	8
939.9	8
940.0	7
940.1	8
940.2	8
940.3	8
940.4	8
940.5	8
940.6	6
940.8	4
940.9	6
941.0	8
941.1	11
941.2	12
941.3	12
941.4	10
941.5	9
942.0	8
942.1	9
942.2	10
942.3	10
942.4	9
942.5	8
942.8	7
942.9	8
943.0	9
943.1	9
943.2	10
943.3	9
943.4	9
943.5	10
943.6	10
943.7	10
943.8	11
943.9	10
951.9	6
952.0	8
952.1	9
952.2	10
952.3	10
952.4	10
952.5	10
952.6	10
952.7	9
952.8	8
952.9	7
953.3	7
953.4	7
953.5	8
953.6	10
953.7	11
953.8	11
953.9	10
954.0	9
955.2	7
955.3	8
955.4	9
955.5	9
955.6	8
955.7	8
955.8	9
955.9	10
956.0	10
956.1	11
956.2	10
956.3	9
956.7	8
956.8	9
956.9	10
957.0	11
957.1	12
957.2	12
957.3	12
957.4	11
957.5	9
957.8	8
957.9	9
958.0	10
958.1	10
958.2	10
958.3	11
958.4	11
958.5	10
958.6	9
958.7	7
959.3	7
959.4	8
959.5	9
959.6	10
959.7	10
959.8	9
959.9	9
960.0	8
960.1	8
960.2	9
960.3	9
960.4	10
960.5	11
960.6	11
960.7	10
960.8	8
961.3	8
961.4	9
961.5	10
961.6	10
961.7	11
961.8	11
961.9	12
962.0	13
962.1	13
962.2	12
962.3	11
962.4	9
962.7	8
962.8	9
962.9	10
963.0	11
963.1	11
963.2	10
963.3	9
963.4	7
963.8	6
963.9	6
964.0	7
964.1	9
964.2	11
964.3	11
964.4	11
965.4	10
965.5	10
965.6	11
965.7	11
965.8	12
965.9	12
966.0	12
966.1	12
966.2	12
966.3	12
966.4	12
966.5	12
966.6	11
966.7	10
966.8	9
967.2	7
967.3	8
967.4	10
967.5	11
967.6	12
967.7	13
967.8	12
967.9	10
968.0	8
968.3	7
968.4	8
968.5	9
968.6	10
968.7	11
968.8	10
968.9	8
969.0	7
969.3	6
969.4	8
969.5	9
969.6	11
969.7	11
969.8	11
969.9	11
970.0	11
970.1	10
971.8	9
971.9	9
972.0	10
972.1	10
972.2	11
972.3	11
972.4	11
972.5	11
972.6	11
972.7	10
973.2	9
973.3	10
973.4	11
973.5	11
973.6	11
973.7	10
974.1	8
974.2	9
974.3	10
974.4	10
974.5	11
974.6	10
974.7	10
974.8	9
974.9	8
975.3	7
975.4	8
975.5	8
975.6	9
975.7	9
975.8	10
975.9	11
976.0	11
976.1	10
976.5	8
976.6	9
976.7	10
976.8	11
976.9	11
977.0	11
977.1	10
977.2	10
977.3	9
977.4	9
977.5	9
977.6	8
977.7	8
977.8	8
977.9	9
978.0	9
978.1	10
978.2	10
978.3	10
978.4	10
978.5	9
978.6	7
979.0	6
979.1	7
979.2	9
979.3	11
979.4	12
979.5	12
979.6	11
979.7	10
980.0	8
980.1	9
980.2	10
980.3	11
980.4	12
980.5	11
980.6	11
980.7	10
981.2	9
981.3	10
981.4	11
981.5	12
981.6	12
981.7	12
981.8	12
981.9	11
982.0	10
982.1	9
984.6	6
984.7	8
984.8	10
984.9	13
985.0	13
985.1	13
985.2	13
985.3	12
985.4	12
985.5	12
985.6	13
985.7	13
985.8	12
986.9	10
987.0	11
987.1	12
987.2	12
987.3	12
987.4	12
987.5	13
987.6	13
987.7	12
987.8	11
989.8	10
989.9	10
990.0	12
990.1	13
990.2	13
990.3	11
990.4	9
990.5	6
990.8	6
990.9	8
991.0	9
991.1	11
991.2	11
991.3	10
991.7	9
991.8	9
991.9	10
992.0	10
992.1	12
992.2	13
992.3	14
992.4	13
992.5	12
992.6	10
992.7	8
993.0	7
993.1	8
993.2	9
993.3	10
993.4	9
993.5	8
993.6	8
993.7	9
993.8	10
993.9	11
994.0	10
994.1	9
994.2	8
994.7	7
994.8	8
994.9	11
995.0	12
995.1	13
995.2	12
995.3	10
996.8	9
996.9	10
997.0	11
997.1	11
997.2	11
997.3	10
997.6	9
997.7	10
997.8	11
997.9	12
998.0	12
998.1	12
998.2	12
998.3	11
998.4	9
998.8	7
998.9	8
999.0	9
999.1	10
999.2	11
999.3	11
999.4	11
999.5	9
999.8	8
999.9	9
1000.0	10
1000.1	12
1000.2	13
1000.3	13
1000.4	11
1000.5	9
1000.9	8
1001.0	9
1001.1	10
1001.2	12
1001.3	12
1001.4	11
1002.6	9
1002.7	10
1002.8	12
1002.9	12
1003.0	12
1003.1	10
1004.7	6
1004.8	7
1004.9	8
1005.0	10
1005.1	11
1005.2	11
1005.3	10
1005.4	10
1005.5	9
1005.6	10
1005.7	10
1005.8	11
1005.9	12
1006.0	13
1006.1	12
1006.2	11
1006.3	10
1006.4	8
1006.8	8
1006.9	9
1007.0	10
1007.1	11
1007.2	11
1007.3	10
1007.4	10
1007.5	10
1007.6	9
1007.7	8
1008.0	6
1008.1	7
1008.2	9
1008.3	10
1008.4	10
1008.5	11
1008.6	11
1008.7	11
1008.8	10
1008.9	10
1009.0	10
1009.1	10
1009.2	9
1009.3	9
1009.4	9
1009.5	8
1009.6	8
1009.7	9
1009.8	10
1009.9	9
1010.0	8
1010.1	7
1010.2	6
1010.5	4
1010.6	6
1010.7	9
1010.8	12
1010.9	14
1011.0	14
1011.1	12
1011.2	9
1011.5	6
1011.6	7
1011.7	9
1011.8	11
1011.9	12
1012.0	12
1012.1	11
1012.2	10
1012.3	9
1012.4	8
1012.5	7
1012.8	5
1012.9	7
1013.0	9
1013.1	11
1013.2	12
1013.3	12
1013.4	11
1013.5	10
1013.6	8
1013.9	6
1014.0	8
1014.1	9
1014.2	10
1014.3	10
1014.4	10
1014.5	9
1014.9	8
1015.0	9
1015.1	10
1015.2	10
1015.3	9
1016.1	6
1016.2	8
1016.3	10
1016.4	11
1016.5	11
1016.6	11
1016.7	10
1016.8	11
1016.9	11
1017.0	10
1017.4	8
1017.5	10
1017.6	11
1017.7	11
1017.8	11
1017.9	10
1018.0	9
1018.1	8
1019.8	8
1019.9	10
1020.0	11
1020.1	11
1020.2	12
1020.3	12
1020.4	11
1020.5	10
1021.9	9
1022.0	10
1022.1	11
1022.2	11
1022.3	11
1022.4	10
1022.5	9
1022.6	9
1022.7	9
1022.8	9
1022.9	9
1023.0	10
1023.1	10
1023.2	10
1023.3	9
1023.4	9
1023.5	10
1023.6	10
1023.7	9
1027.2	9
1027.3	10
1027.4	11
1027.5	11
1027.6	10
1027.7	10
1027.8	9
1027.9	9
1028.0	9
1028.1	9
1028.2	9
1028.3	10
1028.4	11
1028.5	11
1028.6	9
1028.7	8
1029.2	7
1029.3	8
1029.4	8
1029.5	9
1029.6	9
1029.7	9
1029.8	9
1029.9	8
1030.0	9
1030.1	9
1030.2	10
1030.3	9
1031.4	5
1031.5	6
1031.6	8
1031.7	10
1031.8	11
1031.9	12
1032.0	11
1032.1	10
1032.2	9
1033.1	6
1033.2	7
1033.3	8
1033.4	8
1033.5	8
1033.6	7
1033.7	7
1033.8	7
1033.9	8
1034.0	9
1034.1	9
1034.2	10
1034.3	9
1034.4	8
1034.5	7
1035.2	5
1035.3	7
1035.4	9
1035.5	10
1035.6	9
1035.7	8
1036.2	7
1036.3	8
1036.4	9
1036.5	10
1036.6	11
1036.7	12
1036.8	12
1036.9	11
1037.0	9
1037.4	8
1037.5	9
1037.6	9
1037.7	10
1037.8	10
1037.9	10
1038.0	9
1038.1	7
1038.5	6
1038.6	6
1038.7	7
1038.8	9
1038.9	9
1039.0	9
1039.1	9
1039.2	9
1039.3	9
1039.4	10
1039.5	10
1039.6	9
1039.7	9
1039.8	8
1039.9	8
1040.0	8
1040.1	9
1040.2	9
1040.3	9
1040.4	9
1040.5	10
1040.6	9
1040.9	6
1041.0	8
1041.1	10
1041.2	11
1041.3	11
1041.4	9
1041.7	8
1041.8	9
1041.9	11
1042.0	12
1042.1	13
1042.2	13
1042.3	12
1042.4	12
1042.5	11
1042.6	9
1042.7	8
1043.1	6
1043.2	7
1043.3	9
1043.4	10
1043.5	11
1043.6	11
1043.7	10
1044.4	8
1044.5	9
1044.6	10
1044.7	12
1044.8	13
1044.9	12
1045.0	11
1050.3	6
1050.4	7
1050.5	9
1050.6	10
1050.7	11
1050.8	10
1050.9	8
1051.0	7
1051.5	5
1051.6	6
1051.7	8
1051.8	10
1051.9	11
1052.0	10
1052.1	9
1054.6	7
1054.7	8
1054.8	9
1054.9	10
1055.0	10
1055.1	10
1055.2	9
1055.3	8
1056.0	7
1056.1	8
1056.2	9
1056.3	10
1056.4	9
1056.5	9
1056.6	9
1056.7	9
1056.8	8
1056.9	8
1057.2	6
1057.3	8
1057.4	9
1057.5	11
1057.6	11
1057.7	11
1057.8	11
1057.9	11
1058.0	10
1058.1	9
1060.5	7
1060.6	9
1060.7	10
1060.8	11
1060.9	10
1061.7	7
1061.8	8
1061.9	9
1062.0	10
1062.1	10
1062.2	10
1062.3	9
1062.4	9
1062.5	8
1062.9	7
1063.0	8
1063.1	10
1063.2	12
1063.3	12
1063.4	12
1063.5	10
1063.6	9
1064.4	6
1064.5	7
1064.6	8
1064.7	8
1064.8	10
1064.9	11
1065.0	12
1065.1	12
1065.2	11
1065.3	10
1065.8	8
1065.9	9
1066.0	10
1066.1	10
1066.2	10
1066.3	9
1066.4	8
1066.5	8
1066.6	9
1066.7	9
1066.8	10
1066.9	10
1067.0	10
1067.1	9
1067.2	9
1067.3	9
1067.4	9
1067.5	10
1067.6	11
1067.7	11
1067.8	11
1067.9	10
1068.0	10
1068.1	10
1068.2	10
1068.3	10
1068.4	10
1068.5	10
1068.6	9
1068.7	9
1068.8	8
1068.9	8
1069.0	7
1069.1	7
1069.2	7
1069.3	7
1069.4	8
1069.5	9
1069.6	10
1069.7	10
1069.8	9
1069.9	9
1070.0	8
1070.1	9
1070.2	10
1070.3	10
1070.4	10
1070.5	10
1070.6	10
1070.7	10
1070.8	9
1075.5	5
1075.6	6
1075.7	7
1075.8	8
1075.9	9
1076.0	10
1076.1	10
1076.2	10
1076.3	11
1076.4	12
1076.5	14
1076.6	14
1076.7	12
1076.8	10
1076.9	9
1077.2	8
1077.3	9
1077.4	10
1077.5	11
1077.6	11
1077.7	11
1077.8	10
1077.9	8
1078.2	8
1078.3	9
1078.4	11
1078.5	11
1078.6	11
1078.7	10
1078.8	10
1079.2	8
1079.3	10
1079.4	11
1079.5	13
1079.6	13
1079.7	11
1079.8	8
1080.5	9
1080.6	10
1080.7	10
1080.8	11
1080.9	12
1081.0	12
1081.1	12
1081.2	10
1081.9	9
1082.0	10
1082.1	12
1082.2	13
1082.3	13
1082.4	12
1082.5	9
1082.8	8
1082.9	9
1083.0	10
1083.1	10
1083.2	10
1083.3	9
1083.4	9
1083.5	9
1083.6	9
1083.7	9
1083.8	10
1083.9	11
1084.0	11
1084.1	11
1084.2	10
1084.3	10
1084.4	10
1084.5	11
1084.6	11
1084.7	10
1084.8	8
1085.1	6
1085.2	8
1085.3	9
1085.4	9
1085.5	10
1085.6	10
1085.7	11
1085.8	12
1085.9	13
1086.0	13
1086.1	14
1086.2	13
1086.3	12
1086.4	11
1086.8	10
1086.9	11
1087.0	12
1087.1	13
1087.2	13
1087.3	13
1087.4	11
1087.5	10
1088.6	8
1088.7	9
1088.8	10
1088.9	10
1089.0	11
1089.1	11
1089.2	12
1089.3	11
1089.4	9
1089.7	7
1089.8	8
1089.9	9
1090.0	11
1090.1	11
1090.2	11
1090.3	11
1090.4	10
1090.5	8
1092.0	9
1092.1	10
1092.2	12
1092.3	13
1092.4	12
1092.5	12
1092.6	11
1092.7	11
1092.8	11
1092.9	10
1093.0	9
1094.3	7
1094.4	9
1094.5	11
1094.6	13
1094.7	14
1094.8	13
1094.9	11
1095.8	7
1095.9	8
1096.0	10
1096.1	10
1096.2	10
1096.3	10
1096.4	10
1096.5	11
1096.6	11
1096.7	12
1096.8	12
1096.9	11
1097.0	10
1099.2	10
1099.3	11
1099.4	12
1099.5	13
1099.6	12
1099.7	10
1099.8	8
1100.2	7
1100.3	8
1100.4	10
1100.5	11
1100.6	12
1100.7	12
1100.8	11
1101.2	10
1101.3	11
1101.4	12
1101.5	12
1101.6	11
1101.7	10
1102.1	9
1102.2	10
1102.3	11
1102.4	11
1102.5	11
1103.4	10
1103.5	11
1103.6	12
1103.7	13
1103.8	12
1103.9	11
1104.3	9
1104.4	11
1104.5	12
1104.6	12
1106.7	10
1106.8	11
1106.9	11
1107.0	12
1107.1	12
1107.2	11
1107.6	10
1107.7	12
1107.8	14
1107.9	14
1108.0	12
1110.7	7
1110.8	8
1110.9	10
1111.0	11
1111.1	13
1111.2	14
1111.3	14
1111.4	13
1111.5	12
1111.6	10
1114.5	10
1114.6	10
1114.7	11
1114.8	12
1114.9	12
1115.0	11
1115.1	10
1117.9	6
1118.0	7
1118.1	8
1118.2	9
1118.3	10
1118.4	11
1118.5	11
1118.6	11
1118.7	10
1120.0	6
1120.1	8
1120.2	9
1120.3	10
1120.4	10
1122.7	9
1122.8	10
1122.9	10
1123.0	11
1123.1	10
1123.2	9
1123.3	9
1123.4	7
1123.7	7
1123.8	8
1123.9	10
1124.0	10
1124.1	10
1124.2	11
1124.3	12
1124.4	11
1124.5	10
1124.6	8
1125.1	7
1125.2	8
1125.3	8
1125.4	9
1125.5	10
1125.6	10
1125.7	10
1125.8	10
1125.9	10
1126.0	10
1126.1	10
1126.2	9
1126.3	9
1126.4	9
1126.5	10
1126.6	11
1126.7	10
1128.4	8
1128.5	9
1128.6	10
1128.7	10
1128.8	11
1128.9	11
1129.0	11
1129.1	9
1129.2	7
1129.5	5
1129.6	6
1129.7	7
1129.8	9
1129.9	9
1130.0	10
1130.1	10
1130.2	11
1130.3	10
1130.4	9
1130.7	7
1130.8	8
1130.9	9
1131.0	10
1131.1	10
1131.2	11
1131.3	10
1131.4	8
1131.7	5
1131.8	7
1131.9	8
1132.0	9
1132.1	9
1132.2	10
1132.3	11
1132.4	11
1132.5	9
1132.6	8
1135.5	7
1135.6	8
1135.7	9
1135.8	10
1135.9	11
1136.0	11
1136.1	11
1136.2	10
1136.3	9
1136.7	7
1136.8	9
1136.9	10
1137.0	12
1137.1	12
1137.2	12
1137.3	11
1137.4	10
1137.5	9
1137.6	8
1139.2	8
1139.3	9
1139.4	10
1139.5	11
1139.6	11
1146.0	8
1146.1	8
1146.2	10
1146.3	12
1146.4	13
1146.5	13
1146.6	12
1146.7	10
1146.8	8
1147.1	5
1147.2	7
1147.3	8
1147.4	9
1147.5	9
1147.6	9
1147.7	10
1147.8	10
1147.9	10
1148.0	9
1148.4	7
1148.5	8
1148.6	10
1148.7	11
1148.8	11
1148.9	10
1149.0	8
1150.7	8
1150.8	9
1150.9	10
1151.0	11
1151.1	10
1151.2	9
1151.3	7
1151.6	6
1151.7	7
1151.8	9
1151.9	11
1152.0	12
1152.1	11
1152.2	9
1152.3	7
1153.2	8
1153.3	9
1153.4	9
1153.5	10
1153.6	11
1153.7	10
1153.8	7
1154.2	5
1154.3	7
1154.4	8
1154.5	10
1154.6	10
1154.7	10
1154.8	9
1154.9	8
1155.3	7
1155.4	8
1155.5	10
1155.6	11
1155.7	12
1155.8	11
1155.9	10
1156.2	8
1156.3	9
1156.4	11
1156.5	12
1156.6	12
1156.7	11
1156.8	9
1158.8	6
1158.9	8
1159.0	10
1159.1	12
1159.2	13
1159.3	13
1159.4	11
1159.5	8
1159.6	6
1159.9	4
1160.0	5
1160.1	8
1160.2	10
1160.3	11
1160.4	10
1160.5	10
1160.6	9
1160.7	8
1161.2	7
1161.3	8
1161.4	10
1161.5	11
1161.6	12
1161.7	12
1161.8	11
1161.9	10
1162.0	9
1162.4	7
1162.5	8
1162.6	10
1162.7	10
1162.8	10
1162.9	10
1163.0	10
1163.1	10
1163.2	10
1163.3	9
1166.0	7
1166.1	9
1166.2	10
1166.3	10
1166.4	8
1166.9	7
1167.0	8
1167.1	9
1167.2	10
1167.3	12
1167.4	13
1167.5	13
1167.6	12
1167.7	10
1168.3	8
1168.4	9
1168.5	10
1168.6	10
1168.7	10
1170.4	8
1170.5	9
1170.6	9
1170.7	10
1170.8	11
1170.9	11
1171.0	11
1171.1	10
1171.2	8
1172.9	6
1173.0	7
1173.1	8
1173.2	10
1173.3	10
1173.4	10
1173.5	10
1173.6	9
1173.7	8
1175.1	4
1175.2	6
1175.3	8
1175.4	9
1175.5	10
1175.6	9
1175.7	8
1178.4	6
1178.5	7
1178.6	8
1178.7	9
1178.8	9
1178.9	9
1179.0	9
1179.1	9
1179.2	9
1179.3	9
1179.4	8
1179.9	7
1180.0	8
1180.1	9
1180.2	10
1180.3	9
1180.4	9
1180.5	8
1180.6	8
1180.7	8
1180.8	8
1180.9	7
1181.0	7
1181.1	7
1181.2	7
1181.3	8
1181.4	10
1181.5	11
1181.6	12
1181.7	11
1181.8	11
1181.9	10
1182.0	9
1182.4	8
1182.5	9
1182.6	11
1182.7	12
1182.8	13
1182.9	13
1184.2	7
1184.3	8
1184.4	9
1184.5	10
1184.6	11
1184.7	11
1184.8	10
1184.9	10
1185.0	10
1185.1	10
1185.2	9
1185.5	6
1185.6	7
1185.7	9
1185.8	11
1185.9	11
1186.0	11
1186.1	11
1186.2	10
1186.3	10
1186.4	11
1186.5	10
1186.6	10
1186.7	10
1186.8	9
1186.9	9
1187.0	8
1187.1	9
1187.2	10
1187.3	11
1187.4	11
1187.5	10
1187.6	10
1187.7	10
1187.8	10
1188.1	7
1188.2	8
1188.3	11
1188.4	12
1188.5	13
1188.6	13
1188.7	12
1188.8	11
1188.9	9
1190.2	8
1190.3	9
1190.4	10
1190.5	12
1190.6	12
1190.7	12
1190.8	10
1190.9	8
1191.6	9
1191.7	10
1191.8	11
1191.9	12
1192.0	12
1192.1	11
1192.2	9
1192.7	7
1192.8	8
1192.9	9
1193.0	10
1193.1	10
1193.2	11
1193.3	11
1193.4	10
1193.5	9
1193.6	8
1195.2	8
1195.3	9
1195.4	10
1195.5	10
1195.6	9
1195.7	8
1195.8	8
1195.9	8
1196.0	9
1196.1	8
1196.2	8
1196.3	8
1196.4	8
1196.5	8
1196.6	9
1196.7	9
1196.8	9
1196.9	9
1197.0	9
1197.1	9
1197.2	9
1197.3	9
1197.4	10
1197.5	11
1197.6	11
1197.7	11
1197.8	11
1197.9	10
1198.0	9
1198.1	8
1198.4	7
1198.5	9
1198.6	11
1198.7	13
1198.8	14
1198.9	14
1199.0	12
1199.1	10
1200.7	8
1200.8	9
1200.9	10
1201.0	11
1201.1	12
1201.2	11
1201.3	10
1201.4	10
1201.5	10
1201.6	11
1201.7	10
1201.8	8
1202.1	8
1202.2	10
1202.3	12
1202.4	13
1202.5	13
1202.6	12
1202.7	12
1204.5	5
1204.6	6
1204.7	8
1204.8	11
1204.9	13
1205.0	14
1205.1	13
1206.7	8
1206.8	9
1206.9	10
1207.0	11
1207.1	12
1207.2	13
1207.3	13
1207.4	13
1207.5	11
1207.6	9
1208.0	9
1208.1	10
1208.2	11
1208.3	12
1208.4	13
1208.5	13
1208.6	12
1208.7	11
1208.8	10
1209.8	8
1209.9	9
1210.0	10
1210.1	10
1210.2	11
1210.3	11
1210.4	12
1210.5	11
1212.1	11
1212.2	13
1212.3	16
1212.4	20
1212.5	26
1212.6	35
1212.7	47
1212.8	59
1212.9	67
1213.0	68
1213.1	66
1213.2	66
1213.3	68
1213.4	63
1213.5	47
1213.6	28
1213.7	14
1213.8	8
1214.9	8
1215.0	10
1215.1	12
1215.2	13
1215.3	13
1215.4	12
1215.5	11
1215.6	10
1216.1	8
1216.2	9
1216.3	10
1216.4	11
1216.5	11
1216.6	11
1217.0	9
1217.1	10
1217.2	10
1217.3	11
1217.4	11
1217.5	11
1217.6	11
1217.7	10
1217.8	9
1217.9	8
1218.0	7
1218.5	6
1218.6	8
1218.7	9
1218.8	11
1218.9	12
1219.0	11
1220.7	7
1220.8	8
1220.9	10
1221.0	11
1221.1	13
1221.2	14
1221.3	13
1221.4	11
1221.5	9
1221.6	8
1221.9	7
1222.0	8
1222.1	10
1222.2	12
1222.3	13
1222.4	12
1222.5	12
1222.6	10
1222.7	9
1223.0	8
1223.1	10
1223.2	11
1223.3	12
1223.4	12
1223.5	12
1223.6	11
1223.7	11
1223.8	10
1225.5	7
1225.6	8
1225.7	10
1225.8	11
1225.9	12
1226.0	12
1229.1	8
1229.2	9
1229.3	11
1229.4	12
1229.5	12
1229.6	11
1229.7	9
1230.1	8
1230.2	9
1230.3	10
1230.4	11
1230.5	10
1230.6	10
1230.7	10
1230.8	10
1230.9	11
1231.0	11
1231.1	10
1231.2	8
1231.6	8
1231.7	9
1231.8	11
1231.9	13
1232.0	13
1232.1	12
1232.2	10
1232.5	8
1232.6	10
1232.7	11
1232.8	11
1232.9	11
1233.0	10
1233.1	10
1233.2	10
1233.3	9
1233.7	8
1233.8	9
1233.9	10
1234.0	10
1234.1	10
1234.2	9
1234.3	8
1234.9	8
1235.0	8
1235.1	10
1235.2	11
1235.3	11
1235.4	11
1238.5	6
1238.6	7
1238.7	9
1238.8	10
1238.9	11
1239.0	11
1239.1	11
1239.2	10
1239.6	9
1239.7	11
1239.8	12
1239.9	12
1240.0	11
1240.1	9
1240.2	7
1240.5	4
1240.6	5
1240.7	8
1240.8	11
1240.9	12
1241.0	11
1241.1	10
1242.1	8
1242.2	9
1242.3	11
1242.4	12
1242.5	12
1242.6	10
1242.7	8
1243.0	5
1243.1	7
1243.2	10
1243.3	12
1243.4	13
1243.5	13
1243.6	13
1243.7	12
1243.8	10
1243.9	8
1244.2	6
1244.3	7
1244.4	9
1244.5	10
1244.6	11
1244.7	11
1244.8	11
1244.9	10
1245.2	6
1245.3	8
1245.4	10
1245.5	12
1245.6	13
1245.7	12
1245.8	11
1245.9	9
1246.0	8
1246.6	7
1246.7	9
1246.8	11
1246.9	13
1247.0	14
1247.1	13
1247.2	11
1247.3	9
1247.7	8
1247.8	9
1247.9	11
1248.0	11
1248.1	12
1248.2	11
1248.3	11
1248.4	11
1248.5	11
1248.6	10
1248.7	7
1249.0	6
1249.1	8
1249.2	11
1249.3	12
1249.4	11
1249.5	10
1249.6	8
1250.1	8
1250.2	9
1250.3	10
1250.4	11
1250.5	11
1250.6	11
1250.7	9
1251.5	7
1251.6	8
1251.7	11
1251.8	12
1251.9	12
1252.0	11
1252.1	8
1252.4	6
1252.5	8
1252.6	10
1252.7	11
1252.8	10
1252.9	9
1253.0	8
1253.5	7
1253.6	9
1253.7	10
1253.8	12
1253.9	12
1254.0	12
1254.1	11
1254.2	10
1254.3	8
1254.4	7
1254.7	6
1254.8	8
1254.9	10
1255.0	11
1255.1	10
1255.2	10
1255.3	9
1255.4	9
1255.5	9
1256.0	8
1256.1	8
1256.2	9
1256.3	10
1256.4	11
1256.5	11
1256.6	11
1256.7	10
1258.3	7
1258.4	9
1258.5	10
1258.6	12
1258.7	13
1258.8	12
1258.9	10
1259.0	8
1259.4	7
1259.5	8
1259.6	10
1259.7	12
1259.8	13
1259.9	12
1260.0	11
1260.1	9
1260.8	6
1260.9	7
1261.0	9
1261.1	10
1261.2	10
1261.3	9
1261.6	8
1261.7	10
1261.8	11
1261.9	12
1262.0	12
1262.1	11
1262.2	10
1262.3	8
1265.3	7
1265.4	7
1265.5	9
1265.6	11
1265.7	12
1265.8	11
1265.9	9
1266.3	7
1266.4	8
1266.5	10
1266.6	11
1266.7	11
1266.8	10
1266.9	9
1267.0	8
1267.1	6
1267.7	7
1267.8	7
1267.9	9
1268.0	10
1268.1	11
1268.2	11
1268.3	10
1268.4	10
1270.1	7
1270.2	8
1270.3	9
1270.4	10
1270.5	10
1270.6	8
1270.7	7
1271.1	5
1271.2	7
1271.3	9
1271.4	10
1271.5	10
1271.6	10
1271.7	8
1272.1	6
1272.2	7
1272.3	8
1272.4	9
1272.5	10
1272.6	9
1272.7	9
1272.8	9
1272.9	9
1273.0	9
1273.1	8
1273.5	6
1273.6	7
1273.7	9
1273.8	9
1273.9	9
1274.0	8
1274.1	7
1274.2	7
1274.3	6
1274.6	3
1274.7	5
1274.8	7
1274.9	9
1275.0	10
1275.1	10
1275.2	10
1275.3	9
1275.4	7
1275.5	6
1275.8	4
1275.9	5
1276.0	7
1276.1	9
1276.2	10
1276.3	10
1276.4	10
1276.5	9
1276.6	7
1277.0	5
1277.1	6
1277.2	8
1277.3	10
1277.4	11
1277.5	13
1277.6	12
1277.7	11
1277.8	9
1278.1	6
1278.2	8
1278.3	9
1278.4	10
1278.5	9
1278.6	9
1278.7	9
1278.8	8
1278.9	7
1279.2	7
1279.3	8
1279.4	10
1279.5	10
1279.6	10
1279.7	8
1279.8	6
1280.4	6
1280.5	7
1280.6	8
1280.7	9
1280.8	9
1280.9	9
1283.0	10
1283.1	10
1283.2	11
1283.3	12
1283.4	12
1283.5	11
1283.6	8
1283.9	5
1284.0	6
1284.1	8
1284.2	10
1284.3	11
1284.4	11
1284.5	9
1284.9	8
1285.0	8
1285.1	9
1285.2	10
1285.3	11
1285.4	11
1285.5	10
1285.6	9
1286.4	8
1286.5	9
1286.6	9
1286.7	10
1286.8	10
1286.9	10
1287.0	10
1287.1	9
1287.2	9
1287.3	9
1287.4	8
1287.5	8
1287.6	8
1287.7	8
1287.8	9
1287.9	9
1288.0	9
1289.0	7
1289.1	8
1289.2	10
1289.3	10
1289.4	10
1289.5	10
1289.6	9
1289.7	8
1290.1	7
1290.2	8
1290.3	9
1290.4	11
1290.5	13
1290.6	12
1290.7	11
1290.8	9
1290.9	7
1291.2	6
1291.3	7
1291.4	9
1291.5	9
1291.6	9
1291.7	8
1291.8	7
1292.2	6
1292.3	7
1292.4	8
1292.5	9
1292.6	9
1292.7	10
1292.8	11
1292.9	10
1293.0	8
1293.3	6
1293.4	8
1293.5	10
1293.6	12
1293.7	12
1293.8	11
1293.9	10
1294.0	7
1294.1	5
1294.4	3
1294.5	4
1294.6	6
1294.7	8
1294.8	11
1294.9	12
1295.0	13
1295.1	12
1295.2	9
1295.3	7
1295.6	4
1295.7	6
1295.8	8
1295.9	10
1296.0	11
1296.1	12
1296.2	12
1296.3	10
1296.4	7
1296.7	6
1296.8	8
1296.9	9
1297.0	11
1297.1	12
1297.2	12
1297.3	12
1297.4	11
1297.5	10
1299.6	8
1299.7	10
1299.8	11
1299.9	11
1300.0	11
1301.7	7
1301.8	8
1301.9	10
1302.0	12
1302.1	13
1302.2	14
1302.3	14
1302.4	13
1302.5	11
1303.9	9
1304.0	10
1304.1	11
1304.2	11
1304.3	12
1304.4	12
1304.5	12
1304.6	11
1304.7	11
1305.2	9
1305.3	11
1305.4	12
1305.5	13
1305.6	12
1305.7	11
1305.8	9
1306.2	8
1306.3	10
1306.4	11
1306.5	11
1306.6	11
1306.7	11
1306.8	11
1306.9	12
1307.0	12
1307.1	12
1307.2	11
1307.3	11
1307.4	10
1307.5	10
1307.6	10
1307.7	10
1307.8	11
1307.9	11
1308.0	11
1308.1	10
1308.2	8
1308.5	5
1308.6	7
1308.7	9
1308.8	11
1308.9	12
1309.0	12
1309.1	12
1309.2	11
1309.3	10
1310.0	8
1310.1	9
1310.2	11
1310.3	12
1310.4	12
1310.5	11
1310.6	9
1311.7	8
1311.8	10
1311.9	11
1312.0	12
1312.1	11
1312.2	10
1313.6	9
1313.7	10
1313.8	11
1313.9	11
1314.0	11
1314.1	10
1314.2	9
1314.3	9
1314.4	10
1314.5	11
1314.6	11
1314.7	11
1314.8	10
1314.9	11
1315.0	10
1315.1	9
1315.2	7
1315.5	6
1315.6	8
1315.7	10
1315.8	11
1315.9	11
1318.0	8
1318.1	9
1318.2	11
1318.3	13
1318.4	14
1318.5	13
1318.6	12
1318.7	11
1318.8	9
1319.2	8
1319.3	8
1319.4	10
1319.5	11
1319.6	11
1319.7	10
1319.8	9
1320.6	9
1320.7	10
1320.8	11
1320.9	11
1321.0	11
1321.1	10
1321.2	10
1321.3	10
1321.4	9
1321.8	8
1321.9	9
1322.0	10
1322.1	10
1322.2	10
1322.3	10
1322.4	10
1322.5	10
1322.6	9
1322.7	9
1322.8	10
1322.9	11
1323.0	12
1323.1	11
1324.0	10
1324.1	11
1324.2	12
1324.3	12
1324.4	12
1324.5	12
1324.6	11
1324.7	11
1324.8	10
1324.9	10
1325.0	9
1325.1	9
1325.2	9
1325.3	10
1325.4	12
1325.5	13
1325.6	13
1325.7	13
1325.8	11
1325.9	9
1326.0	7
1326.3	6
1326.4	8
1326.5	10
1326.6	12
1326.7	14
1326.8	15
1326.9	14
1327.0	13
1327.1	11
1327.4	8
1327.5	10
1327.6	12
1327.7	14
1327.8	15
1327.9	15
1328.0	14
1328.1	12
1328.9	11
1329.0	12
1329.1	13
1329.2	13
1329.3	13
1329.4	12
1329.5	11
1329.6	11
1329.7	11
1329.8	11
1329.9	11
1330.0	12
1330.1	12
1330.2	11
1332.2	7
1332.3	8
1332.4	10
1332.5	12
1332.6	13
1332.7	13
1332.8	13
1332.9	11
1333.0	10
1333.4	8
1333.5	10
1333.6	11
1333.7	12
1333.8	12
1333.9	12
1334.0	11
1334.1	10
1334.2	10
1334.3	10
1334.4	9
1334.5	9
1334.6	8
1334.7	8
1334.8	9
1334.9	11
1335.0	12
1335.1	12
1335.2	11
1335.3	10
1335.4	10
1335.5	11
1335.6	11
1335.7	11
1335.8	10
1335.9	10
1336.0	9
1336.1	10
1336.2	10
1336.3	10
1336.4	10
1336.5	10
1336.6	9
1337.1	8
1337.2	8
1337.3	9
1337.4	10
1337.5	10
1337.6	9
1337.7	8
1337.8	8
1337.9	9
1338.0	9
1338.1	8
1338.2	8
1338.3	8
1338.4	9
1338.5	11
1338.6	11
1338.7	11
1338.8	11
1338.9	11
1339.0	11
1339.1	10
1339.2	10
1339.5	8
1339.6	10
1339.7	11
1339.8	12
1339.9	11
1341.7	8
1341.8	9
1341.9	11
1342.0	13
1342.1	13
1342.2	13
1342.3	11
1342.4	9
1343.8	9
1343.9	10
1344.0	10
1344.1	11
1344.2	11
1344.3	11
1344.4	11
1344.5	10
1344.6	9
1345.0	7
1345.1	9
1345.2	10
1345.3	12
1345.4	12
1345.5	13
1345.6	13
1345.7	11
1345.8	9
1350.9	6
1351.0	8
1351.1	10
1351.2	12
1351.3	13
1351.4	13
1351.5	11
1351.6	10
1351.7	8
1352.1	6
1352.2	8
1352.3	10
1352.4	11
1352.5	11
1352.6	11
1352.7	11
1352.8	11
1352.9	11
1353.0	10
1353.4	8
1353.5	10
1353.6	11
1353.7	11
1353.8	11
1353.9	11
1354.0	10
1354.1	10
1354.2	9
1354.3	9
1354.4	9
1354.5	9
1354.6	8
1354.7	9
1354.8	10
1354.9	11
1355.0	11
1355.1	11
1355.2	10
1355.3	9
1355.4	8
1355.8	6
1355.9	8
1356.0	10
1356.1	11
1356.2	13
1356.3	13
1356.4	13
1356.5	11
1356.6	9
1356.9	8
1357.0	9
1357.1	9
1357.2	10
1357.3	10
1357.4	10
1357.5	10
1357.6	10
1357.7	9
1357.8	10
1357.9	10
1358.0	10
1358.1	10
1358.2	10
1358.3	10
1358.4	10
1358.5	9
1358.6	9
1358.7	9
1359.1	8
1359.2	9
1359.3	10
1359.4	10
1359.5	10
1359.6	11
1359.7	11
1359.8	11
1359.9	10
1360.0	9
1360.1	7
1362.0	8
1362.1	9
1362.2	9
1362.3	9
1362.4	9
1362.5	8
1362.6	8
1362.7	8
1362.8	9
1362.9	11
1363.0	12
1363.1	12
1363.2	11
1363.3	10
1365.1	7
1365.2	8
1365.3	9
1365.4	9
1365.5	10
1365.6	10
1365.7	9
1365.8	9
1365.9	8
1366.0	8
1366.1	8
1366.2	8
1366.3	9
1366.4	9
1366.5	9
1366.6	9
1366.7	8
1366.8	8
1366.9	9
1367.0	9
1367.1	10
1367.2	9
1367.3	9
1367.4	9
1367.5	9
1367.6	9
1367.7	9
1367.8	10
1367.9	10
1368.0	9
1368.6	9
1368.7	9
1368.8	10
1368.9	11
1369.0	11
1369.1	11
1369.2	10
1369.3	9
1369.4	8
1369.8	7
1369.9	8
1370.0	11
1370.1	13
1370.2	14
1370.3	13
1370.4	11
1370.5	9
1370.6	7
1371.0	6
1371.1	7
1371.2	9
1371.3	11
1371.4	13
1371.5	12
1371.6	10
1371.7	8
1373.7	7
1373.8	8
1373.9	9
1374.0	9
1374.1	8
1374.8	7
1374.9	8
1375.0	9
1375.1	10
1375.2	9
1375.3	9
1375.4	9
1375.5	8
1375.6	8
1377.3	5
1377.4	7
1377.5	9
1377.6	11
1377.7	12
1377.8	11
1377.9	10
1378.0	8
1378.1	7
1378.4	6
1378.5	8
1378.6	10
1378.7	11
1378.8	10
1378.9	9
1381.7	6
1381.8	7
1381.9	9
1382.0	10
1382.1	10
1382.2	10
1382.3	10
1382.4	11
1382.5	11
1382.6	10
1382.7	9
1386.2	8
1386.3	8
1386.4	9
1386.5	10
1386.6	10
1386.7	10
1386.8	9
1386.9	9
1387.0	9
1387.1	9
1387.2	8
1387.3	9
1387.4	10
1387.5	11
1387.6	12
1387.7	13
1387.8	14
1387.9	13
1388.0	12
1388.1	11
1388.2	10
1388.3	9
1388.6	8
1388.7	9
1388.8	11
1388.9	12
1389.0	12
1389.1	11
1389.2	10
1389.3	10
1389.7	9
1389.8	10
1389.9	11
1390.0	12
1390.1	14
1390.2	15
1390.3	14
1390.4	12
1390.5	9
1390.6	7
1390.9	6
1391.0	7
1391.1	9
1391.2	12
1391.3	14
1391.4	15
1391.5	16
1391.6	16
1391.7	15
1391.8	12
1391.9	9
1392.0	7
1392.3	4
1392.4	6
1392.5	7
1392.6	10
1392.7	12
1392.8	14
1392.9	14
1393.0	13
1393.1	11
1393.2	7
1393.3	3
1393.6	2
1393.7	5
1393.8	7
1393.9	8
1394.0	8
1394.1	7
1394.2	7
1394.3	8
1394.4	9
1394.5	11
1394.6	12
1394.7	12
1394.8	10
1394.9	8
1395.0	6
1395.1	4
1395.5	2
1395.6	3
1395.7	5
1395.8	9
1395.9	12
1396.0	15
1396.1	15
1396.2	13
1396.3	10
1396.4	5
1396.5	1
1396.7	0
1396.8	3
1396.9	6
1397.0	9
1397.1	11
1397.2	13
1397.3	13
1397.4	13
1397.5	13
1397.6	13
1397.7	11
1397.8	8
1397.9	5
1398.2	3
1398.3	5
1398.4	7
1398.5	10
1398.6	11
1398.7	12
1398.8	13
1398.9	14
1399.0	15
1399.1	14
1399.2	13
1399.3	12
1399.4	9
1399.5	7
