Mass spectrum: Deltaline; LC-ESI-QQQ; MS2;  Frag=135.0V CID@5.0 ; [M+HCOO]-
Name: Deltaline
Class: Alkaloids
Formula: C27H41NO8
Exact mass: 507.6297200000001
SMILES: CCN1C[C@]2(C)CCC(OC)C34C2[C@H](OC(C)=O)C2(OCO[C@@]25C[C@H](OC)[C@H]2C[C@]3(O)C5[C@H]2OC)[C@@H]14
InChI: InChI=1S/C27H41NO8/c1-7-28-12-23(3)9-8-17(32-5)26-20(23)21(36-14(2)29)27(22(26)28)25(34-13-35-27)11-16(31-4)15-10-24(26,30)19(25)18(15)33-6/h15-22,30H,7-13H2,1-6H3/t15-,16+,17?,18+,19?,20?,21+,22+,23+,24+,25-,26?,27?/m1/s1
Instrument: Agilent 6410 Triple Quadrupole LC/MS system
Instrument type: LC-ESI-QQQ
Ms type: MS2
Ion mode: NEGATIVE
Precursor type: [M+HCOO]-
m/z	relative intensity
50.4	8
50.5	12
50.6	15
50.7	13
50.8	9
51.0	7
51.1	11
51.2	16
51.3	16
51.4	13
51.7	8
51.8	13
51.9	16
52.0	15
52.1	11
52.9	9
53.0	12
53.1	15
53.2	15
53.3	12
53.6	7
53.7	11
53.8	14
53.9	13
54.0	9
54.2	7
54.3	11
54.4	15
54.5	16
54.6	13
54.7	9
54.9	8
55.0	11
55.1	14
55.2	13
55.3	10
55.5	8
55.6	11
55.7	15
55.8	15
55.9	11
56.8	9
56.9	14
57.0	17
57.1	16
57.2	10
57.4	3
57.5	8
57.6	13
57.7	16
57.8	13
58.1	9
58.2	14
58.3	16
58.4	15
58.5	11
58.7	7
58.8	9
58.9	13
59.0	15
59.1	13
60.0	7
60.1	12
60.2	17
60.3	17
60.4	12
60.6	5
60.7	9
60.8	14
60.9	16
61.0	13
61.2	7
61.3	11
61.4	16
61.5	18
61.6	15
61.7	8
61.9	5
62.0	9
62.1	13
62.2	14
62.3	12
62.5	8
62.6	10
62.7	14
62.8	16
62.9	14
63.2	8
63.3	13
63.4	17
63.5	16
63.6	11
63.8	5
63.9	8
64.0	13
64.1	16
64.2	14
64.3	10
64.5	8
64.6	12
64.7	14
64.8	13
65.1	7
65.2	11
65.3	14
65.4	15
65.5	11
66.4	10
66.5	14
66.6	17
66.7	16
66.8	11
67.0	7
67.1	9
67.2	13
67.3	14
67.4	10
67.7	6
67.8	11
67.9	15
68.0	14
68.1	10
68.3	7
68.4	11
68.5	15
68.6	15
68.7	11
68.9	7
69.0	10
69.1	14
69.2	16
69.3	13
69.4	8
69.6	6
69.7	10
69.8	13
69.9	14
70.0	11
70.2	7
70.3	10
70.4	14
70.5	16
70.6	14
70.9	9
71.0	12
71.1	14
71.2	12
71.3	8
71.5	5
71.6	8
71.7	12
71.8	14
71.9	12
72.8	8
72.9	10
73.0	13
73.1	12
73.2	9
73.4	6
73.5	10
73.6	15
73.7	17
73.8	14
73.9	9
74.1	8
74.2	12
74.3	14
74.4	13
74.7	8
74.8	12
74.9	15
75.0	13
75.1	9
75.3	6
75.4	11
75.5	15
75.6	17
75.7	14
75.8	9
76.0	8
76.1	12
76.2	13
76.3	12
76.6	9
76.7	12
76.8	15
76.9	15
77.0	13
77.3	9
77.4	12
77.5	14
77.6	13
77.7	9
77.9	6
78.0	10
78.1	14
78.2	14
78.3	10
78.5	3
78.6	7
78.7	13
78.8	16
78.9	14
79.0	9
79.2	6
79.3	10
79.4	14
79.5	14
79.6	9
79.8	6
79.9	11
80.0	15
80.1	16
80.2	11
80.4	6
80.5	10
80.6	16
80.7	18
80.8	15
80.9	10
81.1	7
81.2	10
81.3	13
81.4	12
81.5	7
81.7	5
81.8	10
81.9	15
82.0	17
82.1	15
82.2	10
82.4	8
82.5	13
82.6	18
82.7	16
82.8	10
83.0	5
83.1	9
83.2	14
83.3	16
83.4	12
83.7	8
83.8	13
83.9	16
84.0	15
84.1	10
84.3	6
84.4	11
84.5	15
84.6	15
84.7	10
84.9	6
85.0	9
85.1	14
85.2	17
85.3	14
85.4	10
85.6	7
85.7	11
85.8	15
85.9	16
86.0	12
86.9	8
87.0	12
87.1	14
87.2	13
87.3	8
87.5	6
87.6	11
87.7	15
87.8	15
87.9	12
89.4	7
89.5	11
89.6	15
89.7	15
89.8	12
90.1	9
90.2	12
90.3	15
90.4	14
90.5	10
90.7	6
90.8	11
90.9	17
91.0	18
91.1	13
91.4	7
91.5	12
91.6	15
91.7	12
92.0	6
92.1	10
92.2	13
92.3	13
92.4	10
92.6	7
92.7	10
92.8	12
92.9	13
93.0	11
93.3	8
93.4	11
93.5	13
93.6	12
93.9	8
94.0	12
94.1	15
94.2	15
94.3	11
94.6	8
94.7	13
94.8	16
94.9	14
95.2	8
95.3	12
95.4	13
95.5	11
95.7	6
95.8	9
95.9	14
96.0	17
96.1	15
96.2	11
96.4	5
96.5	8
96.6	13
96.7	15
96.8	13
97.1	8
97.2	13
97.3	17
97.4	16
97.5	11
97.7	6
97.8	10
97.9	14
98.0	15
98.1	12
98.3	6
98.4	9
98.5	15
98.6	19
98.7	18
98.8	13
99.6	7
99.7	12
99.8	17
99.9	18
100.0	15
100.1	10
100.3	7
100.4	11
100.5	14
100.6	15
100.7	12
101.0	8
101.1	10
101.2	12
101.3	10
101.5	8
101.6	10
101.7	15
101.8	17
101.9	15
102.0	9
102.2	5
102.3	11
102.4	16
102.5	18
102.6	13
102.9	8
103.0	13
103.1	15
103.2	13
104.1	11
104.2	14
104.3	16
104.4	15
104.5	12
104.7	6
104.8	9
104.9	14
105.0	17
105.1	15
105.2	10
105.4	7
105.5	11
105.6	16
105.7	17
105.8	13
105.9	8
106.1	6
106.2	10
106.3	13
106.4	12
106.7	6
106.8	11
106.9	16
107.0	17
107.1	13
107.4	8
107.5	12
107.6	15
107.7	13
108.0	9
108.1	14
108.2	18
108.3	17
108.4	12
108.6	5
108.7	9
108.8	14
108.9	15
109.0	12
109.9	9
110.0	13
110.1	16
110.2	15
110.3	12
110.5	8
110.6	12
110.7	16
110.8	16
110.9	13
111.2	8
111.3	12
111.4	14
111.5	14
111.6	11
111.8	8
111.9	10
112.0	13
112.1	15
112.2	12
113.1	9
113.2	14
113.3	17
113.4	17
113.5	13
113.8	9
113.9	13
114.0	15
114.1	14
114.2	11
114.4	7
114.5	11
114.6	15
114.7	16
114.8	13
115.7	7
115.8	13
115.9	17
116.0	17
116.1	11
117.0	9
117.1	13
117.2	16
117.3	14
117.4	11
117.6	8
117.7	11
117.8	13
117.9	13
118.0	11
118.9	9
119.0	13
119.1	16
119.2	14
119.3	10
120.1	6
120.2	9
120.3	13
120.4	16
120.5	13
120.6	8
120.8	6
120.9	11
121.0	14
121.1	13
121.4	9
121.5	12
121.6	15
121.7	15
121.8	11
122.1	7
122.2	12
122.3	16
122.4	15
122.5	10
122.7	7
122.8	11
122.9	16
123.0	16
123.1	11
123.3	6
123.4	10
123.5	14
123.6	14
123.7	12
124.0	7
124.1	10
124.2	14
124.3	15
124.4	11
124.6	6
124.7	10
124.8	15
124.9	17
125.0	14
125.1	9
125.3	8
125.4	12
125.5	14
125.6	13
125.7	9
125.9	6
126.0	11
126.1	16
126.2	17
126.3	13
126.5	6
126.6	10
126.7	15
126.8	17
126.9	14
127.0	8
127.2	6
127.3	10
127.4	15
127.5	15
127.6	12
127.8	7
127.9	11
128.0	16
128.1	17
128.2	13
129.1	7
129.2	12
129.3	16
129.4	16
129.5	12
129.8	8
129.9	14
130.0	17
130.1	15
130.2	10
130.4	5
130.5	10
130.6	14
130.7	15
130.8	11
131.0	9
131.1	12
131.2	15
131.3	14
131.4	11
131.7	9
131.8	12
131.9	14
132.0	13
132.3	9
132.4	12
132.5	15
132.6	15
132.7	13
133.6	6
133.7	11
133.8	15
133.9	15
134.0	11
134.2	6
134.3	9
134.4	13
134.5	15
134.6	12
135.5	5
135.6	9
135.7	13
135.8	14
135.9	12
136.7	8
136.8	11
136.9	15
137.0	17
137.1	15
137.2	10
137.4	6
137.5	11
137.6	16
137.7	18
137.8	15
137.9	10
138.1	8
138.2	11
138.3	14
138.4	14
138.5	11
138.7	9
138.8	11
138.9	13
139.0	13
139.3	9
139.4	13
139.5	16
139.6	16
139.7	12
140.0	6
140.1	10
140.2	14
140.3	13
140.4	9
140.6	6
140.7	10
140.8	14
140.9	15
141.0	12
141.3	8
141.4	12
141.5	14
141.6	13
141.9	8
142.0	12
142.1	16
142.2	16
142.3	13
143.2	9
143.3	13
143.4	16
143.5	16
143.6	12
144.5	9
144.6	13
144.7	16
144.8	15
144.9	11
145.1	8
145.2	12
145.3	16
145.4	16
145.5	11
145.7	5
145.8	9
145.9	15
146.0	17
146.1	14
146.2	7
146.4	4
146.5	10
146.6	15
146.7	15
146.8	11
147.0	5
147.1	9
147.2	13
147.3	14
147.4	12
147.7	8
147.8	12
147.9	14
148.0	12
148.3	7
148.4	11
148.5	15
148.6	16
148.7	13
149.5	8
149.6	10
149.7	13
149.8	15
149.9	14
150.0	10
150.2	6
150.3	10
150.4	14
150.5	15
150.6	12
150.9	8
151.0	11
151.1	13
151.2	11
151.5	8
151.6	11
151.7	14
151.8	14
151.9	12
152.1	8
152.2	11
152.3	14
152.4	15
152.5	12
152.8	9
152.9	13
153.0	16
153.1	15
153.2	11
153.4	6
153.5	9
153.6	13
153.7	13
153.8	10
154.0	6
154.1	10
154.2	15
154.3	18
154.4	16
154.5	10
154.7	6
154.8	11
154.9	17
155.0	18
155.1	13
156.0	8
156.1	13
156.2	17
156.3	17
156.4	13
156.7	8
156.8	11
156.9	13
157.0	12
157.2	9
157.3	11
157.4	14
157.5	15
157.6	13
157.9	8
158.0	13
158.1	15
158.2	14
158.3	10
158.5	7
158.6	10
158.7	13
158.8	15
158.9	13
159.2	8
159.3	11
159.4	14
159.5	14
159.6	11
159.8	9
159.9	12
160.0	16
160.1	17
160.2	15
160.3	10
160.5	8
160.6	11
160.7	13
160.8	12
160.9	9
161.1	7
161.2	10
161.3	13
161.4	12
161.5	8
161.7	3
161.8	9
161.9	16
162.0	19
162.1	16
162.2	10
162.4	7
162.5	11
162.6	15
162.7	16
162.8	12
163.0	8
163.1	11
163.2	15
163.3	15
163.4	11
163.6	5
163.7	9
163.8	14
163.9	17
164.0	15
164.1	10
164.3	8
164.4	12
164.5	15
164.6	15
164.7	10
164.9	5
165.0	8
165.1	13
165.2	16
165.3	15
165.4	11
165.6	9
165.7	13
165.8	15
165.9	13
166.2	8
166.3	12
166.4	16
166.5	17
166.6	13
166.9	9
167.0	14
167.1	16
167.2	15
167.3	11
167.5	6
167.6	10
167.7	14
167.8	15
167.9	11
168.1	6
168.2	9
168.3	13
168.4	15
168.5	13
168.8	10
168.9	13
169.0	16
169.1	14
169.2	9
169.4	6
169.5	11
169.6	16
169.7	16
169.8	12
170.0	5
170.1	9
170.2	15
170.3	18
170.4	16
170.5	10
170.7	6
170.8	11
170.9	15
171.0	16
171.1	12
171.3	5
171.4	8
171.5	13
171.6	16
171.7	14
171.8	9
172.0	7
172.1	12
172.2	16
172.3	16
172.4	11
172.6	5
172.7	9
172.8	14
172.9	16
173.0	14
173.3	9
173.4	13
173.5	16
173.6	14
173.7	9
173.9	6
174.0	11
174.1	14
174.2	14
174.3	10
174.5	7
174.6	10
174.7	14
174.8	15
174.9	13
175.0	8
175.2	6
175.3	10
175.4	15
175.5	15
175.6	12
175.8	9
175.9	12
176.0	14
176.1	12
176.4	7
176.5	11
176.6	17
176.7	18
176.8	14
176.9	8
177.1	5
177.2	10
177.3	14
177.4	13
177.5	9
177.7	4
177.8	8
177.9	13
178.0	16
178.1	15
178.2	11
178.4	7
178.5	10
178.6	14
178.7	15
178.8	11
179.0	7
179.1	11
179.2	15
179.3	17
179.4	14
180.3	7
180.4	11
180.5	14
180.6	15
180.7	11
181.6	7
181.7	10
181.8	12
181.9	11
182.0	9
182.2	7
182.3	9
182.4	12
182.5	13
182.6	11
183.5	9
183.6	13
183.7	16
183.8	15
183.9	10
184.1	6
184.2	9
184.3	14
184.4	16
184.5	14
184.8	10
184.9	14
185.0	17
185.1	15
185.2	10
185.4	7
185.5	11
185.6	15
185.7	15
185.8	11
186.0	5
186.1	9
186.2	15
186.3	17
186.4	14
186.5	8
186.7	5
186.8	12
186.9	16
187.0	16
187.1	10
187.3	4
187.4	7
187.5	12
187.6	14
187.7	13
187.8	9
188.0	8
188.1	11
188.2	14
188.3	14
188.4	10
188.6	7
188.7	11
188.8	15
188.9	15
189.0	11
189.3	6
189.4	10
189.5	14
189.6	15
189.7	11
189.9	8
190.0	11
190.1	15
190.2	16
190.3	12
190.5	6
190.6	9
190.7	14
190.8	17
190.9	15
191.0	10
191.2	8
191.3	12
191.4	15
191.5	13
191.6	8
191.8	6
191.9	11
192.0	15
192.1	16
192.2	12
192.5	7
192.6	13
192.7	17
192.8	16
192.9	11
194.4	8
194.5	13
194.6	16
194.7	15
194.8	11
195.0	7
195.1	11
195.2	15
195.3	17
195.4	14
195.5	9
195.7	8
195.8	12
195.9	14
196.0	12
196.3	7
196.4	12
196.5	18
196.6	18
196.7	12
196.9	3
197.0	7
197.1	14
197.2	17
197.3	14
197.4	8
197.6	7
197.7	11
197.8	13
197.9	13
198.0	10
198.2	8
198.3	10
198.4	14
198.5	14
198.6	11
198.8	7
198.9	10
199.0	15
199.1	17
199.2	16
199.3	11
199.5	6
199.6	9
199.7	14
199.8	16
199.9	13
201.4	8
201.5	11
201.6	14
201.7	15
201.8	13
201.9	8
202.1	6
202.2	9
202.3	12
202.4	11
202.7	7
202.8	12
202.9	15
203.0	15
203.1	11
203.3	7
203.4	10
203.5	14
203.6	14
203.7	11
203.9	5
204.0	9
204.1	14
204.2	16
204.3	14
204.4	10
204.6	7
204.7	11
204.8	15
204.9	15
205.0	11
205.3	6
205.4	12
205.5	16
205.6	15
205.7	12
205.9	10
206.0	13
206.1	15
206.2	13
206.3	9
206.5	6
206.6	11
206.7	16
206.8	17
206.9	13
207.2	7
207.3	13
207.4	17
207.5	17
207.6	11
207.8	5
207.9	10
208.0	17
208.1	19
208.2	15
208.3	10
208.5	9
208.6	12
208.7	14
208.8	12
209.1	8
209.2	12
209.3	15
209.4	14
209.5	10
209.7	6
209.8	9
209.9	14
210.0	16
210.1	15
210.2	10
210.4	7
210.5	11
210.6	15
210.7	16
210.8	12
211.0	6
211.1	9
211.2	14
211.3	16
211.4	13
211.5	9
211.7	7
211.8	11
211.9	14
212.0	13
212.3	8
212.4	12
212.5	15
212.6	16
212.7	13
213.0	8
213.1	11
213.2	14
213.3	14
213.6	10
213.7	12
213.8	13
213.9	12
214.0	8
214.2	6
214.3	9
214.4	14
214.5	17
214.6	15
214.7	10
214.9	8
215.0	12
215.1	15
215.2	14
215.5	9
215.6	13
215.7	16
215.8	14
215.9	10
216.1	5
216.2	9
216.3	13
216.4	15
216.5	12
217.4	8
217.5	12
217.6	15
217.7	16
217.8	14
218.1	9
218.2	12
218.3	15
218.4	13
218.5	7
218.7	4
218.8	9
218.9	14
219.0	15
219.1	12
219.3	6
219.4	10
219.5	16
219.6	19
219.7	17
219.8	11
220.0	7
220.1	11
220.2	15
220.3	14
220.4	11
220.6	6
220.7	9
220.8	13
220.9	16
221.0	14
221.1	12
221.3	10
221.4	12
221.5	13
221.6	12
221.9	9
222.0	13
222.1	16
222.2	17
222.3	13
223.2	8
223.3	12
223.4	15
223.5	15
223.6	12
223.8	8
223.9	11
224.0	15
224.1	16
224.2	13
225.1	9
225.2	13
225.3	16
225.4	15
225.5	10
225.7	5
225.8	9
225.9	14
226.0	16
226.1	14
226.2	10
226.4	8
226.5	12
226.6	15
226.7	15
226.8	9
227.0	5
227.1	11
227.2	16
227.3	17
227.4	13
228.3	6
228.4	10
228.5	14
228.6	13
228.9	8
229.0	12
229.1	15
229.2	15
229.3	12
229.6	7
229.7	11
229.8	15
229.9	14
230.0	10
230.2	6
230.3	10
230.4	14
230.5	14
230.6	11
230.8	6
230.9	9
231.0	13
231.1	16
231.2	15
231.3	10
231.5	7
231.6	12
231.7	16
231.8	16
231.9	12
232.1	8
232.2	12
232.3	16
232.4	17
232.5	13
232.8	6
232.9	11
233.0	15
233.1	15
233.2	11
233.4	6
233.5	8
233.6	12
233.7	14
233.8	12
233.9	8
234.1	6
234.2	11
234.3	13
234.4	12
234.7	7
234.8	13
234.9	18
235.0	16
235.1	11
235.3	6
235.4	10
235.5	15
235.6	17
235.7	14
235.8	10
236.0	8
236.1	12
236.2	14
236.3	13
236.6	9
236.7	13
236.8	17
236.9	18
237.0	14
237.3	9
237.4	15
237.5	18
237.6	15
237.7	10
237.9	6
238.0	10
238.1	14
238.2	14
238.3	12
240.5	10
240.6	13
240.7	15
240.8	14
240.9	10
241.1	7
241.2	12
241.3	17
241.4	16
241.5	11
241.7	6
241.8	10
241.9	16
242.0	18
242.1	14
242.2	9
242.4	8
242.5	12
242.6	14
242.7	14
242.8	10
243.0	5
243.1	9
243.2	14
243.3	15
243.4	12
243.5	7
243.7	6
243.8	10
243.9	13
244.0	13
244.1	10
244.3	8
244.4	11
244.5	13
244.6	13
244.7	10
244.9	5
245.0	8
245.1	13
245.2	16
245.3	15
245.6	10
245.7	14
245.8	16
245.9	15
246.0	9
246.2	5
246.3	8
246.4	12
246.5	13
246.6	12
246.8	9
246.9	11
247.0	14
247.1	16
247.2	14
247.3	11
247.5	9
247.6	12
247.7	15
247.8	14
247.9	11
248.2	8
248.3	11
248.4	13
248.5	13
249.4	5
249.5	9
249.6	14
249.7	16
249.8	13
250.0	7
250.1	10
250.2	14
250.3	16
250.4	14
250.7	9
250.8	13
250.9	17
251.0	17
251.1	12
252.0	7
252.1	12
252.2	17
252.3	17
252.4	13
252.7	8
252.8	13
252.9	16
253.0	14
253.9	7
254.0	13
254.1	18
254.2	18
254.3	12
254.6	7
254.7	13
254.8	16
254.9	14
255.2	9
255.3	13
255.4	16
255.5	15
255.6	11
255.8	6
255.9	10
256.0	14
256.1	14
256.2	11
256.5	8
256.6	13
256.7	15
256.8	14
256.9	10
257.1	8
257.2	12
257.3	16
257.4	16
257.5	12
258.4	8
258.5	13
258.6	17
258.7	17
258.8	13
259.0	7
259.1	10
259.2	15
259.3	16
259.4	12
259.6	4
259.7	7
259.8	14
259.9	17
260.0	15
260.1	9
260.3	3
260.4	9
260.5	15
260.6	17
260.7	13
261.0	8
261.1	12
261.2	14
261.3	13
261.6	7
261.7	12
261.8	16
261.9	16
262.0	12
262.2	6
262.3	9
262.4	14
262.5	15
262.6	12
263.5	8
263.6	12
263.7	16
263.8	16
263.9	12
264.1	7
264.2	10
264.3	14
264.4	16
264.5	12
264.8	9
264.9	13
265.0	15
265.1	14
265.2	10
265.4	8
265.5	11
265.6	14
265.7	15
265.8	11
266.0	7
266.1	11
266.2	15
266.3	17
266.4	13
266.7	8
266.8	12
266.9	15
267.0	15
267.1	11
267.3	7
267.4	10
267.5	15
267.6	17
267.7	14
267.8	9
268.0	7
268.1	11
268.2	15
268.3	16
268.4	13
269.9	5
270.0	9
270.1	14
270.2	16
270.3	14
270.6	9
270.7	12
270.8	14
270.9	12
271.0	8
271.2	7
271.3	9
271.4	12
271.5	12
271.6	9
271.8	7
271.9	10
272.0	14
272.1	16
272.2	13
272.5	8
272.6	13
272.7	17
272.8	16
272.9	12
273.1	8
273.2	11
273.3	14
273.4	13
273.5	9
273.7	4
273.8	7
273.9	13
274.0	16
274.1	15
274.2	10
274.4	7
274.5	11
274.6	16
274.7	16
274.8	11
275.0	6
275.1	10
275.2	15
275.3	17
275.4	14
275.5	9
275.7	7
275.8	11
275.9	14
276.0	13
276.1	9
276.3	6
276.4	10
276.5	14
276.6	15
276.7	12
278.2	7
278.3	11
278.4	15
278.5	14
278.6	11
278.8	7
278.9	11
279.0	17
279.1	19
279.2	15
279.3	9
279.5	6
279.6	11
279.7	15
279.8	15
279.9	11
280.1	5
280.2	9
280.3	14
280.4	16
280.5	13
280.8	7
280.9	11
281.0	14
281.1	14
281.2	11
281.4	8
281.5	12
281.6	15
281.7	15
281.8	11
282.0	6
282.1	9
282.2	14
282.3	16
282.4	13
282.7	8
282.8	13
282.9	17
283.0	17
283.1	13
283.4	8
283.5	12
283.6	14
283.7	14
283.8	10
284.0	8
284.1	11
284.2	14
284.3	14
284.4	10
284.6	6
284.7	10
284.8	14
284.9	15
285.0	12
285.3	8
285.4	12
285.5	15
285.6	14
285.7	9
285.9	5
286.0	8
286.1	12
286.2	13
286.3	11
286.5	9
286.6	12
286.7	14
286.8	14
286.9	10
287.1	5
287.2	8
287.3	14
287.4	18
287.5	18
287.6	14
288.5	7
288.6	12
288.7	16
288.8	16
288.9	12
289.7	7
289.8	9
289.9	13
290.0	15
290.1	14
290.2	11
290.4	8
290.5	11
290.6	14
290.7	13
290.8	8
291.0	6
291.1	11
291.2	16
291.3	16
291.4	12
292.3	8
292.4	12
292.5	15
292.6	14
292.7	11
292.9	6
293.0	9
293.1	13
293.2	15
293.3	13
293.6	9
293.7	13
293.8	15
293.9	14
294.0	9
294.2	6
294.3	11
294.4	16
294.5	17
294.6	13
294.7	8
294.9	7
295.0	10
295.1	13
295.2	12
295.5	7
295.6	11
295.7	15
295.8	16
295.9	13
296.1	8
296.2	10
296.3	14
296.4	16
296.5	12
296.8	6
296.9	12
297.0	18
297.1	18
297.2	13
297.4	7
297.5	10
297.6	14
297.7	15
297.8	11
298.1	7
298.2	12
298.3	16
298.4	14
298.5	8
298.7	5
298.8	10
298.9	16
299.0	17
299.1	13
299.3	7
299.4	10
299.5	15
299.6	16
299.7	12
300.0	5
300.1	11
300.2	17
300.3	17
300.4	13
300.7	7
300.8	11
300.9	14
301.0	12
301.9	7
302.0	10
302.1	14
302.2	14
302.3	12
302.6	8
302.7	11
302.8	12
302.9	11
303.2	9
303.3	12
303.4	15
303.5	15
303.6	12
304.5	6
304.6	11
304.7	15
304.8	16
304.9	13
305.7	7
305.8	10
305.9	14
306.0	15
306.1	12
307.0	5
307.1	8
307.2	13
307.3	14
307.4	12
307.7	7
307.8	12
307.9	15
308.0	14
308.1	9
308.3	7
308.4	12
308.5	15
308.6	14
308.7	10
308.9	5
309.0	8
309.1	12
309.2	14
309.3	13
310.2	5
310.3	9
310.4	14
310.5	16
310.6	13
311.5	7
311.6	10
311.7	13
311.8	13
311.9	10
312.1	7
312.2	9
312.3	13
312.4	14
312.5	11
312.7	7
312.8	10
312.9	15
313.0	18
313.1	16
313.2	11
314.7	6
314.8	10
314.9	14
315.0	15
315.1	11
315.3	7
315.4	11
315.5	15
315.6	16
315.7	13
316.6	6
316.7	10
316.8	15
316.9	16
317.0	13
317.9	8
318.0	11
318.1	14
318.2	14
318.3	11
318.5	6
318.6	8
318.7	14
318.8	17
318.9	16
319.0	11
319.2	8
319.3	11
319.4	14
319.5	13
319.8	9
319.9	12
320.0	15
320.1	15
320.2	11
320.4	5
320.5	9
320.6	14
320.7	16
320.8	13
321.1	7
321.2	12
321.3	16
321.4	16
321.5	12
321.8	8
321.9	12
322.0	14
322.1	13
323.0	7
323.1	11
323.2	15
323.3	16
323.4	13
323.7	7
323.8	11
323.9	14
324.0	14
324.3	10
324.4	14
324.5	17
324.6	16
324.7	10
324.9	3
325.0	8
325.1	15
325.2	18
325.3	16
325.4	11
325.6	7
325.7	10
325.8	13
325.9	13
326.0	9
326.2	6
326.3	10
326.4	13
326.5	13
326.6	11
326.8	7
326.9	10
327.0	13
327.1	14
327.2	12
327.5	8
327.6	12
327.7	14
327.8	13
327.9	10
328.1	7
328.2	9
328.3	12
328.4	14
328.5	13
328.8	7
328.9	12
329.0	16
329.1	15
329.2	10
329.4	8
329.5	12
329.6	15
329.7	16
329.8	12
330.0	6
330.1	9
330.2	14
330.3	18
330.4	16
330.5	11
330.7	8
330.8	13
330.9	17
331.0	17
331.1	13
331.3	7
331.4	11
331.5	15
331.6	18
331.7	15
331.8	9
332.0	7
332.1	11
332.2	14
332.3	12
332.6	9
332.7	12
332.8	15
332.9	14
333.0	10
333.2	4
333.3	7
333.4	12
333.5	15
333.6	14
333.7	10
333.9	8
334.0	12
334.1	15
334.2	14
334.3	9
334.5	6
334.6	11
334.7	17
334.8	19
334.9	15
335.0	8
335.2	7
335.3	12
335.4	16
335.5	15
335.6	11
335.8	8
335.9	12
336.0	16
336.1	17
336.2	13
336.3	8
336.5	7
336.6	11
336.7	13
336.8	11
337.0	5
337.1	8
337.2	13
337.3	17
337.4	17
337.5	14
338.3	5
338.4	8
338.5	13
338.6	16
338.7	15
338.8	10
339.7	7
339.8	11
339.9	14
340.0	13
340.3	7
340.4	12
340.5	16
340.6	15
340.7	11
341.6	8
341.7	11
341.8	14
341.9	13
342.0	10
342.2	6
342.3	8
342.4	12
342.5	14
342.6	12
342.9	7
343.0	13
343.1	18
343.2	17
343.3	11
343.5	5
343.6	10
343.7	14
343.8	15
343.9	12
344.1	8
344.2	11
344.3	15
344.4	16
344.5	12
344.8	7
344.9	13
345.0	17
345.1	17
345.2	12
346.7	11
346.8	15
346.9	18
347.0	19
347.1	17
347.2	13
348.0	0
348.1	5
348.2	10
348.3	12
348.4	10
348.6	6
348.7	9
348.8	13
348.9	14
349.0	11
349.2	7
349.3	10
349.4	15
349.5	17
349.6	15
349.7	11
349.9	9
350.0	12
350.1	15
350.2	15
350.3	11
350.5	7
350.6	10
350.7	14
350.8	16
350.9	13
351.2	8
351.3	12
351.4	16
351.5	16
351.6	12
352.4	6
352.5	9
352.6	14
352.7	16
352.8	13
353.1	7
353.2	13
353.3	17
353.4	16
353.5	12
353.7	6
353.8	9
353.9	13
354.0	15
354.1	13
354.4	7
354.5	12
354.6	16
354.7	16
354.8	12
355.0	8
355.1	10
355.2	14
355.3	15
355.4	13
355.7	7
355.8	11
355.9	15
356.0	15
356.1	11
356.3	8
356.4	11
356.5	14
356.6	14
356.7	12
356.9	8
357.0	10
357.1	14
357.2	15
357.3	13
357.4	10
357.6	8
357.7	12
357.8	15
357.9	15
358.0	12
358.8	7
358.9	10
359.0	16
359.1	18
359.2	16
359.3	10
359.5	6
359.6	11
359.7	14
359.8	14
359.9	11
360.1	6
360.2	8
360.3	13
360.4	15
360.5	15
360.6	12
360.8	9
360.9	12
361.0	16
361.1	15
361.2	11
361.4	6
361.5	9
361.6	14
361.7	16
361.8	14
362.1	10
362.2	13
362.3	16
362.4	14
362.5	10
362.7	7
362.8	11
362.9	15
363.0	16
363.1	13
363.3	9
363.4	12
363.5	16
363.6	17
363.7	14
364.0	7
364.1	13
364.2	17
364.3	16
364.4	11
364.6	7
364.7	11
364.8	14
364.9	14
365.0	10
365.2	5
365.3	8
365.4	14
365.5	17
365.6	16
365.7	11
365.9	7
366.0	10
366.1	13
366.2	15
366.3	13
367.2	8
367.3	11
367.4	13
367.5	12
367.8	7
367.9	11
368.0	15
368.1	16
368.2	13
369.1	7
369.2	11
369.3	15
369.4	15
369.5	12
369.8	8
369.9	13
370.0	17
370.1	15
370.2	10
370.4	7
370.5	12
370.6	15
370.7	14
370.8	9
371.0	7
371.1	11
371.2	15
371.3	15
371.4	12
371.7	7
371.8	13
371.9	17
372.0	16
372.1	10
372.3	6
372.4	10
372.5	15
372.6	15
372.7	12
373.6	7
373.7	11
373.8	15
373.9	15
374.0	11
374.2	8
374.3	12
374.4	15
374.5	15
374.6	12
374.8	8
374.9	12
375.0	16
375.1	17
375.2	13
375.5	8
375.6	12
375.7	15
375.8	14
375.9	12
376.1	9
376.2	12
376.3	16
376.4	16
376.5	12
376.8	6
376.9	12
377.0	16
377.1	16
377.2	11
377.4	7
377.5	12
377.6	17
377.7	18
377.8	15
377.9	9
378.1	7
378.2	11
378.3	15
378.4	15
378.5	11
378.7	7
378.8	11
378.9	15
379.0	17
379.1	14
379.4	8
379.5	13
379.6	16
379.7	14
379.8	9
380.0	6
380.1	11
380.2	14
380.3	14
380.4	10
380.6	6
380.7	9
380.8	13
380.9	13
381.0	11
381.2	6
381.3	10
381.4	14
381.5	15
381.6	13
381.9	8
382.0	12
382.1	15
382.2	13
382.3	9
382.5	5
382.6	9
382.7	14
382.8	17
382.9	15
383.0	9
383.2	5
383.3	10
383.4	15
383.5	15
383.6	10
383.8	6
383.9	9
384.0	13
384.1	15
384.2	12
384.5	8
384.6	12
384.7	15
384.8	13
384.9	9
385.1	7
385.2	10
385.3	13
385.4	14
385.5	11
385.7	7
385.8	9
385.9	13
386.0	15
386.1	13
386.4	8
386.5	13
386.6	16
386.7	14
386.8	9
387.0	5
387.1	10
387.2	16
387.3	17
387.4	13
387.7	9
387.8	14
387.9	17
388.0	16
388.1	12
388.3	8
388.4	11
388.5	14
388.6	15
388.7	11
388.9	6
389.0	9
389.1	13
389.2	14
389.3	11
389.6	7
389.7	13
389.8	16
389.9	14
390.0	9
390.2	5
390.3	9
390.4	13
390.5	14
390.6	12
390.8	8
390.9	11
391.0	14
391.1	15
391.2	12
391.5	7
391.6	11
391.7	15
391.8	15
391.9	12
392.1	7
392.2	10
392.3	15
392.4	17
392.5	14
392.6	9
392.8	7
392.9	12
393.0	16
393.1	16
393.2	12
393.4	7
393.5	11
393.6	15
393.7	16
393.8	12
394.7	6
394.8	10
394.9	13
395.0	13
395.1	9
395.3	6
395.4	9
395.5	12
395.6	14
395.7	12
396.0	8
396.1	10
396.2	13
396.3	13
396.4	11
396.6	8
396.7	10
396.8	13
396.9	14
397.0	12
397.3	8
397.4	12
397.5	15
397.6	13
397.9	9
398.0	14
398.1	18
398.2	17
398.3	13
398.4	8
398.6	7
398.7	11
398.8	13
398.9	12
399.1	5
399.2	9
399.3	15
399.4	19
399.5	17
399.6	11
399.8	5
399.9	9
400.0	12
400.1	13
400.2	10
400.4	5
400.5	9
400.6	14
400.7	17
400.8	14
400.9	9
401.1	7
401.2	12
401.3	15
401.4	14
401.5	10
401.7	6
401.8	10
401.9	14
402.0	15
402.1	12
402.4	9
402.5	12
402.6	14
402.7	13
403.0	7
403.1	12
403.2	17
403.3	17
403.4	13
403.7	8
403.8	12
403.9	14
404.0	13
404.1	9
404.3	6
404.4	10
404.5	14
404.6	14
404.7	11
405.0	7
405.1	12
405.2	16
405.3	14
405.4	10
405.6	8
405.7	12
405.8	15
405.9	14
406.0	10
406.2	6
406.3	10
406.4	15
406.5	16
406.6	13
406.9	10
407.0	14
407.1	17
407.2	16
407.3	12
407.5	6
407.6	9
407.7	14
407.8	17
407.9	14
408.0	9
408.2	7
408.3	11
408.4	13
408.5	11
408.7	7
408.8	11
408.9	14
409.0	15
409.1	13
409.4	9
409.5	12
409.6	15
409.7	15
409.8	11
410.1	8
410.2	12
410.3	15
410.4	14
410.5	10
410.7	5
410.8	8
410.9	12
411.0	14
411.1	12
411.4	8
411.5	12
411.6	15
411.7	15
411.8	12
412.6	7
412.7	10
412.8	14
412.9	16
413.0	13
413.3	7
413.4	12
413.5	14
413.6	13
413.7	9
413.9	7
414.0	11
414.1	15
414.2	15
414.3	11
414.5	7
414.6	11
414.7	17
414.8	18
414.9	14
415.2	8
415.3	14
415.4	17
415.5	16
415.6	10
415.8	4
415.9	9
416.0	15
416.1	17
416.2	14
416.5	9
416.6	12
416.7	14
416.8	13
417.1	8
417.2	11
417.3	14
417.4	14
417.5	11
417.7	6
417.8	9
417.9	13
418.0	15
418.1	14
418.4	9
418.5	13
418.6	15
418.7	14
418.8	10
419.0	6
419.1	11
419.2	16
419.3	17
419.4	12
419.6	5
419.7	9
419.8	15
419.9	17
420.0	15
420.1	10
420.3	7
420.4	11
420.5	14
420.6	14
420.7	11
420.9	7
421.0	10
421.1	15
421.2	17
421.3	14
421.4	9
421.6	7
421.7	12
421.8	16
421.9	16
422.0	12
422.8	7
422.9	10
423.0	15
423.1	18
423.2	16
423.3	10
423.5	5
423.6	9
423.7	14
423.8	15
423.9	13
424.1	9
424.2	12
424.3	16
424.4	16
424.5	12
424.8	7
424.9	13
425.0	16
425.1	14
425.2	9
425.4	7
425.5	11
425.6	15
425.7	15
425.8	12
426.1	9
426.2	12
426.3	14
426.4	14
426.5	11
426.7	7
426.8	9
426.9	13
427.0	14
427.1	11
427.3	7
427.4	10
427.5	15
427.6	17
427.7	13
428.0	6
428.1	12
428.2	16
428.3	16
428.4	13
429.3	8
429.4	12
429.5	15
429.6	14
429.7	11
429.9	8
430.0	12
430.1	16
430.2	16
430.3	11
430.5	5
430.6	9
430.7	15
430.8	16
430.9	13
431.2	8
431.3	13
431.4	16
431.5	15
431.6	11
431.8	8
431.9	11
432.0	15
432.1	16
432.2	12
433.1	7
433.2	13
433.3	18
433.4	17
433.5	12
433.7	5
433.8	9
433.9	14
434.0	16
434.1	13
434.4	7
434.5	12
434.6	17
434.7	17
434.8	12
435.0	7
435.1	10
435.2	14
435.3	15
435.4	10
435.7	6
435.8	10
435.9	14
436.0	13
436.1	10
436.3	7
436.4	10
436.5	13
436.6	14
436.7	12
436.9	9
437.0	11
437.1	14
437.2	14
437.3	12
437.6	6
437.7	11
437.8	16
437.9	16
438.0	12
438.2	6
438.3	10
438.4	14
438.5	15
438.6	13
438.9	10
439.0	13
439.1	14
439.2	13
439.3	10
439.5	7
439.6	11
439.7	16
439.8	17
439.9	14
441.4	7
441.5	10
441.6	14
441.7	15
441.8	12
442.1	8
442.2	12
442.3	15
442.4	14
442.5	9
442.7	6
442.8	10
442.9	14
443.0	14
443.1	11
443.3	9
443.4	12
443.5	15
443.6	16
443.7	13
444.0	9
444.1	14
444.2	16
444.3	15
444.4	10
444.6	6
444.7	10
444.8	15
444.9	16
445.0	12
445.2	6
445.3	9
445.4	14
445.5	17
445.6	16
445.7	10
445.9	7
446.0	11
446.1	15
446.2	15
446.3	10
446.5	4
446.6	7
446.7	12
446.8	15
446.9	13
447.0	9
447.2	7
447.3	10
447.4	13
447.5	12
447.8	9
447.9	13
448.0	15
448.1	15
448.2	11
448.4	7
448.5	11
448.6	15
448.7	16
448.8	13
449.1	7
449.2	12
449.3	15
449.4	14
449.5	10
449.7	5
449.8	8
449.9	12
450.0	14
450.1	12
450.4	6
450.5	11
450.6	15
450.7	16
450.8	12
451.0	6
451.1	10
451.2	14
451.3	15
451.4	12
451.6	7
451.7	10
451.8	13
451.9	15
452.0	13
452.1	9
452.3	7
452.4	10
452.5	14
452.6	14
452.7	11
452.9	5
453.0	8
453.1	14
453.2	17
453.3	15
453.4	10
453.6	6
453.7	11
453.8	14
453.9	14
454.2	10
454.3	13
454.4	16
454.5	16
454.6	12
454.9	8
455.0	13
455.1	16
455.2	15
455.3	12
455.5	9
455.6	12
455.7	15
455.8	15
455.9	12
456.8	10
456.9	13
457.0	15
457.1	13
457.2	10
457.4	6
457.5	10
457.6	14
457.7	15
457.8	11
458.1	8
458.2	13
458.3	16
458.4	15
458.5	11
458.7	7
458.8	10
458.9	13
459.0	13
459.1	11
459.3	9
459.4	11
459.5	14
459.6	15
459.7	13
459.8	9
460.0	8
460.1	11
460.2	15
460.3	16
460.4	14
461.3	8
461.4	12
461.5	15
461.6	15
461.7	11
461.9	8
462.0	11
462.1	14
462.2	14
462.3	10
462.5	6
462.6	9
462.7	13
462.8	16
462.9	14
463.0	9
463.2	6
463.3	10
463.4	14
463.5	13
463.6	9
463.8	7
463.9	11
464.0	14
464.1	15
464.2	11
464.5	8
464.6	12
464.7	15
464.8	14
464.9	10
465.1	7
465.2	10
465.3	14
465.4	14
465.5	11
466.4	7
466.5	12
466.6	16
466.7	15
466.8	11
467.0	8
467.1	10
467.2	13
467.3	13
467.4	10
467.6	6
467.7	10
467.8	15
467.9	17
468.0	15
468.1	10
468.3	8
468.4	13
468.5	16
468.6	15
468.7	9
468.9	5
469.0	9
469.1	15
469.2	16
469.3	13
469.6	7
469.7	11
469.8	14
469.9	14
470.0	11
470.2	8
470.3	12
470.4	16
470.5	16
470.6	13
471.5	8
471.6	11
471.7	14
471.8	16
471.9	14
472.2	8
472.3	13
472.4	16
472.5	15
472.6	10
472.8	7
472.9	11
473.0	15
473.1	15
473.2	10
473.4	4
473.5	8
473.6	13
473.7	16
473.8	15
474.1	10
474.2	13
474.3	15
474.4	13
474.5	9
474.7	7
474.8	12
474.9	16
475.0	17
475.1	12
476.0	8
476.1	12
476.2	15
476.3	13
476.4	9
476.6	5
476.7	9
476.8	14
476.9	15
477.0	13
477.9	7
478.0	12
478.1	16
478.2	16
478.3	12
478.6	8
478.7	12
478.8	15
478.9	13
479.2	9
479.3	13
479.4	16
479.5	15
479.6	11
479.8	7
479.9	10
480.0	14
480.1	16
480.2	13
480.5	8
480.6	13
480.7	16
480.8	14
480.9	10
481.1	8
481.2	12
481.3	16
481.4	15
481.5	11
481.7	7
481.8	10
481.9	14
482.0	15
482.1	13
482.4	8
482.5	11
482.6	13
482.7	13
482.8	11
483.0	8
483.1	11
483.2	16
483.3	17
483.4	14
483.7	8
483.8	14
483.9	18
484.0	16
484.1	11
484.3	8
484.4	12
484.5	15
484.6	14
484.7	11
484.9	7
485.0	10
485.1	13
485.2	15
485.3	14
485.4	10
485.6	8
485.7	12
485.8	15
485.9	15
486.0	12
486.2	8
486.3	11
486.4	14
486.5	16
486.6	13
487.5	8
487.6	12
487.7	15
487.8	15
487.9	11
488.8	7
488.9	12
489.0	16
489.1	15
489.2	10
489.4	5
489.5	9
489.6	14
489.7	16
489.8	13
490.1	9
490.2	12
490.3	14
490.4	14
490.5	10
490.7	7
490.8	10
490.9	13
491.0	14
491.1	11
491.3	7
491.4	10
491.5	15
491.6	17
491.7	13
492.0	8
492.1	12
492.2	14
492.3	12
492.6	8
492.7	12
492.8	15
492.9	14
493.0	10
493.9	5
494.0	9
494.1	13
494.2	14
494.3	11
494.5	6
494.6	9
494.7	13
494.8	15
494.9	14
495.2	9
495.3	13
495.4	15
495.5	14
495.6	10
495.8	7
495.9	10
496.0	13
496.1	14
496.2	11
496.4	7
496.5	10
496.6	14
496.7	16
496.8	13
497.1	9
497.2	13
497.3	16
497.4	14
497.5	10
497.7	8
497.8	11
497.9	15
498.0	16
498.1	13
498.4	6
498.5	12
498.6	17
498.7	17
498.8	12
499.6	7
499.7	9
499.8	12
499.9	14
500.0	12
500.3	10
500.4	13
500.5	16
500.6	15
500.7	11
500.9	8
501.0	10
501.1	13
501.2	14
501.3	12
501.6	8
501.7	12
501.8	15
501.9	14
502.0	10
502.2	7
502.3	12
502.4	16
502.5	16
502.6	12
502.9	7
503.0	13
503.1	16
503.2	15
503.3	10
503.5	5
503.6	10
503.7	16
503.8	17
503.9	13
504.0	7
504.2	6
504.3	10
504.4	13
504.5	11
504.8	6
504.9	11
505.0	14
505.1	13
505.2	8
505.4	4
505.5	10
505.6	16
505.7	18
505.8	14
506.1	6
506.2	13
506.3	18
506.4	18
506.5	13
506.7	6
506.8	11
506.9	16
507.0	18
507.1	13
507.9	5
508.0	9
508.1	14
508.2	17
508.3	16
508.4	10
508.6	5
508.7	9
508.8	14
508.9	15
509.0	12
509.3	7
509.4	12
509.5	16
509.6	15
509.7	11
509.9	7
510.0	11
510.1	15
510.2	15
510.3	12
511.2	8
511.3	11
511.4	12
511.5	12
511.8	11
511.9	14
512.0	16
512.1	16
512.2	12
512.5	8
512.6	13
512.7	17
512.8	15
512.9	10
513.1	8
513.2	12
513.3	14
513.4	13
513.5	9
513.7	5
513.8	9
513.9	15
514.0	17
514.1	15
514.2	11
514.4	8
514.5	12
514.6	15
514.7	14
514.8	10
515.0	6
515.1	9
515.2	13
515.3	15
515.4	13
515.7	10
515.8	14
515.9	17
516.0	15
516.1	11
516.3	7
516.4	11
516.5	16
516.6	17
516.7	13
517.0	9
517.1	13
517.2	15
517.3	13
517.6	10
517.7	13
517.8	14
517.9	13
518.0	8
518.2	5
518.3	9
518.4	13
518.5	13
518.6	10
518.8	5
518.9	9
519.0	13
519.1	16
519.2	14
519.3	9
519.5	6
519.6	10
519.7	14
519.8	14
519.9	11
520.1	7
520.2	10
520.3	14
520.4	15
520.5	12
520.6	8
520.8	7
520.9	10
521.0	12
521.1	12
521.4	7
521.5	11
521.6	15
521.7	15
521.8	12
522.0	6
522.1	10
522.2	15
522.3	17
522.4	14
522.5	8
522.7	5
522.8	10
522.9	15
523.0	16
523.1	12
523.3	8
523.4	11
523.5	15
523.6	16
523.7	12
524.0	7
524.1	10
524.2	14
524.3	14
524.4	11
524.6	7
524.7	10
524.8	13
524.9	15
525.0	12
525.3	9
525.4	13
525.5	15
525.6	14
525.7	9
525.9	5
526.0	9
526.1	13
526.2	14
526.3	12
526.5	8
526.6	10
526.7	14
526.8	15
526.9	12
527.2	8
527.3	12
527.4	15
527.5	14
527.6	11
527.8	8
527.9	11
528.0	14
528.1	15
528.2	13
528.5	9
528.6	13
528.7	16
528.8	16
528.9	12
529.1	6
529.2	10
529.3	14
529.4	15
529.5	13
529.7	8
529.8	12
529.9	16
530.0	17
530.1	12
531.0	7
531.1	12
531.2	17
531.3	17
531.4	12
531.6	6
531.7	9
531.8	13
531.9	15
532.0	13
532.1	9
532.3	7
532.4	11
532.5	14
532.6	14
532.7	11
533.5	6
533.6	9
533.7	14
533.8	16
533.9	15
534.0	11
534.2	6
534.3	9
534.4	13
534.5	14
534.6	11
535.5	7
535.6	10
535.7	14
535.8	16
535.9	14
536.0	9
536.2	8
536.3	12
536.4	14
536.5	13
536.8	9
536.9	14
537.0	17
537.1	16
537.2	10
537.4	5
537.5	9
537.6	13
537.7	15
537.8	12
538.1	7
538.2	12
538.3	15
538.4	13
538.7	7
538.8	12
538.9	17
539.0	17
539.1	14
540.0	6
540.1	9
540.2	13
540.3	13
540.4	9
540.6	6
540.7	10
540.8	14
540.9	15
541.0	12
541.9	5
542.0	9
542.1	13
542.2	15
542.3	13
543.2	8
543.3	13
543.4	17
543.5	16
543.6	12
544.4	6
544.5	9
544.6	14
544.7	16
544.8	13
544.9	8
545.1	6
545.2	11
545.3	15
545.4	15
545.5	12
545.7	7
545.8	11
545.9	15
546.0	15
546.1	11
546.4	4
546.5	11
546.6	15
546.7	14
546.8	11
547.0	7
547.1	10
547.2	14
547.3	14
547.4	11
547.6	6
547.7	9
547.8	15
547.9	17
548.0	14
548.1	8
548.3	5
548.4	11
548.5	17
548.6	17
548.7	12
548.9	6
549.0	10
549.1	16
549.2	18
549.3	15
549.4	9
549.6	7
549.7	13
549.8	17
549.9	15
550.0	8
550.2	3
550.3	8
550.4	15
550.5	17
550.6	14
551.5	4
551.6	12
551.7	21
551.8	27
551.9	32
552.0	43
552.1	59
552.2	63
552.3	48
552.4	26
552.5	10
552.7	6
552.8	9
552.9	14
553.0	17
553.1	15
553.2	11
553.4	8
553.5	12
553.6	15
553.7	14
553.8	10
554.0	6
554.1	10
554.2	15
554.3	18
554.4	16
554.5	11
554.7	8
554.8	12
554.9	15
555.0	15
555.1	12
555.3	7
555.4	10
555.5	14
555.6	16
555.7	13
556.0	7
556.1	12
556.2	15
556.3	14
556.4	10
556.6	6
556.7	10
556.8	14
556.9	16
557.0	13
557.3	8
557.4	13
557.5	17
557.6	15
557.9	8
558.0	14
558.1	18
558.2	17
558.3	13
558.5	7
558.6	10
558.7	14
558.8	16
558.9	13
559.2	8
559.3	12
559.4	15
559.5	14
559.6	10
559.8	6
559.9	10
560.0	13
560.1	15
560.2	12
560.5	8
560.6	12
560.7	16
560.8	14
560.9	9
561.1	5
561.2	9
561.3	14
561.4	16
561.5	14
561.8	9
561.9	14
562.0	16
562.1	14
562.2	9
562.4	7
562.5	11
562.6	14
562.7	15
562.8	12
563.0	8
563.1	11
563.2	15
563.3	15
563.4	12
563.6	7
563.7	10
563.8	15
563.9	17
564.0	14
564.1	9
564.3	7
564.4	12
564.5	17
564.6	17
564.7	13
565.0	8
565.1	12
565.2	14
565.3	13
566.2	6
566.3	12
566.4	16
566.5	17
566.6	13
566.8	9
566.9	11
567.0	15
567.1	17
567.2	14
567.3	9
567.5	7
567.6	11
567.7	15
567.8	17
567.9	14
568.2	8
568.3	12
568.4	15
568.5	14
568.8	9
568.9	13
569.0	15
569.1	12
569.4	7
569.5	13
569.6	17
569.7	16
569.8	11
570.0	6
570.1	9
570.2	14
570.3	17
570.4	15
570.5	10
570.7	6
570.8	11
570.9	16
571.0	16
571.1	13
572.0	8
572.1	13
572.2	16
572.3	15
572.4	11
572.6	8
572.7	11
572.8	14
572.9	15
573.0	11
573.3	7
573.4	12
573.5	14
573.6	13
573.7	10
573.9	8
574.0	11
574.1	13
574.2	13
574.3	9
574.5	6
574.6	9
574.7	14
574.8	15
574.9	11
575.1	5
575.2	8
575.3	13
575.4	16
575.5	14
575.6	9
575.8	7
575.9	10
576.0	14
576.1	15
576.2	11
576.5	9
576.6	13
576.7	16
576.8	15
576.9	11
577.1	8
577.2	12
577.3	15
577.4	15
577.5	11
577.8	7
577.9	12
578.0	16
578.1	15
578.2	11
578.4	8
578.5	11
578.6	14
578.7	14
578.8	10
579.0	6
579.1	10
579.2	15
579.3	16
579.4	13
580.3	9
580.4	14
580.5	17
580.6	17
580.7	14
581.6	7
581.7	11
581.8	14
581.9	13
582.0	10
582.2	7
582.3	10
582.4	14
582.5	15
582.6	13
582.9	9
583.0	14
583.1	18
583.2	16
583.3	10
583.5	6
583.6	10
583.7	14
583.8	15
583.9	12
584.2	9
584.3	14
584.4	17
584.5	15
584.6	10
584.8	7
584.9	11
585.0	14
585.1	14
585.2	10
585.4	8
585.5	12
585.6	15
585.7	16
585.8	14
586.7	7
586.8	12
586.9	16
587.0	14
587.1	9
587.3	5
587.4	9
587.5	14
587.6	15
587.7	13
588.0	8
588.1	13
588.2	16
588.3	13
588.4	8
588.6	5
588.7	10
588.8	15
588.9	15
589.0	12
590.5	6
590.6	9
590.7	12
590.8	14
590.9	11
591.2	8
591.3	12
591.4	16
591.5	15
591.6	11
591.8	7
591.9	10
592.0	14
592.1	15
592.2	12
592.5	9
592.6	14
592.7	17
592.8	16
592.9	12
593.1	9
593.2	12
593.3	15
593.4	15
593.5	10
593.7	5
593.8	9
593.9	15
594.0	17
594.1	15
594.4	9
594.5	14
594.6	17
594.7	16
594.8	12
595.0	7
595.1	10
595.2	15
595.3	16
595.4	13
596.3	7
596.4	12
596.5	16
596.6	17
596.7	14
597.6	9
597.7	14
597.8	18
597.9	15
598.0	9
598.2	4
598.3	9
598.4	14
598.5	15
598.6	12
598.9	9
599.0	13
599.1	16
599.2	15
599.3	11
