Mass spectrum: Mangiferin; LC-ESI-QQQ; MS2; Frag=135.0V CID@5.0; [M+H]+
Name: Mangiferin
Class: Polyketides
Formula: C19H18O11
Exact mass: 422.3487
SMILES: O=c1c2cc(O)c(O)cc2oc2cc(O)c([C@@H]3O[C@H](CO)[C@@H](O)[C@H](O)[C@H]3O)c(O)c12
InChI: InChI=1S/C19H18O11/c20-4-11-15(25)17(27)18(28)19(30-11)12-8(23)3-10-13(16(12)26)14(24)5-1-6(21)7(22)2-9(5)29-10/h1-3,11,15,17-23,25-28H,4H2/t11-,15-,17+,18-,19+/m1/s1
Instrument: Agilent 6410 Triple Quadrupole LC/MS system
Instrument type: LC-ESI-QQQ
Ms type: MS2
Ion mode: POSITIVE
Precursor type: [M+H]+
m/z	relative intensity
272.7	3
272.8	4
272.9	6
273.0	7
273.1	7
273.2	6
273.3	3
302.4	2
302.5	3
302.6	5
302.7	8
302.8	12
302.9	16
303.0	19
303.1	20
303.2	19
303.3	15
303.4	9
303.5	2
326.5	2
326.6	4
326.7	6
326.8	10
326.9	13
327.0	16
327.1	16
327.2	14
327.3	10
327.4	5
327.5	1
356.4	1
356.5	2
356.6	4
356.7	8
356.8	12
356.9	15
357.0	16
357.1	15
357.2	12
357.3	7
357.4	3
368.6	2
368.7	3
368.8	5
368.9	7
369.0	8
369.1	8
369.2	6
369.3	4
369.4	2
386.5	1
386.6	2
386.7	4
386.8	6
386.9	8
387.0	10
387.1	12
387.2	12
387.3	9
387.4	5
387.5	1
404.4	3
404.5	4
404.6	6
404.7	10
404.8	18
404.9	25
405.0	30
405.1	31
405.2	28
405.3	22
405.4	14
405.5	6
405.6	0
422.2	1
422.3	2
422.4	4
422.5	10
422.6	20
422.7	37
422.8	60
422.9	82
423.0	96
423.1	99
423.2	93
423.3	76
423.4	51
423.5	24
423.6	5
423.7	0
