Mass spectrum: Alloside B; LC-ESI-QQQ; MS2; Frag=135.0V CID@15.0; [M+Na]+
Name: Alloside B
Class: Steroids
Formula: C39H66O14
Exact mass: 758.9525
SMILES: CC(C)CCC(O)[C@@H](C)C1C(O[C@@H]2OC(CO)[C@@H](O)C(O)C2O)CC2C3CC=C4C[C@@H](O)CC(O[C@@H]5OC(CO)[C@@H](O)C(O)C5O)[C@]4(C)C3CC[C@@]21C
InChI: InChI=1S/C39H66O14/c1-17(2)6-9-24(43)18(3)29-25(50-36-34(48)32(46)30(44)26(15-40)51-36)14-23-21-8-7-19-12-20(42)13-28(39(19,5)22(21)10-11-38(23,29)4)53-37-35(49)33(47)31(45)27(16-41)52-37/h7,17-18,20-37,40-49H,6,8-16H2,1-5H3/t18-,20-,21?,22?,23?,24?,25?,26?,27?,28?,29?,30-,31-,32?,33?,34?,35?,36-,37+,38+,39+/m1/s1
Instrument: Agilent 6410 Triple Quadrupole LC/MS system
Instrument type: LC-ESI-QQQ
Ms type: MS2
Ion mode: POSITIVE
Precursor type: [M+Na]+
m/z	relative intensity
96.0	3
96.1	3
96.2	4
96.3	5
96.4	5
96.5	5
96.6	4
96.7	4
96.8	4
96.9	3
97.0	3
97.1	3
97.2	4
97.3	4
97.4	5
97.5	5
97.6	5
97.7	5
97.8	4
97.9	4
98.0	4
98.1	3
98.2	3
98.3	4
98.4	4
98.5	4
98.6	4
98.7	4
98.8	5
98.9	4
99.0	4
99.1	4
99.2	4
99.3	3
99.4	3
99.5	4
99.6	4
99.7	5
99.8	5
99.9	4
144.1	3
144.2	4
144.3	5
144.4	5
144.5	5
144.6	5
144.7	4
153.0	3
153.1	4
153.2	5
153.3	5
153.4	5
153.5	5
153.6	5
153.7	5
153.8	4
153.9	4
154.0	3
154.1	3
154.2	3
154.3	4
154.4	4
154.5	4
154.6	4
154.7	4
154.8	4
154.9	4
155.0	4
155.1	4
155.2	4
155.3	3
155.4	4
155.5	4
155.6	4
155.7	5
155.8	5
155.9	5
156.0	4
156.1	4
156.2	4
156.3	4
156.4	4
156.5	4
156.6	4
156.7	3
156.8	3
156.9	4
157.0	4
157.1	4
157.2	4
157.3	5
157.4	5
157.5	4
157.6	4
157.7	4
157.8	4
157.9	4
158.0	4
158.1	3
158.2	3
158.3	2
158.4	2
158.5	3
158.6	3
158.7	4
158.8	4
158.9	5
159.0	5
159.1	5
159.2	5
159.3	5
159.4	4
159.5	4
159.6	3
159.7	3
159.8	3
159.9	3
160.0	3
160.1	4
160.2	4
160.3	4
160.4	4
160.5	4
160.6	3
160.7	3
160.8	3
160.9	4
161.0	4
161.1	5
161.2	5
161.3	5
161.4	4
161.5	4
161.6	4
161.7	4
161.8	4
161.9	4
162.0	4
162.1	4
162.2	4
162.3	4
162.4	4
162.5	4
162.6	4
162.7	3
162.8	3
162.9	3
163.0	3
163.1	4
163.2	4
163.3	4
163.4	4
163.5	4
163.6	4
163.7	4
163.8	4
163.9	4
164.0	4
164.1	3
164.2	3
164.3	3
164.4	4
164.5	4
164.6	4
164.7	4
164.8	4
164.9	4
165.0	4
165.1	4
165.2	4
165.3	3
165.4	3
165.5	3
165.6	3
165.7	4
165.8	4
165.9	4
166.0	4
166.1	3
166.2	3
166.3	3
166.4	3
166.5	3
166.6	3
166.7	3
166.8	4
166.9	4
167.0	5
167.1	4
167.2	4
167.3	3
167.4	3
167.5	3
167.6	3
167.7	3
167.8	4
167.9	4
168.0	4
168.1	4
168.2	3
168.3	3
168.4	3
168.5	3
168.6	3
168.7	3
168.8	4
168.9	4
169.0	4
169.1	4
169.2	5
169.3	4
169.4	4
289.6	3
289.7	4
289.8	5
289.9	5
290.0	5
290.1	4
300.6	3
300.7	4
300.8	5
300.9	5
301.0	5
301.1	4
308.5	3
308.6	4
308.7	4
308.8	5
308.9	5
309.0	5
309.1	5
309.2	4
309.3	4
309.4	3
309.5	3
309.6	3
309.7	3
309.8	3
309.9	4
310.0	4
310.1	4
310.2	4
310.3	4
310.4	4
310.5	4
310.6	3
310.7	3
310.8	3
310.9	4
311.0	4
311.1	4
311.2	4
311.3	3
311.4	3
311.5	3
311.6	3
311.7	3
311.8	3
311.9	3
312.0	4
312.1	4
312.2	4
312.3	4
312.4	4
312.5	4
312.6	4
312.7	4
312.8	4
312.9	3
313.0	3
313.1	3
313.2	4
313.3	4
313.4	5
313.5	5
313.6	5
313.7	4
313.8	4
313.9	4
314.0	3
314.1	3
314.2	3
314.3	4
314.4	4
314.5	5
314.6	5
314.7	4
314.8	4
314.9	3
315.0	3
315.1	3
315.2	4
315.3	4
315.4	4
315.5	4
315.6	4
315.7	4
315.8	4
315.9	3
316.0	3
316.1	3
316.2	3
316.3	4
316.4	4
316.5	4
316.6	5
316.7	5
316.8	5
316.9	4
317.0	4
317.1	3
317.2	3
317.3	3
317.4	3
317.5	4
317.6	4
317.7	4
317.8	5
317.9	5
318.0	5
318.1	4
318.2	4
318.3	4
318.4	4
318.5	4
318.6	3
318.7	3
318.8	3
318.9	4
319.0	4
319.1	5
319.2	5
319.3	4
319.4	4
319.5	4
319.6	4
319.7	4
319.8	4
319.9	3
320.0	3
320.1	3
320.2	3
320.3	3
320.4	3
320.5	3
320.6	3
320.7	4
320.8	4
320.9	4
321.0	4
321.1	4
321.2	5
321.3	5
321.4	4
321.5	3
321.6	3
321.7	3
321.8	3
321.9	3
322.0	4
322.1	4
322.2	5
322.3	5
322.4	4
322.5	4
322.6	3
322.7	3
322.8	3
322.9	3
323.0	4
323.1	4
323.2	5
323.3	5
323.4	5
323.5	4
323.6	4
323.7	4
323.8	4
323.9	3
324.0	3
324.1	3
324.2	3
324.3	3
324.4	4
324.5	4
324.6	5
324.7	4
324.8	4
324.9	4
325.0	3
325.1	3
325.2	4
325.3	4
325.4	4
325.5	4
325.6	4
325.7	5
325.8	4
325.9	4
326.0	4
326.1	4
326.2	3
326.3	4
326.4	4
326.5	4
326.6	4
326.7	4
326.8	4
326.9	4
327.0	4
327.1	4
327.2	4
327.3	4
327.4	3
327.5	3
327.6	3
327.7	4
327.8	4
327.9	4
328.0	4
328.1	4
328.2	4
328.3	4
328.4	3
328.5	3
328.6	3
328.7	4
328.8	4
328.9	4
329.0	4
329.1	4
329.2	4
329.3	4
329.4	4
329.5	4
329.6	3
329.7	3
329.8	3
329.9	4
330.0	4
330.1	4
330.2	5
330.3	4
330.4	3
330.5	3
330.6	3
330.7	3
330.8	3
330.9	3
331.0	3
331.1	3
331.2	3
331.3	4
331.4	4
331.5	4
331.6	4
331.7	4
331.8	4
331.9	5
332.0	5
332.1	5
332.2	5
332.3	5
332.4	4
332.5	4
332.6	4
332.7	4
332.8	4
332.9	3
333.0	3
333.1	3
333.2	3
333.3	4
333.4	4
333.5	4
333.6	4
333.7	5
333.8	5
333.9	5
334.0	4
334.1	4
334.2	4
334.3	4
334.4	4
334.5	4
334.6	4
334.7	4
334.8	4
334.9	4
335.0	4
335.1	4
335.2	4
335.3	4
335.4	4
335.5	4
335.6	4
335.7	4
335.8	4
335.9	4
336.0	4
336.1	4
336.2	3
336.3	3
336.4	4
336.5	4
336.6	4
336.7	5
336.8	5
336.9	5
337.0	5
337.1	4
337.2	4
337.3	4
337.4	3
337.5	3
337.6	3
337.7	4
337.8	4
337.9	4
338.0	4
338.1	4
338.2	3
338.3	3
338.4	3
338.5	3
338.6	3
338.7	3
338.8	4
338.9	4
339.0	5
339.1	5
339.2	5
339.3	4
339.4	4
339.5	3
339.6	3
339.7	3
339.8	3
339.9	4
340.0	4
340.1	4
340.2	5
340.3	5
340.4	5
340.5	4
340.6	4
340.7	3
340.8	3
340.9	3
341.0	4
341.1	4
341.2	5
341.3	5
341.4	5
341.5	5
341.6	4
341.7	4
341.8	4
341.9	4
342.0	4
342.1	4
342.2	4
342.3	5
342.4	5
342.5	5
342.6	5
342.7	5
342.8	4
342.9	4
343.0	4
343.1	4
343.2	4
343.3	4
343.4	4
343.5	4
343.6	5
343.7	5
343.8	5
343.9	4
344.0	4
344.1	3
344.2	3
344.3	3
344.4	3
344.5	4
344.6	4
344.7	4
344.8	4
344.9	4
345.0	4
345.1	4
345.2	4
345.3	4
345.4	4
345.5	4
345.6	4
345.7	4
345.8	4
345.9	4
346.0	4
346.1	4
346.2	4
346.3	4
346.4	4
346.5	4
346.6	4
346.7	4
346.8	4
346.9	4
347.0	4
347.1	4
347.2	4
347.3	4
347.4	4
347.5	4
347.6	3
347.7	4
347.8	4
347.9	4
348.0	4
348.1	5
348.2	5
348.3	5
348.4	4
348.5	3
348.6	3
348.7	3
348.8	4
348.9	4
349.0	4
349.1	4
349.2	4
349.3	4
349.4	4
349.5	4
349.6	4
349.7	4
349.8	4
349.9	3
350.0	3
350.1	4
350.2	4
350.3	4
350.4	5
350.5	5
350.6	5
350.7	4
350.8	4
350.9	4
351.0	4
351.1	4
351.2	4
351.3	4
351.4	5
351.5	5
351.6	4
351.7	4
351.8	4
351.9	4
352.0	4
352.1	4
352.2	5
352.3	5
352.4	5
352.5	4
352.6	4
352.7	4
352.8	4
352.9	4
353.0	4
353.1	4
353.2	4
353.3	4
353.4	4
353.5	4
353.6	4
353.7	5
353.8	5
353.9	5
354.0	4
354.1	4
354.2	4
354.3	3
354.4	3
354.5	4
354.6	4
354.7	4
354.8	4
354.9	4
355.0	4
355.1	4
355.2	4
355.3	4
355.4	3
355.5	3
355.6	3
355.7	4
355.8	4
355.9	5
356.0	5
356.1	5
356.2	5
356.3	4
356.4	4
356.5	4
356.6	4
356.7	4
356.8	5
356.9	5
357.0	5
357.1	5
357.2	4
357.3	4
357.4	3
357.5	3
357.6	3
357.7	3
357.8	3
357.9	3
358.0	4
358.1	4
358.2	5
358.3	5
358.4	5
358.5	4
363.4	4
363.5	5
363.6	5
363.7	6
363.8	6
363.9	5
379.1	4
379.2	4
379.3	5
379.4	5
379.5	5
379.6	5
379.7	4
379.8	3
379.9	3
380.0	3
380.1	3
380.2	3
380.3	3
380.4	4
380.5	4
380.6	5
380.7	4
380.8	4
380.9	3
381.0	3
381.1	3
381.2	3
381.3	3
381.4	4
381.5	5
381.6	5
381.7	5
381.8	5
381.9	4
427.2	3
427.3	4
427.4	5
427.5	5
427.6	5
427.7	4
427.8	4
427.9	4
428.0	3
428.1	3
428.2	3
428.3	3
428.4	3
428.5	4
428.6	4
428.7	4
428.8	4
428.9	4
429.0	3
429.1	3
429.2	3
429.3	3
429.4	3
429.5	3
429.6	4
429.7	4
429.8	5
429.9	5
430.0	4
430.1	4
430.2	4
430.3	4
430.4	4
430.5	4
430.6	4
430.7	4
430.8	4
430.9	5
431.0	5
431.1	4
431.2	4
431.3	4
431.4	4
431.5	4
431.6	4
431.7	3
431.8	4
431.9	4
432.0	5
432.1	5
432.2	5
432.3	4
432.4	4
432.5	4
432.6	4
432.7	4
432.8	4
432.9	4
433.0	4
433.1	4
433.2	4
433.3	4
433.4	4
433.5	3
433.6	3
433.7	3
433.8	3
433.9	4
434.0	4
434.1	4
434.2	4
434.3	4
434.4	4
434.5	4
434.6	3
434.7	3
434.8	3
434.9	3
435.0	3
435.1	3
435.2	4
435.3	4
435.4	4
435.5	4
435.6	4
435.7	4
435.8	3
435.9	3
436.0	3
436.1	4
436.2	4
436.3	4
436.4	4
436.5	4
436.6	4
436.7	4
436.8	4
436.9	4
437.0	3
437.1	3
437.2	4
437.3	4
437.4	4
437.5	4
437.6	4
437.7	4
437.8	4
437.9	3
438.0	3
438.1	3
438.2	3
438.3	3
438.4	4
438.5	4
438.6	5
438.7	5
438.8	5
438.9	4
439.0	4
674.0	4
674.1	5
674.2	5
674.3	6
674.4	5
681.6	3
681.7	4
681.8	4
681.9	5
682.0	5
682.1	5
682.2	5
682.3	4
682.4	4
682.5	4
682.6	4
682.7	4
682.8	4
682.9	4
683.0	4
683.1	4
683.2	4
683.3	4
683.4	4
683.5	4
683.6	4
683.7	4
683.8	4
683.9	4
684.0	4
684.1	4
684.2	4
684.3	4
684.4	4
684.5	4
684.6	4
684.7	4
684.8	3
684.9	3
685.0	3
685.1	3
685.2	4
685.3	5
685.4	5
685.5	5
685.6	5
685.7	4
685.8	4
685.9	4
686.0	4
686.1	4
686.2	5
686.3	5
686.4	5
686.5	4
686.6	4
686.7	4
686.8	4
686.9	4
687.0	4
687.1	4
687.2	4
687.3	4
687.4	4
687.5	5
687.6	5
687.7	5
687.8	4
687.9	4
688.0	4
688.1	4
688.2	5
688.3	5
688.4	4
688.5	4
688.6	4
688.7	4
688.8	4
688.9	4
689.0	4
689.1	4
689.2	4
689.3	4
689.4	4
689.5	4
689.6	5
689.7	5
689.8	4
689.9	4
690.0	3
690.1	3
690.2	3
690.3	3
690.4	3
690.5	4
690.6	4
690.7	4
690.8	4
690.9	4
691.0	4
691.1	4
691.2	4
691.3	4
691.4	4
691.5	4
691.6	4
691.7	4
691.8	4
691.9	4
692.0	3
692.1	4
692.2	4
692.3	4
692.4	4
692.5	4
692.6	3
692.7	3
692.8	3
692.9	4
693.0	4
693.1	4
693.2	4
693.3	4
693.4	4
693.5	4
693.6	4
693.7	4
693.8	4
693.9	4
694.0	4
694.1	5
694.2	5
694.3	5
694.4	5
694.5	5
694.6	4
694.7	4
694.8	4
694.9	3
695.0	4
695.1	4
695.2	4
695.3	4
695.4	4
695.5	4
695.6	5
695.7	5
695.8	5
695.9	5
696.0	4
696.1	4
696.2	4
696.3	3
696.4	4
696.5	4
696.6	4
696.7	4
696.8	4
696.9	4
697.0	4
697.1	4
697.2	4
697.3	4
697.4	4
697.5	4
697.6	4
697.7	4
697.8	4
697.9	4
698.0	4
698.1	4
698.2	4
698.3	4
698.4	4
698.5	5
698.6	5
698.7	5
698.8	5
698.9	5
699.0	4
699.1	4
699.2	4
699.3	4
699.4	4
699.5	3
699.6	3
699.7	3
699.8	4
699.9	4
700.0	4
700.1	4
700.2	4
700.3	4
700.4	4
700.5	4
700.6	4
700.7	5
700.8	5
700.9	5
701.0	4
701.1	4
701.2	4
701.3	4
701.4	3
701.5	3
701.6	3
701.7	4
701.8	4
701.9	4
702.0	4
702.1	5
702.2	5
702.3	4
702.4	4
702.5	3
702.6	3
702.7	3
702.8	3
702.9	4
703.0	4
703.1	4
703.2	5
703.3	5
703.4	5
703.5	4
703.6	4
703.7	3
703.8	3
703.9	3
704.0	3
704.1	3
704.2	4
704.3	4
704.4	4
704.5	4
704.6	4
704.7	4
704.8	4
704.9	4
705.0	3
705.1	3
705.2	3
705.3	3
705.4	4
705.5	5
705.6	5
705.7	5
705.8	5
705.9	4
706.0	4
706.1	3
706.2	3
706.3	3
706.4	3
706.5	3
706.6	3
706.7	4
706.8	4
706.9	4
707.0	4
707.1	4
707.2	4
707.3	4
707.4	4
707.5	3
707.6	4
707.7	5
707.8	5
707.9	6
708.0	5
708.1	4
717.8	3
717.9	4
718.0	4
718.1	5
718.2	5
718.3	4
718.4	4
718.5	3
718.6	3
718.7	3
718.8	4
718.9	4
719.0	5
719.1	5
719.2	5
719.3	4
719.4	4
719.5	4
719.6	3
719.7	3
719.8	3
719.9	3
720.0	3
720.1	4
720.2	4
720.3	4
720.4	4
720.5	4
720.6	3
720.7	3
720.8	3
720.9	3
721.0	3
721.1	4
721.2	4
721.3	4
721.4	4
721.5	4
721.6	4
721.7	3
721.8	3
721.9	2
722.0	3
722.1	3
722.2	3
722.3	4
722.4	4
722.5	5
722.6	5
722.7	5
722.8	5
744.7	2
744.8	3
744.9	4
745.0	5
745.1	5
767.1	4
767.2	4
767.3	5
767.4	5
767.5	5
767.6	5
767.7	5
767.8	4
767.9	4
768.0	4
768.1	4
768.2	4
768.3	4
768.4	4
768.5	4
768.6	4
768.7	4
768.8	4
768.9	4
769.0	4
769.1	4
769.2	4
769.3	4
769.4	4
769.5	4
769.6	4
769.7	4
769.8	4
769.9	4
770.0	4
770.1	4
770.2	3
770.3	3
770.4	3
770.5	3
770.6	4
770.7	4
770.8	4
770.9	4
771.0	4
771.1	4
771.2	3
771.3	3
771.4	3
771.5	3
771.6	4
771.7	4
771.8	5
771.9	5
772.0	5
772.1	5
772.2	5
772.3	4
772.4	4
772.5	4
772.6	4
772.7	4
772.8	4
772.9	4
773.0	5
773.1	5
773.2	5
773.3	5
773.4	4
773.5	4
773.6	4
773.7	4
773.8	4
773.9	4
774.0	4
774.1	4
774.2	4
774.3	5
774.4	5
774.5	4
774.6	4
774.7	4
774.8	4
774.9	4
775.0	4
775.1	5
775.2	5
775.3	5
775.4	5
775.5	5
775.6	4
775.7	4
775.8	3
775.9	4
776.0	4
776.1	4
776.2	4
776.3	4
776.4	5
776.5	5
776.6	5
776.7	4
776.8	4
776.9	4
777.0	5
777.1	5
777.2	5
777.3	5
777.4	4
777.5	4
777.6	4
777.7	3
777.8	3
777.9	4
778.0	4
778.1	4
778.2	4
778.3	4
778.4	4
778.5	4
778.6	4
778.7	4
778.8	4
778.9	5
779.0	5
779.1	4
779.2	4
779.7	3
779.8	4
779.9	5
780.0	6
780.1	9
780.2	14
780.3	22
780.4	33
780.5	44
780.6	54
780.7	62
780.8	72
780.9	84
781.0	89
781.1	77
781.2	49
781.3	19
781.4	2
781.6	2
781.7	3
781.8	4
781.9	3
782.0	3
782.1	4
782.2	5
782.3	5
782.4	5
782.5	5
782.6	4
782.7	4
782.8	3
782.9	4
783.0	4
783.1	5
783.2	5
783.3	5
783.4	5
783.5	4
783.6	4
783.7	4
783.8	4
783.9	4
784.0	3
784.1	3
784.2	3
784.3	4
784.4	4
784.5	5
784.6	5
784.7	4
784.8	4
784.9	4
785.0	4
785.1	4
785.2	4
785.3	5
785.4	5
785.5	5
785.6	5
785.7	4
785.8	4
785.9	3
786.0	3
786.1	3
786.2	3
786.3	4
786.4	4
786.5	4
786.6	4
786.7	4
786.8	4
786.9	4
787.0	4
787.1	4
787.2	4
787.3	4
787.4	4
787.5	4
787.6	4
787.7	4
787.8	4
787.9	4
788.0	4
788.1	4
788.2	4
788.3	4
788.4	4
788.5	4
788.6	4
788.7	4
788.8	4
788.9	4
789.0	4
789.1	4
789.2	4
789.3	4
789.4	4
789.5	3
789.6	3
789.7	3
789.8	4
789.9	4
790.0	5
790.1	5
790.2	5
790.3	4
790.4	4
790.5	4
790.6	4
790.7	4
790.8	4
790.9	5
791.0	5
791.1	5
804.2	3
804.3	4
804.4	5
804.5	5
804.6	5
804.7	5
804.8	4
804.9	4
805.0	4
805.1	4
805.2	4
805.3	4
805.4	4
805.5	4
805.6	4
805.7	4
805.8	4
805.9	4
806.0	4
806.1	4
806.2	3
806.3	4
806.4	4
806.5	3
806.6	4
806.7	4
806.8	4
806.9	5
807.0	4
807.1	4
807.2	4
807.3	3
807.4	3
807.5	3
807.6	3
807.7	3
807.8	4
807.9	4
808.0	5
808.1	5
808.2	5
808.3	5
808.4	4
808.5	3
808.6	3
808.7	4
808.8	4
808.9	4
809.0	4
809.1	4
809.2	4
809.3	4
809.4	4
809.5	4
809.6	4
809.7	4
809.8	4
809.9	4
810.0	4
810.1	4
810.2	4
810.3	4
810.4	4
810.5	4
810.6	4
810.7	3
810.8	3
810.9	3
811.0	4
811.1	4
811.2	4
811.3	4
811.4	4
811.5	4
811.6	4
811.7	4
811.8	4
811.9	3
812.0	3
812.1	3
812.2	3
812.3	3
812.4	3
812.5	4
812.6	4
812.7	4
812.8	4
812.9	4
813.0	4
813.1	3
813.2	3
813.3	3
813.4	3
813.5	4
813.6	4
813.7	5
813.8	5
813.9	5
814.0	4
814.5	3
814.6	4
814.7	5
814.8	5
814.9	5
815.0	5
815.1	4
815.2	4
815.3	3
815.4	3
815.5	3
815.6	3
815.7	4
815.8	4
815.9	4
816.0	4
816.1	5
816.2	5
816.3	4
