Mass spectrum: Subhirsine; LC-ESI-QQQ; MS2; Frag=135.0V CID@5.0; [M+H]+
Name: Subhirsine
Class: Alkaloids
Formula: C33H40N2O9
Exact mass: 608.6947
SMILES: COc1ccc(C(=O)OC2C[C@@H]3CC[C@H](C2)N3C(=O)N2[C@H]3CC[C@@H]2CC(OC(=O)c2ccc(OC)c(OC)c2)C3)cc1OC
InChI: InChI=1S/C33H40N2O9/c1-39-27-11-5-19(13-29(27)41-3)31(36)43-25-15-21-7-8-22(16-25)34(21)33(38)35-23-9-10-24(35)18-26(17-23)44-32(37)20-6-12-28(40-2)30(14-20)42-4/h5-6,11-14,21-26H,7-10,15-18H2,1-4H3/t21-,22+,23-,24+,25?,26?
Instrument: Agilent 6410 Triple Quadrupole LC/MS system
Instrument type: LC-ESI-QQQ
Ms type: MS2
Ion mode: POSITIVE
Precursor type: [M+H]+
m/z	relative intensity
244.7	1
244.8	3
244.9	5
245.0	8
245.1	10
245.2	10
245.3	8
245.4	6
245.5	3
426.4	0
426.5	2
426.6	4
426.7	9
426.8	18
426.9	30
427.0	41
427.1	48
427.2	50
427.3	48
427.4	40
427.5	28
427.6	14
427.7	3
608.3	1
608.4	3
608.5	5
608.6	9
608.7	17
608.8	31
608.9	50
609.0	70
609.1	87
609.2	97
609.3	99
609.4	93
609.5	75
609.6	47
609.7	18
609.8	1
