Mass spectrum: Amorphin; LC-ESI-QQQ; MS2; Frag=135.0V CID@5.0; [M+H]+
Name: Amorphin
Class: Flavonoids
Formula: C34H40O16
Exact mass: 704.6883
SMILES: C=C(CO[C@@H]1O[C@@H](CO[C@@H]2OC[C@H](O)[C@H](O)[C@H]2O)[C@@H](O)[C@H](O)[C@H]1O)[C@@H]1Cc2c(ccc3c2OC2COc4cc(OC)c(OC)cc4C2C3=O)O1
InChI: InChI=1S/C34H40O16/c1-13(9-45-34-31(41)29(39)28(38)24(50-34)12-47-33-30(40)27(37)17(35)10-46-33)19-7-16-18(48-19)5-4-14-26(36)25-15-6-21(42-2)22(43-3)8-20(15)44-11-23(25)49-32(14)16/h4-6,8,17,19,23-25,27-31,33-35,37-41H,1,7,9-12H2,2-3H3/t17-,19-,23?,24-,25?,27-,28+,29-,30+,31+,33-,34+/m0/s1
Instrument: Agilent 6410 Triple Quadrupole LC/MS system
Instrument type: LC-ESI-QQQ
Ms type: MS2
Ion mode: POSITIVE
Precursor type: [M+H]+
m/z	relative intensity
410.2	2
410.3	3
410.4	6
410.5	10
410.6	17
410.7	28
410.8	41
410.9	54
411.0	64
411.1	67
411.2	60
411.3	45
411.4	25
411.5	9
411.6	1
542.2	1
542.3	2
542.4	3
542.5	5
542.6	7
542.7	9
542.8	12
542.9	15
543.0	18
543.1	18
543.2	15
543.3	9
543.4	4
543.5	0
572.0	1
572.1	2
572.2	3
572.3	6
572.4	12
572.5	20
572.6	30
572.7	42
572.8	56
572.9	74
573.0	91
573.1	99
573.2	93
573.3	71
573.4	42
573.5	17
573.6	2
704.3	1
704.4	3
704.5	4
704.6	8
704.7	13
704.8	18
704.9	23
705.0	26
705.1	26
705.2	24
705.3	20
705.4	13
705.5	5
705.6	0
