Mass spectrum: Hetisine; LC-ESI-QQQ; MS2; Frag=135.0V CID@15.0 ; [M+H]+
Name: Hetisine
Class: Alkaloids
Formula: C20H27NO3
Exact mass: 329.44309000000004
SMILES: C=C1C[C@]23CC4C5C67C[C@@H](O)C[C@@]5(C)CN4[C@@H]6C2[C@H](O)[C@H]1[C@@H](O)C73
InChI: InChI=1S/C20H27NO3/c1-8-3-19-6-10-15-18(2)4-9(22)5-20(15)16(19)14(24)11(8)13(23)12(19)17(20)21(10)7-18/h9-17,22-24H,1,3-7H2,2H3/t9-,10?,11-,12?,13+,14+,15?,16?,17+,18-,19-,20?/m0/s1
Instrument: Agilent 6410 Triple Quadrupole LC/MS system
Instrument type: LC-ESI-QQQ
Ms type: MS2
Ion mode: POSITIVE
Precursor type: [M+H]+
m/z	relative intensity
329.4	1
329.5	3
329.6	7
329.7	13
329.8	25
329.9	43
330.0	65
330.1	85
330.2	97
330.3	99
330.4	89
330.5	66
330.6	35
330.7	9
330.8	0
