Mass spectrum: Methyllycaconitine; LC-ESI-QQQ; MS2; Frag=135.0V CID@15.0; [M+H]+
Name: Methyllycaconitine
Class: Alkaloids
Formula: C37H50N2O10
Exact mass: 682.8185
SMILES: CCN1C[C@]2(COC(=O)c3ccccc3N3C(=O)CC(C)C3=O)CC[C@H](OC)[C@@]34C5C[C@@H]6[C@@H](OC)C[C@@](O)(C5[C@H]6OC)[C@@](O)(C(OC)C23)C14
InChI: InChI=1S/C37H50N2O10/c1-7-38-17-34(18-49-32(42)20-10-8-9-11-23(20)39-26(40)14-19(2)31(39)41)13-12-25(46-4)36-22-15-21-24(45-3)16-35(43,27(22)28(21)47-5)37(44,33(36)38)30(48-6)29(34)36/h8-11,19,21-22,24-25,27-30,33,43-44H,7,12-18H2,1-6H3/t19?,21-,22?,24+,25+,27?,28+,29?,30?,33?,34+,35-,36+,37-/m1/s1
Instrument: Agilent 6410 Triple Quadrupole LC/MS system
Instrument type: LC-ESI-QQQ
Ms type: MS2
Ion mode: POSITIVE
Precursor type: [M+H]+
m/z	relative intensity
682.4	1
682.5	3
682.6	7
682.7	13
682.8	22
682.9	35
683.0	51
683.1	68
683.2	84
683.3	95
683.4	99
683.5	94
683.6	76
683.7	49
683.8	22
683.9	3
