Mass spectrum: Obtusinin; LC-ESI-QQQ; MS2; Frag=135.0V CID@5.0; [M+H]+
Name: Obtusinin
Class: Terpenoids
Formula: C15H18O6
Exact mass: 294.3071
SMILES: COc1cc2ccc(=O)oc2cc1OCC(O)C(C)(C)O
InChI: InChI=1S/C15H18O6/c1-15(2,18)13(16)8-20-12-7-10-9(6-11(12)19-3)4-5-14(17)21-10/h4-7,13,16,18H,8H2,1-3H3
Instrument: Agilent 6410 Triple Quadrupole LC/MS system
Instrument type: LC-ESI-QQQ
Ms type: MS2
Ion mode: POSITIVE
Precursor type: [M+H]+
m/z	relative intensity
192.4	1
192.5	3
192.6	6
192.7	10
192.8	16
192.9	22
193.0	27
193.1	29
193.2	27
193.3	23
193.4	17
193.5	9
193.6	2
294.3	0
294.4	2
294.5	6
294.6	13
294.7	25
294.8	44
294.9	66
295.0	87
295.1	99
295.2	99
295.3	88
295.4	66
295.5	37
295.6	11
295.7	0
