Mass spectrum: Guan-fu base Y; LC-ESI-QQQ; MS2;  Frag=135.0V CID@10.0 ; [M+HCOO]-
Name: Guan-fu base Y
Class: Alkaloids
Formula: C22H29NO5
Exact mass: 387.4801300000001
SMILES: C=C1C[C@@]23CC4C5C6(C)C[C@H](OC(C)=O)CC57C2[C@H](O)C1[C@@H](O)[C@]3(O)[C@H]7N4C6
InChI: InChI=1S/C22H29NO5/c1-9-4-20-7-12-15-19(3)5-11(28-10(2)24)6-21(15)16(20)14(25)13(9)17(26)22(20,27)18(21)23(12)8-19/h11-18,25-27H,1,4-8H2,2-3H3/t11-,12?,13?,14+,15?,16?,17+,18-,19?,20+,21?,22-/m0/s1
Instrument: Agilent 6410 Triple Quadrupole LC/MS system
Instrument type: LC-ESI-QQQ
Ms type: MS2
Ion mode: NEGATIVE
Precursor type: [M+HCOO]-
m/z	relative intensity
50.8	8
50.9	14
51.0	20
51.1	20
51.2	15
51.4	9
51.5	15
51.6	21
51.7	22
51.8	17
51.9	9
52.1	7
52.2	14
52.3	20
52.4	19
52.5	14
52.7	8
52.8	13
52.9	18
53.0	19
53.1	15
53.3	9
53.4	13
53.5	18
53.6	20
53.7	17
53.8	10
54.0	6
54.1	14
54.2	22
54.3	23
54.4	18
54.6	9
54.7	14
54.8	20
54.9	23
55.0	18
55.1	10
55.3	7
55.4	13
55.5	18
55.6	17
55.7	11
55.9	3
56.0	10
56.1	18
56.2	21
56.3	17
56.6	9
56.7	17
56.8	21
56.9	19
57.0	11
57.2	7
57.3	15
57.4	23
57.5	25
57.6	19
57.7	10
57.9	10
58.0	17
58.1	21
58.2	19
58.3	13
58.5	10
58.6	16
58.7	19
58.8	17
58.9	12
59.1	10
59.2	16
59.3	23
59.4	25
59.5	20
59.6	11
59.8	7
59.9	14
60.0	20
60.1	20
60.2	14
60.4	5
60.5	10
60.6	17
60.7	20
60.8	16
61.1	9
61.2	16
61.3	20
61.4	18
61.7	10
61.8	18
61.9	24
62.0	22
62.1	13
62.3	5
62.4	12
62.5	21
62.6	25
62.7	21
62.8	14
63.0	14
63.1	19
63.2	21
63.3	18
63.4	12
63.6	8
63.7	14
63.8	18
63.9	18
64.0	14
64.2	9
64.3	14
64.4	20
64.5	21
64.6	17
64.7	10
64.9	7
65.0	14
65.1	23
65.2	24
65.3	18
66.2	9
66.3	17
66.4	22
66.5	20
66.6	12
66.8	7
66.9	13
67.0	20
67.1	21
67.2	15
67.5	10
67.6	16
67.7	20
67.8	19
67.9	11
68.1	6
68.2	15
68.3	22
68.4	22
68.5	14
68.7	6
68.8	12
68.9	20
69.0	22
69.1	17
69.4	10
69.5	17
69.6	22
69.7	21
69.8	15
70.0	9
70.1	13
70.2	18
70.3	19
70.4	15
70.6	9
70.7	12
70.8	17
70.9	19
71.0	16
71.1	8
71.3	6
71.4	14
71.5	20
71.6	19
71.7	13
71.9	8
72.0	14
72.1	20
72.2	21
72.3	16
72.5	7
72.6	11
72.7	19
72.8	22
72.9	19
73.0	12
73.2	10
73.3	17
73.4	21
73.5	20
73.6	13
73.8	5
73.9	10
74.0	18
74.1	23
74.2	19
74.3	11
74.5	7
74.6	16
74.7	23
74.8	23
74.9	18
75.8	11
75.9	17
76.0	20
76.1	18
76.2	12
76.4	9
76.5	16
76.6	22
76.7	21
76.8	13
77.0	2
77.1	8
77.2	17
77.3	22
77.4	19
77.5	11
77.7	6
77.8	15
77.9	22
78.0	23
78.1	17
78.3	9
78.4	14
78.5	21
78.6	24
78.7	19
78.8	12
79.0	10
79.1	16
79.2	21
79.3	20
79.4	13
79.6	6
79.7	13
79.8	21
79.9	22
80.0	14
80.3	5
80.4	14
80.5	20
80.6	18
80.7	11
80.9	10
81.0	15
81.1	18
81.2	16
81.3	12
81.5	9
81.6	14
81.7	20
81.8	22
81.9	17
82.1	5
82.2	10
82.3	19
82.4	24
82.5	22
82.6	14
82.8	4
82.9	11
83.0	19
83.1	22
83.2	17
83.5	9
83.6	16
83.7	20
83.8	18
83.9	11
84.1	8
84.2	15
84.3	21
84.4	20
84.5	13
84.7	10
84.8	15
84.9	20
85.0	20
85.1	17
85.4	11
85.5	15
85.6	18
85.7	17
85.8	13
86.0	11
86.1	16
86.2	21
86.3	21
86.4	15
86.6	5
86.7	10
86.8	16
86.9	19
87.0	15
87.2	7
87.3	12
87.4	19
87.5	22
87.6	17
87.9	6
88.0	16
88.1	24
88.2	25
88.3	18
88.6	9
88.7	16
88.8	19
88.9	16
89.0	10
89.2	7
89.3	13
89.4	19
89.5	20
89.6	15
89.8	5
89.9	10
90.0	17
90.1	21
90.2	18
90.3	10
90.5	6
90.6	14
90.7	21
90.8	21
90.9	13
91.1	3
91.2	9
91.3	19
91.4	23
91.5	18
91.6	9
91.8	8
91.9	16
92.0	20
92.1	16
92.2	9
92.4	7
92.5	15
92.6	22
92.7	24
92.8	19
93.6	6
93.7	10
93.8	18
93.9	22
94.0	20
94.1	14
94.3	8
94.4	13
94.5	20
94.6	23
94.7	19
94.8	11
95.0	8
95.1	15
95.2	21
95.3	20
95.4	14
95.6	6
95.7	12
95.8	20
95.9	22
96.0	16
96.3	8
96.4	15
96.5	20
96.6	17
96.7	11
96.9	9
97.0	16
97.1	22
97.2	21
97.3	13
97.5	5
97.6	11
97.7	19
97.8	22
97.9	16
98.2	8
98.3	15
98.4	20
98.5	20
98.6	14
98.8	9
98.9	16
99.0	22
99.1	21
99.2	13
99.4	5
99.5	10
99.6	19
99.7	23
99.8	20
99.9	12
100.1	7
100.2	13
100.3	18
100.4	17
100.5	11
100.7	7
100.8	14
100.9	21
101.0	22
101.1	17
101.4	10
101.5	16
101.6	20
101.7	19
101.8	13
102.0	7
102.1	12
102.2	18
102.3	19
102.4	14
102.6	6
102.7	10
102.8	16
102.9	19
103.0	16
103.2	7
103.3	11
103.4	19
103.5	25
103.6	24
103.7	16
103.9	5
104.0	10
104.1	18
104.2	22
104.3	19
104.4	11
104.6	10
104.7	17
104.8	21
104.9	19
105.0	12
105.2	6
105.3	12
105.4	18
105.5	19
105.6	14
105.8	6
105.9	12
106.0	20
106.1	24
106.2	19
106.3	10
106.5	7
106.6	14
106.7	19
106.8	19
106.9	13
107.1	3
107.2	7
107.3	14
107.4	18
107.5	15
107.6	9
107.8	7
107.9	12
108.0	16
108.1	16
108.4	13
108.5	16
108.6	19
108.7	20
108.8	19
108.9	14
109.6	8
109.7	12
109.8	20
109.9	26
110.0	23
110.1	13
110.3	3
110.4	10
110.5	18
110.6	22
110.7	19
110.8	11
111.0	7
111.1	15
111.2	21
111.3	21
111.4	14
111.6	8
111.7	14
111.8	20
111.9	20
112.0	15
112.2	7
112.3	11
112.4	18
112.5	21
112.6	18
112.7	13
112.9	11
113.0	15
113.1	18
113.2	19
113.3	15
113.5	9
113.6	13
113.7	20
113.8	23
113.9	19
114.0	11
114.2	7
114.3	15
114.4	22
114.5	21
114.6	13
114.8	5
114.9	14
115.0	22
115.1	25
115.2	20
115.3	13
115.5	11
115.6	15
115.7	18
115.8	16
116.0	9
116.1	13
116.2	20
116.3	25
116.4	22
116.5	13
116.7	3
116.8	10
116.9	19
117.0	22
117.1	18
117.2	11
117.4	9
117.5	14
117.6	17
117.7	14
118.0	7
118.1	15
118.2	22
118.3	23
118.4	16
119.2	7
119.3	10
119.4	18
119.5	23
119.6	22
119.7	13
119.9	5
120.0	13
120.1	22
120.2	26
120.3	22
120.4	14
120.6	9
120.7	14
120.8	19
120.9	18
121.0	14
121.2	9
121.3	14
121.4	19
121.5	20
121.6	15
121.8	6
121.9	11
122.0	18
122.1	20
122.2	16
122.4	9
122.5	12
122.6	18
122.7	22
122.8	20
122.9	12
123.1	6
123.2	12
123.3	19
123.4	21
123.5	17
123.7	9
123.8	14
123.9	21
124.0	23
124.1	18
124.2	10
124.4	6
124.5	13
124.6	21
124.7	22
124.8	16
125.0	7
125.1	11
125.2	20
125.3	25
125.4	22
125.5	14
125.7	12
125.8	19
125.9	23
126.0	21
126.1	14
126.9	8
127.0	12
127.1	18
127.2	22
127.3	22
127.4	16
128.2	4
128.3	8
128.4	17
128.5	23
128.6	21
128.7	15
128.9	9
129.0	15
129.1	18
129.2	16
129.3	9
129.5	5
129.6	10
129.7	16
129.8	17
129.9	14
130.1	6
130.2	10
130.3	17
130.4	22
130.5	21
130.6	15
130.8	10
130.9	16
131.0	21
131.1	20
131.2	14
131.4	8
131.5	13
131.6	19
131.7	21
131.8	17
132.1	10
132.2	16
132.3	20
132.4	19
132.5	14
132.7	9
132.8	13
132.9	16
133.0	17
133.1	13
133.3	6
133.4	11
133.5	18
133.6	21
133.7	17
133.8	8
134.0	2
134.1	10
134.2	18
134.3	21
134.4	15
134.7	8
134.8	15
134.9	20
135.0	19
135.1	14
135.3	10
135.4	13
135.5	16
135.6	16
135.7	12
135.9	7
136.0	12
136.1	18
136.2	20
136.3	16
136.6	9
136.7	16
136.8	21
136.9	20
137.0	14
137.2	8
137.3	14
137.4	20
137.5	21
137.6	16
137.7	9
137.9	8
138.0	14
138.1	18
138.2	16
138.3	10
138.5	7
138.6	15
138.7	21
138.8	21
138.9	15
139.1	7
139.2	13
139.3	19
139.4	21
139.5	17
139.8	10
139.9	16
140.0	21
140.1	18
140.2	11
140.4	7
140.5	15
140.6	23
140.7	23
140.8	16
141.0	9
141.1	16
141.2	23
141.3	24
141.4	17
141.5	8
141.7	7
141.8	15
141.9	21
142.0	20
142.1	13
142.3	8
142.4	16
142.5	24
142.6	26
142.7	19
142.8	8
143.0	6
143.1	15
143.2	21
143.3	19
143.4	11
143.6	5
143.7	11
143.8	18
143.9	20
144.0	16
144.9	9
145.0	15
145.1	20
145.2	19
145.3	12
145.5	4
145.6	11
145.7	19
145.8	22
145.9	17
146.0	8
146.2	5
146.3	12
146.4	17
146.5	15
146.8	9
146.9	17
147.0	23
147.1	23
147.2	16
147.5	10
147.6	16
147.7	20
147.8	18
147.9	12
148.1	10
148.2	17
148.3	21
148.4	19
148.5	11
148.7	4
148.8	11
148.9	18
149.0	19
149.1	14
149.3	4
149.4	9
149.5	17
149.6	20
149.7	17
149.8	9
150.0	8
150.1	15
150.2	22
150.3	22
150.4	16
150.6	7
150.7	12
150.8	19
150.9	22
151.0	16
151.1	8
151.3	6
151.4	14
151.5	20
151.6	19
151.7	12
151.9	7
152.0	15
152.1	22
152.2	23
152.3	17
152.6	9
152.7	16
152.8	21
152.9	20
153.0	14
153.2	9
153.3	14
153.4	20
153.5	20
153.6	14
153.8	4
153.9	9
154.0	17
154.1	21
154.2	17
154.3	8
154.5	5
154.6	14
154.7	23
154.8	24
154.9	17
155.7	10
155.8	13
155.9	19
156.0	22
156.1	18
156.2	11
156.4	9
156.5	17
156.6	23
156.7	23
156.8	15
156.9	6
157.1	6
157.2	13
157.3	18
157.4	18
157.5	14
157.7	12
157.8	15
157.9	19
158.0	20
158.1	16
158.4	9
158.5	16
158.6	19
158.7	17
159.0	11
159.1	17
159.2	21
159.3	18
159.4	10
159.6	8
159.7	15
159.8	21
159.9	20
160.0	14
160.2	7
160.3	12
160.4	18
160.5	20
160.6	15
160.9	7
161.0	16
161.1	22
161.2	22
161.3	15
161.5	7
161.6	12
161.7	19
161.8	21
161.9	17
162.2	10
162.3	16
162.4	19
162.5	17
162.6	11
162.8	7
162.9	13
163.0	19
163.1	20
163.2	15
163.4	8
163.5	14
163.6	22
163.7	24
163.8	20
163.9	12
164.1	9
164.2	16
164.3	21
164.4	18
164.5	10
164.7	2
164.8	10
164.9	19
165.0	23
165.1	19
165.2	11
165.4	9
165.5	17
165.6	23
165.7	22
165.8	15
166.0	8
166.1	14
166.2	21
166.3	23
166.4	18
166.6	7
166.7	12
166.8	19
166.9	23
167.0	20
167.1	13
167.3	10
167.4	15
167.5	20
167.6	21
167.7	15
167.9	6
168.0	11
168.1	18
168.2	21
168.3	18
168.4	12
168.6	9
168.7	15
168.8	19
168.9	18
169.0	12
169.2	7
169.3	14
169.4	20
169.5	21
169.6	16
169.9	9
170.0	16
170.1	20
170.2	20
170.3	14
170.5	10
170.6	17
170.7	24
170.8	23
170.9	15
171.1	5
171.2	11
171.3	19
171.4	22
171.5	19
171.8	13
171.9	20
172.0	23
172.1	20
172.2	13
172.4	7
172.5	12
172.6	18
172.7	20
172.8	15
173.0	6
173.1	10
173.2	17
173.3	20
173.4	18
173.5	12
173.7	10
173.8	16
173.9	19
174.0	17
174.1	9
174.3	3
174.4	11
174.5	19
174.6	22
174.7	17
174.8	9
175.0	8
175.1	16
175.2	22
175.3	21
175.4	15
175.6	9
175.7	14
175.8	19
175.9	19
176.0	13
176.2	5
176.3	10
176.4	18
176.5	22
176.6	18
176.7	10
176.9	8
177.0	15
177.1	20
177.2	19
177.3	14
177.6	10
177.7	15
177.8	17
177.9	15
178.2	10
178.3	15
178.4	18
178.5	16
178.8	10
178.9	17
179.0	22
179.1	20
179.2	14
179.4	6
179.5	13
179.6	21
179.7	23
179.8	16
179.9	6
180.1	4
180.2	12
180.3	20
180.4	21
180.5	14
180.7	4
180.8	10
180.9	18
181.0	22
181.1	18
182.0	7
182.1	10
182.2	15
182.3	17
182.4	14
182.6	6
182.7	10
182.8	17
182.9	22
183.0	20
183.1	14
183.3	9
183.4	15
183.5	20
183.6	20
183.7	13
183.9	6
184.0	12
184.1	18
184.2	19
184.3	14
184.5	5
184.6	9
184.7	16
184.8	20
184.9	19
185.0	12
185.2	5
185.3	10
185.4	17
185.5	20
185.6	18
185.9	12
186.0	18
186.1	22
186.2	19
186.3	12
186.5	10
186.6	16
186.7	22
186.8	21
186.9	15
187.1	9
187.2	14
187.3	20
187.4	21
187.5	16
187.8	9
187.9	16
188.0	20
188.1	19
188.2	13
188.4	10
188.5	16
188.6	19
188.7	17
188.8	10
189.0	8
189.1	16
189.2	23
189.3	24
189.4	18
189.5	9
189.7	5
189.8	11
189.9	19
190.0	21
190.1	17
190.4	11
190.5	18
190.6	21
190.7	19
191.0	12
191.1	18
191.2	21
191.3	19
191.4	13
191.6	5
191.7	9
191.8	15
191.9	18
192.0	14
192.2	6
192.3	10
192.4	16
192.5	20
192.6	17
192.9	10
193.0	16
193.1	20
193.2	18
193.3	10
193.5	3
193.6	11
193.7	20
193.8	23
193.9	19
194.0	11
194.2	8
194.3	14
194.4	19
194.5	19
194.6	14
194.8	10
194.9	16
195.0	22
195.1	21
195.2	13
195.4	4
195.5	10
195.6	18
195.7	21
195.8	16
195.9	7
196.1	5
196.2	12
196.3	17
196.4	17
196.5	12
196.7	6
196.8	11
196.9	19
197.0	22
197.1	18
197.2	11
197.4	10
197.5	17
197.6	22
197.7	19
197.8	12
198.0	7
198.1	12
198.2	17
198.3	16
198.4	12
198.6	7
198.7	13
198.8	19
198.9	21
199.0	17
199.1	9
199.3	6
199.4	14
199.5	21
199.6	22
199.7	17
199.8	10
200.0	9
200.1	14
200.2	17
200.3	16
200.4	11
200.6	9
200.7	14
200.8	18
200.9	18
201.0	14
201.2	9
201.3	12
201.4	16
201.5	18
201.6	15
201.8	7
201.9	11
202.0	19
202.1	24
202.2	21
202.3	12
202.5	6
202.6	12
202.7	18
202.8	19
202.9	16
203.1	14
203.2	18
203.3	21
203.4	21
203.5	14
203.7	4
203.8	8
203.9	16
204.0	21
204.1	20
204.2	15
204.4	10
204.5	13
204.6	18
204.7	21
204.8	18
204.9	12
205.1	10
205.2	15
205.3	18
205.4	15
205.6	7
205.7	11
205.8	18
205.9	22
206.0	19
206.1	12
206.3	8
206.4	14
206.5	20
206.6	21
206.7	15
206.9	5
207.0	10
207.1	18
207.2	23
207.3	20
207.4	12
207.6	8
207.7	16
207.8	24
207.9	25
208.0	18
208.1	9
208.3	7
208.4	13
208.5	17
208.6	17
208.9	13
209.0	17
209.1	21
209.2	21
209.3	16
209.5	11
209.6	15
209.7	20
209.8	21
209.9	15
210.2	8
210.3	17
210.4	23
210.5	21
210.6	14
210.8	7
210.9	13
211.0	19
211.1	19
211.2	12
211.4	4
211.5	10
211.6	18
211.7	21
211.8	17
212.1	10
212.2	16
212.3	19
212.4	16
212.5	9
212.7	6
212.8	14
212.9	22
213.0	25
213.1	21
213.2	15
213.4	10
213.5	15
213.6	18
213.7	18
213.9	13
214.0	16
214.1	22
214.2	26
214.3	22
214.4	13
214.6	2
214.7	7
214.8	15
214.9	18
215.0	15
215.2	8
215.3	11
215.4	18
215.5	22
215.6	21
215.7	14
215.9	5
216.0	10
216.1	17
216.2	20
216.3	16
216.5	8
216.6	12
216.7	18
216.8	21
216.9	18
217.0	11
217.2	8
217.3	15
217.4	21
217.5	22
217.6	17
217.8	9
217.9	12
218.0	19
218.1	22
218.2	19
218.5	13
218.6	20
218.7	25
218.8	24
218.9	19
219.1	13
219.2	17
219.3	21
219.4	21
219.5	16
219.8	7
219.9	15
220.0	22
220.1	23
220.2	16
220.4	6
220.5	12
220.6	18
220.7	19
220.8	13
221.0	4
221.1	8
221.2	15
221.3	18
221.4	15
221.5	8
221.7	5
221.8	13
221.9	20
222.0	21
222.1	16
222.3	9
222.4	15
222.5	20
222.6	21
222.7	15
223.0	7
223.1	15
223.2	20
223.3	19
223.4	15
223.6	12
223.7	15
223.8	17
223.9	17
224.0	14
224.2	11
224.3	15
224.4	21
224.5	23
224.6	20
224.7	13
224.9	10
225.0	15
225.1	19
225.2	18
225.3	12
225.5	3
225.6	8
225.7	16
225.8	21
225.9	17
226.1	7
226.2	11
226.3	20
226.4	25
226.5	21
226.6	11
226.8	5
226.9	13
227.0	20
227.1	20
227.2	13
227.5	5
227.6	14
227.7	20
227.8	20
227.9	13
228.1	10
228.2	18
228.3	25
228.4	24
228.5	16
228.7	7
228.8	12
228.9	18
229.0	19
229.1	14
229.3	6
229.4	11
229.5	18
229.6	22
229.7	20
229.8	14
230.0	8
230.1	14
230.2	21
230.3	23
230.4	17
231.3	7
231.4	15
231.5	19
231.6	17
231.7	11
231.9	5
232.0	12
232.1	19
232.2	22
232.3	16
232.6	8
232.7	17
232.8	22
232.9	20
233.0	12
233.2	6
233.3	14
233.4	22
233.5	23
233.6	16
233.8	5
233.9	12
234.0	22
234.1	27
234.2	23
234.3	14
234.5	9
234.6	15
234.7	20
234.8	20
234.9	14
235.1	5
235.2	10
235.3	18
235.4	22
235.5	20
235.6	12
235.8	8
235.9	16
236.0	23
236.1	21
236.2	12
236.4	4
236.5	13
236.6	21
236.7	22
236.8	15
237.0	6
237.1	11
237.2	18
237.3	21
237.4	18
237.5	11
237.7	7
237.8	13
237.9	19
238.0	19
238.1	14
238.4	8
238.5	14
238.6	19
238.7	17
239.0	7
239.1	16
239.2	23
239.3	22
239.4	13
239.6	6
239.7	14
239.8	22
239.9	23
240.0	17
240.1	8
240.3	8
240.4	15
240.5	19
240.6	16
240.9	9
241.0	17
241.1	23
241.2	22
241.3	16
241.5	6
241.6	12
241.7	20
241.8	23
241.9	18
242.0	9
242.2	5
242.3	12
242.4	18
242.5	18
242.6	12
242.8	6
242.9	11
243.0	17
243.1	18
243.2	13
243.4	7
243.5	12
243.6	19
243.7	21
243.8	17
244.0	9
244.1	13
244.2	18
244.3	21
244.4	19
244.5	11
244.7	5
244.8	11
244.9	18
245.0	20
245.1	15
245.4	9
245.5	15
245.6	20
245.7	18
246.0	11
246.1	18
246.2	22
246.3	19
246.4	11
246.6	3
246.7	8
246.8	16
246.9	19
247.0	16
247.2	6
247.3	9
247.4	17
247.5	24
247.6	22
247.7	15
247.9	8
248.0	14
248.1	20
248.2	19
248.3	13
248.5	6
248.6	12
248.7	20
248.8	22
248.9	17
249.0	10
249.2	8
249.3	14
249.4	19
249.5	20
249.6	16
249.8	10
249.9	14
250.0	21
250.1	23
250.2	20
250.3	12
250.5	6
250.6	13
250.7	20
250.8	21
250.9	16
251.1	11
251.2	16
251.3	22
251.4	22
251.5	15
251.8	7
251.9	15
252.0	22
252.1	20
252.2	12
252.4	6
252.5	14
252.6	24
252.7	26
252.8	20
252.9	11
253.1	9
253.2	15
253.3	19
253.4	17
253.5	11
253.7	8
253.8	14
253.9	20
254.0	20
254.1	15
254.3	8
254.4	14
254.5	22
254.6	23
254.7	17
254.8	8
255.0	8
255.1	15
255.2	19
255.3	17
255.4	11
255.6	9
255.7	16
255.8	22
255.9	22
256.0	16
256.9	10
257.0	16
257.1	21
257.2	20
257.3	13
257.5	8
257.6	15
257.7	22
257.8	23
257.9	17
258.0	10
258.2	8
258.3	14
258.4	19
258.5	17
258.6	12
258.8	8
258.9	13
259.0	18
259.1	18
259.2	15
259.4	11
259.5	16
259.6	23
259.7	24
259.8	19
259.9	11
260.1	6
260.2	12
260.3	18
260.4	18
260.5	13
260.7	8
260.8	13
260.9	19
261.0	22
261.1	18
261.2	11
261.4	9
261.5	15
261.6	20
261.7	18
261.8	12
262.0	7
262.1	12
262.2	19
262.3	21
262.4	16
262.5	9
262.7	7
262.8	14
262.9	19
263.0	17
263.1	12
263.3	10
263.4	16
263.5	22
263.6	23
263.7	18
264.6	9
264.7	16
264.8	21
264.9	19
265.0	13
265.2	7
265.3	14
265.4	22
265.5	24
265.6	18
266.5	9
266.6	16
266.7	22
266.8	21
266.9	14
267.1	5
267.2	11
267.3	18
267.4	20
267.5	16
267.6	10
267.8	8
267.9	15
268.0	20
268.1	21
268.2	17
268.4	9
268.5	13
268.6	18
268.7	18
268.8	13
269.0	8
269.1	13
269.2	19
269.3	19
269.4	14
269.6	4
269.7	8
269.8	15
269.9	20
270.0	19
270.1	12
270.3	5
270.4	12
270.5	19
270.6	23
270.7	19
271.0	11
271.1	18
271.2	23
271.3	20
271.4	11
271.6	5
271.7	12
271.8	19
271.9	20
272.0	16
272.2	8
272.3	12
272.4	18
272.5	21
272.6	18
272.7	12
272.9	7
273.0	12
273.1	17
273.2	17
273.3	11
273.5	5
273.6	12
273.7	20
273.8	23
273.9	18
274.0	10
274.2	8
274.3	16
274.4	22
274.5	22
274.6	16
274.8	7
274.9	11
275.0	18
275.1	21
275.2	18
275.3	12
275.5	9
275.6	15
275.7	18
275.8	15
276.0	10
276.1	14
276.2	21
276.3	23
276.4	19
276.5	12
276.7	5
276.8	10
276.9	17
277.0	20
277.1	16
277.3	6
277.4	11
277.5	18
277.6	21
277.7	15
277.8	7
278.0	5
278.1	12
278.2	18
278.3	20
278.4	17
278.7	11
278.8	18
278.9	23
279.0	21
279.1	15
279.3	8
279.4	13
279.5	18
279.6	19
279.7	14
279.9	7
280.0	13
280.1	21
280.2	24
280.3	20
280.4	13
280.6	10
280.7	16
280.8	21
280.9	20
281.0	14
281.2	8
281.3	14
281.4	21
281.5	23
281.6	18
283.1	8
283.2	15
283.3	20
283.4	20
283.5	13
283.7	3
283.8	9
283.9	18
284.0	25
284.1	23
284.2	13
284.4	1
284.5	7
284.6	16
284.7	20
284.8	17
285.0	10
285.1	15
285.2	22
285.3	23
285.4	17
285.5	10
285.7	9
285.8	16
285.9	22
286.0	21
286.1	14
286.3	6
286.4	13
286.5	20
286.6	22
286.7	16
286.9	5
287.0	10
287.1	17
287.2	21
287.3	18
287.4	11
287.6	9
287.7	17
287.8	24
287.9	23
288.0	16
288.9	9
289.0	16
289.1	20
289.2	18
289.3	11
289.5	5
289.6	10
289.7	18
289.8	22
289.9	20
290.0	14
290.2	9
290.3	13
290.4	17
290.5	16
290.6	11
290.8	9
290.9	14
291.0	19
291.1	19
291.2	15
291.4	7
291.5	10
291.6	17
291.7	21
291.8	19
291.9	12
292.1	6
292.2	13
292.3	19
292.4	19
292.5	12
292.7	5
292.8	12
292.9	19
293.0	21
293.1	17
293.2	11
293.4	8
293.5	13
293.6	17
293.7	17
293.8	12
294.0	8
294.1	14
294.2	19
294.3	19
294.4	14
294.6	7
294.7	11
294.8	17
294.9	20
295.0	17
295.1	11
295.3	8
295.4	13
295.5	18
295.6	19
295.7	16
295.9	11
296.0	14
296.1	18
296.2	19
296.3	16
296.5	10
296.6	14
296.7	20
296.8	22
296.9	18
297.2	9
297.3	18
297.4	24
297.5	23
297.6	14
297.9	6
298.0	14
298.1	19
298.2	16
298.4	6
298.5	10
298.6	17
298.7	22
298.8	20
298.9	12
299.1	5
299.2	13
299.3	22
299.4	25
299.5	20
299.6	11
299.8	7
299.9	14
300.0	19
300.1	17
300.2	10
300.4	7
300.5	14
300.6	19
300.7	19
300.8	13
301.0	5
301.1	10
301.2	19
301.3	24
301.4	22
301.5	15
301.7	11
301.8	18
301.9	23
302.0	22
302.1	14
302.3	6
302.4	11
302.5	17
302.6	19
302.7	16
303.0	11
303.1	15
303.2	18
303.3	17
303.4	12
303.6	7
303.7	13
303.8	19
303.9	20
304.0	14
304.2	3
304.3	8
304.4	17
304.5	22
304.6	18
304.7	9
304.9	6
305.0	14
305.1	20
305.2	19
305.3	12
305.5	6
305.6	11
305.7	17
305.8	19
305.9	16
306.7	8
306.8	12
306.9	17
307.0	20
307.1	18
307.2	14
307.4	9
307.5	12
307.6	18
307.7	20
307.8	16
307.9	9
308.1	5
308.2	12
308.3	18
308.4	18
308.5	13
308.7	8
308.8	12
308.9	17
309.0	18
309.1	14
309.3	5
309.4	9
309.5	17
309.6	23
309.7	20
309.8	12
310.0	5
310.1	12
310.2	20
310.3	22
310.4	17
310.5	10
310.7	10
310.8	16
310.9	20
311.0	18
311.1	12
311.3	10
311.4	16
311.5	22
311.6	21
311.7	14
311.9	8
312.0	13
312.1	19
312.2	21
312.3	18
312.6	11
312.7	17
312.8	21
312.9	20
313.0	15
313.3	10
313.4	15
313.5	19
313.6	17
313.7	13
313.9	10
314.0	15
314.1	18
314.2	18
314.3	13
314.5	9
314.6	14
314.7	20
314.8	20
314.9	16
315.1	13
315.2	18
315.3	20
315.4	19
315.5	13
315.7	4
315.8	8
315.9	15
316.0	20
316.1	19
316.2	13
316.4	10
316.5	16
316.6	21
316.7	20
316.8	14
317.0	5
317.1	9
317.2	17
317.3	22
317.4	20
317.5	14
317.7	9
317.8	14
317.9	20
318.0	20
318.1	16
318.3	10
318.4	15
318.5	22
318.6	24
318.7	19
318.8	10
319.0	9
319.1	15
319.2	19
319.3	17
319.4	10
319.6	7
319.7	14
319.8	20
319.9	19
320.0	13
320.2	5
320.3	10
320.4	17
320.5	21
320.6	18
320.7	11
320.9	9
321.0	16
321.1	21
321.2	19
321.3	13
321.5	10
321.6	16
321.7	20
321.8	20
321.9	15
322.1	7
322.2	12
322.3	19
322.4	23
322.5	20
322.6	13
322.8	8
322.9	16
323.0	23
323.1	24
323.2	18
324.1	8
324.2	13
324.3	18
324.4	18
324.5	14
324.7	8
324.8	12
324.9	19
325.0	21
325.1	16
326.0	8
326.1	16
326.2	22
326.3	24
326.4	18
326.6	8
326.7	13
326.8	21
326.9	25
327.0	22
327.1	13
327.3	10
327.4	16
327.5	21
327.6	20
327.7	14
327.9	10
328.0	15
328.1	21
328.2	23
328.3	18
328.4	11
328.6	10
328.7	17
328.8	21
328.9	18
329.0	11
329.2	9
329.3	15
329.4	20
329.5	20
329.6	15
329.8	6
329.9	11
330.0	18
330.1	23
330.2	21
330.3	14
330.5	7
330.6	12
330.7	18
330.8	19
330.9	15
331.1	7
331.2	11
331.3	17
331.4	18
331.5	14
331.8	8
331.9	15
332.0	21
332.1	20
332.2	13
332.4	6
332.5	13
332.6	21
332.7	23
332.8	18
333.1	11
333.2	18
333.3	22
333.4	20
333.5	12
333.7	9
333.8	14
333.9	19
334.0	19
334.1	14
334.3	7
334.4	12
334.5	19
334.6	22
334.7	19
334.8	12
335.0	12
335.1	17
335.2	21
335.3	18
335.4	10
335.6	4
335.7	10
335.8	17
335.9	19
336.0	15
336.2	8
336.3	11
336.4	17
336.5	19
336.6	15
336.7	8
336.9	4
337.0	11
337.1	18
337.2	20
337.3	15
337.5	6
337.6	11
337.7	20
337.8	24
337.9	22
338.0	15
338.2	9
338.3	13
338.4	18
338.5	18
338.6	15
338.8	10
338.9	13
339.0	16
339.1	16
339.2	12
339.4	9
339.5	16
339.6	23
339.7	24
339.8	18
339.9	9
340.1	8
340.2	15
340.3	21
340.4	21
340.5	15
340.7	8
340.8	13
340.9	19
341.0	20
341.1	16
341.4	9
341.5	16
341.6	21
341.7	20
341.8	13
342.0	8
342.1	14
342.2	20
342.3	22
342.4	19
342.6	14
342.7	18
342.8	23
342.9	22
343.0	15
343.1	5
343.3	1
343.4	9
343.5	16
343.6	18
343.7	14
343.9	9
344.0	15
344.1	21
344.2	21
344.3	16
344.6	8
344.7	16
344.8	21
344.9	19
345.0	12
345.2	9
345.3	16
345.4	22
345.5	21
345.6	15
345.8	7
345.9	11
346.0	18
346.1	23
346.2	21
346.3	16
347.1	5
347.2	12
347.3	19
347.4	22
347.5	16
347.6	8
347.8	7
347.9	15
348.0	19
348.1	17
348.4	10
348.5	17
348.6	21
348.7	19
348.8	13
349.0	7
349.1	11
349.2	18
349.3	20
349.4	17
349.5	10
349.7	6
349.8	12
349.9	18
350.0	18
350.1	12
350.3	5
350.4	11
350.5	18
350.6	21
350.7	17
351.0	10
351.1	17
351.2	21
351.3	18
351.4	11
351.6	7
351.7	14
351.8	20
351.9	21
352.0	15
352.8	2
352.9	6
353.0	16
353.1	23
353.2	22
353.3	15
353.5	7
353.6	14
353.7	21
353.8	23
353.9	17
354.2	9
354.3	16
354.4	21
354.5	19
354.6	14
354.8	10
354.9	15
355.0	19
355.1	19
355.2	14
355.4	7
355.5	11
355.6	16
355.7	20
355.8	19
355.9	13
356.1	8
356.2	13
356.3	20
356.4	21
356.5	16
356.7	6
356.8	11
356.9	18
357.0	19
357.1	14
357.3	7
357.4	12
357.5	18
357.6	21
357.7	20
357.8	16
358.0	12
358.1	15
358.2	19
358.3	19
358.4	15
358.6	7
358.7	11
358.8	18
358.9	21
359.0	17
359.1	9
359.3	7
359.4	15
359.5	22
359.6	22
359.7	16
360.0	7
360.1	15
360.2	21
360.3	20
360.4	14
360.6	10
360.7	15
360.8	20
360.9	20
361.0	14
361.2	9
361.3	15
361.4	21
361.5	21
361.6	15
361.8	7
361.9	11
362.0	19
362.1	22
362.2	19
362.3	12
362.5	6
362.6	13
362.7	21
362.8	23
362.9	18
363.0	10
363.2	10
363.3	16
363.4	19
363.5	17
363.8	12
363.9	18
364.0	21
364.1	20
364.2	15
364.4	12
364.5	15
364.6	19
364.7	18
364.8	13
365.0	7
365.1	14
365.2	23
365.3	25
365.4	19
365.5	11
365.7	10
365.8	17
365.9	21
366.0	19
366.1	13
366.3	7
366.4	10
366.5	15
366.6	18
366.7	15
366.9	7
367.0	10
367.1	17
367.2	22
367.3	21
367.4	15
367.6	8
367.7	11
367.8	16
367.9	18
368.0	16
368.2	12
368.3	16
368.4	21
368.5	22
368.6	17
368.8	6
368.9	10
369.0	19
369.1	24
369.2	22
369.3	14
369.5	7
369.6	14
369.7	22
369.8	23
369.9	18
370.1	9
370.2	13
370.3	20
370.4	23
370.5	20
370.6	12
370.8	6
370.9	11
371.0	17
371.1	18
371.2	14
371.4	11
371.5	15
371.6	19
371.7	19
371.8	16
372.0	7
372.1	10
372.2	17
372.3	22
372.4	21
372.5	13
372.7	6
372.8	13
372.9	20
373.0	22
373.1	18
373.4	12
373.5	18
373.6	23
373.7	21
373.8	14
374.0	9
374.1	14
374.2	19
374.3	20
374.4	16
374.6	7
374.7	13
374.8	22
374.9	27
375.0	23
375.1	13
375.3	8
375.4	16
375.5	22
375.6	22
375.7	15
375.9	7
376.0	11
376.1	17
376.2	20
376.3	17
376.4	10
376.6	6
376.7	14
376.8	22
376.9	22
377.0	15
377.8	7
377.9	11
378.0	19
378.1	23
378.2	20
378.3	12
378.5	8
378.6	15
378.7	22
378.8	22
378.9	15
379.1	5
379.2	12
379.3	21
379.4	25
379.5	20
379.6	11
379.8	9
379.9	16
380.0	20
380.1	19
380.2	13
380.4	7
380.5	12
380.6	18
380.7	19
380.8	15
381.0	8
381.1	12
381.2	18
381.3	20
381.4	18
381.5	13
381.7	8
381.8	13
381.9	18
382.0	18
382.1	12
382.3	6
382.4	13
382.5	20
382.6	21
382.7	15
383.0	7
383.1	14
383.2	19
383.3	18
383.4	12
383.6	8
383.7	14
383.8	21
383.9	21
384.0	14
384.2	2
384.3	7
384.4	17
384.5	24
384.6	23
384.7	16
384.9	7
385.0	12
385.1	19
385.2	22
385.3	18
385.4	12
386.1	3
386.2	7
386.3	15
386.4	19
386.5	15
386.8	7
386.9	14
387.0	19
387.1	18
387.2	12
387.4	6
387.5	12
387.6	20
387.7	22
387.8	18
387.9	11
388.1	7
388.2	13
388.3	20
388.4	21
388.5	15
388.7	7
388.8	12
388.9	19
389.0	22
389.1	17
389.3	10
389.4	14
389.5	21
389.6	25
389.7	22
389.8	14
390.0	7
390.1	14
390.2	22
390.3	23
390.4	17
390.6	8
390.7	15
390.8	22
390.9	23
391.0	16
391.3	7
391.4	15
391.5	21
391.6	20
391.7	14
391.9	7
392.0	13
392.1	19
392.2	22
392.3	17
392.4	9
392.6	7
392.7	14
392.8	20
392.9	21
393.0	15
393.2	6
393.3	11
393.4	16
393.5	17
393.6	13
393.9	7
394.0	14
394.1	18
394.2	17
394.5	10
394.6	17
394.7	23
394.8	22
394.9	16
395.1	8
395.2	12
395.3	19
395.4	22
395.5	19
395.6	10
395.8	4
395.9	11
396.0	17
396.1	18
396.2	13
396.4	8
396.5	13
396.6	18
396.7	19
396.8	14
397.0	8
397.1	13
397.2	19
397.3	21
397.4	15
397.7	6
397.8	15
397.9	22
398.0	21
398.1	14
398.3	5
398.4	11
398.5	18
398.6	20
398.7	14
398.9	4
399.0	9
399.1	17
399.2	21
399.3	18
399.4	11
399.6	7
399.7	13
399.8	19
399.9	19
400.0	15
400.2	8
400.3	12
400.4	19
400.5	23
400.6	20
400.7	11
400.9	5
401.0	13
401.1	20
401.2	22
401.3	16
401.5	5
401.6	10
401.7	18
401.8	21
401.9	16
402.1	6
402.2	10
402.3	18
402.4	23
402.5	21
402.6	13
402.8	7
402.9	13
403.0	19
403.1	19
403.2	13
403.4	5
403.5	11
403.6	20
403.7	24
403.8	20
403.9	12
404.1	10
404.2	15
404.3	18
404.4	16
404.5	11
404.7	7
404.8	13
404.9	21
405.0	24
405.1	21
405.2	13
405.4	11
405.5	16
405.6	19
405.7	16
406.0	11
406.1	17
406.2	22
406.3	22
406.4	15
406.6	5
406.7	9
406.8	16
406.9	20
407.0	17
407.1	10
407.3	7
407.4	15
407.5	22
407.6	23
407.7	17
407.8	8
408.0	8
408.1	15
408.2	18
408.3	16
408.5	11
408.6	14
408.7	19
408.8	21
408.9	17
409.0	11
409.2	8
409.3	14
409.4	18
409.5	18
409.6	13
409.8	8
409.9	12
410.0	18
410.1	20
410.2	15
410.5	7
410.6	16
410.7	21
410.8	18
411.1	11
411.2	18
411.3	24
411.4	23
411.5	16
411.7	7
411.8	11
411.9	19
412.0	23
412.1	20
412.2	11
412.4	7
412.5	16
412.6	24
412.7	24
412.8	16
412.9	8
413.1	7
413.2	13
413.3	18
413.4	17
413.7	9
413.8	17
413.9	23
414.0	20
414.1	11
414.3	4
414.4	12
414.5	21
414.6	23
414.7	16
414.9	3
415.0	8
415.1	18
415.2	25
415.3	23
415.4	13
415.6	5
415.7	13
415.8	23
415.9	25
416.0	19
416.1	10
416.3	9
416.4	14
416.5	18
416.6	18
416.8	13
416.9	15
417.0	20
417.1	23
417.2	19
417.3	12
417.5	8
417.6	14
417.7	19
417.8	19
417.9	15
418.1	10
418.2	14
418.3	19
418.4	21
418.5	18
418.6	11
418.8	6
418.9	12
419.0	19
419.1	19
419.2	14
419.4	6
419.5	12
419.6	19
419.7	23
419.8	20
419.9	13
420.1	7
420.2	14
420.3	21
420.4	21
420.5	14
420.7	8
420.8	14
420.9	21
421.0	24
421.1	20
421.2	13
421.4	12
421.5	19
421.6	23
421.7	18
421.8	9
422.0	7
422.1	16
422.2	24
422.3	24
422.4	17
422.6	9
422.7	13
422.8	19
422.9	20
423.0	17
423.3	11
423.4	17
423.5	22
423.6	22
423.7	16
424.6	7
424.7	14
424.8	18
424.9	16
425.2	10
425.3	17
425.4	24
425.5	25
425.6	18
425.7	9
425.9	7
426.0	16
426.1	22
426.2	22
426.3	16
426.5	8
426.6	12
426.7	18
426.8	20
426.9	15
427.1	5
427.2	9
427.3	18
427.4	24
427.5	21
427.6	12
427.8	7
427.9	14
428.0	19
428.1	18
428.2	11
428.4	9
428.5	15
428.6	20
428.7	20
428.8	15
429.0	8
429.1	13
429.2	18
429.3	17
429.4	12
429.6	1
429.7	5
429.8	14
429.9	21
430.0	21
430.1	14
430.3	8
430.4	12
430.5	17
430.6	17
430.7	13
430.9	8
431.0	12
431.1	17
431.2	20
431.3	19
431.4	18
431.5	18
431.6	19
431.7	18
431.8	18
431.9	22
432.0	27
432.1	30
432.2	31
432.3	34
432.4	35
432.5	31
432.6	20
432.7	8
432.9	5
433.0	14
433.1	20
433.2	20
433.3	13
433.5	8
433.6	14
433.7	20
433.8	20
433.9	15
434.1	5
434.2	9
434.3	17
434.4	21
434.5	18
434.6	11
434.8	5
434.9	10
435.0	17
435.1	19
435.2	16
435.4	6
435.5	10
435.6	17
435.7	22
435.8	21
435.9	14
436.1	10
436.2	16
436.3	21
436.4	19
436.5	12
436.7	4
436.8	11
436.9	20
437.0	23
437.1	19
437.4	11
437.5	18
437.6	22
437.7	20
437.8	14
438.0	9
438.1	13
438.2	17
438.3	18
438.4	16
438.6	8
438.7	12
438.8	20
438.9	23
439.0	18
439.1	9
439.3	6
439.4	14
439.5	22
439.6	22
439.7	15
439.9	4
440.0	11
440.1	19
440.2	20
440.3	14
440.6	6
440.7	14
440.8	19
440.9	17
441.2	10
441.3	17
441.4	23
441.5	23
441.6	16
441.7	9
441.9	9
442.0	15
442.1	19
442.2	16
442.4	8
442.5	12
442.6	18
442.7	22
442.8	21
442.9	15
443.1	6
443.2	10
443.3	17
443.4	22
443.5	20
443.6	14
443.8	10
443.9	15
444.0	20
444.1	19
444.2	12
444.4	4
444.5	11
444.6	19
444.7	22
444.8	17
445.0	8
445.1	12
445.2	18
445.3	19
445.4	14
445.7	8
445.8	15
445.9	19
446.0	17
446.1	11
446.3	8
446.4	14
446.5	20
446.6	20
446.7	15
446.9	5
447.0	11
447.1	21
447.2	25
447.3	20
447.4	11
447.6	9
447.7	18
447.8	25
447.9	24
448.0	17
448.1	8
448.3	7
448.4	13
448.5	18
448.6	17
448.7	13
448.9	11
449.0	15
449.1	18
449.2	15
449.5	8
449.6	16
449.7	24
449.8	25
449.9	19
450.0	10
450.2	9
450.3	16
450.4	21
450.5	19
450.6	12
450.8	6
450.9	15
451.0	24
451.1	25
451.2	17
452.1	9
452.2	16
452.3	22
452.4	21
452.5	14
452.7	8
452.8	14
452.9	21
453.0	21
453.1	15
453.4	9
453.5	16
453.6	20
453.7	18
453.8	12
454.0	10
454.1	16
454.2	21
454.3	21
454.4	15
455.3	11
455.4	16
455.5	19
455.6	17
455.7	12
455.9	6
456.0	11
456.1	19
456.2	22
456.3	19
456.4	13
456.6	10
456.7	15
456.8	19
456.9	17
457.0	11
457.2	7
457.3	14
457.4	20
457.5	20
457.6	14
457.8	7
457.9	12
458.0	18
458.1	20
458.2	16
458.5	9
458.6	16
458.7	21
458.8	20
458.9	14
459.1	9
459.2	15
459.3	19
459.4	19
459.5	14
459.7	7
459.8	10
459.9	17
460.0	21
460.1	19
460.2	12
460.4	9
460.5	16
460.6	21
460.7	19
460.8	12
461.0	8
461.1	16
461.2	22
461.3	22
461.4	16
461.6	5
461.7	10
461.8	19
461.9	24
462.0	20
462.1	10
462.3	6
462.4	14
462.5	22
462.6	24
462.7	19
462.8	11
463.0	9
463.1	15
463.2	20
463.3	19
463.4	14
463.6	9
463.7	14
463.8	20
463.9	21
464.0	15
464.2	4
464.3	8
464.4	17
464.5	23
464.6	22
464.7	16
464.9	8
465.0	12
465.1	16
465.2	16
465.3	11
465.5	8
465.6	14
465.7	21
465.8	22
465.9	17
466.2	11
466.3	17
466.4	21
466.5	18
466.6	12
466.8	9
466.9	17
467.0	25
467.1	26
467.2	19
468.1	9
468.2	16
468.3	20
468.4	19
468.5	12
468.7	6
468.8	12
468.9	18
469.0	20
469.1	14
469.3	2
469.4	8
469.5	18
469.6	24
469.7	21
469.8	13
470.0	9
470.1	15
470.2	20
470.3	18
470.4	11
470.6	6
470.7	12
470.8	18
470.9	21
471.0	17
471.1	11
471.3	9
471.4	15
471.5	18
471.6	17
471.7	12
471.9	8
472.0	15
472.1	22
472.2	25
472.3	20
472.4	13
472.6	11
472.7	18
472.8	23
472.9	20
473.0	12
473.2	8
473.3	15
473.4	20
473.5	19
473.6	13
473.8	7
473.9	11
474.0	17
474.1	20
474.2	18
474.3	14
474.5	11
474.6	16
474.7	21
474.8	21
474.9	15
475.1	6
475.2	11
475.3	18
475.4	20
475.5	15
475.8	7
475.9	15
476.0	21
476.1	21
476.2	16
477.0	6
477.1	11
477.2	18
477.3	21
477.4	19
477.5	13
477.7	9
477.8	14
477.9	20
478.0	20
478.1	15
478.3	10
478.4	16
478.5	22
478.6	22
478.7	17
478.8	10
479.0	9
479.1	15
479.2	20
479.3	19
479.4	13
479.6	8
479.7	16
479.8	24
479.9	25
480.0	18
480.3	9
480.4	19
480.5	24
480.6	22
480.7	13
480.9	7
481.0	15
481.1	22
481.2	21
481.3	14
481.5	6
481.6	12
481.7	19
481.8	21
481.9	16
482.2	9
482.3	16
482.4	22
482.5	20
482.6	13
482.8	6
482.9	13
483.0	22
483.1	25
483.2	20
483.3	13
483.5	12
483.6	17
483.7	19
483.8	16
483.9	12
484.1	9
484.2	15
484.3	20
484.4	21
484.5	16
484.7	9
484.8	13
484.9	19
485.0	22
485.1	19
485.2	12
485.4	8
485.5	14
485.6	20
485.7	20
485.8	14
486.0	10
486.1	15
486.2	19
486.3	19
486.4	14
486.6	7
486.7	12
486.8	19
486.9	21
487.0	16
487.1	6
487.3	3
487.4	14
487.5	23
487.6	24
487.7	20
487.9	15
488.0	18
488.1	22
488.2	21
488.3	14
488.5	4
488.6	9
488.7	17
488.8	22
488.9	20
489.0	12
489.2	8
489.3	16
489.4	22
489.5	21
489.6	14
489.8	8
489.9	14
490.0	20
490.1	21
490.2	16
490.3	8
490.5	5
490.6	12
490.7	17
490.8	16
490.9	12
491.1	8
491.2	13
491.3	18
491.4	20
491.5	16
492.4	6
492.5	12
492.6	18
492.7	18
492.8	13
493.0	5
493.1	11
493.2	18
493.3	21
493.4	18
493.5	11
493.7	6
493.8	12
493.9	18
494.0	21
494.1	18
494.9	7
495.0	11
495.1	18
495.2	22
495.3	19
495.4	12
495.6	5
495.7	10
495.8	17
495.9	19
496.0	16
496.9	6
497.0	15
497.1	22
497.2	21
497.3	14
497.5	6
497.6	12
497.7	21
497.8	24
497.9	20
498.0	12
498.2	9
498.3	15
498.4	19
498.5	17
498.6	11
498.8	8
498.9	15
499.0	21
499.1	21
499.2	16
499.4	6
499.5	10
499.6	18
499.7	22
499.8	20
499.9	14
500.1	10
500.2	16
500.3	21
500.4	21
500.5	14
500.7	2
500.8	7
500.9	16
501.0	22
501.1	20
501.2	13
501.4	9
501.5	15
501.6	20
501.7	19
501.8	12
502.0	5
502.1	10
502.2	16
502.3	20
502.4	18
502.5	13
502.7	11
502.8	16
502.9	19
503.0	17
503.3	11
503.4	17
503.5	20
503.6	19
503.7	13
503.9	8
504.0	12
504.1	17
504.2	18
504.3	14
504.5	6
504.6	10
504.7	17
504.8	22
504.9	21
505.0	15
505.2	10
505.3	15
505.4	20
505.5	21
505.6	17
505.7	11
505.9	9
506.0	14
506.1	17
506.2	15
506.3	9
506.5	5
506.6	12
506.7	20
506.8	22
506.9	15
507.1	4
507.2	9
507.3	17
507.4	19
507.5	14
507.7	7
507.8	11
507.9	15
508.0	17
508.1	15
508.4	8
508.5	15
508.6	21
508.7	22
508.8	16
509.1	8
509.2	17
509.3	22
509.4	20
509.5	13
509.7	11
509.8	17
509.9	21
510.0	18
510.1	10
510.3	3
510.4	8
510.5	18
510.6	24
510.7	22
510.8	14
511.0	9
511.1	16
511.2	21
511.3	21
511.4	15
511.6	7
511.7	11
511.8	16
511.9	17
512.0	12
512.2	7
512.3	13
512.4	20
512.5	22
512.6	18
512.7	10
512.9	7
513.0	15
513.1	22
513.2	22
513.3	15
513.5	9
513.6	14
513.7	20
513.8	21
513.9	16
514.1	7
514.2	12
514.3	19
514.4	24
514.5	21
514.6	13
514.8	6
514.9	13
515.0	20
515.1	22
515.2	18
516.1	9
516.2	17
516.3	23
516.4	23
516.5	17
516.7	8
516.8	13
516.9	20
517.0	22
517.1	17
517.4	9
517.5	16
517.6	19
517.7	17
517.8	11
518.0	7
518.1	13
518.2	19
518.3	20
518.4	14
518.6	6
518.7	12
518.8	20
518.9	23
519.0	19
519.1	11
519.3	9
519.4	15
519.5	20
519.6	19
519.7	14
519.9	10
520.0	15
520.1	21
520.2	24
520.3	21
520.4	14
520.6	10
520.7	16
520.8	21
520.9	19
521.2	10
521.3	18
521.4	24
521.5	23
521.6	15
521.8	5
521.9	11
522.0	19
522.1	23
522.2	21
522.3	14
522.5	8
522.6	13
522.7	19
522.8	20
522.9	15
523.1	6
523.2	11
523.3	18
523.4	21
523.5	16
523.8	8
523.9	16
524.0	22
524.1	19
524.2	12
524.4	7
524.5	13
524.6	19
524.7	21
524.8	17
525.0	10
525.1	15
525.2	21
525.3	23
525.4	19
525.5	12
525.7	8
525.8	15
525.9	22
526.0	22
526.1	16
526.3	7
526.4	13
526.5	21
526.6	24
526.7	20
526.8	11
527.0	6
527.1	15
527.2	22
527.3	21
527.4	13
527.6	7
527.7	14
527.8	20
527.9	19
528.0	12
528.2	4
528.3	10
528.4	18
528.5	22
528.6	18
528.9	9
529.0	17
529.1	24
529.2	23
529.3	15
529.5	4
529.6	10
529.7	18
529.8	22
529.9	18
530.0	10
530.2	8
530.3	17
530.4	24
530.5	24
530.6	17
530.7	10
531.4	7
531.5	12
531.6	20
531.7	23
531.8	18
531.9	9
532.1	8
532.2	16
532.3	22
532.4	21
532.5	14
532.7	8
532.8	14
532.9	21
533.0	23
533.1	17
533.2	8
533.4	7
533.5	14
533.6	19
533.7	19
533.8	12
534.0	4
534.1	10
534.2	18
534.3	21
534.4	16
534.6	7
534.7	13
534.8	21
534.9	24
535.0	18
535.1	9
535.3	7
535.4	15
535.5	22
535.6	21
535.7	14
535.9	9
536.0	14
536.1	20
536.2	20
536.3	16
536.5	8
536.6	12
536.7	18
536.8	21
536.9	17
537.0	10
537.2	4
537.3	11
537.4	19
537.5	21
537.6	15
537.8	5
537.9	10
538.0	19
538.1	23
538.2	19
538.3	10
538.5	6
538.6	14
538.7	21
538.8	21
538.9	16
539.2	10
539.3	15
539.4	18
539.5	17
539.6	13
539.8	10
539.9	14
540.0	17
540.1	15
540.2	10
540.4	8
540.5	14
540.6	20
540.7	22
540.8	17
541.7	11
541.8	17
541.9	21
542.0	18
542.1	10
542.3	3
542.4	10
542.5	18
542.6	21
542.7	17
542.9	8
543.0	12
543.1	18
543.2	21
543.3	18
543.4	12
543.6	9
543.7	14
543.8	20
543.9	20
544.0	15
544.2	7
544.3	12
544.4	18
544.5	20
544.6	18
544.7	12
544.9	9
545.0	14
545.1	19
545.2	20
545.3	15
546.1	7
546.2	10
546.3	17
546.4	21
546.5	20
546.6	15
546.8	10
546.9	15
547.0	20
547.1	20
547.2	15
547.4	7
547.5	11
547.6	17
547.7	19
547.8	16
548.1	10
548.2	16
548.3	21
548.4	20
548.5	13
548.7	6
548.8	12
548.9	19
549.0	21
549.1	17
549.2	12
549.4	11
549.5	15
549.6	17
549.7	15
549.8	11
550.0	8
550.1	14
550.2	20
550.3	21
550.4	16
551.3	5
551.4	12
551.5	20
551.6	22
551.7	16
551.8	8
552.0	7
552.1	13
552.2	16
552.3	14
552.6	7
552.7	14
552.8	20
552.9	21
553.0	15
553.2	9
553.3	13
553.4	18
553.5	19
553.6	14
553.8	8
553.9	13
554.0	19
554.1	20
554.2	16
554.3	9
554.5	5
554.6	13
554.7	21
554.8	24
554.9	18
555.0	11
555.7	7
555.8	11
555.9	17
556.0	21
556.1	21
556.2	16
556.4	10
556.5	14
556.6	19
556.7	18
556.8	11
557.0	2
557.1	10
557.2	20
557.3	26
557.4	23
557.5	13
557.7	5
557.8	11
557.9	17
558.0	19
558.1	16
559.0	8
559.1	15
559.2	20
559.3	19
559.4	13
559.6	7
559.7	14
559.8	20
559.9	22
560.0	19
560.1	14
560.8	7
560.9	11
561.0	19
561.1	24
561.2	21
561.3	12
561.5	2
561.6	9
561.7	17
561.8	21
561.9	17
562.8	6
562.9	11
563.0	17
563.1	19
563.2	16
563.4	12
563.5	15
563.6	21
563.7	22
563.8	17
563.9	9
564.1	6
564.2	14
564.3	22
564.4	23
564.5	17
564.8	10
564.9	15
565.0	19
565.1	19
565.2	14
565.4	11
565.5	15
565.6	19
565.7	18
566.0	14
566.1	19
566.2	22
566.3	20
566.4	14
566.6	9
566.7	13
566.8	18
566.9	19
567.0	15
567.2	9
567.3	13
567.4	20
567.5	23
567.6	20
567.7	13
567.9	7
568.0	14
568.1	21
568.2	22
568.3	16
568.5	5
568.6	9
568.7	17
568.8	22
568.9	19
569.0	11
569.2	7
569.3	13
569.4	19
569.5	18
569.6	12
569.8	6
569.9	12
570.0	18
570.1	20
570.2	17
570.3	12
570.5	9
570.6	15
570.7	22
570.8	23
570.9	18
571.1	10
571.2	13
571.3	19
571.4	21
571.5	19
571.7	13
571.8	16
571.9	21
572.0	23
572.1	17
572.2	8
572.4	5
572.5	14
572.6	21
572.7	22
572.8	16
573.0	7
573.1	13
573.2	20
573.3	22
573.4	18
573.6	8
573.7	12
573.8	19
573.9	23
574.0	20
574.1	12
574.3	8
574.4	15
574.5	23
574.6	25
574.7	19
574.8	9
575.0	5
575.1	13
575.2	20
575.3	20
575.4	15
575.6	9
575.7	13
575.8	20
575.9	22
576.0	18
576.2	11
576.3	15
576.4	21
576.5	23
576.6	18
576.9	9
577.0	17
577.1	21
577.2	19
577.3	12
577.5	10
577.6	18
577.7	23
577.8	23
577.9	17
578.1	9
578.2	13
578.3	20
578.4	23
578.5	19
578.6	12
578.8	10
578.9	15
579.0	19
579.1	18
579.2	12
579.4	5
579.5	10
579.6	18
579.7	22
579.8	18
579.9	10
580.1	5
580.2	14
580.3	23
580.4	24
580.5	17
580.7	5
580.8	11
580.9	19
581.0	21
581.1	15
581.4	7
581.5	14
581.6	19
581.7	18
581.8	13
582.0	10
582.1	15
582.2	20
582.3	20
582.4	15
582.6	8
582.7	13
582.8	20
582.9	23
583.0	19
583.1	10
583.3	7
583.4	14
583.5	20
583.6	19
583.7	12
583.9	6
584.0	11
584.1	18
584.2	19
584.3	15
584.6	9
584.7	16
584.8	20
584.9	17
585.0	10
585.2	6
585.3	11
585.4	17
585.5	18
585.6	14
585.8	4
585.9	8
586.0	16
586.1	21
586.2	18
586.3	10
586.5	5
586.6	12
586.7	18
586.8	19
586.9	13
587.1	6
587.2	13
587.3	21
587.4	24
587.5	19
587.6	11
587.8	10
587.9	17
588.0	22
588.1	20
588.2	13
588.4	9
588.5	16
588.6	21
588.7	21
588.8	15
589.1	8
589.2	14
589.3	18
589.4	15
589.6	5
589.7	9
589.8	17
589.9	21
590.0	19
590.1	12
590.3	9
590.4	15
590.5	20
590.6	19
590.7	13
590.9	1
591.0	6
591.1	14
591.2	20
591.3	20
591.4	15
591.6	10
591.7	14
591.8	20
591.9	20
592.0	15
592.2	6
592.3	10
592.4	16
592.5	20
592.6	18
592.9	10
593.0	18
593.1	24
593.2	23
593.3	14
593.5	4
593.6	12
593.7	22
593.8	25
593.9	19
594.1	8
594.2	13
594.3	21
594.4	23
594.5	19
594.6	11
594.8	7
594.9	13
595.0	18
595.1	19
595.2	14
595.4	7
595.5	11
595.6	17
595.7	21
595.8	18
595.9	12
596.1	10
596.2	16
596.3	21
596.4	21
596.5	15
597.3	7
597.4	11
597.5	17
597.6	20
597.7	19
597.8	15
598.0	12
598.1	16
598.2	20
598.3	20
598.4	14
598.6	7
598.7	13
598.8	21
598.9	25
599.0	22
599.1	14
599.3	8
599.4	13
599.5	19
599.6	19
