Mass spectrum: Erythromycin propionate; LC-ESI-QQQ; MS2; Frag=135.0V CID@15.0 ; [M+H]+
Name: Erythromycin propionate
Class: Polyketides
Formula: C40H71NO14
Exact mass: 790.01017
SMILES: CCC(=O)OC1C(O[C@@H]2C(C)[C@H](OC3CC(C)(OC)[C@H](O)[C@@H](C)O3)[C@@H](C)C(=O)OC(CC)[C@@](C)(O)[C@H](O)[C@@H](C)C(=O)[C@H](C)C[C@]2(C)O)OC(C)CC1N(C)C
InChI: InChI=1S/C40H71NO14/c1-15-27-40(11,48)33(44)22(5)30(43)20(3)18-38(9,47)35(55-37-32(53-28(42)16-2)26(41(12)13)17-21(4)50-37)23(6)31(24(7)36(46)52-27)54-29-19-39(10,49-14)34(45)25(8)51-29/h20-27,29,31-35,37,44-45,47-48H,15-19H2,1-14H3/t20-,21?,22+,23?,24-,25-,26?,27?,29?,31+,32?,33-,34-,35-,37?,38+,39?,40-/m1/s1
Instrument: Agilent 6410 Triple Quadrupole LC/MS system
Instrument type: LC-ESI-QQQ
Ms type: MS2
Ion mode: POSITIVE
Precursor type: [M+H]+
m/z	relative intensity
213.1	2
213.2	3
213.3	5
213.4	11
213.5	22
213.6	40
213.7	63
213.8	85
213.9	99
214.0	98
214.1	81
214.2	53
214.3	25
214.4	7
214.5	0
789.3	6
789.4	7
789.5	8
789.6	12
789.7	20
789.8	31
789.9	39
790.0	42
790.1	43
790.2	49
790.3	62
790.4	74
790.5	72
790.6	53
790.7	26
790.8	5
790.9	0
