Mass spectrum: Progesterone; LC-ESI-QQQ; MS2; Frag=135.0V CID@15.0; [M+H]+
Name: Progesterone
Class: Steroids
Formula: C21H30O2
Exact mass: 314.4721
SMILES: CC(=O)C1CCC2C3CCC4=CC(=O)CC[C@]4(C)C3CC[C@]12C
InChI: InChI=1S/C21H30O2/c1-13(22)17-6-7-18-16-5-4-14-12-15(23)8-10-20(14,2)19(16)9-11-21(17,18)3/h12,16-19H,4-11H2,1-3H3/t16?,17?,18?,19?,20-,21+/m0/s1
Instrument: Agilent 6410 Triple Quadrupole LC/MS system
Instrument type: LC-ESI-QQQ
Ms type: MS2
Ion mode: POSITIVE
Precursor type: [M+H]+
m/z	relative intensity
96.2	0
96.3	1
96.4	5
96.5	11
96.6	22
96.7	38
96.8	58
96.9	79
97.0	94
97.1	99
97.2	94
97.3	80
97.4	60
97.5	34
97.6	12
97.7	0
108.3	1
108.4	3
108.5	7
108.6	15
108.7	26
108.8	43
108.9	60
109.0	72
109.1	76
109.2	73
109.3	63
109.4	45
109.5	24
109.6	7
109.7	0
122.6	1
122.7	3
122.8	4
122.9	6
123.0	7
123.1	7
123.2	7
123.3	6
123.4	4
123.5	2
214.9	2
215.0	4
215.1	5
215.2	5
215.3	5
215.4	4
215.5	2
254.8	1
254.9	3
255.0	4
255.1	5
255.2	5
255.3	5
255.4	5
255.5	3
255.6	2
278.7	1
278.8	2
278.9	4
279.0	5
279.1	7
279.2	7
279.3	7
279.4	6
279.5	4
279.6	2
296.6	1
296.7	2
296.8	4
296.9	7
297.0	12
297.1	16
297.2	18
297.3	19
297.4	17
297.5	12
297.6	7
297.7	2
314.4	0
314.5	2
314.6	5
314.7	10
314.8	18
314.9	29
315.0	45
315.1	62
315.2	75
315.3	81
315.4	77
315.5	61
315.6	36
315.7	13
315.8	0
