Mass spectrum: oreoselone; LC-ESI-QQQ; MS2; Frag=135.0V CID@25.0; [M+H]+
Name: oreoselone
Class: Benzopyranoids
Formula: C14H12O4
Exact mass: 244.2493
SMILES: CC(C)C1Oc2cc3oc(=O)ccc3cc2C1=O
InChI: InChI=1S/C14H12O4/c1-7(2)14-13(16)9-5-8-3-4-12(15)17-10(8)6-11(9)18-14/h3-7,14H,1-2H3
Instrument: Agilent 6410 Triple Quadrupole LC/MS system
Instrument type: LC-ESI-QQQ
Ms type: MS2
Ion mode: POSITIVE
Precursor type: [M+H]+
m/z	relative intensity
88.5	1
88.6	2
88.7	4
88.8	6
88.9	7
89.0	8
89.1	8
89.2	8
89.3	8
89.4	6
89.5	3
104.6	1
104.7	2
104.8	3
104.9	4
105.0	5
105.1	5
105.2	4
105.3	4
105.4	2
116.8	1
116.9	3
117.0	5
117.1	5
117.2	4
117.3	3
132.5	2
132.6	3
132.7	5
132.8	8
132.9	11
133.0	13
133.1	13
133.2	11
133.3	9
133.4	5
133.5	1
144.3	1
144.4	2
144.5	5
144.6	11
144.7	18
144.8	26
144.9	32
145.0	34
145.1	33
145.2	30
145.3	25
145.4	17
145.5	8
145.6	1
188.2	0
188.3	2
188.4	6
188.5	15
188.6	27
188.7	44
188.8	63
188.9	81
189.0	94
189.1	99
189.2	95
189.3	80
189.4	55
189.5	25
189.6	4
189.7	0
