Mass spectrum: 2,3,14,20,22,25-Hexahydroxycholest-7-en-6-one; LC-ESI-QQQ; MS2; Frag=135.0V CID@5.0; [M+H]+
Name: 2,3,14,20,22,25-Hexahydroxycholest-7-en-6-one
Class: Steroids
Formula: C27H44O7
Exact mass: 480.6475
SMILES: CC(C)(O)CC[C@H](O)[C@](C)(O)C1CC[C@@]2(O)C3=CC(=O)C4CC(O)C(O)C[C@]4(C)C3CC[C@]12C
InChI: InChI=1S/C27H44O7/c1-23(2,32)9-8-22(31)26(5,33)21-7-11-27(34)16-12-18(28)17-13-19(29)20(30)14-24(17,3)15(16)6-10-25(21,27)4/h12,15,17,19-22,29-34H,6-11,13-14H2,1-5H3/t15?,17?,19?,20?,21?,22-,24+,25+,26+,27+/m0/s1
Instrument: Agilent 6410 Triple Quadrupole LC/MS system
Instrument type: LC-ESI-QQQ
Ms type: MS2
Ion mode: POSITIVE
Precursor type: [M+H]+
m/z	relative intensity
302.6	3
302.7	4
302.8	6
302.9	8
303.0	11
303.1	13
303.2	14
303.3	13
303.4	10
303.5	5
303.6	2
370.4	2
370.5	3
370.6	5
370.7	10
370.8	19
370.9	33
371.0	48
371.1	62
371.2	74
371.3	81
371.4	75
371.5	55
371.6	27
371.7	6
371.8	0
426.7	3
426.8	5
426.9	9
427.0	15
427.1	20
427.2	21
427.3	20
427.4	16
427.5	11
427.6	6
427.7	2
444.3	1
444.4	2
444.5	4
444.6	6
444.7	9
444.8	18
444.9	33
445.0	55
445.1	77
445.2	93
445.3	99
445.4	94
445.5	75
445.6	46
445.7	17
445.8	0
462.5	2
462.6	4
462.7	6
462.8	8
462.9	11
463.0	15
463.1	19
463.2	23
463.3	29
463.4	32
463.5	28
463.6	19
463.7	8
463.8	1
480.4	2
480.5	4
480.6	6
480.7	13
480.8	25
480.9	44
481.0	65
481.1	83
481.2	94
481.3	98
481.4	96
481.5	82
481.6	57
481.7	28
481.8	6
481.9	0
