Mass spectrum: 20-Hydroxyecdysone 20,22-acetonide; LC-ESI-QQQ; MS2; Frag=135.0V CID@25.0; [M+H]+
Name: 20-Hydroxyecdysone 20,22-acetonide
Class: Steroids
Formula: C30H48O7
Exact mass: 520.7129
SMILES: CC(C)(O)CC[C@H]1OC(C)(C)O[C@]1(C)[C@H]1CC[C@@]2(O)C3=CC(=O)[C@@H]4C[C@@H](O)[C@@H](O)C[C@]4(C)[C@H]3CC[C@]12C
InChI: InChI=1S/C30H48O7/c1-25(2,34)11-10-24-29(7,37-26(3,4)36-24)23-9-13-30(35)18-14-20(31)19-15-21(32)22(33)16-27(19,5)17(18)8-12-28(23,30)6/h14,17,19,21-24,32-35H,8-13,15-16H2,1-7H3/t17-,19-,21+,22-,23-,24+,27+,28+,29+,30+/m0/s1
Instrument: Agilent 6410 Triple Quadrupole LC/MS system
Instrument type: LC-ESI-QQQ
Ms type: MS2
Ion mode: POSITIVE
Precursor type: [M+H]+
m/z	relative intensity
68.6	2
68.7	4
68.8	8
68.9	11
69.0	13
69.1	12
69.2	10
69.3	7
69.4	4
80.8	4
80.9	5
81.0	8
81.1	10
81.2	10
81.3	8
81.4	4
81.5	1
84.6	2
84.7	3
84.8	5
84.9	6
85.0	5
85.1	4
85.2	2
96.4	1
96.5	3
96.6	7
96.7	13
96.8	19
96.9	23
97.0	24
97.1	21
97.2	17
97.3	12
97.4	7
97.5	3
98.3	1
98.4	2
98.5	4
98.6	7
98.7	9
98.8	12
98.9	13
99.0	14
99.1	12
99.2	9
99.3	5
99.4	2
106.4	0
106.5	2
106.6	4
106.7	7
106.8	12
106.9	15
107.0	17
107.1	16
107.2	13
107.3	9
107.4	4
107.5	1
108.6	1
108.7	3
108.8	5
108.9	7
109.0	8
109.1	7
109.2	6
109.3	4
109.4	2
122.6	0
122.7	3
122.8	6
122.9	9
123.0	10
123.1	10
123.2	8
123.3	5
123.4	2
124.3	1
124.4	2
124.5	6
124.6	10
124.7	12
124.8	13
124.9	14
125.0	17
125.1	21
125.2	22
125.3	18
125.4	11
125.5	4
126.7	3
126.8	4
126.9	6
127.0	7
127.1	8
127.2	8
127.3	6
127.4	4
127.5	2
134.7	3
134.8	5
134.9	7
135.0	9
135.1	9
135.2	8
135.3	5
135.4	2
142.6	1
142.7	3
142.8	5
142.9	6
143.0	8
143.1	8
143.2	8
143.3	6
143.4	3
146.5	2
146.6	3
146.7	5
146.8	8
146.9	10
147.0	10
147.1	10
147.2	9
147.3	7
147.4	4
147.5	2
148.7	2
148.8	4
148.9	6
149.0	9
149.1	10
149.2	10
149.3	8
149.4	5
149.5	2
158.7	1
158.8	4
158.9	6
159.0	8
159.1	8
159.2	6
159.3	3
164.3	1
164.4	3
164.5	6
164.6	10
164.7	18
164.8	32
164.9	54
165.0	79
165.1	96
165.2	99
165.3	89
165.4	66
165.5	38
165.6	13
165.7	0
170.8	2
170.9	4
171.0	7
171.1	9
171.2	9
171.3	7
171.4	4
171.5	1
172.3	2
172.4	3
172.5	5
172.6	6
172.7	7
172.8	9
172.9	12
173.0	16
173.1	18
173.2	17
173.3	13
173.4	8
173.5	4
178.8	1
178.9	2
179.0	5
179.1	7
179.2	7
179.3	5
179.4	2
184.7	1
184.8	3
184.9	5
185.0	5
185.1	4
186.6	2
186.7	3
186.8	5
186.9	8
187.0	12
187.1	14
187.2	13
187.3	8
187.4	4
188.6	2
188.7	4
188.8	6
188.9	7
189.0	6
189.1	5
189.2	3
190.5	2
190.6	3
190.7	6
190.8	9
190.9	13
191.0	14
191.1	12
191.2	9
191.3	7
191.4	4
191.5	2
194.7	1
194.8	3
194.9	4
195.0	5
195.1	5
195.2	3
196.6	1
196.7	2
196.8	4
196.9	6
197.0	7
197.1	8
197.2	8
197.3	6
197.4	4
214.4	1
214.5	2
214.6	4
214.7	5
214.8	7
214.9	9
215.0	13
215.1	16
215.2	15
215.3	12
215.4	8
215.5	4
215.6	1
224.6	2
224.7	4
224.8	5
224.9	6
225.0	7
225.1	7
225.2	6
225.3	5
225.4	3
238.8	2
238.9	3
239.0	5
239.1	6
239.2	5
239.3	4
248.8	3
248.9	5
249.0	7
249.1	11
249.2	13
249.3	14
249.4	11
249.5	7
249.6	3
256.7	1
256.8	2
256.9	4
257.0	4
257.1	4
257.2	2
264.6	2
264.7	3
264.8	5
264.9	7
265.0	8
265.1	9
265.2	9
265.3	9
265.4	6
265.5	3
266.9	2
267.0	3
267.1	5
267.2	7
267.3	7
267.4	5
267.5	2
282.4	1
282.5	2
282.6	4
282.7	6
282.8	8
282.9	10
283.0	12
283.1	15
283.2	17
283.3	15
283.4	10
283.5	4
300.6	1
300.7	3
300.8	7
300.9	13
301.0	19
301.1	22
301.2	22
301.3	18
301.4	12
301.5	5
301.6	0
310.6	1
310.7	2
310.8	4
310.9	5
311.0	6
311.1	7
311.2	7
311.3	5
311.4	2
312.7	1
312.8	3
312.9	7
313.0	9
313.1	9
313.2	6
313.3	3
318.7	1
318.8	2
318.9	5
319.0	8
319.1	10
319.2	11
319.3	11
319.4	8
319.5	4
319.6	1
334.7	1
334.8	3
334.9	5
335.0	7
335.1	8
335.2	7
335.3	6
335.4	3
346.8	1
346.9	3
347.0	5
347.1	7
347.2	6
347.3	4
347.4	1
352.8	3
352.9	4
353.0	6
353.1	8
353.2	7
353.3	5
353.4	2
362.7	0
362.8	2
362.9	4
363.0	6
363.1	7
363.2	6
363.3	5
363.4	3
370.6	1
370.7	2
370.8	6
370.9	10
371.0	13
371.1	16
371.2	17
371.3	17
371.4	14
371.5	9
371.6	3
390.8	1
390.9	3
391.0	5
391.1	8
391.2	11
391.3	11
391.4	8
391.5	5
391.6	2
408.6	1
408.7	3
408.8	6
408.9	10
409.0	12
409.1	15
409.2	18
409.3	20
409.4	20
409.5	16
409.6	9
409.7	3
426.3	0
426.4	2
426.5	4
426.6	5
426.7	6
426.8	8
426.9	13
427.0	22
427.1	32
427.2	37
427.3	35
427.4	27
427.5	16
427.6	7
427.7	2
444.5	1
444.6	2
444.7	6
444.8	13
444.9	24
445.0	35
445.1	44
445.2	50
445.3	52
445.4	51
445.5	44
445.6	29
445.7	11
445.8	0
