Mass spectrum: Selinidin; LC-ESI-QQQ; MS2; Frag=135.0V CID@5.0; [M+H]+
Name: Selinidin
Class: Benzopyranoids
Formula: C19H20O5
Exact mass: 328.3683
SMILES: C/C=C(\C)C(=O)OC1Cc2c(ccc3ccc(=O)oc23)OC1(C)C
InChI: InChI=1S/C19H20O5/c1-5-11(2)18(21)22-15-10-13-14(24-19(15,3)4)8-6-12-7-9-16(20)23-17(12)13/h5-9,15H,10H2,1-4H3/b11-5+
Instrument: Agilent 6410 Triple Quadrupole LC/MS system
Instrument type: LC-ESI-QQQ
Ms type: MS2
Ion mode: POSITIVE
Precursor type: [M+H]+
m/z	relative intensity
186.5	2
186.6	3
186.7	6
186.8	10
186.9	13
187.0	16
187.1	16
187.2	14
187.3	11
187.4	7
187.5	2
228.2	0
228.3	2
228.4	5
228.5	10
228.6	16
228.7	26
228.8	43
228.9	66
229.0	87
229.1	99
229.2	98
229.3	84
229.4	62
229.5	35
229.6	12
229.7	0
328.5	2
328.6	3
328.7	5
328.8	9
328.9	16
329.0	24
329.1	29
329.2	31
329.3	29
329.4	23
329.5	14
329.6	5
329.7	0
