Mass spectrum: piperine; LC-ESI-QQQ; MS2; Frag=135.0V CID@5.0; [M+H]+
Name: piperine
Class: Alkaloids
Formula: C17H19NO3
Exact mass: 285.3459
SMILES: O=C(/C=C/C=C/c1ccc2c(c1)OCO2)N1CCCCC1
InChI: InChI=1S/C17H19NO3/c19-17(18-10-4-1-5-11-18)7-3-2-6-14-8-9-15-16(12-14)21-13-20-15/h2-3,6-9,12H,1,4-5,10-11,13H2/b6-2+,7-3+
Instrument: Agilent 6410 Triple Quadrupole LC/MS system
Instrument type: LC-ESI-QQQ
Ms type: MS2
Ion mode: POSITIVE
Precursor type: [M+H]+
m/z	relative intensity
200.4	0
200.5	1
200.6	3
200.7	6
200.8	10
200.9	13
201.0	16
201.1	17
201.2	16
201.3	14
201.4	10
201.5	6
201.6	1
285.3	0
285.4	1
285.5	5
285.6	11
285.7	22
285.8	38
285.9	59
286.0	80
286.1	95
286.2	99
286.3	91
286.4	69
286.5	40
286.6	14
286.7	1
