Mass spectrum: Foliosidine acetonide; LC-ESI-QQQ; MS2; Frag=135.0V CID@15.0; [M+H]+
Name: Foliosidine acetonide
Class: Alkaloids
Formula: C19H25NO5
Exact mass: 347.4148
SMILES: COc1cc(=O)n(C)c2c(OCC3OC(C)(C)OC3(C)C)cccc12
InChI: InChI=1S/C19H25NO5/c1-18(2)15(24-19(3,4)25-18)11-23-13-9-7-8-12-14(22-6)10-16(21)20(5)17(12)13/h7-10,15H,11H2,1-6H3
Instrument: Agilent 6410 Triple Quadrupole LC/MS system
Instrument type: LC-ESI-QQQ
Ms type: MS2
Ion mode: POSITIVE
Precursor type: [M+H]+
m/z	relative intensity
204.7	1
204.8	3
204.9	5
205.0	7
205.1	8
205.2	8
205.3	6
205.4	4
289.3	0
289.4	2
289.5	5
289.6	9
289.7	18
289.8	35
289.9	57
290.0	80
290.1	95
290.2	99
290.3	92
290.4	73
290.5	46
290.6	19
290.7	1
