Mass spectrum: 2'-N-denrthyl-N-3'-methylaplysinopsin; LC-ESI-QQQ; MS2; Frag=135.0V CID@25.0 ; [M+H]+
Name: 2'-N-denrthyl-N-3'-methylaplysinopsin
Class: Aminoacids and peptides
Formula: C12H9N3O2
Exact mass: 227.22443
SMILES: OC1=N/C(=C\c2c[nH]c3ccccc23)C(O)=N1
InChI: InChI=1S/C12H9N3O2/c16-11-10(14-12(17)15-11)5-7-6-13-9-4-2-1-3-8(7)9/h1-6,13H,(H2,14,15,16,17)/b10-5-
Instrument: Agilent 6410 Triple Quadrupole LC/MS system
Instrument type: LC-ESI-QQQ
Ms type: MS2
Ion mode: POSITIVE
Precursor type: [M+H]+
m/z	relative intensity
129.3	1
129.4	4
129.5	10
129.6	22
129.7	40
129.8	61
129.9	81
130.0	94
130.1	99
130.2	96
130.3	82
130.4	56
130.5	27
130.6	4
130.7	0
154.5	1
154.6	3
154.7	6
154.8	11
154.9	15
155.0	17
155.1	17
155.2	15
155.3	13
155.4	10
155.5	7
155.8	5
155.9	7
156.0	10
156.1	11
156.2	10
156.3	10
156.4	11
156.5	14
156.6	20
156.7	31
156.8	50
156.9	71
157.0	88
157.1	95
157.2	94
157.3	83
157.4	61
157.5	32
157.6	8
157.7	0
166.4	2
166.5	3
166.6	5
166.7	8
166.8	14
166.9	19
167.0	20
167.1	19
167.2	15
167.3	12
167.4	8
167.5	3
182.6	2
182.7	3
182.8	5
182.9	6
183.0	7
183.1	6
183.2	5
183.3	4
183.4	2
184.9	3
185.0	4
185.1	5
185.2	6
185.3	7
185.4	6
185.5	3
