Mass spectrum: Vincanidine; LC-ESI-QQQ; MS2; Frag=135.0V CID@25.0; [M+H]+
Name: (11S,17S)-12-ethylidene-6-hydroxy-8,14-diazapentacyclo(9.5.2.0(1,9).0(2,7).0(14,17))octadeca-2(7),3,5,9-tetraene-10-carbaldehyde
Name: Vincanidine
Class: Alkaloids
Formula: C19H20N2O2
Exact mass: 308.3835
SMILES: C/C=C1/CN2CCC34C(=C(C=O)[C@H]1C[C@H]23)Nc1c(O)cccc14
InChI: InChI=1S/C19H20N2O2/c1-2-11-9-21-7-6-19-14-4-3-5-15(23)17(14)20-18(19)13(10-22)12(11)8-16(19)21/h2-5,10,12,16,20,23H,6-9H2,1H3/b11-2-/t12-,16-,19?/m0/s1
Instrument: Agilent 6410 Triple Quadrupole LC/MS system
Instrument type: LC-ESI-QQQ
Ms type: MS2
Ion mode: POSITIVE
Precursor type: [M+H]+
m/z	relative intensity
67.7	2
67.8	3
67.9	4
68.0	5
68.1	5
68.2	4
68.3	3
94.8	2
94.9	4
95.0	6
95.1	6
95.2	6
95.3	4
95.4	3
107.7	2
107.8	4
107.9	6
108.0	8
108.1	8
108.2	7
108.3	6
108.4	4
121.7	2
121.8	3
121.9	5
122.0	7
122.1	8
122.2	7
122.3	5
122.4	3
145.5	3
145.6	5
145.7	9
145.8	13
145.9	17
146.0	18
146.1	19
146.2	17
146.3	14
146.4	10
146.5	4
146.8	3
146.9	5
147.0	6
147.1	7
147.2	6
147.3	5
147.4	3
159.6	3
159.7	6
159.8	11
159.9	17
160.0	21
160.1	22
160.2	21
160.3	17
160.4	12
160.5	6
160.6	1
161.7	2
161.8	4
161.9	5
162.0	7
162.1	7
162.2	7
162.3	5
162.4	3
171.7	3
171.8	5
171.9	7
172.0	8
172.1	9
172.2	9
172.3	8
172.4	7
172.5	4
173.6	3
173.7	6
173.8	9
173.9	14
174.0	17
174.1	19
174.2	18
174.3	15
174.4	10
174.5	4
182.6	2
182.7	4
182.8	8
182.9	12
183.0	16
183.1	18
183.2	18
183.3	16
183.4	13
183.6	9
183.7	12
183.8	19
183.9	29
184.0	36
184.1	39
184.2	39
184.3	34
184.4	26
184.5	16
184.8	9
184.9	15
185.0	20
185.1	23
185.2	22
185.3	19
185.4	14
185.5	8
185.8	4
185.9	6
186.0	8
186.1	8
186.2	8
186.3	7
186.6	4
186.7	6
186.8	10
186.9	15
187.0	18
187.1	19
187.2	19
187.3	16
187.4	11
187.5	7
187.8	3
187.9	5
188.0	6
188.1	7
188.2	6
188.3	5
188.4	3
195.5	3
195.6	4
195.7	7
195.8	13
195.9	19
196.0	24
196.1	28
196.2	28
196.3	25
196.4	19
196.5	11
196.8	5
196.9	9
197.0	13
197.1	15
197.2	15
197.3	13
197.4	9
197.7	3
197.8	7
197.9	10
198.0	14
198.1	16
198.2	16
198.3	13
198.4	9
198.5	5
198.8	3
198.9	6
199.0	8
199.1	9
199.2	9
199.3	7
199.4	5
199.8	4
199.9	7
200.0	9
200.1	10
200.2	9
200.3	8
200.4	5
200.5	2
201.4	2
201.5	3
201.6	6
201.7	10
201.8	18
201.9	27
202.0	33
202.1	36
202.2	34
202.3	30
202.4	22
202.5	11
202.6	3
206.7	1
206.8	3
206.9	5
207.0	7
207.1	7
207.2	7
207.3	5
209.6	2
209.7	4
209.8	7
209.9	10
210.0	13
210.1	15
210.2	15
210.3	13
210.4	10
210.5	5
211.7	5
211.8	7
211.9	10
212.0	13
212.1	14
212.2	14
212.3	12
212.4	9
212.5	5
214.4	4
214.5	6
214.6	8
214.7	12
214.8	19
214.9	28
215.0	35
215.1	37
215.2	34
215.3	28
215.4	20
215.5	11
215.6	3
219.7	1
219.8	3
219.9	4
220.0	5
220.1	5
220.2	5
220.3	4
220.4	3
220.5	3
220.6	2
220.7	3
220.8	5
220.9	7
221.0	9
221.1	10
221.2	10
221.3	9
221.4	7
221.7	3
221.8	6
221.9	9
222.0	11
222.1	12
222.2	12
222.3	11
222.4	8
222.7	4
222.8	7
222.9	11
223.0	13
223.1	14
223.2	14
223.3	13
223.4	9
223.7	6
223.8	10
223.9	15
224.0	20
224.1	23
224.2	23
224.3	20
224.4	15
224.5	9
224.8	3
224.9	6
225.0	8
225.1	9
225.2	9
225.3	8
225.4	6
225.7	3
225.8	6
225.9	9
226.0	13
226.1	15
226.2	15
226.3	13
226.4	9
226.5	5
232.7	2
232.8	3
232.9	5
233.0	6
233.1	7
233.2	7
233.3	6
233.4	5
233.7	2
233.8	4
233.9	7
234.0	8
234.1	9
234.2	9
234.3	8
234.7	5
234.8	8
234.9	11
235.0	14
235.1	16
235.2	16
235.3	14
235.4	11
235.6	7
235.7	10
235.8	16
235.9	24
236.0	31
236.1	35
236.2	35
236.3	30
236.4	22
236.5	12
236.8	5
236.9	9
237.0	13
237.1	14
237.2	14
237.3	13
237.6	7
237.7	10
237.8	17
237.9	25
238.0	31
238.1	34
238.2	34
238.3	30
238.4	23
238.5	13
238.6	5
247.7	3
247.8	5
247.9	9
248.0	11
248.1	13
248.2	12
248.3	10
248.4	7
248.7	3
248.8	5
248.9	8
249.0	11
249.1	11
249.2	10
249.3	8
249.4	7
249.8	4
249.9	6
250.0	9
250.1	10
250.2	10
250.3	8
250.4	6
250.7	2
250.8	4
250.9	8
251.0	11
251.1	12
251.2	12
251.3	10
251.4	7
251.7	4
251.8	8
251.9	14
252.0	18
252.1	20
252.2	19
252.3	17
252.4	13
252.5	8
252.6	4
252.9	3
253.0	5
253.1	7
253.2	8
253.3	7
253.4	6
253.7	3
253.8	6
253.9	9
254.0	13
254.1	14
254.2	13
254.3	11
254.4	8
254.5	4
261.7	3
261.8	5
261.9	8
262.0	11
262.1	12
262.2	12
262.3	10
262.4	7
262.5	3
263.7	4
263.8	7
263.9	10
264.0	14
264.1	17
264.2	18
264.3	17
264.4	13
264.5	7
265.7	5
265.8	9
265.9	15
266.0	20
266.1	22
266.2	21
266.3	18
266.4	13
266.5	7
266.8	2
266.9	4
267.0	6
267.1	7
267.2	7
267.3	6
267.4	5
267.5	3
279.7	3
279.8	5
279.9	8
280.0	10
280.1	12
280.2	12
280.3	11
280.4	9
280.5	6
280.8	5
280.9	9
281.0	13
281.1	17
281.2	18
281.3	18
281.4	15
281.5	10
281.6	4
290.7	1
290.8	3
290.9	5
291.0	7
291.1	9
291.2	9
291.3	9
291.4	6
291.5	3
308.3	2
308.4	4
308.5	6
308.6	9
308.7	15
308.8	27
308.9	48
309.0	73
309.1	92
309.2	99
309.3	94
309.4	75
309.5	47
309.6	19
309.7	1
