Mass spectrum: O-Acetylsolasodine; LC-ESI-QQQ; MS2; Frag=135.0V CID@10.0 ; [M+H]+
Name: O-Acetylsolasodine
Class: Alkaloids
Formula: C29H45NO3
Exact mass: 455.68690000000004
SMILES: CC(=O)OC1CC[C@@]2(C)C(=CCC3C4CC5O[C@]6(CCC(C)CN6)C(C)C5[C@@]4(C)CCC32)C1
InChI: InChI=1S/C29H45NO3/c1-17-8-13-29(30-16-17)18(2)26-25(33-29)15-24-22-7-6-20-14-21(32-19(3)31)9-11-27(20,4)23(22)10-12-28(24,26)5/h6,17-18,21-26,30H,7-16H2,1-5H3/t17?,18?,21?,22?,23?,24?,25?,26?,27-,28-,29+/m0/s1
Instrument: Agilent 6410 Triple Quadrupole LC/MS system
Instrument type: LC-ESI-QQQ
Ms type: MS2
Ion mode: POSITIVE
Precursor type: [M+H]+
m/z	relative intensity
455.4	1
455.5	2
455.6	5
455.7	9
455.8	17
455.9	29
456.0	48
456.1	70
456.2	88
456.3	98
456.4	99
456.5	90
456.6	70
456.7	42
456.8	16
456.9	0
