Mass spectrum: Isotalatizidine; LC-ESI-QQQ; MS2; Frag=135.0V CID@15.0; [M+H]+
Name: (1S,4S,5S,6S,8S,9S,10S,13S,16S)-11-ethyl-6-methoxy-13-(methoxymethyl)-11-azahexacyclo(7.7.2.1(2,5).0(1,10).0(3,8).0(13,17))nonadecane-4,8,16-triol
Name: Isotalatizidine
Class: Alkaloids
Formula: C23H37NO5
Exact mass: 407.555
SMILES: CCN1C[C@]2(COC)CC[C@H](O)[C@@]34C5C[C@@H]6[C@@H](OC)C[C@@](O)(C5[C@H]6O)[C@@H](CC23)C14
InChI: InChI=1S/C23H37NO5/c1-4-24-10-21(11-28-2)6-5-17(25)23-13-7-12-15(29-3)9-22(27,18(13)19(12)26)14(20(23)24)8-16(21)23/h12-20,25-27H,4-11H2,1-3H3/t12-,13?,14+,15+,16?,17+,18?,19+,20?,21+,22+,23-/m1/s1
Instrument: Agilent 6410 Triple Quadrupole LC/MS system
Instrument type: LC-ESI-QQQ
Ms type: MS2
Ion mode: POSITIVE
Precursor type: [M+H]+
m/z	relative intensity
407.4	1
407.5	3
407.6	6
407.7	11
407.8	20
407.9	35
408.0	56
408.1	77
408.2	93
408.3	99
408.4	94
408.5	77
408.6	51
408.7	24
408.8	5
408.9	0
