Mass spectrum: Lapidin; LC-ESI-QQQ; MS2; Frag=135.0V CID@15.0; [M+Na]+
Name: Lapidin
Class: Terpenoids
Formula: C20H30O4
Exact mass: 334.4597
SMILES: C/C=C(\C)C(=O)O[C@H]1CC(C)=CC(=O)[C@@]2(C)CC[C@@](O)(C(C)C)[C@H]12
InChI: InChI=1S/C20H30O4/c1-7-14(5)18(22)24-15-10-13(4)11-16(21)19(6)8-9-20(23,12(2)3)17(15)19/h7,11-12,15,17,23H,8-10H2,1-6H3/b14-7+/t15-,17+,19+,20+/m0/s1
Instrument: Agilent 6410 Triple Quadrupole LC/MS system
Instrument type: LC-ESI-QQQ
Ms type: MS2
Ion mode: POSITIVE
Precursor type: [M+Na]+
m/z	relative intensity
162.7	2
162.8	4
162.9	7
163.0	11
163.1	12
163.2	11
163.3	6
256.6	2
256.7	6
256.8	18
256.9	38
257.0	58
257.1	72
257.2	73
257.3	61
257.4	40
257.5	18
257.6	4
356.5	2
356.6	3
356.7	12
356.8	35
356.9	61
357.0	71
357.1	55
357.2	25
357.3	4
