Mass spectrum: Periplocin; LC-ESI-QQQ; MS2;  Frag=135.0V CID@25.0 ; [M+HCOO]-
Name: Periplocin
Class: Terpenoids
Formula: C36H56O13
Exact mass: 696.83992
SMILES: CO[C@H]1C[C@H](OC2CC[C@]3(C)C4CC[C@]5(C)C(C6=CC(=O)OC6)CCC5(O)C4CCC3(O)C2)O[C@H](C)C1OC1O[C@H](CO)[C@@H](O)[C@H](O)[C@H]1O
InChI: InChI=1S/C36H56O13/c1-18-31(49-32-30(41)29(40)28(39)25(16-37)48-32)24(44-4)14-27(46-18)47-20-5-9-33(2)22-6-10-34(3)21(19-13-26(38)45-17-19)8-12-36(34,43)23(22)7-11-35(33,42)15-20/h13,18,20-25,27-32,37,39-43H,5-12,14-17H2,1-4H3/t18-,20?,21?,22?,23?,24+,25-,27+,28-,29+,30-,31?,32?,33-,34-,35?,36?/m1/s1
Instrument: Agilent 6410 Triple Quadrupole LC/MS system
Instrument type: LC-ESI-QQQ
Ms type: MS2
Ion mode: NEGATIVE
Precursor type: [M+HCOO]-
m/z	relative intensity
100.2	1
100.3	3
100.4	6
100.5	12
100.6	19
100.7	24
100.8	24
100.9	18
101.0	9
101.1	3
112.4	2
112.5	3
112.6	6
112.7	11
112.8	17
112.9	20
113.0	18
113.1	11
113.2	4
158.7	1
158.8	2
158.9	4
159.0	6
159.1	5
159.2	3
160.1	1
160.2	2
160.3	4
160.4	7
160.5	12
160.6	18
160.7	25
160.8	32
160.9	38
161.0	44
161.1	47
161.2	40
161.3	24
161.4	7
161.5	0
388.6	2
388.7	3
388.8	5
388.9	7
389.0	7
389.1	6
389.2	3
532.5	2
532.6	4
532.7	8
532.8	19
532.9	37
533.0	51
533.1	51
533.2	37
533.3	21
533.4	11
533.5	7
533.6	4
533.7	2
694.1	2
694.2	4
694.3	7
694.4	11
694.5	14
694.6	15
694.7	19
694.8	29
694.9	46
695.0	66
695.1	85
695.2	97
695.3	99
695.4	87
695.5	63
695.6	36
695.7	16
695.8	5
695.9	0
740.3	1
740.4	2
740.5	4
740.6	6
740.7	8
740.8	8
740.9	9
741.0	14
741.1	23
741.2	30
741.3	30
741.4	21
741.5	10
741.6	3
