Mass spectrum: Phlorizin; LC-ESI-QQQ; MS2; Frag=135.0V CID@10.0; [M+H]+
Name: Phlr-2p-Glc
Name: Phloridzin
Name: Phlorhizin
Name: Phlorizin
Name: Phlorizoside
Name: Phlorrhizin
Name: Phlorrhizen
Name: 2'-(beta-D-Glucopyranosyloxy)-4',6'-dihydroxy-3-(4-hydroxyphenyl)propiophenone
Class: Carbohydrates
Formula: C21H24O10
Exact mass: 436.4194
SMILES: O=C(CCc1ccc(O)cc1)c1c(O)cc(O)cc1O[C@@H]1OC(CO)[C@@H](O)C(O)C1O
InChI: InChI=1S/C21H24O10/c22-9-16-18(27)19(28)20(29)21(31-16)30-15-8-12(24)7-14(26)17(15)13(25)6-3-10-1-4-11(23)5-2-10/h1-2,4-5,7-8,16,18-24,26-29H,3,6,9H2/t16?,18-,19?,20?,21-/m1/s1
Instrument: Agilent 6410 Triple Quadrupole LC/MS system
Instrument type: LC-ESI-QQQ
Ms type: MS2
Ion mode: POSITIVE
Precursor type: [M+H]+
m/z	relative intensity
106.3	2
106.4	3
106.5	4
106.6	6
106.7	9
106.8	12
106.9	15
107.0	17
107.1	16
107.2	12
107.3	6
107.4	2
126.6	1
126.7	3
126.8	5
126.9	7
127.0	7
127.1	4
127.2	2
168.5	1
168.6	2
168.7	4
168.8	7
168.9	8
169.0	6
169.1	4
234.5	1
234.6	2
234.7	5
234.8	8
234.9	9
235.0	7
235.1	4
274.4	2
274.5	5
274.6	14
274.7	31
274.8	49
274.9	60
275.0	70
275.1	86
275.2	99
275.3	89
275.4	54
275.5	16
275.6	0
298.3	1
298.4	3
298.5	5
298.6	6
298.7	8
298.8	10
298.9	12
299.0	15
299.1	18
299.2	20
299.3	17
299.4	11
299.5	4
316.3	2
316.4	4
316.5	4
316.6	6
316.7	9
316.8	17
316.9	26
317.0	35
317.1	38
317.2	34
317.3	23
317.4	11
317.5	2
340.4	0
340.5	2
340.6	10
340.7	25
340.8	41
340.9	48
341.0	42
341.1	27
341.2	11
341.3	2
352.2	1
352.3	2
352.4	4
352.5	7
352.6	9
352.7	10
352.8	11
352.9	14
353.0	20
353.1	25
353.2	24
353.3	17
353.4	7
353.5	1
364.5	2
364.6	3
364.7	4
364.8	5
364.9	6
365.0	6
365.1	6
365.2	5
365.3	3
382.5	1
382.6	3
382.7	7
382.8	11
382.9	15
383.0	18
383.1	21
383.2	21
383.3	15
383.4	6
383.5	0
418.6	1
418.7	3
418.8	6
418.9	8
419.0	8
419.1	7
419.2	6
419.3	4
419.4	3
