Mass spectrum: N-(2-Hydroxyethyl)cytisine; LC-ESI-QQQ; MS2; Frag=135.0V CID@25.0; [M+H]+
Name: N-(2-Hydroxyethyl)cytisin
Name: (1S,9R)-11-(2-hydroxyethyl)-7,11-diazatricyclo(7.3.1.0(2,7))trideca-2,4-dien-6-one
Name: N-(2-Hydroxyethyl)cytisine
Class: Alkaloids
Formula: C13H18N2O2
Exact mass: 234.3006
SMILES: O=c1cccc2n1CC1CC2CN(CCO)C1
InChI: InChI=1S/C13H18N2O2/c16-5-4-14-7-10-6-11(9-14)12-2-1-3-13(17)15(12)8-10/h1-3,10-11,16H,4-9H2
Instrument: Agilent 6410 Triple Quadrupole LC/MS system
Instrument type: LC-ESI-QQQ
Ms type: MS2
Ion mode: POSITIVE
Precursor type: [M+H]+
m/z	relative intensity
87.2	0
87.3	1
87.4	5
87.5	12
87.6	21
87.7	34
87.8	52
87.9	72
88.0	90
88.1	99
88.2	98
88.3	87
88.4	64
88.5	36
88.6	11
88.7	0
234.6	1
234.7	2
234.8	3
234.9	5
235.0	7
235.1	9
235.2	9
235.3	9
235.4	7
235.5	5
235.6	2
