Mass spectrum: 9(11)-Dehydroglycyrrhetic acid; LC-ESI-QQQ; MS2; Frag=135.0V CID@25.0 ; [M+H]+
Name: 9(11)-Dehydroglycyrrhetic acid
Class: Terpenoids
Formula: C30H46O3
Exact mass: 454.69932000000006
SMILES: CC1(C)C2CC[C@]3(C)C(=CC=C4C5C[C@@](C)(C(=O)O)CC[C@]5(C)CC[C@]43C)[C@@]2(C)CC[C@@H]1O
InChI: InChI=1S/C30H46O3/c1-25(2)21-10-13-30(7)22(28(21,5)12-11-23(25)31)9-8-19-20-18-27(4,24(32)33)15-14-26(20,3)16-17-29(19,30)6/h8-9,20-21,23,31H,10-18H2,1-7H3,(H,32,33)/t20?,21?,23-,26+,27-,28-,29+,30+/m0/s1
Instrument: Agilent 6410 Triple Quadrupole LC/MS system
Instrument type: LC-ESI-QQQ
Ms type: MS2
Ion mode: POSITIVE
Precursor type: [M+H]+
m/z	relative intensity
80.7	1
80.8	3
80.9	5
81.0	6
81.1	5
81.2	3
94.5	0
94.6	1
94.7	6
94.8	14
94.9	22
95.0	24
95.1	20
95.2	13
95.3	7
95.4	3
106.4	1
106.5	3
106.6	7
106.7	11
106.8	11
106.9	9
118.4	1
118.5	3
118.6	5
118.7	8
118.8	9
118.9	8
119.0	5
119.1	3
120.2	2
120.3	4
120.4	7
120.5	8
120.6	8
120.7	9
120.8	12
120.9	14
121.0	13
121.1	9
121.2	5
122.4	1
122.5	3
122.6	4
122.7	6
122.8	7
122.9	7
123.0	5
123.1	3
134.8	1
134.9	3
135.0	5
135.1	7
135.2	7
135.3	5
135.4	2
146.8	2
146.9	4
147.0	7
147.1	8
147.2	7
147.3	3
148.9	2
149.0	4
149.1	6
149.2	6
149.3	4
160.5	1
160.6	2
160.7	5
160.8	8
160.9	10
161.0	11
161.1	11
161.2	11
161.3	8
161.4	4
162.9	3
163.0	5
163.1	8
163.2	10
163.3	12
163.4	12
163.5	11
163.6	7
163.7	3
174.6	4
174.7	6
174.8	10
174.9	19
175.0	31
175.1	39
175.2	38
175.3	27
175.4	13
175.5	3
176.6	1
176.7	3
176.8	6
176.9	10
177.0	12
177.1	12
177.2	9
177.3	5
177.4	2
186.7	2
186.8	4
186.9	5
187.0	6
187.1	6
187.2	5
187.3	4
188.2	2
188.3	3
188.4	5
188.5	6
188.6	5
188.7	5
188.8	9
188.9	18
189.0	29
189.1	38
189.2	41
189.3	38
189.4	27
189.5	14
189.6	3
200.9	1
201.0	3
201.1	7
201.2	10
201.3	10
201.4	6
201.5	2
214.7	3
214.8	4
214.9	7
215.0	8
215.1	8
215.2	6
215.3	3
234.6	0
234.7	2
234.8	5
234.9	8
235.0	9
235.1	8
235.2	5
246.5	1
246.6	3
246.7	7
246.8	14
246.9	19
247.0	21
247.1	18
247.2	16
247.3	14
247.4	11
247.5	7
247.6	4
260.9	2
261.0	3
261.1	5
261.2	6
261.3	6
261.4	3
274.7	2
274.8	3
274.9	5
275.0	6
275.1	6
275.2	3
408.5	2
408.6	4
408.7	6
408.8	10
408.9	21
409.0	39
409.1	62
409.2	83
409.3	98
409.4	99
409.5	83
409.6	50
409.7	17
409.8	0
436.9	2
437.0	4
437.1	8
437.2	12
437.3	13
437.4	11
437.5	7
437.6	3
454.4	1
454.5	3
454.6	4
454.7	5
454.8	6
454.9	8
455.0	12
455.1	17
455.2	18
455.3	16
455.4	12
455.5	6
455.6	3
