Mass spectrum: Echinatine; LC-ESI-QQQ; MS2; Frag=135.0V CID@15.0; [M+H]+
Name: Echinatine
Class: Alkaloids
Formula: C15H25NO5
Exact mass: 299.3702
SMILES: CC(C)C(O)(C(=O)OCC1=CCN2CC[C@H](O)[C@@H]12)C(C)O
InChI: InChI=1S/C15H25NO5/c1-9(2)15(20,10(3)17)14(19)21-8-11-4-6-16-7-5-12(18)13(11)16/h4,9-10,12-13,17-18,20H,5-8H2,1-3H3/t10?,12-,13+,15?/m0/s1
Instrument: Agilent 6410 Triple Quadrupole LC/MS system
Instrument type: LC-ESI-QQQ
Ms type: MS2
Ion mode: POSITIVE
Precursor type: [M+H]+
m/z	relative intensity
137.3	1
137.4	3
137.5	5
137.6	9
137.7	17
137.8	29
137.9	42
138.0	51
138.1	54
138.2	51
138.3	44
138.4	33
138.5	19
138.6	7
155.6	1
155.7	3
155.8	6
155.9	9
156.0	12
156.1	13
156.2	13
156.3	11
156.4	8
156.5	4
156.6	1
299.3	1
299.4	2
299.5	5
299.6	10
299.7	17
299.8	29
299.9	49
300.0	71
300.1	90
300.2	99
300.3	96
300.4	81
300.5	56
300.6	29
300.7	8
300.8	0
