Mass spectrum: Poststerone; LC-ESI-QQQ; MS2;  Frag=135.0V CID@10.0 ; [M+HCOO]-
Name: Poststerone
Class: Steroids
Formula: C21H30O5
Exact mass: 362.47025
SMILES: CC(=O)C1CC[C@@]2(O)C3=CC(=O)C4CC(O)C(O)C[C@]4(C)C3CC[C@]12C
InChI: InChI=1S/C21H30O5/c1-11(22)12-5-7-21(26)14-8-16(23)15-9-17(24)18(25)10-19(15,2)13(14)4-6-20(12,21)3/h8,12-13,15,17-18,24-26H,4-7,9-10H2,1-3H3/t12?,13?,15?,17?,18?,19-,20-,21-/m1/s1
Instrument: Agilent 6410 Triple Quadrupole LC/MS system
Instrument type: LC-ESI-QQQ
Ms type: MS2
Ion mode: NEGATIVE
Precursor type: [M+HCOO]-
m/z	relative intensity
360.1	2
360.2	3
360.3	6
360.4	7
360.5	9
360.6	19
360.7	39
360.8	64
360.9	87
361.0	99
361.1	99
361.2	92
361.3	78
361.4	58
361.5	32
361.6	9
361.7	0
406.1	0
406.2	1
406.3	5
406.4	10
406.5	16
406.6	25
406.7	35
406.8	43
406.9	49
407.0	59
407.1	74
407.2	84
407.3	79
407.4	58
407.5	31
407.6	12
407.7	1
