Mass spectrum: Lappaconitine; LC-ESI-QQQ; MS2; Frag=135.0V CID@5.0; [M+HCOO]-
Name: Lappaconitine
Class: Alkaloids
Formula: C32H44N2O8
Exact mass: 584.7161
SMILES: CCN1C[C@]2(OC(=O)c3ccccc3N=C(C)O)CCC(OC)C34C2CC([C@@H]13)[C@@]1(O)C[C@H](OC)[C@H]2CC4[C@]1(O)C2OC
InChI: InChI=1S/C32H44N2O8/c1-6-34-16-29(42-28(36)18-9-7-8-10-21(18)33-17(2)35)12-11-25(40-4)31-23(29)14-20(26(31)34)30(37)15-22(39-3)19-13-24(31)32(30,38)27(19)41-5/h7-10,19-20,22-27,37-38H,6,11-16H2,1-5H3,(H,33,35)/t19-,20?,22+,23?,24?,25?,26-,27?,29-,30+,31?,32+/m1/s1
Instrument: Agilent 6410 Triple Quadrupole LC/MS system
Instrument type: LC-ESI-QQQ
Ms type: MS2
Ion mode: NEGATIVE
Precursor type: [M+HCOO]-
m/z	relative intensity
159.6	1
159.7	4
159.8	22
159.9	55
160.0	88
160.1	99
160.2	79
160.3	41
160.4	9
160.5	0
421.5	1
421.6	5
421.7	13
421.8	23
421.9	27
422.0	22
582.7	2
582.8	6
582.9	12
583.0	18
583.1	19
583.2	15
583.3	7
583.4	1
628.6	2
628.7	5
628.8	11
628.9	16
629.0	19
629.1	18
629.2	17
629.3	15
629.4	11
629.5	5
