Mass spectrum: Olitoriside; LC-ESI-QQQ; MS2; Frag=135.0V CID@5.0; [M+H]+
Name: Olitoriside
Class: Steroids
Formula: C35H52O14
Exact mass: 696.7963
SMILES: C[C@H]1O[C@@H](OC2CC[C@]3(C=O)C4CC[C@]5(C)C(C6=CC(=O)OC6)CCC5(O)C4CCC3(O)C2)C[C@H](O)C1OC1O[C@H](CO)[C@@H](O)[C@H](O)[C@H]1O
InChI: InChI=1S/C35H52O14/c1-17-30(49-31-29(42)28(41)27(40)24(14-36)48-31)23(38)12-26(46-17)47-19-3-8-33(16-37)21-4-7-32(2)20(18-11-25(39)45-15-18)6-10-35(32,44)22(21)5-9-34(33,43)13-19/h11,16-17,19-24,26-31,36,38,40-44H,3-10,12-15H2,1-2H3/t17-,19?,20?,21?,22?,23+,24-,26+,27-,28+,29-,30?,31?,32-,33+,34?,35?/m1/s1
Instrument: Agilent 6410 Triple Quadrupole LC/MS system
Instrument type: LC-ESI-QQQ
Ms type: MS2
Ion mode: POSITIVE
Precursor type: [M+H]+
m/z	relative intensity
112.8	4
112.9	5
113.0	10
113.1	16
113.2	20
113.3	19
113.4	13
113.5	6
274.5	0
274.6	2
274.7	8
274.8	19
274.9	26
275.0	24
275.1	14
275.2	4
340.9	4
341.0	6
341.1	8
341.2	11
341.3	15
341.4	16
341.5	12
341.6	6
358.6	4
358.7	6
358.8	9
358.9	15
359.0	21
359.1	25
359.2	24
359.3	18
359.4	11
359.5	5
368.5	2
368.6	5
368.7	11
368.8	19
368.9	27
369.0	32
369.1	32
369.2	24
369.3	13
369.4	4
386.7	0
386.8	1
386.9	8
387.0	23
387.1	41
387.2	48
387.3	38
387.4	18
387.5	2
404.5	2
404.6	6
404.7	23
404.8	53
404.9	85
405.0	99
405.1	85
405.2	57
405.3	35
405.4	23
405.5	16
405.6	7
405.7	1
696.6	2
696.7	6
696.8	10
696.9	13
697.0	13
697.1	10
697.2	5
