Mass spectrum: Dehydroabietic acid; LC-ESI-QQQ; MS2; Frag=135.0V CID@15.0; [M+H]+
Name: Dehydroabietic acid
Class: Terpenoids
Formula: C20H28O2
Exact mass: 300.445
SMILES: CC(C)c1ccc2c(c1)CCC1[C@]2(C)CCC[C@@]1(C)C(=O)O
InChI: InChI=1S/C20H28O2/c1-13(2)14-6-8-16-15(12-14)7-9-17-19(16,3)10-5-11-20(17,4)18(21)22/h6,8,12-13,17H,5,7,9-11H2,1-4H3,(H,21,22)/t17?,19-,20-/m1/s1
Instrument: Agilent 6410 Triple Quadrupole LC/MS system
Instrument type: LC-ESI-QQQ
Ms type: MS2
Ion mode: POSITIVE
Precursor type: [M+H]+
m/z	relative intensity
108.7	3
108.8	4
108.9	6
109.0	8
109.1	9
109.2	10
109.3	8
109.4	5
109.5	2
116.6	2
116.7	4
116.8	6
116.9	7
117.0	7
117.1	4
117.2	2
130.6	1
130.7	3
130.8	7
130.9	11
131.0	14
131.1	15
131.2	13
131.3	10
131.4	5
131.5	1
132.2	2
132.3	4
132.4	5
132.5	7
132.6	10
132.7	17
132.8	28
132.9	38
133.0	42
133.1	41
133.2	38
133.3	33
133.4	25
133.5	14
133.6	3
134.8	2
134.9	4
135.0	5
135.1	6
135.2	5
135.3	5
135.4	4
135.5	3
146.6	1
146.7	3
146.8	7
146.9	11
147.0	13
147.1	11
147.2	9
147.3	8
147.4	7
147.5	4
158.6	3
158.7	3
158.8	7
158.9	20
159.0	40
159.1	57
159.2	60
159.3	48
159.4	27
159.5	10
159.6	1
172.3	2
172.4	4
172.5	6
172.6	9
172.7	15
172.8	26
172.9	42
173.0	64
173.1	86
173.2	99
173.3	94
173.4	68
173.5	31
173.6	6
173.7	0
184.7	1
184.8	4
184.9	11
185.0	19
185.1	21
185.2	17
185.3	9
185.4	3
254.7	2
254.8	3
254.9	5
255.0	7
255.1	7
255.2	4
255.3	2
