Mass spectrum: Linichlorin A; LC-ESI-QQQ; MS2; Frag=135.0V CID@5.0; [M+H]+
Name: Linichlorin A
Class: Terpenoids
Formula: C19H23ClO6
Exact mass: 382.8446
SMILES: C=C(C)C(=O)O[C@H]1CC(=C)C2C[C@@H](O)[C@@](O)(CCl)C2[C@H]2OC(=O)C(=C)C12
InChI: InChI=1S/C19H23ClO6/c1-8(2)17(22)25-12-5-9(3)11-6-13(21)19(24,7-20)15(11)16-14(12)10(4)18(23)26-16/h11-16,21,24H,1,3-7H2,2H3/t11?,12-,13+,14?,15?,16-,19-/m0/s1
Instrument: Agilent 6410 Triple Quadrupole LC/MS system
Instrument type: LC-ESI-QQQ
Ms type: MS2
Ion mode: POSITIVE
Precursor type: [M+H]+
m/z	relative intensity
68.7	2
68.8	4
68.9	6
69.0	8
69.1	9
69.2	8
69.3	6
69.4	3
182.5	2
182.6	3
182.7	7
182.8	10
182.9	14
183.0	18
183.1	22
183.2	22
183.3	19
183.4	13
183.5	7
183.6	2
188.7	1
188.8	3
188.9	5
189.0	7
189.1	7
189.2	7
189.3	6
189.4	4
189.5	1
196.8	2
196.9	3
197.0	6
197.1	9
197.2	10
197.3	8
197.4	4
197.5	1
206.7	1
206.8	3
206.9	5
207.0	7
207.1	6
207.2	4
207.3	1
214.7	0
214.8	2
214.9	7
215.0	12
215.1	14
215.2	12
215.3	7
215.4	3
224.7	1
224.8	2
224.9	4
225.0	6
225.1	7
225.2	8
225.3	7
225.4	4
225.5	2
232.6	2
232.7	4
232.8	7
232.9	11
233.0	15
233.1	18
233.2	18
233.3	15
233.4	9
233.5	3
242.6	3
242.7	4
242.8	5
242.9	8
243.0	11
243.1	13
243.2	14
243.3	12
243.4	8
243.5	3
260.5	2
260.6	3
260.7	7
260.8	12
260.9	17
261.0	19
261.1	19
261.2	17
261.3	13
261.4	7
261.5	2
268.7	1
268.8	3
268.9	6
269.0	8
269.1	9
269.2	8
269.3	7
269.4	4
269.5	2
278.1	0
278.2	1
278.3	4
278.4	6
278.5	9
278.6	15
278.7	28
278.8	50
278.9	73
279.0	90
279.1	99
279.2	99
279.3	85
279.4	55
279.5	22
279.6	1
296.5	1
296.6	3
296.7	9
296.8	16
296.9	24
297.0	30
297.1	32
297.2	32
297.3	28
297.4	22
297.5	11
297.6	3
364.7	1
364.8	3
364.9	6
365.0	8
365.1	8
365.2	6
365.3	3
382.4	1
382.5	2
382.6	5
382.7	10
382.8	19
382.9	30
383.0	38
383.1	39
383.2	35
383.3	29
383.4	22
383.5	14
383.6	5
383.7	0
