Mass spectrum: 3-Hydroxypregn-16-en-20-one ; LC-ESI-QQQ; MS2;  Frag=135.0V CID@5.0 ; [M+Na]+
Name: 3-Hydroxypregn-16-en-20-one 
Class: Steroids
Formula: C21H32O2
Exact mass: 316.48799
SMILES: CC(=O)C1=CCC2C3CC[C@H]4C[C@H](O)CC[C@]4(C)C3CC[C@]12C
InChI: InChI=1S/C21H32O2/c1-13(22)17-6-7-18-16-5-4-14-12-15(23)8-10-20(14,2)19(16)9-11-21(17,18)3/h6,14-16,18-19,23H,4-5,7-12H2,1-3H3/t14-,15+,16?,18?,19?,20-,21+/m0/s1
Instrument: Agilent 6410 Triple Quadrupole LC/MS system
Instrument type: LC-ESI-QQQ
Ms type: MS2
Ion mode: POSITIVE
Precursor type: [M+Na]+
m/z	relative intensity
160.2	1
160.3	5
160.4	11
160.5	19
160.6	29
160.7	39
160.8	48
160.9	57
161.0	68
161.1	80
161.2	87
161.3	80
161.4	57
161.5	26
161.6	4
296.4	1
296.5	5
296.6	14
296.7	30
296.8	51
296.9	71
297.0	85
297.1	94
297.2	99
297.3	98
297.4	84
297.5	57
297.6	26
297.7	4
