Mass spectrum: Emetine; LC-ESI-QQQ; MS2; Frag=135.0V CID@5.0; [M+H]+
Name: 6',7',10,11-Tetramethoxyemetan
Name: Cephaeline methyl ether
Name: Methyl cephaeline
Name: Emetine
Class: Alkaloids
Formula: C29H40N2O4
Exact mass: 480.6531
SMILES: CC[C@H]1CN2CCc3cc(OC)c(OC)cc3[C@@H]2C[C@@H]1C[C@H]1NCCc2cc(OC)c(OC)cc21
InChI: InChI=1S/C29H40N2O4/c1-6-18-17-31-10-8-20-14-27(33-3)29(35-5)16-23(20)25(31)12-21(18)11-24-22-15-28(34-4)26(32-2)13-19(22)7-9-30-24/h13-16,18,21,24-25,30H,6-12,17H2,1-5H3/t18-,21-,24+,25-/m0/s1
Instrument: Agilent 6410 Triple Quadrupole LC/MS system
Instrument type: LC-ESI-QQQ
Ms type: MS2
Ion mode: POSITIVE
Precursor type: [M+H]+
m/z	relative intensity
480.4	1
480.5	3
480.6	7
480.7	12
480.8	23
480.9	41
481.0	63
481.1	83
481.2	96
481.3	99
481.4	95
481.5	81
481.6	57
481.7	29
481.8	7
481.9	0
