Mass spectrum: Anthranoyllycoctonine; LC-ESI-QQQ; MS2; Frag=135.0V CID@5.0 ; [M+H]+
Name: Anthranoyllycoctonine
Class: Alkaloids
Formula: C32H46N2O8
Exact mass: 586.73202
SMILES: CCN1C[C@]2(COC(=O)c3ccccc3N)CC[C@@H](OC)[C@]34C5C[C@@H]6[C@@H](OC)C[C@@](O)(C5[C@H]6OC)[C@](O)(C13)[C@@H](OC)C24
InChI: InChI=1S/C32H46N2O8/c1-6-34-15-29(16-42-27(35)17-9-7-8-10-20(17)33)12-11-22(39-3)31-19-13-18-21(38-2)14-30(36,23(19)24(18)40-4)32(37,28(31)34)26(41-5)25(29)31/h7-10,18-19,21-26,28,36-37H,6,11-16,33H2,1-5H3/t18-,19?,21+,22-,23?,24+,25?,26+,28?,29+,30-,31+,32-/m1/s1
Instrument: Agilent 6410 Triple Quadrupole LC/MS system
Instrument type: LC-ESI-QQQ
Ms type: MS2
Ion mode: POSITIVE
Precursor type: [M+H]+
m/z	relative intensity
586.3	0
586.4	1
586.5	4
586.6	8
586.7	13
586.8	23
586.9	39
587.0	59
587.1	78
587.2	92
587.3	99
587.4	99
587.5	88
587.6	66
587.7	37
587.8	13
587.9	0
