Mass spectrum: Versicoside; LC-ESI-QQQ; MS2; Frag=135.0V CID@10.0; [M+HCOO]-
Name: Versicoside
Class: Steroids
Formula: C32H42O15
Exact mass: 666.6825
SMILES: COc1cc(C2OC[C@@H]3C(c4ccc(O[C@@H]5O[C@H](CO[C@@H]6O[C@@H](C)[C@H](O)[C@@H](O)[C@H]6O)[C@@H](O)[C@H](O)[C@H]5O)c(OC)c4)OC[C@H]23)ccc1O
InChI: InChI=1S/C32H42O15/c1-13-23(34)25(36)27(38)31(45-13)44-12-22-24(35)26(37)28(39)32(47-22)46-19-7-5-15(9-21(19)41-3)30-17-11-42-29(16(17)10-43-30)14-4-6-18(33)20(8-14)40-2/h4-9,13,16-17,22-39H,10-12H2,1-3H3/t13-,16-,17-,22+,23-,24+,25+,26-,27+,28+,29?,30?,31+,32+/m0/s1
Instrument: Agilent 6410 Triple Quadrupole LC/MS system
Instrument type: LC-ESI-QQQ
Ms type: MS2
Ion mode: NEGATIVE
Precursor type: [M+HCOO]-
m/z	relative intensity
118.6	2
118.7	4
118.8	7
118.9	9
119.0	8
119.1	5
119.2	1
162.4	2
162.5	3
162.6	5
162.7	9
162.8	12
162.9	16
163.0	21
163.1	24
163.2	23
163.3	18
163.4	9
163.5	2
306.2	1
306.3	3
306.4	6
306.5	13
306.6	25
306.7	42
306.8	63
306.9	80
307.0	90
307.1	97
307.2	99
307.3	87
307.4	57
307.5	23
307.6	2
356.6	1
356.7	2
356.8	4
356.9	5
357.0	6
357.1	7
357.2	6
357.3	4
357.4	2
664.3	2
664.4	3
664.5	6
664.6	9
664.7	11
664.8	13
664.9	16
665.0	22
665.1	29
665.2	35
665.3	36
665.4	28
665.5	14
665.6	3
