Mass spectrum: Songorine; LC-ESI-QQQ; MS2; Frag=135.0V CID@15.0; [M+H]+
Name: Songorine
Class: Alkaloids
Formula: C22H31NO3
Exact mass: 357.4973
SMILES: C=C1[C@@H]2C[C@]3(C(CC2=O)[C@@]24C(O)CC[C@@]5(C)CN(CC)C2[C@@H]3CC54)[C@@H]1O
InChI: InChI=1S/C22H31NO3/c1-4-23-10-20(3)6-5-17(25)22-15(20)7-13(18(22)23)21-9-12(11(2)19(21)26)14(24)8-16(21)22/h12-13,15-19,25-26H,2,4-10H2,1,3H3/t12-,13-,15?,16?,17?,18?,19+,20-,21-,22-/m0/s1
Instrument: Agilent 6410 Triple Quadrupole LC/MS system
Instrument type: LC-ESI-QQQ
Ms type: MS2
Ion mode: POSITIVE
Precursor type: [M+H]+
m/z	relative intensity
339.6	1
339.7	2
339.8	4
339.9	7
340.0	11
340.1	15
340.2	18
340.3	19
340.4	18
340.5	14
340.6	9
340.7	3
357.4	0
357.5	1
357.6	5
357.7	11
357.8	20
357.9	34
358.0	52
358.1	73
358.2	90
358.3	99
358.4	97
358.5	81
358.6	54
358.7	25
358.8	4
