Mass spectrum: Germine; LC-ESI-QQQ; MS2;  Frag=135.0V CID@10.0 ; [M+HCOO]-
Name: Germine
Class: Alkaloids
Formula: C27H43NO8
Exact mass: 509.6456600000001
SMILES: C[C@H]1CC[C@@H]2N(CC3[C@@H]4C[C@]56O[C@]7(O)C(O)CC[C@@]5(C)C7C[C@@H](O)[C@H]6[C@]4(O)[C@@H](O)C(O)[C@@H]3[C@]2(C)O)C1
InChI: InChI=1S/C27H43NO8/c1-12-4-5-17-24(3,33)19-13(11-28(17)10-12)14-9-25-21(26(14,34)22(32)20(19)31)15(29)8-16-23(25,2)7-6-18(30)27(16,35)36-25/h12-22,29-35H,4-11H2,1-3H3/t12-,13?,14-,15+,16?,17-,18?,19+,20?,21+,22-,23-,24+,25+,26-,27-/m0/s1
Instrument: Agilent 6410 Triple Quadrupole LC/MS system
Instrument type: LC-ESI-QQQ
Ms type: MS2
Ion mode: NEGATIVE
Precursor type: [M+HCOO]-
m/z	relative intensity
471.7	1
471.8	2
471.9	4
472.0	6
472.1	8
472.2	7
472.3	6
472.4	4
472.5	2
489.3	0
489.4	2
489.5	8
489.6	17
489.7	27
489.8	38
489.9	56
490.0	77
490.1	95
490.2	99
490.3	95
490.4	86
490.5	71
490.6	45
490.7	15
490.8	0
507.3	1
507.4	3
507.5	8
507.6	14
507.7	19
507.8	20
507.9	19
508.0	20
508.1	25
508.2	32
508.3	37
508.4	33
508.5	23
508.6	11
508.7	2
