Mass spectrum: 3-Hydroxypregn-16-en-20-one ; LC-ESI-QQQ; MS2;  Frag=135.0V CID@15.0 ; [M+Na]+
Name: 3-Hydroxypregn-16-en-20-one 
Class: Steroids
Formula: C21H32O2
Exact mass: 316.48799
SMILES: CC(=O)C1=CCC2C3CC[C@H]4C[C@H](O)CC[C@]4(C)C3CC[C@]12C
InChI: InChI=1S/C21H32O2/c1-13(22)17-6-7-18-16-5-4-14-12-15(23)8-10-20(14,2)19(16)9-11-21(17,18)3/h6,14-16,18-19,23H,4-5,7-12H2,1-3H3/t14-,15+,16?,18?,19?,20-,21+/m0/s1
Instrument: Agilent 6410 Triple Quadrupole LC/MS system
Instrument type: LC-ESI-QQQ
Ms type: MS2
Ion mode: POSITIVE
Precursor type: [M+Na]+
m/z	relative intensity
80.4	4
80.5	7
80.6	12
80.7	21
80.8	30
80.9	35
81.0	32
81.1	27
81.2	23
81.3	19
81.4	14
81.5	7
81.6	3
160.2	3
160.3	5
160.4	8
160.5	10
160.6	16
160.7	29
160.8	53
160.9	80
161.0	95
161.1	90
161.2	67
161.3	39
161.4	17
161.5	3
296.2	2
296.3	4
296.4	9
296.5	15
296.6	16
296.7	12
