Mass spectrum: 3-Hydroxyspirostan-12-one (3beta,5alpha,25R)-form, Ac; LC-ESI-QQQ; MS2; Frag=135.0V CID@25.0 ; [M+H]+
Name: 3-Hydroxyspirostan-12-one (3beta,5alpha,25R)-form, Ac
Class: Steroids
Formula: C29H44O5
Exact mass: 472.67103000000003
SMILES: CC(=O)OC1CC[C@]2(C)C3CC(=O)[C@@]4(C)C(CC5OC6(CC[C@@H](C)CO6)[C@@H](C)C54)C3CC[C@H]2C1
InChI: InChI=1S/C29H44O5/c1-16-8-11-29(32-15-16)17(2)26-24(34-29)13-23-21-7-6-19-12-20(33-18(3)30)9-10-27(19,4)22(21)14-25(31)28(23,26)5/h16-17,19-24,26H,6-15H2,1-5H3/t16-,17+,19+,20?,21?,22?,23?,24?,26?,27+,28-,29?/m1/s1
Instrument: Agilent 6410 Triple Quadrupole LC/MS system
Instrument type: LC-ESI-QQQ
Ms type: MS2
Ion mode: POSITIVE
Precursor type: [M+H]+
m/z	relative intensity
56.7	2
56.8	3
56.9	4
57.0	5
57.1	5
57.2	4
57.3	3
68.3	2
68.4	3
68.5	6
68.6	11
68.7	21
68.8	34
68.9	49
69.0	60
69.1	65
69.2	63
69.3	54
69.4	37
69.5	17
69.6	3
72.5	1
72.6	3
72.7	5
72.8	7
72.9	8
73.0	8
73.1	8
73.2	8
73.3	6
73.4	3
80.4	1
80.5	2
80.6	4
80.7	6
80.8	9
80.9	12
81.0	14
81.1	14
81.2	12
81.3	7
81.4	3
84.7	3
84.8	4
84.9	5
85.0	6
85.1	5
85.2	4
85.3	2
92.6	2
92.7	3
92.8	5
92.9	6
93.0	7
93.1	5
93.2	3
94.5	1
94.6	3
94.7	7
94.8	11
94.9	13
95.0	14
95.1	13
95.2	11
95.3	7
95.4	3
96.3	0
96.4	1
96.5	3
96.6	6
96.7	10
96.8	14
96.9	17
97.0	17
97.1	16
97.2	14
97.3	11
97.4	6
97.5	2
104.6	1
104.7	3
104.8	6
104.9	8
105.0	8
105.1	6
105.2	3
106.4	1
106.5	3
106.6	6
106.7	8
106.8	10
106.9	14
107.0	20
107.1	25
107.2	25
107.3	20
107.4	11
107.5	3
108.6	1
108.7	3
108.8	6
108.9	12
109.0	18
109.1	20
109.2	16
109.3	9
109.4	3
114.6	1
114.7	2
114.8	4
114.9	5
115.0	6
115.1	5
115.2	5
115.3	5
115.4	3
115.5	1
118.5	2
118.6	4
118.7	7
118.8	11
118.9	15
119.0	15
119.1	13
119.2	8
119.3	3
120.4	1
120.5	3
120.6	4
120.7	6
120.8	7
120.9	9
121.0	10
121.1	11
121.2	11
121.3	10
121.4	7
121.5	4
121.6	1
122.6	2
122.7	4
122.8	7
122.9	11
123.0	14
123.1	16
123.2	14
123.3	10
123.4	6
123.5	2
124.4	0
124.5	2
124.6	4
124.7	7
124.8	10
124.9	11
125.0	10
125.1	8
125.2	6
125.3	4
125.4	2
130.6	2
130.7	4
130.8	5
130.9	6
131.0	7
131.1	7
131.2	6
131.3	4
132.4	1
132.5	4
132.6	10
132.7	20
132.8	30
132.9	38
133.0	42
133.1	43
133.2	41
133.3	35
133.4	23
133.5	11
133.6	2
134.5	2
134.6	4
134.7	7
134.8	11
134.9	16
135.0	20
135.1	22
135.2	21
135.3	16
135.4	10
135.5	3
136.9	3
137.0	4
137.1	5
137.2	6
137.3	5
137.4	4
137.5	2
142.6	1
142.7	2
142.8	4
142.9	5
143.0	5
143.1	5
143.2	4
143.3	2
144.4	2
144.5	3
144.6	5
144.7	8
144.8	11
144.9	15
145.0	19
145.1	20
145.2	16
145.3	9
145.4	3
146.3	0
146.4	2
146.5	5
146.6	9
146.7	15
146.8	22
146.9	30
147.0	34
147.1	36
147.2	35
147.3	33
147.4	26
147.5	15
147.6	5
147.7	0
148.3	1
148.4	2
148.5	3
148.6	4
148.7	4
148.8	4
148.9	6
149.0	8
149.1	9
149.2	8
149.3	6
149.4	4
149.5	2
150.8	1
150.9	3
151.0	5
151.1	5
151.2	5
151.3	3
151.4	2
156.5	1
156.6	3
156.7	7
156.8	11
156.9	13
157.0	12
157.1	10
157.2	9
157.3	7
157.4	5
157.5	2
158.3	0
158.4	1
158.5	4
158.6	7
158.7	10
158.8	13
158.9	19
159.0	24
159.1	28
159.2	28
159.3	24
159.4	17
159.5	9
159.6	2
160.4	1
160.5	3
160.6	6
160.7	10
160.8	14
160.9	20
161.0	28
161.1	35
161.2	35
161.3	30
161.4	21
161.5	11
161.6	4
162.7	4
162.8	4
162.9	6
163.0	8
163.1	9
163.2	8
163.3	5
163.4	2
170.3	1
170.4	2
170.5	5
170.6	8
170.7	11
170.8	14
170.9	16
171.0	19
171.1	22
171.2	25
171.3	25
171.4	20
171.5	11
171.6	3
172.3	1
172.4	2
172.5	4
172.6	6
172.7	11
172.8	18
172.9	27
173.0	34
173.1	39
173.2	41
173.3	39
173.4	31
173.5	17
173.6	4
173.7	0
174.4	0
174.5	1
174.6	4
174.7	6
174.8	9
174.9	11
175.0	13
175.1	15
175.2	14
175.3	11
175.4	7
175.5	3
176.4	1
176.5	3
176.6	5
176.7	7
176.8	8
176.9	10
177.0	12
177.1	14
177.2	13
177.3	12
177.4	10
177.5	6
177.6	2
182.7	2
182.8	3
182.9	5
183.0	7
183.1	8
183.2	9
183.3	7
183.4	5
183.5	2
184.2	0
184.3	2
184.4	4
184.5	6
184.6	9
184.7	12
184.8	17
184.9	23
185.0	28
185.1	29
185.2	27
185.3	24
185.4	18
185.5	9
185.6	2
186.3	1
186.4	3
186.5	5
186.6	11
186.7	18
186.8	25
186.9	34
187.0	43
187.1	53
187.2	58
187.3	54
187.4	41
187.5	22
187.6	6
187.7	0
188.6	1
188.7	2
188.8	4
188.9	6
189.0	9
189.1	10
189.2	9
189.3	6
189.4	3
190.6	2
190.7	3
190.8	6
190.9	8
191.0	10
191.1	10
191.2	7
191.3	4
196.5	1
196.6	3
196.7	6
196.8	7
196.9	7
197.0	7
197.1	6
197.2	6
197.3	6
197.4	5
197.5	2
198.6	1
198.7	3
198.8	7
198.9	10
199.0	12
199.1	13
199.2	13
199.3	12
199.4	9
199.5	4
199.6	1
200.5	1
200.6	3
200.7	6
200.8	10
200.9	12
201.0	15
201.1	17
201.2	16
201.3	12
201.4	6
201.5	2
202.8	2
202.9	3
203.0	5
203.1	6
203.2	6
203.3	5
203.4	3
208.8	1
208.9	2
209.0	4
209.1	5
209.2	4
209.3	2
210.4	0
210.5	1
210.6	4
210.7	7
210.8	10
210.9	12
211.0	10
211.1	8
211.2	6
211.3	3
212.5	2
212.6	3
212.7	4
212.8	6
212.9	10
213.0	15
213.1	19
213.2	20
213.3	17
213.4	10
213.5	3
214.4	0
214.5	2
214.6	4
214.7	8
214.8	13
214.9	17
215.0	20
215.1	21
215.2	19
215.3	16
215.4	11
215.5	7
215.6	3
224.6	2
224.7	4
224.8	7
224.9	10
225.0	12
225.1	13
225.2	11
225.3	9
225.4	6
225.5	3
226.8	3
226.9	4
227.0	5
227.1	6
227.2	5
227.3	3
227.4	1
238.7	1
238.8	3
238.9	4
239.0	5
239.1	6
239.2	5
239.3	3
240.6	1
240.7	2
240.8	5
240.9	10
241.0	16
241.1	20
241.2	21
241.3	19
241.4	14
241.5	7
241.6	1
242.8	2
242.9	3
243.0	6
243.1	9
243.2	9
243.3	7
243.4	3
250.9	3
251.0	4
251.1	5
251.2	7
251.3	7
251.4	5
251.5	2
252.9	3
253.0	4
253.1	6
253.2	9
253.3	11
253.4	8
253.5	4
253.6	0
254.8	2
254.9	4
255.0	5
255.1	6
255.2	6
255.3	6
255.4	5
255.5	3
268.5	1
268.6	3
268.7	5
268.8	9
268.9	13
269.0	15
269.1	14
269.2	10
269.3	7
269.4	4
269.5	3
280.4	2
280.5	5
280.6	10
280.7	18
280.8	30
280.9	46
281.0	66
281.1	86
281.2	99
281.3	99
281.4	85
281.5	59
281.6	31
281.7	8
281.8	0
298.5	1
298.6	3
298.7	5
298.8	9
298.9	14
299.0	19
299.1	24
299.2	25
299.3	23
299.4	16
299.5	8
299.6	2
300.8	2
300.9	3
301.0	4
301.1	4
301.2	4
301.3	3
338.9	2
339.0	3
339.1	4
339.2	5
339.3	5
339.4	4
339.5	3
340.3	0
340.4	2
340.5	4
340.6	6
340.7	10
340.8	18
340.9	31
341.0	46
341.1	61
341.2	74
341.3	80
341.4	74
341.5	53
341.6	26
341.7	5
341.8	0
358.7	1
358.8	2
358.9	5
359.0	9
359.1	13
359.2	14
359.3	14
359.4	11
359.5	7
359.6	3
376.7	2
376.8	3
376.9	4
377.0	6
377.1	9
377.2	10
377.3	8
377.4	5
377.5	1
418.6	1
418.7	2
418.8	4
418.9	5
419.0	5
419.1	4
419.2	3
419.3	2
419.4	2
419.5	1
419.6	1
419.7	0
419.8	0
419.9	0
420.0	0
420.1	0
420.2	0
420.3	0
420.4	0
420.5	0
420.6	0
420.7	0
420.8	0
420.9	0
421.0	0
421.1	0
421.2	0
421.3	0
421.4	0
421.5	0
421.6	0
421.7	0
421.8	1
421.9	2
422.0	3
422.1	2
436.3	0
436.4	1
436.5	4
436.6	7
436.7	12
436.8	21
436.9	36
437.0	54
437.1	69
437.2	79
437.3	84
437.4	80
437.5	62
437.6	34
437.7	9
437.8	0
454.4	0
454.5	1
454.6	4
454.7	9
454.8	14
454.9	20
455.0	28
455.1	38
455.2	50
455.3	59
455.4	61
455.5	51
455.6	32
455.7	11
455.8	0
472.8	1
472.9	2
473.0	4
473.1	5
473.2	6
473.3	6
473.4	5
473.5	3
473.6	2
