Mass spectrum: Hyrcanogenin; LC-ESI-QQQ; MS2;  Frag=135.0V CID@10.0 ; [M+HCOO]-
Name: Hyrcanogenin
Class: Steroids
Formula: C23H30O5
Exact mass: 386.49255000000005
SMILES: C[C@]12CCC3C(CCC4=CC(O)CC[C@@]43C=O)C1(O)CCC2C1=CC(=O)OC1
InChI: InChI=1S/C23H30O5/c1-21-7-5-18-19(3-2-15-11-16(25)4-8-22(15,18)13-24)23(21,27)9-6-17(21)14-10-20(26)28-12-14/h10-11,13,16-19,25,27H,2-9,12H2,1H3/t16?,17?,18?,19?,21-,22-,23?/m1/s1
Instrument: Agilent 6410 Triple Quadrupole LC/MS system
Instrument type: LC-ESI-QQQ
Ms type: MS2
Ion mode: NEGATIVE
Precursor type: [M+HCOO]-
m/z	relative intensity
367.0	1
367.1	3
367.2	5
367.3	7
367.4	6
367.5	3
384.1	1
384.2	3
384.3	5
384.4	7
384.5	10
384.6	23
384.7	46
384.8	67
384.9	76
385.0	79
385.1	87
385.2	99
385.3	98
385.4	72
385.5	34
385.6	6
385.7	0
430.3	1
430.4	2
430.5	4
430.6	7
430.7	9
430.8	10
430.9	12
431.0	12
431.1	11
431.2	9
431.3	7
431.4	4
