Mass spectrum: Verticinone; LC-ESI-QQQ; MS2; Frag=135.0V CID@25.0; [M+H]+
Name: Verticinone
Class: Alkaloids
Formula: C27H45NO4
Exact mass: 447.664
SMILES: CC1CCC2N(C1)CC1C3CC4C(CC(=O)C5CC(O)CCC54C)C3CCC1[C@]2(C)O.O
InChI: InChI=1S/C27H43NO3.H2O/c1-15-4-7-25-27(3,31)21-6-5-17-18(20(21)14-28(25)13-15)11-22-19(17)12-24(30)23-10-16(29)8-9-26(22,23)2;/h15-23,25,29,31H,4-14H2,1-3H3;1H2/t15?,16?,17?,18?,19?,20?,21?,22?,23?,25?,26?,27-;/m0./s1
Instrument: Agilent 6410 Triple Quadrupole LC/MS system
Instrument type: LC-ESI-QQQ
Ms type: MS2
Ion mode: POSITIVE
Precursor type: [M+H]+
m/z	relative intensity
411.4	0
411.5	2
411.6	5
411.7	11
411.8	20
411.9	33
412.0	52
412.1	73
412.2	90
412.3	99
412.4	99
412.5	87
412.6	65
412.7	35
412.8	10
412.9	0
429.4	0
429.5	1
429.6	3
429.7	6
429.8	9
429.9	16
430.0	27
430.1	40
430.2	53
430.3	60
430.4	59
430.5	52
430.6	39
430.7	22
430.8	7
430.9	0
