Mass spectrum: Na-Desacetylisoretuline; LC-ESI-QQQ; MS2; Frag=135.0V CID@5.0; [M+H]+
Name: Na-Desacetylisoretuline
Class: Alkaloids
Formula: C19H24N2O
Exact mass: 296.4159
SMILES: C/C=C1/CN2CCC34c5ccccc5NC3[C@H](CO)[C@H]1CC24
InChI: InChI=1S/C19H24N2O/c1-2-12-10-21-8-7-19-15-5-3-4-6-16(15)20-18(19)14(11-22)13(12)9-17(19)21/h2-6,13-14,17-18,20,22H,7-11H2,1H3/b12-2-/t13-,14+,17?,18?,19?/m0/s1
Instrument: Agilent 6410 Triple Quadrupole LC/MS system
Instrument type: LC-ESI-QQQ
Ms type: MS2
Ion mode: POSITIVE
Precursor type: [M+H]+
m/z	relative intensity
296.4	0
296.5	3
296.6	7
296.7	15
296.8	28
296.9	47
297.0	69
297.1	88
297.2	99
297.3	99
297.4	89
297.5	66
297.6	36
297.7	11
297.8	0
