Mass spectrum: Clarithromycin; LC-ESI-QQQ; MS2; Frag=135.0V CID@10.0; [M+HCOO]-
Name: Clarithromycin
Class: Polyketides
Formula: C38H69NO13
Exact mass: 747.9725
SMILES: CC[C@H]1OC(=O)[C@H](C)[C@@H](O[C@H]2C[C@@](C)(OC)[C@@H](O)[C@H](C)O2)[C@H](C)[C@@H](O[C@@H]2O[C@H](C)C[C@H](N(C)C)[C@H]2O)[C@](C)(OC)C[C@@H](C)C(=O)[C@H](C)[C@@H](O)[C@]1(C)O
InChI: InChI=1S/C38H69NO13/c1-15-26-38(10,45)31(42)21(4)28(40)19(2)17-37(9,47-14)33(52-35-29(41)25(39(11)12)16-20(3)48-35)22(5)30(23(6)34(44)50-26)51-27-18-36(8,46-13)32(43)24(7)49-27/h19-27,29-33,35,41-43,45H,15-18H2,1-14H3/t19-,20-,21+,22+,23-,24+,25+,26-,27+,29-,30+,31-,32+,33-,35+,36-,37-,38-/m1/s1
Instrument: Agilent 6410 Triple Quadrupole LC/MS system
Instrument type: LC-ESI-QQQ
Ms type: MS2
Ion mode: NEGATIVE
Precursor type: [M+HCOO]-
m/z	relative intensity
336.2	2
336.3	3
336.4	6
336.5	11
336.6	17
336.7	23
336.8	29
336.9	30
337.0	28
337.1	25
337.2	27
337.3	35
337.4	41
337.5	37
337.6	22
337.7	8
337.8	1
427.4	3
427.5	4
427.6	6
427.7	10
427.8	14
427.9	18
428.0	17
428.1	12
428.2	6
437.4	4
437.5	5
437.6	8
437.7	12
437.8	17
437.9	22
438.0	26
438.1	27
438.2	24
438.3	21
438.4	17
438.5	14
438.6	9
438.7	4
511.6	4
511.7	5
511.8	8
511.9	11
512.0	16
512.1	23
512.2	32
512.3	39
512.4	37
512.5	26
512.6	12
512.7	2
569.2	3
569.3	4
569.4	10
569.5	23
569.6	43
569.7	61
569.8	68
745.0	2
745.1	4
745.2	6
745.3	10
745.4	16
745.5	23
745.6	29
745.7	31
745.8	30
745.9	30
746.0	38
746.1	54
746.2	70
746.3	81
746.4	83
746.5	75
746.6	56
746.7	32
746.8	11
746.9	1
791.3	4
791.4	6
791.5	11
791.6	19
791.7	28
791.8	32
791.9	30
792.0	26
792.1	29
792.2	48
792.3	78
792.4	98
792.5	91
792.6	58
792.7	22
792.8	4
