Mass spectrum: Acetylenoxolone; LC-ESI-QQQ; MS2; Frag=135.0V CID@5.0; [M+H]+
Name: Acetylenoxolone
Class: Terpenoids
Formula: C32H48O5
Exact mass: 512.7364
SMILES: CC(=O)O[C@H]1CC[C@@]2(C)C(CC[C@]3(C)C2C(=O)C=C2C4C[C@@](C)(C(=O)O)CC[C@]4(C)CC[C@]23C)C1(C)C
InChI: InChI=1S/C32H48O5/c1-19(33)37-24-10-11-30(6)23(27(24,2)3)9-12-32(8)25(30)22(34)17-20-21-18-29(5,26(35)36)14-13-28(21,4)15-16-31(20,32)7/h17,21,23-25H,9-16,18H2,1-8H3,(H,35,36)/t21?,23?,24-,25?,28+,29-,30-,31+,32+/m0/s1
Instrument: Agilent 6410 Triple Quadrupole LC/MS system
Instrument type: LC-ESI-QQQ
Ms type: MS2
Ion mode: POSITIVE
Precursor type: [M+H]+
m/z	relative intensity
512.4	2
512.5	3
512.6	6
512.7	10
512.8	19
512.9	35
513.0	55
513.1	75
513.2	90
513.3	98
513.4	99
513.5	91
513.6	70
513.7	40
513.8	11
513.9	0
