Mass spectrum: Smilagenin ((3beta,5beta,25R)-form); LC-ESI-QQQ; MS2; Frag=135.0V CID@10.0; [M+H]+
Name: Isosarsasapogenin
Name: (25R)-5beta-Spirostan-3beta-ol
Name: 16,22:22,26-Bis(epoxy)cholestan-3beta-ol
Name: 5beta,20alpha,22alpha,25D-Spiranostan-3beta-ol
Name: Smilagenin ((3beta,5beta,25R)-form)
Class: Steroids
Formula: C27H44O3
Exact mass: 416.6499
SMILES: C[C@H]1C2C(CC3C4CCC5CC(O)CC[C@]5(C)C4CC[C@@]32C)O[C@]12CC[C@@H](C)CO2
InChI: InChI=1S/C27H44O3/c1-16-7-12-27(29-15-16)17(2)24-23(30-27)14-22-20-6-5-18-13-19(28)8-10-25(18,3)21(20)9-11-26(22,24)4/h16-24,28H,5-15H2,1-4H3/t16-,17+,18?,19?,20?,21?,22?,23?,24?,25+,26+,27-/m1/s1
Instrument: Agilent 6410 Triple Quadrupole LC/MS system
Instrument type: LC-ESI-QQQ
Ms type: MS2
Ion mode: POSITIVE
Precursor type: [M+H]+
m/z	relative intensity
272.3	0
272.4	1
272.5	4
272.6	8
272.7	13
272.8	19
272.9	28
273.0	40
273.1	52
273.2	60
273.3	64
273.4	60
273.5	48
273.6	28
273.7	10
273.8	0
416.4	1
416.5	3
416.6	5
416.7	9
416.8	16
416.9	29
417.0	49
417.1	70
417.2	88
417.3	98
417.4	99
417.5	90
417.6	68
417.7	40
417.8	14
417.9	0
