Mass spectrum: Longatin; LC-ESI-QQQ; MS2; Frag=135.0V CID@10.0; [M+H]+
Name: Longatin
Class: Alkaloids
Formula: C22H23NO7
Exact mass: 413.4311
SMILES: COc1ccc2c(c1OC)C(=O)O[C@@H]2[C@H]1c2c(cc3c(c2OC)OCO3)CCN1C
InChI: InChI=1S/C22H23NO7/c1-23-8-7-11-9-14-20(29-10-28-14)21(27-4)15(11)17(23)18-12-5-6-13(25-2)19(26-3)16(12)22(24)30-18/h5-6,9,17-18H,7-8,10H2,1-4H3/t17-,18+/m1/s1
Instrument: Agilent 6410 Triple Quadrupole LC/MS system
Instrument type: LC-ESI-QQQ
Ms type: MS2
Ion mode: POSITIVE
Precursor type: [M+H]+
m/z	relative intensity
219.4	1
219.5	3
219.6	5
219.7	10
219.8	18
219.9	26
220.0	33
220.1	36
220.2	36
220.3	31
220.4	23
220.5	13
220.6	4
413.3	1
413.4	3
413.5	7
413.6	13
413.7	22
413.8	37
413.9	58
414.0	80
414.1	96
414.2	99
414.3	89
414.4	67
414.5	38
414.6	13
414.7	0
