Mass spectrum: Papaveraldine; LC-ESI-QQQ; MS2; Frag=135.0V CID@5.0; [M+H]+
Name: Papaveraldine
Class: Alkaloids
Formula: C20H21NO5
Exact mass: 355.3941
SMILES: COc1ccc(C(=O)C2=NCCc3cc(OC)c(OC)cc32)cc1OC
InChI: InChI=1S/C20H21NO5/c1-23-15-6-5-13(10-16(15)24-2)20(22)19-14-11-18(26-4)17(25-3)9-12(14)7-8-21-19/h5-6,9-11H,7-8H2,1-4H3
Instrument: Agilent 6410 Triple Quadrupole LC/MS system
Instrument type: LC-ESI-QQQ
Ms type: MS2
Ion mode: POSITIVE
Precursor type: [M+H]+
m/z	relative intensity
355.3	0
355.4	2
355.5	5
355.6	11
355.7	19
355.8	35
355.9	56
356.0	77
356.1	93
356.2	99
356.3	94
356.4	75
356.5	47
356.6	19
356.7	2
