Mass spectrum: Cyclogaleginoside A.; LC-ESI-QQQ; MS2; Frag=135.0V CID@25.0; [M+H]+
Name: Cyclogaleginoside A.
Class: Terpenoids
Formula: C37H60O10
Exact mass: 664.8848
SMILES: CC(=O)O[C@H]1[C@H](OC2CC[C@]34C[C@]35CC[C@]3(C)C([C@@]6(C)CC[C@@H](C(C)(C)O)O6)[C@@H](O)C[C@@]3(C)C5C[C@H](O)C4C2(C)C)OC[C@@H](O)[C@@H]1O
InChI: InChI=1S/C37H60O10/c1-19(38)45-27-26(42)22(41)17-44-30(27)46-24-10-12-37-18-36(37)14-13-33(6)29(35(8)11-9-25(47-35)32(4,5)43)21(40)16-34(33,7)23(36)15-20(39)28(37)31(24,2)3/h20-30,39-43H,9-18H2,1-8H3/t20-,21-,22+,23?,24?,25-,26-,27+,28?,29?,30-,33+,34-,35+,36-,37+/m0/s1
Instrument: Agilent 6410 Triple Quadrupole LC/MS system
Instrument type: LC-ESI-QQQ
Ms type: MS2
Ion mode: POSITIVE
Precursor type: [M+H]+
m/z	relative intensity
84.6	1
84.7	2
84.8	4
84.9	6
85.0	7
85.1	5
85.2	3
96.2	1
96.3	3
96.4	6
96.5	8
96.6	7
96.7	5
96.8	5
96.9	7
97.0	10
97.1	9
97.2	5
97.3	2
106.7	1
106.8	3
106.9	5
107.0	6
107.1	5
107.2	2
108.7	1
108.8	3
108.9	5
109.0	6
109.1	5
109.2	3
114.5	1
114.6	3
114.7	6
114.8	8
114.9	9
115.0	7
115.1	5
124.5	0
124.6	1
124.7	8
124.8	19
124.9	30
125.0	34
125.1	30
125.2	23
125.3	15
125.4	8
125.5	3
126.6	2
126.7	3
126.8	6
126.9	11
127.0	15
127.1	16
127.2	12
127.3	6
127.4	1
132.6	1
132.7	3
132.8	4
132.9	4
133.0	3
142.4	2
142.5	5
142.6	14
142.7	28
142.8	44
142.9	57
143.0	68
143.1	74
143.2	66
143.3	43
143.4	17
143.5	1
156.0	1
156.1	3
156.2	6
156.3	9
156.4	16
156.5	27
156.6	40
156.7	52
156.8	65
156.9	83
157.0	97
157.1	99
157.2	88
157.3	66
157.4	41
157.5	18
157.6	3
174.3	0
174.4	1
174.5	4
174.6	11
174.7	25
174.8	44
174.9	56
175.0	57
175.1	47
175.2	33
175.3	19
175.4	6
175.5	0
252.8	1
252.9	2
253.0	3
253.1	4
253.2	3
418.8	1
418.9	3
419.0	6
419.1	8
419.2	8
419.3	5
419.4	2
436.7	0
436.8	3
436.9	6
437.0	11
437.1	15
437.2	17
437.3	15
437.4	10
437.5	5
437.6	1
