Mass spectrum: Echisoside; LC-ESI-QQQ; MS2; Frag=135.0V CID@25.0; [M+H]+
Name: Echisoside
Class: Carbohydrates
Formula: C21H30O14
Exact mass: 506.4649
SMILES: COc1cc(O)c(C(C)=O)c(O[C@@H]2O[C@H](CO[C@@H]3O[C@H](CO)[C@@H](O)[C@H](O)[C@H]3O)[C@@H](O)[C@H](O)[C@H]2O)c1
InChI: InChI=1S/C21H30O14/c1-7(23)13-9(24)3-8(31-2)4-10(13)33-21-19(30)17(28)15(26)12(35-21)6-32-20-18(29)16(27)14(25)11(5-22)34-20/h3-4,11-12,14-22,24-30H,5-6H2,1-2H3/t11-,12-,14-,15-,16+,17+,18-,19-,20-,21-/m1/s1
Instrument: Agilent 6410 Triple Quadrupole LC/MS system
Instrument type: LC-ESI-QQQ
Ms type: MS2
Ion mode: POSITIVE
Precursor type: [M+H]+
m/z	relative intensity
84.5	1
84.6	2
84.7	6
84.8	12
84.9	17
85.0	19
85.1	19
85.2	16
85.3	12
85.4	7
85.5	2
102.7	1
102.8	3
102.9	5
103.0	6
103.1	5
103.2	2
164.6	5
164.7	6
164.8	8
164.9	9
165.0	8
165.1	5
165.2	2
182.2	2
182.3	4
182.4	6
182.5	10
182.6	20
182.7	41
182.8	69
182.9	90
183.0	99
183.1	98
183.2	87
183.3	64
183.4	32
183.5	5
194.4	2
194.5	4
194.6	8
194.7	16
194.8	24
194.9	29
195.0	30
195.1	31
195.2	32
195.3	28
195.4	17
195.5	6
195.6	0
206.1	1
206.2	3
206.3	7
206.4	14
206.5	22
206.6	30
206.7	40
206.8	53
206.9	68
207.0	82
207.1	88
207.2	80
207.3	57
207.4	27
207.5	5
220.8	2
220.9	4
221.0	6
221.1	9
221.2	11
221.3	9
221.4	4
224.1	1
224.2	3
224.3	5
224.4	8
224.5	9
224.6	13
224.7	20
224.8	32
224.9	44
225.0	49
225.1	46
225.2	35
225.3	21
225.4	8
225.5	1
248.3	4
248.4	5
248.5	9
248.6	15
248.7	21
248.8	31
248.9	47
249.0	64
249.1	71
249.2	66
249.3	52
249.4	33
249.5	15
249.6	3
260.3	1
260.4	3
260.5	5
260.6	10
260.7	18
260.8	28
260.9	37
261.0	42
261.1	39
261.2	32
261.3	24
261.4	15
261.5	7
261.6	2
272.4	1
272.5	3
272.6	5
272.7	10
272.8	18
272.9	25
273.0	29
273.1	27
273.2	20
273.3	12
273.4	5
290.5	2
290.6	4
290.7	5
290.8	6
290.9	7
291.0	10
291.1	12
291.2	12
291.3	9
291.4	5
308.5	2
308.6	4
308.7	6
308.8	7
308.9	9
309.0	8
309.1	7
309.2	5
309.3	3
