Mass spectrum: T2 Toxin; LC-ESI-QQQ; MS2; Frag=135.0V CID@15.0; [M+NH4]+
Name: T2 Toxin
Class: Terpenoids
Formula: C24H34O9
Exact mass: 466.5332
SMILES: CC(=O)OC[C@]12C[C@H](OC(=O)CC(C)C)C(C)=C[C@H]1OC1[C@H](O)[C@@H](OC(C)=O)[C@@]2(C)[C@@]12CO2
InChI: InChI=1S/C24H34O9/c1-12(2)7-18(27)32-16-9-23(10-29-14(4)25)17(8-13(16)3)33-21-19(28)20(31-15(5)26)22(23,6)24(21)11-30-24/h8,12,16-17,19-21,28H,7,9-11H2,1-6H3/t16-,17+,19+,20+,21?,22+,23+,24+/m0/s1
Instrument: Agilent 6410 Triple Quadrupole LC/MS system
Instrument type: LC-ESI-QQQ
Ms type: MS2
Ion mode: POSITIVE
Precursor type: [M+NH4]+
m/z	relative intensity
104.4	0
104.5	2
104.6	4
104.7	6
104.8	7
104.9	8
105.0	8
105.1	7
105.2	6
105.3	4
105.4	3
144.7	2
144.8	4
144.9	6
145.0	9
145.1	9
145.2	7
145.3	5
145.4	3
156.6	2
156.7	4
156.8	7
156.9	12
157.0	15
157.1	15
157.2	11
157.3	6
157.4	1
158.6	1
158.7	2
158.8	6
158.9	10
159.0	13
159.1	14
159.2	11
159.3	7
159.4	3
160.7	1
160.8	3
160.9	4
161.0	5
161.1	4
161.2	3
168.2	0
168.3	2
168.4	5
168.5	8
168.6	11
168.7	14
168.8	16
168.9	19
169.0	24
169.1	30
169.2	33
169.3	32
169.4	23
169.5	11
169.6	2
170.6	3
170.7	4
170.8	6
170.9	9
171.0	12
171.1	13
171.2	12
171.3	8
171.4	4
171.5	1
172.4	1
172.5	2
172.6	3
172.7	5
172.8	6
172.9	7
173.0	8
173.1	8
173.2	8
173.3	7
173.4	5
173.5	2
180.7	3
180.8	4
180.9	5
181.0	7
181.1	7
181.2	6
181.3	4
184.2	1
184.3	3
184.4	6
184.5	11
184.6	16
184.7	27
184.8	45
184.9	69
185.0	89
185.1	99
185.2	99
185.3	88
185.4	66
185.5	37
185.6	11
185.7	0
186.4	1
186.5	3
186.6	6
186.7	9
186.8	12
186.9	15
187.0	19
187.1	22
187.2	22
187.3	19
187.4	13
187.5	5
187.6	0
196.2	1
196.3	3
196.4	5
196.5	8
196.6	12
196.7	20
196.8	32
196.9	45
197.0	57
197.1	64
197.2	61
197.3	50
197.4	33
197.5	15
197.6	3
198.4	2
198.5	3
198.6	6
198.7	8
198.8	10
198.9	14
199.0	19
199.1	23
199.2	24
199.3	22
199.4	15
199.5	8
199.6	1
202.3	1
202.4	2
202.5	4
202.6	6
202.7	9
202.8	14
202.9	18
203.0	22
203.1	24
203.2	23
203.3	18
203.4	11
203.5	4
214.2	0
214.3	1
214.4	5
214.5	12
214.6	22
214.7	36
214.8	53
214.9	70
215.0	80
215.1	82
215.2	80
215.3	72
215.4	53
215.5	27
215.6	5
215.7	0
226.6	1
226.7	3
226.8	6
226.9	9
227.0	12
227.1	14
227.2	15
227.3	14
227.4	9
227.5	4
232.5	1
232.6	3
232.7	5
232.8	7
232.9	8
233.0	8
233.1	9
233.2	11
233.3	12
233.4	10
233.5	5
233.6	1
244.3	1
244.4	3
244.5	4
244.6	6
244.7	9
244.8	13
244.9	18
245.0	22
245.1	24
245.2	24
245.3	22
245.4	17
245.5	9
245.6	3
256.7	4
256.8	5
256.9	6
257.0	8
257.1	10
257.2	11
257.3	9
257.4	6
257.5	3
274.8	2
274.9	4
275.0	6
275.1	7
275.2	6
275.3	4
304.3	1
304.4	2
304.5	4
304.6	7
304.7	11
304.8	19
304.9	28
305.0	39
305.1	47
305.2	50
305.3	44
305.4	30
305.5	13
305.6	2
