Mass spectrum: liquiritigenin; LC-ESI-QQQ; MS2; Frag=135.0V CID@5.0; [M+H]+
Name: Liquiritigenin
Name: (2S)-7-hydroxy-2-(4-hydroxyphenyl)-2,3-dihydrochromen-4-one
Name: liquiritigenin
Class: Flavonoids
Formula: C15H12O4
Exact mass: 256.2605
SMILES: O=C1C[C@@H](c2ccc(O)cc2)Oc2cc(O)ccc21
InChI: InChI=1S/C15H12O4/c16-10-3-1-9(2-4-10)14-8-13(18)12-6-5-11(17)7-15(12)19-14/h1-7,14,16-17H,8H2/t14-/m0/s1
Instrument: Agilent 6410 Triple Quadrupole LC/MS system
Instrument type: LC-ESI-QQQ
Ms type: MS2
Ion mode: POSITIVE
Precursor type: [M+H]+
m/z	relative intensity
136.6	1
136.7	2
136.8	4
136.9	6
137.0	7
137.1	7
137.2	6
137.3	4
137.4	2
256.3	0
256.4	3
256.5	8
256.6	19
256.7	34
256.8	54
256.9	74
257.0	91
257.1	99
257.2	99
257.3	89
257.4	69
257.5	40
257.6	14
257.7	0
