Mass spectrum: isoverticine; LC-ESI-QQQ; MS2; Frag=135.0V CID@25.0; [M+H]+
Name: isoverticine
Class: Alkaloids
Formula: C27H45NO3
Exact mass: 431.6646
SMILES: CC1CC[C@@H]2N(C1)CC1[C@H](CC[C@H]3C4CC(O)[C@H]5CC(O)CCC5(C)[C@H]4C[C@@H]13)[C@]2(C)O
InChI: InChI=1S/C27H45NO3/c1-15-4-7-25-27(3,31)21-6-5-17-18(20(21)14-28(25)13-15)11-22-19(17)12-24(30)23-10-16(29)8-9-26(22,23)2/h15-25,29-31H,4-14H2,1-3H3/t15?,16?,17-,18-,19?,20?,21+,22+,23-,24?,25+,26?,27+/m1/s1
Instrument: Agilent 6410 Triple Quadrupole LC/MS system
Instrument type: LC-ESI-QQQ
Ms type: MS2
Ion mode: POSITIVE
Precursor type: [M+H]+
m/z	relative intensity
413.4	0
413.5	1
413.6	4
413.7	10
413.8	19
413.9	33
414.0	51
414.1	72
414.2	90
414.3	99
414.4	98
414.5	85
414.6	61
414.7	33
414.8	9
414.9	0
431.4	0
431.5	1
431.6	4
431.7	8
431.8	14
431.9	23
432.0	35
432.1	52
432.2	68
432.3	79
432.4	81
432.5	74
432.6	58
432.7	35
432.8	14
432.9	1
