Mass spectrum: Diosgenin; LC-ESI-QQQ; MS2; Frag=135.0V CID@5.0 ; [M+H]+
Name: Diosgenin
Class: Steroids
Formula: C27H42O3
Exact mass: 414.63399000000004
SMILES: CC1C2C(CC3C4CC=C5CC(O)CC[C@]5(C)C4CC[C@@]32C)O[C@]12CC[C@@H](C)CO2
InChI: InChI=1S/C27H42O3/c1-16-7-12-27(29-15-16)17(2)24-23(30-27)14-22-20-6-5-18-13-19(28)8-10-25(18,3)21(20)9-11-26(22,24)4/h5,16-17,19-24,28H,6-15H2,1-4H3/t16-,17?,19?,20?,21?,22?,23?,24?,25+,26+,27-/m1/s1
Instrument: Agilent 6410 Triple Quadrupole LC/MS system
Instrument type: LC-ESI-QQQ
Ms type: MS2
Ion mode: POSITIVE
Precursor type: [M+H]+
m/z	relative intensity
270.7	2
270.8	3
270.9	6
271.0	10
271.1	13
271.2	15
271.3	15
271.4	13
271.5	9
271.6	4
271.7	0
414.3	0
414.4	2
414.5	4
414.6	7
414.7	11
414.8	18
414.9	31
415.0	52
415.1	74
415.2	91
415.3	99
415.4	99
415.5	91
415.6	72
415.7	43
415.8	15
415.9	0
