Mass spectrum: Stepharine; LC-ESI-QQQ; MS2; Frag=135.0V CID@15.0; [M+H]+
Name: Stepharine
Class: Alkaloids
Formula: C18H19NO3
Exact mass: 297.357
SMILES: COc1cc2c3c(c1OC)C1(C=CC(=O)C=C1)CC3NCC2
InChI: InChI=1S/C18H19NO3/c1-21-14-9-11-5-8-19-13-10-18(6-3-12(20)4-7-18)16(15(11)13)17(14)22-2/h3-4,6-7,9,13,19H,5,8,10H2,1-2H3
Instrument: Agilent 6410 Triple Quadrupole LC/MS system
Instrument type: LC-ESI-QQQ
Ms type: MS2
Ion mode: POSITIVE
Precursor type: [M+H]+
m/z	relative intensity
159.6	2
159.7	3
159.8	5
159.9	7
160.0	8
160.1	9
160.2	8
160.3	8
160.4	9
160.5	10
160.6	12
160.7	18
160.8	27
160.9	36
161.0	43
161.1	46
161.2	45
161.3	41
161.4	32
161.5	19
161.6	7
161.7	0
189.5	1
189.6	3
189.7	4
189.8	7
189.9	9
190.0	10
190.1	11
190.2	11
190.3	10
190.4	8
190.5	5
191.2	3
191.3	4
191.4	6
191.5	8
191.6	14
191.7	27
191.8	45
191.9	66
192.0	84
192.1	96
192.2	99
192.3	95
192.4	77
192.5	48
192.6	18
192.7	0
237.6	2
237.7	4
237.8	6
237.9	10
238.0	13
238.1	14
238.2	13
238.3	11
238.4	8
238.5	4
238.6	1
249.7	2
249.8	4
249.9	6
250.0	8
250.1	8
250.2	8
250.3	7
250.4	5
250.5	3
252.7	1
252.8	3
252.9	6
253.0	7
253.1	7
253.2	7
253.3	6
253.7	3
253.8	5
253.9	8
254.0	12
254.1	14
254.2	14
254.3	12
254.4	9
254.5	5
254.6	1
268.5	2
268.6	3
268.7	5
268.8	10
268.9	15
269.0	21
269.1	24
269.2	24
269.3	22
269.4	17
269.5	11
269.6	4
269.7	0
280.7	3
280.8	5
280.9	8
281.0	12
281.1	14
281.2	14
281.3	13
281.4	10
281.5	6
281.6	2
297.3	1
297.4	2
297.5	5
297.6	9
297.7	16
297.8	30
297.9	50
298.0	70
298.1	82
298.2	85
298.3	78
298.4	64
298.5	42
298.6	18
298.7	2
