Mass spectrum: Fraxin; LC-ESI-QQQ; MS2; Frag=135.0V CID@25.0; [M+Na]+
Name: Fraxin
Class: Benzopyranoids
Formula: C16H18O10
Exact mass: 370.3159
SMILES: COc1cc2ccc(=O)oc2c(O[C@@H]2O[C@H](CO)[C@@H](O)[C@H](O)[C@H]2O)c1O
InChI: InChI=1S/C16H18O10/c1-23-7-4-6-2-3-9(18)25-14(6)15(11(7)20)26-16-13(22)12(21)10(19)8(5-17)24-16/h2-4,8,10,12-13,16-17,19-22H,5H2,1H3/t8-,10-,12+,13-,16+/m1/s1
Instrument: Agilent 6410 Triple Quadrupole LC/MS system
Instrument type: LC-ESI-QQQ
Ms type: MS2
Ion mode: POSITIVE
Precursor type: [M+Na]+
m/z	relative intensity
230.0	2
230.1	3
230.2	5
230.3	10
230.4	19
230.5	33
230.6	47
230.7	57
230.8	62
230.9	72
231.0	87
231.1	92
231.2	73
231.3	38
231.4	11
231.5	0
392.1	3
392.2	4
392.3	5
392.4	5
392.5	5
392.6	5
392.7	5
392.8	4
392.9	4
393.0	4
393.1	4
393.2	3
393.3	3
393.4	3
393.5	5
393.6	5
393.7	4
