Mass spectrum: 20,24-Epoxydammarane-3,11,25-triol; LC-ESI-QQQ; MS2;  Frag=135.0V CID@25.0 ; [M+NH4]+
Name: 20,24-Epoxydammarane-3,11,25-triol
Class: Terpenoids
Formula: C30H52O4
Exact mass: 476.74654000000004
SMILES: CC(C)(O)C1CC[C@](C)(C2CC[C@]3(C)C2C[C@@H](O)C2[C@@]4(C)CC[C@H](O)C(C)(C)C4CC[C@]23C)O1
InChI: InChI=1S/C30H52O4/c1-25(2)21-10-15-29(7)24(27(21,5)13-11-22(25)32)20(31)17-19-18(9-14-28(19,29)6)30(8)16-12-23(34-30)26(3,4)33/h18-24,31-33H,9-17H2,1-8H3/t18?,19?,20-,21?,22+,23?,24?,27+,28-,29-,30-/m1/s1
Instrument: Agilent 6410 Triple Quadrupole LC/MS system
Instrument type: LC-ESI-QQQ
Ms type: MS2
Ion mode: POSITIVE
Precursor type: [M+NH4]+
m/z	relative intensity
70.6	5
70.7	7
70.8	9
70.9	10
71.0	8
94.5	5
94.6	6
94.7	8
94.8	13
94.9	16
95.0	14
95.1	9
95.2	5
108.8	4
108.9	6
109.0	10
109.1	14
109.2	15
109.3	10
109.4	5
118.4	2
118.5	4
118.6	13
118.7	29
118.8	45
118.9	49
119.0	36
119.1	16
119.2	2
124.6	6
124.7	7
124.8	9
124.9	10
125.0	10
125.1	9
125.2	8
125.3	6
134.6	5
134.7	8
134.8	13
134.9	14
135.0	12
135.1	8
142.4	2
142.5	6
142.6	19
142.7	42
142.8	71
142.9	92
143.0	95
143.1	79
143.2	54
143.3	29
143.4	11
143.5	3
146.3	3
146.4	4
146.5	7
146.6	11
146.7	16
146.8	22
146.9	25
147.0	23
147.1	16
147.2	7
188.4	3
188.5	5
188.6	8
188.7	14
188.8	18
188.9	18
189.0	14
189.1	8
201.0	5
201.1	8
201.2	12
201.3	14
201.4	12
201.5	8
202.5	3
202.6	6
202.7	10
202.8	17
202.9	24
203.0	28
203.1	25
203.2	15
203.3	8
288.9	4
289.0	8
289.1	11
289.2	10
289.3	7
422.8	5
422.9	10
423.0	16
423.1	21
423.2	22
423.3	19
423.4	14
423.5	8
423.6	4
