Mass spectrum: 20-Hydroxyecdysone 2,3:20,22-diacetonide; LC-ESI-QQQ; MS2; Frag=135.0V CID@25.0; [M+H]+
Name: 20-Hydroxyecdysone 2,3:20,22-diacetonide
Class: Steroids
Formula: C33H52O7
Exact mass: 560.7782
SMILES: CC(C)(O)CC[C@H]1OC(C)(C)O[C@]1(C)[C@H]1CC[C@@]2(O)C3=CC(=O)[C@@H]4C[C@H]5OC(C)(C)O[C@H]5C[C@]4(C)[C@H]3CC[C@]12C
InChI: InChI=1S/C33H52O7/c1-27(2,35)13-12-26-32(9,40-29(5,6)39-26)25-11-15-33(36)20-16-22(34)21-17-23-24(38-28(3,4)37-23)18-30(21,7)19(20)10-14-31(25,33)8/h16,19,21,23-26,35-36H,10-15,17-18H2,1-9H3/t19-,21-,23+,24-,25-,26+,30+,31+,32+,33+/m0/s1
Instrument: Agilent 6410 Triple Quadrupole LC/MS system
Instrument type: LC-ESI-QQQ
Ms type: MS2
Ion mode: POSITIVE
Precursor type: [M+H]+
m/z	relative intensity
68.6	2
68.7	3
68.8	6
68.9	10
69.0	11
69.1	10
69.2	8
69.3	5
69.4	3
80.4	3
80.5	4
80.6	5
80.7	7
80.8	10
80.9	12
81.0	11
81.1	8
81.2	6
81.3	4
81.4	2
96.2	2
96.3	3
96.4	5
96.5	6
96.6	9
96.7	16
96.8	25
96.9	31
97.0	33
97.1	34
97.2	34
97.3	31
97.4	23
97.5	12
97.6	3
98.2	1
98.3	4
98.4	6
98.5	7
98.6	8
98.7	11
98.8	21
98.9	29
99.0	31
99.1	24
99.2	15
99.3	8
99.4	4
99.5	2
106.4	0
106.5	2
106.6	4
106.7	8
106.8	12
106.9	14
107.0	14
107.1	13
107.2	11
107.3	7
107.4	2
108.5	1
108.6	3
108.7	5
108.8	6
108.9	7
109.0	7
109.1	7
109.2	6
109.3	3
122.8	2
122.9	5
123.0	9
123.1	13
123.2	15
123.3	12
123.4	7
123.5	2
124.5	1
124.6	5
124.7	13
124.8	23
124.9	33
125.0	36
125.1	32
125.2	24
125.3	17
125.4	10
125.5	4
126.5	2
126.6	4
126.7	8
126.8	14
126.9	18
127.0	18
127.1	16
127.2	12
127.3	7
127.4	4
132.8	1
132.9	2
133.0	5
133.1	8
133.2	10
133.3	8
133.4	4
134.5	1
134.6	2
134.7	5
134.8	9
134.9	12
135.0	12
135.1	11
135.2	8
135.3	5
135.4	2
136.7	2
136.8	3
136.9	5
137.0	6
137.1	6
137.2	6
137.3	4
137.4	2
142.9	3
143.0	5
143.1	6
143.2	7
143.3	6
143.4	4
144.8	3
144.9	4
145.0	6
145.1	7
145.2	6
145.3	4
146.7	2
146.8	4
146.9	8
147.0	14
147.1	18
147.2	16
147.3	10
147.4	4
148.4	1
148.5	3
148.6	6
148.7	9
148.8	12
148.9	14
149.0	13
149.1	9
149.2	4
152.9	2
153.0	4
153.1	6
153.2	7
153.3	6
153.4	3
158.6	1
158.7	2
158.8	6
158.9	10
159.0	13
159.1	13
159.2	8
159.3	3
162.4	1
162.5	3
162.6	5
162.7	8
162.8	8
162.9	7
163.0	4
164.1	1
164.2	3
164.3	4
164.4	5
164.5	5
164.6	8
164.7	18
164.8	37
164.9	60
165.0	79
165.1	89
165.2	90
165.3	84
165.4	67
165.5	42
165.6	16
165.7	2
170.7	1
170.8	2
170.9	4
171.0	6
171.1	6
171.2	5
171.3	2
172.4	2
172.5	3
172.6	5
172.7	10
172.8	18
172.9	29
173.0	36
173.1	35
173.2	27
173.3	17
173.4	10
173.5	5
173.6	1
174.5	2
174.6	4
174.7	6
174.8	8
174.9	9
175.0	7
176.5	2
176.6	3
176.7	5
176.8	8
176.9	11
177.0	14
177.1	14
177.2	10
177.3	4
178.6	0
178.7	2
178.8	6
178.9	9
179.0	11
179.1	9
179.2	5
179.3	2
188.7	2
188.8	4
188.9	5
189.0	7
189.1	8
189.2	8
189.3	5
189.4	2
190.6	2
190.7	4
190.8	6
190.9	9
191.0	11
191.1	12
191.2	11
191.3	9
191.4	6
191.5	3
194.7	1
194.8	3
194.9	7
195.0	11
195.1	13
195.2	12
195.3	8
195.4	4
195.5	2
204.7	1
204.8	2
204.9	5
205.0	8
205.1	9
205.2	6
205.3	3
212.6	1
212.7	2
212.8	4
212.9	7
213.0	8
213.1	7
213.2	5
213.3	3
214.5	0
214.6	2
214.7	6
214.8	12
214.9	18
215.0	20
215.1	18
215.2	14
215.3	10
215.4	6
215.5	3
216.7	2
216.8	4
216.9	6
217.0	7
217.1	6
217.2	5
217.3	3
222.7	1
222.8	2
222.9	4
223.0	5
223.1	4
223.2	2
224.8	3
224.9	5
225.0	7
225.1	9
225.2	8
225.3	5
225.4	1
228.7	1
228.8	3
228.9	4
229.0	5
229.1	4
229.2	3
230.6	1
230.7	3
230.8	7
230.9	13
231.0	17
231.1	17
231.2	13
231.3	7
231.4	3
232.5	2
232.6	4
232.7	6
232.8	7
232.9	7
233.0	7
233.1	8
233.2	8
233.3	8
233.4	6
233.5	3
242.6	0
242.7	2
242.8	4
242.9	7
243.0	8
243.1	7
243.2	4
254.7	1
254.8	3
254.9	7
255.0	10
255.1	11
255.2	9
255.3	6
255.4	3
260.9	2
261.0	4
261.1	5
261.2	6
261.3	5
261.4	2
264.5	2
264.6	3
264.7	6
264.8	11
264.9	14
265.0	15
265.1	14
265.2	14
265.3	12
265.4	8
265.5	4
266.8	2
266.9	3
267.0	4
267.1	6
267.2	9
267.3	11
267.4	9
267.5	5
267.6	1
282.5	2
282.6	4
282.7	9
282.8	15
282.9	21
283.0	25
283.1	25
283.2	22
283.3	16
283.4	8
283.5	3
284.6	1
284.7	3
284.8	6
284.9	11
285.0	14
285.1	16
285.2	15
285.3	12
285.4	9
285.5	5
285.6	1
288.7	3
288.8	4
288.9	5
289.0	7
289.1	8
289.2	7
289.3	6
289.4	4
289.5	2
292.8	1
292.9	3
293.0	6
293.1	8
293.2	8
293.3	5
293.4	3
294.6	1
294.7	2
294.8	5
294.9	8
295.0	11
295.1	12
295.2	11
295.3	9
295.4	8
295.5	6
295.6	3
302.7	1
302.8	3
302.9	6
303.0	8
303.1	8
303.2	6
303.3	3
310.5	0
310.6	2
310.7	4
310.8	9
310.9	15
311.0	21
311.1	27
311.2	31
311.3	32
311.4	26
311.5	14
311.6	4
312.7	2
312.8	4
312.9	7
313.0	14
313.1	21
313.2	26
313.3	23
313.4	16
313.5	7
313.6	1
326.9	2
327.0	4
327.1	6
327.2	6
327.3	4
328.6	1
328.7	4
328.8	6
328.9	9
329.0	9
329.1	9
329.2	8
329.3	7
329.4	5
329.5	2
334.7	2
334.8	4
334.9	7
335.0	9
335.1	11
335.2	11
335.3	8
335.4	5
335.5	1
340.8	1
340.9	4
341.0	8
341.1	13
341.2	15
341.3	14
341.4	11
341.5	7
341.6	3
344.7	1
344.8	3
344.9	5
345.0	5
345.1	4
345.2	3
352.6	1
352.7	4
352.8	10
352.9	19
353.0	27
353.1	30
353.2	28
353.3	21
353.4	13
353.5	5
353.6	0
356.8	1
356.9	2
357.0	5
357.1	7
357.2	7
357.3	5
357.4	2
358.9	2
359.0	5
359.1	10
359.2	17
359.3	21
359.4	18
359.5	10
359.6	2
369.0	2
369.1	3
369.2	5
369.3	5
369.4	5
369.5	3
370.8	2
370.9	4
371.0	6
371.1	7
371.2	6
371.3	4
386.8	2
386.9	3
387.0	5
387.1	7
387.2	7
387.3	6
387.4	4
390.7	1
390.8	4
390.9	12
391.0	19
391.1	24
391.2	23
391.3	19
391.4	14
391.5	8
391.6	3
402.6	1
402.7	2
402.8	5
402.9	7
403.0	7
403.1	6
408.2	1
408.3	2
408.4	5
408.5	8
408.6	8
408.7	7
408.8	12
408.9	24
409.0	38
409.1	49
409.2	56
409.3	61
409.4	57
409.5	42
409.6	20
409.7	4
410.3	2
410.4	3
410.5	4
410.6	5
410.7	5
410.8	5
410.9	6
411.0	9
411.1	15
411.2	22
411.3	26
411.4	23
411.5	14
411.6	5
426.3	2
426.4	3
426.5	5
426.6	6
426.7	8
426.8	11
426.9	16
427.0	26
427.1	40
427.2	54
427.3	63
427.4	64
427.5	53
427.6	32
427.7	10
427.8	0
428.9	1
429.0	3
429.1	5
429.2	5
429.3	3
448.9	2
449.0	4
449.1	6
449.2	6
449.3	5
449.4	3
466.2	1
466.3	2
466.4	4
466.5	6
466.6	6
466.7	7
466.8	8
466.9	10
467.0	10
467.1	10
467.2	14
467.3	20
467.4	24
467.5	19
467.6	9
467.7	1
484.3	1
484.4	4
484.5	7
484.6	10
484.7	15
484.8	27
484.9	48
485.0	72
485.1	91
485.2	99
485.3	99
485.4	96
485.5	85
485.6	60
485.7	27
485.8	3
542.9	2
543.0	3
543.1	6
543.2	8
543.3	7
543.4	5
543.5	3
