Mass spectrum: Papaveraldine; LC-ESI-QQQ; MS2; Frag=135.0V CID@10.0; [M+H]+
Name: Papaveraldine
Class: Alkaloids
Formula: C20H21NO5
Exact mass: 355.3941
SMILES: COc1ccc(C(=O)C2=NCCc3cc(OC)c(OC)cc32)cc1OC
InChI: InChI=1S/C20H21NO5/c1-23-15-6-5-13(10-16(15)24-2)20(22)19-14-11-18(26-4)17(25-3)9-12(14)7-8-21-19/h5-6,9-11H,7-8H2,1-4H3
Instrument: Agilent 6410 Triple Quadrupole LC/MS system
Instrument type: LC-ESI-QQQ
Ms type: MS2
Ion mode: POSITIVE
Precursor type: [M+H]+
m/z	relative intensity
189.6	1
189.7	3
189.8	5
189.9	7
190.0	8
190.1	9
190.2	9
190.3	7
190.4	6
190.5	3
355.3	1
355.4	3
355.5	6
355.6	10
355.7	18
355.8	33
355.9	54
356.0	76
356.1	92
356.2	99
356.3	95
356.4	79
356.5	51
356.6	22
356.7	2
