Mass spectrum: Icariin; LC-ESI-QQQ; MS2; Frag=135.0V CID@25.0; [M+HCOO]-
Name: Icariin
Class: Flavonoids
Formula: C33H40O15
Exact mass: 676.6778
SMILES: COc1ccc(-c2oc3c(CC=C(C)C)c(OC4OC(CO)C(O)C(O)C4O)cc(O)c3c(=O)c2OC2OC(C)C(O)C(O)C2O)cc1
InChI: InChI=1S/C33H40O15/c1-13(2)5-10-17-19(45-33-28(42)26(40)23(37)20(12-34)46-33)11-18(35)21-24(38)31(48-32-27(41)25(39)22(36)14(3)44-32)29(47-30(17)21)15-6-8-16(43-4)9-7-15/h5-9,11,14,20,22-23,25-28,32-37,39-42H,10,12H2,1-4H3
Instrument: Agilent 6410 Triple Quadrupole LC/MS system
Instrument type: LC-ESI-QQQ
Ms type: MS2
Ion mode: NEGATIVE
Precursor type: [M+HCOO]-
m/z	relative intensity
365.5	1
365.6	3
365.7	5
365.8	7
365.9	8
366.0	6
366.3	3
366.4	6
366.5	14
366.6	29
366.7	50
366.8	70
366.9	85
367.0	95
367.1	99
367.2	96
367.3	81
367.4	55
367.5	26
367.6	5
367.7	0
408.4	2
408.5	4
408.6	6
408.7	8
408.8	9
408.9	10
409.0	10
409.1	10
409.2	8
409.3	6
409.4	3
512.0	1
512.1	2
512.2	5
512.3	10
512.4	17
512.5	25
512.6	34
512.7	47
512.8	62
512.9	75
513.0	83
513.1	86
513.2	84
513.3	74
513.4	53
513.5	26
513.6	6
513.7	0
