Mass spectrum: 19,28-Epoxy-3-oleananol; LC-ESI-QQQ; MS2; Frag=135.0V CID@5.0; [M+H]+
Name: 19,28-Epoxy-3-oleananol
Class: Terpenoids
Formula: C30H50O2
Exact mass: 442.7318
SMILES: CC1(C)CCC23CC[C@]4(C)C(CCC5[C@@]6(C)CCC(O)C(C)(C)C6CC[C@]54C)C2C1OC3
InChI: InChI=1S/C30H50O2/c1-25(2)14-16-30-17-15-28(6)19(23(30)24(25)32-18-30)8-9-21-27(5)12-11-22(31)26(3,4)20(27)10-13-29(21,28)7/h19-24,31H,8-18H2,1-7H3/t19?,20?,21?,22?,23?,24?,27-,28+,29+,30?/m0/s1
Instrument: Agilent 6410 Triple Quadrupole LC/MS system
Instrument type: LC-ESI-QQQ
Ms type: MS2
Ion mode: POSITIVE
Precursor type: [M+H]+
m/z	relative intensity
176.5	1
176.6	3
176.7	6
176.8	10
176.9	13
177.0	11
177.1	6
177.2	1
217.0	1
217.1	4
217.2	7
217.3	9
217.4	8
217.5	5
394.7	1
394.8	3
394.9	6
395.0	9
395.1	10
395.2	8
395.3	4
424.8	2
424.9	5
425.0	9
425.1	14
425.2	16
425.3	15
425.4	12
425.5	7
425.6	4
442.7	1
442.8	3
442.9	14
443.0	38
443.1	72
443.2	97
443.3	98
443.4	74
443.5	40
443.6	14
443.7	1
