Mass spectrum: 17a-helveticoside; LC-ESI-QQQ; MS2;  Frag=135.0V CID@25.0 ; [M+HCOO]-
Name: 17a-helveticoside
Class: Steroids
Formula: C29H42O9
Exact mass: 534.65269
SMILES: CC1OC(OC2CC[C@]3(C=O)[C@H]4CC[C@]5(C)[C@H](C6=CC(=O)OC6)CCC5(O)C4CCC3(O)C2)CC(O)C1O
InChI: InChI=1S/C29H42O9/c1-16-25(33)22(31)12-24(37-16)38-18-3-8-27(15-30)20-4-7-26(2)19(17-11-23(32)36-14-17)6-10-29(26,35)21(20)5-9-28(27,34)13-18/h11,15-16,18-22,24-25,31,33-35H,3-10,12-14H2,1-2H3/t16?,18?,19-,20-,21?,22?,24?,25?,26+,27-,28?,29?/m0/s1
Instrument: Agilent 6410 Triple Quadrupole LC/MS system
Instrument type: LC-ESI-QQQ
Ms type: MS2
Ion mode: NEGATIVE
Precursor type: [M+HCOO]-
m/z	relative intensity
384.3	1
384.4	3
384.5	7
384.6	20
384.7	44
384.8	74
384.9	95
385.0	96
385.1	74
385.2	39
385.3	12
385.4	2
