Mass spectrum: 7-O-acetyldaphnoretin; LC-ESI-QQQ; MS2; Frag=135.0V CID@5.0; [M+H]+
Name: 7-O-acetyldaphnoretin
Class: Benzopyranoids
Formula: C21H14O8
Exact mass: 394.3409
SMILES: COc1cc2cc(Oc3ccc4ccc(=O)oc4c3)c(=O)oc2cc1OC(C)=O
InChI: InChI=1S/C21H14O8/c1-11(22)26-18-10-16-13(7-17(18)25-2)8-19(21(24)29-16)27-14-5-3-12-4-6-20(23)28-15(12)9-14/h3-10H,1-2H3
Instrument: Agilent 6410 Triple Quadrupole LC/MS system
Instrument type: LC-ESI-QQQ
Ms type: MS2
Ion mode: POSITIVE
Precursor type: [M+H]+
m/z	relative intensity
352.4	1
352.5	3
352.6	6
352.7	11
352.8	18
352.9	25
353.0	30
353.1	33
353.2	34
353.3	31
353.4	23
353.5	12
353.6	2
394.2	1
394.3	2
394.4	5
394.5	11
394.6	20
394.7	34
394.8	53
394.9	74
395.0	91
395.1	99
395.2	95
395.3	77
395.4	50
395.5	21
395.6	2
