Mass spectrum: Progesterone; LC-ESI-QQQ; MS2; Frag=135.0V CID@25.0; [M+H]+
Name: Progesterone
Class: Steroids
Formula: C21H30O2
Exact mass: 314.4721
SMILES: CC(=O)C1CCC2C3CCC4=CC(=O)CC[C@]4(C)C3CC[C@]12C
InChI: InChI=1S/C21H30O2/c1-13(22)17-6-7-18-16-5-4-14-12-15(23)8-10-20(14,2)19(16)9-11-21(17,18)3/h12,16-19H,4-11H2,1-3H3/t16?,17?,18?,19?,20-,21+/m0/s1
Instrument: Agilent 6410 Triple Quadrupole LC/MS system
Instrument type: LC-ESI-QQQ
Ms type: MS2
Ion mode: POSITIVE
Precursor type: [M+H]+
m/z	relative intensity
80.8	2
80.9	4
81.0	5
81.1	6
81.2	6
81.3	5
81.4	4
81.5	2
96.2	0
96.3	2
96.4	5
96.5	10
96.6	19
96.7	34
96.8	56
96.9	78
97.0	94
97.1	99
97.2	95
97.3	81
97.4	58
97.5	32
97.6	10
97.7	0
108.3	1
108.4	4
108.5	8
108.6	16
108.7	29
108.8	49
108.9	72
109.0	90
109.1	96
109.2	90
109.3	77
109.4	57
109.5	32
109.6	11
109.7	0
122.7	2
122.8	4
122.9	5
123.0	7
123.1	8
123.2	9
123.3	8
123.4	6
123.5	3
