Mass spectrum: Emamectin; LC-ESI-QQQ; MS2; Frag=135.0V CID@10.0; [M+H]+
Name: Emamectin
Class: Polyketides
Formula: C49H75NO13
Exact mass: 886.143
SMILES: CC[C@H](C)[C@H]1O[C@]2(C=C[C@@H]1C)C[C@@H]1C[C@@H](C/C=C(\C)[C@@H](O[C@H]3C[C@H](OC)[C@@H](O[C@H]4C[C@H](OC)[C@H](NC)[C@H](C)O4)[C@H](C)O3)[C@@H](C)/C=C/C=C3\CO[C@@H]4[C@H](O)C(C)=C[C@@H](C(=O)O1)[C@]34O)O2
InChI: InChI=1S/C49H75NO13/c1-12-26(2)44-29(5)18-19-48(63-44)24-35-21-34(62-48)17-16-28(4)43(27(3)14-13-15-33-25-56-46-42(51)30(6)20-36(47(52)59-35)49(33,46)53)60-40-23-38(55-11)45(32(8)58-40)61-39-22-37(54-10)41(50-9)31(7)57-39/h13-16,18-20,26-27,29,31-32,34-46,50-51,53H,12,17,21-25H2,1-11H3/b14-13+,28-16+,33-15+/t26-,27-,29-,31-,32-,34+,35-,36-,37-,38-,39-,40-,41+,42+,43-,44+,45-,46+,48+,49+/m0/s1
Instrument: Agilent 6410 Triple Quadrupole LC/MS system
Instrument type: LC-ESI-QQQ
Ms type: MS2
Ion mode: POSITIVE
Precursor type: [M+H]+
m/z	relative intensity
157.5	2
157.6	3
157.7	4
157.8	5
157.9	6
158.0	6
158.1	6
158.2	4
158.3	2
885.2	1
885.3	2
885.4	4
885.5	8
885.6	14
885.7	21
885.8	32
885.9	47
886.0	65
886.1	83
886.2	96
886.3	99
886.4	94
886.5	82
886.6	64
886.7	43
886.8	21
886.9	5
887.0	0
