Mass spectrum: Foliosidine; LC-ESI-QQQ; MS2; Frag=135.0V CID@5.0; [M+H]+
Name: Foliosidine
Class: Alkaloids
Formula: C16H21NO5
Exact mass: 307.3495
SMILES: COc1cc(=O)n(C)c2c(OCC(O)C(C)(C)O)cccc12
InChI: InChI=1S/C16H21NO5/c1-16(2,20)13(18)9-22-11-7-5-6-10-12(21-4)8-14(19)17(3)15(10)11/h5-8,13,18,20H,9H2,1-4H3
Instrument: Agilent 6410 Triple Quadrupole LC/MS system
Instrument type: LC-ESI-QQQ
Ms type: MS2
Ion mode: POSITIVE
Precursor type: [M+H]+
m/z	relative intensity
289.7	1
289.8	3
289.9	4
290.0	6
290.1	7
290.2	8
290.3	7
290.4	6
290.5	4
307.3	1
307.4	3
307.5	6
307.6	11
307.7	19
307.8	34
307.9	57
308.0	79
308.1	94
308.2	99
308.3	94
308.4	78
308.5	52
308.6	23
308.7	3
