Mass spectrum: Ribalinine; LC-ESI-QQQ; MS2; Frag=135.0V CID@10.0; [M+H]+
Name: Ribalinine
Class: Alkaloids
Formula: C15H17NO3
Exact mass: 259.3076
SMILES: Cn1c2c(c(=O)c3ccccc31)C[C@@H](O)C(C)(C)O2
InChI: InChI=1S/C15H17NO3/c1-15(2)12(17)8-10-13(18)9-6-4-5-7-11(9)16(3)14(10)19-15/h4-7,12,17H,8H2,1-3H3/t12-/m1/s1
Instrument: Agilent 6410 Triple Quadrupole LC/MS system
Instrument type: LC-ESI-QQQ
Ms type: MS2
Ion mode: POSITIVE
Precursor type: [M+H]+
m/z	relative intensity
187.4	1
187.5	2
187.6	4
187.7	8
187.8	14
187.9	21
188.0	28
188.1	32
188.2	32
188.3	28
188.4	21
188.5	11
188.6	3
241.3	0
241.4	1
241.5	4
241.6	8
241.7	15
241.8	27
241.9	43
242.0	59
242.1	70
242.2	74
242.3	67
242.4	52
242.5	31
242.6	12
242.7	0
259.3	0
259.4	2
259.5	5
259.6	10
259.7	19
259.8	33
259.9	54
260.0	76
260.1	94
260.2	99
260.3	92
260.4	73
260.5	46
260.6	19
260.7	2
