Mass spectrum: (+)-beta-Hydrastine; LC-ESI-QQQ; MS2; Frag=135.0V CID@25.0; [M+H]+
Name: (+)-beta-Hydrastine
Class: Alkaloids
Formula: C21H21NO6
Exact mass: 383.4046
SMILES: COc1ccc2c(c1OC)C(=O)O[C@H]2[C@@H]1c2cc3c(cc2CCN1C)OCO3
InChI: InChI=1S/C21H21NO6/c1-22-7-6-11-8-15-16(27-10-26-15)9-13(11)18(22)19-12-4-5-14(24-2)20(25-3)17(12)21(23)28-19/h4-5,8-9,18-19H,6-7,10H2,1-3H3/t18-,19+/m0/s1
Instrument: Agilent 6410 Triple Quadrupole LC/MS system
Instrument type: LC-ESI-QQQ
Ms type: MS2
Ion mode: POSITIVE
Precursor type: [M+H]+
m/z	relative intensity
148.7	2
148.8	3
148.9	5
149.0	6
149.1	6
149.2	6
149.3	5
149.4	4
149.5	2
175.8	3
175.9	4
176.0	6
176.1	6
176.2	6
176.3	5
176.4	4
176.5	2
189.3	5
189.4	6
189.5	9
189.6	15
189.7	28
189.8	47
189.9	68
190.0	85
190.1	94
190.2	93
190.3	82
190.4	61
190.5	33
190.6	10
190.7	0
264.6	1
264.7	2
264.8	5
264.9	7
265.0	9
265.1	10
265.2	10
265.3	9
265.4	7
265.5	4
291.7	2
291.8	4
291.9	6
292.0	7
292.1	8
292.2	9
292.3	8
292.4	7
292.5	7
292.6	8
292.7	13
292.8	22
292.9	32
293.0	41
293.1	45
293.2	44
293.3	38
293.4	27
293.5	14
293.6	4
294.7	4
294.8	6
294.9	10
295.0	13
295.1	14
295.2	14
295.3	13
295.4	10
295.5	6
295.6	2
307.8	2
307.9	4
308.0	5
308.1	5
308.2	5
308.3	5
308.4	3
319.7	2
319.8	3
319.9	5
320.0	7
320.1	8
320.2	8
320.3	6
320.4	4
320.5	1
322.3	6
322.4	8
322.5	10
322.6	15
322.7	24
322.8	42
322.9	65
323.0	86
323.1	99
323.2	99
323.3	86
323.4	61
323.5	30
323.6	6
323.7	0
334.6	2
334.7	3
334.8	6
334.9	8
335.0	10
335.1	11
335.2	12
335.3	10
335.4	7
335.5	4
