Mass spectrum: (S)-Luteanine; LC-ESI-QQQ; MS2; Frag=135.0V CID@10.0; [M+H]+
Name: Artabotrine
Name: Artabotrin
Name: Luteanine
Name: Luteanin
Name: Uzokoridin
Name: (S)-Luteanine
Class: Alkaloids
Formula: C20H23NO4
Exact mass: 341.4106
SMILES: COc1ccc2c(c1O)-c1c(OC)c(OC)cc3c1[C@H](C2)N(C)CC3
InChI: InChI=1S/C20H23NO4/c1-21-8-7-12-10-15(24-3)20(25-4)18-16(12)13(21)9-11-5-6-14(23-2)19(22)17(11)18/h5-6,10,13,22H,7-9H2,1-4H3/t13-/m0/s1
Instrument: Agilent 6410 Triple Quadrupole LC/MS system
Instrument type: LC-ESI-QQQ
Ms type: MS2
Ion mode: POSITIVE
Precursor type: [M+H]+
m/z	relative intensity
278.4	1
278.5	3
278.6	6
278.7	11
278.8	20
278.9	32
279.0	42
279.1	47
279.2	46
279.3	38
279.4	26
279.5	13
279.6	4
295.7	2
295.8	3
295.9	5
296.0	6
296.1	7
296.2	7
296.3	6
296.4	4
296.5	2
310.4	2
310.5	3
310.6	5
310.7	9
310.8	16
310.9	26
311.0	35
311.1	41
311.2	41
311.3	35
311.4	24
311.5	12
311.6	3
341.3	1
341.4	3
341.5	6
341.6	10
341.7	16
341.8	29
341.9	50
342.0	74
342.1	92
342.2	99
342.3	94
342.4	76
342.5	50
342.6	22
342.7	3
