Mass spectrum: Yuccagenin; LC-ESI-QQQ; MS2; Frag=135.0V CID@5.0; [M+H]+
Name: Yuccagenin
Class: Steroids
Formula: C27H42O4
Exact mass: 430.6334
SMILES: CC1CC[C@@]2(OC1)OC1CC3C4CC=C5CC(O)[C@H](O)C[C@]5(C)C4CC[C@]3(C)C1[C@@H]2C
InChI: InChI=1S/C27H42O4/c1-15-7-10-27(30-14-15)16(2)24-23(31-27)12-20-18-6-5-17-11-21(28)22(29)13-26(17,4)19(18)8-9-25(20,24)3/h5,15-16,18-24,28-29H,6-14H2,1-4H3/t15?,16-,18?,19?,20?,21?,22+,23?,24?,25-,26-,27+/m0/s1
Instrument: Agilent 6410 Triple Quadrupole LC/MS system
Instrument type: LC-ESI-QQQ
Ms type: MS2
Ion mode: POSITIVE
Precursor type: [M+H]+
m/z	relative intensity
286.5	1
286.6	2
286.7	4
286.8	6
286.9	10
287.0	15
287.1	20
287.2	23
287.3	23
287.4	18
287.5	10
287.6	4
430.4	1
430.5	2
430.6	5
430.7	9
430.8	16
430.9	29
431.0	49
431.1	73
431.2	91
431.3	99
431.4	97
431.5	84
431.6	60
431.7	31
431.8	7
431.9	0
