Mass spectrum: Veratroylzygadenine; LC-ESI-QQQ; MS2;  Frag=135.0V CID@15.0 ; [M+HCOO]-
Name: Veratroylzygadenine
Class: Alkaloids
Formula: C36H51NO10
Exact mass: 657.80857
SMILES: COc1ccc(C(=O)OC2CCC3(C)C4CCC5[C@]6(O)[C@@H](O)C(O)[C@H]7C(CN8CC(C)CC[C@H]8[C@@]7(C)O)[C@@H]6C[C@@]53O[C@]24O)cc1OC
InChI: InChI=1S/C36H51NO10/c1-18-6-11-26-33(3,41)28-20(17-37(26)16-18)21-15-34-25(35(21,42)30(39)29(28)38)10-9-24-32(34,2)13-12-27(36(24,43)47-34)46-31(40)19-7-8-22(44-4)23(14-19)45-5/h7-8,14,18,20-21,24-30,38-39,41-43H,6,9-13,15-17H2,1-5H3/t18?,20?,21-,24?,25?,26-,27?,28+,29?,30-,32?,33+,34+,35-,36-/m0/s1
Instrument: Agilent 6410 Triple Quadrupole LC/MS system
Instrument type: LC-ESI-QQQ
Ms type: MS2
Ion mode: NEGATIVE
Precursor type: [M+HCOO]-
m/z	relative intensity
180.2	2
180.3	4
180.4	8
180.5	17
180.6	30
180.7	47
180.8	65
180.9	84
181.0	98
181.1	99
181.2	82
181.3	50
181.4	20
181.5	5
181.6	0
