Mass spectrum: Oxymatrine; LC-ESI-QQQ; MS2; Frag=135.0V CID@10.0; [M+H]+
Name: Oxymatrine
Class: Alkaloids
Formula: C15H24N2O2
Exact mass: 264.3707
SMILES: O=C1CCC[C@@H]2[C@H]3CCC[N+]4([O-])CCC[C@@H](CN12)[C@@H]34
InChI: InChI=1S/C15H24N2O2/c18-14-7-1-6-13-12-5-3-9-17(19)8-2-4-11(15(12)17)10-16(13)14/h11-13,15H,1-10H2/t11-,12+,13+,15-,17?/m0/s1
Instrument: Agilent 6410 Triple Quadrupole LC/MS system
Instrument type: LC-ESI-QQQ
Ms type: MS2
Ion mode: POSITIVE
Precursor type: [M+H]+
m/z	relative intensity
264.3	0
264.4	1
264.5	5
264.6	11
264.7	22
264.8	37
264.9	57
265.0	76
265.1	92
265.2	99
265.3	98
265.4	88
265.5	67
265.6	38
265.7	12
265.8	0
