Mass spectrum: Cycloheximide; LC-ESI-QQQ; MS2; Frag=135.0V CID@25.0; [M+H]+
Name: Cycloheximide
Class: Alkaloids
Formula: C15H23NO4
Exact mass: 281.3549
SMILES: CC1C[C@H](C)C(=O)[C@H]([C@H](O)CC2CC(=O)N=C(O)C2)C1
InChI: InChI=1S/C15H23NO4/c1-8-3-9(2)15(20)11(4-8)12(17)5-10-6-13(18)16-14(19)7-10/h8-12,17H,3-7H2,1-2H3,(H,16,18,19)/t8?,9-,11-,12+/m0/s1
Instrument: Agilent 6410 Triple Quadrupole LC/MS system
Instrument type: LC-ESI-QQQ
Ms type: MS2
Ion mode: POSITIVE
Precursor type: [M+H]+
m/z	relative intensity
54.5	2
54.6	4
54.7	6
54.8	8
54.9	10
55.0	11
55.1	11
55.2	9
55.3	7
55.4	4
66.6	2
66.7	3
66.8	5
66.9	6
67.0	7
67.1	7
67.2	7
67.3	6
67.4	4
67.5	2
68.5	2
68.6	3
68.7	5
68.8	9
68.9	14
69.0	17
69.1	17
69.2	15
69.3	12
69.4	8
69.5	3
78.5	2
78.6	3
78.7	6
78.8	9
78.9	12
79.0	14
79.1	15
79.2	14
79.3	11
79.4	7
79.5	3
80.5	3
80.6	3
80.7	6
80.8	10
80.9	15
81.0	18
81.1	18
81.2	17
81.3	14
81.4	9
81.5	4
82.8	3
82.9	4
83.0	6
83.1	8
83.2	8
83.3	8
83.4	5
83.5	2
90.6	2
90.7	4
90.8	7
90.9	11
91.0	13
91.1	13
91.2	10
91.3	7
91.4	4
92.4	1
92.5	2
92.6	5
92.7	9
92.8	13
92.9	16
93.0	17
93.1	17
93.2	17
93.3	15
93.4	12
93.5	6
93.6	1
94.4	3
94.5	6
94.6	10
94.7	17
94.8	23
94.9	29
95.0	35
95.1	40
95.2	42
95.3	39
95.4	29
95.5	17
95.6	7
96.7	3
96.8	5
96.9	6
97.0	8
97.1	9
97.2	9
97.3	7
97.4	5
97.5	2
104.6	2
104.7	5
104.8	10
104.9	16
105.0	20
105.1	22
105.2	20
105.3	16
105.4	10
105.5	4
106.2	1
106.3	3
106.4	5
106.5	8
106.6	12
106.7	21
106.8	36
106.9	53
107.0	68
107.1	74
107.2	72
107.3	62
107.4	46
107.5	26
107.6	9
107.7	0
108.7	3
108.8	5
108.9	7
109.0	9
109.1	10
109.2	10
109.3	10
109.4	8
109.5	5
111.7	1
111.8	3
111.9	5
112.0	6
112.1	6
112.2	5
112.3	4
112.4	3
116.5	0
116.6	2
116.7	6
116.8	11
116.9	16
117.0	18
117.1	18
117.2	15
117.3	12
117.4	7
117.5	3
118.5	2
118.6	3
118.7	8
118.8	15
118.9	23
119.0	30
119.1	33
119.2	32
119.3	27
119.4	20
119.5	12
119.6	4
120.2	2
120.3	3
120.4	6
120.5	8
120.6	13
120.7	22
120.8	35
120.9	47
121.0	55
121.1	58
121.2	56
121.3	48
121.4	32
121.5	15
121.6	2
122.4	3
122.5	5
122.6	8
122.7	14
122.8	21
122.9	28
123.0	33
123.1	34
123.2	32
123.3	28
123.4	20
123.5	11
123.6	4
124.5	5
124.6	5
124.7	8
124.8	13
124.9	18
125.0	21
125.1	22
125.2	21
125.3	21
125.4	18
125.5	12
125.6	5
128.6	2
128.7	3
128.8	5
128.9	7
129.0	7
129.1	7
129.2	6
129.3	5
129.4	4
130.4	2
130.5	3
130.6	6
130.7	9
130.8	13
130.9	17
131.0	20
131.1	22
131.2	23
131.3	22
131.4	16
131.5	8
131.6	2
132.4	1
132.5	3
132.6	4
132.7	6
132.8	10
132.9	14
133.0	16
133.1	17
133.2	16
133.3	13
133.4	9
133.5	4
134.6	1
134.7	3
134.8	7
134.9	12
135.0	16
135.1	18
135.2	18
135.3	15
135.4	9
135.5	3
137.6	2
137.7	5
137.8	10
137.9	16
138.0	21
138.1	22
138.2	18
138.3	12
138.4	6
138.5	2
140.8	3
140.9	5
141.0	6
141.1	7
141.2	7
141.3	5
141.7	2
141.8	4
141.9	6
142.0	8
142.1	9
142.2	9
142.3	8
142.4	7
142.5	6
142.6	6
142.7	10
142.8	20
142.9	30
143.0	38
143.1	41
143.2	40
143.3	34
143.4	24
143.5	12
143.6	3
144.6	6
144.7	9
144.8	14
144.9	21
145.0	28
145.1	32
145.2	32
145.3	28
145.4	21
145.5	12
145.6	5
145.7	1
146.6	3
146.7	4
146.8	7
146.9	10
147.0	12
147.1	13
147.2	11
147.3	9
147.4	6
147.5	2
148.6	2
148.7	3
148.8	7
148.9	11
149.0	14
149.1	16
149.2	15
149.3	12
149.4	6
152.7	2
152.8	4
152.9	6
153.0	7
153.1	6
153.2	5
153.3	3
154.6	2
154.7	4
154.8	6
154.9	6
155.0	6
155.1	6
155.2	5
155.3	5
155.4	4
155.5	2
156.3	2
156.4	3
156.5	5
156.6	8
156.7	14
156.8	24
156.9	35
157.0	44
157.1	49
157.2	48
157.3	40
157.4	29
157.5	16
157.6	5
158.2	4
158.3	5
158.4	9
158.5	12
158.6	17
158.7	28
158.8	49
158.9	75
159.0	94
159.1	99
159.2	95
159.3	89
159.4	76
159.5	51
159.6	22
159.7	1
160.6	1
160.7	4
160.8	8
160.9	14
161.0	18
161.1	21
161.2	21
161.3	17
161.4	11
161.5	5
162.6	2
162.7	5
162.8	9
162.9	13
163.0	15
163.1	15
163.2	16
163.3	17
163.4	16
163.5	10
163.6	4
167.6	2
167.7	4
167.8	6
167.9	8
168.0	9
168.1	9
168.2	8
168.6	6
168.7	9
168.8	14
168.9	20
169.0	26
169.1	29
169.2	29
169.3	28
169.4	23
169.5	15
169.6	7
171.8	1
171.9	2
172.0	4
172.1	5
172.2	5
172.3	5
172.4	6
172.5	7
172.6	8
172.7	11
172.8	19
172.9	31
173.0	43
173.1	49
173.2	48
173.3	43
173.4	34
173.5	21
173.6	8
173.7	0
174.8	3
174.9	5
175.0	6
175.1	8
175.2	9
175.3	9
175.4	8
175.5	5
176.5	4
176.6	5
176.7	8
176.8	14
176.9	21
177.0	29
177.1	36
177.2	40
177.3	40
177.4	33
177.5	20
177.6	7
182.4	2
182.5	3
182.6	5
182.7	10
182.8	18
182.9	28
183.0	34
183.1	37
183.2	36
183.3	34
183.4	28
183.5	17
183.6	6
183.7	0
184.5	3
184.6	5
184.7	9
184.8	14
184.9	18
185.0	21
185.1	22
185.2	23
185.3	23
185.4	20
185.5	14
185.6	6
185.9	2
186.0	4
186.1	6
186.2	7
186.3	8
186.4	9
186.5	9
186.6	10
186.7	16
186.8	30
186.9	49
187.0	63
187.1	68
187.2	65
187.3	56
187.4	43
187.5	25
187.6	8
187.7	0
190.8	2
190.9	4
191.0	6
191.1	7
191.2	6
191.3	5
191.4	4
200.6	4
200.7	8
200.8	15
200.9	26
201.0	38
201.1	44
201.2	45
201.3	41
201.4	33
201.5	21
201.6	8
201.7	0
202.7	1
202.8	3
202.9	4
203.0	5
203.1	5
203.2	4
203.3	3
203.8	1
203.9	3
204.0	5
204.1	5
204.2	4
204.3	3
204.4	3
204.5	3
204.6	3
204.7	5
204.8	9
204.9	16
205.0	22
205.1	25
205.2	26
205.3	22
205.4	16
205.5	8
205.6	2
210.7	1
210.8	2
210.9	5
211.0	6
211.1	7
211.2	8
211.3	7
211.4	5
211.5	3
218.8	4
218.9	6
219.0	8
219.1	10
219.2	11
219.3	11
219.4	9
219.5	5
219.6	2
228.6	1
228.7	2
228.8	8
228.9	17
229.0	25
229.1	29
229.2	28
229.3	25
229.4	19
229.5	11
229.6	4
245.5	0
245.6	2
245.7	5
245.8	9
245.9	11
246.0	13
246.1	14
246.2	14
246.3	13
246.4	11
246.7	6
246.8	9
246.9	13
247.0	16
247.1	18
247.2	19
247.3	18
247.4	14
247.5	8
247.6	3
