Mass spectrum: Hinokitiol; LC-ESI-QQQ; MS2; Frag=135.0V CID@10.0; [M+H]+
Name: beta-Thujaplicin
Name: beta.-Thujaplicine
Name: 2-Hydroxy-4-isopropyl-2,4,6-cycloheptatrien-1-one
Name: 4-Isopropyltropolon
Name: Hinokitiol
Class: Terpenoids
Formula: C10H12O2
Exact mass: 164.2059
SMILES: CC(C)c1cccc(O)c(=O)c1
InChI: InChI=1S/C10H12O2/c1-7(2)8-4-3-5-9(11)10(12)6-8/h3-7H,1-2H3,(H,11,12)
Instrument: Agilent 6410 Triple Quadrupole LC/MS system
Instrument type: LC-ESI-QQQ
Ms type: MS2
Ion mode: POSITIVE
Precursor type: [M+H]+
m/z	relative intensity
164.2	0
164.3	2
164.4	5
164.5	8
164.6	13
164.7	23
164.8	43
164.9	69
165.0	90
165.1	99
165.2	98
165.3	89
165.4	71
165.5	46
165.6	19
165.7	1
