Mass spectrum: Poststerone; LC-ESI-QQQ; MS2;  Frag=135.0V CID@25.0 ; [M+HCOO]-
Name: Poststerone
Class: Steroids
Formula: C21H30O5
Exact mass: 362.47025
SMILES: CC(=O)C1CC[C@@]2(O)C3=CC(=O)C4CC(O)C(O)C[C@]4(C)C3CC[C@]12C
InChI: InChI=1S/C21H30O5/c1-11(22)12-5-7-21(26)14-8-16(23)15-9-17(24)18(25)10-19(15,2)13(14)4-6-20(12,21)3/h8,12-13,15,17-18,24-26H,4-7,9-10H2,1-3H3/t12?,13?,15?,17?,18?,19-,20-,21-/m1/s1
Instrument: Agilent 6410 Triple Quadrupole LC/MS system
Instrument type: LC-ESI-QQQ
Ms type: MS2
Ion mode: NEGATIVE
Precursor type: [M+HCOO]-
m/z	relative intensity
226.9	3
227.0	10
227.1	19
227.2	22
227.3	17
227.4	8
272.6	3
272.7	4
272.8	13
272.9	33
273.0	60
273.1	75
273.2	66
273.3	40
273.4	15
273.5	2
273.7	2
273.8	4
273.9	5
274.0	6
274.1	5
274.2	4
274.3	4
274.4	4
274.5	5
274.6	6
274.7	5
274.8	4
274.9	4
275.0	4
275.1	4
275.2	5
275.3	5
275.4	5
275.5	4
275.6	4
275.7	5
275.8	6
275.9	6
276.0	5
276.1	4
276.2	4
276.3	4
276.4	5
276.5	6
276.6	5
276.7	4
276.8	4
276.9	4
277.0	5
277.1	6
277.2	6
277.3	5
277.4	4
277.5	3
277.6	4
277.7	5
277.8	5
277.9	5
278.0	4
278.1	3
278.2	4
278.3	5
278.4	6
278.5	6
278.6	5
278.7	4
278.8	4
278.9	4
279.0	5
279.1	6
279.2	5
279.3	4
279.4	4
279.5	4
279.6	4
279.7	5
279.8	6
279.9	5
280.0	5
280.1	4
280.2	5
280.3	5
280.4	5
280.5	5
280.6	4
280.7	4
280.8	4
280.9	5
281.0	6
281.1	5
281.2	5
281.3	4
281.4	4
281.5	5
281.6	6
281.7	6
281.8	5
281.9	4
282.0	4
282.1	4
282.2	5
282.3	5
282.4	5
282.5	4
282.6	4
282.7	4
282.8	5
282.9	5
283.0	5
283.1	4
283.2	4
283.3	4
283.4	5
283.5	6
283.6	6
283.7	5
283.8	4
283.9	4
284.0	4
284.1	5
284.2	5
284.3	4
284.4	4
284.5	5
284.6	6
284.7	6
284.8	6
284.9	6
285.0	5
285.1	4
285.2	4
285.3	5
285.4	5
285.5	6
285.6	5
285.7	4
285.8	4
285.9	4
286.0	5
286.1	5
286.2	5
286.3	4
286.4	4
286.5	4
286.6	5
286.7	6
286.8	6
286.9	5
287.0	4
287.1	4
287.2	5
287.3	6
287.4	6
287.5	6
287.6	5
287.7	4
287.8	4
287.9	5
288.0	6
288.1	6
288.2	5
288.3	4
288.4	4
288.5	5
288.6	6
288.7	6
288.8	5
288.9	4
289.0	3
289.1	3
289.2	5
289.3	6
289.4	6
289.5	5
289.6	4
289.7	3
289.8	4
289.9	5
290.0	6
290.1	6
290.2	5
290.3	4
290.4	4
290.5	5
290.6	6
290.7	5
290.8	4
290.9	4
291.0	4
291.1	5
291.2	5
291.3	5
291.4	4
291.5	4
291.6	4
291.7	5
291.8	6
291.9	6
292.0	5
292.1	4
292.2	4
292.3	4
292.4	5
292.5	6
292.6	5
292.7	4
292.8	4
292.9	4
293.0	5
293.1	6
293.2	6
293.3	5
293.4	4
293.5	4
293.6	5
293.7	6
293.8	6
293.9	6
294.0	5
294.1	4
294.2	4
294.3	5
294.4	5
294.5	6
294.6	5
294.7	4
294.8	4
294.9	5
295.0	5
295.1	6
295.2	5
295.3	4
295.4	4
295.5	4
295.6	5
295.7	6
295.8	6
295.9	5
296.0	4
296.1	4
296.2	4
296.3	5
296.4	6
296.5	5
296.6	4
296.7	4
296.8	5
296.9	6
297.0	6
297.1	5
297.2	4
297.3	4
297.4	4
297.5	5
297.6	5
297.7	5
297.8	5
297.9	4
298.0	4
298.1	4
298.2	5
298.3	6
298.4	5
298.5	4
298.6	4
298.7	4
298.8	5
298.9	6
299.0	5
299.1	4
299.2	4
299.3	4
299.4	5
299.5	6
299.6	6
299.7	5
299.8	4
299.9	4
300.0	5
300.1	6
300.2	6
300.3	5
300.4	4
300.5	3
300.6	4
300.7	5
300.8	7
300.9	7
301.0	6
301.1	5
301.2	4
301.3	5
301.4	6
301.5	6
301.6	5
301.7	4
301.8	4
301.9	4
302.0	5
302.1	6
302.2	5
302.3	5
302.4	4
302.5	4
302.6	5
302.7	6
302.8	6
302.9	5
303.0	4
303.1	4
303.2	5
303.3	6
303.4	6
303.5	5
303.6	4
303.7	4
303.8	4
303.9	5
304.0	6
304.1	6
304.2	5
304.3	5
304.4	4
304.5	5
304.6	5
304.7	5
304.8	4
304.9	4
305.0	4
305.1	4
305.2	5
305.3	5
305.4	5
305.5	5
305.6	4
305.7	4
305.8	5
305.9	5
306.0	5
306.1	4
306.2	3
306.3	4
306.4	5
306.5	6
306.6	6
306.7	5
306.8	4
306.9	3
307.0	4
307.1	5
307.2	5
307.3	5
307.4	4
307.5	4
307.6	4
307.7	6
307.8	6
307.9	6
308.0	5
308.1	4
308.2	4
308.3	5
308.4	5
308.5	5
308.6	5
308.7	4
308.8	5
308.9	5
309.0	6
309.1	6
309.2	6
309.3	5
309.4	4
309.5	4
309.6	4
309.7	5
309.8	6
309.9	6
310.0	5
310.1	4
310.2	4
310.3	5
310.4	6
310.5	6
310.6	5
310.7	4
310.8	4
310.9	5
311.0	6
311.1	6
311.2	5
311.3	4
311.4	3
311.5	4
311.6	5
311.7	6
311.8	5
311.9	5
312.0	4
312.1	4
312.2	5
312.3	6
312.4	6
312.5	5
312.6	4
312.7	4
312.8	5
312.9	6
313.0	6
313.1	5
313.2	4
313.3	3
313.4	4
313.5	5
313.6	6
313.7	6
313.8	5
313.9	4
314.0	4
314.1	5
314.2	5
314.3	6
314.4	5
314.5	4
314.6	4
314.7	4
314.8	5
314.9	6
315.0	6
315.1	5
315.2	4
315.3	4
315.4	5
315.5	7
315.6	7
315.7	7
315.8	6
315.9	5
316.0	5
316.1	5
316.2	5
316.3	4
316.4	3
316.5	2
316.6	3
316.7	4
316.8	5
316.9	5
317.0	5
317.1	4
317.2	4
317.3	5
317.4	5
317.5	5
317.6	5
317.7	4
317.8	3
317.9	4
318.0	5
318.1	5
318.2	5
318.3	4
318.4	4
318.5	4
318.6	5
318.7	5
318.8	6
318.9	5
319.0	4
319.1	4
319.2	4
319.3	5
319.4	6
319.5	6
319.6	5
319.7	4
319.8	4
319.9	5
320.0	6
320.1	6
320.2	5
320.3	4
320.4	4
320.5	5
320.6	6
320.7	6
320.8	5
320.9	4
321.0	3
321.1	3
321.2	4
321.3	5
321.4	5
321.5	5
321.6	4
321.7	4
321.8	5
321.9	5
322.0	6
322.1	5
322.2	4
322.3	3
322.4	4
322.5	5
322.6	5
322.7	5
322.8	5
322.9	4
323.0	5
323.1	5
323.2	6
323.3	5
323.4	4
323.5	3
323.6	3
323.7	4
323.8	5
323.9	5
324.0	4
324.1	4
324.2	4
324.3	5
324.4	6
324.5	6
324.6	5
324.7	4
324.8	3
324.9	4
325.0	5
325.1	6
325.2	6
325.3	5
325.4	4
325.5	4
325.6	4
325.7	5
325.8	5
325.9	5
326.0	4
326.1	4
326.2	5
326.3	7
326.4	8
326.5	10
326.6	14
326.7	22
326.8	26
326.9	23
327.0	15
327.1	8
342.3	3
342.4	4
342.5	8
342.6	21
342.7	46
342.8	76
342.9	94
343.0	91
343.1	68
343.2	38
343.3	13
343.4	0
360.7	2
360.8	3
360.9	10
361.0	28
361.1	54
361.2	73
361.3	71
361.4	48
361.5	20
361.6	4
