Mass spectrum: Foetoside C; LC-ESI-QQQ; MS2; Frag=135.0V CID@10.0; [M+Na]+
Name: Foetoside C
Class: Terpenoids
Formula: C58H94O25
Exact mass: 1191.3809
SMILES: CC1OC(OC2C(OC3CC[C@@]4(C)C(CC[C@]5(C)C4CC=C4C6CC(C)(C)CCC6(C(=O)OC6OC(COC7OC(CO)C(O)C(O)C7O)C(O)C(O)C6O)CC[C@]45C)C3(C)C)OCC(O)C2O)C(O)C(OC2OCC(O)C(O)C2O)C1O
InChI: InChI=1S/C58H94O25/c1-24-34(62)45(81-48-41(69)35(63)27(60)21-74-48)44(72)50(77-24)82-46-36(64)28(61)22-75-51(46)80-33-12-13-55(6)31(54(33,4)5)11-14-57(8)32(55)10-9-25-26-19-53(2,3)15-17-58(26,18-16-56(25,57)7)52(73)83-49-43(71)40(68)38(66)30(79-49)23-76-47-42(70)39(67)37(65)29(20-59)78-47/h9,24,26-51,59-72H,10-23H2,1-8H3/t24?,26?,27?,28?,29?,30?,31?,32?,33?,34?,35?,36?,37?,38?,39?,40?,41?,42?,43?,44?,45?,46?,47?,48?,49?,50?,51?,55-,56+,57+,58?/m0/s1
Instrument: Agilent 6410 Triple Quadrupole LC/MS system
Instrument type: LC-ESI-QQQ
Ms type: MS2
Ion mode: POSITIVE
Precursor type: [M+Na]+
m/z	relative intensity
50.3	9
50.4	12
50.5	15
50.6	16
50.7	17
50.8	17
50.9	17
51.0	15
51.1	13
51.2	10
51.3	9
51.5	7
51.6	8
51.7	11
51.8	14
51.9	16
52.0	16
52.1	14
52.2	11
52.5	9
52.6	10
52.7	11
52.8	12
52.9	13
53.0	13
53.1	13
53.4	11
53.5	12
53.6	13
53.7	13
53.8	13
53.9	13
54.0	13
54.1	14
54.2	14
54.3	14
54.4	14
54.5	12
54.6	10
54.7	7
54.9	6
55.0	8
55.1	12
55.2	15
55.3	17
55.4	17
55.5	15
55.6	13
55.7	11
56.0	10
56.1	11
56.2	11
56.3	12
56.4	13
56.5	14
56.6	14
56.7	13
56.8	12
56.9	10
57.2	8
57.3	11
57.4	15
57.5	17
57.6	15
57.7	12
57.8	9
58.0	7
58.1	9
58.2	11
58.3	14
58.4	17
58.5	17
58.6	16
58.7	13
59.0	10
59.1	11
59.2	11
59.3	11
59.4	9
59.6	8
59.7	9
59.8	11
59.9	13
60.0	13
60.1	11
60.7	11
60.8	12
60.9	13
61.0	14
61.1	13
61.2	11
61.3	8
61.6	9
61.7	10
61.8	11
61.9	13
62.0	14
62.1	13
62.4	12
62.5	13
62.6	16
62.7	18
62.8	20
62.9	19
63.0	17
63.1	15
63.2	13
64.0	9
64.1	10
64.2	12
64.3	12
64.4	11
65.5	9
65.6	10
65.7	12
65.8	12
65.9	12
66.0	11
66.4	9
66.5	10
66.6	11
66.7	14
66.8	17
66.9	20
67.0	21
67.1	18
67.2	14
67.3	9
67.4	5
67.6	4
67.7	6
67.8	9
67.9	13
68.0	14
68.1	14
68.2	12
68.3	10
68.6	7
68.7	9
68.8	12
68.9	14
69.0	16
69.1	16
69.2	15
69.3	12
69.4	9
69.5	8
69.6	7
69.7	6
69.8	4
70.0	3
70.1	4
70.2	7
70.3	8
70.4	9
70.5	9
70.6	8
70.7	8
70.8	9
70.9	10
71.0	12
71.1	11
71.4	8
71.5	11
71.6	15
71.7	18
71.8	18
71.9	16
72.0	13
72.1	9
72.2	6
72.4	4
72.5	6
72.6	9
72.7	12
72.8	15
72.9	16
73.0	14
73.1	11
73.2	7
73.5	5
73.6	7
73.7	11
73.8	14
73.9	15
74.0	14
74.1	11
74.2	9
74.7	8
74.8	10
74.9	13
75.0	16
75.1	18
75.2	16
75.3	14
75.4	11
75.5	8
75.8	6
75.9	8
76.0	11
76.1	15
76.2	17
76.3	17
76.4	15
76.5	12
76.8	9
76.9	10
77.0	13
77.1	15
77.2	15
77.3	14
77.4	11
77.7	9
77.8	10
77.9	11
78.0	11
78.1	12
78.2	12
78.3	14
78.4	16
78.5	16
78.6	16
78.7	14
78.8	13
79.7	3
79.8	5
79.9	9
80.0	11
80.1	11
80.6	10
80.7	11
80.8	12
80.9	13
81.0	15
81.1	14
81.2	12
82.0	10
82.1	11
82.2	12
82.3	13
82.4	14
82.5	14
82.6	14
82.7	14
84.1	11
84.2	13
84.3	14
84.4	14
84.5	14
84.6	13
84.7	13
84.8	11
84.9	9
85.0	7
85.3	7
85.4	9
85.5	11
85.6	14
85.7	15
85.8	15
85.9	13
86.0	12
86.1	10
86.2	8
86.4	6
86.5	8
86.6	11
86.7	13
86.8	15
86.9	15
87.0	12
87.1	10
87.4	8
87.5	9
87.6	10
87.7	13
87.8	15
87.9	15
88.0	14
88.1	13
88.2	12
88.3	11
88.4	10
88.5	9
88.8	8
88.9	10
89.0	13
89.1	16
89.2	18
89.3	17
89.4	13
89.5	9
89.6	5
89.8	4
89.9	6
90.0	11
90.1	14
90.2	15
90.3	14
90.4	12
90.5	11
90.6	10
90.9	7
91.0	9
91.1	11
91.2	14
91.3	17
91.4	18
91.5	16
91.6	12
91.7	8
91.9	6
92.0	8
92.1	10
92.2	11
92.3	10
92.4	10
92.5	11
92.6	12
92.7	13
92.8	13
92.9	13
93.0	13
93.1	12
93.2	12
93.5	9
93.6	11
93.7	14
93.8	15
93.9	15
94.0	14
94.1	13
94.2	11
94.3	9
95.0	7
95.1	8
95.2	8
95.3	9
95.4	10
95.5	11
95.6	12
95.7	13
95.8	16
95.9	18
96.0	19
96.1	17
96.2	14
98.3	11
98.4	12
98.5	14
98.6	15
98.7	15
98.8	14
98.9	13
99.0	12
99.1	11
99.2	9
99.5	9
99.6	11
99.7	12
99.8	12
99.9	12
100.0	11
100.3	9
100.4	10
100.5	12
100.6	14
100.7	16
100.8	17
100.9	16
101.0	14
101.1	12
101.7	10
101.8	12
101.9	14
102.0	17
102.1	17
102.2	16
102.3	14
102.6	13
102.7	14
102.8	15
102.9	16
103.0	16
103.1	15
103.2	12
103.3	10
103.5	9
103.6	10
103.7	12
103.8	13
103.9	15
104.0	15
104.1	15
104.2	14
104.3	13
104.4	11
104.7	10
104.8	11
104.9	12
105.0	12
105.1	11
105.2	11
105.3	12
105.4	15
105.5	17
105.6	17
105.7	15
105.8	13
106.1	10
106.2	14
106.3	19
106.4	22
106.5	23
106.6	21
106.7	18
106.8	14
107.1	12
107.2	14
107.3	16
107.4	18
107.5	18
107.6	17
107.7	14
107.8	11
108.1	8
108.2	11
108.3	14
108.4	17
108.5	18
108.6	19
108.7	18
108.8	18
108.9	17
109.0	15
109.1	13
109.2	12
109.5	11
109.6	12
109.7	14
109.8	15
109.9	16
110.0	15
110.1	13
110.2	12
110.5	12
110.6	13
110.7	14
110.8	14
110.9	14
111.0	13
111.1	12
111.5	11
111.6	12
111.7	12
111.8	13
111.9	14
112.0	16
112.1	18
112.2	19
112.3	19
112.4	17
112.5	15
112.6	12
112.9	10
113.0	12
113.1	14
113.2	16
113.3	17
113.4	17
113.5	16
113.6	14
113.7	11
113.9	10
114.0	11
114.1	13
114.2	13
114.5	11
114.6	13
114.7	16
114.8	16
114.9	15
115.6	11
115.7	13
115.8	14
115.9	14
116.0	12
116.3	10
116.4	11
116.5	13
116.6	14
116.7	15
116.8	15
116.9	15
117.0	15
117.1	15
117.2	15
117.3	13
117.6	10
117.7	12
117.8	15
117.9	16
118.0	15
118.1	14
118.2	12
118.6	11
118.7	11
118.8	13
118.9	14
119.0	16
119.1	17
119.2	18
119.3	18
119.4	16
119.5	14
119.8	13
119.9	14
120.0	14
120.1	14
120.2	15
120.3	17
120.4	17
120.5	17
120.6	14
120.7	11
121.0	10
121.1	12
121.2	15
121.3	16
121.4	17
121.5	16
121.6	14
121.7	13
121.8	11
121.9	9
122.2	8
122.3	9
122.4	10
122.5	11
122.6	12
122.7	14
122.8	15
122.9	16
123.0	14
123.3	13
123.4	15
123.5	16
123.6	16
123.7	16
123.8	15
123.9	13
124.2	11
124.3	12
124.4	14
124.5	16
124.6	16
124.9	14
125.0	15
125.1	17
125.2	18
125.3	17
125.4	14
125.5	12
125.7	11
125.8	12
125.9	14
126.0	16
126.1	16
126.2	16
126.3	14
127.0	14
127.1	15
127.2	16
127.3	16
127.4	16
127.5	15
127.6	15
127.7	14
127.8	14
127.9	13
128.2	11
128.3	12
128.4	15
128.5	17
128.6	19
128.7	19
128.8	19
128.9	17
129.0	15
129.1	13
129.2	11
129.5	10
129.6	11
129.7	13
129.8	14
129.9	14
130.0	13
130.1	11
130.4	9
130.5	12
130.6	14
130.7	15
130.8	15
130.9	14
131.0	12
131.3	11
131.4	12
131.5	13
131.6	15
131.7	16
131.8	16
131.9	14
132.0	11
132.4	10
132.5	11
132.6	13
132.7	15
132.8	16
132.9	16
133.0	16
133.1	16
133.2	17
133.3	18
133.4	18
133.5	17
133.6	15
133.7	13
133.8	11
134.1	9
134.2	12
134.3	15
134.4	18
134.5	19
134.6	18
134.7	14
134.8	11
135.1	10
135.2	12
135.3	14
135.4	15
135.5	15
135.6	15
135.7	14
135.8	13
135.9	12
136.2	10
136.3	11
136.4	14
136.5	16
136.6	17
136.7	17
136.8	16
136.9	14
137.0	12
137.2	10
137.3	12
137.4	14
137.5	15
137.6	17
137.7	18
137.8	18
137.9	16
138.0	15
138.1	14
138.2	13
138.3	12
138.6	11
138.7	13
138.8	15
138.9	16
139.0	16
139.1	14
139.2	11
139.5	8
139.6	10
139.7	12
139.8	15
139.9	17
140.0	18
140.1	17
140.2	15
140.3	13
141.1	12
141.2	13
141.3	16
141.4	18
141.5	17
141.6	15
141.7	11
142.6	11
142.7	13
142.8	15
142.9	16
143.0	16
143.1	15
143.2	14
143.3	15
143.4	17
143.5	19
143.6	18
143.7	16
143.8	13
143.9	11
144.3	9
144.4	10
144.5	12
144.6	14
144.7	15
144.8	13
145.0	10
145.1	12
145.2	15
145.3	16
145.4	16
145.5	16
145.6	16
145.7	14
146.0	12
146.1	13
146.2	15
146.3	16
146.4	16
146.5	15
146.8	14
146.9	16
147.0	18
147.1	19
147.2	19
147.3	18
147.4	16
147.5	15
149.0	8
149.1	10
149.2	11
149.3	13
149.4	12
149.5	12
149.6	11
150.0	10
150.1	11
150.2	12
150.3	13
150.4	15
150.5	16
150.6	16
150.7	15
150.8	12
151.5	11
151.6	12
151.7	13
151.8	14
151.9	14
152.0	13
152.1	11
152.4	9
152.5	10
152.6	11
152.7	11
153.0	10
153.1	11
153.2	13
153.3	14
153.4	13
153.5	11
153.7	9
153.8	11
153.9	14
154.0	15
154.1	15
154.2	14
154.3	12
155.1	10
155.2	11
155.3	12
155.4	13
155.5	13
155.6	12
155.7	13
155.8	14
155.9	14
156.0	12
156.2	10
156.3	12
156.4	14
156.5	16
156.6	17
156.7	15
156.8	13
157.1	10
157.2	11
157.3	12
157.4	14
157.5	16
157.6	18
157.7	20
157.8	20
157.9	18
158.0	13
158.1	8
158.3	6
158.4	9
158.5	14
158.6	17
158.7	17
158.8	16
158.9	14
159.0	11
159.1	10
159.7	9
159.8	10
159.9	10
160.0	10
160.1	10
160.2	11
160.3	14
160.4	16
160.5	18
160.6	17
160.7	15
160.8	13
161.9	10
162.0	14
162.1	17
162.2	19
162.3	18
162.4	15
162.5	13
163.2	11
163.3	12
163.4	15
163.5	19
163.6	21
163.7	20
163.8	16
163.9	12
164.2	11
164.3	13
164.4	14
164.5	14
164.6	14
164.7	13
164.8	13
164.9	12
165.4	10
165.5	11
165.6	14
165.7	17
165.8	18
165.9	17
166.0	14
166.1	11
166.3	10
166.4	12
166.5	12
166.6	12
166.7	12
166.8	13
166.9	13
167.0	12
167.1	11
167.4	10
167.5	11
167.6	13
167.7	15
167.8	17
167.9	18
168.0	18
168.1	16
168.2	14
169.8	9
169.9	10
170.0	11
170.1	12
170.2	13
170.3	14
170.4	15
170.5	14
171.2	9
171.3	11
171.4	12
171.5	13
171.6	12
171.7	11
172.4	9
172.5	10
172.6	12
172.7	13
172.8	13
172.9	12
173.0	9
173.3	6
173.4	8
173.5	12
173.6	14
173.7	15
173.8	15
173.9	15
174.0	14
174.1	12
174.2	9
174.4	7
174.5	8
174.6	10
174.7	11
174.8	11
175.1	10
175.2	11
175.3	13
175.4	14
175.5	15
175.6	16
175.7	17
175.8	17
175.9	16
176.0	14
176.9	9
177.0	11
177.1	14
177.2	17
177.3	17
177.4	16
177.5	15
177.6	13
177.7	11
177.8	10
178.4	9
178.5	11
178.6	13
178.7	13
178.8	12
178.9	11
179.0	12
179.1	13
179.2	14
179.3	13
179.4	12
179.5	11
179.6	11
179.7	11
180.5	7
180.6	10
180.7	14
180.8	16
180.9	17
181.0	15
181.1	13
181.2	11
181.3	9
181.6	8
181.7	9
181.8	11
181.9	12
182.0	13
182.1	13
182.2	12
182.3	10
182.4	9
182.7	9
182.8	10
182.9	12
183.0	12
183.1	12
183.2	12
183.3	13
183.4	15
183.5	16
183.6	16
183.7	14
183.8	11
183.9	9
184.2	7
184.3	8
184.4	10
184.5	11
184.6	12
184.7	12
184.8	11
184.9	10
185.2	9
185.3	12
185.4	15
185.5	17
185.6	16
187.2	10
187.3	11
187.4	13
187.5	15
187.6	17
187.7	17
187.8	15
187.9	12
188.0	9
188.2	8
188.3	10
188.4	12
188.5	13
188.6	13
188.7	14
188.8	14
188.9	14
189.0	14
189.1	15
189.2	15
189.3	13
189.4	11
189.7	9
189.8	11
189.9	13
190.0	14
190.1	13
190.2	12
190.3	11
190.4	10
190.7	6
190.8	9
190.9	13
191.0	15
191.1	15
191.2	15
191.3	16
191.4	16
191.5	15
191.6	14
191.7	12
191.8	11
191.9	11
192.0	10
192.3	9
192.4	10
192.5	11
192.6	11
192.7	9
192.8	8
193.1	6
193.2	7
193.3	11
193.4	16
193.5	22
193.6	23
193.7	20
193.8	14
193.9	9
194.0	6
194.5	4
194.6	6
194.7	9
194.8	12
194.9	14
195.0	14
195.1	13
195.2	14
195.3	13
195.4	13
196.5	5
196.6	7
196.7	10
196.8	13
196.9	14
197.0	13
197.1	12
197.2	11
197.3	11
197.4	10
197.5	9
197.6	8
197.7	7
197.9	6
198.0	7
198.1	9
198.2	12
198.3	15
198.4	16
198.5	14
198.6	12
198.7	9
198.8	7
199.1	5
199.2	6
199.3	8
199.4	11
199.5	14
199.6	15
199.7	14
199.8	12
201.3	6
201.4	8
201.5	12
201.6	15
201.7	16
201.8	15
201.9	13
202.0	11
202.3	9
202.4	10
202.5	12
202.6	13
202.7	13
202.8	13
202.9	13
203.0	12
203.1	12
203.2	12
203.3	12
203.4	14
203.5	15
203.6	14
203.7	11
203.8	9
204.0	7
204.1	9
204.2	11
204.3	13
204.4	14
204.5	13
204.6	11
204.8	9
204.9	11
205.0	13
205.1	14
205.2	12
205.3	10
205.9	8
206.0	9
206.1	11
206.2	13
206.3	14
206.4	14
206.5	13
206.6	10
206.7	7
206.9	5
207.0	7
207.1	10
207.2	12
207.3	14
207.4	16
207.5	17
207.6	17
207.7	16
207.8	14
207.9	12
208.0	11
208.3	7
208.4	10
208.5	14
208.6	15
208.7	14
208.8	10
209.1	7
209.2	9
209.3	11
209.4	13
209.5	13
209.6	13
209.7	13
209.8	13
209.9	14
210.0	13
210.1	11
210.9	9
211.0	11
211.1	14
211.2	16
211.3	15
211.4	12
211.5	8
211.8	6
211.9	10
212.0	14
212.1	15
212.2	14
213.4	9
213.5	11
213.6	13
213.7	15
213.8	16
213.9	16
214.0	16
214.1	14
214.2	11
215.2	9
215.3	11
215.4	13
215.5	15
215.6	15
215.7	15
215.8	15
215.9	15
216.0	14
216.1	13
216.4	11
216.5	13
216.6	14
216.7	15
216.8	15
216.9	14
217.0	13
217.1	12
217.4	10
217.5	11
217.6	14
217.7	17
217.8	18
217.9	19
218.0	18
218.1	16
218.2	13
218.3	11
219.2	11
219.3	12
219.4	13
219.5	16
219.6	18
219.7	17
219.8	14
219.9	12
220.8	10
220.9	11
221.0	13
221.1	14
221.2	14
221.3	16
221.4	20
221.5	22
221.6	22
221.7	18
221.8	14
221.9	10
222.5	11
222.6	12
222.7	13
222.8	14
222.9	13
223.0	13
223.4	12
223.5	13
223.6	13
223.7	14
223.8	14
223.9	13
224.0	13
224.1	11
224.2	9
224.5	8
224.6	11
224.7	13
224.8	16
224.9	18
225.0	18
225.1	16
225.2	14
225.6	13
225.7	14
225.8	17
225.9	21
226.0	24
226.1	23
226.2	19
226.3	14
226.4	10
226.7	7
226.8	11
226.9	16
227.0	21
227.1	24
227.2	22
227.3	18
227.4	13
227.7	12
227.8	13
227.9	14
228.0	14
228.1	16
228.2	18
228.3	19
228.4	16
228.5	13
229.5	8
229.6	10
229.7	12
229.8	11
229.9	11
230.0	11
230.1	13
230.2	14
230.3	14
230.6	12
230.7	13
230.8	16
230.9	19
231.0	19
231.1	16
231.2	12
231.5	10
231.6	12
231.7	14
231.8	15
231.9	15
232.0	15
232.1	15
232.2	15
232.3	15
232.4	17
232.5	17
232.6	16
232.7	14
233.0	11
233.1	14
233.2	16
233.3	18
233.4	18
233.5	17
233.6	15
235.1	10
235.2	11
235.3	13
235.4	15
235.5	16
235.6	15
235.7	13
236.2	12
236.3	13
236.4	14
236.5	15
236.6	15
236.7	14
237.1	13
237.2	13
237.3	15
237.4	17
237.5	17
237.6	15
238.4	10
238.5	12
238.6	15
238.7	16
238.8	16
238.9	14
239.8	12
239.9	15
240.0	18
240.1	20
240.2	18
240.3	14
240.4	10
240.5	8
240.8	8
240.9	9
241.0	11
241.1	13
241.2	15
241.3	16
241.4	17
241.5	16
241.6	15
242.0	13
242.1	14
242.2	15
242.3	16
242.4	19
242.5	20
242.6	19
242.7	16
242.8	13
243.0	12
243.1	13
243.2	14
243.3	15
243.4	16
243.5	16
243.6	16
243.7	15
243.8	13
244.1	12
244.2	13
244.3	15
244.4	17
244.5	19
244.6	20
244.7	20
244.8	19
246.3	11
246.4	12
246.5	13
246.6	14
246.7	13
246.8	14
246.9	16
247.0	18
247.1	20
247.2	21
247.3	21
247.4	20
247.5	19
247.6	17
247.7	16
248.1	15
248.2	16
248.3	17
248.4	18
248.5	16
248.6	13
248.9	10
249.0	12
249.1	14
249.2	16
249.3	19
249.4	20
249.5	19
249.6	18
249.7	16
249.8	15
250.9	10
251.0	13
251.1	16
251.2	19
251.3	19
251.4	18
251.5	16
252.3	12
252.4	13
252.5	14
252.6	15
252.7	16
252.8	16
254.3	14
254.4	16
254.5	17
254.6	16
254.7	15
254.8	12
255.9	12
256.0	13
256.1	15
256.2	16
256.3	16
256.4	15
256.5	14
256.6	12
256.7	10
256.9	9
257.0	10
257.1	12
257.2	14
257.3	16
257.4	17
257.5	18
257.6	19
257.7	19
257.8	18
257.9	15
258.0	12
258.3	12
258.4	13
258.5	14
258.6	15
258.7	17
258.8	19
258.9	20
259.0	19
259.1	16
259.2	12
260.3	12
260.4	13
260.5	14
260.6	16
260.7	19
260.8	20
260.9	20
261.0	19
261.1	17
261.2	16
261.3	16
261.4	16
261.5	14
261.8	11
261.9	13
262.0	15
262.1	16
262.2	16
262.5	15
262.6	16
262.7	18
262.8	18
262.9	17
263.0	14
263.2	13
263.3	15
263.4	17
263.5	18
263.6	16
263.7	13
264.3	12
264.4	13
264.5	14
264.6	15
264.7	13
264.8	10
265.1	7
265.2	10
265.3	14
265.4	17
265.5	18
265.6	18
265.7	17
265.8	16
265.9	13
266.2	10
266.3	14
266.4	16
266.5	18
266.6	17
267.5	9
267.6	11
267.7	13
267.8	15
267.9	16
268.0	15
268.1	14
268.2	12
268.5	11
268.6	13
268.7	14
268.8	15
268.9	14
269.0	14
269.1	13
269.2	12
269.3	11
271.3	10
271.4	13
271.5	16
271.6	17
271.7	14
271.8	10
272.0	9
272.1	11
272.2	12
272.3	12
272.4	11
272.5	12
272.6	12
272.7	12
272.8	10
272.9	9
273.2	8
273.3	9
273.4	11
273.5	13
273.6	12
273.7	10
274.0	8
274.1	11
274.2	13
274.3	14
274.4	14
274.5	13
274.6	11
274.7	10
275.0	8
275.1	9
275.2	12
275.3	13
275.4	14
275.5	13
276.8	8
276.9	10
277.0	12
277.1	14
277.2	16
277.3	17
277.4	16
279.0	9
279.1	10
279.2	12
279.3	12
279.4	11
280.2	9
280.3	10
280.4	13
280.5	15
280.6	16
280.7	15
280.8	13
281.4	12
281.5	12
281.6	14
281.7	18
281.8	21
281.9	21
282.0	19
282.1	16
282.2	15
282.3	15
282.4	13
282.7	9
282.8	12
282.9	15
283.0	16
283.1	17
283.2	17
283.3	17
283.4	17
283.5	16
283.6	14
283.7	13
283.8	11
284.1	11
284.2	12
284.3	13
284.4	15
284.5	16
284.6	16
284.7	15
284.8	13
284.9	12
285.1	10
285.2	12
285.3	15
285.4	19
285.5	22
285.6	22
285.7	20
285.8	15
286.1	13
286.2	16
286.3	18
286.4	18
286.5	17
286.6	16
286.7	15
286.8	13
286.9	11
287.5	9
287.6	10
287.7	13
287.8	16
287.9	18
288.0	18
288.1	17
288.2	16
288.3	15
288.4	15
288.5	14
288.6	14
288.7	13
288.8	12
289.5	11
289.6	12
289.7	14
289.8	15
289.9	13
290.0	11
290.8	9
290.9	9
291.0	12
291.1	16
291.2	18
291.3	18
291.4	17
291.5	14
291.6	12
291.7	10
292.0	8
292.1	9
292.2	11
292.3	13
292.4	13
292.5	11
292.6	8
292.9	5
293.0	7
293.1	9
293.2	12
293.3	13
293.4	13
293.5	12
293.6	11
293.7	10
293.8	9
293.9	8
294.0	8
294.3	6
294.4	8
294.5	10
294.6	11
294.7	11
294.8	11
294.9	12
295.0	13
295.1	14
295.2	14
295.3	13
295.4	10
295.7	7
295.8	9
295.9	11
296.0	11
296.1	10
298.6	7
298.7	8
298.8	9
298.9	11
299.0	12
299.1	12
299.2	11
299.3	10
299.4	9
299.5	9
299.6	8
299.9	6
300.0	9
300.1	12
300.2	13
300.3	13
300.4	14
300.5	15
300.6	16
300.7	16
300.8	15
300.9	14
301.0	12
301.1	10
302.4	7
302.5	8
302.6	12
302.7	16
302.8	19
302.9	19
303.0	17
303.1	13
303.2	10
303.5	10
303.6	11
303.7	11
303.8	13
303.9	15
304.0	17
304.1	19
304.2	17
304.3	13
304.4	8
304.7	7
304.8	9
304.9	10
305.0	12
305.1	12
305.2	12
305.3	12
305.4	12
305.5	12
305.6	12
305.7	11
305.8	12
305.9	12
306.0	12
306.1	12
306.2	12
306.3	11
306.4	10
306.7	9
306.8	12
306.9	15
307.0	16
307.1	16
307.2	15
307.3	14
307.4	14
307.5	13
308.4	8
308.5	11
308.6	14
308.7	16
308.8	17
308.9	17
309.0	14
309.1	11
309.3	10
309.4	11
309.5	13
309.6	14
309.7	16
309.8	18
309.9	18
310.0	17
310.1	16
310.2	13
310.3	10
310.4	8
310.5	6
310.7	4
310.8	5
310.9	8
311.0	12
311.1	14
311.2	14
311.3	12
311.4	11
311.5	10
311.6	9
311.9	8
312.0	9
312.1	11
312.2	14
312.3	17
312.4	20
312.5	20
312.6	18
312.7	13
312.8	10
313.2	8
313.3	9
313.4	10
313.5	11
313.6	12
313.7	13
313.8	12
313.9	11
314.0	8
314.3	7
314.4	9
314.5	11
314.6	11
314.7	11
314.8	11
314.9	11
315.0	10
315.1	8
315.4	6
315.5	8
315.6	10
315.7	12
315.8	12
315.9	11
316.2	11
316.3	12
316.4	13
316.5	14
316.6	15
316.7	16
316.8	17
316.9	15
317.0	12
317.1	9
317.2	6
317.4	6
317.5	7
317.6	9
317.7	11
317.8	13
317.9	16
318.0	17
318.1	17
318.2	14
318.3	10
318.4	7
318.7	6
318.8	9
318.9	11
319.0	13
319.1	14
319.2	14
319.3	12
319.4	9
319.5	7
319.7	6
319.8	8
319.9	10
320.0	12
320.1	14
320.2	16
320.3	17
320.4	16
320.5	14
320.6	10
320.9	6
321.0	9
321.1	13
321.2	16
321.3	16
321.4	15
321.5	14
321.6	14
321.7	14
321.8	13
321.9	11
322.3	10
322.4	10
322.5	11
322.6	13
322.7	14
322.8	14
322.9	12
323.2	9
323.3	11
323.4	13
323.5	14
323.6	13
324.6	9
324.7	10
324.8	13
324.9	16
325.0	19
325.1	19
325.2	16
325.3	11
325.4	7
325.6	5
325.7	8
325.8	11
325.9	15
326.0	18
326.1	20
326.2	19
326.3	18
326.4	15
326.5	13
326.6	12
327.0	11
327.1	12
327.2	13
327.3	15
327.4	16
327.5	16
327.6	14
327.7	12
328.0	9
328.1	11
328.2	14
328.3	16
328.4	16
328.5	16
328.6	15
328.7	15
328.8	14
328.9	13
329.0	10
329.2	7
329.3	9
329.4	12
329.5	14
329.6	14
329.7	14
329.8	13
329.9	12
330.0	11
330.3	10
330.4	12
330.5	14
330.6	16
330.7	15
330.8	14
330.9	12
331.0	10
332.3	11
332.4	13
332.5	15
332.6	16
332.7	16
332.8	16
332.9	15
333.0	13
333.1	10
333.4	8
333.5	10
333.6	11
333.7	13
333.8	14
333.9	15
334.0	15
334.1	15
334.2	13
334.3	11
334.4	8
334.6	7
334.7	9
334.8	11
334.9	12
335.0	11
335.1	11
335.2	11
335.3	12
335.4	13
335.5	13
336.3	9
336.4	12
336.5	16
336.6	19
336.7	20
336.8	18
336.9	16
337.0	15
337.1	14
337.2	13
337.5	11
337.6	13
337.7	15
337.8	15
337.9	15
338.0	14
338.1	12
338.4	11
338.5	11
338.6	12
338.7	13
338.8	14
338.9	16
339.0	17
339.1	16
339.2	14
339.3	12
339.4	11
339.7	9
339.8	11
339.9	13
340.0	13
340.1	12
340.4	10
340.5	12
340.6	14
340.7	15
340.8	14
340.9	13
341.6	10
341.7	12
341.8	12
341.9	12
342.0	12
342.1	13
342.2	12
342.3	12
342.6	11
342.7	12
342.8	13
342.9	13
343.0	13
343.1	13
343.2	13
343.3	14
343.4	15
343.5	16
343.6	16
343.7	15
343.8	15
343.9	15
344.0	14
344.1	14
344.2	14
344.3	14
344.4	15
344.5	15
344.6	15
344.7	14
344.8	14
344.9	14
345.0	14
345.1	14
345.2	14
345.7	13
345.8	14
345.9	16
346.0	19
346.1	20
346.2	20
346.3	18
346.4	15
346.5	12
346.6	10
346.8	9
346.9	10
347.0	14
347.1	17
347.2	19
347.3	18
347.4	16
347.6	15
347.7	16
347.8	18
347.9	18
348.0	16
348.1	14
348.2	13
348.3	13
348.4	12
348.5	11
348.8	9
348.9	11
349.0	12
349.1	11
349.2	11
349.3	11
349.4	13
349.5	14
349.6	14
349.7	14
349.8	13
350.1	12
350.2	12
350.3	14
350.4	15
350.5	15
350.6	14
350.7	12
350.8	10
350.9	9
351.3	8
351.4	9
351.5	12
351.6	14
351.7	15
351.8	14
351.9	13
352.0	11
352.3	9
352.4	10
352.5	12
352.6	14
352.7	15
352.8	16
352.9	16
353.0	15
353.1	14
353.2	12
353.3	10
353.6	8
353.7	10
353.8	12
353.9	15
354.0	17
354.1	16
354.2	14
354.3	12
354.6	10
354.7	12
354.8	13
354.9	14
355.0	15
355.1	16
355.2	17
355.3	17
355.4	15
355.5	13
355.8	11
355.9	12
356.0	13
356.1	15
356.2	17
356.3	18
356.4	18
356.5	16
356.6	14
356.7	12
357.1	11
357.2	13
357.3	15
357.4	17
357.5	19
357.6	20
357.7	18
357.8	15
357.9	13
358.0	13
358.1	13
358.4	10
358.5	13
358.6	17
358.7	18
358.8	16
358.9	13
359.0	10
359.3	10
359.4	11
359.5	12
359.6	13
359.7	13
359.8	14
359.9	15
360.0	17
360.1	19
360.2	20
360.3	19
360.4	17
360.5	14
360.7	12
360.8	14
360.9	17
361.0	18
361.1	18
361.2	15
361.3	12
361.4	11
361.7	9
361.8	10
361.9	12
362.0	15
362.1	18
362.2	20
362.3	20
362.4	18
362.5	16
362.6	14
362.7	12
363.0	11
363.1	13
363.2	15
363.3	16
363.4	15
363.5	14
363.6	12
363.7	9
364.0	7
364.1	10
364.2	14
364.3	17
364.4	19
364.5	19
364.6	18
364.7	15
364.8	12
364.9	9
365.1	5
365.2	7
365.3	12
365.4	17
365.5	20
365.6	19
365.7	16
365.8	13
365.9	10
366.1	9
366.2	11
366.3	13
366.4	16
366.5	17
366.6	18
366.7	18
366.8	18
366.9	17
367.0	16
367.1	14
367.2	12
367.4	10
367.5	11
367.6	14
367.7	16
367.8	18
367.9	19
368.0	17
368.1	15
368.9	11
369.0	12
369.1	14
369.2	14
369.3	13
369.4	12
369.5	10
369.7	8
369.8	10
369.9	13
370.0	15
370.1	16
370.2	15
370.3	14
370.4	12
370.5	11
371.2	11
371.3	12
371.4	13
371.5	14
371.6	15
371.7	16
371.8	14
371.9	12
372.2	9
372.3	10
372.4	12
372.5	14
372.6	15
372.7	15
373.7	6
373.8	9
373.9	12
374.0	15
374.1	15
374.2	14
374.3	12
374.6	11
374.7	13
374.8	14
374.9	15
375.0	15
375.1	15
375.2	14
375.3	13
375.4	11
375.5	8
375.7	6
375.8	8
375.9	11
376.0	14
376.1	15
376.2	15
376.3	13
376.4	13
376.5	14
376.6	16
376.7	16
376.8	16
377.2	15
377.3	16
377.4	18
377.5	19
377.6	18
377.7	16
377.8	14
377.9	12
378.2	12
378.3	13
378.4	15
378.5	16
378.6	16
378.7	14
378.8	12
378.9	9
379.1	8
379.2	10
379.3	13
379.4	15
379.5	15
379.6	16
379.7	16
379.8	15
379.9	13
380.0	12
380.1	11
380.2	10
380.4	8
380.5	9
380.6	12
380.7	15
380.8	18
380.9	20
381.0	20
381.1	19
381.2	15
381.3	11
381.6	8
381.7	10
381.8	14
381.9	17
382.0	18
382.1	16
382.2	14
382.4	13
382.5	15
382.6	16
382.7	17
382.8	16
382.9	15
383.8	12
383.9	13
384.0	15
384.1	16
384.2	17
384.3	17
384.4	16
384.5	15
384.6	15
384.7	14
385.0	12
385.1	14
385.2	15
385.3	16
385.4	15
385.5	15
385.6	15
385.7	14
386.2	13
386.3	14
386.4	16
386.5	19
386.6	21
386.7	22
386.8	20
386.9	17
387.0	13
387.3	11
387.4	12
387.5	13
387.6	15
387.7	16
387.8	17
387.9	17
388.0	16
388.1	15
388.2	14
388.3	13
389.6	12
389.7	13
389.8	16
389.9	19
390.0	19
390.1	18
390.2	15
390.3	12
391.1	10
391.2	11
391.3	13
391.4	13
391.5	13
391.6	14
391.7	13
391.8	12
392.1	10
392.2	12
392.3	15
392.4	16
392.5	14
392.6	11
392.9	9
393.0	10
393.1	12
393.2	13
393.3	13
393.4	13
393.5	12
393.6	12
394.5	10
394.6	11
394.7	12
394.8	15
394.9	17
395.0	19
395.1	19
395.2	17
395.3	14
395.4	13
395.7	12
395.8	13
395.9	14
396.0	14
396.1	12
396.4	10
396.5	12
396.6	13
396.7	13
396.8	13
396.9	13
397.0	13
397.1	14
397.2	14
397.3	14
397.4	14
397.5	13
397.6	12
397.9	9
398.0	11
398.1	12
398.2	12
398.3	12
398.4	13
398.5	14
398.6	13
398.7	11
399.0	8
399.1	11
399.2	13
399.3	15
399.4	16
399.5	16
399.6	15
399.7	12
399.8	10
400.0	9
400.1	10
400.2	12
400.3	13
400.4	13
400.5	12
401.5	11
401.6	12
401.7	13
401.8	14
401.9	15
402.0	15
402.1	16
402.2	16
402.3	16
402.4	16
402.5	16
402.6	15
402.7	13
402.8	11
403.6	10
403.7	12
403.8	14
403.9	14
404.0	12
404.1	10
404.4	9
404.5	10
404.6	10
404.7	11
404.8	11
404.9	11
405.0	12
405.1	12
405.2	12
405.3	11
405.6	10
405.7	12
405.8	13
405.9	14
406.0	13
406.1	12
406.2	13
406.3	14
406.4	14
406.5	13
406.6	11
407.2	10
407.3	12
407.4	14
407.5	15
407.6	14
407.7	13
407.8	12
407.9	11
408.2	9
408.3	10
408.4	12
408.5	14
408.6	15
408.7	14
408.8	12
408.9	9
409.2	7
409.3	8
409.4	10
409.5	12
409.6	13
409.7	13
409.8	13
409.9	13
410.0	13
410.1	13
410.2	12
410.3	10
410.6	6
410.7	9
410.8	14
410.9	16
411.0	16
411.1	14
411.2	12
411.3	11
411.4	9
411.7	8
411.8	11
411.9	14
412.0	16
412.1	15
412.2	12
412.3	9
412.5	9
412.6	10
412.7	10
412.8	11
412.9	12
413.0	12
413.1	12
413.2	11
414.7	8
414.8	10
414.9	11
415.0	11
415.3	9
415.4	11
415.5	13
415.6	13
415.7	13
415.8	12
415.9	12
416.0	11
416.3	10
416.4	13
416.5	16
416.6	17
416.7	16
416.8	13
416.9	12
417.0	11
417.4	10
417.5	11
417.6	12
417.7	12
417.8	12
417.9	13
418.0	13
418.1	14
418.2	13
418.3	13
418.4	12
418.5	10
418.6	9
418.9	8
419.0	9
419.1	10
419.2	11
419.3	11
419.4	11
419.7	10
419.8	12
419.9	14
420.0	15
420.1	15
420.2	14
420.3	12
420.7	10
420.8	11
420.9	11
421.0	12
421.1	14
421.2	14
421.3	14
421.4	15
421.5	15
421.6	14
421.7	12
421.8	10
421.9	9
422.0	8
422.3	7
422.4	8
422.5	11
422.6	14
422.7	17
422.8	18
422.9	17
423.0	12
423.1	7
423.3	5
423.4	9
423.5	13
423.6	17
423.7	18
423.8	18
423.9	16
424.0	13
424.1	10
424.4	8
424.5	9
424.6	10
424.7	11
424.8	11
424.9	12
425.0	14
425.1	14
425.2	13
425.3	11
425.5	9
425.6	11
425.7	14
425.8	16
425.9	18
426.0	17
426.1	15
426.2	12
426.3	9
426.4	6
426.5	5
426.8	5
426.9	7
427.0	9
427.1	12
427.2	14
427.3	14
427.4	12
429.1	5
429.2	6
429.3	8
429.4	9
429.5	11
429.6	12
429.7	11
429.8	10
429.9	10
430.0	9
430.1	8
430.4	6
430.5	8
430.6	12
430.7	16
430.8	17
430.9	16
431.0	14
431.1	11
431.2	9
431.3	8
431.6	7
431.7	10
431.8	13
431.9	14
432.0	14
432.1	12
432.2	9
432.3	6
432.5	5
432.6	6
432.7	8
432.8	12
432.9	15
433.0	17
433.1	17
433.2	14
433.3	11
433.4	8
433.5	7
433.8	7
433.9	7
434.0	9
434.1	9
434.2	9
434.3	9
434.4	9
434.5	9
434.6	9
434.7	8
434.8	8
434.9	8
435.0	9
435.1	11
435.2	13
435.3	14
435.4	13
435.5	11
435.7	10
435.8	11
435.9	12
436.0	11
436.1	10
436.4	9
436.5	10
436.6	12
436.7	14
436.8	14
436.9	11
437.0	7
437.2	5
437.3	7
437.4	10
437.5	14
437.6	17
437.7	18
437.8	17
437.9	14
438.0	12
438.3	11
438.4	12
438.5	12
438.6	13
438.7	12
438.8	10
439.9	5
440.0	6
440.1	9
440.2	12
440.3	15
440.4	16
440.5	16
440.6	13
440.9	10
441.0	12
441.1	14
441.2	16
441.3	17
441.4	17
441.5	14
441.6	11
441.7	9
441.9	8
442.0	9
442.1	11
442.2	13
442.3	15
442.4	16
442.5	17
442.6	17
442.7	16
442.8	14
442.9	12
443.0	10
443.2	8
443.3	10
443.4	12
443.5	15
443.6	15
443.7	13
444.0	11
444.1	13
444.2	15
444.3	16
444.4	17
444.5	18
444.6	19
444.7	19
444.8	18
444.9	17
445.0	15
445.1	12
445.2	9
445.5	9
445.6	10
445.7	11
445.8	13
445.9	13
446.0	13
446.1	13
446.2	14
446.3	14
446.4	15
446.5	16
446.6	16
446.9	14
447.0	16
447.1	17
447.2	16
447.3	14
447.6	11
447.7	12
447.8	13
447.9	14
448.0	15
448.1	15
448.2	15
448.3	14
448.4	12
448.5	8
448.7	6
448.8	8
448.9	12
449.0	16
449.1	19
449.2	20
449.3	20
449.4	19
449.5	17
449.6	14
449.8	13
449.9	15
450.0	17
450.1	19
450.2	18
450.3	16
450.4	12
450.5	7
450.8	5
450.9	8
451.0	10
451.1	13
451.2	16
451.3	17
451.4	19
451.5	19
451.6	19
451.7	17
451.8	14
451.9	11
452.7	12
452.8	13
452.9	14
453.0	14
453.1	12
453.2	9
453.4	7
453.5	9
453.6	12
453.7	13
453.8	14
453.9	13
454.0	12
454.1	11
454.2	11
454.3	10
454.6	8
454.7	9
454.8	12
454.9	14
455.0	16
455.1	16
457.0	11
457.1	12
457.2	14
457.3	16
457.4	19
457.5	20
457.6	20
457.7	18
457.8	15
457.9	11
458.2	8
458.3	11
458.4	15
458.5	17
458.6	17
458.7	15
458.8	13
459.1	10
459.2	12
459.3	14
459.4	16
459.5	17
459.6	16
459.7	14
459.8	11
459.9	8
460.1	7
460.2	8
460.3	10
460.4	11
460.5	12
460.6	13
460.7	16
460.8	18
460.9	19
461.0	19
461.1	18
461.2	17
461.3	15
461.7	14
461.8	15
461.9	16
462.0	16
462.1	16
462.2	14
462.3	12
462.4	12
462.8	10
462.9	12
463.0	14
463.1	14
463.2	14
463.3	13
463.4	13
463.5	14
463.6	14
463.7	15
463.8	16
463.9	16
464.0	14
464.9	10
465.0	11
465.1	13
465.2	15
465.3	15
465.4	14
465.5	15
465.6	16
465.7	18
465.8	19
465.9	18
466.0	16
466.1	16
466.2	15
466.3	14
466.6	13
466.7	14
466.8	15
466.9	16
467.0	15
467.1	14
467.2	12
467.5	10
467.6	13
467.7	16
467.8	18
467.9	19
468.0	18
468.1	17
468.2	15
468.3	13
468.4	11
468.7	8
468.8	10
468.9	14
469.0	16
469.1	18
469.2	17
471.2	12
471.3	14
471.4	16
471.5	18
471.6	17
471.7	16
471.8	14
471.9	11
472.2	9
472.3	12
472.4	14
472.5	15
472.6	16
472.7	15
472.8	15
472.9	14
473.2	11
473.3	12
473.4	14
473.5	15
473.6	15
473.7	13
473.8	11
474.1	9
474.2	12
474.3	16
474.4	18
474.5	19
474.6	18
474.7	17
474.8	17
474.9	17
475.0	15
475.1	13
475.7	13
475.8	13
475.9	14
476.0	15
476.1	15
476.2	15
476.3	15
476.4	15
476.5	14
476.6	14
476.7	15
476.8	16
476.9	16
477.0	16
478.2	13
478.3	15
478.4	16
478.5	16
478.6	14
478.7	13
478.8	12
479.1	10
479.2	12
479.3	15
479.4	18
479.5	21
479.6	21
479.7	20
479.8	18
479.9	17
481.4	14
481.5	15
481.6	16
481.7	17
481.8	16
482.1	14
482.2	15
482.3	17
482.4	17
482.5	16
482.6	16
482.7	17
482.8	17
482.9	17
483.0	16
483.1	15
483.2	14
483.5	13
483.6	15
483.7	16
483.8	17
483.9	18
484.0	18
484.1	18
484.2	18
484.3	17
484.4	16
484.7	15
484.8	16
484.9	17
485.0	17
485.1	16
485.2	16
485.3	15
485.4	15
485.5	13
485.7	12
485.8	13
485.9	15
486.0	18
486.1	19
486.2	19
486.3	18
486.4	17
486.5	16
487.5	12
487.6	13
487.7	15
487.8	16
487.9	15
488.0	13
488.1	11
488.3	9
488.4	11
488.5	13
488.6	15
488.7	17
488.8	17
488.9	16
489.0	14
489.5	13
489.6	14
489.7	15
489.8	16
489.9	16
490.0	16
490.1	14
490.2	11
490.4	9
490.5	11
490.6	13
490.7	13
490.8	12
490.9	12
491.0	13
491.1	14
491.2	15
491.3	15
491.4	14
491.5	13
491.6	10
491.7	7
491.9	5
492.0	7
492.1	10
492.2	14
492.3	19
492.4	20
492.5	19
492.6	15
492.7	13
493.4	12
493.5	13
493.6	14
493.7	14
493.8	12
494.1	10
494.2	11
494.3	14
494.4	17
494.5	18
494.6	18
494.7	16
494.8	14
494.9	13
495.0	11
495.3	10
495.4	12
495.5	13
495.6	14
495.7	14
495.8	14
495.9	15
496.0	16
496.1	16
496.2	14
496.5	12
496.6	14
496.7	16
496.8	17
496.9	16
497.0	14
497.1	12
497.4	11
497.5	11
497.6	12
497.7	13
497.8	14
497.9	14
498.0	14
498.1	15
498.2	16
498.3	15
498.4	13
498.5	9
498.8	6
498.9	8
499.0	10
499.1	12
499.2	12
499.3	13
499.4	13
499.5	13
499.6	13
499.7	13
499.8	12
499.9	12
500.0	12
500.1	12
500.2	12
500.3	12
500.4	12
500.5	13
500.6	14
500.7	14
500.8	14
500.9	12
501.2	10
501.3	11
501.4	14
501.5	16
501.6	16
501.7	17
501.8	16
501.9	14
502.1	12
502.2	14
502.3	15
502.4	15
502.5	15
502.6	15
502.7	15
502.8	14
502.9	12
503.2	10
503.3	11
503.4	13
503.5	13
503.6	13
503.7	13
503.8	13
503.9	14
504.0	14
504.1	14
504.2	13
504.3	12
504.4	11
504.5	9
504.8	7
504.9	9
505.0	12
505.1	15
505.2	16
505.3	16
505.4	16
505.7	14
505.8	16
505.9	16
506.0	16
506.1	15
507.0	11
507.1	12
507.2	14
507.3	15
507.4	15
507.5	14
508.3	9
508.4	12
508.5	15
508.6	17
508.7	16
508.8	14
508.9	11
509.2	9
509.3	11
509.4	13
509.5	14
509.6	15
509.7	14
509.8	14
509.9	12
510.0	10
510.1	8
510.4	6
510.5	9
510.6	11
510.7	12
510.8	13
510.9	13
511.0	13
511.1	12
511.9	11
512.0	13
512.1	15
512.2	16
512.3	16
512.4	16
512.5	16
512.6	14
512.7	12
513.9	9
514.0	10
514.1	11
514.2	12
514.3	14
514.4	14
514.5	14
514.6	13
515.4	10
515.5	12
515.6	14
515.7	14
515.8	12
516.0	10
516.1	12
516.2	16
516.3	20
516.4	21
516.5	19
516.6	16
516.7	12
516.8	10
518.1	8
518.2	9
518.3	11
518.4	13
518.5	15
518.6	14
518.7	13
518.8	10
518.9	9
519.6	9
519.7	10
519.8	11
519.9	13
520.0	15
520.1	17
520.2	17
520.3	17
520.4	15
520.5	12
520.6	8
520.9	6
521.0	9
521.1	11
521.2	12
521.3	13
521.4	14
521.5	16
521.6	16
521.7	14
521.8	12
522.1	9
522.2	12
522.3	13
522.4	13
522.5	12
522.6	12
522.7	12
522.8	13
522.9	13
523.0	12
523.1	11
523.2	10
523.3	9
524.3	8
524.4	9
524.5	12
524.6	16
524.7	19
524.8	20
524.9	18
525.0	16
525.1	15
525.4	13
525.5	13
525.6	15
525.7	16
525.8	16
525.9	15
526.0	13
526.6	11
526.7	12
526.8	13
526.9	13
527.0	13
527.1	12
527.2	11
527.3	10
527.9	7
528.0	9
528.1	11
528.2	13
528.3	14
528.4	14
528.5	13
530.1	7
530.2	10
530.3	14
530.4	17
530.5	18
530.6	18
530.7	15
530.8	12
530.9	8
531.2	6
531.3	7
531.4	9
531.5	10
531.6	11
531.7	13
531.8	14
531.9	15
532.0	16
532.1	14
532.2	11
532.3	8
532.6	7
532.7	9
532.8	11
532.9	12
533.0	10
533.1	9
533.2	7
533.3	6
533.6	2
533.7	5
533.8	8
533.9	12
534.0	15
534.1	17
534.2	18
534.3	18
534.4	16
534.5	14
534.6	13
535.7	6
535.8	8
535.9	11
536.0	13
536.1	15
536.2	16
536.3	16
536.4	15
536.5	14
536.6	13
536.7	12
538.0	6
538.1	8
538.2	10
538.3	11
538.4	12
538.5	12
538.6	12
538.7	12
539.5	9
539.6	10
539.7	12
539.8	11
539.9	10
540.0	7
540.2	6
540.3	8
540.4	10
540.5	12
540.6	13
540.7	13
540.8	13
540.9	12
541.0	12
541.1	12
541.2	12
541.3	12
541.4	10
541.7	9
541.8	10
541.9	12
542.0	14
542.1	15
542.2	16
542.3	15
542.4	14
542.5	12
542.6	11
542.7	11
542.8	9
543.1	8
543.2	9
543.3	10
543.4	12
543.5	14
543.6	17
543.7	20
543.8	21
543.9	19
544.0	15
544.1	11
544.4	10
544.5	12
544.6	13
544.7	13
544.8	13
544.9	12
546.0	9
546.1	11
546.2	13
546.3	14
546.4	15
546.5	15
546.6	15
546.7	14
546.8	12
546.9	11
547.2	10
547.3	11
547.4	12
547.5	12
547.6	12
547.7	12
548.7	8
548.8	10
548.9	12
549.0	12
549.1	13
549.2	14
549.3	16
549.4	17
549.5	17
549.6	15
549.7	12
549.8	8
550.0	4
550.1	7
550.2	10
550.3	12
550.4	13
550.5	13
550.6	12
550.7	11
551.5	10
551.6	11
551.7	13
551.8	15
551.9	16
552.0	14
552.1	12
552.2	10
552.5	7
552.6	9
552.7	11
552.8	13
552.9	14
553.0	14
553.1	13
553.2	11
554.5	10
554.6	10
554.7	11
554.8	12
554.9	12
555.0	12
555.1	12
555.2	12
555.3	13
555.4	12
555.5	10
555.8	8
555.9	10
556.0	12
556.1	13
556.2	12
556.3	12
556.4	13
556.5	14
556.6	14
556.7	14
556.8	15
556.9	17
557.0	17
557.1	15
557.2	12
557.3	10
557.4	8
557.7	8
557.8	10
557.9	13
558.0	15
558.1	15
558.2	14
559.2	8
559.3	10
559.4	13
559.5	14
559.6	14
559.7	11
559.8	9
560.0	8
560.1	9
560.2	11
560.3	13
560.4	16
560.5	18
560.6	18
560.7	18
560.8	17
560.9	16
561.0	15
561.1	13
561.2	11
561.5	8
561.6	10
561.7	13
561.8	14
561.9	14
562.2	12
562.3	13
562.4	14
562.5	15
562.6	15
562.7	13
563.0	10
563.1	12
563.2	14
563.3	16
563.4	18
563.5	19
563.6	18
563.7	17
563.8	16
563.9	15
564.0	13
564.2	11
564.3	13
564.4	15
564.5	16
564.6	16
565.4	15
565.5	16
565.6	17
565.7	17
565.8	15
566.1	13
566.2	14
566.3	15
566.4	16
566.5	15
566.6	15
566.7	15
566.8	15
566.9	12
567.0	10
567.6	9
567.7	11
567.8	13
567.9	14
568.0	15
568.1	15
568.2	14
568.5	13
568.6	15
568.7	18
568.8	19
568.9	17
569.0	14
569.1	11
569.3	10
569.4	12
569.5	12
569.6	12
570.0	11
570.1	11
570.2	12
570.3	13
570.4	14
570.5	15
570.6	15
570.7	14
570.8	14
570.9	14
571.0	14
571.1	14
571.9	12
572.0	14
572.1	16
572.2	17
572.3	19
572.4	20
572.5	21
572.6	19
572.7	16
572.8	11
572.9	8
573.1	7
573.2	9
573.3	11
573.4	13
573.5	13
573.6	14
573.7	15
573.8	16
573.9	15
574.0	14
575.9	10
576.0	12
576.1	13
576.2	12
576.5	11
576.6	12
576.7	13
576.8	12
576.9	12
577.0	11
577.1	12
577.2	14
577.3	14
577.6	12
577.7	15
577.8	18
577.9	19
578.0	18
578.1	17
578.2	16
578.3	15
578.4	14
578.5	12
578.6	9
578.9	5
579.0	9
579.1	12
579.2	14
579.3	15
579.4	15
579.5	14
579.6	12
579.9	9
580.0	11
580.1	14
580.2	15
580.3	16
581.3	12
581.4	14
581.5	16
581.6	16
581.7	16
581.8	16
581.9	16
582.0	16
582.1	16
582.2	15
582.5	13
582.6	15
582.7	17
582.8	19
582.9	19
583.0	17
583.1	13
583.4	11
583.5	12
583.6	13
583.7	13
583.8	13
583.9	12
584.0	12
584.1	13
584.2	13
584.3	14
584.4	14
584.5	15
584.6	15
584.7	16
584.8	17
584.9	19
585.0	21
585.1	21
585.2	21
585.3	20
585.4	19
585.5	17
585.6	14
585.7	11
585.9	10
586.0	12
586.1	16
586.2	20
586.3	22
586.4	21
586.5	19
586.6	17
586.7	15
586.8	14
586.9	13
587.0	12
587.3	11
587.4	13
587.5	15
587.6	15
587.7	15
587.8	15
587.9	15
588.0	14
588.1	13
588.2	10
588.5	8
588.6	10
588.7	13
588.8	15
588.9	15
589.0	15
589.1	15
589.2	13
589.3	11
589.5	9
589.6	10
589.7	13
589.8	16
589.9	17
590.0	17
590.1	15
590.2	12
590.3	10
590.5	8
590.6	9
590.7	11
590.8	13
590.9	15
591.0	17
591.1	17
591.2	16
591.3	14
591.4	11
591.5	10
591.8	10
591.9	11
592.0	12
592.1	14
592.2	15
592.3	16
592.4	15
592.5	14
592.6	12
592.9	11
593.0	13
593.1	14
593.2	14
593.3	14
593.4	13
593.5	14
593.6	15
593.7	15
593.8	15
593.9	14
594.3	13
594.4	14
594.5	16
594.6	15
594.7	13
594.8	10
595.1	8
595.2	9
595.3	10
595.4	11
595.5	12
595.6	14
595.7	17
595.8	18
595.9	17
596.0	16
596.1	13
598.7	8
598.8	10
598.9	12
599.0	12
599.1	13
599.2	13
599.3	15
599.4	15
599.5	15
599.6	15
599.7	14
599.8	14
600.1	11
600.2	13
600.3	15
600.4	17
600.5	18
600.6	17
600.7	14
600.8	11
601.0	10
601.1	12
601.2	13
601.3	14
601.4	13
601.5	13
601.6	14
601.7	14
601.8	13
601.9	13
602.0	13
602.1	13
602.2	13
602.3	14
602.4	15
602.5	17
602.6	17
602.7	16
602.8	16
602.9	15
603.0	13
603.1	11
603.2	7
603.5	3
603.6	6
603.7	10
603.8	15
603.9	18
604.0	19
604.1	17
604.2	13
604.5	11
604.6	13
604.7	14
604.8	15
604.9	16
605.0	16
605.1	15
605.2	13
605.6	13
605.7	13
605.8	13
605.9	14
606.0	16
606.1	17
606.2	17
608.0	11
608.1	12
608.2	13
608.3	13
608.4	13
608.5	13
608.6	13
608.7	13
608.8	12
608.9	13
609.0	13
609.1	13
609.2	13
609.3	12
609.4	14
609.5	16
609.6	18
609.7	18
609.8	16
609.9	13
610.0	11
610.7	9
610.8	10
610.9	12
611.0	14
611.1	14
611.2	13
611.4	11
611.5	13
611.6	15
611.7	18
611.8	18
611.9	17
612.0	13
612.1	11
612.2	8
612.5	6
612.6	7
612.7	10
612.8	13
612.9	15
613.0	15
613.3	13
613.4	14
613.5	16
613.6	17
613.7	15
613.8	13
615.1	9
615.2	11
615.3	14
615.4	17
615.5	16
615.6	14
615.7	12
616.7	10
616.8	12
616.9	14
617.0	15
617.1	14
617.2	12
617.3	9
617.5	6
617.6	8
617.7	11
617.8	15
617.9	17
618.0	18
618.1	17
618.2	15
618.3	12
618.4	10
618.5	9
618.8	8
618.9	9
619.0	11
619.1	13
619.2	14
619.3	14
619.6	12
619.7	14
619.8	15
619.9	16
620.0	16
620.1	14
620.4	13
620.5	14
620.6	15
620.7	16
620.8	16
620.9	15
622.4	10
622.5	11
622.6	13
622.7	14
622.8	14
622.9	13
623.7	10
623.8	12
623.9	14
624.0	14
624.1	13
624.8	11
624.9	13
625.0	15
625.1	17
625.2	18
625.3	18
625.4	17
625.5	15
625.6	12
625.9	12
626.0	13
626.1	14
626.2	15
626.3	16
626.4	15
626.5	13
626.6	10
626.8	7
626.9	9
627.0	12
627.1	15
627.2	17
627.3	19
627.4	19
627.5	17
627.6	15
627.7	12
628.0	9
628.1	10
628.2	11
628.3	12
628.4	12
628.5	12
628.6	11
629.0	10
629.1	10
629.2	11
629.3	11
629.4	12
629.5	12
629.6	11
629.7	9
630.4	9
630.5	10
630.6	12
630.7	14
630.8	14
630.9	11
631.0	8
631.3	6
631.4	8
631.5	10
631.6	12
631.7	13
631.8	15
631.9	17
632.0	18
632.1	16
632.2	13
632.3	10
632.4	8
632.5	6
632.8	5
632.9	7
633.0	8
633.1	9
633.2	9
633.3	9
633.4	9
633.5	10
633.6	11
633.7	13
633.8	14
633.9	14
634.0	14
634.1	15
634.2	15
634.3	13
634.4	12
634.5	11
634.6	10
634.7	10
635.0	8
635.1	9
635.2	10
635.3	11
635.4	11
635.7	10
635.8	11
635.9	12
636.0	12
636.1	12
636.2	13
636.3	13
636.4	14
636.5	14
636.6	14
636.7	14
636.8	15
636.9	14
637.0	14
637.1	13
637.2	12
637.3	12
637.4	12
637.7	11
637.8	12
637.9	14
638.0	14
638.1	12
638.2	10
638.3	9
638.6	7
638.7	8
638.8	9
638.9	11
639.0	11
639.1	11
639.2	11
639.3	11
639.4	12
639.5	12
639.6	12
639.7	12
639.8	12
639.9	13
640.0	14
640.1	15
640.2	14
640.3	12
640.4	9
640.6	9
640.7	10
640.8	11
640.9	11
641.0	11
641.1	11
641.2	12
641.3	12
641.4	12
641.5	12
641.6	13
641.7	14
641.8	14
641.9	13
642.0	12
642.3	10
642.4	12
642.5	13
642.6	14
642.7	13
642.8	12
642.9	11
643.2	10
643.3	12
643.4	15
643.5	17
643.6	18
643.7	17
643.8	16
643.9	13
644.0	10
644.3	7
644.4	10
644.5	12
644.6	13
644.7	12
644.8	10
645.1	9
645.2	10
645.3	12
645.4	13
645.5	14
645.6	15
645.7	15
645.8	15
645.9	15
646.0	16
646.1	16
646.2	16
646.3	13
646.4	10
646.5	6
646.7	4
646.8	7
646.9	11
647.0	14
647.1	14
647.2	13
647.3	12
647.4	11
647.9	11
648.0	12
648.1	14
648.2	16
648.3	16
648.4	14
648.5	11
648.6	9
648.9	6
649.0	8
649.1	10
649.2	12
649.3	13
649.4	13
649.5	13
649.6	13
649.7	12
649.8	11
649.9	8
650.0	5
650.3	2
650.4	4
650.5	8
650.6	12
650.7	14
650.8	14
650.9	12
651.0	9
651.1	7
651.5	7
651.6	8
651.7	10
651.8	11
651.9	11
652.2	10
652.3	11
652.4	13
652.5	13
652.6	12
652.7	10
652.8	9
652.9	7
653.2	6
653.3	7
653.4	9
653.5	10
653.6	11
653.7	10
653.8	9
653.9	8
654.0	8
654.1	8
654.2	7
654.3	5
654.6	4
654.7	6
654.8	9
654.9	12
655.0	14
655.1	15
655.2	14
655.3	13
655.4	12
655.5	11
655.8	8
655.9	9
656.0	11
656.1	14
656.2	15
656.3	17
656.4	18
656.5	17
656.6	15
656.7	12
656.8	10
656.9	9
657.0	7
657.1	6
657.3	5
657.4	6
657.5	8
657.6	10
657.7	12
657.8	14
657.9	13
658.0	12
658.1	11
658.2	9
658.5	6
658.6	8
658.7	10
658.8	11
658.9	10
659.3	9
659.4	10
659.5	10
659.6	11
659.7	12
659.8	12
659.9	12
660.0	12
660.1	14
660.2	15
660.3	14
660.4	11
660.7	8
660.8	11
660.9	15
661.0	17
661.1	17
661.2	15
661.3	13
661.5	12
661.6	13
661.7	14
661.8	14
661.9	13
662.0	13
662.1	14
662.2	15
662.3	15
662.4	13
662.5	10
662.8	8
662.9	10
663.0	12
663.1	14
663.2	14
663.3	12
664.0	8
664.1	9
664.2	12
664.3	13
664.4	14
664.5	14
664.6	13
664.7	11
665.5	12
665.6	13
665.7	14
665.8	15
665.9	15
666.0	15
666.3	13
666.4	15
666.5	16
666.6	17
666.7	16
666.8	16
666.9	17
667.0	17
667.1	16
668.8	8
668.9	10
669.0	15
669.1	18
669.2	19
669.3	18
669.4	16
669.5	14
669.6	12
669.7	8
669.9	6
670.0	7
670.1	10
670.2	13
670.3	15
670.4	15
670.5	13
670.8	11
670.9	13
671.0	16
671.1	17
671.2	16
671.3	13
671.6	11
671.7	12
671.8	13
671.9	14
672.0	14
672.1	13
672.2	12
672.3	11
672.4	10
672.5	10
672.6	9
672.7	8
672.8	7
672.9	6
673.2	5
673.3	6
673.4	8
673.5	11
673.6	13
673.7	14
673.8	14
673.9	13
674.0	12
674.1	11
674.2	10
674.5	9
674.6	11
674.7	13
674.8	15
674.9	17
675.0	19
675.1	20
675.2	19
675.3	17
675.4	14
676.8	12
676.9	13
677.0	14
677.1	15
677.2	17
677.3	17
677.4	17
677.5	16
677.6	14
677.7	13
677.8	13
678.2	12
678.3	14
678.4	15
678.5	15
678.6	14
678.7	12
678.8	10
678.9	8
679.1	6
679.2	9
679.3	12
679.4	13
679.5	14
679.6	14
679.7	16
679.8	18
679.9	19
680.0	17
680.1	14
680.2	11
680.4	9
680.5	11
680.6	14
680.7	16
680.8	17
680.9	17
681.0	15
681.1	11
681.7	12
681.8	13
681.9	15
682.0	17
682.1	17
682.2	16
682.3	14
683.3	13
683.4	15
683.5	16
683.6	17
683.7	17
683.8	15
683.9	13
684.2	11
684.3	12
684.4	14
684.5	15
684.6	15
684.7	15
684.8	15
684.9	15
685.0	16
685.1	19
685.2	21
685.3	22
685.4	21
685.5	19
685.6	16
685.7	14
685.8	13
685.9	12
686.2	10
686.3	11
686.4	14
686.5	16
686.6	18
686.7	19
686.8	19
686.9	17
687.0	15
687.1	13
687.2	12
687.8	10
687.9	12
688.0	13
688.1	13
688.2	13
688.3	13
688.4	13
688.5	15
688.6	16
688.7	17
688.8	17
688.9	17
689.0	16
689.1	14
689.2	12
689.3	10
689.6	8
689.7	8
689.8	10
689.9	13
690.0	14
690.1	16
690.2	18
690.3	18
690.4	16
690.5	14
690.7	13
690.8	14
690.9	15
691.0	14
691.1	13
691.2	13
691.3	14
691.4	16
691.5	17
691.6	17
691.7	16
691.8	14
691.9	12
692.3	12
692.4	12
692.5	14
692.6	16
692.7	16
692.8	13
692.9	10
693.2	9
693.3	11
693.4	14
693.5	15
693.6	16
693.7	16
693.8	16
693.9	14
694.2	11
694.3	12
694.4	13
694.5	13
694.6	14
694.7	15
694.8	15
694.9	14
695.2	13
695.3	15
695.4	16
695.5	17
695.6	17
695.7	18
695.8	18
695.9	17
696.0	16
696.1	15
696.2	15
696.3	15
696.4	14
696.5	13
696.8	12
696.9	13
697.0	14
697.1	15
697.2	15
697.3	15
697.4	15
697.5	14
697.6	14
697.7	15
697.8	16
697.9	17
698.0	16
698.8	12
698.9	12
699.0	13
699.1	13
699.2	13
699.3	13
699.4	13
699.5	14
699.6	15
699.7	16
699.8	15
699.9	13
700.0	12
700.3	11
700.4	12
700.5	14
700.6	16
700.7	18
700.8	18
700.9	17
701.0	16
701.1	15
701.2	14
701.4	12
701.5	14
701.6	16
701.7	18
701.8	18
701.9	18
702.0	18
702.1	17
702.2	15
702.3	13
702.6	10
702.7	12
702.8	13
702.9	14
703.0	15
703.1	17
703.2	18
703.3	18
703.4	18
703.5	17
703.6	15
703.7	15
703.8	14
704.2	13
704.3	14
704.4	14
704.5	14
704.6	13
704.9	12
705.0	13
705.1	16
705.2	18
705.3	20
705.4	21
705.5	21
705.6	20
705.7	18
705.8	16
705.9	14
706.1	12
706.2	15
706.3	18
706.4	20
706.5	20
706.6	19
706.7	17
706.8	15
707.1	13
707.2	15
707.3	16
707.4	17
707.5	18
707.6	18
707.7	19
707.8	19
707.9	18
708.0	18
708.1	16
708.2	14
708.3	12
708.5	10
708.6	11
708.7	14
708.8	16
708.9	17
709.0	18
709.1	17
709.2	15
709.3	14
709.4	13
709.7	12
709.8	13
709.9	16
710.0	18
710.1	20
710.2	19
710.3	17
710.4	13
710.5	9
710.7	8
710.8	10
710.9	12
711.0	14
711.1	15
711.2	16
711.3	16
711.4	15
712.2	13
712.3	14
712.4	16
712.5	17
712.6	17
712.7	17
712.8	17
712.9	17
713.0	17
713.1	16
713.2	14
713.3	13
713.6	12
713.7	13
713.8	15
713.9	15
714.0	14
714.8	12
714.9	14
715.0	15
715.1	17
715.2	17
715.3	17
715.4	14
715.5	12
715.8	10
715.9	13
716.0	14
716.1	14
716.2	13
716.3	11
716.5	9
716.6	11
716.7	12
716.8	13
716.9	14
717.0	14
717.1	14
717.2	14
717.3	15
717.4	16
717.5	17
717.6	17
717.7	15
717.8	12
717.9	9
718.2	8
718.3	10
718.4	12
718.5	15
718.6	17
718.7	20
718.8	20
718.9	19
719.0	16
719.3	12
719.4	14
719.5	16
719.6	16
719.7	17
719.8	17
719.9	16
720.0	13
720.1	9
720.3	7
720.4	9
720.5	13
720.6	16
720.7	18
720.8	17
720.9	16
721.0	14
721.1	13
721.5	12
721.6	14
721.7	15
721.8	16
721.9	16
722.0	15
722.1	13
722.2	10
722.4	8
722.5	9
722.6	11
722.7	13
722.8	14
722.9	15
723.0	16
723.1	16
723.2	15
723.3	13
723.4	11
723.7	10
723.8	13
723.9	16
724.0	17
724.1	16
724.2	14
724.4	11
724.5	13
724.6	16
724.7	18
724.8	17
724.9	15
725.0	12
725.1	10
725.4	9
725.5	11
725.6	14
725.7	16
725.8	18
725.9	19
726.0	19
726.1	18
726.2	16
726.3	16
726.4	16
726.5	15
726.6	14
726.7	12
727.1	11
727.2	11
727.3	13
727.4	17
727.5	20
727.6	22
727.7	21
727.8	17
727.9	13
729.2	9
729.3	11
729.4	11
729.5	11
729.6	12
729.7	14
729.8	15
729.9	16
730.0	14
730.1	12
730.2	10
730.4	9
730.5	10
730.6	12
730.7	14
730.8	16
730.9	16
731.0	13
731.1	10
731.4	8
731.5	10
731.6	11
731.7	12
731.8	13
731.9	15
732.0	17
732.1	20
732.2	21
732.3	20
732.4	16
732.5	12
732.6	9
732.7	8
733.0	7
733.1	8
733.2	10
733.3	11
733.4	11
733.5	11
733.6	12
733.7	14
733.8	16
733.9	16
734.0	15
734.1	13
735.1	9
735.2	10
735.3	11
735.4	12
735.5	12
735.6	12
735.7	12
736.5	8
736.6	10
736.7	13
736.8	15
736.9	15
737.0	14
738.4	9
738.5	10
738.6	11
738.7	12
738.8	11
738.9	11
739.5	9
739.6	10
739.7	12
739.8	13
739.9	14
740.0	16
740.1	16
740.2	16
740.3	15
740.4	13
740.5	10
741.3	12
741.4	13
741.5	15
741.6	16
741.7	16
741.8	15
741.9	13
742.0	10
742.3	10
742.4	11
742.5	12
742.6	14
742.7	15
742.8	15
742.9	14
743.0	12
743.1	10
743.2	8
743.9	9
744.0	9
744.1	10
744.2	11
744.3	11
744.4	13
744.5	14
744.6	15
744.7	16
744.8	15
745.8	6
745.9	8
746.0	10
746.1	12
746.2	13
746.3	12
746.4	11
746.5	10
746.8	8
746.9	10
747.0	12
747.1	13
747.2	15
747.3	16
747.4	15
747.5	13
747.6	10
747.7	7
747.8	6
748.1	4
748.2	7
748.3	10
748.4	13
748.5	14
748.6	13
748.7	9
749.0	7
749.1	9
749.2	12
749.3	13
749.4	13
749.5	11
749.6	8
750.4	8
750.5	9
750.6	10
750.7	11
750.8	11
750.9	10
751.0	9
751.2	8
751.3	9
751.4	10
751.5	11
751.6	10
751.7	9
751.9	7
752.0	8
752.1	10
752.2	13
752.3	14
752.4	14
752.5	13
752.6	12
753.7	7
753.8	9
753.9	12
754.0	14
754.1	15
754.2	15
754.3	15
754.4	15
754.5	12
754.6	9
754.9	8
755.0	8
755.1	9
755.2	11
755.3	14
755.4	18
755.5	20
755.6	20
755.7	19
755.8	18
755.9	16
756.0	14
756.1	12
756.8	11
756.9	11
757.0	13
757.1	14
757.2	14
757.3	13
757.4	10
757.7	9
757.8	12
757.9	14
758.0	14
758.1	14
758.2	14
758.3	13
758.6	12
758.7	14
758.8	15
758.9	16
759.0	15
759.1	14
759.2	13
759.3	11
759.6	8
759.7	10
759.8	12
759.9	13
760.0	14
760.1	13
760.2	13
760.3	13
760.4	14
760.5	16
760.6	17
760.7	16
760.8	13
761.1	11
761.2	14
761.3	15
761.4	15
761.5	14
762.0	13
762.1	13
762.2	14
762.3	16
762.4	17
762.5	16
762.6	14
762.7	11
763.0	7
763.1	9
763.2	11
763.3	13
763.4	14
763.5	14
763.6	12
763.7	10
764.2	9
764.3	9
764.4	10
764.5	12
764.6	13
764.7	14
764.8	13
764.9	12
765.9	5
766.0	7
766.1	10
766.2	13
766.3	15
766.4	15
766.5	15
766.6	14
766.7	12
768.2	9
768.3	11
768.4	13
768.5	14
768.6	14
768.7	14
768.8	14
768.9	13
769.3	11
769.4	12
769.5	13
769.6	14
769.7	15
769.8	14
769.9	11
770.0	8
770.1	6
770.5	6
770.6	7
770.7	8
770.8	10
770.9	11
771.0	12
771.1	11
771.2	11
771.3	12
771.4	14
771.5	15
771.6	14
771.7	11
772.7	6
772.8	8
772.9	10
773.0	11
773.1	11
773.2	10
773.3	9
773.4	8
774.0	8
774.1	9
774.2	11
774.3	14
774.4	15
774.5	15
774.6	14
774.7	12
774.8	12
774.9	11
775.2	10
775.3	12
775.4	14
775.5	14
775.6	12
775.7	8
775.9	8
776.0	9
776.1	11
776.2	11
776.3	12
776.4	14
776.5	15
776.6	14
776.7	13
776.8	12
776.9	11
777.0	9
777.3	9
777.4	9
777.5	10
777.6	11
777.7	13
777.8	15
777.9	14
778.0	13
778.1	11
778.2	10
779.4	9
779.5	10
779.6	12
779.7	13
779.8	14
779.9	15
780.0	15
780.1	14
780.2	12
780.5	12
780.6	13
780.7	14
780.8	14
780.9	13
781.9	11
782.0	13
782.1	17
782.2	19
782.3	20
782.4	19
782.5	19
782.6	18
782.7	15
782.8	11
782.9	7
783.1	5
783.2	8
783.3	12
783.4	16
783.5	18
783.6	18
783.7	17
783.8	15
783.9	15
784.0	14
784.1	13
784.4	12
784.5	14
784.6	16
784.7	17
784.8	17
784.9	15
785.0	13
785.7	11
785.8	12
785.9	14
786.0	16
786.1	17
786.2	15
786.3	13
786.4	11
786.7	10
786.8	12
786.9	15
787.0	17
787.1	16
787.2	15
787.3	13
788.2	10
788.3	11
788.4	13
788.5	14
788.6	15
788.7	15
788.8	14
788.9	13
789.2	11
789.3	15
789.4	19
789.5	21
789.6	19
789.7	15
789.8	11
789.9	9
790.2	8
790.3	9
790.4	12
790.5	14
790.6	15
790.7	15
790.8	14
792.6	6
792.7	9
792.8	12
792.9	13
793.0	14
793.1	13
793.2	12
793.3	12
793.4	13
793.5	14
793.6	14
793.7	13
793.8	10
794.1	8
794.2	9
794.3	11
794.4	11
794.7	9
794.8	11
794.9	13
795.0	16
795.1	18
795.2	18
795.3	17
795.4	14
795.5	12
795.8	9
795.9	11
796.0	13
796.1	15
796.2	17
796.3	17
796.4	16
796.5	15
796.6	14
796.7	12
796.8	10
797.1	7
797.2	10
797.3	12
797.4	14
797.5	14
797.6	14
797.7	12
797.9	10
798.0	12
798.1	15
798.2	18
798.3	18
798.4	16
798.5	14
798.6	13
798.7	12
798.8	11
798.9	10
799.3	9
799.4	9
799.5	10
799.6	11
799.7	11
799.8	12
799.9	13
800.0	15
800.1	16
800.2	15
800.3	14
800.4	14
800.5	13
800.6	13
801.7	13
801.8	14
801.9	15
802.0	15
802.1	14
802.2	14
802.3	14
802.4	14
802.5	13
803.3	12
803.4	13
803.5	14
803.6	14
803.7	13
803.8	11
804.1	10
804.2	12
804.3	15
804.4	16
804.5	17
804.6	18
804.7	19
804.8	18
804.9	16
805.0	12
805.3	11
805.4	12
805.5	14
805.6	16
805.7	15
805.8	13
805.9	10
806.1	7
806.2	9
806.3	12
806.4	15
806.5	18
806.6	20
806.7	18
806.8	15
808.5	10
808.6	11
808.7	13
808.8	15
808.9	14
809.0	14
809.1	17
809.2	20
809.3	22
809.4	22
809.5	19
809.6	15
809.7	12
810.0	9
810.1	12
810.2	15
810.3	17
810.4	17
810.5	15
811.3	12
811.4	13
811.5	14
811.6	15
811.7	16
811.8	16
811.9	15
812.2	14
812.3	15
812.4	15
812.5	15
812.6	16
812.7	18
812.8	19
812.9	17
813.0	13
813.3	12
813.4	13
813.5	14
813.6	14
813.7	15
813.8	16
813.9	17
814.0	15
814.1	12
814.2	9
814.5	7
814.6	9
814.7	11
814.8	15
814.9	17
815.0	17
815.1	16
815.2	14
815.3	13
815.4	12
815.5	10
815.9	9
816.0	10
816.1	11
816.2	13
816.3	16
816.4	18
816.5	19
816.6	19
816.7	16
816.8	14
817.5	13
817.6	14
817.7	14
817.8	14
817.9	15
818.0	15
818.1	16
818.2	17
818.3	17
818.4	17
818.5	18
818.6	17
818.7	17
818.8	16
818.9	15
819.0	14
819.1	14
819.4	13
819.5	15
819.6	17
819.7	19
819.8	18
819.9	15
820.0	11
820.3	10
820.4	12
820.5	14
820.6	16
820.7	16
820.8	15
820.9	15
821.0	14
821.1	12
821.4	10
821.5	12
821.6	15
821.7	17
821.8	19
821.9	19
822.0	18
822.1	16
822.2	14
822.9	10
823.0	12
823.1	15
823.2	16
823.3	16
823.4	16
823.5	16
823.6	16
823.7	14
823.8	13
824.1	11
824.2	13
824.3	16
824.4	17
824.5	15
824.8	12
824.9	14
825.0	17
825.1	19
825.2	20
825.3	19
825.4	19
825.5	19
825.6	18
825.7	18
825.8	17
825.9	16
826.0	14
826.1	11
826.3	8
826.4	11
826.5	15
826.6	19
826.7	21
826.8	21
826.9	19
827.0	17
827.1	14
827.2	11
827.4	9
827.5	12
827.6	15
827.7	17
827.8	17
827.9	16
828.0	12
828.1	8
828.3	6
828.4	7
828.5	10
828.6	13
828.7	15
828.8	16
828.9	16
829.0	14
829.1	13
829.2	13
829.3	12
829.6	10
829.7	12
829.8	14
829.9	15
830.0	14
830.8	10
830.9	12
831.0	14
831.1	15
831.2	15
831.3	15
831.4	13
831.5	11
831.8	9
831.9	10
832.0	12
832.1	15
832.2	17
832.3	18
832.4	17
832.5	15
832.6	13
833.6	9
833.7	12
833.8	15
833.9	17
834.0	18
834.1	16
834.2	14
835.2	7
835.3	8
835.4	12
835.5	15
835.6	17
835.7	17
835.8	16
835.9	16
836.0	17
836.1	17
836.2	16
836.3	14
836.4	11
836.5	9
836.8	8
836.9	10
837.0	12
837.1	14
837.2	15
837.3	15
837.4	15
837.5	14
837.6	13
837.7	12
837.8	12
838.2	11
838.3	13
838.4	14
838.5	14
838.6	14
838.7	14
838.8	14
840.0	10
840.1	12
840.2	15
840.3	18
840.4	18
840.5	15
840.6	11
840.9	10
841.0	12
841.1	13
841.2	14
841.3	15
841.4	15
841.5	15
841.6	15
841.7	16
841.8	17
841.9	17
842.0	16
842.1	14
842.2	12
842.5	10
842.6	12
842.7	14
842.8	15
842.9	15
843.0	15
843.1	14
843.2	12
843.3	9
843.4	6
843.6	4
843.7	7
843.8	9
843.9	11
844.0	12
844.1	12
844.2	13
844.3	15
844.4	17
844.5	18
844.6	17
844.7	14
845.0	11
845.1	14
845.2	17
845.3	19
845.4	20
845.5	19
845.6	17
845.7	15
845.8	12
846.1	11
846.2	13
846.3	14
846.4	15
846.5	14
846.6	13
846.7	12
847.0	11
847.1	12
847.2	15
847.3	16
847.4	17
847.5	17
847.6	16
847.7	15
847.8	14
847.9	12
848.7	8
848.8	10
848.9	12
849.0	13
849.1	14
849.2	14
849.3	13
849.6	12
849.7	13
849.8	15
849.9	17
850.0	18
850.1	16
850.2	13
850.4	10
850.5	12
850.6	16
850.7	18
850.8	18
852.1	7
852.2	9
852.3	12
852.4	17
852.5	19
852.6	20
852.7	19
852.8	18
852.9	15
853.0	12
853.3	10
853.4	13
853.5	15
853.6	16
853.7	16
853.8	14
853.9	11
854.0	9
854.2	7
854.3	9
854.4	12
854.5	15
854.6	17
854.7	18
854.8	17
854.9	14
855.0	11
855.1	9
855.4	8
855.5	10
855.6	12
855.7	14
855.8	16
855.9	17
856.0	16
856.1	14
856.2	11
856.4	9
856.5	11
856.6	14
856.7	15
856.8	16
856.9	16
857.0	16
857.1	15
857.2	14
857.3	12
858.5	11
858.6	12
858.7	13
858.8	13
858.9	11
859.1	8
859.2	10
859.3	13
859.4	15
859.5	14
859.6	11
859.7	8
859.8	6
860.1	6
860.2	8
860.3	11
860.4	14
860.5	15
860.6	15
860.7	12
860.8	9
861.3	11
861.4	10
861.5	11
861.6	13
861.7	16
861.8	18
861.9	18
862.0	16
862.1	15
862.2	14
864.0	10
864.1	11
864.2	12
864.3	12
864.6	11
864.7	12
864.8	14
864.9	14
865.0	14
865.1	12
865.4	9
865.5	11
865.6	12
865.7	14
865.8	14
865.9	14
866.0	13
866.1	13
866.2	15
866.3	18
866.4	19
866.5	19
866.6	16
866.7	12
867.0	11
867.1	12
867.2	14
867.3	14
867.4	14
867.5	15
867.6	15
867.7	14
867.8	12
868.1	8
868.2	11
868.3	13
868.4	14
868.5	13
868.6	12
869.5	10
869.6	10
869.7	11
869.8	12
869.9	13
870.0	13
870.1	13
870.2	12
870.5	10
870.6	11
870.7	12
870.8	14
870.9	14
871.0	13
871.1	11
871.2	8
871.4	6
871.5	9
871.6	11
871.7	12
871.8	11
872.1	10
872.2	11
872.3	13
872.4	14
872.5	12
872.6	10
872.7	7
873.0	4
873.1	7
873.2	10
873.3	11
873.4	11
873.5	9
873.6	6
873.8	5
873.9	6
874.0	8
874.1	11
874.2	13
874.3	15
874.4	15
874.5	15
874.6	14
876.9	10
877.0	11
877.1	12
877.2	11
877.5	9
877.6	11
877.7	12
877.8	13
877.9	13
878.0	13
878.1	13
878.2	13
878.3	12
878.4	10
878.5	6
878.7	5
878.8	6
878.9	9
879.0	11
879.1	12
879.2	11
879.3	10
879.4	9
879.5	8
879.6	7
879.9	4
880.0	6
880.1	8
880.2	10
880.3	12
880.4	13
880.5	14
880.6	13
880.7	11
880.8	8
881.0	6
881.1	8
881.2	11
881.3	14
881.4	16
881.5	16
881.6	15
881.7	14
881.8	12
882.8	5
882.9	7
883.0	10
883.1	11
883.2	12
883.3	13
883.4	14
883.5	15
883.6	14
884.5	10
884.6	11
884.7	12
884.8	13
884.9	12
885.0	9
885.3	8
885.4	9
885.5	9
885.6	10
885.7	11
885.8	14
885.9	15
886.0	15
886.1	13
886.2	12
887.0	8
887.1	11
887.2	15
887.3	17
887.4	17
887.5	14
887.6	11
887.7	8
887.9	7
888.0	9
888.1	10
888.2	10
888.3	10
888.4	9
888.5	9
888.6	10
888.7	10
888.8	11
888.9	10
889.2	8
889.3	10
889.4	12
889.5	12
889.6	11
889.7	12
889.8	13
889.9	14
890.0	14
890.1	13
890.2	11
890.3	7
891.0	6
891.1	7
891.2	10
891.3	12
891.4	14
891.5	14
891.6	12
892.9	8
893.0	11
893.1	14
893.2	15
893.3	13
893.4	11
893.5	9
893.9	9
894.0	9
894.1	11
894.2	13
894.3	16
894.4	18
894.5	19
894.6	18
894.7	15
894.8	11
894.9	7
895.2	6
895.3	8
895.4	10
895.5	11
895.6	13
895.7	13
895.8	12
896.1	11
896.2	12
896.3	13
896.4	16
896.5	19
896.6	19
896.7	16
896.8	13
897.3	11
897.4	12
897.5	13
897.6	14
897.7	15
897.8	15
897.9	15
898.0	15
898.1	14
898.2	12
899.1	11
899.2	12
899.3	13
899.4	14
899.8	13
899.9	14
900.0	16
900.1	16
900.2	13
900.3	9
900.6	7
900.7	9
900.8	10
900.9	10
901.0	12
901.1	15
901.2	19
901.3	21
901.4	22
901.5	20
901.6	16
901.7	11
902.0	8
902.1	11
902.2	15
902.3	18
902.4	19
902.5	17
902.6	14
902.7	12
903.0	10
903.1	11
903.2	13
903.3	15
903.4	17
903.5	17
903.6	16
903.7	15
903.8	16
903.9	16
904.0	15
904.1	14
904.6	12
904.7	13
904.8	15
904.9	17
905.0	17
905.1	17
905.2	16
905.3	14
905.4	12
905.5	10
905.7	9
905.8	10
905.9	11
906.0	13
906.1	13
906.2	14
906.3	14
906.4	15
906.5	14
906.6	12
906.8	11
906.9	12
907.0	14
907.1	16
907.2	16
907.3	14
907.4	13
907.5	13
907.6	12
907.7	12
907.8	11
907.9	10
908.2	9
908.3	11
908.4	13
908.5	16
908.6	18
908.7	20
908.8	20
908.9	19
909.0	18
909.1	17
909.2	15
909.3	12
909.6	9
909.7	11
909.8	13
909.9	15
910.0	15
910.1	14
910.4	12
910.5	14
910.6	16
910.7	18
910.8	18
910.9	17
911.0	17
911.1	15
911.2	14
911.3	12
911.4	9
911.6	7
911.7	9
911.8	12
911.9	15
912.0	17
912.1	18
912.2	16
912.3	14
912.6	12
912.7	13
912.8	13
912.9	13
913.0	12
913.1	11
913.2	9
913.4	7
913.5	9
913.6	10
913.7	11
913.8	13
913.9	14
914.0	16
914.1	17
914.2	16
914.3	14
914.4	11
914.7	8
914.8	9
914.9	12
915.0	14
915.1	15
915.2	15
915.3	14
915.4	13
915.5	12
915.8	11
915.9	13
916.0	14
916.1	13
916.2	13
916.3	13
916.4	14
916.5	15
916.6	16
916.7	16
916.8	16
916.9	14
917.6	13
917.7	14
917.8	15
917.9	15
918.0	15
918.1	16
918.2	15
918.3	14
918.4	11
918.7	7
918.8	12
918.9	17
919.0	20
919.1	20
919.2	17
919.3	13
919.6	11
919.7	14
919.8	17
919.9	19
920.0	19
920.1	17
920.2	14
920.6	13
920.7	13
920.8	15
920.9	17
921.0	19
921.1	20
921.2	20
921.3	20
921.4	18
921.5	15
921.6	12
921.9	8
922.0	11
922.1	15
922.2	18
922.3	20
922.4	19
922.5	17
922.6	15
922.9	15
923.0	16
923.1	17
923.2	17
923.3	18
923.4	19
923.5	19
923.6	17
923.7	15
923.8	14
924.2	13
924.3	14
924.4	15
924.5	15
924.6	15
924.7	15
924.8	14
924.9	14
925.0	15
925.1	16
925.2	17
925.3	17
925.4	16
925.5	16
925.6	16
925.7	17
925.8	18
925.9	18
926.0	17
926.1	16
926.2	16
926.3	14
926.5	11
926.6	13
926.7	17
926.8	20
926.9	21
927.0	21
927.1	20
927.2	18
927.3	16
927.4	14
927.6	12
927.7	13
927.8	16
927.9	19
928.0	19
928.1	17
928.2	15
928.3	14
928.4	13
928.8	11
928.9	12
929.0	14
929.1	16
929.2	18
929.3	18
929.4	16
929.5	15
929.6	13
930.9	10
931.0	12
931.1	15
931.2	18
931.3	19
931.4	17
931.5	14
931.6	11
931.9	10
932.0	11
932.1	14
932.2	16
932.3	18
932.4	18
933.7	8
933.8	10
933.9	13
934.0	14
934.1	15
934.2	15
934.3	15
934.4	15
934.5	13
934.8	11
934.9	12
935.0	13
935.1	14
935.2	15
935.3	14
935.4	12
935.5	10
935.8	10
935.9	10
936.0	11
936.1	13
936.2	14
936.3	14
936.4	14
936.5	14
936.6	13
936.7	13
936.8	14
936.9	15
937.0	17
937.1	17
937.2	16
937.3	15
937.4	14
938.8	11
938.9	12
939.0	13
939.1	13
939.2	13
939.6	12
939.7	13
939.8	14
939.9	15
940.0	13
940.3	11
940.4	13
940.5	16
940.6	18
940.7	19
940.8	18
940.9	16
941.0	15
941.1	13
941.2	12
941.3	11
941.7	10
941.8	11
941.9	12
942.0	14
942.1	15
942.2	15
942.3	14
942.4	13
942.5	14
942.6	15
942.7	16
942.8	16
942.9	15
943.0	13
943.8	10
943.9	11
944.0	13
944.1	15
944.2	18
944.3	19
944.4	20
944.5	20
944.6	19
944.7	18
944.8	16
944.9	15
945.2	12
945.3	13
945.4	15
945.5	16
945.6	15
945.7	13
945.9	12
946.0	13
946.1	15
946.2	16
946.3	16
946.4	14
946.6	12
946.7	13
946.8	16
946.9	18
947.0	19
947.1	19
947.2	18
947.3	17
947.4	15
947.5	13
947.8	11
947.9	14
948.0	16
948.1	18
948.2	18
949.1	8
949.2	13
949.3	17
949.4	19
949.5	18
949.6	16
949.7	13
949.8	10
950.0	10
950.1	11
950.2	12
950.3	12
950.4	13
950.5	15
950.6	17
950.7	17
950.8	16
950.9	16
951.0	17
951.1	17
951.2	18
951.3	18
951.4	17
951.5	16
951.6	13
951.7	11
951.8	10
951.9	10
952.4	8
952.5	10
952.6	13
952.7	17
952.8	20
952.9	21
953.0	20
953.1	18
953.2	16
953.3	14
954.5	8
954.6	9
954.7	10
954.8	11
954.9	13
955.0	15
955.1	16
955.2	15
955.3	14
955.4	14
955.5	13
955.6	12
955.9	11
956.0	12
956.1	13
956.2	13
956.3	13
956.4	15
956.5	16
956.6	17
956.7	16
956.8	15
956.9	14
957.7	10
957.8	11
957.9	13
958.0	16
958.1	18
958.2	20
958.3	20
958.4	19
958.5	17
958.6	14
958.7	12
959.0	10
959.1	11
959.2	12
959.3	13
959.4	14
959.5	14
959.6	15
959.7	15
959.8	14
959.9	12
960.0	11
960.1	10
960.4	9
960.5	11
960.6	13
960.7	16
960.8	18
960.9	20
961.0	21
961.1	21
961.2	18
961.3	15
961.6	14
961.7	15
961.8	16
961.9	16
962.0	15
962.1	14
962.2	13
962.3	11
962.4	9
962.6	8
962.7	9
962.8	11
962.9	13
963.0	14
963.1	15
963.2	15
963.3	16
963.4	16
963.5	14
963.6	12
963.9	8
964.0	11
964.1	13
964.2	15
964.3	16
964.4	16
964.5	16
964.6	14
964.7	12
965.0	11
965.1	12
965.2	14
965.3	16
965.4	17
965.5	16
965.6	14
965.7	12
965.8	10
965.9	9
966.2	8
966.3	10
966.4	11
966.5	10
966.6	10
966.7	11
966.8	13
966.9	15
967.0	17
967.1	18
967.2	19
967.3	19
967.4	20
967.5	20
967.6	19
967.7	19
967.8	18
967.9	17
968.0	15
968.1	12
968.2	10
968.3	9
968.6	8
968.7	10
968.8	11
968.9	11
969.0	10
969.2	8
969.3	9
969.4	12
969.5	13
969.6	12
969.7	10
969.9	9
970.0	11
970.1	13
970.2	14
970.3	13
970.4	11
970.5	9
970.8	8
970.9	10
971.0	11
971.1	12
971.2	13
971.3	13
971.4	13
971.5	13
971.6	12
971.7	11
971.8	10
972.1	10
972.2	11
972.3	11
972.4	11
972.5	11
972.6	10
972.7	11
972.8	13
972.9	14
973.0	12
973.1	10
973.4	8
973.5	10
973.6	11
973.7	12
973.8	12
973.9	12
974.0	12
974.1	12
974.2	10
974.3	7
974.4	4
974.6	3
974.7	5
974.8	9
974.9	12
975.0	15
975.1	15
975.2	14
975.3	11
975.6	9
975.7	10
975.8	11
975.9	12
976.0	12
976.1	13
976.2	13
976.3	13
976.6	11
976.7	12
976.8	14
976.9	16
977.0	17
977.1	16
977.2	13
977.3	10
977.6	8
977.7	9
977.8	9
977.9	9
978.0	9
978.1	10
978.2	12
978.3	13
978.4	13
978.5	11
978.6	9
978.7	6
978.8	5
979.0	4
979.1	5
979.2	7
979.3	10
979.4	12
979.5	13
979.6	12
979.7	11
979.8	9
980.1	7
980.2	9
980.3	12
980.4	14
980.5	14
981.4	7
981.5	9
981.6	10
981.7	12
981.8	13
981.9	13
982.0	13
982.9	11
983.0	13
983.1	15
983.2	15
983.3	13
983.4	10
983.7	8
983.8	10
983.9	12
984.0	14
984.1	14
984.2	14
984.3	13
984.4	11
984.9	11
985.0	11
985.1	11
985.2	12
985.3	13
985.4	13
985.5	13
985.6	13
985.7	15
985.8	17
985.9	17
986.0	14
986.1	11
986.4	9
986.5	11
986.6	13
986.7	15
986.8	16
986.9	16
987.0	16
987.1	15
987.4	14
987.5	14
987.6	15
987.7	17
987.8	17
987.9	16
988.0	12
988.1	8
988.4	5
988.5	7
988.6	8
988.7	11
988.8	14
988.9	16
989.0	17
989.1	15
989.2	14
989.3	12
989.4	11
989.7	9
989.8	11
989.9	13
990.0	15
990.1	15
990.2	14
990.3	11
990.4	8
990.5	5
990.8	4
990.9	6
991.0	8
991.1	11
991.2	14
991.3	15
991.4	15
991.5	14
991.6	12
991.7	11
991.8	9
992.2	9
992.3	10
992.4	11
992.5	12
992.6	12
992.7	11
992.8	10
994.1	7
994.2	8
994.3	10
994.4	12
994.5	14
994.6	15
994.7	16
994.8	15
994.9	14
995.0	11
995.1	10
995.3	9
995.4	10
995.5	11
995.6	13
995.7	14
995.8	13
995.9	11
996.0	9
996.3	8
996.4	10
996.5	13
996.6	15
996.7	16
996.8	16
996.9	15
997.0	15
997.1	14
997.2	13
997.3	12
997.7	11
997.8	12
997.9	13
998.0	16
998.1	17
998.2	16
998.3	13
998.4	9
998.5	6
998.7	5
998.8	7
998.9	8
999.0	8
999.1	7
999.2	7
999.3	7
999.4	9
999.5	11
999.6	11
999.7	11
999.8	11
999.9	12
1000.0	13
1000.1	13
1000.2	12
1001.1	11
1001.2	12
1001.3	13
1001.4	13
1001.5	13
1001.6	14
1001.7	15
1001.8	14
1001.9	13
1002.0	11
1002.1	10
1002.2	9
1002.5	7
1002.6	9
1002.7	12
1002.8	15
1002.9	16
1003.0	15
1003.1	13
1003.8	9
1003.9	10
1004.0	11
1004.1	10
1004.2	10
1004.3	9
1004.6	8
1004.7	9
1004.8	11
1004.9	12
1005.0	14
1005.1	14
1005.2	15
1005.3	15
1005.4	15
1005.5	14
1005.6	13
1005.7	11
1006.0	10
1006.1	11
1006.2	12
1006.3	13
1006.4	13
1006.5	12
1006.6	13
1006.7	14
1006.8	15
1006.9	16
1007.0	16
1007.1	14
1007.2	12
1008.1	10
1008.2	11
1008.3	13
1008.4	17
1008.5	19
1008.6	19
1008.7	17
1008.8	14
1008.9	12
1009.2	9
1009.3	12
1009.4	16
1009.5	18
1009.6	18
1009.7	16
1009.8	13
1010.7	9
1010.8	11
1010.9	13
1011.0	15
1011.1	15
1011.2	14
1011.3	12
1012.3	13
1012.4	14
1012.5	14
1012.6	14
1012.7	14
1012.8	13
1012.9	11
1013.2	9
1013.3	11
1013.4	13
1013.5	13
1013.6	12
1013.7	12
1013.8	13
1013.9	14
1014.0	13
1014.1	11
1014.3	10
1014.4	11
1014.5	13
1014.6	14
1014.7	15
1014.8	14
1014.9	14
1015.0	14
1015.1	13
1015.2	13
1015.3	12
1015.4	10
1015.5	9
1015.9	8
1016.0	9
1016.1	11
1016.2	12
1016.3	11
1016.6	10
1016.7	12
1016.8	15
1016.9	17
1017.0	17
1017.1	17
1017.2	15
1017.3	13
1017.6	12
1017.7	13
1017.8	14
1017.9	15
1018.0	15
1018.1	13
1018.2	12
1018.3	9
1018.5	7
1018.6	9
1018.7	11
1018.8	10
1019.1	8
1019.2	9
1019.3	11
1019.4	12
1019.5	13
1019.6	14
1019.7	15
1019.8	14
1019.9	13
1020.0	13
1020.1	14
1020.2	15
1020.3	15
1020.4	14
1020.5	12
1020.7	10
1020.8	12
1020.9	14
1021.0	16
1021.1	15
1021.2	14
1021.3	12
1022.3	11
1022.4	13
1022.5	15
1022.6	16
1022.7	16
1022.8	17
1022.9	17
1023.0	16
1023.1	14
1023.2	13
1023.3	12
1023.6	11
1023.7	12
1023.8	14
1023.9	17
1024.0	18
1024.1	16
1024.2	13
1024.3	10
1024.6	10
1024.7	11
1024.8	13
1024.9	16
1025.0	19
1025.1	22
1025.2	22
1025.3	21
1025.4	17
1025.5	13
1025.7	11
1025.8	13
1025.9	15
1026.0	17
1026.1	18
1026.2	17
1026.3	16
1026.4	14
1026.5	13
1027.4	12
1027.5	13
1027.6	16
1027.7	17
1027.8	16
1027.9	13
1028.2	11
1028.3	12
1028.4	14
1028.5	16
1028.6	16
1028.7	16
1028.8	15
1028.9	13
1029.0	11
1029.3	11
1029.4	12
1029.5	13
1029.6	14
1029.7	14
1029.8	14
1029.9	12
1030.0	9
1030.1	7
1030.4	7
1030.5	9
1030.6	11
1030.7	13
1030.8	15
1030.9	15
1031.0	14
1031.1	13
1031.2	11
1031.5	8
1031.6	9
1031.7	11
1031.8	12
1031.9	12
1032.0	13
1032.1	14
1032.2	14
1032.3	11
1032.5	8
1032.6	11
1032.7	13
1032.8	14
1032.9	14
1033.0	14
1033.1	15
1033.2	17
1033.3	18
1033.4	17
1033.5	15
1033.6	12
1034.0	10
1034.1	10
1034.2	11
1034.3	14
1034.4	17
1034.5	18
1034.6	17
1034.7	15
1034.8	13
1034.9	11
1035.2	7
1035.3	10
1035.4	14
1035.5	18
1035.6	20
1035.7	20
1035.8	18
1035.9	15
1036.0	13
1036.1	12
1036.5	11
1036.6	12
1036.7	14
1036.8	16
1036.9	17
1037.0	16
1037.1	13
1037.4	11
1037.5	14
1037.6	17
1037.7	19
1037.8	21
1037.9	22
1038.0	21
1038.1	18
1038.2	15
1038.3	11
1038.5	9
1038.6	10
1038.7	12
1038.8	15
1038.9	16
1039.0	17
1039.1	17
1039.2	16
1039.3	14
1039.4	12
1039.5	11
1039.8	10
1039.9	11
1040.0	13
1040.1	16
1040.2	18
1040.3	19
1040.4	17
1040.5	14
1040.9	13
1041.0	14
1041.1	15
1041.2	17
1041.3	17
1041.4	16
1041.5	13
1041.8	11
1041.9	13
1042.0	15
1042.1	18
1042.2	19
1042.3	20
1042.4	20
1042.5	20
1042.6	20
1042.7	20
1042.8	19
1042.9	18
1043.0	17
1043.1	16
1043.2	14
1043.5	12
1043.6	13
1043.7	15
1043.8	17
1043.9	18
1044.0	17
1044.1	16
1044.2	16
1044.3	14
1044.5	13
1044.6	14
1044.7	17
1044.8	19
1044.9	19
1045.9	15
1046.0	17
1046.1	19
1046.2	20
1046.3	20
1046.4	20
1046.5	19
1046.6	17
1046.7	14
1046.8	12
1047.1	11
1047.2	13
1047.3	16
1047.4	18
1047.5	18
1047.6	17
1047.7	15
1048.0	14
1048.1	16
1048.2	17
1048.3	17
1048.4	15
1049.5	11
1049.6	12
1049.7	13
1049.8	14
1049.9	13
1050.0	12
1050.2	11
1050.3	12
1050.4	14
1050.5	16
1050.6	18
1050.7	18
1050.8	17
1050.9	17
1051.0	16
1051.1	14
1051.2	12
1051.3	9
1051.8	8
1051.9	10
1052.0	12
1052.1	15
1052.2	17
1052.3	18
1052.4	16
1052.5	13
1052.8	11
1052.9	12
1053.0	14
1053.1	17
1053.2	18
1053.3	18
1053.4	16
1053.5	15
1053.6	13
1053.7	12
1054.0	10
1054.1	12
1054.2	13
1054.3	14
1054.4	13
1054.5	12
1054.6	12
1054.7	11
1054.8	9
1055.1	8
1055.2	9
1055.3	11
1055.4	12
1055.5	12
1055.6	11
1055.7	11
1055.8	11
1055.9	12
1056.0	12
1056.1	13
1056.2	14
1056.3	15
1056.4	16
1056.5	16
1056.6	14
1056.7	11
1056.8	9
1057.0	8
1057.1	9
1057.2	11
1057.3	14
1057.4	15
1057.5	15
1057.6	15
1057.7	14
1057.8	14
1057.9	15
1058.0	16
1058.1	17
1058.2	16
1058.3	13
1058.4	9
1058.6	6
1058.7	8
1058.8	13
1058.9	17
1059.0	19
1059.1	18
1059.2	15
1059.3	14
1059.4	14
1059.5	13
1059.6	10
1059.8	8
1059.9	10
1060.0	14
1060.1	18
1060.2	21
1060.3	20
1060.4	17
1060.5	13
1060.9	12
1061.0	12
1061.1	14
1061.2	14
1061.3	14
1061.4	14
1062.2	13
1062.3	15
1062.4	16
1062.5	17
1063.4	11
1063.5	13
1063.6	15
1063.7	18
1063.8	19
1063.9	21
1064.0	21
1064.1	21
1064.2	20
1064.3	17
1064.4	14
1064.5	11
1065.5	0
1065.6	1
1065.7	5
1065.8	11
1065.9	15
1066.0	17
1066.1	17
1066.2	16
1067.8	12
1067.9	14
1068.0	15
1068.1	16
1068.2	16
1068.3	16
1068.4	16
1068.5	16
1068.6	15
1068.7	13
1068.8	10
1069.1	7
1069.2	9
1069.3	11
1069.4	13
1069.5	15
1069.6	16
1069.7	15
1069.8	13
1070.0	11
1070.1	13
1070.2	14
1070.3	15
1070.4	16
1070.5	16
1070.6	15
1070.7	14
1070.8	13
1070.9	11
1071.0	9
1071.1	7
1071.4	6
1071.5	9
1071.6	11
1071.7	13
1071.8	13
1071.9	12
1072.0	11
1072.1	12
1072.2	12
1072.3	13
1072.4	13
1072.5	14
1072.6	14
1072.7	15
1072.8	15
1072.9	14
1073.0	13
1073.1	11
1073.4	9
1073.5	11
1073.6	12
1073.7	13
1073.8	13
1073.9	12
1074.0	11
1074.8	10
1074.9	12
1075.0	14
1075.1	16
1075.2	17
1075.3	17
1075.4	16
1075.5	15
1075.6	13
1075.7	12
1075.8	11
1076.6	10
1076.7	11
1076.8	13
1076.9	14
1077.0	14
1077.1	15
1077.2	15
1077.3	14
1077.4	13
1077.7	10
1077.8	13
1077.9	16
1078.0	18
1078.1	17
1078.2	15
1078.3	13
1079.7	5
1079.8	8
1079.9	12
1080.0	16
1080.1	18
1080.2	18
1080.3	16
1080.4	14
1081.0	12
1081.1	14
1081.2	16
1081.3	17
1081.4	18
1081.5	18
1081.6	17
1081.7	15
1081.8	12
1082.0	10
1082.1	11
1082.2	14
1082.3	17
1082.4	17
1082.5	13
1082.6	8
1083.3	10
1083.4	11
1083.5	13
1083.6	15
1083.7	14
1083.8	11
1084.1	9
1084.2	10
1084.3	11
1084.4	13
1084.5	16
1084.6	17
1084.7	17
1084.8	15
1084.9	14
1085.0	14
1085.1	13
1085.2	12
1085.4	10
1085.5	11
1085.6	15
1085.7	17
1085.8	18
1085.9	18
1086.0	16
1086.1	13
1086.2	11
1086.7	10
1086.8	11
1086.9	14
1087.0	16
1087.1	17
1087.2	16
1087.3	13
1089.1	7
1089.2	9
1089.3	13
1089.4	17
1089.5	19
1089.6	20
1089.7	17
1089.8	14
1089.9	10
1090.3	8
1090.4	9
1090.5	11
1090.6	13
1090.7	13
1090.8	11
1091.1	10
1091.2	12
1091.3	12
1091.4	12
1091.5	13
1091.6	14
1091.7	15
1091.8	13
1091.9	11
1092.0	9
1092.3	8
1092.4	10
1092.5	15
1092.6	18
1092.7	19
1092.8	18
1092.9	15
1093.0	13
1093.1	11
1093.2	9
1093.5	7
1093.6	9
1093.7	11
1093.8	13
1093.9	15
1094.0	15
1094.1	13
1094.2	11
1094.6	9
1094.7	10
1094.8	11
1094.9	13
1095.0	15
1095.1	16
1095.2	16
1095.3	14
1095.4	12
1095.9	11
1096.0	12
1096.1	13
1096.2	15
1096.3	15
1096.4	12
1096.5	9
1096.6	5
1096.8	3
1096.9	5
1097.0	8
1097.1	11
1097.2	12
1097.3	13
1097.4	15
1097.5	16
1097.6	16
1097.7	13
1097.8	9
1097.9	7
1098.2	7
1098.3	8
1098.4	8
1098.5	9
1098.6	11
1098.7	12
1098.8	13
1098.9	14
1099.0	13
1099.1	12
1099.2	11
1099.3	8
1099.4	6
1099.6	5
1099.7	6
1099.8	8
1099.9	11
1100.0	14
1100.1	16
1100.2	14
1100.3	12
1100.7	11
1100.8	11
1100.9	12
1101.0	13
1101.1	14
1101.2	14
1101.3	12
1101.4	9
1101.6	7
1101.7	9
1101.8	11
1101.9	11
1102.0	11
1102.1	11
1102.2	12
1102.3	14
1102.4	15
1102.5	16
1102.6	16
1102.7	15
1102.8	13
1105.2	6
1105.3	7
1105.4	8
1105.5	10
1105.6	12
1105.7	14
1105.8	14
1105.9	14
1106.0	12
1106.1	9
1106.4	7
1106.5	9
1106.6	10
1106.7	12
1106.8	12
1106.9	13
1107.0	13
1107.1	13
1107.2	12
1107.3	10
1107.5	7
1107.6	9
1107.7	12
1107.8	15
1107.9	17
1108.0	17
1108.1	15
1110.0	7
1110.1	10
1110.2	12
1110.3	13
1110.4	13
1112.1	6
1112.2	7
1112.3	9
1112.4	11
1112.5	12
1112.6	12
1112.7	13
1112.8	13
1112.9	14
1113.0	15
1113.1	14
1113.2	13
1113.3	11
1113.4	9
1113.6	7
1113.7	9
1113.8	11
1113.9	13
1114.0	13
1114.1	13
1114.2	11
1114.3	9
1114.4	6
1114.6	4
1114.7	6
1114.8	9
1114.9	12
1115.0	14
1115.1	15
1115.2	14
1115.3	12
1115.4	10
1115.5	9
1115.6	8
1115.9	5
1116.0	8
1116.1	10
1116.2	12
1116.3	13
1116.4	13
1116.5	11
1116.6	9
1116.9	7
1117.0	9
1117.1	11
1117.2	13
1117.3	14
1117.4	13
1117.5	12
1117.6	11
1117.7	11
1117.8	10
1117.9	8
1118.2	6
1118.3	9
1118.4	11
1118.5	12
1118.6	12
1118.7	13
1118.8	14
1118.9	13
1119.0	9
1119.1	6
1119.4	4
1119.5	5
1119.6	8
1119.7	11
1119.8	14
1119.9	15
1120.0	16
1120.1	16
1120.2	15
1121.6	7
1121.7	9
1121.8	10
1121.9	12
1122.0	13
1122.1	14
1123.2	10
1123.3	11
1123.4	13
1123.5	14
1123.6	14
1123.7	12
1123.8	9
1124.0	8
1124.1	9
1124.2	11
1124.3	13
1124.4	14
1124.5	15
1124.6	16
1124.7	15
1124.8	14
1124.9	13
1125.0	13
1125.3	11
1125.4	12
1125.5	14
1125.6	14
1125.7	13
1125.8	11
1126.1	9
1126.2	10
1126.3	12
1126.4	14
1126.5	16
1126.6	19
1126.7	19
1126.8	17
1126.9	14
1127.0	12
1127.1	10
1127.3	7
1127.4	9
1127.5	12
1127.6	14
1127.7	15
1127.8	15
1127.9	15
1128.0	15
1128.1	15
1128.2	15
1128.3	14
1128.4	11
1128.5	8
1128.8	7
1128.9	10
1129.0	13
1129.1	16
1129.2	17
1129.3	16
1129.4	13
1129.5	10
1129.8	10
1129.9	11
1130.0	12
1130.1	13
1130.2	15
1130.3	17
1130.4	18
1130.5	18
1130.6	17
1130.7	16
1130.8	15
1130.9	13
1131.4	11
1131.5	12
1131.6	13
1131.7	13
1131.8	12
1132.1	10
1132.2	12
1132.3	12
1132.4	13
1132.5	14
1132.6	16
1132.7	17
1132.8	16
1132.9	13
1133.2	11
1133.3	12
1133.4	13
1133.5	15
1133.6	15
1133.7	14
1133.8	12
1133.9	10
1134.2	9
1134.3	10
1134.4	11
1134.5	13
1134.6	14
1134.7	16
1134.8	16
1134.9	15
1135.0	14
1135.1	13
1135.2	13
1135.6	12
1135.7	13
1135.8	14
1135.9	15
1136.0	16
1136.1	16
1136.2	16
1136.3	14
1136.4	13
1136.5	12
1136.8	11
1136.9	12
1137.0	14
1137.1	17
1137.2	19
1137.3	19
1137.4	17
1137.5	15
1137.8	13
1137.9	15
1138.0	16
1138.1	18
1138.2	19
1138.3	19
1138.4	16
1138.5	14
1139.4	10
1139.5	11
1139.6	13
1139.7	16
1139.8	17
1139.9	17
1140.0	16
1140.1	15
1140.2	15
1140.3	13
1140.6	12
1140.7	14
1140.8	16
1140.9	17
1141.0	17
1141.1	16
1141.2	15
1141.3	14
1141.6	11
1141.7	13
1141.8	16
1141.9	18
1142.0	17
1142.1	16
1142.6	16
1142.7	16
1142.8	17
1142.9	17
1143.0	17
1143.1	16
1143.2	15
1143.8	13
1143.9	13
1144.0	16
1144.1	19
1144.2	21
1144.3	19
1144.4	16
1144.5	13
1144.8	11
1144.9	13
1145.0	14
1145.1	15
1145.2	15
1145.3	15
1145.4	14
1145.7	12
1145.8	13
1145.9	14
1146.0	15
1146.1	16
1146.2	17
1146.3	18
1146.4	18
1146.5	19
1146.6	19
1146.7	17
1146.8	16
1146.9	14
1147.0	12
1147.1	11
1147.3	10
1147.4	11
1147.5	13
1147.6	14
1147.7	14
1147.8	13
1147.9	13
1148.0	13
1148.1	13
1148.2	13
1148.3	12
1148.4	12
1148.5	12
1148.6	13
1148.7	15
1148.8	17
1148.9	17
1149.0	15
1149.1	13
1149.3	12
1149.4	13
1149.5	14
1149.6	15
1149.7	15
1149.8	16
1149.9	15
1150.0	15
1150.1	13
1150.4	13
1150.5	15
1150.6	18
1150.7	21
1150.8	22
1150.9	21
1151.0	19
1151.1	17
1151.2	16
1151.3	14
1151.4	12
1151.8	11
1151.9	11
1152.0	13
1152.1	15
1152.2	18
1152.3	19
1152.4	19
1152.5	18
1152.6	17
1152.7	15
1152.8	13
1152.9	12
1153.2	9
1153.3	11
1153.4	14
1153.5	15
1153.6	15
1153.7	14
1153.8	12
1154.5	10
1154.6	11
1154.7	13
1154.8	14
1154.9	14
1155.0	12
1155.1	9
1155.3	6
1155.4	7
1155.5	10
1155.6	14
1155.7	17
1155.8	19
1155.9	19
1156.0	16
1156.1	14
1156.6	13
1156.7	15
1156.8	16
1156.9	18
1157.0	18
1157.1	17
1157.2	16
1157.3	14
1157.5	12
1157.6	14
1157.7	16
1157.8	17
1157.9	18
1158.0	17
1158.1	15
1158.4	12
1158.5	15
1158.6	18
1158.7	20
1158.8	19
1158.9	17
1159.0	14
1159.2	11
1159.3	13
1159.4	15
1159.5	16
1159.6	16
1159.7	15
1159.8	14
1160.1	12
1160.2	13
1160.3	16
1160.4	19
1160.5	22
1160.6	22
1160.7	20
1160.8	15
1160.9	10
1161.0	6
1161.2	5
1161.3	7
1161.4	11
1161.5	14
1161.6	17
1161.7	18
1161.8	19
1161.9	19
1162.0	18
1162.1	15
1162.2	13
1162.5	10
1162.6	13
1162.7	17
1162.8	20
1162.9	22
1163.0	22
1163.1	20
1163.2	17
1163.3	15
1163.4	14
1163.5	13
1163.8	12
1163.9	14
1164.0	15
1164.1	16
1164.2	15
1164.3	15
1164.4	14
1164.5	12
1164.8	10
1164.9	12
1165.0	15
1165.1	17
1165.2	18
1165.3	17
1165.4	15
1165.5	14
1166.1	14
1166.2	15
1166.3	17
1166.4	19
1166.5	20
1166.6	20
1166.7	20
1166.8	19
1166.9	18
1167.0	16
1167.1	14
1167.4	12
1167.5	13
1167.6	13
1167.7	14
1167.8	14
1167.9	14
1168.0	13
1168.1	11
1168.4	10
1168.5	12
1168.6	15
1168.7	16
1168.8	16
1168.9	14
1169.7	12
1169.8	13
1169.9	14
1170.0	15
1170.1	14
1170.2	14
1170.3	13
1170.8	12
1170.9	13
1171.0	14
1171.1	15
1171.2	17
1171.3	18
1171.4	17
1171.5	16
1171.6	13
1171.9	10
1172.0	12
1172.1	13
1172.2	12
1172.3	10
1172.4	8
1173.0	8
1173.1	10
1173.2	12
1173.3	15
1173.4	16
1173.5	15
1173.6	12
1173.7	11
1173.8	10
1173.9	10
1174.0	9
1174.3	8
1174.4	9
1174.5	11
1174.6	13
1174.7	15
1174.8	17
1174.9	17
1175.0	18
1175.1	17
1175.2	16
1175.3	13
1175.4	11
1175.9	9
1176.0	10
1176.1	12
1176.2	13
1176.3	12
1176.4	12
1176.5	13
1176.6	14
1176.7	14
1176.8	14
1176.9	13
1177.7	11
1177.8	13
1177.9	16
1178.0	18
1178.1	18
1178.2	16
1178.3	13
1178.4	10
1178.6	8
1178.7	10
1178.8	13
1178.9	15
1179.0	16
1179.1	16
1179.2	16
1179.3	15
1179.4	13
1179.5	11
1179.8	10
1179.9	11
1180.0	11
1180.1	12
1180.2	13
1180.3	14
1180.4	14
1180.5	14
1180.6	13
1180.7	12
1180.8	11
1181.1	10
1181.2	13
1181.3	15
1181.4	17
1181.5	16
1181.6	13
1181.7	10
1181.8	8
1182.1	7
1182.2	9
1182.3	11
1182.4	15
1182.5	17
1182.6	17
1183.9	10
1184.0	11
1184.1	12
1184.2	13
1184.3	14
1184.4	15
1184.5	15
1184.6	14
1185.5	8
1185.6	10
1185.7	12
1185.8	14
1185.9	16
1186.0	17
1186.1	17
1186.2	16
1186.3	15
1186.4	14
1186.5	12
1186.8	9
1186.9	11
1187.0	13
1187.1	16
1187.2	18
1187.3	18
1187.4	18
1187.5	16
1187.6	13
1187.9	10
1188.0	12
1188.1	13
1188.2	13
1188.3	13
1188.4	13
1188.5	14
1188.6	15
1188.7	16
1188.8	16
1188.9	16
1189.0	14
1189.1	13
1189.4	12
1189.5	13
1189.6	14
1189.7	15
1189.8	15
1189.9	14
1190.0	12
1190.1	11
1190.2	10
1190.3	8
1190.5	5
1190.6	7
1190.7	10
1190.8	14
1190.9	16
1191.0	15
1191.1	13
1191.2	11
1191.5	9
1191.6	10
1191.7	12
1191.8	14
1191.9	16
1192.0	17
1192.1	16
1192.2	13
1192.3	9
1192.5	9
1192.6	11
1192.7	12
1192.8	12
1192.9	12
1193.0	12
1193.1	12
1193.2	12
1193.3	12
1193.4	13
1193.5	15
1193.6	16
1193.7	15
1193.8	14
1193.9	11
1194.2	10
1194.3	13
1194.4	14
1194.5	14
1194.6	13
1194.9	12
1195.0	13
1195.1	13
1195.2	14
1195.3	15
1195.4	16
1195.5	17
1195.6	17
1195.7	16
1195.8	15
1195.9	15
1196.0	14
1196.1	13
1196.2	10
1197.0	10
1197.1	11
1197.2	12
1197.3	12
1197.4	13
1197.5	13
1197.6	12
1197.7	13
1197.8	14
1197.9	13
1198.0	11
1198.7	7
1198.8	8
1198.9	10
1199.0	12
1199.1	14
1199.2	15
1199.3	14
1199.4	11
1199.5	9
1199.6	8
1199.7	7
1199.8	6
1200.1	3
1200.2	6
1200.3	11
1200.4	15
1200.5	16
1200.6	14
1200.7	11
1200.8	8
1201.1	6
1201.2	8
1201.3	11
1201.4	14
1201.5	16
1201.6	16
1201.7	16
1201.8	15
1201.9	12
1202.0	10
1202.3	7
1202.4	10
1202.5	12
1202.6	14
1202.7	14
1202.8	12
1202.9	10
1203.0	8
1203.2	7
1203.3	8
1203.4	11
1203.5	13
1203.6	14
1203.7	12
1203.8	10
1204.0	9
1204.1	10
1204.2	11
1204.3	11
1204.4	10
1205.1	10
1205.2	10
1205.3	12
1205.4	14
1205.5	15
1205.6	14
1205.9	12
1206.0	14
1206.1	14
1206.2	14
1206.3	12
1206.4	9
1206.5	7
1206.7	6
1206.8	7
1206.9	10
1207.0	14
1207.1	17
1207.2	19
1207.3	19
1207.4	17
1207.5	16
1207.6	15
1207.7	14
1207.8	12
1207.9	10
1208.0	8
1208.2	6
1208.3	8
1208.4	10
1208.5	13
1208.6	14
1208.7	15
1208.8	13
1208.9	12
1209.2	10
1209.3	11
1209.4	12
1209.5	13
1209.6	12
1209.7	12
1209.8	12
1209.9	12
1210.0	12
1210.1	11
1210.4	9
1210.5	11
1210.6	12
1210.7	11
1210.8	8
1210.9	5
1211.1	3
1211.2	5
1211.3	7
1211.4	8
1211.5	8
1211.6	10
1211.7	15
1211.8	25
1211.9	36
1212.0	38
1212.1	30
1212.2	20
1212.3	14
1212.4	12
1212.5	10
1212.8	6
1212.9	9
1213.0	13
1213.1	14
1213.2	14
1213.3	13
1213.4	11
1213.5	9
1213.6	7
1213.8	5
1213.9	8
1214.0	10
1214.1	12
1214.2	12
1214.3	12
1214.4	12
1214.5	13
1214.6	14
1214.7	15
1214.8	15
1214.9	14
1215.0	13
1215.1	11
1215.2	9
1215.4	8
1215.5	9
1215.6	11
1215.7	12
1215.8	11
1215.9	9
1216.2	7
1216.3	9
1216.4	10
1216.5	10
1216.6	10
1216.7	10
1216.8	10
1216.9	11
1217.0	11
1217.1	10
1217.2	9
1217.3	8
1217.5	6
1217.6	7
1217.7	11
1217.8	15
1217.9	17
1218.0	17
1218.1	15
1218.2	13
1218.3	10
1218.4	8
1218.7	6
1218.8	8
1218.9	10
1219.0	12
1219.1	13
1219.2	12
1219.3	10
1219.4	8
1219.5	6
1219.8	4
1219.9	7
1220.0	9
1220.1	10
1220.2	9
1220.3	9
1220.4	9
1220.5	11
1220.6	13
1220.7	13
1220.8	12
1221.5	9
1221.6	10
1221.7	12
1221.8	13
1221.9	15
1222.0	16
1222.1	15
1222.2	14
1222.3	13
1222.4	13
1222.5	12
1222.6	10
1222.7	7
1223.0	5
1223.1	7
1223.2	11
1223.3	14
1223.4	16
1223.5	17
1223.6	16
1223.7	14
1223.8	10
1223.9	6
1224.1	5
1224.2	7
1224.3	8
1224.4	8
1224.5	8
1224.6	8
1224.7	10
1224.8	12
1224.9	14
1225.0	14
1225.1	12
1225.2	9
1225.4	6
1225.5	9
1225.6	12
1225.7	15
1225.8	15
1225.9	14
1226.0	14
1226.1	13
1226.2	12
1226.3	10
1226.8	9
1226.9	10
1227.0	12
1227.1	14
1227.2	15
1227.3	15
1227.4	14
1227.5	14
1227.6	14
1227.7	14
1227.8	13
1227.9	12
1229.0	9
1229.1	10
1229.2	11
1229.3	12
1229.4	12
1229.5	12
1229.6	13
1229.7	12
1229.8	11
1229.9	11
1230.0	10
1230.1	8
1230.2	6
1230.5	4
1230.6	7
1230.7	10
1230.8	12
1230.9	12
1231.0	12
1231.1	11
1231.2	9
1231.5	6
1231.6	8
1231.7	11
1231.8	12
1231.9	13
1232.0	14
1232.1	13
1232.2	12
1232.3	11
1232.4	9
1232.7	8
1232.8	9
1232.9	12
1233.0	14
1233.1	17
1233.2	18
1233.3	19
1233.4	17
1233.5	13
1233.6	10
1233.8	9
1233.9	10
1234.0	11
1234.1	11
1234.2	12
1234.3	13
1234.4	13
1234.5	12
1234.6	10
1234.9	9
1235.0	11
1235.1	14
1235.2	18
1235.3	19
1235.4	17
1235.5	13
1237.2	9
1237.3	11
1237.4	12
1237.5	13
1237.6	15
1237.7	16
1237.8	17
1237.9	17
1238.0	16
1238.1	15
1238.2	13
1238.3	11
1238.6	9
1238.7	10
1238.8	12
1238.9	12
1239.0	13
1239.1	14
1239.2	16
1239.3	17
1239.4	15
1239.5	13
1239.6	11
1239.9	10
1240.0	11
1240.1	12
1240.2	13
1240.3	12
1240.6	11
1240.7	12
1240.8	12
1240.9	13
1241.0	14
1241.1	15
1241.2	16
1241.3	16
1241.4	16
1241.5	14
1241.6	13
1241.7	12
1241.8	10
1242.0	9
1242.1	10
1242.2	12
1242.3	14
1242.4	16
1242.5	17
1242.6	17
1242.7	15
1242.8	12
1242.9	10
1243.2	9
1243.3	11
1243.4	12
1243.5	12
1243.6	12
1243.7	12
1243.8	13
1243.9	14
1244.0	14
1244.1	13
1244.4	10
1244.5	11
1244.6	13
1244.7	14
1244.8	16
1244.9	17
1245.0	16
1245.1	14
1245.3	11
1245.4	12
1245.5	16
1245.6	19
1245.7	20
1245.8	18
1245.9	15
1246.0	12
1246.1	9
1246.3	8
1246.4	10
1246.5	12
1246.6	14
1246.7	14
1246.8	13
1248.1	14
1248.2	15
1248.3	15
1248.4	15
1248.5	15
1248.6	13
1248.7	12
1249.0	10
1249.1	12
1249.2	15
1249.3	18
1249.4	20
1249.5	19
1249.6	16
1249.7	12
1250.0	9
1250.1	11
1250.2	13
1250.3	14
1250.4	15
1250.5	16
1250.6	14
1250.7	12
1251.0	11
1251.1	13
1251.2	14
1251.3	14
1251.4	13
1251.5	12
1251.6	13
1251.7	13
1251.8	13
1251.9	14
1252.0	14
1252.1	15
1252.2	15
1252.3	15
1252.6	14
1252.7	15
1252.8	15
1252.9	15
1253.0	15
1253.1	15
1253.2	14
1253.3	13
1253.4	11
1253.5	9
1253.7	6
1253.8	9
1253.9	13
1254.0	17
1254.1	18
1254.2	17
1254.3	16
1254.4	14
1254.5	12
1254.6	10
1255.3	11
1255.4	12
1255.5	14
1255.6	15
1255.7	14
1255.8	11
1256.0	9
1256.1	10
1256.2	13
1256.3	15
1256.4	17
1256.5	19
1256.6	20
1256.7	21
1256.8	20
1256.9	17
1257.0	14
1257.1	10
1257.4	8
1257.5	11
1257.6	14
1257.7	16
1257.8	16
1257.9	17
1258.0	17
1258.1	17
1258.2	16
1258.5	13
1258.6	15
1258.7	15
1258.8	15
1258.9	14
1259.0	13
1259.1	13
1259.2	12
1259.6	10
1259.7	11
1259.8	12
1259.9	13
1260.0	15
1260.1	16
1260.2	15
1260.3	14
1260.6	13
1260.7	15
1260.8	18
1260.9	19
1261.0	19
1261.1	16
1261.2	13
1261.3	11
1261.6	9
1261.7	9
1261.8	12
1261.9	15
1262.0	19
1262.1	22
1262.2	24
1262.3	23
1262.4	20
1262.5	16
1262.7	14
1262.8	17
1262.9	19
1263.0	18
1263.1	16
1263.3	15
1263.4	17
1263.5	18
1263.6	17
1263.7	16
1263.8	16
1263.9	16
1264.0	17
1264.1	18
1264.2	18
1264.3	17
1264.4	17
1264.5	17
1264.6	18
1264.7	16
1264.8	14
1265.1	11
1265.2	13
1265.3	16
1265.4	19
1265.5	20
1265.6	18
1265.7	14
1265.9	12
1266.0	14
1266.1	16
1266.2	17
1266.3	17
1266.4	14
1266.6	11
1266.7	13
1266.8	17
1266.9	19
1267.0	20
1267.1	18
1267.2	16
1267.3	15
1268.2	14
1268.3	16
1268.4	17
1268.5	17
1268.6	18
1268.7	18
1268.8	17
1268.9	14
1269.2	13
1269.3	14
1269.4	15
1269.5	15
1269.6	15
1269.7	15
1269.8	13
1269.9	12
1270.2	8
1270.3	11
1270.4	16
1270.5	19
1270.6	20
1270.7	20
1270.8	19
1270.9	19
1271.0	19
1271.1	18
1271.2	16
1271.3	14
1271.9	13
1272.0	13
1272.1	14
1272.2	15
1272.3	16
1272.4	15
1272.5	13
1272.8	13
1272.9	14
1273.0	15
1273.1	15
1273.2	14
1273.6	13
1273.7	14
1273.8	15
1273.9	15
1274.0	15
1274.1	14
1274.2	13
1274.3	11
1274.8	10
1274.9	11
1275.0	12
1275.1	13
1275.2	13
1275.3	13
1275.4	15
1275.5	16
1275.6	18
1275.7	19
1275.8	18
1275.9	17
1276.0	14
1277.1	10
1277.2	12
1277.3	14
1277.4	16
1277.5	17
1277.6	18
1277.7	17
1277.8	16
1277.9	15
1278.0	14
1278.1	12
1278.3	10
1278.4	11
1278.5	14
1278.6	16
1278.7	17
1279.5	13
1279.6	14
1279.7	16
1279.8	18
1279.9	20
1280.0	20
1280.1	19
1280.2	17
1280.3	16
1280.4	14
1280.5	13
1281.6	12
1281.7	13
1281.8	14
1281.9	15
1282.0	17
1282.1	18
1282.2	18
1282.3	17
1282.4	15
1282.5	14
1282.6	14
1282.7	14
1282.8	14
1282.9	12
1283.3	12
1283.4	12
1283.5	13
1283.6	13
1283.7	15
1283.8	18
1283.9	18
1284.0	16
1284.1	12
1284.3	9
1284.4	11
1284.5	14
1284.6	17
1284.7	19
1284.8	20
1284.9	20
1285.0	18
1285.1	15
1285.2	12
1285.9	14
1286.0	14
1286.1	15
1286.4	13
1286.5	14
1286.6	17
1286.7	18
1286.8	17
1286.9	14
1287.1	13
1287.2	15
1287.3	17
1287.4	18
1287.5	18
1287.6	15
1287.7	11
1287.8	8
1288.0	8
1288.1	9
1288.2	11
1288.3	13
1288.4	15
1288.5	18
1288.6	20
1288.7	19
1288.8	17
1288.9	16
1289.0	15
1289.1	15
1289.2	14
1289.3	13
1289.4	12
1289.7	11
1289.8	12
1289.9	13
1290.0	13
1290.1	14
1290.2	14
1290.3	15
1290.4	16
1290.5	17
1290.6	16
1290.7	15
1290.8	14
1290.9	12
1291.0	11
1291.3	8
1291.4	9
1291.5	11
1291.6	13
1291.7	15
1291.8	16
1291.9	17
1292.0	15
1292.3	13
1292.4	15
1292.5	17
1292.6	18
1292.7	18
1292.8	17
1292.9	15
1293.0	12
1293.1	10
1293.2	8
1293.4	6
1293.5	7
1293.6	10
1293.7	12
1293.8	14
1293.9	15
1294.0	15
1294.1	15
1294.2	14
1294.3	14
1294.4	13
1294.5	12
1294.8	9
1294.9	12
1295.0	14
1295.1	14
1295.2	12
1295.8	10
1295.9	11
1296.0	13
1296.1	15
1296.2	18
1296.3	18
1296.4	16
1296.5	13
1296.6	9
1296.7	6
1297.0	6
1297.1	6
1297.2	8
1297.3	10
1297.4	13
1297.5	16
1297.6	18
1297.7	19
1297.8	18
1297.9	17
1298.2	15
1298.3	18
1298.4	20
1298.5	20
1298.6	19
1298.7	17
1298.8	14
1298.9	12
1299.0	9
1299.1	8
1299.4	7
1299.5	8
1299.6	10
1299.7	12
1299.8	14
1299.9	15
1300.0	14
1300.1	12
1300.4	11
1300.5	12
1300.6	13
1300.7	15
1300.8	17
1300.9	17
1301.0	15
1301.1	12
1301.3	9
1301.4	11
1301.5	14
1301.6	15
1301.7	15
1301.8	13
1301.9	11
1302.1	9
1302.2	11
1302.3	13
1302.4	13
1302.5	12
1302.6	12
1302.7	11
1303.1	10
1303.2	12
1303.3	13
1303.4	15
1303.5	14
1303.8	12
1303.9	14
1304.0	16
1304.1	18
1304.2	19
1304.3	19
1304.4	17
1304.5	15
1304.6	12
1304.7	9
1304.9	8
1305.0	9
1305.1	11
1305.2	12
1305.3	13
1305.4	13
1305.5	11
1305.6	10
1305.9	8
1306.0	9
1306.1	10
1306.2	10
1306.3	11
1306.4	11
1306.5	12
1306.6	13
1306.7	15
1306.8	16
1306.9	17
1307.0	16
1307.1	14
1307.4	11
1307.5	12
1307.6	14
1307.7	16
1307.8	17
1307.9	17
1308.0	17
1308.1	17
1308.2	17
1308.3	16
1308.4	14
1308.5	12
1309.0	11
1309.1	12
1309.2	13
1309.3	13
1309.4	13
1310.3	7
1310.4	8
1310.5	11
1310.6	14
1310.7	15
1310.8	14
1310.9	13
1311.0	12
1311.3	11
1311.4	12
1311.5	14
1311.6	15
1311.7	14
1311.8	13
1311.9	11
1312.0	10
1312.7	7
1312.8	9
1312.9	11
1313.0	12
1313.1	12
1313.2	13
1313.3	13
1313.4	12
1313.5	12
1313.6	12
1313.7	12
1313.8	11
1313.9	11
1314.0	11
1314.1	11
1314.2	11
1314.3	11
1314.4	11
1314.5	10
1314.6	9
1314.9	7
1315.0	8
1315.1	9
1315.2	10
1315.3	9
1315.4	7
1315.6	6
1315.7	7
1315.8	9
1315.9	10
1316.0	9
1316.3	7
1316.4	8
1316.5	9
1316.6	11
1316.7	13
1316.8	15
1316.9	15
1317.0	14
1317.1	12
1318.7	8
1318.8	10
1318.9	12
1319.0	13
1319.1	14
1319.2	14
1319.3	14
1319.4	13
1319.5	12
1319.6	11
1319.7	10
1319.8	9
1319.9	8
1320.0	6
1320.2	5
1320.3	6
1320.4	9
1320.5	12
1320.6	15
1320.7	16
1320.8	16
1320.9	15
1321.0	13
1321.1	10
1322.4	12
1322.5	12
1322.6	13
1322.7	15
1322.8	15
1322.9	13
1323.0	12
1323.8	10
1323.9	10
1324.0	12
1324.1	15
1324.2	17
1324.3	17
1324.4	15
1324.5	13
1324.6	13
1324.7	13
1324.8	12
1324.9	10
1325.0	7
1325.2	5
1325.3	7
1325.4	11
1325.5	15
1325.6	17
1325.7	17
1325.8	14
1326.6	13
1326.7	15
1326.8	17
1326.9	17
1327.0	16
1327.1	15
1327.2	13
1327.3	13
1327.4	12
1327.5	11
1327.8	11
1327.9	12
1328.0	14
1328.1	16
1328.2	18
1328.3	18
1328.4	17
1328.5	15
1328.6	14
1329.5	10
1329.6	12
1329.7	12
1329.8	11
1329.9	11
1330.0	12
1330.1	13
1330.2	15
1330.3	16
1330.4	17
1330.5	15
1330.6	12
1330.7	9
1331.4	9
1331.5	10
1331.6	11
1331.7	11
1331.8	10
1332.2	9
1332.3	10
1332.4	11
1332.5	12
1332.6	14
1332.7	14
1332.8	15
1332.9	14
1333.0	14
1333.1	12
1333.2	9
1333.3	6
1333.6	5
1333.7	7
1333.8	10
1333.9	13
1334.0	13
1334.1	12
1334.2	10
1334.3	7
1334.5	7
1334.6	8
1334.7	9
1334.8	11
1334.9	13
1335.0	15
1335.1	15
1335.2	14
1335.3	12
1335.4	11
1335.5	10
1335.6	10
1335.7	10
1335.8	8
1335.9	6
1336.2	7
1336.3	8
1336.4	9
1336.5	11
1336.6	12
1336.7	13
1337.1	12
1337.2	14
1337.3	15
1337.4	16
1337.5	16
1337.6	15
1337.7	13
1337.8	11
1337.9	8
1338.2	7
1338.3	9
1338.4	11
1338.5	12
1338.6	14
1338.7	15
1338.8	15
1338.9	15
1339.0	15
1339.1	14
1339.2	12
1339.3	10
1339.9	9
1340.0	10
1340.1	11
1340.2	12
1340.3	13
1340.4	13
1340.5	12
1340.6	12
1340.7	12
1340.8	12
1340.9	11
1341.0	11
1341.1	12
1341.2	13
1341.3	14
1341.4	12
1341.5	9
1341.6	6
1341.8	4
1341.9	6
1342.0	10
1342.1	13
1342.2	15
1342.3	15
1342.4	14
1342.5	14
1342.6	13
1342.7	12
1343.8	6
1343.9	8
1344.0	11
1344.1	13
1344.2	12
1345.2	9
1345.3	11
1345.4	13
1345.5	15
1345.6	15
1345.7	15
1345.8	14
1345.9	12
1346.0	9
1346.3	8
1346.4	9
1346.5	12
1346.6	16
1346.7	20
1346.8	22
1346.9	21
1347.0	17
1347.1	14
1347.2	12
1347.3	10
1347.6	10
1347.7	12
1347.8	16
1347.9	19
1348.0	19
1348.1	18
1348.2	15
1348.3	13
1350.6	11
1350.7	12
1350.8	13
1350.9	15
1351.0	16
1351.1	15
1351.2	14
1351.3	14
1351.4	16
1351.5	17
1351.6	17
1351.7	16
1351.8	14
1351.9	12
1352.0	11
1352.1	10
1352.2	9
1352.5	8
1352.6	10
1352.7	13
1352.8	16
1352.9	17
1353.0	16
1353.1	13
1353.2	10
1353.6	9
1353.7	9
1353.8	11
1353.9	13
1354.0	13
1354.1	11
1354.4	9
1354.5	10
1354.6	11
1354.7	13
1354.8	13
1354.9	13
1355.0	13
1355.1	13
1355.2	12
1355.3	12
1355.4	12
1355.5	11
1355.8	10
1355.9	10
1356.0	12
1356.1	13
1356.2	13
1356.3	13
1356.4	13
1356.5	13
1356.6	12
1356.7	9
1357.0	6
1357.1	9
1357.2	15
1357.3	19
1357.4	23
1357.5	23
1357.6	21
1357.7	17
1357.8	12
1357.9	9
1358.2	8
1358.3	9
1358.4	10
1358.5	13
1358.6	14
1358.7	15
1358.8	15
1358.9	14
1359.0	13
1359.3	10
1359.4	12
1359.5	13
1359.6	14
1359.7	15
1359.8	14
1359.9	11
1360.0	9
1360.2	8
1360.3	10
1360.4	11
1360.5	11
1360.6	10
1360.7	10
1360.8	12
1360.9	16
1361.0	17
1361.1	17
1361.2	14
1361.3	12
1362.6	8
1362.7	9
1362.8	11
1362.9	12
1363.0	14
1363.1	15
1363.2	16
1363.3	16
1363.4	16
1363.5	14
1363.8	13
1363.9	15
1364.0	17
1364.1	17
1364.2	15
1364.3	11
1364.5	10
1364.6	13
1364.7	15
1364.8	15
1364.9	13
1365.0	12
1365.3	11
1365.4	13
1365.5	17
1365.6	20
1365.7	20
1365.8	18
1365.9	16
1366.0	14
1366.1	13
1366.2	13
1366.3	12
1366.6	10
1366.7	12
1366.8	15
1366.9	16
1367.0	16
1367.1	15
1367.2	15
1369.0	11
1369.1	12
1369.2	14
1369.3	15
1369.4	15
1369.5	15
1369.6	15
1369.7	14
1369.8	11
1370.0	7
1370.1	9
1370.2	13
1370.3	17
1370.4	19
1370.5	19
1370.6	15
1370.7	12
1370.9	11
1371.0	12
1371.1	13
1371.2	14
1371.3	15
1371.4	16
1371.5	17
1371.6	17
1371.7	17
1371.8	16
1371.9	14
1372.0	13
1372.1	11
1372.4	10
1372.5	12
1372.6	15
1372.7	17
1372.8	17
1372.9	15
1373.9	8
1374.0	9
1374.1	9
1374.2	9
1374.3	10
1374.4	10
1374.5	10
1374.6	9
1374.7	9
1374.8	10
1374.9	12
1375.0	13
1375.1	13
1375.2	12
1375.3	12
1375.4	13
1375.5	12
1375.6	12
1375.9	11
1376.0	11
1376.1	13
1376.2	16
1376.3	17
1376.4	17
1376.5	16
1376.6	14
1377.0	13
1377.1	14
1377.2	16
1377.3	17
1377.4	17
1377.5	16
1377.6	16
1377.7	17
1377.8	17
1377.9	15
1378.0	11
1378.2	9
1378.3	12
1378.4	14
1378.5	16
1378.6	18
1378.7	18
1378.8	17
1378.9	15
1379.0	12
1379.1	10
1379.4	7
1379.5	11
1379.6	16
1379.7	19
1379.8	20
1379.9	19
1380.0	18
1380.1	17
1380.2	16
1380.3	14
1380.4	12
1380.6	8
1380.7	10
1380.8	14
1380.9	17
1381.0	17
1381.1	16
1381.2	14
1381.3	11
1381.5	8
1381.6	10
1381.7	13
1381.8	15
1381.9	18
1382.0	19
1382.1	19
1382.2	17
1382.3	15
1383.1	11
1383.2	13
1383.3	15
1383.4	16
1383.5	15
1383.6	15
1383.7	14
1384.1	13
1384.2	14
1384.3	15
1384.4	15
1384.5	15
1384.6	16
1384.7	18
1384.8	20
1384.9	21
1385.0	22
1385.1	20
1385.2	16
1385.5	13
1385.6	15
1385.7	16
1385.8	16
1385.9	18
1386.0	19
1386.1	19
1386.2	18
1386.3	18
1386.4	19
1386.5	20
1386.6	19
1386.7	19
1386.8	20
1386.9	21
1387.0	21
1387.1	21
1387.2	19
1387.3	17
1387.4	15
1387.9	15
1388.0	15
1388.1	17
1388.2	19
1388.3	20
1388.4	19
1388.5	17
1388.8	15
1388.9	17
1389.0	19
1389.1	20
1389.2	20
1389.3	19
1389.4	17
1389.5	15
1389.8	15
1389.9	16
1390.0	18
1390.1	20
1390.2	22
1390.3	23
1390.4	23
1390.5	22
1390.6	20
1390.7	19
1390.8	17
1390.9	15
1391.0	12
1391.2	9
1391.3	11
1391.4	15
1391.5	19
1391.6	23
1391.7	25
1391.8	25
1391.9	23
1392.0	21
1392.1	20
1392.2	18
1392.3	16
1392.4	15
1392.5	15
1392.6	14
1392.7	12
1392.8	9
1393.1	7
1393.2	10
1393.3	13
1393.4	15
1393.5	16
1393.6	18
1393.7	21
1393.8	23
1393.9	23
1394.0	19
1394.1	14
1394.2	10
1394.4	7
1394.5	9
1394.6	11
1394.7	13
1394.8	13
1394.9	12
1395.4	12
1395.5	12
1395.6	13
1395.7	14
1395.8	14
1395.9	14
1396.0	13
1396.1	14
1396.2	13
1396.5	11
1396.6	13
1396.7	16
1396.8	19
1396.9	19
1397.0	16
1397.1	11
1397.3	9
1397.4	11
1397.5	13
1397.6	13
1397.7	12
1397.8	12
1397.9	12
1398.0	12
1398.1	13
1398.2	14
1398.3	17
1398.4	19
1398.5	20
1398.6	18
1398.7	15
1398.8	11
