Mass spectrum: Aconosine; LC-ESI-QQQ; MS2; Frag=135.0V CID@5.0; [M+H]+
Name: Aconosine
Class: Alkaloids
Formula: C22H35NO4
Exact mass: 377.5286
SMILES: CCN1C[C@@H]2CCC(OC)C34C5C[C@@H]6[C@@H](OC)C[C@@](O)(C5[C@H]6O)C(CC23)[C@@H]14
InChI: InChI=1S/C22H35NO4/c1-4-23-10-11-5-6-17(27-3)22-13(11)8-15(20(22)23)21(25)9-16(26-2)12-7-14(22)18(21)19(12)24/h11-20,24-25H,4-10H2,1-3H3/t11-,12+,13?,14?,15?,16-,17?,18?,19-,20+,21-,22?/m0/s1
Instrument: Agilent 6410 Triple Quadrupole LC/MS system
Instrument type: LC-ESI-QQQ
Ms type: MS2
Ion mode: POSITIVE
Precursor type: [M+H]+
m/z	relative intensity
377.4	1
377.5	2
377.6	5
377.7	10
377.8	19
377.9	34
378.0	55
378.1	76
378.2	92
378.3	99
378.4	98
378.5	86
378.6	60
378.7	29
378.8	5
378.9	0
