Mass spectrum: Glycocitridine; LC-ESI-QQQ; MS2; Frag=135.0V CID@5.0; [M+H]+
Name: Glycocitridine
Class: Alkaloids
Formula: C13H13NO5
Exact mass: 263.2523
SMILES: COc1ccc2c(OC)c(C=O)c(O)nc2c1OC
InChI: InChI=1S/C13H13NO5/c1-17-9-5-4-7-10(12(9)19-3)14-13(16)8(6-15)11(7)18-2/h4-6H,1-3H3,(H,14,16)
Instrument: Agilent 6410 Triple Quadrupole LC/MS system
Instrument type: LC-ESI-QQQ
Ms type: MS2
Ion mode: POSITIVE
Precursor type: [M+H]+
m/z	relative intensity
263.2	0
263.3	1
263.4	4
263.5	10
263.6	18
263.7	32
263.8	52
263.9	74
264.0	91
264.1	99
264.2	98
264.3	86
264.4	63
264.5	34
264.6	10
264.7	0
