Mass spectrum: Aucubin; LC-ESI-QQQ; MS2; Frag=135.0V CID@10.0; [M+HCOO]-
Name: Aucubin
Class: Terpenoids
Formula: C15H22O9
Exact mass: 346.3372
SMILES: OCC1=C[C@@H](O)[C@@H]2C=COC(OC3OC(CO)C(O)C(O)C3O)[C@H]12
InChI: InChI=1S/C15H22O9/c16-4-6-3-8(18)7-1-2-22-14(10(6)7)24-15-13(21)12(20)11(19)9(5-17)23-15/h1-3,7-21H,4-5H2/t7-,8+,9?,10+,11?,12?,13?,14?,15?/m0/s1
Instrument: Agilent 6410 Triple Quadrupole LC/MS system
Instrument type: LC-ESI-QQQ
Ms type: MS2
Ion mode: NEGATIVE
Precursor type: [M+HCOO]-
m/z	relative intensity
138.4	2
138.5	5
138.6	13
138.7	24
138.8	32
138.9	32
139.0	25
139.1	15
139.2	7
139.3	3
164.7	5
164.8	13
164.9	25
165.0	32
165.1	29
165.2	20
165.3	11
165.4	5
182.2	1
182.3	6
182.4	20
182.5	47
182.6	77
182.7	97
182.8	99
182.9	92
183.0	87
183.1	88
183.2	81
183.3	60
183.4	31
183.5	8
344.2	2
344.3	7
344.4	17
344.5	25
344.6	25
344.7	17
344.8	8
