Mass spectrum: Vanilloside; LC-ESI-QQQ; MS2; Frag=135.0V CID@25.0; [M+Na]+
Name: Vanilloside
Class: Carbohydrates
Formula: C14H18O8
Exact mass: 314.2948
SMILES: COc1cc(C=O)ccc1O[C@@H]1O[C@H](CO)[C@H](O)[C@H](O)[C@H]1O
InChI: InChI=1S/C14H18O8/c1-20-9-4-7(5-15)2-3-8(9)21-14-13(19)12(18)11(17)10(6-16)22-14/h2-5,10-14,16-19H,6H2,1H3/t10-,11+,12+,13-,14-/m1/s1
Instrument: Agilent 6410 Triple Quadrupole LC/MS system
Instrument type: LC-ESI-QQQ
Ms type: MS2
Ion mode: POSITIVE
Precursor type: [M+Na]+
m/z	relative intensity
102.4	2
102.5	3
102.6	4
102.7	5
102.8	5
102.9	5
103.0	3
103.1	3
103.2	3
103.3	3
103.4	3
103.5	3
103.6	3
103.7	4
103.8	4
103.9	3
104.0	3
104.1	4
104.2	4
104.3	5
104.4	5
104.5	4
104.6	3
104.7	2
104.8	3
104.9	3
105.0	3
105.1	3
105.2	4
105.3	4
105.4	4
105.5	3
105.6	3
105.7	3
105.8	4
105.9	4
106.0	3
106.1	3
106.2	3
106.3	3
106.4	3
106.5	4
106.6	4
106.7	3
106.8	2
106.9	1
107.0	1
107.1	2
107.2	3
107.3	4
107.4	4
107.5	5
107.6	5
107.7	5
107.8	5
107.9	5
108.0	4
108.1	3
108.2	3
108.3	3
108.4	4
108.5	5
108.6	5
108.7	5
108.8	4
108.9	3
109.0	3
109.1	3
109.2	5
109.3	6
109.4	5
109.5	4
109.6	4
109.7	3
109.8	3
109.9	2
110.0	3
110.1	3
110.2	2
110.3	2
110.4	3
110.5	3
110.6	4
110.7	4
110.8	4
110.9	5
111.0	5
111.1	4
111.2	4
111.3	4
111.4	4
111.5	3
111.6	3
111.7	3
111.8	3
111.9	4
112.0	5
112.1	5
112.2	5
112.3	4
112.4	4
112.5	4
112.6	4
112.7	5
112.8	4
112.9	4
113.0	4
113.1	4
113.2	3
113.3	3
113.4	3
113.5	3
113.6	3
113.7	2
113.8	2
113.9	2
114.0	3
114.1	3
114.2	3
114.3	3
114.4	3
114.5	3
114.6	4
114.7	4
114.8	4
114.9	4
115.0	4
115.1	4
115.2	4
115.3	4
115.4	4
115.5	5
115.6	5
115.7	5
115.8	5
115.9	4
116.0	4
116.1	4
116.2	3
116.3	3
116.4	4
116.5	4
116.6	4
116.7	3
116.8	3
116.9	4
117.0	5
117.1	5
117.2	5
117.3	5
117.4	4
117.5	4
117.6	3
117.7	3
117.8	3
117.9	4
118.0	5
118.1	6
118.2	6
118.3	5
143.6	2
143.7	3
143.8	5
143.9	5
144.0	4
144.1	3
144.2	3
144.3	4
144.4	4
144.5	4
144.6	4
144.7	3
144.8	3
144.9	3
145.0	3
145.1	3
145.2	3
145.3	3
145.4	3
145.5	3
145.6	3
145.7	4
145.8	5
145.9	5
146.0	4
146.1	3
146.2	3
146.3	3
146.4	4
146.5	4
146.6	4
146.7	4
146.8	4
146.9	5
147.0	5
147.1	5
147.2	4
147.3	3
147.4	3
147.5	3
147.6	3
147.7	3
147.8	3
147.9	4
148.0	4
148.1	4
148.2	2
148.3	1
148.4	2
148.5	4
148.6	4
148.7	4
148.8	5
148.9	5
149.0	5
149.1	5
149.2	4
149.3	5
149.4	4
149.5	3
149.6	3
149.7	2
149.8	3
149.9	3
150.0	4
150.1	5
150.2	6
150.3	5
150.4	4
150.5	3
150.6	3
150.7	3
150.8	2
150.9	2
151.0	3
151.1	5
151.2	6
151.3	5
151.4	4
151.5	3
151.6	3
151.7	3
151.8	4
151.9	4
152.0	4
152.1	3
152.2	3
152.3	4
152.4	4
152.5	3
152.6	3
152.7	4
152.8	4
152.9	4
153.0	4
153.1	4
153.2	4
153.3	4
153.4	4
153.5	4
153.6	4
153.7	4
153.8	4
153.9	4
154.0	5
154.1	4
154.2	4
154.3	3
154.4	4
154.5	4
174.4	2
174.5	4
174.6	13
174.7	34
174.8	58
174.9	66
175.0	50
175.1	23
175.2	4
184.6	2
184.7	4
184.8	6
184.9	6
185.0	5
185.1	5
185.2	5
185.3	4
185.4	4
185.5	3
185.6	3
185.7	4
185.8	3
185.9	3
186.0	3
186.1	3
186.2	3
186.3	3
186.4	4
186.5	4
186.6	4
186.7	3
186.8	3
186.9	4
187.0	3
187.1	3
187.2	3
187.3	4
187.4	4
187.5	3
187.6	3
187.7	5
187.8	5
187.9	4
188.0	4
188.1	5
188.2	5
188.3	5
188.4	4
188.5	4
188.6	5
188.7	5
188.8	5
188.9	5
189.0	5
189.1	4
189.2	3
189.3	3
189.4	4
189.5	4
189.6	3
189.7	3
189.8	4
189.9	4
190.0	4
190.1	5
190.2	5
190.3	5
190.4	4
190.5	3
190.6	3
190.7	4
190.8	5
190.9	5
191.0	5
191.1	5
191.2	5
191.3	5
191.4	5
191.5	4
191.6	4
191.7	4
191.8	4
191.9	5
192.0	5
192.1	5
192.2	4
192.3	4
192.4	4
192.5	5
192.6	4
192.7	4
192.8	4
192.9	4
193.0	3
193.1	3
193.2	3
193.3	4
193.4	4
193.5	4
193.6	4
193.7	4
193.8	4
193.9	3
194.0	3
194.1	4
194.2	4
194.3	5
194.4	5
194.5	4
194.6	4
194.7	3
194.8	3
194.9	5
195.0	6
195.1	5
195.2	4
195.3	4
195.4	5
195.5	5
195.6	4
195.7	3
195.8	3
195.9	3
196.0	3
196.1	3
196.2	4
196.3	4
196.4	4
196.5	4
196.6	4
196.7	5
196.8	4
196.9	3
197.0	3
197.1	4
197.2	5
197.3	4
197.4	4
197.5	4
197.6	5
197.7	5
197.8	5
197.9	4
198.0	5
198.1	4
198.2	3
198.3	3
198.4	3
198.5	3
198.6	3
198.7	5
198.8	5
198.9	5
199.0	4
199.1	3
199.2	4
199.3	5
199.4	5
199.5	4
199.6	3
199.7	3
199.8	3
199.9	3
200.0	4
200.1	4
200.2	4
200.3	3
200.4	4
200.5	5
200.6	5
200.7	5
200.8	4
200.9	4
201.0	4
201.1	2
201.2	2
201.3	2
201.4	3
201.5	4
201.6	4
201.7	3
201.8	3
201.9	4
202.0	4
202.1	4
202.2	4
202.3	4
202.4	3
202.5	3
202.6	3
202.7	3
202.8	3
202.9	3
203.0	4
203.1	4
203.2	3
203.3	3
203.4	3
203.5	3
203.6	3
203.7	3
203.8	3
203.9	4
204.0	4
204.1	4
204.2	4
204.3	4
204.4	4
204.5	4
204.6	4
204.7	5
204.8	5
204.9	4
205.0	3
205.1	3
205.2	4
205.3	4
205.4	4
205.5	4
205.6	3
205.7	2
205.8	2
205.9	2
206.0	3
206.1	4
206.2	5
206.3	4
206.4	3
206.5	2
206.6	2
206.7	2
206.8	3
206.9	4
207.0	4
207.1	5
207.2	4
207.3	4
207.4	3
207.5	3
207.6	3
207.7	4
207.8	5
207.9	4
208.0	4
208.1	4
208.2	5
208.3	5
208.4	4
208.5	3
208.6	3
208.7	3
208.8	3
208.9	4
209.0	5
209.1	6
209.2	5
209.3	3
209.4	3
209.5	3
209.6	3
209.7	4
209.8	4
209.9	3
210.0	3
210.1	3
210.2	3
210.3	4
210.4	4
210.5	3
210.6	3
210.7	4
210.8	4
210.9	4
211.0	3
211.1	4
211.2	4
211.3	4
211.4	4
211.5	4
211.6	4
211.7	3
211.8	2
211.9	2
212.0	3
212.1	4
212.2	4
212.3	3
212.4	4
212.5	5
212.6	4
212.7	4
212.8	3
212.9	4
213.0	5
213.1	5
213.2	4
213.3	4
213.4	4
213.5	4
213.6	4
213.7	4
213.8	4
213.9	3
214.0	3
214.1	4
214.2	4
214.3	4
214.4	4
214.5	5
214.6	5
214.7	4
214.8	3
214.9	2
215.0	3
215.1	3
215.2	3
215.3	4
215.4	5
215.5	5
215.6	3
215.7	2
215.8	3
215.9	4
216.0	4
216.1	4
216.2	4
216.3	5
216.4	4
216.5	3
216.6	2
216.7	3
216.8	3
216.9	2
217.0	3
217.1	4
217.2	5
217.3	5
217.4	4
217.5	3
217.6	2
217.7	2
217.8	2
217.9	3
218.0	4
218.1	5
218.2	5
218.3	6
218.4	6
218.5	5
218.6	4
218.7	4
218.8	4
218.9	5
219.0	5
219.1	4
219.2	4
219.3	4
219.4	3
219.5	3
219.6	4
219.7	5
219.8	5
219.9	3
220.0	2
220.1	2
220.2	3
220.3	3
220.4	3
220.5	3
220.6	3
220.7	3
220.8	3
220.9	4
221.0	4
221.1	4
221.2	4
221.3	4
221.4	4
221.5	4
221.6	3
221.7	3
221.8	4
221.9	5
222.0	4
222.1	3
222.2	3
222.3	4
222.4	4
222.5	3
222.6	3
222.7	4
222.8	5
222.9	4
223.0	4
223.1	4
223.2	5
223.3	5
223.4	4
223.5	3
223.6	2
223.7	2
223.8	2
223.9	3
224.0	4
224.1	4
224.2	3
224.3	4
224.4	4
224.5	4
224.6	4
224.7	4
224.8	5
224.9	5
225.0	5
225.1	4
225.2	4
225.3	4
225.4	4
225.5	4
225.6	5
225.7	5
225.8	5
225.9	4
226.0	4
226.1	5
226.2	4
226.3	4
226.4	3
226.5	4
226.6	3
226.7	3
226.8	2
226.9	3
227.0	4
227.1	5
227.2	5
227.3	4
227.4	3
227.5	3
227.6	3
227.7	4
227.8	5
227.9	5
228.0	4
228.1	3
228.2	4
228.3	4
228.4	4
228.5	4
228.6	4
228.7	5
228.8	5
228.9	4
229.0	4
229.1	4
229.2	4
229.3	3
229.4	4
229.5	5
229.6	5
229.7	4
229.8	4
229.9	5
230.0	5
336.3	3
336.4	6
336.5	11
336.6	14
336.7	13
336.8	10
336.9	8
337.0	7
437.8	2
437.9	3
438.0	4
438.1	5
438.2	5
438.3	5
438.4	4
438.5	3
438.6	3
438.7	2
438.8	1
438.9	1
439.0	3
439.1	4
439.2	3
439.3	3
439.4	3
439.5	3
439.6	4
439.7	4
439.8	4
439.9	4
440.0	3
440.1	2
440.2	4
440.3	5
440.4	5
440.5	4
440.6	3
440.7	3
440.8	4
440.9	5
441.0	4
441.1	3
441.2	4
441.3	5
441.4	5
441.5	5
441.6	5
441.7	4
441.8	4
441.9	4
442.0	5
442.1	4
442.2	3
442.3	2
442.4	2
442.5	2
442.6	2
442.7	3
442.8	4
442.9	5
443.0	5
443.1	4
443.2	4
443.3	4
443.4	4
443.5	5
443.6	4
443.7	4
443.8	4
443.9	4
444.0	4
444.1	4
444.2	3
444.3	3
444.4	4
444.5	4
444.6	3
444.7	2
444.8	2
444.9	2
445.0	3
445.1	3
445.2	4
445.3	3
445.4	3
445.5	3
445.6	3
445.7	4
445.8	4
445.9	3
446.0	3
446.1	3
446.2	4
446.3	5
446.4	4
446.5	3
446.6	3
446.7	4
446.8	4
446.9	4
447.0	4
447.1	5
447.2	5
447.3	5
447.4	4
447.5	3
447.6	3
447.7	2
447.8	2
447.9	4
448.0	6
448.1	6
448.2	4
448.3	4
448.4	4
448.5	4
448.6	3
448.7	3
448.8	4
448.9	4
449.0	3
449.1	3
449.2	4
449.3	4
449.4	4
449.5	3
449.6	3
449.7	3
449.8	3
449.9	4
450.0	5
450.1	6
450.2	5
450.3	3
450.4	3
450.5	4
450.6	5
450.7	5
450.8	5
450.9	5
451.0	5
451.1	5
451.2	4
451.3	3
451.4	3
451.5	2
451.6	3
451.7	3
451.8	4
451.9	4
452.0	3
452.1	3
452.2	3
452.3	3
452.4	4
452.5	4
452.6	4
452.7	4
452.8	3
452.9	3
453.0	3
453.1	4
453.2	4
453.3	4
453.4	4
453.5	4
453.6	4
453.7	4
453.8	4
453.9	4
454.0	4
454.1	3
454.2	3
454.3	3
454.4	4
454.5	4
454.6	4
454.7	4
454.8	5
454.9	4
455.0	3
455.1	3
455.2	3
455.3	4
455.4	3
455.5	3
455.6	3
455.7	4
455.8	4
455.9	4
456.0	4
456.1	4
456.2	4
456.3	4
456.4	4
456.5	4
456.6	4
456.7	4
456.8	4
456.9	4
457.0	4
457.1	4
457.2	4
457.3	4
457.4	5
457.5	4
457.6	3
457.7	3
457.8	4
457.9	4
458.0	4
458.1	3
458.2	3
458.3	3
458.4	2
458.5	2
458.6	4
458.7	5
458.8	5
458.9	5
459.0	4
459.1	4
459.2	3
459.3	3
459.4	3
459.5	4
459.6	5
459.7	5
459.8	5
459.9	4
460.0	4
460.1	3
460.2	3
460.3	3
460.4	3
460.5	3
460.6	3
460.7	4
460.8	5
460.9	5
461.0	4
461.1	4
461.2	3
461.3	3
461.4	3
461.5	4
461.6	5
461.7	5
461.8	4
461.9	4
462.0	4
462.1	5
462.2	5
462.3	5
462.4	5
462.5	5
462.6	5
462.7	5
462.8	5
462.9	5
463.0	4
463.1	4
463.2	3
463.3	4
463.4	4
463.5	5
463.6	5
463.7	5
463.8	5
463.9	4
464.0	4
464.1	4
464.2	5
464.3	4
464.4	3
464.5	3
464.6	2
464.7	2
464.8	3
464.9	4
465.0	5
465.1	5
465.2	5
465.3	4
465.4	4
465.5	4
465.6	4
465.7	4
465.8	4
465.9	4
466.0	4
466.1	3
466.2	4
466.3	5
466.4	5
466.5	4
466.6	3
466.7	3
466.8	4
466.9	4
467.0	4
467.1	5
467.2	5
467.3	5
467.4	4
467.5	4
467.6	4
467.7	4
467.8	3
467.9	2
468.0	3
468.1	4
468.2	5
468.3	5
468.4	4
468.5	4
468.6	4
468.7	4
468.8	5
468.9	5
469.0	4
469.1	3
469.2	4
469.3	5
469.4	5
469.5	4
469.6	3
469.7	3
469.8	4
469.9	4
470.0	4
470.1	4
470.2	4
470.3	3
470.4	3
470.5	4
470.6	5
470.7	6
470.8	5
470.9	4
471.0	4
471.1	5
471.2	5
471.3	4
471.4	3
471.5	3
471.6	4
471.7	4
471.8	4
471.9	4
472.0	4
472.1	3
472.2	3
472.3	2
472.4	3
472.5	3
472.6	4
472.7	4
472.8	3
472.9	3
473.0	3
473.1	4
473.2	5
473.3	5
473.4	4
473.5	3
473.6	3
473.7	4
473.8	4
473.9	4
474.0	5
474.1	5
474.2	4
474.3	4
474.4	4
474.5	4
474.6	3
474.7	3
474.8	3
474.9	4
475.0	4
475.1	4
475.2	4
475.3	4
475.4	4
475.5	3
475.6	3
475.7	4
475.8	4
475.9	4
476.0	4
476.1	4
476.2	4
476.3	4
476.4	4
476.5	4
476.6	4
476.7	4
476.8	3
476.9	3
477.0	3
477.1	3
477.2	3
477.3	4
477.4	5
477.5	5
477.6	5
477.7	4
477.8	5
477.9	5
478.0	5
478.1	4
478.2	4
478.3	4
478.4	4
478.5	3
478.6	3
478.7	3
478.8	3
478.9	2
479.0	2
479.1	2
479.2	3
479.3	4
479.4	5
479.5	4
479.6	4
479.7	4
479.8	4
479.9	4
480.0	3
480.1	3
480.2	3
480.3	5
480.4	6
480.5	6
