Mass spectrum: Amorphin; LC-ESI-QQQ; MS2; Frag=135.0V CID@25.0; [M+H]+
Name: Amorphin
Class: Flavonoids
Formula: C34H40O16
Exact mass: 704.6883
SMILES: C=C(CO[C@@H]1O[C@@H](CO[C@@H]2OC[C@H](O)[C@H](O)[C@H]2O)[C@@H](O)[C@H](O)[C@H]1O)[C@@H]1Cc2c(ccc3c2OC2COc4cc(OC)c(OC)cc4C2C3=O)O1
InChI: InChI=1S/C34H40O16/c1-13(9-45-34-31(41)29(39)28(38)24(50-34)12-47-33-30(40)27(37)17(35)10-46-33)19-7-16-18(48-19)5-4-14-26(36)25-15-6-21(42-2)22(43-3)8-20(15)44-11-23(25)49-32(14)16/h4-6,8,17,19,23-25,27-31,33-35,37-41H,1,7,9-12H2,2-3H3/t17-,19-,23?,24-,25?,27-,28+,29-,30+,31+,33-,34+/m0/s1
Instrument: Agilent 6410 Triple Quadrupole LC/MS system
Instrument type: LC-ESI-QQQ
Ms type: MS2
Ion mode: POSITIVE
Precursor type: [M+H]+
m/z	relative intensity
410.1	1
410.2	2
410.3	5
410.4	9
410.5	16
410.6	27
410.7	43
410.8	63
410.9	83
411.0	97
411.1	99
411.2	89
411.3	67
411.4	40
411.5	15
411.6	2
