Mass spectrum: Andrographolide; LC-ESI-QQQ; MS2; Frag=135.0V CID@10.0; [M+H]+
Name: Andrographolide
Class: Terpenoids
Formula: C20H30O5
Exact mass: 350.4591
SMILES: C=C1CCC2C(C)(CO)C(O)CC[C@]2(C)C1C/C=C1/C(=O)OCC1O
InChI: InChI=1S/C20H30O5/c1-12-4-7-16-19(2,9-8-17(23)20(16,3)11-21)14(12)6-5-13-15(22)10-25-18(13)24/h5,14-17,21-23H,1,4,6-11H2,2-3H3/b13-5+/t14?,15?,16?,17?,19-,20?/m1/s1
Instrument: Agilent 6410 Triple Quadrupole LC/MS system
Instrument type: LC-ESI-QQQ
Ms type: MS2
Ion mode: POSITIVE
Precursor type: [M+H]+
m/z	relative intensity
104.6	1
104.7	2
104.8	4
104.9	4
105.0	3
120.6	1
120.7	2
120.8	4
120.9	4
121.0	3
121.1	3
121.2	2
121.3	2
121.4	1
121.5	0
121.6	0
121.7	0
121.8	0
121.9	0
122.0	0
122.1	0
122.2	0
122.3	0
122.4	0
122.5	0
122.6	0
122.7	0
122.8	0
122.9	0
123.0	1
123.1	1
123.2	1
123.3	1
123.4	0
123.5	0
123.6	0
123.7	0
123.8	0
123.9	0
124.0	0
124.1	0
124.2	0
124.3	0
124.4	0
124.5	0
124.6	0
124.7	0
124.8	0
124.9	0
125.0	0
125.1	0
125.2	0
125.3	0
125.4	0
125.5	0
125.6	0
125.7	0
125.8	0
125.9	0
126.0	0
126.1	0
126.2	0
126.3	0
126.4	0
126.5	0
126.6	0
126.7	0
126.8	0
126.9	0
127.0	0
127.1	0
127.2	0
127.3	0
127.4	0
127.5	0
127.6	0
127.7	0
127.8	0
127.9	0
128.0	0
128.1	0
128.2	0
128.3	0
128.4	0
128.5	0
128.6	0
128.7	0
128.8	0
128.9	0
129.0	0
129.1	0
129.2	0
129.3	0
129.4	0
129.5	0
129.6	0
129.7	0
129.8	0
129.9	0
130.0	0
130.1	0
130.2	0
130.3	0
130.4	0
130.5	0
130.6	0
130.7	0
130.8	0
130.9	1
131.0	3
131.1	3
131.2	2
131.3	1
131.4	0
131.5	0
131.6	0
131.7	0
131.8	0
131.9	0
132.0	0
132.1	0
132.2	0
132.3	0
132.4	0
132.5	0
132.6	0
132.7	1
132.8	2
132.9	3
133.0	3
133.1	3
133.2	3
133.3	3
133.4	3
133.5	2
133.6	1
133.7	0
133.8	0
133.9	0
134.0	0
134.1	0
134.2	0
134.3	0
134.4	0
134.5	0
134.6	0
134.7	0
134.8	0
134.9	0
135.0	0
135.1	0
135.2	0
135.3	0
135.4	0
135.5	0
135.6	0
135.7	0
135.8	0
135.9	0
136.0	0
136.1	0
136.2	0
136.3	0
136.4	0
136.5	0
136.6	0
136.7	0
136.8	0
136.9	0
137.0	0
137.1	0
137.2	0
137.3	0
137.4	0
137.5	0
137.6	0
137.7	0
137.8	0
137.9	0
138.0	0
138.1	0
138.2	0
138.3	0
138.4	0
138.5	0
138.6	0
138.7	0
138.8	0
138.9	0
139.0	0
139.1	0
139.2	0
139.3	0
139.4	0
139.5	0
139.6	0
139.7	0
139.8	0
139.9	0
140.0	0
140.1	0
140.2	0
140.3	0
140.4	0
140.5	0
140.6	0
140.7	0
140.8	0
140.9	0
141.0	0
141.1	0
141.2	0
141.3	0
141.4	0
141.5	0
141.6	0
141.7	0
141.8	0
141.9	0
142.0	0
142.1	0
142.2	0
142.3	0
142.4	0
142.5	0
142.6	0
142.7	0
142.8	0
142.9	0
143.0	0
143.1	0
143.2	1
143.3	1
143.4	1
143.5	1
143.6	0
143.7	0
143.8	0
143.9	0
144.0	0
144.1	0
144.2	0
144.3	0
144.4	0
144.5	0
144.6	0
144.7	1
144.8	1
144.9	2
145.0	3
145.1	3
145.2	3
145.3	3
158.9	1
159.0	3
159.1	4
159.2	4
159.3	3
174.8	2
174.9	3
175.0	4
175.1	5
175.2	4
175.3	4
175.4	2
186.6	1
186.7	3
186.8	6
186.9	7
187.0	7
187.1	6
187.2	4
187.3	2
204.7	0
204.8	2
204.9	4
205.0	5
205.1	5
254.7	1
254.8	2
254.9	3
255.0	3
255.1	3
255.2	2
255.3	1
255.4	0
255.5	0
255.6	0
255.7	0
255.8	0
255.9	0
256.0	0
256.1	0
256.2	0
256.3	0
256.4	0
256.5	0
256.6	1
256.7	1
256.8	1
256.9	1
257.0	1
257.1	1
257.2	1
257.3	1
257.4	0
257.5	0
257.6	0
257.7	0
257.8	0
257.9	0
258.0	0
258.1	0
258.2	0
258.3	0
258.4	0
258.5	0
258.6	0
258.7	0
258.8	0
258.9	0
259.0	0
259.1	0
259.2	0
259.3	0
259.4	0
259.5	0
259.6	0
259.7	0
259.8	0
259.9	0
260.0	0
260.1	0
260.2	0
260.3	0
260.4	0
260.5	0
260.6	0
260.7	0
260.8	0
260.9	0
261.0	0
261.1	0
261.2	0
261.3	0
261.4	0
261.5	0
261.6	0
261.7	0
261.8	0
261.9	0
262.0	0
262.1	0
262.2	0
262.3	0
262.4	0
262.5	0
262.6	0
262.7	0
262.8	0
262.9	0
263.0	0
263.1	0
263.2	0
263.3	0
263.4	0
263.5	0
263.6	0
263.7	0
263.8	0
263.9	0
264.0	0
264.1	0
264.2	0
264.3	0
264.4	0
264.5	0
264.6	0
264.7	0
264.8	0
264.9	0
265.0	0
265.1	0
265.2	0
265.3	0
265.4	0
265.5	0
265.6	0
265.7	0
265.8	0
265.9	0
266.0	0
266.1	0
266.2	0
266.3	0
266.4	0
266.5	0
266.6	0
266.7	0
266.8	0
266.9	0
267.0	0
267.1	0
267.2	0
267.3	0
267.4	0
267.5	0
267.6	0
267.7	0
267.8	0
267.9	0
268.0	0
268.1	0
268.2	0
268.3	0
268.4	1
268.5	1
268.6	1
268.7	0
268.8	0
268.9	0
269.0	0
269.1	0
269.2	0
269.3	0
269.4	0
269.5	0
269.6	0
269.7	0
269.8	0
269.9	0
270.0	0
270.1	0
270.2	0
270.3	0
270.4	0
270.5	0
270.6	0
270.7	0
270.8	0
270.9	0
271.0	1
271.1	1
271.2	1
271.3	0
271.4	0
271.5	0
271.6	0
271.7	0
271.8	0
271.9	0
272.0	0
272.1	0
272.2	0
272.3	0
272.4	0
272.5	0
272.6	0
272.7	0
272.8	0
272.9	0
273.0	0
273.1	0
273.2	1
273.3	1
273.4	0
273.5	0
273.6	0
273.7	0
273.8	0
273.9	0
274.0	0
274.1	0
274.2	0
274.3	0
274.4	0
274.5	0
274.6	0
274.7	0
274.8	0
274.9	0
275.0	1
275.1	1
275.2	2
275.3	2
275.4	1
275.5	1
275.6	0
275.7	0
275.8	0
275.9	0
276.0	0
276.1	0
276.2	0
276.3	0
276.4	0
276.5	0
276.6	0
276.7	0
276.8	0
276.9	0
277.0	0
277.1	0
277.2	0
277.3	0
277.4	0
277.5	0
277.6	0
277.7	0
277.8	0
277.9	0
278.0	0
278.1	0
278.2	0
278.3	0
278.4	0
278.5	0
278.6	0
278.7	0
278.8	0
278.9	0
279.0	0
279.1	0
279.2	0
279.3	0
279.4	0
279.5	0
279.6	0
279.7	0
279.8	0
279.9	0
280.0	0
280.1	0
280.2	0
280.3	0
280.4	0
280.5	0
280.6	0
280.7	0
280.8	0
280.9	0
281.0	0
281.1	0
281.2	0
281.3	0
281.4	0
281.5	0
281.6	0
281.7	0
281.8	0
281.9	0
282.0	0
282.1	0
282.2	0
282.3	0
282.4	0
282.5	0
282.6	0
282.7	0
282.8	0
282.9	0
283.0	0
283.1	0
283.2	0
283.3	0
283.4	0
283.5	0
283.6	0
283.7	0
283.8	0
283.9	0
284.0	0
284.1	0
284.2	0
284.3	0
284.4	0
284.5	0
284.6	1
284.7	2
284.8	4
284.9	4
285.0	4
285.1	4
285.2	4
285.3	3
285.4	2
296.9	2
297.0	3
297.1	5
297.2	6
297.3	6
297.4	4
297.5	2
314.7	0
314.8	2
314.9	3
315.0	4
315.1	3
350.3	1
350.4	3
350.5	7
350.6	11
350.7	15
350.8	24
350.9	39
351.0	57
351.1	75
351.2	90
351.3	99
351.4	94
351.5	69
351.6	34
351.7	6
351.8	0
