Mass spectrum: liquiritigenin; LC-ESI-QQQ; MS2; Frag=135.0V CID@10.0; [M+H]+
Name: Liquiritigenin
Name: (2S)-7-hydroxy-2-(4-hydroxyphenyl)-2,3-dihydrochromen-4-one
Name: liquiritigenin
Class: Flavonoids
Formula: C15H12O4
Exact mass: 256.2605
SMILES: O=C1C[C@@H](c2ccc(O)cc2)Oc2cc(O)ccc21
InChI: InChI=1S/C15H12O4/c16-10-3-1-9(2-4-10)14-8-13(18)12-6-5-11(17)7-15(12)19-14/h1-7,14,16-17H,8H2/t14-/m0/s1
Instrument: Agilent 6410 Triple Quadrupole LC/MS system
Instrument type: LC-ESI-QQQ
Ms type: MS2
Ion mode: POSITIVE
Precursor type: [M+H]+
m/z	relative intensity
136.3	0
136.4	2
136.5	6
136.6	11
136.7	16
136.8	23
136.9	30
137.0	34
137.1	34
137.2	30
137.3	22
137.4	13
137.5	5
137.6	0
146.3	0
146.4	2
146.5	3
146.6	6
146.7	9
146.8	13
146.9	17
147.0	19
147.1	19
147.2	18
147.3	15
147.4	10
147.5	4
147.6	0
210.8	2
210.9	3
211.0	4
211.1	4
211.2	4
211.3	3
211.4	2
256.2	0
256.3	1
256.4	6
256.5	14
256.6	24
256.7	37
256.8	56
256.9	77
257.0	93
257.1	99
257.2	96
257.3	83
257.4	61
257.5	32
257.6	8
257.7	0
