Mass spectrum: harmine; LC-ESI-QQQ; MS2; Frag=135.0V CID@5.0; [M+H]+
Name: harmine
Class: Alkaloids
Formula: C13H12N2O
Exact mass: 212.2534
SMILES: COc1ccc2c(c1)[nH]c1c(C)nccc12
InChI: InChI=1S/C13H12N2O/c1-8-13-11(5-6-14-8)10-4-3-9(16-2)7-12(10)15-13/h3-7,15H,1-2H3
Instrument: Agilent 6410 Triple Quadrupole LC/MS system
Instrument type: LC-ESI-QQQ
Ms type: MS2
Ion mode: POSITIVE
Precursor type: [M+H]+
m/z	relative intensity
212.3	0
212.4	2
212.5	8
212.6	17
212.7	30
212.8	47
212.9	68
213.0	87
213.1	98
213.2	99
213.3	90
213.4	69
213.5	41
213.6	14
213.7	0
