Mass spectrum: alpha-Dihydrolysergol; LC-ESI-QQQ; MS2; Frag=135.0V CID@25.0; [M+H]+
Name: alpha-Dihydrolysergol
Class: Alkaloids
Formula: C16H20N2O
Exact mass: 256.3506
SMILES: CN1C[C@H](CO)C[C@@H]2c3cccc4[nH]cc(c34)C[C@H]21
InChI: InChI=1S/C16H20N2O/c1-18-8-10(9-19)5-13-12-3-2-4-14-16(12)11(7-17-14)6-15(13)18/h2-4,7,10,13,15,17,19H,5-6,8-9H2,1H3/t10-,13-,15-/m1/s1
Instrument: Agilent 6410 Triple Quadrupole LC/MS system
Instrument type: LC-ESI-QQQ
Ms type: MS2
Ion mode: POSITIVE
Precursor type: [M+H]+
m/z	relative intensity
129.6	2
129.7	4
129.8	7
129.9	10
130.0	12
130.1	12
130.2	11
130.3	9
130.4	7
130.5	4
153.5	3
153.6	4
153.7	7
153.8	12
153.9	17
154.0	22
154.1	23
154.2	23
154.3	19
154.4	14
154.5	8
154.8	6
154.9	9
155.0	11
155.1	12
155.2	11
155.3	10
155.4	8
155.8	4
155.9	7
156.0	9
156.1	10
156.2	10
156.3	9
156.4	7
156.5	3
164.7	2
164.8	3
164.9	5
165.0	6
165.1	7
165.2	7
165.3	6
165.4	4
166.5	4
166.6	5
166.7	9
166.8	14
166.9	19
167.0	24
167.1	27
167.2	27
167.3	25
167.4	20
167.5	13
167.8	8
167.9	13
168.0	18
168.1	20
168.2	20
168.3	18
168.4	14
168.5	8
168.6	3
169.5	2
169.6	3
169.7	6
169.8	11
169.9	17
170.0	22
170.1	26
170.2	27
170.3	24
170.4	19
170.5	11
170.6	4
178.7	2
178.8	4
178.9	5
179.0	7
179.1	8
179.2	8
179.3	7
179.7	5
179.8	8
179.9	12
180.0	15
180.1	17
180.2	17
180.3	15
180.4	12
180.5	7
180.8	3
180.9	5
181.0	7
181.1	9
181.2	9
181.3	9
181.4	8
181.5	8
181.6	10
181.7	15
181.8	25
181.9	36
182.0	45
182.1	51
182.2	53
182.3	49
182.4	38
182.5	22
182.6	8
182.7	0
183.8	2
183.9	3
184.0	5
184.1	5
184.2	5
184.3	4
184.4	3
191.7	3
191.8	5
191.9	7
192.0	9
192.1	10
192.2	11
192.3	10
192.4	8
192.7	7
192.8	12
192.9	17
193.0	22
193.1	24
193.2	25
193.3	23
193.4	18
193.5	10
193.6	3
195.7	2
195.8	4
195.9	7
196.0	9
196.1	11
196.2	11
196.3	9
196.4	7
196.5	4
207.4	4
207.5	5
207.6	8
207.7	14
207.8	24
207.9	36
208.0	49
208.1	57
208.2	60
208.3	55
208.4	43
208.5	25
208.6	9
208.7	0
256.3	1
256.4	2
256.5	5
256.6	9
256.7	16
256.8	29
256.9	50
257.0	73
257.1	92
257.2	99
257.3	96
257.4	81
257.5	56
257.6	27
257.7	5
257.8	0
