Mass spectrum: 17alpha-Strophadogenin; LC-ESI-QQQ; MS2; Frag=135.0V CID@5.0 ; [M+H]+
Name: 17alpha-Strophadogenin
Class: Steroids
Formula: C23H32O7
Exact mass: 420.50729
SMILES: C[C@]12CCC3C(CCC4(O)CC(O)CC[C@]34C=O)C1(O)CC(O)[C@H]2C1=CC(=O)OC1
InChI: InChI=1S/C23H32O7/c1-20-5-3-15-16(4-7-22(28)9-14(25)2-6-21(15,22)12-24)23(20,29)10-17(26)19(20)13-8-18(27)30-11-13/h8,12,14-17,19,25-26,28-29H,2-7,9-11H2,1H3/t14?,15?,16?,17?,19-,20-,21+,22?,23?/m1/s1
Instrument: Agilent 6410 Triple Quadrupole LC/MS system
Instrument type: LC-ESI-QQQ
Ms type: MS2
Ion mode: POSITIVE
Precursor type: [M+H]+
m/z	relative intensity
420.3	1
420.4	3
420.5	7
420.6	14
420.7	23
420.8	38
420.9	57
421.0	76
421.1	91
421.2	99
421.3	98
421.4	85
421.5	60
421.6	31
421.7	8
421.8	0
