Mass spectrum: Diversolide A.; LC-ESI-QQQ; MS2; Frag=135.0V CID@10.0; [M+H]+
Name: Diversolide A.
Class: Terpenoids
Formula: C25H30O7
Exact mass: 442.5136
SMILES: C/C=C(\C)C(=O)O[C@H]1CC(C)=C2C(=O)C=C(C)[C@@H]2[C@H]2OC(=O)[C@](C)(OC(=O)/C(C)=C/C)[C@H]12
InChI: InChI=1S/C25H30O7/c1-8-12(3)22(27)30-17-11-15(6)18-16(26)10-14(5)19(18)21-20(17)25(7,24(29)31-21)32-23(28)13(4)9-2/h8-10,17,19-21H,11H2,1-7H3/b12-8+,13-9+/t17-,19-,20+,21+,25+/m0/s1
Instrument: Agilent 6410 Triple Quadrupole LC/MS system
Instrument type: LC-ESI-QQQ
Ms type: MS2
Ion mode: POSITIVE
Precursor type: [M+H]+
m/z	relative intensity
82.3	1
82.4	3
82.5	6
82.6	12
82.7	20
82.8	30
82.9	42
83.0	52
83.1	56
83.2	52
83.3	40
83.4	24
83.5	8
83.6	0
242.2	0
242.3	1
242.4	5
242.5	10
242.6	17
242.7	30
242.8	49
242.9	72
243.0	90
243.1	99
243.2	98
243.3	86
243.4	61
243.5	31
243.6	6
243.7	0
260.8	3
260.9	4
261.0	6
261.1	7
261.2	6
261.3	4
261.4	2
342.6	1
342.7	3
342.8	6
342.9	9
343.0	12
343.1	13
343.2	13
343.3	11
343.4	7
343.5	4
