Mass spectrum: Ergocalciferol; LC-ESI-QQQ; MS2; Frag=135.0V CID@10.0; [M+H]+
Name: Vitamin D2
Name: Ergocalciferol
Name: Viosterin
Name: Osteil
Name: Viosterol
Name: Ercalciol
Name: Irradiated ergosterol
Name: Condacaps
Name: Condocaps
Name: Condol
Name: Crtron
Name: Crystallina
Name: Daral
Name: (5Z,7E,22E)-(3S)-9,10-Secoergosta-5,7,10(19),22-tetraen-3-ol
Name: Davitin
Name: Deltalin
Name: Deratol
Name: Diactol
Name: Drisdol
Name: Ergorone
Name: Ertron
Name: Fortodyl
Name: Geltabs
Name: Hyperkil
Name: Irradiated ergosta-5,7,22-trien-3-beta-ol
Name: Metadee
Name: Mulsiferol
Name: Mykostin
Name: Oleovitamin D2
Name: Ostelin
Name: Rodinec
Name: Radsterin
Name: Sterogyl
Name: Vigantol
Class: Steroids
Formula: C28H44O
Exact mass: 396.6623
SMILES: C=C1CC[C@H](O)C/C1=C/C=C1\CCC[C@@]2(C)C1CCC2[C@H](C)/C=C/[C@H](C)C(C)C
InChI: InChI=1S/C28H44O/c1-19(2)20(3)9-10-22(5)26-15-16-27-23(8-7-17-28(26,27)6)12-13-24-18-25(29)14-11-21(24)4/h9-10,12-13,19-20,22,25-27,29H,4,7-8,11,14-18H2,1-3,5-6H3/b10-9+,23-12+,24-13-/t20-,22+,25-,26?,27?,28+/m0/s1
Instrument: Agilent 6410 Triple Quadrupole LC/MS system
Instrument type: LC-ESI-QQQ
Ms type: MS2
Ion mode: POSITIVE
Precursor type: [M+H]+
m/z	relative intensity
68.4	3
68.5	5
68.6	7
68.7	11
68.8	14
68.9	15
69.0	13
69.1	11
69.2	10
69.3	8
69.4	6
82.5	1
82.6	3
82.7	8
82.8	15
82.9	20
83.0	20
83.1	15
83.2	9
83.3	5
106.7	4
106.8	6
106.9	8
107.0	9
107.1	10
107.2	9
107.3	8
107.4	6
107.5	4
108.6	2
108.7	4
108.8	7
108.9	10
109.0	10
109.1	7
109.2	4
146.7	4
146.8	6
146.9	8
147.0	8
147.1	9
147.2	11
147.3	13
147.4	12
147.5	7
147.6	3
176.7	3
176.8	5
176.9	7
177.0	7
177.1	6
177.2	4
188.6	0
188.7	2
188.8	7
188.9	17
189.0	25
189.1	24
189.2	15
189.3	5
230.7	1
230.8	3
230.9	7
231.0	11
231.1	12
231.2	8
231.3	3
242.7	3
242.8	5
242.9	8
243.0	9
243.1	8
243.2	5
255.0	2
255.1	5
255.2	8
255.3	10
255.4	7
255.5	3
270.7	2
270.8	4
270.9	11
271.0	19
271.1	24
271.2	22
271.3	18
271.4	16
271.5	13
271.6	8
271.7	3
298.9	2
299.0	3
299.1	6
299.2	9
299.3	10
299.4	9
299.5	5
308.7	3
308.8	4
308.9	6
309.0	8
309.1	10
309.2	14
309.3	18
309.4	18
309.5	13
309.6	6
313.0	3
313.1	4
313.2	6
313.3	7
313.4	6
313.5	4
326.7	3
326.8	6
326.9	8
327.0	10
327.1	9
327.2	7
327.3	4
378.9	2
379.0	4
379.1	8
379.2	17
379.3	27
379.4	30
379.5	23
379.6	10
379.7	2
396.5	3
396.6	5
396.7	9
396.8	12
396.9	15
397.0	26
397.1	52
397.2	85
397.3	99
397.4	81
397.5	43
397.6	10
397.7	0
