Mass spectrum: 9(11)-Dehydroglycyrrhetic acid; LC-ESI-QQQ; MS2; Frag=135.0V CID@10.0; [M+H]+
Name: 9(11)-Dehydroglycyrrhetic acid
Class: Terpenoids
Formula: C30H46O3
Exact mass: 454.6993
SMILES: CC1(C)C2CC[C@]3(C)C(=CC=C4C5C[C@@](C)(C(=O)O)CC[C@]5(C)CC[C@]43C)[C@@]2(C)CC[C@@H]1O
InChI: InChI=1S/C30H46O3/c1-25(2)21-10-13-30(7)22(28(21,5)12-11-23(25)31)9-8-19-20-18-27(4,24(32)33)15-14-26(20,3)16-17-29(19,30)6/h8-9,20-21,23,31H,10-18H2,1-7H3,(H,32,33)/t20?,21?,23-,26+,27-,28-,29+,30+/m0/s1
Instrument: Agilent 6410 Triple Quadrupole LC/MS system
Instrument type: LC-ESI-QQQ
Ms type: MS2
Ion mode: POSITIVE
Precursor type: [M+H]+
m/z	relative intensity
408.6	2
408.7	3
408.8	5
408.9	9
409.0	17
409.1	29
409.2	40
409.3	46
409.4	45
409.5	37
409.6	24
409.7	10
409.8	1
436.7	1
436.8	2
436.9	6
437.0	12
437.1	17
437.2	19
437.3	18
437.4	15
437.5	10
437.6	5
437.7	1
454.2	0
454.3	2
454.4	4
454.5	6
454.6	8
454.7	11
454.8	17
454.9	29
455.0	48
455.1	69
455.2	88
455.3	98
455.4	99
455.5	91
455.6	71
455.7	42
455.8	16
455.9	1
