Mass spectrum: Lagochilin; LC-ESI-QQQ; MS2; Frag=135.0V CID@15.0; [M+HCOO]-
Name: Lagochilin
Class: Terpenoids
Formula: C20H36O5
Exact mass: 356.5069
SMILES: C[C@@H]1CCC2[C@](C)(CC[C@H](O)[C@@]2(C)CO)[C@]12CCC(CO)(CCO)O2
InChI: InChI=1S/C20H36O5/c1-14-4-5-15-17(2,12-22)16(24)6-7-18(15,3)20(14)9-8-19(13-23,25-20)10-11-21/h14-16,21-24H,4-13H2,1-3H3/t14-,15?,16+,17+,18+,19?,20+/m1/s1
Instrument: Agilent 6410 Triple Quadrupole LC/MS system
Instrument type: LC-ESI-QQQ
Ms type: MS2
Ion mode: NEGATIVE
Precursor type: [M+HCOO]-
m/z	relative intensity
50.4	11
50.5	15
50.6	17
50.7	16
50.8	12
51.0	7
51.1	10
51.2	14
51.3	16
51.4	15
51.6	12
51.7	14
51.8	19
51.9	23
52.0	21
52.1	14
52.3	7
52.4	14
52.5	22
52.6	24
52.7	20
52.8	12
53.0	6
53.1	11
53.2	17
53.3	19
53.4	15
54.2	10
54.3	13
54.4	17
54.5	20
54.6	19
54.7	15
55.0	10
55.1	13
55.2	15
55.3	14
55.4	13
55.5	14
55.6	16
55.7	19
55.8	20
55.9	17
56.0	11
56.2	7
56.3	12
56.4	16
56.5	17
56.6	15
56.8	13
56.9	16
57.0	18
57.1	18
57.2	15
57.3	9
57.5	7
57.6	12
57.7	17
57.8	18
58.7	6
58.8	12
58.9	17
59.0	19
59.1	15
59.3	9
59.4	13
59.5	21
59.6	26
59.7	22
59.8	11
60.0	2
60.1	9
60.2	17
60.3	20
60.4	17
60.5	11
60.7	10
60.8	15
60.9	18
61.0	17
61.1	12
61.3	9
61.4	13
61.5	18
61.6	18
61.7	14
62.0	9
62.1	15
62.2	19
62.3	18
62.4	11
62.6	5
62.7	11
62.8	17
62.9	19
63.0	16
63.2	12
63.3	15
63.4	20
63.5	21
63.6	18
63.8	12
63.9	16
64.0	20
64.1	20
64.2	14
64.4	8
64.5	13
64.6	18
64.7	20
64.8	17
64.9	12
65.1	7
65.2	13
65.3	20
65.4	24
65.5	21
65.6	14
65.8	10
65.9	14
66.0	17
66.1	18
66.2	15
66.4	11
66.5	15
66.6	20
66.7	21
66.8	17
66.9	10
67.1	8
67.2	14
67.3	17
67.4	16
67.5	10
67.7	7
67.8	13
67.9	20
68.0	21
68.1	17
68.2	11
68.4	10
68.5	14
68.6	16
68.7	15
69.0	11
69.1	15
69.2	20
69.3	22
69.4	19
69.5	15
70.2	8
70.3	13
70.4	20
70.5	25
70.6	23
70.7	17
70.8	11
71.5	10
71.6	15
71.7	20
71.8	21
71.9	17
72.0	10
72.2	7
72.3	14
72.4	21
72.5	22
72.6	17
72.8	9
72.9	13
73.0	18
73.1	19
73.2	15
74.1	10
74.2	15
74.3	18
74.4	18
74.5	14
74.7	10
74.8	14
74.9	18
75.0	19
75.1	15
75.3	7
75.4	11
75.5	18
75.6	23
75.7	22
75.8	16
76.0	8
76.1	11
76.2	18
76.3	21
76.4	18
76.5	10
76.7	5
76.8	12
76.9	17
77.0	17
77.1	12
77.3	7
77.4	12
77.5	17
77.6	18
77.7	14
78.0	9
78.1	14
78.2	18
78.3	17
79.2	8
79.3	13
79.4	19
79.5	21
79.6	18
79.7	12
79.9	11
80.0	15
80.1	18
80.2	17
80.3	12
80.5	9
80.6	14
80.7	19
80.8	20
80.9	15
81.2	9
81.3	14
81.4	16
81.5	14
81.8	10
81.9	14
82.0	17
82.1	17
82.2	14
82.4	11
82.5	14
82.6	17
82.7	17
82.8	12
83.0	7
83.1	11
83.2	16
83.3	20
83.4	20
83.5	15
83.6	11
83.8	10
83.9	14
84.0	15
84.1	14
84.2	13
84.3	13
84.4	16
84.5	20
84.6	20
84.7	17
85.6	9
85.7	15
85.8	19
85.9	19
86.0	14
86.3	8
86.4	14
86.5	17
86.6	16
86.9	10
87.0	15
87.1	20
87.2	19
87.3	13
87.5	8
87.6	12
87.7	16
87.8	17
87.9	14
88.1	8
88.2	11
88.3	15
88.4	18
88.5	16
88.6	12
88.9	10
89.0	12
89.1	14
89.2	15
90.1	9
90.2	16
90.3	24
90.4	24
90.5	17
91.3	12
91.4	15
91.5	18
91.6	19
91.7	15
92.0	10
92.1	16
92.2	21
92.3	22
92.4	19
92.5	14
93.3	11
93.4	14
93.5	18
93.6	20
93.7	17
93.9	12
94.0	15
94.1	20
94.2	22
94.3	21
94.4	18
94.5	16
94.6	14
95.2	13
95.3	15
95.4	16
95.5	17
95.6	14
95.8	12
95.9	14
96.0	17
96.1	17
96.2	14
97.0	13
97.1	15
97.2	20
97.3	24
97.4	26
97.5	24
97.6	18
97.7	11
97.8	5
97.9	4
98.0	4
98.1	4
98.3	0
98.4	2
98.5	10
98.6	20
98.7	24
98.8	18
98.9	9
99.1	9
99.2	16
99.3	20
99.4	17
99.7	10
99.8	16
99.9	21
100.0	20
100.1	13
100.3	6
100.4	10
100.5	17
100.6	21
100.7	19
100.8	13
101.0	8
101.1	12
101.2	16
101.3	16
101.4	13
101.6	9
101.7	14
101.8	19
101.9	18
102.0	12
102.2	3
102.3	7
102.4	14
102.5	19
102.6	19
102.7	15
102.8	9
103.0	9
103.1	13
103.2	15
103.3	13
103.4	8
103.6	5
103.7	11
103.8	17
103.9	19
104.0	16
104.8	8
104.9	13
105.0	18
105.1	20
105.2	16
105.4	8
105.5	12
105.6	19
105.7	23
105.8	19
105.9	10
106.1	6
106.2	14
106.3	22
106.4	22
106.5	17
106.7	12
106.8	15
106.9	19
107.0	19
107.1	15
107.3	7
107.4	10
107.5	17
107.6	22
107.7	20
107.8	14
108.0	8
108.1	13
108.2	18
108.3	18
108.4	13
108.6	6
108.7	9
108.8	15
108.9	18
109.0	15
109.3	10
109.4	16
109.5	19
109.6	19
109.7	15
110.5	8
110.6	13
110.7	20
110.8	24
110.9	23
111.0	16
111.2	7
111.3	12
111.4	18
111.5	20
111.6	15
111.8	6
111.9	11
112.0	17
112.1	19
112.2	17
112.3	13
112.5	9
112.6	11
112.7	14
112.8	15
112.9	11
113.1	5
113.2	9
113.3	17
113.4	22
113.5	20
113.6	13
113.8	5
113.9	12
114.0	19
114.1	22
114.2	19
114.3	15
115.0	8
115.1	11
115.2	16
115.3	18
115.4	14
115.5	7
115.7	3
115.8	10
115.9	16
116.0	19
116.1	18
116.2	14
116.4	11
116.5	14
116.6	17
116.7	17
116.8	15
117.0	10
117.1	15
117.2	20
117.3	21
117.4	17
117.6	12
117.7	15
117.8	19
117.9	19
118.0	14
118.1	8
118.3	8
118.4	12
118.5	14
118.6	13
118.7	13
118.8	14
118.9	16
119.0	17
119.1	16
119.2	14
119.5	10
119.6	14
119.7	18
119.8	20
119.9	16
120.1	10
120.2	14
120.3	19
120.4	20
120.5	16
120.8	12
120.9	17
121.0	22
121.1	21
121.2	17
121.4	12
121.5	16
121.6	21
121.7	22
121.8	15
122.0	3
122.1	9
122.2	19
122.3	25
122.4	24
122.5	16
122.8	9
122.9	15
123.0	18
123.1	16
123.3	11
123.4	14
123.5	18
123.6	19
123.7	15
124.0	9
124.1	14
124.2	17
124.3	17
125.2	8
125.3	11
125.4	16
125.5	22
125.6	24
125.7	20
125.8	11
126.0	7
126.1	14
126.2	19
126.3	19
126.4	16
126.6	15
126.7	18
126.8	20
126.9	18
127.0	13
127.2	8
127.3	11
127.4	16
127.5	19
127.6	17
127.7	10
127.9	9
128.0	16
128.1	21
128.2	19
128.3	13
128.5	10
128.6	16
128.7	20
128.8	18
128.9	12
129.1	7
129.2	12
129.3	17
129.4	19
129.5	17
129.6	13
130.4	5
130.5	11
130.6	19
130.7	23
130.8	21
130.9	15
131.1	9
131.2	14
131.3	19
131.4	19
131.5	13
131.7	9
131.8	15
131.9	20
132.0	19
132.1	13
132.3	10
132.4	15
132.5	19
132.6	19
132.7	14
132.9	6
133.0	10
133.1	16
133.2	21
133.3	20
133.4	15
133.7	10
133.8	16
133.9	20
134.0	18
134.1	12
134.3	10
134.4	14
134.5	15
134.6	13
134.8	9
134.9	12
135.0	16
135.1	19
135.2	17
135.3	13
135.5	7
135.6	10
135.7	15
135.8	18
135.9	16
136.2	11
136.3	16
136.4	19
136.5	20
136.6	16
136.9	12
137.0	16
137.1	20
137.2	19
137.3	15
137.5	11
137.6	15
137.7	19
137.8	19
137.9	15
138.1	13
138.2	16
138.3	19
138.4	17
138.5	11
138.7	6
138.8	9
138.9	12
139.0	14
139.1	13
139.2	11
139.3	12
139.4	15
139.5	19
139.6	19
139.7	17
139.9	13
140.0	16
140.1	19
140.2	20
140.3	16
140.4	11
140.6	7
140.7	13
140.8	19
140.9	21
141.0	18
141.1	12
141.3	8
141.4	14
141.5	21
141.6	22
141.7	17
141.8	10
142.0	9
142.1	16
142.2	20
142.3	19
142.4	15
142.6	13
142.7	17
142.8	18
142.9	16
143.0	10
143.2	7
143.3	13
143.4	19
143.5	19
143.6	14
143.8	5
143.9	8
144.0	15
144.1	19
144.2	17
144.3	12
144.5	8
144.6	12
144.7	16
144.8	18
144.9	17
145.1	15
145.2	17
145.3	19
145.4	18
145.5	14
145.8	8
145.9	12
146.0	16
146.1	17
147.0	6
147.1	10
147.2	18
147.3	22
147.4	19
147.5	12
147.7	9
147.8	15
147.9	20
148.0	20
148.1	15
148.3	10
148.4	15
148.5	19
148.6	18
148.7	13
148.9	9
149.0	12
149.1	15
149.2	16
149.3	15
149.5	13
149.6	14
149.7	18
149.8	20
149.9	18
150.0	12
150.2	7
150.3	11
150.4	17
150.5	22
150.6	21
150.7	17
150.8	12
151.3	11
151.4	11
151.5	13
151.6	17
151.7	21
151.8	21
151.9	18
152.0	13
152.7	10
152.8	13
152.9	18
153.0	22
153.1	21
153.2	15
153.4	7
153.5	11
153.6	16
153.7	18
153.8	14
154.7	12
154.8	15
154.9	17
155.0	16
155.1	11
155.3	7
155.4	11
155.5	18
155.6	23
155.7	22
155.8	17
156.0	8
156.1	12
156.2	18
156.3	20
156.4	16
156.7	10
156.8	17
156.9	22
157.0	20
157.1	14
157.3	10
157.4	15
157.5	19
157.6	20
157.7	15
157.9	8
158.0	13
158.1	20
158.2	22
158.3	19
158.4	13
158.6	10
158.7	13
158.8	16
158.9	15
159.0	12
159.2	10
159.3	12
159.4	14
159.5	14
159.6	12
159.8	7
159.9	11
160.0	17
160.1	23
160.2	22
160.3	16
160.5	9
160.6	13
160.7	17
160.8	17
160.9	12
161.1	6
161.2	11
161.3	17
161.4	19
161.5	16
161.6	11
161.8	9
161.9	15
162.0	21
162.1	21
162.2	15
162.4	8
162.5	13
162.6	18
162.7	18
163.0	13
163.1	18
163.2	22
163.3	21
163.4	17
163.5	11
163.7	8
163.8	10
163.9	13
164.0	15
164.1	15
164.3	11
164.4	13
164.5	16
164.6	17
164.7	13
165.0	8
165.1	14
165.2	18
165.3	19
165.4	17
165.5	13
165.7	11
165.8	14
165.9	15
166.0	13
166.2	10
166.3	13
166.4	15
166.5	15
166.6	13
166.9	9
167.0	14
167.1	17
167.2	16
167.3	11
167.5	8
167.6	13
167.7	17
167.8	18
167.9	16
168.0	12
168.2	10
168.3	14
168.4	17
168.5	17
168.6	14
170.1	8
170.2	12
170.3	16
170.4	17
170.5	15
171.3	5
171.4	9
171.5	18
171.6	24
171.7	23
171.8	17
172.6	10
172.7	14
172.8	18
172.9	20
173.0	17
173.2	10
173.3	13
173.4	19
173.5	23
173.6	21
173.7	14
173.9	7
174.0	13
174.1	18
174.2	19
174.3	15
174.5	9
174.6	12
174.7	17
174.8	19
174.9	17
175.0	13
175.2	9
175.3	12
175.4	15
175.5	16
175.6	13
175.8	9
175.9	12
176.0	16
176.1	19
176.2	18
176.3	13
176.5	7
176.6	12
176.7	18
176.8	20
176.9	16
177.1	10
177.2	14
177.3	18
177.4	18
177.5	13
177.7	8
177.8	12
177.9	17
178.0	19
178.1	16
178.2	11
178.4	8
178.5	12
178.6	17
178.7	20
178.8	19
179.1	14
179.2	19
179.3	23
179.4	20
179.5	13
179.7	7
179.8	14
179.9	19
180.0	19
180.1	13
180.3	6
180.4	12
180.5	21
180.6	25
180.7	20
180.8	10
181.0	3
181.1	10
181.2	17
181.3	20
181.4	17
182.2	8
182.3	12
182.4	18
182.5	21
182.6	18
182.7	12
183.5	6
183.6	13
183.7	21
183.8	24
183.9	22
184.0	14
184.2	9
184.3	14
184.4	19
184.5	17
184.6	10
184.8	6
184.9	13
185.0	19
185.1	19
185.2	14
185.4	6
185.5	10
185.6	16
185.7	19
185.8	16
185.9	10
186.1	9
186.2	14
186.3	19
186.4	19
186.5	16
187.3	10
187.4	13
187.5	17
187.6	18
187.7	16
188.0	11
188.1	17
188.2	24
188.3	26
188.4	22
188.5	15
188.7	13
188.8	17
188.9	19
189.0	17
189.9	9
190.0	13
190.1	18
190.2	18
190.3	14
190.6	6
190.7	13
190.8	18
190.9	18
191.0	13
191.2	9
191.3	13
191.4	17
191.5	17
191.6	14
191.8	10
191.9	14
192.0	19
192.1	21
192.2	16
192.3	9
192.5	7
192.6	14
192.7	20
192.8	20
192.9	16
193.0	12
193.6	12
193.7	14
193.8	16
193.9	18
194.0	19
194.1	20
194.2	18
194.3	14
194.5	12
194.6	15
194.7	18
194.8	17
195.7	5
195.8	11
195.9	17
196.0	19
196.1	16
197.0	9
197.1	15
197.2	19
197.3	19
197.4	14
197.5	8
197.7	8
197.8	12
197.9	14
198.0	13
198.1	11
198.2	12
198.3	14
198.4	17
198.5	18
198.6	15
198.9	11
199.0	15
199.1	19
199.2	18
199.3	15
199.5	9
199.6	12
199.7	17
199.8	18
199.9	15
200.0	11
200.2	10
200.3	13
200.4	15
200.5	13
200.6	9
200.8	7
200.9	10
201.0	13
201.1	15
201.2	13
201.4	10
201.5	13
201.6	18
201.7	20
201.8	16
202.1	8
202.2	15
202.3	20
202.4	21
202.5	17
203.4	8
203.5	15
203.6	20
203.7	19
203.8	14
204.0	11
204.1	15
204.2	19
204.3	20
204.4	17
204.5	10
204.7	5
204.8	10
204.9	16
205.0	18
205.1	16
205.3	13
205.4	17
205.5	21
205.6	20
205.7	14
205.8	7
206.0	7
206.1	12
206.2	16
206.3	16
206.4	12
206.6	10
206.7	15
206.8	19
206.9	19
207.0	13
207.2	9
207.3	13
207.4	17
207.5	18
207.6	16
207.8	11
207.9	14
208.0	17
208.1	18
208.2	16
208.4	11
208.5	13
208.6	18
208.7	22
208.8	20
208.9	13
209.1	5
209.2	10
209.3	17
209.4	19
209.5	15
209.7	9
209.8	13
209.9	20
210.0	24
210.1	21
210.2	13
210.4	5
210.5	10
210.6	17
210.7	19
210.8	16
211.1	11
211.2	16
211.3	19
211.4	17
211.5	11
211.7	8
211.8	12
211.9	16
212.0	17
212.1	15
212.3	12
212.4	13
212.5	17
212.6	19
212.7	18
212.8	13
213.0	9
213.1	13
213.2	16
213.3	16
213.6	12
213.7	16
213.8	20
213.9	20
214.0	15
214.1	9
214.3	7
214.4	13
214.5	19
214.6	20
214.7	17
214.9	14
215.0	17
215.1	19
215.2	19
215.3	15
215.5	12
215.6	15
215.7	18
215.8	18
215.9	16
216.0	11
216.2	8
216.3	13
216.4	18
216.5	18
216.6	14
216.8	7
216.9	11
217.0	18
217.1	22
217.2	18
217.3	12
218.0	8
218.1	12
218.2	18
218.3	21
218.4	18
218.5	12
218.7	5
218.8	8
218.9	14
219.0	18
219.1	17
219.4	13
219.5	17
219.6	20
219.7	17
220.0	10
220.1	16
220.2	22
220.3	23
220.4	19
220.5	13
221.2	6
221.3	9
221.4	14
221.5	19
221.6	19
221.7	14
221.9	10
222.0	14
222.1	20
222.2	21
222.3	16
222.4	9
222.6	9
222.7	14
222.8	17
222.9	18
223.0	15
223.2	13
223.3	15
223.4	17
223.5	15
223.6	12
223.8	8
223.9	11
224.0	15
224.1	19
224.2	19
224.3	15
224.5	8
224.6	13
224.7	17
224.8	18
224.9	13
225.1	8
225.2	12
225.3	17
225.4	19
225.5	16
226.4	8
226.5	15
226.6	20
226.7	21
226.8	16
226.9	10
227.1	10
227.2	14
227.3	16
227.4	15
227.5	11
227.7	6
227.8	9
227.9	13
228.0	15
228.1	14
228.4	12
228.5	14
228.6	15
228.7	14
228.9	10
229.0	13
229.1	18
229.2	20
229.3	18
229.4	13
229.6	8
229.7	12
229.8	18
229.9	21
230.0	18
230.3	12
230.4	17
230.5	21
230.6	19
230.7	13
230.9	9
231.0	14
231.1	18
231.2	18
231.3	13
231.5	9
231.6	13
231.7	19
231.8	19
231.9	14
232.2	6
232.3	13
232.4	19
232.5	20
232.6	16
233.4	6
233.5	12
233.6	20
233.7	23
233.8	19
233.9	11
234.1	7
234.2	14
234.3	20
234.4	20
234.5	15
234.7	11
234.8	15
234.9	19
235.0	20
235.1	18
235.2	12
235.4	8
235.5	13
235.6	18
235.7	18
235.8	14
236.0	12
236.1	16
236.2	19
236.3	18
236.4	15
236.6	11
236.7	15
236.8	19
236.9	21
237.0	18
237.1	13
237.3	7
237.4	10
237.5	15
237.6	17
237.7	14
237.9	8
238.0	12
238.1	17
238.2	20
238.3	16
238.4	10
238.6	8
238.7	14
238.8	19
238.9	18
239.0	13
239.2	7
239.3	12
239.4	18
239.5	18
239.6	12
239.8	4
239.9	10
240.0	20
240.1	25
240.2	23
240.3	15
240.5	6
240.6	10
240.7	16
240.8	20
240.9	18
241.0	12
241.2	10
241.3	14
241.4	16
241.5	14
241.8	10
241.9	14
242.0	18
242.1	19
242.2	16
243.0	5
243.1	9
243.2	14
243.3	17
243.4	16
243.5	12
243.7	10
243.8	15
243.9	18
244.0	16
244.1	12
244.3	8
244.4	11
244.5	17
244.6	19
244.7	18
244.8	13
245.0	11
245.1	14
245.2	17
245.3	16
245.4	13
245.6	11
245.7	15
245.8	18
245.9	18
246.0	13
246.2	5
246.3	10
246.4	17
246.5	21
246.6	19
246.7	14
246.9	9
247.0	14
247.1	19
247.2	20
247.3	14
247.5	4
247.6	9
247.7	17
247.8	20
247.9	16
248.0	9
248.2	8
248.3	15
248.4	20
248.5	19
248.6	13
248.8	10
248.9	17
249.0	23
249.1	23
249.2	18
249.3	10
249.5	6
249.6	11
249.7	17
249.8	20
249.9	17
250.2	11
250.3	17
250.4	19
250.5	16
250.7	12
250.8	16
250.9	20
251.0	19
251.1	15
251.2	10
251.4	9
251.5	13
251.6	17
251.7	19
251.8	17
252.6	6
252.7	9
252.8	15
252.9	18
253.0	16
253.1	10
253.3	8
253.4	12
253.5	15
253.6	14
253.7	12
254.0	9
254.1	13
254.2	15
254.3	14
254.5	9
254.6	12
254.7	18
254.8	20
254.9	16
255.0	9
255.2	6
255.3	13
255.4	20
255.5	22
255.6	18
255.9	11
256.0	18
256.1	23
256.2	22
256.3	17
256.5	12
256.6	16
256.7	19
256.8	18
256.9	14
257.1	8
257.2	11
257.3	15
257.4	18
257.5	17
258.3	4
258.4	8
258.5	16
258.6	22
258.7	22
258.8	15
258.9	8
259.1	7
259.2	13
259.3	17
259.4	17
259.5	14
259.7	11
259.8	15
259.9	18
260.0	18
260.1	13
260.3	11
260.4	15
260.5	20
260.6	21
260.7	17
261.0	12
261.1	18
261.2	22
261.3	20
261.4	15
261.6	11
261.7	15
261.8	20
261.9	20
262.0	14
262.2	8
262.3	13
262.4	19
262.5	21
262.6	17
262.7	10
262.9	7
263.0	13
263.1	18
263.2	19
263.3	16
263.4	10
263.6	9
263.7	14
263.8	17
263.9	16
264.0	12
264.2	9
264.3	13
264.4	17
264.5	17
264.6	13
264.8	8
264.9	11
265.0	17
265.1	21
265.2	20
265.5	15
265.6	20
265.7	22
265.8	20
266.7	11
266.8	16
266.9	19
267.0	17
267.1	12
267.3	7
267.4	11
267.5	16
267.6	21
267.7	20
267.8	14
268.0	8
268.1	14
268.2	20
268.3	19
268.4	13
268.6	6
268.7	11
268.8	16
268.9	18
269.0	15
269.1	11
269.3	9
269.4	13
269.5	17
269.6	16
269.7	13
269.9	8
270.0	13
270.1	18
270.2	20
270.3	15
271.2	10
271.3	16
271.4	22
271.5	21
271.6	16
271.8	9
271.9	13
272.0	18
272.1	19
272.2	14
272.5	9
272.6	14
272.7	19
272.8	19
272.9	14
273.0	9
273.2	6
273.3	10
273.4	14
273.5	14
273.8	11
273.9	15
274.0	20
274.1	20
274.2	14
274.4	5
274.5	9
274.6	15
274.7	17
274.8	14
275.0	9
275.1	14
275.2	20
275.3	21
275.4	17
275.5	10
275.7	8
275.8	14
275.9	18
276.0	18
276.1	12
276.3	4
276.4	9
276.5	17
276.6	24
276.7	22
276.8	14
277.0	7
277.1	14
277.2	21
277.3	21
277.4	14
277.6	6
277.7	11
277.8	16
277.9	18
278.0	15
278.1	10
278.3	9
278.4	13
278.5	17
278.6	16
278.7	11
278.9	8
279.0	14
279.1	20
279.2	20
279.3	16
280.2	10
280.3	12
280.4	16
280.5	18
280.6	16
281.4	10
281.5	15
281.6	21
281.7	25
281.8	23
281.9	16
282.1	6
282.2	11
282.3	16
282.4	18
282.5	16
282.7	12
282.8	15
282.9	19
283.0	20
283.1	18
283.2	15
283.4	13
283.5	15
283.6	16
283.7	15
283.8	12
284.0	7
284.1	11
284.2	16
284.3	19
284.4	17
285.3	10
285.4	16
285.5	22
285.6	21
285.7	15
286.0	7
286.1	16
286.2	22
286.3	21
286.4	15
286.6	12
286.7	16
286.8	17
286.9	15
287.2	10
287.3	15
287.4	19
287.5	19
287.6	15
287.8	11
287.9	14
288.0	18
288.1	19
288.2	15
288.5	10
288.6	16
288.7	20
288.8	20
288.9	16
289.1	9
289.2	12
289.3	18
289.4	20
289.5	16
289.6	9
289.8	8
289.9	14
290.0	19
290.1	18
290.2	12
290.4	9
290.5	14
290.6	20
290.7	21
290.8	17
290.9	10
291.1	8
291.2	14
291.3	18
291.4	18
291.7	12
291.8	16
291.9	19
292.0	18
292.1	14
292.3	8
292.4	12
292.5	18
292.6	21
292.7	19
292.8	15
293.0	13
293.1	15
293.2	18
293.3	17
293.4	14
293.6	11
293.7	16
293.8	19
293.9	17
294.0	11
294.2	6
294.3	12
294.4	18
294.5	21
294.6	19
294.7	13
294.9	11
295.0	17
295.1	20
295.2	17
295.3	10
295.5	5
295.6	10
295.7	15
295.8	18
295.9	18
296.0	16
296.2	14
296.3	16
296.4	18
296.5	16
296.6	10
296.8	5
296.9	11
297.0	19
297.1	21
297.2	17
297.4	10
297.5	15
297.6	21
297.7	22
297.8	17
297.9	11
298.1	9
298.2	13
298.3	18
298.4	19
298.5	16
298.7	9
298.8	12
298.9	17
299.0	18
299.1	14
299.4	8
299.5	14
299.6	18
299.7	17
299.8	13
300.0	10
300.1	13
300.2	15
300.3	13
300.4	8
300.6	3
300.7	8
300.8	14
300.9	18
301.0	16
301.1	12
301.3	10
301.4	14
301.5	17
301.6	17
301.7	15
301.9	13
302.0	16
302.1	20
302.2	21
302.3	18
303.2	9
303.3	16
303.4	21
303.5	22
303.6	19
303.7	14
303.9	12
304.0	15
304.1	17
304.2	14
304.4	8
304.5	11
304.6	17
304.7	20
304.8	17
304.9	10
305.1	5
305.2	11
305.3	17
305.4	19
305.5	16
305.6	11
305.8	10
305.9	14
306.0	17
306.1	16
306.2	12
306.4	9
306.5	12
306.6	15
306.7	14
306.8	11
307.0	8
307.1	13
307.2	18
307.3	21
307.4	19
307.5	13
307.7	9
307.8	14
307.9	19
308.0	18
308.1	12
308.3	7
308.4	12
308.5	18
308.6	20
308.7	18
308.8	14
309.0	11
309.1	15
309.2	17
309.3	17
309.4	12
309.6	6
309.7	10
309.8	16
309.9	18
310.0	13
310.3	8
310.4	14
310.5	17
310.6	15
310.8	10
310.9	12
311.0	17
311.1	18
311.2	16
312.1	8
312.2	15
312.3	22
312.4	23
312.5	17
312.7	7
312.8	11
312.9	19
313.0	25
313.1	24
313.2	16
314.0	6
314.1	11
314.2	19
314.3	24
314.4	21
314.5	13
314.7	4
314.8	8
314.9	14
315.0	18
315.1	16
315.4	10
315.5	16
315.6	20
315.7	16
315.8	10
316.0	8
316.1	15
316.2	20
316.3	21
316.4	15
316.6	8
316.7	12
316.8	17
316.9	19
317.0	18
317.1	13
317.3	7
317.4	10
317.5	16
317.6	19
317.7	18
318.6	11
318.7	16
318.8	18
318.9	16
319.2	11
319.3	17
319.4	22
319.5	24
319.6	20
319.7	13
319.9	10
320.0	15
320.1	19
320.2	17
320.3	11
320.5	8
320.6	12
320.7	16
320.8	16
320.9	12
321.1	9
321.2	11
321.3	14
321.4	14
321.5	12
321.8	9
321.9	12
322.0	16
322.1	17
322.2	15
322.4	13
322.5	15
322.6	17
322.7	15
322.8	11
323.0	6
323.1	12
323.2	19
323.3	23
323.4	20
323.5	13
323.7	8
323.8	13
323.9	17
324.0	18
324.1	15
324.3	11
324.4	14
324.5	17
324.6	19
324.7	19
324.8	16
325.6	7
325.7	12
325.8	18
325.9	21
326.0	19
326.1	13
326.3	10
326.4	15
326.5	19
326.6	18
326.7	13
326.9	10
327.0	14
327.1	19
327.2	20
327.3	15
327.4	9
328.1	9
328.2	14
328.3	20
328.4	23
328.5	21
328.6	15
328.9	10
329.0	14
329.1	16
329.2	16
329.5	14
329.6	15
329.7	16
329.8	16
329.9	14
330.1	10
330.2	14
330.3	18
330.4	19
330.5	15
330.7	10
330.8	13
330.9	17
331.0	18
331.1	15
332.0	9
332.1	14
332.2	18
332.3	16
332.4	10
332.6	4
332.7	13
332.8	23
332.9	29
333.0	27
333.1	21
333.2	17
333.3	16
333.4	17
333.5	16
333.6	12
333.7	6
334.0	2
334.1	7
334.2	11
334.3	14
334.6	11
334.7	15
334.8	20
334.9	21
335.0	16
335.1	10
335.8	8
335.9	11
336.0	15
336.1	18
336.2	18
336.3	13
336.5	10
336.6	15
336.7	19
336.8	19
336.9	14
337.1	9
337.2	14
337.3	19
337.4	19
337.5	14
337.6	6
337.8	4
337.9	11
338.0	17
338.1	19
338.2	17
338.5	13
338.6	16
338.7	18
338.8	17
339.1	15
339.2	19
339.3	22
339.4	21
339.5	16
339.7	10
339.8	13
339.9	17
340.0	18
340.1	16
340.4	11
340.5	15
340.6	19
340.7	17
341.0	12
341.1	17
341.2	21
341.3	21
341.4	16
341.5	10
341.7	9
341.8	14
341.9	16
342.0	14
342.2	8
342.3	11
342.4	16
342.5	21
342.6	20
342.7	15
343.5	11
343.6	16
343.7	22
343.8	23
343.9	18
344.0	12
344.2	12
344.3	16
344.4	19
344.5	18
344.6	14
344.8	10
344.9	15
345.0	20
345.1	23
345.2	19
345.3	13
345.5	11
345.6	17
345.7	21
345.8	19
345.9	12
346.1	7
346.2	13
346.3	20
346.4	20
346.5	14
346.6	7
346.8	4
346.9	9
347.0	14
347.1	17
347.2	18
347.3	16
348.0	11
348.1	13
348.2	14
348.3	14
348.4	13
348.7	11
348.8	14
348.9	16
349.0	16
349.3	12
349.4	17
349.5	22
349.6	22
349.7	17
350.6	10
350.7	14
350.8	15
350.9	13
351.0	8
351.2	4
351.3	9
351.4	15
351.5	19
351.6	19
351.7	14
351.8	8
352.0	8
352.1	12
352.2	14
352.5	11
352.6	14
352.7	18
352.8	18
352.9	13
353.1	4
353.2	10
353.3	18
353.4	23
353.5	21
353.6	14
353.8	10
353.9	16
354.0	22
354.1	23
354.2	18
354.3	12
354.5	12
354.6	15
354.7	17
354.8	15
355.7	8
355.8	12
355.9	16
356.0	16
356.1	13
356.3	7
356.4	11
356.5	16
356.6	19
356.7	15
356.8	9
357.0	7
357.1	12
357.2	18
357.3	20
357.4	19
357.5	15
358.2	12
358.3	14
358.4	17
358.5	19
358.6	18
358.7	15
358.9	11
359.0	14
359.1	19
359.2	19
359.3	15
359.5	10
359.6	14
359.7	19
359.8	20
359.9	18
360.0	13
360.2	9
360.3	11
360.4	15
360.5	17
360.6	16
360.8	13
360.9	15
361.0	19
361.1	22
361.2	21
361.3	16
361.4	12
362.1	8
362.2	12
362.3	17
362.4	18
362.5	14
362.8	7
362.9	14
363.0	18
363.1	15
363.4	9
363.5	16
363.6	20
363.7	18
363.8	14
364.0	13
364.1	16
364.2	18
364.3	17
364.4	14
364.7	11
364.8	13
364.9	15
365.0	14
365.3	11
365.4	16
365.5	20
365.6	19
365.7	14
365.9	7
366.0	11
366.1	16
366.2	18
366.3	17
366.4	14
366.6	10
366.7	12
366.8	15
366.9	16
367.0	14
367.1	11
367.3	8
367.4	12
367.5	15
367.6	13
367.8	7
367.9	10
368.0	15
368.1	18
368.2	17
368.3	11
368.5	6
368.6	11
368.7	17
368.8	20
368.9	18
369.7	9
369.8	13
369.9	18
370.0	20
370.1	18
370.2	13
370.9	10
371.0	13
371.1	16
371.2	20
371.3	21
371.4	17
371.5	11
371.7	8
371.8	12
371.9	17
372.0	18
372.1	14
372.3	8
372.4	11
372.5	16
372.6	16
372.7	12
372.9	5
373.0	10
373.1	18
373.2	21
373.3	18
373.4	13
373.6	11
373.7	15
373.8	18
373.9	19
374.0	15
374.3	12
374.4	17
374.5	19
374.6	19
374.7	16
374.8	14
374.9	12
375.0	11
375.4	10
375.5	12
375.6	16
375.7	21
375.8	23
375.9	20
376.0	13
376.2	7
376.3	13
376.4	20
376.5	23
376.6	19
376.7	12
377.5	8
377.6	14
377.7	18
377.8	17
378.1	12
378.2	17
378.3	21
378.4	20
378.5	16
378.6	11
378.8	9
378.9	12
379.0	13
379.1	13
379.2	12
379.3	13
379.4	17
379.5	20
379.6	21
379.7	16
380.0	10
380.1	17
380.2	22
380.3	21
380.4	14
380.6	5
380.7	11
380.8	19
380.9	23
381.0	21
381.1	16
381.3	15
381.4	19
381.5	22
381.6	20
381.7	15
382.0	10
382.1	15
382.2	19
382.3	19
382.4	15
383.1	5
383.2	9
383.3	16
383.4	21
383.5	21
383.6	19
384.5	11
384.6	13
384.7	16
384.8	17
384.9	15
385.1	10
385.2	13
385.3	19
385.4	21
385.5	19
385.8	14
385.9	19
386.0	22
386.1	19
386.2	15
386.4	13
386.5	17
386.6	19
386.7	18
386.8	13
387.1	9
387.2	13
387.3	16
387.4	17
387.5	15
388.9	12
389.0	16
389.1	19
389.2	19
389.3	14
389.5	10
389.6	15
389.7	21
389.8	23
389.9	20
390.0	15
390.2	9
390.3	12
390.4	17
390.5	18
390.6	15
390.8	9
390.9	13
391.0	19
391.1	22
391.2	20
391.3	14
391.5	8
391.6	13
391.7	19
391.8	23
391.9	20
392.0	14
392.2	12
392.3	16
392.4	19
392.5	18
392.6	13
392.8	8
392.9	12
393.0	18
393.1	20
393.2	17
393.3	11
393.5	9
393.6	15
393.7	18
393.8	15
393.9	9
394.1	5
394.2	12
394.3	19
394.4	21
394.5	16
394.7	6
394.8	11
394.9	18
395.0	21
395.1	19
395.4	13
395.5	18
395.6	21
395.7	18
395.8	13
396.0	7
396.1	13
396.2	20
396.3	22
396.4	17
396.7	9
396.8	18
396.9	22
397.0	20
397.1	14
397.3	8
397.4	11
397.5	15
397.6	15
397.7	12
397.9	5
398.0	8
398.1	13
398.2	17
398.3	16
398.4	11
398.6	7
398.7	11
398.8	15
398.9	14
399.2	10
399.3	14
399.4	18
399.5	17
399.6	12
399.8	6
399.9	11
400.0	18
400.1	22
400.2	19
400.3	11
400.5	5
400.6	10
400.7	16
400.8	19
400.9	16
401.7	11
401.8	15
401.9	19
402.0	21
402.1	17
402.2	9
402.4	5
402.5	11
402.6	17
402.7	19
402.8	15
402.9	10
403.1	8
403.2	11
403.3	13
403.4	13
403.5	12
403.6	12
403.7	15
403.8	19
403.9	19
404.0	15
404.1	10
404.3	6
404.4	10
404.5	14
404.6	16
404.7	15
405.0	11
405.1	16
405.2	19
405.3	19
405.4	15
405.6	10
405.7	14
405.8	19
405.9	19
406.0	16
406.3	11
406.4	15
406.5	17
406.6	16
406.7	13
406.9	11
407.0	14
407.1	16
407.2	15
407.5	13
407.6	16
407.7	19
407.8	18
407.9	14
408.2	9
408.3	13
408.4	16
408.5	16
408.6	13
408.8	9
408.9	12
409.0	15
409.1	17
409.2	14
409.5	10
409.6	14
409.7	17
409.8	15
409.9	11
410.1	9
410.2	13
410.3	17
410.4	17
410.5	13
410.8	8
410.9	12
411.0	14
411.1	13
411.3	11
411.4	13
411.5	17
411.6	20
411.7	22
411.8	20
412.0	15
412.1	18
412.2	22
412.3	21
412.4	14
413.3	7
413.4	11
413.5	16
413.6	18
413.7	16
414.5	7
414.6	10
414.7	14
414.8	16
414.9	15
415.2	12
415.3	15
415.4	17
415.5	16
415.6	13
415.8	8
415.9	11
416.0	16
416.1	19
416.2	18
416.3	11
416.5	7
416.6	14
416.7	20
416.8	20
416.9	14
417.1	8
417.2	13
417.3	19
417.4	20
417.5	16
417.6	9
417.8	6
417.9	11
418.0	15
418.1	15
418.3	10
418.4	13
418.5	18
418.6	21
418.7	19
418.8	14
419.0	7
419.1	10
419.2	16
419.3	18
419.4	16
419.5	10
419.7	9
419.8	13
419.9	17
420.0	16
420.1	11
420.3	8
420.4	14
420.5	20
420.6	23
420.7	20
420.8	14
421.0	11
421.1	14
421.2	16
421.3	15
421.5	9
421.6	12
421.7	18
421.8	23
421.9	24
422.0	20
422.1	14
422.3	13
422.4	17
422.5	19
422.6	17
422.7	12
422.9	8
423.0	12
423.1	18
423.2	19
423.3	17
424.1	6
424.2	10
424.3	16
424.4	21
424.5	19
424.6	14
424.8	9
424.9	12
425.0	15
425.1	17
425.2	16
426.1	11
426.2	15
426.3	18
426.4	19
426.5	16
426.7	12
426.8	14
426.9	18
427.0	20
427.1	18
428.0	6
428.1	12
428.2	18
428.3	19
428.4	15
428.6	10
428.7	15
428.8	19
428.9	19
429.0	15
429.3	10
429.4	15
429.5	18
429.6	16
429.7	12
429.9	7
430.0	10
430.1	15
430.2	18
430.3	17
430.4	13
430.6	10
430.7	13
430.8	16
430.9	14
431.2	10
431.3	15
431.4	19
431.5	17
431.6	11
431.8	8
431.9	14
432.0	19
432.1	21
432.2	18
432.3	12
432.5	10
432.6	15
432.7	18
432.8	18
432.9	14
433.2	10
433.3	13
433.4	16
433.5	15
434.3	7
434.4	10
434.5	17
434.6	23
434.7	23
434.8	17
435.1	12
435.2	16
435.3	19
435.4	19
435.5	15
435.8	11
435.9	14
436.0	16
436.1	16
436.9	13
437.0	14
437.1	16
437.2	18
437.3	17
437.4	14
437.6	9
437.7	13
437.8	16
437.9	15
438.2	10
438.3	17
438.4	24
438.5	25
438.6	20
438.7	12
438.9	9
439.0	14
439.1	17
439.2	16
439.3	11
439.5	8
439.6	12
439.7	17
439.8	17
439.9	14
440.1	7
440.2	11
440.3	16
440.4	19
440.5	19
440.6	15
440.8	12
440.9	15
441.0	18
441.1	18
441.2	13
441.4	6
441.5	10
441.6	16
441.7	18
441.8	17
441.9	13
442.7	11
442.8	14
442.9	18
443.0	20
443.1	18
443.2	15
443.4	14
443.5	16
443.6	17
443.7	15
443.8	11
444.0	8
444.1	12
444.2	18
444.3	20
444.4	18
444.5	11
444.7	7
444.8	13
444.9	18
445.0	19
445.1	14
445.9	12
446.0	13
446.1	16
446.2	17
446.3	16
446.4	11
446.6	9
446.7	14
446.8	18
446.9	17
447.0	12
447.2	8
447.3	13
447.4	19
447.5	20
447.6	15
447.8	5
447.9	10
448.0	18
448.1	23
448.2	21
448.3	16
448.5	12
448.6	15
448.7	18
448.8	20
448.9	16
449.0	10
449.2	7
449.3	13
449.4	18
449.5	17
449.6	13
449.8	12
449.9	16
450.0	18
450.1	15
450.4	9
450.5	15
450.6	20
450.7	21
450.8	16
451.7	9
451.8	13
451.9	18
452.0	18
452.1	13
452.3	7
452.4	11
452.5	18
452.6	20
452.7	18
452.9	11
453.0	15
453.1	21
453.2	22
453.3	17
453.5	7
453.6	12
453.7	20
453.8	25
453.9	24
454.0	18
454.1	11
454.3	10
454.4	15
454.5	18
454.6	16
454.8	9
454.9	12
455.0	18
455.1	23
455.2	22
455.3	18
455.4	12
456.2	8
456.3	11
456.4	15
456.5	15
456.8	10
456.9	15
457.0	20
457.1	20
457.2	15
457.4	11
457.5	15
457.6	21
457.7	23
457.8	20
457.9	15
458.1	12
458.2	15
458.3	17
458.4	16
458.5	14
458.7	12
458.8	14
458.9	17
459.0	19
459.1	17
459.2	12
459.4	8
459.5	12
459.6	18
459.7	19
459.8	15
460.0	7
460.1	11
460.2	17
460.3	18
460.4	14
460.6	8
460.7	13
460.8	18
460.9	18
461.0	13
461.2	4
461.3	8
461.4	15
461.5	19
461.6	18
461.7	14
461.9	11
462.0	15
462.1	20
462.2	22
462.3	20
462.4	15
462.6	9
462.7	13
462.8	19
462.9	20
463.0	16
463.2	9
463.3	14
463.4	20
463.5	23
463.6	20
463.7	15
464.5	11
464.6	13
464.7	14
464.8	13
464.9	10
465.1	7
465.2	12
465.3	17
465.4	19
465.5	15
465.6	8
465.8	7
465.9	12
466.0	15
466.1	15
466.4	13
466.5	16
466.6	18
466.7	17
466.8	13
467.0	10
467.1	14
467.2	18
467.3	20
467.4	16
467.5	11
467.7	9
467.8	14
467.9	19
468.0	19
468.1	16
468.3	10
468.4	13
468.5	18
468.6	21
468.7	18
469.0	13
469.1	17
469.2	21
469.3	20
469.4	16
470.2	5
470.3	8
470.4	15
470.5	21
470.6	21
470.7	15
470.9	10
471.0	15
471.1	18
471.2	17
471.3	11
471.5	6
471.6	11
471.7	16
471.8	17
471.9	12
472.0	4
472.2	2
472.3	10
472.4	17
472.5	19
472.6	15
473.4	11
473.5	15
473.6	22
473.7	25
473.8	23
473.9	16
474.1	10
474.2	13
474.3	17
474.4	17
474.5	13
474.7	7
474.8	10
474.9	14
475.0	15
475.1	12
475.9	7
476.0	9
476.1	13
476.2	16
476.3	17
476.4	14
476.6	12
476.7	14
476.8	17
476.9	17
477.0	14
477.3	10
477.4	15
477.5	19
477.6	17
477.7	11
477.9	6
478.0	11
478.1	17
478.2	20
478.3	17
478.4	12
478.6	8
478.7	12
478.8	16
478.9	19
479.0	18
479.1	14
479.8	11
479.9	13
480.0	17
480.1	17
480.2	14
480.4	8
480.5	11
480.6	16
480.7	19
480.8	18
480.9	13
481.1	8
481.2	13
481.3	18
481.4	18
481.5	14
481.8	8
481.9	14
482.0	21
482.1	22
482.2	17
483.1	9
483.2	15
483.3	20
483.4	20
483.5	16
483.7	12
483.8	16
483.9	19
484.0	19
484.1	14
484.3	9
484.4	11
484.5	16
484.6	19
484.7	20
484.8	17
484.9	15
485.6	10
485.7	15
485.8	20
485.9	21
486.0	17
486.1	11
486.3	10
486.4	13
486.5	15
486.6	14
486.9	10
487.0	14
487.1	19
487.2	19
487.3	15
487.4	9
487.6	8
487.7	11
487.8	13
487.9	11
488.1	6
488.2	10
488.3	17
488.4	23
488.5	23
488.6	17
488.8	9
488.9	14
489.0	21
489.1	23
489.2	19
489.3	12
489.5	11
489.6	15
489.7	19
489.8	19
489.9	15
490.1	11
490.2	15
490.3	19
490.4	19
490.5	13
490.7	8
490.8	12
490.9	17
491.0	18
491.1	15
491.4	12
491.5	16
491.6	19
491.7	19
491.8	14
492.6	7
492.7	11
492.8	16
492.9	18
493.0	15
493.3	10
493.4	16
493.5	20
493.6	18
493.7	12
493.9	6
494.0	11
494.1	18
494.2	23
494.3	22
494.4	16
494.6	9
494.7	13
494.8	17
494.9	19
495.0	15
495.9	9
496.0	13
496.1	15
496.2	15
496.3	13
496.5	12
496.6	13
496.7	14
496.8	14
496.9	10
497.1	6
497.2	12
497.3	17
497.4	18
497.5	13
497.7	6
497.8	9
497.9	15
498.0	19
498.1	17
498.4	10
498.5	16
498.6	21
498.7	21
498.8	16
499.1	10
499.2	16
499.3	20
499.4	19
499.5	16
499.7	12
499.8	16
499.9	19
500.0	19
500.1	14
500.3	5
500.4	10
500.5	18
500.6	22
500.7	20
500.8	15
501.0	13
501.1	15
501.2	16
501.3	15
501.4	11
501.6	8
501.7	14
501.8	21
501.9	23
502.0	17
502.8	4
502.9	7
503.0	14
503.1	19
503.2	20
503.3	15
503.4	10
503.6	9
503.7	14
503.8	17
503.9	16
504.1	12
504.2	15
504.3	19
504.4	21
504.5	18
504.6	12
504.8	9
504.9	15
505.0	19
505.1	20
505.2	17
505.3	14
505.5	12
505.6	14
505.7	16
505.8	15
505.9	11
506.1	6
506.2	10
506.3	15
506.4	16
506.5	14
507.4	8
507.5	12
507.6	15
507.7	16
507.8	14
508.0	9
508.1	13
508.2	18
508.3	20
508.4	17
508.5	11
508.7	6
508.8	11
508.9	16
509.0	17
509.3	11
509.4	17
509.5	21
509.6	21
509.7	17
509.9	11
510.0	14
510.1	20
510.2	22
510.3	19
510.4	13
510.6	12
510.7	16
510.8	18
510.9	15
511.0	9
511.2	5
511.3	12
511.4	19
511.5	22
511.6	20
511.7	15
511.9	12
512.0	15
512.1	16
512.2	14
512.4	10
512.5	12
512.6	17
512.7	20
512.8	17
512.9	10
513.1	8
513.2	15
513.3	21
513.4	21
513.5	16
513.7	7
513.8	10
513.9	17
514.0	21
514.1	20
514.2	16
514.4	15
514.5	18
514.6	21
514.7	20
514.8	16
515.1	12
515.2	16
515.3	19
515.4	17
515.5	13
515.7	10
515.8	16
515.9	23
516.0	24
516.1	18
516.3	7
516.4	12
516.5	19
516.6	22
516.7	18
516.8	12
517.0	8
517.1	11
517.2	14
517.3	15
517.5	9
517.6	12
517.7	18
517.8	23
517.9	21
518.0	15
518.3	10
518.4	14
518.5	18
518.6	17
518.7	12
518.9	5
519.0	10
519.1	18
519.2	21
519.3	17
519.4	11
519.6	8
519.7	12
519.8	16
519.9	16
520.2	12
520.3	16
520.4	19
520.5	19
520.6	16
521.4	6
521.5	11
521.6	17
521.7	21
521.8	18
521.9	11
522.1	8
522.2	14
522.3	20
522.4	20
522.5	15
522.7	8
522.8	14
522.9	20
523.0	20
523.1	14
523.4	8
523.5	15
523.6	18
523.7	17
523.8	11
524.0	6
524.1	11
524.2	17
524.3	19
524.4	18
524.5	13
524.7	12
524.8	16
524.9	19
525.0	18
525.3	12
525.4	17
525.5	21
525.6	20
525.7	16
526.6	7
526.7	13
526.8	18
526.9	18
527.0	13
527.1	7
527.3	5
527.4	11
527.5	17
527.6	17
527.9	9
528.0	17
528.1	23
528.2	23
528.3	16
529.1	8
529.2	12
529.3	17
529.4	20
529.5	16
529.6	10
529.8	9
529.9	15
530.0	18
530.1	17
530.4	12
530.5	18
530.6	24
530.7	24
530.8	18
530.9	9
531.1	8
531.2	14
531.3	18
531.4	18
531.5	15
531.7	14
531.8	16
531.9	17
532.0	15
532.1	11
532.3	9
532.4	14
532.5	18
532.6	19
532.7	16
533.0	11
533.1	16
533.2	19
533.3	18
533.4	12
533.6	6
533.7	11
533.8	16
533.9	17
534.0	12
534.3	7
534.4	13
534.5	17
534.6	17
534.7	13
534.9	11
535.0	14
535.1	17
535.2	19
535.3	17
535.5	15
535.6	17
535.7	20
535.8	19
535.9	16
536.8	8
536.9	13
537.0	17
537.1	17
537.2	14
537.4	11
537.5	15
537.6	20
537.7	21
537.8	16
538.6	10
538.7	12
538.8	16
538.9	18
539.0	18
539.1	15
539.4	9
539.5	14
539.6	17
539.7	15
539.8	10
540.0	8
540.1	13
540.2	17
540.3	18
540.4	14
540.6	9
540.7	13
540.8	18
540.9	19
541.0	16
541.1	11
541.3	7
541.4	11
541.5	15
541.6	18
541.7	17
541.8	15
541.9	16
542.0	20
542.1	23
542.2	23
542.3	17
542.4	10
542.6	7
542.7	12
542.8	16
542.9	15
543.0	9
543.2	5
543.3	11
543.4	18
543.5	19
543.6	13
543.8	9
543.9	16
544.0	22
544.1	23
544.2	19
544.3	14
544.5	13
544.6	16
544.7	18
544.8	16
544.9	11
545.1	8
545.2	14
545.3	22
545.4	26
545.5	22
545.6	15
545.8	10
545.9	13
546.0	16
546.1	15
546.3	11
546.4	13
546.5	17
546.6	21
546.7	20
546.8	14
547.0	6
547.1	9
547.2	15
547.3	19
547.4	18
547.5	12
547.7	7
547.8	11
547.9	15
548.0	15
548.3	12
548.4	16
548.5	19
548.6	18
548.7	13
549.0	8
549.1	13
549.2	16
549.3	16
549.4	14
549.6	9
549.7	13
549.8	18
549.9	20
550.0	17
550.1	12
550.3	9
550.4	13
550.5	16
550.6	16
550.7	14
550.9	10
551.0	13
551.1	17
551.2	17
551.3	14
551.5	10
551.6	14
551.7	20
551.8	21
551.9	17
552.0	11
552.2	8
552.3	14
552.4	20
552.5	22
552.6	17
552.7	10
552.9	9
553.0	14
553.1	15
553.2	13
553.4	9
553.5	11
553.6	15
553.7	18
553.8	16
553.9	12
554.1	9
554.2	14
554.3	18
554.4	18
554.5	12
554.8	6
554.9	11
555.0	14
555.1	13
555.3	10
555.4	13
555.5	18
555.6	20
555.7	19
555.8	15
556.0	10
556.1	14
556.2	18
556.3	20
556.4	16
557.3	9
557.4	15
557.5	20
557.6	22
557.7	19
557.8	13
558.0	12
558.1	16
558.2	20
558.3	20
558.4	15
558.6	10
558.7	15
558.8	19
558.9	18
559.0	11
559.2	6
559.3	12
559.4	18
559.5	18
559.6	15
559.8	11
559.9	13
560.0	16
560.1	17
560.2	14
560.4	8
560.5	10
560.6	15
560.7	19
560.8	19
560.9	14
561.1	11
561.2	15
561.3	18
561.4	16
561.5	12
561.7	8
561.8	13
561.9	19
562.0	22
562.1	19
562.2	14
562.4	10
562.5	13
562.6	16
562.7	17
562.8	16
563.1	13
563.2	16
563.3	18
563.4	18
563.5	14
563.7	11
563.8	16
563.9	21
564.0	20
564.1	14
564.3	8
564.4	12
564.5	17
564.6	20
564.7	17
564.8	11
565.0	7
565.1	11
565.2	13
565.3	13
565.6	12
565.7	15
565.8	17
565.9	16
566.0	13
566.2	10
566.3	13
566.4	16
566.5	17
566.6	14
566.9	12
567.0	14
567.1	16
567.2	17
567.3	16
568.2	9
568.3	15
568.4	19
568.5	19
568.6	15
568.9	9
569.0	13
569.1	15
569.2	14
569.4	11
569.5	14
569.6	17
569.7	18
569.8	16
569.9	12
570.1	10
570.2	12
570.3	13
570.4	11
570.6	9
570.7	11
570.8	14
570.9	17
571.0	17
571.1	15
571.3	12
571.4	17
571.5	23
571.6	25
571.7	21
571.8	13
572.0	7
572.1	12
572.2	18
572.3	21
572.4	18
572.5	13
572.7	10
572.8	17
572.9	24
573.0	25
573.1	20
573.2	14
573.4	12
573.5	16
573.6	18
573.7	17
573.8	13
574.0	10
574.1	12
574.2	15
574.3	16
574.4	15
575.1	5
575.2	8
575.3	14
575.4	18
575.5	18
575.6	14
575.8	9
575.9	13
576.0	18
576.1	21
576.2	19
576.3	14
576.5	11
576.6	17
576.7	22
576.8	22
576.9	18
577.2	11
577.3	17
577.4	21
577.5	19
577.8	12
577.9	19
578.0	23
578.1	21
578.2	15
578.4	8
578.5	12
578.6	17
578.7	18
578.8	15
579.0	9
579.1	13
579.2	18
579.3	21
579.4	18
579.5	12
579.7	9
579.8	14
579.9	19
580.0	21
580.1	17
580.3	12
580.4	17
580.5	22
580.6	22
580.7	16
580.9	8
581.0	12
581.1	18
581.2	21
581.3	18
581.4	11
581.6	7
581.7	12
581.8	17
581.9	17
582.0	13
582.3	10
582.4	13
582.5	15
582.8	13
582.9	15
583.0	18
583.1	18
583.2	16
583.4	13
583.5	16
583.6	19
583.7	19
583.8	15
583.9	8
584.1	3
584.2	9
584.3	16
584.4	18
584.5	13
584.8	7
584.9	12
585.0	17
585.1	18
585.2	14
585.3	9
585.5	7
585.6	11
585.7	15
585.8	16
586.1	11
586.2	15
586.3	20
586.4	20
586.5	14
586.7	4
586.8	8
586.9	16
587.0	19
587.1	16
587.4	10
587.5	16
587.6	19
587.7	17
587.8	14
588.0	12
588.1	14
588.2	16
588.3	17
588.4	15
589.2	8
589.3	10
589.4	15
589.5	19
589.6	17
589.7	12
589.9	5
590.0	10
590.1	16
590.2	20
590.3	19
590.4	15
590.6	12
590.7	16
590.8	20
590.9	19
591.0	12
591.2	4
591.3	11
591.4	20
591.5	22
591.6	18
591.9	11
592.0	17
592.1	20
592.2	18
592.5	13
592.6	18
592.7	21
592.8	18
592.9	12
593.1	7
593.2	12
593.3	18
593.4	22
593.5	20
593.6	15
593.9	9
594.0	14
594.1	18
594.2	17
595.0	7
595.1	14
595.2	21
595.3	22
595.4	16
595.5	9
595.7	4
595.8	9
595.9	15
596.0	19
596.1	17
596.2	11
596.4	9
596.5	14
596.6	19
596.7	19
596.8	16
597.0	11
597.1	14
597.2	17
597.3	18
597.4	15
597.6	11
597.7	13
597.8	16
597.9	18
598.0	16
598.1	12
598.3	10
598.4	14
598.5	18
598.6	16
598.7	12
598.9	9
599.0	12
599.1	16
599.2	20
599.3	22
599.4	20
599.5	18
599.6	15
