Mass spectrum: 3-Hydroxypregn-16-en-20-one ; LC-ESI-QQQ; MS2;  Frag=135.0V CID@10.0 ; [M+Na]+
Name: 3-Hydroxypregn-16-en-20-one 
Class: Steroids
Formula: C21H32O2
Exact mass: 316.48799
SMILES: CC(=O)C1=CCC2C3CC[C@H]4C[C@H](O)CC[C@]4(C)C3CC[C@]12C
InChI: InChI=1S/C21H32O2/c1-13(22)17-6-7-18-16-5-4-14-12-15(23)8-10-20(14,2)19(16)9-11-21(17,18)3/h6,14-16,18-19,23H,4-5,7-12H2,1-3H3/t14-,15+,16?,18?,19?,20-,21+/m0/s1
Instrument: Agilent 6410 Triple Quadrupole LC/MS system
Instrument type: LC-ESI-QQQ
Ms type: MS2
Ion mode: POSITIVE
Precursor type: [M+Na]+
m/z	relative intensity
80.9	4
81.0	5
81.1	8
81.2	8
81.3	7
81.4	4
136.5	2
136.6	4
136.7	6
136.8	9
136.9	10
137.0	8
137.1	6
160.1	1
160.2	3
160.3	10
160.4	18
160.5	25
160.6	36
160.7	57
160.8	81
160.9	96
161.0	99
161.1	95
161.2	83
161.3	58
161.4	26
161.5	3
296.5	0
296.6	2
296.7	8
296.8	20
296.9	35
297.0	49
297.1	58
297.2	56
297.3	43
297.4	26
297.5	12
297.6	4
