Mass spectrum: Peucedanin; LC-ESI-QQQ; MS2; Frag=135.0V CID@5.0; [M+H]+
Name: Peucedanin
Class: Benzopyranoids
Formula: C15H14O4
Exact mass: 258.2764
SMILES: COc1c(C(C)C)oc2cc3oc(=O)ccc3cc12
InChI: InChI=1S/C15H14O4/c1-8(2)14-15(17-3)10-6-9-4-5-13(16)18-11(9)7-12(10)19-14/h4-8H,1-3H3
Instrument: Agilent 6410 Triple Quadrupole LC/MS system
Instrument type: LC-ESI-QQQ
Ms type: MS2
Ion mode: POSITIVE
Precursor type: [M+H]+
m/z	relative intensity
258.2	0
258.3	1
258.4	4
258.5	8
258.6	15
258.7	26
258.8	44
258.9	67
259.0	88
259.1	99
259.2	99
259.3	88
259.4	66
259.5	37
259.6	11
259.7	0
