Mass spectrum: angelicin; LC-ESI-QQQ; MS2; Frag=135.0V CID@5.0; [M+H]+
Name: angelicin
Class: Benzopyranoids
Formula: C11H6O3
Exact mass: 186.1687
SMILES: O=c1ccc2ccc3occc3c2o1
InChI: InChI=1S/C11H6O3/c12-10-4-2-7-1-3-9-8(5-6-13-9)11(7)14-10/h1-6H
Instrument: Agilent 6410 Triple Quadrupole LC/MS system
Instrument type: LC-ESI-QQQ
Ms type: MS2
Ion mode: POSITIVE
Precursor type: [M+H]+
m/z	relative intensity
186.2	0
186.3	1
186.4	6
186.5	13
186.6	25
186.7	41
186.8	61
186.9	81
187.0	95
187.1	99
187.2	93
187.3	78
187.4	54
187.5	26
187.6	5
187.7	0
