Mass spectrum: Alloside B; LC-ESI-QQQ; MS2; Frag=135.0V CID@25.0; [M+Na]+
Name: Alloside B
Class: Steroids
Formula: C39H66O14
Exact mass: 758.9525
SMILES: CC(C)CCC(O)[C@@H](C)C1C(O[C@@H]2OC(CO)[C@@H](O)C(O)C2O)CC2C3CC=C4C[C@@H](O)CC(O[C@@H]5OC(CO)[C@@H](O)C(O)C5O)[C@]4(C)C3CC[C@@]21C
InChI: InChI=1S/C39H66O14/c1-17(2)6-9-24(43)18(3)29-25(50-36-34(48)32(46)30(44)26(15-40)51-36)14-23-21-8-7-19-12-20(42)13-28(39(19,5)22(21)10-11-38(23,29)4)53-37-35(49)33(47)31(45)27(16-41)52-37/h7,17-18,20-37,40-49H,6,8-16H2,1-5H3/t18-,20-,21?,22?,23?,24?,25?,26?,27?,28?,29?,30-,31-,32?,33?,34?,35?,36-,37+,38+,39+/m1/s1
Instrument: Agilent 6410 Triple Quadrupole LC/MS system
Instrument type: LC-ESI-QQQ
Ms type: MS2
Ion mode: POSITIVE
Precursor type: [M+Na]+
m/z	relative intensity
55.4	3
55.5	4
55.6	5
55.7	5
55.8	5
55.9	5
56.0	4
56.1	4
56.2	4
56.3	4
56.4	4
56.5	4
56.6	5
56.7	6
56.8	6
56.9	7
57.0	7
57.1	6
57.2	6
57.3	5
57.7	4
57.8	5
57.9	6
58.0	7
58.1	7
58.2	6
58.3	5
60.1	4
60.2	5
60.3	6
60.4	6
60.5	6
60.6	6
60.7	4
65.7	4
65.8	5
65.9	6
66.0	6
66.1	6
66.2	5
66.3	5
67.8	4
67.9	5
68.0	6
68.1	6
68.2	6
68.3	5
70.0	4
70.1	5
70.2	6
70.3	6
70.4	7
70.5	7
70.6	6
70.7	6
70.8	4
71.2	3
71.3	4
71.4	5
71.5	6
71.6	6
71.7	6
71.8	4
72.2	4
72.3	5
72.4	6
72.5	6
72.6	6
72.7	6
77.8	3
77.9	4
78.0	5
78.1	5
78.2	6
78.3	5
78.4	5
78.5	4
78.6	4
78.7	3
78.8	3
78.9	4
79.0	4
79.1	4
79.2	4
79.3	5
79.4	5
79.5	5
79.6	6
79.7	6
79.8	6
79.9	5
80.0	5
80.1	4
80.2	4
80.3	4
80.4	5
80.5	5
80.6	5
80.7	5
80.8	5
80.9	4
81.0	4
81.1	4
81.2	4
81.3	4
81.4	5
81.5	5
81.6	6
81.7	6
81.8	5
81.9	5
82.0	5
82.1	5
82.2	4
82.3	3
82.4	3
82.5	3
82.6	4
82.7	4
82.8	5
82.9	5
83.0	5
83.1	5
83.2	5
83.3	4
83.4	4
83.5	4
83.6	4
83.7	6
83.8	6
83.9	6
84.0	6
84.1	5
84.2	5
84.3	4
84.4	4
84.5	3
84.6	3
84.7	3
84.8	4
84.9	5
85.0	6
85.1	6
85.2	6
85.3	6
85.4	5
85.5	6
85.6	6
85.7	6
85.8	6
85.9	6
86.0	6
86.1	6
86.2	5
86.3	4
86.4	4
86.5	4
86.6	4
86.7	4
86.8	5
86.9	5
87.0	5
87.1	5
87.2	6
87.3	6
87.4	6
87.5	5
87.6	5
87.7	4
87.8	5
87.9	5
88.0	4
88.1	4
88.2	4
88.3	4
88.4	4
88.5	4
88.6	4
88.7	4
88.8	4
88.9	4
89.0	4
89.1	5
89.2	5
89.3	6
89.4	6
89.5	5
89.6	4
89.7	4
89.8	4
89.9	5
90.0	5
90.1	5
90.2	5
90.3	5
90.4	6
90.5	6
90.6	6
90.7	6
95.8	4
95.9	5
96.0	6
96.1	6
96.2	7
96.3	6
96.4	6
96.5	6
96.6	5
96.7	5
96.8	5
96.9	5
97.0	5
97.1	5
97.2	6
97.3	6
97.4	6
97.5	6
97.6	6
97.7	6
97.8	6
97.9	6
98.0	6
98.1	6
98.2	7
98.3	7
98.4	7
98.5	6
98.6	6
98.7	5
98.8	5
98.9	4
99.0	5
99.1	5
99.2	6
99.3	6
99.4	6
99.5	6
99.6	6
99.7	6
99.8	6
99.9	5
100.0	5
100.1	5
100.2	5
100.3	5
100.4	5
100.5	6
100.6	6
100.7	6
100.8	6
100.9	5
109.2	4
109.3	5
109.4	6
109.5	6
109.6	6
109.7	6
109.8	5
110.2	4
110.3	5
110.4	6
110.5	6
110.6	6
110.7	6
110.8	6
110.9	5
111.0	5
111.1	4
111.2	4
111.3	5
111.4	5
111.5	6
111.6	7
111.7	7
111.8	6
111.9	6
112.0	6
112.1	5
112.2	5
112.3	5
112.4	5
112.5	5
112.6	6
112.7	6
112.8	6
112.9	6
113.0	6
113.1	6
113.2	6
113.3	6
113.4	6
113.5	5
113.6	5
113.7	5
113.8	5
113.9	5
114.0	5
114.1	6
114.2	5
114.3	5
114.4	4
114.5	4
114.6	4
114.7	5
114.8	5
114.9	5
115.0	6
115.1	6
115.2	7
115.3	7
115.4	7
115.5	6
115.6	5
116.1	4
116.2	5
116.3	7
116.4	7
116.5	7
122.8	5
122.9	6
123.0	7
123.1	7
123.2	7
123.3	6
123.7	5
123.8	6
123.9	7
124.0	7
124.1	6
152.8	4
152.9	4
153.0	5
153.1	6
153.2	7
153.3	7
153.4	6
153.5	4
158.4	3
158.5	4
158.6	5
158.7	5
158.8	5
158.9	6
159.0	5
159.1	5
159.2	4
159.3	4
159.4	4
159.5	5
159.6	5
159.7	5
159.8	5
159.9	5
160.3	4
160.4	4
160.5	5
160.6	6
160.7	6
160.8	5
160.9	4
161.0	4
161.1	5
161.2	5
161.3	4
161.4	4
161.5	3
161.6	4
161.7	4
161.8	4
161.9	4
162.0	4
162.1	5
162.2	5
162.3	5
162.4	4
162.5	4
162.6	3
162.7	3
162.8	3
162.9	4
163.0	5
163.1	5
163.2	5
163.3	5
163.4	5
163.5	5
163.6	4
163.7	4
163.8	4
163.9	5
164.0	5
164.1	5
164.2	5
164.3	5
164.4	5
164.5	5
164.6	5
164.7	5
164.8	5
164.9	4
165.0	4
165.1	4
165.2	4
165.3	4
165.4	4
165.5	4
165.6	4
165.7	5
165.8	5
165.9	5
166.0	4
166.1	4
166.2	4
166.3	4
166.4	4
166.5	4
166.6	5
166.7	5
166.8	6
166.9	6
167.0	5
168.5	3
168.6	4
168.7	6
168.8	7
168.9	7
169.0	7
169.1	6
169.2	5
172.0	4
172.1	5
172.2	6
172.3	6
172.4	6
172.5	5
172.6	4
173.1	4
173.2	5
173.3	5
173.4	6
173.5	6
173.6	5
177.6	4
177.7	5
177.8	6
177.9	6
178.0	6
186.4	4
186.5	5
186.6	6
186.7	7
186.8	7
186.9	6
187.0	5
188.6	4
188.7	5
188.8	5
188.9	6
189.0	6
189.1	6
189.2	6
189.3	6
189.4	5
194.2	4
194.3	5
194.4	6
194.5	7
194.6	6
194.7	5
204.2	4
204.3	5
204.4	6
204.5	7
204.6	7
204.7	6
210.0	5
210.1	5
210.2	6
210.3	6
210.4	7
210.5	6
210.6	6
210.7	5
210.8	5
210.9	4
211.0	4
211.1	5
211.2	5
211.3	5
211.4	6
211.5	6
211.6	6
211.7	5
211.8	4
211.9	4
212.0	5
212.1	5
212.2	5
212.3	5
212.4	5
212.5	5
212.6	5
212.7	5
212.8	5
212.9	5
213.0	5
213.1	5
213.2	5
213.3	5
213.4	5
213.5	5
213.6	5
213.7	5
213.8	5
213.9	4
214.0	4
214.1	4
214.2	3
214.3	3
214.4	4
214.5	4
214.6	5
214.7	6
214.8	6
214.9	6
215.0	5
215.1	5
215.2	5
215.3	5
215.4	5
215.5	5
215.6	5
215.7	5
215.8	6
215.9	6
216.0	6
216.1	5
216.2	5
216.3	5
216.4	5
216.5	6
216.6	6
216.7	6
216.8	7
216.9	6
217.0	6
217.1	5
217.2	5
217.3	5
217.4	5
217.5	4
217.6	4
217.7	4
217.8	4
217.9	4
218.0	5
218.1	6
218.2	7
218.3	6
218.4	6
218.5	5
218.6	5
218.7	5
218.8	5
218.9	5
219.0	5
219.1	5
219.2	5
219.3	5
219.4	5
219.5	6
219.6	6
219.7	6
219.8	6
219.9	5
220.0	5
220.1	6
220.2	6
220.3	6
220.4	5
220.5	5
220.6	4
220.7	4
220.8	5
220.9	4
221.0	4
221.1	5
221.2	5
221.3	6
221.4	6
221.5	5
225.5	4
225.6	5
225.7	6
225.8	6
225.9	6
226.0	6
226.1	6
226.2	5
226.3	5
226.4	5
226.5	5
226.6	5
226.7	6
226.8	6
226.9	5
227.0	5
227.1	5
227.2	5
227.3	5
227.4	5
227.5	5
227.6	5
227.7	4
227.8	4
227.9	4
228.0	5
228.1	5
228.2	5
228.3	5
228.4	6
228.5	6
228.6	5
228.7	5
228.8	5
228.9	4
229.0	4
229.1	5
229.2	5
229.3	5
229.4	6
229.5	6
229.6	6
229.7	5
229.8	5
229.9	4
230.0	4
230.1	4
230.2	5
230.3	5
230.4	6
230.5	6
230.6	7
230.7	7
230.8	6
230.9	6
231.0	5
231.1	6
231.2	6
231.3	6
231.4	6
231.5	6
231.6	6
231.7	6
231.8	5
231.9	4
232.0	4
232.1	4
232.2	4
232.3	5
232.4	6
232.5	7
232.6	7
232.7	6
232.8	6
235.8	4
235.9	5
236.0	6
236.1	7
236.2	7
236.3	6
244.6	4
244.7	5
244.8	6
244.9	6
245.0	6
245.1	5
245.2	5
245.3	4
245.4	4
245.5	4
245.6	4
245.7	3
245.8	3
245.9	4
246.0	5
246.1	6
246.2	6
246.3	6
246.4	5
253.7	3
253.8	5
253.9	6
254.0	7
254.1	7
254.2	6
254.3	6
254.4	5
254.5	5
254.6	5
254.7	5
254.8	5
254.9	5
255.0	5
255.1	5
255.2	5
255.3	4
255.4	4
255.5	4
255.6	3
255.7	3
255.8	4
255.9	4
256.0	5
256.1	5
256.2	6
256.3	6
256.4	6
256.5	5
256.6	5
256.7	4
256.8	4
256.9	4
257.0	4
257.1	5
257.2	5
257.3	4
257.4	4
257.5	3
257.6	3
257.7	4
257.8	4
257.9	5
258.0	6
258.1	6
258.2	6
258.3	6
258.4	5
260.2	4
260.3	5
260.4	5
260.5	6
260.6	6
260.7	5
260.8	5
260.9	5
261.0	5
261.1	5
261.2	5
261.3	5
261.4	5
261.5	5
261.6	5
261.7	5
261.8	5
261.9	5
268.0	4
268.1	5
268.2	6
268.3	7
268.4	6
268.5	6
270.4	3
270.5	4
270.6	5
270.7	6
270.8	7
270.9	6
283.6	4
283.7	5
283.8	6
283.9	7
284.0	7
284.1	6
284.2	6
284.3	5
284.4	5
284.5	4
284.6	4
284.7	3
284.8	3
284.9	4
285.0	4
285.1	5
285.2	5
285.3	5
285.4	6
285.5	6
285.6	6
285.7	5
291.6	4
291.7	5
291.8	5
291.9	6
292.0	6
292.1	5
296.1	4
296.2	5
296.3	6
296.4	6
296.5	6
296.6	5
299.5	4
299.6	5
299.7	6
299.8	6
299.9	6
300.0	5
300.1	5
300.2	5
300.3	5
300.4	4
300.5	5
300.6	5
300.7	5
300.8	5
300.9	5
301.0	5
301.1	5
301.2	5
301.3	5
301.4	5
301.5	5
301.6	5
301.7	5
301.8	5
301.9	5
302.0	5
302.1	5
302.2	5
302.3	5
302.4	5
302.5	5
302.6	4
302.7	4
302.8	4
302.9	5
303.0	5
303.1	6
303.2	6
303.3	6
303.4	6
303.5	6
305.2	5
305.3	5
305.4	6
305.5	6
305.6	6
305.7	6
305.8	6
305.9	6
306.0	6
306.1	6
306.2	5
306.3	5
306.4	6
306.5	6
306.6	6
306.7	6
316.1	4
316.2	5
316.3	6
316.4	6
316.5	7
316.6	7
316.7	6
316.8	5
317.2	4
317.3	5
317.4	5
317.5	6
317.6	6
317.7	6
317.8	6
317.9	6
322.9	4
323.0	5
323.1	6
323.2	6
323.3	6
323.4	6
323.5	6
323.6	5
323.7	5
323.8	4
323.9	4
324.0	5
324.1	6
324.2	7
324.3	7
324.4	7
324.5	6
324.6	5
329.6	5
329.7	6
329.8	7
329.9	7
330.0	7
330.1	7
330.2	6
335.1	4
335.2	5
335.3	6
335.4	7
335.5	7
335.6	7
335.7	7
335.8	6
335.9	6
336.0	5
336.1	5
336.2	6
336.3	6
336.4	6
336.5	6
336.6	6
336.7	5
336.8	5
336.9	4
337.3	3
337.4	4
337.5	5
337.6	7
337.7	7
337.8	7
337.9	6
339.8	5
339.9	5
340.0	6
340.1	6
340.2	6
346.5	4
346.6	5
346.7	6
346.8	6
346.9	6
347.0	5
347.1	4
347.5	4
347.6	5
347.7	6
347.8	6
347.9	7
348.0	6
348.1	6
348.2	5
348.3	5
348.4	4
348.5	4
348.6	4
348.7	4
348.8	4
348.9	4
349.0	4
349.1	4
349.2	4
349.3	5
349.4	5
349.5	5
349.6	4
349.7	4
349.8	4
349.9	5
350.0	6
350.1	6
350.2	5
350.3	5
350.4	5
350.5	5
350.6	4
350.7	4
350.8	4
350.9	4
351.0	4
351.1	5
351.2	6
351.3	6
351.4	5
351.5	4
351.6	4
351.7	4
351.8	4
351.9	4
352.0	4
352.1	4
352.2	4
352.3	4
352.4	4
352.5	5
352.6	5
352.7	5
352.8	5
352.9	5
353.0	5
353.1	6
353.2	6
353.3	5
353.4	5
353.5	5
353.6	4
353.7	4
353.8	4
353.9	4
354.0	5
354.1	5
354.2	6
354.3	6
354.4	6
354.5	5
354.6	5
354.7	5
354.8	4
354.9	4
355.0	4
355.1	4
355.2	5
355.3	6
355.4	6
355.5	5
355.6	5
355.7	5
355.8	6
355.9	6
356.0	5
356.1	5
364.4	3
364.5	4
364.6	5
364.7	5
364.8	5
364.9	4
365.0	4
365.1	4
365.2	3
365.3	3
365.4	4
365.5	5
365.6	5
365.7	5
365.8	5
365.9	5
366.0	4
366.1	4
366.2	4
366.3	4
366.4	5
366.5	5
366.6	6
366.7	6
366.8	6
366.9	6
367.0	6
367.1	7
367.2	6
367.3	6
368.8	4
368.9	5
369.0	6
369.1	7
369.2	7
369.3	6
369.4	5
372.0	4
372.1	5
372.2	6
372.3	6
372.4	6
372.5	6
372.6	5
382.1	4
382.2	5
382.3	5
382.4	6
382.5	6
382.6	6
387.6	4
387.7	5
387.8	6
387.9	7
388.0	7
388.1	6
388.2	6
388.3	5
390.0	5
390.1	6
390.2	6
390.3	7
390.4	6
390.5	6
390.6	6
390.7	5
394.4	3
394.5	4
394.6	5
394.7	6
394.8	6
394.9	6
395.0	5
410.2	4
410.3	5
410.4	6
410.5	6
410.6	6
410.7	6
410.8	6
410.9	5
411.0	5
411.1	4
411.2	5
411.3	5
411.4	6
411.5	6
411.6	5
411.7	5
411.8	5
411.9	4
412.0	4
412.1	3
412.2	4
412.3	4
412.4	5
412.5	5
412.6	6
412.7	5
412.8	5
412.9	5
413.0	5
413.1	5
413.2	5
413.7	4
413.8	5
413.9	6
414.0	6
414.1	6
414.2	6
414.3	6
414.4	6
414.5	6
414.6	6
414.7	7
414.8	7
414.9	6
415.0	6
415.1	5
415.2	5
415.3	5
415.4	5
415.5	5
415.6	4
415.7	4
415.8	5
415.9	5
416.0	6
416.1	6
416.2	6
416.3	5
416.4	4
416.5	4
416.6	4
416.7	4
416.8	4
416.9	5
417.0	6
417.1	7
417.2	7
417.3	7
417.4	6
417.9	5
418.0	6
418.1	7
418.2	7
418.3	7
432.5	3
432.6	4
432.7	5
432.8	6
432.9	7
433.0	6
433.1	6
433.2	5
433.7	5
433.8	5
433.9	6
434.0	7
434.1	7
434.2	7
434.3	6
434.4	6
434.5	6
434.6	5
434.7	5
434.8	6
434.9	6
435.0	7
435.1	6
435.2	6
435.3	5
435.4	5
435.5	5
435.6	5
435.7	5
435.8	5
435.9	5
436.0	5
436.1	5
436.2	6
436.3	6
436.4	6
436.5	6
436.6	5
436.7	5
436.8	4
436.9	4
437.0	4
437.1	4
437.2	4
437.3	5
437.4	6
437.5	7
437.6	6
437.7	6
437.8	5
437.9	5
438.0	5
438.1	6
438.2	6
438.3	7
438.4	6
438.5	6
438.6	5
438.7	5
438.8	5
438.9	5
439.0	4
439.1	4
439.2	4
439.3	5
439.4	6
439.5	6
439.6	7
439.7	7
439.8	6
440.3	5
440.4	6
440.5	7
440.6	7
440.7	7
440.8	6
440.9	6
441.0	5
441.1	5
441.2	5
441.3	4
441.4	4
441.5	5
441.6	5
441.7	6
441.8	6
441.9	6
442.0	6
442.1	6
442.2	5
442.3	4
442.4	4
442.5	4
442.6	5
442.7	6
442.8	7
442.9	6
443.0	6
443.1	5
443.2	5
443.3	4
443.4	5
443.5	5
443.6	5
443.7	5
443.8	5
443.9	5
444.0	6
444.1	6
444.2	5
444.3	5
444.4	5
444.5	5
444.6	5
444.7	5
444.8	5
444.9	5
445.0	6
445.1	6
445.2	7
445.3	7
445.4	6
445.5	6
452.7	4
452.8	5
452.9	6
453.0	6
453.1	6
453.2	5
453.3	4
453.7	3
453.8	4
453.9	5
454.0	6
454.1	7
454.2	7
454.3	7
454.4	6
466.2	4
466.3	5
466.4	6
466.5	6
466.6	6
496.5	4
496.6	5
496.7	6
496.8	6
496.9	6
497.0	5
497.1	4
497.2	4
497.3	4
497.4	5
497.5	5
497.6	5
497.7	6
497.8	6
497.9	6
498.0	5
514.3	4
514.4	5
514.5	5
514.6	6
514.7	5
514.8	5
514.9	4
515.0	4
515.1	4
515.2	4
515.3	4
515.4	5
515.5	5
515.6	6
515.7	6
515.8	6
515.9	6
516.0	5
516.1	4
516.6	3
516.7	4
516.8	5
516.9	6
517.0	6
517.1	6
517.2	6
517.3	6
517.4	5
517.5	5
517.6	5
517.7	5
517.8	6
517.9	6
518.0	6
518.1	5
518.2	5
518.3	4
518.4	4
518.5	4
518.6	4
518.7	4
518.8	5
518.9	6
519.0	6
519.1	6
519.2	5
519.3	5
519.4	4
519.5	4
519.6	4
519.7	4
519.8	3
519.9	4
520.0	4
520.1	5
520.2	5
520.3	5
520.4	5
520.5	5
520.6	5
520.7	5
520.8	4
520.9	3
521.0	3
521.1	4
521.2	5
521.3	6
521.4	7
521.5	6
521.6	5
522.0	3
522.1	5
522.2	6
522.3	6
522.4	7
522.5	6
522.6	6
534.5	4
534.6	5
534.7	6
534.8	6
534.9	6
535.0	6
535.1	6
535.2	6
535.3	5
537.9	4
538.0	5
538.1	6
538.2	6
538.3	7
538.4	6
538.5	5
539.0	4
539.1	5
539.2	5
539.3	6
539.4	6
539.5	6
539.6	5
539.7	5
539.8	5
539.9	5
540.0	5
540.1	5
540.2	5
540.3	6
540.4	6
540.5	6
540.6	6
540.7	5
540.8	5
540.9	5
541.0	5
541.1	5
541.2	6
541.3	6
541.4	7
541.5	7
541.6	7
541.7	6
541.8	5
548.7	5
548.8	6
548.9	7
549.0	7
549.1	7
549.2	7
549.3	6
550.0	4
550.1	5
550.2	6
550.3	7
550.4	6
550.5	6
550.6	5
550.7	5
550.8	5
550.9	4
551.0	4
551.1	4
551.2	5
551.3	5
551.4	6
551.5	6
551.6	6
551.7	5
551.8	5
551.9	5
552.0	5
552.1	5
552.2	5
552.3	5
552.4	5
552.5	5
552.6	6
552.7	7
552.8	7
552.9	7
560.4	4
560.5	5
560.6	6
560.7	6
560.8	6
560.9	5
561.5	4
561.6	5
561.7	6
561.8	5
561.9	5
562.0	4
562.1	4
562.2	5
562.3	5
562.4	5
562.5	6
562.6	6
562.7	5
562.8	5
562.9	5
563.0	5
563.1	5
563.2	4
563.3	4
563.4	4
563.5	3
563.6	4
563.7	5
563.8	6
563.9	6
564.0	6
564.1	6
565.8	4
565.9	5
566.0	6
566.1	7
566.2	7
566.3	6
577.0	4
577.1	5
577.2	5
577.3	6
577.4	6
577.5	5
577.6	5
577.7	4
577.8	4
577.9	4
578.0	4
578.1	5
578.2	5
578.3	5
578.4	5
578.5	5
578.6	4
578.7	4
578.8	4
578.9	4
579.0	4
579.1	4
579.2	4
579.3	5
579.4	5
579.5	5
579.6	5
579.7	4
579.8	4
579.9	4
580.0	5
580.1	5
580.2	4
580.3	4
580.4	4
580.5	5
580.6	5
580.7	5
580.8	6
580.9	5
596.4	4
596.5	4
596.6	5
596.7	6
596.8	6
596.9	6
597.0	5
597.1	5
597.2	5
597.3	4
597.4	4
597.5	4
597.6	4
597.7	5
597.8	5
597.9	5
598.0	5
598.1	5
598.2	4
598.3	4
598.4	4
598.5	5
598.6	6
598.7	6
598.8	6
598.9	5
599.0	6
599.1	6
599.2	6
599.3	5
599.4	5
599.5	5
599.6	4
599.7	4
599.8	5
599.9	5
600.0	5
600.1	5
600.2	5
600.3	5
600.4	5
600.5	5
600.6	5
600.7	5
600.8	5
600.9	4
601.0	4
601.1	4
601.2	4
601.3	5
601.4	4
601.5	4
601.6	4
601.7	4
601.8	5
601.9	5
602.0	5
602.1	5
602.2	6
602.3	6
602.4	6
602.5	6
602.6	6
602.7	6
602.8	6
602.9	5
603.0	4
603.1	4
603.2	5
603.3	5
603.4	5
603.5	5
603.6	4
603.7	4
603.8	4
603.9	5
604.0	4
604.1	4
604.2	4
604.3	5
604.4	5
604.5	5
604.6	4
604.7	4
604.8	4
604.9	3
605.0	3
605.1	3
605.2	4
605.3	5
605.4	6
605.5	6
605.6	6
605.7	5
605.8	5
605.9	5
606.0	5
606.1	5
606.2	5
606.3	5
606.4	5
606.5	5
606.6	5
606.7	5
606.8	5
606.9	5
607.0	5
607.1	5
607.2	4
607.3	4
607.4	4
607.5	4
607.6	4
607.7	5
607.8	5
607.9	5
608.0	5
608.1	6
608.2	6
608.3	6
608.4	5
608.5	5
608.6	4
608.7	4
608.8	5
608.9	5
609.0	5
609.1	5
609.2	4
609.3	4
609.4	3
609.5	4
609.6	4
609.7	5
609.8	5
609.9	5
610.0	5
610.1	5
610.2	5
610.3	5
610.4	4
610.5	4
610.6	4
610.7	4
610.8	5
610.9	5
611.0	6
611.1	6
611.2	6
611.3	6
611.4	5
611.5	5
611.6	4
611.7	4
611.8	4
611.9	4
612.0	5
612.1	5
612.2	5
612.3	5
612.4	5
612.5	5
612.6	4
612.7	4
612.8	4
612.9	4
613.0	4
613.1	4
613.2	5
613.3	5
613.4	5
613.5	5
613.6	4
613.7	4
613.8	4
613.9	4
614.0	4
614.1	4
614.2	4
614.3	5
614.4	5
614.5	5
614.6	5
614.7	5
614.8	5
614.9	5
615.0	5
615.1	4
615.2	4
615.3	4
615.4	4
615.5	4
615.6	4
615.7	5
615.8	5
615.9	5
616.0	5
616.1	5
616.2	5
616.3	5
616.4	5
616.5	5
616.6	5
616.7	5
616.8	5
616.9	4
617.4	3
617.5	4
617.6	5
617.7	5
617.8	6
617.9	6
618.0	5
618.1	5
618.2	4
618.3	4
618.4	4
618.5	4
618.6	4
618.7	5
618.8	6
618.9	7
619.0	6
619.1	6
619.2	5
625.5	4
625.6	5
625.7	6
625.8	7
625.9	6
626.0	5
626.1	5
626.2	5
626.3	5
626.4	5
626.5	4
626.6	4
626.7	4
626.8	4
626.9	4
627.0	4
627.1	4
627.2	5
627.3	5
627.4	5
627.5	5
627.6	5
627.7	5
627.8	5
627.9	5
628.0	5
628.1	4
628.2	3
628.3	3
628.4	3
628.5	3
628.6	4
628.7	4
628.8	4
628.9	4
629.0	5
629.1	5
629.2	5
629.3	5
629.4	5
629.5	5
629.6	5
629.7	5
629.8	5
629.9	5
630.0	5
630.1	6
630.2	6
630.3	5
630.4	5
630.5	4
630.6	4
630.7	5
630.8	5
630.9	5
631.0	5
631.1	5
631.2	5
631.3	5
631.4	5
631.5	6
631.6	5
631.7	5
631.8	5
631.9	4
632.0	4
632.1	5
632.2	5
632.3	5
632.4	5
632.5	5
632.6	5
632.7	5
632.8	5
632.9	4
633.0	4
633.1	4
633.2	5
633.3	5
633.4	6
633.5	6
633.6	6
633.7	6
633.8	5
633.9	5
634.0	4
634.1	4
634.2	4
634.3	5
634.4	5
634.5	6
634.6	6
634.7	6
634.8	6
634.9	5
635.0	4
635.1	4
635.2	5
635.3	5
635.4	4
635.5	3
635.6	3
635.7	3
635.8	4
635.9	6
636.0	7
636.1	7
636.2	6
639.8	4
639.9	5
640.0	6
640.1	7
640.2	7
640.3	8
640.4	8
640.5	7
640.6	6
645.3	4
645.4	5
645.5	6
645.6	7
645.7	7
645.8	7
645.9	7
646.0	6
646.1	5
646.2	5
646.3	5
646.4	5
646.5	5
646.6	5
646.7	5
646.8	5
646.9	4
647.0	4
647.1	4
647.2	5
647.3	5
647.4	5
647.5	5
647.6	5
647.7	5
647.8	5
647.9	5
648.0	6
648.1	6
648.2	7
648.3	6
648.4	5
663.4	4
663.5	5
663.6	6
663.7	7
663.8	7
663.9	7
664.0	6
664.1	5
672.4	4
672.5	5
672.6	6
672.7	7
672.8	7
672.9	6
673.0	6
683.5	4
683.6	4
683.7	5
683.8	6
683.9	6
684.0	6
684.1	6
684.2	5
684.3	5
684.4	5
684.5	5
684.6	5
684.7	5
684.8	4
684.9	4
685.0	4
685.1	4
685.2	4
685.3	4
685.4	4
685.5	4
685.6	5
685.7	4
685.8	4
685.9	5
686.0	5
686.1	6
686.2	6
686.3	6
686.4	6
689.5	4
689.6	5
689.7	6
689.8	7
689.9	7
690.0	6
690.1	5
697.2	3
697.3	4
697.4	6
697.5	6
697.6	6
697.7	6
697.8	5
698.2	3
698.3	4
698.4	5
698.5	6
698.6	7
698.7	7
698.8	6
698.9	5
710.8	5
710.9	5
711.0	6
711.1	7
711.2	6
711.3	6
711.4	4
717.4	5
717.5	6
717.6	6
717.7	7
717.8	7
717.9	6
718.0	6
718.1	5
723.0	3
723.1	5
723.2	6
723.3	7
723.4	8
723.5	7
723.6	6
723.7	4
727.6	4
727.7	5
727.8	6
727.9	6
728.0	6
736.5	3
736.6	4
736.7	5
736.8	6
736.9	7
737.0	7
737.1	6
742.1	5
742.2	6
742.3	7
742.4	7
742.5	7
742.6	7
742.7	5
742.8	4
744.4	5
744.5	6
744.6	6
744.7	6
744.8	6
744.9	6
762.5	5
762.6	5
762.7	6
762.8	7
762.9	7
763.0	7
763.1	6
763.2	6
769.1	5
769.2	6
769.3	7
769.4	7
769.5	7
769.6	7
769.7	6
771.5	5
771.6	6
771.7	7
771.8	7
771.9	7
772.0	7
772.1	6
774.9	4
775.0	4
775.1	6
775.2	6
775.3	7
775.4	7
775.5	6
775.6	6
779.4	6
779.5	7
779.6	8
779.7	9
779.8	8
780.1	5
780.2	7
780.3	11
780.4	17
780.5	22
780.6	28
780.7	35
780.8	40
780.9	45
781.0	56
781.1	74
781.2	81
781.3	61
781.4	27
781.5	3
781.7	3
781.8	6
781.9	6
782.0	5
784.0	4
784.1	5
784.2	6
784.3	6
784.4	6
784.5	6
784.6	5
784.7	5
784.8	5
784.9	4
785.0	5
785.1	5
785.2	5
785.3	6
785.4	6
785.5	5
785.6	5
785.7	5
785.8	5
785.9	5
786.0	4
786.1	4
786.2	4
786.3	5
786.4	5
786.5	5
786.6	5
786.7	5
786.8	4
786.9	4
787.0	3
787.1	4
787.2	4
787.3	5
787.4	5
787.5	6
787.6	7
787.7	7
787.8	6
793.9	4
794.0	5
794.1	5
794.2	6
794.3	6
794.4	6
794.5	5
817.5	5
817.6	5
817.7	6
817.8	7
817.9	7
818.0	7
818.1	6
818.2	5
824.4	4
824.5	5
824.6	5
824.7	6
824.8	6
824.9	5
825.5	4
825.6	5
825.7	5
825.8	6
825.9	6
826.0	6
826.1	5
826.2	5
826.3	4
826.4	4
826.5	4
826.6	4
826.7	4
826.8	4
826.9	4
827.0	5
827.1	5
827.2	4
827.3	4
827.4	4
827.5	4
827.6	4
827.7	4
827.8	5
827.9	5
828.0	5
828.1	4
828.2	4
828.3	4
828.4	4
828.5	4
828.6	4
828.7	4
828.8	4
828.9	4
829.0	4
829.1	4
829.2	4
829.3	5
829.4	5
829.5	6
829.6	6
829.7	5
829.8	5
829.9	5
830.0	4
830.1	4
830.2	4
830.3	5
830.4	5
830.5	6
830.6	6
830.7	6
830.8	5
830.9	5
831.0	4
831.1	4
831.2	4
831.3	4
831.4	5
831.5	5
831.6	5
831.7	5
831.8	5
831.9	5
832.0	5
832.1	5
832.2	5
832.3	5
832.4	5
832.5	5
832.6	6
832.7	6
832.8	5
836.9	4
837.0	5
837.1	6
837.2	6
837.3	6
837.4	5
837.5	4
837.6	4
837.7	5
837.8	5
837.9	5
838.0	5
838.1	4
838.2	4
838.3	4
838.4	4
838.5	4
838.6	4
838.7	3
838.8	3
838.9	3
839.0	4
839.1	4
839.2	5
839.3	5
839.4	6
839.5	6
839.6	5
839.7	5
839.8	5
839.9	5
840.0	4
840.1	4
840.2	4
840.3	4
840.4	5
840.5	5
840.6	6
840.7	6
840.8	6
840.9	5
841.0	5
841.1	4
841.2	4
841.3	4
841.4	4
841.5	4
841.6	5
841.7	5
841.8	6
841.9	5
842.0	5
842.1	4
842.2	4
842.3	4
842.4	4
842.5	5
842.6	5
842.7	6
842.8	6
842.9	6
843.0	6
843.1	6
843.2	5
843.3	5
843.4	5
843.5	5
843.6	5
843.7	5
843.8	4
843.9	4
844.0	4
844.1	4
844.2	4
844.3	4
844.4	4
844.5	4
844.6	4
844.7	5
844.8	5
844.9	6
845.0	6
845.1	6
845.2	6
845.3	6
845.4	5
845.5	5
845.6	5
845.7	5
845.8	5
845.9	5
846.0	5
846.1	5
846.2	5
846.3	5
846.4	5
846.5	4
846.6	4
846.7	4
846.8	4
846.9	4
847.0	5
847.1	5
847.2	6
847.3	6
847.4	7
847.5	7
847.6	6
847.7	5
862.8	4
862.9	5
863.0	6
863.1	6
863.2	6
863.3	5
863.4	5
863.5	5
863.6	5
863.7	5
863.8	5
863.9	5
864.0	5
864.1	5
864.2	6
864.3	6
864.4	6
881.0	4
881.1	5
881.2	6
881.3	7
881.4	7
881.5	7
881.6	7
881.7	6
885.4	5
885.5	5
885.6	6
885.7	7
885.8	7
885.9	7
892.3	4
892.4	5
892.5	5
892.6	5
892.7	5
892.8	6
892.9	6
893.0	6
893.1	6
893.2	6
893.3	6
893.4	6
893.5	6
893.6	6
893.7	5
893.8	5
893.9	5
894.0	4
894.1	4
894.2	3
894.3	3
894.4	4
894.5	5
894.6	5
894.7	6
894.8	6
894.9	6
895.0	5
895.1	5
895.2	5
895.3	4
895.4	4
895.5	4
895.6	4
895.7	5
895.8	5
895.9	6
896.0	6
896.1	6
896.2	6
896.3	5
896.4	5
896.5	5
896.6	6
896.7	6
896.8	6
896.9	6
897.0	7
897.1	6
897.2	6
897.3	5
897.4	5
897.5	5
897.6	6
897.7	7
897.8	7
897.9	7
898.0	6
898.1	6
898.2	6
898.3	6
898.4	6
898.5	5
898.6	5
898.7	5
898.8	6
898.9	6
899.0	7
899.1	7
899.2	8
899.3	8
899.4	8
899.5	7
