Mass spectrum: Cryptotanshinone; LC-ESI-QQQ; MS2; Frag=135.0V CID@15.0; [M+H]+
Name: Cryptotanshinone
Class: Polycyclic aromatic natural products
Formula: C19H20O3
Exact mass: 296.3695
SMILES: C[C@H]1COC2=C1C(=O)C(=O)c1c2ccc2c1CCCC2(C)C
InChI: InChI=1S/C19H20O3/c1-10-9-22-18-12-6-7-13-11(5-4-8-19(13,2)3)15(12)17(21)16(20)14(10)18/h6-7,10H,4-5,8-9H2,1-3H3/t10-/m0/s1
Instrument: Agilent 6410 Triple Quadrupole LC/MS system
Instrument type: LC-ESI-QQQ
Ms type: MS2
Ion mode: POSITIVE
Precursor type: [M+H]+
m/z	relative intensity
250.6	1
250.7	2
250.8	4
250.9	7
251.0	9
251.1	10
251.2	10
251.3	9
251.4	8
251.5	5
251.6	2
278.7	2
278.8	3
278.9	5
279.0	7
279.1	9
279.2	9
279.3	9
279.4	7
279.5	5
279.6	2
296.3	0
296.4	1
296.5	5
296.6	11
296.7	21
296.8	37
296.9	57
297.0	78
297.1	93
297.2	99
297.3	95
297.4	80
297.5	54
297.6	24
297.7	3
