Mass spectrum: Roemerine; LC-ESI-QQQ; MS2; Frag=135.0V CID@5.0; [M+H]+
Name: Remerin
Name: Aporheine
Name: Roemerine
Class: Alkaloids
Formula: C18H17NO2
Exact mass: 279.3417
SMILES: CN1CCc2cc3c(c4c2[C@H]1Cc1ccccc1-4)OCO3
InChI: InChI=1S/C18H17NO2/c1-19-7-6-12-9-15-18(21-10-20-15)17-13-5-3-2-4-11(13)8-14(19)16(12)17/h2-5,9,14H,6-8,10H2,1H3/t14-/m1/s1
Instrument: Agilent 6410 Triple Quadrupole LC/MS system
Instrument type: LC-ESI-QQQ
Ms type: MS2
Ion mode: POSITIVE
Precursor type: [M+H]+
m/z	relative intensity
248.4	2
248.5	3
248.6	5
248.7	9
248.8	17
248.9	28
249.0	38
249.1	43
249.2	43
249.3	38
249.4	29
249.5	18
249.6	6
249.7	0
279.3	0
279.4	2
279.5	5
279.6	9
279.7	18
279.8	33
279.9	54
280.0	77
280.1	93
280.2	99
280.3	93
280.4	75
280.5	48
280.6	20
280.7	2
