Mass spectrum: O-DeMethylfoliosidine; LC-ESI-QQQ; MS2; Frag=135.0V CID@15.0 ; [M+H]+
Name: O-DeMethylfoliosidine
Class: Alkaloids
Formula: C15H19NO5
Exact mass: 293.32238
SMILES: Cn1c(O)cc(=O)c2cccc(OCC(O)C(C)(C)O)c21
InChI: InChI=1S/C15H19NO5/c1-15(2,20)12(18)8-21-11-6-4-5-9-10(17)7-13(19)16(3)14(9)11/h4-7,12,18-20H,8H2,1-3H3
Instrument: Agilent 6410 Triple Quadrupole LC/MS system
Instrument type: LC-ESI-QQQ
Ms type: MS2
Ion mode: POSITIVE
Precursor type: [M+H]+
m/z	relative intensity
161.5	1
161.6	3
161.7	5
161.8	7
161.9	10
162.0	11
162.1	12
162.2	12
162.3	10
162.4	7
162.5	3
190.5	4
190.6	5
190.7	9
190.8	13
190.9	17
191.0	20
191.1	22
191.2	22
191.3	19
191.4	16
191.5	11
191.7	9
191.8	12
191.9	17
192.0	22
192.1	25
192.2	25
192.3	22
192.4	15
192.5	7
192.6	2
215.6	1
215.7	2
215.8	4
215.9	6
216.0	7
216.1	7
216.2	7
216.3	6
216.4	4
216.5	2
275.3	0
275.4	2
275.5	6
275.6	13
275.7	24
275.8	41
275.9	62
276.0	82
276.1	95
276.2	99
276.3	92
276.4	74
276.5	46
276.6	19
276.7	1
293.4	1
293.5	3
293.6	8
293.7	16
293.8	26
293.9	37
294.0	49
294.1	58
294.2	62
294.3	58
294.4	44
294.5	25
294.6	8
294.7	0
