Mass spectrum: Veratroylzygadenine; LC-ESI-QQQ; MS2; Frag=135.0V CID@25.0 ; [M+H]+
Name: Veratroylzygadenine
Class: Alkaloids
Formula: C36H51NO10
Exact mass: 657.80857
SMILES: COc1ccc(C(=O)OC2CCC3(C)C4CCC5[C@]6(O)[C@@H](O)C(O)[C@H]7C(CN8CC(C)CC[C@H]8[C@@]7(C)O)[C@@H]6C[C@@]53O[C@]24O)cc1OC
InChI: InChI=1S/C36H51NO10/c1-18-6-11-26-33(3,41)28-20(17-37(26)16-18)21-15-34-25(35(21,42)30(39)29(28)38)10-9-24-32(34,2)13-12-27(36(24,43)47-34)46-31(40)19-7-8-22(44-4)23(14-19)45-5/h7-8,14,18,20-21,24-30,38-39,41-43H,6,9-13,15-17H2,1-5H3/t18?,20?,21-,24?,25?,26-,27?,28+,29?,30-,32?,33+,34+,35-,36-/m0/s1
Instrument: Agilent 6410 Triple Quadrupole LC/MS system
Instrument type: LC-ESI-QQQ
Ms type: MS2
Ion mode: POSITIVE
Precursor type: [M+H]+
m/z	relative intensity
639.6	1
639.7	2
639.8	4
639.9	7
640.0	10
640.1	14
640.2	17
640.3	19
640.4	20
640.5	19
640.6	15
640.7	9
640.8	3
657.3	0
657.4	1
657.5	4
657.6	8
657.7	14
657.8	24
657.9	39
658.0	56
658.1	72
658.2	87
658.3	97
658.4	99
658.5	91
658.6	70
658.7	41
658.8	15
658.9	0
