Mass spectrum: Lysergol; LC-ESI-QQQ; MS2; Frag=135.0V CID@15.0; [M+H]+
Name: Lysergol
Class: Alkaloids
Formula: C16H18N2O
Exact mass: 254.3347
SMILES: CN1C[C@H](CO)C=C2c3cccc4[nH]cc(c34)C[C@H]21
InChI: InChI=1S/C16H18N2O/c1-18-8-10(9-19)5-13-12-3-2-4-14-16(12)11(7-17-14)6-15(13)18/h2-5,7,10,15,17,19H,6,8-9H2,1H3/t10-,15-/m1/s1
Instrument: Agilent 6410 Triple Quadrupole LC/MS system
Instrument type: LC-ESI-QQQ
Ms type: MS2
Ion mode: POSITIVE
Precursor type: [M+H]+
m/z	relative intensity
196.7	2
196.8	4
196.9	7
197.0	10
197.1	12
197.2	12
197.3	10
197.4	7
197.5	4
223.7	2
223.8	4
223.9	5
224.0	7
224.1	8
224.2	9
224.3	8
224.4	6
224.5	3
239.5	2
239.6	3
239.7	6
239.8	10
239.9	16
240.0	21
240.1	25
240.2	25
240.3	22
240.4	17
240.5	10
240.6	3
254.3	1
254.4	3
254.5	7
254.6	11
254.7	18
254.8	32
254.9	54
255.0	78
255.1	94
255.2	99
255.3	92
255.4	73
255.5	46
255.6	19
255.7	2
