Mass spectrum: Erythromycin propionate; LC-ESI-QQQ; MS2; Frag=135.0V CID@10.0; [M+H]+
Name: Erythromycin propionate
Class: Polyketides
Formula: C40H71NO14
Exact mass: 790.0102
SMILES: CCC(=O)OC1C(O[C@@H]2C(C)[C@H](OC3CC(C)(OC)[C@H](O)[C@@H](C)O3)[C@@H](C)C(=O)OC(CC)[C@@](C)(O)[C@H](O)[C@@H](C)C(=O)[C@H](C)C[C@]2(C)O)OC(C)CC1N(C)C
InChI: InChI=1S/C40H71NO14/c1-15-27-40(11,48)33(44)22(5)30(43)20(3)18-38(9,47)35(55-37-32(53-28(42)16-2)26(41(12)13)17-21(4)50-37)23(6)31(24(7)36(46)52-27)54-29-19-39(10,49-14)34(45)25(8)51-29/h20-27,29,31-35,37,44-45,47-48H,15-19H2,1-14H3/t20-,21?,22+,23?,24-,25-,26?,27?,29?,31+,32?,33-,34-,35-,37?,38+,39?,40-/m1/s1
Instrument: Agilent 6410 Triple Quadrupole LC/MS system
Instrument type: LC-ESI-QQQ
Ms type: MS2
Ion mode: POSITIVE
Precursor type: [M+H]+
m/z	relative intensity
213.1	1
213.2	3
213.3	6
213.4	9
213.5	12
213.6	14
213.7	15
213.8	17
213.9	19
214.0	21
214.1	20
214.2	15
214.3	8
214.4	2
789.2	1
789.3	2
789.4	5
789.5	10
789.6	18
789.7	30
789.8	46
789.9	67
790.0	87
790.1	98
790.2	99
790.3	94
790.4	84
790.5	64
790.6	38
790.7	15
790.8	4
790.9	1
