Mass spectrum: Aucubin; LC-ESI-QQQ; MS2; Frag=135.0V CID@15.0; [M+Na]+
Name: Aucubin
Class: Terpenoids
Formula: C15H22O9
Exact mass: 346.3372
SMILES: OCC1=C[C@@H](O)[C@@H]2C=COC(OC3OC(CO)C(O)C(O)C3O)[C@H]12
InChI: InChI=1S/C15H22O9/c16-4-6-3-8(18)7-1-2-22-14(10(6)7)24-15-13(21)12(20)11(19)9(5-17)23-15/h1-3,7-21H,4-5H2/t7-,8+,9?,10+,11?,12?,13?,14?,15?/m0/s1
Instrument: Agilent 6410 Triple Quadrupole LC/MS system
Instrument type: LC-ESI-QQQ
Ms type: MS2
Ion mode: POSITIVE
Precursor type: [M+Na]+
m/z	relative intensity
202.8	2
202.9	3
203.0	4
203.1	5
203.2	4
203.3	2
368.1	0
368.2	1
368.3	5
368.4	16
368.5	26
368.6	33
368.7	37
368.8	44
368.9	57
369.0	74
369.1	90
369.2	99
369.3	97
369.4	77
369.5	44
369.6	13
369.7	0
