Mass spectrum: Deltaline; LC-ESI-QQQ; MS2; Frag=135.0V CID@10.0; [M+HCOO]-
Name: Deltaline
Class: Alkaloids
Formula: C27H41NO8
Exact mass: 507.6297
SMILES: CCN1C[C@]2(C)CCC(OC)C34C2[C@H](OC(C)=O)C2(OCO[C@@]25C[C@H](OC)[C@H]2C[C@]3(O)C5[C@H]2OC)[C@@H]14
InChI: InChI=1S/C27H41NO8/c1-7-28-12-23(3)9-8-17(32-5)26-20(23)21(36-14(2)29)27(22(26)28)25(34-13-35-27)11-16(31-4)15-10-24(26,30)19(25)18(15)33-6/h15-22,30H,7-13H2,1-6H3/t15-,16+,17?,18+,19?,20?,21+,22+,23+,24+,25-,26?,27?/m1/s1
Instrument: Agilent 6410 Triple Quadrupole LC/MS system
Instrument type: LC-ESI-QQQ
Ms type: MS2
Ion mode: NEGATIVE
Precursor type: [M+HCOO]-
m/z	relative intensity
50.5	6
50.6	10
50.7	16
50.8	19
50.9	17
51.8	7
51.9	15
52.0	24
52.1	25
52.2	18
52.5	8
52.6	17
52.7	23
52.8	22
52.9	15
53.1	10
53.2	15
53.3	19
53.4	19
53.5	14
53.7	8
53.8	14
53.9	21
54.0	23
54.1	18
54.4	7
54.5	18
54.6	25
54.7	22
54.8	11
55.0	6
55.1	16
55.2	25
55.3	25
55.4	19
55.7	10
55.8	17
55.9	21
56.0	19
56.1	11
56.3	8
56.4	15
56.5	23
56.6	25
56.7	19
56.8	10
57.0	6
57.1	15
57.2	22
57.3	22
57.4	17
57.6	12
57.7	16
57.8	20
57.9	19
58.0	15
58.2	10
58.3	14
58.4	21
58.5	23
58.6	19
58.7	12
58.9	9
59.0	15
59.1	20
59.2	20
59.3	14
59.5	8
59.6	12
59.7	17
59.8	18
60.1	13
60.2	18
60.3	23
60.4	23
60.5	16
60.8	9
60.9	16
61.0	21
61.1	22
61.2	18
61.3	12
61.5	12
61.6	16
61.7	18
61.8	16
62.1	10
62.2	17
62.3	22
62.4	20
62.5	13
62.7	8
62.8	17
62.9	25
63.0	25
63.1	17
63.3	5
63.4	11
63.5	20
63.6	24
63.7	20
63.8	10
64.0	3
64.1	8
64.2	15
64.3	17
64.4	15
64.6	11
64.7	15
64.8	20
64.9	22
65.0	18
65.2	7
65.3	11
65.4	19
65.5	23
65.6	20
65.7	13
65.9	7
66.0	12
66.1	18
66.2	21
66.3	17
66.6	11
66.7	17
66.8	21
66.9	19
67.0	13
67.2	11
67.3	17
67.4	20
67.5	18
67.6	13
67.8	8
67.9	12
68.0	18
68.1	20
68.2	16
68.4	7
68.5	11
68.6	19
68.7	25
68.8	21
68.9	12
69.1	6
69.2	15
69.3	22
69.4	22
69.5	16
69.7	8
69.8	12
69.9	18
70.0	22
70.1	20
70.2	13
70.4	7
70.5	14
70.6	21
70.7	23
70.8	18
71.1	10
71.2	17
71.3	21
71.4	18
71.6	7
71.7	11
71.8	20
71.9	26
72.0	23
72.1	13
72.3	5
72.4	14
72.5	24
72.6	26
72.7	19
73.5	8
73.6	12
73.7	20
73.8	26
73.9	23
74.0	15
74.8	5
74.9	11
75.0	20
75.1	25
75.2	23
75.3	16
75.5	10
75.6	14
75.7	16
75.8	14
76.1	8
76.2	15
76.3	23
76.4	25
76.5	20
76.6	11
76.8	9
76.9	16
77.0	23
77.1	23
77.2	16
78.0	9
78.1	13
78.2	21
78.3	25
78.4	22
78.5	14
78.7	9
78.8	13
78.9	18
79.0	18
79.1	13
79.3	7
79.4	12
79.5	19
79.6	23
79.7	19
79.8	11
80.0	7
80.1	14
80.2	21
80.3	24
80.4	20
80.7	12
80.8	19
80.9	22
81.0	19
81.2	9
81.3	13
81.4	22
81.5	26
81.6	21
81.7	11
81.9	6
82.0	15
82.1	24
82.2	24
82.3	15
82.5	4
82.6	11
82.7	21
82.8	24
82.9	19
83.1	9
83.2	13
83.3	21
83.4	25
83.5	22
83.6	13
83.8	4
83.9	11
84.0	20
84.1	25
84.2	22
84.3	16
84.5	14
84.6	19
84.7	23
84.8	22
84.9	16
85.1	9
85.2	13
85.3	18
85.4	19
85.5	14
85.7	8
85.8	12
85.9	17
86.0	19
86.1	16
86.3	11
86.4	16
86.5	22
86.6	24
86.7	19
86.8	10
87.0	7
87.1	15
87.2	24
87.3	26
87.4	21
87.5	13
87.7	10
87.8	15
87.9	19
88.0	17
88.3	11
88.4	17
88.5	22
88.6	20
88.7	13
88.9	3
89.0	9
89.1	19
89.2	24
89.3	21
89.4	12
89.6	6
89.7	13
89.8	20
89.9	20
90.0	14
90.2	5
90.3	12
90.4	20
90.5	23
90.6	18
90.8	8
90.9	12
91.0	20
91.1	25
91.2	23
91.3	16
91.5	10
91.6	15
91.7	21
91.8	23
91.9	19
92.8	12
92.9	17
93.0	21
93.1	20
93.2	15
93.4	11
93.5	16
93.6	22
93.7	23
93.8	18
94.1	11
94.2	18
94.3	22
94.4	20
94.5	12
94.7	9
94.8	17
94.9	24
95.0	22
95.1	15
95.3	8
95.4	14
95.5	22
95.6	24
95.7	19
95.8	10
96.0	7
96.1	15
96.2	22
96.3	22
96.4	15
96.6	9
96.7	14
96.8	20
96.9	21
97.0	16
97.2	7
97.3	12
97.4	20
97.5	24
97.6	20
97.7	12
97.9	8
98.0	16
98.1	24
98.2	25
98.3	18
98.6	10
98.7	18
98.8	24
98.9	22
99.0	14
99.2	6
99.3	13
99.4	22
99.5	26
99.6	21
99.9	14
100.0	20
100.1	23
100.2	20
100.3	14
101.1	8
101.2	17
101.3	24
101.4	23
101.5	15
101.7	5
101.8	11
101.9	20
102.0	23
102.1	18
102.2	7
102.4	7
102.5	16
102.6	21
102.7	18
102.8	12
103.0	8
103.1	13
103.2	19
103.3	19
103.4	14
103.6	7
103.7	14
103.8	22
103.9	25
104.0	21
104.1	13
104.3	7
104.4	13
104.5	21
104.6	24
104.7	20
104.8	14
105.0	12
105.1	18
105.2	22
105.3	19
105.4	12
105.6	6
105.7	13
105.8	20
105.9	21
106.0	15
106.2	9
106.3	15
106.4	21
106.5	21
106.6	14
106.8	7
106.9	13
107.0	22
107.1	25
107.2	20
107.3	10
107.5	3
107.6	12
107.7	21
107.8	23
107.9	17
108.1	7
108.2	13
108.3	21
108.4	23
108.5	19
108.7	9
108.8	13
108.9	21
109.0	26
109.1	24
109.2	15
109.4	5
109.5	11
109.6	19
109.7	22
109.8	17
110.1	9
110.2	17
110.3	21
110.4	17
110.6	9
110.7	13
110.8	20
110.9	22
111.0	18
111.1	12
111.3	9
111.4	17
111.5	24
111.6	25
111.7	19
111.8	10
112.0	10
112.1	17
112.2	23
112.3	21
112.4	13
112.6	7
112.7	14
112.8	21
112.9	25
113.0	22
113.1	14
113.3	10
113.4	17
113.5	22
113.6	21
113.7	14
113.9	6
114.0	12
114.1	20
114.2	21
114.3	14
114.5	3
114.6	10
114.7	21
114.8	27
114.9	23
115.0	12
115.2	6
115.3	15
115.4	24
115.5	26
115.6	19
116.5	10
116.6	16
116.7	20
116.8	18
116.9	11
117.1	4
117.2	13
117.3	22
117.4	25
117.5	18
118.3	7
118.4	14
118.5	23
118.6	26
118.7	21
118.8	12
119.0	6
119.1	13
119.2	21
119.3	25
119.4	20
119.5	12
119.7	11
119.8	18
119.9	22
120.0	18
120.1	11
120.3	7
120.4	14
120.5	20
120.6	21
120.7	15
120.9	7
121.0	14
121.1	24
121.2	29
121.3	25
121.4	15
121.6	8
121.7	16
121.8	23
121.9	23
122.0	16
122.2	8
122.3	16
122.4	25
122.5	26
122.6	19
123.5	10
123.6	18
123.7	23
123.8	20
123.9	12
124.1	5
124.2	13
124.3	22
124.4	27
124.5	23
124.6	14
124.8	8
124.9	15
125.0	22
125.1	22
125.2	17
125.4	8
125.5	13
125.6	21
125.7	23
125.8	19
126.1	11
126.2	18
126.3	22
126.4	19
126.5	12
126.7	7
126.8	13
126.9	19
127.0	23
127.1	21
127.2	16
127.4	13
127.5	17
127.6	19
127.7	17
127.9	9
128.0	13
128.1	21
128.2	26
128.3	24
128.4	16
128.6	8
128.7	13
128.8	18
128.9	19
129.0	15
129.2	8
129.3	12
129.4	20
129.5	25
129.6	23
129.7	15
129.9	9
130.0	16
130.1	23
130.2	24
130.3	18
130.6	10
130.7	17
130.8	22
130.9	20
131.0	13
131.2	12
131.3	18
131.4	21
131.5	18
131.6	11
131.8	7
131.9	15
132.0	22
132.1	23
132.2	16
132.4	4
132.5	10
132.6	20
132.7	26
132.8	23
132.9	13
133.1	7
133.2	15
133.3	22
133.4	21
133.5	14
133.7	7
133.8	14
133.9	22
134.0	24
134.1	19
134.4	10
134.5	18
134.6	23
134.7	22
134.8	15
135.0	8
135.1	13
135.2	21
135.3	23
135.4	18
135.6	6
135.7	11
135.8	20
135.9	27
136.0	25
136.1	16
136.3	5
136.4	10
136.5	17
136.6	19
136.7	16
136.9	11
137.0	14
137.1	19
137.2	21
137.3	18
137.6	12
137.7	20
137.8	27
137.9	25
138.0	16
138.2	4
138.3	11
138.4	21
138.5	25
138.6	20
138.7	10
138.9	9
139.0	18
139.1	24
139.2	21
139.3	13
139.5	10
139.6	17
139.7	21
139.8	20
139.9	13
140.1	7
140.2	14
140.3	23
140.4	28
140.5	24
140.6	14
140.8	9
140.9	18
141.0	24
141.1	21
141.2	11
141.4	3
141.5	13
141.6	24
141.7	26
141.8	17
142.0	0
142.1	6
142.2	19
142.3	28
142.4	25
142.5	15
142.7	4
142.8	11
142.9	20
143.0	22
143.1	17
143.3	9
143.4	15
143.5	23
143.6	26
143.7	20
144.0	10
144.1	18
144.2	23
144.3	19
144.4	9
144.6	4
144.7	13
144.8	21
144.9	23
145.0	18
145.1	10
145.3	9
145.4	15
145.5	19
145.6	18
145.9	12
146.0	17
146.1	20
146.2	18
146.3	12
146.5	8
146.6	16
146.7	24
146.8	26
146.9	19
147.0	8
147.2	6
147.3	16
147.4	24
147.5	24
147.6	15
147.8	4
147.9	9
148.0	18
148.1	23
148.2	20
148.3	13
148.5	9
148.6	14
148.7	18
148.8	18
148.9	13
149.1	7
149.2	13
149.3	21
149.4	24
149.5	19
149.7	11
149.8	16
149.9	23
150.0	25
150.1	20
150.2	12
150.4	10
150.5	16
150.6	21
150.7	20
150.8	13
151.0	5
151.1	11
151.2	20
151.3	24
151.4	21
151.5	12
151.7	10
151.8	17
151.9	20
152.0	17
152.3	12
152.4	19
152.5	25
152.6	22
152.7	13
152.9	3
153.0	9
153.1	17
153.2	21
153.3	18
154.2	1
154.3	8
154.4	19
154.5	24
154.6	21
154.7	13
154.9	12
155.0	17
155.1	20
155.2	16
155.5	7
155.6	17
155.7	25
155.8	25
155.9	19
156.7	6
156.8	11
156.9	19
157.0	24
157.1	21
157.2	14
157.4	8
157.5	15
157.6	23
157.7	24
157.8	17
158.1	8
158.2	17
158.3	22
158.4	19
158.5	11
158.7	8
158.8	17
158.9	24
159.0	23
159.1	13
159.3	3
159.4	11
159.5	21
159.6	25
159.7	21
159.8	12
160.0	9
160.1	17
160.2	22
160.3	19
160.4	10
160.6	3
160.7	12
160.8	22
160.9	25
161.0	19
161.3	9
161.4	17
161.5	22
161.6	19
161.7	11
161.9	5
162.0	13
162.1	21
162.2	22
162.3	16
162.5	6
162.6	12
162.7	20
162.8	23
162.9	19
163.0	11
163.2	9
163.3	15
163.4	21
163.5	20
163.6	14
163.8	8
163.9	13
164.0	18
164.1	18
164.2	12
164.4	3
164.5	7
164.6	16
164.7	22
164.8	21
164.9	15
165.1	9
165.2	15
165.3	20
165.4	20
165.5	15
165.7	10
165.8	15
165.9	21
166.0	22
166.1	17
166.4	8
166.5	16
166.6	21
166.7	21
166.8	15
167.0	7
167.1	12
167.2	20
167.3	24
167.4	22
167.5	14
167.7	8
167.8	14
167.9	19
168.0	18
168.1	13
168.3	8
168.4	14
168.5	20
168.6	20
168.7	16
168.9	11
169.0	16
169.1	22
169.2	25
169.3	20
169.4	11
169.6	5
169.7	15
169.8	23
169.9	24
170.0	16
170.2	8
170.3	14
170.4	22
170.5	23
170.6	15
170.9	6
171.0	16
171.1	24
171.2	24
171.3	17
171.5	11
171.6	17
171.7	22
171.8	20
171.9	12
172.1	1
172.2	8
172.3	17
172.4	23
172.5	21
172.6	14
172.8	10
172.9	18
173.0	23
173.1	20
173.2	11
173.4	5
173.5	12
173.6	21
173.7	23
173.8	18
174.1	10
174.2	18
174.3	23
174.4	21
174.5	13
174.7	8
174.8	13
174.9	17
175.0	17
175.1	13
175.3	8
175.4	12
175.5	20
175.6	25
175.7	22
175.8	13
176.0	7
176.1	15
176.2	22
176.3	21
176.4	14
176.6	7
176.7	14
176.8	23
176.9	26
177.0	21
177.1	13
177.3	10
177.4	19
177.5	27
177.6	27
177.7	18
178.5	4
178.6	9
178.7	19
178.8	24
178.9	20
179.8	4
179.9	13
180.0	23
180.1	27
180.2	21
180.3	13
180.5	10
180.6	16
180.7	20
180.8	18
181.1	11
181.2	18
181.3	24
181.4	23
181.5	15
181.7	6
181.8	11
181.9	18
182.0	20
182.1	16
182.4	11
182.5	17
182.6	21
182.7	20
182.8	13
183.0	7
183.1	14
183.2	21
183.3	23
183.4	17
183.6	6
183.7	11
183.8	19
183.9	24
184.0	21
184.1	12
184.3	8
184.4	15
184.5	21
184.6	20
184.7	14
184.9	8
185.0	14
185.1	21
185.2	24
185.3	19
185.4	10
185.6	6
185.7	17
185.8	26
185.9	26
186.0	18
186.2	7
186.3	14
186.4	23
186.5	26
186.6	18
186.8	2
186.9	9
187.0	21
187.1	27
187.2	24
187.3	14
187.5	9
187.6	15
187.7	20
187.8	20
187.9	14
188.1	7
188.2	12
188.3	19
188.4	21
188.5	16
188.7	6
188.8	10
188.9	18
189.0	23
189.1	22
189.2	15
189.4	9
189.5	15
189.6	22
189.7	23
189.8	18
190.0	8
190.1	13
190.2	22
190.3	28
190.4	25
190.5	16
190.7	5
190.8	12
190.9	20
191.0	22
191.1	17
191.3	11
191.4	16
191.5	23
191.6	25
191.7	20
191.8	13
192.0	10
192.1	15
192.2	20
192.3	20
192.4	15
192.6	10
192.7	16
192.8	22
192.9	23
193.0	16
193.2	6
193.3	11
193.4	18
193.5	22
193.6	19
193.9	10
194.0	19
194.1	26
194.2	24
194.3	15
194.5	6
194.6	13
194.7	21
194.8	24
194.9	19
195.0	10
195.2	8
195.3	15
195.4	21
195.5	21
195.6	15
195.8	10
195.9	17
196.0	24
196.1	24
196.2	16
196.5	7
196.6	17
196.7	22
196.8	19
196.9	12
197.1	8
197.2	14
197.3	21
197.4	24
197.5	20
197.6	12
197.8	5
197.9	11
198.0	17
198.1	18
198.4	13
198.5	19
198.6	23
198.7	21
198.8	13
199.0	6
199.1	13
199.2	20
199.3	21
199.4	15
199.6	6
199.7	13
199.8	22
199.9	25
200.0	19
200.1	11
200.3	8
200.4	15
200.5	21
200.6	21
200.7	15
200.9	6
201.0	10
201.1	18
201.2	22
201.3	20
201.4	12
201.6	8
201.7	14
201.8	20
201.9	21
202.0	16
202.2	8
202.3	13
202.4	20
202.5	22
202.6	17
202.8	5
202.9	11
203.0	19
203.1	23
203.2	19
203.3	11
203.5	10
203.6	17
203.7	22
203.8	21
203.9	15
204.1	7
204.2	11
204.3	18
204.4	22
204.5	18
204.6	12
204.8	9
204.9	15
205.0	20
205.1	21
205.2	16
205.4	12
205.5	18
205.6	26
205.7	26
205.8	17
206.0	4
206.1	12
206.2	22
206.3	26
206.4	21
206.5	11
206.7	6
206.8	14
206.9	22
207.0	23
207.1	17
207.3	8
207.4	14
207.5	21
207.6	22
207.7	16
207.9	5
208.0	9
208.1	17
208.2	22
208.3	21
208.4	16
208.6	8
208.7	12
208.8	18
208.9	19
209.0	16
209.2	9
209.3	14
209.4	21
209.5	25
209.6	22
209.7	15
209.9	7
210.0	12
210.1	21
210.2	25
210.3	20
210.4	10
210.6	8
210.7	18
210.8	23
210.9	19
211.2	10
211.3	18
211.4	23
211.5	20
211.6	12
211.8	6
211.9	13
212.0	21
212.1	25
212.2	22
212.3	13
212.5	7
212.6	12
212.7	17
212.8	17
212.9	11
213.1	5
213.2	11
213.3	20
213.4	24
213.5	20
213.6	11
213.8	10
213.9	17
214.0	21
214.1	19
214.2	12
214.4	6
214.5	13
214.6	21
214.7	23
214.8	18
214.9	10
215.1	9
215.2	15
215.3	19
215.4	18
215.6	13
215.7	16
215.8	21
215.9	24
216.0	20
216.1	13
216.3	9
216.4	14
216.5	20
216.6	19
216.7	14
216.9	6
217.0	11
217.1	18
217.2	21
217.3	18
217.4	11
217.6	8
217.7	15
217.8	22
217.9	22
218.0	15
218.2	9
218.3	14
218.4	20
218.5	21
218.6	16
218.8	8
218.9	12
219.0	19
219.1	23
219.2	21
219.3	15
219.5	10
219.6	15
219.7	21
219.8	22
219.9	18
220.2	12
220.3	16
220.4	19
220.5	17
220.7	10
220.8	13
220.9	21
221.0	26
221.1	24
221.2	16
221.4	8
221.5	14
221.6	20
221.7	22
221.8	17
221.9	10
222.1	9
222.2	16
222.3	21
222.4	19
222.5	13
222.7	5
222.8	10
222.9	18
223.0	22
223.1	19
223.3	10
223.4	15
223.5	23
223.6	27
223.7	23
223.8	13
224.0	5
224.1	11
224.2	18
224.3	19
224.4	14
224.6	10
224.7	16
224.8	22
224.9	22
225.0	16
225.3	8
225.4	16
225.5	22
225.6	20
225.7	13
225.9	8
226.0	14
226.1	20
226.2	21
226.3	15
226.5	8
226.6	13
226.7	21
226.8	23
226.9	17
227.0	8
227.2	6
227.3	16
227.4	23
227.5	23
227.6	16
227.8	9
227.9	14
228.0	20
228.1	21
228.2	16
228.4	3
228.5	8
228.6	17
228.7	23
228.8	21
228.9	14
229.1	10
229.2	16
229.3	23
229.4	23
229.5	17
229.8	8
229.9	15
230.0	19
230.1	17
230.4	10
230.5	16
230.6	21
230.7	19
230.8	13
231.0	10
231.1	17
231.2	22
231.3	23
231.4	18
231.7	11
231.8	17
231.9	24
232.0	24
232.1	17
232.3	8
232.4	15
232.5	22
232.6	24
232.7	17
232.9	5
233.0	11
233.1	21
233.2	25
233.3	20
233.5	10
233.6	15
233.7	23
233.8	26
233.9	21
234.0	11
234.2	5
234.3	12
234.4	20
234.5	22
234.6	17
234.9	10
235.0	16
235.1	19
235.2	17
235.5	6
235.6	16
235.7	27
235.8	29
235.9	21
236.0	10
236.2	9
236.3	18
236.4	26
236.5	25
236.6	17
236.8	8
236.9	15
237.0	22
237.1	21
237.2	14
237.4	9
237.5	16
237.6	24
237.7	25
237.8	20
237.9	12
238.1	11
238.2	17
238.3	22
238.4	21
238.5	15
238.7	9
238.8	14
238.9	18
239.0	18
239.1	14
239.3	8
239.4	14
239.5	21
239.6	25
239.7	21
239.8	12
240.0	8
240.1	15
240.2	21
240.3	18
240.4	8
240.6	3
240.7	12
240.8	19
240.9	21
241.0	16
241.2	10
241.3	14
241.4	21
241.5	24
241.6	20
241.7	12
241.9	10
242.0	17
242.1	23
242.2	22
242.3	15
242.5	7
242.6	12
242.7	18
242.8	20
242.9	17
243.2	10
243.3	18
243.4	25
243.5	24
243.6	16
243.8	5
243.9	11
244.0	17
244.1	19
244.2	16
244.4	9
244.5	13
244.6	19
244.7	23
244.8	20
244.9	14
245.1	12
245.2	18
245.3	23
245.4	22
245.5	16
245.7	9
245.8	13
245.9	20
246.0	23
246.1	19
246.2	11
246.4	8
246.5	17
246.6	23
246.7	22
246.8	15
247.0	10
247.1	16
247.2	24
247.3	27
247.4	21
247.5	11
247.7	9
247.8	18
247.9	25
248.0	23
248.1	14
248.3	9
248.4	19
248.5	27
248.6	26
248.7	18
248.9	7
249.0	12
249.1	19
249.2	23
249.3	20
249.4	15
249.6	11
249.7	17
249.8	21
249.9	19
250.0	13
250.2	8
250.3	15
250.4	21
250.5	23
250.6	18
250.9	10
251.0	19
251.1	24
251.2	23
251.3	16
251.5	8
251.6	13
251.7	18
251.8	20
251.9	15
252.1	7
252.2	12
252.3	20
252.4	24
252.5	21
252.6	12
252.8	7
252.9	14
253.0	22
253.1	22
253.2	15
253.4	6
253.5	12
253.6	21
253.7	24
253.8	19
253.9	11
254.1	8
254.2	16
254.3	22
254.4	19
254.5	10
254.7	5
254.8	14
254.9	25
255.0	28
255.1	23
255.2	13
255.4	9
255.5	18
255.6	24
255.7	21
255.8	14
256.0	10
256.1	16
256.2	19
256.3	17
256.4	11
256.6	6
256.7	13
256.8	22
256.9	26
257.0	22
257.1	13
257.3	7
257.4	14
257.5	20
257.6	20
257.7	15
257.9	7
258.0	11
258.1	18
258.2	20
258.3	17
258.5	10
258.6	15
258.7	21
258.8	24
258.9	19
259.0	11
259.2	7
259.3	14
259.4	20
259.5	19
259.6	11
259.8	7
259.9	15
260.0	23
260.1	26
260.2	20
260.3	11
260.5	7
260.6	15
260.7	22
260.8	23
260.9	17
261.1	10
261.2	14
261.3	19
261.4	19
261.5	14
261.7	7
261.8	13
261.9	21
262.0	25
262.1	20
262.2	11
262.4	9
262.5	16
262.6	21
262.7	20
262.8	14
263.0	7
263.1	13
263.2	19
263.3	20
263.4	16
263.7	10
263.8	17
263.9	21
264.0	19
264.1	12
264.3	9
264.4	16
264.5	22
264.6	21
264.7	15
264.9	11
265.0	18
265.1	23
265.2	23
265.3	16
265.5	8
265.6	12
265.7	19
265.8	23
265.9	21
266.0	14
266.2	8
266.3	13
266.4	18
266.5	20
266.6	17
266.9	11
267.0	18
267.1	23
267.2	21
267.3	14
267.5	8
267.6	15
267.7	20
267.8	18
267.9	11
268.1	7
268.2	12
268.3	18
268.4	19
268.5	16
268.7	8
268.8	11
268.9	17
269.0	23
269.1	22
269.2	16
269.4	6
269.5	11
269.6	19
269.7	21
269.8	16
270.1	8
270.2	16
270.3	22
270.4	22
270.5	16
270.7	8
270.8	12
270.9	17
271.0	20
271.1	17
271.3	8
271.4	13
271.5	21
271.6	25
271.7	20
272.0	10
272.1	19
272.2	24
272.3	21
272.4	10
272.6	2
272.7	10
272.8	20
272.9	22
273.0	17
273.3	11
273.4	18
273.5	23
273.6	22
273.7	15
273.9	7
274.0	12
274.1	19
274.2	22
274.3	18
274.5	8
274.6	12
274.7	20
274.8	23
274.9	18
275.0	10
275.2	8
275.3	16
275.4	22
275.5	20
275.6	13
275.8	6
275.9	13
276.0	22
276.1	24
276.2	19
277.1	4
277.2	12
277.3	23
277.4	27
277.5	20
278.4	9
278.5	15
278.6	20
278.7	19
278.8	13
279.0	9
279.1	16
279.2	23
279.3	23
279.4	17
279.7	9
279.8	17
279.9	23
280.0	22
280.1	15
280.3	6
280.4	12
280.5	19
280.6	21
280.7	17
280.9	8
281.0	12
281.1	19
281.2	23
281.3	19
281.4	10
281.6	7
281.7	15
281.8	22
281.9	22
282.0	15
282.2	8
282.3	15
282.4	24
282.5	25
282.6	17
282.8	5
282.9	10
283.0	18
283.1	21
283.2	16
283.5	9
283.6	16
283.7	21
283.8	20
283.9	14
284.1	9
284.2	14
284.3	21
284.4	23
284.5	19
284.6	11
284.8	7
284.9	15
285.0	22
285.1	23
285.2	17
285.4	7
285.5	12
285.6	20
285.7	22
285.8	15
286.0	5
286.1	12
286.2	21
286.3	25
286.4	21
286.5	13
286.7	9
286.8	15
286.9	20
287.0	20
287.1	14
287.3	6
287.4	11
287.5	20
287.6	24
287.7	20
287.8	12
288.0	8
288.1	15
288.2	21
288.3	21
288.4	15
288.6	9
288.7	15
288.8	21
288.9	23
289.0	18
289.2	10
289.3	14
289.4	20
289.5	23
289.6	20
289.7	13
289.9	9
290.0	18
290.1	25
290.2	26
290.3	18
290.5	3
290.6	9
290.7	19
290.8	24
290.9	20
291.0	13
291.2	11
291.3	18
291.4	22
291.5	20
291.6	15
291.8	12
291.9	17
292.0	22
292.1	23
292.2	17
292.5	9
292.6	16
292.7	20
292.8	18
292.9	11
293.1	8
293.2	17
293.3	25
293.4	25
293.5	18
293.8	9
293.9	18
294.0	22
294.1	19
294.2	12
294.4	8
294.5	15
294.6	22
294.7	22
294.8	16
295.0	7
295.1	14
295.2	22
295.3	24
295.4	19
295.5	10
295.7	9
295.8	17
295.9	23
296.0	21
296.1	13
296.3	6
296.4	15
296.5	25
296.6	28
296.7	21
296.8	11
297.0	10
297.1	19
297.2	23
297.3	19
297.4	11
297.6	7
297.7	13
297.8	20
297.9	20
298.0	13
298.2	8
298.3	16
298.4	23
298.5	23
298.6	15
298.8	7
298.9	14
299.0	24
299.1	28
299.2	24
299.3	15
299.5	5
299.6	10
299.7	17
299.8	19
299.9	16
300.1	10
300.2	15
300.3	22
300.4	25
300.5	21
300.6	14
300.8	9
300.9	13
301.0	17
301.1	17
301.2	13
301.4	9
301.5	13
301.6	20
301.7	24
301.8	19
302.0	7
302.1	13
302.2	22
302.3	26
302.4	21
302.5	11
302.7	8
302.8	15
302.9	21
303.0	20
303.1	13
303.3	6
303.4	11
303.5	19
303.6	24
303.7	20
304.0	9
304.1	19
304.2	26
304.3	23
304.4	13
304.6	6
304.7	12
304.8	19
304.9	22
305.0	18
305.2	11
305.3	15
305.4	20
305.5	23
305.6	19
305.7	12
305.9	6
306.0	13
306.1	20
306.2	21
306.3	14
306.5	7
306.6	13
306.7	21
306.8	22
306.9	17
307.2	9
307.3	16
307.4	22
307.5	22
307.6	16
307.9	8
308.0	16
308.1	21
308.2	18
308.5	10
308.6	19
308.7	24
308.8	22
308.9	15
309.1	7
309.2	12
309.3	17
309.4	18
309.5	12
309.7	7
309.8	14
309.9	23
310.0	25
310.1	19
310.2	10
310.4	7
310.5	14
310.6	20
310.7	20
310.8	15
311.0	9
311.1	14
311.2	21
311.3	22
311.4	17
311.6	6
311.7	11
311.8	21
311.9	26
312.0	21
312.1	10
312.3	5
312.4	15
312.5	24
312.6	26
312.7	18
312.9	6
313.0	12
313.1	21
313.2	25
313.3	21
313.4	14
313.6	12
313.7	17
313.8	20
313.9	18
314.2	10
314.3	19
314.4	27
314.5	26
314.6	17
314.8	7
314.9	15
315.0	25
315.1	28
315.2	21
315.3	10
315.5	7
315.6	15
315.7	21
315.8	20
315.9	14
316.1	9
316.2	16
316.3	24
316.4	27
316.5	21
316.6	11
316.8	9
316.9	17
317.0	22
317.1	19
317.2	12
317.4	6
317.5	12
317.6	20
317.7	24
317.8	20
317.9	12
318.1	10
318.2	17
318.3	23
318.4	22
318.5	15
318.7	8
318.8	14
318.9	22
319.0	23
319.1	17
319.3	6
319.4	11
319.5	19
319.6	24
319.7	23
319.8	16
320.0	11
320.1	17
320.2	23
320.3	23
320.4	16
320.6	9
320.7	14
320.8	20
320.9	21
321.0	17
321.3	9
321.4	17
321.5	22
321.6	19
321.7	11
321.9	7
322.0	14
322.1	23
322.2	25
322.3	20
322.4	11
322.6	9
322.7	15
322.8	19
322.9	17
323.2	9
323.3	16
323.4	23
323.5	23
323.6	17
323.8	9
323.9	16
324.0	24
324.1	24
324.2	16
324.3	7
324.5	7
324.6	14
324.7	20
324.8	21
324.9	16
325.1	7
325.2	13
325.3	19
325.4	20
325.5	15
325.7	9
325.8	15
325.9	22
326.0	25
326.1	20
326.4	11
326.5	19
326.6	24
326.7	21
326.8	12
327.0	6
327.1	15
327.2	23
327.3	24
327.4	18
327.6	9
327.7	13
327.8	19
327.9	21
328.0	18
328.3	11
328.4	18
328.5	23
328.6	22
328.7	14
328.9	7
329.0	15
329.1	24
329.2	27
329.3	22
329.4	12
329.6	9
329.7	19
329.8	26
329.9	24
330.0	15
330.2	7
330.3	13
330.4	19
330.5	20
330.6	16
330.8	8
330.9	13
331.0	21
331.1	26
331.2	23
331.3	12
331.5	2
331.6	11
331.7	20
331.8	22
331.9	16
332.1	9
332.2	16
332.3	23
332.4	24
332.5	18
332.8	11
332.9	19
333.0	23
333.1	20
333.2	13
333.4	9
333.5	17
333.6	25
333.7	27
333.8	20
333.9	10
334.1	7
334.2	14
334.3	19
334.4	17
334.5	11
334.7	6
334.8	13
334.9	20
335.0	21
335.1	15
335.3	5
335.4	10
335.5	18
335.6	22
335.7	19
335.8	12
336.0	10
336.1	17
336.2	23
336.3	22
336.4	14
336.6	4
336.7	10
336.8	19
336.9	22
337.0	17
337.3	7
337.4	16
337.5	24
337.6	24
337.7	17
337.9	9
338.0	16
338.1	24
338.2	25
338.3	18
338.6	9
338.7	17
338.8	22
338.9	19
339.0	9
339.2	2
339.3	11
339.4	20
339.5	22
339.6	15
339.8	7
339.9	13
340.0	23
340.1	27
340.2	23
340.3	13
340.5	10
340.6	19
340.7	25
340.8	21
340.9	13
341.1	9
341.2	16
341.3	22
341.4	21
341.5	16
341.7	9
341.8	14
341.9	21
342.0	24
342.1	20
342.4	12
342.5	20
342.6	25
342.7	23
342.8	15
343.0	4
343.1	9
343.2	19
343.3	25
343.4	22
343.5	13
343.7	9
343.8	17
343.9	21
344.0	17
344.2	6
344.3	11
344.4	19
344.5	25
344.6	24
344.7	16
344.9	4
345.0	9
345.1	18
345.2	22
345.3	19
345.6	12
345.7	20
345.8	24
345.9	22
346.0	14
346.2	8
346.3	14
346.4	22
346.5	26
346.6	21
346.7	12
346.9	10
347.0	19
347.1	27
347.2	26
347.3	19
347.5	11
347.6	16
347.7	21
347.8	20
347.9	13
348.1	7
348.2	14
348.3	21
348.4	22
348.5	18
348.8	11
348.9	17
349.0	21
349.1	19
349.2	11
349.4	3
349.5	11
349.6	21
349.7	24
349.8	18
350.1	7
350.2	18
350.3	24
350.4	21
350.5	12
350.7	6
350.8	14
350.9	22
351.0	23
351.1	16
351.3	7
351.4	12
351.5	20
351.6	23
351.7	20
351.8	13
352.0	10
352.1	16
352.2	20
352.3	19
352.4	14
352.6	8
352.7	14
352.8	20
352.9	22
353.0	17
353.2	7
353.3	12
353.4	19
353.5	23
353.6	20
353.7	12
353.9	9
354.0	16
354.1	23
354.2	22
354.3	15
354.5	7
354.6	15
354.7	24
354.8	27
354.9	21
355.0	11
355.2	8
355.3	16
355.4	21
355.5	21
355.6	16
355.8	8
355.9	13
356.0	20
356.1	22
356.2	16
356.4	5
356.5	10
356.6	20
356.7	26
356.8	22
356.9	11
357.1	2
357.2	12
357.3	24
357.4	28
357.5	23
357.6	14
357.8	12
357.9	17
358.0	18
358.1	14
358.3	9
358.4	14
358.5	21
358.6	24
358.7	21
358.8	12
359.0	5
359.1	13
359.2	22
359.3	25
359.4	19
359.6	5
359.7	11
359.8	20
359.9	25
360.0	22
360.1	12
360.3	9
360.4	17
360.5	23
360.6	22
360.7	15
360.9	9
361.0	16
361.1	22
361.2	21
361.3	14
361.5	6
361.6	12
361.7	21
361.8	27
361.9	24
362.0	14
362.2	6
362.3	13
362.4	20
362.5	20
362.6	15
362.9	8
363.0	16
363.1	22
363.2	20
363.3	12
363.5	6
363.6	13
363.7	21
363.8	22
363.9	15
364.1	8
364.2	13
364.3	20
364.4	21
364.5	17
364.6	10
364.8	6
364.9	11
365.0	17
365.1	20
365.2	17
365.5	12
365.6	16
365.7	19
365.8	16
366.1	10
366.2	16
366.3	20
366.4	18
366.5	11
366.7	8
366.8	16
366.9	23
367.0	24
367.1	18
368.0	9
368.1	16
368.2	21
368.3	20
368.4	12
368.6	7
368.7	14
368.8	22
368.9	23
369.0	17
369.3	9
369.4	18
369.5	25
369.6	23
369.7	14
369.9	6
370.0	14
370.1	22
370.2	23
370.3	16
370.5	9
370.6	14
370.7	21
370.8	23
370.9	18
371.1	7
371.2	11
371.3	20
371.4	26
371.5	22
371.6	12
371.8	5
371.9	14
372.0	24
372.1	27
372.2	19
372.3	9
372.5	7
372.6	16
372.7	22
372.8	22
372.9	17
373.1	10
373.2	15
373.3	21
373.4	22
373.5	16
373.7	7
373.8	11
373.9	19
374.0	22
374.1	19
374.2	11
374.4	7
374.5	16
374.6	24
374.7	24
374.8	17
375.0	6
375.1	13
375.2	21
375.3	24
375.4	18
375.5	9
375.7	8
375.8	16
375.9	22
376.0	21
376.1	14
376.3	4
376.4	9
376.5	16
376.6	21
376.7	19
376.9	12
377.0	16
377.1	22
377.2	23
377.3	17
377.6	8
377.7	16
377.8	22
377.9	21
378.0	13
378.2	6
378.3	12
378.4	20
378.5	23
378.6	19
378.7	12
378.9	12
379.0	17
379.1	20
379.2	18
379.3	12
379.5	9
379.6	15
379.7	19
379.8	18
379.9	13
380.1	6
380.2	10
380.3	17
380.4	20
380.5	18
380.7	11
380.8	15
380.9	21
381.0	24
381.1	19
381.2	10
381.4	6
381.5	15
381.6	23
381.7	24
381.8	17
382.0	4
382.1	10
382.2	19
382.3	24
382.4	21
382.5	13
382.7	6
382.8	12
382.9	18
383.0	20
383.1	15
383.3	8
383.4	13
383.5	21
383.6	23
383.7	19
384.0	12
384.1	20
384.2	25
384.3	23
384.4	14
384.6	3
384.7	11
384.8	22
384.9	25
385.0	18
385.3	8
385.4	17
385.5	23
385.6	21
385.7	14
385.9	9
386.0	16
386.1	22
386.2	21
386.3	15
386.5	6
386.6	11
386.7	18
386.8	21
386.9	17
387.2	10
387.3	18
387.4	23
387.5	21
387.6	15
387.8	10
387.9	16
388.0	20
388.1	19
388.2	13
388.4	11
388.5	18
388.6	24
388.7	26
388.8	21
388.9	13
389.1	9
389.2	15
389.3	21
389.4	22
389.5	16
389.7	7
389.8	13
389.9	22
390.0	26
390.1	21
390.2	11
390.4	7
390.5	16
390.6	23
390.7	21
390.8	14
391.0	7
391.1	13
391.2	21
391.3	21
391.4	14
391.6	4
391.7	11
391.8	22
391.9	26
392.0	21
392.1	12
392.3	6
392.4	12
392.5	18
392.6	21
392.7	18
392.8	12
393.0	11
393.1	16
393.2	19
393.3	16
393.6	8
393.7	17
393.8	24
393.9	23
394.0	15
394.2	7
394.3	14
394.4	22
394.5	26
394.6	21
394.7	12
394.9	8
395.0	16
395.1	22
395.2	20
395.3	12
395.5	8
395.6	17
395.7	25
395.8	24
395.9	16
396.1	7
396.2	13
396.3	21
396.4	22
396.5	16
396.7	6
396.8	12
396.9	22
397.0	26
397.1	22
397.2	13
397.4	5
397.5	11
397.6	18
397.7	19
397.8	15
398.0	9
398.1	12
398.2	17
398.3	20
398.4	19
398.5	13
398.7	10
398.8	15
398.9	19
399.0	17
399.3	8
399.4	17
399.5	26
399.6	27
399.7	20
399.8	10
400.6	6
400.7	14
400.8	21
400.9	23
401.0	18
401.3	11
401.4	17
401.5	19
401.6	17
401.7	11
401.9	8
402.0	15
402.1	22
402.2	25
402.3	20
402.6	11
402.7	19
402.8	23
402.9	19
403.0	10
403.2	9
403.3	17
403.4	23
403.5	23
403.6	15
403.8	5
403.9	11
404.0	19
404.1	22
404.2	19
404.4	9
404.5	13
404.6	21
404.7	27
404.8	24
404.9	14
405.1	7
405.2	14
405.3	22
405.4	23
405.5	16
405.7	4
405.8	10
405.9	20
406.0	25
406.1	21
406.2	12
406.4	10
406.5	19
406.6	25
406.7	23
406.8	14
407.0	4
407.1	11
407.2	19
407.3	23
407.4	18
407.6	8
407.7	14
407.8	21
407.9	24
408.0	19
408.3	10
408.4	18
408.5	23
408.6	21
408.7	12
408.9	1
409.0	7
409.1	17
409.2	23
409.3	22
409.4	14
409.6	9
409.7	18
409.8	24
409.9	22
410.0	12
410.2	4
410.3	11
410.4	19
410.5	22
410.6	18
410.9	12
411.0	18
411.1	21
411.2	19
411.3	13
411.5	11
411.6	17
411.7	21
411.8	18
412.1	10
412.2	17
412.3	22
412.4	20
412.5	14
412.7	8
412.8	12
412.9	19
413.0	23
413.1	21
413.2	13
413.4	9
413.5	15
413.6	20
413.7	19
413.8	15
414.0	12
414.1	16
414.2	21
414.3	21
414.4	15
414.7	5
414.8	16
414.9	26
415.0	28
415.1	20
415.3	6
415.4	12
415.5	21
415.6	25
415.7	19
415.8	9
416.0	7
416.1	17
416.2	24
416.3	23
416.4	15
416.6	6
416.7	11
416.8	18
416.9	19
417.0	14
417.3	8
417.4	15
417.5	21
417.6	21
417.7	15
417.9	6
418.0	12
418.1	19
418.2	21
418.3	17
418.5	12
418.6	16
418.7	20
418.8	20
418.9	15
419.1	7
419.2	11
419.3	17
419.4	20
419.5	19
419.6	12
419.8	8
419.9	14
420.0	21
420.1	23
420.2	18
420.5	12
420.6	19
420.7	24
420.8	21
420.9	13
421.1	7
421.2	15
421.3	23
421.4	25
421.5	20
421.6	13
422.4	7
422.5	16
422.6	25
422.7	26
422.8	18
423.0	8
423.1	13
423.2	20
423.3	22
423.4	19
423.7	13
423.8	19
423.9	23
424.0	20
424.1	13
424.3	9
424.4	15
424.5	19
424.6	19
424.7	14
424.9	8
425.0	14
425.1	21
425.2	23
425.3	18
425.6	11
425.7	17
425.8	22
425.9	22
426.0	16
426.2	7
426.3	12
426.4	20
426.5	23
426.6	19
426.9	11
427.0	19
427.1	23
427.2	19
427.3	11
427.5	9
427.6	17
427.7	23
427.8	22
427.9	14
428.1	4
428.2	10
428.3	19
428.4	24
428.5	21
428.6	13
428.8	11
428.9	18
429.0	24
429.1	23
429.2	15
429.4	8
429.5	16
429.6	25
429.7	27
429.8	21
429.9	12
430.1	9
430.2	16
430.3	20
430.4	17
430.6	9
430.7	13
430.8	19
430.9	23
431.0	21
431.1	13
431.3	6
431.4	12
431.5	21
431.6	25
431.7	20
431.8	13
432.0	9
432.1	16
432.2	22
432.3	21
432.4	14
432.6	6
432.7	13
432.8	21
432.9	22
433.0	16
433.2	4
433.3	10
433.4	20
433.5	25
433.6	20
433.7	10
433.9	5
434.0	14
434.1	22
434.2	23
434.3	16
434.5	5
434.6	10
434.7	18
434.8	22
434.9	19
435.0	12
435.2	9
435.3	17
435.4	25
435.5	26
435.6	22
435.7	15
435.9	12
436.0	18
436.1	20
436.2	17
436.5	11
436.6	19
436.7	23
436.8	20
436.9	13
437.1	6
437.2	12
437.3	20
437.4	22
437.5	18
437.7	11
437.8	16
437.9	21
438.0	21
438.1	15
438.3	7
438.4	13
438.5	22
438.6	28
438.7	25
438.8	15
439.0	5
439.1	12
439.2	20
439.3	23
439.4	18
439.6	9
439.7	14
439.8	21
439.9	24
440.0	19
440.1	10
440.3	8
440.4	17
440.5	24
440.6	23
440.7	14
440.9	5
441.0	13
441.1	24
441.2	27
441.3	21
441.4	10
441.6	6
441.7	16
441.8	24
441.9	23
442.0	15
442.2	8
442.3	14
442.4	21
442.5	21
442.6	14
442.8	5
442.9	11
443.0	20
443.1	25
443.2	21
443.3	12
443.5	5
443.6	11
443.7	18
443.8	20
443.9	15
444.1	7
444.2	12
444.3	20
444.4	23
444.5	19
444.7	7
444.8	11
444.9	20
445.0	25
445.1	20
445.2	11
445.4	5
445.5	10
445.6	17
445.7	20
445.8	18
446.0	14
446.1	17
446.2	21
446.3	23
446.4	19
446.5	10
446.7	5
446.8	14
446.9	23
447.0	24
447.1	17
447.4	9
447.5	17
447.6	22
447.7	19
447.8	11
448.0	6
448.1	14
448.2	21
448.3	21
448.4	15
448.6	6
448.7	11
448.8	18
448.9	19
449.0	15
449.2	5
449.3	9
449.4	18
449.5	23
449.6	20
449.7	11
449.9	6
450.0	13
450.1	20
450.2	22
450.3	18
450.6	12
450.7	18
450.8	21
450.9	19
451.2	12
451.3	19
451.4	25
451.5	24
451.6	15
451.8	7
451.9	14
452.0	21
452.1	22
452.2	16
452.5	10
452.6	17
452.7	22
452.8	19
452.9	12
453.1	7
453.2	14
453.3	22
453.4	24
453.5	19
454.4	10
454.5	18
454.6	23
454.7	21
454.8	12
455.0	6
455.1	15
455.2	25
455.3	27
455.4	19
455.5	8
455.7	8
455.8	18
455.9	23
456.0	20
456.1	11
456.3	10
456.4	18
456.5	24
456.6	23
456.7	17
456.9	11
457.0	17
457.1	23
457.2	23
457.3	17
457.5	8
457.6	12
457.7	19
457.8	22
457.9	18
458.2	11
458.3	19
458.4	23
458.5	21
458.6	13
458.8	3
458.9	8
459.0	16
459.1	21
459.2	19
459.3	13
459.5	8
459.6	16
459.7	24
459.8	25
459.9	18
460.0	8
460.2	7
460.3	17
460.4	24
460.5	21
460.6	12
460.8	5
460.9	12
461.0	18
461.1	18
461.2	12
461.4	5
461.5	13
461.6	24
461.7	28
461.8	23
461.9	13
462.1	10
462.2	17
462.3	20
462.4	17
462.5	10
462.7	8
462.8	16
462.9	22
463.0	22
463.1	18
463.3	12
463.4	16
463.5	21
463.6	25
463.7	23
463.8	17
464.0	10
464.1	14
464.2	19
464.3	20
464.4	17
464.6	11
464.7	15
464.8	20
464.9	20
465.0	16
465.3	10
465.4	17
465.5	24
465.6	23
465.7	16
465.9	9
466.0	16
466.1	22
466.2	23
466.3	17
466.5	10
466.6	16
466.7	26
466.8	31
466.9	28
467.0	19
467.1	10
467.3	7
467.4	10
467.5	10
467.7	3
467.8	6
467.9	15
468.0	24
468.1	27
468.2	22
468.3	13
468.5	10
468.6	16
468.7	20
468.8	19
468.9	13
469.1	7
469.2	13
469.3	22
469.4	25
469.5	21
470.4	11
470.5	17
470.6	20
470.7	18
470.8	13
471.0	11
471.1	16
471.2	21
471.3	21
471.4	15
471.6	5
471.7	11
471.8	20
471.9	23
472.0	18
472.1	10
472.3	7
472.4	14
472.5	20
472.6	20
472.7	14
472.9	8
473.0	14
473.1	20
473.2	21
473.3	14
473.5	4
473.6	11
473.7	21
473.8	26
473.9	22
474.0	13
474.2	5
474.3	10
474.4	17
474.5	19
474.6	13
474.8	2
474.9	7
475.0	17
475.1	24
475.2	21
475.3	13
475.5	8
475.6	16
475.7	23
475.8	23
475.9	17
476.1	9
476.2	13
476.3	18
476.4	20
476.5	16
476.7	7
476.8	11
476.9	19
477.0	25
477.1	23
477.2	15
477.4	6
477.5	13
477.6	20
477.7	21
477.8	15
478.0	4
478.1	11
478.2	21
478.3	27
478.4	22
478.5	13
478.7	10
478.8	17
478.9	22
479.0	21
479.1	15
479.3	6
479.4	11
479.5	19
479.6	23
479.7	20
479.8	14
480.0	11
480.1	17
480.2	21
480.3	20
480.4	13
480.6	9
480.7	16
480.8	25
480.9	27
481.0	22
481.1	13
481.3	7
481.4	15
481.5	22
481.6	22
481.7	15
481.9	7
482.0	14
482.1	22
482.2	24
482.3	19
483.2	8
483.3	17
483.4	23
483.5	21
483.6	14
483.8	8
483.9	15
484.0	21
484.1	23
484.2	18
484.5	11
484.6	19
484.7	24
484.8	21
484.9	13
485.1	7
485.2	15
485.3	23
485.4	24
485.5	19
485.7	13
485.8	18
485.9	23
486.0	22
486.1	14
486.3	5
486.4	12
486.5	20
486.6	24
486.7	20
486.8	11
487.0	5
487.1	13
487.2	22
487.3	25
487.4	19
487.5	10
487.7	8
487.8	16
487.9	23
488.0	22
488.1	14
488.3	8
488.4	14
488.5	20
488.6	21
488.7	16
488.9	10
489.0	13
489.1	17
489.2	20
489.3	18
489.6	12
489.7	18
489.8	22
489.9	20
490.0	14
490.2	6
490.3	12
490.4	19
490.5	23
490.6	19
490.9	9
491.0	19
491.1	27
491.2	24
491.3	14
491.5	6
491.6	13
491.7	21
491.8	22
491.9	17
492.1	8
492.2	12
492.3	20
492.4	24
492.5	21
492.6	13
492.8	7
492.9	15
493.0	25
493.1	27
493.2	20
494.0	3
494.1	8
494.2	18
494.3	25
494.4	23
494.5	15
494.7	6
494.8	15
494.9	25
495.0	28
495.1	21
495.2	11
495.4	9
495.5	16
495.6	20
495.7	18
495.8	12
496.0	9
496.1	16
496.2	23
496.3	23
496.4	15
496.6	4
496.7	11
496.8	21
496.9	24
497.0	20
497.2	11
497.3	16
497.4	24
497.5	27
497.6	21
497.7	11
497.9	7
498.0	15
498.1	23
498.2	26
498.3	21
499.2	8
499.3	14
499.4	21
499.5	22
499.6	16
499.8	8
499.9	13
500.0	20
500.1	22
500.2	16
500.5	7
500.6	16
500.7	24
500.8	23
500.9	16
501.1	6
501.2	12
501.3	19
501.4	20
501.5	13
501.7	5
501.8	13
501.9	21
502.0	23
502.1	16
502.4	7
502.5	17
502.6	24
502.7	24
502.8	17
503.0	12
503.1	17
503.2	22
503.3	21
503.4	14
503.6	4
503.7	8
503.8	15
503.9	20
504.0	20
504.1	15
504.3	11
504.4	17
504.5	22
504.6	22
504.7	16
504.9	7
505.0	12
505.1	20
505.2	23
505.3	18
505.4	9
505.6	7
505.7	16
505.8	24
505.9	25
506.0	18
506.2	7
506.3	14
506.4	22
506.5	24
506.6	18
506.9	9
507.0	18
507.1	24
507.2	20
507.3	12
507.5	8
507.6	15
507.7	22
507.8	24
507.9	20
508.0	14
508.2	13
508.3	18
508.4	21
508.5	19
508.6	13
508.8	12
508.9	18
509.0	21
509.1	19
509.2	12
509.4	7
509.5	14
509.6	22
509.7	25
509.8	20
510.1	12
510.2	19
510.3	23
510.4	20
510.5	13
510.7	10
510.8	16
510.9	21
511.0	21
511.1	15
511.3	5
511.4	10
511.5	18
511.6	23
511.7	20
511.8	12
512.0	7
512.1	13
512.2	19
512.3	20
512.4	16
512.6	11
512.7	16
512.8	23
512.9	24
513.0	17
513.3	10
513.4	18
513.5	23
513.6	23
513.7	18
513.9	11
514.0	14
514.1	19
514.2	20
514.3	15
514.5	5
514.6	12
514.7	21
514.8	26
514.9	20
515.0	11
515.2	9
515.3	17
515.4	21
515.5	18
515.6	11
515.8	9
515.9	16
516.0	24
516.1	25
516.2	19
516.3	11
516.5	10
516.6	16
516.7	20
516.8	18
517.0	10
517.1	13
517.2	21
517.3	25
517.4	20
517.5	10
517.7	1
517.8	8
517.9	17
518.0	22
518.1	20
518.2	14
518.4	10
518.5	16
518.6	20
518.7	20
518.8	14
519.0	8
519.1	13
519.2	20
519.3	23
519.4	18
519.6	9
519.7	15
519.8	23
519.9	27
520.0	22
520.1	11
520.3	7
520.4	15
520.5	20
520.6	19
520.7	14
520.9	11
521.0	16
521.1	21
521.2	22
521.3	17
521.6	10
521.7	17
521.8	21
521.9	20
522.0	14
522.2	11
522.3	16
522.4	21
522.5	21
522.6	15
522.8	7
522.9	11
523.0	16
523.1	17
523.2	12
523.4	4
523.5	10
523.6	19
523.7	25
523.8	22
523.9	14
524.1	7
524.2	14
524.3	22
524.4	25
524.5	21
524.6	13
524.8	11
524.9	19
525.0	23
525.1	20
525.2	12
525.4	4
525.5	11
525.6	21
525.7	25
525.8	20
525.9	12
526.1	11
526.2	17
526.3	20
526.4	17
526.5	12
526.7	11
526.8	16
526.9	22
527.0	21
527.1	14
527.3	6
527.4	12
527.5	20
527.6	22
527.7	17
527.8	8
528.0	6
528.1	14
528.2	21
528.3	21
528.4	16
528.6	12
528.7	16
528.8	20
528.9	18
529.0	12
529.2	2
529.3	7
529.4	16
529.5	23
529.6	22
529.7	15
529.9	12
530.0	18
530.1	22
530.2	19
530.3	11
530.5	5
530.6	15
530.7	26
530.8	28
530.9	20
531.0	9
531.2	5
531.3	12
531.4	18
531.5	20
531.6	17
531.8	14
531.9	18
532.0	21
532.1	21
532.2	16
532.3	9
532.5	7
532.6	13
532.7	18
532.8	18
532.9	14
533.1	10
533.2	16
533.3	22
533.4	23
533.5	17
533.6	8
533.8	7
533.9	14
534.0	19
534.1	18
534.4	10
534.5	17
534.6	22
534.7	20
534.8	15
535.0	10
535.1	14
535.2	19
535.3	21
535.4	17
535.6	9
535.7	13
535.8	21
535.9	25
536.0	20
536.1	10
536.3	4
536.4	12
536.5	19
536.6	20
536.7	14
536.9	7
537.0	13
537.1	21
537.2	23
537.3	18
537.4	9
537.6	7
537.7	17
537.8	24
537.9	23
538.0	15
538.2	8
538.3	14
538.4	20
538.5	22
538.6	19
538.9	14
539.0	18
539.1	20
539.2	20
539.3	15
539.5	9
539.6	13
539.7	18
539.8	21
539.9	17
540.1	10
540.2	15
540.3	20
540.4	21
540.5	16
540.7	8
540.8	13
540.9	21
541.0	25
541.1	21
541.2	13
541.4	10
541.5	15
541.6	20
541.7	18
541.8	13
542.0	7
542.1	12
542.2	18
542.3	21
542.4	17
542.5	9
542.7	7
542.8	15
542.9	23
543.0	24
543.1	18
543.3	5
543.4	10
543.5	20
543.6	25
543.7	21
543.8	13
544.0	12
544.1	18
544.2	21
544.3	17
544.4	9
544.6	6
544.7	14
544.8	22
544.9	23
545.0	18
545.3	11
545.4	17
545.5	22
545.6	22
545.7	16
545.9	7
546.0	13
546.1	20
546.2	21
546.3	16
546.5	10
546.6	15
546.7	20
546.8	19
546.9	13
547.1	9
547.2	13
547.3	17
547.4	20
547.5	17
547.8	9
547.9	17
548.0	24
548.1	24
548.2	18
548.5	10
548.6	18
548.7	24
548.8	24
548.9	18
549.1	11
549.2	15
549.3	19
549.4	18
549.5	12
549.7	7
549.8	15
549.9	23
550.0	26
550.1	19
550.4	10
550.5	19
550.6	26
550.7	26
550.8	19
551.6	9
551.7	12
551.8	18
551.9	21
552.0	19
552.1	12
552.3	6
552.4	11
552.5	19
552.6	23
552.7	20
552.8	13
553.0	11
553.1	17
553.2	21
553.3	19
553.4	12
553.6	6
553.7	15
553.8	24
553.9	25
554.0	17
554.2	8
554.3	16
554.4	24
554.5	26
554.6	19
554.7	10
554.9	9
555.0	17
555.1	24
555.2	23
555.3	16
556.2	7
556.3	13
556.4	18
556.5	18
556.6	13
556.8	5
556.9	10
557.0	17
557.1	19
557.2	14
557.4	8
557.5	13
557.6	20
557.7	22
557.8	16
558.0	2
558.1	7
558.2	18
558.3	25
558.4	23
558.5	16
559.3	9
559.4	14
559.5	20
559.6	22
559.7	17
559.8	10
560.0	8
560.1	15
560.2	22
560.3	23
560.4	18
560.6	10
560.7	14
560.8	20
560.9	22
561.0	19
561.3	12
561.4	19
561.5	23
561.6	21
561.7	13
561.9	9
562.0	17
562.1	23
562.2	22
562.3	15
562.5	8
562.6	15
562.7	23
562.8	25
562.9	20
563.2	10
563.3	19
563.4	26
563.5	24
563.6	16
563.8	6
563.9	11
564.0	18
564.1	21
564.2	19
564.3	13
564.5	11
564.6	16
564.7	20
564.8	19
564.9	13
565.1	9
565.2	16
565.3	23
565.4	25
565.5	19
565.7	8
565.8	13
565.9	21
566.0	25
566.1	20
566.2	11
566.4	8
566.5	18
566.6	24
566.7	22
566.8	15
567.0	8
567.1	13
567.2	19
567.3	22
567.4	19
567.5	12
567.7	10
567.8	16
567.9	21
568.0	19
568.3	11
568.4	20
568.5	26
568.6	23
568.7	14
568.9	5
569.0	10
569.1	17
569.2	20
569.3	16
569.5	6
569.6	10
569.7	18
569.8	25
569.9	25
570.0	17
570.3	8
570.4	16
570.5	20
570.6	17
570.9	11
571.0	16
571.1	18
571.2	18
571.4	13
571.5	15
571.6	20
571.7	24
571.8	24
571.9	17
572.2	6
572.3	16
572.4	22
572.5	20
572.6	13
572.8	11
572.9	19
573.0	24
573.1	22
573.2	14
573.4	6
573.5	12
573.6	20
573.7	22
573.8	18
574.1	10
574.2	17
574.3	22
574.4	20
574.5	12
574.7	10
574.8	19
574.9	26
575.0	24
575.1	16
575.3	10
575.4	16
575.5	23
575.6	23
575.7	18
576.0	11
576.1	18
576.2	22
576.3	21
576.4	15
576.6	10
576.7	14
576.8	19
576.9	22
577.0	19
577.3	10
577.4	20
577.5	27
577.6	26
577.7	17
577.9	8
578.0	13
578.1	20
578.2	22
578.3	18
578.5	11
578.6	15
578.7	21
578.8	23
578.9	18
579.2	9
579.3	17
579.4	23
579.5	21
579.6	13
579.8	6
579.9	13
580.0	23
580.1	28
580.2	23
580.3	12
580.5	5
580.6	15
580.7	23
580.8	22
580.9	13
581.1	8
581.2	18
581.3	26
581.4	24
581.5	15
581.7	6
581.8	13
581.9	21
582.0	22
582.1	17
582.3	10
582.4	13
582.5	19
582.6	22
582.7	19
582.8	11
583.0	3
583.1	11
583.2	19
583.3	22
583.4	17
583.7	9
583.8	17
583.9	21
584.0	19
584.1	11
584.3	7
584.4	14
584.5	19
584.6	19
584.7	13
584.9	7
585.0	12
585.1	19
585.2	21
585.3	17
585.5	10
585.6	15
585.7	21
585.8	23
585.9	17
586.0	9
586.2	9
586.3	16
586.4	21
586.5	20
586.6	14
586.8	5
586.9	9
587.0	17
587.1	23
587.2	21
587.3	14
587.5	7
587.6	13
587.7	21
587.8	24
587.9	18
588.2	11
588.3	18
588.4	21
588.5	19
588.6	13
588.8	11
588.9	15
589.0	18
589.1	16
589.4	8
589.5	16
589.6	23
589.7	22
589.8	14
590.0	2
590.1	7
590.2	18
590.3	26
590.4	25
590.5	16
590.7	8
590.8	14
590.9	21
591.0	21
591.1	14
591.3	7
591.4	14
591.5	22
591.6	24
591.7	19
591.9	11
592.0	17
592.1	24
592.2	25
592.3	18
592.4	7
592.6	3
592.7	11
592.8	19
592.9	22
593.0	19
593.2	10
593.3	14
593.4	21
593.5	24
593.6	20
593.7	11
593.9	9
594.0	18
594.1	25
594.2	23
594.3	15
594.5	7
594.6	14
594.7	22
594.8	25
594.9	20
595.0	12
595.2	9
595.3	16
595.4	23
595.5	23
595.6	16
595.8	4
595.9	10
596.0	18
596.1	22
596.2	19
596.3	13
596.5	11
596.6	15
596.7	18
596.8	18
596.9	14
597.1	11
597.2	14
597.3	19
597.4	21
597.5	17
597.7	10
597.8	15
597.9	22
598.0	23
598.1	18
598.2	11
598.4	11
598.5	16
598.6	18
598.7	16
599.0	11
599.1	17
599.2	24
599.3	24
599.4	17
