Mass spectrum: Diphyllin; LC-ESI-QQQ; MS2; Frag=135.0V CID@25.0; [M+H]+
Name: Diphyllin
Class: Lignans
Formula: C21H16O7
Exact mass: 380.3575
SMILES: COc1cc2c(O)c3c(c(-c4ccc5c(c4)OCO5)c2cc1OC)C(=O)OC3
InChI: InChI=1S/C21H16O7/c1-24-15-6-11-12(7-16(15)25-2)20(22)13-8-26-21(23)19(13)18(11)10-3-4-14-17(5-10)28-9-27-14/h3-7,22H,8-9H2,1-2H3
Instrument: Agilent 6410 Triple Quadrupole LC/MS system
Instrument type: LC-ESI-QQQ
Ms type: MS2
Ion mode: POSITIVE
Precursor type: [M+H]+
m/z	relative intensity
262.7	1
262.8	3
262.9	4
263.0	5
263.1	5
263.2	5
263.3	4
276.5	4
276.6	5
276.7	8
276.8	14
276.9	21
277.0	27
277.1	30
277.2	28
277.3	24
277.4	17
277.5	9
277.6	3
278.7	3
278.8	5
278.9	8
279.0	10
279.1	11
279.2	11
279.3	10
279.4	7
279.5	4
279.6	1
290.6	1
290.7	3
290.8	6
290.9	9
291.0	11
291.1	12
291.2	12
291.3	9
291.4	5
291.5	2
304.3	2
304.4	3
304.5	6
304.6	11
304.7	19
304.8	30
304.9	43
305.0	54
305.1	61
305.2	63
305.3	56
305.4	40
305.5	20
305.6	4
306.6	1
306.7	3
306.8	6
306.9	10
307.0	13
307.1	13
307.2	12
307.3	10
307.4	7
307.5	4
308.7	3
308.8	4
308.9	6
309.0	7
309.1	9
309.2	10
309.3	9
309.4	7
309.5	3
318.5	2
318.6	3
318.7	5
318.8	8
318.9	11
319.0	12
319.1	13
319.2	12
319.3	9
319.4	5
319.5	2
332.1	2
332.2	3
332.3	5
332.4	7
332.5	10
332.6	15
332.7	25
332.8	45
332.9	70
333.0	90
333.1	99
333.2	97
333.3	83
333.4	58
333.5	29
333.6	6
333.7	0
334.6	2
334.7	4
334.8	8
334.9	13
335.0	17
335.1	18
335.2	18
335.3	15
335.4	11
335.5	5
335.6	1
336.5	3
336.6	4
336.7	5
336.8	10
336.9	16
337.0	22
337.1	26
337.2	27
337.3	25
337.4	20
337.5	12
337.6	3
350.6	3
350.7	4
350.8	9
350.9	14
351.0	19
351.1	21
351.2	21
351.3	18
351.4	13
351.5	6
351.6	1
362.4	2
362.5	3
362.6	5
362.7	9
362.8	15
362.9	21
363.0	26
363.1	31
363.2	33
363.3	31
363.4	22
363.5	9
363.6	1
380.4	2
380.5	3
380.6	4
380.7	5
380.8	7
380.9	11
381.0	17
381.1	21
381.2	21
381.3	16
381.4	10
381.5	4
381.6	1
