Mass spectrum: 3-Dimethylaminoacetyl-5-methoxyindole; LC-ESI-QQQ; MS2; Frag=135.0V CID@10.0; [M+H]+
Name: 3-Dimethylaminoacetyl-5-methoxyindole
Class: Alkaloids
Formula: C13H16N2O2
Exact mass: 232.2847
SMILES: COc1ccc2[nH]cc(C(=O)CN(C)C)c2c1
InChI: InChI=1S/C13H16N2O2/c1-15(2)8-13(16)11-7-14-12-5-4-9(17-3)6-10(11)12/h4-7,14H,8H2,1-3H3
Instrument: Agilent 6410 Triple Quadrupole LC/MS system
Instrument type: LC-ESI-QQQ
Ms type: MS2
Ion mode: POSITIVE
Precursor type: [M+H]+
m/z	relative intensity
57.2	0
57.3	1
57.4	4
57.5	11
57.6	21
57.7	37
57.8	57
57.9	78
58.0	93
58.1	99
58.2	96
58.3	83
58.4	60
58.5	33
58.6	10
58.7	0
232.5	0
232.6	2
232.7	4
232.8	7
232.9	11
233.0	15
233.1	18
233.2	18
233.3	17
233.4	14
233.5	9
233.6	4
233.7	0
