Mass spectrum: evodiamine; LC-ESI-QQQ; MS2; Frag=135.0V CID@25.0; [M+H]+
Name: evodiamine
Class: Alkaloids
Formula: C19H17N3O
Exact mass: 303.3668
SMILES: CN1c2ccccc2C(=O)N2CCc3c([nH]c4ccccc34)[C@H]21
InChI: InChI=1S/C19H17N3O/c1-21-16-9-5-3-7-14(16)19(23)22-11-10-13-12-6-2-4-8-15(12)20-17(13)18(21)22/h2-9,18,20H,10-11H2,1H3/t18-/m0/s1
Instrument: Agilent 6410 Triple Quadrupole LC/MS system
Instrument type: LC-ESI-QQQ
Ms type: MS2
Ion mode: POSITIVE
Precursor type: [M+H]+
m/z	relative intensity
90.6	1
90.7	2
90.8	4
90.9	6
91.0	7
91.1	7
91.2	6
91.3	5
91.4	4
91.5	2
105.5	1
105.6	2
105.7	4
105.8	7
105.9	9
106.0	10
106.1	10
106.2	10
106.3	8
106.4	5
106.5	2
115.5	1
115.6	2
115.7	5
115.8	8
115.9	10
116.0	12
116.1	12
116.2	11
116.3	9
116.4	6
116.5	3
116.6	1
133.2	0
133.3	2
133.4	6
133.5	14
133.6	27
133.7	43
133.8	62
133.9	79
134.0	93
134.1	99
134.2	95
134.3	80
134.4	55
134.5	27
134.6	6
134.7	0
143.5	1
143.6	3
143.7	6
143.8	11
143.9	15
144.0	18
144.1	20
144.2	20
144.3	18
144.4	14
144.5	9
144.6	3
160.4	1
160.5	3
160.6	6
160.7	10
160.8	16
160.9	22
161.0	27
161.1	29
161.2	27
161.3	22
161.4	15
161.5	7
161.6	2
170.4	1
170.5	3
170.6	6
170.7	12
170.8	20
170.9	28
171.0	35
171.1	39
171.2	40
171.3	37
171.4	30
171.5	18
171.6	6
171.7	0
