Mass spectrum: Vinervine; LC-ESI-QQQ; MS2; Frag=135.0V CID@15.0 ; [M+H]+
Name: Vinervine
Class: Alkaloids
Formula: C20H22N2O3
Exact mass: 338.40994
SMILES: C/C=C1\CN2CCC34C(=C(C(=O)OC)[C@H]1C[C@@H]23)Nc1c(O)cccc14
InChI: InChI=1S/C20H22N2O3/c1-3-11-10-22-8-7-20-13-5-4-6-14(23)17(13)21-18(20)16(19(24)25-2)12(11)9-15(20)22/h3-6,12,15,21,23H,7-10H2,1-2H3/b11-3+/t12-,15+,20?/m0/s1
Instrument: Agilent 6410 Triple Quadrupole LC/MS system
Instrument type: LC-ESI-QQQ
Ms type: MS2
Ion mode: POSITIVE
Precursor type: [M+H]+
m/z	relative intensity
306.4	0
306.5	3
306.6	9
306.7	17
306.8	29
306.9	46
307.0	66
307.1	85
307.2	98
307.3	99
307.4	86
307.5	59
307.6	28
307.7	5
307.8	0
338.5	1
338.6	3
338.7	5
338.8	9
338.9	16
339.0	25
339.1	33
339.2	38
339.3	40
339.4	36
339.5	25
339.6	12
339.7	2
