Mass spectrum: Napelline; LC-ESI-QQQ; MS2; Frag=135.0V CID@10.0 ; [M+H]+
Name: Napelline
Class: Alkaloids
Formula: C22H33NO3
Exact mass: 359.5132100000001
SMILES: C=C1[C@@H]2C[C@]3(C(C[C@@H]2O)[C@]24C5C[C@H]3[C@H]2N(CC)C[C@]5(C)CC[C@@H]4O)[C@@H]1O
InChI: InChI=1S/C22H33NO3/c1-4-23-10-20(3)6-5-17(25)22-15(20)7-13(18(22)23)21-9-12(11(2)19(21)26)14(24)8-16(21)22/h12-19,24-26H,2,4-10H2,1,3H3/t12-,13-,14-,15?,16?,17-,18+,19+,20-,21-,22-/m0/s1
Instrument: Agilent 6410 Triple Quadrupole LC/MS system
Instrument type: LC-ESI-QQQ
Ms type: MS2
Ion mode: POSITIVE
Precursor type: [M+H]+
m/z	relative intensity
359.4	1
359.5	3
359.6	6
359.7	11
359.8	20
359.9	36
360.0	57
360.1	78
360.2	94
360.3	99
360.4	95
360.5	79
360.6	52
360.7	24
360.8	4
