Mass spectrum: Anthranoyllycoctonine; LC-ESI-QQQ; MS2; Frag=135.0V CID@25.0; [M+H]+
Name: Anthranoyllycoctonine
Class: Alkaloids
Formula: C32H46N2O8
Exact mass: 586.732
SMILES: CCN1C[C@]2(COC(=O)c3ccccc3N)CC[C@H](OC)C34C5C[C@@H]6[C@@H](OC)C[C@@](O)(C5[C@H]6OC)C(O)([C@@H](OC)C32)[C@@H]14
InChI: InChI=1S/C32H46N2O8/c1-6-34-15-29(16-42-27(35)17-9-7-8-10-20(17)33)12-11-22(39-3)31-19-13-18-21(38-2)14-30(36,23(19)24(18)40-4)32(37,28(31)34)26(41-5)25(29)31/h7-10,18-19,21-26,28,36-37H,6,11-16,33H2,1-5H3/t18-,19?,21+,22+,23?,24+,25?,26+,28+,29+,30-,31?,32?/m1/s1
Instrument: Agilent 6410 Triple Quadrupole LC/MS system
Instrument type: LC-ESI-QQQ
Ms type: MS2
Ion mode: POSITIVE
Precursor type: [M+H]+
m/z	relative intensity
586.3	0
586.4	2
586.5	5
586.6	9
586.7	15
586.8	23
586.9	36
587.0	53
587.1	72
587.2	88
587.3	98
587.4	99
587.5	89
587.6	65
587.7	36
587.8	11
587.9	0
