Mass spectrum: 9(11)-dehydrohecogenin; LC-ESI-QQQ; MS2; Frag=135.0V CID@5.0 ; [M+H]+
Name: 9(11)-dehydrohecogenin
Class: Steroids
Formula: C27H40O4
Exact mass: 428.61745
SMILES: CC1CC[C@@]2(OC1)OC1CC3C4CC[C@H]5CC(O)CC[C@]5(C)C4=CC(=O)[C@]3(C)C1[C@@H]2C
InChI: InChI=1S/C27H40O4/c1-15-7-10-27(30-14-15)16(2)24-22(31-27)12-21-19-6-5-17-11-18(28)8-9-25(17,3)20(19)13-23(29)26(21,24)4/h13,15-19,21-22,24,28H,5-12,14H2,1-4H3/t15?,16-,17-,18?,19?,21?,22?,24?,25-,26+,27+/m0/s1
Instrument: Agilent 6410 Triple Quadrupole LC/MS system
Instrument type: LC-ESI-QQQ
Ms type: MS2
Ion mode: POSITIVE
Precursor type: [M+H]+
m/z	relative intensity
428.4	0
428.5	3
428.6	6
428.7	12
428.8	22
428.9	38
429.0	59
429.1	79
429.2	93
429.3	99
429.4	96
429.5	82
429.6	58
429.7	29
429.8	6
429.9	0
