Mass spectrum: Linichlorin A; LC-ESI-QQQ; MS2; Frag=135.0V CID@10.0; [M+H]+
Name: Linichlorin A
Class: Terpenoids
Formula: C19H23ClO6
Exact mass: 382.8446
SMILES: C=C(C)C(=O)O[C@H]1CC(=C)C2C[C@@H](O)[C@@](O)(CCl)C2[C@H]2OC(=O)C(=C)C12
InChI: InChI=1S/C19H23ClO6/c1-8(2)17(22)25-12-5-9(3)11-6-13(21)19(24,7-20)15(11)16-14(12)10(4)18(23)26-16/h11-16,21,24H,1,3-7H2,2H3/t11?,12-,13+,14?,15?,16-,19-/m0/s1
Instrument: Agilent 6410 Triple Quadrupole LC/MS system
Instrument type: LC-ESI-QQQ
Ms type: MS2
Ion mode: POSITIVE
Precursor type: [M+H]+
m/z	relative intensity
68.5	1
68.6	3
68.7	7
68.8	12
68.9	17
69.0	21
69.1	20
69.2	16
69.3	10
69.4	6
69.5	3
128.6	0
128.7	2
128.8	4
128.9	4
129.0	4
129.1	4
129.2	3
129.3	3
129.4	2
129.5	0
129.6	0
129.7	0
129.8	0
129.9	0
130.0	0
130.1	0
130.2	0
130.3	0
130.4	0
130.5	0
130.6	0
130.7	0
130.8	1
130.9	2
131.0	3
131.1	3
131.2	2
131.3	1
131.4	1
131.5	0
131.6	0
131.7	0
131.8	0
131.9	0
132.0	0
132.1	0
132.2	0
132.3	0
132.4	0
132.5	0
132.6	0
132.7	0
132.8	0
132.9	0
133.0	0
133.1	0
133.2	0
133.3	0
133.4	0
133.5	0
133.6	0
133.7	0
133.8	0
133.9	0
134.0	0
134.1	0
134.2	0
134.3	0
134.4	0
134.5	0
134.6	0
134.7	0
134.8	0
134.9	0
135.0	0
135.1	0
135.2	0
135.3	0
135.4	0
135.5	0
135.6	0
135.7	0
135.8	0
135.9	0
136.0	0
136.1	0
136.2	0
136.3	0
136.4	0
136.5	0
136.6	0
136.7	0
136.8	0
136.9	0
137.0	0
137.1	1
137.2	1
137.3	0
137.4	0
137.5	0
137.6	0
137.7	0
137.8	0
137.9	0
138.0	0
138.1	0
138.2	0
138.3	0
138.4	0
138.5	0
138.6	0
138.7	0
138.8	0
138.9	0
139.0	0
139.1	0
139.2	0
139.3	0
139.4	0
139.5	0
139.6	0
139.7	0
139.8	0
139.9	0
140.0	0
140.1	0
140.2	0
140.3	0
140.4	1
140.5	2
140.6	3
140.7	5
140.8	7
140.9	8
141.0	8
141.1	8
141.2	7
141.3	5
141.4	3
142.7	0
142.8	2
142.9	4
143.0	5
143.1	4
143.2	3
146.6	1
146.7	3
146.8	6
146.9	8
147.0	9
147.1	9
147.2	7
147.3	5
147.4	3
154.6	1
154.7	2
154.8	5
154.9	8
155.0	11
155.1	13
155.2	12
155.3	8
155.4	4
156.6	1
156.7	4
156.8	7
156.9	10
157.0	10
157.1	8
157.2	6
157.3	5
157.4	4
157.5	3
158.7	1
158.8	3
158.9	5
159.0	8
159.1	9
159.2	8
159.3	6
159.4	3
164.5	0
164.6	1
164.7	4
164.8	7
164.9	9
165.0	9
165.1	8
165.2	7
165.3	5
165.4	2
168.5	4
168.6	5
168.7	7
168.8	11
168.9	17
169.0	22
169.1	24
169.2	25
169.3	23
169.4	20
169.5	13
169.6	6
169.7	0
178.8	5
178.9	7
179.0	10
179.1	13
179.2	14
179.3	11
179.4	7
179.5	2
180.6	2
180.7	4
180.8	7
180.9	10
181.0	12
181.1	11
181.2	10
181.3	8
181.4	6
181.5	3
182.2	0
182.3	1
182.4	4
182.5	8
182.6	12
182.7	16
182.8	22
182.9	28
183.0	34
183.1	37
183.2	34
183.3	26
183.4	14
183.5	4
184.6	4
184.7	6
184.8	8
184.9	9
185.0	11
185.1	13
185.2	16
185.3	15
185.4	11
185.5	5
185.6	1
186.6	1
186.7	4
186.8	7
186.9	10
187.0	11
187.1	12
187.2	11
187.3	9
187.4	6
187.5	3
188.5	1
188.6	4
188.7	9
188.8	16
188.9	22
189.0	24
189.1	24
189.2	22
189.3	18
189.4	11
189.5	5
189.6	1
196.5	0
196.6	1
196.7	5
196.8	12
196.9	21
197.0	26
197.1	28
197.2	27
197.3	22
197.4	16
197.5	8
197.6	2
200.8	1
200.9	3
201.0	6
201.1	7
201.2	7
201.3	5
201.4	3
202.8	2
202.9	3
203.0	6
203.1	7
203.2	6
203.3	4
204.8	1
204.9	4
205.0	7
205.1	9
205.2	7
205.3	4
205.4	2
206.5	2
206.6	4
206.7	7
206.8	11
206.9	14
207.0	16
207.1	18
207.2	18
207.3	14
207.4	7
207.5	1
214.3	2
214.4	3
214.5	4
214.6	5
214.7	7
214.8	11
214.9	16
215.0	20
215.1	23
215.2	24
215.3	21
215.4	14
215.5	6
215.6	1
224.5	0
224.6	2
224.7	5
224.8	11
224.9	18
225.0	23
225.1	25
225.2	24
225.3	19
225.4	12
225.5	4
232.2	0
232.3	2
232.4	4
232.5	6
232.6	10
232.7	15
232.8	22
232.9	31
233.0	37
233.1	42
233.2	42
233.3	35
233.4	21
233.5	7
233.6	0
242.6	1
242.7	4
242.8	9
242.9	16
243.0	25
243.1	33
243.2	35
243.3	31
243.4	20
243.5	8
243.6	0
250.6	0
250.7	3
250.8	6
250.9	8
251.0	10
251.1	12
251.2	13
251.3	11
251.4	7
251.5	2
260.3	1
260.4	3
260.5	5
260.6	6
260.7	9
260.8	17
260.9	28
261.0	37
261.1	40
261.2	37
261.3	28
261.4	15
261.5	5
261.6	0
268.6	0
268.7	3
268.8	7
268.9	11
269.0	11
269.1	10
269.2	8
269.3	6
269.4	3
278.2	2
278.3	4
278.4	7
278.5	9
278.6	13
278.7	22
278.8	39
278.9	61
279.0	82
279.1	95
279.2	99
279.3	89
279.4	61
279.5	27
279.6	2
296.3	2
296.4	3
296.5	4
296.6	6
296.7	10
296.8	18
296.9	28
297.0	35
297.1	38
297.2	36
297.3	28
297.4	17
297.5	7
297.6	0
364.6	1
364.7	3
364.8	5
364.9	6
365.0	6
365.1	5
365.2	5
365.3	5
365.4	4
365.5	2
382.6	2
382.7	3
382.8	6
382.9	9
383.0	12
383.1	13
383.2	11
383.3	7
383.4	3
