Mass spectrum: Badrakemin acetate; LC-ESI-QQQ; MS2; Frag=135.0V CID@10.0; [M+Na]+
Name: Badrakemin acetate
Class: Benzopyranoids
Formula: C26H32O5
Exact mass: 424.5419
SMILES: C=C1CC[C@@H]2C(C)(C)[C@@H](OC(C)=O)CC[C@@]2(C)[C@@H]1COc1ccc2ccc(=O)oc2c1
InChI: InChI=1S/C26H32O5/c1-16-6-10-22-25(3,4)23(30-17(2)27)12-13-26(22,5)20(16)15-29-19-9-7-18-8-11-24(28)31-21(18)14-19/h7-9,11,14,20,22-23H,1,6,10,12-13,15H2,2-5H3/t20-,22-,23+,26+/m1/s1
Instrument: Agilent 6410 Triple Quadrupole LC/MS system
Instrument type: LC-ESI-QQQ
Ms type: MS2
Ion mode: POSITIVE
Precursor type: [M+Na]+
m/z	relative intensity
386.6	1
386.7	3
386.8	5
386.9	7
387.0	9
387.1	10
387.2	10
387.3	8
387.4	5
387.5	2
446.2	0
446.3	1
446.4	4
446.5	10
446.6	17
446.7	28
446.8	44
446.9	64
447.0	83
447.1	95
447.2	99
447.3	96
447.4	82
447.5	57
447.6	29
447.7	6
447.8	0
