Mass spectrum: Austricin; LC-ESI-QQQ; MS2; Frag=135.0V CID@25.0; [M+H]+
Name: Austricin
Class: Terpenoids
Formula: C15H18O4
Exact mass: 262.3083
SMILES: CC1=CC(=O)C2=C(C)C[C@H](O)C3[C@H](C)C(=O)O[C@@H]3C12
InChI: InChI=1S/C15H18O4/c1-6-4-10(17)13-8(3)15(18)19-14(13)12-7(2)5-9(16)11(6)12/h5,8,10,12-14,17H,4H2,1-3H3/t8-,10-,12?,13?,14+/m0/s1
Instrument: Agilent 6410 Triple Quadrupole LC/MS system
Instrument type: LC-ESI-QQQ
Ms type: MS2
Ion mode: POSITIVE
Precursor type: [M+H]+
m/z	relative intensity
54.6	3
54.7	5
54.8	6
54.9	8
55.0	9
55.1	8
55.2	6
55.3	3
66.6	2
66.7	4
66.8	7
66.9	9
67.0	10
67.1	9
67.2	8
67.3	5
67.4	3
68.1	1
68.2	2
68.3	5
68.4	8
68.5	13
68.6	22
68.7	38
68.8	60
68.9	82
69.0	96
69.1	97
69.2	87
69.3	67
69.4	42
69.5	17
69.6	1
70.4	1
70.5	3
70.6	6
70.7	10
70.8	15
70.9	19
71.0	21
71.1	21
71.2	18
71.3	12
71.4	6
71.5	2
78.7	2
78.8	3
78.9	5
79.0	6
79.1	6
79.2	5
79.3	3
80.6	1
80.7	2
80.8	4
80.9	5
81.0	5
81.1	5
81.2	5
81.3	5
81.4	4
81.5	2
82.6	1
82.7	3
82.8	4
82.9	6
83.0	6
83.1	6
83.2	5
83.3	3
90.5	1
90.6	3
90.7	5
90.8	8
90.9	9
91.0	11
91.1	11
91.2	10
91.3	7
91.4	3
92.5	2
92.6	3
92.7	6
92.8	10
92.9	12
93.0	14
93.1	15
93.2	14
93.3	11
93.4	6
93.5	3
94.5	2
94.6	3
94.7	5
94.8	6
94.9	8
95.0	10
95.1	11
95.2	11
95.3	10
95.4	6
95.5	2
104.4	1
104.5	3
104.6	5
104.7	8
104.8	12
104.9	16
105.0	20
105.1	22
105.2	21
105.3	16
105.4	9
105.5	3
106.7	3
106.8	4
106.9	6
107.0	7
107.1	8
107.2	8
107.3	6
107.4	3
108.6	2
108.7	4
108.8	7
108.9	9
109.0	10
109.1	11
109.2	11
109.3	9
109.4	5
109.5	1
118.3	2
118.4	3
118.5	5
118.6	8
118.7	12
118.8	20
118.9	28
119.0	35
119.1	37
119.2	34
119.3	27
119.4	17
119.5	7
119.6	1
120.4	1
120.5	2
120.6	5
120.7	8
120.8	11
120.9	13
121.0	14
121.1	14
121.2	12
121.3	8
121.4	4
122.7	3
122.8	6
122.9	9
123.0	10
123.1	10
123.2	9
123.3	6
123.4	3
127.6	2
127.7	4
127.8	8
127.9	11
128.0	14
128.1	16
128.2	17
128.3	15
128.4	9
128.7	5
128.8	9
128.9	13
129.0	14
129.1	15
129.2	14
129.3	11
129.4	6
129.5	2
130.6	2
130.7	3
130.8	5
130.9	7
131.0	7
131.1	8
131.2	7
131.3	6
131.4	4
131.5	1
132.6	3
132.7	6
132.8	11
132.9	17
133.0	22
133.1	24
133.2	23
133.3	17
133.4	10
133.5	3
134.6	1
134.7	2
134.8	4
134.9	8
135.0	10
135.1	10
135.2	7
135.3	4
136.5	2
136.6	3
136.7	5
136.8	8
136.9	11
137.0	16
137.1	19
137.2	19
137.3	14
137.4	8
137.5	2
142.5	2
142.6	5
142.7	12
142.8	20
142.9	26
143.0	27
143.1	24
143.2	21
143.3	16
143.4	11
143.5	5
144.6	2
144.7	3
144.8	5
144.9	8
145.0	9
145.1	9
145.2	8
145.3	6
145.4	3
146.3	4
146.4	7
146.5	10
146.6	13
146.7	18
146.8	29
146.9	42
147.0	52
147.1	55
147.2	51
147.3	41
147.4	29
147.5	16
147.6	5
147.7	0
154.7	2
154.8	4
154.9	5
155.0	6
155.1	5
155.2	5
155.3	5
155.4	5
155.5	4
155.6	5
155.7	7
155.8	12
155.9	18
156.0	22
156.1	23
156.2	20
156.3	15
156.4	11
156.8	8
156.9	11
157.0	16
157.1	20
157.2	22
157.3	19
157.4	13
157.5	6
157.8	2
157.9	4
158.0	6
158.1	6
158.2	5
158.3	3
158.7	3
158.8	5
158.9	8
159.0	10
159.1	11
159.2	11
159.3	10
159.4	7
160.4	3
160.5	6
160.6	10
160.7	15
160.8	20
160.9	25
161.0	31
161.1	34
161.2	33
161.3	27
161.4	20
161.5	12
161.6	5
161.7	0
164.7	3
164.8	4
164.9	6
165.0	8
165.1	9
165.2	9
165.3	6
165.4	4
165.8	2
165.9	4
166.0	5
166.1	5
166.2	5
166.3	4
166.4	2
168.6	2
168.7	4
168.8	6
168.9	8
169.0	9
169.1	7
169.2	6
169.3	4
170.2	2
170.3	4
170.4	8
170.5	13
170.6	21
170.7	33
170.8	51
170.9	71
171.0	89
171.1	99
171.2	99
171.3	90
171.4	70
171.5	43
171.6	20
171.8	19
171.9	33
172.0	44
172.1	47
172.2	46
172.3	41
172.4	32
172.5	19
172.6	6
174.6	3
174.7	6
174.8	9
174.9	13
175.0	15
175.1	15
175.2	13
175.3	11
175.4	7
175.5	3
183.5	4
183.6	6
183.7	9
183.8	15
183.9	21
184.0	27
184.1	30
184.2	31
184.3	26
184.4	16
184.5	6
184.6	0
188.5	2
188.6	4
188.7	5
188.8	7
188.9	10
189.0	13
189.1	16
189.2	18
189.3	17
189.4	14
189.5	10
189.6	4
189.7	0
198.3	1
198.4	2
198.5	4
198.6	6
198.7	11
198.8	17
198.9	24
199.0	28
199.1	30
199.2	28
199.3	24
199.4	17
199.5	9
199.6	2
216.6	2
216.7	3
216.8	4
216.9	6
217.0	7
217.1	8
217.2	7
217.3	6
217.4	5
217.5	3
