Mass spectrum: Smilagenin ((3beta,5beta,25R)-form); LC-ESI-QQQ; MS2; Frag=135.0V CID@5.0 ; [M+H]+
Name: Smilagenin ((3beta,5beta,25R)-form)
Class: Steroids
Formula: C27H44O3
Exact mass: 416.64993000000004
SMILES: C[C@H]1C2C(CC3C4CCC5CC(O)CC[C@]5(C)C4CC[C@@]32C)O[C@]12CC[C@@H](C)CO2
InChI: InChI=1S/C27H44O3/c1-16-7-12-27(29-15-16)17(2)24-23(30-27)14-22-20-6-5-18-13-19(28)8-10-25(18,3)21(20)9-11-26(22,24)4/h16-24,28H,5-15H2,1-4H3/t16-,17+,18?,19?,20?,21?,22?,23?,24?,25+,26+,27-/m1/s1
Instrument: Agilent 6410 Triple Quadrupole LC/MS system
Instrument type: LC-ESI-QQQ
Ms type: MS2
Ion mode: POSITIVE
Precursor type: [M+H]+
m/z	relative intensity
272.7	1
272.8	3
272.9	5
273.0	9
273.1	11
273.2	13
273.3	12
273.4	10
273.5	6
273.6	3
416.5	1
416.6	3
416.7	7
416.8	16
416.9	30
417.0	50
417.1	71
417.2	88
417.3	99
417.4	99
417.5	86
417.6	61
417.7	31
417.8	8
417.9	0
