Mass spectrum: Ecdysterone 22-O-benzoate; LC-ESI-QQQ; MS2; Frag=135.0V CID@10.0; [M+HCOO]-
Name: Ecdysterone 22-O-benzoate
Class: Steroids
Formula: C34H48O8
Exact mass: 584.7569
SMILES: CC(C)(O)CC[C@H](OC(=O)c1ccccc1)[C@](C)(O)C1CC[C@@]2(O)C3=CC(=O)C4CC(O)C(O)C[C@]4(C)C3CC[C@]12C
InChI: InChI=1S/C34H48O8/c1-30(2,39)14-13-28(42-29(38)20-9-7-6-8-10-20)33(5,40)27-12-16-34(41)22-17-24(35)23-18-25(36)26(37)19-31(23,3)21(22)11-15-32(27,34)4/h6-10,17,21,23,25-28,36-37,39-41H,11-16,18-19H2,1-5H3/t21?,23?,25?,26?,27?,28-,31+,32+,33+,34+/m0/s1
Instrument: Agilent 6410 Triple Quadrupole LC/MS system
Instrument type: LC-ESI-QQQ
Ms type: MS2
Ion mode: NEGATIVE
Precursor type: [M+HCOO]-
m/z	relative intensity
120.2	0
120.3	0
120.4	3
120.5	6
120.6	9
120.7	13
120.8	18
120.9	23
121.0	26
121.1	24
121.2	17
121.3	9
121.4	2
582.4	1
582.5	2
582.6	3
582.7	3
582.8	4
582.9	5
583.0	5
583.1	5
583.2	5
583.3	5
583.4	4
583.5	3
583.6	2
628.2	0
628.3	0
628.4	3
628.5	13
628.6	28
628.7	41
628.8	49
628.9	54
629.0	63
629.1	77
629.2	90
629.3	99
629.4	99
629.5	89
629.6	66
629.7	36
629.8	9
629.9	0
