Mass spectrum: taxifolin; LC-ESI-QQQ; MS2; Frag=135.0V CID@15.0; [M+H]+
Name: Dihydro-Quer
Name: Taxifolin
Name: (2R,3R)-3,3',4',5,7-Pentahydroxyflavanone
Name: trans-Dihydroquercetin
Name: Distylin
Name: Taxifoliol
Name: Catechin
Name: taxifolin
Class: Flavonoids
Formula: C15H12O7
Exact mass: 304.2587
SMILES: O=C1c2c(O)cc(O)cc2OC(c2ccc(O)c(O)c2)C1O
InChI: InChI=1S/C15H12O7/c16-7-4-10(19)12-11(5-7)22-15(14(21)13(12)20)6-1-2-8(17)9(18)3-6/h1-5,14-19,21H
Instrument: Agilent 6410 Triple Quadrupole LC/MS system
Instrument type: LC-ESI-QQQ
Ms type: MS2
Ion mode: POSITIVE
Precursor type: [M+H]+
m/z	relative intensity
122.3	0
122.4	3
122.5	7
122.6	11
122.7	16
122.8	22
122.9	30
123.0	38
123.1	40
123.2	38
123.3	31
123.4	22
123.5	11
123.6	3
148.2	0
148.3	1
148.4	4
148.5	9
148.6	18
148.7	31
148.8	48
148.9	64
149.0	72
149.1	73
149.2	68
149.3	56
149.4	37
149.5	17
149.6	3
152.2	0
152.3	2
152.4	7
152.5	14
152.6	25
152.7	40
152.8	60
152.9	80
153.0	95
153.1	99
153.2	94
153.3	80
153.4	57
153.5	29
153.6	6
153.7	0
160.6	1
160.7	4
160.8	6
160.9	8
161.0	7
161.1	6
161.2	6
161.3	6
161.4	4
161.5	1
166.4	1
166.5	2
166.6	4
166.7	6
166.8	10
166.9	13
167.0	15
167.1	15
167.2	14
167.3	11
167.4	7
167.5	2
194.4	0
194.5	2
194.6	4
194.7	9
194.8	15
194.9	19
195.0	21
195.1	20
195.2	19
195.3	15
195.4	9
195.5	3
230.3	1
230.4	3
230.5	8
230.6	15
230.7	24
230.8	35
230.9	46
231.0	56
231.1	61
231.2	59
231.3	50
231.4	35
231.5	17
231.6	4
240.6	0
240.7	2
240.8	5
240.9	8
241.0	10
241.1	10
241.2	8
241.3	6
241.4	3
258.3	2
258.4	3
258.5	6
258.6	13
258.7	25
258.8	41
258.9	57
259.0	67
259.1	70
259.2	65
259.3	51
259.4	31
259.5	12
259.6	1
286.5	1
286.6	3
286.7	4
286.8	7
286.9	10
287.0	13
287.1	15
287.2	15
287.3	12
287.4	7
287.5	2
