Mass spectrum: 4-Methylaconitane-1,8,14,16-tetrol, (1alpha,14alpha,16beta)-form, O16-Me, N-Et, tri-Ac; LC-ESI-QQQ; MS2; Frag=135.0V CID@25.0; [M+H]+
Name: 4-Methylaconitane-1,8,14,16-tetrol, (1alpha,14alpha,16beta)-form, O16-Me, N-Et, tri-Ac
Class: Alkaloids
Formula: C28H41NO7
Exact mass: 503.6415
SMILES: CCN1C[C@]2(C)CC[C@H](OC(C)=O)[C@@]34C5C[C@@H]6[C@@H](OC)C[C@@](OC(C)=O)(C5[C@H]6OC(C)=O)[C@@H](CC32)C14
InChI: InChI=1S/C28H41NO7/c1-7-29-13-26(5)9-8-22(34-14(2)30)28-18-10-17-20(33-6)12-27(36-16(4)32,19(25(28)29)11-21(26)28)23(18)24(17)35-15(3)31/h17-25H,7-13H2,1-6H3/t17-,18?,19+,20+,21?,22+,23?,24+,25?,26+,27+,28-/m1/s1
Instrument: Agilent 6410 Triple Quadrupole LC/MS system
Instrument type: LC-ESI-QQQ
Ms type: MS2
Ion mode: POSITIVE
Precursor type: [M+H]+
m/z	relative intensity
383.3	0
383.4	1
383.5	4
383.6	9
383.7	16
383.8	28
383.9	44
384.0	65
384.1	86
384.2	99
384.3	99
384.4	89
384.5	70
384.6	43
384.7	17
384.8	1
443.4	1
443.5	3
443.6	6
443.7	13
443.8	23
443.9	39
444.0	55
444.1	69
444.2	77
444.3	81
444.4	78
444.5	66
444.6	46
444.7	22
444.8	4
444.9	0
503.4	1
503.5	4
503.6	8
503.7	14
503.8	25
503.9	39
504.0	57
504.1	72
504.2	84
504.3	89
504.4	88
504.5	75
504.6	51
504.7	24
504.8	3
