Mass spectrum: Lambertianic acid; LC-ESI-QQQ; MS2; Frag=135.0V CID@25.0; [M+H]+
Name: Lambertianic acid
Class: Polycyclic aromatic natural products
Formula: C20H28O3
Exact mass: 316.4444
SMILES: C=C1CCC2[C@@](C)(C(=O)O)CCC[C@]2(C)[C@H]1CCc1ccoc1
InChI: InChI=1S/C20H28O3/c1-14-5-8-17-19(2,10-4-11-20(17,3)18(21)22)16(14)7-6-15-9-12-23-13-15/h9,12-13,16-17H,1,4-8,10-11H2,2-3H3,(H,21,22)/t16-,17?,19+,20-/m0/s1
Instrument: Agilent 6410 Triple Quadrupole LC/MS system
Instrument type: LC-ESI-QQQ
Ms type: MS2
Ion mode: POSITIVE
Precursor type: [M+H]+
m/z	relative intensity
54.4	1
54.5	3
54.6	5
54.7	6
54.8	6
54.9	5
55.0	6
55.1	7
55.2	6
55.3	4
55.4	2
56.6	1
56.7	3
56.8	6
56.9	8
57.0	8
57.1	6
57.2	2
60.5	1
60.6	2
60.7	4
60.8	5
60.9	4
61.0	4
61.1	3
61.2	3
61.3	2
61.4	1
61.5	1
61.6	0
61.7	0
61.8	0
61.9	0
62.0	0
62.1	0
62.2	0
62.3	0
62.4	0
62.5	0
62.6	0
62.7	0
62.8	0
62.9	0
63.0	1
63.1	0
63.2	0
63.3	0
63.4	0
63.5	1
63.6	1
63.7	1
63.8	1
63.9	1
64.0	1
64.1	1
64.2	1
64.3	0
64.4	0
64.5	0
64.6	1
64.7	1
64.8	1
64.9	1
65.0	1
65.1	1
65.2	1
65.3	1
65.4	0
65.5	0
65.6	0
65.7	0
65.8	1
65.9	1
66.0	1
66.1	1
66.2	0
66.3	0
66.4	0
66.5	2
66.6	5
66.7	7
66.8	9
66.9	11
67.0	15
67.1	20
67.2	19
67.3	12
67.4	4
68.7	1
68.8	3
68.9	5
69.0	7
69.1	9
69.2	10
69.3	9
69.4	6
69.5	2
78.4	1
78.5	2
78.6	7
78.7	16
78.8	26
78.9	30
79.0	27
79.1	19
79.2	12
79.3	6
79.4	3
80.2	0
80.3	1
80.4	5
80.5	12
80.6	21
80.7	35
80.8	52
80.9	72
81.0	90
81.1	99
81.2	96
81.3	78
81.4	48
81.5	19
81.6	1
82.5	1
82.6	4
82.7	7
82.8	8
82.9	8
83.0	6
83.1	5
83.2	3
90.4	1
90.5	2
90.6	6
90.7	10
90.8	13
90.9	14
91.0	14
91.1	13
91.2	12
91.3	9
91.4	5
91.5	2
92.3	1
92.4	3
92.5	8
92.6	16
92.7	23
92.8	27
92.9	25
93.0	23
93.1	24
93.2	26
93.3	26
93.4	20
93.5	10
93.6	2
94.2	0
94.3	2
94.4	9
94.5	19
94.6	27
94.7	40
94.8	61
94.9	82
95.0	91
95.1	86
95.2	74
95.3	59
95.4	40
95.5	20
95.6	4
96.8	2
96.9	4
97.0	8
97.1	11
97.2	9
97.3	4
97.4	1
104.3	1
104.4	2
104.5	4
104.6	8
104.7	12
104.8	16
104.9	16
105.0	14
105.1	14
105.2	14
105.3	12
105.4	7
105.5	2
106.3	1
106.4	2
106.5	4
106.6	10
106.7	18
106.8	25
106.9	30
107.0	37
107.1	46
107.2	50
107.3	44
107.4	28
107.5	10
107.6	0
108.4	1
108.5	4
108.6	7
108.7	11
108.8	15
108.9	19
109.0	22
109.1	23
109.2	21
109.3	17
109.4	10
109.5	3
116.6	1
116.7	3
116.8	8
116.9	14
117.0	18
117.1	18
117.2	15
117.3	10
117.4	5
117.5	2
118.3	1
118.4	3
118.5	8
118.6	11
118.7	12
118.8	14
118.9	20
119.0	25
119.1	25
119.2	20
119.3	14
119.4	8
119.5	3
120.2	1
120.3	3
120.4	6
120.5	9
120.6	16
120.7	23
120.8	29
120.9	34
121.0	41
121.1	48
121.2	49
121.3	39
121.4	22
121.5	6
121.6	0
122.4	1
122.5	2
122.6	4
122.7	7
122.8	8
122.9	9
123.0	8
123.1	6
123.2	4
128.7	1
128.8	2
128.9	4
129.0	5
129.1	6
129.2	6
129.3	6
129.4	4
130.5	2
130.6	5
130.7	11
130.8	16
130.9	18
131.0	17
131.1	15
131.2	15
131.3	13
131.4	8
131.5	4
132.4	1
132.5	2
132.6	6
132.7	11
132.8	16
132.9	20
133.0	22
133.1	24
133.2	26
133.3	24
133.4	17
133.5	7
133.6	1
134.3	1
134.4	3
134.5	8
134.6	18
134.7	34
134.8	52
134.9	65
135.0	69
135.1	68
135.2	68
135.3	67
135.4	55
135.5	33
135.6	9
135.7	0
137.0	4
137.1	5
137.2	7
137.3	8
137.4	7
137.5	4
137.6	2
139.0	2
139.1	4
139.2	6
139.3	6
139.4	4
142.5	2
142.6	4
142.7	7
142.8	13
142.9	17
143.0	18
143.1	14
143.2	9
143.3	5
144.4	0
144.5	3
144.6	10
144.7	18
144.8	26
144.9	32
145.0	35
145.1	35
145.2	33
145.3	27
145.4	18
145.5	8
145.6	2
146.3	1
146.4	2
146.5	4
146.6	6
146.7	9
146.8	13
146.9	16
147.0	15
147.1	11
147.2	8
148.3	3
148.4	7
148.5	12
148.6	18
148.7	24
148.8	34
148.9	48
149.0	63
149.1	72
149.2	74
149.3	71
149.4	61
149.5	41
149.6	17
149.7	1
150.7	1
150.8	3
150.9	4
151.0	5
151.1	5
151.2	5
151.3	4
151.4	2
154.5	1
154.6	3
154.7	5
154.8	7
154.9	7
155.0	7
155.1	6
155.2	4
156.8	5
156.9	7
157.0	11
157.1	15
157.2	16
157.3	12
157.4	6
157.5	1
158.3	2
158.4	3
158.5	4
158.6	6
158.7	10
158.8	14
158.9	18
159.0	21
159.1	22
159.2	19
159.3	14
159.4	8
159.5	3
160.5	0
160.6	3
160.7	7
160.8	13
160.9	18
161.0	18
161.1	16
161.2	15
161.3	14
161.4	12
161.5	7
161.6	2
162.6	2
162.7	3
162.8	6
162.9	11
163.0	18
163.1	23
163.2	21
163.3	13
163.4	5
163.5	1
166.9	1
167.0	2
167.1	5
167.2	7
167.3	7
167.4	4
170.6	0
170.7	1
170.8	6
170.9	14
171.0	22
171.1	24
171.2	20
171.3	15
171.4	10
171.5	6
171.6	2
172.5	1
172.6	3
172.7	5
172.8	8
172.9	11
173.0	13
173.1	12
173.2	10
173.3	9
173.4	7
173.5	5
173.6	1
174.5	2
174.6	3
174.7	5
174.8	7
174.9	9
175.0	10
175.1	10
175.2	10
175.3	8
175.4	5
175.5	2
176.3	1
176.4	3
176.5	5
176.6	6
176.7	9
176.8	16
176.9	26
177.0	36
177.1	48
177.2	55
177.3	51
177.4	35
177.5	16
177.6	3
182.6	5
182.7	6
182.8	8
182.9	11
183.0	15
183.1	17
183.2	15
183.3	10
183.4	4
184.7	3
184.8	5
184.9	8
185.0	11
185.1	11
185.2	9
185.3	6
185.4	5
185.5	3
188.5	1
188.6	2
188.7	4
188.8	8
188.9	13
189.0	17
189.1	17
189.2	14
189.3	13
189.4	12
189.5	10
189.6	5
189.7	1
196.5	1
196.6	3
196.7	7
196.8	11
196.9	11
197.0	10
197.1	11
197.2	13
197.3	15
197.4	12
197.5	6
197.6	2
198.6	1
198.7	3
198.8	5
198.9	6
199.0	4
199.1	3
199.2	3
199.3	3
199.4	3
199.5	3
199.6	2
199.7	1
199.8	0
199.9	0
200.0	0
200.1	0
200.2	1
200.3	1
200.4	1
200.5	0
200.6	0
200.7	0
200.8	1
200.9	5
201.0	11
201.1	14
201.2	14
201.3	12
201.4	8
201.5	5
201.6	2
210.9	2
211.0	4
211.1	7
211.2	9
211.3	7
211.4	4
214.7	1
214.8	3
214.9	4
215.0	5
215.1	4
215.2	3
215.3	2
215.4	2
215.5	2
215.6	1
215.7	1
215.8	0
215.9	0
216.0	0
216.1	0
216.2	0
216.3	0
216.4	0
216.5	0
216.6	0
216.7	0
216.8	0
216.9	1
217.0	1
217.1	1
217.2	1
217.3	1
217.4	1
217.5	0
217.6	0
217.7	0
217.8	0
217.9	1
218.0	1
218.1	0
218.2	0
218.3	0
218.4	0
218.5	0
218.6	0
218.7	0
218.8	0
218.9	1
219.0	1
219.1	1
219.2	1
219.3	1
219.4	1
219.5	1
219.6	1
219.7	1
219.8	0
219.9	0
220.0	0
220.1	0
220.2	0
220.3	0
220.4	1
220.5	0
220.6	0
220.7	0
220.8	1
220.9	1
221.0	1
221.1	1
221.2	1
221.3	0
221.4	0
221.5	0
221.6	0
221.7	1
221.8	0
221.9	0
222.0	0
222.1	0
222.2	0
222.3	0
222.4	0
222.5	0
222.6	1
222.7	1
222.8	2
222.9	3
223.0	2
223.1	1
223.2	1
223.3	0
223.4	0
223.5	1
223.6	1
223.7	1
223.8	0
223.9	0
224.0	0
224.1	0
224.2	0
224.3	0
224.4	1
224.5	1
224.6	1
224.7	1
224.8	1
224.9	1
225.0	2
225.1	4
225.2	4
225.3	4
225.4	3
226.8	0
226.9	2
227.0	6
227.1	9
227.2	9
227.3	6
227.4	2
252.5	1
252.6	3
252.7	5
252.8	8
252.9	10
253.0	12
253.1	15
253.2	20
253.3	22
253.4	19
253.5	12
253.6	4
270.5	1
270.6	2
270.7	4
270.8	5
270.9	4
271.0	5
271.1	11
271.2	19
271.3	23
271.4	20
271.5	11
271.6	3
316.8	2
316.9	4
317.0	7
317.1	9
317.2	10
317.3	9
317.4	5
317.5	2
