Mass spectrum: Perfamine; LC-ESI-QQQ; MS2; Frag=135.0V CID@5.0; [M+H]+
Name: Perfamine
Class: Alkaloids
Formula: C18H19NO4
Exact mass: 313.3564
SMILES: COc1c2c(nc3occc13)C(CC=C(C)C)(OC)C(=O)C=C2
InChI: InChI=1S/C18H19NO4/c1-11(2)7-9-18(22-4)14(20)6-5-12-15(21-3)13-8-10-23-17(13)19-16(12)18/h5-8,10H,9H2,1-4H3
Instrument: Agilent 6410 Triple Quadrupole LC/MS system
Instrument type: LC-ESI-QQQ
Ms type: MS2
Ion mode: POSITIVE
Precursor type: [M+H]+
m/z	relative intensity
245.2	0
245.3	2
245.4	5
245.5	10
245.6	18
245.7	32
245.8	51
245.9	73
246.0	90
246.1	99
246.2	98
246.3	85
246.4	60
246.5	31
246.6	7
246.7	0
313.4	1
313.5	2
313.6	5
313.7	10
313.8	18
313.9	29
314.0	39
314.1	46
314.2	48
314.3	44
314.4	35
314.5	21
314.6	8
314.7	0
