Mass spectrum: Narcotine; LC-ESI-QQQ; MS2; Frag=135.0V CID@25.0; [M+H]+
Name: Narcotine
Class: Alkaloids
Formula: C22H23NO7
Exact mass: 413.4311
SMILES: COc1ccc2c(c1OC)C(=O)O[C@H]2[C@H]1c2c(cc3c(c2OC)OCO3)CCN1C
InChI: InChI=1S/C22H23NO7/c1-23-8-7-11-9-14-20(29-10-28-14)21(27-4)15(11)17(23)18-12-5-6-13(25-2)19(26-3)16(12)22(24)30-18/h5-6,9,17-18H,7-8,10H2,1-4H3/t17-,18-/m1/s1
Instrument: Agilent 6410 Triple Quadrupole LC/MS system
Instrument type: LC-ESI-QQQ
Ms type: MS2
Ion mode: POSITIVE
Precursor type: [M+H]+
m/z	relative intensity
178.7	2
178.8	4
178.9	6
179.0	7
179.1	7
179.2	7
179.3	6
179.4	4
179.5	2
219.2	2
219.3	3
219.4	6
219.5	9
219.6	16
219.7	27
219.8	46
219.9	69
220.0	89
220.1	99
220.2	98
220.3	85
220.4	63
220.5	37
220.6	14
220.7	1
352.6	2
352.7	4
352.8	8
352.9	13
353.0	17
353.1	19
353.2	19
353.3	16
353.4	12
353.5	6
353.6	1
