Mass spectrum: Demecolcine; LC-ESI-QQQ; MS2; Frag=135.0V CID@25.0; [M+H]+
Name: Demecolcine
Class: Alkaloids
Formula: C21H25NO5
Exact mass: 371.4371
SMILES: CN[C@H]1CCc2cc(OC)c(OC)c(OC)c2-c2ccc(OC)c(=O)cc21
InChI: InChI=1S/C21H25NO5/c1-22-15-8-6-12-10-18(25-3)20(26-4)21(27-5)19(12)13-7-9-17(24-2)16(23)11-14(13)15/h7,9-11,15,22H,6,8H2,1-5H3/t15-/m0/s1
Instrument: Agilent 6410 Triple Quadrupole LC/MS system
Instrument type: LC-ESI-QQQ
Ms type: MS2
Ion mode: POSITIVE
Precursor type: [M+H]+
m/z	relative intensity
55.6	2
55.7	4
55.8	6
55.9	8
56.0	10
56.1	10
56.2	9
56.3	7
56.4	5
56.5	2
69.6	2
69.7	4
69.8	6
69.9	8
70.0	11
70.1	12
70.2	12
70.3	10
70.4	7
70.5	3
71.4	2
71.5	3
71.6	6
71.7	10
71.8	15
71.9	20
72.0	23
72.1	23
72.2	21
72.3	16
72.4	11
72.5	5
72.6	0
180.6	1
180.7	3
180.8	5
180.9	7
181.0	8
181.1	9
181.2	9
181.3	8
181.4	5
181.5	2
234.7	2
234.8	4
234.9	5
235.0	6
235.1	5
235.2	4
235.3	4
238.7	2
238.8	3
238.9	5
239.0	6
239.1	7
239.2	7
239.3	6
239.4	4
239.8	3
239.9	5
240.0	6
240.1	7
240.2	7
240.3	6
240.7	3
240.8	5
240.9	7
241.0	8
241.1	9
241.2	8
241.3	6
241.4	4
248.8	2
248.9	4
249.0	5
249.1	6
249.2	7
249.3	6
249.4	5
249.8	3
249.9	5
250.0	7
250.1	8
250.2	8
250.3	7
250.4	5
250.7	3
250.8	6
250.9	10
251.0	14
251.1	15
251.2	13
251.3	10
251.4	7
251.8	4
251.9	5
252.0	6
252.1	7
252.2	7
252.3	6
252.4	4
252.8	3
252.9	5
253.0	7
253.1	8
253.2	8
253.3	7
253.4	5
254.7	3
254.8	5
254.9	7
255.0	9
255.1	9
255.2	9
255.3	8
255.6	5
255.7	7
255.8	11
255.9	15
256.0	18
256.1	20
256.2	20
256.3	17
256.4	12
256.5	7
256.8	3
256.9	5
257.0	6
257.1	7
257.2	6
257.3	5
257.4	3
264.7	2
264.8	4
264.9	6
265.0	7
265.1	7
265.2	6
265.3	5
265.4	5
265.5	4
265.6	3
265.7	3
265.8	4
265.9	7
266.0	9
266.1	10
266.2	9
266.3	7
266.6	4
266.7	7
266.8	10
266.9	15
267.0	19
267.1	20
267.2	20
267.3	17
267.4	13
267.5	8
267.8	4
267.9	6
268.0	9
268.1	11
268.2	12
268.3	11
268.4	8
268.5	5
269.8	4
269.9	6
270.0	7
270.1	8
270.2	8
270.3	7
270.4	5
270.8	3
270.9	4
271.0	5
271.1	6
271.2	5
271.3	5
271.4	4
271.5	3
271.6	3
271.7	4
271.8	6
271.9	8
272.0	10
272.1	11
272.2	11
272.3	10
272.4	7
272.5	4
276.7	2
276.8	4
276.9	6
277.0	9
277.1	10
277.2	10
277.3	8
277.6	5
277.7	7
277.8	12
277.9	16
278.0	20
278.1	22
278.2	21
278.3	19
278.4	14
278.7	7
278.8	11
278.9	18
279.0	24
279.1	28
279.2	28
279.3	24
279.4	17
279.5	9
279.8	5
279.9	8
280.0	10
280.1	12
280.2	12
280.3	11
280.4	8
280.7	3
280.8	5
280.9	8
281.0	11
281.1	12
281.2	12
281.3	12
281.6	7
281.7	11
281.8	20
281.9	32
282.0	41
282.1	45
282.2	45
282.3	40
282.4	30
282.5	17
282.8	8
282.9	13
283.0	17
283.1	18
283.2	17
283.3	14
283.4	10
283.5	5
283.8	5
283.9	8
284.0	10
284.1	10
284.2	11
284.3	10
284.4	8
284.7	4
284.8	7
284.9	12
285.0	18
285.1	21
285.2	22
285.3	18
285.4	12
285.5	5
286.6	2
286.7	4
286.8	7
286.9	10
287.0	13
287.1	15
287.2	15
287.3	13
287.4	8
287.5	3
292.8	3
292.9	5
293.0	6
293.1	7
293.2	7
293.3	7
293.4	6
293.5	4
293.6	4
293.7	5
293.8	8
293.9	12
294.0	17
294.1	21
294.2	22
294.3	21
294.4	17
294.6	11
294.7	15
294.8	23
294.9	34
295.0	42
295.1	46
295.2	44
295.3	37
295.4	27
295.5	15
295.8	9
295.9	14
296.0	19
296.1	23
296.2	23
296.3	20
296.4	13
296.5	6
296.8	2
296.9	5
297.0	7
297.1	9
297.2	8
297.3	7
297.4	6
297.7	3
297.8	6
297.9	10
298.0	13
298.1	13
298.2	13
298.3	11
298.4	8
298.5	5
298.8	2
298.9	4
299.0	5
299.1	6
299.2	6
299.3	6
299.4	5
299.8	5
299.9	7
300.0	8
300.1	9
300.2	9
300.3	7
300.4	5
307.6	2
307.7	3
307.8	6
307.9	9
308.0	11
308.1	14
308.2	15
308.3	14
308.4	12
308.7	7
308.8	12
308.9	19
309.0	26
309.1	31
309.2	32
309.3	29
309.4	24
309.6	18
309.7	26
309.8	43
309.9	66
310.0	87
310.1	99
310.2	98
310.3	85
310.4	62
310.5	36
310.8	19
310.9	31
311.0	41
311.1	44
311.2	44
311.3	39
311.4	30
311.5	18
311.8	10
311.9	18
312.0	26
312.1	32
312.2	34
312.3	31
312.4	24
312.5	15
312.6	8
312.8	6
312.9	9
313.0	13
313.1	15
313.2	16
313.3	16
313.4	13
313.5	8
313.8	4
313.9	7
314.0	10
314.1	12
314.2	12
314.3	11
314.4	8
314.5	4
314.8	2
314.9	4
315.0	6
315.1	8
315.2	8
315.3	7
315.4	5
315.5	3
323.6	5
323.7	6
323.8	10
323.9	15
324.0	21
324.1	24
324.2	24
324.3	21
324.4	15
324.5	10
324.8	5
324.9	8
325.0	10
325.1	12
325.2	13
325.3	12
325.4	9
325.6	6
325.7	8
325.8	15
325.9	24
326.0	32
326.1	37
326.2	36
326.3	30
326.4	21
326.5	10
326.6	3
328.8	2
328.9	3
329.0	4
329.1	5
329.2	5
329.3	4
329.4	3
339.6	3
339.7	5
339.8	8
339.9	13
340.0	17
340.1	22
340.2	24
340.3	23
340.4	17
340.5	10
340.8	6
340.9	10
341.0	13
341.1	14
341.2	15
341.3	14
341.4	13
341.7	8
341.8	12
341.9	18
342.0	23
342.1	28
342.2	31
342.3	29
342.4	23
342.5	13
342.6	4
343.9	3
344.0	4
344.1	5
344.2	6
344.3	6
344.4	4
344.5	2
356.8	3
356.9	5
357.0	7
357.1	9
357.2	9
357.3	8
357.4	5
357.5	2
371.6	2
371.7	4
371.8	7
371.9	12
372.0	17
372.1	21
372.2	22
372.3	21
372.4	17
372.5	10
372.6	4
