Mass spectrum: 20,24-Epoxydammarane-3,11,25-triol; LC-ESI-QQQ; MS2; Frag=135.0V CID@15.0; [M+NH4]+
Name: 20,24-Epoxydammarane-3,11,25-triol
Class: Terpenoids
Formula: C30H52O4
Exact mass: 476.7465
SMILES: CC(C)(O)C1CC[C@](C)(C2CC[C@]3(C)C2C[C@@H](O)C2[C@@]4(C)CC[C@H](O)C(C)(C)C4CC[C@]23C)O1
InChI: InChI=1S/C30H52O4/c1-25(2)21-10-15-29(7)24(27(21,5)13-11-22(25)32)20(31)17-19-18(9-14-28(19,29)6)30(8)16-12-23(34-30)26(3,4)33/h18-24,31-33H,9-17H2,1-8H3/t18?,19?,20-,21?,22+,23?,24?,27+,28-,29-,30-/m1/s1
Instrument: Agilent 6410 Triple Quadrupole LC/MS system
Instrument type: LC-ESI-QQQ
Ms type: MS2
Ion mode: POSITIVE
Precursor type: [M+NH4]+
m/z	relative intensity
124.6	3
124.7	5
124.8	7
124.9	9
125.0	8
125.1	5
142.1	2
142.2	4
142.3	9
142.4	13
142.5	14
142.6	19
142.7	34
142.8	61
142.9	87
143.0	98
143.1	88
143.2	66
143.3	43
143.4	26
143.5	13
143.6	4
148.5	1
148.6	2
148.7	6
148.8	11
148.9	15
149.0	13
149.1	8
149.2	3
206.7	3
206.8	5
206.9	9
207.0	10
207.1	8
207.2	4
422.6	2
422.7	4
422.8	7
422.9	10
423.0	11
423.1	11
423.2	14
423.3	21
423.4	27
423.5	24
423.6	13
423.7	3
440.5	3
440.6	5
440.7	6
440.8	7
440.9	8
441.0	8
441.1	8
441.2	8
441.3	12
441.4	19
441.5	23
441.6	19
441.7	10
441.8	3
458.4	3
458.5	6
458.6	10
458.7	14
458.8	14
458.9	11
459.0	6
459.1	2
