Mass spectrum: Artemisinin; LC-ESI-QQQ; MS2; Frag=135.0V CID@5.0; [M+H]+
Name: Artemisinin
Class: Terpenoids
Formula: C15H22O5
Exact mass: 282.3396
SMILES: C[C@H]1C(=O)O[C@@H]2O[C@@]3(C)CC[C@H]4[C@H](C)CCC1[C@@]24OO3
InChI: InChI=1S/C15H22O5/c1-8-4-5-11-9(2)12(16)17-13-15(11)10(8)6-7-14(3,18-13)19-20-15/h8-11,13H,4-7H2,1-3H3/t8-,9-,10+,11?,13-,14-,15-/m1/s1
Instrument: Agilent 6410 Triple Quadrupole LC/MS system
Instrument type: LC-ESI-QQQ
Ms type: MS2
Ion mode: POSITIVE
Precursor type: [M+H]+
m/z	relative intensity
94.7	2
94.8	4
94.9	6
95.0	7
95.1	7
95.2	6
95.3	5
95.4	3
120.5	1
120.6	3
120.7	4
120.8	5
120.9	6
121.0	7
121.1	7
121.2	6
121.3	4
121.4	2
122.6	1
122.7	3
122.8	5
122.9	6
123.0	7
123.1	7
123.2	6
123.3	5
123.4	3
124.2	0
124.3	1
124.4	4
124.5	6
124.6	8
124.7	12
124.8	16
124.9	21
125.0	25
125.1	27
125.2	28
125.3	26
125.4	19
125.5	10
125.6	2
130.7	1
130.8	2
130.9	4
131.0	5
131.1	5
131.2	5
131.3	5
131.4	3
132.6	1
132.7	2
132.8	5
132.9	7
133.0	8
133.1	8
133.2	5
133.3	3
134.5	1
134.6	2
134.7	4
134.8	6
134.9	7
135.0	8
135.1	9
135.2	8
135.3	6
135.4	3
138.7	1
138.8	2
138.9	4
139.0	5
139.1	5
139.2	5
139.3	4
139.4	3
140.7	2
140.8	3
140.9	5
141.0	7
141.1	7
141.2	6
141.3	4
141.4	2
144.6	3
144.7	3
144.8	5
144.9	8
145.0	11
145.1	12
145.2	11
145.3	9
145.4	5
145.5	2
148.5	0
148.6	2
148.7	4
148.8	8
148.9	11
149.0	13
149.1	14
149.2	15
149.3	14
149.4	11
149.5	5
149.6	1
150.5	1
150.6	3
150.7	6
150.8	12
150.9	17
151.0	19
151.1	20
151.2	19
151.3	18
151.4	14
151.5	8
151.6	2
156.5	1
156.6	2
156.7	4
156.8	7
156.9	11
157.0	14
157.1	16
157.2	14
157.3	10
157.4	6
157.5	3
158.5	2
158.6	4
158.7	6
158.8	10
158.9	13
159.0	16
159.1	18
159.2	17
159.3	15
159.4	10
159.5	6
159.6	1
160.9	4
161.0	6
161.1	7
161.2	8
161.3	8
161.4	5
161.5	2
162.6	2
162.7	4
162.8	5
162.9	7
163.0	8
163.1	10
163.2	12
163.3	11
163.4	9
163.5	5
163.6	1
164.7	1
164.8	2
164.9	4
165.0	5
165.1	5
165.2	4
172.4	1
172.5	3
172.6	6
172.7	11
172.8	18
172.9	26
173.0	33
173.1	38
173.2	41
173.3	40
173.4	32
173.5	19
173.6	6
173.7	0
176.5	2
176.6	3
176.7	6
176.8	10
176.9	13
177.0	14
177.1	15
177.2	15
177.3	13
177.4	9
177.5	3
178.6	1
178.7	3
178.8	5
178.9	6
179.0	7
179.1	8
179.2	7
179.3	5
179.4	2
186.7	2
186.8	3
186.9	4
187.0	5
187.1	6
187.2	5
187.3	4
187.4	2
190.4	1
190.5	3
190.6	6
190.7	12
190.8	19
190.9	26
191.0	33
191.1	37
191.2	38
191.3	35
191.4	29
191.5	18
191.6	7
191.7	0
200.3	1
200.4	2
200.5	4
200.6	6
200.7	10
200.8	19
200.9	28
201.0	36
201.1	40
201.2	42
201.3	42
201.4	37
201.5	24
201.6	9
201.7	0
202.8	1
202.9	2
203.0	4
203.1	6
203.2	7
203.3	6
203.4	4
203.5	2
204.6	1
204.7	2
204.8	6
204.9	11
205.0	15
205.1	15
205.2	15
205.3	14
205.4	12
205.5	8
205.6	3
206.7	1
206.8	3
206.9	4
207.0	5
207.1	6
207.2	6
207.3	6
207.4	4
207.5	2
208.6	1
208.7	3
208.8	8
208.9	13
209.0	16
209.1	18
209.2	18
209.3	19
209.4	16
209.5	9
209.6	3
218.4	1
218.5	2
218.6	6
218.7	13
218.8	22
218.9	31
219.0	39
219.1	45
219.2	50
219.3	51
219.4	42
219.5	25
219.6	9
219.7	0
228.4	1
228.5	2
228.6	4
228.7	7
228.8	12
228.9	18
229.0	23
229.1	25
229.2	23
229.3	19
229.4	14
229.5	8
229.6	3
236.6	3
236.7	4
236.8	7
236.9	10
237.0	12
237.1	13
237.2	13
237.3	12
237.4	10
237.5	6
237.6	1
246.3	1
246.4	4
246.5	8
246.6	13
246.7	24
246.8	41
246.9	63
247.0	84
247.1	97
247.2	99
247.3	91
247.4	71
247.5	44
247.6	17
247.7	0
264.3	1
264.4	2
264.5	4
264.6	9
264.7	16
264.8	28
264.9	45
265.0	62
265.1	73
265.2	73
265.3	66
265.4	54
265.5	36
265.6	16
265.7	2
282.4	1
282.5	2
282.6	5
282.7	9
282.8	14
282.9	20
283.0	25
283.1	28
283.2	29
283.3	27
283.4	21
283.5	12
283.6	3
