Mass spectrum: Cinchonine; LC-ESI-QQQ; MS2; Frag=135.0V CID@5.0; [M+H]+
Name: (1R)((5R)-5-vinylquinuclidin-2-yl)-4-quinolylmethan-1-ol
Name: Cinchonan-9-ol
Name: alpha-4-Quinolyl(5-vinyl-1-azabicyclo(2.2.2)oct-2-yl)methanol
Name: Cinchonine
Class: Alkaloids
Formula: C19H22N2O
Exact mass: 294.4
SMILES: C=C[C@H]1CN2CCC1CC2[C@H](O)c1ccnc2ccccc12
InChI: InChI=1S/C19H22N2O/c1-2-13-12-21-10-8-14(13)11-18(21)19(22)16-7-9-20-17-6-4-3-5-15(16)17/h2-7,9,13-14,18-19,22H,1,8,10-12H2/t13-,14?,18?,19+/m0/s1
Instrument: Agilent 6410 Triple Quadrupole LC/MS system
Instrument type: LC-ESI-QQQ
Ms type: MS2
Ion mode: POSITIVE
Precursor type: [M+H]+
m/z	relative intensity
294.3	1
294.4	3
294.5	6
294.6	12
294.7	22
294.8	40
294.9	63
295.0	84
295.1	97
295.2	99
295.3	92
295.4	75
295.5	51
295.6	26
295.7	7
295.8	0
