Mass spectrum: Conferone; LC-ESI-QQQ; MS2; Frag=135.0V CID@5.0; [M+H]+
Name: Conferone
Class: Benzopyranoids
Formula: C24H28O4
Exact mass: 380.4884
SMILES: CC1=CC[C@@H]2C(C)(C)C(=O)CC[C@@]2(C)[C@@H]1COc1ccc2ccc(=O)oc2c1
InChI: InChI=1S/C24H28O4/c1-15-5-9-20-23(2,3)21(25)11-12-24(20,4)18(15)14-27-17-8-6-16-7-10-22(26)28-19(16)13-17/h5-8,10,13,18,20H,9,11-12,14H2,1-4H3/t18-,20-,24+/m1/s1
Instrument: Agilent 6410 Triple Quadrupole LC/MS system
Instrument type: LC-ESI-QQQ
Ms type: MS2
Ion mode: POSITIVE
Precursor type: [M+H]+
m/z	relative intensity
162.5	1
162.6	2
162.7	4
162.8	6
162.9	8
163.0	10
163.1	10
163.2	10
163.3	8
163.4	5
163.5	2
200.7	1
200.8	3
200.9	4
201.0	6
201.1	7
201.2	8
201.3	8
201.4	7
201.5	5
201.6	2
380.3	0
380.4	1
380.5	5
380.6	9
380.7	16
380.8	27
380.9	43
381.0	64
381.1	83
381.2	96
381.3	99
381.4	90
381.5	66
381.6	35
381.7	9
381.8	0
