Mass spectrum: Vinervine; LC-ESI-QQQ; MS2; Frag=135.0V CID@5.0 ; [M+H]+
Name: Vinervine
Class: Alkaloids
Formula: C20H22N2O3
Exact mass: 338.40994
SMILES: C/C=C1\CN2CCC34C(=C(C(=O)OC)[C@H]1C[C@@H]23)Nc1c(O)cccc14
InChI: InChI=1S/C20H22N2O3/c1-3-11-10-22-8-7-20-13-5-4-6-14(23)17(13)21-18(20)16(19(24)25-2)12(11)9-15(20)22/h3-6,12,15,21,23H,7-10H2,1-2H3/b11-3+/t12-,15+,20?/m0/s1
Instrument: Agilent 6410 Triple Quadrupole LC/MS system
Instrument type: LC-ESI-QQQ
Ms type: MS2
Ion mode: POSITIVE
Precursor type: [M+H]+
m/z	relative intensity
306.7	2
306.8	3
306.9	5
307.0	8
307.1	10
307.2	11
307.3	12
307.4	10
307.5	7
307.6	3
338.4	0
338.5	2
338.6	6
338.7	12
338.8	21
338.9	36
339.0	57
339.1	79
339.2	95
339.3	99
339.4	88
339.5	61
339.6	30
339.7	6
339.8	0
