Mass spectrum: Komarovicine; LC-ESI-QQQ; MS2; Frag=135.0V CID@15.0; [M+H]+
Name: Komarovicine
Class: Alkaloids
Formula: C20H17N3
Exact mass: 299.3786
SMILES: c1cnc2c(C3NCCc4c3[nH]c3ccccc43)cccc2c1
InChI: InChI=1S/C20H17N3/c1-2-9-17-14(7-1)15-10-12-22-19(20(15)23-17)16-8-3-5-13-6-4-11-21-18(13)16/h1-9,11,19,22-23H,10,12H2
Instrument: Agilent 6410 Triple Quadrupole LC/MS system
Instrument type: LC-ESI-QQQ
Ms type: MS2
Ion mode: POSITIVE
Precursor type: [M+H]+
m/z	relative intensity
143.5	1
143.6	3
143.7	5
143.8	9
143.9	13
144.0	16
144.1	17
144.2	16
144.3	15
144.4	11
144.5	6
144.6	2
156.6	1
156.7	3
156.8	5
156.9	8
157.0	10
157.1	11
157.2	11
157.3	10
157.4	7
157.5	4
157.6	1
255.5	1
255.6	3
255.7	5
255.8	8
255.9	12
256.0	15
256.1	17
256.2	17
256.3	15
256.4	11
256.5	6
256.6	2
270.3	0
270.4	2
270.5	5
270.6	11
270.7	20
270.8	36
270.9	58
271.0	80
271.1	96
271.2	99
271.3	90
271.4	69
271.5	41
271.6	14
271.7	0
299.8	2
299.9	3
300.0	5
300.1	6
300.2	6
300.3	6
300.4	5
300.5	3
