Mass spectrum: 6-Benzoylheteratisine; LC-ESI-QQQ; MS2; Frag=135.0V CID@25.0 ; [M+H]+
Name: 6-Benzoylheteratisine
Class: Alkaloids
Formula: C29H37NO6
Exact mass: 495.62134000000003
SMILES: CCN1C[C@]2(C)CC[C@H](OC)[C@]34C5C[C@@H]6CC[C@@](O)(C5C(=O)O6)[C@H](C13)[C@@H](OC(=O)c1ccccc1)C42
InChI: InChI=1S/C29H37NO6/c1-4-30-15-27(2)12-11-19(34-3)29-18-14-17-10-13-28(33,20(18)26(32)35-17)21(24(29)30)22(23(27)29)36-25(31)16-8-6-5-7-9-16/h5-9,17-24,33H,4,10-15H2,1-3H3/t17-,18?,19-,20?,21-,22+,23?,24?,27-,28+,29-/m0/s1
Instrument: Agilent 6410 Triple Quadrupole LC/MS system
Instrument type: LC-ESI-QQQ
Ms type: MS2
Ion mode: POSITIVE
Precursor type: [M+H]+
m/z	relative intensity
341.8	2
341.9	3
342.0	5
342.1	7
342.2	8
342.3	8
342.4	7
342.5	5
342.6	2
495.4	1
495.5	3
495.6	6
495.7	13
495.8	23
495.9	38
496.0	57
496.1	76
496.2	91
496.3	99
496.4	97
496.5	80
496.6	53
496.7	24
496.8	4
496.9	0
