Mass spectrum: Samarcandin; LC-ESI-QQQ; MS2; Frag=135.0V CID@5.0; [M+H]+
Name: Samarcandin
Class: Benzopyranoids
Formula: C24H32O5
Exact mass: 400.5196
SMILES: CC1(C)[C@@H](O)CC[C@]2(C)[C@@H]1CC[C@](C)(O)[C@H]2COc1ccc2ccc(=O)oc2c1
InChI: InChI=1S/C24H32O5/c1-22(2)18-9-12-24(4,27)19(23(18,3)11-10-20(22)25)14-28-16-7-5-15-6-8-21(26)29-17(15)13-16/h5-8,13,18-20,25,27H,9-12,14H2,1-4H3/t18-,19+,20+,23-,24+/m1/s1
Instrument: Agilent 6410 Triple Quadrupole LC/MS system
Instrument type: LC-ESI-QQQ
Ms type: MS2
Ion mode: POSITIVE
Precursor type: [M+H]+
m/z	relative intensity
162.6	1
162.7	3
162.8	5
162.9	7
163.0	8
163.1	8
163.2	8
163.3	6
163.4	3
163.5	1
202.5	1
202.6	2
202.7	4
202.8	7
202.9	11
203.0	15
203.1	19
203.2	21
203.3	20
203.4	17
203.5	12
203.6	6
203.7	2
364.7	2
364.8	4
364.9	8
365.0	12
365.1	16
365.2	18
365.3	18
365.4	15
365.5	11
365.6	5
365.7	1
400.3	1
400.4	2
400.5	5
400.6	9
400.7	16
400.8	29
400.9	48
401.0	70
401.1	88
401.2	98
401.3	99
401.4	90
401.5	69
401.6	40
401.7	14
401.8	0
