Mass spectrum: 3-Hydroxyspirostan-12-one (3beta,5alpha,25R)-form, Ac; LC-ESI-QQQ; MS2; Frag=135.0V CID@5.0; [M+H]+
Name: 3-Hydroxyspirostan-12-one (3beta,5alpha,25R)-form, Ac
Class: Steroids
Formula: C29H44O5
Exact mass: 472.671
SMILES: CC(=O)OC1CC[C@]2(C)C3CC(=O)[C@@]4(C)C(CC5OC6(CC[C@@H](C)CO6)[C@@H](C)C54)C3CC[C@H]2C1
InChI: InChI=1S/C29H44O5/c1-16-8-11-29(32-15-16)17(2)26-24(34-29)13-23-21-7-6-19-12-20(33-18(3)30)9-10-27(19,4)22(21)14-25(31)28(23,26)5/h16-17,19-24,26H,6-15H2,1-5H3/t16-,17+,19+,20?,21?,22?,23?,24?,26?,27+,28-,29?/m1/s1
Instrument: Agilent 6410 Triple Quadrupole LC/MS system
Instrument type: LC-ESI-QQQ
Ms type: MS2
Ion mode: POSITIVE
Precursor type: [M+H]+
m/z	relative intensity
472.4	1
472.5	3
472.6	6
472.7	12
472.8	22
472.9	36
473.0	55
473.1	76
473.2	91
473.3	99
473.4	98
473.5	86
473.6	63
473.7	35
473.8	11
473.9	0
