Mass spectrum: Rosamicin; LC-ESI-QQQ; MS2; Frag=135.0V CID@10.0; [M+H]+
Name: Rosamicin
Class: Polyketides
Formula: C31H51NO9
Exact mass: 581.7534
SMILES: CC[C@H]1OC(=O)C[C@@H](O)[C@H](C)[C@@H](O[C@@H]2O[C@H](C)C[C@H](N(C)C)C2O)[C@@H](CC=O)C[C@@H](C)C(=O)/C=C/[C@]2(C)O[C@H]2[C@@H]1C
InChI: InChI=1S/C31H51NO9/c1-9-25-20(5)29-31(6,41-29)12-10-23(34)17(2)14-21(11-13-33)28(19(4)24(35)16-26(36)39-25)40-30-27(37)22(32(7)8)15-18(3)38-30/h10,12-13,17-22,24-25,27-30,35,37H,9,11,14-16H2,1-8H3/b12-10+/t17-,18-,19+,20-,21+,22+,24-,25-,27?,28-,29+,30+,31+/m1/s1
Instrument: Agilent 6410 Triple Quadrupole LC/MS system
Instrument type: LC-ESI-QQQ
Ms type: MS2
Ion mode: POSITIVE
Precursor type: [M+H]+
m/z	relative intensity
157.2	0
157.3	1
157.4	4
157.5	9
157.6	17
157.7	29
157.8	46
157.9	67
158.0	86
158.1	98
158.2	99
158.3	90
158.4	70
158.5	44
158.6	18
158.7	2
581.4	0
581.5	2
581.6	5
581.7	10
581.8	18
581.9	27
582.0	39
582.1	52
582.2	64
582.3	72
582.4	74
582.5	68
582.6	53
582.7	32
582.8	13
582.9	0
