Mass spectrum: Yuccagenin; LC-ESI-QQQ; MS2; Frag=135.0V CID@10.0 ; [M+H]+
Name: Yuccagenin
Class: Steroids
Formula: C27H42O4
Exact mass: 430.63339
SMILES: CC1CC[C@@]2(OC1)OC1CC3C4CC=C5CC(O)[C@H](O)C[C@]5(C)C4CC[C@]3(C)C1[C@@H]2C
InChI: InChI=1S/C27H42O4/c1-15-7-10-27(30-14-15)16(2)24-23(31-27)12-20-18-6-5-17-11-21(28)22(29)13-26(17,4)19(18)8-9-25(20,24)3/h5,15-16,18-24,28-29H,6-14H2,1-4H3/t15?,16-,18?,19?,20?,21?,22+,23?,24?,25-,26-,27+/m0/s1
Instrument: Agilent 6410 Triple Quadrupole LC/MS system
Instrument type: LC-ESI-QQQ
Ms type: MS2
Ion mode: POSITIVE
Precursor type: [M+H]+
m/z	relative intensity
286.3	1
286.4	2
286.5	5
286.6	9
286.7	16
286.8	28
286.9	44
287.0	63
287.1	79
287.2	87
287.3	83
287.4	69
287.5	46
287.6	22
287.7	4
430.4	0
430.5	2
430.6	5
430.7	10
430.8	18
430.9	32
431.0	53
431.1	76
431.2	93
431.3	99
431.4	93
431.5	76
431.6	51
431.7	25
431.8	5
431.9	0
