Mass spectrum: Poststerone; LC-ESI-QQQ; MS2;  Frag=135.0V CID@5.0 ; [M+HCOO]-
Name: Poststerone
Class: Steroids
Formula: C21H30O5
Exact mass: 362.47025
SMILES: CC(=O)C1CC[C@@]2(O)C3=CC(=O)C4CC(O)C(O)C[C@]4(C)C3CC[C@]12C
InChI: InChI=1S/C21H30O5/c1-11(22)12-5-7-21(26)14-8-16(23)15-9-17(24)18(25)10-19(15,2)13(14)4-6-20(12,21)3/h8,12-13,15,17-18,24-26H,4-7,9-10H2,1-3H3/t12?,13?,15?,17?,18?,19-,20-,21-/m1/s1
Instrument: Agilent 6410 Triple Quadrupole LC/MS system
Instrument type: LC-ESI-QQQ
Ms type: MS2
Ion mode: NEGATIVE
Precursor type: [M+HCOO]-
m/z	relative intensity
360.3	0
360.4	1
360.5	5
360.6	11
360.7	15
360.8	17
360.9	19
361.0	24
361.1	31
361.2	34
361.3	32
361.4	24
361.5	14
361.6	4
406.3	0
406.4	4
406.5	10
406.6	20
406.7	35
406.8	57
406.9	81
407.0	98
407.1	99
407.2	92
407.3	85
407.4	76
407.5	57
407.6	30
407.7	7
407.8	0
