Mass spectrum: Bovoside A; LC-ESI-QQQ; MS2; Frag=135.0V CID@25.0 ; [M+H]+
Name: Bovoside A
Class: Steroids
Formula: C31H44O9
Exact mass: 560.69093
SMILES: COC1C(O)C(C)OC(OC2CC[C@]3(C=O)C4CC[C@]5(C)C(c6ccc(=O)oc6)CCC5(O)C4CC[C@H]3C2)C1O
InChI: InChI=1S/C31H44O9/c1-17-25(34)27(37-3)26(35)28(39-17)40-20-8-12-30(16-32)19(14-20)5-6-23-22(30)9-11-29(2)21(10-13-31(23,29)36)18-4-7-24(33)38-15-18/h4,7,15-17,19-23,25-28,34-36H,5-6,8-14H2,1-3H3/t17?,19-,20?,21?,22?,23?,25?,26?,27?,28?,29+,30+,31?/m0/s1
Instrument: Agilent 6410 Triple Quadrupole LC/MS system
Instrument type: LC-ESI-QQQ
Ms type: MS2
Ion mode: POSITIVE
Precursor type: [M+H]+
m/z	relative intensity
58.4	1
58.5	3
58.6	5
58.7	7
58.8	10
58.9	11
59.0	12
59.1	13
59.2	13
59.3	10
59.4	6
59.5	2
70.5	2
70.6	4
70.7	5
70.8	7
70.9	9
71.0	11
71.1	11
71.2	9
71.3	6
71.4	3
76.5	1
76.6	2
76.7	4
76.8	6
76.9	8
77.0	10
77.1	11
77.2	9
77.3	5
77.4	2
82.7	3
82.8	4
82.9	5
83.0	6
83.1	7
83.2	6
83.3	4
83.4	2
84.0	1
84.1	2
84.2	5
84.3	7
84.4	8
84.5	12
84.6	24
84.7	42
84.8	63
84.9	79
85.0	85
85.1	79
85.2	67
85.3	49
85.4	28
85.5	9
85.6	0
86.4	1
86.5	3
86.6	5
86.7	9
86.8	13
86.9	17
87.0	18
87.1	16
87.2	12
87.3	6
87.4	2
98.4	1
98.5	3
98.6	9
98.7	16
98.8	25
98.9	32
99.0	34
99.1	31
99.2	23
99.3	13
99.4	5
99.5	1
116.6	1
116.7	3
116.8	5
116.9	6
117.0	7
117.1	6
117.2	5
117.3	3
128.4	1
128.5	2
128.6	3
128.7	6
128.8	10
128.9	14
129.0	16
129.1	16
129.2	13
129.3	8
129.4	4
129.5	1
142.7	2
142.8	4
142.9	6
143.0	8
143.1	9
143.2	8
143.3	5
143.4	2
146.7	2
146.8	3
146.9	5
147.0	7
147.1	6
147.2	4
147.3	2
158.7	1
158.8	2
158.9	5
159.0	7
159.1	9
159.2	8
159.3	5
159.4	2
160.7	2
160.8	3
160.9	4
161.0	6
161.1	7
161.2	5
161.3	3
170.8	2
170.9	3
171.0	6
171.1	8
171.2	7
171.3	5
171.4	2
182.6	0
182.7	2
182.8	4
182.9	6
183.0	6
183.1	5
183.2	3
184.6	1
184.7	3
184.8	5
184.9	6
185.0	7
185.1	6
185.2	4
185.3	2
196.8	1
196.9	3
197.0	5
197.1	5
197.2	3
197.3	1
200.7	1
200.8	3
200.9	6
201.0	7
201.1	6
201.2	4
201.3	2
212.7	2
212.8	3
212.9	4
213.0	5
213.1	4
213.2	3
213.3	2
214.7	1
214.8	3
214.9	4
215.0	4
215.1	4
215.2	3
222.7	2
222.8	3
222.9	4
223.0	5
223.1	4
223.2	2
240.4	1
240.5	3
240.6	5
240.7	6
240.8	8
240.9	10
241.0	12
241.1	15
241.2	16
241.3	14
241.4	9
241.5	4
241.6	1
242.9	1
243.0	3
243.1	4
243.2	4
243.3	4
243.4	2
252.7	1
252.8	3
252.9	5
253.0	6
253.1	6
253.2	4
253.3	2
262.7	1
262.8	2
262.9	4
263.0	5
263.1	5
263.2	5
263.3	3
263.4	2
268.4	2
268.5	3
268.6	5
268.7	8
268.8	11
268.9	15
269.0	17
269.1	18
269.2	18
269.3	18
269.4	16
269.5	12
269.6	5
269.7	1
276.7	1
276.8	2
276.9	4
277.0	5
277.1	5
277.2	3
280.6	1
280.7	2
280.8	6
280.9	10
281.0	14
281.1	16
281.2	15
281.3	12
281.4	9
281.5	5
281.6	2
300.8	1
300.9	3
301.0	5
301.1	6
301.2	6
301.3	4
301.4	2
304.7	1
304.8	3
304.9	6
305.0	8
305.1	8
305.2	6
305.3	3
318.6	2
318.7	3
318.8	6
318.9	10
319.0	15
319.1	18
319.2	17
319.3	13
319.4	7
319.5	3
336.5	1
336.6	3
336.7	7
336.8	12
336.9	21
337.0	30
337.1	36
337.2	36
337.3	30
337.4	22
337.5	13
337.6	4
337.7	0
346.4	1
346.5	2
346.6	5
346.7	10
346.8	17
346.9	26
347.0	37
347.1	47
347.2	53
347.3	52
347.4	41
347.5	24
347.6	8
347.7	0
364.5	3
364.6	4
364.7	7
364.8	17
364.9	31
365.0	45
365.1	55
365.2	59
365.3	55
365.4	41
365.5	21
365.6	5
365.7	0
382.7	1
382.8	4
382.9	10
383.0	19
383.1	25
383.2	26
383.3	21
383.4	13
383.5	5
383.6	1
400.7	1
400.8	3
400.9	6
401.0	11
401.1	16
401.2	18
401.3	15
401.4	9
401.5	3
542.6	1
542.7	3
542.8	5
542.9	8
543.0	10
543.1	10
543.2	10
543.3	9
543.4	8
543.5	5
543.6	3
560.3	1
560.4	3
560.5	6
560.6	10
560.7	14
560.8	21
560.9	35
561.0	54
561.1	73
561.2	88
561.3	96
561.4	99
561.5	92
561.6	66
561.7	30
561.8	2
