Mass spectrum: betulonaldehyde; LC-ESI-QQQ; MS2; Frag=135.0V CID@15.0 ; [M+H]+
Name: betulonaldehyde
Class: Terpenoids
Formula: C30H46O2
Exact mass: 438.6999200000001
SMILES: C=C(C)[C@@H]1CCC2(C=O)CC[C@]3(C)C(CCC4[C@@]5(C)CCC(=O)C(C)(C)C5CC[C@]43C)C12
InChI: InChI=1S/C30H46O2/c1-19(2)20-10-15-30(18-31)17-16-28(6)21(25(20)30)8-9-23-27(5)13-12-24(32)26(3,4)22(27)11-14-29(23,28)7/h18,20-23,25H,1,8-17H2,2-7H3/t20-,21?,22?,23?,25?,27-,28+,29+,30?/m0/s1
Instrument: Agilent 6410 Triple Quadrupole LC/MS system
Instrument type: LC-ESI-QQQ
Ms type: MS2
Ion mode: POSITIVE
Precursor type: [M+H]+
m/z	relative intensity
94.6	4
94.7	5
94.8	7
94.9	11
95.0	18
95.1	23
95.2	21
95.3	13
95.4	5
106.7	3
106.8	4
106.9	5
107.0	6
107.1	5
107.2	3
108.3	2
108.4	4
108.5	7
108.6	9
108.7	11
108.8	9
108.9	7
118.6	1
118.7	3
118.8	5
118.9	6
119.0	5
119.1	3
120.4	3
120.5	4
120.6	6
120.7	7
120.8	9
120.9	11
121.0	13
121.1	13
121.2	11
121.3	7
121.4	4
124.6	2
124.7	3
124.8	5
124.9	5
125.0	4
134.5	2
134.6	3
134.7	5
134.8	5
134.9	5
135.0	3
135.1	2
135.2	3
135.3	4
135.4	4
135.5	3
136.4	1
136.5	2
136.6	5
136.7	9
136.8	12
136.9	13
137.0	12
137.1	10
137.2	7
137.3	5
137.4	3
152.9	1
153.0	3
153.1	5
153.2	5
153.3	4
160.5	1
160.6	2
160.7	5
160.8	8
160.9	8
161.0	7
161.1	3
176.2	0
176.3	2
176.4	4
176.5	9
176.6	18
176.7	33
176.8	52
176.9	71
177.0	89
177.1	99
177.2	96
177.3	81
177.4	59
177.5	36
177.6	16
177.7	3
188.4	2
188.5	4
188.6	7
188.7	9
188.8	10
188.9	10
189.0	10
189.1	12
189.2	14
189.3	14
189.4	11
189.5	6
189.6	2
190.8	2
190.9	4
191.0	6
191.1	10
191.2	13
191.3	14
191.4	12
191.5	7
191.6	2
198.7	4
198.8	5
198.9	7
199.0	8
199.1	8
199.2	5
199.3	3
200.5	1
200.6	2
200.7	5
200.8	12
200.9	17
201.0	17
201.1	13
201.2	8
201.3	5
201.4	3
202.3	1
202.4	2
202.5	5
202.6	7
202.7	8
202.8	9
202.9	11
203.0	16
203.1	19
203.2	19
203.3	15
203.4	9
203.5	4
203.6	2
204.5	3
204.6	4
204.7	6
204.8	8
204.9	13
205.0	19
205.1	20
205.2	17
205.3	10
205.4	6
205.5	3
214.5	2
214.6	4
214.7	7
214.8	9
214.9	9
215.0	8
215.1	9
215.2	10
215.3	9
215.4	5
215.5	2
216.6	1
216.7	2
216.8	5
216.9	8
217.0	12
217.1	13
217.2	12
217.3	9
217.4	4
220.7	1
220.8	2
220.9	6
221.0	12
221.1	16
221.2	16
221.3	10
221.4	4
233.0	4
233.1	5
233.2	7
233.3	9
233.4	9
233.5	6
233.6	2
254.8	1
254.9	3
255.0	5
255.1	7
255.2	6
255.3	3
258.6	2
258.7	3
258.8	5
258.9	5
259.0	4
327.0	2
327.1	4
327.2	5
327.3	6
327.4	5
327.5	3
392.7	2
392.8	4
392.9	8
393.0	12
393.1	13
393.2	12
393.3	8
393.4	5
410.9	2
411.0	4
411.1	5
411.2	5
411.3	5
411.4	3
420.3	1
420.4	3
420.5	5
420.6	9
420.7	14
420.8	20
420.9	25
421.0	29
421.1	33
421.2	40
421.3	48
421.4	50
421.5	40
421.6	22
421.7	7
421.8	1
438.4	1
438.5	2
438.6	6
438.7	11
438.8	20
438.9	34
439.0	54
439.1	74
439.2	79
439.3	67
439.4	44
439.5	24
439.6	10
439.7	2
