Mass spectrum: Cinchonidine; LC-ESI-QQQ; MS2; Frag=135.0V CID@10.0 ; [M+H]+
Name: Cinchonidine
Class: Alkaloids
Formula: C19H22N2O
Exact mass: 294.39999
SMILES: C=C[C@H]1CN2CCC1CC2[C@@H](O)c1ccnc2ccccc12
InChI: InChI=1S/C19H22N2O/c1-2-13-12-21-10-8-14(13)11-18(21)19(22)16-7-9-20-17-6-4-3-5-15(16)17/h2-7,9,13-14,18-19,22H,1,8,10-12H2/t13-,14?,18?,19-/m0/s1
Instrument: Agilent 6410 Triple Quadrupole LC/MS system
Instrument type: LC-ESI-QQQ
Ms type: MS2
Ion mode: POSITIVE
Precursor type: [M+H]+
m/z	relative intensity
294.3	0
294.4	1
294.5	5
294.6	11
294.7	21
294.8	36
294.9	56
295.0	76
295.1	92
295.2	99
295.3	97
295.4	82
295.5	56
295.6	26
295.7	5
295.8	0
