Mass spectrum: 10-hydroxycamptothecin; LC-ESI-QQQ; MS2; Frag=135.0V CID@25.0; [M+H]+
Name: 10-hydroxycamptothecin
Class: Alkaloids
Formula: C20H16N2O5
Exact mass: 364.3609
SMILES: CCC1(O)C(=O)OCc2c1cc1n(c2=O)Cc2cc3cc(O)ccc3nc2-1
InChI: InChI=1S/C20H16N2O5/c1-2-20(26)14-7-16-17-11(5-10-6-12(23)3-4-15(10)21-17)8-22(16)18(24)13(14)9-27-19(20)25/h3-7,23,26H,2,8-9H2,1H3
Instrument: Agilent 6410 Triple Quadrupole LC/MS system
Instrument type: LC-ESI-QQQ
Ms type: MS2
Ion mode: POSITIVE
Precursor type: [M+H]+
m/z	relative intensity
183.7	2
183.8	3
183.9	4
184.0	5
184.1	5
184.2	5
184.3	4
184.4	3
235.7	2
235.8	3
235.9	5
236.0	7
236.1	7
236.2	7
236.3	6
236.4	5
236.5	3
263.6	2
263.7	3
263.8	5
263.9	7
264.0	8
264.1	9
264.2	9
264.3	8
264.6	4
264.7	6
264.8	10
264.9	16
265.0	20
265.1	22
265.2	22
265.3	20
265.4	15
265.5	9
265.6	3
292.8	2
292.9	4
293.0	5
293.1	6
293.2	7
293.3	6
293.4	5
293.5	2
320.3	1
320.4	3
320.5	6
320.6	13
320.7	24
320.8	41
320.9	61
321.0	81
321.1	95
321.2	99
321.3	93
321.4	74
321.5	45
321.6	17
321.7	0
364.4	1
364.5	2
364.6	4
364.7	7
364.8	12
364.9	19
365.0	25
365.1	29
365.2	30
365.3	27
365.4	20
365.5	10
365.6	2
