Mass spectrum: O-Methylcassyfiline; LC-ESI-QQQ; MS2; Frag=135.0V CID@15.0; [M+H]+
Name: O-Methylcassyfiline
Class: Alkaloids
Formula: C20H21NO5
Exact mass: 355.3941
SMILES: COc1cc2c(cc1OC)-c1c3c(c(OC)c4c1C(C2)NCC4)OCO3
InChI: InChI=1S/C20H21NO5/c1-22-14-7-10-6-13-16-11(4-5-21-13)18(24-3)20-19(25-9-26-20)17(16)12(10)8-15(14)23-2/h7-8,13,21H,4-6,9H2,1-3H3
Instrument: Agilent 6410 Triple Quadrupole LC/MS system
Instrument type: LC-ESI-QQQ
Ms type: MS2
Ion mode: POSITIVE
Precursor type: [M+H]+
m/z	relative intensity
280.8	2
280.9	4
281.0	5
281.1	6
281.2	6
281.3	6
281.4	4
281.5	2
307.7	1
307.8	2
307.9	4
308.0	6
308.1	8
308.2	8
308.3	8
308.4	6
308.5	6
308.6	7
308.7	12
308.8	20
308.9	34
309.0	48
309.1	59
309.2	64
309.3	60
309.4	47
309.5	27
309.6	9
309.7	0
338.3	1
338.4	2
338.5	6
338.6	11
338.7	19
338.8	34
338.9	55
339.0	77
339.1	94
339.2	99
339.3	92
339.4	71
339.5	41
339.6	14
339.7	0
