Mass spectrum: Cyclogaleginoside A.; LC-ESI-QQQ; MS2; Frag=135.0V CID@5.0; [M+HOO]-
Name: Cyclogaleginoside A.
Class: Terpenoids
Formula: C37H60O10
Exact mass: 664.8848
SMILES: CC(=O)O[C@H]1[C@H](OC2CC[C@]34C[C@]35CC[C@]3(C)C([C@@]6(C)CC[C@@H](C(C)(C)O)O6)[C@@H](O)C[C@@]3(C)C5C[C@H](O)C4C2(C)C)OC[C@@H](O)[C@@H]1O
InChI: InChI=1S/C37H60O10/c1-19(38)45-27-26(42)22(41)17-44-30(27)46-24-10-12-37-18-36(37)14-13-33(6)29(35(8)11-9-25(47-35)32(4,5)43)21(40)16-34(33,7)23(36)15-20(39)28(37)31(24,2)3/h20-30,39-43H,9-18H2,1-8H3/t20-,21-,22+,23?,24?,25-,26-,27+,28?,29?,30-,33+,34-,35+,36-,37+/m0/s1
Instrument: Agilent 6410 Triple Quadrupole LC/MS system
Instrument type: LC-ESI-QQQ
Ms type: MS2
Ion mode: NEGATIVE
Precursor type: [M+HOO]-
m/z	relative intensity
708.5	2
708.6	4
708.7	5
708.8	7
708.9	13
709.0	31
709.1	61
709.2	91
709.3	99
709.4	81
709.5	56
709.6	41
709.7	31
709.8	18
709.9	3
