Mass spectrum: Germine; LC-ESI-QQQ; MS2; Frag=135.0V CID@25.0; [M+HCOO]-
Name: Germine
Class: Alkaloids
Formula: C27H43NO8
Exact mass: 509.6457
SMILES: C[C@H]1CC[C@@H]2N(CC3[C@@H]4C[C@]56O[C@]7(O)C(O)CC[C@@]5(C)C7C[C@@H](O)[C@H]6[C@]4(O)[C@@H](O)C(O)[C@@H]3[C@]2(C)O)C1
InChI: InChI=1S/C27H43NO8/c1-12-4-5-17-24(3,33)19-13(11-28(17)10-12)14-9-25-21(26(14,34)22(32)20(19)31)15(29)8-16-23(25,2)7-6-18(30)27(16,35)36-25/h12-22,29-35H,4-11H2,1-3H3/t12-,13?,14-,15+,16?,17-,18?,19+,20?,21+,22-,23-,24+,25+,26-,27-/m0/s1
Instrument: Agilent 6410 Triple Quadrupole LC/MS system
Instrument type: LC-ESI-QQQ
Ms type: MS2
Ion mode: NEGATIVE
Precursor type: [M+HCOO]-
m/z	relative intensity
435.6	0
435.7	3
435.8	7
435.9	11
436.0	13
436.1	13
436.2	13
436.3	12
436.4	9
436.5	5
436.6	2
453.4	1
453.5	2
453.6	4
453.7	5
453.8	8
453.9	12
454.0	15
454.1	18
454.2	20
454.3	22
454.4	20
454.5	14
454.6	6
454.7	1
471.6	0
471.7	3
471.8	11
471.9	20
472.0	27
472.1	28
472.2	27
472.3	25
472.4	20
472.5	11
472.6	3
489.2	0
489.3	3
489.4	5
489.5	8
489.6	11
489.7	18
489.8	31
489.9	51
490.0	70
490.1	84
490.2	92
490.3	98
490.4	99
490.5	85
490.6	52
490.7	17
490.8	0
