Mass spectrum: Lincomycin; LC-ESI-QQQ; MS2; Frag=135.0V CID@10.0 ; [M+H]+
Name: Lincomycin
Class: Carbohydrates
Formula: C18H34N2O6S
Exact mass: 406.54548000000005
SMILES: CCC[C@H]1C[C@H](C(O)=NC(C(C)O)[C@H]2O[C@H](SC)[C@H](O)[C@@H](O)[C@H]2O)N(C)C1
InChI: InChI=1S/C18H34N2O6S/c1-5-6-10-7-11(20(3)8-10)17(25)19-12(9(2)21)16-14(23)13(22)15(24)18(26-16)27-4/h9-16,18,21-24H,5-8H2,1-4H3,(H,19,25)/t9?,10-,11+,12?,13-,14+,15+,16+,18+/m0/s1
Instrument: Agilent 6410 Triple Quadrupole LC/MS system
Instrument type: LC-ESI-QQQ
Ms type: MS2
Ion mode: POSITIVE
Precursor type: [M+H]+
m/z	relative intensity
125.5	1
125.6	2
125.7	4
125.8	7
125.9	11
126.0	15
126.1	17
126.2	17
126.3	16
126.4	12
126.5	8
126.6	3
358.9	2
359.0	3
359.1	5
359.2	6
359.3	6
359.4	5
359.5	3
406.3	0
406.4	2
406.5	5
406.6	9
406.7	16
406.8	29
406.9	49
407.0	71
407.1	90
407.2	99
407.3	98
407.4	83
407.5	58
407.6	30
407.7	8
407.8	0
