Mass spectrum: 3-Hydroxyspirost-9(11)-en-12-one, 3-Ac ; LC-ESI-QQQ; MS2; Frag=135.0V CID@15.0 ; [M+H]+
Name: 3-Hydroxyspirost-9(11)-en-12-one, 3-Ac 
Class: Steroids
Formula: C29H42O5
Exact mass: 470.65509000000003
SMILES: CC(=O)OC1CC[C@]2(C)C3=CC(=O)[C@@]4(C)C(CC5O[C@]6(CCC(C)CO6)[C@@H](C)C54)C3CC[C@H]2C1
InChI: InChI=1S/C29H42O5/c1-16-8-11-29(32-15-16)17(2)26-24(34-29)13-23-21-7-6-19-12-20(33-18(3)30)9-10-27(19,4)22(21)14-25(31)28(23,26)5/h14,16-17,19-21,23-24,26H,6-13,15H2,1-5H3/t16?,17-,19-,20?,21?,23?,24?,26?,27-,28+,29+/m0/s1
Instrument: Agilent 6410 Triple Quadrupole LC/MS system
Instrument type: LC-ESI-QQQ
Ms type: MS2
Ion mode: POSITIVE
Precursor type: [M+H]+
m/z	relative intensity
124.7	1
124.8	3
124.9	6
125.0	8
125.1	10
125.2	10
125.3	9
125.4	7
125.5	4
125.6	1
164.9	1
165.0	3
165.1	5
165.2	6
165.3	5
165.4	3
180.8	3
180.9	4
181.0	6
181.1	8
181.2	8
181.3	7
181.4	5
181.5	2
182.6	0
182.7	2
182.8	5
182.9	8
183.0	10
183.1	10
183.2	8
183.3	6
183.4	4
183.5	2
184.8	2
184.9	3
185.0	5
185.1	5
185.2	4
185.3	2
224.8	0
224.9	2
225.0	4
225.1	5
225.2	4
225.3	2
228.6	2
228.7	3
228.8	6
228.9	11
229.0	16
229.1	18
229.2	17
229.3	15
229.4	12
229.5	8
229.6	3
266.8	2
266.9	3
267.0	5
267.1	6
267.2	8
267.3	9
267.4	9
267.5	7
267.6	3
278.7	1
278.8	3
278.9	6
279.0	8
279.1	10
279.2	13
279.3	16
279.4	16
279.5	11
279.6	5
279.7	0
296.7	1
296.8	3
296.9	7
297.0	12
297.1	14
297.2	15
297.3	14
297.4	11
297.5	6
297.6	2
326.7	1
326.8	3
326.9	5
327.0	7
327.1	8
327.2	8
327.3	8
327.4	7
327.5	4
327.6	1
356.4	1
356.5	3
356.6	4
356.7	6
356.8	9
356.9	17
357.0	29
357.1	42
357.2	52
357.3	55
357.4	49
357.5	34
357.6	17
357.7	4
374.8	1
374.9	3
375.0	6
375.1	8
375.2	9
375.3	8
375.4	6
375.5	3
392.8	0
392.9	2
393.0	7
393.1	15
393.2	22
393.3	25
393.4	24
393.5	20
393.6	12
393.7	5
393.8	0
434.7	2
434.8	4
434.9	9
435.0	16
435.1	25
435.2	30
435.3	32
435.4	30
435.5	24
435.6	15
435.7	6
435.8	0
452.4	1
452.5	4
452.6	8
452.7	12
452.8	18
452.9	30
453.0	49
453.1	72
453.2	90
453.3	99
453.4	99
453.5	88
453.6	64
453.7	33
453.8	8
453.9	0
470.4	1
470.5	4
470.6	7
470.7	9
470.8	12
470.9	23
471.0	44
471.1	70
471.2	90
471.3	97
471.4	91
471.5	76
471.6	52
471.7	25
471.8	3
