Mass spectrum: Lagochilin; LC-ESI-QQQ; MS2; Frag=135.0V CID@5.0; [M+Na]+
Name: Lagochilin
Class: Terpenoids
Formula: C20H38O6
Exact mass: 374.5223
SMILES: C[C@@H]1CCC2[C@](C)(CC[C@H](O)[C@@]2(C)CO)[C@@]12CCC(CO)(CCO)O2.O
InChI: InChI=1S/C20H36O5.H2O/c1-14-4-5-15-17(2,12-22)16(24)6-7-18(15,3)20(14)9-8-19(13-23,25-20)10-11-21;/h14-16,21-24H,4-13H2,1-3H3;1H2/t14-,15?,16+,17+,18+,19?,20-;/m1./s1
Instrument: Agilent 6410 Triple Quadrupole LC/MS system
Instrument type: LC-ESI-QQQ
Ms type: MS2
Ion mode: POSITIVE
Precursor type: [M+Na]+
m/z	relative intensity
378.3	1
378.4	3
378.5	5
378.6	7
378.7	10
378.8	20
378.9	39
379.0	64
379.1	84
379.2	97
379.3	99
379.4	90
379.5	68
379.6	39
379.7	12
379.8	0
