Mass spectrum: Ergocalciferol; LC-ESI-QQQ; MS2; Frag=135.0V CID@15.0; [M+H]+
Name: Vitamin D2
Name: Ergocalciferol
Name: Viosterin
Name: Osteil
Name: Viosterol
Name: Ercalciol
Name: Irradiated ergosterol
Name: Condacaps
Name: Condocaps
Name: Condol
Name: Crtron
Name: Crystallina
Name: Daral
Name: (5Z,7E,22E)-(3S)-9,10-Secoergosta-5,7,10(19),22-tetraen-3-ol
Name: Davitin
Name: Deltalin
Name: Deratol
Name: Diactol
Name: Drisdol
Name: Ergorone
Name: Ertron
Name: Fortodyl
Name: Geltabs
Name: Hyperkil
Name: Irradiated ergosta-5,7,22-trien-3-beta-ol
Name: Metadee
Name: Mulsiferol
Name: Mykostin
Name: Oleovitamin D2
Name: Ostelin
Name: Rodinec
Name: Radsterin
Name: Sterogyl
Name: Vigantol
Class: Steroids
Formula: C28H44O
Exact mass: 396.6623
SMILES: C=C1CC[C@H](O)C/C1=C/C=C1\CCC[C@@]2(C)C1CCC2[C@H](C)/C=C/[C@H](C)C(C)C
InChI: InChI=1S/C28H44O/c1-19(2)20(3)9-10-22(5)26-15-16-27-23(8-7-17-28(26,27)6)12-13-24-18-25(29)14-11-21(24)4/h9-10,12-13,19-20,22,25-27,29H,4,7-8,11,14-18H2,1-3,5-6H3/b10-9+,23-12+,24-13-/t20-,22+,25-,26?,27?,28+/m0/s1
Instrument: Agilent 6410 Triple Quadrupole LC/MS system
Instrument type: LC-ESI-QQQ
Ms type: MS2
Ion mode: POSITIVE
Precursor type: [M+H]+
m/z	relative intensity
54.4	6
54.5	8
54.6	10
54.7	11
54.8	13
54.9	14
55.0	12
55.1	9
56.4	5
56.5	7
56.6	9
56.7	10
56.8	14
56.9	23
57.0	34
57.1	38
57.2	32
57.3	19
57.4	8
68.2	3
68.3	4
68.4	11
68.5	26
68.6	43
68.7	57
68.8	70
68.9	85
69.0	97
69.1	95
69.2	78
69.3	56
69.4	35
69.5	17
69.6	5
80.5	7
80.6	9
80.7	13
80.8	17
80.9	17
81.0	14
81.1	9
82.3	7
82.4	8
82.5	13
82.6	27
82.7	45
82.8	58
82.9	59
83.0	48
83.1	33
83.2	20
83.3	12
83.4	7
90.3	5
90.4	8
90.5	10
90.6	10
90.7	7
94.7	5
94.8	7
94.9	11
95.0	14
95.1	15
95.2	12
95.3	8
96.5	3
96.6	7
96.7	16
96.8	24
96.9	25
97.0	18
97.1	9
104.3	4
104.4	6
104.5	11
104.6	19
104.7	25
104.8	23
104.9	15
105.0	7
106.5	6
106.6	8
106.7	10
106.8	15
106.9	25
107.0	39
107.1	51
107.2	51
107.3	37
107.4	18
107.5	5
118.4	0
118.5	8
118.6	30
118.7	59
118.8	79
118.9	82
119.0	70
119.1	53
119.2	33
119.3	15
119.4	4
119.7	3
119.8	4
119.9	6
120.0	7
120.1	7
120.2	6
120.3	5
120.4	5
120.5	5
120.6	6
120.7	8
120.8	12
120.9	14
121.0	14
121.1	12
121.2	11
121.3	9
121.4	8
122.3	4
122.4	6
122.5	8
122.6	8
122.7	7
122.8	6
122.9	9
123.0	12
123.1	12
123.2	10
123.3	7
124.8	4
124.9	6
125.0	12
125.1	19
125.2	21
125.3	17
125.4	10
125.5	6
132.2	5
132.3	6
132.4	10
132.5	18
132.6	25
132.7	28
132.8	25
132.9	18
133.0	13
134.4	4
134.5	9
134.6	18
134.7	30
134.8	40
134.9	45
135.0	45
135.1	39
135.2	28
135.3	15
135.4	6
144.5	6
144.6	9
144.7	14
144.8	20
144.9	24
145.0	23
145.1	17
145.2	10
145.3	6
146.4	4
146.5	9
146.6	21
146.7	38
146.8	52
146.9	52
147.0	39
147.1	21
147.2	8
148.5	2
148.6	6
148.7	15
148.8	31
148.9	45
149.0	46
149.1	33
149.2	15
149.3	5
150.4	6
150.5	10
150.6	15
150.7	17
150.8	14
150.9	10
151.0	8
158.6	6
158.7	12
158.8	21
158.9	30
159.0	35
159.1	36
159.2	36
159.3	35
159.4	30
159.5	20
159.6	10
159.7	4
160.3	4
160.4	5
160.5	11
160.6	26
160.7	44
160.8	55
160.9	47
161.1	27
161.2	46
161.3	69
161.4	69
161.5	44
161.6	15
161.7	1
161.9	2
162.0	4
162.1	5
162.2	5
162.3	5
162.4	5
162.5	4
162.6	5
162.7	5
162.8	6
162.9	6
163.0	5
163.1	4
163.2	4
163.3	4
163.4	5
163.5	6
163.6	5
163.7	5
163.8	4
163.9	4
164.0	5
164.1	5
164.2	5
164.3	5
164.4	4
164.5	4
164.6	5
164.7	6
164.8	6
164.9	5
165.0	4
165.1	4
165.2	5
165.3	6
165.4	7
165.5	6
165.6	5
165.7	4
165.8	4
165.9	5
166.0	5
166.1	5
166.2	5
166.3	4
166.4	4
166.5	4
166.6	5
166.7	6
166.8	6
166.9	5
167.0	4
167.1	4
167.2	5
167.3	5
167.4	5
167.5	5
167.6	4
167.7	4
167.8	5
167.9	6
168.0	6
168.1	5
168.2	5
168.3	4
168.4	5
168.5	5
168.6	6
168.7	5
168.8	5
168.9	4
169.0	4
169.1	5
169.2	5
169.3	5
169.4	5
169.5	4
169.6	4
169.7	4
169.8	5
169.9	6
170.0	5
170.1	5
170.2	4
170.3	4
170.4	5
170.5	6
170.6	7
170.7	6
170.8	5
170.9	4
171.0	4
171.1	5
171.2	5
171.3	5
171.4	4
171.5	4
171.6	5
171.7	5
171.8	5
171.9	5
172.0	5
172.1	4
172.2	4
172.3	5
172.4	6
172.5	6
172.6	7
172.7	7
172.8	10
172.9	14
173.0	17
173.1	16
173.2	11
173.3	6
174.7	3
174.8	8
174.9	23
175.0	45
175.1	60
175.2	55
175.3	34
175.4	12
176.4	6
176.5	7
176.6	9
176.7	12
176.8	14
176.9	17
177.0	17
186.7	5
186.8	7
186.9	16
187.0	38
187.1	62
187.2	70
187.3	54
187.4	27
187.5	8
188.6	5
188.7	9
188.8	21
188.9	39
189.0	53
189.1	51
189.2	34
189.3	15
189.4	5
198.5	4
198.6	6
198.7	10
198.8	16
198.9	23
199.0	26
199.1	25
199.2	18
199.3	10
199.4	5
202.9	5
203.0	7
203.1	9
203.2	9
203.3	7
203.4	6
203.5	6
203.6	7
203.7	7
203.8	6
203.9	5
204.0	4
204.1	4
204.2	4
204.3	5
204.4	5
204.5	5
204.6	5
204.7	4
204.8	4
204.9	4
205.0	5
205.1	5
205.2	5
205.3	5
205.4	5
205.5	5
205.6	6
205.7	6
205.8	6
205.9	5
206.0	5
206.1	5
206.2	6
206.3	6
206.4	6
206.5	5
206.6	4
206.7	4
206.8	4
206.9	5
207.0	6
207.1	6
207.2	5
207.3	4
207.4	4
207.5	5
207.6	5
207.7	6
207.8	5
207.9	5
208.0	4
208.1	4
208.2	5
208.3	6
208.4	5
208.5	5
208.6	4
208.7	4
208.8	5
208.9	6
209.0	6
209.1	5
209.2	4
209.3	4
209.4	5
209.5	5
209.6	6
209.7	5
209.8	4
209.9	4
210.0	4
210.1	5
210.2	6
210.3	6
210.4	6
210.5	5
210.6	5
210.7	5
210.8	6
210.9	6
211.0	5
211.1	4
211.2	4
211.3	5
211.4	5
211.5	6
211.6	5
211.7	5
211.8	4
211.9	4
212.0	5
212.1	5
212.2	5
212.3	4
212.4	4
212.5	4
212.6	5
212.7	6
212.8	6
212.9	6
213.0	5
213.1	4
213.2	5
213.3	5
213.4	6
213.5	5
213.6	4
213.7	3
213.8	4
213.9	5
214.0	7
214.1	7
214.2	5
214.3	3
214.4	3
214.5	4
214.6	7
214.7	12
214.8	21
214.9	29
215.0	31
215.1	25
215.2	17
215.3	12
215.4	9
228.8	6
228.9	7
229.0	12
229.1	23
229.2	37
229.3	43
229.4	36
229.5	20
229.6	7
230.6	5
230.7	7
230.8	10
230.9	14
231.0	18
231.1	19
231.2	15
231.3	9
231.4	5
252.9	4
253.0	6
253.1	9
253.2	9
253.3	7
256.4	5
256.5	8
256.6	14
256.7	22
256.8	27
256.9	25
257.0	16
257.1	8
268.9	5
269.0	8
269.1	10
269.2	11
269.3	10
269.4	7
270.3	5
270.4	7
270.5	9
270.6	10
270.7	11
270.8	11
270.9	10
271.0	8
271.1	7
271.2	7
271.3	7
271.4	8
271.5	8
271.6	7
271.7	5
271.8	4
271.9	4
272.0	4
272.1	5
272.2	5
272.3	6
272.4	6
272.5	5
272.6	5
272.7	5
272.8	5
272.9	6
273.0	6
273.1	5
273.2	4
273.3	4
273.4	4
273.5	5
273.6	6
273.7	6
273.8	5
273.9	4
274.0	4
274.1	5
274.2	6
274.3	5
274.4	5
274.5	4
274.6	4
274.7	5
274.8	6
274.9	6
275.0	5
275.1	4
275.2	4
275.3	5
275.4	5
275.5	5
275.6	5
275.7	4
275.8	4
275.9	4
276.0	5
276.1	6
276.2	5
276.3	5
276.4	4
276.5	4
276.6	4
276.7	5
276.8	6
276.9	5
277.0	5
277.1	4
277.2	4
277.3	5
277.4	5
277.5	5
277.6	5
277.7	4
277.8	5
277.9	5
278.0	6
278.1	6
278.2	5
278.3	4
278.4	4
278.5	4
278.6	5
278.7	5
278.8	5
278.9	5
279.0	5
279.1	5
279.2	5
279.3	5
279.4	5
279.5	5
279.6	5
279.7	5
279.8	5
279.9	5
280.0	6
280.1	5
280.2	5
280.3	4
280.4	4
280.5	5
280.6	6
280.7	6
280.8	5
280.9	4
281.0	4
281.1	5
281.2	6
281.3	6
281.4	5
281.5	4
281.6	4
281.7	4
281.8	5
281.9	6
282.0	5
282.1	5
282.2	4
282.3	4
282.4	5
282.5	6
282.6	6
282.7	5
282.8	4
282.9	4
283.0	5
283.1	6
283.2	6
283.3	5
283.4	5
283.5	4
283.6	4
283.7	5
283.8	5
283.9	5
284.0	5
284.1	4
284.2	4
284.3	5
284.4	5
284.5	5
284.6	5
284.7	5
284.8	5
284.9	6
285.0	6
285.1	6
285.2	6
285.3	5
285.4	4
285.5	4
285.6	5
285.7	5
285.8	5
285.9	5
286.0	4
286.1	4
286.2	4
286.3	5
286.4	6
286.5	5
286.6	5
286.7	4
286.8	5
286.9	6
287.0	7
287.1	6
287.2	5
287.3	4
287.4	4
287.5	5
287.6	5
287.7	5
287.8	5
287.9	4
288.0	4
288.1	4
288.2	5
288.3	6
288.4	5
288.5	4
288.6	3
288.7	4
288.8	5
288.9	5
289.0	5
289.1	4
289.2	4
289.3	4
289.4	5
289.5	6
289.6	6
289.7	5
289.8	4
289.9	4
290.0	4
290.1	5
290.2	5
290.3	5
290.4	5
290.5	4
290.6	4
290.7	5
290.8	5
290.9	5
291.0	4
291.1	4
291.2	4
291.3	5
291.4	6
291.5	6
291.6	5
291.7	5
291.8	4
291.9	4
292.0	5
292.1	5
292.2	5
292.3	5
292.4	4
292.5	4
292.6	5
292.7	6
292.8	6
292.9	5
293.0	4
293.1	4
293.2	4
293.3	5
293.4	6
293.5	6
293.6	5
293.7	4
293.8	4
293.9	5
294.0	6
294.1	6
294.2	5
294.3	4
294.4	4
294.5	4
294.6	5
294.7	6
294.8	8
294.9	10
295.0	12
295.1	14
295.2	14
295.3	12
295.4	8
308.7	5
308.8	7
308.9	9
309.0	12
309.1	13
309.2	12
309.3	10
309.4	8
336.9	6
337.0	6
337.1	10
337.2	16
337.3	22
337.4	21
337.5	14
337.6	6
378.9	1
379.0	4
379.1	19
379.2	48
379.3	79
379.4	89
379.5	67
379.6	31
379.7	5
396.4	4
396.5	7
396.6	17
396.7	33
396.8	48
396.9	55
397.0	63
397.1	78
397.2	94
397.3	92
397.4	67
397.5	33
397.6	10
