Mass spectrum: Alloside B; LC-ESI-QQQ; MS2;  Frag=135.0V CID@5.0 ; [M+Na]+
Name: Alloside B
Class: Steroids
Formula: C39H66O14
Exact mass: 758.95247
SMILES: CC(C)CCC(O)[C@@H](C)C1C(O[C@@H]2OC(CO)[C@@H](O)C(O)C2O)CC2C3CC=C4C[C@@H](O)CC(O[C@@H]5OC(CO)[C@@H](O)C(O)C5O)[C@]4(C)C3CC[C@@]21C
InChI: InChI=1S/C39H66O14/c1-17(2)6-9-24(43)18(3)29-25(50-36-34(48)32(46)30(44)26(15-40)51-36)14-23-21-8-7-19-12-20(42)13-28(39(19,5)22(21)10-11-38(23,29)4)53-37-35(49)33(47)31(45)27(16-41)52-37/h7,17-18,20-37,40-49H,6,8-16H2,1-5H3/t18-,20-,21?,22?,23?,24?,25?,26?,27?,28?,29?,30-,31-,32?,33?,34?,35?,36-,37+,38+,39+/m1/s1
Instrument: Agilent 6410 Triple Quadrupole LC/MS system
Instrument type: LC-ESI-QQQ
Ms type: MS2
Ion mode: POSITIVE
Precursor type: [M+Na]+
m/z	relative intensity
50.8	4
50.9	5
51.0	7
51.1	7
51.2	7
51.3	6
51.4	4
51.9	4
52.0	5
52.1	6
52.2	6
52.3	6
52.4	6
52.5	5
52.6	5
52.7	4
52.8	4
52.9	4
53.0	5
53.1	5
53.2	5
53.3	5
53.4	6
53.5	6
53.6	6
53.7	5
54.2	4
54.3	5
54.4	6
54.5	6
54.6	7
54.7	7
54.8	6
54.9	5
55.0	5
55.1	5
55.2	5
55.3	6
55.4	6
55.5	6
55.6	5
55.7	4
55.8	3
55.9	3
56.0	3
56.1	3
56.2	3
56.3	4
56.4	4
56.5	5
56.6	6
56.7	6
56.8	6
56.9	6
66.3	3
66.4	5
66.5	6
66.6	7
66.7	7
66.8	7
66.9	6
67.0	5
72.1	4
72.2	5
72.3	6
72.4	7
72.5	7
72.6	6
72.7	5
87.5	4
87.6	5
87.7	6
87.8	6
87.9	7
88.0	8
88.1	7
90.9	3
91.0	5
91.1	6
91.2	7
91.3	8
91.4	8
91.5	7
91.6	6
101.0	3
101.1	4
101.2	5
101.3	6
101.4	7
101.5	6
101.6	5
103.2	3
103.3	4
103.4	5
103.5	5
103.6	6
103.7	6
103.8	6
103.9	5
107.9	4
108.0	5
108.1	6
108.2	7
108.3	7
108.4	6
108.5	5
108.6	4
108.7	4
108.8	4
108.9	5
109.0	5
109.1	5
109.2	5
109.3	5
109.4	4
109.5	4
109.6	4
109.7	3
109.8	3
109.9	4
110.0	5
110.1	6
110.2	6
110.3	6
110.4	6
110.5	5
110.6	5
110.7	5
110.8	4
110.9	3
111.0	2
111.1	2
111.2	2
111.3	3
111.4	4
111.5	5
111.6	5
111.7	4
113.4	3
113.5	4
113.6	6
113.7	7
113.8	6
113.9	5
117.8	2
117.9	4
118.0	6
118.1	7
118.2	7
118.3	6
118.4	4
128.9	4
129.0	5
129.1	7
129.2	7
129.3	7
129.4	6
129.5	5
129.6	4
129.7	3
130.1	2
130.2	3
130.3	4
130.4	5
130.5	5
130.6	5
134.5	2
134.6	4
134.7	5
134.8	6
134.9	5
135.0	5
135.1	4
135.2	4
135.3	4
135.4	4
135.5	5
135.6	5
135.7	5
135.8	5
135.9	5
136.0	6
136.1	6
136.2	6
136.3	5
136.4	3
136.8	2
136.9	4
137.0	6
137.1	6
137.2	6
137.3	5
137.4	4
138.0	3
138.1	4
138.2	5
138.3	6
138.4	6
138.5	5
144.5	1
144.6	3
144.7	5
144.8	5
144.9	6
145.0	6
145.1	6
145.2	5
145.3	3
145.7	3
145.8	4
145.9	5
146.0	6
146.1	6
146.2	6
146.3	6
146.4	5
146.5	5
146.6	4
146.7	5
146.8	5
146.9	5
147.0	5
147.1	5
147.2	5
147.3	5
147.4	5
147.5	5
147.6	4
147.7	3
148.1	2
148.2	3
148.3	5
148.4	6
148.5	7
148.6	6
148.7	5
148.8	4
149.2	3
149.3	5
149.4	6
149.5	6
149.6	6
151.4	3
151.5	5
151.6	6
151.7	6
151.8	6
151.9	5
152.0	5
152.1	5
152.2	4
152.3	4
152.4	4
152.5	4
152.6	4
152.7	5
152.8	5
152.9	5
153.0	5
153.1	5
153.2	5
153.3	4
153.4	4
153.5	3
153.6	4
153.7	4
153.8	5
153.9	5
154.0	5
154.1	5
154.2	4
154.3	4
154.4	5
154.5	5
154.6	5
154.7	5
154.8	4
154.9	4
155.0	4
155.1	4
155.2	4
155.3	5
155.4	5
155.5	5
155.6	5
155.7	4
155.8	3
155.9	3
156.0	4
156.1	5
156.2	6
156.3	6
156.4	6
156.5	6
156.6	5
156.7	4
157.0	2
157.1	4
157.2	5
157.3	6
157.4	6
157.5	6
159.2	3
159.3	5
159.4	6
159.5	7
159.6	8
159.7	7
159.8	7
159.9	5
164.8	5
164.9	6
165.0	7
165.1	7
165.2	7
167.0	3
167.1	5
167.2	6
167.3	6
167.4	6
167.5	5
167.6	4
167.7	4
167.8	4
167.9	4
168.0	5
168.1	5
168.2	6
168.3	7
168.4	7
168.5	6
168.6	6
168.7	6
168.8	5
168.9	5
169.0	4
169.1	4
169.2	3
169.3	4
169.4	4
169.5	5
169.6	5
169.7	5
169.8	5
169.9	4
170.0	4
170.1	4
170.2	4
170.3	4
170.4	5
170.5	5
170.6	6
170.7	6
170.8	6
170.9	6
171.0	6
171.1	5
171.2	4
171.3	4
171.4	4
171.5	4
171.6	4
171.7	6
171.8	6
171.9	7
172.0	6
172.1	5
172.2	5
172.3	5
172.4	5
172.5	5
172.6	5
172.7	5
172.8	4
172.9	4
173.0	4
173.1	4
173.2	5
173.3	5
173.4	5
173.5	5
173.6	5
173.7	5
173.8	5
173.9	6
174.0	6
174.1	7
174.2	7
174.3	6
176.0	5
176.1	6
176.2	7
176.3	8
176.4	9
176.5	8
176.6	7
176.7	5
177.0	2
177.1	3
177.2	5
177.3	7
177.4	7
177.5	7
178.1	5
178.2	6
178.3	7
178.4	8
178.5	8
178.6	8
178.7	7
178.8	6
182.8	3
182.9	5
183.0	7
183.1	8
183.2	7
183.3	6
183.4	4
183.7	2
183.8	4
183.9	6
184.0	7
184.1	8
184.2	8
184.3	7
184.4	6
190.6	4
190.7	5
190.8	6
190.9	7
191.0	7
191.1	6
191.2	5
191.3	5
191.4	4
191.5	5
191.6	5
191.7	5
191.8	5
191.9	5
192.0	5
192.1	5
192.2	5
192.3	5
192.4	5
192.5	5
192.6	5
192.7	5
192.8	5
192.9	5
193.0	5
193.1	6
193.2	6
193.3	6
193.4	5
193.5	5
193.6	4
193.7	4
193.8	4
193.9	4
194.0	5
194.1	6
194.2	7
194.3	7
194.4	7
194.5	7
194.6	5
198.4	3
198.5	4
198.6	6
198.7	6
198.8	6
198.9	5
199.0	4
199.1	5
199.2	6
199.3	7
199.4	7
199.5	6
199.6	6
199.7	6
199.8	6
199.9	7
200.0	7
200.1	6
200.2	6
200.3	5
200.4	5
200.5	6
200.6	6
200.7	6
200.8	6
200.9	5
201.0	5
201.1	5
201.2	4
201.3	3
201.4	2
201.5	2
201.6	3
201.7	4
201.8	4
201.9	5
202.0	6
202.1	6
202.2	6
202.3	5
202.4	4
202.5	4
202.6	5
202.7	5
202.8	5
202.9	4
203.0	4
203.1	4
203.2	5
203.3	5
203.4	6
203.5	6
203.6	6
203.7	5
203.8	4
203.9	5
204.0	6
204.1	6
204.2	6
204.3	5
204.4	4
204.5	4
204.6	4
204.7	4
204.8	4
204.9	4
205.0	4
205.1	5
205.2	6
205.3	6
205.4	7
205.5	6
207.1	5
207.2	6
207.3	6
207.4	7
207.5	7
207.6	7
207.7	6
207.8	5
215.2	4
215.3	5
215.4	7
215.5	7
215.6	6
215.7	5
217.3	3
217.4	5
217.5	7
217.6	8
217.7	8
217.8	7
217.9	7
218.0	6
218.1	6
218.2	5
218.7	3
218.8	5
218.9	6
219.0	6
219.1	6
219.2	5
219.3	5
219.4	4
219.5	4
219.6	4
219.7	4
219.8	5
219.9	6
220.0	6
220.1	6
222.9	3
223.0	4
223.1	5
223.2	5
223.3	6
223.4	6
223.5	6
223.6	6
223.7	5
223.8	5
223.9	5
224.0	5
224.1	6
224.2	6
224.3	6
224.4	5
245.1	3
245.2	5
245.3	6
245.4	6
245.5	6
245.6	6
245.7	5
245.8	5
245.9	4
246.0	3
246.1	3
246.2	3
246.3	3
246.4	4
246.5	4
246.6	4
246.7	4
246.8	5
246.9	5
247.0	5
247.1	5
247.2	4
247.3	4
247.4	5
247.5	5
247.6	6
247.7	7
247.8	7
247.9	7
248.0	7
248.1	5
248.2	4
259.9	4
260.0	4
260.1	5
260.2	6
260.3	7
260.4	7
260.5	6
260.6	5
262.1	3
262.2	5
262.3	6
262.4	6
262.5	6
262.6	6
262.7	5
262.8	4
262.9	4
263.0	4
263.1	3
263.2	3
263.3	3
263.4	3
263.5	3
263.6	4
263.7	5
263.8	6
263.9	6
264.0	6
264.1	5
264.2	4
264.3	4
264.4	4
264.5	4
264.6	4
264.7	5
264.8	5
264.9	5
265.0	4
265.1	3
265.2	3
265.3	3
265.4	3
265.5	4
265.6	5
265.7	6
265.8	7
265.9	6
266.0	6
272.3	2
272.4	4
272.5	5
272.6	6
272.7	6
272.8	5
272.9	5
273.0	4
273.1	4
273.2	4
273.3	4
273.4	4
273.5	4
273.6	5
273.7	6
273.8	7
273.9	7
274.0	6
274.1	5
274.2	4
274.3	4
274.4	4
274.5	5
274.6	6
274.7	8
274.8	8
274.9	8
275.0	7
279.8	4
279.9	5
280.0	6
280.1	6
280.2	6
280.3	6
280.4	7
280.5	7
280.6	7
280.7	6
280.8	5
280.9	5
281.0	5
281.1	5
281.2	5
281.3	5
281.4	5
281.5	5
281.6	5
282.1	3
282.2	5
282.3	6
282.4	7
282.5	7
282.6	6
286.7	5
286.8	6
286.9	7
287.0	7
287.1	7
287.2	6
290.1	4
290.2	5
290.3	6
290.4	7
290.5	7
290.6	7
294.8	5
294.9	6
295.0	7
295.1	8
295.2	7
295.3	6
295.4	6
295.5	5
295.6	5
295.7	5
295.8	5
295.9	5
296.0	5
296.1	6
296.2	6
296.3	5
296.4	4
296.5	4
296.6	4
296.7	4
296.8	5
296.9	5
297.0	6
297.1	6
297.2	6
297.3	5
297.9	4
298.0	5
298.1	6
298.2	7
298.3	7
298.4	6
298.5	6
298.6	5
298.7	5
298.8	5
298.9	5
299.0	6
299.1	6
299.2	6
299.3	5
299.4	5
299.5	5
299.6	5
299.7	5
299.8	4
299.9	3
300.0	4
300.1	5
300.2	6
300.3	6
300.4	7
300.5	6
300.6	5
303.4	2
303.5	3
303.6	5
303.7	6
303.8	6
303.9	6
304.0	5
304.1	6
304.2	6
304.3	6
304.4	6
304.5	5
304.6	4
304.7	5
304.8	6
304.9	7
305.0	7
305.1	6
305.2	5
305.3	4
305.4	4
305.5	4
305.6	3
305.7	3
305.8	4
305.9	6
306.0	6
306.1	6
306.2	5
306.3	4
306.4	4
306.5	4
306.6	5
306.7	5
306.8	6
306.9	6
307.0	6
307.1	6
307.2	6
307.3	6
307.4	6
307.5	5
307.6	5
307.7	5
307.8	5
307.9	5
308.0	4
308.1	3
308.2	3
308.3	3
308.4	4
308.5	4
308.6	4
308.7	3
308.8	3
308.9	4
309.0	5
309.1	6
309.2	5
309.3	5
309.4	5
309.5	5
309.6	5
309.7	6
309.8	5
309.9	4
310.0	3
310.1	3
310.2	4
310.3	5
310.4	6
310.5	6
310.6	6
310.7	6
310.8	5
310.9	5
311.0	4
311.1	4
311.2	5
311.3	5
311.4	5
311.5	5
311.6	6
311.7	6
311.8	5
311.9	4
312.0	4
312.1	3
312.2	4
312.3	4
312.4	4
312.5	5
312.6	6
312.7	6
312.8	6
312.9	5
313.0	4
313.1	4
313.2	4
313.3	4
313.4	4
313.5	4
313.6	5
313.7	6
313.8	6
313.9	6
314.0	6
314.1	6
314.2	5
315.8	2
315.9	3
316.0	4
316.1	6
316.2	6
316.3	7
316.4	7
316.5	6
320.4	3
320.5	5
320.6	6
320.7	7
320.8	7
320.9	7
322.6	4
322.7	5
322.8	6
322.9	7
323.0	7
323.1	7
323.2	6
323.3	5
325.9	2
326.0	3
326.1	5
326.2	6
326.3	7
326.4	7
326.5	7
326.6	6
345.1	4
345.2	5
345.3	6
345.4	6
345.5	6
345.6	4
345.7	2
346.0	1
346.1	2
346.2	4
346.3	5
346.4	6
346.5	5
346.6	5
351.6	4
351.7	5
351.8	6
351.9	6
352.0	6
352.1	5
352.6	4
352.7	6
352.8	7
352.9	8
353.0	8
353.1	6
353.2	4
353.3	2
353.7	1
353.8	2
353.9	4
354.0	5
354.1	5
354.2	5
354.3	4
354.4	4
354.5	4
354.6	4
354.7	4
354.8	4
354.9	5
355.0	6
355.1	6
355.2	5
355.3	5
355.4	4
355.5	5
355.6	5
355.7	4
355.8	3
355.9	2
356.0	2
356.1	3
356.2	5
356.3	6
356.4	7
356.5	7
356.6	6
356.7	5
360.5	3
360.6	5
360.7	6
360.8	7
360.9	7
361.0	6
361.1	6
361.2	5
361.3	4
366.2	5
366.3	6
366.4	7
366.5	7
366.6	6
366.7	5
367.2	3
367.3	4
367.4	5
367.5	6
367.6	7
367.7	7
367.8	7
367.9	5
368.0	4
368.4	3
368.5	5
368.6	6
368.7	6
368.8	6
368.9	6
369.0	5
369.1	4
369.2	4
369.3	4
369.4	4
369.5	4
369.6	3
369.7	3
369.8	4
369.9	5
370.0	6
370.1	6
370.2	5
370.3	4
370.4	3
370.5	3
370.6	3
370.7	3
370.8	4
370.9	5
371.0	5
371.1	5
371.6	3
371.7	5
371.8	5
371.9	6
372.0	5
372.1	5
372.2	4
372.3	4
372.4	4
372.5	4
372.6	3
372.7	2
372.8	2
372.9	3
373.0	4
373.1	5
373.2	6
373.3	6
373.4	5
373.9	3
374.0	5
374.1	7
374.2	8
374.3	8
374.4	7
374.5	6
374.6	5
374.7	5
374.8	5
374.9	5
375.0	5
375.1	4
375.2	5
375.3	5
375.4	5
375.5	4
375.6	4
375.7	4
375.8	4
375.9	3
376.0	3
376.1	4
376.2	4
376.3	4
376.4	5
376.5	5
376.6	6
376.7	6
376.8	5
376.9	4
377.0	3
377.1	3
377.2	3
377.3	4
377.4	4
377.5	5
377.6	6
377.7	6
377.8	6
377.9	5
378.0	5
379.7	4
379.8	6
379.9	7
380.0	8
380.1	7
380.2	7
380.3	5
387.3	4
387.4	5
387.5	6
387.6	7
387.7	7
387.8	6
387.9	6
388.0	6
388.1	6
389.6	3
389.7	5
389.8	6
389.9	6
390.0	6
390.1	6
390.2	5
390.3	4
390.4	4
390.5	4
390.6	5
390.7	5
390.8	5
390.9	5
391.0	5
391.1	4
391.2	5
391.3	5
391.4	5
391.5	6
391.6	6
391.7	5
391.8	4
391.9	4
392.0	5
392.1	6
392.2	6
392.3	7
392.4	6
392.5	5
392.6	4
392.7	4
392.8	4
392.9	5
393.0	6
393.1	6
393.2	6
393.3	5
393.4	5
393.5	5
393.6	5
393.7	6
393.8	6
393.9	6
394.0	5
394.1	5
394.2	5
394.3	4
394.4	4
394.5	3
394.6	3
394.7	3
394.8	3
394.9	3
395.0	3
395.1	4
395.2	5
395.3	6
395.4	7
395.5	7
395.6	6
395.7	5
407.5	3
407.6	4
407.7	5
407.8	6
407.9	6
408.0	5
408.1	5
408.2	4
408.3	4
408.4	5
408.5	6
408.6	7
408.7	8
408.8	8
408.9	7
419.8	3
419.9	5
420.0	6
420.1	7
420.2	7
420.3	6
421.2	4
421.3	5
421.4	6
421.5	6
421.6	6
421.7	6
421.8	5
421.9	4
422.0	4
422.1	4
422.2	5
422.3	6
422.4	7
422.5	6
422.6	5
424.4	5
424.5	6
424.6	7
424.7	7
424.8	6
424.9	4
425.2	2
425.3	4
425.4	5
425.5	6
425.6	7
425.7	6
434.4	3
434.5	4
434.6	6
434.7	7
434.8	8
434.9	7
435.0	5
439.8	3
439.9	4
440.0	5
440.1	6
440.2	6
440.3	6
440.4	5
440.5	4
441.1	2
441.2	4
441.3	6
441.4	7
441.5	7
441.6	7
441.7	5
445.4	2
445.5	4
445.6	5
445.7	5
445.8	6
445.9	6
446.0	6
446.1	6
446.2	6
446.3	5
446.4	5
446.5	4
446.6	5
446.7	5
446.8	6
446.9	7
447.0	7
447.1	6
447.8	3
447.9	4
448.0	5
448.1	6
448.2	6
448.3	6
448.4	5
448.5	4
449.0	3
449.1	4
449.2	5
449.3	5
449.4	5
449.5	5
449.6	5
449.7	4
449.8	4
449.9	3
450.0	4
450.1	5
450.2	5
450.3	5
450.4	5
450.5	4
450.6	4
450.7	3
450.8	3
450.9	3
451.0	3
451.1	3
451.2	4
451.3	4
451.4	4
451.5	5
451.6	5
451.7	5
451.8	4
451.9	4
452.0	3
452.1	3
452.2	3
452.3	3
452.4	4
452.5	4
452.6	4
452.7	4
452.8	3
452.9	2
453.0	2
453.1	2
453.2	2
453.3	3
453.4	4
453.5	5
453.6	5
453.7	5
453.8	5
453.9	5
454.0	4
454.1	3
454.2	3
454.3	3
454.4	4
454.5	5
454.6	5
454.7	5
454.8	5
454.9	5
455.0	5
455.1	4
473.6	3
473.7	4
473.8	6
473.9	7
474.0	8
474.1	6
474.2	4
475.9	4
476.0	5
476.1	5
476.2	6
476.3	6
476.4	5
476.9	4
477.0	5
477.1	6
477.2	6
477.3	6
477.4	5
477.5	4
478.0	2
478.1	4
478.2	5
478.3	6
478.4	7
478.5	6
478.6	5
483.5	3
483.6	4
483.7	5
483.8	6
483.9	7
484.0	8
484.1	7
484.2	6
484.3	4
484.7	3
484.8	4
484.9	6
485.0	6
485.1	6
485.2	5
485.7	4
485.8	5
485.9	6
486.0	7
486.1	7
486.2	7
489.1	3
489.2	4
489.3	6
489.4	7
489.5	7
489.6	6
494.8	2
494.9	4
495.0	6
495.1	8
495.2	8
495.3	7
495.4	6
495.5	5
495.9	4
496.0	5
496.1	6
496.2	7
496.3	7
496.4	7
496.5	7
496.6	6
496.7	6
496.8	5
496.9	4
497.0	5
497.1	5
497.2	5
497.3	5
497.4	5
497.5	5
497.6	4
497.7	4
497.8	3
497.9	3
498.0	3
498.1	4
498.2	4
498.3	5
498.4	6
498.5	6
498.6	6
498.7	6
498.8	5
498.9	5
499.0	5
499.1	6
499.2	6
499.3	6
499.4	7
499.5	7
499.6	7
499.7	6
499.8	5
503.7	4
503.8	5
503.9	6
504.0	7
504.1	7
504.2	6
504.3	5
504.4	4
504.5	4
504.6	4
504.7	4
504.8	4
504.9	5
505.0	6
505.1	7
505.2	7
505.3	7
505.4	5
506.1	4
506.2	5
506.3	6
506.4	7
506.5	8
506.6	7
506.7	6
521.9	5
522.0	6
522.1	7
522.2	8
522.3	7
522.4	7
522.5	7
522.6	7
522.7	6
522.8	6
522.9	5
523.0	5
523.1	5
523.2	6
523.3	7
523.4	6
523.5	6
523.6	5
523.7	4
523.8	4
523.9	4
524.0	5
524.1	5
524.2	5
524.3	6
524.4	5
524.5	4
524.9	3
525.0	4
525.1	5
525.2	6
525.3	7
525.4	7
525.5	7
525.6	6
526.1	5
526.2	6
526.3	6
526.4	7
526.5	7
526.6	6
526.7	5
528.8	4
528.9	6
529.0	7
529.1	7
529.2	6
529.3	4
530.7	4
530.8	5
530.9	6
531.0	7
531.1	8
531.2	7
531.3	6
531.4	5
544.0	4
544.1	5
544.2	6
544.3	6
544.4	7
544.5	7
544.6	6
544.7	5
549.9	4
550.0	5
550.1	6
550.2	6
550.3	6
556.4	3
556.5	4
556.6	6
556.7	7
556.8	7
556.9	6
557.0	4
561.0	3
561.1	4
561.2	5
561.3	6
561.4	5
561.5	4
561.6	3
561.7	3
561.8	3
561.9	2
562.0	2
562.1	3
562.2	3
562.3	4
562.4	6
562.5	6
562.6	6
562.7	5
563.4	3
563.5	5
563.6	6
563.7	8
563.8	8
563.9	6
564.0	5
567.7	3
567.8	4
567.9	5
568.0	6
568.1	7
568.2	7
568.3	6
568.4	4
568.9	3
569.0	5
569.1	6
569.2	7
569.3	7
569.4	6
574.4	2
574.5	4
574.6	6
574.7	6
574.8	6
581.1	2
581.2	3
581.3	5
581.4	6
581.5	7
581.6	8
581.7	7
581.8	6
586.0	3
586.1	4
586.2	5
586.3	5
586.4	5
586.5	5
586.6	4
586.7	4
586.8	3
586.9	3
587.0	3
587.1	3
587.2	3
587.3	3
587.4	3
587.5	3
587.6	3
587.7	2
587.8	3
587.9	3
588.0	4
588.1	4
588.2	4
588.3	4
588.4	5
588.5	5
588.6	5
588.7	5
588.8	4
588.9	4
589.0	5
589.1	6
589.2	8
589.3	8
589.4	7
589.5	5
596.8	3
596.9	5
597.0	6
597.1	7
597.2	7
597.3	5
597.4	4
598.1	3
598.2	4
598.3	5
598.4	6
598.5	7
598.6	7
598.7	6
602.5	3
602.6	5
602.7	6
602.8	7
602.9	7
603.0	6
606.9	3
607.0	4
607.1	5
607.2	6
607.3	7
607.4	7
607.5	6
612.6	3
612.7	5
612.8	7
612.9	7
613.0	7
613.1	7
616.0	4
616.1	5
616.2	6
616.3	7
616.4	7
616.5	6
624.0	5
624.1	6
624.2	8
624.3	9
624.4	8
624.5	7
624.6	4
625.0	3
625.1	4
625.2	6
625.3	7
625.4	7
625.5	6
625.6	6
625.7	5
625.8	4
625.9	4
626.0	4
626.1	4
626.2	5
626.3	6
626.4	7
626.5	8
626.6	8
626.7	7
626.8	5
639.6	3
639.7	4
639.8	6
639.9	7
640.0	7
640.1	6
640.8	5
640.9	6
641.0	7
641.1	7
641.2	6
641.3	5
645.0	4
645.1	5
645.2	6
645.3	7
645.4	7
645.5	7
645.6	6
645.7	5
645.8	4
645.9	4
646.0	4
646.1	4
646.2	3
646.3	4
646.4	4
646.5	4
646.6	4
646.7	4
646.8	4
646.9	4
647.0	4
647.1	5
647.2	5
647.3	6
647.4	6
647.5	6
647.6	6
647.7	5
647.8	5
647.9	4
648.0	4
648.1	3
648.2	3
648.3	4
648.4	4
648.5	5
648.6	5
648.7	5
648.8	6
648.9	6
649.0	6
649.1	6
649.2	5
650.8	5
650.9	6
651.0	7
651.1	7
651.2	7
651.3	7
654.2	4
654.3	5
654.4	6
654.5	7
654.6	6
654.7	5
656.3	4
656.4	6
656.5	7
656.6	8
656.7	8
656.8	7
671.0	4
671.1	5
671.2	6
671.3	7
671.4	7
671.5	6
671.6	4
672.1	3
672.2	4
672.3	5
672.4	6
672.5	6
672.6	5
675.5	4
675.6	5
675.7	7
675.8	6
675.9	6
676.0	5
681.1	3
681.2	4
681.3	5
681.4	6
681.5	6
681.6	6
681.7	6
681.8	4
685.6	4
685.7	5
685.8	6
685.9	7
686.0	6
694.8	5
694.9	6
695.0	7
695.1	7
695.2	7
695.3	5
695.4	4
701.4	4
701.5	6
701.6	7
701.7	8
701.8	7
701.9	5
708.0	4
708.1	5
708.2	6
708.3	7
708.4	7
708.5	7
708.6	6
708.7	5
708.8	5
708.9	4
709.0	3
709.1	3
709.2	3
709.3	4
709.4	5
709.5	6
709.6	6
709.7	6
709.8	6
709.9	5
710.0	5
710.1	4
710.2	4
710.3	5
710.4	5
710.5	5
710.6	5
710.7	6
710.8	6
710.9	6
711.0	5
711.4	3
711.5	5
711.6	6
711.7	7
711.8	8
711.9	8
712.0	7
712.1	5
719.3	4
719.4	6
719.5	7
719.6	8
719.7	7
719.8	6
719.9	5
720.3	3
720.4	4
720.5	5
720.6	6
720.7	6
720.8	5
720.9	5
721.0	5
721.6	3
721.7	4
721.8	6
721.9	7
722.0	7
722.1	7
722.2	6
722.3	5
722.4	5
722.5	4
722.6	4
722.7	3
722.8	3
722.9	4
723.0	5
723.1	6
723.2	7
723.3	6
723.4	6
723.5	5
723.6	5
723.7	5
723.8	4
723.9	4
724.0	3
724.1	4
724.2	5
724.3	5
724.4	5
724.5	5
724.6	4
724.7	4
724.8	4
724.9	4
725.0	5
725.1	6
725.2	8
725.3	8
725.4	8
725.5	7
725.6	7
730.5	4
730.6	6
730.7	7
730.8	8
730.9	7
731.0	6
734.0	4
734.1	5
734.2	6
734.3	6
734.4	6
734.5	6
734.6	6
734.7	5
734.8	5
734.9	4
735.0	4
735.1	4
735.2	5
735.3	6
735.4	6
735.5	6
735.6	6
735.7	5
735.8	5
735.9	5
736.0	5
736.1	4
736.2	4
736.3	4
736.4	4
736.5	5
736.6	6
736.7	6
736.8	6
736.9	5
737.0	5
737.1	5
737.2	5
737.3	6
737.4	6
737.5	6
737.6	5
737.7	6
737.8	6
737.9	6
738.0	5
738.1	4
738.2	4
738.3	4
738.4	5
738.5	4
738.6	4
738.7	4
738.8	5
738.9	6
739.0	7
739.1	7
739.2	6
739.8	5
739.9	6
740.0	7
740.1	7
740.2	7
740.3	5
740.8	3
740.9	5
741.0	6
741.1	7
741.2	6
741.3	5
741.4	4
741.9	3
742.0	4
742.1	5
742.2	6
742.3	5
742.4	5
742.5	4
742.6	3
742.7	3
742.8	4
742.9	5
743.0	5
743.1	6
743.2	6
743.3	7
743.4	6
743.5	6
743.6	5
743.7	5
743.8	5
743.9	5
744.0	5
744.1	5
744.2	5
744.3	5
744.4	5
744.5	5
744.6	5
744.7	4
744.8	4
744.9	5
745.0	5
745.1	5
745.2	5
745.3	4
745.4	5
745.5	6
745.6	6
745.7	7
745.8	7
745.9	6
746.0	5
746.1	4
746.2	4
746.3	5
746.4	5
746.5	6
746.6	5
746.7	4
746.8	4
746.9	3
747.0	3
747.1	4
747.2	4
747.3	4
747.4	4
747.5	4
747.6	5
747.7	6
747.8	6
747.9	5
749.7	3
749.8	4
749.9	5
750.0	6
750.1	7
750.2	7
750.3	6
756.3	5
756.4	6
756.5	7
756.6	8
756.7	8
756.8	8
756.9	7
757.0	6
759.6	3
759.7	4
759.8	5
759.9	6
760.0	7
760.1	8
760.2	8
760.3	6
760.4	4
760.9	3
761.0	4
761.1	6
761.2	6
761.3	6
761.4	6
761.5	5
761.6	5
761.7	4
761.8	4
761.9	4
762.0	5
762.1	5
762.2	6
762.3	6
762.4	6
762.5	6
762.6	5
762.7	5
762.8	5
762.9	4
763.0	4
763.1	3
763.2	3
763.3	3
763.4	3
763.5	4
763.6	4
763.7	5
763.8	5
763.9	5
764.0	5
764.1	5
764.2	5
764.3	4
764.4	4
764.5	3
764.6	4
764.7	4
764.8	5
764.9	5
765.0	5
765.1	4
765.2	4
765.3	3
765.4	4
765.5	5
765.6	7
765.7	8
765.8	8
765.9	7
766.0	5
768.9	3
769.0	4
769.1	5
769.2	5
769.3	6
769.4	5
769.5	5
769.6	4
769.7	4
769.8	4
769.9	3
770.0	3
770.1	3
770.2	4
770.3	5
770.4	5
770.5	5
770.6	4
770.7	4
770.8	4
770.9	5
771.0	5
771.1	6
771.2	7
771.3	7
771.4	7
771.5	6
771.6	5
779.7	3
779.8	6
779.9	10
780.0	11
780.1	14
780.2	24
780.3	42
780.4	60
780.5	70
780.6	67
780.7	57
784.5	4
784.6	5
784.7	6
784.8	6
784.9	6
785.0	5
787.8	1
787.9	2
788.0	4
788.1	6
788.2	6
788.3	7
788.4	6
788.5	6
788.6	6
788.7	6
788.8	5
788.9	4
789.0	4
789.1	3
789.2	3
789.3	4
789.4	4
789.5	4
789.6	4
789.7	3
789.8	3
789.9	3
790.0	3
790.1	3
790.2	4
790.3	4
790.4	5
790.5	5
790.6	6
790.7	5
790.8	5
790.9	4
791.0	4
791.1	5
791.2	5
791.3	6
791.4	6
791.5	5
791.6	5
791.7	4
791.8	5
791.9	5
792.0	5
792.1	5
792.2	4
792.3	4
792.4	4
792.5	5
792.6	5
792.7	6
792.8	6
792.9	5
793.0	5
793.1	4
793.2	4
793.3	3
793.4	3
793.5	3
793.6	4
793.7	5
793.8	6
793.9	6
794.0	6
794.1	6
794.2	5
794.3	3
794.7	3
794.8	4
794.9	6
795.0	8
795.1	8
795.2	7
795.3	5
795.4	3
797.0	3
797.1	4
797.2	6
797.3	7
797.4	7
797.5	7
801.5	3
801.6	4
801.7	5
801.8	6
801.9	7
802.0	6
802.1	4
804.8	3
804.9	4
805.0	5
805.1	6
805.2	6
805.3	5
805.4	5
805.5	4
805.6	4
805.7	5
805.8	5
805.9	5
806.0	5
806.1	5
806.2	5
806.3	5
806.4	5
806.5	4
806.6	3
806.7	3
806.8	2
806.9	3
807.0	4
807.1	5
807.2	5
807.3	6
807.4	6
807.5	6
807.6	5
807.7	4
809.5	4
809.6	5
809.7	7
809.8	7
809.9	6
810.0	5
811.7	3
811.8	4
811.9	5
812.0	6
812.1	6
812.2	6
812.3	5
812.4	5
812.5	4
812.6	4
812.7	4
812.8	5
812.9	5
813.0	5
813.1	5
813.2	6
813.3	5
813.4	5
813.5	4
813.6	4
813.7	4
813.8	4
813.9	3
814.0	4
814.1	4
814.2	5
814.3	5
814.4	5
814.5	5
814.6	4
814.7	4
814.8	4
814.9	4
815.0	5
815.1	6
815.2	7
815.3	6
815.4	5
820.6	2
820.7	4
820.8	6
820.9	7
821.0	7
821.1	7
821.2	6
821.3	5
821.4	5
821.5	5
821.6	5
821.7	5
821.8	4
821.9	4
822.0	4
822.1	5
822.2	6
822.3	6
822.4	6
822.5	6
822.6	5
822.7	4
822.8	4
822.9	4
823.0	5
823.1	6
823.2	6
823.3	6
823.4	5
823.5	4
823.6	4
823.7	4
823.8	4
823.9	4
824.0	5
824.1	6
824.2	7
824.3	8
824.4	8
824.5	6
824.6	4
829.7	4
829.8	5
829.9	6
830.0	7
830.1	7
830.2	6
830.3	5
830.4	4
830.8	3
830.9	4
831.0	5
831.1	6
831.2	7
831.3	7
831.4	6
833.1	4
833.2	5
833.3	6
833.4	7
833.5	7
833.6	7
833.7	6
833.8	5
834.2	4
834.3	5
834.4	7
834.5	7
834.6	7
834.7	6
834.8	5
835.3	4
835.4	5
835.5	6
835.6	7
835.7	7
835.8	6
835.9	4
836.3	2
836.4	3
836.5	5
836.6	7
836.7	7
836.8	7
836.9	6
846.7	4
846.8	6
846.9	7
847.0	8
847.1	8
847.2	6
848.9	5
849.0	6
849.1	7
849.2	7
849.3	7
849.4	6
849.5	5
852.2	3
852.3	5
852.4	6
852.5	7
852.6	7
852.7	7
852.8	7
852.9	6
872.5	2
872.6	4
872.7	5
872.8	7
872.9	8
873.0	8
873.1	7
873.2	6
880.6	3
880.7	4
880.8	5
880.9	6
881.0	7
881.1	6
881.2	5
881.3	4
