Mass spectrum: Polyanthinin; LC-ESI-QQQ; MS2; Frag=135.0V CID@10.0; [M+H]+
Name: Polyanthinin
Class: Benzopyranoids
Formula: C26H32O5
Exact mass: 424.5419
SMILES: C=C1CC[C@@H]2C(C)(C)[C@@H](OC(C)=O)CC[C@@]2(C)[C@H]1COc1ccc2ccc(=O)oc2c1
InChI: InChI=1S/C26H32O5/c1-16-6-10-22-25(3,4)23(30-17(2)27)12-13-26(22,5)20(16)15-29-19-9-7-18-8-11-24(28)31-21(18)14-19/h7-9,11,14,20,22-23H,1,6,10,12-13,15H2,2-5H3/t20-,22+,23-,26-/m0/s1
Instrument: Agilent 6410 Triple Quadrupole LC/MS system
Instrument type: LC-ESI-QQQ
Ms type: MS2
Ion mode: POSITIVE
Precursor type: [M+H]+
m/z	relative intensity
132.7	1
132.8	3
132.9	6
133.0	9
133.1	9
133.2	7
133.3	4
133.4	1
146.7	1
146.8	4
146.9	7
147.0	9
147.1	9
147.2	6
147.3	3
162.5	2
162.6	4
162.7	8
162.8	15
162.9	22
163.0	25
163.1	24
163.2	20
163.3	14
163.4	8
163.5	2
174.7	2
174.8	3
174.9	5
175.0	6
175.1	6
175.2	5
175.3	4
175.4	2
202.4	1
202.5	3
202.6	5
202.7	11
202.8	23
202.9	39
203.0	52
203.1	59
203.2	60
203.3	54
203.4	44
203.5	29
203.6	13
203.7	3
214.6	2
214.7	3
214.8	5
214.9	7
215.0	6
215.1	5
215.2	3
308.9	2
309.0	3
309.1	5
309.2	7
309.3	8
309.4	6
309.5	3
364.2	1
364.3	3
364.4	5
364.5	7
364.6	9
364.7	13
364.8	24
364.9	43
365.0	68
365.1	89
365.2	99
365.3	97
365.4	80
365.5	51
365.6	20
365.7	0
