Mass spectrum: Glabranin; LC-ESI-QQQ; MS2; Frag=135.0V CID@15.0; [M+H]+
Name: Glabranin
Class: Flavonoids
Formula: C20H20O4
Exact mass: 324.38
SMILES: CC(C)=CCc1c(O)cc(O)c2c1O[C@H](c1ccccc1)CC2=O
InChI: InChI=1S/C20H20O4/c1-12(2)8-9-14-15(21)10-16(22)19-17(23)11-18(24-20(14)19)13-6-4-3-5-7-13/h3-8,10,18,21-22H,9,11H2,1-2H3/t18-/m0/s1
Instrument: Agilent 6410 Triple Quadrupole LC/MS system
Instrument type: LC-ESI-QQQ
Ms type: MS2
Ion mode: POSITIVE
Precursor type: [M+H]+
m/z	relative intensity
90.6	2
90.7	3
90.8	5
90.9	6
91.0	7
91.1	7
91.2	7
91.3	6
91.4	4
91.5	2
164.3	2
164.4	4
164.5	7
164.6	11
164.7	19
164.8	28
164.9	36
165.0	42
165.1	45
165.2	43
165.3	35
165.4	23
165.5	10
165.6	1
268.2	1
268.3	3
268.4	6
268.5	9
268.6	15
268.7	25
268.8	43
268.9	66
269.0	88
269.1	99
269.2	96
269.3	80
269.4	55
269.5	28
269.6	7
269.7	0
324.4	1
324.5	2
324.6	4
324.7	7
324.8	14
324.9	24
325.0	34
325.1	41
325.2	41
325.3	36
325.4	27
325.5	15
325.6	5
325.7	0
