Mass spectrum: Yuccagenin; LC-ESI-QQQ; MS2; Frag=135.0V CID@15.0 ; [M+H]+
Name: Yuccagenin
Class: Steroids
Formula: C27H42O4
Exact mass: 430.63339
SMILES: CC1CC[C@@]2(OC1)OC1CC3C4CC=C5CC(O)[C@H](O)C[C@]5(C)C4CC[C@]3(C)C1[C@@H]2C
InChI: InChI=1S/C27H42O4/c1-15-7-10-27(30-14-15)16(2)24-23(31-27)12-20-18-6-5-17-11-21(28)22(29)13-26(17,4)19(18)8-9-25(20,24)3/h5,15-16,18-24,28-29H,6-14H2,1-4H3/t15?,16-,18?,19?,20?,21?,22+,23?,24?,25-,26-,27+/m0/s1
Instrument: Agilent 6410 Triple Quadrupole LC/MS system
Instrument type: LC-ESI-QQQ
Ms type: MS2
Ion mode: POSITIVE
Precursor type: [M+H]+
m/z	relative intensity
172.7	1
172.8	2
172.9	4
173.0	6
173.1	7
173.2	6
173.3	4
173.4	1
268.9	2
269.0	4
269.1	6
269.2	8
269.3	8
269.4	7
269.5	3
286.3	0
286.4	2
286.5	4
286.6	8
286.7	14
286.8	25
286.9	42
287.0	64
287.1	86
287.2	99
287.3	99
287.4	84
287.5	57
287.6	27
287.7	5
287.8	0
430.6	2
430.7	3
430.8	5
430.9	9
431.0	15
431.1	20
431.2	22
431.3	23
431.4	23
431.5	21
431.6	16
431.7	8
431.8	1
