Mass spectrum: Convoline; LC-ESI-QQQ; MS2; Frag=135.0V CID@5.0; [M+H]+
Name: Convoline
Class: Alkaloids
Formula: C16H21NO5
Exact mass: 307.3495
SMILES: COc1ccc(C(=O)OC2C[C@@H]3CC[C@H](C2)N3O)cc1OC
InChI: InChI=1S/C16H21NO5/c1-20-14-6-3-10(7-15(14)21-2)16(18)22-13-8-11-4-5-12(9-13)17(11)19/h3,6-7,11-13,19H,4-5,8-9H2,1-2H3/t11-,12+,13?
Instrument: Agilent 6410 Triple Quadrupole LC/MS system
Instrument type: LC-ESI-QQQ
Ms type: MS2
Ion mode: POSITIVE
Precursor type: [M+H]+
m/z	relative intensity
307.3	0
307.4	2
307.5	5
307.6	11
307.7	20
307.8	36
307.9	56
308.0	77
308.1	93
308.2	99
308.3	95
308.4	77
308.5	48
308.6	19
308.7	1
