Mass spectrum: Aesculin; LC-ESI-QQQ; MS2; Frag=135.0V CID@25.0; [M+H]+
Name: Esculin
Name: Esculoside
Name: Aesculin
Name: Esculetin-6-beta-D-glucopyranoside
Name: Aesculinum
Class: Benzopyranoids
Formula: C15H16O9
Exact mass: 340.2894
SMILES: O=c1ccc2cc(O[C@@H]3O[C@@H](CO)[C@H](O)[C@@H](O)[C@@H]3O)c(O)cc2o1
InChI: InChI=1S/C15H16O9/c16-5-10-12(19)13(20)14(21)15(24-10)23-9-3-6-1-2-11(18)22-8(6)4-7(9)17/h1-4,10,12-17,19-21H,5H2/t10-,12-,13+,14-,15+/m0/s1
Instrument: Agilent 6410 Triple Quadrupole LC/MS system
Instrument type: LC-ESI-QQQ
Ms type: MS2
Ion mode: POSITIVE
Precursor type: [M+H]+
m/z	relative intensity
178.2	0
178.3	2
178.4	7
178.5	13
178.6	21
178.7	33
178.8	53
178.9	75
179.0	93
179.1	99
179.2	96
179.3	82
179.4	58
179.5	29
179.6	7
179.7	0
