Mass spectrum: Melezitose; LC-ESI-QQQ; MS2; Frag=135.0V CID@5.0; [M+Na]+
Name: Glc(alpha1-3)Fruf(beta2-1alpha)Glc
Name: Melizitose
Name: O-alpha-D-Glucopyranosyl-(1-3)-beta-D-fructofuranosyl-alpha-D-glucopyranoside / Glc(alpha1-3)Fruf(beta2-1alpha)Glc
Name: O-alpha-D-Glucopyranosyl-(1-3)-beta-D-fructofuranosyl-alpha-D-glucopyranoside
Name: Melezitose
Class: Carbohydrates
Formula: C18H32O16
Exact mass: 504.4461
SMILES: OC[C@H]1O[C@H](O[C@H]2[C@H](O)[C@@H](CO)O[C@@]2(CO)O[C@H]2O[C@H](CO)[C@@H](O)[C@H](O)[C@H]2O)[C@H](O)[C@@H](O)[C@@H]1O
InChI: InChI=1S/C18H32O16/c19-1-5-8(23)11(26)13(28)16(30-5)32-15-10(25)7(3-21)33-18(15,4-22)34-17-14(29)12(27)9(24)6(2-20)31-17/h5-17,19-29H,1-4H2/t5-,6-,7-,8-,9-,10-,11+,12+,13-,14-,15+,16-,17-,18+/m1/s1
Instrument: Agilent 6410 Triple Quadrupole LC/MS system
Instrument type: LC-ESI-QQQ
Ms type: MS2
Ion mode: POSITIVE
Precursor type: [M+Na]+
m/z	relative intensity
526.0	0
526.1	1
526.2	4
526.3	8
526.4	11
526.5	13
526.6	17
526.7	27
526.8	43
526.9	64
527.0	84
527.1	98
527.2	99
527.3	83
527.4	54
527.5	24
527.6	3
