Mass spectrum: Korseveriline; LC-ESI-QQQ; MS2; Frag=135.0V CID@15.0; [M+H]+
Name: Korseveriline
Class: Alkaloids
Formula: C27H45NO3
Exact mass: 431.6646
SMILES: C[C@@H]1CC[C@H]2[C@H](C)[C@H]3CC[C@]4(O)[C@@H](C[C@H]5[C@H]4C[C@@H](O)[C@H]4C[C@H](O)CC[C@@]45C)[C@@H]3CN2C1
InChI: InChI=1S/C27H45NO3/c1-15-4-5-24-16(2)18-7-9-27(31)20(19(18)14-28(24)13-15)11-21-22(27)12-25(30)23-10-17(29)6-8-26(21,23)3/h15-25,29-31H,4-14H2,1-3H3/t15-,16-,17-,18-,19-,20+,21+,22-,23-,24+,25-,26-,27+/m1/s1
Instrument: Agilent 6410 Triple Quadrupole LC/MS system
Instrument type: LC-ESI-QQQ
Ms type: MS2
Ion mode: POSITIVE
Precursor type: [M+H]+
m/z	relative intensity
431.4	0
431.5	1
431.6	4
431.7	8
431.8	15
431.9	26
432.0	42
432.1	62
432.2	81
432.3	95
432.4	99
432.5	92
432.6	73
432.7	46
432.8	19
432.9	2
