Mass spectrum: Foliosidine acetonide; LC-ESI-QQQ; MS2; Frag=135.0V CID@25.0; [M+H]+
Name: Foliosidine acetonide
Class: Alkaloids
Formula: C19H25NO5
Exact mass: 347.4148
SMILES: COc1cc(=O)n(C)c2c(OCC3OC(C)(C)OC3(C)C)cccc12
InChI: InChI=1S/C19H25NO5/c1-18(2)15(24-19(3,4)25-18)11-23-13-9-7-8-12-14(22-6)10-16(21)20(5)17(12)13/h7-10,15H,11H2,1-6H3
Instrument: Agilent 6410 Triple Quadrupole LC/MS system
Instrument type: LC-ESI-QQQ
Ms type: MS2
Ion mode: POSITIVE
Precursor type: [M+H]+
m/z	relative intensity
173.7	2
173.8	4
173.9	6
174.0	7
174.1	7
174.2	7
174.3	5
174.4	3
187.7	2
187.8	4
187.9	6
188.0	7
188.1	8
188.2	8
188.3	6
188.4	5
188.5	2
203.6	2
203.7	4
203.8	7
203.9	11
204.0	13
204.1	15
204.2	15
204.3	14
204.4	13
204.5	13
204.6	16
204.7	23
204.8	39
204.9	63
205.0	86
205.1	99
205.2	99
205.3	87
205.4	64
205.5	38
205.6	17
205.8	17
205.9	28
206.0	36
206.1	39
206.2	38
206.3	34
206.4	27
206.5	16
206.6	6
206.7	0
217.6	1
217.7	2
217.8	5
217.9	8
218.0	10
218.1	10
218.2	10
218.3	8
218.4	5
218.5	3
229.6	2
229.7	3
229.8	5
229.9	7
230.0	9
230.1	10
230.2	10
230.3	9
230.4	6
230.5	3
289.3	0
289.4	2
289.5	4
289.6	9
289.7	18
289.8	33
289.9	53
290.0	74
290.1	89
290.2	93
290.3	84
290.4	64
290.5	36
290.6	12
290.7	0
