Mass spectrum: 2'-Hydroxy-2,4,4'-trimethoxychalcone; LC-ESI-QQQ; MS2; Frag=135.0V CID@5.0; [M+H]+
Name: 2'-Hydroxy-2,4,4'-trimethoxychalcone
Class: Flavonoids
Formula: C18H18O5
Exact mass: 314.3412
SMILES: COc1ccc(C(=O)/C=C/c2ccc(OC)cc2OC)c(O)c1
InChI: InChI=1S/C18H18O5/c1-21-13-7-8-15(17(20)10-13)16(19)9-5-12-4-6-14(22-2)11-18(12)23-3/h4-11,20H,1-3H3/b9-5+
Instrument: Agilent 6410 Triple Quadrupole LC/MS system
Instrument type: LC-ESI-QQQ
Ms type: MS2
Ion mode: POSITIVE
Precursor type: [M+H]+
m/z	relative intensity
150.6	2
150.7	3
150.8	5
150.9	6
151.0	7
151.1	7
151.2	7
151.3	5
151.4	4
151.5	2
190.4	0
190.5	2
190.6	4
190.7	7
190.8	11
190.9	16
191.0	20
191.1	22
191.2	22
191.3	19
191.4	14
191.5	8
191.6	2
314.3	0
314.4	2
314.5	7
314.6	14
314.7	26
314.8	43
314.9	64
315.0	83
315.1	96
315.2	99
315.3	93
315.4	73
315.5	45
315.6	17
315.7	1
