Mass spectrum: Neotigogenin; LC-ESI-QQQ; MS2; Frag=135.0V CID@25.0 ; [M+H]+
Name: Neotigogenin
Class: Steroids
Formula: C27H44O3
Exact mass: 416.64993000000004
SMILES: CC1CC[C@@]2(OC1)OC1CC3C4CC[C@H]5CC(O)CC[C@]5(C)C4CC[C@]3(C)C1[C@@H]2C
InChI: InChI=1S/C27H44O3/c1-16-7-12-27(29-15-16)17(2)24-23(30-27)14-22-20-6-5-18-13-19(28)8-10-25(18,3)21(20)9-11-26(22,24)4/h16-24,28H,5-15H2,1-4H3/t16?,17-,18-,19?,20?,21?,22?,23?,24?,25-,26-,27+/m0/s1
Instrument: Agilent 6410 Triple Quadrupole LC/MS system
Instrument type: LC-ESI-QQQ
Ms type: MS2
Ion mode: POSITIVE
Precursor type: [M+H]+
m/z	relative intensity
68.3	0
68.4	2
68.5	6
68.6	10
68.7	14
68.8	15
68.9	14
69.0	14
69.1	14
69.2	13
69.3	9
69.4	4
69.5	1
96.4	1
96.5	2
96.6	4
96.7	6
96.8	7
96.9	6
97.0	5
97.1	4
97.2	3
97.3	2
106.4	1
106.5	2
106.6	3
106.7	4
106.8	3
106.9	2
107.0	1
107.1	1
107.2	2
107.3	2
107.4	1
107.5	0
107.6	0
107.7	0
107.8	0
107.9	0
108.0	0
108.1	0
108.2	0
108.3	0
108.4	0
108.5	0
108.6	0
108.7	1
108.8	1
108.9	0
109.0	0
109.1	0
109.2	0
109.3	0
109.4	0
109.5	0
109.6	0
109.7	0
109.8	0
109.9	0
110.0	0
110.1	0
110.2	0
110.3	0
110.4	0
110.5	0
110.6	0
110.7	0
110.8	0
110.9	0
111.0	0
111.1	0
111.2	0
111.3	0
111.4	0
111.5	0
111.6	0
111.7	0
111.8	0
111.9	0
112.0	0
112.1	0
112.2	0
112.3	0
112.4	0
112.5	0
112.6	0
112.7	0
112.8	0
112.9	0
113.0	0
113.1	0
113.2	0
113.3	0
113.4	0
113.5	0
113.6	0
113.7	0
113.8	0
113.9	0
114.0	0
114.1	0
114.2	0
114.3	0
114.4	0
114.5	0
114.6	1
114.7	1
114.8	1
114.9	1
115.0	1
115.1	1
115.2	1
115.3	1
115.4	0
115.5	0
115.6	0
115.7	0
115.8	0
115.9	0
116.0	0
116.1	0
116.2	0
116.3	0
116.4	0
116.5	0
116.6	0
116.7	0
116.8	0
116.9	0
117.0	0
117.1	0
117.2	0
117.3	0
117.4	0
117.5	0
117.6	0
117.7	0
117.8	0
117.9	0
118.0	0
118.1	0
118.2	0
118.3	0
118.4	0
118.5	0
118.6	0
118.7	0
118.8	0
118.9	1
119.0	2
119.1	2
119.2	1
119.3	1
119.4	0
119.5	0
119.6	0
119.7	0
119.8	0
119.9	0
120.0	0
120.1	0
120.2	0
120.3	0
120.4	0
120.5	1
120.6	2
120.7	3
120.8	5
120.9	5
121.0	3
121.1	1
134.5	1
134.6	2
134.7	3
134.8	4
134.9	5
135.0	5
135.1	6
135.2	5
135.3	3
144.6	1
144.7	3
144.8	4
144.9	6
145.0	6
145.1	6
145.2	6
145.3	4
145.4	2
146.7	3
146.8	5
146.9	7
147.0	10
147.1	12
147.2	12
147.3	8
147.4	4
147.5	1
158.5	1
158.6	2
158.7	5
158.8	7
158.9	9
159.0	9
159.1	7
159.2	5
159.3	3
160.2	0
160.3	0
160.4	3
160.5	9
160.6	17
160.7	29
160.8	45
160.9	62
161.0	73
161.1	76
161.2	76
161.3	73
161.4	63
161.5	43
161.6	18
161.7	2
162.6	1
162.7	2
162.8	4
162.9	5
163.0	6
163.1	6
163.2	5
163.3	3
163.4	1
254.3	0
254.4	1
254.5	4
254.6	10
254.7	18
254.8	26
254.9	33
255.0	41
255.1	52
255.2	61
255.3	63
255.4	53
255.5	34
255.6	14
255.7	2
272.2	1
272.3	2
272.4	3
272.5	7
272.6	12
272.7	21
272.8	33
272.9	47
273.0	63
273.1	81
273.2	96
273.3	99
273.4	86
273.5	60
273.6	31
273.7	10
273.8	1
