Mass spectrum: Crustecdysone; LC-ESI-QQQ; MS2; Frag=135.0V CID@25.0; [M+H]+
Name: Crustecdysone
Class: Steroids
Formula: C27H44O7
Exact mass: 480.6475
SMILES: CC(C)(O)CC[C@@H](O)[C@](C)(O)[C@H]1CC[C@@]2(O)C3=CC(=O)[C@@H]4C[C@@H](O)[C@@H](O)C[C@]4(C)[C@H]3CC[C@]12C
InChI: InChI=1S/C27H44O7/c1-23(2,32)9-8-22(31)26(5,33)21-7-11-27(34)16-12-18(28)17-13-19(29)20(30)14-24(17,3)15(16)6-10-25(21,27)4/h12,15,17,19-22,29-34H,6-11,13-14H2,1-5H3/t15-,17-,19+,20-,21-,22+,24+,25+,26+,27+/m0/s1
Instrument: Agilent 6410 Triple Quadrupole LC/MS system
Instrument type: LC-ESI-QQQ
Ms type: MS2
Ion mode: POSITIVE
Precursor type: [M+H]+
m/z	relative intensity
68.4	1
68.5	2
68.6	6
68.7	10
68.8	13
68.9	15
69.0	16
69.1	16
69.2	14
69.3	9
69.4	3
80.4	1
80.5	2
80.6	4
80.7	6
80.8	9
80.9	10
81.0	11
81.1	12
81.2	12
81.3	9
81.4	5
81.5	2
96.5	1
96.6	2
96.7	4
96.8	7
96.9	9
97.0	11
97.1	12
97.2	10
97.3	7
97.4	4
97.5	1
98.6	3
98.7	4
98.8	6
98.9	9
99.0	12
99.1	13
99.2	9
99.3	5
99.4	2
106.5	2
106.6	3
106.7	5
106.8	9
106.9	13
107.0	16
107.1	17
107.2	13
107.3	7
107.4	2
108.7	0
108.8	2
108.9	4
109.0	7
109.1	8
109.2	7
109.3	5
109.4	2
120.7	1
120.8	2
120.9	4
121.0	6
121.1	6
121.2	5
121.3	2
122.5	0
122.6	1
122.7	4
122.8	9
122.9	14
123.0	15
123.1	13
123.2	8
123.3	3
124.4	1
124.5	3
124.6	5
124.7	8
124.8	12
124.9	16
125.0	18
125.1	18
125.2	16
125.3	13
125.4	9
125.5	4
125.6	1
126.7	1
126.8	3
126.9	5
127.0	7
127.1	6
127.2	5
127.3	5
127.4	4
127.5	2
134.7	3
134.8	4
134.9	6
135.0	7
135.1	7
135.2	7
135.3	7
135.4	5
135.5	2
142.5	1
142.6	2
142.7	4
142.8	5
142.9	6
143.0	6
143.1	6
143.2	4
143.3	2
144.6	1
144.7	2
144.8	3
144.9	4
145.0	5
145.1	7
145.2	7
145.3	6
145.4	3
146.8	4
146.9	5
147.0	6
147.1	7
147.2	8
147.3	8
147.4	6
147.5	2
158.6	0
158.7	1
158.8	4
158.9	7
159.0	10
159.1	10
159.2	7
159.3	4
159.4	1
164.3	1
164.4	3
164.5	9
164.6	18
164.7	31
164.8	47
164.9	68
165.0	87
165.1	99
165.2	99
165.3	92
165.4	76
165.5	51
165.6	23
165.7	3
172.6	1
172.7	3
172.8	7
172.9	11
173.0	14
173.1	16
173.2	15
173.3	12
173.4	7
173.5	3
174.6	0
174.7	2
174.8	6
174.9	8
175.0	8
175.1	7
175.2	4
175.3	3
176.5	1
176.6	3
176.7	4
176.8	5
176.9	5
177.0	3
178.8	1
178.9	3
179.0	4
179.1	5
179.2	5
179.3	4
179.4	3
186.5	0
186.6	1
186.7	4
186.8	7
186.9	10
187.0	10
187.1	8
187.2	5
187.3	2
190.7	2
190.8	3
190.9	4
191.0	6
191.1	7
191.2	8
191.3	6
191.4	3
194.6	1
194.7	2
194.8	3
194.9	4
195.0	4
195.1	2
195.2	1
195.3	1
195.4	2
195.5	1
195.6	0
195.7	0
195.8	0
195.9	0
196.0	0
196.1	0
196.2	0
196.3	0
196.4	0
196.5	0
196.6	0
196.7	1
196.8	2
196.9	3
197.0	4
197.1	3
197.2	2
197.3	1
197.4	0
197.5	0
197.6	0
197.7	0
197.8	0
197.9	0
198.0	0
198.1	0
198.2	0
198.3	0
198.4	0
198.5	0
198.6	0
198.7	1
198.8	1
198.9	2
199.0	2
199.1	1
199.2	1
199.3	1
199.4	0
199.5	0
199.6	0
199.7	0
199.8	0
199.9	0
200.0	0
200.1	0
200.2	0
200.3	0
200.4	0
200.5	0
200.6	0
200.7	0
200.8	1
200.9	1
201.0	2
201.1	3
201.2	2
201.3	1
201.4	0
201.5	0
201.6	0
201.7	0
201.8	0
201.9	0
202.0	0
202.1	0
202.2	0
202.3	0
202.4	0
202.5	0
202.6	0
202.7	1
202.8	1
202.9	2
203.0	3
203.1	3
203.2	2
203.3	1
203.4	0
203.5	0
203.6	0
203.7	0
203.8	0
203.9	0
204.0	0
204.1	0
204.2	0
204.3	0
204.4	0
204.5	0
204.6	1
204.7	1
204.8	1
204.9	2
205.0	3
205.1	3
205.2	3
205.3	2
205.4	1
205.5	1
205.6	1
205.7	0
205.8	0
205.9	0
206.0	0
206.1	0
206.2	0
206.3	0
206.4	0
206.5	0
206.6	0
206.7	1
206.8	1
206.9	1
207.0	1
207.1	1
207.2	2
207.3	1
207.4	1
207.5	0
207.6	0
207.7	0
207.8	0
207.9	0
208.0	0
208.1	0
208.2	0
208.3	0
208.4	0
208.5	0
208.6	0
208.7	1
208.8	3
208.9	6
209.0	8
209.1	8
209.2	7
209.3	5
209.4	2
214.6	1
214.7	2
214.8	3
214.9	4
215.0	3
224.7	2
224.8	3
224.9	4
225.0	4
225.1	5
225.2	5
225.3	4
225.4	2
226.7	1
226.8	2
226.9	5
227.0	6
227.1	6
227.2	4
227.3	2
230.7	2
230.8	3
230.9	4
231.0	4
231.1	5
231.2	5
231.3	4
231.4	2
238.7	1
238.8	2
238.9	4
239.0	5
239.1	5
239.2	3
246.8	2
246.9	3
247.0	5
247.1	6
247.2	5
247.3	3
248.5	0
248.6	1
248.7	4
248.8	7
248.9	10
249.0	11
249.1	11
249.2	11
249.3	10
249.4	8
249.5	4
249.6	1
264.6	1
264.7	3
264.8	4
264.9	5
265.0	6
265.1	7
265.2	7
265.3	6
265.4	4
265.5	1
266.8	1
266.9	2
267.0	4
267.1	5
267.2	4
267.3	3
282.7	2
282.8	4
282.9	7
283.0	10
283.1	14
283.2	19
283.3	19
283.4	15
283.5	7
283.6	1
284.9	1
285.0	2
285.1	4
285.2	5
285.3	5
285.4	3
285.5	1
300.6	1
300.7	3
300.8	7
300.9	11
301.0	12
301.1	12
301.2	13
301.3	14
301.4	12
301.5	7
301.6	1
302.7	1
302.8	3
302.9	6
303.0	8
303.1	10
303.2	11
303.3	10
303.4	6
303.5	2
310.7	1
310.8	2
310.9	4
311.0	4
311.1	4
311.2	3
311.3	2
311.4	1
311.5	0
311.6	0
311.7	0
311.8	0
311.9	0
312.0	0
312.1	0
312.2	0
312.3	0
312.4	0
312.5	0
312.6	1
312.7	2
312.8	3
312.9	5
313.0	7
313.1	7
313.2	6
313.3	4
313.4	2
318.8	2
318.9	4
319.0	5
319.1	7
319.2	8
319.3	7
319.4	5
319.5	2
330.5	0
330.6	1
330.7	3
330.8	5
330.9	6
331.0	7
331.1	7
331.2	8
331.3	8
331.4	5
331.5	2
352.8	2
352.9	4
353.0	7
353.1	10
353.2	10
353.3	8
353.4	5
353.5	2
370.3	1
370.4	3
370.5	6
370.6	9
370.7	14
370.8	24
370.9	38
371.0	53
371.1	63
371.2	64
371.3	58
371.4	45
371.5	27
371.6	11
371.7	1
390.9	3
391.0	4
391.1	5
391.2	6
391.3	6
391.4	5
391.5	3
408.6	1
408.7	2
408.8	3
408.9	4
409.0	5
409.1	5
409.2	5
409.3	5
409.4	5
409.5	5
409.6	3
409.7	1
426.6	1
426.7	2
426.8	5
426.9	10
427.0	18
427.1	24
427.2	26
427.3	23
427.4	16
427.5	8
427.6	2
444.6	1
444.7	3
444.8	7
444.9	13
445.0	21
445.1	28
445.2	31
445.3	29
445.4	22
445.5	13
445.6	5
445.7	1
