Mass spectrum: Trachelanthine; LC-ESI-QQQ; MS2; Frag=135.0V CID@10.0; [M+H]+
Name: Trachelanthamine oxide
Name: Trachelanthamine N-oxide
Name: ((7aS,1R)-4-hydroxyperhydropyrrolizinyl)methyl 2,3-dihydroxy-2-(methylethyl)butanoate
Name: Trachelanthine
Class: Alkaloids
Formula: C15H27NO5
Exact mass: 301.3861
SMILES: CC(C)C(O)(C(=O)OC[C@@H]1CC[N+]2([O-])CCC[C@@H]12)C(C)O
InChI: InChI=1S/C15H27NO5/c1-10(2)15(19,11(3)17)14(18)21-9-12-6-8-16(20)7-4-5-13(12)16/h10-13,17,19H,4-9H2,1-3H3/t11?,12-,13-,15?,16?/m0/s1
Instrument: Agilent 6410 Triple Quadrupole LC/MS system
Instrument type: LC-ESI-QQQ
Ms type: MS2
Ion mode: POSITIVE
Precursor type: [M+H]+
m/z	relative intensity
157.7	2
157.8	4
157.9	6
158.0	7
158.1	8
158.2	8
158.3	7
158.4	6
158.5	3
301.4	2
301.5	4
301.6	7
301.7	13
301.8	26
301.9	46
302.0	70
302.1	90
302.2	99
302.3	96
302.4	82
302.5	58
302.6	30
302.7	8
302.8	0
