Mass spectrum: Deltaline; LC-ESI-QQQ; MS2; Frag=135.0V CID@25.0; [M+HCOO]-
Name: Deltaline
Class: Alkaloids
Formula: C27H41NO8
Exact mass: 507.6297
SMILES: CCN1C[C@]2(C)CCC(OC)C34C2[C@H](OC(C)=O)C2(OCO[C@@]25C[C@H](OC)[C@H]2C[C@]3(O)C5[C@H]2OC)[C@@H]14
InChI: InChI=1S/C27H41NO8/c1-7-28-12-23(3)9-8-17(32-5)26-20(23)21(36-14(2)29)27(22(26)28)25(34-13-35-27)11-16(31-4)15-10-24(26,30)19(25)18(15)33-6/h15-22,30H,7-13H2,1-6H3/t15-,16+,17?,18+,19?,20?,21+,22+,23+,24+,25-,26?,27?/m1/s1
Instrument: Agilent 6410 Triple Quadrupole LC/MS system
Instrument type: LC-ESI-QQQ
Ms type: MS2
Ion mode: NEGATIVE
Precursor type: [M+HCOO]-
m/z	relative intensity
50.9	10
51.0	19
51.1	23
51.2	20
51.3	11
51.5	8
51.6	15
51.7	22
51.8	21
51.9	13
52.1	4
52.2	9
52.3	17
52.4	23
52.5	22
52.6	16
52.8	11
52.9	16
53.0	23
53.1	25
53.2	20
54.0	6
54.1	11
54.2	19
54.3	23
54.4	20
54.5	11
54.7	5
54.8	14
54.9	23
55.0	26
55.1	20
56.0	8
56.1	16
56.2	23
56.3	24
56.4	18
57.3	11
57.4	16
57.5	19
57.6	18
57.7	13
57.9	7
58.0	12
58.1	19
58.2	22
58.3	18
58.5	9
58.6	14
58.7	21
58.8	24
58.9	20
59.0	11
59.2	8
59.3	18
59.4	26
59.5	25
59.6	17
59.8	6
59.9	12
60.0	21
60.1	24
60.2	20
60.3	13
60.5	12
60.6	18
60.7	21
60.8	18
60.9	11
61.1	10
61.2	16
61.3	21
61.4	22
61.5	18
61.7	10
61.8	14
61.9	20
62.0	23
62.1	20
62.2	13
62.4	11
62.5	18
62.6	23
62.7	20
62.8	14
63.0	10
63.1	16
63.2	21
63.3	19
63.4	12
63.6	3
63.7	9
63.8	19
63.9	25
64.0	23
64.1	14
64.3	5
64.4	15
64.5	25
64.6	26
64.7	17
64.9	4
65.0	11
65.1	21
65.2	26
65.3	23
65.4	14
65.6	9
65.7	16
65.8	22
65.9	22
66.0	15
66.2	11
66.3	18
66.4	25
66.5	25
66.6	17
66.8	6
66.9	11
67.0	20
67.1	26
67.2	23
67.3	13
67.5	6
67.6	15
67.7	23
67.8	25
67.9	18
68.0	9
68.2	8
68.3	16
68.4	21
68.5	18
68.6	9
68.8	6
68.9	16
69.0	25
69.1	25
69.2	18
69.4	9
69.5	15
69.6	22
69.7	22
69.8	15
70.1	6
70.2	15
70.3	22
70.4	22
70.5	16
70.7	11
70.8	18
70.9	25
71.0	24
71.1	16
71.3	5
71.4	12
71.5	22
71.6	26
71.7	20
71.8	10
72.0	8
72.1	18
72.2	26
72.3	25
72.4	16
72.6	7
72.7	14
72.8	22
72.9	24
73.0	19
73.3	11
73.4	19
73.5	24
73.6	21
73.7	13
73.9	7
74.0	13
74.1	19
74.2	20
74.3	15
74.5	8
74.6	13
74.7	20
74.8	24
74.9	21
75.0	14
75.2	12
75.3	19
75.4	24
75.5	22
75.6	15
75.8	10
75.9	18
76.0	26
76.1	25
76.2	17
76.4	6
76.5	12
76.6	20
76.7	23
76.8	18
76.9	10
77.1	6
77.2	14
77.3	21
77.4	21
77.5	15
77.7	9
77.8	13
77.9	17
78.0	18
78.1	16
78.3	11
78.4	15
78.5	20
78.6	23
78.7	19
78.8	12
79.0	7
79.1	15
79.2	23
79.3	26
79.4	21
79.5	13
79.7	11
79.8	16
79.9	20
80.0	18
80.3	12
80.4	20
80.5	26
80.6	25
80.7	17
80.9	8
81.0	12
81.1	18
81.2	21
81.3	19
81.4	14
81.6	12
81.7	16
81.8	19
81.9	19
82.0	14
82.2	8
82.3	13
82.4	20
82.5	22
82.6	15
82.8	3
82.9	8
83.0	18
83.1	24
83.2	23
83.3	16
83.5	8
83.6	13
83.7	20
83.8	23
83.9	20
84.1	12
84.2	16
84.3	21
84.4	22
84.5	15
84.7	4
84.8	9
84.9	18
85.0	23
85.1	22
85.2	15
85.4	4
85.5	10
85.6	20
85.7	25
85.8	22
85.9	13
86.1	7
86.2	15
86.3	23
86.4	23
86.5	16
86.7	8
86.8	14
86.9	22
87.0	23
87.1	17
87.3	7
87.4	12
87.5	20
87.6	23
87.7	20
88.0	13
88.1	19
88.2	24
88.3	23
88.4	16
88.6	4
88.7	10
88.8	19
88.9	23
89.0	19
89.2	12
89.3	16
89.4	23
89.5	27
89.6	23
89.7	16
89.9	9
90.0	14
90.1	20
90.2	20
90.3	15
90.5	6
90.6	11
90.7	20
90.8	25
90.9	22
91.0	14
91.2	8
91.3	15
91.4	22
91.5	22
91.6	16
91.8	8
91.9	14
92.0	22
92.1	25
92.2	20
92.3	10
92.5	8
92.6	16
92.7	22
92.8	20
92.9	14
93.1	8
93.2	13
93.3	19
93.4	22
93.5	18
93.7	11
93.8	17
93.9	25
94.0	28
94.1	21
94.2	10
94.4	8
94.5	17
94.6	23
94.7	23
94.8	19
95.0	13
95.1	17
95.2	23
95.3	24
95.4	17
96.3	8
96.4	18
96.5	26
96.6	25
96.7	18
97.5	9
97.6	12
97.7	20
97.8	26
97.9	25
98.0	17
98.2	9
98.3	15
98.4	22
98.5	23
98.6	17
98.8	4
98.9	9
99.0	18
99.1	23
99.2	20
99.5	12
99.6	21
99.7	27
99.8	26
99.9	17
100.2	9
100.3	18
100.4	24
100.5	22
100.6	14
100.8	10
100.9	18
101.0	25
101.1	25
101.2	18
101.4	8
101.5	14
101.6	22
101.7	24
101.8	17
102.0	3
102.1	9
102.2	20
102.3	27
102.4	24
102.5	16
102.7	9
102.8	14
102.9	20
103.0	22
103.1	19
103.3	12
103.4	16
103.5	22
103.6	23
103.7	18
103.8	10
104.0	8
104.1	16
104.2	21
104.3	17
104.4	7
104.6	4
104.7	16
104.8	28
104.9	29
105.0	20
105.1	8
105.3	6
105.4	15
105.5	21
105.6	19
105.7	11
105.9	5
106.0	13
106.1	22
106.2	24
106.3	19
106.5	7
106.6	12
106.7	21
106.8	26
106.9	22
107.0	12
107.2	7
107.3	17
107.4	25
107.5	25
107.6	17
107.8	7
107.9	13
108.0	22
108.1	26
108.2	20
108.3	10
108.5	7
108.6	16
108.7	22
108.8	21
108.9	15
109.1	11
109.2	17
109.3	22
109.4	20
109.5	12
109.7	1
109.8	7
109.9	16
110.0	22
110.1	20
110.2	15
110.4	13
110.5	17
110.6	19
110.7	17
110.8	12
111.0	6
111.1	11
111.2	18
111.3	21
111.4	18
111.6	9
111.7	13
111.8	21
111.9	25
112.0	23
112.1	14
112.3	7
112.4	15
112.5	24
112.6	26
112.7	20
112.8	10
113.0	10
113.1	17
113.2	20
113.3	16
113.5	5
113.6	9
113.7	19
113.8	27
113.9	26
114.0	17
114.2	6
114.3	11
114.4	19
114.5	24
114.6	21
114.7	15
114.9	13
115.0	19
115.1	24
115.2	22
115.3	14
115.5	6
115.6	12
115.7	20
115.8	22
115.9	18
116.1	11
116.2	16
116.3	22
116.4	23
116.5	17
116.8	9
116.9	18
117.0	24
117.1	22
117.2	15
117.4	8
117.5	14
117.6	22
117.7	25
117.8	21
117.9	13
118.1	11
118.2	17
118.3	20
118.4	17
118.7	10
118.8	17
118.9	24
119.0	25
119.1	18
119.3	8
119.4	13
119.5	21
119.6	25
119.7	21
119.8	12
120.0	8
120.1	14
120.2	19
120.3	20
120.4	16
120.6	11
120.7	15
120.8	21
120.9	23
121.0	18
121.2	7
121.3	13
121.4	23
121.5	27
121.6	22
121.7	12
121.9	6
122.0	14
122.1	20
122.2	21
122.3	16
122.5	9
122.6	14
122.7	21
122.8	24
122.9	19
123.0	11
123.2	6
123.3	13
123.4	18
123.5	19
123.6	14
123.8	8
123.9	13
124.0	22
124.1	25
124.2	21
124.3	13
124.5	10
124.6	15
124.7	19
124.8	17
125.1	12
125.2	18
125.3	24
125.4	24
125.5	17
125.7	6
125.8	11
125.9	19
126.0	24
126.1	20
126.2	11
126.4	8
126.5	17
126.6	23
126.7	21
126.8	14
127.0	11
127.1	17
127.2	22
127.3	22
127.4	17
127.7	11
127.8	18
127.9	24
128.0	22
128.1	17
128.3	14
128.4	20
128.5	24
128.6	21
128.7	13
128.9	4
129.0	11
129.1	21
129.2	23
129.3	17
129.5	5
129.6	10
129.7	19
129.8	26
129.9	25
130.0	18
130.2	8
130.3	13
130.4	19
130.5	23
130.6	20
130.9	13
131.0	19
131.1	24
131.2	22
131.3	16
131.5	11
131.6	17
131.7	23
131.8	22
131.9	14
132.1	6
132.2	12
132.3	19
132.4	22
132.5	19
132.8	11
132.9	18
133.0	25
133.1	24
133.2	17
133.4	9
133.5	15
133.6	23
133.7	25
133.8	19
133.9	9
134.1	6
134.2	13
134.3	18
134.4	17
134.5	13
134.7	12
134.8	16
134.9	20
135.0	21
135.1	16
135.4	9
135.5	17
135.6	23
135.7	22
135.8	15
136.0	10
136.1	17
136.2	24
136.3	23
136.4	17
137.2	8
137.3	11
137.4	17
137.5	20
137.6	17
137.9	8
138.0	17
138.1	25
138.2	24
138.3	15
138.5	3
138.6	8
138.7	16
138.8	20
138.9	18
139.2	11
139.3	18
139.4	22
139.5	20
139.6	14
139.8	9
139.9	16
140.0	22
140.1	23
140.2	17
140.4	8
140.5	13
140.6	21
140.7	25
140.8	22
140.9	14
141.1	7
141.2	14
141.3	21
141.4	23
141.5	18
141.8	11
141.9	19
142.0	24
142.1	21
142.2	14
142.4	13
142.5	20
142.6	24
142.7	21
142.8	14
143.0	6
143.1	12
143.2	20
143.3	24
143.4	22
143.5	16
143.7	11
143.8	17
143.9	21
144.0	19
144.1	11
144.3	6
144.4	13
144.5	20
144.6	20
144.7	14
144.9	8
145.0	13
145.1	20
145.2	24
145.3	21
145.4	14
145.6	9
145.7	16
145.8	23
145.9	22
146.0	15
146.2	7
146.3	12
146.4	20
146.5	23
146.6	19
146.9	10
147.0	18
147.1	22
147.2	20
147.3	14
147.5	11
147.6	18
147.7	24
147.8	24
147.9	16
148.2	8
148.3	17
148.4	23
148.5	20
148.6	12
148.8	10
148.9	18
149.0	25
149.1	25
149.2	18
149.3	10
149.5	10
149.6	15
149.7	17
149.8	15
150.0	9
150.1	15
150.2	24
150.3	27
150.4	23
150.5	14
150.7	9
150.8	15
150.9	19
151.0	17
151.1	10
151.3	7
151.4	16
151.5	26
151.6	31
151.7	26
151.8	15
152.0	5
152.1	12
152.2	18
152.3	18
152.6	11
152.7	19
152.8	25
152.9	26
153.0	21
153.1	14
153.3	11
153.4	16
153.5	21
153.6	19
153.7	13
153.9	9
154.0	15
154.1	22
154.2	24
154.3	17
154.5	6
154.6	13
154.7	22
154.8	25
154.9	19
155.2	12
155.3	19
155.4	23
155.5	21
155.6	14
155.8	8
155.9	14
156.0	20
156.1	21
156.2	17
156.5	12
156.6	17
156.7	21
156.8	20
156.9	16
157.1	8
157.2	12
157.3	19
157.4	22
157.5	19
157.7	12
157.8	16
157.9	21
158.0	23
158.1	18
158.2	11
158.4	9
158.5	16
158.6	22
158.7	22
158.8	16
159.0	6
159.1	10
159.2	18
159.3	23
159.4	19
159.7	11
159.8	19
159.9	25
160.0	24
160.1	16
161.0	11
161.1	17
161.2	21
161.3	19
161.4	11
161.6	8
161.7	17
161.8	24
161.9	24
162.0	17
162.2	9
162.3	15
162.4	23
162.5	26
162.6	21
162.7	11
162.9	7
163.0	16
163.1	24
163.2	23
163.3	15
163.5	7
163.6	14
163.7	23
163.8	26
163.9	20
164.2	12
164.3	20
164.4	25
164.5	22
164.6	13
164.8	4
164.9	10
165.0	17
165.1	19
165.4	13
165.5	18
165.6	22
165.7	21
165.8	14
166.1	6
166.2	15
166.3	21
166.4	18
166.7	10
166.8	20
166.9	28
167.0	27
167.1	17
167.3	5
167.4	11
167.5	18
167.6	20
167.7	15
167.9	6
168.0	11
168.1	20
168.2	25
168.3	23
168.4	15
168.6	6
168.7	12
168.8	21
168.9	25
169.0	21
169.1	12
169.3	9
169.4	16
169.5	21
169.6	18
169.9	9
170.0	18
170.1	24
170.2	22
170.3	13
170.5	3
170.6	12
170.7	21
170.8	24
170.9	18
171.1	8
171.2	13
171.3	20
171.4	25
171.5	24
171.6	17
171.8	11
171.9	17
172.0	24
172.1	24
172.2	17
172.5	8
172.6	16
172.7	22
172.8	21
172.9	14
173.1	7
173.2	15
173.3	23
173.4	24
173.5	16
173.8	9
173.9	17
174.0	21
174.1	19
174.3	11
174.4	14
174.5	21
174.6	26
174.7	23
174.8	15
175.0	9
175.1	15
175.2	21
175.3	22
175.4	17
175.5	9
175.7	8
175.8	15
175.9	22
176.0	22
176.1	17
176.3	12
176.4	17
176.5	22
176.6	21
176.7	13
176.9	3
177.0	11
177.1	22
177.2	26
177.3	21
177.4	11
177.6	11
177.7	18
177.8	23
177.9	20
178.0	12
178.2	8
178.3	13
178.4	18
178.5	18
178.6	15
178.8	9
178.9	12
179.0	19
179.1	24
179.2	21
179.3	13
179.5	6
179.6	13
179.7	22
179.8	25
179.9	19
180.1	10
180.2	15
180.3	23
180.4	25
180.5	18
180.8	7
180.9	17
181.0	25
181.1	24
181.2	14
181.4	3
181.5	10
181.6	20
181.7	23
181.8	18
182.1	11
182.2	18
182.3	21
182.4	19
182.5	13
182.7	9
182.8	15
182.9	21
183.0	22
183.1	18
183.3	9
183.4	14
183.5	20
183.6	23
183.7	18
183.8	10
184.0	8
184.1	15
184.2	20
184.3	19
184.4	12
184.6	7
184.7	14
184.8	20
184.9	22
185.0	18
185.2	9
185.3	13
185.4	21
185.5	25
185.6	22
185.7	14
185.9	9
186.0	14
186.1	19
186.2	19
186.3	15
186.5	9
186.6	13
186.7	19
186.8	22
186.9	18
187.1	8
187.2	12
187.3	20
187.4	26
187.5	24
187.6	16
187.8	8
187.9	13
188.0	18
188.1	19
188.2	15
188.4	8
188.5	13
188.6	19
188.7	24
188.8	22
188.9	15
189.1	6
189.2	13
189.3	22
189.4	24
189.5	17
189.7	4
189.8	11
189.9	21
190.0	25
190.1	20
190.4	10
190.5	19
190.6	26
190.7	26
190.8	18
191.0	7
191.1	12
191.2	20
191.3	22
191.4	17
191.6	6
191.7	11
191.8	19
191.9	24
192.0	21
192.1	13
192.3	5
192.4	11
192.5	19
192.6	22
192.7	19
193.5	8
193.6	11
193.7	19
193.8	24
193.9	22
194.0	14
194.2	8
194.3	15
194.4	23
194.5	26
194.6	20
194.7	9
194.9	3
195.0	12
195.1	22
195.2	24
195.3	18
195.5	9
195.6	14
195.7	20
195.8	21
195.9	16
196.1	10
196.2	15
196.3	20
196.4	21
196.5	17
196.8	8
196.9	15
197.0	23
197.1	25
197.2	20
197.5	11
197.6	19
197.7	25
197.8	24
197.9	16
198.1	9
198.2	16
198.3	23
198.4	24
198.5	19
198.7	10
198.8	15
198.9	22
199.0	25
199.1	20
199.2	12
199.4	11
199.5	17
199.6	21
199.7	20
199.8	16
200.0	13
200.1	17
200.2	22
200.3	23
200.4	16
200.6	4
200.7	9
200.8	18
200.9	22
201.0	18
201.1	10
201.3	6
201.4	14
201.5	21
201.6	19
201.7	13
201.9	10
202.0	17
202.1	21
202.2	21
202.3	18
202.4	13
202.6	11
202.7	16
202.8	20
202.9	19
203.0	12
203.2	7
203.3	14
203.4	20
203.5	19
203.6	14
203.8	11
203.9	18
204.0	25
204.1	24
204.2	16
204.4	7
204.5	14
204.6	23
204.7	26
204.8	21
205.1	11
205.2	20
205.3	27
205.4	26
205.5	17
206.3	4
206.4	9
206.5	19
206.6	24
206.7	22
206.8	13
207.0	4
207.1	13
207.2	22
207.3	24
207.4	18
207.6	6
207.7	12
207.8	20
207.9	26
208.0	23
208.1	15
208.3	7
208.4	14
208.5	21
208.6	22
208.7	16
208.9	5
209.0	10
209.1	19
209.2	23
209.3	19
209.6	11
209.7	20
209.8	26
209.9	25
210.0	15
210.2	4
210.3	13
210.4	23
210.5	26
210.6	18
210.8	6
210.9	12
211.0	21
211.1	25
211.2	21
211.3	13
211.5	9
211.6	17
211.7	24
211.8	23
211.9	18
212.1	12
212.2	17
212.3	23
212.4	25
212.5	20
212.7	10
212.8	15
212.9	22
213.0	25
213.1	21
213.2	12
213.4	9
213.5	17
213.6	23
213.7	23
213.8	17
214.7	10
214.8	17
214.9	23
215.0	23
215.1	17
215.3	7
215.4	13
215.5	21
215.6	24
215.7	20
215.8	13
216.0	11
216.1	18
216.2	22
216.3	20
216.4	14
216.6	10
216.7	15
216.8	20
216.9	21
217.0	16
217.2	5
217.3	10
217.4	19
217.5	24
217.6	22
217.7	14
217.9	10
218.0	17
218.1	23
218.2	24
218.3	19
218.4	11
218.6	9
218.7	16
218.8	21
218.9	20
219.0	14
219.2	9
219.3	15
219.4	21
219.5	20
219.6	13
219.8	3
219.9	9
220.0	18
220.1	22
220.2	18
220.5	12
220.6	20
220.7	25
220.8	22
220.9	12
221.1	6
221.2	15
221.3	24
221.4	27
221.5	20
222.4	9
222.5	15
222.6	19
222.7	19
222.8	16
223.0	13
223.1	18
223.2	24
223.3	25
223.4	20
223.5	11
223.7	8
223.8	15
223.9	20
224.0	21
224.1	16
224.3	8
224.4	12
224.5	19
224.6	22
224.7	19
224.8	12
225.0	11
225.1	17
225.2	21
225.3	18
225.4	11
225.6	9
225.7	17
225.8	23
225.9	22
226.0	15
226.2	10
226.3	17
226.4	23
226.5	23
226.6	16
226.8	4
226.9	10
227.0	19
227.1	25
227.2	22
227.3	13
227.5	8
227.6	18
227.7	27
227.8	28
227.9	18
228.2	7
228.3	16
228.4	21
228.5	19
228.8	11
228.9	18
229.0	22
229.1	20
229.2	13
229.4	9
229.5	15
229.6	22
229.7	24
229.8	18
230.1	9
230.2	18
230.3	24
230.4	22
230.5	14
230.7	9
230.8	15
230.9	21
231.0	21
231.1	17
231.3	11
231.4	16
231.5	22
231.6	24
231.7	20
231.8	12
232.0	9
232.1	17
232.2	23
232.3	21
232.4	14
232.6	6
232.7	12
232.8	19
232.9	21
233.0	16
233.1	10
233.3	9
233.4	14
233.5	17
233.6	16
233.9	8
234.0	16
234.1	25
234.2	26
234.3	17
235.2	7
235.3	15
235.4	21
235.5	23
235.6	18
235.8	10
235.9	15
236.0	22
236.1	24
236.2	19
236.4	10
236.5	15
236.6	23
236.7	26
236.8	21
236.9	12
237.1	6
237.2	14
237.3	22
237.4	23
237.5	16
237.7	7
237.8	12
237.9	20
238.0	24
238.1	20
238.2	12
238.4	8
238.5	15
238.6	21
238.7	20
238.8	15
239.0	12
239.1	17
239.2	21
239.3	20
239.4	13
239.6	8
239.7	14
239.8	22
239.9	26
240.0	22
240.1	14
240.3	8
240.4	16
240.5	24
240.6	26
240.7	21
241.6	8
241.7	14
241.8	20
241.9	20
242.0	15
242.2	10
242.3	17
242.4	25
242.5	26
242.6	19
242.7	10
242.9	8
243.0	17
243.1	24
243.2	23
243.3	15
243.5	7
243.6	12
243.7	18
243.8	19
243.9	14
244.1	6
244.2	12
244.3	21
244.4	25
244.5	21
244.6	13
244.8	6
244.9	12
245.0	19
245.1	21
245.2	17
245.4	12
245.5	17
245.6	24
245.7	25
245.8	19
245.9	11
246.1	10
246.2	17
246.3	21
246.4	18
246.7	10
246.8	18
246.9	24
247.0	22
247.1	14
247.3	5
247.4	12
247.5	21
247.6	24
247.7	21
247.8	13
248.0	9
248.1	15
248.2	20
248.3	21
248.4	16
248.7	8
248.8	17
248.9	22
249.0	20
249.3	13
249.4	19
249.5	23
249.6	21
249.7	15
249.9	11
250.0	17
250.1	22
250.2	22
250.3	16
251.1	6
251.2	11
251.3	20
251.4	27
251.5	27
251.6	19
251.9	11
252.0	19
252.1	24
252.2	22
252.3	16
253.1	8
253.2	15
253.3	24
253.4	26
253.5	19
253.7	8
253.8	13
253.9	21
254.0	23
254.1	20
254.4	12
254.5	19
254.6	23
254.7	21
254.8	15
255.0	10
255.1	16
255.2	20
255.3	19
255.4	13
255.6	8
255.7	14
255.8	22
255.9	26
256.0	20
256.1	11
256.3	7
256.4	16
256.5	24
256.6	26
256.7	21
256.8	15
257.5	9
257.6	13
257.7	20
257.8	24
257.9	22
258.0	14
258.2	3
258.3	9
258.4	16
258.5	20
258.6	18
258.8	13
258.9	16
259.0	21
259.1	24
259.2	20
259.3	12
259.5	7
259.6	16
259.7	26
259.8	28
259.9	21
260.0	11
260.2	9
260.3	15
260.4	18
260.5	17
260.6	13
260.8	10
260.9	15
261.0	19
261.1	17
261.2	11
261.4	7
261.5	14
261.6	23
261.7	24
261.8	17
262.0	6
262.1	11
262.2	19
262.3	23
262.4	18
262.7	7
262.8	17
262.9	26
263.0	27
263.1	21
264.0	7
264.1	14
264.2	21
264.3	22
264.4	16
264.6	8
264.7	14
264.8	23
264.9	26
265.0	20
265.3	10
265.4	20
265.5	26
265.6	24
265.7	15
265.9	6
266.0	13
266.1	19
266.2	19
266.3	13
266.5	8
266.6	15
266.7	23
266.8	27
266.9	22
267.0	12
267.2	9
267.3	18
267.4	26
267.5	26
267.6	19
267.8	9
267.9	15
268.0	22
268.1	25
268.2	20
268.3	12
268.5	8
268.6	15
268.7	22
268.8	23
268.9	18
269.1	10
269.2	15
269.3	20
269.4	21
269.5	16
269.7	6
269.8	10
269.9	19
270.0	24
270.1	20
270.4	11
270.5	21
270.6	28
270.7	27
270.8	18
271.0	5
271.1	11
271.2	21
271.3	25
271.4	21
271.5	12
271.7	8
271.8	15
271.9	18
272.0	16
272.1	10
272.3	8
272.4	15
272.5	21
272.6	23
272.7	20
272.9	11
273.0	14
273.1	22
273.2	26
273.3	22
273.4	12
273.6	6
273.7	15
273.8	23
273.9	24
274.0	17
274.2	8
274.3	14
274.4	21
274.5	22
274.6	16
274.9	6
275.0	15
275.1	22
275.2	22
275.3	18
275.5	14
275.6	18
275.7	22
275.8	22
275.9	17
276.8	11
276.9	19
277.0	25
277.1	22
277.2	13
277.4	3
277.5	11
277.6	20
277.7	23
277.8	18
278.0	7
278.1	11
278.2	20
278.3	26
278.4	23
278.5	15
278.7	8
278.8	14
278.9	20
279.0	23
279.1	18
279.2	11
279.4	8
279.5	15
279.6	19
279.7	17
280.0	9
280.1	17
280.2	24
280.3	23
280.4	16
280.6	8
280.7	13
280.8	19
280.9	22
281.0	20
281.1	15
281.3	12
281.4	15
281.5	18
281.6	17
281.7	13
281.9	10
282.0	15
282.1	21
282.2	22
282.3	17
282.5	8
282.6	14
282.7	21
282.8	23
282.9	18
283.1	6
283.2	11
283.3	20
283.4	25
283.5	21
283.6	13
283.8	10
283.9	17
284.0	23
284.1	22
284.2	14
284.4	3
284.5	8
284.6	16
284.7	22
284.8	21
284.9	15
285.7	9
285.8	12
285.9	18
286.0	21
286.1	18
286.4	10
286.5	18
286.6	24
286.7	24
286.8	16
287.0	4
287.1	11
287.2	21
287.3	25
287.4	20
287.6	10
287.7	14
287.8	21
287.9	25
288.0	22
288.1	14
288.3	7
288.4	13
288.5	18
288.6	18
288.7	12
288.9	8
289.0	15
289.1	23
289.2	25
289.3	20
289.4	12
289.6	8
289.7	15
289.8	21
289.9	20
290.0	12
290.2	4
290.3	11
290.4	21
290.5	26
290.6	22
290.7	13
290.9	7
291.0	15
291.1	23
291.2	22
291.3	15
291.5	9
291.6	16
291.7	23
291.8	23
291.9	16
292.2	10
292.3	17
292.4	22
292.5	21
292.6	15
292.8	12
292.9	18
293.0	22
293.1	21
293.2	16
293.4	10
293.5	14
293.6	19
293.7	20
293.8	15
294.0	9
294.1	15
294.2	22
294.3	23
294.4	16
294.7	8
294.8	18
294.9	26
295.0	26
295.1	17
295.4	11
295.5	17
295.6	21
295.7	20
296.6	6
296.7	13
296.8	19
296.9	19
297.0	12
297.2	4
297.3	12
297.4	23
297.5	28
297.6	22
297.7	10
297.9	2
298.0	12
298.1	23
298.2	26
298.3	21
299.8	7
299.9	14
300.0	21
300.1	23
300.2	18
300.5	10
300.6	17
300.7	21
300.8	19
301.1	11
301.2	18
301.3	22
301.4	20
301.5	13
301.7	4
301.8	10
301.9	18
302.0	21
302.1	16
302.3	3
302.4	8
302.5	18
302.6	25
302.7	24
302.8	17
303.0	10
303.1	15
303.2	20
303.3	22
303.4	17
303.6	6
303.7	10
303.8	19
303.9	25
304.0	23
304.1	14
304.3	8
304.4	14
304.5	19
304.6	18
304.7	12
304.9	6
305.0	13
305.1	23
305.2	27
305.3	22
305.4	12
305.6	5
305.7	13
305.8	22
305.9	25
306.0	21
306.9	10
307.0	19
307.1	25
307.2	23
307.3	16
307.5	8
307.6	15
307.7	21
307.8	22
307.9	16
308.1	7
308.2	12
308.3	20
308.4	24
308.5	22
308.6	16
308.8	13
308.9	19
309.0	22
309.1	20
309.2	11
309.4	5
309.5	13
309.6	23
309.7	28
309.8	25
309.9	16
310.1	9
310.2	16
310.3	22
310.4	20
310.5	12
310.7	6
310.8	15
310.9	23
311.0	24
311.1	17
311.3	8
311.4	15
311.5	24
311.6	27
311.7	22
311.8	14
312.0	11
312.1	18
312.2	23
312.3	22
312.4	16
312.6	7
312.7	11
312.8	17
312.9	20
313.0	17
313.2	9
313.3	14
313.4	20
313.5	21
313.6	17
313.9	12
314.0	18
314.1	24
314.2	23
314.3	18
314.5	13
314.6	16
314.7	20
314.8	20
314.9	17
315.2	11
315.3	16
315.4	21
315.5	20
315.6	13
315.8	2
315.9	7
316.0	16
316.1	21
316.2	19
316.5	12
316.6	19
316.7	24
316.8	22
316.9	14
317.1	8
317.2	14
317.3	21
317.4	21
317.5	15
317.7	6
317.8	12
317.9	22
318.0	27
318.1	24
318.2	17
318.4	12
318.5	15
318.6	18
318.7	16
319.0	11
319.1	16
319.2	21
319.3	22
319.4	17
319.7	12
319.8	19
319.9	23
320.0	20
320.1	13
320.3	6
320.4	15
320.5	25
320.6	29
320.7	24
320.8	15
321.0	12
321.1	17
321.2	19
321.3	16
321.5	9
321.6	14
321.7	22
321.8	27
321.9	24
322.0	15
322.2	7
322.3	13
322.4	22
322.5	26
322.6	21
322.7	12
322.9	10
323.0	18
323.1	24
323.2	23
323.3	14
323.5	6
323.6	13
323.7	21
323.8	22
323.9	16
324.1	4
324.2	8
324.3	18
324.4	24
324.5	21
324.6	11
324.8	6
324.9	15
325.0	24
325.1	24
325.2	15
325.4	4
325.5	11
325.6	20
325.7	23
325.8	19
326.7	4
326.8	9
326.9	16
327.0	20
327.1	18
327.3	12
327.4	15
327.5	21
327.6	25
327.7	21
327.8	12
328.0	6
328.1	12
328.2	19
328.3	19
328.4	15
328.6	7
328.7	11
328.8	16
328.9	18
329.0	14
329.2	9
329.3	15
329.4	22
329.5	25
329.6	20
329.7	10
329.9	4
330.0	12
330.1	21
330.2	24
330.3	19
330.5	8
330.6	13
330.7	21
330.8	24
330.9	20
331.0	12
331.2	8
331.3	13
331.4	17
331.5	17
331.8	11
331.9	16
332.0	20
332.1	19
332.2	14
332.4	6
332.5	11
332.6	19
332.7	25
332.8	24
332.9	17
333.1	9
333.2	14
333.3	20
333.4	21
333.5	16
333.7	9
333.8	15
333.9	23
334.0	24
334.1	18
334.4	9
334.5	17
334.6	24
334.7	23
334.8	15
335.0	5
335.1	12
335.2	20
335.3	24
335.4	20
335.5	13
335.7	7
335.8	13
335.9	19
336.0	19
336.1	14
336.3	8
336.4	14
336.5	20
336.6	21
336.7	17
336.9	7
337.0	11
337.1	19
337.2	24
337.3	22
337.4	16
337.6	11
337.7	17
337.8	21
337.9	21
338.0	15
338.2	9
338.3	13
338.4	19
338.5	20
338.6	15
338.8	7
338.9	12
339.0	20
339.1	25
339.2	23
339.3	16
339.5	10
339.6	16
339.7	24
339.8	25
339.9	20
340.8	10
340.9	17
341.0	23
341.1	22
341.2	16
341.4	11
341.5	16
341.6	22
341.7	22
341.8	16
342.1	9
342.2	16
342.3	21
342.4	21
342.5	17
342.7	12
342.8	16
342.9	20
343.0	20
343.1	15
343.3	7
343.4	11
343.5	17
343.6	19
343.7	16
343.9	10
344.0	13
344.1	20
344.2	24
344.3	22
344.4	14
344.6	6
344.7	13
344.8	21
344.9	24
345.0	19
345.2	10
345.3	15
345.4	23
345.5	28
345.6	26
345.7	18
345.9	10
346.0	15
346.1	20
346.2	20
346.3	15
346.5	8
346.6	12
346.7	18
346.8	20
346.9	16
347.2	10
347.3	16
347.4	22
347.5	21
347.6	16
347.8	11
347.9	18
348.0	26
348.1	29
348.2	22
348.3	12
348.5	8
348.6	16
348.7	23
348.8	24
348.9	18
349.1	11
349.2	16
349.3	22
349.4	23
349.5	18
349.7	12
349.8	17
349.9	24
350.0	26
350.1	21
350.4	13
350.5	21
350.6	26
350.7	24
350.8	15
351.0	7
351.1	16
351.2	24
351.3	24
351.4	17
351.6	7
351.7	12
351.8	19
351.9	23
352.0	20
352.1	12
352.3	7
352.4	14
352.5	23
352.6	26
352.7	21
352.8	13
353.0	10
353.1	16
353.2	21
353.3	19
353.4	11
353.6	7
353.7	17
353.8	24
353.9	22
354.0	14
354.2	10
354.3	19
354.4	26
354.5	25
354.6	17
354.8	8
354.9	13
355.0	21
355.1	25
355.2	23
355.3	14
355.5	7
355.6	13
355.7	19
355.8	21
355.9	16
356.1	8
356.2	11
356.3	18
356.4	22
356.5	19
356.6	13
356.8	9
356.9	14
357.0	18
357.1	17
357.2	11
357.4	2
357.5	7
357.6	15
357.7	20
357.8	20
357.9	15
358.1	12
358.2	19
358.3	24
358.4	22
358.5	14
358.7	6
358.8	12
358.9	18
359.0	18
359.1	13
359.3	8
359.4	14
359.5	21
359.6	23
359.7	19
359.8	11
360.0	6
360.1	14
360.2	22
360.3	25
360.4	20
360.6	10
360.7	15
360.8	21
360.9	23
361.0	17
361.2	8
361.3	13
361.4	21
361.5	24
361.6	20
361.7	10
361.9	7
362.0	15
362.1	23
362.2	24
362.3	17
362.5	6
362.6	13
362.7	22
362.8	24
362.9	15
363.1	1
363.2	8
363.3	19
363.4	25
363.5	22
363.6	13
363.8	6
363.9	13
364.0	20
364.1	20
364.2	13
364.4	5
364.5	12
364.6	21
364.7	26
364.8	23
364.9	14
365.1	8
365.2	15
365.3	20
365.4	19
365.5	12
365.7	6
365.8	14
365.9	22
366.0	25
366.1	21
366.2	14
366.4	10
366.5	16
366.6	22
366.7	21
366.8	14
367.0	5
367.1	10
367.2	16
367.3	19
367.4	17
367.6	13
367.7	16
367.8	22
367.9	23
368.0	18
368.3	10
368.4	19
368.5	24
368.6	21
368.7	12
368.9	6
369.0	14
369.1	22
369.2	24
369.3	19
369.4	10
369.6	7
369.7	15
369.8	22
369.9	23
370.0	18
370.2	9
370.3	13
370.4	19
370.5	23
370.6	20
370.7	12
370.9	7
371.0	14
371.1	20
371.2	19
371.5	11
371.6	19
371.7	27
371.8	26
371.9	19
372.8	9
372.9	17
373.0	24
373.1	24
373.2	19
374.0	12
374.1	17
374.2	22
374.3	23
374.4	18
374.5	8
374.7	3
374.8	11
374.9	18
375.0	21
375.1	18
375.3	11
375.4	15
375.5	21
375.6	22
375.7	17
375.9	7
376.0	11
376.1	21
376.2	28
376.3	26
376.4	16
376.6	5
376.7	12
376.8	21
376.9	25
377.0	20
377.3	12
377.4	21
377.5	27
377.6	24
377.7	15
377.9	8
378.0	15
378.1	23
378.2	26
378.3	22
378.4	13
378.6	9
378.7	17
378.8	23
378.9	21
379.0	15
379.2	12
379.3	19
379.4	25
379.5	24
379.6	16
379.8	4
379.9	10
380.0	19
380.1	24
380.2	20
380.3	11
380.5	10
380.6	18
380.7	23
380.8	22
380.9	15
381.1	10
381.2	17
381.3	23
381.4	23
381.5	17
381.7	9
381.8	13
381.9	19
382.0	22
382.1	18
382.4	10
382.5	18
382.6	25
382.7	24
382.8	17
383.0	8
383.1	15
383.2	23
383.3	25
383.4	20
383.6	9
383.7	13
383.8	22
383.9	27
384.0	22
384.1	12
384.3	8
384.4	17
384.5	24
384.6	24
384.7	16
384.9	1
385.0	6
385.1	18
385.2	27
385.3	26
385.4	16
385.6	5
385.7	14
385.8	24
385.9	25
386.0	17
386.2	5
386.3	11
386.4	20
386.5	25
386.6	22
386.7	15
386.9	10
387.0	15
387.1	19
387.2	17
387.3	9
387.5	6
387.6	15
387.7	22
387.8	22
387.9	14
388.1	5
388.2	11
388.3	19
388.4	24
388.5	20
388.6	12
388.8	9
388.9	18
389.0	24
389.1	23
389.2	15
389.4	4
389.5	13
389.6	23
389.7	26
389.8	19
389.9	7
390.1	6
390.2	15
390.3	22
390.4	22
390.5	15
390.7	6
390.8	12
390.9	20
391.0	22
391.1	17
391.3	10
391.4	18
391.5	27
391.6	29
391.7	21
392.0	9
392.1	19
392.2	26
392.3	23
392.4	14
392.6	5
392.7	11
392.8	19
392.9	21
393.0	17
393.3	10
393.4	17
393.5	21
393.6	18
393.7	9
393.9	5
394.0	15
394.1	23
394.2	24
394.3	16
394.5	5
394.6	12
394.7	21
394.8	25
394.9	21
395.0	14
395.2	10
395.3	16
395.4	21
395.5	20
395.6	15
395.8	10
395.9	17
396.0	23
396.1	23
396.2	15
396.4	3
396.5	10
396.6	19
396.7	23
396.8	19
397.1	12
397.2	17
397.3	20
397.4	17
397.5	11
397.7	8
397.8	14
397.9	20
398.0	20
398.1	16
398.2	10
398.4	9
398.5	14
398.6	18
398.7	17
399.0	11
399.1	18
399.2	23
399.3	22
399.4	14
399.6	2
399.7	9
399.8	20
399.9	26
400.0	24
400.1	16
400.3	10
400.4	17
400.5	24
400.6	24
400.7	17
400.9	6
401.0	12
401.1	21
401.2	26
401.3	24
401.4	16
401.6	9
401.7	17
401.8	24
401.9	25
402.0	19
403.5	9
403.6	15
403.7	21
403.8	21
403.9	15
404.1	7
404.2	11
404.3	17
404.4	20
404.5	18
404.6	12
404.8	9
404.9	17
405.0	25
405.1	26
405.2	19
405.4	9
405.5	15
405.6	21
405.7	24
405.8	20
405.9	13
406.1	10
406.2	17
406.3	23
406.4	23
406.5	16
406.7	10
406.8	16
406.9	21
407.0	21
407.1	16
407.3	12
407.4	17
407.5	21
407.6	22
407.7	18
408.0	11
408.1	17
408.2	22
408.3	22
408.4	16
408.6	7
408.7	12
408.8	20
408.9	24
409.0	20
409.1	11
409.3	7
409.4	15
409.5	22
409.6	21
409.7	14
409.9	11
410.0	18
410.1	23
410.2	21
410.3	15
410.5	12
410.6	18
410.7	25
410.8	24
410.9	16
411.2	8
411.3	17
411.4	24
411.5	23
411.6	16
411.8	3
411.9	9
412.0	18
412.1	23
412.2	19
412.5	10
412.6	19
412.7	26
412.8	25
412.9	18
413.1	11
413.2	15
413.3	20
413.4	19
413.5	13
413.7	6
413.8	12
413.9	20
414.0	24
414.1	20
414.2	12
414.4	8
414.5	17
414.6	24
414.7	22
414.8	14
415.0	7
415.1	13
415.2	19
415.3	21
415.4	17
415.6	9
415.7	14
415.8	20
415.9	22
416.0	18
416.1	11
416.3	8
416.4	16
416.5	24
416.6	25
416.7	18
417.0	9
417.1	19
417.2	25
417.3	22
417.4	15
417.6	10
417.7	17
417.8	23
417.9	22
418.0	15
418.2	5
418.3	11
418.4	21
418.5	24
418.6	19
418.9	12
419.0	21
419.1	26
419.2	23
419.3	14
419.5	5
419.6	12
419.7	22
419.8	26
419.9	22
420.0	15
420.2	12
420.3	17
420.4	19
420.5	17
420.8	12
420.9	18
421.0	22
421.1	19
421.2	12
421.4	8
421.5	17
421.6	24
421.7	24
421.8	17
422.0	4
422.1	10
422.2	20
422.3	27
422.4	25
422.5	16
422.7	9
422.8	16
422.9	23
423.0	23
423.1	17
423.9	9
424.0	13
424.1	19
424.2	22
424.3	18
424.6	9
424.7	18
424.8	25
424.9	25
425.0	18
425.3	9
425.4	17
425.5	22
425.6	20
425.7	12
425.9	3
426.0	10
426.1	18
426.2	21
426.3	16
426.5	7
426.6	13
426.7	22
426.8	25
426.9	19
427.0	9
427.2	8
427.3	17
427.4	23
427.5	21
427.6	13
427.8	5
427.9	13
428.0	23
428.1	26
428.2	21
428.3	12
428.5	10
428.6	17
428.7	21
428.8	17
429.1	9
429.2	18
429.3	26
429.4	26
429.5	17
429.7	6
429.8	13
429.9	22
430.0	25
430.1	20
430.4	12
430.5	18
430.6	22
430.7	18
430.8	12
431.0	10
431.1	16
431.2	21
431.3	21
431.4	16
431.6	8
431.7	12
431.8	19
431.9	23
432.0	19
432.1	12
432.3	8
432.4	15
432.5	22
432.6	22
432.7	17
433.0	8
433.1	16
433.2	22
433.3	22
433.4	16
433.6	8
433.7	12
433.8	18
433.9	19
434.0	16
434.9	8
435.0	15
435.1	20
435.2	19
435.3	13
435.5	10
435.6	17
435.7	24
435.8	24
435.9	17
436.2	9
436.3	16
436.4	21
436.5	19
436.6	13
436.8	8
436.9	14
437.0	19
437.1	18
437.2	11
437.4	5
437.5	11
437.6	18
437.7	22
437.8	18
438.0	7
438.1	12
438.2	24
438.3	31
438.4	29
438.5	17
438.7	8
438.8	17
438.9	25
439.0	23
439.1	13
439.3	3
439.4	9
439.5	18
439.6	22
439.7	18
439.8	11
440.0	7
440.1	15
440.2	22
440.3	23
440.4	17
440.6	7
440.7	11
440.8	19
440.9	22
441.0	17
441.3	9
441.4	18
441.5	23
441.6	21
441.7	14
441.9	11
442.0	18
442.1	22
442.2	19
442.3	10
442.5	6
442.6	15
442.7	24
442.8	26
442.9	20
443.0	11
443.2	9
443.3	17
443.4	22
443.5	20
443.6	13
443.8	6
443.9	12
444.0	20
444.1	25
444.2	23
444.3	17
444.5	14
444.6	19
444.7	22
444.8	18
445.1	9
445.2	17
445.3	23
445.4	22
445.5	16
445.7	9
445.8	15
445.9	23
446.0	28
446.1	24
446.2	14
446.4	7
446.5	15
446.6	22
446.7	23
446.8	17
447.0	8
447.1	13
447.2	20
447.3	23
447.4	21
447.7	15
447.8	21
447.9	25
448.0	22
448.1	14
448.3	8
448.4	16
448.5	25
448.6	26
448.7	19
448.9	7
449.0	13
449.1	21
449.2	25
449.3	22
449.4	15
449.6	9
449.7	15
449.8	20
449.9	20
450.0	16
450.2	11
450.3	14
450.4	18
450.5	19
450.6	16
450.8	8
450.9	12
451.0	19
451.1	25
451.2	23
451.3	15
451.5	7
451.6	14
451.7	22
451.8	22
451.9	14
452.1	6
452.2	13
452.3	21
452.4	24
452.5	20
452.6	12
452.8	7
452.9	12
453.0	17
453.1	18
453.2	15
453.4	11
453.5	14
453.6	18
453.7	19
453.8	17
454.0	14
454.1	17
454.2	21
454.3	23
454.4	20
454.5	14
454.7	11
454.8	16
454.9	21
455.0	22
455.1	16
455.3	7
455.4	11
455.5	18
455.6	22
455.7	18
455.8	11
456.0	8
456.1	14
456.2	19
456.3	18
456.4	12
456.6	7
456.7	13
456.8	21
456.9	23
457.0	18
457.9	9
458.0	15
458.1	21
458.2	22
458.3	17
458.5	9
458.6	15
458.7	23
458.8	27
458.9	23
459.0	14
459.2	7
459.3	16
459.4	24
459.5	25
459.6	17
459.8	6
459.9	14
460.0	23
460.1	27
460.2	21
460.5	11
460.6	20
460.7	27
460.8	25
460.9	17
461.1	12
461.2	20
461.3	27
461.4	25
461.5	15
461.7	4
461.8	11
461.9	21
462.0	24
462.1	19
462.4	12
462.5	20
462.6	25
462.7	22
462.8	16
463.0	14
463.1	19
463.2	23
463.3	22
463.4	16
463.6	5
463.7	9
463.8	18
463.9	25
464.0	23
464.1	15
464.3	9
464.4	16
464.5	21
464.6	19
464.7	13
464.9	6
465.0	12
465.1	20
465.2	23
465.3	19
465.6	12
465.7	18
465.8	23
465.9	22
466.0	15
466.2	6
466.3	10
466.4	17
466.5	20
466.6	18
466.7	13
467.5	7
467.6	15
467.7	22
467.8	22
467.9	17
468.1	8
468.2	12
468.3	19
468.4	21
468.5	16
468.8	8
468.9	15
469.0	21
469.1	20
469.4	13
469.5	20
469.6	26
469.7	25
469.8	18
469.9	9
470.1	8
470.2	17
470.3	24
470.4	24
470.5	15
470.7	5
470.8	13
470.9	24
471.0	28
471.1	22
471.2	11
471.4	9
471.5	17
471.6	23
471.7	21
471.8	14
472.0	11
472.1	18
472.2	23
472.3	22
472.4	15
472.6	6
472.7	12
472.8	21
472.9	25
473.0	22
473.1	14
473.3	10
473.4	16
473.5	20
473.6	17
473.7	10
473.9	7
474.0	14
474.1	21
474.2	22
474.3	17
474.5	8
474.6	12
474.7	19
474.8	21
474.9	18
475.2	9
475.3	18
475.4	25
475.5	23
475.6	15
475.8	5
475.9	11
476.0	18
476.1	20
476.2	16
476.4	7
476.5	14
476.6	24
476.7	28
476.8	23
476.9	12
477.1	9
477.2	17
477.3	24
477.4	24
477.5	17
477.8	8
477.9	17
478.0	22
478.1	19
478.4	10
478.5	19
478.6	25
478.7	24
478.8	18
479.0	9
479.1	14
479.2	21
479.3	22
479.4	18
479.6	9
479.7	13
479.8	20
479.9	22
480.0	18
480.3	11
480.4	17
480.5	20
480.6	17
480.7	10
480.9	3
481.0	9
481.1	18
481.2	23
481.3	20
481.6	12
481.7	18
481.8	22
481.9	19
482.0	12
482.2	3
482.3	9
482.4	18
482.5	22
482.6	18
483.5	10
483.6	17
483.7	22
483.8	22
483.9	16
484.1	11
484.2	17
484.3	25
484.4	27
484.5	21
484.6	11
484.8	7
484.9	14
485.0	21
485.1	23
485.2	17
485.4	8
485.5	15
485.6	25
485.7	28
485.8	22
485.9	11
486.1	9
486.2	18
486.3	24
486.4	22
486.5	14
486.7	8
486.8	16
486.9	22
487.0	22
487.1	17
487.3	13
487.4	18
487.5	23
487.6	22
487.7	16
488.0	8
488.1	16
488.2	23
488.3	22
488.4	15
488.6	6
488.7	13
488.8	22
488.9	25
489.0	21
489.1	13
489.3	12
489.4	17
489.5	20
489.6	18
489.8	11
489.9	16
490.0	23
490.1	27
490.2	23
490.3	11
490.5	0
490.6	7
490.7	18
490.8	24
490.9	21
491.0	13
491.2	7
491.3	14
491.4	20
491.5	20
491.6	14
491.8	6
491.9	12
492.0	20
492.1	22
492.2	19
493.1	11
493.2	18
493.3	25
493.4	25
493.5	18
494.4	3
494.5	14
494.6	23
494.7	23
494.8	16
495.0	10
495.1	16
495.2	23
495.3	24
495.4	18
495.5	11
495.7	9
495.8	17
495.9	23
496.0	22
496.1	14
496.3	7
496.4	13
496.5	19
496.6	20
496.7	15
496.9	9
497.0	13
497.1	20
497.2	23
497.3	19
497.4	11
497.6	8
497.7	15
497.8	21
497.9	20
498.0	13
498.2	6
498.3	13
498.4	20
498.5	22
498.6	17
498.8	6
498.9	10
499.0	19
499.1	26
499.2	25
499.3	18
499.5	10
499.6	15
499.7	19
499.8	18
499.9	12
500.1	8
500.2	16
500.3	23
500.4	25
500.5	20
500.8	13
500.9	20
501.0	24
501.1	22
501.2	14
501.4	6
501.5	13
501.6	23
501.7	26
501.8	21
501.9	12
502.1	10
502.2	19
502.3	24
502.4	22
502.5	14
502.7	11
502.8	17
502.9	22
503.0	20
503.1	13
503.3	6
503.4	12
503.5	20
503.6	23
503.7	18
504.0	10
504.1	19
504.2	28
504.3	28
504.4	21
504.6	10
504.7	15
504.8	22
504.9	24
505.0	18
505.2	3
505.3	9
505.4	22
505.5	29
505.6	26
505.7	15
505.9	6
506.0	12
506.1	19
506.2	21
506.3	17
506.5	11
506.6	15
506.7	21
506.8	22
506.9	18
507.0	10
507.2	5
507.3	12
507.4	19
507.5	22
507.6	18
508.4	1
508.5	5
508.6	16
508.7	25
508.8	27
508.9	22
509.0	15
509.7	8
509.8	14
509.9	21
510.0	23
510.1	17
510.4	8
510.5	18
510.6	26
510.7	25
510.8	17
511.0	8
511.1	15
511.2	24
511.3	26
511.4	20
511.7	12
511.8	19
511.9	22
512.0	20
512.1	13
512.3	9
512.4	15
512.5	22
512.6	23
512.7	17
512.9	9
513.0	13
513.1	20
513.2	23
513.3	20
513.4	13
513.6	11
513.7	16
513.8	20
513.9	18
514.2	13
514.3	18
514.4	22
514.5	22
514.6	17
514.9	11
515.0	19
515.1	25
515.2	25
515.3	20
515.5	14
515.6	18
515.7	21
515.8	21
515.9	17
516.1	13
516.2	20
516.3	26
516.4	26
516.5	19
516.6	12
516.8	12
516.9	17
517.0	20
517.1	18
517.2	13
517.4	9
517.5	16
517.6	23
517.7	24
517.8	19
518.0	9
518.1	14
518.2	22
518.3	26
518.4	22
518.5	14
518.7	9
518.8	15
518.9	21
519.0	23
519.1	19
519.2	11
519.4	9
519.5	17
519.6	22
519.7	19
520.0	11
520.1	18
520.2	22
520.3	19
520.4	13
520.6	8
520.7	15
520.8	23
520.9	25
521.0	19
521.1	10
521.3	8
521.4	16
521.5	20
521.6	18
521.9	11
522.0	17
522.1	21
522.2	19
522.3	12
522.5	6
522.6	12
522.7	20
522.8	24
522.9	20
523.2	11
523.3	20
523.4	27
523.5	25
523.6	16
523.8	6
523.9	11
524.0	18
524.1	20
524.2	17
524.4	12
524.5	16
524.6	21
524.7	22
524.8	17
525.1	8
525.2	17
525.3	25
525.4	25
525.5	16
525.7	3
525.8	9
525.9	20
526.0	27
526.1	24
526.2	17
526.4	10
526.5	14
526.6	18
526.7	19
526.8	15
527.0	9
527.1	14
527.2	21
527.3	23
527.4	18
527.7	11
527.8	19
527.9	25
528.0	24
528.1	15
528.3	6
528.4	13
528.5	22
528.6	25
528.7	19
529.0	12
529.1	19
529.2	24
529.3	21
529.4	13
529.6	7
529.7	14
529.8	19
529.9	18
530.2	13
530.3	19
530.4	23
530.5	21
530.6	15
530.9	9
531.0	16
531.1	21
531.2	19
531.3	13
531.5	11
531.6	18
531.7	25
531.8	25
531.9	19
532.1	8
532.2	13
532.3	22
532.4	26
532.5	22
532.6	13
532.8	6
532.9	15
533.0	23
533.1	22
533.2	14
533.5	8
533.6	15
533.7	19
533.8	17
534.0	10
534.1	14
534.2	20
534.3	24
534.4	20
534.5	13
534.7	8
534.8	14
534.9	21
535.0	21
535.1	14
535.3	5
535.4	13
535.5	23
535.6	25
535.7	17
535.8	7
536.0	4
536.1	12
536.2	19
536.3	21
536.4	16
536.6	6
536.7	12
536.8	22
536.9	27
537.0	21
537.1	10
537.3	7
537.4	16
537.5	25
537.6	24
537.7	15
537.9	7
538.0	15
538.1	23
538.2	24
538.3	18
538.5	11
538.6	17
538.7	22
538.8	22
538.9	16
539.1	7
539.2	11
539.3	18
539.4	22
539.5	19
539.6	11
539.8	3
539.9	10
540.0	20
540.1	24
540.2	20
540.3	11
540.5	10
540.6	17
540.7	20
540.8	16
541.1	8
541.2	17
541.3	24
541.4	23
541.5	15
541.7	9
541.8	16
541.9	23
542.0	25
542.1	19
542.2	10
542.4	7
542.5	14
542.6	19
542.7	18
542.8	12
543.0	7
543.1	14
543.2	22
543.3	23
543.4	18
543.6	8
543.7	13
543.8	20
543.9	21
544.0	16
544.3	10
544.4	18
544.5	25
544.6	24
544.7	15
544.9	1
545.0	8
545.1	18
545.2	23
545.3	20
545.4	14
545.6	12
545.7	18
545.8	22
545.9	21
546.0	14
546.2	8
546.3	15
546.4	21
546.5	22
546.6	15
546.8	6
546.9	12
547.0	20
547.1	23
547.2	18
547.5	10
547.6	18
547.7	25
547.8	25
547.9	19
548.8	8
548.9	16
549.0	22
549.1	20
549.2	11
549.4	5
549.5	12
549.6	19
549.7	20
549.8	14
550.0	5
550.1	12
550.2	22
550.3	25
550.4	19
550.5	7
550.7	3
550.8	13
550.9	23
551.0	24
551.1	17
551.3	8
551.4	12
551.5	20
551.6	24
551.7	20
551.8	12
552.0	8
552.1	16
552.2	22
552.3	21
552.4	14
552.6	5
552.7	12
552.8	21
552.9	24
553.0	19
553.2	8
553.3	14
553.4	23
553.5	27
553.6	22
553.7	12
553.9	6
554.0	15
554.1	24
554.2	26
554.3	21
555.2	11
555.3	15
555.4	19
555.5	18
555.6	13
555.8	7
555.9	13
556.0	20
556.1	22
556.2	17
556.4	8
556.5	13
556.6	21
556.7	26
556.8	23
556.9	13
557.1	7
557.2	16
557.3	25
557.4	27
557.5	20
557.8	12
557.9	19
558.0	23
558.1	20
558.2	13
558.4	9
558.5	16
558.6	22
558.7	21
558.8	13
559.0	7
559.1	15
559.2	23
559.3	25
559.4	20
559.7	13
559.8	20
559.9	26
560.0	25
560.1	16
560.3	5
560.4	13
560.5	22
560.6	23
560.7	17
561.0	10
561.1	18
561.2	23
561.3	20
561.4	12
561.6	7
561.7	14
561.8	20
561.9	20
562.0	15
562.2	11
562.3	17
562.4	24
562.5	26
562.6	21
562.7	13
562.9	10
563.0	17
563.1	22
563.2	20
563.3	12
563.5	7
563.6	17
563.7	25
563.8	26
563.9	18
564.1	6
564.2	12
564.3	21
564.4	26
564.5	22
564.6	14
564.8	8
564.9	14
565.0	19
565.1	18
565.2	13
565.4	7
565.5	13
565.6	20
565.7	22
565.8	18
566.1	11
566.2	18
566.3	22
566.4	20
566.5	12
566.7	9
566.8	19
566.9	28
567.0	27
567.1	18
567.3	4
567.4	12
567.5	23
567.6	28
567.7	23
567.8	14
568.0	11
568.1	18
568.2	22
568.3	21
568.4	15
568.6	8
568.7	14
568.8	21
568.9	22
569.0	17
569.2	9
569.3	14
569.4	22
569.5	26
569.6	24
569.7	17
569.9	15
570.0	20
570.1	23
570.2	23
570.3	18
570.5	12
570.6	15
570.7	21
570.8	24
570.9	21
571.0	14
571.2	10
571.3	16
571.4	22
571.5	23
571.6	18
572.4	3
572.5	8
572.6	17
572.7	25
572.8	24
572.9	16
573.1	8
573.2	14
573.3	20
573.4	21
573.5	17
573.7	12
573.8	15
573.9	20
574.0	21
574.1	18
574.2	11
574.4	9
574.5	16
574.6	22
574.7	22
574.8	16
575.0	9
575.1	15
575.2	22
575.3	23
575.4	17
575.6	6
575.7	11
575.8	21
575.9	25
576.0	21
576.1	12
576.3	5
576.4	11
576.5	19
576.6	21
576.7	17
576.8	9
577.0	6
577.1	13
577.2	19
577.3	20
577.6	15
577.7	20
577.8	24
577.9	21
578.0	12
578.2	8
578.3	17
578.4	25
578.5	25
578.6	18
578.8	6
578.9	12
579.0	20
579.1	25
579.2	21
579.3	12
579.5	5
579.6	10
579.7	17
579.8	20
579.9	17
580.2	13
580.3	18
580.4	20
580.5	18
580.6	13
580.8	10
580.9	17
581.0	24
581.1	24
581.2	18
581.4	8
581.5	13
581.6	20
581.7	24
581.8	19
582.1	10
582.2	19
582.3	25
582.4	24
582.5	18
582.7	13
582.8	17
582.9	21
583.0	20
583.1	14
583.3	6
583.4	12
583.5	21
583.6	26
583.7	22
583.8	14
584.0	11
584.1	18
584.2	22
584.3	21
584.4	14
584.6	8
584.7	14
584.8	22
584.9	25
585.0	21
585.8	15
585.9	18
586.0	24
586.1	26
586.2	20
586.3	9
586.5	0
586.6	8
586.7	17
586.8	23
586.9	22
587.0	16
587.2	10
587.3	14
587.4	18
587.5	17
587.6	13
587.8	10
587.9	16
588.0	22
588.1	23
588.2	17
588.5	9
588.6	17
588.7	22
588.8	21
588.9	15
589.1	11
589.2	16
589.3	21
589.4	19
589.5	13
589.7	4
589.8	9
589.9	17
590.0	23
590.1	21
590.2	13
590.4	7
590.5	14
590.6	20
590.7	19
590.8	10
591.0	4
591.1	12
591.2	20
591.3	23
591.4	18
591.7	10
591.8	18
591.9	23
592.0	21
592.1	14
592.3	7
592.4	12
592.5	18
592.6	18
592.7	12
592.9	8
593.0	16
593.1	25
593.2	29
593.3	25
593.4	18
593.6	13
593.7	19
593.8	24
593.9	22
594.0	16
594.2	9
594.3	15
594.4	22
594.5	24
594.6	18
594.9	12
595.0	18
595.1	22
595.2	20
595.3	13
595.5	10
595.6	16
595.7	21
595.8	20
595.9	13
596.1	6
596.2	11
596.3	19
596.4	23
596.5	20
596.6	13
596.8	10
596.9	17
597.0	23
597.1	22
597.2	15
597.4	7
597.5	14
597.6	21
597.7	23
597.8	18
598.0	11
598.1	14
598.2	20
598.3	23
598.4	20
598.5	12
598.7	6
598.8	13
598.9	22
599.0	25
599.1	20
599.4	10
599.5	18
599.6	24
