Mass spectrum: Dehydroabietic acid; LC-ESI-QQQ; MS2; Frag=135.0V CID@10.0; [M+H]+
Name: Dehydroabietic acid
Class: Terpenoids
Formula: C20H28O2
Exact mass: 300.445
SMILES: CC(C)c1ccc2c(c1)CCC1[C@]2(C)CCC[C@@]1(C)C(=O)O
InChI: InChI=1S/C20H28O2/c1-13(2)14-6-8-16-15(12-14)7-9-17-19(16,3)10-5-11-20(17,4)18(21)22/h6,8,12-13,17H,5,7,9-11H2,1-4H3,(H,21,22)/t17?,19-,20-/m1/s1
Instrument: Agilent 6410 Triple Quadrupole LC/MS system
Instrument type: LC-ESI-QQQ
Ms type: MS2
Ion mode: POSITIVE
Precursor type: [M+H]+
m/z	relative intensity
130.7	1
130.8	3
130.9	4
131.0	5
131.1	5
131.2	4
132.5	1
132.6	4
132.7	8
132.8	14
132.9	20
133.0	22
133.1	21
133.2	17
133.3	12
133.4	7
133.5	2
146.7	0
146.8	2
146.9	5
147.0	6
147.1	6
147.2	4
158.5	1
158.6	3
158.7	9
158.8	17
158.9	28
159.0	37
159.1	40
159.2	36
159.3	25
159.4	13
159.5	4
172.3	1
172.4	3
172.5	6
172.6	12
172.7	21
172.8	37
172.9	61
173.0	86
173.1	99
173.2	93
173.3	72
173.4	44
173.5	19
173.6	3
254.6	5
254.7	6
254.8	8
254.9	12
255.0	14
255.1	14
255.2	15
255.3	18
255.4	19
255.5	15
255.6	7
255.7	1
300.3	1
300.4	3
300.5	5
300.6	5
300.7	4
300.8	7
300.9	14
301.0	23
301.1	27
301.2	24
301.3	15
301.4	9
301.5	6
301.6	3
