Mass spectrum: Glaucine; LC-ESI-QQQ; MS2; Frag=135.0V CID@10.0; [M+H]+
Name: Glaucine
Class: Alkaloids
Formula: C21H25NO4
Exact mass: 355.4377
SMILES: COc1cc2c(cc1OC)-c1c(OC)c(OC)cc3c1C(C2)N(C)CC3
InChI: InChI=1S/C21H25NO4/c1-22-7-6-12-9-18(25-4)21(26-5)20-14-11-17(24-3)16(23-2)10-13(14)8-15(22)19(12)20/h9-11,15H,6-8H2,1-5H3
Instrument: Agilent 6410 Triple Quadrupole LC/MS system
Instrument type: LC-ESI-QQQ
Ms type: MS2
Ion mode: POSITIVE
Precursor type: [M+H]+
m/z	relative intensity
293.3	1
293.4	2
293.5	5
293.6	9
293.7	16
293.8	29
293.9	45
294.0	59
294.1	69
294.2	71
294.3	65
294.4	51
294.5	30
294.6	11
294.7	0
309.4	1
309.5	3
309.6	5
309.7	10
309.8	16
309.9	25
310.0	33
310.1	38
310.2	39
310.3	35
310.4	26
310.5	14
310.6	4
324.3	1
324.4	3
324.5	6
324.6	10
324.7	17
324.8	31
324.9	52
325.0	76
325.1	93
325.2	99
325.3	93
325.4	75
325.5	48
325.6	20
325.7	2
355.4	1
355.5	3
355.6	6
355.7	10
355.8	17
355.9	30
356.0	46
356.1	60
356.2	67
356.3	66
356.4	57
356.5	40
356.6	21
356.7	5
356.8	0
