Mass spectrum: Convolvidine; LC-ESI-QQQ; MS2; Frag=135.0V CID@5.0; [M+H]+
Name: Convolvidine
Class: Alkaloids
Formula: C34H44N2O8
Exact mass: 608.7384
SMILES: COc1ccc(C(=O)OC2CC3CCC(C2)N3CCN2C3CCC2CC(OC(=O)c2ccc(OC)c(OC)c2)C3)cc1OC
InChI: InChI=1S/C34H44N2O8/c1-39-29-11-5-21(15-31(29)41-3)33(37)43-27-17-23-7-8-24(18-27)35(23)13-14-36-25-9-10-26(36)20-28(19-25)44-34(38)22-6-12-30(40-2)32(16-22)42-4/h5-6,11-12,15-16,23-28H,7-10,13-14,17-20H2,1-4H3
Instrument: Agilent 6410 Triple Quadrupole LC/MS system
Instrument type: LC-ESI-QQQ
Ms type: MS2
Ion mode: POSITIVE
Precursor type: [M+H]+
m/z	relative intensity
608.3	1
608.4	2
608.5	4
608.6	8
608.7	14
608.8	24
608.9	40
609.0	59
609.1	78
609.2	91
609.3	99
609.4	99
609.5	90
609.6	68
609.7	39
609.8	13
609.9	0
