Mass spectrum: Raffinose; LC-ESI-QQQ; MS2; Frag=135.0V CID@25.0; [M+Na]+
Name: Gal(alpha1-6)Glc(alpha1-2beta)Fruf
Name: 6G-alpha-D-galactosylsucrose
Name: Raffinose
Name: Gossypose
Name: Melitose
Name: Melitriose
Class: Carbohydrates
Formula: C18H32O16
Exact mass: 504.4461
SMILES: OC[C@@H]1O[C@](CO)(O[C@H]2O[C@H](CO[C@H]3O[C@H](CO)[C@H](O)[C@H](O)[C@H]3O)[C@@H](O)[C@H](O)[C@H]2O)[C@H](O)[C@H]1O
InChI: InChI=1S/C18H32O16/c19-1-5-8(22)11(25)13(27)16(31-5)30-3-7-9(23)12(26)14(28)17(32-7)34-18(4-21)15(29)10(24)6(2-20)33-18/h5-17,19-29H,1-4H2/t5-,6+,7-,8+,9-,10+,11+,12+,13-,14-,15-,16+,17-,18-/m1/s1
Instrument: Agilent 6410 Triple Quadrupole LC/MS system
Instrument type: LC-ESI-QQQ
Ms type: MS2
Ion mode: POSITIVE
Precursor type: [M+Na]+
m/z	relative intensity
364.1	1
364.2	2
364.3	5
364.4	8
364.5	10
364.6	13
364.7	20
364.8	36
364.9	59
365.0	84
365.1	99
365.2	97
365.3	76
365.4	45
365.5	18
365.6	4
526.3	1
526.4	3
526.5	6
526.6	9
526.7	14
526.8	20
526.9	26
527.0	28
527.1	25
527.2	19
527.3	14
527.4	9
527.5	3
