Mass spectrum: Geniposide; LC-ESI-QQQ; MS2; Frag=135.0V CID@15.0; [M+HCOO]-
Name: Geniposide
Class: Terpenoids
Formula: C17H24O10
Exact mass: 388.3748
SMILES: COC(=O)C1=CO[C@@H](OC2O[C@H](CO)[C@@H](O)[C@H](O)[C@H]2O)[C@@H]2C(CO)=CC[C@H]12
InChI: InChI=1S/C17H24O10/c1-24-15(23)9-6-25-16(11-7(4-18)2-3-8(9)11)27-17-14(22)13(21)12(20)10(5-19)26-17/h2,6,8,10-14,16-22H,3-5H2,1H3/t8-,10-,11-,12-,13+,14-,16+,17?/m1/s1
Instrument: Agilent 6410 Triple Quadrupole LC/MS system
Instrument type: LC-ESI-QQQ
Ms type: MS2
Ion mode: NEGATIVE
Precursor type: [M+HCOO]-
m/z	relative intensity
100.2	0
100.3	1
100.4	6
100.5	16
100.6	30
100.7	43
100.8	53
100.9	62
101.0	70
101.1	73
101.2	62
101.3	38
101.4	15
101.5	1
122.2	1
122.3	3
122.4	6
122.5	13
122.6	26
122.7	46
122.8	69
122.9	88
123.0	99
123.1	99
123.2	87
123.3	63
123.4	35
123.5	13
123.6	2
206.4	0
206.5	1
206.6	4
206.7	10
206.8	18
206.9	23
207.0	21
207.1	14
207.2	7
207.3	4
207.4	2
224.3	1
224.4	3
224.5	5
224.6	10
224.7	22
224.8	36
224.9	45
225.0	48
225.1	49
225.2	50
225.3	45
225.4	31
225.5	13
225.6	3
