Mass spectrum: Erythromycin; LC-ESI-QQQ; MS2; Frag=135.0V CID@25.0; [M+H]+
Name: Erythromycin
Class: Polyketides
Formula: C37H67NO13
Exact mass: 733.9454
SMILES: CCC1OC(=O)C(C)C(OC2CC(C)(OC)C(O)C(C)O2)C(C)C(OC2OC(C)CC(N(C)C)C2O)C(C)(O)CC(C)C(=O)C(C)C(O)C1(C)O
InChI: InChI=1S/C37H67NO13/c1-14-25-37(10,45)30(41)20(4)27(39)18(2)16-35(8,44)32(51-34-28(40)24(38(11)12)15-19(3)47-34)21(5)29(22(6)33(43)49-25)50-26-17-36(9,46-13)31(42)23(7)48-26/h18-26,28-32,34,40-42,44-45H,14-17H2,1-13H3
Instrument: Agilent 6410 Triple Quadrupole LC/MS system
Instrument type: LC-ESI-QQQ
Ms type: MS2
Ion mode: POSITIVE
Precursor type: [M+H]+
m/z	relative intensity
82.5	2
82.6	3
82.7	5
82.8	6
82.9	8
83.0	8
83.1	7
83.2	5
83.3	3
115.6	2
115.7	4
115.8	6
115.9	9
116.0	10
116.1	10
116.2	9
116.3	6
116.4	3
157.1	1
157.2	2
157.3	4
157.4	8
157.5	15
157.6	24
157.7	38
157.8	57
157.9	78
158.0	94
158.1	99
158.2	92
158.3	74
158.4	51
158.5	26
158.6	7
158.7	0
521.9	2
522.0	3
522.1	4
522.2	5
522.3	5
522.4	4
522.5	2
575.6	2
575.7	3
575.8	5
575.9	8
576.0	12
576.1	15
576.2	18
576.3	18
576.4	15
576.5	11
576.6	6
576.7	2
