Mass spectrum: 8-hydroxy-2-oxo-1(10),3-guaiadiene-12,6-olide, Ac; LC-ESI-QQQ; MS2; Frag=135.0V CID@10.0 ; [M+H]+
Name: 8-hydroxy-2-oxo-1(10),3-guaiadiene-12,6-olide, Ac
Class: Terpenoids
Formula: C17H20O5
Exact mass: 304.34595
SMILES: CC(=O)O[C@H]1CC(C)=C2C(=O)C=C(C)[C@@H]2[C@H]2OC(=O)[C@@H](C)C12
InChI: InChI=1S/C17H20O5/c1-7-5-11(19)13-8(2)6-12(21-10(4)18)15-9(3)17(20)22-16(15)14(7)13/h5,9,12,14-16H,6H2,1-4H3/t9-,12-,14-,15?,16+/m0/s1
Instrument: Agilent 6410 Triple Quadrupole LC/MS system
Instrument type: LC-ESI-QQQ
Ms type: MS2
Ion mode: POSITIVE
Precursor type: [M+H]+
m/z	relative intensity
198.8	2
198.9	4
199.0	5
199.1	5
199.2	5
199.3	5
199.4	4
199.5	2
244.3	0
244.4	3
244.5	8
244.6	15
244.7	27
244.8	45
244.9	66
245.0	85
245.1	98
245.2	99
245.3	91
245.4	72
245.5	45
245.6	18
245.7	1
