Mass spectrum: Mangiferin; LC-ESI-QQQ; MS2; Frag=135.0V CID@10.0; [M+H]+
Name: Mangiferin
Class: Polyketides
Formula: C19H18O11
Exact mass: 422.3487
SMILES: O=c1c2cc(O)c(O)cc2oc2cc(O)c([C@@H]3O[C@H](CO)[C@@H](O)[C@H](O)[C@H]3O)c(O)c12
InChI: InChI=1S/C19H18O11/c20-4-11-15(25)17(27)18(28)19(30-11)12-8(23)3-10-13(16(12)26)14(24)5-1-6(21)7(22)2-9(5)29-10/h1-3,11,15,17-23,25-28H,4H2/t11-,15-,17+,18-,19+/m1/s1
Instrument: Agilent 6410 Triple Quadrupole LC/MS system
Instrument type: LC-ESI-QQQ
Ms type: MS2
Ion mode: POSITIVE
Precursor type: [M+H]+
m/z	relative intensity
272.1	0
272.2	2
272.3	4
272.4	7
272.5	11
272.6	20
272.7	33
272.8	47
272.9	57
273.0	63
273.1	64
273.2	59
273.3	47
273.4	30
273.5	13
273.6	2
302.0	0
302.1	1
302.2	4
302.3	8
302.4	12
302.5	16
302.6	22
302.7	35
302.8	57
302.9	79
303.0	96
303.1	99
303.2	89
303.3	65
303.4	34
303.5	9
303.6	0
326.2	2
326.3	3
326.4	5
326.5	11
326.6	23
326.7	42
326.8	63
326.9	80
327.0	91
327.1	93
327.2	87
327.3	69
327.4	41
327.5	15
327.6	0
338.5	1
338.6	3
338.7	5
338.8	8
338.9	11
339.0	12
339.1	9
339.2	6
339.3	2
350.4	1
350.5	3
350.6	4
350.7	6
350.8	9
350.9	12
351.0	14
351.1	14
351.2	11
351.3	8
351.4	4
351.5	1
356.2	2
356.3	3
356.4	4
356.5	7
356.6	13
356.7	23
356.8	36
356.9	49
357.0	58
357.1	59
357.2	53
357.3	40
357.4	22
357.5	7
357.6	0
368.2	1
368.3	2
368.4	4
368.5	7
368.6	13
368.7	22
368.8	33
368.9	42
369.0	47
369.1	47
369.2	42
369.3	32
369.4	17
369.5	5
369.6	0
386.4	2
386.5	4
386.6	9
386.7	18
386.8	30
386.9	42
387.0	51
387.1	54
387.2	50
387.3	38
387.4	21
387.5	6
387.6	0
404.2	2
404.3	3
404.4	4
404.5	6
404.6	10
404.7	19
404.8	32
404.9	47
405.0	58
405.1	62
405.2	57
405.3	43
405.4	25
405.5	8
405.6	0
422.1	1
422.2	2
422.3	4
422.4	6
422.5	8
422.6	13
422.7	22
422.8	33
422.9	44
423.0	51
423.1	54
423.2	51
423.3	40
423.4	24
423.5	8
423.6	0
