Mass spectrum: Progesterone; LC-ESI-QQQ; MS2; Frag=135.0V CID@5.0; [M+H]+
Name: Progesterone
Class: Steroids
Formula: C21H30O2
Exact mass: 314.4721
SMILES: CC(=O)C1CCC2C3CCC4=CC(=O)CC[C@]4(C)C3CC[C@]12C
InChI: InChI=1S/C21H30O2/c1-13(22)17-6-7-18-16-5-4-14-12-15(23)8-10-20(14,2)19(16)9-11-21(17,18)3/h12,16-19H,4-11H2,1-3H3/t16?,17?,18?,19?,20-,21+/m0/s1
Instrument: Agilent 6410 Triple Quadrupole LC/MS system
Instrument type: LC-ESI-QQQ
Ms type: MS2
Ion mode: POSITIVE
Precursor type: [M+H]+
m/z	relative intensity
314.4	1
314.5	3
314.6	6
314.7	12
314.8	22
314.9	39
315.0	61
315.1	82
315.2	96
315.3	99
315.4	91
315.5	70
315.6	40
315.7	14
315.8	0
