Mass spectrum: 2,3,14,20,22,25-Hexahydroxycholest-7-en-6-one; LC-ESI-QQQ; MS2;  Frag=135.0V CID@10.0 ; [M+HCOO]-
Name: 2,3,14,20,22,25-Hexahydroxycholest-7-en-6-one
Class: Steroids
Formula: C27H44O7
Exact mass: 480.6475300000001
SMILES: CC(C)(O)CC[C@H](O)[C@](C)(O)C1CC[C@@]2(O)C3=CC(=O)C4CC(O)C(O)C[C@]4(C)C3CC[C@]12C
InChI: InChI=1S/C27H44O7/c1-23(2,32)9-8-22(31)26(5,33)21-7-11-27(34)16-12-18(28)17-13-19(29)20(30)14-24(17,3)15(16)6-10-25(21,27)4/h12,15,17,19-22,29-34H,6-11,13-14H2,1-5H3/t15?,17?,19?,20?,21?,22-,24+,25+,26+,27+/m0/s1
Instrument: Agilent 6410 Triple Quadrupole LC/MS system
Instrument type: LC-ESI-QQQ
Ms type: MS2
Ion mode: NEGATIVE
Precursor type: [M+HCOO]-
m/z	relative intensity
318.6	0
318.7	2
318.8	3
318.9	5
319.0	5
319.1	4
319.2	3
319.3	1
478.3	0
478.4	1
478.5	4
478.6	10
478.7	22
478.8	36
478.9	53
479.0	69
479.1	83
479.2	92
479.3	97
479.4	99
479.5	92
479.6	68
479.7	34
479.8	6
479.9	0
524.4	0
524.5	1
524.6	3
524.7	6
524.8	11
524.9	17
525.0	25
525.1	34
525.2	42
525.3	46
525.4	45
525.5	37
525.6	23
525.7	10
525.8	2
