Mass spectrum: Strophanthidinic acid; LC-ESI-QQQ; MS2; Frag=135.0V CID@15.0; [M+H]+
Name: Strophanthidinic acid
Class: Steroids
Formula: C23H32O7
Exact mass: 420.5073
SMILES: C[C@]12CCC3C(CCC4(O)CC(O)CC[C@]34C(=O)O)C1(O)CCC2C1=CC(=O)OC1
InChI: InChI=1S/C23H32O7/c1-20-6-3-16-17(23(20,29)9-5-15(20)13-10-18(25)30-12-13)4-7-21(28)11-14(24)2-8-22(16,21)19(26)27/h10,14-17,24,28-29H,2-9,11-12H2,1H3,(H,26,27)/t14?,15?,16?,17?,20-,21?,22-,23?/m1/s1
Instrument: Agilent 6410 Triple Quadrupole LC/MS system
Instrument type: LC-ESI-QQQ
Ms type: MS2
Ion mode: POSITIVE
Precursor type: [M+H]+
m/z	relative intensity
154.4	2
154.5	3
154.6	5
154.7	7
154.8	8
154.9	10
155.0	11
155.1	12
155.2	12
155.3	10
155.4	6
155.5	1
184.6	2
184.7	3
184.8	4
184.9	6
185.0	8
185.1	9
185.2	9
185.3	7
185.4	5
185.5	2
302.8	2
302.9	3
303.0	5
303.1	6
303.2	7
303.3	6
303.4	4
303.5	2
304.9	2
305.0	3
305.1	4
305.2	5
305.3	5
305.4	3
320.4	1
320.5	3
320.6	5
320.7	9
320.8	17
320.9	27
321.0	37
321.1	46
321.2	51
321.3	50
321.4	41
321.5	25
321.6	10
321.7	0
322.6	1
322.7	3
322.8	7
322.9	10
323.0	13
323.1	13
323.2	12
323.3	12
323.4	10
323.5	7
323.6	3
338.3	1
338.4	3
338.5	5
338.6	10
338.7	18
338.8	31
338.9	49
339.0	69
339.1	87
339.2	98
339.3	99
339.4	85
339.5	56
339.6	23
339.7	1
340.6	1
340.7	2
340.8	4
340.9	5
341.0	6
341.1	6
341.2	8
341.3	8
341.4	7
341.5	4
341.6	1
348.5	1
348.6	3
348.7	6
348.8	11
348.9	19
349.0	27
349.1	32
349.2	34
349.3	31
349.4	23
349.5	12
349.6	3
356.4	1
356.5	2
356.6	3
356.7	4
356.8	5
356.9	7
357.0	11
357.1	16
357.2	20
357.3	21
357.4	18
357.5	11
357.6	4
357.7	0
366.3	1
366.4	3
366.5	5
366.6	8
366.7	14
366.8	24
366.9	37
367.0	52
367.1	65
367.2	72
367.3	71
367.4	59
367.5	39
367.6	17
367.7	2
384.5	1
384.6	2
384.7	4
384.8	6
384.9	9
385.0	12
385.1	15
385.2	16
385.3	16
385.4	13
385.5	7
385.6	2
