Mass spectrum: allopregnanolone; LC-ESI-QQQ; MS2; Frag=135.0V CID@25.0; [M+H]+
Name: allopregnanolone
Class: Steroids
Formula: C21H34O2
Exact mass: 318.5039
SMILES: CC(=O)C1CCC2C3CC[C@H]4C[C@H](O)CC[C@]4(C)C3CC[C@]12C
InChI: InChI=1S/C21H34O2/c1-13(22)17-6-7-18-16-5-4-14-12-15(23)8-10-20(14,2)19(16)9-11-21(17,18)3/h14-19,23H,4-12H2,1-3H3/t14-,15+,16?,17?,18?,19?,20-,21+/m0/s1
Instrument: Agilent 6410 Triple Quadrupole LC/MS system
Instrument type: LC-ESI-QQQ
Ms type: MS2
Ion mode: POSITIVE
Precursor type: [M+H]+
m/z	relative intensity
54.7	1
54.8	3
54.9	6
55.0	9
55.1	10
55.2	8
55.3	6
55.4	3
66.4	2
66.5	3
66.6	5
66.7	6
66.8	7
66.9	9
67.0	13
67.1	17
67.2	18
67.3	15
67.4	8
67.5	2
68.6	1
68.7	2
68.8	4
68.9	6
69.0	8
69.1	9
69.2	10
69.3	10
69.4	8
69.5	4
69.6	1
70.3	0
70.4	2
70.5	6
70.6	14
70.7	24
70.8	34
70.9	42
71.0	47
71.1	48
71.2	43
71.3	33
71.4	21
71.5	9
71.6	1
78.4	0
78.5	2
78.6	5
78.7	7
78.8	10
78.9	13
79.0	17
79.1	20
79.2	19
79.3	14
79.4	7
79.5	2
80.3	1
80.4	3
80.5	8
80.6	15
80.7	23
80.8	31
80.9	38
81.0	42
81.1	44
81.2	43
81.3	38
81.4	28
81.5	15
81.6	4
81.7	0
90.4	1
90.5	3
90.6	5
90.7	7
90.8	8
90.9	10
91.0	12
91.1	13
91.2	13
91.3	10
91.4	5
91.5	1
92.4	2
92.5	3
92.6	7
92.7	13
92.8	21
92.9	28
93.0	31
93.1	32
93.2	29
93.3	25
93.4	19
93.5	11
93.6	4
94.2	0
94.3	1
94.4	4
94.5	9
94.6	13
94.7	18
94.8	23
94.9	30
95.0	35
95.1	36
95.2	34
95.3	29
95.4	22
95.5	12
95.6	4
104.3	1
104.4	2
104.5	4
104.6	7
104.7	10
104.8	14
104.9	20
105.0	28
105.1	33
105.2	34
105.3	28
105.4	18
105.5	7
105.6	0
106.3	1
106.4	3
106.5	6
106.6	12
106.7	20
106.8	28
106.9	36
107.0	44
107.1	49
107.2	48
107.3	42
107.4	30
107.5	16
107.6	5
107.7	0
108.4	1
108.5	3
108.6	6
108.7	10
108.8	15
108.9	22
109.0	27
109.1	28
109.2	26
109.3	24
109.4	20
109.5	13
109.6	5
109.7	0
118.3	1
118.4	2
118.5	4
118.6	9
118.7	15
118.8	21
118.9	27
119.0	33
119.1	37
119.2	37
119.3	31
119.4	19
119.5	7
119.6	0
120.3	1
120.4	2
120.5	4
120.6	8
120.7	16
120.8	27
120.9	38
121.0	44
121.1	44
121.2	41
121.3	34
121.4	25
121.5	14
121.6	5
121.7	0
122.5	1
122.6	2
122.7	5
122.8	8
122.9	10
123.0	12
123.1	12
123.2	12
123.3	11
123.4	9
123.5	5
123.6	1
130.4	1
130.5	2
130.6	5
130.7	7
130.8	10
130.9	10
131.0	9
131.1	7
132.3	2
132.4	4
132.5	8
132.6	13
132.7	21
132.8	29
132.9	39
133.0	47
133.1	51
133.2	49
133.3	41
133.4	30
133.5	17
133.6	5
133.7	0
134.3	0
134.4	2
134.5	6
134.6	12
134.7	22
134.8	37
134.9	54
135.0	68
135.1	72
135.2	69
135.3	63
135.4	51
135.5	33
135.6	13
135.7	0
144.3	0
144.4	2
144.5	4
144.6	6
144.7	7
144.8	11
144.9	17
145.0	23
145.1	25
145.2	23
145.3	19
145.4	15
145.5	9
145.6	3
146.2	0
146.3	1
146.4	4
146.5	9
146.6	16
146.7	25
146.8	35
146.9	45
147.0	52
147.1	57
147.2	58
147.3	54
147.4	43
147.5	26
147.6	9
147.7	0
148.5	2
148.6	3
148.7	6
148.8	11
148.9	18
149.0	22
149.1	24
149.2	22
149.3	20
149.4	16
149.5	10
149.6	4
149.7	0
156.8	1
156.9	3
157.0	5
157.1	7
157.2	6
157.3	4
157.4	2
158.5	2
158.6	3
158.7	6
158.8	9
158.9	11
159.0	14
159.1	18
159.2	23
159.3	24
159.4	20
159.5	12
159.6	5
159.7	0
160.4	0
160.5	2
160.6	5
160.7	13
160.8	26
160.9	40
161.0	53
161.1	59
161.2	59
161.3	55
161.4	46
161.5	32
161.6	15
161.7	2
162.5	1
162.6	3
162.7	7
162.8	10
162.9	13
163.0	16
163.1	19
163.2	20
163.3	18
163.4	15
163.5	10
163.6	4
163.7	1
170.9	2
171.0	4
171.1	6
171.2	7
171.3	7
171.4	5
171.5	2
172.4	1
172.5	3
172.6	5
172.7	7
172.8	11
172.9	17
173.0	23
173.1	27
173.2	26
173.3	24
173.4	21
173.5	15
173.6	7
173.7	0
174.4	1
174.5	3
174.6	7
174.7	13
174.8	22
174.9	30
175.0	37
175.1	41
175.2	42
175.3	42
175.4	37
175.5	26
175.6	13
175.7	2
184.9	2
185.0	3
185.1	5
185.2	5
185.3	4
185.4	2
186.6	2
186.7	3
186.8	9
186.9	17
187.0	24
187.1	30
187.2	34
187.3	35
187.4	31
187.5	21
187.6	8
187.7	0
188.3	0
188.4	1
188.5	5
188.6	12
188.7	24
188.8	42
188.9	63
189.0	83
189.1	96
189.2	99
189.3	93
189.4	76
189.5	52
189.6	25
189.7	5
189.8	0
200.4	0
200.5	1
200.6	4
200.7	9
200.8	14
200.9	17
201.0	19
201.1	21
201.2	23
201.3	22
201.4	19
201.5	12
201.6	5
201.7	0
212.8	3
212.9	5
213.0	6
213.1	7
213.2	9
213.3	9
213.4	8
213.5	4
213.6	1
226.7	1
226.8	2
226.9	4
227.0	6
227.1	7
227.2	7
227.3	6
227.4	4
227.5	2
240.8	1
240.9	2
241.0	4
241.1	5
241.2	4
241.3	2
256.7	1
256.8	2
256.9	4
257.0	5
257.1	6
257.2	7
257.3	7
257.4	6
257.5	4
257.6	2
282.6	1
282.7	3
282.8	5
282.9	6
283.0	6
283.1	6
283.2	6
283.3	8
283.4	10
283.5	9
283.6	5
283.7	1
