Mass spectrum: o-hydroxydibenzoylmethane; LC-ESI-QQQ; MS2; Frag=135.0V CID@5.0; [M+H]+
Name: o-hydroxydibenzoylmethane
Class: Benzopyranoids
Formula: C15H12O3
Exact mass: 240.2611
SMILES: O=C(CC(=O)c1ccccc1O)c1ccccc1
InChI: InChI=1S/C15H12O3/c16-13-9-5-4-8-12(13)15(18)10-14(17)11-6-2-1-3-7-11/h1-9,16H,10H2
Instrument: Agilent 6410 Triple Quadrupole LC/MS system
Instrument type: LC-ESI-QQQ
Ms type: MS2
Ion mode: POSITIVE
Precursor type: [M+H]+
m/z	relative intensity
104.3	0
104.4	2
104.5	5
104.6	10
104.7	16
104.8	24
104.9	32
105.0	38
105.1	40
105.2	37
105.3	31
105.4	22
105.5	11
105.6	2
120.2	0
120.3	1
120.4	5
120.5	13
120.6	24
120.7	39
120.8	57
120.9	73
121.0	84
121.1	86
121.2	78
121.3	65
121.4	46
121.5	25
121.6	8
121.7	0
240.3	0
240.4	3
240.5	9
240.6	16
240.7	26
240.8	42
240.9	63
241.0	85
241.1	99
241.2	99
241.3	86
241.4	62
241.5	32
241.6	8
241.7	0
