Mass spectrum: Asiaticoside; LC-ESI-QQQ; MS2; Frag=135.0V CID@25.0; [M+H]+
Name: Asiaticoside
Class: Terpenoids
Formula: C48H78O19
Exact mass: 959.1455
SMILES: C[C@@H]1[C@H]2C3=CCC4[C@@]5(C)C[C@@H](O)[C@@H](O)[C@@](C)(CO)C5CC[C@@]4(C)[C@]3(C)CC[C@@]2(C(=O)O[C@@H]2O[C@@H](CO[C@@H]3O[C@H](CO)[C@@H](O[C@@H]4O[C@H](C)[C@@H](O)[C@H](O)[C@H]4O)[C@H](O)[C@H]3O)[C@H](O)[C@@H](O)[C@H]2O)CC[C@H]1C
InChI: InChI=1S/C48H78O19/c1-20-10-13-48(15-14-46(6)23(29(48)21(20)2)8-9-28-44(4)16-24(51)39(60)45(5,19-50)27(44)11-12-47(28,46)7)43(61)67-42-36(58)33(55)31(53)26(65-42)18-62-40-37(59)34(56)38(25(17-49)64-40)66-41-35(57)32(54)30(52)22(3)63-41/h8,20-22,24-42,49-60H,9-19H2,1-7H3/t20-,21+,22-,24-,25-,26+,27?,28?,29+,30-,31+,32+,33-,34-,35-,36-,37-,38-,39-,40-,41+,42+,44+,45+,46-,47-,48+/m1/s1
Instrument: Agilent 6410 Triple Quadrupole LC/MS system
Instrument type: LC-ESI-QQQ
Ms type: MS2
Ion mode: POSITIVE
Precursor type: [M+H]+
m/z	relative intensity
144.5	3
144.6	4
144.7	6
144.8	8
144.9	9
145.0	8
145.1	6
145.2	4
146.3	3
146.4	5
146.5	8
146.6	12
146.7	17
146.8	19
146.9	17
147.0	12
147.1	6
162.5	3
162.6	4
162.7	6
162.8	7
162.9	7
163.0	5
163.1	3
186.4	3
186.5	4
186.6	5
186.7	7
186.8	9
186.9	8
187.0	6
187.1	3
308.2	3
308.3	4
308.4	6
308.5	8
308.6	10
308.7	10
308.8	10
308.9	9
309.0	8
309.1	7
309.2	4
406.3	3
406.4	4
406.5	7
406.6	10
406.7	15
406.8	17
406.9	16
407.0	11
407.1	5
407.2	2
422.4	3
422.5	4
422.6	6
422.7	6
422.8	5
452.1	2
452.2	3
452.3	5
452.4	9
452.5	15
452.6	25
452.7	39
452.8	56
452.9	73
453.0	88
453.1	98
453.2	99
453.3	86
453.4	58
453.5	25
453.6	3
470.2	3
470.3	4
470.4	5
470.5	7
470.6	12
470.7	18
470.8	24
470.9	30
471.0	37
471.1	45
471.2	46
471.3	36
471.4	18
471.5	4
650.8	3
650.9	5
651.0	8
651.1	9
651.2	8
651.3	5
651.4	2
