Mass spectrum: Artemisinin; LC-ESI-QQQ; MS2; Frag=135.0V CID@10.0; [M+H]+
Name: Artemisinin
Class: Terpenoids
Formula: C15H22O5
Exact mass: 282.3396
SMILES: C[C@H]1C(=O)O[C@@H]2O[C@@]3(C)CC[C@H]4[C@H](C)CCC1[C@@]24OO3
InChI: InChI=1S/C15H22O5/c1-8-4-5-11-9(2)12(16)17-13-15(11)10(8)6-7-14(3,18-13)19-20-15/h8-11,13H,4-7H2,1-3H3/t8-,9-,10+,11?,13-,14-,15-/m1/s1
Instrument: Agilent 6410 Triple Quadrupole LC/MS system
Instrument type: LC-ESI-QQQ
Ms type: MS2
Ion mode: POSITIVE
Precursor type: [M+H]+
m/z	relative intensity
70.6	1
70.7	3
70.8	4
70.9	5
71.0	6
71.1	7
71.2	7
71.3	5
71.4	2
80.7	3
80.8	5
80.9	7
81.0	7
81.1	6
81.2	4
81.3	3
84.6	1
84.7	3
84.8	5
84.9	6
85.0	5
85.1	5
85.2	4
85.3	3
92.7	2
92.8	3
92.9	6
93.0	8
93.1	9
93.2	9
93.3	7
93.4	4
94.5	2
94.6	3
94.7	6
94.8	11
94.9	16
95.0	20
95.1	21
95.2	19
95.3	15
95.4	9
95.5	4
98.6	2
98.7	3
98.8	6
98.9	7
99.0	6
99.1	4
104.5	1
104.6	3
104.7	5
104.8	7
104.9	9
105.0	9
105.1	8
105.2	6
105.3	5
105.4	3
106.7	2
106.8	4
106.9	7
107.0	9
107.1	9
107.2	9
107.3	7
107.4	5
107.5	2
108.5	2
108.6	4
108.7	5
108.8	6
108.9	6
109.0	7
109.1	8
109.2	9
109.3	9
109.4	6
109.5	3
110.7	0
110.8	3
110.9	5
111.0	8
111.1	8
111.2	6
111.3	4
118.5	1
118.6	2
118.7	6
118.8	10
118.9	15
119.0	19
119.1	23
119.2	22
119.3	17
119.4	10
119.5	4
120.4	1
120.5	3
120.6	5
120.7	7
120.8	12
120.9	18
121.0	23
121.1	24
121.2	23
121.3	20
121.4	15
121.5	8
121.6	2
122.3	1
122.4	2
122.5	5
122.6	8
122.7	13
122.8	18
122.9	23
123.0	26
123.1	26
123.2	24
123.3	19
123.4	12
123.5	5
123.6	1
124.4	0
124.5	1
124.6	4
124.7	9
124.8	15
124.9	23
125.0	30
125.1	34
125.2	34
125.3	28
125.4	18
125.5	8
125.6	1
130.8	4
130.9	7
131.0	12
131.1	15
131.2	16
131.3	14
131.4	10
131.5	5
131.6	1
132.5	2
132.6	4
132.7	7
132.8	11
132.9	16
133.0	20
133.1	22
133.2	23
133.3	20
133.4	14
133.5	6
133.6	1
134.3	0
134.4	2
134.5	5
134.6	8
134.7	10
134.8	12
134.9	14
135.0	16
135.1	17
135.2	16
135.3	13
135.4	7
135.5	2
136.6	0
136.7	2
136.8	4
136.9	6
137.0	7
137.1	6
137.2	4
138.6	1
138.7	4
138.8	6
138.9	8
139.0	10
139.1	12
139.2	14
139.3	12
139.4	8
139.5	3
140.5	1
140.6	2
140.7	4
140.8	7
140.9	10
141.0	14
141.1	16
141.2	14
141.3	9
141.4	4
142.7	2
142.8	3
142.9	5
143.0	6
143.1	6
143.2	5
143.3	3
144.4	1
144.5	4
144.6	8
144.7	13
144.8	19
144.9	24
145.0	29
145.1	32
145.2	33
145.3	31
145.4	26
145.5	17
145.6	8
145.7	2
146.6	2
146.7	4
146.8	6
146.9	10
147.0	12
147.1	14
147.2	14
147.3	11
147.4	7
147.5	2
148.5	3
148.6	4
148.7	9
148.8	16
148.9	24
149.0	30
149.1	32
149.2	31
149.3	26
149.4	18
149.5	9
149.6	2
150.3	0
150.4	1
150.5	5
150.6	10
150.7	17
150.8	26
150.9	37
151.0	47
151.1	51
151.2	48
151.3	39
151.4	26
151.5	13
151.6	2
156.5	1
156.6	2
156.7	5
156.8	12
156.9	18
157.0	23
157.1	22
157.2	18
157.3	14
157.4	9
157.5	4
158.3	2
158.4	4
158.5	7
158.6	11
158.7	17
158.8	26
158.9	34
159.0	41
159.1	45
159.2	47
159.3	45
159.4	34
159.5	18
159.6	4
160.4	0
160.5	2
160.6	6
160.7	11
160.8	18
160.9	25
161.0	30
161.1	31
161.2	27
161.3	21
161.4	15
161.5	8
161.6	2
162.4	1
162.5	3
162.6	7
162.7	11
162.8	15
162.9	21
163.0	28
163.1	35
163.2	38
163.3	35
163.4	26
163.5	15
163.6	4
164.5	1
164.6	2
164.7	4
164.8	5
164.9	6
165.0	7
165.1	7
165.2	6
165.3	5
165.4	2
166.7	1
166.8	3
166.9	5
167.0	8
167.1	9
167.2	8
167.3	6
167.4	4
172.2	2
172.3	4
172.4	7
172.5	10
172.6	14
172.7	23
172.8	41
172.9	66
173.0	88
173.1	99
173.2	97
173.3	86
173.4	64
173.5	37
173.6	12
173.7	0
174.6	1
174.7	2
174.8	5
174.9	9
175.0	12
175.1	12
175.2	10
175.3	7
175.4	5
175.5	4
176.3	0
176.4	3
176.5	7
176.6	11
176.7	14
176.8	17
176.9	21
177.0	28
177.1	35
177.2	38
177.3	34
177.4	24
177.5	12
177.6	2
178.6	1
178.7	3
178.8	5
178.9	9
179.0	14
179.1	18
179.2	19
179.3	16
179.4	12
179.5	6
179.6	2
180.6	1
180.7	4
180.8	8
180.9	12
181.0	14
181.1	13
181.2	9
181.3	6
181.4	4
181.5	3
182.6	1
182.7	3
182.8	5
182.9	8
183.0	10
183.1	12
183.2	13
183.3	11
183.4	7
183.5	3
186.7	2
186.8	5
186.9	9
187.0	13
187.1	15
187.2	15
187.3	13
187.4	9
187.5	4
187.6	1
188.4	2
188.5	3
188.6	4
188.7	6
188.8	10
188.9	15
189.0	18
189.1	19
189.2	20
189.3	19
189.4	16
189.5	9
189.6	2
190.3	1
190.4	3
190.5	8
190.6	14
190.7	23
190.8	36
190.9	53
191.0	71
191.1	81
191.2	81
191.3	70
191.4	51
191.5	30
191.6	11
191.7	1
200.4	1
200.5	3
200.6	7
200.7	16
200.8	32
200.9	53
201.0	74
201.1	85
201.2	86
201.3	77
201.4	60
201.5	38
201.6	15
201.7	1
202.8	3
202.9	4
203.0	6
203.1	9
203.2	12
203.3	12
203.4	9
203.5	4
203.6	1
204.7	3
204.8	6
204.9	11
205.0	18
205.1	24
205.2	26
205.3	22
205.4	13
205.5	5
205.6	1
206.6	2
206.7	4
206.8	7
206.9	11
207.0	14
207.1	16
207.2	15
207.3	13
207.4	9
207.5	4
208.5	3
208.6	4
208.7	4
208.8	6
208.9	10
209.0	14
209.1	17
209.2	17
209.3	16
209.4	12
209.5	7
209.6	2
210.7	2
210.8	4
210.9	7
211.0	10
211.1	11
211.2	8
211.3	5
211.4	3
218.3	0
218.4	3
218.5	8
218.6	14
218.7	23
218.8	34
218.9	49
219.0	64
219.1	77
219.2	85
219.3	83
219.4	64
219.5	35
219.6	8
219.7	0
222.6	1
222.7	3
222.8	5
222.9	6
223.0	8
223.1	8
223.2	6
223.3	4
223.4	3
228.4	2
228.5	3
228.6	5
228.7	10
228.8	18
228.9	27
229.0	36
229.1	41
229.2	42
229.3	38
229.4	28
229.5	15
229.6	4
236.5	0
236.6	2
236.7	4
236.8	7
236.9	10
237.0	13
237.1	13
237.2	12
237.3	10
237.4	7
237.5	5
237.6	2
246.2	0
246.3	2
246.4	6
246.5	11
246.6	15
246.7	23
246.8	39
246.9	64
247.0	88
247.1	99
247.2	97
247.3	84
247.4	63
247.5	36
247.6	11
247.7	0
264.5	2
264.6	3
264.7	5
264.8	11
264.9	23
265.0	37
265.1	47
265.2	49
265.3	47
265.4	40
265.5	27
265.6	11
265.7	1
282.7	1
282.8	2
282.9	4
283.0	5
283.1	5
283.2	5
283.3	4
283.4	2
