Mass spectrum: Glycoperine; LC-ESI-QQQ; MS2; Frag=135.0V CID@5.0 ; [M+H]+
Name: Glycoperine
Class: Alkaloids
Formula: C19H21NO8
Exact mass: 391.38112000000007
SMILES: COc1c2ccoc2nc2c(OC)c(O[C@H]3O[C@H](C)[C@@H](O)[C@H](O)[C@@H]3O)ccc12
InChI: InChI=1S/C19H21NO8/c1-8-13(21)14(22)15(23)19(27-8)28-11-5-4-9-12(17(11)25-3)20-18-10(6-7-26-18)16(9)24-2/h4-8,13-15,19,21-23H,1-3H3/t8-,13-,14+,15+,19-/m1/s1
Instrument: Agilent 6410 Triple Quadrupole LC/MS system
Instrument type: LC-ESI-QQQ
Ms type: MS2
Ion mode: POSITIVE
Precursor type: [M+H]+
m/z	relative intensity
245.2	0
245.3	1
245.4	5
245.5	10
245.6	18
245.7	33
245.8	54
245.9	77
246.0	94
246.1	99
246.2	93
246.3	76
246.4	51
246.5	24
246.6	5
246.7	0
391.3	1
391.4	2
391.5	5
391.6	11
391.7	20
391.8	33
391.9	48
392.0	63
392.1	73
392.2	75
392.3	67
392.4	50
392.5	28
392.6	9
392.7	0
