Mass spectrum: allopregnanolone; LC-ESI-QQQ; MS2; Frag=135.0V CID@5.0; [M+H]+
Name: allopregnanolone
Class: Steroids
Formula: C21H34O2
Exact mass: 318.5039
SMILES: CC(=O)C1CCC2C3CC[C@H]4C[C@H](O)CC[C@]4(C)C3CC[C@]12C
InChI: InChI=1S/C21H34O2/c1-13(22)17-6-7-18-16-5-4-14-12-15(23)8-10-20(14,2)19(16)9-11-21(17,18)3/h14-19,23H,4-12H2,1-3H3/t14-,15+,16?,17?,18?,19?,20-,21+/m0/s1
Instrument: Agilent 6410 Triple Quadrupole LC/MS system
Instrument type: LC-ESI-QQQ
Ms type: MS2
Ion mode: POSITIVE
Precursor type: [M+H]+
m/z	relative intensity
134.6	1
134.7	3
134.8	4
134.9	6
135.0	7
135.1	8
135.2	8
135.3	7
135.4	5
135.5	3
188.8	2
188.9	3
189.0	4
189.1	5
189.2	6
189.3	5
189.4	4
189.5	3
256.5	1
256.6	2
256.7	5
256.8	8
256.9	13
257.0	18
257.1	24
257.2	27
257.3	28
257.4	25
257.5	19
257.6	11
257.7	3
282.6	1
282.7	3
282.8	5
282.9	9
283.0	13
283.1	16
283.2	18
283.3	18
283.4	16
283.5	12
283.6	7
283.7	2
300.4	0
300.5	2
300.6	6
300.7	12
300.8	22
300.9	39
301.0	61
301.1	81
301.2	94
301.3	99
301.4	96
301.5	80
301.6	52
301.7	21
301.8	1
318.6	0
318.7	2
318.8	4
318.9	7
319.0	10
319.1	12
319.2	14
319.3	14
319.4	13
319.5	11
319.6	6
319.7	2
