Mass spectrum: Polyanthinin; LC-ESI-QQQ; MS2; Frag=135.0V CID@15.0; [M+H]+
Name: Polyanthinin
Class: Benzopyranoids
Formula: C26H32O5
Exact mass: 424.5419
SMILES: C=C1CC[C@@H]2C(C)(C)[C@@H](OC(C)=O)CC[C@@]2(C)[C@H]1COc1ccc2ccc(=O)oc2c1
InChI: InChI=1S/C26H32O5/c1-16-6-10-22-25(3,4)23(30-17(2)27)12-13-26(22,5)20(16)15-29-19-9-7-18-8-11-24(28)31-21(18)14-19/h7-9,11,14,20,22-23H,1,6,10,12-13,15H2,2-5H3/t20-,22+,23-,26-/m0/s1
Instrument: Agilent 6410 Triple Quadrupole LC/MS system
Instrument type: LC-ESI-QQQ
Ms type: MS2
Ion mode: POSITIVE
Precursor type: [M+H]+
m/z	relative intensity
94.5	2
94.6	3
94.7	5
94.8	7
94.9	10
95.0	13
95.1	14
95.2	13
95.3	9
95.4	4
108.7	3
108.8	5
108.9	7
109.0	9
109.1	11
109.2	12
109.3	10
109.4	7
109.5	3
132.3	1
132.4	3
132.5	5
132.6	6
132.7	8
132.8	11
132.9	14
133.0	15
133.1	15
133.2	14
133.3	11
133.4	7
133.5	3
146.5	1
146.6	3
146.7	7
146.8	15
146.9	24
147.0	33
147.1	37
147.2	36
147.3	29
147.4	18
147.5	8
147.6	1
160.7	3
160.8	5
160.9	8
161.0	10
161.1	10
161.2	9
161.3	8
161.4	7
161.5	5
161.6	2
162.2	2
162.3	4
162.4	9
162.5	16
162.6	24
162.7	33
162.8	46
162.9	60
163.0	70
163.1	71
163.2	62
163.3	44
163.4	22
163.5	5
163.6	0
174.4	1
174.5	4
174.6	9
174.7	14
174.8	18
174.9	18
175.0	17
175.1	17
175.2	19
175.3	17
175.4	11
175.5	4
188.5	2
188.6	4
188.7	7
188.8	9
188.9	9
189.0	7
189.1	4
200.6	2
200.7	4
200.8	6
200.9	8
201.0	9
201.1	8
201.2	5
201.3	3
202.2	1
202.3	3
202.4	7
202.5	11
202.6	13
202.7	18
202.8	33
202.9	59
203.0	85
203.1	99
203.2	99
203.3	91
203.4	74
203.5	49
203.6	21
203.7	3
212.7	1
212.8	3
212.9	5
213.0	7
213.1	9
213.2	8
213.3	6
213.4	2
214.6	2
214.7	4
214.8	7
214.9	9
215.0	9
215.1	9
215.2	7
215.3	4
215.4	2
226.8	1
226.9	3
227.0	5
227.1	6
227.2	4
227.3	2
364.3	0
364.4	2
364.5	7
364.6	12
364.7	17
364.8	23
364.9	36
365.0	55
365.1	72
365.2	79
365.3	71
365.4	53
365.5	31
365.6	12
365.7	1
