Mass spectrum: 3-O-Acetyldiosgenin; LC-ESI-QQQ; MS2; Frag=135.0V CID@10.0 ; [M+H]+
Name: 3-O-Acetyldiosgenin
Class: Steroids
Formula: C29H44O4
Exact mass: 456.67163
SMILES: CC(=O)OC1CC[C@@]2(C)C(=CCC3C4CC5O[C@]6(CCC(C)CO6)C(C)C5[C@@]4(C)CCC32)C1
InChI: InChI=1S/C29H44O4/c1-17-8-13-29(31-16-17)18(2)26-25(33-29)15-24-22-7-6-20-14-21(32-19(3)30)9-11-27(20,4)23(22)10-12-28(24,26)5/h6,17-18,21-26H,7-16H2,1-5H3/t17?,18?,21?,22?,23?,24?,25?,26?,27-,28-,29+/m0/s1
Instrument: Agilent 6410 Triple Quadrupole LC/MS system
Instrument type: LC-ESI-QQQ
Ms type: MS2
Ion mode: POSITIVE
Precursor type: [M+H]+
m/z	relative intensity
106.8	2
106.9	4
107.0	6
107.1	6
107.2	4
156.6	2
156.7	3
156.8	5
156.9	7
157.0	7
157.1	6
157.2	4
157.3	2
252.5	1
252.6	2
252.7	5
252.8	12
252.9	21
253.0	29
253.1	32
253.2	30
253.3	23
253.4	13
253.5	5
312.3	2
312.4	4
312.5	6
312.6	8
312.7	8
312.8	9
312.9	14
313.0	27
313.1	44
313.2	59
313.3	61
313.4	47
313.5	25
313.6	6
313.7	0
456.4	1
456.5	2
456.6	4
456.7	7
456.8	15
456.9	29
457.0	47
457.1	65
457.2	82
457.3	96
457.4	99
457.5	85
457.6	55
457.7	24
457.8	5
