Mass spectrum: Grosheimin; LC-ESI-QQQ; MS2; Frag=135.0V CID@15.0; [M+H]+
Name: Grosheimin
Class: Terpenoids
Formula: C15H18O4
Exact mass: 262.3083
SMILES: C=C1C[C@H](O)[C@H]2C(=C)C(=O)O[C@@H]2[C@H]2[C@H](C)C(=O)C[C@@H]12
InChI: InChI=1S/C15H18O4/c1-6-4-11(17)13-8(3)15(18)19-14(13)12-7(2)10(16)5-9(6)12/h7,9,11-14,17H,1,3-5H2,2H3/t7-,9+,11+,12+,13-,14-/m1/s1
Instrument: Agilent 6410 Triple Quadrupole LC/MS system
Instrument type: LC-ESI-QQQ
Ms type: MS2
Ion mode: POSITIVE
Precursor type: [M+H]+
m/z	relative intensity
90.8	2
90.9	5
91.0	7
91.1	8
91.2	6
91.3	4
91.4	1
92.5	3
92.6	4
92.7	7
92.8	13
92.9	19
93.0	23
93.1	23
93.2	18
93.3	11
93.4	5
93.5	1
104.8	2
104.9	3
105.0	5
105.1	7
105.2	7
105.3	6
105.4	3
106.2	1
106.3	2
106.4	5
106.5	11
106.6	20
106.7	33
106.8	50
106.9	71
107.0	90
107.1	99
107.2	96
107.3	81
107.4	58
107.5	32
107.6	10
107.7	0
120.4	0
120.5	1
120.6	4
120.7	10
120.8	16
120.9	20
121.0	20
121.1	18
121.2	15
121.3	12
121.4	7
121.5	2
130.6	1
130.7	3
130.8	6
130.9	9
131.0	9
131.1	7
131.2	3
142.5	0
142.6	3
142.7	6
142.8	9
142.9	10
143.0	9
143.1	7
143.2	6
143.3	4
143.4	2
144.5	1
144.6	3
144.7	4
144.8	5
144.9	7
145.0	8
145.1	8
145.2	7
145.3	5
145.4	3
148.5	1
148.6	2
148.7	5
148.8	9
148.9	13
149.0	16
149.1	16
149.2	13
149.3	9
149.4	4
149.5	1
156.1	2
156.2	3
156.3	4
156.4	5
156.5	5
156.6	6
156.7	9
156.8	14
156.9	20
157.0	23
157.1	22
157.2	19
157.3	15
157.4	9
157.5	3
158.8	2
158.9	3
159.0	4
159.1	5
159.2	4
170.5	2
170.6	4
170.7	8
170.8	12
170.9	16
171.0	20
171.1	24
171.2	26
171.3	24
171.4	18
171.5	10
171.6	3
184.7	1
184.8	3
184.9	4
185.0	5
185.1	5
185.2	4
185.3	3
198.4	0
198.5	2
198.6	4
198.7	8
198.8	11
198.9	16
199.0	19
199.1	20
199.2	17
199.3	12
199.4	6
199.5	2
202.6	1
202.7	3
202.8	6
202.9	8
203.0	7
203.1	6
203.2	3
226.7	1
226.8	2
226.9	4
227.0	5
227.1	4
227.2	3
