Mass spectrum: O-DeMethylfoliosidine; LC-ESI-QQQ; MS2; Frag=135.0V CID@10.0; [M+H]+
Name: O-DeMethylfoliosidine
Class: Alkaloids
Formula: C15H19NO5
Exact mass: 293.3224
SMILES: Cn1c(O)cc(=O)c2cccc(OCC(O)C(C)(C)O)c21
InChI: InChI=1S/C15H19NO5/c1-15(2,20)12(18)8-21-11-6-4-5-9-10(17)7-13(19)16(3)14(9)11/h4-7,12,18-20H,8H2,1-3H3
Instrument: Agilent 6410 Triple Quadrupole LC/MS system
Instrument type: LC-ESI-QQQ
Ms type: MS2
Ion mode: POSITIVE
Precursor type: [M+H]+
m/z	relative intensity
275.4	1
275.5	2
275.6	5
275.7	10
275.8	17
275.9	26
276.0	34
276.1	40
276.2	41
276.3	38
276.4	29
276.5	17
276.6	6
276.7	0
293.3	0
293.4	1
293.5	5
293.6	12
293.7	24
293.8	41
293.9	61
294.0	81
294.1	95
294.2	99
294.3	90
294.4	68
294.5	39
294.6	13
294.7	0
