Mass spectrum: Emetine; LC-ESI-QQQ; MS2; Frag=135.0V CID@10.0 ; [M+H]+
Name: Emetine
Class: Alkaloids
Formula: C29H40N2O4
Exact mass: 480.65315
SMILES: CC[C@H]1CN2CCc3cc(OC)c(OC)cc3[C@@H]2C[C@@H]1C[C@H]1NCCc2cc(OC)c(OC)cc21
InChI: InChI=1S/C29H40N2O4/c1-6-18-17-31-10-8-20-14-27(33-3)29(35-5)16-23(20)25(31)12-21(18)11-24-22-15-28(34-4)26(32-2)13-19(22)7-9-30-24/h13-16,18,21,24-25,30H,6-12,17H2,1-5H3/t18-,21-,24+,25-/m0/s1
Instrument: Agilent 6410 Triple Quadrupole LC/MS system
Instrument type: LC-ESI-QQQ
Ms type: MS2
Ion mode: POSITIVE
Precursor type: [M+H]+
m/z	relative intensity
480.3	0
480.4	1
480.5	4
480.6	8
480.7	13
480.8	23
480.9	37
481.0	57
481.1	77
481.2	93
481.3	99
481.4	96
481.5	81
481.6	56
481.7	29
481.8	7
481.9	0
