Mass spectrum: Oxiglutathione; LC-ESI-QQQ; MS2; Frag=135.0V CID@10.0; [M+H]+
Name: GSSG
Name: Glutathiol
Name: Glutathione (oxidized form)
Name: Oxigluthione
Name: Oxidized glutathione
Name: (gamma-Glu-Cys-Gly) (gamma-Glu-Cys-Gly)(Disulfide bridge: 2a-2b)
Name: Oxiglutathione
Class: Aminoacids and peptides
Formula: C20H32N6O12S2
Exact mass: 612.639
SMILES: NC(CCC(O)=NC(CSSCC(N=C(O)CCC(N)C(=O)O)C(O)=NCC(=O)O)C(O)=NCC(=O)O)C(=O)O
InChI: InChI=1S/C20H32N6O12S2/c21-9(19(35)36)1-3-13(27)25-11(17(33)23-5-15(29)30)7-39-40-8-12(18(34)24-6-16(31)32)26-14(28)4-2-10(22)20(37)38/h9-12H,1-8,21-22H2,(H,23,33)(H,24,34)(H,25,27)(H,26,28)(H,29,30)(H,31,32)(H,35,36)(H,37,38)
Instrument: Agilent 6410 Triple Quadrupole LC/MS system
Instrument type: LC-ESI-QQQ
Ms type: MS2
Ion mode: POSITIVE
Precursor type: [M+H]+
m/z	relative intensity
354.2	0
354.3	1
354.4	3
354.5	5
354.6	8
354.7	10
354.8	14
354.9	17
355.0	19
355.1	21
355.2	21
355.3	16
355.4	8
355.5	2
483.2	0
483.3	1
483.4	3
483.5	8
483.6	12
483.7	16
483.8	21
483.9	28
484.0	37
484.1	44
484.2	45
484.3	37
484.4	21
484.5	6
484.6	0
594.5	1
594.6	2
594.7	3
594.8	4
594.9	4
595.0	5
595.1	7
595.2	7
595.3	5
595.4	2
612.1	0
612.2	1
612.3	5
612.4	15
612.5	29
612.6	43
612.7	55
612.8	67
612.9	78
613.0	87
613.1	94
613.2	99
613.3	97
613.4	78
613.5	45
613.6	12
613.7	0
