Mass spectrum: Kanamycin; LC-ESI-QQQ; MS2; Frag=135.0V CID@5.0; [M+H]+
Name: Kanamycin
Class: Carbohydrates
Formula: C18H36N4O11
Exact mass: 484.5078
SMILES: NC[C@@H]1O[C@@H](O[C@@H]2[C@@H](N)C[C@@H](N)[C@H](O[C@@H]3O[C@@H](CO)[C@H](O)[C@@H](N)[C@@H]3O)[C@H]2O)[C@@H](O)[C@H](O)[C@H]1O
InChI: InChI=1S/C18H36N4O11/c19-2-6-10(25)12(27)13(28)18(30-6)33-16-5(21)1-4(20)15(14(16)29)32-17-11(26)8(22)9(24)7(3-23)31-17/h4-18,23-29H,1-3,19-22H2/t4-,5+,6+,7+,8-,9+,10+,11+,12-,13+,14-,15+,16-,17+,18+/m1/s1
Instrument: Agilent 6410 Triple Quadrupole LC/MS system
Instrument type: LC-ESI-QQQ
Ms type: MS2
Ion mode: POSITIVE
Precursor type: [M+H]+
m/z	relative intensity
162.7	1
162.8	3
162.9	4
163.0	5
163.1	5
163.2	4
163.3	2
323.7	1
323.8	2
323.9	4
324.0	5
324.1	7
324.2	7
324.3	5
324.4	3
484.3	0
484.4	2
484.5	6
484.6	11
484.7	18
484.8	26
484.9	38
485.0	56
485.1	76
485.2	93
485.3	99
485.4	90
485.5	66
485.6	34
485.7	7
485.8	0
