Mass spectrum: Cryptopine; LC-ESI-QQQ; MS2; Frag=135.0V CID@5.0; [M+H]+
Name: Cryptopine
Class: Alkaloids
Formula: C21H23NO5
Exact mass: 369.4212
SMILES: COc1cc2c(cc1OC)C(=O)Cc1ccc3c(c1CN(C)CC2)OCO3
InChI: InChI=1S/C21H23NO5/c1-22-7-6-14-9-19(24-2)20(25-3)10-15(14)17(23)8-13-4-5-18-21(16(13)11-22)27-12-26-18/h4-5,9-10H,6-8,11-12H2,1-3H3
Instrument: Agilent 6410 Triple Quadrupole LC/MS system
Instrument type: LC-ESI-QQQ
Ms type: MS2
Ion mode: POSITIVE
Precursor type: [M+H]+
m/z	relative intensity
369.3	1
369.4	2
369.5	5
369.6	9
369.7	17
369.8	31
369.9	51
370.0	73
370.1	91
370.2	99
370.3	98
370.4	84
370.5	59
370.6	30
370.7	7
370.8	0
