Mass spectrum: 8-Acetylharpagide; LC-ESI-QQQ; MS2;  Frag=135.0V CID@5.0 ; [M+NH4]+
Name: 8-Acetylharpagide
Class: Terpenoids
Formula: C17H26O11
Exact mass: 406.39017
SMILES: CC(=O)O[C@@]1(C)CC(O)C2(O)C=COC(O[C@@H]3O[C@H](CO)[C@@H](O)[C@H](O)[C@H]3O)C21
InChI: InChI=1S/C17H26O11/c1-7(19)28-16(2)5-9(20)17(24)3-4-25-15(13(16)17)27-14-12(23)11(22)10(21)8(6-18)26-14/h3-4,8-15,18,20-24H,5-6H2,1-2H3/t8-,9?,10-,11+,12-,13?,14+,15?,16+,17?/m1/s1
Instrument: Agilent 6410 Triple Quadrupole LC/MS system
Instrument type: LC-ESI-QQQ
Ms type: MS2
Ion mode: POSITIVE
Precursor type: [M+NH4]+
m/z	relative intensity
166.3	2
166.4	3
166.5	7
166.6	18
166.7	38
166.8	63
166.9	86
167.0	99
167.1	99
167.2	87
167.3	67
167.4	44
167.5	20
167.6	3
328.6	1
328.7	3
328.8	12
328.9	25
329.0	37
329.1	41
329.2	38
329.3	28
329.4	17
329.5	6
329.6	1
