Mass spectrum: Solanidine; LC-ESI-QQQ; MS2; Frag=135.0V CID@5.0; [M+H]+
Name: Solanidin
Name: Solatubine
Name: Solatubin
Name: Solanid-5-en-3beta-ol
Name: 22R,25S-Solanidanine
Name: Solanidine
Class: Steroids
Formula: C27H43NO
Exact mass: 397.6499
SMILES: C[C@H]1CCC2[C@@H](C)[C@H]3[C@H](CC4[C@@H]5CC=C6CC(O)CC[C@]6(C)[C@H]5CC[C@@]43C)N2C1
InChI: InChI=1S/C27H43NO/c1-16-5-8-23-17(2)25-24(28(23)15-16)14-22-20-7-6-18-13-19(29)9-11-26(18,3)21(20)10-12-27(22,25)4/h6,16-17,19-25,29H,5,7-15H2,1-4H3/t16-,17+,19?,20+,21-,22?,23?,24-,25-,26-,27-/m0/s1
Instrument: Agilent 6410 Triple Quadrupole LC/MS system
Instrument type: LC-ESI-QQQ
Ms type: MS2
Ion mode: POSITIVE
Precursor type: [M+H]+
m/z	relative intensity
397.4	0
397.5	2
397.6	4
397.7	8
397.8	13
397.9	25
398.0	45
398.1	69
398.2	89
398.3	99
398.4	99
398.5	89
398.6	67
398.7	38
398.8	12
398.9	0
