Mass spectrum: Periplocin; LC-ESI-QQQ; MS2; Frag=135.0V CID@15.0; [M+HCOO]-
Name: Periplocin
Class: Terpenoids
Formula: C36H56O13
Exact mass: 696.8399
SMILES: CO[C@H]1C[C@H](OC2CC[C@]3(C)C4CC[C@]5(C)C(C6=CC(=O)OC6)CCC5(O)C4CCC3(O)C2)O[C@H](C)C1OC1O[C@H](CO)[C@@H](O)[C@H](O)[C@H]1O
InChI: InChI=1S/C36H56O13/c1-18-31(49-32-30(41)29(40)28(39)25(16-37)48-32)24(44-4)14-27(46-18)47-20-5-9-33(2)22-6-10-34(3)21(19-13-26(38)45-17-19)8-12-36(34,43)23(22)7-11-35(33,42)15-20/h13,18,20-25,27-32,37,39-43H,5-12,14-17H2,1-4H3/t18-,20?,21?,22?,23?,24+,25-,27+,28-,29+,30-,31?,32?,33-,34-,35?,36?/m1/s1
Instrument: Agilent 6410 Triple Quadrupole LC/MS system
Instrument type: LC-ESI-QQQ
Ms type: MS2
Ion mode: NEGATIVE
Precursor type: [M+HCOO]-
m/z	relative intensity
160.5	1
160.6	2
160.7	4
160.8	6
160.9	7
161.0	6
161.1	4
161.2	3
161.3	1
532.4	0
532.5	1
532.6	3
532.7	4
532.8	5
532.9	6
533.0	5
533.1	4
533.2	2
694.2	0
694.3	1
694.4	3
694.5	5
694.6	9
694.7	15
694.8	22
694.9	31
695.0	40
695.1	48
695.2	54
695.3	57
695.4	57
695.5	50
695.6	36
695.7	18
695.8	4
695.9	0
740.2	1
740.3	2
740.4	4
740.5	11
740.6	22
740.7	34
740.8	44
740.9	49
741.0	54
741.1	63
741.2	75
741.3	89
741.4	99
741.5	97
741.6	74
741.7	39
741.8	9
741.9	0
