Mass spectrum: Andrographolide; LC-ESI-QQQ; MS2; Frag=135.0V CID@5.0; [M+H]+
Name: Andrographolide
Class: Terpenoids
Formula: C20H30O5
Exact mass: 350.4591
SMILES: C=C1CCC2C(C)(CO)C(O)CC[C@]2(C)C1C/C=C1/C(=O)OCC1O
InChI: InChI=1S/C20H30O5/c1-12-4-7-16-19(2,9-8-17(23)20(16,3)11-21)14(12)6-5-13-15(22)10-25-18(13)24/h5,14-17,21-23H,1,4,6-11H2,2-3H3/b13-5+/t14?,15?,16?,17?,19-,20?/m1/s1
Instrument: Agilent 6410 Triple Quadrupole LC/MS system
Instrument type: LC-ESI-QQQ
Ms type: MS2
Ion mode: POSITIVE
Precursor type: [M+H]+
m/z	relative intensity
296.9	2
297.0	5
297.1	8
297.2	10
297.3	10
297.4	6
297.5	2
350.5	2
350.6	4
350.7	7
350.8	15
350.9	32
351.0	57
351.1	81
351.2	98
351.3	99
351.4	86
351.5	60
351.6	30
351.7	7
351.8	0
