Mass spectrum: Kanamycin; LC-ESI-QQQ; MS2; Frag=135.0V CID@25.0; [M+H]+
Name: Kanamycin
Class: Carbohydrates
Formula: C18H36N4O11
Exact mass: 484.5078
SMILES: NC[C@@H]1O[C@@H](O[C@@H]2[C@@H](N)C[C@@H](N)[C@H](O[C@@H]3O[C@@H](CO)[C@H](O)[C@@H](N)[C@@H]3O)[C@H]2O)[C@@H](O)[C@H](O)[C@H]1O
InChI: InChI=1S/C18H36N4O11/c19-2-6-10(25)12(27)13(28)18(30-6)33-16-5(21)1-4(20)15(14(16)29)32-17-11(26)8(22)9(24)7(3-23)31-17/h4-18,23-29H,1-3,19-22H2/t4-,5+,6+,7+,8-,9+,10+,11+,12-,13+,14-,15+,16-,17+,18+/m1/s1
Instrument: Agilent 6410 Triple Quadrupole LC/MS system
Instrument type: LC-ESI-QQQ
Ms type: MS2
Ion mode: POSITIVE
Precursor type: [M+H]+
m/z	relative intensity
161.5	2
161.6	4
161.7	7
161.8	12
161.9	17
162.0	22
162.1	24
162.2	24
162.3	22
162.6	16
162.7	25
162.8	41
162.9	60
163.0	78
163.1	92
163.2	99
163.3	96
163.4	78
163.5	49
163.6	18
163.7	0
186.4	0
186.5	2
186.6	3
186.7	5
186.8	7
186.9	8
187.0	9
187.1	9
187.2	8
187.3	6
187.4	3
204.6	2
204.7	4
204.8	9
204.9	17
205.0	25
205.1	31
205.2	33
205.3	30
205.4	22
205.5	11
205.6	3
