Mass spectrum: Obtusinin; LC-ESI-QQQ; MS2; Frag=135.0V CID@15.0; [M+H]+
Name: Obtusinin
Class: Terpenoids
Formula: C15H18O6
Exact mass: 294.3071
SMILES: COc1cc2ccc(=O)oc2cc1OCC(O)C(C)(C)O
InChI: InChI=1S/C15H18O6/c1-15(2,18)13(16)8-20-12-7-10-9(6-11(12)19-3)4-5-14(17)21-10/h4-7,13,16,18H,8H2,1-3H3
Instrument: Agilent 6410 Triple Quadrupole LC/MS system
Instrument type: LC-ESI-QQQ
Ms type: MS2
Ion mode: POSITIVE
Precursor type: [M+H]+
m/z	relative intensity
192.3	1
192.4	4
192.5	11
192.6	22
192.7	39
192.8	60
192.9	81
193.0	95
193.1	99
193.2	95
193.3	80
193.4	57
193.5	29
193.6	7
193.7	0
294.6	1
294.7	3
294.8	5
294.9	8
295.0	10
295.1	12
295.2	12
295.3	11
295.4	9
295.5	5
295.6	1
