Mass spectrum: Napelline N-oxide; LC-ESI-QQQ; MS2; Frag=135.0V CID@10.0; [M+H]+
Name: Napelline N-oxide
Class: Alkaloids
Formula: C22H33NO4
Exact mass: 375.5126
SMILES: C=C1[C@H]2C[C@]3(C4CC5[C@@]6(C)CC[C@H](O)[C@]5(C3C[C@@H]2O)C4[N+]([O-])(CC)C6)[C@@H]1O
InChI: InChI=1S/C22H33NO4/c1-4-23(27)10-20(3)6-5-17(25)22-15(20)7-13(18(22)23)21-9-12(11(2)19(21)26)14(24)8-16(21)22/h12-19,24-26H,2,4-10H2,1,3H3/t12-,13?,14+,15?,16?,17+,18?,19-,20+,21-,22+,23?/m1/s1
Instrument: Agilent 6410 Triple Quadrupole LC/MS system
Instrument type: LC-ESI-QQQ
Ms type: MS2
Ion mode: POSITIVE
Precursor type: [M+H]+
m/z	relative intensity
375.4	1
375.5	3
375.6	6
375.7	10
375.8	18
375.9	32
376.0	53
376.1	75
376.2	92
376.3	99
376.4	95
376.5	77
376.6	48
376.7	19
376.8	1
