Mass spectrum: Crustecdysone; LC-ESI-QQQ; MS2; Frag=135.0V CID@15.0; [M+HCOO]-
Name: Crustecdysone
Class: Steroids
Formula: C27H44O7
Exact mass: 480.6475
SMILES: CC(C)(O)CC[C@@H](O)[C@](C)(O)[C@H]1CC[C@@]2(O)C3=CC(=O)[C@@H]4C[C@@H](O)[C@@H](O)C[C@]4(C)[C@H]3CC[C@]12C
InChI: InChI=1S/C27H44O7/c1-23(2,32)9-8-22(31)26(5,33)21-7-11-27(34)16-12-18(28)17-13-19(29)20(30)14-24(17,3)15(16)6-10-25(21,27)4/h12,15,17,19-22,29-34H,6-11,13-14H2,1-5H3/t15-,17-,19+,20-,21-,22+,24+,25+,26+,27+/m0/s1
Instrument: Agilent 6410 Triple Quadrupole LC/MS system
Instrument type: LC-ESI-QQQ
Ms type: MS2
Ion mode: NEGATIVE
Precursor type: [M+HCOO]-
m/z	relative intensity
158.4	1
158.5	2
158.6	4
158.7	6
158.8	10
158.9	14
159.0	17
159.1	16
159.2	12
159.3	7
159.4	4
159.5	1
319.0	4
319.1	6
319.2	8
319.3	8
319.4	6
319.5	3
478.3	0
478.4	2
478.5	9
478.6	20
478.7	36
478.8	55
478.9	74
479.0	91
479.1	99
479.2	99
479.3	97
479.4	96
479.5	90
479.6	67
479.7	33
479.8	5
479.9	0
524.4	0
524.5	2
524.6	5
524.7	7
524.8	8
524.9	6
525.0	5
525.1	5
525.2	8
525.3	11
525.4	12
525.5	9
525.6	4
525.7	0
