Mass spectrum: Fagarine I; LC-ESI-QQQ; MS2; Frag=135.0V CID@25.0; [M+H]+
Name: Fagarine I
Class: Alkaloids
Formula: C21H23NO5
Exact mass: 369.4212
SMILES: COc1ccc2c(c1OC)CN(C)CCc1cc3c(cc1C(=O)C2)OCO3
InChI: InChI=1S/C21H23NO5/c1-22-7-6-14-9-19-20(27-12-26-19)10-15(14)17(23)8-13-4-5-18(24-2)21(25-3)16(13)11-22/h4-5,9-10H,6-8,11-12H2,1-3H3
Instrument: Agilent 6410 Triple Quadrupole LC/MS system
Instrument type: LC-ESI-QQQ
Ms type: MS2
Ion mode: POSITIVE
Precursor type: [M+H]+
m/z	relative intensity
148.7	3
148.8	4
148.9	6
149.0	7
149.1	7
149.2	7
149.3	5
149.4	3
150.7	2
150.8	3
150.9	5
151.0	6
151.1	6
151.2	6
151.3	5
151.4	3
151.5	1
164.6	2
164.7	3
164.8	6
164.9	9
165.0	11
165.1	12
165.2	11
165.3	10
165.4	8
165.5	5
180.5	2
180.6	3
180.7	5
180.8	9
180.9	12
181.0	15
181.1	15
181.2	15
181.3	13
181.4	10
181.5	5
181.6	1
187.2	2
187.3	3
187.4	6
187.5	11
187.6	20
187.7	35
187.8	56
187.9	78
188.0	94
188.1	99
188.2	95
188.3	83
188.4	61
188.5	37
188.6	17
188.8	16
188.9	25
189.0	32
189.1	36
189.2	35
189.3	31
189.4	23
189.5	14
189.6	6
190.8	3
190.9	4
191.0	5
191.1	6
191.2	5
191.3	4
205.4	1
205.5	3
205.6	6
205.7	10
205.8	14
205.9	19
206.0	22
206.1	25
206.2	25
206.3	22
206.4	16
206.5	9
206.6	2
289.5	3
289.6	5
289.7	9
289.8	15
289.9	21
290.0	26
290.1	28
290.2	26
290.3	21
290.4	13
290.5	6
305.7	2
305.8	3
305.9	5
306.0	6
306.1	7
306.2	6
306.3	5
306.4	3
335.7	1
335.8	3
335.9	5
336.0	7
336.1	8
336.2	7
336.3	6
336.4	4
351.6	2
351.7	4
351.8	7
351.9	11
352.0	15
352.1	18
352.2	19
352.3	17
352.4	13
352.5	7
352.6	2
369.4	2
369.5	3
369.6	4
369.7	7
369.8	13
369.9	21
370.0	30
370.1	35
370.2	37
370.3	34
370.4	27
370.5	17
370.6	7
370.7	0
