Mass spectrum: 3-Hydroxyspirost-9(11)-en-12-one, 3-Ac; LC-ESI-QQQ; MS2; Frag=135.0V CID@10.0; [M+H]+
Name: 3-Hydroxyspirost-9(11)-en-12-one, 3-Ac
Class: Steroids
Formula: C29H42O5
Exact mass: 470.6551
SMILES: CC(=O)OC1CC[C@]2(C)C3=CC(=O)[C@@]4(C)C(CC5O[C@]6(CCC(C)CO6)[C@@H](C)C54)C3CC[C@H]2C1
InChI: InChI=1S/C29H42O5/c1-16-8-11-29(32-15-16)17(2)26-24(34-29)13-23-21-7-6-19-12-20(33-18(3)30)9-10-27(19,4)22(21)14-25(31)28(23,26)5/h14,16-17,19-21,23-24,26H,6-13,15H2,1-5H3/t16?,17-,19-,20?,21?,23?,24?,26?,27-,28+,29+/m0/s1
Instrument: Agilent 6410 Triple Quadrupole LC/MS system
Instrument type: LC-ESI-QQQ
Ms type: MS2
Ion mode: POSITIVE
Precursor type: [M+H]+
m/z	relative intensity
356.8	2
356.9	4
357.0	7
357.1	10
357.2	12
357.3	13
357.4	13
357.5	10
357.6	6
357.7	2
435.0	3
435.1	5
435.2	6
435.3	7
435.4	6
435.5	5
435.6	3
452.7	2
452.8	4
452.9	7
453.0	13
453.1	20
453.2	25
453.3	27
453.4	26
453.5	21
453.6	14
453.7	6
453.8	1
470.4	1
470.5	3
470.6	5
470.7	8
470.8	14
470.9	27
471.0	49
471.1	73
471.2	92
471.3	99
471.4	97
471.5	85
471.6	61
471.7	32
471.8	7
471.9	0
