Mass spectrum: O-DeMethylfoliosidine; LC-ESI-QQQ; MS2; Frag=135.0V CID@5.0; [M+H]+
Name: O-DeMethylfoliosidine
Class: Alkaloids
Formula: C15H19NO5
Exact mass: 293.3224
SMILES: Cn1c(O)cc(=O)c2cccc(OCC(O)C(C)(C)O)c21
InChI: InChI=1S/C15H19NO5/c1-15(2,20)12(18)8-21-11-6-4-5-9-10(17)7-13(19)16(3)14(9)11/h4-7,12,18-20H,8H2,1-3H3
Instrument: Agilent 6410 Triple Quadrupole LC/MS system
Instrument type: LC-ESI-QQQ
Ms type: MS2
Ion mode: POSITIVE
Precursor type: [M+H]+
m/z	relative intensity
275.6	1
275.7	2
275.8	4
275.9	6
276.0	7
276.1	9
276.2	9
276.3	8
276.4	7
276.5	4
276.6	1
293.3	0
293.4	1
293.5	5
293.6	11
293.7	22
293.8	39
293.9	60
294.0	81
294.1	95
294.2	99
294.3	93
294.4	74
294.5	46
294.6	18
294.7	1
