Mass spectrum: N-succinoylanthranilic acid; LC-ESI-QQQ; MS2; Frag=135.0V CID@10.0; [M+H]+
Name: N-succinoylanthranilic acid
Class: Polycyclic aromatic natural products
Formula: C11H11NO5
Exact mass: 237.214
SMILES: O=C(O)CCC(O)=Nc1ccccc1C(=O)O
InChI: InChI=1S/C11H11NO5/c13-9(5-6-10(14)15)12-8-4-2-1-3-7(8)11(16)17/h1-4H,5-6H2,(H,12,13)(H,14,15)(H,16,17)
Instrument: Agilent 6410 Triple Quadrupole LC/MS system
Instrument type: LC-ESI-QQQ
Ms type: MS2
Ion mode: POSITIVE
Precursor type: [M+H]+
m/z	relative intensity
100.3	1
100.4	2
100.5	4
100.6	6
100.7	11
100.8	16
100.9	20
101.0	19
101.1	16
101.2	13
101.3	11
101.4	7
101.5	3
119.1	0
119.2	1
119.3	5
119.4	11
119.5	19
119.6	27
119.7	38
119.8	56
119.9	78
120.0	95
120.1	99
120.2	90
120.3	69
120.4	43
120.5	19
120.6	2
137.4	2
137.5	3
137.6	5
137.7	10
137.8	17
137.9	22
138.0	24
138.1	22
138.2	21
138.3	19
138.4	15
138.5	8
138.6	2
201.3	0
201.4	2
201.5	4
201.6	6
201.7	10
201.8	17
201.9	24
202.0	27
202.1	26
202.2	22
202.3	17
202.4	10
202.5	4
