Mass spectrum: Austricin; LC-ESI-QQQ; MS2; Frag=135.0V CID@10.0; [M+H]+
Name: Austricin
Class: Terpenoids
Formula: C15H18O4
Exact mass: 262.3083
SMILES: CC1=CC(=O)C2=C(C)C[C@H](O)C3[C@H](C)C(=O)O[C@@H]3C12
InChI: InChI=1S/C15H18O4/c1-6-4-10(17)13-8(3)15(18)19-14(13)12-7(2)5-9(16)11(6)12/h5,8,10,12-14,17H,4H2,1-3H3/t8-,10-,12?,13?,14+/m0/s1
Instrument: Agilent 6410 Triple Quadrupole LC/MS system
Instrument type: LC-ESI-QQQ
Ms type: MS2
Ion mode: POSITIVE
Precursor type: [M+H]+
m/z	relative intensity
160.8	2
160.9	3
161.0	4
161.1	5
161.2	5
161.3	4
161.4	3
170.5	2
170.6	3
170.7	6
170.8	10
170.9	14
171.0	17
171.1	18
171.2	18
171.3	15
171.4	12
171.5	7
171.8	3
171.9	5
172.0	7
172.1	7
172.2	8
172.3	7
172.4	5
172.5	2
188.7	2
188.8	4
188.9	6
189.0	8
189.1	10
189.2	10
189.3	9
189.4	7
189.5	3
198.5	1
198.6	2
198.7	4
198.8	7
198.9	11
199.0	14
199.1	16
199.2	16
199.3	14
199.4	10
199.5	5
199.6	1
216.7	2
216.8	3
216.9	6
217.0	7
217.1	8
217.2	8
217.3	8
217.4	6
217.5	4
217.6	1
262.2	0
262.3	2
262.4	4
262.5	8
262.6	13
262.7	21
262.8	37
262.9	60
263.0	83
263.1	97
263.2	99
263.3	90
263.4	70
263.5	43
263.6	16
263.7	0
