Mass spectrum: Cortisone; LC-ESI-QQQ; MS2; Frag=135.0V CID@25.0; [M+H]+
Name: Cortisone
Class: Steroids
Formula: C21H28O5
Exact mass: 360.4543
SMILES: C[C@]12CC(=O)C3C(CCC4=CC(=O)CC[C@@]43C)C1CC[C@]2(O)C(=O)CO
InChI: InChI=1S/C21H28O5/c1-19-7-5-13(23)9-12(19)3-4-14-15-6-8-21(26,17(25)11-22)20(15,2)10-16(24)18(14)19/h9,14-15,18,22,26H,3-8,10-11H2,1-2H3/t14?,15?,18?,19-,20-,21-/m0/s1
Instrument: Agilent 6410 Triple Quadrupole LC/MS system
Instrument type: LC-ESI-QQQ
Ms type: MS2
Ion mode: POSITIVE
Precursor type: [M+H]+
m/z	relative intensity
104.6	2
104.7	3
104.8	4
104.9	7
105.0	8
105.1	9
105.2	9
105.3	8
105.4	6
105.5	3
106.7	2
106.8	4
106.9	5
107.0	7
107.1	7
107.2	7
107.3	6
107.4	4
107.5	2
118.7	2
118.8	3
118.9	4
119.0	5
119.1	6
119.2	5
119.3	5
119.4	3
120.4	1
120.5	3
120.6	4
120.7	7
120.8	12
120.9	19
121.0	24
121.1	25
121.2	24
121.3	21
121.4	15
121.5	9
121.6	3
134.6	1
134.7	3
134.8	5
134.9	8
135.0	10
135.1	11
135.2	10
135.3	9
135.4	7
135.5	4
135.6	1
144.6	1
144.7	3
144.8	6
144.9	10
145.0	13
145.1	14
145.2	14
145.3	12
145.4	10
145.5	6
145.6	2
146.7	2
146.8	4
146.9	6
147.0	8
147.1	8
147.2	9
147.3	8
147.4	6
147.5	3
158.8	2
158.9	4
159.0	6
159.1	7
159.2	7
159.3	6
159.4	5
159.5	3
160.8	3
160.9	4
161.0	6
161.1	7
161.2	8
161.3	7
161.4	5
161.5	3
162.3	1
162.4	3
162.5	6
162.6	11
162.7	20
162.8	37
162.9	60
163.0	82
163.1	96
163.2	99
163.3	94
163.4	79
163.5	54
163.6	26
163.7	4
170.7	1
170.8	3
170.9	4
171.0	6
171.1	7
171.2	7
171.3	6
171.4	5
171.5	2
182.8	1
182.9	3
183.0	4
183.1	5
183.2	4
183.3	4
183.4	3
183.5	2
183.6	1
183.7	0
183.8	0
183.9	0
184.0	0
184.1	0
184.2	0
184.3	0
184.4	0
184.5	0
184.6	0
184.7	1
184.8	1
184.9	2
185.0	3
185.1	4
185.2	5
185.3	4
185.4	3
185.5	2
188.8	2
188.9	3
189.0	5
189.1	6
189.2	6
189.3	5
189.4	4
189.5	2
238.8	2
238.9	3
239.0	5
239.1	6
239.2	6
239.3	6
239.4	5
239.5	3
240.8	2
240.9	4
241.0	6
241.1	7
241.2	7
241.3	6
241.4	5
241.5	4
266.8	2
266.9	3
267.0	5
267.1	6
267.2	7
267.3	6
267.4	5
267.5	3
298.8	1
298.9	2
299.0	4
299.1	5
299.2	6
299.3	6
299.4	6
299.5	4
360.8	2
360.9	3
361.0	5
361.1	6
361.2	7
361.3	7
361.4	7
361.5	5
361.6	3
