Mass spectrum: Nitrarine; LC-ESI-QQQ; MS2; Frag=135.0V CID@15.0; [M+H]+
Name: Nitrarine
Class: Alkaloids
Formula: C20H25N3
Exact mass: 307.4424
SMILES: c1ccc2c3c([nH]c2c1)[C@@H]1C2CCC([C@H]4CCCN[C@@H]24)N1CC3
InChI: InChI=1S/C20H25N3/c1-2-6-16-12(4-1)13-9-11-23-17-8-7-15(20(23)19(13)22-16)18-14(17)5-3-10-21-18/h1-2,4,6,14-15,17-18,20-22H,3,5,7-11H2/t14-,15?,17?,18-,20+/m1/s1
Instrument: Agilent 6410 Triple Quadrupole LC/MS system
Instrument type: LC-ESI-QQQ
Ms type: MS2
Ion mode: POSITIVE
Precursor type: [M+H]+
m/z	relative intensity
157.6	1
157.7	2
157.8	3
157.9	5
158.0	6
158.1	7
158.2	7
158.3	6
158.4	3
158.5	1
224.5	1
224.6	2
224.7	5
224.8	9
224.9	16
225.0	24
225.1	29
225.2	30
225.3	28
225.4	22
225.5	14
225.6	5
225.7	0
307.4	1
307.5	3
307.6	8
307.7	15
307.8	27
307.9	44
308.0	62
308.1	80
308.2	94
308.3	99
308.4	93
308.5	71
308.6	41
308.7	13
308.8	0
