Mass spectrum: Trachelanthamine; LC-ESI-QQQ; MS2; Frag=135.0V CID@5.0; [M+H]+
Name: Trachelanthamine
Class: Alkaloids
Formula: C15H27NO4
Exact mass: 285.3867
SMILES: CC(C)C(O)(C(=O)OC[C@@H]1CCN2CCC[C@@H]12)C(C)O
InChI: InChI=1S/C15H27NO4/c1-10(2)15(19,11(3)17)14(18)20-9-12-6-8-16-7-4-5-13(12)16/h10-13,17,19H,4-9H2,1-3H3/t11?,12-,13-,15?/m0/s1
Instrument: Agilent 6410 Triple Quadrupole LC/MS system
Instrument type: LC-ESI-QQQ
Ms type: MS2
Ion mode: POSITIVE
Precursor type: [M+H]+
m/z	relative intensity
285.1	0
285.2	2
285.3	5
285.4	9
285.5	9
285.6	7
285.7	9
285.8	22
285.9	46
286.0	76
286.1	97
286.2	99
286.3	80
286.4	47
286.5	18
286.6	2
