Mass spectrum: Olitoriside; LC-ESI-QQQ; MS2; Frag=135.0V CID@25.0 ; [M+H]+
Name: Olitoriside
Class: Steroids
Formula: C35H52O14
Exact mass: 696.79629
SMILES: C[C@H]1O[C@@H](OC2CC[C@]3(C=O)C4CC[C@]5(C)C(C6=CC(=O)OC6)CCC5(O)C4CCC3(O)C2)C[C@H](O)C1OC1O[C@H](CO)[C@@H](O)[C@H](O)[C@H]1O
InChI: InChI=1S/C35H52O14/c1-17-30(49-31-29(42)28(41)27(40)24(14-36)48-31)23(38)12-26(46-17)47-19-3-8-33(16-37)21-4-7-32(2)20(18-11-25(39)45-15-18)6-10-35(32,44)22(21)5-9-34(33,43)13-19/h11,16-17,19-24,26-31,36,38,40-44H,3-10,12-15H2,1-2H3/t17-,19?,20?,21?,22?,23+,24-,26+,27-,28+,29-,30?,31?,32-,33+,34?,35?/m1/s1
Instrument: Agilent 6410 Triple Quadrupole LC/MS system
Instrument type: LC-ESI-QQQ
Ms type: MS2
Ion mode: POSITIVE
Precursor type: [M+H]+
m/z	relative intensity
85.0	4
85.1	6
85.2	9
85.3	11
85.4	9
85.5	5
94.5	2
94.6	4
94.7	6
94.8	8
94.9	8
95.0	8
95.1	9
95.2	12
95.3	13
95.4	10
95.5	5
96.3	3
96.4	6
96.5	8
96.6	12
96.7	20
96.8	33
96.9	46
97.0	54
97.1	50
97.2	34
97.3	14
97.4	2
111.9	1
112.0	2
112.1	7
112.2	14
112.3	18
112.4	16
112.5	14
112.6	15
112.7	15
112.8	13
112.9	19
113.0	43
113.1	79
113.2	99
113.3	87
113.4	54
113.5	22
113.6	6
126.5	3
126.6	6
126.7	10
126.8	11
126.9	10
127.0	6
142.9	2
143.0	6
143.1	11
143.2	15
143.3	13
143.4	8
143.5	3
322.6	4
322.7	6
322.8	10
322.9	17
323.0	26
323.1	31
323.2	27
323.3	16
323.4	6
324.9	2
325.0	5
325.1	9
325.2	14
325.3	14
325.4	11
325.5	5
340.7	3
340.8	5
340.9	8
341.0	16
341.1	31
341.2	44
341.3	44
341.4	28
341.5	10
341.6	1
368.7	2
368.8	5
368.9	9
369.0	11
369.1	10
369.2	6
369.3	4
