Mass spectrum: Phlorizin; LC-ESI-QQQ; MS2; Frag=135.0V CID@15.0 ; [M+H]+
Name: Phlorizin
Class: Carbohydrates
Formula: C21H24O10
Exact mass: 436.41943000000003
SMILES: O=C(CCc1ccc(O)cc1)c1c(O)cc(O)cc1O[C@@H]1OC(CO)[C@@H](O)C(O)C1O
InChI: InChI=1S/C21H24O10/c22-9-16-18(27)19(28)20(29)21(31-16)30-15-8-12(24)7-14(26)17(15)13(25)6-3-10-1-4-11(23)5-2-10/h1-2,4-5,7-8,16,18-24,26-29H,3,6,9H2/t16?,18-,19?,20?,21-/m1/s1
Instrument: Agilent 6410 Triple Quadrupole LC/MS system
Instrument type: LC-ESI-QQQ
Ms type: MS2
Ion mode: POSITIVE
Precursor type: [M+H]+
m/z	relative intensity
106.0	1
106.1	3
106.2	7
106.3	11
106.4	14
106.5	16
106.6	21
106.7	31
106.8	43
106.9	54
107.0	60
107.1	62
107.2	61
107.3	53
107.4	35
107.5	15
107.6	3
148.8	2
148.9	3
149.0	6
149.1	8
149.2	8
149.3	5
149.4	3
150.6	2
150.7	4
150.8	6
150.9	8
151.0	8
151.1	7
151.2	4
168.4	2
168.5	4
168.6	9
168.7	13
168.8	16
168.9	17
169.0	19
169.1	20
169.2	18
169.3	11
169.4	3
172.5	2
172.6	4
172.7	8
172.8	13
172.9	16
173.0	15
173.1	10
173.2	5
180.2	2
180.3	4
180.4	7
180.5	9
180.6	8
180.7	5
210.4	2
210.5	3
210.6	8
210.7	15
210.8	20
210.9	18
211.0	11
211.1	4
234.6	3
234.7	5
234.8	7
234.9	9
235.0	9
235.1	9
235.2	8
235.3	6
235.4	4
273.9	2
274.0	4
274.1	7
274.2	10
274.3	12
274.4	12
274.5	14
274.6	18
274.7	22
274.8	34
274.9	57
275.0	85
275.1	99
275.2	87
275.3	54
275.4	20
275.5	2
276.6	2
276.7	4
276.8	5
276.9	6
277.0	4
286.4	2
286.5	5
286.6	8
286.7	12
286.8	16
286.9	18
287.0	18
287.1	16
287.2	13
287.3	8
287.4	4
298.8	4
298.9	6
299.0	9
299.1	13
299.2	14
299.3	11
299.4	6
299.5	2
316.4	1
316.5	5
316.6	14
316.7	26
316.8	35
316.9	36
317.0	27
317.1	16
317.2	8
317.3	3
340.1	1
340.2	3
340.3	6
340.4	9
340.5	10
340.6	11
340.7	18
340.8	32
340.9	42
341.0	39
341.1	28
341.2	20
341.3	17
341.4	13
341.5	8
341.6	3
352.5	3
352.6	5
352.7	11
352.8	20
352.9	26
353.0	26
353.1	20
353.2	14
353.3	9
353.4	5
364.9	3
365.0	5
365.1	8
365.2	9
365.3	8
365.4	5
382.4	1
382.5	4
382.6	7
382.7	10
382.8	12
382.9	12
383.0	10
383.1	7
383.2	4
