Mass spectrum: Oxiglutathione; LC-ESI-QQQ; MS2; Frag=135.0V CID@25.0; [M+H]+
Name: GSSG
Name: Glutathiol
Name: Glutathione (oxidized form)
Name: Oxigluthione
Name: Oxidized glutathione
Name: (gamma-Glu-Cys-Gly) (gamma-Glu-Cys-Gly)(Disulfide bridge: 2a-2b)
Name: Oxiglutathione
Class: Aminoacids and peptides
Formula: C20H32N6O12S2
Exact mass: 612.639
SMILES: NC(CCC(O)=NC(CSSCC(N=C(O)CCC(N)C(=O)O)C(O)=NCC(=O)O)C(O)=NCC(=O)O)C(=O)O
InChI: InChI=1S/C20H32N6O12S2/c21-9(19(35)36)1-3-13(27)25-11(17(33)23-5-15(29)30)7-39-40-8-12(18(34)24-6-16(31)32)26-14(28)4-2-10(22)20(37)38/h9-12H,1-8,21-22H2,(H,23,33)(H,24,34)(H,25,27)(H,26,28)(H,29,30)(H,31,32)(H,35,36)(H,37,38)
Instrument: Agilent 6410 Triple Quadrupole LC/MS system
Instrument type: LC-ESI-QQQ
Ms type: MS2
Ion mode: POSITIVE
Precursor type: [M+H]+
m/z	relative intensity
129.3	1
129.4	1
129.5	4
129.6	10
129.7	16
129.8	19
129.9	17
130.0	11
130.1	4
130.4	2
130.5	4
130.6	5
130.7	5
130.8	4
130.9	3
176.1	1
176.2	2
176.3	3
176.4	5
176.5	5
176.6	5
176.7	5
176.8	9
176.9	17
177.0	25
177.1	26
177.2	20
177.3	10
177.4	3
178.7	1
178.8	2
178.9	3
179.0	5
179.1	7
179.2	8
179.3	6
179.4	4
179.5	1
198.5	1
198.6	2
198.7	5
198.8	8
198.9	10
199.0	9
199.1	5
199.2	1
208.2	0
208.3	2
208.4	3
208.5	6
208.6	8
208.7	11
208.8	12
208.9	12
209.0	12
209.1	10
209.2	8
209.3	4
209.4	1
210.3	1
210.4	2
210.5	3
210.6	6
210.7	9
210.8	10
210.9	9
211.0	6
211.1	3
230.0	1
230.1	2
230.2	4
230.3	6
230.4	8
230.5	11
230.6	18
230.7	30
230.8	43
230.9	51
231.0	52
231.1	47
231.2	36
231.3	21
231.4	7
231.5	0
234.3	1
234.4	2
234.5	4
234.6	8
234.7	12
234.8	15
234.9	14
235.0	12
235.1	10
235.2	10
235.3	8
235.4	4
235.5	1
287.4	1
287.5	2
287.6	5
287.7	10
287.8	15
287.9	17
288.0	17
288.1	15
288.2	11
288.3	7
288.4	3
354.1	1
354.2	2
354.3	4
354.4	8
354.5	14
354.6	26
354.7	44
354.8	60
354.9	69
355.0	78
355.1	92
355.2	99
355.3	81
355.4	41
355.5	6
355.6	0
408.3	0
408.4	1
408.5	4
408.6	8
408.7	9
408.8	9
408.9	8
409.0	8
409.1	8
409.2	7
409.3	4
409.4	1
465.1	1
465.2	3
465.3	5
465.4	5
465.5	4
465.6	2
483.9	1
484.0	2
484.1	4
484.2	7
484.3	9
484.4	9
484.5	5
484.6	2
