Mass spectrum: Harpagide; LC-ESI-QQQ; MS2; Frag=135.0V CID@25.0; [M+Na]+
Name: Harpagide
Class: Terpenoids
Formula: C15H24O10
Exact mass: 364.3525
SMILES: C[C@]1(O)CC(O)C2(O)C=COC(OC3O[C@H](CO)[C@@H](O)[C@H](O)[C@H]3O)C21
InChI: InChI=1S/C15H24O10/c1-14(21)4-7(17)15(22)2-3-23-13(11(14)15)25-12-10(20)9(19)8(18)6(5-16)24-12/h2-3,6-13,16-22H,4-5H2,1H3/t6-,7?,8-,9+,10-,11?,12?,13?,14+,15?/m1/s1
Instrument: Agilent 6410 Triple Quadrupole LC/MS system
Instrument type: LC-ESI-QQQ
Ms type: MS2
Ion mode: POSITIVE
Precursor type: [M+Na]+
m/z	relative intensity
188.4	3
188.5	5
188.6	9
188.7	12
188.8	14
188.9	15
189.0	13
189.1	10
189.2	6
202.2	3
202.3	4
202.4	6
202.5	7
202.6	8
202.7	10
202.8	13
202.9	16
203.0	17
203.1	17
203.2	16
203.3	12
203.4	7
203.5	3
206.2	1
206.3	2
206.4	5
206.5	11
206.6	18
206.7	22
206.8	22
206.9	20
207.0	19
207.1	20
207.2	19
207.3	16
207.4	12
207.5	7
207.6	3
386.3	1
386.4	5
386.5	14
386.6	26
386.7	43
386.8	64
386.9	85
387.0	96
387.1	98
387.2	99
387.3	94
387.4	69
387.5	31
387.6	3
