Mass spectrum: Rosamicin; LC-ESI-QQQ; MS2; Frag=135.0V CID@5.0; [M+H]+
Name: Rosamicin
Class: Polyketides
Formula: C31H51NO9
Exact mass: 581.7534
SMILES: CC[C@H]1OC(=O)C[C@@H](O)[C@H](C)[C@@H](O[C@@H]2O[C@H](C)C[C@H](N(C)C)C2O)[C@@H](CC=O)C[C@@H](C)C(=O)/C=C/[C@]2(C)O[C@H]2[C@@H]1C
InChI: InChI=1S/C31H51NO9/c1-9-25-20(5)29-31(6,41-29)12-10-23(34)17(2)14-21(11-13-33)28(19(4)24(35)16-26(36)39-25)40-30-27(37)22(32(7)8)15-18(3)38-30/h10,12-13,17-22,24-25,27-30,35,37H,9,11,14-16H2,1-8H3/b12-10+/t17-,18-,19+,20-,21+,22+,24-,25-,27?,28-,29+,30+,31+/m1/s1
Instrument: Agilent 6410 Triple Quadrupole LC/MS system
Instrument type: LC-ESI-QQQ
Ms type: MS2
Ion mode: POSITIVE
Precursor type: [M+H]+
m/z	relative intensity
157.4	0
157.5	1
157.6	4
157.7	7
157.8	12
157.9	17
158.0	20
158.1	22
158.2	21
158.3	18
158.4	14
158.5	9
158.6	3
581.4	0
581.5	1
581.6	5
581.7	11
581.8	21
581.9	35
582.0	52
582.1	71
582.2	87
582.3	97
582.4	99
582.5	94
582.6	77
582.7	51
582.8	23
582.9	3
