Mass spectrum: Acarbose; LC-ESI-QQQ; MS2; Frag=135.0V CID@25.0; [M+H]+
Name: Acarbose
Class: Carbohydrates
Formula: C25H43NO18
Exact mass: 645.6174
SMILES: C[C@H]1OC(OC2[C@@H](CO)OC(OC3[C@@H](CO)OC(O)[C@H](O)[C@H]3O)[C@H](O)[C@H]2O)[C@H](O)[C@@H](O)C1N[C@H]1C=C(CO)[C@@H](O)[C@H](O)[C@H]1O
InChI: InChI=1S/C25H43NO18/c1-6-11(26-8-2-7(3-27)12(30)15(33)13(8)31)14(32)19(37)24(40-6)43-22-10(5-29)42-25(20(38)17(22)35)44-21-9(4-28)41-23(39)18(36)16(21)34/h2,6,8-39H,3-5H2,1H3/t6-,8+,9-,10-,11?,12-,13+,14+,15+,16-,17-,18-,19-,20-,21?,22?,23?,24?,25?/m1/s1
Instrument: Agilent 6410 Triple Quadrupole LC/MS system
Instrument type: LC-ESI-QQQ
Ms type: MS2
Ion mode: POSITIVE
Precursor type: [M+H]+
m/z	relative intensity
145.3	1
145.4	2
145.5	4
145.6	8
145.7	15
145.8	24
145.9	32
146.0	37
146.1	38
146.2	35
146.3	29
146.4	21
146.5	11
146.6	3
303.3	0
303.4	3
303.5	8
303.6	16
303.7	29
303.8	45
303.9	65
304.0	85
304.1	98
304.2	99
304.3	88
304.4	66
304.5	38
304.6	15
304.7	1
