Mass spectrum: Suksdorfin; LC-ESI-QQQ; MS2; Frag=135.0V CID@10.0; [M+Na]+
Name: Suksdorfin
Class: Benzopyranoids
Formula: C21H24O7
Exact mass: 388.4212
SMILES: CC(=O)OC1C(OC(=O)CC(C)C)c2c(ccc3ccc(=O)oc23)OC1(C)C
InChI: InChI=1S/C21H24O7/c1-11(2)10-16(24)27-19-17-14(28-21(4,5)20(19)25-12(3)22)8-6-13-7-9-15(23)26-18(13)17/h6-9,11,19-20H,10H2,1-5H3
Instrument: Agilent 6410 Triple Quadrupole LC/MS system
Instrument type: LC-ESI-QQQ
Ms type: MS2
Ion mode: POSITIVE
Precursor type: [M+Na]+
m/z	relative intensity
308.4	1
308.5	3
308.6	5
308.7	7
308.8	9
308.9	9
309.0	8
309.1	7
309.2	6
309.3	4
309.4	2
410.4	1
410.5	4
410.6	14
410.7	33
410.8	57
410.9	80
411.0	95
411.1	99
411.2	94
411.3	81
411.4	59
411.5	32
411.6	9
411.7	0
