Mass spectrum: Ginkgolide B; LC-ESI-QQQ; MS2; Frag=135.0V CID@15.0; [M+H]+
Name: Ginkgolide B
Class: Terpenoids
Formula: C20H24O10
Exact mass: 424.4083
SMILES: C[C@@H]1C(=O)O[C@H]2[C@H](O)[C@@]34[C@H]5C[C@@H](C(C)(C)C)[C@]36[C@@H](OC(=O)[C@@H]6O)O[C@@]4(C(=O)O5)[C@@]12O
InChI: InChI=1S/C20H24O10/c1-6-12(23)28-11-9(21)18-8-5-7(16(2,3)4)17(18)10(22)13(24)29-15(17)30-20(18,14(25)27-8)19(6,11)26/h6-11,15,21-22,26H,5H2,1-4H3/t6-,7+,8-,9+,10+,11+,15+,17+,18+,19-,20-/m1/s1
Instrument: Agilent 6410 Triple Quadrupole LC/MS system
Instrument type: LC-ESI-QQQ
Ms type: MS2
Ion mode: POSITIVE
Precursor type: [M+H]+
m/z	relative intensity
112.7	2
112.8	3
112.9	4
113.0	5
113.1	4
113.2	3
186.6	1
186.7	2
186.8	4
186.9	6
187.0	7
187.1	6
187.2	3
187.3	1
224.7	2
224.8	3
224.9	4
225.0	5
225.1	5
225.2	4
225.3	2
228.7	1
228.8	3
228.9	5
229.0	7
229.1	7
229.2	6
229.3	5
229.4	3
230.7	1
230.8	2
230.9	4
231.0	5
231.1	5
231.2	3
231.3	1
242.7	1
242.8	3
242.9	6
243.0	7
243.1	6
243.2	4
243.3	2
246.6	0
246.7	2
246.8	4
246.9	6
247.0	7
247.1	6
247.2	5
247.3	3
247.4	2
252.8	2
252.9	3
253.0	5
253.1	6
253.2	7
253.3	5
253.4	3
256.4	1
256.5	2
256.6	4
256.7	6
256.8	9
256.9	12
257.0	14
257.1	14
257.2	12
257.3	9
257.4	5
257.5	2
258.5	1
258.6	2
258.7	4
258.8	7
258.9	9
259.0	11
259.1	11
259.2	9
259.3	5
259.4	2
260.5	1
260.6	2
260.7	4
260.8	4
260.9	5
261.0	5
261.1	5
261.2	4
261.3	3
270.5	1
270.6	2
270.7	4
270.8	5
270.9	6
271.0	8
271.1	10
271.2	11
271.3	8
271.4	4
271.5	0
274.4	2
274.5	3
274.6	4
274.7	6
274.8	11
274.9	17
275.0	24
275.1	27
275.2	24
275.3	17
275.4	8
275.5	2
286.6	0
286.7	2
286.8	5
286.9	8
287.0	11
287.1	13
287.2	12
287.3	9
287.4	5
287.5	1
288.4	0
288.5	1
288.6	3
288.7	6
288.8	8
288.9	10
289.0	10
289.1	11
289.2	11
289.3	9
289.4	6
289.5	3
296.6	1
296.7	2
296.8	4
296.9	6
297.0	7
297.1	8
297.2	7
297.3	5
297.4	3
298.6	1
298.7	2
298.8	4
298.9	6
299.0	7
299.1	9
299.2	10
299.3	8
299.4	5
299.5	1
300.6	1
300.7	3
300.8	4
300.9	5
301.0	4
301.1	4
301.2	2
302.6	1
302.7	3
302.8	4
302.9	6
303.0	6
303.1	5
303.2	3
303.3	2
304.4	1
304.5	2
304.6	4
304.7	6
304.8	10
304.9	14
305.0	16
305.1	17
305.2	16
305.3	13
305.4	8
305.5	4
305.6	0
314.5	1
314.6	3
314.7	5
314.8	8
314.9	11
315.0	15
315.1	16
315.2	15
315.3	11
315.4	6
315.5	1
318.6	2
318.7	3
318.8	4
318.9	5
319.0	6
319.1	6
319.2	4
319.3	2
320.6	2
320.7	3
320.8	5
320.9	7
321.0	10
321.1	12
321.2	13
321.3	12
321.4	8
321.5	3
324.5	1
324.6	3
324.7	5
324.8	8
324.9	10
325.0	10
325.1	10
325.2	9
325.3	7
325.4	4
325.5	1
326.6	2
326.7	3
326.8	4
326.9	6
327.0	7
327.1	7
327.2	7
327.3	6
327.4	4
327.5	2
332.6	1
332.7	3
332.8	5
332.9	8
333.0	10
333.1	10
333.2	8
333.3	4
333.4	1
336.6	1
336.7	3
336.8	5
336.9	7
337.0	8
337.1	7
337.2	5
337.3	2
342.4	1
342.5	2
342.6	4
342.7	7
342.8	11
342.9	14
343.0	16
343.1	18
343.2	19
343.3	17
343.4	11
343.5	5
343.6	0
360.3	1
360.4	3
360.5	7
360.6	14
360.7	26
360.8	41
360.9	59
361.0	74
361.1	84
361.2	86
361.3	79
361.4	61
361.5	35
361.6	10
361.7	0
370.5	1
370.6	2
370.7	5
370.8	8
370.9	11
371.0	13
371.1	14
371.2	13
371.3	11
371.4	7
371.5	2
378.7	1
378.8	3
378.9	5
379.0	6
379.1	6
379.2	6
379.3	4
379.4	2
388.5	2
388.6	3
388.7	5
388.8	8
388.9	11
389.0	14
389.1	14
389.2	12
389.3	9
389.4	5
389.5	2
406.5	1
406.6	2
406.7	3
406.8	4
406.9	6
407.0	8
407.1	11
407.2	11
407.3	9
407.4	6
407.5	2
424.2	0
424.3	3
424.4	7
424.5	12
424.6	19
424.7	29
424.8	45
424.9	65
425.0	84
425.1	97
425.2	99
425.3	90
425.4	66
425.5	35
425.6	8
425.7	0
