Mass spectrum: Dihydroergocristine; LC-ESI-QQQ; MS2; Frag=135.0V CID@10.0; [M+H]+
Name: Dihydroergocristine
Class: Alkaloids
Formula: C35H41N5O5
Exact mass: 611.7475
SMILES: CC(C)[C@@]1(N=C(O)[C@@H]2C[C@@H]3c4cccc5[nH]cc(c45)C[C@H]3N(C)C2)O[C@@]2(O)[C@@H]3CCCN3C(=O)[C@H](Cc3ccccc3)N2C1=O
InChI: InChI=1S/C35H41N5O5/c1-20(2)34(37-31(41)23-16-25-24-11-7-12-26-30(24)22(18-36-26)17-27(25)38(3)19-23)33(43)40-28(15-21-9-5-4-6-10-21)32(42)39-14-8-13-29(39)35(40,44)45-34/h4-7,9-12,18,20,23,25,27-29,36,44H,8,13-17,19H2,1-3H3,(H,37,41)/t23-,25-,27-,28+,29+,34-,35+/m1/s1
Instrument: Agilent 6410 Triple Quadrupole LC/MS system
Instrument type: LC-ESI-QQQ
Ms type: MS2
Ion mode: POSITIVE
Precursor type: [M+H]+
m/z	relative intensity
269.7	2
269.8	3
269.9	4
270.0	5
270.1	7
270.2	7
270.3	7
270.4	6
270.5	4
270.6	1
593.9	2
594.0	3
594.1	5
594.2	6
594.3	6
594.4	6
594.5	5
594.6	3
594.7	1
611.3	0
611.4	1
611.5	4
611.6	9
611.7	16
611.8	26
611.9	42
612.0	60
612.1	77
612.2	91
612.3	99
612.4	99
612.5	86
612.6	61
612.7	31
612.8	8
612.9	0
