Mass spectrum: Salutaridine; LC-ESI-QQQ; MS2; Frag=135.0V CID@25.0; [M+H]+
Name: Salutaridine
Class: Alkaloids
Formula: C19H21NO4
Exact mass: 327.3835
SMILES: COC1=CC23CCN(C)C(Cc4ccc(OC)c(O)c42)C3=CC1=O
InChI: InChI=1S/C19H21NO4/c1-20-7-6-19-10-16(24-3)14(21)9-12(19)13(20)8-11-4-5-15(23-2)18(22)17(11)19/h4-5,9-10,13,22H,6-8H2,1-3H3
Instrument: Agilent 6410 Triple Quadrupole LC/MS system
Instrument type: LC-ESI-QQQ
Ms type: MS2
Ion mode: POSITIVE
Precursor type: [M+H]+
m/z	relative intensity
57.2	1
57.3	3
57.4	6
57.5	11
57.6	20
57.7	35
57.8	55
57.9	76
58.0	92
58.1	99
58.2	97
58.3	85
58.4	63
58.5	36
58.6	13
58.7	0
164.7	2
164.8	4
164.9	5
165.0	6
165.1	7
165.2	7
165.3	6
165.4	4
165.5	2
182.5	2
182.6	3
182.7	5
182.8	8
182.9	12
183.0	15
183.1	17
183.2	17
183.3	15
183.4	11
183.5	6
183.6	2
191.7	5
191.8	8
191.9	12
192.0	15
192.1	17
192.2	16
192.3	14
192.4	11
192.5	7
192.8	4
192.9	6
193.0	8
193.1	9
193.2	8
193.3	7
193.4	5
193.5	3
204.6	3
204.7	5
204.8	8
204.9	12
205.0	15
205.1	16
205.2	16
205.3	13
205.4	9
205.5	5
205.6	1
206.3	1
206.4	2
206.5	5
206.6	10
206.7	18
206.8	27
206.9	36
207.0	41
207.1	43
207.2	42
207.3	36
207.4	25
207.5	12
207.6	2
210.4	2
210.5	5
210.6	9
210.7	14
210.8	22
210.9	31
211.0	38
211.1	41
211.2	41
211.3	37
211.4	28
211.5	17
211.6	5
211.7	0
220.7	1
220.8	3
220.9	4
221.0	5
221.1	6
221.2	5
221.3	4
221.7	2
221.8	4
221.9	6
222.0	7
222.1	7
222.2	6
222.3	5
222.4	3
224.8	2
224.9	3
225.0	4
225.1	5
225.2	4
225.3	3
225.4	2
232.6	1
232.7	3
232.8	5
232.9	7
233.0	8
233.1	9
233.2	9
233.3	8
233.4	5
233.5	2
236.3	3
236.4	4
236.5	6
236.6	10
236.7	18
236.8	31
236.9	45
237.0	57
237.1	62
237.2	60
237.3	51
237.4	37
237.5	21
237.6	7
237.7	0
238.5	3
238.6	5
238.7	7
238.8	12
238.9	16
239.0	20
239.1	22
239.2	22
239.3	19
239.4	14
239.5	7
239.6	2
252.7	2
252.8	3
252.9	5
253.0	6
253.1	7
253.2	7
253.3	6
253.4	4
253.5	2
254.5	3
254.6	4
254.7	5
254.8	8
254.9	12
255.0	15
255.1	17
255.2	16
255.3	13
255.4	9
255.5	4
255.6	0
264.6	1
264.7	2
264.8	5
264.9	7
265.0	9
265.1	9
265.2	9
265.3	7
265.4	5
265.5	3
266.6	2
266.7	4
266.8	6
266.9	8
267.0	10
267.1	10
267.2	10
267.3	8
267.4	5
267.5	3
269.6	2
269.7	3
269.8	5
269.9	7
270.0	9
270.1	10
270.2	11
270.3	10
270.4	8
270.5	4
281.7	2
281.8	4
281.9	6
282.0	7
282.1	8
282.2	8
282.3	7
282.4	5
282.5	2
284.6	1
284.7	3
284.8	4
284.9	7
285.0	9
285.1	11
285.2	11
285.3	10
285.4	7
285.5	4
285.6	1
327.6	1
327.7	3
327.8	6
327.9	9
328.0	12
328.1	15
328.2	16
328.3	16
328.4	14
328.5	9
328.6	3
