Mass spectrum: 14,16-Dianhydrogitoxigenin; LC-ESI-QQQ; MS2; Frag=135.0V CID@25.0 ; [M+H]+
Name: 14,16-Dianhydrogitoxigenin
Class: Steroids
Formula: C23H30O3
Exact mass: 354.49375
SMILES: C[C@]12CCC3C(CCC4CC(O)CC[C@@]43C)C1=CC=C2C1=CC(=O)OC1
InChI: InChI=1S/C23H30O3/c1-22-9-7-16(24)12-15(22)3-4-17-19-6-5-18(14-11-21(25)26-13-14)23(19,2)10-8-20(17)22/h5-6,11,15-17,20,24H,3-4,7-10,12-13H2,1-2H3/t15?,16?,17?,20?,22-,23+/m0/s1
Instrument: Agilent 6410 Triple Quadrupole LC/MS system
Instrument type: LC-ESI-QQQ
Ms type: MS2
Ion mode: POSITIVE
Precursor type: [M+H]+
m/z	relative intensity
54.6	2
54.7	3
54.8	5
54.9	7
55.0	9
55.1	11
55.2	11
55.3	9
55.4	5
55.5	2
66.4	2
66.5	2
66.6	4
66.7	7
66.8	10
66.9	11
67.0	11
67.1	12
67.2	12
67.3	11
67.4	7
67.5	2
68.5	2
68.6	3
68.7	5
68.8	8
68.9	10
69.0	11
69.1	10
69.2	8
69.3	5
69.4	3
69.5	2
78.5	1
78.6	2
78.7	4
78.8	4
78.9	4
79.0	5
79.1	6
79.2	7
79.3	6
79.4	4
79.5	1
80.4	2
80.5	3
80.6	5
80.7	9
80.8	15
80.9	20
81.0	22
81.1	21
81.2	18
81.3	14
81.4	11
81.5	8
81.6	3
82.4	1
82.5	2
82.6	4
82.7	8
82.8	13
82.9	17
83.0	19
83.1	20
83.2	19
83.3	15
83.4	10
83.5	4
90.5	1
90.6	2
90.7	5
90.8	8
90.9	11
91.0	12
91.1	11
91.2	8
91.3	5
91.4	2
92.4	1
92.5	2
92.6	3
92.7	5
92.8	7
92.9	10
93.0	12
93.1	14
93.2	14
93.3	11
93.4	7
93.5	3
94.6	1
94.7	3
94.8	6
94.9	11
95.0	17
95.1	21
95.2	21
95.3	15
95.4	8
95.5	2
104.4	0
104.5	2
104.6	6
104.7	10
104.8	14
104.9	16
105.0	17
105.1	18
105.2	18
105.3	16
105.4	12
105.5	6
105.6	1
106.3	1
106.4	2
106.5	4
106.6	5
106.7	7
106.8	10
106.9	14
107.0	16
107.1	16
107.2	15
107.3	14
107.4	11
107.5	6
107.6	2
108.3	0
108.4	2
108.5	5
108.6	7
108.7	9
108.8	15
108.9	24
109.0	33
109.1	38
109.2	36
109.3	27
109.4	16
109.5	7
109.6	2
116.7	0
116.8	2
116.9	4
117.0	6
117.1	5
117.2	4
117.3	2
118.4	0
118.5	1
118.6	4
118.7	10
118.8	15
118.9	20
119.0	22
119.1	22
119.2	21
119.3	19
119.4	14
119.5	8
119.6	2
120.4	0
120.5	2
120.6	3
120.7	5
120.8	7
120.9	9
121.0	10
121.1	10
121.2	9
121.3	7
121.4	4
121.5	2
128.6	3
128.7	4
128.8	7
128.9	11
129.0	12
129.1	11
129.2	8
129.3	5
129.4	3
130.4	1
130.5	2
130.6	5
130.7	9
130.8	15
130.9	22
131.0	29
131.1	32
131.2	29
131.3	22
131.4	14
131.5	6
131.6	1
132.5	2
132.6	4
132.7	8
132.8	12
132.9	17
133.0	22
133.1	25
133.2	24
133.3	21
133.4	16
133.5	9
133.6	4
134.5	0
134.6	2
134.7	4
134.8	7
134.9	9
135.0	10
135.1	10
135.2	9
135.3	8
135.4	7
135.5	5
135.6	2
141.7	1
141.8	3
141.9	5
142.0	6
142.1	5
142.2	4
142.3	4
142.4	5
142.5	5
142.6	5
142.7	6
142.8	9
142.9	13
143.0	17
143.1	20
143.2	20
143.3	16
143.4	10
143.5	5
143.6	1
144.6	2
144.7	4
144.8	10
144.9	17
145.0	21
145.1	22
145.2	21
145.3	17
145.4	11
145.5	5
145.6	0
146.3	0
146.4	2
146.5	4
146.6	6
146.7	10
146.8	14
146.9	18
147.0	22
147.1	26
147.2	29
147.3	28
147.4	23
147.5	14
147.6	5
147.7	0
148.5	1
148.6	3
148.7	5
148.8	9
148.9	13
149.0	16
149.1	19
149.2	21
149.3	20
149.4	14
149.5	6
149.6	0
154.5	2
154.6	4
154.7	6
154.8	10
154.9	15
155.0	18
155.1	17
155.2	13
155.3	8
155.4	4
155.5	2
156.3	1
156.4	3
156.5	5
156.6	10
156.7	15
156.8	21
156.9	26
157.0	29
157.1	33
157.2	39
157.3	43
157.4	38
157.5	23
157.6	6
157.7	0
158.4	2
158.5	4
158.6	8
158.7	13
158.8	21
158.9	28
159.0	33
159.1	37
159.2	39
159.3	37
159.4	30
159.5	18
159.6	6
159.7	0
160.4	0
160.5	3
160.6	7
160.7	14
160.8	23
160.9	33
161.0	40
161.1	44
161.2	45
161.3	42
161.4	36
161.5	25
161.6	12
161.7	2
162.6	1
162.7	3
162.8	5
162.9	7
163.0	8
163.1	7
163.2	7
163.3	7
163.4	6
163.5	3
163.6	1
166.6	1
166.7	2
166.8	4
166.9	7
167.0	9
167.1	7
167.2	5
167.3	3
167.8	2
167.9	3
168.0	4
168.1	5
168.2	5
168.3	4
168.4	3
168.5	3
168.6	4
168.7	5
168.8	7
168.9	11
169.0	17
169.1	21
169.2	23
169.3	22
169.4	19
169.5	12
169.6	5
169.7	0
170.4	2
170.5	4
170.6	6
170.7	7
170.8	10
170.9	14
171.0	21
171.1	27
171.2	29
171.3	27
171.4	20
171.5	10
171.6	2
172.5	1
172.6	2
172.7	4
172.8	7
172.9	10
173.0	14
173.1	17
173.2	17
173.3	15
173.4	9
173.5	4
173.6	0
174.3	1
174.4	3
174.5	8
174.6	16
174.7	30
174.8	48
174.9	66
175.0	80
175.1	85
175.2	82
175.3	68
175.4	45
175.5	21
175.6	3
176.8	3
176.9	5
177.0	7
177.1	8
177.2	8
177.3	6
177.4	3
180.4	1
180.5	3
180.6	5
180.7	6
180.8	7
180.9	8
181.0	10
181.1	11
181.2	12
181.3	13
181.4	12
181.5	8
181.6	3
182.5	7
182.6	7
182.7	12
182.8	22
182.9	34
183.0	42
183.1	44
183.2	39
183.3	30
183.4	21
183.5	12
183.6	5
183.7	0
184.3	2
184.4	3
184.5	4
184.6	6
184.7	11
184.8	19
184.9	26
185.0	30
185.1	30
185.2	27
185.3	25
185.4	21
185.5	13
185.6	5
185.7	0
186.5	1
186.6	3
186.7	5
186.8	7
186.9	10
187.0	13
187.1	16
187.2	16
187.3	13
187.4	9
187.5	4
187.6	0
188.4	1
188.5	2
188.6	5
188.7	7
188.8	8
188.9	9
189.0	11
189.1	14
189.2	16
189.3	14
189.4	9
189.5	3
190.5	0
190.6	2
190.7	4
190.8	5
190.9	5
191.0	3
194.5	1
194.6	4
194.7	6
194.8	9
194.9	13
195.0	18
195.1	21
195.2	21
195.3	19
195.4	14
195.5	8
195.6	3
196.5	0
196.6	1
196.7	4
196.8	8
196.9	13
197.0	20
197.1	25
197.2	27
197.3	24
197.4	16
197.5	7
197.6	1
198.6	3
198.7	4
198.8	7
198.9	11
199.0	16
199.1	20
199.2	19
199.3	16
199.4	10
199.5	4
199.6	1
200.4	1
200.5	3
200.6	5
200.7	9
200.8	13
200.9	18
201.0	22
201.1	23
201.2	22
201.3	19
201.4	14
201.5	7
201.6	1
202.9	1
203.0	3
203.1	6
203.2	7
203.3	5
203.4	2
208.4	0
208.5	2
208.6	4
208.7	7
208.8	10
208.9	14
209.0	19
209.1	22
209.2	22
209.3	18
209.4	12
209.5	6
209.6	1
210.6	1
210.7	3
210.8	7
210.9	12
211.0	15
211.1	15
211.2	14
211.3	12
211.4	9
211.5	5
211.6	1
212.3	2
212.4	4
212.5	8
212.6	14
212.7	24
212.8	38
212.9	52
213.0	64
213.1	69
213.2	66
213.3	57
213.4	42
213.5	23
213.6	7
213.7	0
214.5	1
214.6	2
214.7	3
214.8	5
214.9	7
215.0	10
215.1	12
215.2	12
215.3	9
215.4	6
215.5	4
215.6	2
222.7	2
222.8	3
222.9	5
223.0	7
223.1	8
223.2	9
223.3	8
223.4	6
223.5	3
224.6	1
224.7	2
224.8	4
224.9	7
225.0	8
225.1	7
225.2	6
225.3	5
225.4	3
226.3	1
226.4	4
226.5	9
226.6	19
226.7	33
226.8	49
226.9	65
227.0	80
227.1	92
227.2	99
227.3	96
227.4	79
227.5	48
227.6	16
227.7	0
228.3	1
228.4	2
228.5	6
228.6	11
228.7	17
228.8	23
228.9	29
229.0	35
229.1	41
229.2	45
229.3	44
229.4	35
229.5	20
229.6	6
229.7	0
234.6	1
234.7	2
234.8	4
234.9	5
235.0	6
235.1	6
235.2	6
235.3	5
235.4	3
236.7	1
236.8	3
236.9	6
237.0	8
237.1	8
237.2	8
237.3	7
237.4	5
237.5	3
240.3	1
240.4	2
240.5	4
240.6	6
240.7	11
240.8	18
240.9	23
241.0	24
241.1	24
241.2	23
241.3	22
241.4	19
241.5	12
241.6	5
241.7	0
242.7	1
242.8	2
242.9	5
243.0	8
243.1	11
243.2	12
243.3	10
243.4	7
243.5	3
251.0	3
251.1	4
251.2	5
251.3	6
251.4	6
251.5	4
251.6	1
252.5	1
252.6	2
252.7	5
252.8	8
252.9	10
253.0	10
253.1	10
253.2	9
253.3	8
253.4	6
253.5	2
254.4	1
254.5	2
254.6	5
254.7	10
254.8	17
254.9	26
255.0	34
255.1	39
255.2	39
255.3	34
255.4	26
255.5	15
255.6	6
255.7	1
266.5	0
266.6	1
266.7	3
266.8	6
266.9	8
267.0	8
267.1	8
267.2	7
267.3	6
267.4	4
268.7	0
268.8	2
268.9	3
269.0	4
269.1	4
269.2	3
269.3	3
269.4	3
276.7	1
276.8	3
276.9	6
277.0	10
277.1	12
277.2	12
277.3	11
277.4	10
277.5	7
277.6	3
280.7	1
280.8	3
280.9	4
281.0	6
281.1	7
281.2	7
281.3	6
281.4	5
281.5	3
290.6	1
290.7	3
290.8	4
290.9	6
291.0	7
291.1	8
291.2	8
291.3	6
291.4	3
336.3	0
336.4	1
336.5	5
336.6	12
336.7	19
336.8	27
336.9	39
337.0	58
337.1	79
337.2	94
337.3	95
337.4	81
337.5	57
337.6	30
337.7	8
337.8	0
354.5	1
354.6	2
354.7	6
354.8	14
354.9	25
355.0	40
355.1	55
355.2	67
355.3	70
355.4	59
355.5	38
355.6	16
355.7	2
