Mass spectrum: Cyclo(phenylalanylleucyl),  (3S,6S)-form; LC-ESI-QQQ; MS2; Frag=135.0V CID@10.0; [M+H]+
Name: Cyclo(phenylalanylleucyl),  (3S,6S)-form
Class: Aminoacids and peptides
Formula: C15H20N2O2
Exact mass: 260.3389
SMILES: CC(C)C[C@@H]1N=C(O)[C@H](Cc2ccccc2)N=C1O
InChI: InChI=1S/C15H20N2O2/c1-10(2)8-12-14(18)17-13(15(19)16-12)9-11-6-4-3-5-7-11/h3-7,10,12-13H,8-9H2,1-2H3,(H,16,19)(H,17,18)/t12-,13-/m0/s1
Instrument: Agilent 6410 Triple Quadrupole LC/MS system
Instrument type: LC-ESI-QQQ
Ms type: MS2
Ion mode: POSITIVE
Precursor type: [M+H]+
m/z	relative intensity
85.4	2
85.5	4
85.6	7
85.7	12
85.8	21
85.9	34
86.0	44
86.1	48
86.2	45
86.3	37
86.4	25
86.5	12
86.6	2
119.2	1
119.3	3
119.4	6
119.5	11
119.6	20
119.7	38
119.8	62
119.9	86
120.0	99
120.1	99
120.2	89
120.3	76
120.4	58
120.5	36
120.6	14
120.7	0
187.6	1
187.7	3
187.8	7
187.9	13
188.0	18
188.1	23
188.2	24
188.3	22
188.4	16
188.5	8
188.6	2
215.5	2
215.6	3
215.7	5
215.8	9
215.9	13
216.0	17
216.1	19
216.2	19
216.3	18
216.4	13
216.5	7
216.6	1
232.4	2
232.5	3
232.6	4
232.7	7
232.8	12
232.9	18
233.0	22
233.1	24
233.2	24
233.3	23
233.4	20
233.5	14
233.6	6
233.7	0
260.3	2
260.4	4
260.5	7
260.6	11
260.7	18
260.8	30
260.9	47
261.0	65
261.1	76
261.2	78
261.3	69
261.4	52
261.5	32
261.6	13
261.7	1
