Mass spectrum: Geniposide; LC-ESI-QQQ; MS2; Frag=135.0V CID@25.0; [M+HCOO]-
Name: Geniposide
Class: Terpenoids
Formula: C17H24O10
Exact mass: 388.3748
SMILES: COC(=O)C1=CO[C@@H](OC2O[C@H](CO)[C@@H](O)[C@H](O)[C@H]2O)[C@@H]2C(CO)=CC[C@H]12
InChI: InChI=1S/C17H24O10/c1-24-15(23)9-6-25-16(11-7(4-18)2-3-8(9)11)27-17-14(22)13(21)12(20)10(5-19)26-17/h2,6,8,10-14,16-22H,3-5H2,1H3/t8-,10-,11-,12-,13+,14-,16+,17?/m1/s1
Instrument: Agilent 6410 Triple Quadrupole LC/MS system
Instrument type: LC-ESI-QQQ
Ms type: MS2
Ion mode: NEGATIVE
Precursor type: [M+HCOO]-
m/z	relative intensity
100.0	0
100.1	2
100.2	5
100.3	8
100.4	10
100.5	13
100.6	17
100.7	27
100.8	46
100.9	73
101.0	96
101.1	99
101.2	80
101.3	50
101.4	24
101.5	8
101.6	0
122.2	0
122.3	1
122.4	5
122.5	15
122.6	31
122.7	48
122.8	64
122.9	78
123.0	90
123.1	92
123.2	76
123.3	47
123.4	17
123.5	1
146.5	1
146.6	3
146.7	5
146.8	7
146.9	8
147.0	6
147.1	3
206.5	2
206.6	4
206.7	10
206.8	20
206.9	31
207.0	38
207.1	35
207.2	24
207.3	11
207.4	4
