Mass spectrum: 2-Deoxycrustecdysone; LC-ESI-QQQ; MS2; Frag=135.0V CID@15.0; [M+HCOO]-
Name: 2-Deoxycrustecdysone
Class: Steroids
Formula: C27H44O6
Exact mass: 464.6481
SMILES: CC(C)(O)CC[C@@H](O)[C@](C)(O)C1CC[C@@]2(O)C3=CC(=O)[C@@H]4C[C@@H](O)CC[C@]4(C)C3CC[C@]12C
InChI: InChI=1S/C27H44O6/c1-23(2,31)10-9-22(30)26(5,32)21-8-13-27(33)18-15-20(29)19-14-16(28)6-11-24(19,3)17(18)7-12-25(21,27)4/h15-17,19,21-22,28,30-33H,6-14H2,1-5H3/t16-,17?,19-,21?,22+,24+,25+,26+,27+/m0/s1
Instrument: Agilent 6410 Triple Quadrupole LC/MS system
Instrument type: LC-ESI-QQQ
Ms type: MS2
Ion mode: NEGATIVE
Precursor type: [M+HCOO]-
m/z	relative intensity
158.5	1
158.6	3
158.7	7
158.8	16
158.9	25
159.0	30
159.1	29
159.2	24
159.3	16
159.4	7
159.5	1
302.4	1
302.5	2
302.6	5
302.7	7
302.8	11
302.9	15
303.0	18
303.1	18
303.2	14
303.3	8
303.4	3
462.4	0
462.5	3
462.6	9
462.7	17
462.8	27
462.9	42
463.0	65
463.1	85
463.2	96
463.3	99
463.4	99
463.5	90
463.6	66
463.7	33
463.8	7
463.9	0
508.7	1
508.8	2
508.9	4
509.0	5
509.1	6
509.2	6
509.3	7
509.4	7
509.5	6
509.6	4
509.7	1
