Mass spectrum: Convolicine; LC-ESI-QQQ; MS2; Frag=135.0V CID@15.0; [M+H]+
Name: Convolicine
Class: Alkaloids
Formula: C18H23NO5
Exact mass: 333.3877
SMILES: COc1ccc(C(=O)OC2CC3CCC(C2)N3C(C)=O)cc1OC
InChI: InChI=1S/C18H23NO5/c1-11(20)19-13-5-6-14(19)10-15(9-13)24-18(21)12-4-7-16(22-2)17(8-12)23-3/h4,7-8,13-15H,5-6,9-10H2,1-3H3
Instrument: Agilent 6410 Triple Quadrupole LC/MS system
Instrument type: LC-ESI-QQQ
Ms type: MS2
Ion mode: POSITIVE
Precursor type: [M+H]+
m/z	relative intensity
59.7	2
59.8	3
59.9	4
60.0	5
60.1	5
60.2	5
60.3	4
60.4	3
92.6	1
92.7	2
92.8	4
92.9	6
93.0	7
93.1	8
93.2	8
93.3	7
93.4	4
93.5	2
109.3	0
109.4	2
109.5	8
109.6	17
109.7	32
109.8	52
109.9	72
110.0	88
110.1	94
110.2	91
110.3	79
110.4	60
110.5	36
110.6	14
110.7	1
151.3	1
151.4	3
151.5	8
151.6	16
151.7	30
151.8	49
151.9	71
152.0	89
152.1	98
152.2	99
152.3	93
152.4	76
152.5	51
152.6	23
152.7	3
