Mass spectrum: Hupehemonoside; LC-ESI-QQQ; MS2; Frag=135.0V CID@5.0; [M+H]+
Name: Hupehemonoside
Class: Alkaloids
Formula: C33H53NO8
Exact mass: 591.7923
SMILES: C[C@H]1CC[C@@H]2N(CC3[C@@H]4C[C@H]5C(CC(=O)[C@H]6CC(OC7O[C@H](CO)[C@@H](O)[C@H](O)[C@H]7O)CC[C@@]65C)[C@@H]4CC[C@H]3[C@]2(C)O)C1
InChI: InChI=1S/C33H53NO8/c1-16-4-7-27-33(3,40)22-6-5-18-19(21(22)14-34(27)13-16)11-23-20(18)12-25(36)24-10-17(8-9-32(23,24)2)41-31-30(39)29(38)28(37)26(15-35)42-31/h16-24,26-31,35,37-40H,4-15H2,1-3H3/t16-,17?,18+,19+,20?,21?,22+,23-,24+,26+,27-,28+,29-,30+,31?,32+,33-/m0/s1
Instrument: Agilent 6410 Triple Quadrupole LC/MS system
Instrument type: LC-ESI-QQQ
Ms type: MS2
Ion mode: POSITIVE
Precursor type: [M+H]+
m/z	relative intensity
591.4	0
591.5	1
591.6	4
591.7	9
591.8	17
591.9	27
592.0	41
592.1	59
592.2	78
592.3	93
592.4	99
592.5	94
592.6	75
592.7	48
592.8	21
592.9	3
