Mass spectrum: physostigmine; LC-ESI-QQQ; MS2; Frag=135.0V CID@15.0; [M+H]+
Name: Physostigmine
Name: Physostol
Name: Antilirium
Name: Esromiotin
Name: Ezerin
Name: Calabarine
Name: Fysostigmin
Name: ((3aS,8aR)-1,8,3a-trimethylpyrrolidino(2,3-b)indolin-5-yloxy)-N-methylcarboxamide / Eserine
Name: Cogmine
Name: physostigmine
Class: Alkaloids
Formula: C15H21N3O2
Exact mass: 275.3535
SMILES: CN=C(O)Oc1ccc2c(c1)[C@]1(C)CCN(C)[C@@H]1N2C
InChI: InChI=1S/C15H21N3O2/c1-15-7-8-17(3)13(15)18(4)12-6-5-10(9-11(12)15)20-14(19)16-2/h5-6,9,13H,7-8H2,1-4H3,(H,16,19)/t13-,15+/m1/s1
Instrument: Agilent 6410 Triple Quadrupole LC/MS system
Instrument type: LC-ESI-QQQ
Ms type: MS2
Ion mode: POSITIVE
Precursor type: [M+H]+
m/z	relative intensity
161.3	1
161.4	3
161.5	7
161.6	16
161.7	32
161.8	52
161.9	73
162.0	90
162.1	99
162.2	99
162.3	90
162.4	69
162.5	41
162.6	15
162.7	0
175.5	1
175.6	3
175.7	6
175.8	9
175.9	13
176.0	16
176.1	18
176.2	18
176.3	17
176.4	13
176.5	8
176.6	3
187.7	2
187.8	3
187.9	4
188.0	5
188.1	6
188.2	6
188.3	5
188.4	4
188.5	3
218.5	1
218.6	3
218.7	5
218.8	8
218.9	12
219.0	16
219.1	18
219.2	18
219.3	17
219.4	13
219.5	8
219.6	3
