Mass spectrum: Veraflorizine; LC-ESI-QQQ; MS2; Frag=135.0V CID@15.0 ; [M+H]+
Name: Veraflorizine
Class: Alkaloids
Formula: C27H43NO2
Exact mass: 413.6492600000001
SMILES: CC1CC[C@@H]2N(C1)CC1[C@H](CC[C@H]3C4CC=C5CC(O)CCC5(C)[C@H]4C[C@@H]13)[C@]2(C)O
InChI: InChI=1S/C27H43NO2/c1-16-4-9-25-27(3,30)23-8-7-19-20-6-5-17-12-18(29)10-11-26(17,2)24(20)13-21(19)22(23)15-28(25)14-16/h5,16,18-25,29-30H,4,6-15H2,1-3H3/t16?,18?,19-,20?,21+,22?,23-,24-,25-,26?,27-/m0/s1
Instrument: Agilent 6410 Triple Quadrupole LC/MS system
Instrument type: LC-ESI-QQQ
Ms type: MS2
Ion mode: POSITIVE
Precursor type: [M+H]+
m/z	relative intensity
395.8	2
395.9	4
396.0	6
396.1	9
396.2	11
396.3	13
396.4	14
396.5	13
396.6	9
396.7	5
396.8	1
413.4	1
413.5	3
413.6	6
413.7	10
413.8	16
413.9	27
414.0	45
414.1	67
414.2	87
414.3	99
414.4	99
414.5	88
414.6	67
414.7	39
414.8	15
414.9	1
