Mass spectrum: Dehydroabietic acid; LC-ESI-QQQ; MS2; Frag=135.0V CID@5.0; [M+H]+
Name: Dehydroabietic acid
Class: Terpenoids
Formula: C20H28O2
Exact mass: 300.445
SMILES: CC(C)c1ccc2c(c1)CCC1[C@]2(C)CCC[C@@]1(C)C(=O)O
InChI: InChI=1S/C20H28O2/c1-13(2)14-6-8-16-15(12-14)7-9-17-19(16,3)10-5-11-20(17,4)18(21)22/h6,8,12-13,17H,5,7,9-11H2,1-4H3,(H,21,22)/t17?,19-,20-/m1/s1
Instrument: Agilent 6410 Triple Quadrupole LC/MS system
Instrument type: LC-ESI-QQQ
Ms type: MS2
Ion mode: POSITIVE
Precursor type: [M+H]+
m/z	relative intensity
132.4	2
132.5	4
132.6	6
132.7	7
132.8	8
132.9	8
133.0	6
158.5	0
158.6	2
158.7	6
158.8	11
158.9	15
159.0	16
159.1	15
159.2	13
159.3	11
159.4	7
159.5	2
172.3	0
172.4	3
172.5	7
172.6	12
172.7	20
172.8	35
172.9	55
173.0	70
173.1	75
173.2	70
173.3	59
173.4	43
173.5	24
173.6	8
173.7	1
254.3	1
254.4	3
254.5	6
254.6	9
254.7	11
254.8	13
254.9	18
255.0	24
255.1	31
255.2	35
255.3	34
255.4	26
255.5	12
255.6	2
300.3	1
300.4	3
300.5	5
300.6	8
300.7	15
300.8	29
300.9	52
301.0	76
301.1	93
301.2	99
301.3	96
301.4	80
301.5	52
301.6	20
301.7	0
