Mass spectrum: Erythromycin propionate; LC-ESI-QQQ; MS2; Frag=135.0V CID@5.0 ; [M+H]+
Name: Erythromycin propionate
Class: Polyketides
Formula: C40H71NO14
Exact mass: 790.01017
SMILES: CCC(=O)OC1C(O[C@@H]2C(C)[C@H](OC3CC(C)(OC)[C@H](O)[C@@H](C)O3)[C@@H](C)C(=O)OC(CC)[C@@](C)(O)[C@H](O)[C@@H](C)C(=O)[C@H](C)C[C@]2(C)O)OC(C)CC1N(C)C
InChI: InChI=1S/C40H71NO14/c1-15-27-40(11,48)33(44)22(5)30(43)20(3)18-38(9,47)35(55-37-32(53-28(42)16-2)26(41(12)13)17-21(4)50-37)23(6)31(24(7)36(46)52-27)54-29-19-39(10,49-14)34(45)25(8)51-29/h20-27,29,31-35,37,44-45,47-48H,15-19H2,1-14H3/t20-,21?,22+,23?,24-,25-,26?,27?,29?,31+,32?,33-,34-,35-,37?,38+,39?,40-/m1/s1
Instrument: Agilent 6410 Triple Quadrupole LC/MS system
Instrument type: LC-ESI-QQQ
Ms type: MS2
Ion mode: POSITIVE
Precursor type: [M+H]+
m/z	relative intensity
789.0	1
789.1	2
789.2	4
789.3	7
789.4	11
789.5	15
789.6	18
789.7	23
789.8	29
789.9	40
790.0	54
790.1	71
790.2	88
790.3	99
790.4	98
790.5	78
790.6	45
790.7	15
790.8	0
