Mass spectrum: 1,4,6-Trihydroxy-11(13)-eudesmen-12,8-olide 6-Tigloyl; LC-ESI-QQQ; MS2; Frag=135.0V CID@25.0; [M+H]+
Name: 1,4,6-Trihydroxy-11(13)-eudesmen-12,8-olide 6-Tigloyl
Class: Terpenoids
Formula: C20H28O6
Exact mass: 364.4426
SMILES: C=C1C(=O)O[C@H]2CC3(C)C(O)CCC(C)(O)C3[C@@H](OC(=O)/C(C)=C/C)C12
InChI: InChI=1S/C20H28O6/c1-6-10(2)17(22)26-15-14-11(3)18(23)25-12(14)9-19(4)13(21)7-8-20(5,24)16(15)19/h6,12-16,21,24H,3,7-9H2,1-2,4-5H3/b10-6+/t12-,13?,14?,15-,16?,19?,20?/m0/s1
Instrument: Agilent 6410 Triple Quadrupole LC/MS system
Instrument type: LC-ESI-QQQ
Ms type: MS2
Ion mode: POSITIVE
Precursor type: [M+H]+
m/z	relative intensity
54.6	4
54.7	7
54.8	13
54.9	18
55.0	19
55.1	14
55.2	8
55.3	3
80.4	1
80.5	3
80.6	5
80.7	6
80.8	5
80.9	4
81.0	3
81.1	4
81.2	5
81.3	6
81.4	5
81.5	2
82.3	1
82.4	4
82.5	8
82.6	14
82.7	18
82.8	19
82.9	19
83.0	20
83.1	22
83.2	22
83.3	18
83.4	11
83.5	4
92.8	2
92.9	4
93.0	6
93.1	7
93.2	5
93.3	3
104.8	4
104.9	6
105.0	8
105.1	9
105.2	7
105.3	4
105.4	2
106.7	2
106.8	4
106.9	7
107.0	9
107.1	11
107.2	10
107.3	7
107.4	3
108.6	2
108.7	4
108.8	6
108.9	6
109.0	5
109.1	2
116.5	0
116.6	2
116.7	5
116.8	8
116.9	10
117.0	11
117.1	11
117.2	10
117.3	7
117.4	3
118.7	5
118.8	6
118.9	9
119.0	13
119.1	15
119.2	14
119.3	10
119.4	5
119.5	1
130.4	0
130.5	2
130.6	6
130.7	10
130.8	13
130.9	14
131.0	15
131.1	16
131.2	14
131.3	10
131.4	5
131.5	1
140.5	2
140.6	4
140.7	6
140.8	7
140.9	7
141.0	5
141.1	3
142.3	2
142.4	3
142.5	6
142.6	11
142.7	15
142.8	19
142.9	24
143.0	29
143.1	30
143.2	25
143.3	15
143.4	5
144.7	2
144.8	5
144.9	10
145.0	15
145.1	18
145.2	16
145.3	11
145.4	6
145.5	3
146.6	2
146.7	4
146.8	6
146.9	7
147.0	7
147.1	7
147.2	5
147.3	3
154.6	1
154.7	3
154.8	6
154.9	9
155.0	9
155.1	8
155.2	5
156.5	2
156.6	3
156.7	6
156.8	9
156.9	14
157.0	20
157.1	25
157.2	25
157.3	21
157.4	15
157.5	10
157.6	5
157.7	3
158.2	1
158.3	3
158.4	6
158.5	12
158.6	20
158.7	30
158.8	44
158.9	60
159.0	77
159.1	89
159.2	89
159.3	75
159.4	49
159.5	22
159.6	3
167.5	5
167.6	6
167.7	8
167.8	12
167.9	16
168.0	19
168.1	18
168.2	13
168.3	8
168.4	3
172.5	0
172.6	2
172.7	7
172.8	14
172.9	24
173.0	32
173.1	34
173.2	30
173.3	21
173.4	11
173.5	3
174.9	2
175.0	5
175.1	7
175.2	7
175.3	5
175.4	2
182.2	1
182.3	3
182.4	5
182.5	8
182.6	14
182.7	27
182.8	49
182.9	75
183.0	93
183.1	99
183.2	99
183.3	91
183.4	70
183.5	39
183.6	11
183.7	0
186.6	3
186.7	4
186.8	6
186.9	11
187.0	18
187.1	22
187.2	20
187.3	11
187.4	4
200.2	1
200.3	3
200.4	6
200.5	9
200.6	11
200.7	14
200.8	21
200.9	30
201.0	40
201.1	47
201.2	51
201.3	49
201.4	39
201.5	24
201.6	8
201.7	0
210.6	2
210.7	4
210.8	6
210.9	7
211.0	7
211.1	7
211.2	6
211.3	4
211.4	2
218.5	0
218.6	3
218.7	7
218.8	12
218.9	13
219.0	11
219.1	8
228.4	0
228.5	3
228.6	6
228.7	9
228.8	14
228.9	20
229.0	26
229.1	28
229.2	25
229.3	19
229.4	12
229.5	5
229.6	1
246.6	2
246.7	4
246.8	8
246.9	11
247.0	12
247.1	12
247.2	10
247.3	7
247.4	3
