Mass spectrum: Yuccagenin; LC-ESI-QQQ; MS2; Frag=135.0V CID@25.0 ; [M+H]+
Name: Yuccagenin
Class: Steroids
Formula: C27H42O4
Exact mass: 430.63339
SMILES: CC1CC[C@@]2(OC1)OC1CC3C4CC=C5CC(O)[C@H](O)C[C@]5(C)C4CC[C@]3(C)C1[C@@H]2C
InChI: InChI=1S/C27H42O4/c1-15-7-10-27(30-14-15)16(2)24-23(31-27)12-20-18-6-5-17-11-21(28)22(29)13-26(17,4)19(18)8-9-25(20,24)3/h5,15-16,18-24,28-29H,6-14H2,1-4H3/t15?,16-,18?,19?,20?,21?,22+,23?,24?,25-,26-,27+/m0/s1
Instrument: Agilent 6410 Triple Quadrupole LC/MS system
Instrument type: LC-ESI-QQQ
Ms type: MS2
Ion mode: POSITIVE
Precursor type: [M+H]+
m/z	relative intensity
68.3	1
68.4	3
68.5	5
68.6	8
68.7	12
68.8	17
68.9	24
69.0	30
69.1	32
69.2	31
69.3	25
69.4	16
69.5	7
69.6	0
72.7	1
72.8	2
72.9	4
73.0	5
73.1	5
73.2	4
73.3	3
96.6	3
96.7	4
96.8	6
96.9	7
97.0	9
97.1	8
97.2	6
97.3	3
106.6	1
106.7	2
106.8	5
106.9	7
107.0	8
107.1	7
107.2	5
107.3	3
108.5	2
108.6	3
108.7	5
108.8	8
108.9	10
109.0	13
109.1	13
109.2	12
109.3	8
109.4	3
114.7	2
114.8	3
114.9	5
115.0	6
115.1	6
115.2	5
115.3	3
120.3	1
120.4	2
120.5	4
120.6	7
120.7	11
120.8	16
120.9	21
121.0	24
121.1	24
121.2	22
121.3	18
121.4	13
121.5	6
121.6	1
142.6	1
142.7	3
142.8	5
142.9	6
143.0	6
143.1	6
143.2	5
143.3	3
144.6	3
144.7	4
144.8	6
144.9	7
145.0	8
145.1	8
145.2	7
145.3	5
145.4	2
146.5	1
146.6	2
146.7	4
146.8	7
146.9	9
147.0	11
147.1	12
147.2	13
147.3	13
147.4	10
147.5	5
147.6	0
154.5	0
154.6	2
154.7	5
154.8	9
154.9	11
155.0	13
155.1	12
155.2	10
155.3	7
155.4	4
155.5	2
158.6	1
158.7	3
158.8	5
158.9	7
159.0	8
159.1	9
159.2	9
159.3	7
159.4	4
159.5	1
166.7	1
166.8	3
166.9	4
167.0	5
167.1	5
167.2	4
167.3	3
172.2	1
172.3	3
172.4	5
172.5	7
172.6	9
172.7	12
172.8	18
172.9	27
173.0	35
173.1	42
173.2	46
173.3	43
173.4	32
173.5	16
173.6	3
190.6	2
190.7	5
190.8	8
190.9	12
191.0	16
191.1	18
191.2	18
191.3	15
191.4	9
191.5	4
212.8	2
212.9	4
213.0	6
213.1	7
213.2	5
213.3	3
250.6	1
250.7	3
250.8	7
250.9	10
251.0	12
251.1	12
251.2	12
251.3	12
251.4	11
251.5	8
251.6	4
268.6	3
268.7	5
268.8	9
268.9	15
269.0	21
269.1	26
269.2	28
269.3	26
269.4	20
269.5	10
269.6	3
286.3	1
286.4	2
286.5	5
286.6	8
286.7	15
286.8	30
286.9	53
287.0	76
287.1	92
287.2	99
287.3	99
287.4	91
287.5	70
287.6	39
287.7	11
287.8	0
