Mass spectrum: Strophanthidinic acid; LC-ESI-QQQ; MS2; Frag=135.0V CID@5.0 ; [M+H]+
Name: Strophanthidinic acid
Class: Steroids
Formula: C23H32O7
Exact mass: 420.50729
SMILES: C[C@]12CCC3C(CCC4(O)CC(O)CC[C@]34C(=O)O)C1(O)CCC2C1=CC(=O)OC1
InChI: InChI=1S/C23H32O7/c1-20-6-3-16-17(23(20,29)9-5-15(20)13-10-18(25)30-12-13)4-7-21(28)11-14(24)2-8-22(16,21)19(26)27/h10,14-17,24,28-29H,2-9,11-12H2,1H3,(H,26,27)/t14?,15?,16?,17?,20-,21?,22-,23?/m1/s1
Instrument: Agilent 6410 Triple Quadrupole LC/MS system
Instrument type: LC-ESI-QQQ
Ms type: MS2
Ion mode: POSITIVE
Precursor type: [M+H]+
m/z	relative intensity
320.5	1
320.6	2
320.7	4
320.8	6
320.9	8
321.0	9
321.1	10
321.2	12
321.3	13
321.4	11
321.5	7
321.6	2
338.3	1
338.4	2
338.5	4
338.6	6
338.7	11
338.8	21
338.9	35
339.0	49
339.1	59
339.2	63
339.3	60
339.4	48
339.5	31
339.6	14
339.7	2
340.6	0
340.7	1
340.8	4
340.9	8
341.0	12
341.1	15
341.2	17
341.3	15
341.4	11
341.5	5
341.6	1
348.5	1
348.6	2
348.7	4
348.8	6
348.9	8
349.0	10
349.1	13
349.2	16
349.3	17
349.4	13
349.5	7
349.6	1
356.4	1
356.5	2
356.6	5
356.7	8
356.8	13
356.9	19
357.0	26
357.1	31
357.2	34
357.3	32
357.4	25
357.5	15
357.6	5
357.7	0
366.3	0
366.4	2
366.5	7
366.6	13
366.7	21
366.8	32
366.9	46
367.0	63
367.1	78
367.2	87
367.3	85
367.4	68
367.5	41
367.6	15
367.7	0
384.2	0
384.3	1
384.4	4
384.5	7
384.6	10
384.7	16
384.8	29
384.9	49
385.0	71
385.1	89
385.2	99
385.3	99
385.4	87
385.5	63
385.6	33
385.7	8
385.8	0
402.3	0
402.4	2
402.5	4
402.6	7
402.7	12
402.8	21
402.9	32
403.0	45
403.1	56
403.2	62
403.3	61
403.4	51
403.5	34
403.6	14
403.7	2
420.4	1
420.5	2
420.6	5
420.7	10
420.8	18
420.9	30
421.0	44
421.1	57
421.2	64
421.3	61
421.4	50
421.5	32
421.6	15
421.7	3
