Mass spectrum: Bovoside A; LC-ESI-QQQ; MS2;  Frag=135.0V CID@25.0 ; [M+HOO]-
Name: Bovoside A
Class: Steroids
Formula: C31H44O9
Exact mass: 560.69093
SMILES: COC1C(O)C(C)OC(OC2CC[C@]3(C=O)C4CC[C@]5(C)C(c6ccc(=O)oc6)CCC5(O)C4CC[C@H]3C2)C1O
InChI: InChI=1S/C31H44O9/c1-17-25(34)27(37-3)26(35)28(39-17)40-20-8-12-30(16-32)19(14-20)5-6-23-22(30)9-11-29(2)21(10-13-31(23,29)36)18-4-7-24(33)38-15-18/h4,7,15-17,19-23,25-28,34-36H,5-6,8-14H2,1-3H3/t17?,19-,20?,21?,22?,23?,25?,26?,27?,28?,29+,30+,31?/m0/s1
Instrument: Agilent 6410 Triple Quadrupole LC/MS system
Instrument type: LC-ESI-QQQ
Ms type: MS2
Ion mode: NEGATIVE
Precursor type: [M+HOO]-
m/z	relative intensity
558.8	1
558.9	8
559.0	33
559.1	69
559.2	93
559.3	93
559.4	88
559.5	88
559.6	80
559.7	50
559.8	15
559.9	0
