Mass spectrum: Alloside B; LC-ESI-QQQ; MS2;  Frag=135.0V CID@5.0 ; [M+HCOO]-
Name: Alloside B
Class: Steroids
Formula: C39H66O14
Exact mass: 758.95247
SMILES: CC(C)CCC(O)[C@@H](C)C1C(O[C@@H]2OC(CO)[C@@H](O)C(O)C2O)CC2C3CC=C4C[C@@H](O)CC(O[C@@H]5OC(CO)[C@@H](O)C(O)C5O)[C@]4(C)C3CC[C@@]21C
InChI: InChI=1S/C39H66O14/c1-17(2)6-9-24(43)18(3)29-25(50-36-34(48)32(46)30(44)26(15-40)51-36)14-23-21-8-7-19-12-20(42)13-28(39(19,5)22(21)10-11-38(23,29)4)53-37-35(49)33(47)31(45)27(16-41)52-37/h7,17-18,20-37,40-49H,6,8-16H2,1-5H3/t18-,20-,21?,22?,23?,24?,25?,26?,27?,28?,29?,30-,31-,32?,33?,34?,35?,36-,37+,38+,39+/m1/s1
Instrument: Agilent 6410 Triple Quadrupole LC/MS system
Instrument type: LC-ESI-QQQ
Ms type: MS2
Ion mode: NEGATIVE
Precursor type: [M+HCOO]-
m/z	relative intensity
757.1	2
757.2	3
757.3	4
757.4	4
757.5	4
757.6	2
757.7	1
802.0	1
802.1	2
802.2	2
802.3	3
802.4	5
802.5	10
802.6	19
802.7	31
802.8	44
802.9	56
803.0	67
803.1	78
803.2	88
803.3	96
803.4	99
803.5	97
803.6	82
803.7	55
803.8	25
803.9	4
804.0	0
