Mass spectrum: 3-Hydroxy-12-ursen-28-oic acid; LC-ESI-QQQ; MS2; Frag=135.0V CID@15.0; [M+Na]+
Name: 3-Hydroxy-12-ursen-28-oic acid
Class: Terpenoids
Formula: C30H48O3
Exact mass: 456.7153
SMILES: C[C@@H]1C2C3=CC[C@@H]4[C@@]5(C)CCC(O)C(C)(C)[C@@H]5CC[C@@]4(C)[C@]3(C)CCC2(C(=O)O)CC[C@H]1C
InChI: InChI=1S/C30H48O3/c1-18-10-15-30(25(32)33)17-16-28(6)20(24(30)19(18)2)8-9-22-27(5)13-12-23(31)26(3,4)21(27)11-14-29(22,28)7/h8,18-19,21-24,31H,9-17H2,1-7H3,(H,32,33)/t18-,19+,21+,22-,23?,24?,27+,28-,29-,30?/m1/s1
Instrument: Agilent 6410 Triple Quadrupole LC/MS system
Instrument type: LC-ESI-QQQ
Ms type: MS2
Ion mode: POSITIVE
Precursor type: [M+Na]+
m/z	relative intensity
478.6	5
478.7	7
478.8	10
478.9	12
479.0	14
479.1	24
479.2	49
479.3	82
479.4	98
479.5	79
479.6	40
479.7	9
