Mass spectrum: Scopolamine; LC-ESI-QQQ; MS2; Frag=135.0V CID@5.0; [M+H]+
Name: Scopolamine
Class: Alkaloids
Formula: C17H21NO4
Exact mass: 303.3612
SMILES: CN1C2CC(OC(=O)C(CO)c3ccccc3)CC1[C@H]1OC21
InChI: InChI=1S/C17H21NO4/c1-18-13-7-11(8-14(18)16-15(13)22-16)21-17(20)12(9-19)10-5-3-2-4-6-10/h2-6,11-16,19H,7-9H2,1H3/t11?,12?,13?,14?,15-,16?/m1/s1
Instrument: Agilent 6410 Triple Quadrupole LC/MS system
Instrument type: LC-ESI-QQQ
Ms type: MS2
Ion mode: POSITIVE
Precursor type: [M+H]+
m/z	relative intensity
137.5	1
137.6	3
137.7	5
137.8	9
137.9	14
138.0	17
138.1	18
138.2	17
138.3	14
138.4	10
138.5	6
138.6	2
155.5	2
155.6	3
155.7	6
155.8	11
155.9	17
156.0	21
156.1	22
156.2	22
156.3	19
156.4	15
156.5	8
156.6	3
303.3	1
303.4	3
303.5	6
303.6	10
303.7	18
303.8	33
303.9	55
304.0	78
304.1	94
304.2	99
304.3	92
304.4	73
304.5	46
304.6	19
304.7	2
