Mass spectrum: Heliotrine; LC-ESI-QQQ; MS2; Frag=135.0V CID@5.0; [M+H]+
Name: Heliotrine
Class: Alkaloids
Formula: C16H27NO5
Exact mass: 313.3973
SMILES: COC(C)C(O)(C(=O)OCC1=CCN2CCC(O)[C@@H]12)C(C)C
InChI: InChI=1S/C16H27NO5/c1-10(2)16(20,11(3)21-4)15(19)22-9-12-5-7-17-8-6-13(18)14(12)17/h5,10-11,13-14,18,20H,6-9H2,1-4H3/t11?,13?,14-,16?/m1/s1
Instrument: Agilent 6410 Triple Quadrupole LC/MS system
Instrument type: LC-ESI-QQQ
Ms type: MS2
Ion mode: POSITIVE
Precursor type: [M+H]+
m/z	relative intensity
137.6	1
137.7	3
137.8	5
137.9	7
138.0	9
138.1	9
138.2	9
138.3	8
138.4	6
138.5	3
313.4	0
313.5	2
313.6	6
313.7	13
313.8	25
313.9	43
314.0	65
314.1	85
314.2	97
314.3	99
314.4	90
314.5	67
314.6	38
314.7	11
314.8	0
