Mass spectrum: Tavicone; LC-ESI-QQQ; MS2; Frag=135.0V CID@10.0; [M+H]+
Name: Tavicone
Class: Benzopyranoids
Formula: C23H26O4
Exact mass: 366.4613
SMILES: CC1=CCC2C(C)(C)C(=O)CC2(C)C1COc1ccc2ccc(=O)oc2c1
InChI: InChI=1S/C23H26O4/c1-14-5-9-19-22(2,3)20(24)12-23(19,4)17(14)13-26-16-8-6-15-7-10-21(25)27-18(15)11-16/h5-8,10-11,17,19H,9,12-13H2,1-4H3
Instrument: Agilent 6410 Triple Quadrupole LC/MS system
Instrument type: LC-ESI-QQQ
Ms type: MS2
Ion mode: POSITIVE
Precursor type: [M+H]+
m/z	relative intensity
162.4	1
162.5	2
162.6	5
162.7	9
162.8	16
162.9	23
163.0	27
163.1	27
163.2	24
163.3	19
163.4	12
163.5	5
163.6	0
186.5	2
186.6	3
186.7	5
186.8	9
186.9	16
187.0	22
187.1	27
187.2	29
187.3	27
187.4	22
187.5	15
187.6	7
187.7	2
366.2	0
366.3	1
366.4	3
366.5	6
366.6	10
366.7	16
366.8	28
366.9	46
367.0	69
367.1	89
367.2	99
367.3	97
367.4	80
367.5	53
367.6	24
367.7	4
