Mass spectrum: Nivalidine; LC-ESI-QQQ; MS2; Frag=135.0V CID@10.0; [M+H]+
Name: Nivalidine
Class: Alkaloids
Formula: C17H19NO2
Exact mass: 269.3465
SMILES: COc1ccc2c(c1O)-c1ccccc1CCN(C)C2
InChI: InChI=1S/C17H19NO2/c1-18-10-9-12-5-3-4-6-14(12)16-13(11-18)7-8-15(20-2)17(16)19/h3-8,19H,9-11H2,1-2H3
Instrument: Agilent 6410 Triple Quadrupole LC/MS system
Instrument type: LC-ESI-QQQ
Ms type: MS2
Ion mode: POSITIVE
Precursor type: [M+H]+
m/z	relative intensity
178.5	2
178.6	3
178.7	5
178.8	8
178.9	12
179.0	16
179.1	17
179.2	17
179.3	16
179.4	12
179.5	7
179.6	3
206.7	2
206.8	4
206.9	6
207.0	8
207.1	8
207.2	8
207.3	7
207.4	5
207.5	3
208.7	2
208.8	3
208.9	5
209.0	6
209.1	7
209.2	7
209.3	6
209.4	5
209.5	3
210.7	2
210.8	3
210.9	5
211.0	7
211.1	9
211.2	9
211.3	8
211.4	6
211.5	3
219.7	2
219.8	3
219.9	4
220.0	6
220.1	7
220.2	7
220.3	6
220.4	5
220.5	3
238.4	1
238.5	3
238.6	5
238.7	9
238.8	15
238.9	22
239.0	29
239.1	33
239.2	34
239.3	31
239.4	24
239.5	14
239.6	5
239.7	0
269.3	1
269.4	3
269.5	7
269.6	11
269.7	18
269.8	33
269.9	54
270.0	77
270.1	94
270.2	99
270.3	94
270.4	78
270.5	52
270.6	24
270.7	4
