Mass spectrum: Lasiocarpine; LC-ESI-QQQ; MS2; Frag=135.0V CID@10.0; [M+H]+
Name: Lasiocarpine
Class: Alkaloids
Formula: C21H33NO7
Exact mass: 411.4997
SMILES: C/C=C(/C)C(=O)O[C@H]1CCN2CC=C(COC(=O)C(O)(C(C)OC)C(C)(C)O)[C@H]12
InChI: InChI=1S/C21H33NO7/c1-7-13(2)18(23)29-16-9-11-22-10-8-15(17(16)22)12-28-19(24)21(26,14(3)27-6)20(4,5)25/h7-8,14,16-17,25-26H,9-12H2,1-6H3/b13-7-/t14?,16-,17+,21?/m0/s1
Instrument: Agilent 6410 Triple Quadrupole LC/MS system
Instrument type: LC-ESI-QQQ
Ms type: MS2
Ion mode: POSITIVE
Precursor type: [M+H]+
m/z	relative intensity
119.4	0
119.5	2
119.6	4
119.7	6
119.8	9
119.9	13
120.0	16
120.1	17
120.2	16
120.3	14
120.4	10
120.5	6
120.6	2
219.5	1
219.6	3
219.7	7
219.8	12
219.9	18
220.0	23
220.1	26
220.2	26
220.3	24
220.4	19
220.5	12
220.6	5
220.7	0
335.5	1
335.6	2
335.7	4
335.8	8
335.9	13
336.0	20
336.1	25
336.2	27
336.3	25
336.4	20
336.5	13
336.6	5
336.7	0
411.3	0
411.4	2
411.5	5
411.6	9
411.7	17
411.8	32
411.9	52
412.0	73
412.1	90
412.2	99
412.3	99
412.4	90
412.5	70
412.6	43
412.7	17
412.8	1
