Mass spectrum: Ursinoic acid; LC-ESI-QQQ; MS2; Frag=135.0V CID@15.0; [M+H]+
Name: Ursinoic acid
Class: Terpenoids
Formula: C15H16O5
Exact mass: 276.2918
SMILES: COc1ccc(C(=O)CC(=O)O)c2c1C=CC(C)(C)O2
InChI: InChI=1S/C15H16O5/c1-15(2)7-6-10-12(19-3)5-4-9(14(10)20-15)11(16)8-13(17)18/h4-7H,8H2,1-3H3,(H,17,18)
Instrument: Agilent 6410 Triple Quadrupole LC/MS system
Instrument type: LC-ESI-QQQ
Ms type: MS2
Ion mode: POSITIVE
Precursor type: [M+H]+
m/z	relative intensity
176.6	2
176.7	4
176.8	7
176.9	10
177.0	13
177.1	14
177.2	13
177.3	12
177.4	9
177.5	5
177.6	1
202.2	0
202.3	1
202.4	4
202.5	9
202.6	18
202.7	34
202.8	56
202.9	80
203.0	96
203.1	99
203.2	90
203.3	69
203.4	42
203.5	16
203.6	2
276.3	1
276.4	2
276.5	4
276.6	6
276.7	10
276.8	19
276.9	31
277.0	45
277.1	53
277.2	53
277.3	47
277.4	35
277.5	20
277.6	7
277.7	0
