Mass spectrum: Ecdysterone 22-O-benzoate; LC-ESI-QQQ; MS2; Frag=135.0V CID@10.0; [M+H]+
Name: Ecdysterone 22-O-benzoate
Class: Steroids
Formula: C34H48O8
Exact mass: 584.7569
SMILES: CC(C)(O)CC[C@H](OC(=O)c1ccccc1)[C@](C)(O)C1CC[C@@]2(O)C3=CC(=O)C4CC(O)C(O)C[C@]4(C)C3CC[C@]12C
InChI: InChI=1S/C34H48O8/c1-30(2,39)14-13-28(42-29(38)20-9-7-6-8-10-20)33(5,40)27-12-16-34(41)22-17-24(35)23-18-25(36)26(37)19-31(23,3)21(22)11-15-32(27,34)4/h6-10,17,21,23,25-28,36-37,39-41H,11-16,18-19H2,1-5H3/t21?,23?,25?,26?,27?,28-,31+,32+,33+,34+/m0/s1
Instrument: Agilent 6410 Triple Quadrupole LC/MS system
Instrument type: LC-ESI-QQQ
Ms type: MS2
Ion mode: POSITIVE
Precursor type: [M+H]+
m/z	relative intensity
246.5	1
246.6	2
246.7	4
246.8	5
246.9	6
247.0	6
247.1	6
247.2	7
247.3	6
247.4	3
302.6	0
302.7	2
302.8	4
302.9	9
303.0	15
303.1	21
303.2	24
303.3	23
303.4	18
303.5	10
303.6	3
352.7	2
352.8	3
352.9	5
353.0	6
353.1	7
353.2	9
353.3	9
353.4	8
353.5	5
353.6	1
370.6	1
370.7	2
370.8	4
370.9	6
371.0	6
371.1	6
371.2	5
371.3	5
371.4	4
371.5	2
390.9	2
391.0	3
391.1	5
391.2	5
391.3	5
391.4	3
408.6	2
408.7	4
408.8	7
408.9	13
409.0	21
409.1	31
409.2	38
409.3	38
409.4	33
409.5	21
409.6	9
409.7	0
426.5	1
426.6	3
426.7	8
426.8	16
426.9	27
427.0	38
427.1	48
427.2	57
427.3	62
427.4	59
427.5	46
427.6	25
427.7	8
427.8	0
444.5	1
444.6	2
444.7	5
444.8	10
444.9	18
445.0	30
445.1	43
445.2	52
445.3	52
445.4	46
445.5	35
445.6	21
445.7	8
445.8	0
530.8	3
530.9	4
531.0	7
531.1	11
531.2	14
531.3	15
531.4	14
531.5	10
531.6	5
531.7	1
548.5	0
548.6	2
548.7	4
548.8	8
548.9	14
549.0	22
549.1	31
549.2	39
549.3	42
549.4	39
549.5	31
549.6	20
549.7	8
549.8	1
566.4	2
566.5	4
566.6	9
566.7	15
566.8	23
566.9	37
567.0	58
567.1	82
567.2	97
567.3	99
567.4	91
567.5	75
567.6	52
567.7	25
567.8	5
567.9	0
584.5	1
584.6	2
584.7	4
584.8	7
584.9	12
585.0	16
585.1	18
585.2	21
585.3	22
585.4	22
585.5	19
585.6	12
585.7	5
585.8	0
