Mass spectrum: 9(11)-Dehydroglycyrrhetic acid; LC-ESI-QQQ; MS2; Frag=135.0V CID@5.0 ; [M+H]+
Name: 9(11)-Dehydroglycyrrhetic acid
Class: Terpenoids
Formula: C30H46O3
Exact mass: 454.69932000000006
SMILES: CC1(C)C2CC[C@]3(C)C(=CC=C4C5C[C@@](C)(C(=O)O)CC[C@]5(C)CC[C@]43C)[C@@]2(C)CC[C@@H]1O
InChI: InChI=1S/C30H46O3/c1-25(2)21-10-13-30(7)22(28(21,5)12-11-23(25)31)9-8-19-20-18-27(4,24(32)33)15-14-26(20,3)16-17-29(19,30)6/h8-9,20-21,23,31H,10-18H2,1-7H3,(H,32,33)/t20?,21?,23-,26+,27-,28-,29+,30+/m0/s1
Instrument: Agilent 6410 Triple Quadrupole LC/MS system
Instrument type: LC-ESI-QQQ
Ms type: MS2
Ion mode: POSITIVE
Precursor type: [M+H]+
m/z	relative intensity
408.8	1
408.9	3
409.0	6
409.1	8
409.2	9
409.3	10
409.4	13
409.5	13
409.6	9
409.7	4
409.8	0
436.8	2
436.9	4
437.0	7
437.1	10
437.2	13
437.3	16
437.4	16
437.5	12
437.6	6
437.7	1
454.3	1
454.4	3
454.5	5
454.6	8
454.7	10
454.8	15
454.9	27
455.0	47
455.1	72
455.2	91
455.3	99
455.4	97
455.5	85
455.6	61
455.7	32
455.8	8
455.9	0
