Mass spectrum: Poststerone; LC-ESI-QQQ; MS2; Frag=135.0V CID@15.0; [M+H]+
Name: Poststerone
Class: Steroids
Formula: C21H30O5
Exact mass: 362.4703
SMILES: CC(=O)C1CC[C@@]2(O)C3=CC(=O)C4CC(O)C(O)C[C@]4(C)C3CC[C@]12C
InChI: InChI=1S/C21H30O5/c1-11(22)12-5-7-21(26)14-8-16(23)15-9-17(24)18(25)10-19(15,2)13(14)4-6-20(12,21)3/h8,12-13,15,17-18,24-26H,4-7,9-10H2,1-3H3/t12?,13?,15?,17?,18?,19-,20-,21-/m1/s1
Instrument: Agilent 6410 Triple Quadrupole LC/MS system
Instrument type: LC-ESI-QQQ
Ms type: MS2
Ion mode: POSITIVE
Precursor type: [M+H]+
m/z	relative intensity
84.6	2
84.7	3
84.8	6
84.9	11
85.0	15
85.1	15
85.2	13
85.3	9
85.4	5
85.5	2
92.7	0
92.8	2
92.9	4
93.0	5
93.1	5
93.2	4
93.3	2
106.6	1
106.7	2
106.8	4
106.9	5
107.0	5
107.1	5
107.2	4
107.3	3
107.4	2
120.7	2
120.8	3
120.9	5
121.0	5
121.1	5
121.2	4
121.3	2
130.7	2
130.8	3
130.9	5
131.0	7
131.1	8
131.2	7
131.3	6
131.4	3
132.5	1
132.6	3
132.7	6
132.8	8
132.9	9
133.0	8
133.1	7
133.2	5
133.3	3
134.7	1
134.8	2
134.9	4
135.0	4
135.1	4
135.2	3
135.3	2
135.4	1
135.5	0
135.6	0
135.7	0
135.8	0
135.9	0
136.0	0
136.1	0
136.2	0
136.3	0
136.4	0
136.5	0
136.6	1
136.7	2
136.8	3
136.9	4
137.0	5
137.1	4
137.2	3
144.7	2
144.8	3
144.9	6
145.0	8
145.1	9
145.2	7
145.3	5
145.4	3
146.4	0
146.5	1
146.6	4
146.7	7
146.8	9
146.9	11
147.0	12
147.1	13
147.2	15
147.3	15
147.4	13
147.5	8
147.6	3
148.7	1
148.8	3
148.9	4
149.0	5
149.1	5
149.2	4
149.3	2
154.6	1
154.7	3
154.8	4
154.9	5
155.0	5
155.1	5
155.2	5
155.3	4
155.4	2
156.6	1
156.7	2
156.8	4
156.9	5
157.0	5
157.1	5
157.2	5
157.3	5
157.4	5
157.5	3
158.4	0
158.5	2
158.6	3
158.7	6
158.8	10
158.9	14
159.0	16
159.1	16
159.2	14
159.3	13
159.4	10
159.5	6
159.6	2
161.0	4
161.1	7
161.2	11
161.3	13
161.4	10
161.5	5
161.6	1
166.6	1
166.7	2
166.8	5
166.9	10
167.0	14
167.1	17
167.2	17
167.3	15
167.4	11
167.5	6
167.6	2
168.7	1
168.8	2
168.9	4
169.0	6
169.1	8
169.2	9
169.3	8
169.4	5
169.5	2
170.6	1
170.7	3
170.8	6
170.9	9
171.0	10
171.1	11
171.2	10
171.3	10
171.4	9
171.5	6
171.6	3
172.4	1
172.5	2
172.6	5
172.7	8
172.8	14
172.9	22
173.0	31
173.1	38
173.2	39
173.3	34
173.4	23
173.5	11
173.6	1
174.6	1
174.7	3
174.8	5
174.9	6
175.0	6
175.1	6
175.2	5
175.3	5
175.4	5
175.5	3
184.6	1
184.7	2
184.8	4
184.9	5
185.0	5
185.1	5
185.2	4
185.3	3
185.4	3
185.5	2
185.6	1
185.7	0
185.8	0
185.9	0
186.0	0
186.1	0
186.2	0
186.3	0
186.4	0
186.5	1
186.6	4
186.7	9
186.8	17
186.9	26
187.0	35
187.1	42
187.2	45
187.3	43
187.4	35
187.5	21
187.6	7
187.7	0
188.7	2
188.8	4
188.9	6
189.0	7
189.1	6
189.2	5
189.3	5
189.4	4
189.5	2
190.7	1
190.8	3
190.9	6
191.0	8
191.1	10
191.2	10
191.3	10
191.4	7
191.5	4
196.5	1
196.6	3
196.7	5
196.8	8
196.9	10
197.0	12
197.1	13
197.2	13
197.3	12
197.4	10
197.5	6
197.6	2
202.8	1
202.9	2
203.0	4
203.1	4
203.2	3
204.8	2
204.9	5
205.0	9
205.1	12
205.2	13
205.3	11
205.4	7
205.5	3
214.4	0
214.5	3
214.6	10
214.7	20
214.8	37
214.9	57
215.0	76
215.1	88
215.2	96
215.3	98
215.4	87
215.5	61
215.6	29
215.7	6
215.8	0
224.8	1
224.9	3
225.0	6
225.1	9
225.2	11
225.3	11
225.4	8
225.5	5
225.6	2
226.8	2
226.9	3
227.0	5
227.1	6
227.2	8
227.3	8
227.4	6
227.5	2
232.3	0
232.4	1
232.5	4
232.6	7
232.7	12
232.8	20
232.9	29
233.0	40
233.1	50
233.2	55
233.3	54
233.4	46
233.5	30
233.6	12
233.7	1
238.7	2
238.8	3
238.9	5
239.0	8
239.1	10
239.2	12
239.3	12
239.4	10
239.5	7
239.6	3
248.7	2
248.8	3
248.9	5
249.0	6
249.1	7
249.2	8
249.3	9
249.4	9
249.5	5
249.6	2
256.8	1
256.9	2
257.0	5
257.1	7
257.2	9
257.3	9
257.4	6
257.5	3
264.8	2
264.9	3
265.0	3
265.1	5
265.2	6
265.3	6
265.4	4
265.5	2
266.5	1
266.6	3
266.7	7
266.8	12
266.9	19
267.0	27
267.1	38
267.2	45
267.3	46
267.4	37
267.5	23
267.6	10
267.7	1
268.7	1
268.8	2
268.9	3
269.0	4
269.1	4
269.2	4
269.3	4
269.4	3
280.8	1
280.9	3
281.0	6
281.1	10
281.2	13
281.3	12
281.4	9
281.5	4
281.6	1
284.5	1
284.6	2
284.7	4
284.8	8
284.9	15
285.0	22
285.1	28
285.2	32
285.3	33
285.4	30
285.5	20
285.6	9
285.7	1
286.7	0
286.8	2
286.9	5
287.0	7
287.1	7
287.2	5
287.3	4
287.4	3
287.5	2
290.7	1
290.8	2
290.9	5
291.0	9
291.1	12
291.2	14
291.3	14
291.4	11
291.5	6
291.6	1
298.9	1
299.0	3
299.1	5
299.2	5
299.3	4
299.4	2
302.8	2
302.9	4
303.0	7
303.1	9
303.2	9
303.3	7
303.4	5
303.5	3
308.5	0
308.6	1
308.7	4
308.8	9
308.9	16
309.0	24
309.1	32
309.2	36
309.3	37
309.4	31
309.5	22
309.6	11
309.7	2
326.4	1
326.5	2
326.6	3
326.7	4
326.8	10
326.9	20
327.0	34
327.1	49
327.2	59
327.3	61
327.4	52
327.5	34
327.6	15
327.7	2
344.4	1
344.5	3
344.6	5
344.7	9
344.8	15
344.9	25
345.0	38
345.1	51
345.2	61
345.3	66
345.4	60
345.5	41
345.6	18
345.7	1
362.4	0
362.5	3
362.6	7
362.7	13
362.8	21
362.9	36
363.0	56
363.1	78
363.2	93
363.3	99
363.4	93
363.5	71
363.6	40
363.7	12
363.8	0
