Mass spectrum: Verticinone; LC-ESI-QQQ; MS2; Frag=135.0V CID@15.0 ; [M+H]+
Name: Verticinone
Class: Alkaloids
Formula: C27H45NO4
Exact mass: 447.66400000000004
SMILES: CC1CCC2N(C1)CC1C3CC4C(CC(=O)C5CC(O)CCC54C)C3CCC1[C@]2(C)O.O
InChI: InChI=1S/C27H43NO3.H2O/c1-15-4-7-25-27(3,31)21-6-5-17-18(20(21)14-28(25)13-15)11-22-19(17)12-24(30)23-10-16(29)8-9-26(22,23)2;/h15-23,25,29,31H,4-14H2,1-3H3;1H2/t15?,16?,17?,18?,19?,20?,21?,22?,23?,25?,26?,27-;/m0./s1
Instrument: Agilent 6410 Triple Quadrupole LC/MS system
Instrument type: LC-ESI-QQQ
Ms type: MS2
Ion mode: POSITIVE
Precursor type: [M+H]+
m/z	relative intensity
411.8	1
411.9	3
412.0	5
412.1	8
412.2	10
412.3	11
412.4	11
412.5	9
412.6	6
412.7	3
429.4	0
429.5	2
429.6	4
429.7	9
429.8	17
429.9	31
430.0	50
430.1	71
430.2	89
430.3	99
430.4	99
430.5	86
430.6	61
430.7	31
430.8	8
430.9	0
