Mass spectrum: N-(2-Hydroxyethyl)cytisine; LC-ESI-QQQ; MS2; Frag=135.0V CID@15.0; [M+H]+
Name: N-(2-Hydroxyethyl)cytisin
Name: (1S,9R)-11-(2-hydroxyethyl)-7,11-diazatricyclo(7.3.1.0(2,7))trideca-2,4-dien-6-one
Name: N-(2-Hydroxyethyl)cytisine
Class: Alkaloids
Formula: C13H18N2O2
Exact mass: 234.3006
SMILES: O=c1cccc2n1CC1CC2CN(CCO)C1
InChI: InChI=1S/C13H18N2O2/c16-5-4-14-7-10-6-11(9-14)12-2-1-3-13(17)15(12)8-10/h1-3,10-11,16H,4-9H2
Instrument: Agilent 6410 Triple Quadrupole LC/MS system
Instrument type: LC-ESI-QQQ
Ms type: MS2
Ion mode: POSITIVE
Precursor type: [M+H]+
m/z	relative intensity
87.3	0
87.4	2
87.5	6
87.6	13
87.7	24
87.8	37
87.9	52
88.0	63
88.1	67
88.2	66
88.3	58
88.4	44
88.5	25
88.6	8
88.7	0
234.3	0
234.4	2
234.5	6
234.6	13
234.7	24
234.8	40
234.9	60
235.0	81
235.1	95
235.2	99
235.3	93
235.4	78
235.5	53
235.6	26
235.7	5
235.8	0
