Mass spectrum: Versicoside; LC-ESI-QQQ; MS2; Frag=135.0V CID@5.0; [M+HCOO]-
Name: Versicoside
Class: Steroids
Formula: C32H42O15
Exact mass: 666.6825
SMILES: COc1cc(C2OC[C@@H]3C(c4ccc(O[C@@H]5O[C@H](CO[C@@H]6O[C@@H](C)[C@H](O)[C@@H](O)[C@H]6O)[C@@H](O)[C@H](O)[C@H]5O)c(OC)c4)OC[C@H]23)ccc1O
InChI: InChI=1S/C32H42O15/c1-13-23(34)25(36)27(38)31(45-13)44-12-22-24(35)26(37)28(39)32(47-22)46-19-7-5-15(9-21(19)41-3)30-17-11-42-29(16(17)10-43-30)14-4-6-18(33)20(8-14)40-2/h4-9,13,16-17,22-39H,10-12H2,1-3H3/t13-,16-,17-,22+,23-,24+,25+,26-,27+,28+,29?,30?,31+,32+/m0/s1
Instrument: Agilent 6410 Triple Quadrupole LC/MS system
Instrument type: LC-ESI-QQQ
Ms type: MS2
Ion mode: NEGATIVE
Precursor type: [M+HCOO]-
m/z	relative intensity
162.4	1
162.5	3
162.6	5
162.7	8
162.8	11
162.9	12
163.0	10
163.1	7
163.2	3
163.3	1
306.2	1
306.3	2
306.4	6
306.5	13
306.6	24
306.7	40
306.8	54
306.9	64
307.0	71
307.1	75
307.2	75
307.3	62
307.4	39
307.5	16
307.6	2
664.0	1
664.1	2
664.2	4
664.3	7
664.4	10
664.5	16
664.6	27
664.7	43
664.8	63
664.9	82
665.0	94
665.1	99
665.2	99
665.3	90
665.4	68
665.5	38
665.6	11
665.7	0
710.2	2
710.3	3
710.4	5
710.5	9
710.6	17
710.7	28
710.8	37
710.9	43
711.0	49
711.1	58
711.2	65
711.3	64
711.4	50
711.5	29
711.6	9
711.7	0
