Mass spectrum: Betulafolienetriol; LC-ESI-QQQ; MS2;  Frag=135.0V CID@10.0 ; [2M+H]+
Name: Betulafolienetriol
Class: Terpenoids
Formula: C30H52O3
Exact mass: 460.74714000000006
SMILES: CC(C)=CCC[C@](C)(O)C1CC[C@]2(C)C1C(O)CC1[C@@]3(C)CC[C@@H](O)C(C)(C)C3CC[C@]12C
InChI: InChI=1S/C30H52O3/c1-19(2)10-9-14-30(8,33)20-11-16-29(7)25(20)21(31)18-23-27(5)15-13-24(32)26(3,4)22(27)12-17-28(23,29)6/h10,20-25,31-33H,9,11-18H2,1-8H3/t20?,21?,22?,23?,24-,25?,27+,28-,29-,30+/m1/s1
Instrument: Agilent 6410 Triple Quadrupole LC/MS system
Instrument type: LC-ESI-QQQ
Ms type: MS2
Ion mode: POSITIVE
Precursor type: [2M+H]+
m/z	relative intensity
424.2	4
424.3	6
424.4	8
424.5	13
424.6	22
424.7	38
424.8	64
424.9	89
425.0	96
425.1	74
425.2	37
425.3	7
921.1	5
921.2	8
921.3	11
921.4	14
921.5	13
921.6	9
921.7	5
