Mass spectrum: N-succinoylanthranilic acid; LC-ESI-QQQ; MS2; Frag=135.0V CID@5.0; [M+H]+
Name: N-succinoylanthranilic acid
Class: Polycyclic aromatic natural products
Formula: C11H11NO5
Exact mass: 237.214
SMILES: O=C(O)CCC(O)=Nc1ccccc1C(=O)O
InChI: InChI=1S/C11H11NO5/c13-9(5-6-10(14)15)12-8-4-2-1-3-7(8)11(16)17/h1-4H,5-6H2,(H,12,13)(H,14,15)(H,16,17)
Instrument: Agilent 6410 Triple Quadrupole LC/MS system
Instrument type: LC-ESI-QQQ
Ms type: MS2
Ion mode: POSITIVE
Precursor type: [M+H]+
m/z	relative intensity
100.3	2
100.4	3
100.5	4
100.6	6
100.7	9
100.8	14
100.9	20
101.0	24
101.1	24
101.2	22
101.3	16
101.4	9
101.5	3
119.2	1
119.3	3
119.4	5
119.5	11
119.6	25
119.7	46
119.8	72
119.9	93
120.0	99
120.1	90
120.2	70
120.3	49
120.4	28
120.5	11
120.6	0
137.2	1
137.3	2
137.4	5
137.5	11
137.6	23
137.7	42
137.8	63
137.9	80
138.0	89
138.1	90
138.2	85
138.3	71
138.4	47
138.5	20
138.6	2
201.3	1
201.4	3
201.5	4
201.6	5
201.7	7
201.8	12
201.9	17
202.0	19
202.1	18
202.2	14
202.3	10
202.4	6
202.5	2
219.2	2
219.3	3
219.4	6
219.5	8
219.6	10
219.7	11
219.8	10
219.9	11
220.0	14
220.1	17
220.2	18
220.3	14
220.4	8
220.5	3
237.4	2
237.5	4
237.6	5
237.7	6
237.8	9
237.9	14
238.0	19
238.1	20
238.2	17
238.3	12
238.4	6
238.5	1
