Mass spectrum: Betulafolienetriol; LC-ESI-QQQ; MS2; Frag=135.0V CID@5.0; [2M+H]+
Name: Betulafolienetriol
Class: Terpenoids
Formula: C30H52O3
Exact mass: 460.7471
SMILES: CC(C)=CCC[C@](C)(O)C1CC[C@]2(C)C1C(O)CC1[C@@]3(C)CC[C@@H](O)C(C)(C)C3CC[C@]12C
InChI: InChI=1S/C30H52O3/c1-19(2)10-9-14-30(8,33)20-11-16-29(7)25(20)21(31)18-23-27(5)15-13-24(32)26(3,4)22(27)12-17-28(23,29)6/h10,20-25,31-33H,9,11-18H2,1-8H3/t20?,21?,22?,23?,24-,25?,27+,28-,29-,30+/m1/s1
Instrument: Agilent 6410 Triple Quadrupole LC/MS system
Instrument type: LC-ESI-QQQ
Ms type: MS2
Ion mode: POSITIVE
Precursor type: [2M+H]+
m/z	relative intensity
121.8	2
121.9	3
122.0	4
122.1	5
122.2	5
122.3	5
122.4	4
122.5	3
424.3	2
424.4	3
424.5	4
424.6	6
424.7	6
424.8	4
424.9	2
442.5	2
442.6	4
442.7	7
442.8	9
442.9	8
443.0	6
443.1	3
920.4	0
920.5	2
920.6	10
920.7	24
920.8	36
920.9	40
921.0	41
921.1	53
921.2	76
921.3	92
921.4	83
921.5	56
921.6	31
921.7	18
921.8	12
921.9	6
922.0	2
