Mass spectrum: Heliotrine; LC-ESI-QQQ; MS2; Frag=135.0V CID@15.0; [M+H]+
Name: Heliotrine
Class: Alkaloids
Formula: C16H27NO5
Exact mass: 313.3973
SMILES: COC(C)C(O)(C(=O)OCC1=CCN2CCC(O)[C@@H]12)C(C)C
InChI: InChI=1S/C16H27NO5/c1-10(2)16(20,11(3)21-4)15(19)22-9-12-5-7-17-8-6-13(18)14(12)17/h5,10-11,13-14,18,20H,6-9H2,1-4H3/t11?,13?,14-,16?/m1/s1
Instrument: Agilent 6410 Triple Quadrupole LC/MS system
Instrument type: LC-ESI-QQQ
Ms type: MS2
Ion mode: POSITIVE
Precursor type: [M+H]+
m/z	relative intensity
137.3	0
137.4	2
137.5	7
137.6	16
137.7	31
137.8	52
137.9	75
138.0	93
138.1	99
138.2	95
138.3	83
138.4	62
138.5	37
138.6	13
138.7	0
155.6	1
155.7	3
155.8	6
155.9	8
156.0	11
156.1	12
156.2	12
156.3	11
156.4	8
156.5	5
156.6	2
313.5	1
313.6	3
313.7	7
313.8	12
313.9	20
314.0	29
314.1	37
314.2	43
314.3	43
314.4	38
314.5	26
314.6	13
314.7	3
