Mass spectrum: Carminomycin I; LC-ESI-QQQ; MS2; Frag=135.0V CID@25.0; [M+H]+
Name: Carminomycin I
Class: Polycyclic aromatic natural products
Formula: C26H27NO10
Exact mass: 513.5058
SMILES: CC(=O)[C@]1(O)Cc2c(O)c3c(c(O)c2[C@@H](O[C@H]2C[C@H](N)[C@H](O)[C@H](C)O2)C1)C(=O)c1c(O)cccc1C3=O
InChI: InChI=1S/C26H27NO10/c1-9-21(30)13(27)6-16(36-9)37-15-8-26(35,10(2)28)7-12-18(15)25(34)20-19(23(12)32)22(31)11-4-3-5-14(29)17(11)24(20)33/h3-5,9,13,15-16,21,29-30,32,34-35H,6-8,27H2,1-2H3/t9-,13-,15-,16-,21+,26-/m0/s1
Instrument: Agilent 6410 Triple Quadrupole LC/MS system
Instrument type: LC-ESI-QQQ
Ms type: MS2
Ion mode: POSITIVE
Precursor type: [M+H]+
m/z	relative intensity
68.6	3
68.7	4
68.8	6
68.9	7
69.0	9
69.1	9
69.2	9
69.3	7
69.4	4
69.5	1
71.5	4
71.6	5
71.7	8
71.8	14
71.9	19
72.0	22
72.1	22
72.2	20
72.3	15
72.4	10
72.5	4
85.2	1
85.3	3
85.4	6
85.5	9
85.6	16
85.7	27
85.8	43
85.9	59
86.0	68
86.1	70
86.2	67
86.3	57
86.4	41
86.5	22
86.6	6
86.7	0
111.7	2
111.8	4
111.9	5
112.0	6
112.1	6
112.2	5
112.3	5
112.4	5
112.5	5
112.6	8
112.7	12
112.8	19
112.9	24
113.0	28
113.1	29
113.2	26
113.3	21
113.4	14
113.5	7
113.6	1
129.2	0
129.3	2
129.4	7
129.5	12
129.6	21
129.7	36
129.8	58
129.9	82
130.0	97
130.1	99
130.2	92
130.3	79
130.4	59
130.5	35
130.6	12
130.7	0
306.2	1
306.3	3
306.4	5
306.5	8
306.6	11
306.7	18
306.8	28
306.9	40
307.0	49
307.1	53
307.2	50
307.3	40
307.4	25
307.5	10
307.6	1
348.5	1
348.6	2
348.7	5
348.8	9
348.9	12
349.0	14
349.1	14
349.2	13
349.3	10
349.4	6
349.5	3
