Mass spectrum: 2,3,14,20,22,25-Hexahydroxycholest-7-en-6-one; LC-ESI-QQQ; MS2; Frag=135.0V CID@5.0; [M+HCOO]-
Name: 2,3,14,20,22,25-Hexahydroxycholest-7-en-6-one
Class: Steroids
Formula: C27H44O7
Exact mass: 480.6475
SMILES: CC(C)(O)CC[C@H](O)[C@](C)(O)C1CC[C@@]2(O)C3=CC(=O)C4CC(O)C(O)C[C@]4(C)C3CC[C@]12C
InChI: InChI=1S/C27H44O7/c1-23(2,32)9-8-22(31)26(5,33)21-7-11-27(34)16-12-18(28)17-13-19(29)20(30)14-24(17,3)15(16)6-10-25(21,27)4/h12,15,17,19-22,29-34H,6-11,13-14H2,1-5H3/t15?,17?,19?,20?,21?,22-,24+,25+,26+,27+/m0/s1
Instrument: Agilent 6410 Triple Quadrupole LC/MS system
Instrument type: LC-ESI-QQQ
Ms type: MS2
Ion mode: NEGATIVE
Precursor type: [M+HCOO]-
m/z	relative intensity
478.4	0
478.5	2
478.6	6
478.7	13
478.8	25
478.9	38
479.0	47
479.1	51
479.2	54
479.3	60
479.4	68
479.5	68
479.6	54
479.7	30
479.8	9
479.9	0
524.2	0
524.3	1
524.4	4
524.5	7
524.6	12
524.7	20
524.8	34
524.9	51
525.0	68
525.1	80
525.2	89
525.3	97
525.4	99
525.5	86
525.6	54
525.7	20
525.8	1
