Mass spectrum: osajin; LC-ESI-QQQ; MS2; Frag=135.0V CID@5.0; [M+H]+
Name: osajin
Class: Flavonoids
Formula: C25H24O5
Exact mass: 404.467
SMILES: CC(C)=CCc1c2c(c3occ(-c4ccc(O)cc4)c(=O)c3c1O)C=CC(C)(C)O2
InChI: InChI=1S/C25H24O5/c1-14(2)5-10-17-21(27)20-22(28)19(15-6-8-16(26)9-7-15)13-29-24(20)18-11-12-25(3,4)30-23(17)18/h5-9,11-13,26-27H,10H2,1-4H3
Instrument: Agilent 6410 Triple Quadrupole LC/MS system
Instrument type: LC-ESI-QQQ
Ms type: MS2
Ion mode: POSITIVE
Precursor type: [M+H]+
m/z	relative intensity
348.3	1
348.4	3
348.5	7
348.6	13
348.7	22
348.8	36
348.9	52
349.0	66
349.1	73
349.2	72
349.3	62
349.4	44
349.5	23
349.6	6
349.7	0
404.2	0
404.3	1
404.4	4
404.5	9
404.6	16
404.7	27
404.8	43
404.9	63
405.0	83
405.1	96
405.2	99
405.3	92
405.4	74
405.5	47
405.6	19
405.7	1
