Mass spectrum: Glycoperine; LC-ESI-QQQ; MS2; Frag=135.0V CID@25.0; [M+H]+
Name: Glycoperine
Class: Alkaloids
Formula: C19H21NO8
Exact mass: 391.3811
SMILES: COc1c2ccoc2nc2c(OC)c(O[C@@H]3O[C@H](C)[C@@H](O)[C@@H](O)[C@H]3O)ccc12
InChI: InChI=1S/C19H21NO8/c1-8-13(21)14(22)15(23)19(27-8)28-11-5-4-9-12(17(11)25-3)20-18-10(6-7-26-18)16(9)24-2/h4-8,13-15,19,21-23H,1-3H3/t8-,13-,14-,15-,19+/m1/s1
Instrument: Agilent 6410 Triple Quadrupole LC/MS system
Instrument type: LC-ESI-QQQ
Ms type: MS2
Ion mode: POSITIVE
Precursor type: [M+H]+
m/z	relative intensity
230.3	0
230.4	2
230.5	4
230.6	7
230.7	12
230.8	18
230.9	25
231.0	30
231.1	32
231.2	30
231.3	24
231.4	16
231.5	7
231.6	1
245.2	0
245.3	2
245.4	6
245.5	11
245.6	19
245.7	33
245.8	52
245.9	74
246.0	92
246.1	99
246.2	95
246.3	81
246.4	57
246.5	31
246.6	9
246.7	0
