Mass spectrum: 17alpha-Strophadogenin; LC-ESI-QQQ; MS2; Frag=135.0V CID@15.0; [M+H]+
Name: 17alpha-Strophadogenin
Class: Steroids
Formula: C23H32O7
Exact mass: 420.5073
SMILES: C[C@]12CCC3C(CCC4(O)CC(O)CC[C@]34C=O)C1(O)CC(O)[C@H]2C1=CC(=O)OC1
InChI: InChI=1S/C23H32O7/c1-20-5-3-15-16(4-7-22(28)9-14(25)2-6-21(15,22)12-24)23(20,29)10-17(26)19(20)13-8-18(27)30-11-13/h8,12,14-17,19,25-26,28-29H,2-7,9-11H2,1H3/t14?,15?,16?,17?,19-,20-,21+,22?,23?/m1/s1
Instrument: Agilent 6410 Triple Quadrupole LC/MS system
Instrument type: LC-ESI-QQQ
Ms type: MS2
Ion mode: POSITIVE
Precursor type: [M+H]+
m/z	relative intensity
144.8	3
144.9	4
145.0	5
145.1	6
145.2	6
145.3	4
145.4	3
160.3	1
160.4	2
160.5	5
160.6	9
160.7	14
160.8	20
160.9	27
161.0	33
161.1	38
161.2	40
161.3	38
161.4	31
161.5	19
161.6	7
161.7	0
198.8	1
198.9	3
199.0	4
199.1	4
199.2	3
310.8	1
310.9	3
311.0	5
311.1	6
311.2	6
311.3	5
311.4	4
311.5	2
320.6	1
320.7	2
320.8	4
320.9	8
321.0	11
321.1	13
321.2	13
321.3	13
321.4	10
321.5	5
321.6	1
338.5	2
338.6	3
338.7	5
338.8	7
338.9	11
339.0	16
339.1	20
339.2	23
339.3	22
339.4	17
339.5	11
339.6	4
348.7	1
348.8	2
348.9	4
349.0	5
349.1	6
349.2	6
349.3	4
349.4	2
356.6	2
356.7	3
356.8	6
356.9	9
357.0	12
357.1	16
357.2	17
357.3	15
357.4	11
357.5	5
357.6	1
366.7	1
366.8	3
366.9	5
367.0	7
367.1	7
367.2	5
367.3	3
402.5	1
402.6	3
402.7	6
402.8	9
402.9	14
403.0	20
403.1	25
403.2	28
403.3	26
403.4	20
403.5	11
403.6	4
403.7	0
420.3	1
420.4	3
420.5	6
420.6	10
420.7	15
420.8	25
420.9	41
421.0	63
421.1	83
421.2	97
421.3	99
421.4	90
421.5	67
421.6	37
421.7	10
421.8	0
