Mass spectrum: 3-Hydroxy-12-oleanen-28-oic acid; LC-ESI-QQQ; MS2; Frag=135.0V CID@10.0; [M-OH]+
Name: 3-Hydroxy-12-oleanen-28-oic acid
Class: Terpenoids
Formula: C30H48O3
Exact mass: 456.7153
SMILES: CC1(C)CCC2(C(=O)O)CC[C@]3(C)C(=CCC4[C@@]5(C)CCC(O)C(C)(C)C5CC[C@]43C)C2C1
InChI: InChI=1S/C30H48O3/c1-25(2)14-16-30(24(32)33)17-15-28(6)19(20(30)18-25)8-9-22-27(5)12-11-23(31)26(3,4)21(27)10-13-29(22,28)7/h8,20-23,31H,9-18H2,1-7H3,(H,32,33)/t20?,21?,22?,23?,27-,28+,29+,30?/m0/s1
Instrument: Agilent 6410 Triple Quadrupole LC/MS system
Instrument type: LC-ESI-QQQ
Ms type: MS2
Ion mode: POSITIVE
Precursor type: [M-OH]+
m/z	relative intensity
188.8	2
188.9	3
189.0	5
189.1	6
189.2	6
189.3	5
189.4	3
190.3	1
190.4	3
190.5	7
190.6	12
190.7	16
190.8	26
190.9	43
191.0	67
191.1	90
191.2	99
191.3	93
191.4	73
191.5	47
191.6	21
191.7	4
202.4	1
202.5	2
202.6	4
202.7	6
202.8	10
202.9	17
203.0	26
203.1	34
203.2	36
203.3	32
203.4	24
203.5	14
203.6	5
203.7	0
204.6	0
204.7	2
204.8	4
204.9	6
205.0	7
205.1	6
205.2	7
205.3	8
205.4	6
205.5	3
216.5	1
216.6	2
216.7	4
216.8	4
216.9	5
217.0	6
217.1	8
217.2	9
217.3	9
217.4	7
217.5	5
217.6	2
248.5	1
248.6	3
248.7	5
248.8	7
248.9	8
249.0	9
249.1	11
249.2	14
249.3	16
249.4	14
249.5	10
249.6	5
249.7	1
438.4	0
438.5	3
438.6	6
438.7	11
438.8	17
438.9	26
439.0	38
439.1	53
439.2	67
439.3	80
439.4	88
439.5	85
439.6	68
439.7	39
439.8	12
439.9	0
