Mass spectrum: ellagic acid; LC-ESI-QQQ; MS2; Frag=135.0V CID@15.0; [M+H]+
Name: ellagic acid
Class: Tannins
Formula: C14H6O8
Exact mass: 302.1991
SMILES: O=c1oc2c(O)c(O)cc3c(=O)oc4c(O)c(O)cc1c4c23
InChI: InChI=1S/C14H6O8/c15-5-1-3-7-8-4(14(20)22-11(7)9(5)17)2-6(16)10(18)12(8)21-13(3)19/h1-2,15-18H
Instrument: Agilent 6410 Triple Quadrupole LC/MS system
Instrument type: LC-ESI-QQQ
Ms type: MS2
Ion mode: POSITIVE
Precursor type: [M+H]+
m/z	relative intensity
274.8	1
274.9	3
275.0	5
275.1	5
275.2	4
275.3	2
284.6	1
284.7	3
284.8	5
284.9	7
285.0	7
285.1	5
285.2	3
302.2	0
302.3	0
302.4	4
302.5	14
302.6	29
302.7	45
302.8	61
302.9	76
303.0	91
303.1	99
303.2	94
303.3	69
303.4	34
303.5	6
303.6	0
