Mass spectrum: Convolamine; LC-ESI-QQQ; MS2; Frag=135.0V CID@5.0 ; [M+H]+
Name: Convolamine
Class: Alkaloids
Formula: C17H23NO4
Exact mass: 305.37716
SMILES: COc1ccc(C(=O)O[C@@H]2C[C@@H]3CC[C@H](C2)N3C)cc1OC
InChI: InChI=1S/C17H23NO4/c1-18-12-5-6-13(18)10-14(9-12)22-17(19)11-4-7-15(20-2)16(8-11)21-3/h4,7-8,12-14H,5-6,9-10H2,1-3H3/t12-,13+,14+
Instrument: Agilent 6410 Triple Quadrupole LC/MS system
Instrument type: LC-ESI-QQQ
Ms type: MS2
Ion mode: POSITIVE
Precursor type: [M+H]+
m/z	relative intensity
305.3	0
305.4	2
305.5	5
305.6	9
305.7	16
305.8	29
305.9	49
306.0	72
306.1	90
306.2	99
306.3	96
306.4	80
306.5	53
306.6	25
306.7	4
306.8	0
