Mass spectrum: Betulafolienetriol; LC-ESI-QQQ; MS2;  Frag=135.0V CID@25.0 ; [2M+H]+
Name: Betulafolienetriol
Class: Terpenoids
Formula: C30H52O3
Exact mass: 460.74714000000006
SMILES: CC(C)=CCC[C@](C)(O)C1CC[C@]2(C)C1C(O)CC1[C@@]3(C)CC[C@@H](O)C(C)(C)C3CC[C@]12C
InChI: InChI=1S/C30H52O3/c1-19(2)10-9-14-30(8,33)20-11-16-29(7)25(20)21(31)18-23-27(5)15-13-24(32)26(3,4)22(27)12-17-28(23,29)6/h10,20-25,31-33H,9,11-18H2,1-8H3/t20?,21?,22?,23?,24-,25?,27+,28-,29-,30+/m1/s1
Instrument: Agilent 6410 Triple Quadrupole LC/MS system
Instrument type: LC-ESI-QQQ
Ms type: MS2
Ion mode: POSITIVE
Precursor type: [2M+H]+
m/z	relative intensity
94.0	5
94.1	7
94.2	8
94.3	9
94.4	9
94.5	8
94.6	7
136.0	4
136.1	6
136.2	8
136.3	10
136.4	9
136.5	7
148.2	8
148.3	10
148.4	14
148.5	20
148.6	27
148.7	33
148.8	34
148.9	29
149.0	20
149.1	11
149.2	6
188.5	6
188.6	7
188.7	9
188.8	10
188.9	9
202.2	3
202.3	8
202.4	20
202.5	33
202.6	38
202.7	31
202.8	16
202.9	5
206.2	7
206.3	9
206.4	12
206.5	16
206.6	21
206.7	23
206.8	20
206.9	13
207.0	7
302.4	3
302.5	5
302.6	7
302.7	8
302.8	7
302.9	5
406.1	5
406.2	7
406.3	10
406.4	12
406.5	13
406.6	11
406.7	9
424.7	3
424.8	10
424.9	30
425.0	61
425.1	86
425.2	90
425.3	78
425.4	64
425.5	49
425.6	29
425.7	9
441.9	3
442.0	4
442.1	6
442.2	8
442.3	8
442.4	6
442.5	5
442.6	4
442.7	5
442.8	13
442.9	31
443.0	51
443.1	55
443.2	38
443.3	14
443.4	1
