Mass spectrum: 2-Deoxycrustecdysone; LC-ESI-QQQ; MS2; Frag=135.0V CID@10.0; [M+HCOO]-
Name: 2-Deoxycrustecdysone
Class: Steroids
Formula: C27H44O6
Exact mass: 464.6481
SMILES: CC(C)(O)CC[C@@H](O)[C@](C)(O)C1CC[C@@]2(O)C3=CC(=O)[C@@H]4C[C@@H](O)CC[C@]4(C)C3CC[C@]12C
InChI: InChI=1S/C27H44O6/c1-23(2,31)10-9-22(30)26(5,32)21-8-13-27(33)18-15-20(29)19-14-16(28)6-11-24(19,3)17(18)7-12-25(21,27)4/h15-17,19,21-22,28,30-33H,6-14H2,1-5H3/t16-,17?,19-,21?,22+,24+,25+,26+,27+/m0/s1
Instrument: Agilent 6410 Triple Quadrupole LC/MS system
Instrument type: LC-ESI-QQQ
Ms type: MS2
Ion mode: NEGATIVE
Precursor type: [M+HCOO]-
m/z	relative intensity
158.5	0
158.6	2
158.7	5
158.8	7
158.9	9
159.0	10
159.1	11
159.2	10
159.3	8
159.4	4
159.5	1
462.4	1
462.5	2
462.6	6
462.7	15
462.8	33
462.9	57
463.0	81
463.1	96
463.2	99
463.3	97
463.4	93
463.5	81
463.6	58
463.7	28
463.8	6
463.9	0
508.5	1
508.6	4
508.7	8
508.8	13
508.9	19
509.0	23
509.1	25
509.2	27
509.3	31
509.4	33
509.5	31
509.6	22
509.7	10
509.8	2
