Mass spectrum: Majdine; LC-ESI-QQQ; MS2; Frag=135.0V CID@25.0; [M+H]+
Name: Majdine
Class: Alkaloids
Formula: C23H28N2O6
Exact mass: 428.4894
SMILES: COC(=O)C1=CO[C@@H](C)C2CN3CC[C@]4(C(O)=Nc5c4ccc(OC)c5OC)C3CC12
InChI: InChI=1S/C23H28N2O6/c1-12-14-10-25-8-7-23(18(25)9-13(14)15(11-31-12)21(26)30-4)16-5-6-17(28-2)20(29-3)19(16)24-22(23)27/h5-6,11-14,18H,7-10H2,1-4H3,(H,24,27)/t12-,13?,14?,18?,23+/m0/s1
Instrument: Agilent 6410 Triple Quadrupole LC/MS system
Instrument type: LC-ESI-QQQ
Ms type: MS2
Ion mode: POSITIVE
Precursor type: [M+H]+
m/z	relative intensity
177.7	1
177.8	3
177.9	4
178.0	6
178.1	6
178.2	6
178.3	5
178.4	4
178.5	2
217.6	2
217.7	3
217.8	5
217.9	8
218.0	10
218.1	10
218.2	10
218.3	8
218.4	5
218.5	3
219.3	1
219.4	3
219.5	6
219.6	10
219.7	16
219.8	27
219.9	39
220.0	50
220.1	56
220.2	55
220.3	48
220.4	36
220.5	20
220.6	7
220.7	0
260.6	2
260.7	3
260.8	6
260.9	9
261.0	12
261.1	14
261.2	14
261.3	13
261.4	10
261.5	6
261.6	2
272.7	2
272.8	4
272.9	6
273.0	8
273.1	9
273.2	8
273.3	7
273.4	5
273.5	3
298.7	1
298.8	2
298.9	4
299.0	5
299.1	6
299.2	6
299.3	6
299.4	4
299.5	2
396.3	1
396.4	4
396.5	7
396.6	11
396.7	19
396.8	33
396.9	53
397.0	76
397.1	93
397.2	99
397.3	94
397.4	75
397.5	49
397.6	21
397.7	3
428.4	2
428.5	3
428.6	6
428.7	11
428.8	20
428.9	33
429.0	48
429.1	60
429.2	66
429.3	64
429.4	54
429.5	37
429.6	18
429.7	4
