Mass spectrum: Galanthamine; LC-ESI-QQQ; MS2; Frag=135.0V CID@25.0; [M+H]+
Name: Galanthamine
Class: Alkaloids
Formula: C17H21NO3
Exact mass: 287.3618
SMILES: COc1ccc2c3c1O[C@H]1C[C@@H](O)C=C[C@@]31CCN(C)C2
InChI: InChI=1S/C17H21NO3/c1-18-8-7-17-6-5-12(19)9-14(17)21-16-13(20-2)4-3-11(10-18)15(16)17/h3-6,12,14,19H,7-10H2,1-2H3/t12-,14-,17-/m0/s1
Instrument: Agilent 6410 Triple Quadrupole LC/MS system
Instrument type: LC-ESI-QQQ
Ms type: MS2
Ion mode: POSITIVE
Precursor type: [M+H]+
m/z	relative intensity
54.6	2
54.7	3
54.8	4
54.9	5
55.0	6
55.1	6
55.2	6
55.3	5
55.4	3
57.6	1
57.7	3
57.8	5
57.9	8
58.0	9
58.1	9
58.2	9
58.3	7
58.4	5
58.5	2
174.7	2
174.8	4
174.9	6
175.0	8
175.1	9
175.2	9
175.3	8
175.4	6
175.5	3
180.6	1
180.7	3
180.8	4
180.9	6
181.0	8
181.1	8
181.2	8
181.3	8
181.4	6
181.8	5
181.9	8
182.0	9
182.1	10
182.2	10
182.3	9
182.4	6
182.5	3
184.7	2
184.8	3
184.9	5
185.0	6
185.1	6
185.2	6
185.3	6
185.4	5
185.5	3
196.7	2
196.8	4
196.9	6
197.0	7
197.1	8
197.2	8
197.3	8
197.4	8
197.5	9
197.6	13
197.7	19
197.8	29
197.9	41
198.0	50
198.1	55
198.2	55
198.3	48
198.4	34
198.5	17
198.6	4
202.8	3
202.9	4
203.0	5
203.1	6
203.2	6
203.3	6
203.4	4
203.5	2
208.8	2
208.9	3
209.0	5
209.1	5
209.2	6
209.3	5
209.4	3
212.3	1
212.4	3
212.5	8
212.6	16
212.7	29
212.8	47
212.9	70
213.0	89
213.1	99
213.2	99
213.3	88
213.4	68
213.5	42
213.6	16
213.7	1
224.7	2
224.8	3
224.9	5
225.0	7
225.1	8
225.2	7
225.3	6
225.4	4
225.5	2
230.6	2
230.7	3
230.8	4
230.9	6
231.0	8
231.1	10
231.2	11
231.3	10
231.4	8
231.5	5
231.6	2
