Mass spectrum: Meranzin; LC-ESI-QQQ; MS2; Frag=135.0V CID@15.0; [M+H]+
Name: Meranzin
Class: Benzopyranoids
Formula: C15H16O4
Exact mass: 260.2924
SMILES: COc1ccc2ccc(=O)oc2c1CC1OC1(C)C
InChI: InChI=1S/C15H16O4/c1-15(2)12(19-15)8-10-11(17-3)6-4-9-5-7-13(16)18-14(9)10/h4-7,12H,8H2,1-3H3
Instrument: Agilent 6410 Triple Quadrupole LC/MS system
Instrument type: LC-ESI-QQQ
Ms type: MS2
Ion mode: POSITIVE
Precursor type: [M+H]+
m/z	relative intensity
130.5	1
130.6	5
130.7	12
130.8	21
130.9	24
131.0	20
131.1	12
131.2	5
188.1	2
188.2	5
188.3	7
188.4	9
188.5	8
188.6	13
188.7	28
188.8	51
188.9	76
189.0	94
189.1	99
189.2	89
189.3	64
189.4	32
189.5	7
189.6	0
