Mass spectrum: Lappaconitine; LC-ESI-QQQ; MS2; Frag=135.0V CID@25.0; [M+HCOO]-
Name: Lappaconitine
Class: Alkaloids
Formula: C32H44N2O8
Exact mass: 584.7161
SMILES: CCN1C[C@]2(OC(=O)c3ccccc3N=C(C)O)CCC(OC)C34C2CC([C@@H]13)[C@@]1(O)C[C@H](OC)[C@H]2CC4[C@]1(O)C2OC
InChI: InChI=1S/C32H44N2O8/c1-6-34-16-29(42-28(36)18-9-7-8-10-21(18)33-17(2)35)12-11-25(40-4)31-23(29)14-20(26(31)34)30(37)15-22(39-3)19-13-24(31)32(30,38)27(19)41-5/h7-10,19-20,22-27,37-38H,6,11-16H2,1-5H3,(H,33,35)/t19-,20?,22+,23?,24?,25?,26-,27?,29-,30+,31?,32+/m1/s1
Instrument: Agilent 6410 Triple Quadrupole LC/MS system
Instrument type: LC-ESI-QQQ
Ms type: MS2
Ion mode: NEGATIVE
Precursor type: [M+HCOO]-
m/z	relative intensity
159.2	1
159.3	6
159.4	24
159.5	52
159.6	75
159.7	78
159.8	72
159.9	78
160.0	96
160.1	99
160.2	71
160.3	30
160.4	4
