Mass spectrum: Phlorizin; LC-ESI-QQQ; MS2; Frag=135.0V CID@25.0; [M+H]+
Name: Phlr-2p-Glc
Name: Phloridzin
Name: Phlorhizin
Name: Phlorizin
Name: Phlorizoside
Name: Phlorrhizin
Name: Phlorrhizen
Name: 2'-(beta-D-Glucopyranosyloxy)-4',6'-dihydroxy-3-(4-hydroxyphenyl)propiophenone
Class: Carbohydrates
Formula: C21H24O10
Exact mass: 436.4194
SMILES: O=C(CCc1ccc(O)cc1)c1c(O)cc(O)cc1O[C@@H]1OC(CO)[C@@H](O)C(O)C1O
InChI: InChI=1S/C21H24O10/c22-9-16-18(27)19(28)20(29)21(31-16)30-15-8-12(24)7-14(26)17(15)13(25)6-3-10-1-4-11(23)5-2-10/h1-2,4-5,7-8,16,18-24,26-29H,3,6,9H2/t16?,18-,19?,20?,21-/m1/s1
Instrument: Agilent 6410 Triple Quadrupole LC/MS system
Instrument type: LC-ESI-QQQ
Ms type: MS2
Ion mode: POSITIVE
Precursor type: [M+H]+
m/z	relative intensity
106.0	2
106.1	3
106.2	5
106.3	7
106.4	9
106.5	15
106.6	28
106.7	46
106.8	68
106.9	89
107.0	99
107.1	93
107.2	73
107.3	47
107.4	23
107.5	6
107.6	0
148.2	0
148.3	2
148.4	5
148.5	8
148.6	8
148.7	6
148.8	5
148.9	6
149.0	7
149.1	6
149.2	4
168.3	1
168.4	3
168.5	5
168.6	9
168.7	13
168.8	19
168.9	22
169.0	21
169.1	16
169.2	11
169.3	8
169.4	4
172.7	2
172.8	4
172.9	6
173.0	8
173.1	9
173.2	8
173.3	5
173.4	2
210.3	1
210.4	3
210.5	7
210.6	10
210.7	11
210.8	10
210.9	7
234.7	2
234.8	4
234.9	6
235.0	9
235.1	10
235.2	10
235.3	7
235.4	3
