Mass spectrum: Bovoside A; LC-ESI-QQQ; MS2;  Frag=135.0V CID@10.0 ; [M+HOO]-
Name: Bovoside A
Class: Steroids
Formula: C31H44O9
Exact mass: 560.69093
SMILES: COC1C(O)C(C)OC(OC2CC[C@]3(C=O)C4CC[C@]5(C)C(c6ccc(=O)oc6)CCC5(O)C4CC[C@H]3C2)C1O
InChI: InChI=1S/C31H44O9/c1-17-25(34)27(37-3)26(35)28(39-17)40-20-8-12-30(16-32)19(14-20)5-6-23-22(30)9-11-29(2)21(10-13-31(23,29)36)18-4-7-24(33)38-15-18/h4,7,15-17,19-23,25-28,34-36H,5-6,8-14H2,1-3H3/t17?,19-,20?,21?,22?,23?,25?,26?,27?,28?,29+,30+,31?/m0/s1
Instrument: Agilent 6410 Triple Quadrupole LC/MS system
Instrument type: LC-ESI-QQQ
Ms type: MS2
Ion mode: NEGATIVE
Precursor type: [M+HOO]-
m/z	relative intensity
604.1	1
604.2	3
604.3	6
604.4	8
604.5	9
604.6	12
604.7	24
604.8	45
604.9	66
605.0	79
605.1	87
605.2	95
605.3	99
605.4	89
605.5	62
605.6	27
605.7	4
