Mass spectrum: Poststerone; LC-ESI-QQQ; MS2; Frag=135.0V CID@10.0 ; [M+H]+
Name: Poststerone
Class: Steroids
Formula: C21H30O5
Exact mass: 362.47025
SMILES: CC(=O)C1CC[C@@]2(O)C3=CC(=O)C4CC(O)C(O)C[C@]4(C)C3CC[C@]12C
InChI: InChI=1S/C21H30O5/c1-11(22)12-5-7-21(26)14-8-16(23)15-9-17(24)18(25)10-19(15,2)13(14)4-6-20(12,21)3/h8,12-13,15,17-18,24-26H,4-7,9-10H2,1-3H3/t12?,13?,15?,17?,18?,19-,20-,21-/m1/s1
Instrument: Agilent 6410 Triple Quadrupole LC/MS system
Instrument type: LC-ESI-QQQ
Ms type: MS2
Ion mode: POSITIVE
Precursor type: [M+H]+
m/z	relative intensity
214.6	2
214.7	3
214.8	5
214.9	7
215.0	10
215.1	13
215.2	15
215.3	15
215.4	12
215.5	8
215.6	3
232.7	2
232.8	4
232.9	6
233.0	10
233.1	14
233.2	16
233.3	15
233.4	12
233.5	7
233.6	2
266.8	2
266.9	3
267.0	5
267.1	6
267.2	7
267.3	7
267.4	6
267.5	5
267.6	2
284.8	1
284.9	2
285.0	4
285.1	6
285.2	6
285.3	7
285.4	6
285.5	5
285.6	2
308.8	2
308.9	3
309.0	5
309.1	7
309.2	8
309.3	7
309.4	6
309.5	3
309.6	1
326.7	2
326.8	3
326.9	5
327.0	8
327.1	13
327.2	17
327.3	18
327.4	16
327.5	11
327.6	6
327.7	1
344.6	1
344.7	3
344.8	7
344.9	12
345.0	17
345.1	22
345.2	25
345.3	26
345.4	25
345.5	19
345.6	11
345.7	3
362.4	0
362.5	1
362.6	4
362.7	9
362.8	18
362.9	31
363.0	49
363.1	69
363.2	88
363.3	99
363.4	98
363.5	80
363.6	49
363.7	19
363.8	1
