Mass spectrum: Haplamidine; LC-ESI-QQQ; MS2; Frag=135.0V CID@5.0; [M+H]+
Name: Haplamidine
Class: Alkaloids
Formula: C20H22N2O2
Exact mass: 322.4105
SMILES: OC(/C=C/c1ccccc1)=NCCCCN=C(O)c1ccccc1
InChI: InChI=1S/C20H22N2O2/c23-19(14-13-17-9-3-1-4-10-17)21-15-7-8-16-22-20(24)18-11-5-2-6-12-18/h1-6,9-14H,7-8,15-16H2,(H,21,23)(H,22,24)/b14-13+
Instrument: Agilent 6410 Triple Quadrupole LC/MS system
Instrument type: LC-ESI-QQQ
Ms type: MS2
Ion mode: POSITIVE
Precursor type: [M+H]+
m/z	relative intensity
130.5	1
130.6	3
130.7	5
130.8	8
130.9	10
131.0	13
131.1	13
131.2	12
131.3	10
131.4	6
131.5	3
175.8	3
175.9	4
176.0	6
176.1	7
176.2	7
176.3	6
176.4	5
176.5	3
192.6	1
192.7	2
192.8	5
192.9	7
193.0	9
193.1	11
193.2	11
193.3	11
193.4	9
193.5	7
193.6	3
201.8	2
201.9	3
202.0	5
202.1	5
202.2	5
202.3	5
202.4	4
202.5	3
218.5	1
218.6	2
218.7	4
218.8	6
218.9	8
219.0	10
219.1	12
219.2	12
219.3	11
219.4	9
219.5	5
219.6	2
322.3	0
322.4	1
322.5	4
322.6	9
322.7	18
322.8	32
322.9	50
323.0	71
323.1	89
323.2	99
323.3	98
323.4	82
323.5	55
323.6	26
323.7	4
323.8	0
