Mass spectrum: Peucedanin; LC-ESI-QQQ; MS2; Frag=135.0V CID@10.0; [M+H]+
Name: Peucedanin
Class: Benzopyranoids
Formula: C15H14O4
Exact mass: 258.2764
SMILES: COc1c(C(C)C)oc2cc3oc(=O)ccc3cc12
InChI: InChI=1S/C15H14O4/c1-8(2)14-15(17-3)10-6-9-4-5-13(16)18-11(9)7-12(10)19-14/h4-8H,1-3H3
Instrument: Agilent 6410 Triple Quadrupole LC/MS system
Instrument type: LC-ESI-QQQ
Ms type: MS2
Ion mode: POSITIVE
Precursor type: [M+H]+
m/z	relative intensity
228.6	2
228.7	4
228.8	6
228.9	9
229.0	11
229.1	12
229.2	11
229.3	9
229.4	6
229.5	2
258.3	1
258.4	3
258.5	7
258.6	13
258.7	25
258.8	43
258.9	66
259.0	86
259.1	98
259.2	99
259.3	90
259.4	69
259.5	40
259.6	14
259.7	0
