Mass spectrum: Inosinic acid; LC-ESI-QQQ; MS2; Frag=135.0V CID@25.0; [M+H]+
Name: IMP
Name: 5'-IMP
Name: I-5'-P
Name: 5'-inosinate
Name: Inosinic Acid
Name: Inosinic acid
Class: Carbohydrates
Formula: C10H13N4O8P
Exact mass: 348.2109
SMILES: O=P(O)(O)OC[C@H]1O[C@@H](n2cnc3c(O)ncnc32)[C@H](O)[C@@H]1O
InChI: InChI=1S/C10H13N4O8P/c15-6-4(1-21-23(18,19)20)22-10(7(6)16)14-3-13-5-8(14)11-2-12-9(5)17/h2-4,6-7,10,15-16H,1H2,(H,11,12,17)(H2,18,19,20)/t4-,6-,7-,10-/m1/s1
Instrument: Agilent 6410 Triple Quadrupole LC/MS system
Instrument type: LC-ESI-QQQ
Ms type: MS2
Ion mode: POSITIVE
Precursor type: [M+H]+
m/z	relative intensity
96.5	0
96.6	2
96.7	4
96.8	7
96.9	8
97.0	8
97.1	6
97.2	5
97.3	3
136.2	0
136.3	1
136.4	6
136.5	13
136.6	19
136.7	29
136.8	47
136.9	72
137.0	93
137.1	99
137.2	92
137.3	76
137.4	54
137.5	28
137.6	6
137.7	0
