Mass spectrum: Echisoside; LC-ESI-QQQ; MS2; Frag=135.0V CID@15.0; [M+H]+
Name: Echisoside
Class: Carbohydrates
Formula: C21H30O14
Exact mass: 506.4649
SMILES: COc1cc(O)c(C(C)=O)c(O[C@@H]2O[C@H](CO[C@@H]3O[C@H](CO)[C@@H](O)[C@H](O)[C@H]3O)[C@@H](O)[C@H](O)[C@H]2O)c1
InChI: InChI=1S/C21H30O14/c1-7(23)13-9(24)3-8(31-2)4-10(13)33-21-19(30)17(28)15(26)12(35-21)6-32-20-18(29)16(27)14(25)11(5-22)34-20/h3-4,11-12,14-22,24-30H,5-6H2,1-2H3/t11-,12-,14-,15-,16+,17+,18-,19-,20-,21-/m1/s1
Instrument: Agilent 6410 Triple Quadrupole LC/MS system
Instrument type: LC-ESI-QQQ
Ms type: MS2
Ion mode: POSITIVE
Precursor type: [M+H]+
m/z	relative intensity
84.4	2
84.5	4
84.6	5
84.7	6
84.8	6
84.9	4
85.0	4
85.1	3
85.2	3
85.3	2
85.4	1
85.5	1
85.6	1
85.7	1
85.8	1
85.9	1
86.0	1
86.1	1
86.2	1
86.3	1
86.4	1
86.5	1
86.6	1
86.7	1
86.8	1
86.9	1
87.0	1
87.1	1
87.2	1
87.3	1
87.4	1
87.5	1
87.6	1
87.7	0
87.8	0
87.9	1
88.0	1
88.1	1
88.2	1
88.3	1
88.4	1
88.5	1
88.6	1
88.7	1
88.8	1
88.9	1
89.0	1
89.1	1
89.2	1
89.3	1
89.4	1
89.5	0
89.6	0
89.7	0
89.8	0
89.9	1
90.0	1
90.1	1
90.2	1
90.3	1
90.4	0
90.5	0
90.6	0
90.7	0
90.8	0
90.9	1
91.0	1
91.1	1
91.2	1
91.3	1
91.4	1
91.5	1
91.6	1
91.7	1
91.8	1
91.9	1
92.0	1
92.1	1
92.2	1
92.3	1
92.4	1
92.5	1
92.6	1
92.7	1
92.8	1
92.9	1
93.0	1
93.1	1
93.2	1
93.3	1
93.4	1
93.5	1
93.6	1
93.7	1
93.8	1
93.9	1
94.0	1
94.1	1
94.2	1
94.3	1
94.4	1
94.5	1
94.6	1
94.7	0
94.8	1
94.9	1
95.0	1
95.1	1
95.2	1
95.3	1
95.4	0
95.5	1
95.6	1
95.7	1
95.8	1
95.9	1
96.0	0
96.1	0
96.2	1
96.3	1
96.4	1
96.5	1
96.6	1
96.7	1
96.8	1
96.9	1
97.0	2
97.1	2
97.2	2
97.3	1
97.4	1
97.5	0
97.6	1
97.7	1
97.8	1
97.9	1
98.0	0
98.1	0
98.2	0
98.3	1
98.4	1
98.5	1
98.6	1
98.7	1
98.8	1
98.9	1
99.0	1
99.1	1
99.2	1
99.3	1
99.4	1
99.5	1
99.6	1
99.7	1
99.8	1
99.9	1
100.0	1
100.1	1
100.2	1
100.3	0
100.4	1
100.5	1
100.6	1
100.7	1
100.8	1
100.9	1
101.0	1
101.1	1
101.2	1
101.3	1
101.4	1
101.5	1
101.6	1
101.7	0
101.8	0
101.9	0
102.0	1
102.1	1
102.2	1
102.3	1
102.4	1
102.5	1
102.6	1
102.7	1
102.8	1
102.9	1
103.0	1
103.1	1
103.2	1
103.3	1
103.4	1
103.5	1
103.6	1
103.7	0
103.8	0
103.9	0
104.0	0
104.1	1
104.2	1
104.3	0
104.4	0
104.5	0
104.6	1
104.7	1
104.8	1
104.9	1
105.0	1
105.1	1
105.2	1
105.3	1
105.4	1
105.5	1
105.6	0
105.7	0
105.8	0
105.9	0
106.0	1
106.1	1
106.2	0
106.3	0
106.4	1
106.5	1
106.6	1
106.7	1
106.8	1
106.9	1
107.0	1
107.1	1
107.2	1
107.3	1
107.4	1
107.5	1
107.6	1
107.7	1
107.8	1
107.9	1
108.0	1
108.1	1
108.2	0
108.3	0
108.4	0
108.5	1
108.6	1
108.7	1
108.8	1
108.9	1
109.0	1
109.1	0
109.2	0
109.3	0
109.4	1
109.5	1
109.6	1
109.7	1
109.8	1
109.9	1
110.0	1
110.1	1
110.2	1
110.3	1
110.4	1
110.5	1
110.6	1
110.7	1
110.8	1
110.9	1
111.0	1
111.1	1
111.2	1
111.3	1
111.4	1
111.5	1
111.6	1
111.7	1
111.8	1
111.9	0
112.0	1
112.1	1
112.2	1
112.3	1
112.4	1
112.5	1
112.6	1
112.7	1
112.8	1
112.9	1
113.0	1
113.1	1
113.2	1
113.3	1
113.4	1
113.5	1
113.6	1
113.7	1
113.8	1
113.9	1
114.0	1
114.1	1
114.2	1
114.3	1
114.4	1
114.5	1
114.6	0
114.7	0
114.8	0
114.9	0
115.0	1
115.1	1
115.2	1
115.3	1
115.4	1
115.5	1
115.6	0
115.7	0
115.8	0
115.9	1
116.0	1
116.1	1
116.2	1
116.3	1
116.4	0
116.5	0
116.6	0
116.7	1
116.8	1
116.9	1
117.0	1
117.1	0
117.2	0
117.3	1
117.4	1
117.5	0
117.6	0
117.7	0
117.8	0
117.9	1
118.0	1
118.1	1
118.2	1
118.3	1
118.4	1
118.5	1
118.6	1
118.7	1
118.8	0
118.9	0
119.0	0
119.1	0
119.2	0
119.3	0
119.4	1
119.5	1
119.6	0
119.7	0
119.8	0
119.9	1
120.0	1
120.1	1
120.2	1
120.3	1
120.4	0
120.5	0
120.6	0
120.7	1
120.8	1
120.9	0
121.0	0
121.1	0
121.2	1
121.3	1
121.4	1
121.5	1
121.6	0
121.7	0
121.8	1
121.9	1
122.0	1
122.1	1
122.2	1
122.3	1
122.4	1
122.5	1
122.6	1
122.7	1
122.8	1
122.9	1
123.0	1
123.1	1
123.2	1
123.3	1
123.4	1
123.5	1
123.6	1
123.7	1
123.8	1
123.9	1
124.0	1
124.1	0
124.2	0
124.3	1
124.4	1
124.5	1
124.6	1
124.7	1
124.8	1
124.9	1
125.0	1
125.1	1
125.2	1
125.3	1
125.4	1
125.5	1
125.6	1
125.7	1
125.8	1
125.9	1
126.0	1
126.1	0
126.2	0
126.3	0
126.4	0
126.5	0
126.6	1
126.7	2
126.8	3
126.9	4
127.0	4
127.1	3
144.5	2
144.6	3
144.7	4
144.8	6
144.9	7
145.0	7
145.1	7
145.2	6
145.3	4
145.4	3
182.3	2
182.4	5
182.5	15
182.6	33
182.7	54
182.8	70
182.9	79
183.0	85
183.1	93
183.2	99
183.3	90
183.4	61
183.5	24
183.6	0
194.6	0
194.7	2
194.8	6
194.9	12
195.0	19
195.1	22
195.2	20
195.3	13
195.4	6
195.5	2
206.2	1
206.3	2
206.4	4
206.5	9
206.6	15
206.7	23
206.8	28
206.9	30
207.0	34
207.1	42
207.2	48
207.3	42
207.4	25
207.5	7
207.6	0
224.2	1
224.3	2
224.4	5
224.5	11
224.6	23
224.7	40
224.8	60
224.9	80
225.0	94
225.1	99
225.2	94
225.3	76
225.4	49
225.5	21
225.6	3
248.2	1
248.3	4
248.4	7
248.5	10
248.6	12
248.7	17
248.8	29
248.9	45
249.0	56
249.1	58
249.2	53
249.3	42
249.4	27
249.5	11
249.6	1
260.4	1
260.5	3
260.6	6
260.7	10
260.8	16
260.9	22
261.0	29
261.1	31
261.2	25
261.3	14
261.4	5
272.4	1
272.5	3
272.6	5
272.7	7
272.8	8
272.9	8
273.0	7
273.1	8
273.2	7
273.3	7
273.4	5
273.5	3
290.4	1
290.5	2
290.6	4
290.7	8
290.8	13
290.9	19
291.0	23
291.1	20
291.2	12
291.3	4
308.3	1
308.4	2
308.5	5
308.6	8
308.7	10
308.8	13
308.9	15
309.0	16
309.1	18
309.2	21
309.3	25
309.4	22
309.5	13
309.6	4
326.5	1
326.6	2
326.7	9
326.8	21
326.9	35
327.0	43
327.1	41
327.2	32
327.3	20
327.4	10
327.5	2
