Mass spectrum: Crassicauline A; LC-ESI-QQQ; MS2; Frag=135.0V CID@25.0; [M+H]+
Name: Crassicauline A
Class: Alkaloids
Formula: C35H49NO10
Exact mass: 643.7815
SMILES: CCN1C[C@]2(COC)CCC(OC)[C@@]34C5C[C@]6(O)C(OC)C[C@@](OC(C)=O)(C5[C@H]6OC(=O)c5ccc(OC)cc5)C(C(OC)C23)[C@@H]14
InChI: InChI=1S/C35H49NO10/c1-8-36-17-32(18-40-3)14-13-23(42-5)35-22-15-33(39)24(43-6)16-34(46-19(2)37,26(29(35)36)27(44-7)28(32)35)25(22)30(33)45-31(38)20-9-11-21(41-4)12-10-20/h9-12,22-30,39H,8,13-18H2,1-7H3/t22?,23?,24?,25?,26?,27?,28?,29-,30-,32+,33+,34-,35+/m1/s1
Instrument: Agilent 6410 Triple Quadrupole LC/MS system
Instrument type: LC-ESI-QQQ
Ms type: MS2
Ion mode: POSITIVE
Precursor type: [M+H]+
m/z	relative intensity
551.8	1
551.9	2
552.0	4
552.1	5
552.2	5
552.3	5
552.4	5
552.5	4
552.6	3
583.5	0
583.6	2
583.7	4
583.8	7
583.9	11
584.0	16
584.1	20
584.2	22
584.3	23
584.4	23
584.5	21
584.6	15
584.7	8
584.8	2
643.3	0
643.4	2
643.5	4
643.6	8
643.7	14
643.8	25
643.9	40
644.0	59
644.1	77
644.2	90
644.3	97
644.4	99
644.5	94
644.6	76
644.7	49
644.8	21
644.9	3
