Mass spectrum: 2-dimethylaminoethyl cinnamate; LC-ESI-QQQ; MS2; Frag=135.0V CID@25.0; [M+H]+
Name: 2-dimethylaminoethyl cinnamate
Class: Carbohydrates
Formula: C13H17NO2
Exact mass: 219.2859
SMILES: CN(C)CCOC(=O)/C=C/c1ccccc1
InChI: InChI=1S/C13H17NO2/c1-14(2)10-11-16-13(15)9-8-12-6-4-3-5-7-12/h3-9H,10-11H2,1-2H3/b9-8+
Instrument: Agilent 6410 Triple Quadrupole LC/MS system
Instrument type: LC-ESI-QQQ
Ms type: MS2
Ion mode: POSITIVE
Precursor type: [M+H]+
m/z	relative intensity
69.7	2
69.8	3
69.9	5
70.0	6
70.1	7
70.2	6
70.3	5
70.4	3
71.3	1
71.4	3
71.5	9
71.6	19
71.7	35
71.8	56
71.9	77
72.0	92
72.1	99
72.2	99
72.3	89
72.4	68
72.5	40
72.6	14
72.7	0
102.3	0
102.4	3
102.5	9
102.6	19
102.7	32
102.8	46
102.9	59
103.0	67
103.1	70
103.2	67
103.3	59
103.4	45
103.5	25
103.6	8
103.7	0
130.3	1
130.4	3
130.5	9
130.6	19
130.7	32
130.8	48
130.9	63
131.0	74
131.1	77
131.2	71
131.3	60
131.4	43
131.5	23
131.6	7
131.7	0
174.5	1
174.6	3
174.7	5
174.8	7
174.9	10
175.0	13
175.1	15
175.2	15
175.3	13
175.4	9
175.5	4
175.6	1
