Mass spectrum: Alloside B; LC-ESI-QQQ; MS2;  Frag=135.0V CID@25.0 ; [M+HCOO]-
Name: Alloside B
Class: Steroids
Formula: C39H66O14
Exact mass: 758.95247
SMILES: CC(C)CCC(O)[C@@H](C)C1C(O[C@@H]2OC(CO)[C@@H](O)C(O)C2O)CC2C3CC=C4C[C@@H](O)CC(O[C@@H]5OC(CO)[C@@H](O)C(O)C5O)[C@]4(C)C3CC[C@@]21C
InChI: InChI=1S/C39H66O14/c1-17(2)6-9-24(43)18(3)29-25(50-36-34(48)32(46)30(44)26(15-40)51-36)14-23-21-8-7-19-12-20(42)13-28(39(19,5)22(21)10-11-38(23,29)4)53-37-35(49)33(47)31(45)27(16-41)52-37/h7,17-18,20-37,40-49H,6,8-16H2,1-5H3/t18-,20-,21?,22?,23?,24?,25?,26?,27?,28?,29?,30-,31-,32?,33?,34?,35?,36-,37+,38+,39+/m1/s1
Instrument: Agilent 6410 Triple Quadrupole LC/MS system
Instrument type: LC-ESI-QQQ
Ms type: MS2
Ion mode: NEGATIVE
Precursor type: [M+HCOO]-
m/z	relative intensity
160.3	2
160.4	3
160.5	3
160.6	4
160.7	3
160.8	2
594.4	2
594.5	3
594.6	5
594.7	9
594.8	15
594.9	21
595.0	26
595.1	26
595.2	22
595.3	19
595.4	18
595.5	17
595.6	13
595.7	7
595.8	2
756.1	1
756.2	2
756.3	3
756.4	6
756.5	10
756.6	15
756.7	24
756.8	39
756.9	56
757.0	68
757.1	75
757.2	82
757.3	92
757.4	99
757.5	96
757.6	75
757.7	42
757.8	13
757.9	0
802.4	2
802.5	3
802.6	4
802.7	5
802.8	5
802.9	5
803.0	4
803.1	4
803.2	5
803.3	7
803.4	8
803.5	7
803.6	5
803.7	2
