Mass spectrum: astragaloside IV; LC-ESI-QQQ; MS2; Frag=135.0V CID@15.0; [M+HCOO]-
Name: astragaloside IV
Class: Terpenoids
Formula: C41H68O14
Exact mass: 784.9907
SMILES: CC1(C)C(OC2OCC(O)C(O)C2O)CC[C@]23C[C@]24CC[C@]2(C)C([C@@]5(C)CC[C@@H](C(C)(C)O)O5)[C@@H](O)C[C@@]2(C)C4C[C@H](OC2OC(CO)C(O)C(O)C2O)C13
InChI: InChI=1S/C41H68O14/c1-35(2)24(54-33-29(48)26(45)20(44)17-51-33)9-11-41-18-40(41)13-12-37(5)31(39(7)10-8-25(55-39)36(3,4)50)19(43)15-38(37,6)23(40)14-21(32(35)41)52-34-30(49)28(47)27(46)22(16-42)53-34/h19-34,42-50H,8-18H2,1-7H3/t19-,20?,21-,22?,23?,24?,25-,26?,27?,28?,29?,30?,31?,32?,33?,34?,37+,38-,39+,40-,41+/m0/s1
Instrument: Agilent 6410 Triple Quadrupole LC/MS system
Instrument type: LC-ESI-QQQ
Ms type: MS2
Ion mode: NEGATIVE
Precursor type: [M+HCOO]-
m/z	relative intensity
828.1	0
828.2	2
828.3	4
828.4	7
828.5	11
828.6	17
828.7	24
828.8	31
828.9	38
829.0	45
829.1	56
829.2	72
829.3	90
829.4	99
829.5	89
829.6	59
829.7	26
829.8	4
829.9	0
