Mass spectrum: 1alpha-Hydroxy-1-desoxotamirin; LC-ESI-QQQ; MS2; Frag=135.0V CID@5.0; [M+H]+
Name: 1alpha-Hydroxy-1-desoxotamirin
Class: Terpenoids
Formula: C15H20O4
Exact mass: 264.3243
SMILES: C=C1C(=O)O[C@H]2CC(=C)[C@@H](O)CC/C(C)=C/[C@@H](O)C12
InChI: InChI=1S/C15H20O4/c1-8-4-5-11(16)9(2)7-13-14(12(17)6-8)10(3)15(18)19-13/h6,11-14,16-17H,2-5,7H2,1H3/b8-6+/t11-,12+,13-,14?/m0/s1
Instrument: Agilent 6410 Triple Quadrupole LC/MS system
Instrument type: LC-ESI-QQQ
Ms type: MS2
Ion mode: POSITIVE
Precursor type: [M+H]+
m/z	relative intensity
80.7	2
80.8	4
80.9	7
81.0	11
81.1	12
81.2	11
81.3	7
81.4	3
90.7	1
90.8	3
90.9	5
91.0	6
91.1	6
91.2	4
91.3	2
92.5	2
92.6	3
92.7	4
92.8	5
92.9	6
93.0	5
93.1	4
93.2	3
93.3	3
93.4	2
94.7	0
94.8	2
94.9	4
95.0	5
95.1	6
95.2	5
95.3	3
96.5	1
96.6	2
96.7	3
96.8	4
96.9	3
97.0	3
97.1	3
97.2	3
97.3	2
104.7	1
104.8	3
104.9	6
105.0	8
105.1	8
105.2	6
105.3	4
105.4	2
106.3	1
106.4	2
106.5	3
106.6	5
106.7	6
106.8	5
106.9	4
107.0	4
107.1	5
107.2	5
107.3	4
107.4	3
122.4	1
122.5	3
122.6	5
122.7	8
122.8	10
122.9	12
123.0	12
123.1	12
123.2	11
123.3	9
123.4	6
123.5	3
130.5	1
130.6	3
130.7	5
130.8	6
130.9	7
131.0	7
131.1	6
131.2	4
131.3	3
132.4	1
132.5	3
132.6	5
132.7	11
132.8	20
132.9	31
133.0	42
133.1	52
133.2	55
133.3	48
133.4	32
133.5	14
133.6	2
142.4	0
142.5	2
142.6	4
142.7	6
142.8	8
142.9	11
143.0	13
143.1	14
143.2	13
143.3	9
143.4	5
143.5	2
144.3	1
144.4	2
144.5	3
144.6	3
144.7	3
144.8	3
144.9	4
145.0	4
145.1	4
145.2	4
145.3	4
145.4	3
145.5	2
150.4	0
150.5	2
150.6	5
150.7	10
150.8	17
150.9	26
151.0	34
151.1	40
151.2	40
151.3	35
151.4	25
151.5	12
151.6	2
156.5	0
156.6	1
156.7	4
156.8	7
156.9	9
157.0	9
157.1	8
157.2	7
157.3	6
157.4	5
157.5	2
158.5	1
158.6	3
158.7	4
158.8	4
158.9	4
159.0	4
159.1	4
159.2	4
159.3	4
159.4	2
160.5	1
160.6	3
160.7	4
160.8	4
160.9	3
172.4	0
172.5	2
172.6	5
172.7	9
172.8	13
172.9	18
173.0	21
173.1	21
173.2	19
173.3	16
173.4	11
173.5	6
173.6	2
182.3	0
182.4	3
182.5	7
182.6	11
182.7	17
182.8	22
182.9	30
183.0	38
183.1	44
183.2	46
183.3	44
183.4	35
183.5	21
183.6	7
183.7	0
184.7	2
184.8	3
184.9	4
185.0	5
185.1	6
185.2	6
185.3	5
185.4	3
188.5	1
188.6	2
188.7	5
188.8	7
188.9	7
189.0	6
189.1	5
189.2	5
189.3	5
189.4	3
192.8	1
192.9	3
193.0	4
193.1	5
193.2	3
200.3	0
200.4	0
200.5	6
200.6	20
200.7	38
200.8	56
200.9	70
201.0	80
201.1	87
201.2	90
201.3	88
201.4	76
201.5	52
201.6	22
201.7	2
202.6	0
202.7	2
202.8	4
202.9	5
203.0	4
203.1	3
210.6	1
210.7	3
210.8	8
210.9	13
211.0	18
211.1	20
211.2	18
211.3	13
211.4	7
211.5	1
218.3	0
218.4	2
218.5	5
218.6	8
218.7	11
218.8	16
218.9	22
219.0	27
219.1	32
219.2	35
219.3	33
219.4	24
219.5	11
219.6	1
228.3	0
228.4	3
228.5	9
228.6	19
228.7	33
228.8	48
228.9	62
229.0	76
229.1	91
229.2	99
229.3	94
229.4	73
229.5	41
229.6	13
229.7	0
246.2	1
246.3	2
246.4	4
246.5	8
246.6	14
246.7	23
246.8	35
246.9	52
247.0	69
247.1	79
247.2	76
247.3	62
247.4	41
247.5	19
247.6	4
264.6	1
264.7	3
264.8	11
264.9	24
265.0	39
265.1	50
265.2	53
265.3	51
265.4	43
265.5	29
265.6	12
265.7	0
