Mass spectrum: Confoline; LC-ESI-QQQ; MS2; Frag=135.0V CID@25.0; [M+H]+
Name: Confoline
Class: Alkaloids
Formula: C17H21NO5
Exact mass: 319.3606
SMILES: COc1ccc(C(=O)OC2C[C@@H]3CC[C@H](C2)N3C=O)cc1OC
InChI: InChI=1S/C17H21NO5/c1-21-15-6-3-11(7-16(15)22-2)17(20)23-14-8-12-4-5-13(9-14)18(12)10-19/h3,6-7,10,12-14H,4-5,8-9H2,1-2H3/t12-,13+,14?
Instrument: Agilent 6410 Triple Quadrupole LC/MS system
Instrument type: LC-ESI-QQQ
Ms type: MS2
Ion mode: POSITIVE
Precursor type: [M+H]+
m/z	relative intensity
54.7	2
54.8	3
54.9	4
55.0	5
55.1	5
55.2	4
55.3	3
66.4	1
66.5	2
66.6	4
66.7	6
66.8	10
66.9	13
67.0	16
67.1	17
67.2	16
67.3	14
67.4	11
67.7	8
67.8	13
67.9	19
68.0	23
68.1	24
68.2	23
68.3	19
68.4	13
68.5	7
68.6	1
76.6	2
76.7	3
76.8	5
76.9	6
77.0	7
77.1	7
77.2	6
77.3	5
77.4	3
77.5	1
81.3	2
81.4	3
81.5	5
81.6	9
81.7	14
81.8	23
81.9	32
82.0	40
82.1	43
82.2	43
82.3	38
82.4	28
82.5	16
82.6	6
82.7	0
90.5	1
90.6	3
90.7	5
90.8	7
90.9	10
91.0	13
91.1	14
91.2	14
91.3	12
91.4	8
91.5	4
91.6	1
92.2	0
92.3	1
92.4	5
92.5	12
92.6	22
92.7	36
92.8	55
92.9	76
93.0	93
93.1	99
93.2	95
93.3	81
93.4	59
93.5	32
93.6	9
93.7	0
109.3	1
109.4	2
109.5	6
109.6	14
109.7	26
109.8	45
109.9	66
110.0	81
110.1	86
110.2	82
110.3	71
110.4	55
110.5	34
110.6	13
110.7	1
123.6	2
123.7	3
123.8	5
123.9	7
124.0	8
124.1	9
124.2	8
124.3	7
124.4	4
124.5	2
137.3	1
137.4	3
137.5	7
137.6	15
137.7	25
137.8	40
137.9	56
138.0	69
138.1	75
138.2	72
138.3	63
138.4	49
138.5	33
138.6	18
138.8	15
138.9	24
139.0	34
139.1	38
139.2	37
139.3	31
139.4	22
139.5	12
139.6	3
164.7	2
164.8	3
164.9	4
165.0	5
165.1	6
165.2	6
165.3	5
165.4	3
165.5	1
