Mass spectrum: 8-hydroxy-2-oxo-1(10),3-guaiadiene-12,6-olide, Ac; LC-ESI-QQQ; MS2; Frag=135.0V CID@5.0; [M+H]+
Name: 8-hydroxy-2-oxo-1(10),3-guaiadiene-12,6-olide, Ac
Class: Terpenoids
Formula: C17H20O5
Exact mass: 304.346
SMILES: CC(=O)O[C@H]1CC(C)=C2C(=O)C=C(C)[C@@H]2[C@H]2OC(=O)[C@@H](C)C12
InChI: InChI=1S/C17H20O5/c1-7-5-11(19)13-8(2)6-12(21-10(4)18)15-9(3)17(20)22-16(15)14(7)13/h5,9,12,14-16H,6H2,1-4H3/t9-,12-,14-,15?,16+/m0/s1
Instrument: Agilent 6410 Triple Quadrupole LC/MS system
Instrument type: LC-ESI-QQQ
Ms type: MS2
Ion mode: POSITIVE
Precursor type: [M+H]+
m/z	relative intensity
244.3	0
244.4	2
244.5	7
244.6	14
244.7	26
244.8	44
244.9	65
245.0	85
245.1	98
245.2	99
245.3	90
245.4	69
245.5	41
245.6	15
245.7	0
304.6	1
304.7	3
304.8	5
304.9	8
305.0	11
305.1	12
305.2	13
305.3	13
305.4	10
305.5	6
305.6	2
