Mass spectrum: Ergocalciferol; LC-ESI-QQQ; MS2; Frag=135.0V CID@25.0; [M+H]+
Name: Vitamin D2
Name: Ergocalciferol
Name: Viosterin
Name: Osteil
Name: Viosterol
Name: Ercalciol
Name: Irradiated ergosterol
Name: Condacaps
Name: Condocaps
Name: Condol
Name: Crtron
Name: Crystallina
Name: Daral
Name: (5Z,7E,22E)-(3S)-9,10-Secoergosta-5,7,10(19),22-tetraen-3-ol
Name: Davitin
Name: Deltalin
Name: Deratol
Name: Diactol
Name: Drisdol
Name: Ergorone
Name: Ertron
Name: Fortodyl
Name: Geltabs
Name: Hyperkil
Name: Irradiated ergosta-5,7,22-trien-3-beta-ol
Name: Metadee
Name: Mulsiferol
Name: Mykostin
Name: Oleovitamin D2
Name: Ostelin
Name: Rodinec
Name: Radsterin
Name: Sterogyl
Name: Vigantol
Class: Steroids
Formula: C28H44O
Exact mass: 396.6623
SMILES: C=C1CC[C@H](O)C/C1=C/C=C1\CCC[C@@]2(C)C1CCC2[C@H](C)/C=C/[C@H](C)C(C)C
InChI: InChI=1S/C28H44O/c1-19(2)20(3)9-10-22(5)26-15-16-27-23(8-7-17-28(26,27)6)12-13-24-18-25(29)14-11-21(24)4/h9-10,12-13,19-20,22,25-27,29H,4,7-8,11,14-18H2,1-3,5-6H3/b10-9+,23-12+,24-13-/t20-,22+,25-,26?,27?,28+/m0/s1
Instrument: Agilent 6410 Triple Quadrupole LC/MS system
Instrument type: LC-ESI-QQQ
Ms type: MS2
Ion mode: POSITIVE
Precursor type: [M+H]+
m/z	relative intensity
54.6	3
54.7	6
54.8	9
54.9	10
55.0	9
55.1	6
55.9	2
56.0	5
56.1	10
56.2	14
56.3	15
56.4	11
56.7	7
56.8	12
56.9	16
57.0	18
57.1	15
57.2	10
57.3	6
66.8	5
66.9	6
67.0	9
67.1	10
67.2	9
67.3	5
68.3	2
68.4	4
68.5	11
68.6	24
68.7	43
68.8	65
68.9	83
69.0	94
69.1	97
69.2	89
69.3	66
69.4	35
69.5	10
69.6	1
80.3	2
80.4	4
80.5	7
80.6	13
80.7	22
80.8	34
80.9	43
81.0	43
81.1	34
81.2	20
81.3	10
81.4	4
82.6	4
82.7	7
82.8	13
82.9	20
83.0	25
83.1	24
83.2	18
83.3	9
83.4	4
90.8	4
90.9	5
91.0	8
91.1	12
91.2	15
91.3	14
91.4	9
91.5	4
92.5	3
92.6	4
92.7	7
92.8	12
92.9	18
93.0	23
93.1	22
93.2	16
93.3	8
93.4	2
94.3	2
94.4	4
94.5	8
94.6	15
94.7	28
94.8	48
94.9	64
95.0	63
95.1	41
95.2	16
95.3	1
106.5	1
106.6	2
106.7	7
106.8	21
106.9	42
107.0	61
107.1	66
107.2	55
107.3	35
107.4	16
107.5	5
108.1	4
108.2	6
108.3	11
108.4	17
108.5	20
108.6	19
108.7	14
108.8	9
116.5	3
116.6	6
116.7	11
116.8	20
116.9	26
117.0	25
117.1	16
117.2	6
120.3	3
120.4	4
120.5	8
120.6	15
120.7	20
120.8	20
120.9	15
130.3	3
130.4	4
130.5	8
130.6	15
130.7	25
130.8	31
130.9	30
131.0	21
131.1	12
131.2	6
132.7	2
132.8	5
132.9	12
133.0	22
133.1	33
133.2	36
133.3	28
133.4	16
133.5	6
144.6	6
144.7	8
144.8	10
144.9	10
146.2	4
146.3	4
146.4	7
146.5	14
146.6	21
146.7	25
146.8	24
146.9	21
147.0	17
147.1	14
147.2	12
147.3	9
147.4	6
148.5	3
148.6	5
148.7	11
148.8	21
148.9	27
149.0	24
149.1	14
149.2	4
158.4	1
158.5	3
158.6	13
158.7	35
158.8	61
158.9	75
159.0	67
159.1	44
159.2	25
159.3	17
159.4	16
159.5	14
159.6	9
159.7	4
160.5	4
160.6	6
160.7	10
160.8	15
160.9	19
161.0	19
161.1	15
161.2	10
161.3	6
172.3	2
172.4	4
172.5	9
172.6	15
172.7	19
172.8	18
172.9	15
173.0	12
173.1	10
173.2	8
173.3	6
174.8	4
174.9	6
175.0	9
175.1	11
175.2	11
175.3	8
175.4	4
186.4	2
186.5	4
186.6	7
186.7	10
186.8	15
186.9	16
187.0	14
187.1	8
187.2	3
212.6	2
212.7	5
212.8	13
212.9	22
213.0	26
213.1	24
213.2	19
213.3	13
213.4	9
213.5	6
242.2	3
242.3	5
242.4	6
242.5	6
252.8	2
252.9	4
253.0	8
253.1	13
253.2	14
253.3	11
253.4	5
