Mass spectrum: PE(18:1/8-HEPE); LC-ESI-QTOF; MS2
Name: PE(18:1/8-HEPE)
Class: Oxidized Phospholipid
Formula: C43H74NO9P
Exact mass: 780.039
SMILES: CCCCCCCC\C=C/CCCCCCCC(=O)OCC(COP(O)(=O)OCCN)OC(=O)CCC\C=C/CC(O)\C=C\C=C/C\C=C/C\C=C/CC
InChI: InChI=1S/C43H74NO9P/c1-3-5-7-9-11-13-15-16-17-18-19-21-23-25-30-34-42(46)50-38-41(39-52-54(48,49)51-37-36-44)53-43(47)35-31-27-26-29-33-40(45)32-28-24-22-20-14-12-10-8-6-4-2/h6,8,12,14,16-17,22,24,26,28-29,32,40-41,45H,3-5,7,9-11,13,15,18-21,23,25,27,30-31,33-39,44H2,1-2H3,(H,48,49)/b8-6-,14-12-,17-16-,24-22-,29-26-,32-28+
Instrument: Acquity UPLC Peptide BEH C18 column (50 x 2.1 mm; 1.7 um), Sciex TripleTOF5600
Instrument type: LC-ESI-QTOF
Ms type: MS2
Ion mode: NEGATIVE
Collision energy: 30-50
Precursor m/z: 778.5028435
Precursor type: [M-H]-
m/z	relative intensity
78.95786	15
78.95912	23
78.96288	23
78.96413	15
127.0687	23
127.0735	23
127.0751	15
127.0767	30
127.0814	23
127.083	23
140.0061	15
140.0094	23
140.0128	15
140.0145	15
140.0161	15
149.1356	15
153.0011	23
155.0569	23
155.0587	15
155.0604	15
155.0622	47
155.0639	38
155.0657	92
155.0674	54
155.0692	77
155.071	139
155.0727	85
155.0745	92
155.0762	85
155.078	38
155.0797	54
155.0815	30
155.0833	15
161.1239	30
161.1257	23
161.1275	30
161.1293	38
161.1311	23
161.1329	38
161.1347	15
161.1365	54
161.1383	38
161.1418	15
161.1436	15
163.1451	23
163.1649	15
163.1703	15
187.1542	15
190.1386	15
196.0321	15
196.034	47
196.038	62
196.04	38
196.0419	47
196.0439	15
196.0459	30
201.158	23
201.16	15
201.164	30
201.166	23
201.168	23
227.1992	23
255.1899	15
255.1922	23
255.1944	15
255.1967	54
255.1989	54
255.2012	54
255.2034	62
255.2057	115
255.2079	77
255.2102	192
255.2125	177
255.2147	209
255.217	92
255.2192	100
255.2215	85
255.2237	47
255.226	30
255.2282	47
255.2305	15
255.2327	15
255.235	30
273.2136	15
273.216	23
273.2206	15
273.223	15
273.2276	15
273.2299	15
273.2323	15
273.2486	15
280.3614	15
280.3732	15
280.3802	15
280.385	32
281.0989	15
281.222	15
281.2244	32
281.2267	54
281.2291	79
281.2314	64
281.2338	173
281.2362	285
281.2385	341
281.2409	436
281.2433	596
281.2456	534
281.248	630
281.2504	613
281.2527	566
281.2551	462
281.2575	407
281.2598	327
281.2622	135
281.2646	88
281.2669	136
281.2693	71
281.2717	47
281.2764	24
282.2569	15
282.819	15
298.275	15
299.1772	15
299.1821	15
299.187	30
299.1895	54
299.1919	92
299.1943	132
299.1968	132
299.1992	107
299.2017	154
299.2041	162
299.2065	139
299.209	115
299.2114	100
299.2139	85
299.2163	38
299.2188	47
299.2236	30
299.2285	15
317.1879	30
317.1904	15
317.1929	47
317.1954	92
317.1979	92
317.2004	147
317.2029	239
317.2055	262
317.208	286
317.2105	279
317.213	269
317.2155	254
317.218	232
317.2206	201
317.2231	216
317.2256	115
317.2281	70
317.2306	54
317.2356	23
317.2381	15
317.2432	23
460.2536	23
460.2596	15
460.2778	15
460.2808	23
460.2839	15
460.2869	15
460.296	15
460.299	15
478.2585	15
478.2708	38
478.2739	54
478.277	23
478.2801	30
478.2832	77
478.2863	124
478.2894	70
478.2924	139
478.2955	70
478.2986	70
478.3017	70
478.3048	100
478.3079	100
478.311	47
478.314	77
478.3171	15
478.3233	15
478.3264	15
478.3295	23
478.3387	23
496.241	15
496.2442	15
496.2536	15
496.2787	15
514.2162	15
514.2482	23
514.2578	15
514.261	23
514.277	15
691.4442	15
691.459	15
704.5245	23
704.547	15
704.5657	15
704.5695	15
718.5593	23
760.4937	15
760.4976	15
776.1531	17
778.4111	15
778.4269	15
778.4308	23
778.4387	47
778.4426	23
778.4465	23
778.4505	39
778.4544	88
778.4583	133
778.4623	142
778.4662	189
778.4702	257
778.4741	280
778.478	431
778.4819	481
778.4859	459
778.4899	751
778.4938	636
778.4977	840
778.5016	668
778.5056	919
778.5095	836
778.5135	885
778.5174	999
778.5213	767
778.5253	790
778.5292	748
778.5331	690
778.5371	525
778.541	418
778.5449	359
778.5489	251
778.5529	233
778.5568	135
778.5607	144
778.5646	65
778.5686	50
778.5725	42
778.5804	18
778.5843	9
778.5922	26
779.4704	15
779.4744	15
779.4861	15
779.498	15
779.5019	15
779.5059	15
779.5216	15
779.5256	23
779.5453	47
