Mass spectrum: PG 40:5; LC-ESI-QTOF; MS2
Name: PG 40:5
Class: PG
Formula: C46H81O10P
Exact mass: 825.12
SMILES: CCCCCCCC\C=C/CCCCCCCC(=O)OCC(COP(O)(=O)OCC(O)CO)OC(=O)CCCCCCCC\C=C/C\C=C/C\C=C/C\C=C/CC
InChI: InChI=1S/C46H81O10P/c1-3-5-7-9-11-13-15-17-19-20-21-22-24-26-28-30-32-34-36-38-46(50)56-44(42-55-57(51,52)54-40-43(48)39-47)41-53-45(49)37-35-33-31-29-27-25-23-18-16-14-12-10-8-6-4-2/h5,7,11,13,17-19,21-23,43-44,47-48H,3-4,6,8-10,12,14-16,20,24-42H2,1-2H3,(H,51,52)/b7-5-,13-11-,19-17-,22-21-,23-18-
Instrument: AB Sciex TripleTOF 5600+ system (Q-TOF) equipped with a DuoSpray ion source
Instrument type: LC-ESI-QTOF
Ms type: MS2
Ion mode: NEGATIVE
Collision energy: 45V
Column name: Acquity UPLC Peptide BEH C18 column (50*2.1 mm; 1.7 um; 130A)(Waters Co.,Milford, MA, USA)
Retention time: 8.419072
Precursor type: [M-H]-
Precursor m/z: 823.5513
m/z	relative intensity
152.99	17
233.236	5
280.373	13
281.249	771
283.273	9
285.262	6
287.267	26
303.239	6
309.277	11
329.246	7
330.225	8
331.262	757
332.27	5
388.184	3
417.246	3
435.247	6
467.271	4
485.248	3
491.29	4
509.278	17
541.293	9
559.301	11
613.366	3
659.487	6
697.012	3
737.479	3
823.46	12
823.49	31
823.55	999
823.616	11
