Mass spectrum: PE(16:0/17-HDoHE); LC-ESI-QTOF; MS2
Name: PE(16:0/17-HDoHE)
Class: Oxidized Phospholipid
Formula: C43H74NO9P
Exact mass: 780.039
SMILES: CCCCCCCCCCCCCCCC(=O)OCC(COP(O)(=O)OCCN)OC(=O)CC\C=C/C\C=C/C\C=C/C\C=C/C=C\C(O)C\C=C/CC
InChI: InChI=1S/C43H74NO9P/c1-3-5-7-8-9-10-11-13-17-20-23-26-30-34-42(46)50-38-41(39-52-54(48,49)51-37-36-44)53-43(47)35-31-27-24-21-18-15-12-14-16-19-22-25-29-33-40(45)32-28-6-4-2/h6,14-16,18,22,24-25,27-29,33,40-41,45H,3-5,7-13,17,19-21,23,26,30-32,34-39,44H2,1-2H3,(H,48,49)/b16-14-,18-15-,25-22-,27-24-,28-6-,33-29-
Instrument: Acquity UPLC Peptide BEH C18 column (50 x 2.1 mm; 1.7 um), Sciex TripleTOF5600
Instrument type: LC-ESI-QTOF
Ms type: MS2
Ion mode: NEGATIVE
Collision energy: 30-50
Precursor m/z: 778.5028435
Precursor type: [M-H]-
m/z	relative intensity
196.0384	114
196.0403	79
201.1604	159
201.1644	79
201.1684	114
227.1868	159
227.2017	79
227.2038	79
227.2059	114
245.1526	159
245.1592	79
245.1614	79
255.2173	227
255.2196	159
255.2218	114
255.2241	272
255.2263	420
255.2286	352
255.2308	500
255.2331	307
255.2353	307
255.2376	193
255.2399	352
255.2421	352
255.2444	79
255.2466	193
281.2152	79
281.2223	114
281.2247	114
281.2294	79
281.2318	79
281.2436	79
325.2091	114
325.2142	79
325.2193	193
325.2219	159
343.2068	114
343.212	114
343.2146	114
343.2173	227
343.2225	227
343.2251	159
343.2277	79
343.2303	272
343.2329	272
343.2356	79
343.2382	159
343.2408	114
343.2434	227
343.246	79
452.27	114
452.273	79
452.276	79
452.279	114
452.282	79
452.288	159
452.297	79
628.5351	79
691.455	79
704.453	79
704.5204	79
778.4067	79
778.446	159
778.4539	79
778.4578	227
778.4618	227
778.4657	352
778.4697	307
778.4736	386
778.4775	579
778.4814	545
778.4854	738
778.4893	500
778.4933	692
778.4972	738
778.5012	613
778.5051	999
778.509	692
778.5129	692
778.5169	806
778.5208	579
778.5248	579
778.5287	545
778.5327	386
778.5366	227
778.5405	227
778.5444	227
778.5484	114
778.5523	272
778.5563	272
778.5602	79
778.5641	114
779.4384	79
779.4778	114
779.4896	79
