Mass spectrum: PE(16:1e/14-HDoHE); LC-ESI-QTOF; MS2
Name: PE(16:1e/14-HDoHE)
Class: Oxidized Phospholipid
Formula: C43H74NO8P
Exact mass: 764.04
SMILES: CCCCCCCCCCCCCC\C=C/OCC(COP(O)(=O)OCCN)OC(=O)CC\C=C/C\C=C/C\C=C/C=C/C(O)C\C=C/C\C=C/CC
InChI: InChI=1S/C43H74NO8P/c1-3-5-7-9-11-12-13-14-15-18-21-24-28-32-37-49-39-42(40-51-53(47,48)50-38-36-44)52-43(46)35-31-27-23-20-17-16-19-22-26-30-34-41(45)33-29-25-10-8-6-4-2/h6,8,16-17,22-23,25-27,29-30,32,34,37,41-42,45H,3-5,7,9-15,18-21,24,28,31,33,35-36,38-40,44H2,1-2H3,(H,47,48)/b8-6-,17-16-,26-22-,27-23-,29-25-,34-30+,37-32-
Instrument: Acquity UPLC Peptide BEH C18 column (50 x 2.1 mm; 1.7 um), Sciex TripleTOF5600
Instrument type: LC-ESI-QTOF
Ms type: MS2
Ion mode: NEGATIVE
Collision energy: 30-50
Precursor m/z: 762.5079288
Precursor type: [M-H]-
m/z	relative intensity
78.95452	5
78.95578	4
78.95703	6
78.95828	10
78.95954	19
78.96079	14
78.96204	9
78.9633	12
78.96455	12
78.96581	11
78.96706	6
78.96831	3
78.96957	3
78.97082	2
78.97208	5
81.07103	2
81.07611	2
81.07865	2
93.06855	2
93.06991	2
93.07263	2
93.07399	3
93.07536	3
93.07808	2
95.04586	2
95.05274	2
95.08575	2
95.0885	6
95.08988	2
95.09126	3
95.09263	3
95.09676	2
96.9703	2
96.97307	2
105.0676	2
105.0691	3
105.0705	2
105.0734	2
107.0803	7
107.0817	8
107.0832	15
107.0847	18
107.0861	19
107.0876	21
107.089	25
107.0905	15
107.092	10
107.0934	8
107.0949	7
107.0963	6
107.0978	2
107.0993	3
107.1022	2
108.0564	2
108.0593	3
109.0943	3
109.0958	5
109.0973	6
109.0987	14
109.1002	19
109.1017	12
109.1032	14
109.1046	14
109.1061	9
109.1076	11
109.1091	5
109.1105	7
109.112	4
109.1135	3
109.115	2
111.0781	2
117.0678	2
119.0839	4
119.0855	7
119.087	3
119.0901	2
119.0916	2
119.0962	2
121.0583	2
121.0598	2
121.0614	5
121.0629	3
121.0645	2
121.066	2
121.0676	7
121.0691	4
121.0707	5
121.0738	2
121.0753	2
121.094	3
121.0971	2
121.0986	5
121.1002	2
121.1017	2
121.1033	7
121.1048	4
121.1079	2
121.1095	5
121.9993	2
122.0009	2
122.0024	3
122.004	2
127.0771	2
131.083	4
131.0846	2
131.0862	3
133.0694	2
133.0938	2
133.0954	2
133.097	6
133.0987	3
133.1003	6
133.1019	3
133.1035	11
133.1052	14
133.1068	4
133.1084	3
133.1117	6
133.1198	2
134.0657	2
134.0739	2
135.1133	5
135.115	5
135.1166	6
135.1182	8
135.1199	5
135.1215	6
135.1232	3
135.1264	3
136.9977	2
137.001	2
137.0869	5
137.0919	5
137.0935	7
137.0952	12
137.0968	7
137.0985	7
137.1001	3
137.1018	7
137.1035	4
137.1051	4
139.0898	2
140.0016	2
140.0032	2
140.0049	8
140.0066	10
140.0082	15
140.0099	28
140.0116	28
140.0132	25
140.0149	27
140.0166	21
140.0182	11
140.0199	7
140.0216	3
140.0233	2
143.0835	2
143.0852	2
143.0869	2
145.1007	2
145.1041	2
147.108	2
147.1132	2
147.1149	4
147.1166	2
147.1183	8
147.12	3
147.1251	3
147.1269	4
149.0637	2
149.1274	2
149.1326	2
149.1378	3
149.1395	3
149.1447	3
151.0756	3
151.0791	2
151.0826	2
151.1034	2
151.1069	8
151.1103	2
151.112	6
151.1138	9
151.1155	3
151.1172	3
151.119	5
151.1225	3
151.1242	2
151.1294	2
152.9911	2
153.0941	2
153.1237	2
153.1255	2
153.1272	2
153.1307	2
159.1158	3
159.1176	2
159.1194	2
159.1212	2
159.1229	7
159.1247	4
160.6322	3
160.6394	2
161.1136	2
161.1154	2
161.1172	3
161.119	4
161.1208	6
161.1226	12
161.1244	23
161.1262	31
161.128	44
161.1298	69
161.1316	67
161.1333	59
161.1351	53
161.1369	52
161.1387	33
161.1405	27
161.1423	24
161.1441	14
161.1459	10
161.1477	4
161.1495	6
161.1513	2
161.153	2
163.0104	2
163.0122	2
163.023	2
163.0249	2
163.0699	3
163.0825	2
163.0843	2
163.1402	2
163.142	2
163.1438	2
163.1474	3
163.1492	3
163.151	3
163.1528	4
165.0978	3
166.0237	2
166.0273	2
166.0309	2
166.0327	3
167.1071	2
168.0387	2
168.046	2
169.0498	2
171.1163	2
173.1266	3
173.1303	3
173.1321	4
173.134	2
173.1358	6
173.1396	5
175.1411	3
175.143	5
175.1449	3
175.1467	6
175.1486	3
175.1523	3
175.1542	2
177.0885	3
177.0904	2
177.0922	5
177.096	4
177.1185	2
177.1242	2
177.126	3
177.1298	3
177.1335	3
178.0248	3
178.0267	3
178.0304	3
179.024	3
179.0258	3
179.0277	5
179.0296	3
179.0315	2
179.0334	8
179.041	4
179.0428	2
179.0447	4
179.0523	3
179.0995	3
179.1033	2
179.1373	2
179.1391	2
179.1448	2
179.1467	2
180.0335	2
180.0392	5
180.0411	4
180.043	4
180.0449	5
180.0468	3
180.0524	2
180.0562	3
181.1256	2
181.1294	2
187.1103	3
187.1122	2
187.1141	5
187.1161	2
187.1431	2
187.1489	2
187.1508	2
187.1527	3
189.0899	4
189.0918	2
189.0938	4
189.1132	2
189.1151	2
189.1171	5
189.119	6
189.121	10
189.1229	12
189.1248	15
189.1268	15
189.1287	18
189.1307	21
189.1326	15
189.1345	16
189.1365	11
189.1384	2
189.1404	4
189.1423	2
189.1462	4
189.1501	2
189.1559	2
189.1578	2
189.1598	7
189.1617	9
189.1637	11
189.1656	6
189.1675	7
189.1695	6
189.1714	2
189.1753	2
189.1772	2
191.0956	2
191.0995	3
191.1014	3
191.1034	2
191.1073	6
191.1092	6
191.1112	5
191.1131	4
191.1151	3
191.117	2
191.119	2
191.1248	2
191.1424	2
191.1443	3
191.1502	2
193.1177	2
196.0187	2
196.0206	2
196.0226	5
196.0246	4
196.0266	7
196.0286	19
196.0305	27
196.0325	36
196.0345	35
196.0365	63
196.0384	55
196.0404	35
196.0424	35
196.0444	33
196.0463	20
196.0483	18
196.0503	6
196.0523	6
196.0542	4
196.0562	3
196.2005	2
196.2657	2
198.0487	3
198.1421	2
199.1404	2
201.1545	2
201.1665	2
201.1685	4
203.0962	2
203.1123	2
203.1807	3
203.1827	3
204.484	2
205.0898	2
205.1019	6
205.1039	4
205.106	8
205.108	17
205.11	22
205.112	38
205.114	46
205.1161	79
205.1181	80
205.1201	118
205.1221	124
205.1241	125
205.1262	117
205.1282	108
205.1302	94
205.1322	46
205.1342	31
205.1363	18
205.1383	12
205.1403	9
205.1423	5
205.1464	4
205.1484	2
205.1504	2
205.1524	2
205.1544	3
205.1666	3
206.1196	2
206.1216	2
206.1236	7
206.1257	8
206.1277	3
206.1297	9
206.1317	8
206.1338	6
206.1358	4
206.1378	4
206.1398	4
206.1479	2
206.152	2
207.1255	2
207.1276	2
207.1296	2
207.1316	3
207.1337	4
207.1357	9
207.1377	8
207.1398	7
207.1418	3
207.1438	2
207.1459	3
207.1479	2
207.1519	2
207.54	2
208.7308	2
211.2293	2
212.7886	2
213.1716	2
215.098	4
215.1021	4
215.1042	5
215.1063	6
215.1083	3
215.1104	3
215.1166	4
215.1828	2
221.1179	2
223.0397	2
223.1451	2
225.1752	2
225.1773	3
225.1794	3
225.1815	3
225.1837	5
225.1858	7
225.1879	7
225.19	5
225.1921	3
226.1778	2
226.1841	4
226.1863	3
226.1884	3
226.1905	3
226.1948	3
226.1969	5
226.199	2
227.1613	3
227.1635	2
227.1656	4
227.1677	4
227.1698	9
227.172	10
227.1741	18
227.1762	11
227.1783	19
227.1805	20
227.1826	21
227.1847	11
227.1868	15
227.189	7
227.1911	11
227.1932	7
227.1953	6
227.1975	3
227.1996	3
227.2017	2
227.206	2
229.1199	2
229.1669	3
231.1769	2
233.0126	2
233.0988	3
233.1031	3
233.1052	8
233.1074	7
233.1095	16
233.1117	15
233.1139	35
233.116	25
233.1182	32
233.1203	28
233.1225	31
233.1246	25
233.1268	15
233.1289	8
233.1311	6
233.1333	2
233.1354	2
233.1376	2
233.1397	3
233.1419	2
233.1505	2
234.1016	3
234.1059	7
234.108	7
234.1102	6
234.1124	23
234.1145	37
234.1167	51
234.1188	47
234.121	59
234.1232	82
234.1253	89
234.1275	90
234.1296	67
234.1318	63
234.1339	38
234.1361	32
234.1383	14
234.1404	12
234.1426	10
234.1447	8
234.1469	4
234.1512	3
235.126	3
235.1324	2
237.2206	2
237.2228	2
237.2249	2
237.2336	2
238.0428	3
238.0449	2
239.2154	2
239.2198	3
239.2219	3
239.2241	3
239.2263	6
239.2285	20
239.2307	18
239.2328	19
239.235	35
239.2372	30
239.2394	30
239.2416	28
239.2438	21
239.2459	26
239.2481	6
239.2503	7
239.2525	5
239.2547	2
239.2569	2
239.259	2
241.1572	3
241.1594	2
241.1638	2
241.2142	2
243.164	2
243.1728	2
243.2146	2
245.1836	2
245.1902	2
245.1924	2
247.1583	2
247.1649	2
247.1672	4
247.1716	2
247.1738	3
247.1805	2
251.1627	2
251.1694	2
251.1761	2
253.1905	2
253.1927	7
253.1972	5
253.1995	2
253.2017	2
253.204	2
253.2062	4
253.2085	4
253.2107	6
253.2129	5
253.2152	4
253.2174	4
253.2197	2
253.2242	3
253.2264	2
253.2287	2
253.2309	3
253.2332	2
254.213	5
254.2153	5
254.2175	2
254.2198	3
254.222	4
254.2243	7
254.2288	2
255.2039	2
255.2084	2
255.2129	2
255.2174	2
255.2196	2
255.2242	4
255.2287	3
255.2309	2
255.2377	2
261.4287	2
269.215	3
269.2173	2
269.222	2
270.2115	3
279.2124	2
280.3523	2
280.4137	2
281.1987	2
281.2011	7
281.2035	4
281.2058	20
281.2082	43
281.2105	53
281.2129	63
281.2153	82
281.2177	111
281.22	141
281.2224	155
281.2248	191
281.2271	191
281.2295	201
281.2318	191
281.2342	169
281.2366	133
281.239	97
281.2413	48
281.2437	26
281.246	22
281.2484	26
281.2508	25
281.2531	4
281.2555	16
281.2579	4
281.2603	3
281.2626	3
281.2673	2
282.2194	2
282.2218	2
282.2265	3
282.2289	3
282.236	2
282.2408	2
282.2431	4
282.2455	3
282.255	2
283.2633	2
285.2687	2
295.2322	2
297.2211	2
297.2309	3
297.2357	2
297.2406	4
297.243	2
297.2455	2
297.2503	2
297.2552	2
298.2388	2
298.2461	2
298.2485	2
299.2143	2
299.2167	3
299.2191	4
299.2216	9
299.224	10
299.2265	14
299.2289	18
299.2314	19
299.2338	35
299.2362	24
299.2386	24
299.2411	22
299.2435	21
299.246	23
299.2484	14
299.2509	6
299.2533	10
299.2557	3
299.2582	3
299.2606	2
315.2212	2
315.2262	2
315.2362	2
324.1897	2
324.2151	2
325.1812	2
325.1863	3
325.1889	5
325.1914	4
325.194	9
325.1965	16
325.1991	22
325.2016	37
325.2042	37
325.2067	50
325.2092	65
325.2118	86
325.2143	69
325.2169	80
325.2194	77
325.222	92
325.2245	78
325.2271	69
325.2296	45
325.2321	32
325.2347	24
325.2372	16
325.2398	8
325.2423	5
325.2449	7
325.2474	2
325.2499	5
325.2576	2
332.1284	2
333.132	2
341.2076	2
342.1412	2
342.1439	2
342.1491	2
342.1517	2
342.1543	2
342.1595	7
342.1621	3
342.1647	4
342.1674	2
343.1834	2
343.186	3
343.1912	9
343.1938	13
343.1964	30
343.1991	26
343.2017	47
343.2043	47
343.2069	73
343.2095	121
343.2121	185
343.2148	247
343.2174	308
343.22	388
343.2226	428
343.2252	431
343.2278	471
343.2304	515
343.2331	461
343.2357	388
343.2383	313
343.2409	221
343.2435	172
343.2461	110
343.2487	74
343.2513	38
343.254	33
343.2566	22
343.2592	16
343.2618	6
343.2644	7
343.267	6
343.2697	3
344.214	2
344.2166	2
344.2192	2
344.2219	3
344.2245	3
344.2271	4
344.2297	6
344.2323	4
344.235	4
344.2376	5
344.2402	2
344.2428	2
345.6474	2
375.2033	2
375.2088	3
375.2115	3
375.2143	5
375.217	6
375.2197	6
375.2225	7
375.2252	8
375.2279	9
375.2307	11
375.2334	6
375.2361	14
375.2389	15
375.2416	10
375.2443	11
375.2471	7
393.2261	2
393.2345	5
393.2597	2
416.9618	2
416.9647	2
416.9791	2
417.3479	2
418.2189	2
418.2276	2
418.2304	3
418.2333	4
418.2362	5
418.2391	4
418.242	11
418.2449	10
418.2478	14
418.2506	23
418.2535	42
418.2564	47
418.2593	65
418.2622	69
418.2651	82
418.268	107
418.2708	83
418.2737	114
418.2766	98
418.2795	89
418.2824	70
418.2853	65
418.2881	50
418.291	36
418.2939	33
418.2968	26
418.2997	18
418.3026	10
418.3055	6
418.3083	5
418.3112	5
418.3141	2
418.317	2
419.2612	3
419.2756	3
419.293	2
431.1168	2
434.8867	2
434.8926	2
434.9044	2
434.9073	3
434.9102	2
434.9191	2
434.922	6
434.9249	2
434.9279	2
434.9338	2
434.9367	3
435.2634	2
436.2265	6
436.2324	2
436.2354	2
436.2383	2
436.2413	9
436.2442	13
436.2472	20
436.2501	48
436.2531	46
436.256	51
436.2589	77
436.2619	90
436.2648	155
436.2678	195
436.2707	238
436.2737	264
436.2766	295
436.2796	346
436.2825	346
436.2855	349
436.2884	327
436.2914	326
436.2943	269
436.2972	249
436.3002	188
436.3032	128
436.3061	85
436.3091	56
436.312	55
436.3149	32
436.3179	24
436.3208	20
436.3238	16
436.3267	8
436.3326	3
436.3356	4
436.3385	2
436.3415	4
436.6746	2
436.8633	2
437.2615	2
437.2674	2
437.2704	2
437.2733	2
437.2763	2
437.2822	3
437.2851	3
437.2881	5
437.294	5
437.2969	3
437.2999	4
440.827	2
444.2969	2
450.229	2
461.2745	2
490.2841	2
490.3153	2
509.0621	2
522.2399	2
522.2496	2
522.2625	2
522.2657	2
539.0203	2
545.3249	2
570.3302	2
570.3336	2
570.3369	2
570.3403	3
570.3436	5
570.347	4
570.3504	2
570.3538	6
570.3571	2
570.3605	11
570.3638	3
570.3672	7
570.3706	3
570.374	3
570.3773	3
570.3807	4
570.3875	2
570.4009	2
571.3415	2
571.3618	3
571.3651	3
571.3685	3
571.3718	2
571.3752	2
571.3853	2
571.3921	2
573.3533	2
573.3702	3
610.3836	2
610.4219	2
624.4069	2
625.4016	2
625.4051	2
625.4086	2
653.3893	6
653.3929	2
653.3965	2
653.4001	3
653.4109	2
653.4146	3
653.4182	2
653.4254	3
653.447	2
687.4651	2
687.4762	2
687.4799	2
687.565	2
688.4384	2
688.4421	2
688.4532	3
688.4569	3
688.4606	7
688.4644	3
688.468	5
688.4717	5
688.4755	6
688.4791	8
688.4828	5
688.4866	4
688.4902	4
688.494	8
688.4976	8
688.5013	19
688.5051	5
688.5088	6
688.5125	4
688.5162	5
688.5199	2
688.5236	7
688.5273	4
688.531	3
688.5347	3
688.5384	4
688.5421	3
688.5458	2
688.5495	8
688.5532	7
688.5569	4
688.5606	3
688.5643	5
688.568	3
688.5754	3
688.5791	2
744.4776	3
744.493	3
744.5046	3
744.5123	2
744.5161	2
744.52	2
760.0577	2
760.0694	4
760.0732	4
760.0771	2
760.0811	2
760.085	2
760.0888	6
760.0927	4
760.0966	2
760.1005	8
760.1044	12
760.1083	8
760.1122	3
760.1161	5
760.1199	6
760.1238	7
760.1277	3
760.1316	7
760.1355	6
760.1394	3
760.1433	3
760.1472	2
760.1511	2
760.155	2
760.1589	2
760.1627	3
760.1899	2
760.2211	2
761.4315	2
761.5288	2
762.2454	2
762.3038	3
762.3116	2
762.3311	2
762.3506	2
762.3779	2
762.3973	2
762.4052	3
762.4091	4
762.4168	2
762.4207	6
762.4246	3
762.4285	8
762.4324	9
762.4363	15
762.4402	8
762.4441	18
762.448	14
762.4519	22
762.4557	71
762.4597	98
762.4636	139
762.4675	169
762.4714	171
762.4753	295
762.4792	369
762.483	476
762.4869	542
762.4908	617
762.4948	768
762.4987	788
762.5026	834
762.5064	971
762.5103	999
762.5142	964
762.5181	914
762.522	827
762.5259	878
762.5298	751
762.5337	621
762.5376	533
762.5415	419
762.5454	299
762.5493	270
762.5532	176
762.5571	144
762.561	115
762.5649	77
762.5688	43
762.5727	22
762.5765	23
762.5804	15
762.5844	12
762.5883	17
762.5922	6
762.5961	12
762.5999	5
762.6038	2
762.7636	2
762.8688	3
762.8766	2
762.9584	2
763.1806	2
763.3015	3
763.395	2
763.4496	3
763.4574	3
763.4652	6
763.4691	3
763.473	5
763.4769	4
763.4808	6
763.4847	8
763.4886	6
763.4925	17
763.4964	15
763.5003	9
763.5042	18
763.5081	6
763.512	17
763.5159	15
763.5198	18
763.5237	24
763.5276	15
763.5315	7
763.5354	9
763.5392	12
763.5432	6
763.5471	9
763.551	4
763.5549	6
763.5627	4
763.5666	2
763.5704	3
763.5822	2
763.742	2
764.4324	2
765.002	2
766.5756	2
767.0796	2
768.8821	2
770.7769	2
