Mass spectrum: PC(17:1/12-HEPE); LC-ESI-QTOF; MS2
Name: PC(17:1/12-HEPE)
Class: Oxidized Phospholipid
Formula: C45H78NO9P
Exact mass: 808.093
SMILES: CCCCCCC\C=C/CCCCCCCC(=O)OCC(COP([O-])(=O)OCC[N+](C)(C)C)OC(=O)CCC\C=C/C\C=C/C=C/C(O)C\C=C/C\C=C/CC
InChI: InChI=1S/C45H78NO9P/c1-6-8-10-12-14-15-16-17-18-19-20-24-28-32-36-44(48)52-40-43(41-54-56(50,51)53-39-38-46(3,4)5)55-45(49)37-33-29-25-22-21-23-27-31-35-42(47)34-30-26-13-11-9-7-2/h9,11,16-17,22-23,25-27,30-31,35,42-43,47H,6-8,10,12-15,18-21,24,28-29,32-34,36-41H2,1-5H3/b11-9-,17-16-,25-22-,27-23-,30-26-,35-31+
Instrument: Acquity UPLC Peptide BEH C18 column (50 x 2.1 mm; 1.7 um), Sciex TripleTOF5600
Instrument type: LC-ESI-QTOF
Ms type: MS2
Ion mode: NEGATIVE
Collision energy: 30-50
Precursor m/z: 866.5552726
Precursor type: [M+CH3COOH-H]-
m/z	relative intensity
109.1045	13
135.1149	13
152.9962	19
163.1167	13
168.0404	13
168.0441	19
168.0459	13
179.0956	19
179.0975	13
179.0994	26
179.1013	32
179.1032	37
179.1051	50
179.107	45
179.1089	50
179.1107	58
179.1126	37
179.1164	37
179.1183	32
207.091	19
208.1014	19
208.1055	19
208.1075	19
208.1095	45
208.1116	37
208.1136	19
208.1197	19
224.0587	13
224.0629	13
224.065	26
224.0692	13
224.0713	37
224.0734	13
224.0755	13
255.1994	26
255.2016	26
255.2039	26
255.2061	13
255.2084	32
255.2106	26
255.2129	32
255.2152	32
255.2197	32
255.2219	45
255.2242	13
255.2332	13
267.2094	19
267.2116	19
267.214	13
267.2162	58
267.2186	76
267.2209	89
267.2232	164
267.2255	177
267.2278	216
267.2301	266
267.2324	342
267.2347	253
267.237	221
267.2393	203
267.2416	177
267.2439	76
267.2462	69
267.2485	45
267.2509	37
267.2532	26
267.2578	13
267.2601	13
273.2234	13
299.1826	13
299.1875	45
299.1899	45
299.1924	13
299.1948	13
299.1972	26
299.1997	32
299.2021	19
299.2046	32
299.207	26
299.2095	45
299.2119	32
317.1833	13
317.1859	13
317.1884	32
317.1909	37
317.1934	45
317.1959	89
317.1984	95
317.2009	121
317.2034	208
317.2059	221
317.2085	259
317.211	298
317.2135	240
317.216	158
317.2185	259
317.221	227
317.2235	121
317.226	63
317.2285	63
317.2311	50
317.2336	26
317.2361	13
403.2245	19
403.233	13
459.3253	13
474.2838	13
474.296	13
474.2991	13
474.3022	32
474.3114	19
474.3145	13
474.3206	13
492.2798	13
492.2829	26
492.2891	19
492.2923	13
492.2954	32
492.2985	26
492.3016	58
492.3048	63
492.3079	26
492.311	58
492.3142	69
492.3173	63
492.3204	63
492.3236	19
492.3298	32
492.3361	13
492.3455	13
524.2414	13
524.2672	19
542.2883	13
601.3682	13
601.4167	13
721.4031	19
721.4069	13
721.4221	13
721.4258	26
721.4296	13
721.4334	13
721.4372	26
721.441	26
721.4486	13
721.4524	26
721.4562	50
721.46	32
721.4713	26
721.4865	13
721.4941	13
747.4496	13
747.465	13
747.5228	13
789.9966	19
790.0363	13
790.0402	13
792.4335	19
792.4414	19
792.4454	13
792.4493	19
792.4533	32
792.4573	50
792.4612	71
792.4652	127
792.4692	115
792.4732	208
792.4772	169
792.4811	346
792.4851	348
792.4891	385
792.493	506
792.497	433
792.501	471
792.5049	657
792.5089	649
792.5129	673
792.5169	828
792.5209	941
792.5248	852
792.5288	999
792.5328	913
792.5367	843
792.5407	631
792.5447	530
792.5486	582
792.5526	381
792.5566	396
792.5605	255
792.5645	229
792.5685	225
792.5725	154
792.5765	121
792.5804	61
792.5844	52
792.5884	39
792.5923	47
792.5963	28
792.6003	13
792.6082	13
792.6281	13
793.5023	13
793.5102	26
793.5182	13
793.5261	19
793.538	19
793.542	19
793.546	13
793.55	13
793.554	26
806.5083	13
806.5123	19
806.5283	13
806.5403	13
806.5563	13
806.5604	13
806.5644	13
806.5724	13
807.4783	32
807.4823	13
807.4943	19
807.4983	13
807.5023	13
807.5143	13
807.5304	13
866.4911	13
866.4952	13
866.4994	13
866.5077	26
866.5201	37
866.5243	19
866.5284	58
866.5326	37
866.5367	32
866.5409	45
866.5451	37
866.5534	76
866.5576	100
866.5617	100
866.5659	50
866.57	69
866.5742	69
866.5783	45
866.5825	63
866.5866	37
866.5908	50
866.5949	26
866.5991	32
866.6032	19
866.6074	26
866.6115	13
866.6157	19
