Mass spectrum: Cer[AP] t34:0; LC-ESI-QTOF; MS2
Name: Cer[AP] t34:0
Class: Cer_AP
Formula: C34H69NO5
Exact mass: 571.928
SMILES: CCCCCCCCCCCCCCC(O)C(O)C(CO)NC(=O)C(O)CCCCCCCCCCCCCC
InChI: InChI=1S/C34H69NO5/c1-3-5-7-9-11-13-15-17-19-21-23-25-27-31(37)33(39)30(29-36)35-34(40)32(38)28-26-24-22-20-18-16-14-12-10-8-6-4-2/h30-33,36-39H,3-29H2,1-2H3,(H,35,40)
Instrument: AB Sciex TripleTOF 5600+ system (Q-TOF) equipped with a DuoSpray ion source
Instrument type: LC-ESI-QTOF
Ms type: MS2
Ion mode: NEGATIVE
Collision energy: 45V
Column name: Acquity UPLC Peptide BEH C18 column (50*2.1 mm; 1.7 um; 130A)(Waters Co.,Milford, MA, USA)
Retention time: 9.062286
Precursor type: [M+CH3COOH-H]-
Precursor m/z: 630.5299
m/z	relative intensity
223.206	6
225.221	172
225.243	6
239.241	6
250.256	5
253.218	29
255.231	75
266.248	18
267.231	59
270.242	45
271.227	224
278.252	10
279.235	10
280.268	17
281.244	3
282.244	2
284.26	19
296.257	30
308.256	10
310.273	2
312.249	18
313.28	3
314.268	118
316.287	6
326.268	97
504.472	9
522.495	3
534.477	10
534.496	4
538.48	18
540.504	8
552.494	33
570.506	999
570.687	2
571.521	2
