Mass spectrum: PG 40:7; LC-ESI-QTOF; MS2
Name: PG 40:7
Class: PG
Formula: C46H77O10P
Exact mass: 821.088
SMILES: CCCCCCCC\C=C/CCCCCCCC(=O)OCC(COP(O)(=O)OCC(O)CO)OC(=O)CC\C=C/C\C=C/C\C=C/C\C=C/C\C=C/C\C=C/CC
InChI: InChI=1S/C46H77O10P/c1-3-5-7-9-11-13-15-17-19-20-21-22-24-26-28-30-32-34-36-38-46(50)56-44(42-55-57(51,52)54-40-43(48)39-47)41-53-45(49)37-35-33-31-29-27-25-23-18-16-14-12-10-8-6-4-2/h5,7,11,13,17-19,21-23,26,28,32,34,43-44,47-48H,3-4,6,8-10,12,14-16,20,24-25,27,29-31,33,35-42H2,1-2H3,(H,51,52)/b7-5-,13-11-,19-17-,22-21-,23-18-,28-26-,34-32-
Instrument: AB Sciex TripleTOF 5600+ system (Q-TOF) equipped with a DuoSpray ion source
Instrument type: LC-ESI-QTOF
Ms type: MS2
Ion mode: NEGATIVE
Collision energy: 45V
Column name: Acquity UPLC Peptide BEH C18 column (50*2.1 mm; 1.7 um; 130A)(Waters Co.,Milford, MA, USA)
Retention time: 8.119515
Precursor type: [M-H]-
Precursor m/z: 819.5219
m/z	relative intensity
135.112	3
143.089	3
152.994	14
177.167	5
229.192	26
241.189	3
249.178	7
279.226	2
280.384	10
281.248	948
283.241	174
284.27	3
293.217	3
296.224	3
309.219	3
327.233	397
329.243	3
417.232	7
435.249	4
437.268	3
463.215	11
463.231	12
481.23	1
491.274	11
509.26	6
509.291	9
537.259	14
555.251	7
555.273	10
555.291	3
563.701	2
627.528	15
714.491	2
732.513	2
737.501	1
737.566	2
759.473	2
759.591	5
816.941	7
819.344	1
819.447	13
819.518	999
819.589	16
820.535	5
