Mass spectrum: PC 42:10; LC-ESI-QTOF; MS2
Name: PC 42:10
Class: PC
Formula: C50H80NO8P
Exact mass: 854.1649999999998
SMILES: CC\C=C/C\C=C/C\C=C/C\C=C/CCCCCCC(=O)OCC(COP([O-])(=O)OCC[N+](C)(C)C)OC(=O)CC\C=C/C\C=C/C\C=C/C\C=C/C\C=C/C\C=C/CC
InChI: InChI=1S/C50H80NO8P/c1-6-8-10-12-14-16-18-20-22-24-25-27-29-31-33-35-37-39-41-43-50(53)59-48(47-58-60(54,55)57-45-44-51(3,4)5)46-56-49(52)42-40-38-36-34-32-30-28-26-23-21-19-17-15-13-11-9-7-2/h8-11,14-17,20-23,25,27-28,30-31,33,37,39,48H,6-7,12-13,18-19,24,26,29,32,34-36,38,40-47H2,1-5H3/b10-8-,11-9-,16-14-,17-15-,22-20-,23-21-,27-25-,30-28-,33-31-,39-37-
Instrument: AB Sciex TripleTOF 5600+ system (Q-TOF) equipped with a DuoSpray ion source
Instrument type: LC-ESI-QTOF
Ms type: MS2
Ion mode: NEGATIVE
Collision energy: 45V
Column name: Acquity UPLC Peptide BEH C18 column (50*2.1 mm; 1.7 um; 130A)(Waters Co.,Milford, MA, USA)
Retention time: 8.772704
Precursor type: [M+CH3COOH-H]-
Precursor m/z: 912.5699
m/z	relative intensity
78.958	3
96.97	1
152.996	10
222.998	12
241.012	51
253.218	1
259.008	1
259.024	3
279.234	1
283.263	51
284.241	1
284.268	32
286.26	4
297.037	8
303.232	4
315.05	5
327.225	1
329.245	29
329.26	11
330.25	24
419.245	11
419.261	13
420.26	16
465.231	1
466.236	4
516.947	1
581.287	3
581.299	10
581.319	11
581.349	2
582.311	23
582.349	3
599.313	3
599.334	2
600.292	1
600.333	4
627.264	1
627.299	3
628.279	2
628.297	5
628.324	1
669.453	3
680.953	1
681.031	0
691.449	1
695.434	0
695.477	1
724.479	0
737.07	0
740.524	0
750.52	1
751.451	2
751.479	1
754.55	1
838.54	4
838.574	1
909.652	3
909.72	1
911.546	2
912.171	1
912.572	999
912.7	3
912.787	2
913.003	0
913.57	4
