Mass spectrum: Cer[AS] d34:1; LC-ESI-QTOF; MS2
Name: Cer[AS] d34:1
Class: Cer_AS
Formula: C34H67NO4
Exact mass: 553.913
SMILES: CCCCCCCCCCCCCCC(O)C(=O)NC(CO)C(O)\C=C\CCCCCCCCCCCCC
InChI: InChI=1S/C34H67NO4/c1-3-5-7-9-11-13-15-17-19-20-22-24-26-28-32(37)31(30-36)35-34(39)33(38)29-27-25-23-21-18-16-14-12-10-8-6-4-2/h26,28,31-33,36-38H,3-25,27,29-30H2,1-2H3,(H,35,39)/b28-26+
Instrument: AB Sciex TripleTOF 5600+ system (Q-TOF) equipped with a DuoSpray ion source
Instrument type: LC-ESI-QTOF
Ms type: MS2
Ion mode: NEGATIVE
Collision energy: 45V
Column name: Acquity UPLC Peptide BEH C18 column (50*2.1 mm; 1.7 um; 130A)(Waters Co.,Milford, MA, USA)
Retention time: 9.41669
Precursor type: [M+CH3COOH-H]-
Precursor m/z: 612.5195
m/z	relative intensity
225.225	134
237.223	27
250.25	18
253.22	67
263.237	18
266.251	18
267.235	42
268.267	18
270.239	48
271.227	30
296.252	91
296.272	18
298.269	12
312.255	36
314.276	13
504.485	67
520.474	12
522.5	18
534.483	64
552.493	999
