Mass spectrum: PC(16:0e/18-HEPE); LC-ESI-QTOF; MS2
Name: PC(16:0e/18-HEPE)
Class: Oxidized Phospholipid
Formula: C44H80NO8P
Exact mass: 782.099
SMILES: CCCCCCCCCCCCCCCCOCC(COP([O-])(=O)OCC[N+](C)(C)C)OC(=O)CCC\C=C/C\C=C/C\C=C/C\C=C/C=C/C(O)CC
InChI: InChI=1S/C44H80NO8P/c1-6-8-9-10-11-12-13-14-19-22-25-28-31-34-38-50-40-43(41-52-54(48,49)51-39-37-45(3,4)5)53-44(47)36-33-30-27-24-21-18-16-15-17-20-23-26-29-32-35-42(46)7-2/h16-18,20,24,26-27,29,32,35,42-43,46H,6-15,19,21-23,25,28,30-31,33-34,36-41H2,1-5H3/b18-16-,20-17-,27-24-,29-26-,35-32+
Instrument: Acquity UPLC Peptide BEH C18 column (50 x 2.1 mm; 1.7 um), Sciex TripleTOF5600
Instrument type: LC-ESI-QTOF
Ms type: MS2
Ion mode: NEGATIVE
Collision energy: 30-50
Precursor m/z: 840.576008
Precursor type: [M+CH3COOH-H]-
m/z	relative intensity
78.95937	7
107.0874	7
109.103	7
133.1035	7
133.1051	7
147.1199	7
161.1297	10
161.1369	10
163.1528	7
163.1546	7
168.0478	7
168.0514	7
173.1284	7
173.1395	7
181.1199	7
181.1237	7
189.1637	7
201.1565	13
201.1625	17
201.1645	17
201.1685	10
201.1725	10
201.1745	7
215.1602	7
215.1664	10
215.1684	7
215.1705	27
215.1726	43
215.1746	27
215.1767	36
215.1788	53
215.1808	76
215.1829	36
215.185	43
215.1871	23
215.1891	17
215.1912	17
215.1933	13
215.1953	7
221.1495	7
251.9865	7
253.2154	7
255.195	7
255.1973	17
255.1995	7
255.2018	47
255.204	56
255.2063	43
255.2085	70
255.2108	80
255.213	80
255.2153	73
255.2176	66
255.2198	43
255.2221	23
255.2243	33
255.2266	20
255.2288	7
255.2311	7
259.0912	7
259.1479	7
259.1525	13
259.1548	13
259.157	27
259.1593	34
259.1616	37
259.1638	40
259.1661	64
259.1684	74
259.1707	70
259.1729	70
259.1752	87
259.1775	33
259.1797	23
259.182	33
259.1843	20
259.1866	13
259.1888	13
261.1871	10
271.2006	7
273.2026	10
273.2049	7
273.2072	7
273.2119	13
273.2143	33
273.2166	27
273.2189	13
273.2213	30
273.2236	30
273.2259	23
273.2282	23
273.2306	17
273.2329	23
273.2353	13
273.2376	7
273.2399	20
291.9012	7
298.2732	7
299.1584	7
299.1731	7
299.1755	13
299.1779	4
299.1804	7
299.1828	17
299.1852	20
299.1877	34
299.1902	68
299.1926	44
299.195	92
299.1974	116
299.1999	81
299.2023	96
299.2048	88
299.2072	78
299.2097	67
299.2121	54
299.2145	31
299.217	31
299.2194	20
299.2219	7
299.2243	10
299.2292	14
299.2316	10
312.3073	7
315.179	7
315.1865	7
316.2244	10
317.0177	7
317.1233	7
317.1785	14
317.1836	4
317.1861	17
317.1886	42
317.1911	60
317.1936	43
317.1961	49
317.1986	117
317.2011	121
317.2037	222
317.2062	257
317.2087	200
317.2112	232
317.2137	278
317.2162	314
317.2187	231
317.2213	199
317.2238	217
317.2263	117
317.2288	57
317.2313	35
317.2338	35
317.2363	11
317.2388	11
317.2414	4
317.2439	7
317.2589	4
317.7165	4
318.0184	4
318.2096	7
318.2122	7
318.2197	7
318.2247	7
318.2273	10
319.2122	7
319.2147	7
319.2248	7
327.2509	7
377.2318	13
377.2372	10
377.24	13
377.2427	20
377.2455	23
377.2482	36
377.2509	20
377.2537	10
377.2674	10
418.3898	7
419.2474	7
448.2798	7
448.2858	7
448.2948	7
448.2978	17
448.3008	7
448.3037	30
448.3067	10
448.3097	30
448.3127	27
448.3157	30
448.3187	33
448.3217	17
448.3246	36
448.3276	40
448.3306	36
448.3336	33
448.3366	13
448.3396	13
448.3426	7
448.3456	20
457.1148	7
459.2289	7
462.3365	7
464.3075	7
464.8884	7
466.2919	7
466.295	7
466.298	10
466.3011	24
466.3041	27
466.3072	47
466.3102	45
466.3133	55
466.3163	65
466.3194	96
466.3224	110
466.3255	114
466.3285	117
466.3315	135
466.3346	145
466.3376	72
466.3407	106
466.3438	72
466.3468	93
466.3499	75
466.3529	34
466.3559	38
466.359	14
466.362	20
466.3651	10
466.3681	7
466.3803	7
466.3834	7
467.3345	7
467.3681	4
497.4466	7
695.4249	7
695.4286	7
695.436	7
695.4398	7
695.4435	13
695.4472	13
695.4509	10
695.4547	17
695.4584	13
695.4621	10
695.4658	23
695.4695	10
695.4732	17
695.4769	30
695.4807	33
695.4844	13
695.4881	7
695.4918	10
695.4955	7
695.4993	7
695.503	7
695.5104	10
704.5146	7
706.4822	7
721.4532	7
721.4683	7
721.4721	7
721.4759	7
721.4797	10
721.4911	7
721.51	10
762.551	7
764.0986	7
764.118	13
764.1415	13
764.1609	13
764.1688	7
765.5033	7
766.3975	7
766.4405	7
766.4561	10
766.4639	10
766.4756	4
766.4835	12
766.4874	39
766.4913	44
766.4952	111
766.4991	105
766.503	132
766.5069	228
766.5108	319
766.5147	314
766.5186	425
766.5225	525
766.5264	702
766.5303	742
766.5342	858
766.5381	841
766.5421	894
766.546	999
766.5499	884
766.5538	893
766.5577	784
766.5616	807
766.5655	645
766.5694	424
766.5733	489
766.5772	280
766.5811	227
766.585	143
766.5889	119
766.5928	110
766.5967	77
766.6006	44
766.6046	40
766.6085	32
766.6124	26
766.6163	4
766.6202	4
766.6241	9
766.6319	9
766.9758	5
767.2767	5
767.4995	4
767.5073	13
767.5268	13
767.5307	7
767.5347	7
767.5386	17
767.5425	13
767.5464	13
767.5503	10
767.5542	17
767.5581	23
767.562	10
767.5659	23
767.5737	10
767.5815	10
767.5972	7
778.5307	7
780.5398	7
780.5595	7
780.5635	7
780.5674	13
780.5753	17
780.595	7
781.4586	7
781.4664	7
781.4704	7
781.4861	7
781.498	10
781.5059	13
781.5098	17
781.5138	13
781.5177	10
781.5256	7
781.5335	17
781.5374	7
781.5453	7
840.503	10
840.5153	13
840.5194	7
840.5235	7
840.5276	17
840.5317	13
840.5358	20
840.5399	50
840.5439	40
840.548	34
840.5521	34
840.5562	64
840.5603	47
840.5644	37
840.5685	65
840.5726	51
840.5767	54
840.5807	61
840.5848	85
840.5889	81
840.593	51
840.5971	27
840.6012	51
840.6053	61
840.6094	50
840.6135	44
840.6176	17
840.6216	17
840.6257	31
840.6298	20
840.6339	7
840.6503	7
840.6544	7
