Mass spectrum: PC(16:1/12-HEPE); LC-ESI-QTOF; MS2
Name: PC(16:1/12-HEPE)
Class: Oxidized Phospholipid
Formula: C44H76NO9P
Exact mass: 794.066
SMILES: CCCCCC\C=C/CCCCCCCC(=O)OCC(COP([O-])(=O)OCC[N+](C)(C)C)OC(=O)CCC\C=C/C\C=C/C=C/C(O)C\C=C/C\C=C/CC
InChI: InChI=1S/C44H76NO9P/c1-6-8-10-12-14-15-16-17-18-19-23-27-31-35-43(47)51-39-42(40-53-55(49,50)52-38-37-45(3,4)5)54-44(48)36-32-28-24-21-20-22-26-30-34-41(46)33-29-25-13-11-9-7-2/h9,11,15-16,21-22,24-26,29-30,34,41-42,46H,6-8,10,12-14,17-20,23,27-28,31-33,35-40H2,1-5H3/b11-9-,16-15-,24-21-,26-22-,29-25-,34-30+
Instrument: Acquity UPLC Peptide BEH C18 column (50 x 2.1 mm; 1.7 um), Sciex TripleTOF5600
Instrument type: LC-ESI-QTOF
Ms type: MS2
Ion mode: NEGATIVE
Collision energy: 30-50
Precursor m/z: 852.5396225
Precursor type: [M+CH3COOH-H]-
m/z	relative intensity
78.972	10
107.0919	10
109.0972	10
109.1002	10
109.1016	10
135.1133	10
135.1149	10
135.1198	10
135.1231	10
135.1264	10
152.9945	10
153.0888	10
163.1077	10
168.0331	10
168.0368	10
168.0386	10
168.0423	15
168.0441	20
168.0459	15
168.0477	15
179.0957	10
179.0975	10
179.0994	40
179.1013	40
179.1032	35
179.1051	80
179.107	55
179.1089	60
179.1108	55
179.1127	55
179.1145	40
179.1164	45
179.1183	20
179.1202	15
179.124	20
179.1315	10
201.1524	10
207.0991	20
207.1011	24
207.1072	20
208.0993	10
208.1014	15
208.1034	35
208.1054	35
208.1075	30
208.1095	24
208.1115	35
208.1156	10
208.1176	10
208.1197	24
208.1238	10
221.1556	10
224.0565	10
224.0629	45
224.065	15
224.0671	20
224.0713	20
224.0755	30
224.0776	10
243.1882	10
252.4255	21
252.4367	10
253.1411	10
253.195	45
253.1972	10
253.1994	66
253.2017	56
253.2039	126
253.2062	158
253.2084	180
253.2107	260
253.2129	328
253.2152	474
253.2174	437
253.2197	386
253.2219	422
253.2242	272
253.2264	186
253.2286	144
253.2309	118
253.2331	41
253.2354	71
253.2376	45
253.2399	10
253.2421	10
253.2444	15
253.2466	10
254.2108	10
254.2198	15
255.1903	10
255.1971	15
255.1993	30
255.2016	30
255.2038	40
255.2061	20
255.2083	35
255.2106	45
255.2129	30
255.2151	30
255.2174	20
255.2196	24
255.2219	24
255.2241	10
273.2187	15
273.228	10
279.2265	10
279.2289	10
279.2313	10
279.2336	10
279.236	10
279.2383	10
279.2407	10
291.1926	10
291.195	15
291.1974	20
299.1825	10
299.185	20
299.1874	15
299.1898	20
299.1923	24
299.1947	24
299.1972	24
299.1996	40
299.2021	20
299.2045	30
299.2069	20
299.2094	35
299.2118	24
299.2143	35
299.2167	10
299.2191	10
299.2216	15
299.224	21
317.133	10
317.1782	21
317.1832	25
317.1857	15
317.1883	35
317.1908	96
317.1933	81
317.1958	117
317.1983	121
317.2008	173
317.2033	195
317.2058	282
317.2084	246
317.2109	343
317.2134	400
317.2159	302
317.2184	301
317.2209	208
317.2234	168
317.226	143
317.2285	82
317.231	66
317.2335	46
317.236	30
317.2385	24
331.2162	20
331.2188	10
331.2214	10
331.2291	10
389.1852	10
389.1991	15
389.213	10
407.2235	10
407.2292	10
460.2539	10
460.266	35
460.269	10
460.2721	15
460.2781	10
460.2811	15
460.2842	15
460.2872	15
468.2616	20
478.2557	15
478.2588	20
478.265	10
478.268	20
478.2711	10
478.2742	30
478.2773	40
478.2804	35
478.2835	50
478.2866	80
478.2896	50
478.2928	30
478.2958	65
478.2989	60
478.302	50
478.3051	60
478.3082	55
478.3112	24
478.3143	24
478.3174	20
478.3205	10
478.3267	15
478.3329	15
490.9905	10
524.267	10
524.2734	15
524.2798	10
524.2831	20
524.2896	10
542.2782	10
542.2815	10
542.2946	20
542.2979	15
542.3012	15
542.3143	10
587.3472	10
587.3506	20
587.3541	10
587.3644	10
587.3849	10
668.3662	10
668.4136	10
669.4099	10
683.4351	10
707.3813	10
707.3926	10
707.4001	10
707.4076	10
707.4113	15
707.4151	40
707.4188	20
707.4226	20
707.4301	45
707.4338	35
707.4376	10
707.4413	15
707.4451	30
707.4489	24
707.4526	35
707.4564	15
707.4601	15
707.4676	10
707.4751	10
733.4431	10
733.4469	10
733.4545	15
734.4561	10
776.0313	10
776.0431	15
776.0588	10
776.106	10
778.423	20
778.4269	15
778.4348	21
778.4387	62
778.4426	22
778.4466	31
778.4505	74
778.4545	104
778.4584	127
778.4623	267
778.4662	282
778.4702	266
778.4741	433
778.4781	501
778.482	577
778.486	727
778.4899	728
778.4938	924
778.4977	928
778.5017	910
778.5056	804
778.5096	999
778.5135	974
778.5175	931
778.5214	930
778.5253	738
778.5292	716
778.5332	620
778.5371	489
778.5411	364
778.545	310
778.549	192
778.5529	187
778.5568	118
778.5607	90
778.5647	77
778.5686	51
778.5726	34
778.5765	11
778.5804	16
778.5844	11
778.6001	27
778.7104	6
779.4705	10
779.4783	10
779.4862	30
779.4941	10
779.498	15
779.502	10
779.5059	15
779.5098	15
779.5138	35
779.5177	24
779.5217	35
779.5256	15
779.5295	20
779.5335	15
779.5453	15
779.561	10
779.5729	10
792.4885	10
792.5004	15
792.5044	10
792.5203	20
792.5242	24
792.5283	15
792.5441	10
792.5521	10
792.556	10
793.4341	10
793.446	10
793.458	20
793.462	24
793.4659	10
793.4699	10
793.4858	24
793.4977	10
793.5057	10
852.4678	10
852.476	15
852.4843	10
852.4925	10
852.4966	24
852.5007	35
852.5049	10
852.509	10
852.5131	60
852.5172	40
852.5214	35
852.5255	60
852.5296	74
852.5337	60
852.5378	65
852.5419	100
852.5461	85
852.5502	124
852.5543	74
852.5584	69
852.5626	60
852.5667	85
852.5708	40
852.5749	24
852.579	30
852.5831	35
852.5873	45
852.5914	20
852.5955	15
852.6038	10
852.6078	10
852.6408	10
