Mass spectrum: PE(16:0/8-HETE); LC-ESI-QTOF; MS2
Name: PE(16:0/8-HETE)
Class: Oxidized Phospholipid
Formula: C41H74NO9P
Exact mass: 756.017
SMILES: CCCCCCCCCCCCCCCC(=O)OCC(COP(O)(=O)OCCN)OC(=O)CCC\C=C/CC(O)\C=C/C=C\C\C=C/CCCCC
InChI: InChI=1S/C41H74NO9P/c1-3-5-7-9-11-13-15-16-17-19-21-23-28-32-40(44)48-36-39(37-50-52(46,47)49-35-34-42)51-41(45)33-29-25-24-27-31-38(43)30-26-22-20-18-14-12-10-8-6-4-2/h12,14,20,22,24,26-27,30,38-39,43H,3-11,13,15-19,21,23,25,28-29,31-37,42H2,1-2H3,(H,46,47)/b14-12-,22-20-,27-24-,30-26-
Instrument: Acquity UPLC Peptide BEH C18 column (50 x 2.1 mm; 1.7 um), Sciex TripleTOF5600
Instrument type: LC-ESI-QTOF
Ms type: MS2
Ion mode: NEGATIVE
Collision energy: 30-50
Precursor m/z: 754.5028435
Precursor type: [M-H]-
m/z	relative intensity
111.0825	33
111.0839	68
127.0707	33
127.0754	33
127.077	33
127.0786	52
127.0802	52
140.0098	33
140.0232	52
152.9945	33
155.0626	33
155.0661	52
155.0678	187
155.0696	102
155.0714	137
155.0731	33
155.0749	52
155.0766	102
155.0784	33
155.0801	52
163.1437	33
163.1455	68
163.1491	52
163.1509	52
163.1545	33
196.0285	33
196.0324	52
253.2218	35
253.2263	35
254.4425	35
255.2083	35
255.2106	35
255.2128	172
255.2151	70
255.2173	70
255.2196	192
255.2218	295
255.2241	345
255.2263	315
255.2286	542
255.2308	544
255.2331	644
255.2354	822
255.2376	452
255.2399	420
255.2421	192
255.2444	138
255.2466	262
255.2489	87
255.2511	88
255.2534	35
255.2556	18
255.2579	33
255.2601	68
256.2236	33
257.2115	52
257.2138	153
257.2161	85
257.2184	68
257.2206	102
257.2229	170
257.2251	238
257.2274	118
257.2296	187
257.2319	187
257.2342	137
257.2365	68
257.241	33
257.2523	33
275.2374	33
281.2412	33
281.2484	52
301.1919	52
301.1944	33
301.1993	52
301.2017	52
301.2042	68
301.2066	187
301.2091	255
301.2115	102
301.214	272
301.2164	153
301.2189	137
301.2213	238
301.2238	102
301.2262	222
301.2287	137
301.2311	118
301.2336	52
301.2385	68
302.2115	35
318.1513	35
319.1992	35
319.2042	52
319.2067	103
319.2092	137
319.2118	207
319.2143	327
319.2168	429
319.2193	310
319.2219	275
319.2244	292
319.2269	344
319.2294	325
319.2319	359
319.2344	359
319.237	153
319.2395	222
319.242	222
319.2445	85
319.2471	33
319.2496	52
319.2622	33
319.2723	33
378.2404	33
391.242	33
434.266	33
434.269	33
434.2807	33
452.2491	52
452.2521	52
452.2611	68
452.2641	102
452.2671	118
452.2701	118
452.2731	85
452.2761	102
452.2791	118
452.2821	102
452.2851	118
452.2881	68
452.2911	68
452.2941	52
452.3091	33
498.258	33
498.2674	33
498.2705	33
498.2863	33
516.2501	33
736.5144	35
754.42	35
754.4316	102
754.4433	190
754.4471	33
754.451	88
754.4549	138
754.4588	157
754.4626	243
754.4666	232
754.4704	287
754.4743	287
754.4781	525
754.4821	490
754.4859	579
754.4898	489
754.4937	926
754.4976	710
754.5014	999
754.5053	856
754.5092	801
754.5131	964
754.5169	797
754.5208	617
754.5247	705
754.5286	579
754.5324	419
754.5363	309
754.5402	505
754.5441	163
754.5479	217
754.5518	92
754.5557	53
754.5596	90
754.5634	37
754.5673	53
754.5712	33
754.5751	57
754.5828	33
755.4861	33
755.5056	35
755.5133	33
755.5172	52
755.5288	33
