Mass spectrum: PE(16:0e/12-HETE); LC-ESI-QTOF; MS2
Name: PE(16:0e/12-HETE)
Class: Oxidized Phospholipid
Formula: C41H76NO8P
Exact mass: 742.034
SMILES: CCCCCCCCCCCCCCCCOCC(COP(O)(=O)OCCN)OC(=O)CCC\C=C/C\C=C/C=C/C(O)C\C=C/CCCCC
InChI: InChI=1S/C41H76NO8P/c1-3-5-7-9-11-12-13-14-15-16-19-22-26-30-35-47-37-40(38-49-51(45,46)48-36-34-42)50-41(44)33-29-25-21-18-17-20-24-28-32-39(43)31-27-23-10-8-6-4-2/h18,20-21,23-24,27-28,32,39-40,43H,3-17,19,22,25-26,29-31,33-38,42H2,1-2H3,(H,45,46)/b21-18-,24-20-,27-23-,32-28+
Instrument: Acquity UPLC Peptide BEH C18 column (50 x 2.1 mm; 1.7 um), Sciex TripleTOF5600
Instrument type: LC-ESI-QTOF
Ms type: MS2
Ion mode: NEGATIVE
Collision energy: 30-50
Precursor m/z: 740.5235789
Precursor type: [M-H]-
m/z	relative intensity
135.1095	17
135.1128	35
135.1144	17
135.1161	35
135.1177	26
135.1194	26
137.1261	17
139.1093	26
139.1209	17
163.1073	35
163.1091	43
163.1109	26
163.1127	35
163.1145	17
177.0937	17
177.1012	18
179.0915	17
179.0953	35
179.0972	36
179.0991	87
179.101	52
179.1028	174
179.1047	209
179.1066	156
179.1085	200
179.1104	173
179.1123	130
179.1142	69
179.116	60
179.1179	52
179.1198	52
179.1217	26
179.1255	17
179.1312	17
180.0388	17
191.1791	17
203.1743	17
203.1763	17
203.1824	17
203.1844	26
208.0929	17
208.099	35
208.1011	17
208.1031	26
208.1051	17
208.1072	17
208.1092	17
208.1113	86
208.1133	43
208.1153	52
208.1174	26
208.1194	17
208.1214	26
255.2307	17
257.2137	26
257.216	35
257.2182	60
257.2205	86
257.2228	69
257.225	69
257.2273	69
257.2296	86
257.2318	26
257.2341	60
257.2364	52
257.2386	35
257.2409	17
257.2522	17
275.2303	17
275.2327	17
275.2373	35
301.1969	17
301.1993	35
301.2018	35
301.2043	78
301.2067	86
301.2091	60
301.2116	173
301.2141	95
301.2165	156
301.2189	156
301.2214	181
301.2238	121
301.2263	113
301.2287	78
301.2312	60
301.2336	35
301.2385	17
301.241	17
301.2459	17
301.2483	17
303.2131	17
304.9403	18
318.2295	26
318.237	18
318.2396	17
318.2597	18
318.4636	18
319.1514	18
319.1917	18
319.1968	26
319.1993	35
319.2018	27
319.2043	46
319.2068	46
319.2094	145
319.2119	155
319.2144	245
319.2169	378
319.2195	468
319.222	414
319.2245	612
319.227	656
319.2296	653
319.2321	708
319.2346	506
319.2371	359
319.2396	357
319.2421	276
319.2447	202
319.2472	64
319.2497	110
319.2522	18
319.2548	63
319.2573	18
319.2598	18
319.2623	9
319.2699	9
319.517	9
320.2337	18
321.2242	17
321.2318	17
321.2343	26
321.2368	52
321.2394	95
321.2419	43
321.2444	52
321.247	35
321.2495	35
321.2546	26
321.2596	26
377.2398	17
377.2453	26
377.248	17
377.2507	17
377.2535	26
377.2562	35
377.259	26
377.2699	26
420.259	26
420.2619	17
420.2648	17
420.2677	52
420.2706	17
420.2735	43
420.2793	86
420.2822	103
420.2851	121
420.2879	86
420.2908	86
420.2937	86
420.2966	69
420.2995	35
420.3024	35
420.3053	95
420.3111	26
420.314	26
420.3169	17
420.3198	17
436.2713	17
436.2772	17
436.2801	17
436.2831	26
436.286	17
436.2978	17
436.3008	35
436.9287	18
436.97	18
437.3063	18
437.9941	18
438.2215	18
438.2658	26
438.2688	79
438.2717	17
438.2747	105
438.2776	44
438.2806	106
438.2835	124
438.2865	222
438.2894	178
438.2924	276
438.2953	177
438.2983	392
438.3012	285
438.3042	312
438.3072	205
438.3101	250
438.3131	232
438.316	98
438.319	116
438.3219	88
438.3249	71
438.3279	17
438.3308	26
438.3337	18
438.3367	18
547.341	17
547.3509	17
547.3608	17
547.3773	17
547.3806	17
547.3905	17
722.5417	17
738.2177	17
740.2509	18
740.416	19
740.4467	17
740.4582	35
740.462	45
740.4659	45
740.4697	9
740.4735	9
740.4774	73
740.4812	46
740.485	185
740.4889	167
740.4927	261
740.4966	341
740.5004	405
740.5043	370
740.5081	571
740.5119	595
740.5157	766
740.5196	721
740.5234	865
740.5273	893
740.5311	934
740.535	924
740.5388	999
740.5427	764
740.5465	701
740.5504	842
740.5542	522
740.558	393
740.5618	365
740.5657	338
740.5695	199
740.5734	198
740.5772	108
740.5811	80
740.5849	38
740.5887	10
740.5926	19
740.6041	30
740.6079	17
741.476	10
741.499	17
741.5029	17
741.5106	17
741.5182	35
741.5259	35
741.5298	26
741.5336	35
741.5375	17
741.5413	17
741.5452	52
741.549	35
741.5528	35
741.572	26
741.5759	17
