Mass spectrum: PI 40:7; LC-ESI-QTOF; MS2
Name: PI 40:7
Class: PI
Formula: C49H81O13P
Exact mass: 909.15
SMILES: CCCCCCCC\C=C/CCCCCCCC(=O)OCC(COP(O)(=O)OC1C(O)C(O)C(O)C(O)C1O)OC(=O)CC\C=C/C\C=C/C\C=C/C\C=C/C\C=C/C\C=C/CC
InChI: InChI=1S/C49H81O13P/c1-3-5-7-9-11-13-15-17-19-20-21-22-24-26-28-30-32-34-36-38-43(51)61-41(40-60-63(57,58)62-49-47(55)45(53)44(52)46(54)48(49)56)39-59-42(50)37-35-33-31-29-27-25-23-18-16-14-12-10-8-6-4-2/h5,7,11,13,17-19,21-23,26,28,32,34,41,44-49,52-56H,3-4,6,8-10,12,14-16,20,24-25,27,29-31,33,35-40H2,1-2H3,(H,57,58)/b7-5-,13-11-,19-17-,22-21-,23-18-,28-26-,34-32-
Instrument: AB Sciex TripleTOF 5600+ system (Q-TOF) equipped with a DuoSpray ion source
Instrument type: LC-ESI-QTOF
Ms type: MS2
Ion mode: NEGATIVE
Collision energy: 45V
Column name: Acquity UPLC Peptide BEH C18 column (50*2.1 mm; 1.7 um; 130A)(Waters Co.,Milford, MA, USA)
Retention time: 8.302807
Precursor type: [M-H]-
Precursor m/z: 907.5339
m/z	relative intensity
78.959	3
96.969	1
134.98	0
152.995	10
222.998	13
229.192	2
229.208	0
240.259	0
241.01	65
249.179	0
249.205	0
255.237	0
259.018	9
280.376	1
281.247	116
282.246	1
283.242	24
283.267	0
297.038	13
309.229	0
315.045	6
327.23	51
327.264	1
417.198	0
417.237	55
417.276	1
435.229	1
435.252	4
463.218	7
463.243	1
505.232	0
523.279	0
577.282	0
579.286	63
579.332	1
597.233	0
597.296	12
597.323	4
625.24	1
625.277	7
643.29	1
745.475	1
746.434	0
747.482	1
755.066	0
807.529	0
817.512	0
821.488	0
822.507	0
825.478	0
829.55	0
833.54	1
847.492	0
847.549	0
857.491	0
857.553	0
861.487	0
863.621	0
875.492	1
889.543	0
904.631	1
904.663	1
904.706	2
906.997	0
907.388	0
907.441	3
907.53	999
907.635	2
908.498	1
908.544	2
908.586	1
909.479	0
