Mass spectrum: PC 38:4; LC-ESI-QTOF; MS2
Name: PC 38:4
Class: PC
Formula: C46H84NO8P
Exact mass: 810.1529999999999
SMILES: CCCCCCCC\C=C/CCCCCCCC(=O)OCC(COP([O-])(=O)OCC[N+](C)(C)C)OC(=O)CCCCCCCCC\C=C/C\C=C/C\C=C/CC
InChI: InChI=1S/C46H84NO8P/c1-6-8-10-12-14-16-18-20-22-23-25-27-29-31-33-35-37-39-46(49)55-44(43-54-56(50,51)53-41-40-47(3,4)5)42-52-45(48)38-36-34-32-30-28-26-24-21-19-17-15-13-11-9-7-2/h8,10,14,16,20-22,24,44H,6-7,9,11-13,15,17-19,23,25-43H2,1-5H3/b10-8-,16-14-,22-20-,24-21-
Instrument: AB Sciex TripleTOF 5600+ system (Q-TOF) equipped with a DuoSpray ion source
Instrument type: LC-ESI-QTOF
Ms type: MS2
Ion mode: NEGATIVE
Collision energy: 45V
Column name: Acquity UPLC Peptide BEH C18 column (50*2.1 mm; 1.7 um; 130A)(Waters Co.,Milford, MA, USA)
Retention time: 9.698568
Precursor type: [M+CH3COOH-H]-
Precursor m/z: 868.6054
m/z	relative intensity
168.045	10
224.068	10
255.231	8
261.258	4
279.232	210
281.247	205
283.266	7
284.263	6
301.219	7
302.216	11
303.228	8
304.306	4
305.247	483
307.264	80
329.248	9
330.254	7
331.258	3
435.253	2
436.284	8
480.313	2
486.304	2
488.313	8
504.314	3
506.328	23
512.312	7
514.33	5
530.327	6
532.343	16
723.473	3
730.537	1
748.514	1
749.504	2
792.027	1
792.567	1
793.561	11
794.567	999
795.58	4
808.507	2
808.594	2
809.533	9
868.605	118
