Mass spectrum: PE(16:0/5,6-EET); LC-ESI-QTOF; MS2
Name: PE(16:0/5,6-EET)
Class: Oxidized Phospholipid
Formula: C41H74NO9P
Exact mass: 756.017
SMILES: CCCCCCCCCCCCCCCC(=O)OCC(COP(O)(=O)OCCN)OC(=O)CCCC1OC1C\C=C/C\C=C/C\C=C/CCCCC
InChI: InChI=1S/C41H74NO9P/c1-3-5-7-9-11-13-15-17-19-21-23-25-27-31-40(43)47-35-37(36-49-52(45,46)48-34-33-42)50-41(44)32-28-30-39-38(51-39)29-26-24-22-20-18-16-14-12-10-8-6-4-2/h12,14,18,20,24,26,37-39H,3-11,13,15-17,19,21-23,25,27-36,42H2,1-2H3,(H,45,46)/b14-12-,20-18-,26-24-
Instrument: Acquity UPLC Peptide BEH C18 column (50 x 2.1 mm; 1.7 um), Sciex TripleTOF5600
Instrument type: LC-ESI-QTOF
Ms type: MS2
Ion mode: NEGATIVE
Collision energy: 30-50
Precursor m/z: 754.5028435
Precursor type: [M-H]-
m/z	relative intensity
83.05302	102
140.008	102
140.0147	102
191.1697	159
191.1716	102
191.1736	159
191.1755	159
191.1775	210
191.1794	159
191.1814	420
191.1833	364
191.1872	102
191.1892	102
219.169	159
255.2132	159
255.2177	159
255.2199	313
255.2222	159
255.2244	364
255.2267	210
255.2289	471
255.2312	733
255.2335	471
255.2357	886
255.238	681
255.2402	420
255.2425	210
255.2447	261
255.247	102
255.2492	159
255.2515	102
257.221	102
257.2255	159
257.23	102
275.2355	102
301.2097	102
301.2219	102
317.2165	102
319.2024	102
319.21	159
319.2125	159
319.215	159
319.2175	102
319.22	261
319.2226	471
319.2251	364
319.2276	420
319.2301	420
319.2326	364
319.2352	364
319.2377	102
319.2402	210
319.2427	102
319.2452	102
319.2478	159
335.2969	102
452.2506	102
452.2536	102
452.2596	102
452.2656	210
452.2746	159
452.2776	159
452.2806	210
452.2836	471
452.2866	102
452.2926	159
452.3046	159
754.4467	102
754.4506	102
754.4583	102
754.4661	159
754.47	891
754.4739	369
754.4777	159
754.4816	840
754.4855	528
754.4894	999
754.4932	897
754.4971	897
754.501	635
754.5048	845
754.5087	953
754.5126	630
754.5165	630
754.5203	789
754.5242	845
754.5281	681
754.532	313
754.5359	630
754.5397	420
754.5436	471
754.5475	102
754.5513	159
754.5552	210
754.5591	102
754.5668	102
