Mass spectrum: PC 35:3; LC-ESI-QTOF; MS2
Name: PC 35:3
Class: PC
Formula: C43H80NO8P
Exact mass: 770.0879999999999
SMILES: CCCCCCC\C=C/CCCCCCCC(=O)OCC(COP([O-])(=O)OCC[N+](C)(C)C)OC(=O)CCCCCCC\C=C/C\C=C/CCCCC
InChI: InChI=1S/C43H80NO8P/c1-6-8-10-12-14-16-18-20-22-24-26-28-30-32-34-36-43(46)52-41(40-51-53(47,48)50-38-37-44(3,4)5)39-49-42(45)35-33-31-29-27-25-23-21-19-17-15-13-11-9-7-2/h14,16,19-22,41H,6-13,15,17-18,23-40H2,1-5H3/b16-14-,21-19-,22-20-
Instrument: AB Sciex TripleTOF 5600+ system (Q-TOF) equipped with a DuoSpray ion source
Instrument type: LC-ESI-QTOF
Ms type: MS2
Ion mode: NEGATIVE
Collision energy: 45V
Column name: Acquity UPLC Peptide BEH C18 column (50*2.1 mm; 1.7 um; 130A)(Waters Co.,Milford, MA, USA)
Retention time: 9.103286
Precursor type: [M+CH3COOH-H]-
Precursor m/z: 828.5744
m/z	relative intensity
168.042	11
224.072	17
241.223	11
265.213	35
267.232	309
277.209	19
279.231	848
281.247	29
283.258	11
305.246	27
306.252	11
440.47	17
474.302	17
492.303	59
746.502	11
754.534	999
754.567	133
767.529	53
768.518	11
769.496	17
796.488	11
796.597	19
828.499	29
828.581	166
828.635	29
