Mass spectrum: PE(18:0/17,18-EpETE); LC-ESI-QTOF; MS2
Name: PE(18:0/17,18-EpETE)
Class: Oxidized Phospholipid
Formula: C43H76NO9P
Exact mass: 782.055
SMILES: CCCCCCCCCCCCCCCCCC(=O)OCC(COP(O)(=O)OCCN)OC(=O)CCC\C=C/C\C=C/C\C=C/C\C=C/CC1OC1CC
InChI: InChI=1S/C43H76NO9P/c1-3-5-6-7-8-9-10-11-12-15-18-21-24-27-30-33-42(45)49-37-39(38-51-54(47,48)50-36-35-44)52-43(46)34-31-28-25-22-19-16-13-14-17-20-23-26-29-32-41-40(4-2)53-41/h13,16-17,20,22,25-26,29,39-41H,3-12,14-15,18-19,21,23-24,27-28,30-38,44H2,1-2H3,(H,47,48)/b16-13-,20-17-,25-22-,29-26-
Instrument: Acquity UPLC Peptide BEH C18 column (50 x 2.1 mm; 1.7 um), Sciex TripleTOF5600
Instrument type: LC-ESI-QTOF
Ms type: MS2
Ion mode: NEGATIVE
Collision energy: 30-50
Precursor m/z: 780.5184935
Precursor type: [M-H]-
m/z	relative intensity
78.96097	28
140.0068	28
140.0084	85
140.0118	43
140.0151	28
140.0201	28
152.9895	28
152.9948	43
152.9983	71
161.1335	28
161.1389	43
187.1491	28
196.0268	28
196.0287	28
196.0307	28
196.0347	57
196.0367	43
196.0386	57
196.0426	43
196.0446	28
196.0485	43
196.0505	28
201.1647	43
201.1687	28
201.1707	28
214.04	28
215.1665	43
215.1727	71
215.1747	57
215.1768	43
215.1789	43
215.181	99
215.183	71
215.1851	43
215.1892	85
215.1913	28
215.1996	28
219.1753	28
219.1774	28
239.1676	28
243.1972	28
245.1551	43
247.1762	43
253.2041	28
253.2109	28
253.2131	43
253.2176	43
253.2199	28
253.2243	28
253.2288	28
255.1973	43
255.1995	28
255.2018	71
255.204	57
255.2063	99
255.2086	71
255.2108	85
255.2131	71
255.2153	71
255.2176	71
255.2198	43
255.2221	43
255.2243	43
255.2288	28
255.2311	43
255.2356	28
259.1525	43
259.1548	28
259.1638	43
259.1661	99
259.1684	99
259.1707	57
259.1729	170
259.1752	57
259.1775	43
259.1797	85
259.1843	43
271.2238	28
273.2119	28
273.2142	28
273.2189	43
273.2212	28
273.2259	57
273.2305	57
280.0195	28
281.2344	57
281.2368	28
281.2391	28
281.2415	99
281.2462	28
281.2509	99
281.2533	71
281.2557	28
281.258	29
281.2604	43
281.2628	59
282.2717	29
282.3808	29
283.1115	29
283.1377	29
283.2421	28
283.2445	60
283.2469	87
283.2492	205
283.2516	279
283.254	442
283.2564	516
283.2587	547
283.2611	699
283.2635	832
283.2659	712
283.2682	670
283.2706	580
283.273	607
283.2754	266
283.2777	253
283.2801	120
283.2825	103
283.2849	75
283.2872	45
283.2896	59
283.292	15
283.3062	15
284.1927	15
284.2689	15
299.1827	43
299.1851	43
299.19	43
299.1924	43
299.1949	57
299.1973	114
299.1998	71
299.2022	71
299.2047	99
299.2071	114
299.2095	87
299.212	28
299.2144	43
299.2169	43
299.2193	28
316.7689	29
316.8267	29
317.1808	28
317.1834	57
317.1859	43
317.1884	29
317.1909	87
317.1934	131
317.196	174
317.1985	275
317.201	318
317.2035	234
317.206	188
317.2085	421
317.211	406
317.2135	375
317.216	504
317.2185	273
317.2211	187
317.2236	216
317.2261	130
317.2286	71
317.2311	57
317.2361	28
318.2397	15
345.2358	28
391.2226	28
391.2394	28
417.227	28
417.2414	28
417.2472	28
417.2501	28
417.2616	28
440.0898	28
462.2751	28
462.2964	28
462.3055	43
480.282	28
480.2851	43
480.2882	85
480.2913	43
480.2944	85
480.2975	85
480.3006	71
480.3036	99
480.3068	186
480.3098	241
480.3129	57
480.316	128
480.3191	128
480.3222	71
480.3253	43
480.3284	57
480.3315	28
480.3377	57
480.3408	28
480.3439	28
480.347	28
496.2696	28
514.2708	28
516.2405	28
518.2558	57
544.2546	28
544.2579	43
544.2612	57
544.2678	43
544.2776	43
693.4193	28
693.4453	28
693.4527	43
693.4787	28
706.4694	28
706.5106	28
780.4197	28
780.4276	43
780.4394	57
780.4434	43
780.4473	43
780.4512	87
780.4551	43
780.4591	102
780.4631	220
780.467	159
780.4709	212
780.4749	307
780.4788	324
780.4828	479
780.4867	403
780.4907	416
780.4946	444
780.4985	483
780.5024	686
780.5064	653
780.5104	700
780.5143	999
780.5182	780
780.5222	749
780.5261	763
780.5301	919
780.534	696
780.538	777
780.5419	646
780.5458	400
780.5497	308
780.5537	370
780.5577	458
780.5616	324
780.5656	248
780.5695	155
780.5734	123
780.5773	124
780.5813	61
780.5853	15
780.5931	31
780.9874	15
781.504	43
781.5316	28
781.579	28
