Mass spectrum: PC 38:5; LC-ESI-QTOF; MS2
Name: PC 38:5
Class: PC
Formula: C46H82NO8P
Exact mass: 808.137
SMILES: CCCCCCCCCCCCCCCC(=O)OCC(COP([O-])(=O)OCC[N+](C)(C)C)OC(=O)CCCCC\C=C/C\C=C/C\C=C/C\C=C/C\C=C/CC
InChI: InChI=1S/C46H82NO8P/c1-6-8-10-12-14-16-18-20-21-22-23-24-25-27-29-31-33-35-37-39-46(49)55-44(43-54-56(50,51)53-41-40-47(3,4)5)42-52-45(48)38-36-34-32-30-28-26-19-17-15-13-11-9-7-2/h8,10,14,16,20-21,23-24,27,29,44H,6-7,9,11-13,15,17-19,22,25-26,28,30-43H2,1-5H3/b10-8-,16-14-,21-20-,24-23-,29-27-
Instrument: AB Sciex TripleTOF 5600+ system (Q-TOF) equipped with a DuoSpray ion source
Instrument type: LC-ESI-QTOF
Ms type: MS2
Ion mode: NEGATIVE
Collision energy: 45V
Column name: Acquity UPLC Peptide BEH C18 column (50*2.1 mm; 1.7 um; 130A)(Waters Co.,Milford, MA, USA)
Retention time: 9.639522
Precursor type: [M+CH3COOH-H]-
Precursor m/z: 866.5873
m/z	relative intensity
133.103	1
151.146	1
168.042	15
179.182	3
193.193	1
224.068	14
231.211	18
242.079	1
245.187	1
251.203	4
254.433	2
255.231	269
281.248	1
283.258	4
284.382	1
285.257	142
303.234	2
311.234	5
328.225	3
329.128	1
329.165	1
329.246	647
330.245	3
391.225	2
462.301	13
480.291	20
480.305	96
482.303	0
513.781	0
536.312	7
550.391	0
554.334	5
721.472	2
790.012	1
790.062	3
792.55	999
793.563	1
807.497	6
807.527	7
866.539	5
866.581	87
866.607	27
