Mass spectrum: Cer[NS] d46:2; LC-ESI-QTOF; MS2
Name: Cer[NS] d46:2
Class: Cer_NS
Formula: C46H89NO3
Exact mass: 704.2219999999999
SMILES: CCCCCCCCCCCCCCC\C=C\C(O)C(CO)NC(=O)CCCCCCCCC\C=C/CCCCCCCCCCCCCC
InChI: InChI=1S/C46H89NO3/c1-3-5-7-9-11-13-15-17-19-20-21-22-23-24-25-26-28-30-32-34-36-38-40-42-46(50)47-44(43-48)45(49)41-39-37-35-33-31-29-27-18-16-14-12-10-8-6-4-2/h24-25,39,41,44-45,48-49H,3-23,26-38,40,42-43H2,1-2H3,(H,47,50)/b25-24-,41-39+
Instrument: AB Sciex TripleTOF 5600+ system (Q-TOF) equipped with a DuoSpray ion source
Instrument type: LC-ESI-QTOF
Ms type: MS2
Ion mode: NEGATIVE
Collision energy: 45V
Column name: Acquity UPLC Peptide BEH C18 column (50*2.1 mm; 1.7 um; 130A)(Waters Co.,Milford, MA, USA)
Retention time: 13.53129
Precursor type: [M+CH3COOH-H]-
Precursor m/z: 762.6942
m/z	relative intensity
202.993	1
217.001	1
237.214	2
263.232	4
265.25	40
267.264	3
270.937	1
278.283	3
279.228	1
291.266	44
294.274	2
294.288	4
296.291	5
309.276	2
326.3	2
347.336	1
349.349	4
352.929	2
365.379	1
366.372	8
367.36	1
375.36	51
377.373	5
390.377	8
391.382	1
392.385	112
393.339	1
393.357	8
393.378	18
403.386	2
408.382	3
411.021	2
416.391	2
418.404	249
420.42	7
421.408	1
432.384	1
434.37	3
434.396	30
434.417	7
436.414	2
446.429	6
462.43	2
516.953	1
627.641	2
628.602	1
628.651	4
643.642	1
644.619	5
646.622	2
646.657	3
654.622	6
654.652	24
670.619	6
670.646	29
670.682	3
671.64	1
672.634	19
672.664	47
676.663	6
677.657	5
684.646	2
700.465	2
701.781	0
702.167	0
702.469	1
702.573	2
702.672	999
703.039	0
703.185	0
703.26	1
703.693	2
762.539	0
762.678	3
