Mass spectrum: PI(16:1/18-HETE); LC-ESI-QTOF; MS2
Name: PI(16:1/18-HETE)
Class: Oxidized Phospholipid
Formula: C45H77O14P
Exact mass: 873.073
SMILES: CCCCCC\C=C/CCCCCCCC(=O)OCC(COP(O)(=O)OC1C(O)C(O)C(O)C(O)C1O)OC(=O)CCC\C=C/C\C=C/C\C=C/C\C=C/CCC(O)CC
InChI: InChI=1S/C45H77O14P/c1-3-5-6-7-8-9-10-13-17-20-23-26-29-32-38(47)56-34-37(35-57-60(54,55)59-45-43(52)41(50)40(49)42(51)44(45)53)58-39(48)33-30-27-24-21-18-15-12-11-14-16-19-22-25-28-31-36(46)4-2/h9-10,12,14-16,21-22,24-25,36-37,40-46,49-53H,3-8,11,13,17-20,23,26-35H2,1-2H3,(H,54,55)/b10-9-,15-12-,16-14-,24-21-,25-22-
Instrument: Acquity UPLC Peptide BEH C18 column (50 x 2.1 mm; 1.7 um), Sciex TripleTOF5600
Instrument type: LC-ESI-QTOF
Ms type: MS2
Ion mode: NEGATIVE
Collision energy: 30-50
Precursor m/z: 871.4978177
Precursor type: [M-H]-
m/z	relative intensity
78.95881	62
78.96257	42
152.9955	42
152.999	42
223.0052	42
241.0052	42
241.0074	62
241.0096	83
241.0139	104
241.0161	62
241.0183	104
241.0249	42
253.2031	42
253.2099	42
253.2144	83
253.2166	42
253.2189	62
253.2211	83
253.2233	62
253.2256	62
253.2278	42
261.1792	42
261.1838	42
261.1861	104
261.1884	42
261.1998	42
283.2554	42
283.2839	42
301.2132	62
319.2161	83
319.2211	125
319.2237	187
319.2262	125
319.2287	125
319.2312	166
319.2337	104
319.2363	146
319.2388	83
319.2413	83
319.2438	42
319.2514	42
389.2011	62
389.2094	62
389.215	42
389.2178	42
390.2233	42
455.224	42
551.2581	42
551.2648	42
551.2747	42
569.2654	62
617.2628	42
871.4189	62
871.4356	104
871.4398	281
871.444	104
871.4481	104
871.4523	281
871.4564	125
871.4606	323
871.4648	364
871.4689	385
871.4731	656
871.4772	510
871.4814	697
871.4856	697
871.4897	572
871.4939	739
871.4981	957
871.5023	832
871.5064	999
871.5106	937
871.5148	874
871.5189	916
871.5231	697
871.5272	614
871.5314	895
871.5356	593
871.5397	510
871.5439	406
871.5481	229
871.5522	302
871.5564	281
871.5605	146
871.5648	62
871.5689	166
871.5731	83
871.5772	42
871.5897	42
871.5939	42
872.4689	42
872.473	62
872.4939	42
872.5189	125
872.5231	42
872.5356	42
