Mass spectrum: PI(18:0/14,15-EpETE); LC-ESI-QTOF; MS2
Name: PI(18:0/14,15-EpETE)
Class: Oxidized Phospholipid
Formula: C47H81O14P
Exact mass: 901.127
SMILES: CCCCCCCCCCCCCCCCCC(=O)OCC(COP(O)(=O)OC1C(O)C(O)C(O)C(O)C1O)OC(=O)CCC\C=C/C\C=C/C\C=C/CC1OC1C\C=C/CC
InChI: InChI=1S/C47H81O14P/c1-3-5-7-8-9-10-11-12-13-14-15-19-22-25-29-33-40(48)57-35-37(36-58-62(55,56)61-47-45(53)43(51)42(50)44(52)46(47)54)59-41(49)34-30-26-23-20-17-16-18-21-24-28-32-39-38(60-39)31-27-6-4-2/h6,16,18,20,23-24,27-28,37-39,42-47,50-54H,3-5,7-15,17,19,21-22,25-26,29-36H2,1-2H3,(H,55,56)/b18-16-,23-20-,27-6-,28-24-
Instrument: Acquity UPLC Peptide BEH C18 column (50 x 2.1 mm; 1.7 um), Sciex TripleTOF5600
Instrument type: LC-ESI-QTOF
Ms type: MS2
Ion mode: NEGATIVE
Collision energy: 30-50
Precursor m/z: 899.5291178
Precursor type: [M-H]-
m/z	relative intensity
78.95692	4
78.95817	7
78.95942	10
78.96068	7
78.96193	10
78.96319	7
78.96444	4
78.96569	5
78.96695	6
78.9682	3
83.06361	2
93.07117	2
96.9688	3
96.97158	4
96.97297	3
96.97436	3
97.0647	2
97.06609	2
111.0809	2
111.0839	2
121.1048	2
121.1063	2
151.112	2
151.6623	2
152.9858	3
152.9875	5
152.9893	9
152.991	10
152.9928	7
152.9945	17
152.9963	14
152.998	12
152.9998	12
153.0015	10
153.0032	7
153.005	3
153.0067	3
171.0036	2
171.0092	2
175.1467	3
175.1486	7
175.1523	3
175.1542	3
177.0941	3
189.1306	2
189.1326	2
191.1092	2
191.1112	2
193.1236	2
201.1585	3
201.1625	3
201.1645	2
201.1665	2
201.1685	3
203.1365	2
203.1445	3
203.1465	3
203.1485	2
205.1302	2
207.1174	2
207.1235	3
207.1256	7
207.1276	9
207.1296	5
207.1317	12
207.1337	10
207.1357	16
207.1377	18
207.1398	21
207.1418	28
207.1438	21
207.1459	12
207.1479	3
207.1499	6
207.152	4
207.156	2
207.1581	3
219.125	3
219.1271	3
219.1292	3
219.1313	4
219.1334	3
219.1355	11
219.1375	7
219.1396	11
219.1417	7
219.1438	11
219.1459	4
219.148	2
219.1501	2
219.1522	2
219.1564	2
220.135	2
220.1392	2
220.1434	3
220.1455	3
220.1496	2
221.1473	2
221.1515	2
221.1557	3
221.4285	2
222.3155	2
222.9407	2
222.985	3
222.9871	7
222.9892	6
222.9913	13
222.9934	14
222.9955	20
222.9976	27
222.9997	21
223.0018	20
223.0039	31
223.006	18
223.0081	21
223.0103	5
223.0124	4
223.0145	3
223.0166	3
223.7061	1
235.1238	2
235.1303	3
235.1325	2
235.1347	3
235.1368	2
235.139	3
235.1455	3
236.1483	2
240.2619	3
240.2684	2
240.31	2
240.5266	2
240.9842	2
240.9885	1
240.9907	7
240.9929	4
240.9951	9
240.9973	12
240.9995	31
241.0017	49
241.0039	81
241.0061	83
241.0083	108
241.0105	125
241.0126	127
241.0148	95
241.017	106
241.0192	71
241.0214	47
241.0236	32
241.0258	21
241.028	7
241.0302	14
241.0323	6
241.0345	4
241.0367	1
241.0389	3
241.0433	1
241.0521	1
241.3172	1
241.5957	1
242.0081	1
242.0125	1
242.0169	1
242.2409	1
247.1229	2
247.1251	3
247.1273	5
247.1317	2
247.134	4
247.1362	3
247.1384	3
248.1264	3
248.1287	2
248.1309	3
248.1331	3
248.1353	7
248.1375	10
248.1398	6
248.142	14
248.1442	10
248.1464	13
248.1487	3
248.1509	7
248.1531	3
248.1553	3
248.1575	2
248.162	3
253.1951	2
255.1882	2
255.1949	2
255.1994	5
255.2017	6
255.2039	9
255.2062	10
255.2084	7
255.2107	7
255.213	9
255.2152	10
255.2175	9
255.2197	5
255.222	5
255.2242	3
255.2287	2
257.4471	2
259.0093	3
259.0116	7
259.0139	5
259.0161	4
259.0184	7
259.0207	12
259.0229	13
259.0252	17
259.0275	14
259.0297	7
259.032	10
259.0343	3
259.0366	3
261.0867	2
273.2071	3
273.2095	3
273.2165	2
273.2211	2
273.2258	4
273.2281	2
273.2304	2
273.2328	3
273.2351	4
282.3452	2
282.3855	4
282.3926	3
282.44	2
283.2326	3
283.2349	1
283.2373	4
283.2397	3
283.2421	7
283.2444	16
283.2468	25
283.2492	29
283.2516	39
283.2539	65
283.2563	78
283.2587	94
283.261	122
283.2634	145
283.2658	132
283.2682	131
283.2705	110
283.2729	81
283.2753	58
283.2777	44
283.2801	28
283.2824	21
283.2848	12
283.2872	12
283.2896	7
283.2919	4
283.2943	6
283.2967	2
283.3038	1
283.3703	1
283.7695	1
284.1166	1
284.2664	3
284.2736	2
297.0218	6
297.0243	8
297.0267	9
297.0291	12
297.0316	15
297.034	12
297.0364	17
297.0388	13
297.0413	19
297.0437	19
297.0461	16
297.0486	5
297.051	6
297.0534	3
297.0558	4
297.0583	2
297.0607	2
299.1851	4
299.1875	7
299.19	5
299.1924	5
299.1949	6
299.1973	6
299.1997	9
299.2022	5
299.2046	8
299.2071	5
299.2095	6
299.2119	7
299.2144	3
299.2168	5
299.2193	4
299.2217	3
315.026	3
315.0285	2
315.0335	2
315.036	3
315.0385	5
315.041	8
315.0435	10
315.046	7
315.0485	8
315.051	7
315.0535	6
315.056	3
315.0585	8
315.061	7
315.0635	3
315.066	3
316.0762	2
316.2141	2
316.2217	2
316.2242	2
317.1783	2
317.1834	2
317.1859	3
317.1884	6
317.1909	8
317.1934	14
317.196	14
317.1985	20
317.201	27
317.2035	30
317.206	50
317.2085	43
317.211	49
317.2135	57
317.216	48
317.2185	50
317.2211	44
317.2236	23
317.2261	19
317.2286	12
317.2311	9
317.2336	3
317.2361	4
317.2386	3
317.2412	2
317.2462	1
317.2487	1
317.2588	1
317.3442	1
318.217	2
318.2245	2
318.2497	1
322.9006	2
356.4838	2
389.1937	2
417.2445	2
418.6406	2
418.9611	2
419.0737	2
419.2124	2
419.2153	2
419.2182	1
419.2211	4
419.224	5
419.2268	4
419.2297	6
419.2326	9
419.2355	21
419.2384	26
419.2413	34
419.2442	44
419.2471	36
419.25	51
419.2528	57
419.2557	60
419.2586	60
419.2615	56
419.2644	70
419.2673	46
419.2702	42
419.2731	35
419.276	25
419.2788	11
419.2817	8
419.2846	8
419.2875	8
419.2904	2
419.2933	3
419.2962	3
419.328	1
420.2444	1
420.2502	2
420.852	2
429.0893	1
437.2471	2
437.25	5
437.253	4
437.256	3
437.2589	7
437.2618	4
437.2648	8
437.2678	3
437.2707	7
437.2737	6
437.2766	3
437.2795	6
437.2825	3
437.2884	2
453.1712	3
453.1742	2
453.1772	2
453.1802	2
453.1832	3
453.1862	5
453.1892	10
453.1922	4
453.1952	3
453.1982	10
453.2012	11
453.2042	10
453.2072	11
453.2102	13
453.2132	14
453.2162	9
453.2192	6
453.2222	3
453.2252	7
453.2282	5
453.2312	2
453.2433	2
471.2129	2
471.2252	2
490.8908	2
504.7454	2
506.4808	2
510.4897	2
525.3016	3
541.2079	2
541.2178	2
559.2452	2
572.5501	2
579.4921	2
579.5023	2
580.6782	2
580.9706	2
581.1985	2
581.2597	2
581.2631	3
581.2665	3
581.2699	6
581.2733	5
581.2767	13
581.2801	23
581.2835	21
581.2869	33
581.2903	40
581.2937	51
581.2971	54
581.3005	54
581.3039	55
581.3073	77
581.3107	72
581.3141	63
581.3175	70
581.3209	74
581.3243	55
581.3278	48
581.3311	35
581.3345	35
581.338	25
581.3414	13
581.3447	10
581.3481	9
581.3516	6
581.355	6
581.3618	3
581.3652	2
581.3685	3
581.3754	1
582.2977	3
582.3215	2
582.325	2
582.3317	2
583.2173	2
597.4199	2
597.6476	2
599.0799	2
599.2698	2
599.2768	3
599.2802	5
599.2837	3
599.2871	2
599.2906	5
599.2941	10
599.2975	13
599.301	20
599.3044	18
599.3079	18
599.3113	17
599.3148	16
599.3182	19
599.3217	19
599.3251	30
599.3286	18
599.332	21
599.3355	17
599.3389	19
599.3424	17
599.3458	13
599.3493	13
599.3528	3
599.3597	3
599.3631	4
599.3666	1
599.3701	2
600.3342	2
615.2043	3
615.2148	2
615.2183	2
615.2218	3
615.2253	7
615.2288	4
615.2323	6
615.2358	8
615.2393	8
615.2428	12
615.2463	11
615.2498	12
615.2533	10
615.2568	10
615.2603	13
615.2638	17
615.2673	12
615.2708	17
615.2743	14
615.2778	10
615.2813	10
615.2848	7
615.2883	7
615.2918	4
615.2953	2
615.2988	2
615.3023	2
633.2388	2
633.2424	2
633.2566	2
633.2637	3
633.2673	2
633.2708	2
633.2744	3
633.2779	3
633.2814	2
633.2921	2
633.2957	2
671.4782	2
737.4537	3
737.4614	2
737.4652	2
737.4691	3
737.4805	2
737.4844	2
737.4882	5
737.4921	3
737.4958	2
737.4997	2
737.5112	3
739.4897	2
896.1633	2
896.6322	3
896.6364	3
896.6575	4
896.666	2
896.6744	2
896.6786	4
896.6829	3
896.6871	8
896.6913	7
896.6956	2
896.6998	3
896.704	6
896.7083	6
896.7125	8
896.7167	4
896.7209	3
896.7252	5
896.7336	5
896.7421	3
896.7463	2
896.7505	2
896.759	3
896.7632	3
896.7716	3
896.7801	2
896.7885	2
896.7928	2
896.8604	2
897.1055	2
897.7226	2
897.7352	2
898.268	2
898.3991	2
898.526	3
898.5979	2
898.7121	2
899.1859	3
899.2197	2
899.3044	3
899.3213	2
899.3552	2
899.3721	6
899.4229	2
899.4271	3
899.4694	6
899.4736	22
899.4778	60
899.4821	104
899.4863	114
899.4905	168
899.4948	234
899.499	305
899.5032	431
899.5075	565
899.5117	736
899.5159	841
899.5202	918
899.5244	876
899.5286	863
899.5329	918
899.5371	909
899.5413	999
899.5456	979
899.5498	935
899.554	884
899.5583	674
899.5625	490
899.5667	289
899.571	232
899.5752	147
899.5794	84
899.5837	58
899.5879	32
899.5921	19
899.5964	11
899.6006	13
899.6048	2
899.6091	8
899.626	2
899.6345	2
899.8376	3
899.973	3
900.0027	2
900.2693	2
900.3329	2
900.3922	2
900.4429	3
900.4599	4
900.4641	3
900.4683	7
900.4726	6
900.4768	6
900.4811	9
900.4853	5
900.4895	4
900.4938	17
900.498	15
900.5022	14
900.5065	25
900.5107	26
900.5149	29
900.5192	35
900.5234	30
900.5276	32
900.5319	30
900.5361	46
900.5403	43
900.5446	39
900.5488	39
900.553	34
900.5573	40
900.5615	27
900.5657	27
900.5699	18
900.5742	13
900.5784	19
900.5826	6
900.5869	7
900.5911	6
900.5954	6
900.5996	9
900.6038	4
900.6081	2
900.6123	2
900.6208	2
900.6292	1
900.8537	2
900.8579	2
901.2307	2
901.2772	2
901.506	2
901.5399	2
901.578	2
902.6756	2
902.6799	2
903.2056	2
905.6412	2
906.4525	2
