Mass spectrum: PE(18:1/13-HODE); LC-ESI-QTOF; MS2
Name: PE(18:1/13-HODE)
Class: Oxidized Phospholipid
Formula: C41H76NO9P
Exact mass: 758.033
SMILES: CCCCCCCC\C=C/CCCCCCCC(=O)OCC(COP(O)(=O)OCCN)OC(=O)CCCCCCC\C=C/C=C/C(O)CCCCC
InChI: InChI=1S/C41H76NO9P/c1-3-5-7-8-9-10-11-12-13-14-15-18-21-24-28-32-40(44)48-36-39(37-50-52(46,47)49-35-34-42)51-41(45)33-29-25-22-19-16-17-20-23-27-31-38(43)30-26-6-4-2/h12-13,20,23,27,31,38-39,43H,3-11,14-19,21-22,24-26,28-30,32-37,42H2,1-2H3,(H,46,47)/b13-12-,23-20-,31-27+
Instrument: Acquity UPLC Peptide BEH C18 column (50 x 2.1 mm; 1.7 um), Sciex TripleTOF5600
Instrument type: LC-ESI-QTOF
Ms type: MS2
Ion mode: NEGATIVE
Collision energy: 30-50
Precursor m/z: 756.5184935
Precursor type: [M-H]-
m/z	relative intensity
78.95878	12
78.96255	19
140.0051	19
140.0068	12
140.0084	25
140.0101	32
140.0118	19
140.0151	19
140.0184	12
179.1458	12
195.1281	38
195.1301	51
195.132	57
195.134	76
195.136	76
195.1379	120
195.1399	82
195.1419	76
195.1438	107
195.1458	38
195.1517	12
195.1557	12
196.0318	51
196.0338	25
196.0358	32
196.0378	44
196.0397	38
196.0417	25
196.0437	12
196.0496	12
277.1986	12
277.2033	25
277.2057	51
277.208	19
277.2104	82
277.2127	76
277.2151	89
277.2174	89
277.2198	133
277.2221	101
277.2245	44
277.2268	76
277.2292	71
277.2315	25
277.2386	12
280.3673	19
280.3697	12
280.4736	14
280.8235	14
281.2114	13
281.2208	20
281.2256	56
281.2279	61
281.2303	89
281.2327	147
281.235	209
281.2374	308
281.2397	528
281.2421	564
281.2445	736
281.2469	931
281.2492	999
281.2516	914
281.254	653
281.2563	486
281.2587	437
281.261	339
281.2634	239
281.2658	105
281.2682	98
281.2705	57
281.2729	35
281.2752	28
281.2776	14
281.2823	7
281.2989	14
281.3344	7
281.4267	7
282.2487	12
282.2511	12
284.5837	7
293.2172	12
293.2245	20
294.2982	20
294.3055	20
294.3176	14
294.4241	14
294.8189	13
295.2018	20
295.2042	33
295.2066	49
295.2091	90
295.2115	167
295.2139	308
295.2163	436
295.2188	536
295.2212	638
295.2236	736
295.226	813
295.2285	915
295.2309	930
295.2333	862
295.2357	551
295.2382	480
295.2406	282
295.243	198
295.2454	133
295.2479	127
295.2503	50
295.2527	35
295.2551	28
295.2576	21
295.26	20
295.2648	7
295.2672	7
295.4128	7
295.5898	7
295.9562	7
296.2233	12
296.233	7
460.2614	19
460.2674	12
460.2735	12
460.2795	12
460.2856	25
460.2886	12
460.2947	12
460.2977	12
474.236	12
474.2391	12
474.2483	12
474.2606	32
474.2637	19
474.2698	12
474.2729	19
478.2667	12
478.276	12
478.2791	19
478.2822	63
478.2852	19
478.2883	25
478.2914	44
478.2945	44
478.2976	38
478.3007	38
478.3038	44
478.3069	38
478.3099	38
478.313	19
478.3223	19
478.3408	12
492.2471	12
492.2533	25
492.2565	12
492.2596	25
492.2627	12
492.2659	63
492.269	12
492.2721	57
492.2752	12
492.2784	25
492.2815	19
492.2846	25
492.2878	25
492.2971	12
754.11	12
754.1758	14
756.4405	12
756.4443	12
756.4521	12
756.456	19
756.4637	7
756.4677	48
756.4716	28
756.4754	27
756.4793	76
756.4832	94
756.4871	281
756.4909	209
756.4948	235
756.4987	469
756.5026	445
756.5065	440
756.5103	569
756.5142	616
756.5181	727
756.522	764
756.5259	828
756.5297	710
756.5336	645
756.5375	565
756.5414	567
756.5453	464
756.5491	375
756.553	279
756.5569	209
756.5608	172
756.5647	121
756.5685	123
756.5724	65
756.5763	15
756.5802	28
756.5841	29
756.588	7
756.5919	21
756.5996	14
756.6074	13
756.9645	7
757.5042	12
757.5081	19
757.5158	12
757.5197	12
757.5469	12
757.5547	19
757.5624	12
