Mass spectrum: PI(18:0/17-HDoHE); LC-ESI-QTOF; MS2
Name: PI(18:0/17-HDoHE)
Class: Oxidized Phospholipid
Formula: C49H83O14P
Exact mass: 927.165
SMILES: CCCCCCCCCCCCCCCCCC(=O)OCC(COP(O)(=O)OC1C(O)C(O)C(O)C(O)C1O)OC(=O)CC\C=C/C\C=C/C\C=C/C\C=C/C=C\C(O)C\C=C/CC
InChI: InChI=1S/C49H83O14P/c1-3-5-7-8-9-10-11-12-13-16-19-22-25-28-32-36-42(51)60-38-41(39-61-64(58,59)63-49-47(56)45(54)44(53)46(55)48(49)57)62-43(52)37-33-29-26-23-20-17-14-15-18-21-24-27-31-35-40(50)34-30-6-4-2/h6,15,17-18,20,24,26-27,29-31,35,40-41,44-50,53-57H,3-5,7-14,16,19,21-23,25,28,32-34,36-39H2,1-2H3,(H,58,59)/b18-15-,20-17-,27-24-,29-26-,30-6-,35-31-
Instrument: Acquity UPLC Peptide BEH C18 column (50 x 2.1 mm; 1.7 um), Sciex TripleTOF5600
Instrument type: LC-ESI-QTOF
Ms type: MS2
Ion mode: NEGATIVE
Collision energy: 30-50
Precursor m/z: 925.5447679
Precursor type: [M-H]-
m/z	relative intensity
78.96171	14
119.0866	14
147.1144	14
152.9941	29
169.0071	14
201.1579	23
201.1639	23
201.1659	14
201.1679	23
210.039	14
241.0011	38
241.0033	52
241.0054	72
241.0076	43
241.0098	43
241.012	90
241.0142	14
241.0164	52
241.0186	52
241.0208	14
245.1499	23
245.1543	14
245.1565	23
245.1653	14
259.0177	14
259.0222	14
272.0718	14
272.0788	14
273.1505	14
274.1424	14
274.1588	14
281.2147	14
281.217	29
281.2194	14
281.2218	14
281.2265	29
281.2336	23
281.236	14
283.2461	23
283.2508	14
283.2532	14
283.2556	38
283.2603	23
283.2627	14
283.2651	43
283.2675	38
283.2698	23
283.2793	23
290.0855	14
290.0879	14
297.0332	14
297.0356	14
299.2332	14
299.238	14
312.067	14
312.0745	23
325.2111	14
325.2137	23
325.2162	14
325.2238	14
332.0995	14
343.2062	14
343.2088	23
343.2115	29
343.2167	43
343.2193	14
343.2219	43
343.2245	38
343.2271	96
343.2298	58
343.2324	14
343.235	29
343.2376	29
343.2402	14
343.2455	14
343.2533	29
419.2402	23
419.2431	23
419.2489	29
419.2518	14
419.2547	14
419.2605	43
419.2633	23
419.2662	23
419.2691	14
419.2836	14
470.1251	14
470.1373	14
470.1495	29
470.1526	29
470.1679	29
470.1709	14
470.1771	14
479.1933	14
479.2088	14
479.2149	14
479.2211	14
479.2335	14
479.2427	14
516.1531	14
520.0359	14
537.1212	14
537.5201	14
580.4183	14
581.2889	14
581.2923	14
581.2957	14
581.3025	23
581.3059	38
581.3127	14
581.3161	29
581.3195	23
599.296	38
599.3064	23
599.3133	14
599.3167	14
599.3237	14
599.3409	14
641.2477	14
641.2513	14
641.2584	23
641.2656	29
641.2763	14
641.2799	14
641.2834	14
641.2906	14
649.3984	14
860.6386	14
861.6448	14
922.6518	14
925.3624	14
925.3968	23
925.4053	14
925.4097	14
925.4225	23
925.4268	14
925.4311	52
925.4354	43
925.4397	14
925.444	38
925.4482	29
925.4526	43
925.4568	38
925.4611	67
925.4655	29
925.4697	52
925.474	43
925.4783	110
925.4826	142
925.4869	142
925.4912	324
925.4955	258
925.4998	304
925.5041	229
925.5084	408
925.5126	475
925.517	368
925.5212	582
925.5255	675
925.5298	591
925.5341	851
925.5384	860
925.5427	898
925.547	999
925.5513	953
925.5556	866
925.5599	990
925.5641	544
925.5685	762
925.5728	727
925.577	744
925.5814	634
925.5856	402
925.5899	347
925.5942	402
925.5985	264
925.6028	203
925.6071	159
925.6114	127
925.6157	67
925.62	58
925.6243	23
925.6285	61
925.6329	38
925.6371	14
925.9033	14
925.9248	23
925.942	23
925.9506	38
925.9548	14
925.9591	23
925.9634	23
925.9677	23
925.9806	14
925.9849	14
925.9935	14
925.9977	14
926.0063	14
926.0106	14
926.4658	14
926.4787	23
926.5217	29
926.5303	23
926.5432	14
926.5474	14
926.5518	14
926.556	29
926.5603	23
926.5646	23
926.5689	38
926.5904	14
926.5947	14
990.2735	14
1174.714	14
1195.679	14
