Mass spectrum: PE 38:5; LC-ESI-QTOF; MS2
Name: PE 38:5
Class: PE
Formula: C43H76NO8P
Exact mass: 766.0559999999998
SMILES: CCCCCCCC\C=C/CCCCCCCC(=O)OCC(COP(O)(=O)OCCN)OC(=O)CCCCCC\C=C/C\C=C/C\C=C/C\C=C/CC
InChI: InChI=1S/C43H76NO8P/c1-3-5-7-9-11-13-15-17-19-20-22-24-26-28-30-32-34-36-43(46)52-41(40-51-53(47,48)50-38-37-44)39-49-42(45)35-33-31-29-27-25-23-21-18-16-14-12-10-8-6-4-2/h5,7,11,13,17-19,21-22,24,41H,3-4,6,8-10,12,14-16,20,23,25-40,44H2,1-2H3,(H,47,48)/b7-5-,13-11-,19-17-,21-18-,24-22-
Instrument: AB Sciex TripleTOF 5600+ system (Q-TOF) equipped with a DuoSpray ion source
Instrument type: LC-ESI-QTOF
Ms type: MS2
Ion mode: NEGATIVE
Collision energy: 45V
Column name: Acquity UPLC Peptide BEH C18 column (50*2.1 mm; 1.7 um; 130A)(Waters Co.,Milford, MA, USA)
Retention time: 9.531202
Precursor type: [M-H]-
Precursor m/z: 764.5185
m/z	relative intensity
78.958	4
83.048	0
96.97	0
122.004	0
140.011	16
152.994	0
163.074	0
169.125	0
177.091	1
177.158	0
178.028	0
179.18	0
191.107	1
191.179	0
196.037	24
205.124	0
205.194	16
214.045	1
214.055	0
217.118	0
217.186	0
217.203	0
225.18	0
231.211	2
255.232	8
257.225	0
259.171	0
259.241	63
267.21	0
279.225	0
280.347	0
280.367	2
281.059	0
281.139	0
281.183	0
281.247	480
283.206	0
285.221	5
285.253	1
301.203	0
301.223	1
302.283	2
303.079	0
303.167	0
303.231	999
304.233	0
329.233	6
329.245	13
404.254	1
417.235	0
426.241	0
434.259	0
452.261	1
452.293	0
460.258	4
460.277	13
476.82	0
478.291	97
478.343	0
482.24	1
482.261	5
482.278	1
482.291	0
500.239	0
500.268	3
500.292	1
526.292	0
609.504	0
762.069	0
762.11	1
764.279	0
764.516	264
765.489	0
765.525	0
765.556	0
