Mass spectrum: PC 40:8; LC-ESI-QTOF; MS2
Name: PC 40:8
Class: PC
Formula: C48H80NO8P
Exact mass: 830.1429999999999
SMILES: CCCCC\C=C/C\C=C/CCCCCCCC(=O)OCC(COP([O-])(=O)OCC[N+](C)(C)C)OC(=O)CC\C=C/C\C=C/C\C=C/C\C=C/C\C=C/C\C=C/CC
InChI: InChI=1S/C48H80NO8P/c1-6-8-10-12-14-16-18-20-22-23-24-25-27-29-31-33-35-37-39-41-48(51)57-46(45-56-58(52,53)55-43-42-49(3,4)5)44-54-47(50)40-38-36-34-32-30-28-26-21-19-17-15-13-11-9-7-2/h8,10,14-17,20-22,24-26,29,31,35,37,46H,6-7,9,11-13,18-19,23,27-28,30,32-34,36,38-45H2,1-5H3/b10-8-,16-14-,17-15-,22-20-,25-24-,26-21-,31-29-,37-35-
Instrument: AB Sciex TripleTOF 5600+ system (Q-TOF) equipped with a DuoSpray ion source
Instrument type: LC-ESI-QTOF
Ms type: MS2
Ion mode: NEGATIVE
Collision energy: 45V
Column name: Acquity UPLC Peptide BEH C18 column (50*2.1 mm; 1.7 um; 130A)(Waters Co.,Milford, MA, USA)
Retention time: 8.854891
Precursor type: [M+CH3COOH-H]-
Precursor m/z: 888.575
m/z	relative intensity
78.959	4
107.088	1
117.074	1
121.103	2
152.996	3
163.149	1
168.045	10
175.147	1
177.164	4
191.18	2
222.999	3
224.066	15
229.196	19
241.011	7
242.014	3
242.077	2
249.189	6
261.209	1
278.36	1
279.233	336
281.229	1
282.355	2
283.241	158
284.27	6
297.029	2
297.218	1
303.244	3
305.249	15
306.24	3
309.219	1
326.203	3
327.231	468
328.23	1
415.223	3
419.252	3
419.271	1
420.243	2
420.261	3
437.247	1
486.299	13
502.729	1
504.303	100
534.295	5
552.256	1
552.295	3
552.321	4
581.293	2
581.318	2
582.304	5
599.32	1
600.324	2
603.297	2
604.295	0
622.3	0
724.496	0
743.454	2
769.462	2
811.95	3
811.972	4
812.025	0
814.288	0
814.437	2
814.533	999
815.528	2
815.578	0
829.468	2
829.499	8
829.518	3
885.737	1
887.552	0
888.452	1
888.526	38
888.564	183
888.584	70
888.698	0
889.565	0
