Mass spectrum: PC 38:7; LC-ESI-QTOF; MS2
Name: PC 38:7
Class: PC
Formula: C46H78NO8P
Exact mass: 804.1049999999999
SMILES: CCCCC\C=C/C\C=C/CCCCCCCC(=O)OCC(COP([O-])(=O)OCC[N+](C)(C)C)OC(=O)CCC\C=C/C\C=C/C\C=C/C\C=C/C\C=C/CC
InChI: InChI=1S/C46H78NO8P/c1-6-8-10-12-14-16-18-20-22-23-25-27-29-31-33-35-37-39-46(49)55-44(43-54-56(50,51)53-41-40-47(3,4)5)42-52-45(48)38-36-34-32-30-28-26-24-21-19-17-15-13-11-9-7-2/h8,10,14-17,20-22,24-25,27,31,33,44H,6-7,9,11-13,18-19,23,26,28-30,32,34-43H2,1-5H3/b10-8-,16-14-,17-15-,22-20-,24-21-,27-25-,33-31-
Instrument: AB Sciex TripleTOF 5600+ system (Q-TOF) equipped with a DuoSpray ion source
Instrument type: LC-ESI-QTOF
Ms type: MS2
Ion mode: NEGATIVE
Collision energy: 45V
Column name: Acquity UPLC Peptide BEH C18 column (50*2.1 mm; 1.7 um; 130A)(Waters Co.,Milford, MA, USA)
Retention time: 8.591041
Precursor type: [M+CH3COOH-H]-
Precursor m/z: 862.5572
m/z	relative intensity
168.04	13
203.174	7
203.188	4
223.167	4
224.061	7
224.071	13
229.191	3
241.013	3
255.223	3
257.223	90
277.217	2
278.362	2
279.204	13
279.232	341
281.244	5
282.247	5
283.201	2
283.256	5
285.264	1
286.778	1
296.229	2
300.282	3
300.976	1
301.215	633
302.355	1
303.228	12
415.221	3
418.235	2
435.32	1
438.955	1
441.523	1
445.477	1
452.246	1
486.288	14
504.306	101
508.273	7
519.244	1
526.281	10
526.323	2
579.317	2
673.448	1
717.452	4
780.479	3
780.528	6
786.034	6
788.435	7
788.479	69
788.521	999
788.586	9
788.65	3
789.531	4
802.523	2
803.469	10
862.491	11
862.512	20
862.555	78
862.594	17
