Mass spectrum: PG 42:9; LC-ESI-QTOF; MS2
Name: PG 42:9
Class: PG
Formula: C48H77O10P
Exact mass: 845.11
SMILES: CC\C=C/C\C=C/C\C=C/CCCCCCCCCC(=O)OCC(COP(O)(=O)OCC(O)CO)OC(=O)CC\C=C/C\C=C/C\C=C/C\C=C/C\C=C/C\C=C/CC
InChI: InChI=1S/C48H77O10P/c1-3-5-7-9-11-13-15-17-19-21-22-24-26-28-30-32-34-36-38-40-48(52)58-46(44-57-59(53,54)56-42-45(50)41-49)43-55-47(51)39-37-35-33-31-29-27-25-23-20-18-16-14-12-10-8-6-4-2/h5-8,11-14,17-20,22,24,28,30,34,36,45-46,49-50H,3-4,9-10,15-16,21,23,25-27,29,31-33,35,37-44H2,1-2H3,(H,53,54)/b7-5-,8-6-,13-11-,14-12-,19-17-,20-18-,24-22-,30-28-,36-34-
Instrument: AB Sciex TripleTOF 5600+ system (Q-TOF) equipped with a DuoSpray ion source
Instrument type: LC-ESI-QTOF
Ms type: MS2
Ion mode: NEGATIVE
Collision energy: 45V
Column name: Acquity UPLC Peptide BEH C18 column (50*2.1 mm; 1.7 um; 130A)(Waters Co.,Milford, MA, USA)
Retention time: 8.049838
Precursor type: [M-H]-
Precursor m/z: 843.513
m/z	relative intensity
78.959	11
140.012	5
152.981	8
152.994	34
195.151	5
196.038	17
205.121	7
205.192	11
207.101	8
209.116	11
229.198	10
231.211	13
235.134	8
236.098	7
255.233	11
259.241	33
283.241	74
283.264	126
284.269	104
285.254	119
285.274	15
303.23	639
304.229	10
305.247	448
305.277	10
317.216	14
318.209	8
319.224	10
327.23	233
329.246	556
331.201	13
331.259	14
332.194	8
341.219	10
343.221	10
344.233	11
359.205	10
360.222	18
360.236	13
419.247	32
419.264	33
420.246	7
420.262	5
420.276	10
437.25	14
437.273	23
438.262	17
464.317	13
465.312	27
480.306	5
481.303	5
492.351	33
493.321	8
493.357	8
513.246	7
531.27	10
533.276	10
537.234	4
539.3	6
555.288	6
588.323	8
604.366	5
631.47	7
673.407	5
677.387	4
738.463	16
738.495	18
755.404	10
755.488	11
756.491	21
783.515	11
793.498	8
797.501	10
797.554	8
805.525	13
805.554	18
805.578	7
807.507	10
807.538	8
809.544	18
811.464	8
825.481	13
825.521	26
825.551	29
825.575	7
828.582	9
843.413	17
843.493	999
843.526	782
843.642	10
