Mass spectrum: PC 38:6; LC-ESI-QTOF; MS2
Name: PC 38:6
Class: PC
Formula: C46H80NO8P
Exact mass: 806.1209999999999
SMILES: CCCCCCCCCCCCCCCC(=O)OCC(COP([O-])(=O)OCC[N+](C)(C)C)OC(=O)CC\C=C/C\C=C/C\C=C/C\C=C/C\C=C/C\C=C/CC
InChI: InChI=1S/C46H80NO8P/c1-6-8-10-12-14-16-18-20-21-22-23-24-25-27-29-31-33-35-37-39-46(49)55-44(43-54-56(50,51)53-41-40-47(3,4)5)42-52-45(48)38-36-34-32-30-28-26-19-17-15-13-11-9-7-2/h8,10,14,16,20-21,23-24,27,29,33,35,44H,6-7,9,11-13,15,17-19,22,25-26,28,30-32,34,36-43H2,1-5H3/b10-8-,16-14-,21-20-,24-23-,29-27-,35-33-
Instrument: AB Sciex TripleTOF 5600+ system (Q-TOF) equipped with a DuoSpray ion source
Instrument type: LC-ESI-QTOF
Ms type: MS2
Ion mode: NEGATIVE
Collision energy: 45V
Column name: Acquity UPLC Peptide BEH C18 column (50*2.1 mm; 1.7 um; 130A)(Waters Co.,Milford, MA, USA)
Retention time: 9.202155
Precursor type: [M+CH3COOH-H]-
Precursor m/z: 864.5729
m/z	relative intensity
78.958	3
81.07	0
83.049	0
91.054	0
93.07	0
95.086	0
105.07	0
107.086	2
109.102	0
115.055	0
117.069	1
119.085	0
121.101	2
122.986	0
123.117	1
131.086	0
133.102	1
135.117	1
137.132	1
141.092	0
143.086	0
145.1	0
147.116	1
149.059	0
149.132	1
151.148	0
152.995	1
153.092	0
157.102	0
158.116	0
161.133	1
163.076	1
163.148	1
167.107	0
168.042	24
169.123	0
171.118	0
172.125	0
173.132	0
175.148	2
177.091	0
177.164	8
179.105	0
181.123	0
183.141	0
185.134	0
187.147	0
189.164	1
191.109	0
191.18	9
193.122	0
195.141	0
199.147	0
201.163	0
203.106	0
203.18	2
205.123	0
205.193	0
206.059	0
207.139	0
209.155	0
213.164	0
215.18	0
217.123	0
217.195	1
218.128	0
219.137	0
221.153	0
224.068	29
227.18	0
228.484	0
229.195	40
231.136	0
233.153	0
235.169	0
241.194	1
242.079	3
243.14	0
245.154	0
249.184	10
254.437	2
254.476	0
255.196	0
255.232	590
256.235	0
257.154	0
267.209	0
271.167	0
279.212	0
281.226	1
282.36	0
282.378	0
283.206	0
283.242	327
283.289	0
283.337	0
284.244	0
285.184	0
291.212	0
297.221	2
307.206	0
309.221	4
315.231	0
317.225	0
325.217	0
326.208	3
327.143	0
327.232	999
328.235	1
328.252	0
329.32	0
329.949	0
341.247	0
391.224	4
406.273	1
409.235	0
436.121	0
443.59	0
462.297	28
462.345	0
463.225	0
469.759	0
473.431	0
476.976	0
477.271	0
478.267	0
478.755	0
478.798	0
478.817	0
479.694	0
480.259	0
480.307	200
480.379	0
481.229	0
481.3	0
481.314	0
481.378	0
481.588	0
482.277	0
482.732	0
483.494	0
483.714	0
487.75	0
495.27	0
495.319	0
509.621	0
517.335	0
522.321	0
534.296	11
534.345	0
549.248	0
552.306	10
563.692	0
567.273	0
652.999	0
653.372	0
653.606	0
655.714	0
655.937	0
656.243	0
656.466	0
719.463	2
745.476	2
745.517	0
746.497	0
763.515	0
788.046	7
788.102	0
788.586	0
788.737	0
788.854	0
789.371	0
789.488	0
789.565	0
789.603	0
789.637	0
790.085	0
790.151	0
790.27	0
790.315	0
790.34	0
790.392	0
790.534	904
790.607	0
791.156	0
791.251	0
791.539	6
791.753	0
792.002	0
792.083	0
792.543	0
793.662	0
794.787	0
795.019	0
795.793	0
796.457	0
797.312	0
797.633	0
797.997	0
799.803	0
801.143	0
802.957	0
804.516	0
804.554	0
805.497	23
861.798	0
861.834	0
861.869	0
864.572	125
865.578	0
867.293	0
869.495	0
