Mass spectrum: PI(18:0/7-HDoHE); LC-ESI-QTOF; MS2
Name: PI(18:0/7-HDoHE)
Class: Oxidized Phospholipid
Formula: C49H83O14P
Exact mass: 927.165
SMILES: CCCCCCCCCCCCCCCCCC(=O)OCC(COP(O)(=O)OC1C(O)C(O)C(O)C(O)C1O)OC(=O)CC\C=C/CC(O)\C=C\C=C/C\C=C/C\C=C/C\C=C/CC
InChI: InChI=1S/C49H83O14P/c1-3-5-7-9-11-13-15-17-18-20-22-24-26-28-32-36-42(51)60-38-41(39-61-64(58,59)63-49-47(56)45(54)44(53)46(55)48(49)57)62-43(52)37-33-29-31-35-40(50)34-30-27-25-23-21-19-16-14-12-10-8-6-4-2/h6,8,12,14,19,21,25,27,29-31,34,40-41,44-50,53-57H,3-5,7,9-11,13,15-18,20,22-24,26,28,32-33,35-39H2,1-2H3,(H,58,59)/b8-6-,14-12-,21-19-,27-25-,31-29-,34-30+
Instrument: Acquity UPLC Peptide BEH C18 column (50 x 2.1 mm; 1.7 um), Sciex TripleTOF5600
Instrument type: LC-ESI-QTOF
Ms type: MS2
Ion mode: NEGATIVE
Collision energy: 30-50
Precursor m/z: 925.5447679
Precursor type: [M-H]-
m/z	relative intensity
141.0565	33
201.1702	49
223.0016	33
240.9993	49
241.0036	33
241.0058	33
241.0102	33
241.019	33
281.2247	49
281.2318	33
281.2436	33
283.2514	33
283.2633	82
283.2657	33
283.268	102
283.2728	33
283.2847	33
297.0387	33
315.0309	33
325.2246	33
343.2176	33
343.2228	49
343.228	33
343.2306	33
343.2332	33
343.2385	33
419.2444	33
419.2531	66
419.2588	33
419.2646	33
581.2808	33
581.2978	66
581.3182	33
581.3216	33
581.325	33
599.3155	33
599.3224	33
599.3293	33
599.3535	33
641.2752	33
862.6718	33
925.4652	49
925.4695	82
925.4738	49
925.4824	49
925.4867	82
925.491	102
925.4952	219
925.4996	183
925.5038	154
925.5081	459
925.5125	308
925.5167	445
925.521	341
925.5253	583
925.5296	567
925.5339	570
925.5382	878
925.5425	707
925.5468	999
925.5511	947
925.5554	812
925.5596	675
925.564	861
925.5682	707
925.5725	534
925.5768	639
925.5811	518
925.5854	554
925.5897	449
925.594	360
925.5983	308
925.6026	255
925.6069	255
925.6111	118
925.6155	82
925.6198	49
925.6284	118
925.6326	49
925.6584	49
925.6713	33
926.5172	33
926.5386	33
926.5472	33
926.5558	49
926.5601	33
926.5644	33
926.5859	33
