Mass spectrum: PC(18:1/14-HDoHE); LC-ESI-QTOF; MS2
Name: PC(18:1/14-HDoHE)
Class: Oxidized Phospholipid
Formula: C48H82NO9P
Exact mass: 848.158
SMILES: CCCCCCCC\C=C/CCCCCCCC(=O)OCC(COP([O-])(=O)OCC[N+](C)(C)C)OC(=O)CC\C=C/C\C=C/C\C=C/C=C/C(O)C\C=C/C\C=C/CC
InChI: InChI=1S/C48H82NO9P/c1-6-8-10-12-14-15-16-17-18-19-20-24-27-31-35-39-47(51)55-43-46(44-57-59(53,54)56-42-41-49(3,4)5)58-48(52)40-36-32-28-25-22-21-23-26-30-34-38-45(50)37-33-29-13-11-9-7-2/h9,11,17-18,21-22,26,28-30,32-34,38,45-46,50H,6-8,10,12-16,19-20,23-25,27,31,35-37,39-44H2,1-5H3/b11-9-,18-17-,22-21-,30-26-,32-28-,33-29-,38-34+
Instrument: Acquity UPLC Peptide BEH C18 column (50 x 2.1 mm; 1.7 um), Sciex TripleTOF5600
Instrument type: LC-ESI-QTOF
Ms type: MS2
Ion mode: NEGATIVE
Collision energy: 30-50
Precursor m/z: 906.5865727
Precursor type: [M+CH3COOH-H]-
m/z	relative intensity
109.104	25
161.1273	25
168.0453	25
168.0508	25
179.112	17
189.13	17
205.1174	17
205.1195	17
205.1215	35
205.1235	25
205.1255	49
224.0728	25
224.075	25
233.1197	17
234.1182	17
234.1204	17
234.1225	17
234.1269	17
234.1312	17
281.2029	25
281.2101	17
281.2124	25
281.2148	35
281.2171	35
281.2195	17
281.2219	42
281.2242	59
281.2266	35
281.229	76
281.2314	126
281.2337	168
281.2361	185
281.2384	227
281.2408	343
281.2432	402
281.2455	412
281.2479	486
281.2503	412
281.2526	318
281.255	419
281.2574	227
281.2597	234
281.2621	143
281.2645	101
281.2668	101
281.2715	35
281.2739	25
281.2787	17
299.2357	17
307.2628	25
307.2727	17
317.2029	17
325.2114	17
325.2139	17
325.2165	17
325.219	35
325.2215	17
325.2266	49
343.2013	25
343.2039	17
343.2091	67
343.2118	35
343.2144	42
343.217	101
343.2196	143
343.2222	118
343.2248	109
343.2274	252
343.23	160
343.2327	150
343.2353	118
343.2379	67
343.2405	84
343.2431	91
343.2457	49
343.2484	17
343.2536	17
343.2562	17
357.2375	17
488.2991	17
488.3147	17
503.2847	17
506.2963	17
506.3026	25
506.3058	25
506.309	17
506.3122	25
506.3153	49
506.3185	49
506.3217	17
506.3249	49
506.328	59
506.3312	59
506.3344	25
506.3376	17
506.3439	25
550.272	17
568.2835	17
568.2869	17
568.3004	17
568.3071	42
568.3104	25
568.3138	49
568.3171	17
568.3205	17
568.3273	25
641.3956	17
761.4401	17
761.444	35
761.4479	17
761.4518	17
761.4557	25
761.4673	25
761.4713	35
761.4752	67
761.4791	35
761.4868	42
761.4907	17
761.4946	17
761.4985	25
761.5024	42
761.5063	25
761.5102	25
761.5297	17
787.4844	25
788.4825	17
832.4671	35
832.4712	25
832.4753	35
832.4794	35
832.4834	35
832.4875	35
832.4916	59
832.4956	91
832.4997	109
832.5038	67
832.5078	128
832.5119	222
832.516	414
832.5201	461
832.5241	446
832.5282	535
832.5323	580
832.5363	713
832.5404	698
832.5445	760
832.5485	999
832.5526	947
832.5567	925
832.5608	839
832.5648	997
832.5689	962
832.573	873
832.577	767
832.5811	636
832.5852	565
832.5893	432
832.5933	444
832.5974	326
832.6015	205
832.6055	170
832.6096	106
832.6137	116
832.6178	101
832.6218	89
832.6259	79
832.63	47
832.634	17
832.6381	17
832.6422	25
832.6503	20
832.7358	17
833.5137	35
833.53	35
833.5341	17
833.5381	25
833.5544	17
833.5626	35
833.5667	17
833.5748	25
833.5829	17
833.6074	17
846.5426	17
846.5754	17
847.4911	17
847.5076	17
847.5117	25
847.5158	17
847.5281	17
847.5487	17
847.561	17
906.4866	17
906.5164	17
906.5291	25
906.5419	49
906.5461	25
906.5504	49
906.5546	17
906.5588	67
906.5631	109
906.5673	101
906.5716	84
906.5759	101
906.5801	49
906.5844	84
906.5886	59
906.5928	150
906.5971	150
906.6013	67
906.6056	84
906.6098	49
906.6141	143
906.6183	49
906.6226	67
906.6268	49
906.6353	25
906.6438	49
906.6481	17
906.6523	17
906.6778	17
