Mass spectrum: PC(14:0/14,15-EET); LC-ESI-QTOF; MS2
Name: PC(14:0/14,15-EET)
Class: Oxidized Phospholipid
Formula: C42H76NO9P
Exact mass: 770.044
SMILES: CCCCCCCCCCCCCC(=O)OCC(COP([O-])(=O)OCC[N+](C)(C)C)OC(=O)CCC\C=C/C\C=C/C\C=C/CC1OC1CCCCC
InChI: InChI=1S/C42H76NO9P/c1-6-8-10-11-12-13-14-18-21-24-28-32-41(44)48-36-38(37-50-53(46,47)49-35-34-43(3,4)5)51-42(45)33-29-25-22-19-16-15-17-20-23-27-31-40-39(52-40)30-26-9-7-2/h15,17,19,22-23,27,38-40H,6-14,16,18,20-21,24-26,28-37H2,1-5H3/b17-15-,22-19-,27-23-
Instrument: Acquity UPLC Peptide BEH C18 column (50 x 2.1 mm; 1.7 um), Sciex TripleTOF5600
Instrument type: LC-ESI-QTOF
Ms type: MS2
Ion mode: NEGATIVE
Collision energy: 30-50
Precursor m/z: 828.5396225
Precursor type: [M+CH3COOH-H]-
m/z	relative intensity
121.0985	15
121.1001	15
121.1032	15
121.1094	15
168.0349	15
168.0385	15
168.0422	31
168.044	31
168.0458	15
175.1372	15
175.1391	15
175.1447	15
175.1484	23
175.1503	39
175.1522	39
205.1219	15
207.1396	23
219.1227	15
219.129	23
219.1311	62
219.1331	62
219.1352	69
219.1373	85
219.1394	62
219.1415	54
219.1436	15
219.1457	31
219.1478	31
219.1499	15
219.154	15
219.1749	15
224.0585	23
224.0606	31
224.0711	23
227.1781	23
227.1845	39
227.1866	46
227.1888	54
227.1909	166
227.193	220
227.1951	251
227.1973	289
227.1994	363
227.2015	289
227.2036	282
227.2058	243
227.2079	181
227.21	143
227.2121	46
227.2143	39
227.2164	69
227.2185	39
227.2249	23
253.2194	23
255.2239	15
255.2262	15
255.2307	23
257.2091	15
257.2137	23
257.2159	23
257.2204	15
257.225	31
257.2272	23
257.2295	62
257.2318	31
257.234	31
257.2363	31
257.2431	15
265.1671	23
265.1718	15
265.174	23
265.1809	15
265.1832	31
265.1947	15
265.2016	15
275.2255	15
275.2372	15
275.2396	15
275.2442	15
275.2466	15
281.2292	15
281.2316	39
281.2339	62
281.2363	31
281.2387	77
281.2411	143
281.2434	69
281.2458	85
281.2481	112
281.2505	112
281.2529	150
281.2552	93
281.2576	93
281.26	120
281.2623	54
281.2647	31
281.2718	15
283.2488	15
283.2749	15
299.2652	15
301.1991	31
301.2015	15
301.204	54
301.2064	77
301.2089	54
301.2113	46
301.2137	39
301.2162	112
301.2187	69
301.2211	69
301.2236	69
301.226	77
301.2285	39
301.2309	23
301.2333	39
301.2383	15
301.2432	15
319.1989	23
319.2014	15
319.204	46
319.2065	39
319.209	46
319.2115	93
319.2141	127
319.2166	243
319.2191	204
319.2216	266
319.2242	282
319.2267	258
319.2292	309
319.2317	301
319.2342	289
319.2367	235
319.2393	189
319.2418	120
319.2443	104
319.2468	69
319.2493	31
319.2519	15
319.2544	15
319.2594	15
319.2645	15
365.2613	15
365.2639	15
365.2774	23
434.2598	23
434.2627	15
434.2656	23
434.2686	31
434.2745	15
452.2427	15
452.2577	31
452.2607	15
452.2637	46
452.2667	39
452.2697	15
452.2727	62
452.2757	77
452.2787	46
452.2817	77
452.2847	112
452.2877	54
452.2907	69
452.2937	39
452.2967	39
452.2997	39
452.3027	15
452.3057	23
452.3087	15
480.3186	23
490.2524	15
490.2836	15
506.3338	15
506.3434	15
526.2842	15
526.2971	23
526.3004	15
526.3036	15
544.2968	15
544.3034	15
683.4268	15
741.5116	15
752.1268	15
754.4232	15
754.4271	15
754.4309	15
754.4348	15
754.4426	93
754.4464	46
754.4503	150
754.4542	104
754.4581	150
754.4619	224
754.4658	270
754.4697	382
754.4736	582
754.4774	644
754.4813	598
754.4852	656
754.4891	891
754.4929	999
754.4968	644
754.5007	741
754.5046	764
754.5084	748
754.5123	810
754.5162	825
754.5201	802
754.5239	613
754.5278	579
754.5317	509
754.5356	420
754.5394	320
754.5433	285
754.5472	266
754.5511	135
754.5549	127
754.5588	77
754.5627	62
754.5666	39
754.5704	39
754.5743	46
754.5782	23
754.5821	15
754.6635	15
755.4777	15
755.4893	15
755.4932	15
755.4971	39
755.5087	15
755.5126	15
755.5165	15
755.5242	31
755.532	15
769.4879	15
769.4918	23
828.4398	15
828.4601	15
828.4804	23
828.4845	23
828.4885	31
828.4926	15
828.4967	23
828.5048	31
828.5089	23
828.5129	54
828.517	46
828.5211	54
828.5251	54
828.5292	69
828.5332	39
828.5373	69
828.5413	77
828.5454	77
828.5495	112
828.5535	112
828.5576	62
828.5616	104
828.5657	104
828.5698	69
828.5739	39
828.5779	62
828.582	31
828.586	46
828.5901	54
828.5942	54
828.6063	31
828.6104	15
828.6144	15
