Mass spectrum: PE(16:1/13-HODE); LC-ESI-QTOF; MS2
Name: PE(16:1/13-HODE)
Class: Oxidized Phospholipid
Formula: C39H72NO9P
Exact mass: 729.979
SMILES: CCCCCC\C=C/CCCCCCCC(=O)OCC(COP(O)(=O)OCCN)OC(=O)CCCCCCC\C=C/C=C/C(O)CCCCC
InChI: InChI=1S/C39H72NO9P/c1-3-5-7-8-9-10-11-12-13-16-19-22-26-30-38(42)46-34-37(35-48-50(44,45)47-33-32-40)49-39(43)31-27-23-20-17-14-15-18-21-25-29-36(41)28-24-6-4-2/h10-11,18,21,25,29,36-37,41H,3-9,12-17,19-20,22-24,26-28,30-35,40H2,1-2H3,(H,44,45)/b11-10-,21-18-,29-25+
Instrument: Acquity UPLC Peptide BEH C18 column (50 x 2.1 mm; 1.7 um), Sciex TripleTOF5600
Instrument type: LC-ESI-QTOF
Ms type: MS2
Ion mode: NEGATIVE
Collision energy: 30-50
Precursor m/z: 728.4871934
Precursor type: [M-H]-
m/z	relative intensity
140.0088	43
195.1225	43
195.1324	67
195.1363	154
195.1383	67
195.1402	43
195.1442	43
195.1481	43
195.1521	67
196.0322	111
227.1955	46
247.1699	46
252.1997	46
252.4261	46
252.4328	46
252.8949	46
253.1979	67
253.2001	269
253.2023	156
253.2046	293
253.2068	410
253.2091	589
253.2113	704
253.2136	708
253.2158	730
253.2181	934
253.2203	751
253.2226	617
253.2248	638
253.2271	478
253.2293	182
253.2315	204
253.2338	91
253.236	46
253.2383	69
253.2405	69
253.2428	46
253.2899	46
254.2205	43
255.2338	43
277.2036	43
277.2107	89
277.213	43
277.2154	67
277.2177	67
277.2201	89
277.2224	67
277.2248	67
277.2271	89
277.2295	67
277.2342	46
279.2324	46
283.2645	43
293.1982	46
293.2103	43
294.3082	46
294.9912	46
295.2021	43
295.2046	46
295.207	89
295.2094	113
295.2118	159
295.2143	382
295.2167	365
295.2191	341
295.2215	773
295.2239	749
295.2264	999
295.2288	545
295.2312	747
295.2336	612
295.2361	456
295.2385	271
295.2409	159
295.2433	159
295.2458	180
295.2482	91
295.2506	67
295.2531	46
295.2555	46
450.2486	43
450.2606	43
450.2665	43
474.2516	43
492.2567	67
492.2755	43
492.2818	67
492.2849	43
492.2911	43
726.2076	46
728.4147	43
728.4376	43
728.4413	156
728.4452	111
728.449	202
728.4528	267
728.4566	248
728.4604	410
728.4642	111
728.468	543
728.4718	521
728.4756	430
728.4794	591
728.4833	595
728.4871	595
728.4908	597
728.4947	665
728.4985	612
728.5023	252
728.5061	410
728.5099	339
728.5137	432
728.5175	387
728.5214	159
728.5251	228
728.5289	135
728.5328	113
728.5366	43
728.5404	67
728.5442	132
728.548	43
728.5556	43
728.8908	43
729.4623	43
