Mass spectrum: PE(16:0/15-HETE); LC-ESI-QTOF; MS2
Name: PE(16:0/15-HETE)
Class: Oxidized Phospholipid
Formula: C41H74NO9P
Exact mass: 756.017
SMILES: CCCCCCCCCCCCCCCC(=O)OCC(COP(O)(=O)OCCN)OC(=O)CCC\C=C/C\C=C/C\C=C/C=C/C(O)CCCCC
InChI: InChI=1S/C41H74NO9P/c1-3-5-7-8-9-10-11-12-15-18-21-24-28-32-40(44)48-36-39(37-50-52(46,47)49-35-34-42)51-41(45)33-29-25-22-19-16-13-14-17-20-23-27-31-38(43)30-26-6-4-2/h13-14,19-20,22-23,27,31,38-39,43H,3-12,15-18,21,24-26,28-30,32-37,42H2,1-2H3,(H,46,47)/b14-13-,22-19-,23-20-,31-27+
Instrument: Acquity UPLC Peptide BEH C18 column (50 x 2.1 mm; 1.7 um), Sciex TripleTOF5600
Instrument type: LC-ESI-QTOF
Ms type: MS2
Ion mode: NEGATIVE
Collision energy: 30-50
Precursor m/z: 754.5028435
Precursor type: [M-H]-
m/z	relative intensity
140.0031	250
140.0164	125
175.1494	375
203.1776	125
203.1816	125
219.1368	125
219.1409	125
219.143	125
255.2167	125
255.2189	125
255.2212	125
255.2234	500
255.2257	375
255.2279	708
255.2301	676
255.2324	500
255.2346	250
255.2391	125
255.2413	375
255.2481	125
257.2215	125
257.2238	125
257.2282	125
257.2305	125
257.2417	125
277.2055	125
277.2218	125
279.2337	125
279.2384	125
281.2411	125
281.2459	125
301.1752	125
301.1995	250
301.2044	125
301.2068	125
301.2093	125
301.2117	250
301.2141	250
301.2166	250
301.219	125
301.2239	375
301.2263	125
301.2287	125
319.2055	125
319.2155	125
319.218	125
319.2205	375
319.223	624
319.2255	375
319.228	624
319.2306	375
319.2331	250
319.2356	125
319.2381	125
319.2406	125
319.2431	250
335.2232	125
335.2283	125
452.254	125
452.2689	125
452.2749	250
452.2808	125
516.2615	125
516.2902	125
754.4315	125
754.443	250
754.4584	125
754.4661	375
754.47	375
754.4738	250
754.4777	697
754.4815	500
754.4854	780
754.4892	500
754.493	832
754.4969	708
754.5008	947
754.5046	666
754.5085	624
754.5123	999
754.5162	624
754.52	375
754.5239	624
754.5278	676
754.5316	250
754.5355	250
754.5393	125
754.5432	250
754.5508	125
