Mass spectrum: PI(18:1/8-HEPE); LC-ESI-QTOF; MS2
Name: PI(18:1/8-HEPE)
Class: Oxidized Phospholipid
Formula: C47H79O14P
Exact mass: 899.111
SMILES: CCCCCCCC\C=C/CCCCCCCC(=O)OCC(COP(O)(=O)OC1C(O)C(O)C(O)C(O)C1O)OC(=O)CCC\C=C/CC(O)\C=C\C=C/C\C=C/C\C=C/CC
InChI: InChI=1S/C47H79O14P/c1-3-5-7-9-11-13-15-16-17-18-19-21-23-25-30-34-40(49)58-36-39(37-59-62(56,57)61-47-45(54)43(52)42(51)44(53)46(47)55)60-41(50)35-31-27-26-29-33-38(48)32-28-24-22-20-14-12-10-8-6-4-2/h6,8,12,14,16-17,22,24,26,28-29,32,38-39,42-48,51-55H,3-5,7,9-11,13,15,18-21,23,25,27,30-31,33-37H2,1-2H3,(H,56,57)/b8-6-,14-12-,17-16-,24-22-,29-26-,32-28+
Instrument: Acquity UPLC Peptide BEH C18 column (50 x 2.1 mm; 1.7 um), Sciex TripleTOF5600
Instrument type: LC-ESI-QTOF
Ms type: MS2
Ion mode: NEGATIVE
Collision energy: 30-50
Precursor m/z: 897.5134677
Precursor type: [M-H]-
m/z	relative intensity
78.95904	11
78.96154	8
78.96405	8
152.9889	8
152.9906	11
152.9941	8
152.9959	11
152.9976	22
153.0011	15
155.0657	11
155.0674	11
155.0692	22
155.0727	11
155.0745	8
161.1311	8
161.1329	8
161.1347	11
163.1523	8
222.9951	8
222.9972	19
222.9993	11
223.0014	19
223.0036	11
240.9926	8
240.9948	19
240.9969	26
240.9991	29
241.0013	29
241.0035	29
241.0057	56
241.0079	77
241.0101	71
241.0123	59
241.0145	56
241.0167	40
241.0188	37
241.021	11
241.0232	19
241.0254	15
241.0276	8
241.0298	11
255.1968	11
255.1991	11
255.2013	15
255.2058	15
255.2081	8
255.2103	19
255.2149	19
255.2171	15
255.2194	26
255.2239	15
259.018	8
259.0203	8
259.0226	8
273.2278	8
273.2301	8
281.2316	15
281.234	19
281.2364	26
281.2387	77
281.2411	56
281.2435	56
281.2458	93
281.2482	71
281.2505	96
281.2529	52
281.2553	59
281.2577	22
281.26	34
281.2624	37
281.2648	26
297.0288	8
297.0361	8
297.0385	11
297.041	11
297.0482	8
297.0531	11
299.1824	8
299.1897	11
299.1921	37
299.1945	26
299.197	15
299.1994	15
299.2019	19
299.2043	29
299.2068	19
299.2092	11
299.2116	8
299.2165	8
315.0482	11
317.1906	8
317.1956	11
317.1982	15
317.2007	29
317.2032	22
317.2057	40
317.2082	40
317.2108	34
317.2133	26
317.2158	52
317.2183	29
317.2208	19
317.2233	26
317.2258	15
317.2283	8
317.2308	8
319.2445	8
407.9442	8
417.2184	11
417.2213	11
417.2242	19
417.2271	8
417.2299	22
417.2328	37
417.2357	34
417.2386	29
417.2415	29
417.2443	40
417.2472	26
417.2501	34
417.253	34
417.2559	19
417.2587	11
417.2616	22
417.2645	8
425.1351	8
435.243	8
435.2459	8
435.2636	8
453.1741	8
453.1921	11
453.1951	8
453.1981	8
453.2011	11
453.2041	8
453.2071	15
453.2101	29
453.2131	15
453.2161	19
453.2251	8
453.2281	8
527.8433	8
579.2613	11
579.2647	11
579.2681	29
579.2715	15
579.2748	15
579.2783	8
579.2817	22
579.285	15
579.2885	34
579.2919	45
579.2952	34
579.2986	37
579.3021	45
579.3054	37
579.3088	29
579.3122	26
579.3156	22
579.3224	8
579.3292	8
579.3326	8
579.3462	8
597.2787	11
597.2855	11
597.2925	26
597.2959	11
597.2994	22
597.3028	19
597.3062	8
597.3097	11
597.3166	19
597.3235	11
597.3338	8
615.2219	15
615.2324	11
615.236	11
615.2429	11
615.2465	8
615.2499	11
615.257	15
615.2604	11
615.2639	15
615.2675	8
615.2709	22
615.2744	15
615.2849	8
633.2603	8
633.2745	8
651.2964	8
651.3253	8
706.3655	8
706.3768	8
894.644	8
894.6483	8
894.6735	8
894.6862	8
894.6904	8
894.6946	8
894.7158	8
894.7284	8
894.7369	15
897.4105	8
897.4274	11
897.4316	8
897.4358	29
897.44	29
897.4443	49
897.4485	52
897.4527	38
897.4569	23
897.4612	78
897.4654	85
897.4696	78
897.4738	183
897.4781	235
897.4823	331
897.4865	482
897.4907	577
897.495	529
897.4992	666
897.5034	732
897.5077	876
897.5119	906
897.5161	999
897.5203	990
897.5245	842
897.5288	955
897.533	770
897.5372	860
897.5414	778
897.5457	723
897.5499	602
897.5541	491
897.5583	366
897.5626	295
897.5668	206
897.571	212
897.5753	162
897.5795	113
897.5837	84
897.588	46
897.5922	46
897.5964	40
897.6006	33
897.6049	11
897.6091	13
897.6133	19
897.6176	13
897.626	8
897.6302	8
898.0234	8
898.4759	11
898.4886	11
898.4929	8
898.4971	15
898.5013	15
898.5055	11
898.5098	22
898.514	15
898.5182	11
898.5224	15
898.5267	29
898.5309	22
898.5351	11
898.5394	8
898.5436	11
898.5478	15
898.5521	8
898.5563	8
898.5732	8
906.742	8
