Mass spectrum: PC(14:0/20-HDoHE); LC-ESI-QTOF; MS2
Name: PC(14:0/20-HDoHE)
Class: Oxidized Phospholipid
Formula: C44H76NO9P
Exact mass: 794.066
SMILES: CCCCCCCCCCCCCC(=O)OCC(COP([O-])(=O)OCC[N+](C)(C)C)OC(=O)CC\C=C/C\C=C/C\C=C/C\C=C/C\C=C/C=C/C(O)CC
InChI: InChI=1S/C44H76NO9P/c1-6-8-9-10-11-12-19-23-26-29-32-35-43(47)51-39-42(40-53-55(49,50)52-38-37-45(3,4)5)54-44(48)36-33-30-27-24-21-18-16-14-13-15-17-20-22-25-28-31-34-41(46)7-2/h13-14,17-18,20-21,25,27-28,30-31,34,41-42,46H,6-12,15-16,19,22-24,26,29,32-33,35-40H2,1-5H3/b14-13-,20-17-,21-18-,28-25-,30-27-,34-31+
Instrument: Acquity UPLC Peptide BEH C18 column (50 x 2.1 mm; 1.7 um), Sciex TripleTOF5600
Instrument type: LC-ESI-QTOF
Ms type: MS2
Ion mode: NEGATIVE
Collision energy: 30-50
Precursor m/z: 852.5396225
Precursor type: [M+CH3COOH-H]-
m/z	relative intensity
133.1028	98
227.1884	98
227.1905	98
227.1926	196
227.1947	196
227.1969	196
227.199	98
227.2011	304
227.2033	353
227.2054	245
227.2075	402
227.2096	196
227.2139	98
241.1939	98
241.1961	98
241.1983	98
241.2004	98
241.2026	98
271.2115	98
281.229	98
281.2338	98
285.192	98
299.2334	147
317.203	98
325.209	98
325.214	98
325.2242	147
343.2119	98
343.2171	353
343.2224	196
343.225	245
343.2276	196
343.2302	245
343.2328	245
343.2354	304
343.238	147
353.8482	98
452.2584	98
452.2734	147
452.2764	98
452.2824	147
452.2914	98
707.4462	98
707.4575	98
778.452	147
778.4559	147
778.4638	304
778.4677	196
778.4717	500
778.4756	196
778.4795	597
778.4835	245
778.4874	500
778.4913	597
778.4953	597
778.4992	803
778.5031	999
778.5071	950
778.511	901
778.515	852
778.5189	999
778.5228	852
778.5267	646
778.5307	451
778.5347	451
778.5386	548
778.5425	147
778.5464	304
778.5504	304
778.5543	196
778.5583	98
778.5622	98
778.5662	98
779.4798	98
852.486	98
852.4902	98
852.5107	147
852.5149	98
852.5231	304
852.5272	98
852.5314	98
852.5355	147
852.5396	147
852.5437	196
852.5479	147
852.5519	196
852.5561	98
852.5643	98
852.5684	98
852.5726	98
852.5767	196
