Mass spectrum: PC 34:0; LC-ESI-QTOF; MS2
Name: PC 34:0
Class: PC
Formula: C42H84NO8P
Exact mass: 762.1089999999999
SMILES: CCCCCCCCCCCCCCCCCC(=O)OC(COC(=O)CCCCCCCCCCCCCCC)COP([O-])(=O)OCC[N+](C)(C)C
InChI: InChI=1S/C42H84NO8P/c1-6-8-10-12-14-16-18-20-21-23-25-27-29-31-33-35-42(45)51-40(39-50-52(46,47)49-37-36-43(3,4)5)38-48-41(44)34-32-30-28-26-24-22-19-17-15-13-11-9-7-2/h40H,6-39H2,1-5H3
Instrument: AB Sciex TripleTOF 5600+ system (Q-TOF) equipped with a DuoSpray ion source
Instrument type: LC-ESI-QTOF
Ms type: MS2
Ion mode: NEGATIVE
Collision energy: 45V
Column name: Acquity UPLC Peptide BEH C18 column (50*2.1 mm; 1.7 um; 130A)(Waters Co.,Milford, MA, USA)
Retention time: 10.74245
Precursor type: [M+CH3COOH-H]-
Precursor m/z: 820.6093
m/z	relative intensity
78.957	2
168.041	15
224.066	14
224.086	1
242.078	1
254.434	3
255.233	995
281.244	1
282.374	1
283.264	381
284.265	0
331.273	0
391.217	1
419.251	2
424.874	0
434.305	1
462.303	9
480.304	7
480.332	2
490.309	3
490.327	9
490.354	4
506.729	0
508.341	61
508.381	2
564.52	1
564.575	0
628.522	1
673.554	0
675.505	2
701.528	2
744.161	1
744.225	3
744.26	2
745.628	3
746.269	0
746.57	999
746.647	3
747.074	1
747.564	5
760.629	1
761.509	1
761.545	9
788.574	0
820.563	11
820.61	87
