Mass spectrum: PE 34:2; LC-ESI-QTOF; MS2
Name: PE 34:2
Class: PE
Formula: C39H74NO8P
Exact mass: 715.9959999999999
SMILES: CCCCCCCC\C=C/CCCCCCCC(=O)OC(COC(=O)CCCCCCC\C=C/CCCCCC)COP(O)(=O)OCCN
InChI: InChI=1S/C39H74NO8P/c1-3-5-7-9-11-13-15-17-18-20-22-24-26-28-30-32-39(42)48-37(36-47-49(43,44)46-34-33-40)35-45-38(41)31-29-27-25-23-21-19-16-14-12-10-8-6-4-2/h14,16-18,37H,3-13,15,19-36,40H2,1-2H3,(H,43,44)/b16-14-,18-17-
Instrument: AB Sciex TripleTOF 5600+ system (Q-TOF) equipped with a DuoSpray ion source
Instrument type: LC-ESI-QTOF
Ms type: MS2
Ion mode: NEGATIVE
Collision energy: 45V
Column name: Acquity UPLC Peptide BEH C18 column (50*2.1 mm; 1.7 um; 130A)(Waters Co.,Milford, MA, USA)
Retention time: 9.325183
Precursor type: [M-H]-
Precursor m/z: 714.5081
m/z	relative intensity
96.97	5
140.01	17
196.038	35
252.439	10
253.216	687
255.233	35
281.248	999
283.265	8
432.251	20
450.256	41
460.293	14
478.299	20
714.456	24
714.487	196
714.515	205
714.535	86
