Mass spectrum: PI(18:0/15-HETE); LC-ESI-QTOF; MS2
Name: PI(18:0/15-HETE)
Class: Oxidized Phospholipid
Formula: C47H83O14P
Exact mass: 903.143
SMILES: CCCCCCCCCCCCCCCCCC(=O)OCC(COP(O)(=O)OC1C(O)C(O)C(O)C(O)C1O)OC(=O)CCC\C=C/C\C=C/C\C=C/C=C/C(O)CCCCC
InChI: InChI=1S/C47H83O14P/c1-3-5-7-8-9-10-11-12-13-14-17-20-23-26-30-34-40(49)58-36-39(37-59-62(56,57)61-47-45(54)43(52)42(51)44(53)46(47)55)60-41(50)35-31-27-24-21-18-15-16-19-22-25-29-33-38(48)32-28-6-4-2/h15-16,21-22,24-25,29,33,38-39,42-48,51-55H,3-14,17-20,23,26-28,30-32,34-37H2,1-2H3,(H,56,57)/b16-15-,24-21-,25-22-,33-29+
Instrument: Acquity UPLC Peptide BEH C18 column (50 x 2.1 mm; 1.7 um), Sciex TripleTOF5600
Instrument type: LC-ESI-QTOF
Ms type: MS2
Ion mode: NEGATIVE
Collision energy: 30-50
Precursor m/z: 901.5447679
Precursor type: [M-H]-
m/z	relative intensity
70.31281	1
78.95393	2
78.95518	3
78.95644	3
78.95769	6
78.95894	10
78.9602	9
78.96145	3
78.9627	7
78.96396	5
78.96521	5
78.96647	3
78.96772	3
78.96897	1
78.97023	2
78.97274	1
78.97524	1
93.07065	1
93.0761	1
96.96411	1
96.96689	2
96.96828	1
96.96967	3
96.97106	3
96.97245	4
96.97384	2
96.97523	1
99.08046	1
99.08467	1
107.084	1
107.0899	1
113.0925	1
113.094	1
113.0955	2
113.097	2
113.0985	2
113.1	3
113.1015	1
113.103	2
113.1045	1
119.0848	1
121.0949	1
121.0964	2
121.098	1
121.0995	2
121.1011	4
121.1026	2
121.1042	5
121.1057	2
121.1073	2
121.1088	1
123.1218	1
134.9798	1
134.9848	1
139.1108	1
139.1141	1
147.1176	1
149.1285	1
149.1354	2
149.1371	1
149.1406	1
151.1461	1
151.1478	1
151.1513	1
151.1548	1
152.5248	1
152.9799	1
152.9834	2
152.9852	2
152.9869	4
152.9887	9
152.9904	7
152.9922	13
152.9939	10
152.9956	10
152.9974	12
152.9991	7
153.0009	6
153.0026	6
153.0044	2
153.0061	3
153.0079	0
153.0096	1
153.0114	0
153.0131	0
153.1283	0
153.1335	0
159.1258	1
161.1327	1
163.0674	1
170.0596	1
174.6031	1
175.1218	1
175.1237	1
175.1293	1
175.133	1
175.1349	1
175.1367	4
175.1386	1
175.1405	10
175.1423	6
175.1442	15
175.1461	20
175.1479	14
175.1498	18
175.1517	15
175.1535	9
175.1554	8
175.1573	5
175.1591	2
175.161	3
175.1629	2
175.1647	1
175.1666	1
176.154	0
176.1596	1
177.0897	1
177.1648	1
181.123	1
183.1147	1
183.1167	1
183.1205	1
193.119	2
193.1229	1
196.8486	1
201.1398	1
203.1398	1
203.1418	1
203.168	2
203.17	3
203.172	4
203.174	4
203.176	6
203.178	6
203.18	5
203.182	4
203.1841	6
203.1861	3
203.1881	2
203.1901	2
203.1921	1
203.1941	2
203.1961	1
204.9921	1
205.1174	2
205.1214	1
205.1235	4
205.1255	1
205.1295	1
215.472	1
217.9688	1
218.4711	1
218.5149	1
218.9656	1
219.0596	1
219.1097	1
219.1139	1
219.1181	1
219.1201	2
219.1222	3
219.1243	6
219.1264	11
219.1285	15
219.1306	21
219.1327	34
219.1348	35
219.1369	36
219.1389	38
219.141	34
219.1431	34
219.1452	26
219.1473	13
219.1494	10
219.1515	9
219.1536	6
219.1557	3
219.1577	4
219.1598	1
219.1661	0
219.2162	0
219.4524	0
219.8748	0
219.9104	0
220.1259	0
220.1364	1
221.1445	1
221.1487	2
221.1571	1
221.1613	1
221.1907	1
221.1928	1
222.4599	1
222.7694	1
222.7926	1
222.9758	1
222.9801	0
222.9822	2
222.9843	1
222.9864	3
222.9885	5
222.9906	9
222.9927	11
222.9948	9
222.9969	17
222.999	13
223.0011	14
223.0032	15
223.0053	14
223.0074	10
223.0096	8
223.0117	5
223.0138	4
223.0159	2
223.018	1
223.0222	1
223.1613	1
223.1655	0
223.1803	1
223.9967	1
240.2546	1
240.259	1
240.2612	1
240.2634	3
240.2677	1
240.2721	1
240.2787	1
240.3377	1
240.4121	1
240.5937	1
240.9681	1
240.9813	1
240.9834	1
240.9878	1
240.99	5
240.9922	5
240.9944	8
240.9966	17
240.9988	32
241.001	53
241.0032	69
241.0054	94
241.0075	114
241.0097	123
241.0119	146
241.0141	120
241.0163	102
241.0185	88
241.0207	55
241.0229	36
241.0251	19
241.0273	12
241.0294	6
241.0316	7
241.0338	5
241.036	2
241.0382	2
241.047	0
241.0492	1
241.4415	1
241.4809	1
241.6015	0
241.6256	1
241.8231	1
242.0096	1
242.0118	1
242.014	1
242.0162	1
242.0206	1
245.1476	1
247.202	1
247.6947	1
252.8644	1
253.2168	1
255.2235	1
256.2253	1
256.4196	2
256.8083	1
257.1273	1
257.2019	1
257.2042	1
257.2065	3
257.2087	3
257.211	5
257.2132	9
257.2155	14
257.2178	12
257.22	16
257.2223	26
257.2245	30
257.2268	32
257.2291	32
257.2314	28
257.2336	24
257.2359	12
257.2381	11
257.2404	6
257.2426	5
257.2449	2
257.2472	2
257.2495	1
257.2517	1
257.2562	0
257.3128	0
257.7861	0
258.2212	1
258.2371	0
258.2416	0
258.262	1
258.5092	1
258.9995	1
259.0018	2
259.004	1
259.0063	3
259.0086	1
259.0108	3
259.0131	7
259.0154	8
259.0176	10
259.0199	11
259.0222	11
259.0245	12
259.0267	13
259.029	7
259.0313	7
259.0335	3
259.0358	4
259.0404	1
259.0449	1
259.0472	1
273.2087	1
273.2227	1
273.2274	1
275.2181	1
275.2204	1
275.2228	1
275.2251	1
275.2274	1
275.2298	1
275.2321	2
275.2345	3
275.2368	5
275.2392	2
275.2415	2
275.2438	4
275.2462	1
275.2485	3
275.2556	1
282.3847	1
282.3871	1
282.4227	2
282.9588	1
283.1487	1
283.2057	1
283.2176	1
283.2271	1
283.2318	1
283.2342	2
283.2366	1
283.239	4
283.2413	4
283.2437	8
283.2461	16
283.2484	20
283.2508	28
283.2532	59
283.2556	70
283.2579	92
283.2603	103
283.2627	108
283.265	108
283.2674	104
283.2698	92
283.2722	78
283.2746	51
283.2769	32
283.2793	21
283.2817	11
283.2841	9
283.2864	7
283.2888	2
283.2912	5
283.2935	1
283.2983	1
283.4646	1
283.4978	1
283.6333	1
283.7949	0
284.2538	1
284.2585	1
284.2609	2
284.2633	2
284.2657	1
284.2681	2
284.2704	1
284.2728	2
284.2752	2
284.2776	1
285.2633	1
286.7356	1
290.7371	1
291.4978	1
296.1123	1
296.3552	1
297.0114	1
297.0138	1
297.0162	2
297.0186	2
297.0211	3
297.0235	2
297.0259	6
297.0284	8
297.0308	11
297.0332	10
297.0356	13
297.0381	14
297.0405	12
297.0429	12
297.0454	9
297.0478	7
297.0502	4
297.0527	3
297.0551	2
297.0575	1
297.0624	1
300.2762	2
300.2934	1
300.33	1
301.162	1
301.1791	1
301.1816	1
301.1865	0
301.1889	3
301.1914	2
301.1938	4
301.1963	4
301.1987	9
301.2012	15
301.2036	13
301.2061	30
301.2085	45
301.211	48
301.2134	68
301.2159	59
301.2183	68
301.2208	56
301.2232	51
301.2256	34
301.2281	35
301.2306	24
301.233	14
301.2355	8
301.2379	7
301.2404	3
301.2428	3
301.2453	2
301.2477	1
301.2502	1
301.2526	0
301.255	1
301.2624	0
301.3138	0
301.9804	0
302.2085	1
302.2133	1
302.2158	1
302.2207	1
302.2232	2
302.2256	1
302.233	1
302.2354	1
315.0227	1
315.0302	3
315.0327	2
315.0352	4
315.0377	5
315.0403	5
315.0428	4
315.0452	7
315.0478	9
315.0503	7
315.0528	7
315.0553	6
315.0578	5
315.0603	2
315.0628	2
315.0653	1
315.0678	1
315.0728	1
317.2102	1
318.2137	1
318.2162	1
318.2238	1
318.2263	1
318.2288	1
318.2389	1
318.2792	1
318.2867	1
318.8937	1
319.1835	1
319.186	1
319.191	1
319.1961	0
319.1986	3
319.2011	3
319.2037	7
319.2062	8
319.2087	20
319.2112	29
319.2137	46
319.2162	74
319.2188	86
319.2213	93
319.2238	126
319.2263	126
319.2289	129
319.2314	115
319.2339	113
319.2364	92
319.239	64
319.2415	43
319.244	19
319.2465	25
319.2491	14
319.2516	13
319.2541	5
319.2566	4
319.2591	1
319.2616	2
319.2642	1
319.2667	1
319.3272	0
319.3398	1
319.7232	1
320.2103	1
320.2153	2
320.2179	1
320.2204	2
320.2229	1
320.2279	1
320.2305	3
320.233	2
320.2355	3
320.238	2
320.2406	1
320.2456	1
320.2532	1
320.2582	1
350.7837	1
405.8915	1
417.9414	1
418.2444	1
418.6744	1
419.2087	1
419.2202	2
419.2231	3
419.226	3
419.2289	5
419.2318	8
419.2347	14
419.2376	17
419.2405	22
419.2434	24
419.2462	31
419.2491	38
419.252	47
419.2549	47
419.2578	44
419.2607	49
419.2636	42
419.2665	38
419.2694	26
419.2722	30
419.2751	20
419.278	11
419.2809	6
419.2838	4
419.2867	5
419.2896	2
419.2925	1
419.2982	1
419.304	0
419.3705	0
420.2378	1
420.2436	1
420.2465	0
420.258	1
420.2638	2
420.2667	1
420.2696	1
420.2725	1
420.2812	1
437.1991	1
437.202	1
437.2138	1
437.2345	1
437.2374	1
437.2404	2
437.2433	1
437.2492	1
437.2522	2
437.2551	3
437.2581	3
437.261	4
437.264	5
437.2669	3
437.2699	6
437.2728	4
437.2758	3
437.2787	4
437.2817	6
437.2846	2
437.2876	1
437.2905	1
437.2935	1
437.3023	1
442.1042	1
454.8088	1
455.182	2
455.185	3
455.191	3
455.1941	7
455.1971	5
455.2001	5
455.2031	6
455.2061	12
455.2091	12
455.2121	15
455.2151	14
455.2181	14
455.2211	20
455.2242	21
455.2272	18
455.2302	18
455.2332	17
455.2362	8
455.2392	6
455.2422	6
455.2452	5
455.2482	2
455.2513	2
455.2543	0
455.2573	1
455.2603	0
455.2633	1
455.2784	0
456.0283	1
456.2362	1
458.2184	0
463.255	1
473.2142	1
488.8663	1
490.2899	1
490.6649	1
498.7837	1
502.2339	1
508.7466	1
511.1554	1
511.5829	1
514.8209	1
524.6413	1
525.2846	2
525.2975	1
531.4468	1
536.2685	1
548.5088	1
579.4981	1
579.532	1
581.252	1
581.2554	1
581.2589	0
581.2623	3
581.2656	3
581.269	4
581.2725	4
581.2759	10
581.2792	10
581.2827	18
581.2861	21
581.2895	24
581.2928	31
581.2963	32
581.2997	43
581.303	47
581.3065	52
581.3099	42
581.3133	44
581.3167	44
581.3201	45
581.3235	43
581.3269	39
581.3303	30
581.3337	25
581.3371	13
581.3405	11
581.3439	8
581.3473	9
581.3507	4
581.3541	6
581.3575	2
581.3609	2
581.3643	1
581.3677	0
581.3779	0
581.4664	1
582.0381	0
582.2866	1
582.29	1
582.3002	1
582.3036	1
582.3071	1
582.3105	1
582.3138	1
582.3173	1
582.3207	2
582.3241	2
582.3377	1
587.7744	1
593.9375	1
594.9833	1
597.4019	1
597.5329	1
599.269	1
599.2725	3
599.2759	5
599.2794	3
599.2828	4
599.2863	4
599.2897	8
599.2932	6
599.2966	9
599.3001	15
599.3035	16
599.307	14
599.3105	22
599.3139	27
599.3174	26
599.3208	26
599.3243	25
599.3278	27
599.3312	20
599.3347	22
599.3381	19
599.3416	17
599.345	11
599.3484	9
599.3519	9
599.3553	3
599.3588	2
599.3622	2
599.3657	2
599.3692	2
599.7769	0
600.2988	2
600.316	1
600.3229	0
600.3333	1
600.3368	1
600.3472	1
615.2979	1
615.3539	1
615.858	1
617.2209	1
617.2244	4
617.2279	5
617.2314	3
617.2349	2
617.2384	2
617.2419	6
617.2454	6
617.249	9
617.2524	8
617.2559	7
617.2595	11
617.2629	20
617.2665	23
617.27	16
617.2735	20
617.277	18
617.2805	19
617.284	20
617.2875	23
617.291	14
617.2945	12
617.298	11
617.3015	8
617.3051	3
617.3085	4
617.312	3
617.3156	3
617.319	1
617.3226	1
617.326	1
618.2554	1
618.2695	1
618.2729	0
618.287	1
635.2421	1
635.2492	1
635.2599	1
635.267	1
635.2706	2
635.2741	1
635.2776	1
635.2848	1
635.2883	2
635.2919	1
635.2955	2
635.299	1
635.3026	2
635.3061	2
739.4582	1
739.462	1
739.4659	2
739.4697	2
739.4735	1
739.4774	4
739.4812	2
739.485	4
739.4889	2
739.4927	3
739.4966	4
739.5004	5
739.5042	2
739.5081	2
739.5119	4
739.5157	1
739.5196	2
739.5234	2
739.5273	2
739.5311	1
739.5349	2
739.5388	1
740.5137	1
747.4025	1
898.6097	1
898.6266	2
898.6309	2
898.6436	3
898.652	2
898.6563	5
898.6605	2
898.6647	5
898.6689	3
898.6732	1
898.6774	3
898.6816	5
898.6859	6
898.6901	6
898.6943	8
898.6985	5
898.7028	10
898.707	10
898.7112	5
898.7155	10
898.7197	14
898.7239	10
898.7282	7
898.7324	7
898.7366	3
898.7408	5
898.7451	4
898.7493	5
898.7535	5
898.7578	4
898.762	4
898.7662	4
898.7705	3
898.7747	2
898.7789	2
898.7831	2
898.7874	3
898.7916	1
898.7958	1
898.8001	1
898.817	2
898.8339	2
898.8678	1
899.0285	1
899.3162	1
899.422	1
899.6971	1
899.7098	1
899.7902	1
900.1077	1
900.2008	1
900.2262	1
900.2558	1
900.3066	1
900.3235	1
900.3447	1
900.3616	1
900.3744	1
900.3871	1
900.4125	1
900.4252	1
900.4337	1
900.4464	1
900.459	1
900.4971	1
900.5268	1
900.5353	1
900.5649	1
900.5692	1
900.5734	1
900.5861	1
900.5903	1
900.603	1
900.6115	1
900.6157	1
900.6453	1
900.6496	2
900.6538	1
900.6792	1
900.747	1
900.8275	1
900.8613	1
900.8994	1
901.035	1
901.0519	1
901.0731	1
901.1112	1
901.1493	1
901.1874	1
901.2086	1
901.2383	1
901.2468	1
901.251	1
901.2595	2
901.2637	1
901.2806	1
901.2849	1
901.2891	1
901.3526	1
901.3696	4
901.3907	1
901.3992	2
901.4034	2
901.4077	3
901.4374	3
901.4797	10
901.4839	10
901.4882	11
901.4924	27
901.4966	39
901.5009	63
901.5051	96
901.5094	131
901.5136	226
901.5178	338
901.5221	445
901.5263	582
901.5306	802
901.5348	999
901.539	897
901.5433	690
901.5475	593
901.5518	752
901.556	850
901.5602	813
901.5645	883
901.5687	864
901.5729	732
901.5771	458
901.5814	217
901.5856	103
901.5898	37
901.5941	15
901.5983	11
901.6026	5
901.6068	1
901.611	4
901.6153	1
901.6195	1
901.789	2
901.9458	3
902.0645	2
902.0898	1
902.1704	1
902.3145	3
902.3229	2
902.3865	1
902.4289	1
902.4628	2
902.467	1
902.4713	1
902.4755	1
902.4883	2
902.4925	1
902.4968	6
902.501	4
902.5052	8
902.5095	10
902.5137	16
902.5179	20
902.5222	28
902.5264	26
902.5306	44
902.5349	41
902.5391	58
902.5434	53
902.5476	52
902.5518	51
902.5561	61
902.5603	72
902.5646	53
902.5688	55
902.5731	45
902.5773	43
902.5815	32
902.5858	27
902.59	21
902.5942	19
902.5984	16
902.6027	7
902.6069	12
902.6112	8
902.6154	6
902.6197	4
902.6239	1
902.6282	1
902.6324	2
902.6366	1
902.6409	2
902.6494	1
902.6536	1
902.8019	2
902.8062	1
902.8189	2
902.8359	1
902.8783	1
902.8825	1
902.908	1
902.9122	1
903.0182	1
903.0352	1
903.0479	1
903.0563	1
903.0606	1
903.069	1
903.0733	1
903.0945	1
903.0988	1
903.1284	1
903.226	1
903.2387	1
903.2684	1
903.2769	1
903.2853	1
903.3023	1
903.3108	1
903.4253	1
903.438	1
903.4931	1
903.527	1
903.5398	2
903.5652	1
903.5779	1
903.5822	1
903.7009	1
903.7858	1
903.7943	1
903.9215	1
903.9512	1
904.0106	1
904.0615	1
904.0743	1
904.0912	1
904.2015	1
904.21	1
904.2142	1
904.4688	1
904.4943	1
904.4985	1
904.5325	1
904.5834	1
904.6513	1
904.6895	1
904.7065	1
904.8211	1
905.1522	1
905.2116	1
905.2201	1
905.254	1
905.3474	1
905.6531	1
906.3157	1
906.3242	1
907.0209	1
907.1697	1
907.6882	1
907.8965	1
907.9433	1
908.0113	1
908.0751	1
908.5471	1
908.8065	1
908.8533	1
910.0065	1
911.3221	1
911.4329	1
911.7652	1
911.8802	1
912.9628	1
913.0906	1
913.5469	1
915.7659	1
922.6146	1
949.9603	1
