Mass spectrum: PC(14:0/5,6-EET); LC-ESI-QTOF; MS2
Name: PC(14:0/5,6-EET)
Class: Oxidized Phospholipid
Formula: C42H76NO9P
Exact mass: 770.044
SMILES: CCCCCCCCCCCCCC(=O)OCC(COP([O-])(=O)OCC[N+](C)(C)C)OC(=O)CCCC1OC1C\C=C/C\C=C/C\C=C/CCCCC
InChI: InChI=1S/C42H76NO9P/c1-6-8-10-12-14-16-18-20-21-23-25-27-30-39-40(52-39)31-29-33-42(45)51-38(37-50-53(46,47)49-35-34-43(3,4)5)36-48-41(44)32-28-26-24-22-19-17-15-13-11-9-7-2/h14,16,20-21,25,27,38-40H,6-13,15,17-19,22-24,26,28-37H2,1-5H3/b16-14-,21-20-,27-25-
Instrument: Acquity UPLC Peptide BEH C18 column (50 x 2.1 mm; 1.7 um), Sciex TripleTOF5600
Instrument type: LC-ESI-QTOF
Ms type: MS2
Ion mode: NEGATIVE
Collision energy: 30-50
Precursor m/z: 828.5396225
Precursor type: [M+CH3COOH-H]-
m/z	relative intensity
101.0212	55
101.0255	55
168.0403	55
191.1715	55
191.1812	55
191.1832	86
192.1364	55
224.0544	55
224.065	55
227.1826	55
227.1868	226
227.1889	168
227.1911	254
227.1932	309
227.1953	281
227.1974	535
227.1996	789
227.2017	618
227.2038	649
227.2059	477
227.2081	508
227.2102	113
227.2123	168
227.2145	55
227.2166	196
227.2187	141
227.223	55
227.2251	55
228.196	55
231.2133	55
231.2198	55
253.204	113
253.2085	86
253.2108	113
253.213	196
253.2153	226
253.2175	196
253.2197	226
253.222	141
253.2242	196
253.2265	113
253.231	86
255.2377	55
279.2267	55
279.2479	55
281.258	55
293.1874	55
293.1898	86
293.1922	55
293.1947	55
293.1971	113
293.2019	254
293.2043	281
293.2067	281
293.2091	281
293.2116	168
293.214	281
293.2164	309
293.2188	226
293.2212	196
293.2237	196
293.2261	55
293.2285	55
293.2309	55
319.2021	55
319.2122	55
319.2197	55
319.2222	86
319.2248	196
319.2273	86
319.2298	86
319.2323	86
319.2348	113
319.2374	113
319.2399	55
319.255	55
452.2831	55
478.2751	113
478.2782	86
478.2813	141
478.2844	55
478.2875	55
478.2906	281
478.2937	113
478.2968	113
478.3122	55
478.3152	86
478.3214	55
478.3245	55
544.2789	86
544.2987	55
544.3019	55
544.3052	55
544.3118	86
672.9354	55
752.1686	55
753.326	58
754.4418	55
754.4495	86
754.4534	113
754.4573	141
754.4612	113
754.4651	204
754.4689	408
754.4728	293
754.4767	375
754.4805	894
754.4844	582
754.4883	436
754.4922	646
754.496	798
754.4999	963
754.5038	822
754.5077	911
754.5115	731
754.5154	646
754.5193	701
754.5232	999
754.5271	883
754.5309	822
754.5348	706
754.5387	411
754.5425	350
754.5464	378
754.5503	204
754.5542	144
754.5658	116
755.4924	30
755.5079	86
828.48	55
828.5002	55
828.5165	55
828.5206	86
828.5247	113
828.5287	55
828.5328	55
828.5449	254
828.549	86
828.553	86
828.5571	55
828.5612	86
828.5652	141
828.5693	86
828.5734	55
828.5774	55
828.5815	141
828.5896	86
828.5937	86
829.4793	55
829.4955	55
829.4996	86
829.52	55
