Mass spectrum: PG 34:2; LC-ESI-QTOF; MS2
Name: PG 34:2
Class: PG
Formula: C40H75O10P
Exact mass: 747.006
SMILES: CCCCCCCCCCCCCCCC(=O)OCC(COP(O)(=O)OCC(O)CO)OC(=O)CCCCCCC\C=C/C\C=C/CCCCC
InChI: InChI=1S/C40H75O10P/c1-3-5-7-9-11-13-15-17-18-20-22-24-26-28-30-32-40(44)50-38(36-49-51(45,46)48-34-37(42)33-41)35-47-39(43)31-29-27-25-23-21-19-16-14-12-10-8-6-4-2/h11,13,17-18,37-38,41-42H,3-10,12,14-16,19-36H2,1-2H3,(H,45,46)/b13-11-,18-17-
Instrument: AB Sciex TripleTOF 5600+ system (Q-TOF) equipped with a DuoSpray ion source
Instrument type: LC-ESI-QTOF
Ms type: MS2
Ion mode: NEGATIVE
Collision energy: 45V
Column name: Acquity UPLC Peptide BEH C18 column (50*2.1 mm; 1.7 um; 130A)(Waters Co.,Milford, MA, USA)
Retention time: 8.10702
Precursor type: [M-H]-
Precursor m/z: 745.5016
m/z	relative intensity
152.997	32
253.215	675
255.232	386
279.232	389
280.359	10
280.764	7
281.233	194
281.249	775
393.155	7
463.243	25
481.253	6
497.285	6
509.265	6
588.468	28
743.134	6
745.453	50
745.473	145
745.5	999
745.568	35
