Mass spectrum: PI(16:0/13-HODE); LC-ESI-QTOF; MS2
Name: PI(16:0/13-HODE)
Class: Oxidized Phospholipid
Formula: C43H79O14P
Exact mass: 851.067
SMILES: CCCCCCCCCCCCCCCC(=O)OCC(COP(O)(=O)OC1C(O)C(O)C(O)C(O)C1O)OC(=O)CCCCCCC\C=C/C=C/C(O)CCCCC
InChI: InChI=1S/C43H79O14P/c1-3-5-7-8-9-10-11-12-13-16-19-22-26-30-36(45)54-32-35(33-55-58(52,53)57-43-41(50)39(48)38(47)40(49)42(43)51)56-37(46)31-27-23-20-17-14-15-18-21-25-29-34(44)28-24-6-4-2/h18,21,25,29,34-35,38-44,47-51H,3-17,19-20,22-24,26-28,30-33H2,1-2H3,(H,52,53)/b21-18-,29-25+
Instrument: Acquity UPLC Peptide BEH C18 column (50 x 2.1 mm; 1.7 um), Sciex TripleTOF5600
Instrument type: LC-ESI-QTOF
Ms type: MS2
Ion mode: NEGATIVE
Collision energy: 30-50
Precursor m/z: 849.5134677
Precursor type: [M-H]-
m/z	relative intensity
78.96308	10
96.96758	10
152.9852	10
152.9869	10
152.9956	15
152.9974	15
153.0026	10
195.1327	10
195.1366	15
195.1386	20
195.1425	15
195.1445	15
195.1465	10
195.1484	10
222.9917	15
222.9938	30
222.9959	35
222.998	20
223.0001	15
223.0022	25
223.0043	71
223.0064	20
223.0085	10
223.0106	10
240.9958	10
240.998	15
241.0002	20
241.0024	46
241.0046	60
241.0067	46
241.0089	116
241.0111	86
241.0133	106
241.0155	91
241.0177	71
241.0199	71
241.0221	66
241.0243	30
241.0265	35
241.0352	10
255.2139	10
255.2161	15
255.2184	10
255.2206	20
255.2229	25
255.2251	66
255.2274	76
255.2296	96
255.2319	126
255.2341	101
255.2364	96
255.2387	81
255.2409	55
255.2432	30
255.2454	41
255.2477	20
255.2499	15
255.2522	10
255.2544	10
255.2567	10
259.0125	10
259.0216	10
259.0262	10
277.2039	10
277.2063	15
277.2086	10
277.211	10
277.2133	10
277.2157	15
277.218	30
277.2204	10
277.2251	10
277.2274	20
285.5992	10
294.3158	10
295.2049	10
295.2073	26
295.2097	26
295.2121	46
295.2146	82
295.217	129
295.2194	93
295.2218	88
295.2243	201
295.2267	216
295.2291	230
295.2315	103
295.2339	185
295.2364	97
295.2388	97
295.2412	41
295.2437	26
295.2461	5
295.2485	5
297.0332	15
297.0356	15
297.038	20
297.0429	20
297.0453	10
297.0478	15
315.043	15
315.0455	10
315.058	10
391.2178	25
391.2234	25
391.2262	15
391.2289	25
391.2318	30
391.2345	15
391.2373	10
391.2485	10
431.1975	20
431.2004	20
431.2033	15
431.2063	20
431.2092	46
431.2121	46
431.2151	30
431.218	25
431.2209	46
431.2238	46
431.2268	41
431.2297	25
431.2326	20
431.2356	25
431.2385	10
449.2255	10
449.2435	10
553.2419	10
553.2585	15
553.2618	10
553.2652	15
553.2685	15
553.2751	35
553.2784	20
553.2817	15
553.2851	15
553.2884	15
553.2917	30
553.295	20
553.2983	20
553.3017	15
553.3083	10
593.248	15
593.2514	25
593.2549	25
593.2583	30
593.2617	20
593.2652	35
593.2686	50
593.272	10
593.2755	60
593.2789	20
593.2823	46
593.2858	41
593.2892	71
593.2927	25
593.2961	15
593.2996	15
593.3167	15
611.2673	10
611.2813	10
611.2848	10
611.3092	10
767.5256	10
846.8593	10
849.4152	10
849.4235	10
849.4276	10
849.4317	10
849.4523	28
849.4564	23
849.4604	28
849.4646	74
849.4687	76
849.4728	130
849.4769	235
849.481	278
849.4852	365
849.4893	481
849.4933	624
849.4975	573
849.5016	754
849.5057	749
849.5098	782
849.5139	824
849.5181	999
849.5222	946
849.5262	946
849.5304	854
849.5345	848
849.5386	768
849.5427	622
849.5468	465
849.551	370
849.5551	389
849.5591	250
849.5633	286
849.5674	150
849.5715	144
849.5756	64
849.5797	62
849.5839	31
849.588	30
849.592	38
849.5962	6
849.6003	6
849.6085	17
849.6332	11
849.7155	10
850.3819	10
850.4847	10
850.493	10
850.5012	10
850.5053	10
850.5095	10
850.5135	10
850.5177	10
850.5341	15
850.5424	6
