Mass spectrum: PI 36:3; LC-ESI-QTOF; MS2
Name: PI 36:3
Class: PI
Formula: C45H81O13P
Exact mass: 861.106
SMILES: CCCCCCCC\C=C/CCCCCCCC(=O)OCC(COP(O)(=O)OC1C(O)C(O)C(O)C(O)C1O)OC(=O)CCCCCCC\C=C/C\C=C/CCCCC
InChI: InChI=1S/C45H81O13P/c1-3-5-7-9-11-13-15-17-19-21-23-25-27-29-31-33-38(46)55-35-37(36-56-59(53,54)58-45-43(51)41(49)40(48)42(50)44(45)52)57-39(47)34-32-30-28-26-24-22-20-18-16-14-12-10-8-6-4-2/h12,14,17-20,37,40-45,48-52H,3-11,13,15-16,21-36H2,1-2H3,(H,53,54)/b14-12-,19-17-,20-18-
Instrument: AB Sciex TripleTOF 5600+ system (Q-TOF) equipped with a DuoSpray ion source
Instrument type: LC-ESI-QTOF
Ms type: MS2
Ion mode: NEGATIVE
Collision energy: 45V
Column name: Acquity UPLC Peptide BEH C18 column (50*2.1 mm; 1.7 um; 130A)(Waters Co.,Milford, MA, USA)
Retention time: 8.348083
Precursor type: [M-H]-
Precursor m/z: 859.5303
m/z	relative intensity
78.963	1
96.968	1
134.985	0
152.994	11
158.97	0
171.015	0
222.999	17
241.012	65
255.233	1
259.023	8
278.359	1
279.232	99
281.247	117
297.036	10
315.045	3
415.221	9
417.238	54
417.267	2
435.246	5
504.269	0
523.265	0
541.704	0
577.272	12
577.306	2
579.262	3
579.291	46
581.298	0
595.298	1
597.295	10
597.32	3
697.463	1
699.487	1
783.609	1
785.535	2
785.615	0
856.812	3
858.573	0
859.439	1
859.532	999
859.718	0
859.89	0
860.248	0
860.534	3
