Mass spectrum: PE(16:1e/5,6-EET); LC-ESI-QTOF; MS2
Name: PE(16:1e/5,6-EET)
Class: Oxidized Phospholipid
Formula: C41H74NO8P
Exact mass: 740.018
SMILES: CCCCCCCCCCCCCC\C=C/OCC(COP(O)(=O)OCCN)OC(=O)CCCC1OC1C\C=C/C\C=C/C\C=C/CCCCC
InChI: InChI=1S/C41H74NO8P/c1-3-5-7-9-11-13-15-17-18-20-22-24-26-28-34-46-36-38(37-48-51(44,45)47-35-33-42)49-41(43)32-29-31-40-39(50-40)30-27-25-23-21-19-16-14-12-10-8-6-4-2/h12,14,19,21,25,27-28,34,38-40H,3-11,13,15-18,20,22-24,26,29-33,35-37,42H2,1-2H3,(H,44,45)/b14-12-,21-19-,27-25-,34-28-
Instrument: Acquity UPLC Peptide BEH C18 column (50 x 2.1 mm; 1.7 um), Sciex TripleTOF5600
Instrument type: LC-ESI-QTOF
Ms type: MS2
Ion mode: NEGATIVE
Collision energy: 30-50
Precursor m/z: 738.5079288
Precursor type: [M-H]-
m/z	relative intensity
78.96188	40
78.96439	40
81.03403	40
83.05456	62
99.04446	40
99.04586	40
99.05008	62
99.05289	62
115.0385	40
137.1283	62
137.1349	62
137.1365	121
137.1415	40
140.0049	40
163.1475	40
163.1547	62
191.1621	40
191.1699	62
191.1719	121
191.1738	62
191.1758	141
191.1777	425
191.1797	242
191.1816	344
191.1836	203
191.1855	121
191.1875	141
191.1894	81
191.1914	81
191.1953	62
196.0308	62
196.0327	40
196.0347	40
196.0367	101
196.0387	81
196.0406	40
196.0426	101
196.0485	40
203.1749	40
203.183	40
205.2012	40
219.165	40
219.1734	40
219.1755	40
219.1796	40
219.1817	40
239.2245	40
239.2333	40
239.2354	81
239.2376	40
239.2398	62
239.242	62
253.2022	40
253.2089	40
253.2157	62
253.2179	40
253.2224	40
253.2269	40
254.218	40
254.2203	40
254.2248	40
255.2246	40
257.2099	62
257.2189	40
257.2234	62
257.228	40
257.2325	101
257.2347	40
259.2414	40
275.2357	62
275.2404	40
275.2427	40
275.2451	40
281.2443	62
281.2466	40
281.2514	62
281.2585	40
281.2608	40
301.2147	81
301.2196	121
301.2221	40
301.2245	40
303.2188	40
303.2261	40
303.2285	62
303.231	62
303.2384	81
303.2458	40
304.222	62
304.2269	40
304.2294	81
304.2318	81
304.2343	81
304.2368	81
304.2392	62
304.2441	62
304.2466	40
304.2565	40
305.2417	81
305.2442	40
319.1975	40
319.2	62
319.205	165
319.2076	81
319.2101	183
319.2126	350
319.2151	473
319.2177	367
319.2202	473
319.2227	514
319.2252	679
319.2277	572
319.2303	449
319.2328	367
319.2353	407
319.2378	183
319.2403	244
319.2429	183
319.2454	163
319.2479	123
319.2504	62
319.2529	81
319.258	40
320.2319	81
331.2684	40
375.2262	62
375.2399	62
418.2432	40
418.249	40
418.2577	40
418.2605	81
418.2634	62
418.2663	121
418.2692	81
418.2721	121
418.275	101
418.2779	62
418.2807	81
418.2836	101
418.2865	62
418.2923	40
418.2952	40
418.2981	62
418.3009	40
419.2509	42
432.2644	42
436.2455	62
436.2485	40
436.2544	81
436.2603	62
436.2632	348
436.2662	244
436.2691	224
436.2721	387
436.275	369
436.278	471
436.2809	389
436.2838	371
436.2868	556
436.2897	431
436.2927	681
436.2956	393
436.2986	352
436.3015	207
436.3045	187
436.3074	81
436.3104	125
436.3133	42
436.3281	40
452.2776	62
476.5092	40
645.2877	42
736.188	40
738.3527	42
738.4409	40
738.4523	62
738.46	103
738.4639	185
738.4677	290
738.4716	230
738.4753	270
738.4792	312
738.483	477
738.4869	403
738.4907	550
738.4945	425
738.4984	568
738.5022	743
738.506	788
738.5099	681
738.5137	719
738.5175	638
738.5214	999
738.5252	657
738.5291	655
738.5329	316
738.5367	506
738.5405	425
738.5444	232
738.5482	191
738.5521	147
738.5559	105
738.5597	64
738.5635	105
738.5674	145
738.5712	40
738.5865	62
738.6019	22
739.4534	40
739.4688	22
739.5187	101
