Mass spectrum: SM d30:1; LC-ESI-QTOF; MS2
Name: SM d30:1
Class: SM
Formula: C35H71N2O6P
Exact mass: 646.937
SMILES: CCCCCCCCCCCCC\C=C\C(O)C(COP([O-])(=O)OCC[N+](C)(C)C)NC(=O)CCCCCCCCCCC
InChI: InChI=1S/C35H71N2O6P/c1-6-8-10-12-14-16-17-18-19-21-22-24-26-28-34(38)33(32-43-44(40,41)42-31-30-37(3,4)5)36-35(39)29-27-25-23-20-15-13-11-9-7-2/h26,28,33-34,38H,6-25,27,29-32H2,1-5H3,(H-,36,39,40,41)/b28-26+
Instrument: AB Sciex TripleTOF 5600+ system (Q-TOF) equipped with a DuoSpray ion source
Instrument type: LC-ESI-QTOF
Ms type: MS2
Ion mode: NEGATIVE
Collision energy: 45V
Column name: Acquity UPLC Peptide BEH C18 column (50*2.1 mm; 1.7 um; 130A)(Waters Co.,Milford, MA, USA)
Retention time: 7.999218
Precursor type: [M+CH3COOH-H]-
Precursor m/z: 705.5175
m/z	relative intensity
78.958	39
96.966	1
122.987	2
133.066	1
152.995	1
167.532	2
168.042	153
225.182	2
255.23	7
295.213	1
329.172	1
352.651	1
449.319	6
542.399	2
560.406	7
627.509	6
627.527	5
629.428	1
629.489	5
630.554	2
631.478	999
632.47	1
645.521	7
645.543	4
645.559	2
646.44	4
687.493	4
705.502	9
