Mass spectrum: PC(16:0/20-HDoHE); LC-ESI-QTOF; MS2
Name: PC(16:0/20-HDoHE)
Class: Oxidized Phospholipid
Formula: C46H80NO9P
Exact mass: 822.12
SMILES: CCCCCCCCCCCCCCCC(=O)OCC(COP([O-])(=O)OCC[N+](C)(C)C)OC(=O)CC\C=C/C\C=C/C\C=C/C\C=C/C\C=C/C=C/C(O)CC
InChI: InChI=1S/C46H80NO9P/c1-6-8-9-10-11-12-13-18-22-25-28-31-34-37-45(49)53-41-44(42-55-57(51,52)54-40-39-47(3,4)5)56-46(50)38-35-32-29-26-23-20-17-15-14-16-19-21-24-27-30-33-36-43(48)7-2/h14-15,19-21,23,27,29-30,32-33,36,43-44,48H,6-13,16-18,22,24-26,28,31,34-35,37-42H2,1-5H3/b15-14-,21-19-,23-20-,30-27-,32-29-,36-33+
Instrument: Acquity UPLC Peptide BEH C18 column (50 x 2.1 mm; 1.7 um), Sciex TripleTOF5600
Instrument type: LC-ESI-QTOF
Ms type: MS2
Ion mode: NEGATIVE
Collision energy: 30-50
Precursor m/z: 880.5709227
Precursor type: [M+CH3COOH-H]-
m/z	relative intensity
78.96014	6
78.96139	6
78.9639	9
78.96515	6
93.07198	6
107.0869	6
107.0898	6
107.0913	6
121.1058	6
149.1354	6
159.1348	6
161.1363	6
168.0363	6
168.0381	13
168.0399	23
168.0436	9
168.0454	13
168.0472	9
179.1499	6
185.1271	6
187.1406	6
187.1425	9
187.1445	9
187.1464	13
187.1522	6
187.1541	13
189.1592	9
189.165	6
224.0497	6
224.054	6
224.0561	6
224.0603	13
224.0624	6
224.0645	13
224.0667	9
224.0688	26
224.0709	9
224.073	9
224.0751	9
224.0772	9
227.1736	6
227.1758	16
227.18	6
227.1821	13
241.1765	6
241.1809	6
241.183	23
241.1853	20
241.1874	38
241.1896	32
241.1918	71
241.194	58
241.1962	38
241.1984	71
241.2006	32
241.2028	35
241.205	23
241.2072	9
241.2094	13
241.2181	6
242.0779	6
242.0801	6
242.6314	6
253.2058	6
254.4264	6
254.4489	6
255.0525	6
255.2057	9
255.208	13
255.2125	23
255.2148	30
255.217	43
255.2193	96
255.2215	66
255.2238	152
255.226	166
255.2283	185
255.2305	199
255.2328	292
255.235	308
255.2373	212
255.2395	169
255.2418	173
255.2441	119
255.2463	79
255.2486	40
255.2508	30
255.2531	23
255.2553	16
255.2576	13
255.2598	6
256.2324	9
256.2414	6
271.1722	6
280.352	6
281.2055	6
281.2079	20
281.2102	13
281.2126	32
281.215	20
281.2173	38
281.2197	61
281.2221	35
281.2244	67
281.2268	58
281.2292	74
281.2315	61
281.2339	58
281.2363	42
281.2386	32
281.241	23
281.2434	32
281.2457	26
281.2481	9
281.2505	13
281.2528	9
281.2552	13
281.2623	6
282.2357	6
285.166	6
285.1707	13
285.1731	9
285.1755	13
285.1779	29
285.1803	35
285.1826	45
285.1851	26
285.1874	35
285.1898	32
285.1922	35
285.1946	16
285.197	6
285.1993	6
285.2041	6
285.2089	9
299.2164	9
299.2213	16
299.2238	23
299.2262	35
299.2286	38
299.2311	38
299.2335	48
299.236	45
299.2384	55
299.2408	42
299.2433	20
299.2457	32
299.2482	26
299.2506	20
299.2531	16
299.2555	13
299.2604	13
299.2628	6
317.1981	9
317.2006	9
317.2031	16
317.2056	6
317.2107	13
317.2132	16
317.2157	9
317.2182	6
317.2207	16
317.2232	9
317.2257	6
317.2283	9
325.1913	6
325.1938	9
325.1964	9
325.1989	26
325.2014	23
325.204	29
325.2065	55
325.209	67
325.2116	58
325.2141	80
325.2167	55
325.2192	52
325.2218	35
325.2243	61
325.2269	29
325.2294	35
325.232	23
325.2345	9
325.2371	6
325.2396	6
325.2421	13
325.2447	6
326.2328	6
327.2453	6
342.1881	6
343.1937	6
343.199	6
343.2016	16
343.2042	45
343.2068	59
343.2094	75
343.212	90
343.2146	92
343.2173	109
343.2199	178
343.2225	128
343.2251	191
343.2277	211
343.2303	167
343.2329	144
343.2356	180
343.2382	130
343.2408	84
343.2434	91
343.246	74
343.2486	42
343.2513	23
343.2538	10
343.2565	16
343.2591	6
343.2643	9
344.2113	6
344.2244	6
344.2322	6
344.2375	6
357.2298	6
391.2198	6
391.2226	6
391.2254	6
409.2362	6
409.2448	6
409.2534	9
462.2936	9
462.2966	6
462.2996	6
462.3027	9
462.3057	9
462.3087	13
462.3148	9
462.3209	6
467.7826	6
480.2762	9
480.2792	13
480.2823	6
480.2854	16
480.2916	16
480.2947	38
480.2978	48
480.3009	58
480.304	52
480.3071	87
480.3102	61
480.3133	45
480.3163	58
480.3194	29
480.3225	58
480.3256	35
480.3287	26
480.3318	29
480.3349	20
480.3411	9
480.3596	9
494.2729	6
550.2725	6
550.2758	6
550.2791	6
550.2924	9
550.2957	6
565.2642	6
568.2975	13
568.3042	6
568.3076	6
568.3143	9
735.4288	9
735.4403	23
735.4442	6
735.4479	16
735.4518	9
735.4556	16
735.4594	26
735.4633	38
735.4671	29
735.4709	16
735.4747	16
735.4786	6
735.4824	13
735.4862	29
735.4977	13
761.4642	6
761.4875	6
761.4915	6
761.4954	6
761.4993	6
803.9907	9
804.0027	6
804.0107	6
804.0267	6
804.0347	16
804.0388	6
806.3168	6
806.4451	9
806.4491	6
806.4531	6
806.4571	13
806.4611	20
806.4651	20
806.4691	17
806.4731	14
806.4771	47
806.4811	33
806.4852	102
806.4891	92
806.4932	151
806.4972	212
806.5012	268
806.5052	320
806.5092	415
806.5132	428
806.5172	564
806.5212	533
806.5252	639
806.5292	814
806.5332	748
806.5372	896
806.5413	999
806.5452	893
806.5493	852
806.5533	717
806.5573	865
806.5613	641
806.5653	686
806.5693	480
806.5733	466
806.5773	282
806.5813	240
806.5853	207
806.5894	159
806.5933	100
806.5974	110
806.6014	57
806.6053	23
806.6094	31
806.6134	20
806.6174	26
806.6214	11
806.6254	4
806.6334	4
806.6494	7
807.4832	6
807.4912	16
807.4952	13
807.4992	6
807.5032	26
807.5073	13
807.5112	16
807.5193	20
807.5233	9
807.5273	6
807.5313	20
807.5353	16
807.5393	32
807.5433	20
807.5474	29
807.5513	20
807.5554	13
807.5594	16
807.5634	29
807.5674	16
807.5714	23
807.5754	6
807.5834	9
807.5914	6
807.5995	6
807.6075	6
812.4505	6
820.5099	9
820.5179	9
820.5341	6
820.5463	6
820.5543	6
820.5584	6
820.5624	9
820.5665	9
820.5745	9
820.5867	6
821.4802	16
821.4842	6
821.4883	6
821.4923	6
821.4963	13
821.5004	13
821.5045	13
821.5085	9
821.5125	6
821.5165	20
821.5206	9
821.5247	16
821.5287	13
821.5327	16
821.5368	6
821.549	6
821.561	6
821.5692	9
880.4953	6
880.4995	6
880.5079	16
880.5162	9
880.5246	16
880.5288	13
880.533	13
880.5372	16
880.5413	38
880.5455	52
880.5497	52
880.5539	45
880.5581	71
880.5623	90
880.5665	52
880.5707	87
880.5748	119
880.579	64
880.5832	77
880.5874	100
880.5916	74
880.5958	48
880.6	38
880.6042	55
880.6083	52
880.6125	29
880.6167	38
880.6209	23
880.6251	20
880.6293	29
880.6335	13
880.6376	9
880.6461	6
880.6502	9
881.4921	6
881.6052	9
