Mass spectrum: PE 38:2; LC-ESI-QTOF; MS2
Name: PE 38:2
Class: PE
Formula: C43H82NO8P
Exact mass: 772.1039999999998
SMILES: CCCCCCCC\C=C/CCCCCCCCCC(=O)OC(COC(=O)CCCCCCC\C=C/CCCCCCCC)COP(O)(=O)OCCN
InChI: InChI=1S/C43H82NO8P/c1-3-5-7-9-11-13-15-17-19-20-22-24-26-28-30-32-34-36-43(46)52-41(40-51-53(47,48)50-38-37-44)39-49-42(45)35-33-31-29-27-25-23-21-18-16-14-12-10-8-6-4-2/h17-19,21,41H,3-16,20,22-40,44H2,1-2H3,(H,47,48)/b19-17-,21-18-
Instrument: AB Sciex TripleTOF 5600+ system (Q-TOF) equipped with a DuoSpray ion source
Instrument type: LC-ESI-QTOF
Ms type: MS2
Ion mode: NEGATIVE
Collision energy: 45V
Column name: Acquity UPLC Peptide BEH C18 column (50*2.1 mm; 1.7 um; 130A)(Waters Co.,Milford, MA, USA)
Retention time: 11.18996
Precursor type: [M-H]-
Precursor m/z: 770.5728
m/z	relative intensity
78.958	7
121.997	1
140.009	8
164.623	1
187.367	2
196.037	19
250.256	2
253.212	1
255.25	2
281.249	599
281.362	2
283.254	5
283.274	8
305.245	6
307.273	4
309.278	999
460.284	10
478.273	21
478.296	23
488.29	6
488.324	8
506.316	14
506.338	9
610.553	8
610.599	4
770.537	116
770.57	477
770.596	148
770.632	10
770.792	2
771.226	2
771.579	2
