Mass spectrum: PC 40:7; LC-ESI-QTOF; MS2
Name: PC 40:7
Class: PC
Formula: C48H82NO8P
Exact mass: 832.1589999999999
SMILES: CCCCCCCC\C=C/CCCCCCCC(=O)OCC(COP([O-])(=O)OCC[N+](C)(C)C)OC(=O)CC\C=C/C\C=C/C\C=C/C\C=C/C\C=C/C\C=C/CC
InChI: InChI=1S/C48H82NO8P/c1-6-8-10-12-14-16-18-20-22-23-24-25-27-29-31-33-35-37-39-41-48(51)57-46(45-56-58(52,53)55-43-42-49(3,4)5)44-54-47(50)40-38-36-34-32-30-28-26-21-19-17-15-13-11-9-7-2/h8,10,14,16,20-22,24-26,29,31,35,37,46H,6-7,9,11-13,15,17-19,23,27-28,30,32-34,36,38-45H2,1-5H3/b10-8-,16-14-,22-20-,25-24-,26-21-,31-29-,37-35-
Instrument: AB Sciex TripleTOF 5600+ system (Q-TOF) equipped with a DuoSpray ion source
Instrument type: LC-ESI-QTOF
Ms type: MS2
Ion mode: NEGATIVE
Collision energy: 45V
Column name: Acquity UPLC Peptide BEH C18 column (50*2.1 mm; 1.7 um; 130A)(Waters Co.,Milford, MA, USA)
Retention time: 9.276338
Precursor type: [M+CH3COOH-H]-
Precursor m/z: 890.5886
m/z	relative intensity
78.96	3
143.085	1
147.118	1
149.136	1
168.043	9
177.163	5
189.163	1
196.035	2
203.18	1
224.07	11
229.195	17
242.08	1
249.185	3
255.223	1
279.233	1
280.369	1
281.221	2
281.248	281
282.357	1
283.242	146
297.224	1
326.207	3
327.232	405
328.235	1
381.354	4
417.237	2
475.261	1
478.271	1
482.015	0
488.307	14
504.748	0
506.323	85
521.295	1
534.286	3
534.304	4
548.249	0
552.309	4
745.473	1
771.488	1
786.509	1
813.958	3
814.018	0
815.52	0
816.552	999
816.718	1
817.56	4
831.504	3
831.53	7
837.964	0
890.503	1
890.588	87
