Mass spectrum: PI(18:0/20-HETE); LC-ESI-QTOF; MS2
Name: PI(18:0/20-HETE)
Class: Oxidized Phospholipid
Formula: C47H83O14P
Exact mass: 903.143
SMILES: CCCCCCCCCCCCCCCCCC(=O)OCC(COP(O)(=O)OC1C(O)C(O)C(O)C(O)C1O)OC(=O)CCC\C=C/C\C=C/C\C=C/C\C=C/CCCCCO
InChI: InChI=1S/C47H83O14P/c1-2-3-4-5-6-7-8-9-13-16-19-22-25-28-31-34-40(49)58-37-39(38-59-62(56,57)61-47-45(54)43(52)42(51)44(53)46(47)55)60-41(50)35-32-29-26-23-20-17-14-11-10-12-15-18-21-24-27-30-33-36-48/h10,12,14,17-18,21,23,26,39,42-48,51-55H,2-9,11,13,15-16,19-20,22,24-25,27-38H2,1H3,(H,56,57)/b12-10-,17-14-,21-18-,26-23-
Instrument: Acquity UPLC Peptide BEH C18 column (50 x 2.1 mm; 1.7 um), Sciex TripleTOF5600
Instrument type: LC-ESI-QTOF
Ms type: MS2
Ion mode: NEGATIVE
Collision energy: 30-50
Precursor m/z: 901.5447679
Precursor type: [M-H]-
m/z	relative intensity
78.95475	1
78.956	3
78.95725	8
78.95851	12
78.95976	10
78.96102	8
78.96227	6
78.96352	4
78.96478	4
78.96603	4
78.96728	3
78.96854	1
78.9723	1
96.96509	2
96.96787	2
96.96926	1
96.97204	2
96.97343	2
96.97482	1
96.9776	1
107.0968	1
123.1151	1
131.9574	1
147.1156	1
149.1282	1
149.1299	1
149.1334	1
149.1403	1
151.1527	1
152.3398	1
152.9814	1
152.9831	1
152.9849	2
152.9866	4
152.9884	9
152.9901	8
152.9919	12
152.9936	11
152.9953	15
152.9971	16
152.9988	11
153.0006	9
153.0023	6
153.0041	4
153.0058	4
153.0076	3
153.0093	1
153.0111	1
153.0163	1
153.9953	1
161.1378	1
163.0762	1
171.0046	1
177.0876	1
177.0895	1
177.0932	1
177.1665	1
187.148	1
189.1628	1
191.1064	2
191.1084	1
191.1747	1
191.1825	1
191.1844	1
191.1864	1
191.1903	1
203.1718	1
203.1799	1
203.192	1
204.99	1
217.1965	1
217.2007	1
217.2027	1
221.1801	1
221.1969	1
221.3585	1
222.1254	1
222.2979	1
222.3	1
222.9842	2
222.9863	5
222.9884	2
222.9905	6
222.9926	12
222.9947	20
222.9968	13
222.9989	23
223.0011	17
223.0032	21
223.0053	19
223.0074	12
223.0095	11
223.0116	7
223.0137	3
223.0158	2
223.0179	1
223.02	1
223.0221	1
223.0242	1
223.1675	1
223.176	1
233.1864	1
240.259	1
240.2612	1
240.2634	1
240.2655	1
240.2699	2
240.2721	2
240.2874	2
240.5784	1
240.898	1
240.9155	1
240.9309	1
240.9834	1
240.9856	1
240.99	3
240.9922	5
240.9944	10
240.9966	11
240.9988	30
241.001	45
241.0032	60
241.0053	99
241.0075	111
241.0097	123
241.0119	123
241.0141	131
241.0163	114
241.0185	86
241.0207	51
241.0229	37
241.0251	23
241.0273	10
241.0294	10
241.0316	5
241.0338	2
241.036	2
241.0404	1
241.0448	1
241.1346	1
241.1872	1
241.3033	1
241.4283	1
241.584	1
241.8033	1
242.0118	1
242.0162	1
245.1542	1
245.1962	1
245.2095	1
245.2117	1
245.2139	1
245.2161	1
245.2183	5
245.2205	7
245.2227	4
245.2249	2
245.2271	3
245.2293	4
245.2316	3
245.2338	2
245.236	3
245.2382	1
245.2404	1
245.2426	1
245.2448	1
245.2492	1
257.211	1
257.2155	1
257.2178	1
257.2201	1
257.2224	1
257.2246	1
257.2269	2
257.2291	2
257.2314	1
257.2337	2
257.2359	3
257.2382	1
257.2404	1
259.0086	4
259.0109	7
259.0132	7
259.0154	10
259.0177	12
259.02	10
259.0222	15
259.0245	10
259.0268	14
259.0291	7
259.0313	6
259.0336	3
259.0359	4
259.0381	1
259.0404	1
263.1945	1
265.2564	1
271.2045	1
271.2138	1
273.2042	1
273.2088	2
273.2112	3
273.2135	2
273.2159	4
273.2182	4
273.2205	3
273.2228	3
273.2252	3
273.2275	7
273.2298	3
273.2321	2
273.2345	2
275.2112	1
275.2135	1
275.2206	1
275.2229	1
275.2253	2
275.2276	3
275.2299	5
275.2323	7
275.2346	11
275.2369	8
275.2393	6
275.2416	8
275.244	7
275.2463	8
275.2486	4
275.251	2
275.2533	3
275.2557	1
275.258	1
282.3635	1
282.3825	2
282.3872	1
282.3896	1
282.4418	1
283.194	1
283.1964	1
283.2035	1
283.213	2
283.2225	1
283.2249	1
283.2272	2
283.232	1
283.2367	3
283.2391	3
283.2415	7
283.2438	8
283.2462	14
283.2486	21
283.2509	36
283.2533	54
283.2557	83
283.2581	101
283.2605	117
283.2628	132
283.2652	123
283.2676	126
283.27	112
283.2723	94
283.2747	64
283.2771	43
283.2794	21
283.2818	15
283.2842	11
283.2866	6
283.289	5
283.2913	2
283.2961	1
283.3008	1
283.3222	1
283.4006	1
283.6928	1
283.719	1
283.7285	1
283.8426	1
284.2563	1
284.2587	1
284.2611	2
284.2635	3
284.2659	1
284.2682	2
284.2706	3
284.273	4
284.2754	1
284.2777	2
284.2825	1
289.1972	1
289.1996	1
289.202	1
289.2043	1
289.2068	3
289.2092	4
289.2115	4
289.214	6
289.2164	10
289.2188	4
289.2212	5
289.2236	4
289.226	4
289.2284	3
289.2308	2
289.2332	2
289.2379	2
291.2307	1
291.2331	1
291.2355	1
291.2379	2
293.2375	1
296.1076	1
296.1174	1
297.0188	3
297.0213	4
297.0237	7
297.0261	5
297.0286	12
297.031	11
297.0334	15
297.0359	18
297.0383	15
297.0407	9
297.0432	13
297.0456	12
297.048	11
297.0504	9
297.0529	4
297.0553	1
297.0577	1
297.0602	1
297.0626	1
297.065	2
297.0675	1
298.0386	1
298.0483	1
298.0508	1
299.2675	1
299.7632	1
300.8342	1
300.9713	1
301.1891	2
301.1916	1
301.1941	3
301.1965	3
301.1989	5
301.2014	5
301.2039	8
301.2063	14
301.2087	15
301.2112	23
301.2137	20
301.2161	19
301.2185	20
301.221	23
301.2234	20
301.2259	22
301.2283	11
301.2308	3
301.2332	4
301.2357	4
301.2381	2
301.2406	2
301.2455	1
301.2479	1
301.7771	1
302.2136	1
302.216	1
302.2209	1
302.2234	1
302.2283	1
315.0255	1
315.028	1
315.0305	2
315.033	1
315.0355	3
315.038	3
315.0405	7
315.043	7
315.0455	7
315.048	6
315.0505	7
315.053	7
315.0555	10
315.058	8
315.0605	3
315.063	2
315.0656	2
315.0681	1
315.0731	1
317.1955	1
317.198	1
317.2005	1
317.203	2
317.2055	1
317.208	1
317.2155	2
317.2181	2
317.2206	1
317.2231	1
317.2256	1
318.2115	1
318.2165	1
318.2216	4
318.2241	1
318.2266	1
318.2291	1
318.2316	1
318.2342	2
318.2367	1
318.2417	1
318.2467	1
318.3625	1
318.5967	1
318.6093	1
318.6899	1
319.1939	1
319.1964	1
319.1989	2
319.2014	5
319.2039	11
319.2065	20
319.209	40
319.2115	52
319.2141	68
319.2166	106
319.2191	150
319.2216	186
319.2241	215
319.2267	258
319.2292	234
319.2317	233
319.2342	220
319.2367	150
319.2393	112
319.2418	58
319.2443	50
319.2468	31
319.2493	18
319.2519	10
319.2544	8
319.2569	2
319.2594	2
319.2619	3
319.2645	1
319.3628	1
319.393	1
319.5418	1
319.6226	1
320.0844	1
320.203	1
320.2081	1
320.2156	1
320.2182	2
320.2207	4
320.2232	6
320.2257	7
320.2282	2
320.2308	5
320.2333	4
320.2358	4
320.2383	6
320.2409	3
320.2434	2
320.2459	4
320.251	1
320.2712	1
321.6336	1
332.7276	1
417.9537	1
417.9566	2
418.961	1
419.2123	1
419.221	2
419.2267	2
419.2296	7
419.2325	8
419.2354	8
419.2383	17
419.2412	24
419.2441	32
419.247	38
419.2499	46
419.2527	52
419.2556	58
419.2585	69
419.2614	56
419.2643	54
419.2672	49
419.2701	39
419.273	36
419.2759	18
419.2788	15
419.2816	8
419.2845	7
419.2874	5
419.2903	4
419.2932	2
419.299	1
419.3019	1
419.3076	1
419.3394	1
420.0939	1
420.2009	1
420.2356	1
420.2414	1
420.2443	1
420.253	1
420.2559	1
420.2646	1
420.2732	2
420.2761	1
420.2819	2
437.2412	1
437.2441	1
437.2471	1
437.25	2
437.253	3
437.256	3
437.2589	2
437.2618	5
437.2648	8
437.2677	7
437.2707	5
437.2737	5
437.2766	5
437.2795	4
437.2825	2
437.2855	2
437.2884	2
437.2914	2
437.2943	1
437.3179	1
438.2656	1
447.3271	1
455.1829	1
455.1859	2
455.1889	1
455.1919	2
455.1949	4
455.1979	5
455.201	8
455.204	5
455.207	11
455.21	9
455.213	14
455.216	14
455.219	16
455.222	16
455.225	13
455.2281	15
455.2311	20
455.2341	14
455.2371	8
455.2401	4
455.2431	5
455.2461	6
455.2491	2
455.2552	1
455.2581	3
455.2642	1
456.21	1
456.213	1
456.2191	1
456.2281	1
456.2311	1
456.2401	1
473.2244	1
486.2597	1
493.0442	1
500.2891	1
501.3216	1
502.643	1
502.7537	1
503.0005	1
503.355	1
510.7483	1
525.2826	1
525.2858	1
525.2988	1
525.3149	1
526.2208	1
526.836	1
532.0468	1
532.2778	1
552.831	1
579.4826	1
579.4996	1
580.7332	1
581.2332	1
581.2535	3
581.2604	2
581.2637	2
581.2672	2
581.2706	4
581.274	4
581.2773	9
581.2808	16
581.2842	14
581.2875	19
581.291	30
581.2944	32
581.2978	42
581.3011	50
581.3046	46
581.308	56
581.3114	57
581.3148	53
581.3182	63
581.3216	48
581.325	52
581.3284	48
581.3318	46
581.3352	33
581.3386	22
581.342	23
581.3454	6
581.3488	6
581.3522	5
581.3556	6
581.3624	2
581.3658	1
581.3692	1
581.3726	2
581.3828	1
581.5189	1
581.7707	1
582.2916	2
582.3018	2
582.3052	1
582.3085	1
582.312	3
582.3188	3
582.3222	2
582.3256	1
582.329	1
582.3324	1
582.363	1
597.4448	1
598.2831	1
598.5558	1
599.2672	1
599.2706	1
599.274	2
599.2775	3
599.2809	2
599.2844	4
599.2878	4
599.2913	3
599.2948	9
599.2982	11
599.3017	16
599.3051	16
599.3086	23
599.3121	17
599.3155	17
599.319	17
599.3224	26
599.3259	27
599.3293	24
599.3328	20
599.3362	19
599.3397	22
599.3431	12
599.3466	13
599.35	9
599.3535	5
599.3569	3
599.3604	3
599.3638	3
599.3673	1
599.3708	2
599.3742	1
599.3777	1
599.3812	1
600.3004	1
600.3073	1
600.3107	1
600.3211	1
600.3488	1
610.5942	1
615.2086	1
615.3031	1
617.2156	1
617.2226	1
617.2261	1
617.2331	3
617.2366	5
617.2401	2
617.2436	5
617.2471	6
617.2506	6
617.2542	10
617.2576	11
617.2612	13
617.2646	19
617.2681	18
617.2717	12
617.2751	22
617.2787	19
617.2822	18
617.2857	15
617.2892	16
617.2927	10
617.2962	10
617.2997	7
617.3032	7
617.3067	8
617.3102	4
617.3137	4
617.3172	3
617.3207	2
617.3278	2
617.3312	1
617.7661	1
618.2676	1
618.2817	1
618.2887	1
635.2617	1
635.2652	1
635.2688	1
635.2723	2
635.2759	2
635.2794	3
635.283	3
635.2866	1
635.2901	1
635.2936	1
635.2972	1
635.3008	4
635.3043	1
635.3079	2
635.3115	1
635.315	1
635.3221	1
637.2013	1
739.4644	1
739.4681	1
739.472	1
739.4758	1
739.4797	1
739.4835	1
739.4874	2
739.4912	1
739.4951	1
739.4988	2
739.5027	3
739.5065	3
739.5104	4
739.5142	1
739.5181	1
739.5219	1
739.5258	2
739.5295	2
739.5334	1
739.5372	1
739.5449	1
741.4993	1
897.374	1
898.3422	1
898.6171	1
898.6298	1
898.6383	1
898.6467	1
898.6509	1
898.6552	2
898.6594	1
898.6636	1
898.6679	4
898.6721	5
898.6763	4
898.6805	5
898.6848	8
898.689	6
898.6932	4
898.6975	4
898.7017	6
898.7059	9
898.7102	6
898.7144	8
898.7186	5
898.7229	6
898.7271	3
898.7313	8
898.7355	5
898.7398	3
898.744	4
898.7482	5
898.7525	2
898.7567	2
898.7609	4
898.7652	7
898.7694	2
898.7778	2
898.7821	1
898.7863	1
898.7905	1
898.8032	1
898.8075	1
898.8117	1
898.8286	1
898.8752	1
899.4971	1
899.658	1
899.6664	1
899.7045	1
899.7087	1
899.7172	1
899.7383	1
899.7552	1
899.8018	1
899.8145	1
900.1362	1
900.1912	1
900.1955	1
900.2082	1
900.2167	1
900.314	1
900.3225	1
900.3267	1
900.386	1
900.4199	1
900.4664	1
900.4749	1
900.4791	1
900.4834	1
900.5088	1
900.5384	1
900.5596	1
900.5807	1
900.5892	1
900.5934	1
900.6019	1
900.6231	1
900.6273	1
900.6316	1
900.6528	1
900.6697	1
900.6866	1
900.7162	1
900.8475	1
900.9026	1
901.1101	1
901.1186	1
901.2753	1
901.3346	1
901.3389	1
901.3643	1
901.3685	4
901.3727	3
901.3812	5
901.3854	1
901.4151	2
901.4532	1
901.4871	3
901.4913	11
901.4956	27
901.4998	35
901.5041	76
901.5083	135
901.5126	171
901.5168	235
901.521	344
901.5253	444
901.5295	550
901.5338	833
901.538	872
901.5422	840
901.5464	713
901.5507	667
901.5549	813
901.5591	977
901.5634	896
901.5676	999
901.5718	908
901.5761	760
901.5803	501
901.5846	281
901.5888	114
901.593	59
901.5973	26
901.6015	10
901.6058	6
901.61	7
901.6143	3
901.6227	2
901.627	2
902.0718	3
902.0761	4
902.0803	3
902.0845	3
902.0888	2
902.1736	1
902.1905	2
902.3177	1
902.3982	1
902.466	2
902.483	1
902.4872	1
902.4915	3
902.4957	4
902.4999	8
902.5042	13
902.5084	18
902.5126	17
902.5168	36
902.5211	29
902.5253	41
902.5296	46
902.5338	65
902.5381	75
902.5423	69
902.5466	83
902.5508	94
902.555	103
902.5593	98
902.5635	95
902.5677	108
902.572	91
902.5762	104
902.5804	80
902.5847	53
902.5889	52
902.5931	44
902.5974	35
902.6016	16
902.6059	16
902.6101	12
902.6144	10
902.6186	8
902.6229	4
902.6271	4
902.6313	4
902.6356	1
902.6398	1
902.644	1
902.6483	2
902.767	1
902.7839	1
902.7966	1
902.9747	1
903.0383	1
903.0425	1
903.0638	1
903.0723	1
903.1061	1
903.1104	1
903.1443	1
903.2122	1
903.2504	1
903.2631	1
903.4581	1
903.4751	1
903.509	1
903.5302	1
903.5641	1
903.5811	1
903.7296	1
903.7593	1
903.8865	1
903.9205	1
903.9332	1
903.9417	1
904.052	1
904.1538	1
904.2386	1
904.2514	1
904.5612	1
904.5739	1
904.9261	1
905.2742	1
905.3931	1
905.6011	1
905.6139	1
905.6733	1
905.72	1
905.8304	1
905.8347	1
905.8942	1
905.8984	1
905.9069	1
906.4166	1
907.2111	1
907.3386	1
907.4958	1
907.5214	1
907.5596	1
907.8997	1
908.4653	1
909.3543	1
909.6351	1
911.4617	1
913.0726	1
913.7378	1
914.2625	1
915.5898	1
