Mass spectrum: PE(18:1/8,9-EET); LC-ESI-QTOF; MS2
Name: PE(18:1/8,9-EET)
Class: Oxidized Phospholipid
Formula: C43H76NO9P
Exact mass: 782.055
SMILES: CCCCCCCC\C=C/CCCCCCCC(=O)OCC(COP(O)(=O)OCCN)OC(=O)CCC\C=C/CC1OC1C\C=C/C\C=C/CCCCC
InChI: InChI=1S/C43H76NO9P/c1-3-5-7-9-11-13-14-15-16-17-18-20-22-24-29-33-42(45)49-37-39(38-51-54(47,48)50-36-35-44)52-43(46)34-30-26-25-28-32-41-40(53-41)31-27-23-21-19-12-10-8-6-4-2/h12,15-16,19,23,25,27-28,39-41H,3-11,13-14,17-18,20-22,24,26,29-38,44H2,1-2H3,(H,47,48)/b16-15-,19-12-,27-23-,28-25-
Instrument: Acquity UPLC Peptide BEH C18 column (50 x 2.1 mm; 1.7 um), Sciex TripleTOF5600
Instrument type: LC-ESI-QTOF
Ms type: MS2
Ion mode: NEGATIVE
Collision energy: 30-50
Precursor m/z: 780.5184935
Precursor type: [M-H]-
m/z	relative intensity
78.96141	22
78.96266	14
78.96391	22
123.0734	14
123.0765	14
123.0781	22
123.0812	29
123.0827	14
123.0843	14
123.0859	14
127.067	22
127.0686	14
127.0702	14
127.0718	14
127.0734	36
127.075	22
127.0766	50
127.0782	36
127.0798	50
127.0814	36
127.0829	22
137.1294	14
139.0727	22
139.0744	14
139.0777	22
140.0044	29
140.0061	14
140.0078	29
140.0094	22
140.0128	58
140.0145	29
140.0161	14
140.0178	36
151.1394	14
151.1429	14
151.1481	29
151.1498	22
151.1515	22
151.155	22
151.1567	14
152.9942	14
152.9959	14
152.9977	14
155.0552	14
155.064	14
155.0658	29
155.0675	29
155.0693	58
155.071	43
155.0728	50
155.0745	36
155.0763	22
155.078	14
163.147	22
163.1488	22
163.1506	14
167.0612	22
167.063	14
167.0667	14
167.0685	36
167.0703	22
167.0721	29
167.074	22
167.0758	22
167.0776	22
177.1671	14
178.0264	14
179.1313	14
179.137	22
179.1407	22
179.1445	50
179.1464	36
179.1483	43
179.1521	22
191.1422	14
192.152	14
196.0244	22
196.0284	14
196.0303	36
196.0323	43
196.0343	29
196.0363	79
196.0382	79
196.0402	50
196.0422	36
196.0442	22
196.0461	36
196.0481	14
196.0521	14
201.2323	14
203.1765	22
203.1785	50
203.1805	22
203.1846	14
203.1866	22
203.1906	14
214.0335	14
214.0521	14
219.1771	14
219.2085	14
221.1913	14
227.1932	14
229.1946	14
243.1905	14
253.2041	14
253.2063	14
253.2108	14
253.2153	36
253.222	14
253.2243	22
257.2118	22
257.214	36
257.2163	36
257.2185	36
257.2208	58
257.2231	65
257.2253	43
257.2276	58
257.2299	101
257.2321	108
257.2344	65
257.2367	43
257.2389	50
257.2412	29
257.2434	29
263.1999	14
275.1932	14
275.2237	22
275.226	14
275.2283	14
275.2307	22
275.233	14
275.2354	43
275.2377	22
275.2401	14
275.2424	14
275.2447	29
275.2471	14
275.2494	14
276.644	15
280.3644	30
280.3762	15
280.3786	23
280.388	15
280.5204	16
281.1801	15
281.2179	15
281.2203	15
281.2227	30
281.225	15
281.2274	102
281.2298	162
281.2321	150
281.2345	196
281.2368	371
281.2392	554
281.2416	647
281.244	642
281.2463	885
281.2487	983
281.251	787
281.2534	820
281.2558	845
281.2581	381
281.2605	335
281.2629	198
281.2653	150
281.2676	80
281.27	95
281.2723	80
281.2747	32
281.2818	16
281.2889	16
281.9353	8
282.2458	14
282.2576	8
283.209	8
301.1997	22
301.2022	14
301.2047	50
301.2071	65
301.2096	94
301.212	94
301.2144	137
301.2169	79
301.2193	86
301.2218	22
301.2242	50
301.2267	50
301.2291	72
301.2316	22
301.234	29
301.2365	14
301.2438	14
301.2487	14
318.2375	30
318.24	15
318.2702	15
319.0132	15
319.1821	15
319.1897	30
319.1947	8
319.1997	30
319.2023	61
319.2048	47
319.2073	54
319.2098	92
319.2123	222
319.2149	323
319.2174	370
319.2199	551
319.2224	558
319.2249	518
319.2275	602
319.23	580
319.2325	463
319.235	503
319.2375	409
319.2401	309
319.2426	232
319.2451	131
319.2477	70
319.2502	78
319.2527	47
319.2552	54
319.2577	31
319.2603	31
319.2628	8
319.2678	8
320.2316	14
320.2417	14
320.2468	14
320.6812	8
320.8252	8
323.7458	8
391.2179	14
417.2396	14
460.2401	14
460.2553	22
460.2614	14
460.2644	14
460.2674	14
460.2704	14
460.2734	14
460.2765	22
460.2795	22
460.2825	22
460.2856	29
460.2886	36
460.2916	50
460.2946	14
460.2977	22
460.3007	29
461.3123	15
477.3905	22
478.2171	15
478.2603	29
478.2665	29
478.2696	109
478.2726	44
478.2757	66
478.2788	95
478.2819	162
478.285	162
478.2881	235
478.2912	214
478.2943	170
478.2973	125
478.3004	177
478.3035	147
478.3066	162
478.3097	140
478.3128	118
478.3159	80
478.3189	59
478.322	59
478.3251	29
478.3282	37
478.3313	14
498.2566	14
498.2598	14
498.2692	14
498.2724	14
498.2755	14
498.2787	14
498.2818	14
516.268	14
516.3001	14
617.4201	14
643.4651	14
688.4639	14
688.5009	14
688.5046	14
688.512	14
777.7457	14
778.0409	14
778.0448	14
778.0566	14
778.0723	14
780.3922	14
780.4435	22
780.4474	30
780.4514	14
780.4553	14
780.4592	8
780.4632	16
780.4672	38
780.4711	86
780.475	80
780.4789	172
780.4829	164
780.4868	220
780.4908	232
780.4948	380
780.4987	357
780.5026	522
780.5065	485
780.5105	770
780.5145	731
780.5184	939
780.5223	908
780.5262	999
780.5302	908
780.5342	806
780.5381	897
780.5421	713
780.546	771
780.5499	633
780.5538	445
780.5578	364
780.5618	321
780.5657	220
780.5696	110
780.5735	162
780.5775	85
780.5814	42
780.5854	49
780.5894	33
780.5933	17
780.5972	8
780.6051	16
780.6091	16
781.4805	16
781.4923	15
781.4963	14
781.52	14
781.5239	29
781.5278	14
781.5357	36
781.5397	29
781.5555	22
781.5712	14
781.5752	14
