Mass spectrum: PE 38:5; LC-ESI-QTOF; MS2
Name: PE 38:5
Class: PE
Formula: C43H76NO8P
Exact mass: 766.0559999999998
SMILES: CCCCCCCC\C=C/CCCCCCCC(=O)OCC(COP(O)(=O)OCCN)OC(=O)CCCCCC\C=C/C\C=C/C\C=C/C\C=C/CC
InChI: InChI=1S/C43H76NO8P/c1-3-5-7-9-11-13-15-17-19-20-22-24-26-28-30-32-34-36-43(46)52-41(40-51-53(47,48)50-38-37-44)39-49-42(45)35-33-31-29-27-25-23-21-18-16-14-12-10-8-6-4-2/h5,7,11,13,17-19,21-22,24,41H,3-4,6,8-10,12,14-16,20,23,25-40,44H2,1-2H3,(H,47,48)/b7-5-,13-11-,19-17-,21-18-,24-22-
Instrument: AB Sciex TripleTOF 5600+ system (Q-TOF) equipped with a DuoSpray ion source
Instrument type: LC-ESI-QTOF
Ms type: MS2
Ion mode: NEGATIVE
Collision energy: 45V
Column name: Acquity UPLC Peptide BEH C18 column (50*2.1 mm; 1.7 um; 130A)(Waters Co.,Milford, MA, USA)
Retention time: 9.507897
Precursor type: [M-H]-
Precursor m/z: 764.5266
m/z	relative intensity
78.957	6
83.047	1
122.001	3
140.011	27
196.037	35
197.065	1
205.125	2
205.195	7
205.207	2
214.044	2
231.205	7
231.219	6
251.202	6
254.443	4
255.197	2
255.232	466
256.237	1
257.222	1
259.242	31
280.363	2
281.248	239
283.259	1
285.217	3
285.256	69
301.218	3
302.289	2
303.231	434
311.228	3
311.246	2
327.226	2
328.212	2
328.232	3
329.247	999
329.292	3
434.255	10
434.271	9
434.292	1
452.275	75
452.293	13
460.26	2
460.277	5
460.299	3
478.271	9
478.292	34
482.263	3
485.46	0
500.28	3
508.271	6
508.292	4
526.283	6
526.306	2
542.086	0
628.549	0
762.123	2
762.186	0
763.536	1
763.667	0
764.519	738
765.492	1
765.533	2
