Mass spectrum: PE 38:6; LC-ESI-QTOF; MS2
Name: PE 38:6
Class: PE
Formula: C43H74NO8P
Exact mass: 764.0399999999998
SMILES: CCCCCCCC\C=C/CCCCCCCC(=O)OCC(COP(O)(=O)OCCN)OC(=O)CCC\C=C/C\C=C/C\C=C/C\C=C/C\C=C/CC
InChI: InChI=1S/C43H74NO8P/c1-3-5-7-9-11-13-15-17-19-20-22-24-26-28-30-32-34-36-43(46)52-41(40-51-53(47,48)50-38-37-44)39-49-42(45)35-33-31-29-27-25-23-21-18-16-14-12-10-8-6-4-2/h5,7,11,13,17-19,21-22,24,28,30,41H,3-4,6,8-10,12,14-16,20,23,25-27,29,31-40,44H2,1-2H3,(H,47,48)/b7-5-,13-11-,19-17-,21-18-,24-22-,30-28-
Instrument: AB Sciex TripleTOF 5600+ system (Q-TOF) equipped with a DuoSpray ion source
Instrument type: LC-ESI-QTOF
Ms type: MS2
Ion mode: NEGATIVE
Collision energy: 45V
Column name: Acquity UPLC Peptide BEH C18 column (50*2.1 mm; 1.7 um; 130A)(Waters Co.,Milford, MA, USA)
Retention time: 9.096052
Precursor type: [M-H]-
Precursor m/z: 762.5054
m/z	relative intensity
78.958	8
121.999	2
140.012	22
152.998	1
163.079	1
168.037	3
168.046	6
177.094	3
177.159	3
196.036	38
203.176	26
214.048	3
215.178	2
223.169	11
229.192	6
231.135	2
255.233	5
256.415	2
257.227	180
279.235	4
280.356	3
280.374	3
281.248	772
283.198	4
283.216	3
299.201	2
300.263	3
300.278	5
301.215	999
303.209	2
303.227	5
303.239	5
327.222	1
460.263	9
460.286	18
460.311	2
478.29	153
480.238	6
480.265	5
498.256	6
498.289	2
565.506	1
675.482	0
687.523	4
687.553	3
688.535	39
688.583	6
703.511	1
760.08	3
762.129	0
762.501	769
762.567	7
763.318	0
