Mass spectrum: PC(18:2/17,18-EpETE); LC-ESI-QTOF; MS2
Name: PC(18:2/17,18-EpETE)
Class: Oxidized Phospholipid
Formula: C46H78NO9P
Exact mass: 820.104
SMILES: CCCCC\C=C/C\C=C/CCCCCCCC(=O)OCC(COP([O-])(=O)OCC[N+](C)(C)C)OC(=O)CCC\C=C/C\C=C/C\C=C/C\C=C/CC1OC1CC
InChI: InChI=1S/C46H78NO9P/c1-6-8-9-10-11-12-13-14-15-18-21-24-27-30-33-36-45(48)52-40-42(41-54-57(50,51)53-39-38-47(3,4)5)55-46(49)37-34-31-28-25-22-19-16-17-20-23-26-29-32-35-44-43(7-2)56-44/h11-12,14-16,19-20,23,25,28-29,32,42-44H,6-10,13,17-18,21-22,24,26-27,30-31,33-41H2,1-5H3/b12-11-,15-14-,19-16-,23-20-,28-25-,32-29-
Instrument: Acquity UPLC Peptide BEH C18 column (50 x 2.1 mm; 1.7 um), Sciex TripleTOF5600
Instrument type: LC-ESI-QTOF
Ms type: MS2
Ion mode: NEGATIVE
Collision energy: 30-50
Precursor m/z: 878.5552726
Precursor type: [M+CH3COOH-H]-
m/z	relative intensity
215.1785	71
255.2082	101
255.2127	71
255.215	71
255.2172	71
255.2217	101
255.2263	71
259.1681	101
259.1703	101
259.1726	71
259.1749	141
279.2123	71
279.2146	141
279.217	172
279.2193	373
279.2217	313
279.2241	343
279.2264	313
279.2288	515
279.2311	585
279.2335	515
279.2358	414
279.2382	373
279.2406	313
279.2429	272
279.2453	101
279.2523	101
279.2547	71
299.1873	71
299.1971	71
299.1995	71
299.2019	101
299.2044	71
299.2093	101
317.1881	71
317.1932	141
317.1957	71
317.1982	172
317.2007	172
317.2032	202
317.2057	141
317.2083	373
317.2108	242
317.2133	343
317.2158	272
317.2183	101
317.2208	101
317.2233	141
317.2258	202
317.2309	141
317.2334	101
486.284	71
504.2887	71
504.2918	71
504.295	71
504.2982	71
504.3045	71
504.3172	141
504.3204	101
504.333	101
804.4576	71
804.4616	71
804.4656	101
804.4696	141
804.4736	172
804.4777	202
804.4816	373
804.4857	656
804.4896	373
804.4937	515
804.4976	585
804.5016	616
804.5057	656
804.5096	616
804.5137	716
804.5176	656
804.5217	888
804.5256	999
804.5297	827
804.5336	686
804.5377	827
804.5417	444
804.5457	484
804.5497	585
804.5536	545
804.5577	242
804.5617	313
804.5657	242
804.5697	343
804.5737	141
804.5777	101
804.5817	71
804.5897	101
878.5062	71
878.5104	71
878.5145	101
878.5271	101
878.5355	101
878.5438	101
878.548	71
878.5522	101
878.5564	141
878.5605	242
878.5689	141
878.5731	101
878.5815	141
878.5856	141
878.5898	172
878.594	71
878.5982	71
878.6024	71
878.6066	71
878.6233	71
878.64	71
878.6777	71
879.552	71
