Mass spectrum: PE 38:5; LC-ESI-QTOF; MS2
Name: PE 38:5
Class: PE
Formula: C43H76NO8P
Exact mass: 766.0559999999998
SMILES: CCCCCCCCCCCCCCCCCC(=O)OCC(COP(O)(=O)OCCN)OC(=O)CCC\C=C/C\C=C/C\C=C/C\C=C/C\C=C/CC
InChI: InChI=1S/C43H76NO8P/c1-3-5-7-9-11-13-15-17-19-20-22-24-26-28-30-32-34-36-43(46)52-41(40-51-53(47,48)50-38-37-44)39-49-42(45)35-33-31-29-27-25-23-21-18-16-14-12-10-8-6-4-2/h5,7,11,13,17,19,22,24,28,30,41H,3-4,6,8-10,12,14-16,18,20-21,23,25-27,29,31-40,44H2,1-2H3,(H,47,48)/b7-5-,13-11-,19-17-,24-22-,30-28-
Instrument: AB Sciex TripleTOF 5600+ system (Q-TOF) equipped with a DuoSpray ion source
Instrument type: LC-ESI-QTOF
Ms type: MS2
Ion mode: NEGATIVE
Collision energy: 45V
Column name: Acquity UPLC Peptide BEH C18 column (50*2.1 mm; 1.7 um; 130A)(Waters Co.,Milford, MA, USA)
Retention time: 9.764768
Precursor type: [M-H]-
Precursor m/z: 764.5204
m/z	relative intensity
78.959	4
96.967	1
105.07	1
107.087	1
117.074	1
122.0	2
140.011	21
149.129	0
151.145	1
152.995	0
161.138	0
163.08	1
163.147	1
177.09	2
177.157	1
177.171	0
178.032	1
181.126	1
187.152	0
189.159	0
193.12	1
195.132	1
196.037	43
203.179	38
214.048	4
215.178	2
217.119	1
223.157	2
223.17	6
229.187	1
229.197	3
231.137	1
237.22	1
245.151	1
255.233	1
256.425	1
257.226	185
265.192	1
265.257	1
271.208	1
280.262	3
281.239	1
282.375	3
283.186	1
283.204	4
283.263	825
285.25	0
299.202	1
300.276	3
300.929	0
301.093	1
301.215	999
302.216	0
303.23	1
329.239	1
406.268	1
419.251	0
424.222	1
462.294	27
478.795	0
480.217	1
480.237	2
480.253	3
480.307	149
488.486	1
498.258	9
504.454	0
512.502	0
567.504	1
591.493	0
690.534	0
762.077	0
762.123	1
762.151	0
762.246	0
763.517	0
764.337	0
764.512	467
765.243	0
765.522	1
