Mass spectrum: PG 40:8; LC-ESI-QTOF; MS2
Name: PG 40:8
Class: PG
Formula: C46H75O10P
Exact mass: 819.072
SMILES: CC\C=C/C\C=C/C\C=C/C\C=C/CCCCCCC(=O)OCC(COP(O)(=O)OCC(O)CO)OC(=O)CCCCCC\C=C/C\C=C/C\C=C/C\C=C/CC
InChI: InChI=1S/C46H75O10P/c1-3-5-7-9-11-13-15-17-19-21-23-25-27-29-31-33-35-37-45(49)53-41-44(42-55-57(51,52)54-40-43(48)39-47)56-46(50)38-36-34-32-30-28-26-24-22-20-18-16-14-12-10-8-6-4-2/h5-8,11-14,17-20,23-26,43-44,47-48H,3-4,9-10,15-16,21-22,27-42H2,1-2H3,(H,51,52)/b7-5-,8-6-,13-11-,14-12-,19-17-,20-18-,25-23-,26-24-
Instrument: AB Sciex TripleTOF 5600+ system (Q-TOF) equipped with a DuoSpray ion source
Instrument type: LC-ESI-QTOF
Ms type: MS2
Ion mode: NEGATIVE
Collision energy: 45V
Column name: Acquity UPLC Peptide BEH C18 column (50*2.1 mm; 1.7 um; 130A)(Waters Co.,Milford, MA, USA)
Retention time: 7.903591
Precursor type: [M-H]-
Precursor m/z: 817.5013
m/z	relative intensity
152.996	24
165.04	65
223.028	45
239.057	60
259.242	96
277.22	15
279.235	86
281.249	20
283.251	60
303.23	945
327.232	80
329.246	10
415.215	15
452.278	20
457.236	10
477.24	10
489.257	10
513.271	20
531.262	20
799.52	15
817.494	999
817.532	201
