Mass spectrum: PC(16:0/17-HDoHE); LC-ESI-QTOF; MS2
Name: PC(16:0/17-HDoHE)
Class: Oxidized Phospholipid
Formula: C46H80NO9P
Exact mass: 822.12
SMILES: CCCCCCCCCCCCCCCC(=O)OCC(COP([O-])(=O)OCC[N+](C)(C)C)OC(=O)CC\C=C/C\C=C/C\C=C/C\C=C/C=C\C(O)C\C=C/CC
InChI: InChI=1S/C46H80NO9P/c1-6-8-10-11-12-13-14-16-20-23-26-29-33-37-45(49)53-41-44(42-55-57(51,52)54-40-39-47(3,4)5)56-46(50)38-34-30-27-24-21-18-15-17-19-22-25-28-32-36-43(48)35-31-9-7-2/h9,17-19,21,25,27-28,30-32,36,43-44,48H,6-8,10-16,20,22-24,26,29,33-35,37-42H2,1-5H3/b19-17-,21-18-,28-25-,30-27-,31-9-,36-32-
Instrument: Acquity UPLC Peptide BEH C18 column (50 x 2.1 mm; 1.7 um), Sciex TripleTOF5600
Instrument type: LC-ESI-QTOF
Ms type: MS2
Ion mode: NEGATIVE
Collision energy: 30-50
Precursor m/z: 880.5709227
Precursor type: [M+CH3COOH-H]-
m/z	relative intensity
78.95915	11
78.9604	11
121.1044	16
121.1059	11
147.1178	11
147.1229	11
168.0418	11
168.0454	49
168.0491	11
168.0509	11
173.1297	11
173.1371	11
189.1592	11
201.1539	21
201.1579	11
201.1599	11
201.1618	38
201.1638	38
201.1659	33
201.1679	26
201.1699	26
201.1719	21
201.1759	26
224.0517	11
224.0538	11
224.0644	11
224.0665	16
224.0686	16
224.0707	16
224.0728	26
224.0749	26
227.1671	11
227.1756	11
227.1798	16
229.1534	11
229.1598	11
245.1432	11
245.1454	26
245.1476	49
245.1498	59
245.152	70
245.1542	38
245.1564	54
245.1586	81
245.1608	26
245.163	26
245.1653	11
245.1697	11
245.1719	16
255.2122	26
255.2144	43
255.2167	33
255.219	43
255.2212	103
255.2235	157
255.2257	195
255.228	211
255.2302	183
255.2325	260
255.2347	232
255.237	216
255.2392	183
255.2415	146
255.2437	65
255.246	59
255.2483	59
255.2505	21
255.2528	43
255.2573	16
255.2595	11
255.2618	11
256.2343	11
273.155	21
273.1597	16
273.1643	11
274.147	16
274.1517	11
274.1563	11
274.1657	16
274.168	11
281.2075	11
281.2098	26
281.2122	16
281.2146	26
281.2169	16
281.2193	49
281.2217	59
281.224	70
281.2264	75
281.2288	103
281.2311	38
281.2335	49
281.2359	81
281.2382	54
281.2406	26
281.243	33
281.2453	11
281.2524	11
281.2548	16
283.2602	11
284.7392	11
299.233	33
299.2355	16
299.2379	21
299.2404	21
299.2428	11
325.1856	11
325.1932	11
325.1983	11
325.2008	11
325.2034	33
325.2059	16
325.2085	43
325.211	43
325.2136	43
325.2161	59
325.2186	38
325.2212	38
325.2237	38
325.2263	38
325.2314	26
325.2339	26
325.2365	11
343.1904	11
343.1983	11
343.2009	21
343.2035	21
343.2061	43
343.2087	43
343.2114	81
343.214	81
343.2166	103
343.2192	119
343.2218	183
343.2244	135
343.227	200
343.2296	200
343.2323	173
343.2349	221
343.2375	141
343.2401	65
343.2427	54
343.2453	65
343.248	70
343.2505	33
343.2532	21
343.2558	21
343.2584	11
344.2289	11
391.2217	16
391.2301	21
462.2863	21
462.2923	11
462.2984	11
462.3015	21
462.3075	16
462.3105	11
463.3031	11
465.9765	11
478.7948	11
480.2748	11
480.281	21
480.2841	26
480.2872	33
480.2903	16
480.2934	33
480.2965	11
480.2996	54
480.3027	75
480.3058	49
480.3088	38
480.312	70
480.315	59
480.3181	65
480.3212	38
480.3243	26
480.3274	59
480.3305	38
480.3336	26
550.2841	11
550.3073	11
568.2856	11
568.3126	11
654.4094	11
735.4186	11
735.4224	21
735.4263	16
735.4339	21
735.4415	38
735.4454	21
735.4492	11
735.453	16
735.4568	11
735.4607	26
735.4645	26
735.4683	16
735.4722	33
735.476	21
735.4798	43
735.4836	16
735.4875	26
735.4913	16
735.4951	11
735.499	11
736.4444	11
736.4482	11
736.4559	16
736.4789	11
736.4942	11
737.4977	11
761.4887	11
773.0259	11
804.0038	11
804.0158	11
805.5568	11
806.4581	21
806.4622	21
806.4662	33
806.4702	26
806.4742	73
806.4782	39
806.4822	65
806.4862	112
806.4902	170
806.4942	213
806.4982	231
806.5023	298
806.5062	358
806.5103	389
806.5142	540
806.5182	608
806.5223	862
806.5262	807
806.5303	803
806.5343	926
806.5383	950
806.5423	799
806.5463	928
806.5503	999
806.5543	927
806.5583	640
806.5623	846
806.5663	581
806.5704	484
806.5743	434
806.5784	302
806.5824	242
806.5864	163
806.5904	138
806.5944	54
806.5984	72
806.6024	36
806.6064	31
806.6104	23
806.6144	6
806.6184	21
806.6265	32
806.6304	11
806.6345	13
807.3961	6
807.5203	21
807.5244	11
807.5283	21
807.5323	11
807.5364	26
807.5403	38
807.5444	21
807.5484	16
807.5564	11
807.5604	21
807.5645	26
807.5684	33
807.5724	21
807.5804	26
807.5885	11
807.6286	11
820.5392	11
820.5432	11
820.5472	11
820.5513	11
820.5554	11
820.5756	21
820.5917	11
821.4771	16
821.4812	11
821.4852	11
821.4933	11
821.4974	21
821.5014	16
821.5216	21
821.5297	11
821.5621	16
833.5359	11
833.5603	11
833.5848	11
833.597	11
880.4794	11
880.4919	11
880.4962	11
880.5045	21
880.5087	11
880.5129	21
880.5296	11
880.5338	21
880.538	21
880.5422	26
880.5464	54
880.5505	43
880.5547	26
880.559	75
880.5631	59
880.5673	49
880.5715	108
880.5757	54
880.5799	108
880.584	113
880.5883	97
880.5924	54
880.5966	65
880.6008	81
880.605	49
880.6092	16
880.6133	38
880.6176	33
880.6218	43
880.6259	11
880.6385	11
880.6678	11
880.6762	11
880.6929	11
