Mass spectrum: PI(16:0e/20-HETE); LC-ESI-QTOF; MS2
Name: PI(16:0e/20-HETE)
Class: Oxidized Phospholipid
Formula: C45H81O13P
Exact mass: 861.106
SMILES: CCCCCCCCCCCCCCCCOCC(COP(O)(=O)OC1C(O)C(O)C(O)C(O)C1O)OC(=O)CCC\C=C/C\C=C/C\C=C/C\C=C/CCCCCO
InChI: InChI=1S/C45H81O13P/c1-2-3-4-5-6-7-8-9-17-20-23-26-29-32-35-55-36-38(37-56-59(53,54)58-45-43(51)41(49)40(48)42(50)44(45)52)57-39(47)33-30-27-24-21-18-15-13-11-10-12-14-16-19-22-25-28-31-34-46/h10,12-13,15-16,19,21,24,38,40-46,48-52H,2-9,11,14,17-18,20,22-23,25-37H2,1H3,(H,53,54)/b12-10-,15-13-,19-16-,24-21-
Instrument: Acquity UPLC Peptide BEH C18 column (50 x 2.1 mm; 1.7 um), Sciex TripleTOF5600
Instrument type: LC-ESI-QTOF
Ms type: MS2
Ion mode: NEGATIVE
Collision energy: 30-50
Precursor m/z: 859.5342032
Precursor type: [M-H]-
m/z	relative intensity
78.95181	27
78.95306	18
78.95431	35
78.95555	44
78.9568	96
78.95804	54
78.95929	86
78.96054	35
78.96178	27
78.96428	9
78.96552	9
81.06692	9
81.06818	9
81.07071	9
96.95909	9
96.96047	18
96.96185	9
96.96323	18
96.96461	9
96.96599	9
96.96737	18
96.96875	27
96.97014	9
96.97152	9
96.9729	27
96.97566	9
119.0872	18
121.0945	9
121.1037	9
121.1052	9
135.1109	27
135.1158	9
135.1174	9
141.0852	9
141.0919	9
141.0936	9
163.0732	9
163.075	9
163.0768	9
163.1449	9
163.1503	9
163.1521	18
163.1556	9
163.1574	9
167.4001	9
167.4055	9
167.4128	9
177.1315	9
177.1539	9
177.1558	9
177.167	9
177.1707	9
177.4901	9
177.492	9
186.444	9
186.4479	9
189.1579	9
189.1695	9
189.1714	9
191.1694	9
191.1752	9
191.1791	9
191.181	9
193.1174	9
193.1544	9
206.0565	9
206.0585	9
210.3549	9
210.3569	18
210.7986	9
210.8006	9
217.1894	9
217.1936	9
219.2655	18
222.7286	9
222.7349	9
222.9883	9
222.9904	9
222.9924	9
222.9966	18
222.9987	35
223.0008	44
223.0029	27
223.005	9
223.0071	9
223.0113	9
223.0134	9
223.1705	9
223.1747	9
223.1768	9
223.181	9
223.6338	9
223.638	9
240.9911	9
240.9933	9
240.9955	9
240.9977	18
240.9999	63
241.002	105
241.0042	165
241.0064	239
241.0086	259
241.0107	208
241.0129	208
241.0151	168
241.0173	102
241.0195	82
241.0216	27
241.0238	60
241.026	18
241.0282	9
241.0347	9
245.1897	18
245.2072	9
245.2116	9
245.2138	9
245.216	9
245.2182	18
245.2204	18
245.2226	35
245.2248	27
245.227	18
245.2292	18
245.2314	27
245.2336	9
245.2358	9
245.238	9
245.2402	9
245.8687	9
245.8797	9
253.2109	18
253.2221	18
257.2103	9
257.2171	18
257.2193	9
257.2238	9
257.2261	9
257.2396	9
259.0062	9
259.0085	27
259.0107	9
259.013	9
259.0197	9
259.022	18
259.0243	9
259.0265	9
259.0287	18
259.031	9
259.0333	18
273.2014	9
273.2037	9
273.2084	9
273.213	18
273.2153	9
273.2177	9
273.22	18
273.2223	18
273.2246	44
273.2269	9
273.2315	18
275.222	9
275.2243	9
275.2267	9
275.229	9
275.2336	35
275.236	61
275.2383	50
275.2406	44
275.2429	18
275.2453	9
275.2476	18
275.2499	9
275.2522	9
275.2545	9
283.1923	18
283.2017	9
283.204	9
283.2583	9
283.2701	9
287.1856	9
287.207	9
288.3181	9
288.3228	9
288.3466	9
289.2023	9
289.2047	9
289.207	27
289.2094	27
289.2118	48
289.2142	80
289.2166	27
289.219	27
289.2213	9
289.2237	9
289.2261	18
289.2285	9
291.226	9
291.2332	9
291.2404	9
301.1974	18
301.1998	9
301.2022	9
301.2047	54
301.2071	52
301.2095	81
301.212	120
301.2144	91
301.2168	127
301.2193	66
301.2217	55
301.2242	44
301.2266	57
301.229	47
301.2314	9
301.2339	18
315.3685	9
315.371	9
317.1968	9
317.2068	9
317.2093	9
317.2118	9
317.2568	9
317.5791	9
317.5941	9
318.2118	18
318.2168	9
318.2293	9
318.2468	9
318.2493	9
319.2008	9
319.2033	43
319.2058	43
319.2083	43
319.2108	75
319.2133	106
319.2159	290
319.2184	381
319.2209	627
319.2234	686
319.2259	999
319.2284	681
319.2309	602
319.2334	473
319.2359	312
319.2384	183
319.2409	124
319.2434	52
319.2459	43
319.2484	35
319.2509	35
319.256	9
319.2635	9
319.266	9
319.8351	9
319.8577	9
320.1989	9
320.2215	9
320.2441	9
321.8122	9
321.8373	9
322.3584	9
322.4037	9
323.6868	9
323.7045	9
323.7449	9
324.6338	9
324.6439	9
325.4303	9
325.448	9
326.4127	9
326.4178	9
328.7812	9
328.8117	9
377.2177	18
377.2205	27
377.2232	35
377.2259	49
377.2286	66
377.2314	102
377.2341	173
377.2368	245
377.2395	261
377.2422	382
377.245	375
377.2477	293
377.2504	295
377.2531	142
377.2559	141
377.2586	129
377.2613	85
377.264	18
377.2668	43
377.2695	18
377.2749	9
395.2459	27
395.2487	18
395.2515	9
395.2543	9
395.2571	18
395.2599	18
395.2627	9
395.2654	9
395.2682	9
395.3017	9
395.3101	9
429.0075	9
429.0133	9
467.646	9
467.6491	9
472.3072	9
472.3163	9
477.0894	9
477.1048	9
483.5259	18
483.5444	9
507.3531	9
507.3563	9
519.3074	9
519.3202	9
539.2669	18
539.2734	18
539.2767	49
539.28	27
539.2832	58
539.2864	66
539.2897	78
539.293	59
539.2962	56
539.2995	60
539.3027	83
539.306	65
539.3093	53
539.3125	44
539.3157	18
539.319	9
539.3223	9
539.3288	9
539.332	9
539.3549	9
539.8337	18
557.2562	9
557.2695	18
557.2728	18
557.2794	9
557.2827	9
557.2894	35
557.2927	9
557.296	35
557.2993	51
557.3026	44
557.3059	74
557.3092	50
557.3125	35
557.3159	35
557.3192	44
557.3224	9
557.329	27
557.3357	9
557.3423	27
576.1465	9
576.1499	9
697.4591	18
697.4739	9
697.4813	9
697.4924	27
697.5184	9
856.8021	9
856.8103	27
856.8267	9
856.8391	9
859.337	9
859.4193	9
859.4562	9
859.4645	17
859.4727	9
859.4768	9
859.4809	9
859.485	43
859.4891	17
859.4932	71
859.4974	69
859.5015	89
859.5056	113
859.5097	259
859.5138	256
859.5179	482
859.522	654
859.5261	877
859.5303	970
859.5344	886
859.5385	920
859.5426	774
859.5467	641
859.5508	630
859.5549	377
859.559	182
859.5632	144
859.5673	57
859.5714	96
859.5755	34
859.5796	34
859.5837	17
859.5878	9
859.5961	26
859.6002	17
859.6331	9
860.5339	9
860.5873	9
862.4645	9
862.4934	9
865.4905	9
865.5029	9
865.5153	9
