Mass spectrum: PS 38:1; LC-ESI-QTOF; MS2
Name: PS 38:1
Class: PS
Formula: C44H84NO10P
Exact mass: 818.1289999999999
SMILES: CCCCCCCCCCCCCCCCCC(=O)OCC(COP(O)(=O)OCC(N)C(O)=O)OC(=O)CCCCCCCCC\C=C/CCCCCCCC
InChI: InChI=1S/C44H84NO10P/c1-3-5-7-9-11-13-15-17-19-20-22-24-26-28-30-32-34-36-43(47)55-40(38-53-56(50,51)54-39-41(45)44(48)49)37-52-42(46)35-33-31-29-27-25-23-21-18-16-14-12-10-8-6-4-2/h17,19,40-41H,3-16,18,20-39,45H2,1-2H3,(H,48,49)(H,50,51)/b19-17-
Instrument: AB Sciex TripleTOF 5600+ system (Q-TOF) equipped with a DuoSpray ion source
Instrument type: LC-ESI-QTOF
Ms type: MS2
Ion mode: NEGATIVE
Collision energy: 45V
Column name: Acquity UPLC Peptide BEH C18 column (50*2.1 mm; 1.7 um; 130A)(Waters Co.,Milford, MA, USA)
Retention time: 9.942993
Precursor type: [M-H]-
Precursor m/z: 816.5691
m/z	relative intensity
89.024	146
111.007	23
113.018	15
152.994	154
179.053	15
258.648	15
281.245	162
283.262	911
303.231	104
308.302	39
309.28	391
311.293	463
311.312	48
339.321	58
417.228	50
419.251	414
419.265	195
437.249	72
437.269	219
445.275	104
447.272	154
447.308	80
463.276	26
465.299	88
475.321	39
564.536	79
576.542	26
638.58	15
726.549	47
726.594	80
729.502	188
729.529	878
729.546	616
729.57	334
729.598	73
742.582	98
748.535	160
756.609	51
758.594	35
816.498	31
816.545	417
816.572	999
816.601	368
816.656	73
