Mass spectrum: PE(16:1/12-HEPE); LC-ESI-QTOF; MS2
Name: PE(16:1/12-HEPE)
Class: Oxidized Phospholipid
Formula: C41H70NO9P
Exact mass: 751.985
SMILES: CCCCCC\C=C/CCCCCCCC(=O)OCC(COP(O)(=O)OCCN)OC(=O)CCC\C=C/C\C=C/C=C/C(O)C\C=C/C\C=C/CC
InChI: InChI=1S/C41H70NO9P/c1-3-5-7-9-11-12-13-14-15-16-20-24-28-32-40(44)48-36-39(37-50-52(46,47)49-35-34-42)51-41(45)33-29-25-21-18-17-19-23-27-31-38(43)30-26-22-10-8-6-4-2/h6,8,12-13,18-19,21-23,26-27,31,38-39,43H,3-5,7,9-11,14-17,20,24-25,28-30,32-37,42H2,1-2H3,(H,46,47)/b8-6-,13-12-,21-18-,23-19-,26-22-,31-27+
Instrument: Acquity UPLC Peptide BEH C18 column (50 x 2.1 mm; 1.7 um), Sciex TripleTOF5600
Instrument type: LC-ESI-QTOF
Ms type: MS2
Ion mode: NEGATIVE
Collision energy: 30-50
Precursor m/z: 750.4715433
Precursor type: [M-H]-
m/z	relative intensity
78.95907	68
135.1162	68
135.1178	68
140.0128	108
140.0145	68
140.0162	68
179.0992	68
179.101	108
179.1048	176
179.1067	135
179.1086	108
179.1105	176
179.1124	108
179.1142	68
196.0322	68
196.0362	68
208.1052	108
208.1093	68
208.1134	176
214.2481	68
253.1993	176
253.2038	243
253.2061	418
253.2083	418
253.2106	648
253.2128	648
253.215	688
253.2173	580
253.2195	688
253.2218	580
253.224	418
253.2263	243
253.2285	378
253.2308	135
253.233	68
253.2352	135
255.2082	108
255.2105	68
255.2127	68
255.2172	108
255.233	68
299.1898	68
299.1972	108
299.1996	108
299.202	68
299.2045	108
299.2142	108
317.1933	176
317.1958	243
317.1983	176
317.2008	176
317.2034	338
317.2059	310
317.2084	513
317.2109	648
317.2134	446
317.2159	486
317.2184	338
317.2209	135
317.2234	486
317.226	270
317.2285	202
317.236	108
317.2385	68
432.243	68
450.2385	68
450.2445	68
450.2475	68
450.2535	68
450.2565	108
450.2595	176
450.2654	202
450.2714	176
450.2744	68
450.2804	135
600.8671	68
748.145	68
750.4082	108
750.416	135
750.4236	108
750.4276	68
750.4314	108
750.4352	108
750.4391	270
750.443	135
750.4468	513
750.4507	270
750.4546	338
750.4584	729
750.4623	580
750.4662	796
750.47	513
750.4739	580
750.4778	999
750.4816	796
750.4855	864
750.4894	756
750.4932	824
750.4971	824
750.501	648
750.5048	418
750.5087	418
750.5126	338
750.5164	135
750.5203	202
750.528	135
750.5358	68
750.5396	68
750.5435	68
751.4599	68
