Mass spectrum: PC 33:1; LC-ESI-QTOF; MS2
Name: PC 33:1
Class: PC
Formula: C41H80NO8P
Exact mass: 746.0659999999999
SMILES: CCCCCCCCCCCCCCCC(=O)OCC(COP([O-])(=O)OCC[N+](C)(C)C)OC(=O)CCCCCCC\C=C/CCCCCCC
InChI: InChI=1S/C41H80NO8P/c1-6-8-10-12-14-16-18-20-22-24-26-28-30-32-34-41(44)50-39(38-49-51(45,46)48-36-35-42(3,4)5)37-47-40(43)33-31-29-27-25-23-21-19-17-15-13-11-9-7-2/h18,20,39H,6-17,19,21-38H2,1-5H3/b20-18-
Instrument: AB Sciex TripleTOF 5600+ system (Q-TOF) equipped with a DuoSpray ion source
Instrument type: LC-ESI-QTOF
Ms type: MS2
Ion mode: NEGATIVE
Collision energy: 45V
Column name: Acquity UPLC Peptide BEH C18 column (50*2.1 mm; 1.7 um; 130A)(Waters Co.,Milford, MA, USA)
Retention time: 9.471271
Precursor type: [M+CH3COOH-H]-
Precursor m/z: 804.578
m/z	relative intensity
78.959	6
168.044	15
224.068	24
241.217	236
253.218	37
254.434	5
255.231	323
257.23	17
267.231	501
267.261	7
269.246	23
279.233	17
281.246	486
283.266	24
284.263	14
301.216	46
303.237	6
329.254	6
420.295	3
435.256	3
438.293	17
448.284	3
458.26	10
461.28	5
462.294	13
466.29	23
480.276	6
480.309	26
488.317	3
492.313	17
506.308	15
506.324	8
659.469	8
722.471	10
722.508	39
722.54	15
730.512	171
730.542	999
730.59	32
731.57	9
744.492	31
744.535	57
804.489	13
804.539	37
804.567	70
804.599	55
