Mass spectrum: Cer[NS] d38:1; LC-ESI-QTOF; MS2
Name: Cer[NS] d38:1
Class: Cer_NS
Formula: C38H75NO3
Exact mass: 594.0219999999998
SMILES: CCCCCCCCCCCCCCCCCCCC(=O)NC(CO)C(O)\C=C\CCCCCCCCCCCCC
InChI: InChI=1S/C38H75NO3/c1-3-5-7-9-11-13-15-17-18-19-20-22-24-26-28-30-32-34-38(42)39-36(35-40)37(41)33-31-29-27-25-23-21-16-14-12-10-8-6-4-2/h31,33,36-37,40-41H,3-30,32,34-35H2,1-2H3,(H,39,42)/b33-31+
Instrument: AB Sciex TripleTOF 5600+ system (Q-TOF) equipped with a DuoSpray ion source
Instrument type: LC-ESI-QTOF
Ms type: MS2
Ion mode: NEGATIVE
Collision energy: 45V
Column name: Acquity UPLC Peptide BEH C18 column (50*2.1 mm; 1.7 um; 130A)(Waters Co.,Milford, MA, USA)
Retention time: 12.27958
Precursor type: [M+CH3COOH-H]-
Precursor m/z: 652.5828
m/z	relative intensity
209.186	8
235.202	10
237.218	59
239.231	4
240.959	9
250.251	6
263.235	49
266.244	15
268.262	8
280.954	13
281.25	7
293.283	76
300.987	9
309.32	8
310.306	69
310.326	7
311.293	39
321.314	17
321.334	6
324.987	5
336.324	353
336.357	7
338.338	12
339.326	13
350.328	6
352.293	6
352.321	37
362.952	7
364.346	18
364.358	42
380.354	10
404.977	5
444.967	9
488.973	3
533.535	5
544.543	51
544.567	8
544.584	4
560.534	42
560.562	10
562.549	87
562.573	32
590.686	8
592.56	999
593.565	4
