Mass spectrum: PE 38:6; LC-ESI-QTOF; MS2
Name: PE 38:6
Class: PE
Formula: C43H74NO8P
Exact mass: 764.0399999999998
SMILES: CCCCCCCCCCCCCCCC(=O)OCC(COP(O)(=O)OCCN)OC(=O)CC\C=C/C\C=C/C\C=C/C\C=C/C\C=C/C\C=C/CC
InChI: InChI=1S/C43H74NO8P/c1-3-5-7-9-11-13-15-17-18-19-20-21-22-24-26-28-30-32-34-36-43(46)52-41(40-51-53(47,48)50-38-37-44)39-49-42(45)35-33-31-29-27-25-23-16-14-12-10-8-6-4-2/h5,7,11,13,17-18,20-21,24,26,30,32,41H,3-4,6,8-10,12,14-16,19,22-23,25,27-29,31,33-40,44H2,1-2H3,(H,47,48)/b7-5-,13-11-,18-17-,21-20-,26-24-,32-30-
Instrument: AB Sciex TripleTOF 5600+ system (Q-TOF) equipped with a DuoSpray ion source
Instrument type: LC-ESI-QTOF
Ms type: MS2
Ion mode: NEGATIVE
Collision energy: 45V
Column name: Acquity UPLC Peptide BEH C18 column (50*2.1 mm; 1.7 um; 130A)(Waters Co.,Milford, MA, USA)
Retention time: 9.323308
Precursor type: [M-H]-
Precursor m/z: 762.5019
m/z	relative intensity
78.958	14
93.071	1
95.085	1
96.97	1
105.069	2
107.087	3
109.103	1
117.069	2
119.084	1
121.103	7
122.0	3
123.117	1
127.079	1
131.084	1
133.102	3
135.118	3
137.135	1
140.012	42
143.082	1
147.121	2
149.134	3
151.152	1
152.995	1
153.089	1
161.13	2
163.073	1
163.083	1
163.142	1
163.152	2
167.104	1
175.149	3
177.092	2
177.163	14
178.027	2
181.126	1
187.157	1
189.167	3
191.1	1
191.181	13
195.159	0
196.038	60
201.163	1
203.171	1
203.182	1
205.128	1
209.156	1
214.047	5
215.174	1
217.124	1
217.198	1
227.178	1
229.196	57
231.139	1
241.194	3
243.139	1
249.185	14
254.434	3
255.155	1
255.233	999
257.155	1
271.175	1
281.227	2
281.248	1
282.362	2
283.177	0
283.243	443
285.186	0
291.216	0
297.22	2
299.199	0
303.239	0
309.222	5
315.234	0
325.209	1
326.203	3
326.227	1
327.232	906
327.278	0
328.227	1
378.239	2
391.225	1
432.894	0
434.268	44
434.307	0
450.239	0
450.879	0
452.276	225
474.101	0
479.298	0
480.275	0
504.665	0
506.225	0
506.263	17
524.257	3
524.279	8
541.875	0
553.618	0
563.494	0
575.695	0
581.593	0
688.546	1
744.544	0
760.098	2
760.186	0
760.498	0
761.492	0
762.268	0
762.338	1
762.501	508
763.489	1
763.512	1
763.665	0
