Mass spectrum: PS 38:3; LC-ESI-QTOF; MS2
Name: PS 38:3
Class: PS
Formula: C44H80NO10P
Exact mass: 814.0969999999999
SMILES: CCCCCCCCCCCCCCCCCC(=O)OCC(COP(O)(=O)OCC(N)C(O)=O)OC(=O)CCCCCCCCC\C=C/C\C=C/C\C=C/CC
InChI: InChI=1S/C44H80NO10P/c1-3-5-7-9-11-13-15-17-19-20-22-24-26-28-30-32-34-36-43(47)55-40(38-53-56(50,51)54-39-41(45)44(48)49)37-52-42(46)35-33-31-29-27-25-23-21-18-16-14-12-10-8-6-4-2/h5,7,11,13,17,19,40-41H,3-4,6,8-10,12,14-16,18,20-39,45H2,1-2H3,(H,48,49)(H,50,51)/b7-5-,13-11-,19-17-
Instrument: AB Sciex TripleTOF 5600+ system (Q-TOF) equipped with a DuoSpray ion source
Instrument type: LC-ESI-QTOF
Ms type: MS2
Ion mode: NEGATIVE
Collision energy: 45V
Column name: Acquity UPLC Peptide BEH C18 column (50*2.1 mm; 1.7 um; 130A)(Waters Co.,Milford, MA, USA)
Retention time: 8.944738
Precursor type: [M-H]-
Precursor m/z: 812.5401
m/z	relative intensity
78.961	25
96.971	6
152.996	143
181.117	3
238.41	2
261.26	4
267.919	3
282.378	7
283.262	999
284.266	21
285.268	12
303.235	13
304.223	7
304.298	7
305.244	331
307.261	7
347.254	5
419.249	482
420.25	24
421.254	4
437.265	236
438.26	7
439.275	7
441.234	90
441.262	10
459.249	22
688.551	3
723.2	7
724.502	8
725.357	5
725.499	967
725.592	10
780.53	4
794.54	3
809.979	5
812.469	32
812.498	171
812.535	804
813.522	2
