Mass spectrum: PC(20:2/12-HETE); LC-ESI-QTOF; MS2
Name: PC(20:2/12-HETE)
Class: Oxidized Phospholipid
Formula: C48H84NO9P
Exact mass: 850.174
SMILES: CCCCC\C=C/C\C=C/CCCCCCCCCC(=O)OCC(COP([O-])(=O)OCC[N+](C)(C)C)OC(=O)CCC\C=C/C\C=C/C=C/C(O)C\C=C/CCCCC
InChI: InChI=1S/C48H84NO9P/c1-6-8-10-12-14-15-16-17-18-19-20-21-22-23-27-31-35-39-47(51)55-43-46(44-57-59(53,54)56-42-41-49(3,4)5)58-48(52)40-36-32-28-25-24-26-30-34-38-45(50)37-33-29-13-11-9-7-2/h14-15,17-18,25-26,28-30,33-34,38,45-46,50H,6-13,16,19-24,27,31-32,35-37,39-44H2,1-5H3/b15-14-,18-17-,28-25-,30-26-,33-29-,38-34+
Instrument: Acquity UPLC Peptide BEH C18 column (50 x 2.1 mm; 1.7 um), Sciex TripleTOF5600
Instrument type: LC-ESI-QTOF
Ms type: MS2
Ion mode: NEGATIVE
Collision energy: 30-50
Precursor m/z: 908.6022228
Precursor type: [M+CH3COOH-H]-
m/z	relative intensity
126.9945	72
126.9977	72
126.9993	72
127.0008	72
179.1031	287
179.105	144
179.1069	72
179.1087	72
179.1125	72
179.1144	72
224.0624	72
224.0645	72
224.0708	72
257.2266	72
257.2289	72
301.2003	72
301.2173	72
301.2222	72
301.2246	72
301.2271	72
301.2319	72
307.2352	72
307.2499	72
307.2524	144
307.2549	72
307.2573	215
307.2598	144
307.2622	287
307.2647	215
307.2671	144
307.2769	72
307.2868	72
319.2113	72
319.2138	72
319.2188	215
319.2213	550
319.2238	215
319.2263	287
319.2289	425
319.2314	215
319.2339	144
319.2364	215
319.2389	72
319.2414	72
319.2489	72
319.2514	72
464.7392	72
464.7634	72
522.4413	72
522.4478	72
532.3359	72
532.3391	72
532.3618	72
544.2913	72
544.3011	72
554.2443	72
554.2806	72
749.3305	72
749.3574	72
761.4111	72
761.4769	72
763.4752	72
763.4791	144
763.5024	72
763.514	72
766.5204	72
766.5399	72
779.4781	72
779.4938	72
779.4977	72
816.5484	144
816.5564	72
830.5469	72
830.551	72
834.4885	72
834.5209	144
834.525	72
834.529	72
834.5331	389
834.5371	72
834.5411	598
834.5452	580
834.5493	873
834.5533	688
834.5574	999
834.5614	724
834.5655	951
834.5695	855
834.5735	616
834.5776	461
834.5817	526
834.5858	461
834.5898	72
834.5938	401
834.5979	473
834.6019	215
834.61	215
834.6141	72
834.6182	72
834.6222	72
834.6262	72
834.6749	72
834.7478	72
848.5249	72
848.5903	72
848.6189	72
849.4935	72
849.5016	72
849.5139	72
849.518	72
849.5221	72
849.5425	72
908.528	72
908.5407	72
908.5703	72
908.5745	72
908.583	72
908.5957	215
908.5999	407
908.6041	144
908.6084	215
908.6126	72
908.6168	72
908.621	72
908.6253	215
908.6295	215
908.6337	144
908.6506	72
