Mass spectrum: PE(18:1e/17-HDoHE); LC-ESI-QTOF; MS2
Name: PE(18:1e/17-HDoHE)
Class: Oxidized Phospholipid
Formula: C45H78NO8P
Exact mass: 792.094
SMILES: CCCCCCCCCCCCCCCC\C=C/OCC(COP(O)(=O)OCCN)OC(=O)CC\C=C/C\C=C/C\C=C/C\C=C/C=C\C(O)C\C=C/CC
InChI: InChI=1S/C45H78NO8P/c1-3-5-7-8-9-10-11-12-13-14-18-21-24-27-30-34-39-51-41-44(42-53-55(49,50)52-40-38-46)54-45(48)37-33-29-26-23-20-17-15-16-19-22-25-28-32-36-43(47)35-31-6-4-2/h6,16-17,19-20,25-26,28-29,31-32,34,36,39,43-44,47H,3-5,7-15,18,21-24,27,30,33,35,37-38,40-42,46H2,1-2H3,(H,49,50)/b19-16-,20-17-,28-25-,29-26-,31-6-,36-32-,39-34-
Instrument: Acquity UPLC Peptide BEH C18 column (50 x 2.1 mm; 1.7 um), Sciex TripleTOF5600
Instrument type: LC-ESI-QTOF
Ms type: MS2
Ion mode: NEGATIVE
Collision energy: 30-50
Precursor m/z: 790.539229
Precursor type: [M-H]-
m/z	relative intensity
78.95697	22
78.95948	34
78.96073	22
78.96198	22
111.0869	22
121.1001	34
133.1002	22
133.1035	22
135.1181	22
140.0081	22
140.0131	22
140.0148	22
147.1199	34
147.1216	22
163.0788	22
173.1301	34
173.1339	34
173.1376	34
173.1394	22
173.145	22
189.1577	22
189.1616	22
189.1635	22
196.0245	34
196.0264	22
196.0324	46
196.0383	57
196.0403	34
196.0442	22
201.1523	46
201.1543	46
201.1563	57
201.1583	91
201.1603	22
201.1623	113
201.1643	57
201.1663	91
201.1683	124
201.1703	102
201.1723	79
201.1743	46
201.1763	22
201.1783	34
212.3688	22
227.1718	22
227.1739	34
227.1824	34
227.1846	22
227.1973	34
227.2079	22
229.1539	46
229.156	46
229.171	22
245.1392	22
245.1414	34
245.1437	79
245.1459	22
245.1481	102
245.1503	57
245.1525	113
245.1547	68
245.1569	46
245.1591	113
245.1613	79
245.1635	34
245.1658	22
245.168	22
245.1702	34
247.1603	22
253.2015	22
253.2128	34
253.215	22
253.2173	22
253.2195	34
253.2262	34
255.224	22
257.6733	22
267.2599	22
267.2737	34
267.2829	22
267.2875	22
273.1439	22
273.1462	22
273.1509	22
273.1532	22
273.1555	22
274.1475	34
274.1499	22
274.1522	22
274.1545	22
274.1569	46
274.1615	34
281.2104	68
281.2127	91
281.2151	68
281.2174	79
281.2198	68
281.2222	113
281.2245	238
281.2269	159
281.2293	79
281.2317	91
281.234	91
281.2364	68
281.2387	46
281.2411	57
281.2435	34
281.2458	22
281.2482	57
281.2506	22
281.2529	34
281.2577	22
281.26	22
281.2624	34
282.2477	34
282.25	57
282.2571	22
283.2513	22
283.2536	22
283.2607	22
283.2655	22
297.2307	22
297.2355	22
297.2404	34
297.2598	34
298.2313	34
298.2361	22
298.2386	22
298.2434	22
298.2483	34
298.2532	34
299.236	34
299.2385	22
299.2409	34
299.2433	34
299.2458	34
299.2531	22
325.1861	22
325.1963	22
325.1988	46
325.2014	34
325.2039	57
325.2065	46
325.209	68
325.2115	124
325.2141	91
325.2166	102
325.2192	79
325.2217	46
325.2243	79
325.2268	34
325.2294	46
325.2319	22
325.237	22
325.2395	22
325.2446	23
327.2248	23
342.1567	23
342.188	23
343.1988	23
343.204	47
343.2067	92
343.2093	151
343.2119	129
343.2145	303
343.2171	232
343.2197	281
343.2224	397
343.2249	364
343.2276	302
343.2302	372
343.2328	290
343.2354	206
343.238	221
343.2407	255
343.2433	151
343.2459	59
343.2485	70
343.2511	34
343.2537	58
343.2563	22
343.2589	22
344.1954	12
344.2399	22
375.214	22
375.2167	46
375.2195	22
375.2222	22
375.2249	34
375.2331	22
375.2359	46
375.2386	22
375.2468	22
403.258	34
403.2637	34
403.2807	22
446.2855	68
446.2885	22
446.2914	34
446.2944	68
446.2974	91
446.3004	91
446.3034	57
446.3063	57
446.3093	57
446.3123	57
446.3153	79
446.3183	34
446.3302	57
447.2876	22
464.194	23
464.273	22
464.2791	46
464.2821	22
464.2882	92
464.2913	80
464.2943	80
464.2973	91
464.3004	334
464.3034	206
464.3065	161
464.3095	322
464.3126	183
464.3156	289
464.3186	380
464.3217	172
464.3247	172
464.3278	218
464.3308	127
464.3338	80
464.3369	46
464.3399	69
464.343	46
464.3521	22
703.4308	22
703.4719	34
703.4832	34
716.5214	34
716.5252	22
716.529	34
716.5328	34
716.5592	22
716.5668	22
790.4633	22
790.4672	46
790.4712	34
790.4752	24
790.4791	72
790.4831	60
790.4871	48
790.491	61
790.495	124
790.499	310
790.5029	309
790.5069	423
790.5109	512
790.5148	688
790.5188	587
790.5228	841
790.5267	791
790.5306	656
790.5347	848
790.5386	990
790.5426	999
790.5466	937
790.5505	897
790.5545	917
790.5584	884
790.5624	784
790.5664	542
790.5704	506
790.5743	517
790.5783	302
790.5823	239
790.5862	214
790.5902	175
790.5942	100
790.5981	125
790.6021	101
790.6061	63
790.61	23
790.614	23
790.6179	12
790.6339	12
791.4791	13
791.5069	37
791.5228	34
791.5347	34
791.5386	68
791.5426	34
791.5466	34
791.5505	22
791.5545	34
791.5585	22
791.5624	22
791.5664	22
791.5704	34
791.5784	22
791.5863	22
