Mass spectrum: PI(18:0/8,9-EET); LC-ESI-QTOF; MS2
Name: PI(18:0/8,9-EET)
Class: Oxidized Phospholipid
Formula: C47H83O14P
Exact mass: 903.143
SMILES: CCCCCCCCCCCCCCCCCC(=O)OCC(COP(O)(=O)OC1C(O)C(O)C(O)C(O)C1O)OC(=O)CCC\C=C/CC1OC1C\C=C/C\C=C/CCCCC
InChI: InChI=1S/C47H83O14P/c1-3-5-7-9-11-13-14-15-16-17-18-20-22-24-29-33-40(48)57-35-37(36-58-62(55,56)61-47-45(53)43(51)42(50)44(52)46(47)54)59-41(49)34-30-26-25-28-32-39-38(60-39)31-27-23-21-19-12-10-8-6-4-2/h12,19,23,25,27-28,37-39,42-47,50-54H,3-11,13-18,20-22,24,26,29-36H2,1-2H3,(H,55,56)/b19-12-,27-23-,28-25-
Instrument: Acquity UPLC Peptide BEH C18 column (50 x 2.1 mm; 1.7 um), Sciex TripleTOF5600
Instrument type: LC-ESI-QTOF
Ms type: MS2
Ion mode: NEGATIVE
Collision energy: 30-50
Precursor m/z: 901.5447679
Precursor type: [M-H]-
m/z	relative intensity
78.95819	5
78.95944	3
78.96069	6
78.96195	2
78.96446	7
96.96886	2
96.97025	3
123.077	3
123.0802	5
123.0817	2
123.0833	2
127.0692	2
127.0724	2
127.074	2
127.0756	3
127.0771	6
127.0787	3
127.0819	2
127.0867	2
139.0666	2
139.0783	5
139.0849	2
151.1434	2
151.1451	3
151.1486	2
151.1538	3
152.986	3
152.9877	2
152.9895	8
152.9912	10
152.993	7
152.9947	15
152.9964	14
152.9982	6
152.9999	5
153.0017	5
153.0034	2
153.0069	3
153.0174	2
155.0663	2
155.0681	5
155.0698	2
155.0716	8
155.0733	3
155.0751	2
155.0768	5
161.044	3
163.1403	2
163.1421	3
163.1512	2
163.153	2
167.0654	5
167.0672	5
167.069	3
167.0709	5
167.0745	3
167.0763	2
167.08	2
167.0818	2
171.0131	2
179.1356	2
179.1375	3
179.1394	2
179.1413	3
179.145	2
179.1488	5
179.1507	2
179.1564	2
203.173	2
203.179	2
203.183	3
203.1851	2
221.1792	2
222.9896	6
222.9917	7
222.9938	8
222.9959	23
222.998	14
223.0001	17
223.0022	19
223.0043	20
223.0064	9
223.0085	9
223.0106	6
223.0127	7
223.0148	10
223.017	3
223.0233	2
229.1993	2
229.2015	2
240.9868	2
240.989	2
240.9934	7
240.9955	10
240.9977	14
240.9999	25
241.0021	42
241.0043	61
241.0065	65
241.0087	76
241.0109	82
241.0131	78
241.0153	68
241.0175	82
241.0197	61
241.0218	29
241.024	27
241.0262	17
241.0284	8
241.0306	8
241.0328	7
241.035	5
241.0372	2
256.4411	2
257.2167	3
257.219	2
257.2213	2
257.2235	3
257.2258	9
257.228	7
257.2325	7
257.2348	2
257.2371	2
257.2393	3
257.2461	3
259.0098	3
259.0121	3
259.0143	9
259.0166	7
259.0189	9
259.0211	7
259.0234	2
259.0257	9
259.028	5
259.0302	6
259.0348	2
259.0439	2
275.2311	2
275.2334	2
275.2381	2
275.2404	6
275.2428	3
275.2451	3
281.2301	2
281.2325	2
281.2349	7
281.2372	2
281.2396	8
281.242	19
281.2444	14
281.2467	15
281.2491	20
281.2514	18
281.2538	11
281.2562	15
281.2585	9
281.2609	12
281.2633	6
281.2656	2
281.268	6
281.2727	2
281.2751	2
282.3765	2
282.386	2
283.2307	2
283.2355	3
283.2379	5
283.2403	6
283.2426	14
283.245	16
283.2474	36
283.2497	34
283.2521	34
283.2545	51
283.2569	82
283.2592	92
283.2616	82
283.264	94
283.2664	88
283.2687	88
283.2711	79
283.2735	56
283.2759	49
283.2782	37
283.2806	24
283.283	15
283.2854	10
283.2878	7
283.2901	5
283.2925	2
283.2949	2
284.2646	2
284.267	3
284.2789	2
284.2956	2
297.0175	2
297.0224	3
297.0248	8
297.0273	10
297.0297	7
297.0321	12
297.0346	15
297.037	10
297.0394	16
297.0419	12
297.0443	9
297.0468	12
297.0492	10
297.0516	6
297.054	2
297.0565	3
301.1952	2
301.1977	3
301.2001	2
301.2025	2
301.205	6
301.2075	7
301.2099	6
301.2123	8
301.2148	8
301.2173	8
301.2197	7
301.2221	6
301.2246	15
301.2271	5
301.2319	5
301.2368	2
302.5362	2
315.0316	3
315.0341	2
315.0367	2
315.0392	3
315.0417	2
315.0467	7
315.0492	3
315.0542	3
315.0567	6
315.0617	5
315.0692	2
319.2001	3
319.2026	7
319.2051	3
319.2076	7
319.2101	7
319.2126	14
319.2152	33
319.2177	32
319.2202	34
319.2227	28
319.2253	42
319.2278	46
319.2303	48
319.2328	41
319.2354	36
319.2379	31
319.2404	16
319.2429	22
319.2454	17
319.248	12
319.2505	6
319.253	3
319.2555	6
320.2244	2
327.208	3
327.2182	6
327.2233	3
327.2259	3
327.2285	14
327.231	6
327.2336	6
327.2361	10
327.2386	8
327.2412	9
327.2438	8
327.2463	5
327.2489	7
419.2134	2
419.2191	3
419.222	5
419.2249	5
419.2278	2
419.2307	6
419.2336	10
419.2365	18
419.2394	22
419.2423	26
419.2452	35
419.248	33
419.2509	41
419.2538	42
419.2567	44
419.2596	67
419.2625	66
419.2654	33
419.2683	41
419.2712	29
419.274	14
419.2769	23
419.2798	12
419.2827	10
419.2856	8
419.2885	3
419.2914	3
420.2656	2
435.674	2
437.2422	2
437.2481	3
437.2511	2
437.254	2
437.257	3
437.2599	6
437.2629	9
437.2658	9
437.2688	2
437.2717	2
437.2747	5
437.2776	7
437.2806	3
437.2835	3
437.2865	2
455.1899	2
455.193	2
455.199	8
455.205	3
455.208	3
455.211	7
455.214	10
455.217	10
455.2201	3
455.2231	9
455.2261	2
455.2291	5
455.2321	9
455.2351	6
455.2381	7
455.2411	7
455.2441	2
455.2472	2
491.2704	2
509.2803	2
525.6879	2
537.1434	2
545.541	2
572.1364	2
581.268	5
581.2714	3
581.2748	8
581.2782	6
581.2816	16
581.285	24
581.2884	18
581.2918	22
581.2952	37
581.2986	40
581.302	40
581.3054	57
581.3088	52
581.3123	40
581.3156	56
581.319	52
581.3224	49
581.3259	48
581.3292	42
581.3326	33
581.3361	27
581.3395	15
581.3428	11
581.3463	10
581.3497	11
581.3531	5
581.3564	6
581.3599	6
581.3633	2
581.3667	2
582.306	2
582.3162	2
599.2714	2
599.2749	2
599.2853	2
599.2887	5
599.2922	3
599.2956	6
599.2991	2
599.3025	8
599.306	14
599.3094	22
599.3129	18
599.3163	15
599.3198	14
599.3232	15
599.3267	22
599.3301	11
599.3336	17
599.337	16
599.3405	11
599.344	12
599.3474	3
599.3509	5
599.3543	7
599.3578	3
599.3716	2
611.0832	2
617.2304	5
617.2409	2
617.2479	3
617.2514	3
617.2549	3
617.2584	8
617.262	2
617.2654	15
617.2689	9
617.2725	11
617.2759	5
617.2795	11
617.283	11
617.2865	10
617.29	9
617.2935	7
617.297	7
617.3005	7
617.304	5
617.3075	5
617.311	3
617.332	2
618.2579	2
635.2625	3
635.266	2
635.2695	3
635.2838	3
635.2909	3
635.2944	2
635.3016	2
635.3051	3
635.3122	3
635.4153	2
739.4611	2
739.4688	2
739.4764	2
739.4995	2
739.5071	2
739.5148	3
739.5302	2
819.4406	2
819.4528	5
819.4608	2
819.4649	6
819.473	6
819.477	2
819.481	11
819.485	11
819.4891	12
819.4932	18
819.4972	16
819.5012	20
819.5052	25
819.5093	32
819.5134	23
819.5174	28
819.5214	25
819.5255	31
819.5295	39
819.5336	28
819.5376	23
819.5416	14
819.5457	29
819.5497	19
819.5537	20
819.5578	11
819.5618	14
819.5659	3
819.5699	3
819.5739	9
819.5779	3
819.582	2
819.5861	2
819.5901	2
820.5154	2
820.5275	2
820.5316	2
841.5111	2
898.6597	5
898.6639	2
898.6808	5
898.6893	6
898.6935	7
898.6978	5
898.702	3
898.7062	3
898.7104	2
898.7147	5
898.7189	2
898.7231	5
898.7274	5
898.7316	7
898.7358	5
898.7401	5
898.7443	5
898.7485	5
898.7527	3
898.757	3
898.7612	2
898.7654	2
898.7697	2
898.7823	3
898.8458	2
901.1782	2
901.2247	2
901.3773	2
901.3857	2
901.4323	2
901.4408	3
901.4493	6
901.4578	6
901.4747	14
901.4789	41
901.4832	43
901.4874	39
901.4916	73
901.4958	143
901.5001	182
901.5043	216
901.5085	243
901.5128	344
901.517	381
901.5213	459
901.5255	594
901.5298	620
901.534	757
901.5382	853
901.5425	909
901.5467	999
901.551	945
901.5552	978
901.5594	997
901.5637	943
901.5679	974
901.5721	933
901.5764	756
901.5806	722
901.5848	564
901.5891	458
901.5933	391
901.5975	268
901.6018	189
901.606	140
901.6102	116
901.6145	73
901.6187	67
901.623	54
901.6272	32
901.6314	33
901.6357	16
901.6399	15
901.6484	5
901.6526	9
901.6569	6
901.6611	5
901.6738	2
901.8009	2
901.8644	2
901.9789	2
902.0594	3
902.1017	2
902.1187	3
902.1315	2
902.284	2
902.3942	3
902.4917	3
902.4959	2
902.5002	5
902.5044	3
902.5087	7
902.5129	14
902.5172	7
902.5214	11
902.5256	10
902.5298	17
902.5341	24
902.5383	27
902.5425	16
902.5468	25
902.551	34
902.5553	45
902.5595	34
902.5638	41
902.568	28
902.5723	22
902.5765	28
902.5807	22
902.585	24
902.5892	18
902.5934	20
902.5977	11
902.6019	14
902.6061	7
902.6104	7
902.6146	3
902.6189	6
902.6273	5
902.6358	2
902.958	2
903.1446	2
903.522	2
904.1456	2
904.2347	2
905.4358	2
907.0244	2
