Mass spectrum: PS 37:4; LC-ESI-QTOF; MS2
Name: PS 37:4
Class: PS
Formula: C43H76NO10P
Exact mass: 798.0539999999999
SMILES: CCCCCCCCCCCCCCCCC(=O)OCC(COP(O)(=O)OCC(N)C(O)=O)OC(=O)CCCCCC\C=C/C\C=C/C\C=C/C\C=C/CC
InChI: InChI=1S/C43H76NO10P/c1-3-5-7-9-11-13-15-17-19-20-21-23-25-27-29-31-33-35-42(46)54-39(37-52-55(49,50)53-38-40(44)43(47)48)36-51-41(45)34-32-30-28-26-24-22-18-16-14-12-10-8-6-4-2/h5,7,11,13,17,19,21,23,39-40H,3-4,6,8-10,12,14-16,18,20,22,24-38,44H2,1-2H3,(H,47,48)(H,49,50)/b7-5-,13-11-,19-17-,23-21-
Instrument: AB Sciex TripleTOF 5600+ system (Q-TOF) equipped with a DuoSpray ion source
Instrument type: LC-ESI-QTOF
Ms type: MS2
Ion mode: NEGATIVE
Collision energy: 45V
Column name: Acquity UPLC Peptide BEH C18 column (50*2.1 mm; 1.7 um; 130A)(Waters Co.,Milford, MA, USA)
Retention time: 8.534056
Precursor type: [M-H]-
Precursor m/z: 796.5157
m/z	relative intensity
152.988	30
152.997	176
181.092	12
255.228	12
259.243	36
268.411	18
269.245	999
269.258	301
281.253	25
282.257	12
283.267	64
301.221	24
303.228	473
329.249	42
403.258	24
405.237	504
405.25	167
423.234	72
423.252	177
423.273	36
439.22	72
439.239	48
480.305	18
695.471	12
709.458	153
709.48	782
709.505	179
709.525	42
722.494	30
722.545	96
764.488	30
778.546	12
796.424	19
796.47	67
796.478	105
796.501	426
796.528	221
796.539	184
796.55	79
796.589	37
796.614	19
