Mass spectrum: PS 36:1; LC-ESI-QTOF; MS2
Name: PS 36:1
Class: PS
Formula: C42H80NO10P
Exact mass: 790.0749999999999
SMILES: CCCCCCCCCCCCCCCCCC(=O)OCC(COP(O)(=O)OCC(N)C(O)=O)OC(=O)CCCCCCC\C=C/CCCCCCCC
InChI: InChI=1S/C42H80NO10P/c1-3-5-7-9-11-13-15-17-19-21-23-25-27-29-31-33-40(44)50-35-38(36-51-54(48,49)52-37-39(43)42(46)47)53-41(45)34-32-30-28-26-24-22-20-18-16-14-12-10-8-6-4-2/h18,20,38-39H,3-17,19,21-37,43H2,1-2H3,(H,46,47)(H,48,49)/b20-18-
Instrument: AB Sciex TripleTOF 5600+ system (Q-TOF) equipped with a DuoSpray ion source
Instrument type: LC-ESI-QTOF
Ms type: MS2
Ion mode: NEGATIVE
Collision energy: 45V
Column name: Acquity UPLC Peptide BEH C18 column (50*2.1 mm; 1.7 um; 130A)(Waters Co.,Milford, MA, USA)
Retention time: 9.185796
Precursor type: [M-H]-
Precursor m/z: 788.5428
m/z	relative intensity
78.958	48
96.969	9
134.984	5
136.964	0
150.979	1
152.522	1
152.995	185
165.989	1
168.041	11
169.046	1
170.997	2
171.008	4
231.214	1
255.23	2
280.37	3
281.248	409
282.249	2
282.379	3
283.264	999
284.267	5
285.253	3
303.231	2
305.249	2
309.279	3
310.29	1
329.251	16
417.24	106
417.941	3
418.247	1
419.204	1
419.255	585
420.263	4
435.224	2
435.245	14
435.261	9
437.266	244
438.267	2
445.272	1
476.268	1
476.292	1
496.1	0
504.245	0
504.292	0
522.271	0
524.297	1
563.724	2
699.243	1
699.309	2
699.347	1
701.435	2
701.513	892
702.155	0
702.512	3
712.31	1
713.542	4
713.568	4
714.542	46
714.565	94
729.527	1
730.524	1
730.56	1
786.047	3
788.541	534
789.547	3
