Mass spectrum: SM d40:2; LC-ESI-QTOF; MS2
Name: SM d40:2
Class: SM
Formula: C45H89N2O6P
Exact mass: 785.191
SMILES: CCCCCCCCCCCCCCCCCCCCCC(=O)NC(COP([O-])(=O)OCC[N+](C)(C)C)C(O)\C=C\CC\C=C\CCCCCCCCC
InChI: InChI=1S/C45H89N2O6P/c1-6-8-10-12-14-16-18-20-21-22-23-24-25-27-29-31-33-35-37-39-45(49)46-43(42-53-54(50,51)52-41-40-47(3,4)5)44(48)38-36-34-32-30-28-26-19-17-15-13-11-9-7-2/h28,30,36,38,43-44,48H,6-27,29,31-35,37,39-42H2,1-5H3,(H-,46,49,50,51)/b30-28+,38-36+
Instrument: AB Sciex TripleTOF 5600+ system (Q-TOF) equipped with a DuoSpray ion source
Instrument type: LC-ESI-QTOF
Ms type: MS2
Ion mode: NEGATIVE
Collision energy: 45V
Column name: Acquity UPLC Peptide BEH C18 column (50*2.1 mm; 1.7 um; 130A)(Waters Co.,Milford, MA, USA)
Retention time: 11.02102
Precursor type: [M+CH3COOH-H]-
Precursor m/z: 843.6553
m/z	relative intensity
168.041	44
281.252	3
416.814	3
447.279	3
451.631	3
698.538	5
724.569	3
769.615	999
769.658	43
769.714	4
784.584	10
843.656	30
