Mass spectrum: PE(16:1/18-HETE); LC-ESI-QTOF; MS2
Name: PE(16:1/18-HETE)
Class: Oxidized Phospholipid
Formula: C41H72NO9P
Exact mass: 754.001
SMILES: CCCCCC\C=C/CCCCCCCC(=O)OCC(COP(O)(=O)OCCN)OC(=O)CCC\C=C/C\C=C/C\C=C/C\C=C/CCC(O)CC
InChI: InChI=1S/C41H72NO9P/c1-3-5-6-7-8-9-10-13-17-20-23-26-29-32-40(44)48-36-39(37-50-52(46,47)49-35-34-42)51-41(45)33-30-27-24-21-18-15-12-11-14-16-19-22-25-28-31-38(43)4-2/h9-10,12,14-16,21-22,24-25,38-39,43H,3-8,11,13,17-20,23,26-37,42H2,1-2H3,(H,46,47)/b10-9-,15-12-,16-14-,24-21-,25-22-
Instrument: Acquity UPLC Peptide BEH C18 column (50 x 2.1 mm; 1.7 um), Sciex TripleTOF5600
Instrument type: LC-ESI-QTOF
Ms type: MS2
Ion mode: NEGATIVE
Collision energy: 30-50
Precursor m/z: 752.4871934
Precursor type: [M-H]-
m/z	relative intensity
196.0367	108
196.0387	108
196.0406	108
253.2022	154
253.2044	108
253.2067	415
253.2089	215
253.2111	261
253.2134	369
253.2156	369
253.2179	676
253.2201	676
253.2224	215
253.2246	369
253.2269	154
253.2291	215
253.2314	215
253.2336	154
253.2403	108
261.1714	108
261.1783	154
261.1828	154
261.1851	215
261.1874	415
261.1897	261
301.2049	108
301.2073	154
301.2122	154
301.2147	108
301.2171	154
301.2196	108
301.222	154
301.2245	154
301.2269	108
319.21	307
319.2126	476
319.2151	307
319.2176	261
319.2201	415
319.2226	369
319.2251	676
319.2277	738
319.2302	676
319.2327	999
319.2352	630
319.2378	215
319.2403	261
319.2428	215
319.2453	108
319.2503	369
450.2632	108
450.2722	154
450.2752	108
450.3051	108
588.8477	108
612.8072	108
712.7638	108
752.4243	154
752.4281	108
752.4398	154
752.4436	154
752.4475	154
752.4514	261
752.4552	215
752.4591	154
752.463	630
752.4669	569
752.4707	523
752.4745	369
752.4785	369
752.4823	369
752.4862	369
752.4901	569
752.4939	569
752.4978	415
752.5016	415
752.5056	738
752.5094	630
752.5133	261
752.5172	154
752.521	307
752.5249	108
752.5403	154
753.4619	108
