Mass spectrum: Cer[NS] d36:2; LC-ESI-QTOF; MS2
Name: Cer[NS] d36:2
Class: Cer_NS
Formula: C36H69NO3
Exact mass: 563.9519999999999
SMILES: CCCCCCCCCCCCCCCCCC(=O)NC(CO)C(O)\C=C\CC\C=C\CCCCCCCCC
InChI: InChI=1S/C36H69NO3/c1-3-5-7-9-11-13-15-17-18-20-22-24-26-28-30-32-36(40)37-34(33-38)35(39)31-29-27-25-23-21-19-16-14-12-10-8-6-4-2/h21,23,29,31,34-35,38-39H,3-20,22,24-28,30,32-33H2,1-2H3,(H,37,40)/b23-21+,31-29+
Instrument: AB Sciex TripleTOF 5600+ system (Q-TOF) equipped with a DuoSpray ion source
Instrument type: LC-ESI-QTOF
Ms type: MS2
Ion mode: NEGATIVE
Collision energy: 45V
Column name: Acquity UPLC Peptide BEH C18 column (50*2.1 mm; 1.7 um; 130A)(Waters Co.,Milford, MA, USA)
Retention time: 9.906059
Precursor type: [M+CH3COOH-H]-
Precursor m/z: 622.5433
m/z	relative intensity
233.191	3
235.204	108
237.218	4
248.235	7
253.216	3
261.22	73
261.23	28
263.24	4
264.218	5
264.236	13
264.41	2
265.252	163
266.239	9
279.223	2
281.283	19
282.279	119
282.307	2
283.252	18
283.268	64
296.248	2
296.267	4
296.298	4
306.269	3
306.295	3
306.42	1
308.293	596
322.273	5
323.293	2
324.29	73
326.309	5
487.481	4
514.46	6
514.495	87
530.488	101
530.51	18
531.865	1
532.504	144
534.526	2
544.48	2
544.515	7
560.737	4
562.519	999
563.527	2
