Mass spectrum: PI(18:0/17,18-EpETE); LC-ESI-QTOF; MS2
Name: PI(18:0/17,18-EpETE)
Class: Oxidized Phospholipid
Formula: C47H81O14P
Exact mass: 901.127
SMILES: CCCCCCCCCCCCCCCCCC(=O)OCC(COP(O)(=O)OC1C(O)C(O)C(O)C(O)C1O)OC(=O)CCC\C=C/C\C=C/C\C=C/C\C=C/CC1OC1CC
InChI: InChI=1S/C47H81O14P/c1-3-5-6-7-8-9-10-11-12-15-18-21-24-27-30-33-40(48)57-35-37(36-58-62(55,56)61-47-45(53)43(51)42(50)44(52)46(47)54)59-41(49)34-31-28-25-22-19-16-13-14-17-20-23-26-29-32-39-38(4-2)60-39/h13,16-17,20,22,25-26,29,37-39,42-47,50-54H,3-12,14-15,18-19,21,23-24,27-28,30-36H2,1-2H3,(H,55,56)/b16-13-,20-17-,25-22-,29-26-
Instrument: Acquity UPLC Peptide BEH C18 column (50 x 2.1 mm; 1.7 um), Sciex TripleTOF5600
Instrument type: LC-ESI-QTOF
Ms type: MS2
Ion mode: NEGATIVE
Collision energy: 30-50
Precursor m/z: 899.5291178
Precursor type: [M-H]-
m/z	relative intensity
71.05208	2
78.95671	4
78.95796	2
78.95922	7
78.96172	2
78.96298	4
78.96423	2
78.96549	2
78.96674	4
78.96799	2
96.96722	2
96.97556	6
109.1103	2
135.118	2
149.1324	2
152.9857	2
152.9874	2
152.9892	6
152.9909	12
152.9926	13
152.9944	11
152.9961	10
152.9979	15
152.9996	12
153.0014	15
153.0031	7
153.0066	2
189.1694	2
201.1544	2
201.1644	2
215.1704	2
215.1725	7
215.1745	2
215.1766	6
215.1787	8
215.1808	6
215.1828	12
215.1849	7
215.187	9
215.189	3
215.1911	3
215.2035	2
222.987	2
222.9892	4
222.9913	8
222.9934	11
222.9955	16
222.9976	17
222.9997	16
223.0018	21
223.0039	17
223.006	16
223.0081	16
223.0102	8
223.0145	2
229.1776	2
239.7482	2
240.2619	3
240.2728	2
240.2903	2
240.9119	2
240.9842	2
240.9886	4
240.9908	1
240.9929	4
240.9951	4
240.9973	25
240.9995	22
241.0017	34
241.0039	57
241.0061	49
241.0083	88
241.0105	80
241.0126	102
241.0148	89
241.017	68
241.0192	68
241.0214	51
241.0236	34
241.0258	18
241.028	13
241.0302	13
241.0324	10
241.0346	1
241.0367	1
241.0411	1
241.0674	1
241.8655	1
241.9467	1
243.1399	1
245.1461	2
245.1528	2
245.1881	2
255.1972	3
255.1995	8
255.2017	7
255.204	9
255.2062	9
255.2085	12
255.2107	7
255.213	9
255.2152	9
255.2175	9
255.2198	6
255.222	6
255.2243	4
255.2288	2
255.231	2
255.2333	2
259.0116	4
259.0139	6
259.0162	9
259.0184	9
259.0207	9
259.023	7
259.0252	8
259.0275	8
259.0298	11
259.0321	3
259.0343	2
259.0366	2
259.0457	2
259.157	2
259.1592	3
259.1615	4
259.1638	6
259.166	8
259.1683	12
259.1706	7
259.1729	7
259.1751	7
259.1774	4
259.1797	4
259.1819	3
259.1888	2
261.1756	2
261.1802	3
261.1916	2
269.0532	2
273.2095	3
273.2166	9
273.2212	8
273.2235	9
273.2259	11
273.2305	2
273.2375	3
276.5853	2
282.3737	2
282.3879	3
282.3998	2
282.6156	2
283.0024	2
283.2255	2
283.235	2
283.2374	2
283.2398	4
283.2422	11
283.2445	16
283.2469	13
283.2493	19
283.2516	37
283.254	53
283.2564	76
283.2588	81
283.2611	121
283.2635	106
283.2659	121
283.2683	98
283.2707	96
283.273	62
283.2754	52
283.2778	34
283.2802	30
283.2825	19
283.2849	8
283.2873	4
283.2896	4
283.292	4
283.3015	1
283.3561	1
283.368	1
283.3823	1
284.1024	1
284.2665	2
284.2689	2
284.2784	2
284.2808	2
297.0195	2
297.0219	2
297.0244	2
297.0268	6
297.0292	12
297.0317	11
297.0341	7
297.0365	8
297.039	12
297.0414	15
297.0438	11
297.0463	4
297.0487	8
297.0511	3
297.056	2
299.1779	2
299.1804	2
299.1828	3
299.1852	3
299.1877	2
299.1901	6
299.1925	7
299.195	8
299.1974	4
299.1999	7
299.2023	11
299.2047	11
299.2072	3
299.2096	4
299.2121	8
299.2145	9
299.2169	4
299.2194	2
299.2218	2
299.2243	2
299.2267	2
315.0262	2
315.0362	7
315.0387	2
315.0412	6
315.0462	8
315.0487	4
315.0512	9
315.0537	10
315.0562	3
315.0587	7
315.0612	3
315.0887	2
316.2244	5
316.2269	2
316.2319	2
317.1835	3
317.1886	2
317.1911	4
317.1936	7
317.1961	7
317.1986	19
317.2011	30
317.2036	34
317.2061	27
317.2087	38
317.2112	50
317.2137	52
317.2162	51
317.2187	28
317.2213	22
317.2238	20
317.2263	9
317.2288	8
317.2313	9
317.2338	5
317.2363	4
317.2413	1
317.2489	2
317.269	1
322.0975	1
347.2052	1
378.9438	2
385.0853	2
390.2107	2
418.7998	2
419.2244	2
419.2272	8
419.2301	8
419.233	10
419.2359	19
419.2388	12
419.2417	24
419.2446	36
419.2475	38
419.2504	36
419.2532	48
419.2561	63
419.259	42
419.2619	46
419.2648	47
419.2677	42
419.2706	33
419.2735	21
419.2764	15
419.2792	14
419.2821	12
419.285	11
419.2879	1
419.2908	6
419.2937	4
419.2995	1
420.2621	2
423.2148	1
437.2505	2
437.2534	4
437.2593	2
437.2623	2
437.2652	3
437.2682	4
437.2711	4
437.277	4
437.2829	4
437.2918	3
453.1716	2
453.1837	3
453.1897	3
453.1927	7
453.1957	10
453.1987	7
453.2017	6
453.2047	11
453.2077	9
453.2107	3
453.2137	7
453.2167	9
453.2197	3
453.2257	6
490.282	2
512.4209	2
513.968	2
515.2739	2
522.0057	2
525.2797	2
525.2861	2
537.5647	2
579.4556	2
579.4929	2
579.4963	2
581.0564	2
581.2639	2
581.2673	3
581.2707	11
581.2741	4
581.2775	21
581.2809	15
581.2843	18
581.2877	37
581.2911	30
581.2945	35
581.2979	44
581.3013	48
581.3047	38
581.3081	64
581.3115	48
581.3149	63
581.3183	50
581.3217	45
581.3251	50
581.3285	38
581.3319	37
581.3353	26
581.3387	27
581.3421	12
581.3455	12
581.3489	11
581.3524	12
581.3557	5
581.3591	5
581.3625	2
581.3693	2
581.3762	1
582.3121	4
582.3155	3
582.3597	2
599.2707	2
599.2845	2
599.288	4
599.2949	8
599.2983	6
599.3018	10
599.3087	8
599.3121	13
599.3156	15
599.319	16
599.3225	17
599.326	22
599.3294	18
599.3329	12
599.3363	7
599.3398	10
599.3432	7
599.3467	9
599.3502	7
599.3536	6
599.3605	4
599.364	2
615.2227	2
615.2261	3
615.2297	4
615.2332	10
615.2366	9
615.2402	3
615.2437	9
615.2471	7
615.2507	11
615.2542	10
615.2577	3
615.2612	6
615.2646	10
615.2682	11
615.2717	15
615.2751	6
615.2787	10
615.2822	8
615.2856	4
615.2927	6
615.2961	3
615.3066	2
633.2469	3
633.2717	4
633.2859	2
633.3073	2
737.4473	2
737.4818	3
737.5009	2
826.5598	2
896.655	4
896.6592	2
896.6676	2
896.6719	4
896.6803	6
896.6845	2
896.6888	3
896.693	3
896.6972	3
896.7014	4
896.7057	3
896.7099	9
896.7141	7
896.7183	6
896.7225	4
896.7268	3
896.731	2
896.7352	2
896.7394	2
896.7437	2
896.7479	2
896.7521	2
896.7563	2
896.7606	2
896.7817	2
898.4896	2
899.3314	6
899.416	2
899.4203	2
899.4541	2
899.4711	12
899.4753	32
899.4795	87
899.4837	80
899.488	147
899.4922	157
899.4965	243
899.5007	300
899.5049	384
899.5091	495
899.5134	600
899.5176	756
899.5218	840
899.5261	775
899.5303	843
899.5345	964
899.5388	912
899.543	999
899.5472	934
899.5515	855
899.5557	792
899.5599	732
899.5641	512
899.5684	409
899.5726	318
899.5768	199
899.5811	155
899.5853	116
899.5895	67
899.5938	49
899.598	39
899.6022	20
899.6064	12
899.6107	17
899.6149	9
899.6361	3
900.0001	3
900.2032	2
900.2541	2
900.4446	4
900.4531	2
900.4615	3
900.4658	2
900.4742	4
900.4827	8
900.4869	7
900.4911	5
900.4954	4
900.4996	9
900.5038	7
900.5081	14
900.5123	14
900.5165	22
900.5208	8
900.525	16
900.5292	24
900.5335	39
900.5377	36
900.542	29
900.5462	24
900.5504	23
900.5547	24
900.5589	24
900.5631	10
900.5674	30
900.5716	18
900.5759	18
900.5801	10
900.5843	6
900.5886	11
900.5928	3
900.597	6
900.614	2
900.6182	3
900.6224	3
900.7368	2
900.7706	2
901.6559	2
901.6813	2
