Mass spectrum: PI(18:1/18-HETE); LC-ESI-QTOF; MS2
Name: PI(18:1/18-HETE)
Class: Oxidized Phospholipid
Formula: C47H81O14P
Exact mass: 901.127
SMILES: CCCCCCCC\C=C/CCCCCCCC(=O)OCC(COP(O)(=O)OC1C(O)C(O)C(O)C(O)C1O)OC(=O)CCC\C=C/C\C=C/C\C=C/C\C=C/CCC(O)CC
InChI: InChI=1S/C47H81O14P/c1-3-5-6-7-8-9-10-11-12-16-19-22-25-28-31-34-40(49)58-36-39(37-59-62(56,57)61-47-45(54)43(52)42(51)44(53)46(47)55)60-41(50)35-32-29-26-23-20-17-14-13-15-18-21-24-27-30-33-38(48)4-2/h11-12,14-15,17-18,23-24,26-27,38-39,42-48,51-55H,3-10,13,16,19-22,25,28-37H2,1-2H3,(H,56,57)/b12-11-,17-14-,18-15-,26-23-,27-24-
Instrument: Acquity UPLC Peptide BEH C18 column (50 x 2.1 mm; 1.7 um), Sciex TripleTOF5600
Instrument type: LC-ESI-QTOF
Ms type: MS2
Ion mode: NEGATIVE
Collision energy: 30-50
Precursor m/z: 899.5291178
Precursor type: [M-H]-
m/z	relative intensity
78.72335	1
78.95512	2
78.95637	3
78.95763	2
78.95888	6
78.96013	4
78.96139	6
78.96264	5
78.9639	4
78.96515	4
78.9664	2
78.96766	1
78.96891	2
78.97016	3
78.97142	1
83.05149	1
96.96407	1
96.96546	1
96.96685	1
96.96824	1
96.96963	2
96.97102	1
96.97241	2
96.9738	1
96.97519	1
96.97658	1
107.0855	1
107.0869	1
121.098	1
121.1026	1
134.9815	1
135.1143	1
135.116	1
137.1309	1
151.1444	1
152.5196	1
152.98	1
152.9835	1
152.9852	3
152.987	3
152.9887	5
152.9904	7
152.9922	7
152.9939	10
152.9957	10
152.9974	10
152.9992	8
153.0009	4
153.0027	4
153.0044	3
153.0062	1
153.0079	1
153.0114	1
163.0693	1
163.0783	1
163.1432	1
163.1504	1
163.1522	1
163.154	1
163.1576	1
166.0449	1
171.0049	1
171.0086	1
171.9306	1
175.4357	1
177.0898	1
177.0916	1
177.0973	1
187.3877	1
187.8284	1
189.1553	1
189.1592	1
189.167	1
189.1689	1
189.1728	1
189.7127	1
191.1028	1
191.1086	1
191.1106	1
191.1789	1
191.1828	1
203.1842	1
203.8686	1
205.1236	1
217.1573	1
217.1593	1
217.1635	1
217.1697	1
217.178	1
217.1801	1
217.1822	1
217.1843	2
217.1864	4
217.1884	5
217.1905	7
217.1926	5
217.1947	6
217.1968	9
217.1988	8
217.2009	5
217.203	4
217.2051	2
217.2072	1
217.2092	1
217.2113	1
217.2155	1
218.196	1
218.2023	1
222.976	1
222.9781	1
222.9823	1
222.9844	1
222.9865	3
222.9886	2
222.9908	6
222.9929	9
222.995	12
222.9971	12
222.9992	15
223.0013	13
223.0034	12
223.0055	11
223.0076	7
223.0097	6
223.0118	4
223.0139	3
223.016	2
223.0181	1
223.0202	1
223.0224	1
223.1741	1
227.7311	1
240.2504	1
240.2548	1
240.257	1
240.2592	1
240.2614	1
240.2679	1
240.2701	1
240.2745	1
240.2789	1
240.2854	1
240.4692	1
240.8829	1
240.9815	1
240.9836	1
240.9858	1
240.988	2
240.9902	3
240.9924	6
240.9946	10
240.9968	19
240.999	25
241.0012	35
241.0034	53
241.0056	73
241.0077	80
241.0099	94
241.0121	95
241.0143	98
241.0165	87
241.0187	63
241.0209	39
241.0231	28
241.0253	17
241.0275	9
241.0296	11
241.0318	6
241.034	5
241.0362	4
241.0384	1
241.0406	1
241.0428	1
241.0494	1
241.0537	1
241.2005	0
241.3649	1
241.7004	1
242.012	1
242.0142	1
242.0208	1
242.023	1
242.4205	1
243.0162	1
243.1658	1
243.1702	1
243.1724	1
243.1834	1
245.1434	1
257.2112	1
257.2135	1
257.2157	2
257.218	3
257.2202	1
257.2225	2
257.2248	3
257.2271	3
257.2293	4
257.2316	2
257.2338	3
257.2361	4
257.2384	1
257.2406	2
257.2429	1
257.2451	1
258.9997	1
259.0043	1
259.0065	2
259.0088	2
259.0111	4
259.0133	5
259.0156	7
259.0179	6
259.0202	8
259.0224	10
259.0247	11
259.027	8
259.0292	4
259.0315	6
259.0338	3
259.036	2
259.0383	1
259.0406	2
259.0429	1
259.0451	1
259.0474	1
259.1678	1
260.3708	1
260.373	1
260.3776	1
261.0725	1
261.1591	1
261.1637	1
261.166	5
261.1683	4
261.1705	7
261.1728	10
261.1751	10
261.1774	16
261.1797	32
261.1819	21
261.1842	23
261.1865	28
261.1888	22
261.1911	22
261.1933	20
261.1956	10
261.1979	9
261.2002	6
261.2025	4
261.2047	3
261.207	1
261.2093	2
261.2116	1
261.2161	1
261.2184	1
262.1839	1
273.2113	1
273.2183	1
273.2206	1
273.223	1
273.2253	2
273.2277	1
273.23	1
273.2323	1
273.237	1
275.216	1
275.2231	1
275.2254	2
275.2277	2
275.2301	1
275.2324	3
275.2347	3
275.2371	4
275.2394	3
275.2418	3
275.2441	3
275.2465	2
275.2488	2
275.2511	1
275.2558	1
280.3708	1
280.3756	2
280.3779	1
281.0635	1
281.1676	1
281.1936	1
281.2078	1
281.2102	1
281.2149	1
281.2173	1
281.2197	1
281.222	2
281.2244	3
281.2267	2
281.2291	10
281.2315	16
281.2339	24
281.2362	35
281.2386	60
281.2409	67
281.2433	77
281.2457	97
281.248	103
281.2504	87
281.2528	94
281.2552	80
281.2575	65
281.2599	44
281.2622	25
281.2646	19
281.267	14
281.2693	7
281.2717	6
281.2741	4
281.2765	2
281.2788	2
281.2812	1
281.2835	1
281.3238	0
281.3853	0
281.7286	1
281.9821	0
282.238	1
282.2404	1
282.2428	1
282.2451	1
282.2475	2
282.2499	1
282.2522	1
282.2546	1
282.257	1
282.2593	1
282.2664	1
282.2688	1
283.1989	1
283.2012	1
283.2036	1
283.206	2
283.2083	1
283.2107	1
283.2131	1
283.2202	1
283.225	1
297.0117	1
297.0165	1
297.019	2
297.0214	3
297.0238	3
297.0262	5
297.0287	8
297.0311	8
297.0335	8
297.0359	7
297.0384	10
297.0408	8
297.0433	9
297.0457	6
297.0481	5
297.0505	4
297.053	5
297.0554	2
297.0579	3
297.0603	1
297.0627	1
297.0676	1
298.0533	1
299.2115	1
300.279	1
300.2937	1
300.2986	1
300.685	1
301.1868	1
301.1892	1
301.1942	3
301.1966	2
301.199	4
301.2015	7
301.2039	19
301.2064	17
301.2088	20
301.2113	22
301.2137	24
301.2162	28
301.2186	20
301.2211	17
301.2235	19
301.226	19
301.2284	11
301.2309	7
301.2333	6
301.2358	5
301.2382	3
301.2407	2
301.2505	1
302.2308	1
302.2382	1
315.0256	1
315.0306	1
315.0331	2
315.0356	2
315.0381	3
315.0406	4
315.0431	4
315.0456	5
315.0481	5
315.0506	5
315.0531	6
315.0556	5
315.0581	4
315.0606	3
315.0631	3
315.0656	1
315.0681	1
315.0732	1
317.2056	1
317.2081	1
317.2106	1
317.2131	1
317.2156	2
317.2181	2
317.2332	1
317.2408	1
318.2166	1
318.2191	1
318.2267	1
318.2292	1
318.2317	1
318.2342	1
318.2367	1
318.2393	1
318.2418	1
318.2443	1
318.2468	1
318.9293	1
318.9621	1
319.1082	1
319.1864	1
319.1889	1
319.1939	1
319.1964	2
319.199	3
319.2015	7
319.204	11
319.2065	16
319.209	30
319.2116	47
319.2141	62
319.2166	95
319.2191	117
319.2216	143
319.2242	166
319.2267	172
319.2292	179
319.2318	166
319.2343	149
319.2368	119
319.2393	88
319.2418	60
319.2444	37
319.2469	26
319.2494	20
319.2519	11
319.2544	11
319.257	8
319.2595	4
319.262	2
319.2645	2
319.2696	0
319.2746	0
319.2847	1
319.2872	1
319.6529	1
320.2106	1
320.2157	1
320.2182	1
320.2207	2
320.2233	2
320.2258	2
320.2283	1
320.2308	2
320.2334	3
320.2359	4
320.2384	1
320.2409	3
320.2435	2
320.2485	1
320.2536	1
321.0444	1
333.0546	1
333.0649	1
415.931	1
415.9396	1
416.7861	1
417.1059	1
417.1088	1
417.1779	1
417.201	1
417.2039	1
417.2068	2
417.2097	3
417.2125	4
417.2154	6
417.2183	6
417.2212	12
417.2241	13
417.2269	19
417.2298	22
417.2327	28
417.2356	29
417.2385	30
417.2414	34
417.2442	34
417.2471	35
417.25	33
417.2529	27
417.2558	23
417.2586	19
417.2615	11
417.2644	7
417.2673	5
417.2702	4
417.273	3
417.2759	1
417.2788	1
417.2817	1
417.2874	1
418.2305	1
418.2363	1
418.2392	1
418.242	1
418.2449	1
418.2507	1
418.2536	1
418.2565	1
418.2594	1
418.2622	1
418.2651	1
419.2382	1
419.2468	1
435.2253	1
435.2282	1
435.2311	1
435.2341	1
435.237	1
435.24	1
435.2429	1
435.2458	2
435.2488	4
435.2517	4
435.2547	3
435.2576	4
435.2606	3
435.2635	4
435.2664	1
435.2694	2
435.2723	2
435.2753	1
435.2782	1
455.1706	1
455.1736	1
455.1826	1
455.1857	1
455.1887	3
455.1917	2
455.1947	3
455.1977	2
455.2007	4
455.2037	6
455.2067	8
455.2097	8
455.2128	10
455.2158	11
455.2188	9
455.2218	13
455.2248	12
455.2278	10
455.2308	10
455.2338	10
455.2368	6
455.2398	3
455.2429	4
455.2459	3
455.2489	1
455.2519	1
455.2549	1
455.2579	1
455.2609	1
456.2067	1
456.2188	1
458.4124	1
473.2057	1
473.2149	1
473.218	1
473.2211	1
473.2333	1
473.2364	1
473.2395	1
485.4756	1
495.387	1
497.2825	1
498.2615	1
502.5952	1
503.0128	1
504.8594	1
505.0655	1
508.1715	1
508.5023	1
509.9893	1
511.5901	1
516.0678	1
523.2598	1
523.2662	1
523.2759	1
527.3441	1
543.7417	1
570.9442	1
578.5381	1
578.7079	1
579.2273	1
579.2375	1
579.2409	1
579.2443	2
579.2477	3
579.2511	2
579.2545	6
579.2579	3
579.2613	7
579.2646	13
579.2681	18
579.2715	17
579.2748	21
579.2783	29
579.2816	24
579.285	33
579.2885	30
579.2918	38
579.2952	34
579.2986	36
579.302	37
579.3054	37
579.3088	31
579.3122	28
579.3156	22
579.319	18
579.3224	14
579.3258	10
579.3292	7
579.3326	5
579.336	2
579.3394	3
579.3428	1
579.3462	2
579.3495	1
579.353	1
579.3564	1
580.2771	1
580.2805	1
580.2907	1
580.2941	1
580.2975	1
580.3009	1
580.3111	2
580.3246	1
580.3315	1
595.4111	1
595.4559	1
597.2476	1
597.2545	1
597.2579	1
597.2614	2
597.2648	2
597.2683	3
597.2718	4
597.2752	7
597.2786	8
597.2821	5
597.2855	11
597.289	11
597.2925	15
597.2959	17
597.2993	18
597.3028	13
597.3062	13
597.3097	13
597.3131	17
597.3166	18
597.32	18
597.3235	12
597.3269	12
597.3304	10
597.3338	6
597.3373	5
597.3407	2
597.3442	3
597.3476	4
597.3511	1
597.3545	1
597.358	1
597.3649	1
597.3683	1
598.2998	1
598.3136	1
598.3171	1
598.324	1
598.3309	1
617.2219	1
617.2254	1
617.2289	1
617.2324	1
617.236	2
617.2394	3
617.2429	3
617.2465	6
617.2499	8
617.2535	12
617.257	10
617.2605	11
617.264	15
617.2675	11
617.271	13
617.2745	12
617.278	13
617.2815	13
617.285	12
617.2885	13
617.292	10
617.2955	8
617.299	10
617.3026	7
617.306	4
617.3096	3
617.313	2
617.3166	1
617.3201	1
617.3235	1
618.2494	1
618.2775	1
618.2915	1
618.3091	1
635.2432	1
635.2538	1
635.2574	1
635.2609	1
635.2645	1
635.2681	1
635.2716	1
635.2751	2
635.2787	1
635.2823	2
635.2858	2
635.2894	3
635.293	2
635.2965	1
635.3	2
635.3036	1
635.3072	1
635.3107	1
635.3143	1
635.3179	1
635.3214	1
689.8026	1
737.4312	1
737.4388	1
737.4465	1
737.458	1
737.4619	1
737.4657	1
737.4695	2
737.4733	1
737.4772	1
737.481	2
737.4849	2
737.4886	3
737.4925	2
737.4963	2
737.5002	2
737.504	3
737.5117	1
737.5155	1
737.5193	1
737.527	1
738.4814	1
895.3745	1
896.595	1
896.6119	1
896.6204	1
896.6246	1
896.6288	1
896.6331	1
896.6373	1
896.6415	1
896.6458	2
896.65	2
896.6542	2
896.6584	1
896.6627	4
896.6669	3
896.6711	3
896.6753	2
896.6795	3
896.6838	4
896.688	4
896.6922	4
896.6964	5
896.7006	6
896.7049	6
896.7091	3
896.7133	4
896.7175	6
896.7218	5
896.726	4
896.7302	3
896.7344	4
896.7387	3
896.7429	3
896.7471	4
896.7513	1
896.7556	2
896.7598	1
896.764	2
896.7682	1
896.7725	2
896.7767	2
896.7809	1
896.7852	1
896.7894	1
896.7936	1
896.7979	1
896.8063	1
896.8148	1
896.8274	1
897.0894	1
897.6262	1
897.6389	1
897.66	1
897.6685	1
897.6727	1
897.6938	1
897.6981	1
897.7361	1
897.7742	1
897.9898	1
898.2816	1
898.2943	1
898.3069	1
898.3746	1
898.4127	1
898.4211	1
898.455	1
898.4592	1
898.5057	1
898.5269	1
898.5438	1
898.5649	1
898.5692	2
898.5734	1
898.5861	1
898.603	1
898.6241	1
898.7045	1
898.7087	1
898.7299	1
898.7975	1
898.806	1
898.8187	1
898.8356	1
898.9921	1
899.026	1
899.1064	1
899.1148	1
899.1656	1
899.1741	1
899.1995	1
899.2629	1
899.2798	1
899.2883	1
899.2925	1
899.3052	1
899.3221	1
899.3391	1
899.3433	1
899.3475	1
899.3518	1
899.3602	1
899.3729	2
899.3771	1
899.3856	1
899.3941	1
899.3983	1
899.4025	1
899.4237	1
899.4279	1
899.4322	1
899.4364	1
899.4533	1
899.4618	8
899.466	21
899.4703	27
899.4745	25
899.4787	43
899.483	75
899.4872	97
899.4914	153
899.4957	192
899.4999	286
899.5041	394
899.5084	489
899.5126	614
899.5168	743
899.5211	820
899.5253	901
899.5295	924
899.5338	919
899.538	963
899.5422	999
899.5464	931
899.5507	916
899.5549	890
899.5591	693
899.5634	553
899.5676	396
899.5718	260
899.576	167
899.5803	99
899.5845	68
899.5887	41
899.593	25
899.5972	20
899.6014	13
899.6057	7
899.6099	19
899.6141	5
899.6183	4
899.6226	1
899.6268	1
899.631	1
899.6395	1
899.7581	1
899.9739	1
900.0247	1
900.1094	1
900.1178	1
900.2025	1
900.2321	1
900.2533	1
900.2745	1
900.2829	1
900.3253	1
900.3337	1
900.338	1
900.3506	1
900.3591	1
900.3718	1
900.4438	1
900.4481	1
900.4523	2
900.4565	1
900.4608	1
900.465	3
900.4692	5
900.4734	4
900.4777	5
900.4819	6
900.4861	12
900.4904	12
900.4946	15
900.4988	15
900.5031	15
900.5073	21
900.5115	20
900.5158	31
900.52	28
900.5242	28
900.5285	30
900.5327	38
900.5369	33
900.5412	36
900.5454	31
900.5497	43
900.5539	35
900.5581	39
900.5624	29
900.5666	23
900.5708	22
900.5751	17
900.5793	13
900.5836	15
900.5878	9
900.592	6
900.5963	6
900.6005	3
900.6047	4
900.6089	2
900.6132	3
900.6174	3
900.6216	2
900.6259	1
900.6301	1
900.6385	1
900.647	1
900.6724	1
900.6852	1
900.7021	1
900.7698	1
900.791	1
900.7995	1
900.9265	1
900.9562	1
901.0197	1
901.0367	1
901.0536	1
901.2061	1
901.2527	1
901.2569	1
901.2612	1
901.2823	1
901.295	1
901.2993	1
901.312	1
901.3459	1
901.4645	1
901.4687	1
901.473	1
901.4772	1
901.5068	1
901.5238	1
901.5323	1
901.5577	1
901.5704	1
901.6255	1
901.6975	1
901.7441	1
901.7484	1
901.7526	1
902.011	1
902.1339	1
902.6256	1
902.6807	1
902.6977	1
902.791	1
903.0623	1
903.1386	1
903.2955	1
903.6432	1
903.7451	1
904.0463	1
904.059	1
904.3008	1
904.6827	1
904.844	1
905.5742	1
905.6166	1
905.9139	1
906.636	1
906.7719	1
907.1204	1
908.0555	1
908.8891	1
910.2764	1
911.7243	1
912.4232	1
914.5895	1
914.773	1
917.6345	1
919.9568	1
922.1879	1
923.4137	1
963.7059	1
1022.824	1
