Mass spectrum: PC(16:0/15-HEPE); LC-ESI-QTOF; MS2
Name: PC(16:0/15-HEPE)
Class: Oxidized Phospholipid
Formula: C44H78NO9P
Exact mass: 796.082
SMILES: CCCCCCCCCCCCCCCC(=O)OCC(COP([O-])(=O)OCC[N+](C)(C)C)OC(=O)CCC\C=C/C\C=C/C\C=C/CC(O)\C=C\C=C/CC
InChI: InChI=1S/C44H78NO9P/c1-6-8-10-12-13-14-15-16-17-21-24-27-31-35-43(47)51-39-42(40-53-55(49,50)52-38-37-45(3,4)5)54-44(48)36-32-28-25-22-19-18-20-23-26-30-34-41(46)33-29-11-9-7-2/h9,11,18,20,22,25-26,29-30,33,41-42,46H,6-8,10,12-17,19,21,23-24,27-28,31-32,34-40H2,1-5H3/b11-9-,20-18-,25-22-,30-26-,33-29+
Instrument: Acquity UPLC Peptide BEH C18 column (50 x 2.1 mm; 1.7 um), Sciex TripleTOF5600
Instrument type: LC-ESI-QTOF
Ms type: MS2
Ion mode: NEGATIVE
Collision energy: 30-50
Precursor m/z: 854.5552726
Precursor type: [M+CH3COOH-H]-
m/z	relative intensity
147.113	15
152.9997	10
163.1508	10
168.0367	20
168.0385	10
168.044	15
168.0459	10
168.0477	15
175.141	15
175.1466	10
175.1485	15
175.1522	20
175.1541	10
175.1559	15
201.1264	10
201.1584	15
201.1604	15
201.1684	10
201.1704	10
203.1444	20
203.1505	10
206.0587	10
219.1228	10
219.127	10
219.1291	35
219.1312	50
219.1333	45
219.1354	60
219.1375	95
219.1396	50
219.1416	65
219.1437	55
219.1458	35
219.1479	20
219.15	40
219.1521	10
221.1493	10
221.1535	10
221.1556	10
221.1577	10
221.1598	10
224.0628	15
224.0692	20
224.0713	20
224.0755	15
247.125	10
247.1294	10
247.1316	25
247.1339	10
247.1383	10
247.1472	10
248.1308	20
248.1352	15
248.1375	15
248.1397	35
248.1419	50
248.1441	20
248.1464	15
248.1486	15
248.1508	10
248.153	15
254.4358	15
255.1926	10
255.1948	10
255.1971	30
255.1993	35
255.2039	26
255.2061	66
255.2084	77
255.2106	79
255.2129	88
255.2151	59
255.2174	95
255.2196	147
255.2219	121
255.2241	195
255.2264	174
255.2286	300
255.2309	307
255.2332	253
255.2354	237
255.2377	259
255.2399	226
255.2422	168
255.2444	84
255.2467	68
255.2489	37
255.2512	16
255.2557	16
255.2579	16
255.2602	15
255.2625	11
256.235	10
256.244	10
257.524	5
273.2304	10
281.2579	10
299.1875	15
299.1899	25
299.1924	40
299.1948	50
299.1972	75
299.1996	60
299.2021	70
299.2045	91
299.207	75
299.2094	60
299.2119	40
299.2167	35
299.2192	15
299.2216	10
309.2849	10
314.8556	10
315.2062	10
316.3119	10
317.1783	10
317.1833	16
317.1858	21
317.1883	16
317.1908	42
317.1934	99
317.1959	58
317.1984	85
317.2009	180
317.2034	228
317.2059	205
317.2084	307
317.2109	265
317.2135	300
317.216	285
317.2185	305
317.221	174
317.2235	195
317.226	79
317.2285	58
317.231	85
317.2336	47
317.2361	31
317.2386	27
317.2411	5
317.2436	11
317.2461	5
317.2486	5
317.6735	5
318.2295	5
319.2271	5
331.2394	10
361.7646	10
391.2255	20
448.653	10
455.3634	15
462.2997	10
462.3148	10
462.3179	10
469.6429	10
480.2792	10
480.2823	15
480.2854	10
480.2885	30
480.2916	15
480.2947	15
480.2978	35
480.3009	60
480.304	45
480.307	75
480.3102	70
480.3132	45
480.3163	75
480.3194	60
480.3225	65
480.3256	40
480.3287	45
480.3318	15
480.3349	15
480.338	15
480.3441	10
524.264	10
524.2834	15
524.2996	10
603.4045	10
628.4016	10
667.4077	10
667.415	10
709.4023	10
709.4173	15
709.4248	15
709.4286	15
709.4323	20
709.4361	15
709.4399	25
709.4436	20
709.4474	10
709.4511	15
709.4549	30
709.4587	15
709.4624	10
709.4662	30
709.4699	15
709.4737	15
709.4774	10
709.4812	10
710.4361	10
735.5277	10
778.0615	10
778.093	10
778.1324	11
780.4326	10
780.4405	20
780.4484	16
780.4523	28
780.4563	28
780.4602	22
780.4642	55
780.4681	52
780.472	77
780.476	117
780.4799	163
780.4839	268
780.4878	332
780.4918	390
780.4957	367
780.4996	447
780.5036	599
780.5075	604
780.5115	763
780.5154	771
780.5193	911
780.5233	864
780.5272	999
780.5312	846
780.5351	891
780.5391	912
780.543	750
780.5469	508
780.5509	562
780.5548	447
780.5588	335
780.5627	281
780.5667	193
780.5706	175
780.5745	68
780.5785	87
780.5824	57
780.5864	6
780.5903	12
780.5942	12
780.5982	13
780.6021	22
780.6061	6
780.61	17
780.8939	5
781.4854	10
781.4933	10
781.4973	10
781.5051	15
781.5091	15
781.517	15
781.5288	5
781.5367	10
781.5406	15
781.5446	17
781.5525	15
781.5564	25
791.4846	10
794.5083	10
794.5162	20
794.5282	10
794.5521	15
794.564	10
794.5759	10
795.4671	15
795.475	15
795.479	10
795.4949	25
795.5069	10
795.5148	10
795.5228	10
807.5386	15
854.4884	10
854.4925	10
854.5008	10
854.5049	10
854.509	15
854.5131	25
854.5173	15
854.5214	15
854.5255	25
854.5297	25
854.5338	15
854.5379	35
854.542	55
854.5461	60
854.5502	45
854.5544	50
854.5585	75
854.5626	50
854.5668	65
854.5709	40
854.575	75
854.5791	35
854.5833	45
854.5874	25
854.5915	55
854.5956	30
854.5997	35
854.6039	15
854.608	25
854.6121	15
