Mass spectrum: PC(18:1/10-HDoHE); LC-ESI-QTOF; MS2
Name: PC(18:1/10-HDoHE)
Class: Oxidized Phospholipid
Formula: C48H82NO9P
Exact mass: 848.158
SMILES: CCCCCCCC\C=C/CCCCCCCC(=O)OCC(COP([O-])(=O)OCC[N+](C)(C)C)OC(=O)CC\C=C/C\C=C/CC(O)\C=C\C=C/C\C=C/C\C=C/CC
InChI: InChI=1S/C48H82NO9P/c1-6-8-10-12-14-16-18-19-20-21-22-24-26-31-35-39-47(51)55-43-46(44-57-59(53,54)56-42-41-49(3,4)5)58-48(52)40-36-32-28-27-30-34-38-45(50)37-33-29-25-23-17-15-13-11-9-7-2/h9,11,15,17,19-20,25,28-30,32-34,37,45-46,50H,6-8,10,12-14,16,18,21-24,26-27,31,35-36,38-44H2,1-5H3/b11-9-,17-15-,20-19-,29-25-,32-28-,34-30-,37-33+
Instrument: Acquity UPLC Peptide BEH C18 column (50 x 2.1 mm; 1.7 um), Sciex TripleTOF5600
Instrument type: LC-ESI-QTOF
Ms type: MS2
Ion mode: NEGATIVE
Collision energy: 30-50
Precursor m/z: 906.5865727
Precursor type: [M+CH3COOH-H]-
m/z	relative intensity
137.0978	11
153.0829	18
153.0847	35
153.0864	23
153.0899	35
153.0916	40
153.0934	35
153.0951	29
153.0969	23
153.0986	23
153.1004	18
161.1309	18
161.1345	18
161.1362	11
168.038	18
168.0398	11
168.0435	18
181.0813	11
181.0832	29
181.0851	11
181.087	18
189.1358	11
189.1591	11
190.1268	11
190.1307	11
224.0623	18
224.0686	18
224.0708	11
224.0729	11
224.0771	11
224.0813	12
227.1714	12
280.3589	11
281.2054	11
281.2101	18
281.2125	29
281.2148	23
281.2172	30
281.2196	88
281.222	48
281.2243	60
281.2267	73
281.229	73
281.2314	109
281.2338	170
281.2361	242
281.2385	238
281.2409	256
281.2432	281
281.2456	336
281.248	299
281.2503	354
281.2527	196
281.2551	236
281.2574	158
281.2598	109
281.2622	97
281.2645	92
281.2669	61
281.2693	43
281.2716	18
281.274	36
281.2764	6
281.2811	18
282.2332	12
282.2498	11
299.2236	11
299.2383	11
299.2407	29
299.2432	18
299.248	18
299.2554	11
325.2038	18
325.2089	11
325.2115	23
325.214	35
325.2166	18
325.2191	58
325.2216	58
325.2242	23
325.2267	11
325.2293	11
325.2318	18
325.2369	11
343.2093	23
343.2119	29
343.2145	58
343.2171	64
343.2197	81
343.2223	110
343.2249	75
343.2275	116
343.2302	110
343.2328	104
343.2354	64
343.238	92
343.2406	29
343.2432	23
343.2485	40
343.2537	11
417.224	11
488.2962	11
488.3149	11
488.3181	11
506.2902	11
506.2965	11
506.306	18
506.3092	29
506.3124	11
506.3156	29
506.3187	29
506.3219	23
506.3251	40
506.3282	18
506.3314	35
506.3346	23
506.3378	40
506.341	47
506.3441	23
506.3473	29
506.3505	23
550.259	11
550.2756	23
550.2888	11
550.2988	18
550.3087	11
568.277	18
568.2905	11
568.2939	18
568.2972	11
568.3006	18
568.304	11
568.3073	18
568.3141	29
568.3174	11
761.4406	11
761.4483	11
761.46	11
761.4639	11
761.4678	11
761.4717	11
761.4756	11
761.4794	40
761.4833	11
761.4872	23
761.4911	23
761.4989	35
761.5028	29
761.5067	11
761.5184	11
761.5262	11
761.5417	11
787.4927	11
832.4676	23
832.4717	11
832.4799	6
832.4839	25
832.488	19
832.4921	25
832.4961	64
832.5002	25
832.5043	120
832.5083	136
832.5124	184
832.5165	222
832.5206	283
832.5246	432
832.5287	419
832.5328	466
832.5368	519
832.5409	594
832.545	806
832.549	968
832.5531	825
832.5572	846
832.5613	999
832.5653	827
832.5694	873
832.5735	763
832.5775	685
832.5816	629
832.5857	492
832.5897	356
832.5938	230
832.5979	248
832.602	105
832.606	155
832.6101	106
832.6142	90
832.6182	116
832.6223	28
832.6264	55
832.6304	21
832.6345	33
832.6427	7
832.6467	14
833.2943	11
833.5182	11
833.5305	18
833.5345	11
833.5386	11
833.5427	18
833.5468	52
833.5508	29
833.559	18
833.5631	18
833.5671	29
833.5712	11
833.5753	18
833.5793	35
833.5916	18
833.5956	11
846.5431	11
846.5554	11
846.5595	11
846.58	11
846.5841	11
847.4875	11
847.504	11
847.5163	11
847.5369	11
847.541	11
847.5533	11
847.5574	11
906.4617	18
906.4957	11
906.5084	11
906.5297	11
906.5381	18
906.5424	23
906.5509	11
906.5552	11
906.5594	23
906.5637	47
906.5679	47
906.5721	92
906.5764	35
906.5806	81
906.5849	52
906.5891	104
906.5934	104
906.5977	52
906.6019	75
906.6061	69
906.6104	40
906.6146	58
906.6189	64
906.6231	75
906.6274	58
906.6316	18
906.6359	29
906.6401	40
906.6443	18
906.6486	35
906.6528	18
907.524	11
