Mass spectrum: SM d42:1; LC-ESI-QTOF; MS2
Name: SM d42:1
Class: SM
Formula: C47H95N2O6P
Exact mass: 815.261
SMILES: CCCCCCCCCCCCCCCCCCCCCCCC(=O)NC(COP([O-])(=O)OCC[N+](C)(C)C)C(O)\C=C\CCCCCCCCCCCCC
InChI: InChI=1S/C47H95N2O6P/c1-6-8-10-12-14-16-18-20-21-22-23-24-25-26-27-29-31-33-35-37-39-41-47(51)48-45(44-55-56(52,53)54-43-42-49(3,4)5)46(50)40-38-36-34-32-30-28-19-17-15-13-11-9-7-2/h38,40,45-46,50H,6-37,39,41-44H2,1-5H3,(H-,48,51,52,53)/b40-38+
Instrument: AB Sciex TripleTOF 5600+ system (Q-TOF) equipped with a DuoSpray ion source
Instrument type: LC-ESI-QTOF
Ms type: MS2
Ion mode: NEGATIVE
Collision energy: 45V
Column name: Acquity UPLC Peptide BEH C18 column (50*2.1 mm; 1.7 um; 130A)(Waters Co.,Milford, MA, USA)
Retention time: 13.06347
Precursor type: [M+CH3COOH-H]-
Precursor m/z: 873.7017
m/z	relative intensity
78.717	0
78.958	19
89.025	0
96.969	0
122.986	3
124.997	0
141.015	0
167.528	0
167.885	0
168.042	62
367.343	0
367.363	0
431.301	0
434.829	0
439.749	0
440.866	0
441.722	0
442.765	0
444.885	0
446.66	0
447.877	0
448.618	0
449.309	4
450.176	0
453.663	0
453.764	0
455.147	0
456.265	0
459.882	0
470.833	0
473.216	0
478.525	0
493.843	0
514.928	0
516.375	0
562.065	0
646.605	0
647.615	0
649.646	0
710.558	0
710.578	0
710.605	0
728.537	0
728.57	3
728.589	1
728.61	2
728.627	0
741.608	0
751.605	0
754.558	0
754.594	0
754.618	1
772.615	0
781.616	0
797.063	0
797.12	5
797.168	3
797.221	0
797.8	0
798.288	0
798.523	0
798.637	0
798.747	0
799.057	0
799.36	0
799.383	0
799.426	0
799.482	0
799.523	1
799.66	999
800.468	0
800.58	0
800.604	0
800.655	4
800.686	1
801.063	0
801.133	0
801.293	0
801.528	0
801.931	0
802.008	0
802.378	0
809.593	0
813.68	1
813.723	0
814.564	0
814.605	3
814.634	14
866.146	0
870.899	0
870.948	0
872.599	0
872.741	0
872.824	0
873.137	0
873.584	0
873.7	53
874.673	0
874.727	0
876.212	0
878.031	0
878.229	0
