Mass spectrum: PC(16:1/19,20-EpDPE); LC-ESI-QTOF; MS2
Name: PC(16:1/19,20-EpDPE)
Class: Oxidized Phospholipid
Formula: C46H78NO9P
Exact mass: 820.104
SMILES: CCCCCC\C=C/CCCCCCCC(=O)OCC(COP([O-])(=O)OCC[N+](C)(C)C)OC(=O)CC\C=C/C\C=C/C\C=C/C\C=C/C\C=C/CC1OC1CC
InChI: InChI=1S/C46H78NO9P/c1-6-8-9-10-11-12-13-17-21-24-27-30-33-36-45(48)52-40-42(41-54-57(50,51)53-39-38-47(3,4)5)55-46(49)37-34-31-28-25-22-19-16-14-15-18-20-23-26-29-32-35-44-43(7-2)56-44/h12-15,19-20,22-23,28-29,31-32,42-44H,6-11,16-18,21,24-27,30,33-41H2,1-5H3/b13-12-,15-14-,22-19-,23-20-,31-28-,32-29-
Instrument: Acquity UPLC Peptide BEH C18 column (50 x 2.1 mm; 1.7 um), Sciex TripleTOF5600
Instrument type: LC-ESI-QTOF
Ms type: MS2
Ion mode: NEGATIVE
Collision energy: 30-50
Precursor m/z: 878.5552726
Precursor type: [M+CH3COOH-H]-
m/z	relative intensity
107.0931	17
168.0404	41
168.0459	17
187.1489	17
224.0632	17
224.0674	17
224.0695	24
224.0737	17
234.6679	17
241.1926	17
241.1948	34
241.197	17
241.1992	24
241.2014	17
241.2036	34
250.5218	17
252.4304	17
253.1887	17
253.191	17
253.1954	34
253.1977	83
253.1999	66
253.2022	275
253.2044	258
253.2067	267
253.2089	377
253.2112	542
253.2134	518
253.2157	717
253.2179	649
253.2202	707
253.2224	683
253.2246	598
253.2269	367
253.2291	233
253.2314	124
253.2336	124
253.2359	49
253.2381	49
253.2404	24
253.2426	34
253.2448	24
253.2516	17
254.2158	17
259.1619	17
271.1685	17
271.1754	17
279.2248	17
279.2272	17
279.2296	24
279.2319	34
279.2343	34
279.2366	41
279.239	34
281.2065	41
281.2159	24
281.2207	75
281.2231	24
281.2254	17
281.2278	58
281.2301	75
281.2325	17
281.2372	24
281.2585	17
285.1765	24
285.1789	24
285.1813	17
285.1837	49
285.186	24
285.1884	41
285.1908	24
285.1932	34
285.2003	17
285.2051	17
299.215	17
299.2175	34
299.2248	17
299.2272	17
299.2297	24
299.2321	34
299.2346	41
299.237	58
299.2394	66
299.2419	34
299.2443	24
299.2468	41
299.2541	24
317.2168	17
325.2026	24
325.2051	17
325.2102	41
325.2127	24
325.2178	41
325.2204	24
325.2229	34
325.228	17
325.2306	17
342.1267	17
343.1923	17
343.2028	24
343.2054	24
343.208	41
343.2106	49
343.2132	49
343.2159	83
343.2184	131
343.2211	107
343.2237	100
343.2263	131
343.2289	165
343.2315	141
343.2342	165
343.2368	117
343.2394	100
343.242	24
343.2446	41
343.2472	17
343.2498	17
343.2524	17
435.2622	17
460.2982	17
460.3012	17
460.3648	17
478.2639	24
478.2732	41
478.2762	17
478.2793	17
478.2824	17
478.2855	49
478.2886	49
478.2917	34
478.2948	58
478.2979	17
478.3009	34
478.304	34
478.3071	41
478.3102	41
478.3133	24
478.3164	17
550.2845	17
550.3043	17
568.2861	34
568.2928	24
568.2962	17
568.2996	17
568.303	17
568.3063	24
568.3097	34
568.313	17
568.3164	17
568.3198	24
568.3265	17
568.3299	17
568.3467	17
780.5073	17
780.5151	17
780.519	17
780.523	17
780.527	17
780.5349	24
780.5506	17
791.5281	17
802.0226	17
802.0346	17
804.426	17
804.45	34
804.454	49
804.4579	109
804.462	158
804.4659	168
804.47	100
804.474	175
804.478	228
804.482	284
804.486	289
804.49	367
804.494	501
804.498	632
804.502	520
804.506	766
804.51	868
804.514	851
804.518	999
804.522	877
804.526	982
804.53	860
804.534	992
804.538	980
804.542	877
804.546	746
804.55	668
804.554	608
804.558	503
804.562	459
804.566	360
804.57	263
804.574	192
804.578	105
804.582	95
804.5861	41
804.59	53
804.5941	17
804.598	41
804.6021	17
804.6061	17
805.4988	17
805.5108	24
805.5148	24
805.5228	24
805.5269	24
805.5308	24
805.5349	34
805.5389	17
805.5508	24
805.5549	34
805.5669	17
819.4747	24
819.4908	17
819.4989	24
819.507	17
819.511	17
819.515	17
819.5231	24
875.8157	17
878.4985	34
878.5069	24
878.5195	24
878.5278	41
878.532	17
878.5361	107
878.5403	58
878.5446	66
878.5487	131
878.5529	83
878.5571	83
878.5613	107
878.5654	75
878.5696	90
878.5738	90
878.578	66
878.5822	49
878.5864	75
878.5905	34
878.5947	66
878.5989	41
878.6031	66
878.6072	34
878.6115	34
878.6156	24
878.6198	41
878.624	34
879.5778	17
879.5904	17
