Mass spectrum: Cer[NS] d43:2; LC-ESI-QTOF; MS2
Name: Cer[NS] d43:2
Class: Cer_NS
Formula: C43H83NO3
Exact mass: 662.1409999999998
SMILES: CCCCCCCCCCCCC\C=C/CCCCCCCCCC(=O)NC(CO)C(O)\C=C\CCCCCCCCCCCCC
InChI: InChI=1S/C43H83NO3/c1-3-5-7-9-11-13-15-17-18-19-20-21-22-23-24-25-27-29-31-33-35-37-39-43(47)44-41(40-45)42(46)38-36-34-32-30-28-26-16-14-12-10-8-6-4-2/h22-23,36,38,41-42,45-46H,3-21,24-35,37,39-40H2,1-2H3,(H,44,47)/b23-22-,38-36+
Instrument: AB Sciex TripleTOF 5600+ system (Q-TOF) equipped with a DuoSpray ion source
Instrument type: LC-ESI-QTOF
Ms type: MS2
Ion mode: NEGATIVE
Collision energy: 45V
Column name: Acquity UPLC Peptide BEH C18 column (50*2.1 mm; 1.7 um; 130A)(Waters Co.,Milford, MA, USA)
Retention time: 13.18672
Precursor type: [M+CH3COOH-H]-
Precursor m/z: 720.6503
m/z	relative intensity
158.969	12
235.206	12
237.222	89
263.228	43
263.243	43
268.263	18
291.264	12
305.086	31
335.344	20
353.346	24
361.35	94
376.37	37
378.368	133
379.358	68
390.38	24
392.359	18
404.371	120
404.387	204
404.405	127
406.386	36
420.382	68
612.582	37
612.617	37
614.597	18
627.531	18
628.517	63
628.544	63
628.608	63
630.595	63
630.622	89
642.545	43
642.634	14
660.516	24
660.539	75
660.567	89
660.621	999
660.647	434
720.558	12
