Mass spectrum: PG 44:11; LC-ESI-QTOF; MS2
Name: PG 44:11
Class: PG
Formula: C50H77O10P
Exact mass: 869.132
SMILES: CC\C=C/C\C=C/C\C=C/C\C=C/C\C=C/CCCCCC(=O)OCC(COP(O)(=O)OCC(O)CO)OC(=O)CC\C=C/C\C=C/C\C=C/C\C=C/C\C=C/C\C=C/CC
InChI: InChI=1S/C50H77O10P/c1-3-5-7-9-11-13-15-17-19-21-23-25-27-29-31-33-35-37-39-41-49(53)57-45-48(46-59-61(55,56)58-44-47(52)43-51)60-50(54)42-40-38-36-34-32-30-28-26-24-22-20-18-16-14-12-10-8-6-4-2/h5-8,11-14,17-20,23-26,29-32,36,38,47-48,51-52H,3-4,9-10,15-16,21-22,27-28,33-35,37,39-46H2,1-2H3,(H,55,56)/b7-5-,8-6-,13-11-,14-12-,19-17-,20-18-,25-23-,26-24-,31-29-,32-30-,38-36-
Instrument: AB Sciex TripleTOF 5600+ system (Q-TOF) equipped with a DuoSpray ion source
Instrument type: LC-ESI-QTOF
Ms type: MS2
Ion mode: NEGATIVE
Collision energy: 45V
Column name: Acquity UPLC Peptide BEH C18 column (50*2.1 mm; 1.7 um; 130A)(Waters Co.,Milford, MA, USA)
Retention time: 7.938156
Precursor type: [M-H]-
Precursor m/z: 867.519
m/z	relative intensity
78.956	1
93.069	0
100.932	1
107.087	1
121.101	1
135.119	1
137.136	1
149.132	1
152.996	13
158.978	1
161.139	0
163.146	1
171.008	1
175.152	0
177.09	1
177.165	3
179.179	0
187.136	0
189.165	1
191.108	1
191.175	2
191.189	1
193.117	1
203.188	1
205.119	1
227.032	2
229.195	19
231.21	5
241.009	0
249.184	5
251.2	2
255.208	1
257.224	1
267.229	1
279.229	1
281.234	0
282.353	0
283.242	132
284.262	2
285.259	38
297.234	0
301.222	0
309.221	1
311.237	2
311.253	0
326.212	2
327.232	346
327.275	1
328.204	0
328.226	2
328.242	1
329.247	575
330.258	1
419.252	0
437.279	0
438.271	0
463.222	8
465.228	2
465.246	2
472.339	0
481.235	2
483.242	1
483.259	1
489.254	0
529.255	1
537.225	0
537.264	4
537.302	1
539.269	4
539.289	4
539.311	0
547.299	0
555.263	6
555.284	4
557.248	1
557.279	6
557.297	5
565.265	1
657.055	0
780.486	1
780.523	1
791.483	0
793.546	0
807.487	0
807.574	1
849.516	1
864.753	2
864.81	2
866.518	0
867.442	6
867.517	999
867.607	4
867.797	0
867.959	0
868.51	3
868.549	2
