Mass spectrum: PE(18:0/8,9-EET); LC-ESI-QTOF; MS2
Name: PE(18:0/8,9-EET)
Class: Oxidized Phospholipid
Formula: C43H78NO9P
Exact mass: 784.071
SMILES: CCCCCCCCCCCCCCCCCC(=O)OCC(COP(O)(=O)OCCN)OC(=O)CCC\C=C/CC1OC1C\C=C/C\C=C/CCCCC
InChI: InChI=1S/C43H78NO9P/c1-3-5-7-9-11-13-14-15-16-17-18-20-22-24-29-33-42(45)49-37-39(38-51-54(47,48)50-36-35-44)52-43(46)34-30-26-25-28-32-41-40(53-41)31-27-23-21-19-12-10-8-6-4-2/h12,19,23,25,27-28,39-41H,3-11,13-18,20-22,24,26,29-38,44H2,1-2H3,(H,47,48)/b19-12-,27-23-,28-25-
Instrument: Acquity UPLC Peptide BEH C18 column (50 x 2.1 mm; 1.7 um), Sciex TripleTOF5600
Instrument type: LC-ESI-QTOF
Ms type: MS2
Ion mode: NEGATIVE
Collision energy: 30-50
Precursor m/z: 782.5341436
Precursor type: [M-H]-
m/z	relative intensity
78.95668	15
78.95793	24
78.95918	15
78.96044	15
78.96169	15
123.0736	15
123.0783	31
123.0815	15
123.083	54
123.0862	24
123.0909	15
127.0705	24
127.0737	31
127.0753	24
127.0769	24
127.0785	15
127.08	24
127.0816	31
127.0832	15
127.088	15
139.0813	15
140.008	39
140.0097	15
140.0114	46
140.013	31
140.0164	15
140.0181	15
140.0197	24
151.1379	15
151.1449	24
151.1466	31
151.1483	31
151.1535	15
155.0643	15
155.066	31
155.0678	24
155.0695	31
155.0713	24
155.073	24
155.0748	62
155.0766	15
155.0783	24
155.0836	24
163.1437	15
163.1563	15
167.0614	15
167.0669	31
167.0688	15
167.0706	54
167.0724	62
167.0742	46
167.076	15
179.1296	15
179.1334	24
179.1353	15
179.1391	31
179.141	31
179.1429	31
179.1447	24
179.1466	31
192.1561	15
196.0226	15
196.0246	15
196.0266	15
196.0286	31
196.0305	15
196.0345	39
196.0365	101
196.0384	15
196.0404	15
196.0464	15
196.0483	15
196.0503	15
196.0523	15
203.1707	15
203.1808	24
203.1828	15
203.1868	15
214.0419	15
214.0461	24
221.1977	15
227.1997	15
227.2019	24
227.204	15
253.211	24
253.2177	24
253.2222	15
253.2244	15
253.2289	15
255.2199	15
255.2267	15
255.2379	15
255.2424	15
257.2074	15
257.2142	24
257.2164	46
257.2187	54
257.2209	46
257.2232	46
257.2255	70
257.2278	70
257.23	85
257.2323	70
257.2345	70
257.2368	31
257.2391	24
257.2413	31
257.2458	15
267.2258	15
267.2281	15
267.2327	24
267.2465	15
275.2308	15
275.2332	15
275.2355	24
275.2378	24
275.2402	39
275.2425	24
275.2448	24
275.2472	15
282.3763	15
282.4	16
282.6988	16
282.7771	16
282.7795	16
283.1118	16
283.1996	24
283.2352	15
283.2376	8
283.24	16
283.2423	41
283.2447	83
283.2471	140
283.2495	165
283.2518	234
283.2542	526
283.2566	534
283.259	451
283.2614	803
283.2637	670
283.2661	699
283.2685	684
283.2708	576
283.2732	560
283.2756	376
283.278	159
283.2803	143
283.2827	134
283.2851	83
283.2874	83
283.2898	33
283.2922	17
283.2946	25
283.297	8
283.2993	25
283.6604	8
284.2596	17
284.262	15
284.2691	15
287.5854	8
291.2364	15
301.1998	31
301.2023	46
301.2047	24
301.2072	39
301.2096	62
301.2121	39
301.2145	62
301.217	93
301.2194	46
301.2219	101
301.2243	54
301.2268	62
301.2292	46
301.2317	39
301.2366	15
301.239	48
303.2357	16
318.2325	16
318.2954	16
319.1166	16
319.1897	16
319.1973	31
319.2023	8
319.2048	48
319.2074	49
319.2099	168
319.2124	155
319.2149	335
319.2174	253
319.22	369
319.2225	344
319.225	542
319.2275	526
319.23	401
319.2326	442
319.2351	451
319.2376	378
319.2401	245
319.2426	156
319.2452	139
319.2477	90
319.2502	33
319.2527	74
319.2552	42
319.2603	24
319.2628	8
320.219	16
320.2241	24
320.2266	31
320.2342	15
320.2796	8
462.2733	15
462.2915	15
462.2946	15
462.2976	24
462.3006	24
462.3036	39
462.3249	15
462.3431	16
480.2772	15
480.2802	15
480.2833	46
480.2864	39
480.2895	47
480.2926	55
480.2957	93
480.2988	125
480.3019	117
480.305	156
480.3081	109
480.3112	117
480.3143	148
480.3174	218
480.3205	117
480.3235	108
480.3266	102
480.3297	70
480.3328	31
480.3359	39
480.339	46
498.2658	15
498.269	31
498.291	15
516.2581	15
516.2678	15
516.2806	15
516.3062	15
627.3142	15
690.4639	15
690.4713	15
690.4824	15
690.4935	15
690.4972	15
690.5046	31
690.5084	31
690.512	24
690.5157	46
690.5269	15
690.5306	15
690.5343	24
700.4508	15
700.4882	15
700.4919	24
700.5068	15
700.518	24
700.5292	24
700.5404	15
782.3516	15
782.4503	15
782.4542	15
782.4582	15
782.4661	24
782.47	49
782.474	24
782.4779	17
782.4819	68
782.4858	83
782.4897	66
782.4937	100
782.4977	74
782.5016	120
782.5056	250
782.5095	355
782.5134	402
782.5174	511
782.5214	531
782.5253	593
782.5292	595
782.5332	716
782.5371	695
782.5411	999
782.545	850
782.549	646
782.5529	593
782.5569	708
782.5608	520
782.5648	654
782.5687	470
782.5726	347
782.5766	199
782.5806	166
782.5845	184
782.5884	96
782.5924	114
782.5963	35
782.6003	70
782.6042	43
782.6121	27
782.6161	8
782.624	9
782.6674	8
783.0227	8
783.5123	33
783.5321	24
783.536	24
783.54	39
783.5479	15
783.5558	24
783.5637	46
783.5676	15
783.5795	15
