Mass spectrum: PC(18:1/12-HEPE); LC-ESI-QTOF; MS2
Name: PC(18:1/12-HEPE)
Class: Oxidized Phospholipid
Formula: C46H80NO9P
Exact mass: 822.12
SMILES: CCCCCCCC\C=C/CCCCCCCC(=O)OCC(COP([O-])(=O)OCC[N+](C)(C)C)OC(=O)CCC\C=C/C\C=C/C=C/C(O)C\C=C/C\C=C/CC
InChI: InChI=1S/C46H80NO9P/c1-6-8-10-12-14-15-16-17-18-19-20-21-25-29-33-37-45(49)53-41-44(42-55-57(51,52)54-40-39-47(3,4)5)56-46(50)38-34-30-26-23-22-24-28-32-36-43(48)35-31-27-13-11-9-7-2/h9,11,17-18,23-24,26-28,31-32,36,43-44,48H,6-8,10,12-16,19-22,25,29-30,33-35,37-42H2,1-5H3/b11-9-,18-17-,26-23-,28-24-,31-27-,36-32+
Instrument: Acquity UPLC Peptide BEH C18 column (50 x 2.1 mm; 1.7 um), Sciex TripleTOF5600
Instrument type: LC-ESI-QTOF
Ms type: MS2
Ion mode: NEGATIVE
Collision energy: 30-50
Precursor m/z: 880.5709227
Precursor type: [M+CH3COOH-H]-
m/z	relative intensity
78.95772	5
78.96274	9
78.96399	3
78.9665	10
107.0883	7
107.0927	3
109.098	7
109.0995	7
109.101	7
109.1025	9
109.1039	5
109.1054	10
109.1069	3
135.1125	3
135.1141	7
135.1158	5
135.1174	14
135.119	7
135.1207	10
135.1223	7
135.1256	3
135.1272	3
137.0976	3
137.101	9
149.13	3
149.1334	3
152.9901	3
152.9971	7
152.9989	3
153.0024	3
163.1049	5
163.1086	5
163.1122	5
163.114	3
163.1158	5
163.1176	5
163.1194	7
168.0322	3
168.0358	3
168.0377	7
168.0395	18
168.0413	12
168.0432	18
168.045	9
168.0468	10
168.0486	5
168.0505	10
168.0523	10
168.0541	3
176.1986	4
177.125	4
179.0437	4
179.0928	5
179.0947	4
179.0965	11
179.0984	16
179.1003	18
179.1022	43
179.1041	61
179.106	61
179.1079	83
179.1098	68
179.1116	59
179.1135	48
179.1154	32
179.1173	29
179.1192	18
179.1211	18
179.123	7
179.1249	7
179.1268	4
179.1305	3
179.1438	2
179.1513	4
180.1082	3
180.1139	3
182.0562	3
201.1573	3
201.1593	3
201.1633	5
201.1673	7
201.1693	3
201.1733	3
201.1753	3
207.0959	5
207.098	5
207.1	10
207.102	14
207.1041	18
207.1061	3
207.1081	12
207.1102	9
207.1122	3
208.0961	5
208.1002	7
208.1023	16
208.1043	21
208.1063	30
208.1084	19
208.1104	42
208.1124	28
208.1145	46
208.1165	19
208.1185	14
208.1206	18
208.1226	14
208.1246	12
208.1267	3
208.1287	3
208.1348	3
209.1212	3
224.0574	3
224.0616	7
224.0637	9
224.0659	14
224.068	18
224.0701	23
224.0722	23
224.0743	23
224.0764	14
224.0785	7
224.0827	10
227.1813	3
253.1577	4
255.1889	7
255.198	9
255.2002	19
255.2025	21
255.2047	27
255.207	35
255.2092	55
255.2115	58
255.2137	41
255.216	42
255.2182	40
255.2205	25
255.2227	12
255.225	9
255.2273	9
255.2295	5
255.2318	3
273.2032	3
273.2126	3
273.2172	5
273.2196	3
273.2219	9
273.2242	5
273.2266	12
273.2289	5
280.3296	4
280.3626	3
280.3721	4
280.3744	3
280.3815	7
280.3981	4
280.658	4
280.9157	4
281.1404	4
281.2138	4
281.2209	2
281.2232	2
281.2256	9
281.228	26
281.2303	20
281.2327	54
281.2351	98
281.2374	136
281.2398	239
281.2422	221
281.2445	309
281.2469	374
281.2493	353
281.2516	336
281.254	347
281.2563	229
281.2587	204
281.2611	153
281.2635	106
281.2658	55
281.2682	23
281.2706	26
281.2729	18
281.2753	19
281.2776	10
281.2824	6
281.2848	2
281.2942	2
281.3534	2
281.7796	2
282.1041	2
282.1231	4
282.2416	2
282.2511	5
282.2534	3
282.2558	4
289.2249	4
293.3185	3
298.32	4
298.3785	4
299.1175	4
299.1785	3
299.1809	4
299.1834	9
299.1858	32
299.1883	25
299.1907	13
299.1931	40
299.1956	50
299.198	45
299.2005	54
299.2029	52
299.2054	38
299.2078	50
299.2102	57
299.2126	36
299.2151	27
299.2176	25
299.22	9
299.2224	7
299.2273	5
299.2297	2
299.2322	3
299.2346	5
316.2073	5
316.2123	3
316.2198	3
316.2374	3
317.0459	4
317.1765	2
317.179	10
317.1815	8
317.1841	4
317.1866	12
317.1891	26
317.1916	35
317.1941	42
317.1966	100
317.1991	161
317.2017	239
317.2042	286
317.2067	296
317.2092	425
317.2117	393
317.2142	390
317.2167	392
317.2192	337
317.2218	243
317.2243	173
317.2268	150
317.2293	79
317.2318	66
317.2343	30
317.2368	30
317.2393	10
317.2419	8
317.2444	12
317.2469	4
317.2494	6
317.2519	4
317.3474	2
317.5008	2
318.2026	3
318.2051	3
318.2076	7
318.2126	3
318.2152	9
318.2303	3
331.2196	7
331.2222	5
331.2248	7
331.2273	9
331.2299	5
331.235	7
331.2376	10
331.2402	5
331.2427	3
417.219	3
417.2306	5
417.2363	7
417.2392	14
417.2421	5
417.245	12
417.2478	7
417.2507	7
417.2536	3
417.2565	3
417.268	3
432.2873	5
432.2903	3
432.302	5
435.2347	3
435.2465	9
435.2612	3
435.2671	3
435.2701	3
435.273	3
445.235	3
445.2707	3
447.0291	3
449.1227	3
453.2076	3
453.2106	7
453.2136	5
453.2196	3
463.2805	3
488.2905	3
488.2936	3
488.2967	9
488.2998	3
488.3029	9
488.3061	12
488.3092	16
488.3123	19
488.3154	9
488.3185	16
488.3217	26
488.3248	16
488.3279	12
488.331	7
488.3341	7
488.3372	7
488.3404	10
496.0031	4
505.3132	4
506.2589	4
506.2811	4
506.2842	5
506.2874	11
506.2906	14
506.2938	23
506.2969	15
506.3001	29
506.3033	29
506.3065	49
506.3096	44
506.3128	57
506.316	50
506.3192	83
506.3223	61
506.3255	79
506.3287	85
506.3318	88
506.335	61
506.3382	50
506.3414	42
506.3446	41
506.3477	33
506.3509	37
506.3541	26
506.3573	6
506.3604	7
506.3636	7
506.3668	8
506.3763	2
506.3795	2
507.3452	2
520.3335	3
521.2834	3
521.2866	3
521.306	5
524.2513	7
524.2578	7
524.261	9
524.2643	9
524.2675	14
524.2708	5
524.274	5
524.2772	9
524.2836	10
524.2869	7
524.2901	3
524.2933	5
524.2998	5
532.3329	3
542.259	3
542.2722	9
542.2755	3
542.2787	3
542.2853	7
542.2886	9
542.2919	5
542.2984	5
542.3083	7
615.3582	7
615.3687	5
615.3757	3
615.3897	3
615.4002	7
615.4072	7
615.4107	5
615.4142	5
615.4213	5
615.4282	3
696.3953	3
696.4065	3
696.4103	3
696.4139	3
696.4214	3
696.4251	3
696.4326	5
696.4438	5
696.4736	3
697.4271	5
697.4308	5
697.4383	5
697.4532	3
711.4177	3
711.4327	3
711.4402	3
711.4478	3
711.4741	3
711.4891	4
721.4597	4
734.1885	4
735.401	3
735.4086	11
735.4163	14
735.4201	7
735.424	7
735.4278	25
735.4316	22
735.4354	21
735.4393	31
735.4431	32
735.4469	22
735.4507	45
735.4546	34
735.4584	39
735.4622	47
735.4661	47
735.4698	33
735.4737	40
735.4775	30
735.4813	33
735.4852	25
735.489	27
735.4928	9
735.4966	27
735.5005	7
735.5043	5
735.512	5
743.4466	3
761.463	9
761.4669	3
761.4708	7
761.4747	5
761.4786	5
761.4863	10
761.4902	5
761.4941	9
761.498	9
761.5058	3
761.5097	3
761.5214	3
762.4678	5
762.4951	3
762.499	3
762.5224	3
803.9133	3
803.9573	5
803.9612	3
803.9692	5
803.9772	5
803.9933	5
804.0052	7
804.0132	5
804.0173	3
804.0293	5
804.0333	3
805.5223	3
805.5383	3
805.5503	3
805.5984	3
805.6104	3
806.3875	3
806.4636	3
806.4756	7
806.4797	40
806.4836	49
806.4877	102
806.4917	149
806.4957	137
806.4997	233
806.5037	239
806.5077	334
806.5117	399
806.5157	556
806.5197	812
806.5237	776
806.5277	965
806.5317	874
806.5358	992
806.5397	980
806.5438	976
806.5478	967
806.5518	999
806.5558	816
806.5598	619
806.5638	508
806.5678	404
806.5718	233
806.5758	215
806.5798	102
806.5839	108
806.5878	71
806.5919	77
806.5959	19
806.5999	19
806.6039	15
806.6079	18
806.6119	10
806.6359	3
806.6559	3
806.8844	3
806.9084	3
807.0126	3
807.3774	3
807.4697	3
807.4857	3
807.4937	7
807.4977	3
807.5018	5
807.5057	9
807.5138	12
807.5178	16
807.5218	16
807.5258	9
807.5298	14
807.5338	18
807.5378	18
807.5419	21
807.5458	23
807.5499	18
807.5539	30
807.5579	19
807.5619	10
807.5659	16
807.5699	7
807.5739	12
807.5779	9
807.582	5
807.5859	3
807.59	5
807.9669	3
815.8267	3
818.5856	3
820.48	3
820.4881	3
820.5002	3
820.5123	3
820.5164	7
820.5204	12
820.5245	7
820.5285	9
820.5325	12
820.5366	9
820.5406	12
820.5447	14
820.5487	19
820.5528	12
820.5568	7
820.5609	18
820.5649	12
820.569	9
820.573	12
820.577	7
820.5811	12
820.5851	18
820.5892	5
820.5932	3
820.5972	5
820.6053	7
821.4382	5
821.4422	5
821.4543	3
821.4584	3
821.4664	7
821.4705	7
821.4745	18
821.4786	7
821.4826	7
821.4867	10
821.4907	14
821.4948	5
821.4988	9
821.5029	10
821.5069	21
821.5109	18
821.515	12
821.519	18
821.5271	12
821.5312	14
821.5352	7
821.5392	9
821.5433	5
821.5554	3
821.5594	3
821.5635	3
877.8284	4
880.485	3
880.4891	3
880.4933	9
880.5017	7
880.5101	16
880.5143	18
880.5185	11
880.5226	13
880.5269	24
880.531	26
880.5352	41
880.5394	26
880.5436	24
880.5478	46
880.5519	54
880.5562	73
880.5604	71
880.5645	84
880.5687	64
880.5729	75
880.5771	83
880.5813	69
880.5854	67
880.5897	92
880.5938	58
880.598	56
880.6022	60
880.6064	43
880.6106	35
880.6147	32
880.619	26
880.6232	21
880.6273	15
880.6315	6
880.6357	9
880.6399	11
880.6441	4
881.1718	2
881.5613	3
881.5739	3
881.5864	3
