Mass spectrum: PC 40:6; LC-ESI-QTOF; MS2
Name: PC 40:6
Class: PC
Formula: C48H84NO8P
Exact mass: 834.175
SMILES: CCCCCCCC\C=C/CCCCCCCC(=O)OCC(COP([O-])(=O)OCC[N+](C)(C)C)OC(=O)CCCCC\C=C/C\C=C/C\C=C/C\C=C/C\C=C/CC
InChI: InChI=1S/C48H84NO8P/c1-6-8-10-12-14-16-18-20-22-23-24-25-27-29-31-33-35-37-39-41-48(51)57-46(45-56-58(52,53)55-43-42-49(3,4)5)44-54-47(50)40-38-36-34-32-30-28-26-21-19-17-15-13-11-9-7-2/h8,10,14,16,20-22,24-26,29,31,46H,6-7,9,11-13,15,17-19,23,27-28,30,32-45H2,1-5H3/b10-8-,16-14-,22-20-,25-24-,26-21-,31-29-
Instrument: AB Sciex TripleTOF 5600+ system (Q-TOF) equipped with a DuoSpray ion source
Instrument type: LC-ESI-QTOF
Ms type: MS2
Ion mode: NEGATIVE
Collision energy: 45V
Column name: Acquity UPLC Peptide BEH C18 column (50*2.1 mm; 1.7 um; 130A)(Waters Co.,Milford, MA, USA)
Retention time: 9.476224
Precursor type: [M+CH3COOH-H]-
Precursor m/z: 892.6011
m/z	relative intensity
168.046	11
205.128	9
224.069	14
231.21	8
236.032	5
244.569	5
280.366	5
281.247	313
283.263	5
285.255	29
303.234	9
311.233	8
327.232	11
328.233	12
329.246	705
341.255	6
464.322	8
488.303	17
506.308	23
506.33	41
536.31	8
554.318	8
729.466	12
773.515	5
788.54	9
810.535	8
818.479	6
818.57	999
833.544	14
892.604	139
892.657	14
