Mass spectrum: PE(18:2e/13-HODE); LC-ESI-QTOF; MS2
Name: PE(18:2e/13-HODE)
Class: Oxidized Phospholipid
Formula: C41H76NO8P
Exact mass: 742.034
SMILES: CCCCCCCCCCCCC\C=C/C\C=C/OCC(COP(O)(=O)OCCN)OC(=O)CCCCCCC\C=C/C=C/C(O)CCCCC
InChI: InChI=1S/C41H76NO8P/c1-3-5-7-8-9-10-11-12-13-14-15-16-20-23-26-30-35-47-37-40(38-49-51(45,46)48-36-34-42)50-41(44)33-29-25-22-19-17-18-21-24-28-32-39(43)31-27-6-4-2/h20-21,23-24,28,30,32,35,39-40,43H,3-19,22,25-27,29,31,33-34,36-38,42H2,1-2H3,(H,45,46)/b23-20-,24-21-,32-28+,35-30-
Instrument: Acquity UPLC Peptide BEH C18 column (50 x 2.1 mm; 1.7 um), Sciex TripleTOF5600
Instrument type: LC-ESI-QTOF
Ms type: MS2
Ion mode: NEGATIVE
Collision energy: 30-50
Precursor m/z: 740.5235789
Precursor type: [M-H]-
m/z	relative intensity
78.96277	42
140.0104	42
141.0089	42
195.1324	42
195.1344	65
195.1363	107
195.1403	42
195.1422	129
195.1442	42
195.1462	86
195.1541	65
271.0063	42
277.2085	86
277.2108	65
277.2132	129
277.2155	86
277.2179	65
277.2202	65
277.2226	129
277.2296	65
277.232	42
293.208	44
293.2249	44
294.3035	44
294.3253	44
294.9429	44
294.9793	44
295.2023	44
295.2047	107
295.2071	152
295.2095	86
295.212	240
295.2144	282
295.2168	373
295.2192	885
295.2216	662
295.2241	883
295.2265	910
295.2289	687
295.2314	999
295.2338	731
295.2362	531
295.2386	310
295.2411	331
295.2435	223
295.2459	175
295.2483	89
295.2508	23
295.2532	23
295.2556	65
325.018	42
444.2779	42
444.2809	65
444.2868	65
444.2987	86
444.3017	65
462.2742	42
462.2772	42
462.2833	86
462.2863	65
462.2893	86
462.2924	107
462.2954	194
462.2984	86
462.3015	86
462.3045	65
462.3075	129
462.3136	65
462.3167	86
462.3197	42
462.3257	42
740.4835	196
740.4873	131
740.4911	306
740.495	173
740.4988	346
740.5027	392
740.5065	500
740.5104	455
740.5142	632
740.518	306
740.5219	569
740.5257	506
740.5295	329
740.5334	350
740.5372	306
740.5411	371
740.5449	373
740.5488	371
740.5526	306
740.5564	86
740.5602	86
740.5641	129
740.5679	194
740.5718	129
740.5756	42
