Mass spectrum: PG 36:2; LC-ESI-QTOF; MS2
Name: PG 36:2
Class: PG
Formula: C42H79O10P
Exact mass: 775.0600000000001
SMILES: CCCCCCCCCCCCCCCC(=O)OCC(COP(O)(=O)OCC(O)CO)OC(=O)CCCCCCCCC\C=C/C\C=C/CCCCC
InChI: InChI=1S/C42H79O10P/c1-3-5-7-9-11-13-15-17-18-19-20-22-24-26-28-30-32-34-42(46)52-40(38-51-53(47,48)50-36-39(44)35-43)37-49-41(45)33-31-29-27-25-23-21-16-14-12-10-8-6-4-2/h11,13,17-18,39-40,43-44H,3-10,12,14-16,19-38H2,1-2H3,(H,47,48)/b13-11-,18-17-
Instrument: AB Sciex TripleTOF 5600+ system (Q-TOF) equipped with a DuoSpray ion source
Instrument type: LC-ESI-QTOF
Ms type: MS2
Ion mode: NEGATIVE
Collision energy: 45V
Column name: Acquity UPLC Peptide BEH C18 column (50*2.1 mm; 1.7 um; 130A)(Waters Co.,Milford, MA, USA)
Retention time: 8.780381
Precursor type: [M-H]-
Precursor m/z: 773.5282
m/z	relative intensity
78.958	5
152.987	6
152.997	18
170.999	5
171.01	7
209.021	4
227.028	6
227.049	3
255.23	210
261.217	2
279.187	2
279.23	353
280.237	2
281.233	3
281.25	28
282.377	2
283.262	145
307.263	650
308.268	2
391.224	17
409.225	2
415.219	2
419.236	4
419.255	7
443.254	2
465.228	3
465.266	9
483.256	8
483.271	14
483.285	5
489.25	3
493.292	7
507.268	1
511.269	2
511.297	13
517.262	2
517.299	5
535.291	4
699.52	11
699.542	11
699.591	3
741.484	12
741.516	22
771.051	1
771.083	2
771.126	2
773.458	9
773.526	999
773.635	2
774.506	1
774.549	1
