Mass spectrum: PC 38:4; LC-ESI-QTOF; MS2
Name: PC 38:4
Class: PC
Formula: C46H84NO8P
Exact mass: 810.1529999999999
SMILES: CCCCCCCCCCCCCCCC(=O)OCC(COP([O-])(=O)OCC[N+](C)(C)C)OC(=O)CCCCCCCC\C=C/C\C=C/C\C=C/C\C=C/CC
InChI: InChI=1S/C46H84NO8P/c1-6-8-10-12-14-16-18-20-21-22-23-24-25-27-29-31-33-35-37-39-46(49)55-44(43-54-56(50,51)53-41-40-47(3,4)5)42-52-45(48)38-36-34-32-30-28-26-19-17-15-13-11-9-7-2/h8,10,14,16,20-21,23-24,44H,6-7,9,11-13,15,17-19,22,25-43H2,1-5H3/b10-8-,16-14-,21-20-,24-23-
Instrument: AB Sciex TripleTOF 5600+ system (Q-TOF) equipped with a DuoSpray ion source
Instrument type: LC-ESI-QTOF
Ms type: MS2
Ion mode: NEGATIVE
Collision energy: 45V
Column name: Acquity UPLC Peptide BEH C18 column (50*2.1 mm; 1.7 um; 130A)(Waters Co.,Milford, MA, USA)
Retention time: 9.926497
Precursor type: [M+CH3COOH-H]-
Precursor m/z: 868.6055
m/z	relative intensity
168.042	12
205.116	2
224.063	8
224.08	5
233.232	3
254.428	2
254.457	1
255.233	245
256.237	2
281.248	10
282.255	6
283.262	6
287.253	2
287.273	11
303.22	5
303.234	7
303.252	1
313.253	1
330.224	7
330.501	1
331.263	692
462.274	4
462.294	7
462.323	1
480.306	55
508.352	0
538.336	5
556.321	5
556.354	4
723.498	2
749.526	2
792.06	4
794.469	3
794.563	999
794.763	1
795.575	2
809.52	8
809.552	3
868.537	3
868.573	14
868.591	44
868.618	48
868.662	3
