Mass spectrum: PC(16:0/14,15-EpETE); LC-ESI-QTOF; MS2
Name: PC(16:0/14,15-EpETE)
Class: Oxidized Phospholipid
Formula: C44H78NO9P
Exact mass: 796.082
SMILES: CCCCCCCCCCCCCCCC(=O)OCC(COP([O-])(=O)OCC[N+](C)(C)C)OC(=O)CCC\C=C/C\C=C/C\C=C/CC1OC1C\C=C/CC
InChI: InChI=1S/C44H78NO9P/c1-6-8-10-11-12-13-14-15-16-20-23-26-30-34-43(46)50-38-40(39-52-55(48,49)51-37-36-45(3,4)5)53-44(47)35-31-27-24-21-18-17-19-22-25-29-33-42-41(54-42)32-28-9-7-2/h9,17,19,21,24-25,28-29,40-42H,6-8,10-16,18,20,22-23,26-27,30-39H2,1-5H3/b19-17-,24-21-,28-9-,29-25-
Instrument: Acquity UPLC Peptide BEH C18 column (50 x 2.1 mm; 1.7 um), Sciex TripleTOF5600
Instrument type: LC-ESI-QTOF
Ms type: MS2
Ion mode: NEGATIVE
Collision energy: 30-50
Precursor m/z: 854.5552726
Precursor type: [M+CH3COOH-H]-
m/z	relative intensity
78.95807	6
78.96058	6
78.96309	6
78.96434	6
78.96559	6
78.96685	6
93.0697	6
111.0838	6
121.0984	6
121.1015	9
121.1078	9
147.1164	6
152.9996	6
161.1278	6
163.1472	9
163.1508	6
163.1526	6
163.1562	6
163.1581	6
163.1617	6
168.0312	6
168.0367	20
168.0385	9
168.0403	14
168.0422	14
168.044	9
168.0458	9
168.0477	14
168.0513	6
168.0532	6
173.353	6
175.1373	9
175.1391	6
175.141	6
175.1429	6
175.1447	9
175.1466	14
175.1485	25
175.1503	28
175.1559	9
175.1578	9
179.1088	6
189.1228	9
189.1267	9
189.1616	6
191.1091	6
201.1604	17
201.1644	6
201.1664	6
201.1684	14
201.1704	6
201.1724	6
201.1744	6
201.1764	6
203.1324	6
203.1525	6
205.122	6
206.0527	6
207.0909	6
207.1234	14
207.1255	14
207.1275	37
207.1295	32
207.1316	46
207.1336	75
207.1356	75
207.1377	78
207.1397	111
207.1417	114
207.1438	103
207.1458	66
207.1478	32
207.1498	26
207.1519	9
207.1539	17
207.158	6
208.142	6
219.1228	6
219.1249	6
219.127	23
219.1291	20
219.1312	25
219.1333	17
219.1354	56
219.1375	31
219.1396	34
219.1416	48
219.1437	34
219.1458	28
219.1479	20
219.15	25
219.1521	9
219.1542	9
219.1667	6
220.1349	9
220.1433	9
220.1475	9
220.1496	14
221.1472	6
221.1514	6
221.1556	6
224.0607	11
224.0628	34
224.0649	25
224.0671	17
224.0692	6
224.0713	23
224.0734	34
224.0755	25
224.0776	9
224.0797	9
224.084	6
224.0882	6
235.1216	6
235.1238	9
235.1259	6
235.1324	17
235.1454	6
235.1541	6
235.1562	6
247.1183	6
247.1272	11
247.1339	9
247.1361	9
247.1383	14
247.1405	6
248.1219	6
248.1264	23
248.1286	17
248.1308	23
248.133	54
248.1353	28
248.1375	28
248.1397	31
248.1419	51
248.1441	54
248.1464	54
248.1486	45
248.1508	17
248.153	9
248.1552	14
248.1575	6
248.1597	14
248.1619	6
248.1708	6
254.4268	6
254.4381	6
254.4538	6
255.1565	6
255.1971	12
255.1994	6
255.2016	23
255.2039	9
255.2061	25
255.2084	34
255.2106	54
255.2129	57
255.2151	93
255.2174	118
255.2196	147
255.2219	230
255.2241	278
255.2264	302
255.2287	400
255.2309	454
255.2332	435
255.2354	474
255.2377	367
255.2399	290
255.2422	265
255.2444	113
255.2467	107
255.2489	78
255.2512	55
255.2534	22
255.2557	19
255.258	10
255.2602	23
255.2625	6
255.2647	6
255.2692	6
255.3256	3
255.3662	3
255.4857	6
255.8715	3
256.2147	3
256.2327	6
273.1884	6
273.2024	6
273.2164	6
273.2187	20
273.2211	6
273.2234	17
273.2281	9
273.2304	6
273.2327	11
273.235	9
281.1893	6
281.1964	6
289.2193	6
299.185	9
299.1875	23
299.1899	17
299.1924	20
299.1948	31
299.1972	34
299.1997	37
299.2021	79
299.2046	51
299.207	31
299.2094	56
299.2119	20
299.2143	20
299.2168	11
299.2192	20
299.2241	6
299.2314	6
315.2263	6
316.4174	6
317.1682	6
317.1783	12
317.1808	3
317.1833	6
317.1859	3
317.1884	18
317.1909	28
317.1934	74
317.1959	90
317.1984	140
317.2009	175
317.2034	250
317.2059	294
317.2084	332
317.211	319
317.2135	344
317.216	387
317.2185	278
317.221	217
317.2235	137
317.226	125
317.2285	85
317.2311	56
317.2336	28
317.2361	25
317.2386	28
317.2411	28
317.2436	6
317.2462	6
317.2487	3
317.2587	3
317.314	3
317.5905	3
318.076	6
318.1968	3
318.2119	6
318.2169	12
318.222	6
391.2311	9
438.5817	6
440.9636	6
462.2603	6
462.2785	6
462.2815	9
462.2845	9
462.2876	17
462.2906	14
462.2936	11
462.2967	17
462.2997	14
462.3027	14
462.3058	11
462.3088	14
462.3118	6
462.3149	6
465.378	6
467.3098	6
478.8116	6
479.2162	6
480.2576	6
480.2669	6
480.27	6
480.2762	9
480.2793	26
480.2823	17
480.2855	37
480.2885	28
480.2916	52
480.2947	55
480.2978	79
480.3009	58
480.304	82
480.3071	93
480.3102	108
480.3133	75
480.3164	96
480.3195	73
480.3226	75
480.3257	58
480.3287	43
480.3318	29
480.3349	15
480.338	9
480.3411	9
480.3442	6
480.3473	6
480.3504	11
480.3535	6
480.3597	6
481.3188	3
524.2512	6
524.2609	9
524.2641	9
524.277	6
524.2803	11
524.2835	6
524.2867	9
524.29	14
524.2964	9
524.2996	9
524.3029	9
542.2622	11
542.2687	6
542.272	17
542.2753	11
542.2786	11
542.2885	14
542.2917	14
542.295	14
542.2983	9
542.3016	11
542.3049	11
709.4512	6
735.4666	6
735.4819	6
778.0538	9
778.0774	11
778.0813	6
778.0853	9
778.101	6
778.1089	6
779.5895	6
780.417	7
780.4367	6
780.4564	14
780.4603	14
780.4643	24
780.4682	19
780.4722	92
780.4761	127
780.48	142
780.484	234
780.4879	270
780.4919	290
780.4958	429
780.4998	489
780.5037	566
780.5076	698
780.5116	725
780.5155	722
780.5195	999
780.5234	781
780.5273	932
780.5313	907
780.5352	736
780.5392	833
780.5431	783
780.5471	579
780.551	430
780.5549	335
780.5589	258
780.5628	185
780.5668	179
780.5707	82
780.5746	32
780.5786	36
780.5825	35
780.5865	31
780.5905	16
780.5944	8
780.6022	4
780.618	4
780.9058	4
781.032	4
781.0478	4
781.2292	4
781.4264	4
781.4816	9
781.4855	6
781.4895	6
781.4934	9
781.5013	9
781.5052	9
781.5092	14
781.5131	9
781.5171	23
781.5211	11
781.525	6
781.5289	9
781.5329	23
781.5368	14
781.5408	11
781.5447	23
781.5486	14
781.5526	11
781.5565	11
781.5605	6
782.7009	6
794.5522	6
795.4513	6
795.4592	6
795.4632	6
795.4672	11
795.4712	11
795.4752	14
795.4791	9
795.4911	9
795.4951	6
795.503	11
795.511	6
795.515	17
795.5269	6
795.5349	6
823.5028	6
851.8468	6
854.4556	6
854.4803	6
854.5009	9
854.505	6
854.5092	23
854.5133	14
854.5174	25
854.5215	14
854.5256	26
854.5298	37
854.5339	49
854.538	63
854.5422	58
854.5463	64
854.5504	55
854.5545	87
854.5587	99
854.5628	50
854.5669	73
854.571	64
854.5751	71
854.5793	73
854.5834	67
854.5875	41
854.5917	44
854.5958	50
854.5999	23
854.604	17
854.6082	9
854.6123	32
854.6164	25
854.6205	17
854.6246	6
