Mass spectrum: PS(18:0/8,9-EET); LC-ESI-QTOF; MS2
Name: PS(18:0/8,9-EET)
Class: Oxidized Phospholipid
Formula: C44H78NO11P
Exact mass: 828.08
SMILES: CCCCCCCCCCCCCCCCCC(=O)OCC(COP(O)(=O)OCC(N)C(O)=O)OC(=O)CCC\C=C/CC1OC1C\C=C/C\C=C/CCCCC
InChI: InChI=1S/C44H78NO11P/c1-3-5-7-9-11-13-14-15-16-17-18-20-22-24-29-33-42(46)52-35-38(36-53-57(50,51)54-37-39(45)44(48)49)55-43(47)34-30-26-25-28-32-41-40(56-41)31-27-23-21-19-12-10-8-6-4-2/h12,19,23,25,27-28,38-41H,3-11,13-18,20-22,24,26,29-37,45H2,1-2H3,(H,48,49)(H,50,51)/b19-12-,27-23-,28-25-
Instrument: Acquity UPLC Peptide BEH C18 column (50 x 2.1 mm; 1.7 um), Sciex TripleTOF5600
Instrument type: LC-ESI-QTOF
Ms type: MS2
Ion mode: NEGATIVE
Collision energy: 30-50
Precursor m/z: 826.5239728
Precursor type: [M-H]-
m/z	relative intensity
78.95467	24
78.95592	24
78.95716	73
78.95966	73
78.9609	49
78.9634	49
78.96464	24
90.81624	49
96.96633	24
96.96909	24
123.0799	49
123.0845	24
123.0877	24
127.0764	24
127.078	24
134.9808	24
134.9824	24
151.1338	24
151.1425	49
151.1459	24
151.1494	24
151.1511	24
151.1528	24
152.5129	24
152.5181	24
152.9809	24
152.9827	49
152.9844	24
152.9879	97
152.9896	154
152.9913	142
152.9931	172
152.9948	297
152.9965	178
152.9983	160
153	121
153.0017	49
153.0052	73
155.0679	49
167.0647	24
167.0701	24
173.1725	24
173.178	49
257.2304	24
257.2416	24
263.4308	24
263.433	24
269.4563	49
281.2317	24
281.2364	24
281.2387	49
281.2411	125
281.2434	49
281.2458	121
281.2481	49
281.2505	97
281.2528	97
281.2552	24
281.2622	24
283.2297	49
283.2344	24
283.2368	49
283.2392	24
283.2462	24
283.2486	97
283.2509	138
283.2533	192
283.2557	449
283.258	263
283.2604	526
283.2628	726
283.2651	404
283.2675	542
283.2698	311
283.2722	247
283.2746	131
283.2769	49
283.2793	24
283.2816	49
285.6851	24
285.7135	24
301.2067	24
301.214	24
301.2238	24
301.2262	24
319.2104	24
319.2129	24
319.2154	24
319.2179	97
319.2204	121
319.2229	97
319.2254	121
319.2279	73
319.2304	49
319.2329	97
319.2355	24
319.2379	73
319.2405	24
319.243	24
319.2455	24
327.221	24
327.2236	24
327.2286	49
327.2312	24
327.2363	24
327.2464	24
327.2566	24
419.2238	24
419.2266	24
419.2295	97
419.2324	73
419.2352	73
419.2381	97
419.241	162
419.2439	170
419.2467	524
419.2496	366
419.2525	372
419.2553	408
419.2582	404
419.2611	390
419.2639	400
419.2668	235
419.2697	235
419.2726	97
419.2755	97
419.2783	24
419.2812	24
419.2841	24
419.2898	49
419.3243	24
419.3271	24
428.8787	49
437.2377	24
437.2406	24
437.2436	73
437.2465	49
437.2494	49
437.2523	73
437.2553	176
437.2582	188
437.2611	97
437.2641	164
437.267	237
437.27	172
437.2729	218
437.2758	162
437.2787	24
437.2817	24
437.2846	49
437.2875	24
437.2905	24
437.2963	24
451.7231	24
451.7649	24
455.1966	24
455.2025	73
455.2055	49
455.2085	24
455.2115	164
455.2145	24
455.2175	135
455.2205	97
455.2235	121
455.2265	49
455.2295	73
455.2325	73
455.2355	24
455.2385	24
455.2504	24
457.0867	24
457.1077	24
473.2148	24
473.2178	24
473.2209	49
473.2239	24
473.227	49
473.23	24
473.2361	73
473.2392	24
473.2483	24
737.1422	24
737.1498	24
737.1917	24
737.2412	24
739.4363	73
739.4402	24
739.4478	49
739.4516	24
739.4554	49
739.4592	73
739.463	178
739.4669	168
739.4706	293
739.4745	408
739.4783	419
739.4821	647
739.4859	744
739.4897	785
739.4935	764
739.4974	924
739.5012	682
739.505	599
739.5088	479
739.5126	283
739.5164	129
739.5203	220
739.524	146
739.5279	135
739.5317	73
739.5355	73
739.5393	24
739.5432	49
739.5469	49
739.5508	24
739.5698	24
740.4855	24
740.4969	24
752.4949	24
752.5026	24
752.5103	49
752.5141	24
752.5256	24
752.5295	24
752.541	24
752.5565	24
752.5603	24
766.4557	49
766.4635	24
819.498	24
819.506	24
819.5221	24
823.5018	24
823.5461	24
823.8963	24
823.9205	24
823.9245	24
826.4224	24
826.4506	24
826.4547	24
826.4667	24
826.4708	71
826.4748	71
826.4788	24
826.4828	95
826.4869	119
826.4909	156
826.4949	127
826.499	307
826.5031	524
826.5071	408
826.5111	736
826.5151	714
826.5192	849
826.5232	999
826.5272	963
826.5313	855
826.5353	841
826.5393	455
826.5433	346
826.5474	297
826.5514	370
826.5554	198
826.5595	176
826.5635	131
826.5676	71
826.5716	24
826.5756	24
826.5837	49
826.5877	49
826.6159	24
836.4315	24
836.4396	24
