Mass spectrum: PC(16:0e/12-HEPE); LC-ESI-QTOF; MS2
Name: PC(16:0e/12-HEPE)
Class: Oxidized Phospholipid
Formula: C44H80NO8P
Exact mass: 782.099
SMILES: CCCCCCCCCCCCCCCCOCC(COP([O-])(=O)OCC[N+](C)(C)C)OC(=O)CCC\C=C/C\C=C/C=C/C(O)C\C=C/C\C=C/CC
InChI: InChI=1S/C44H80NO8P/c1-6-8-10-12-14-15-16-17-18-19-22-25-29-33-38-50-40-43(41-52-54(48,49)51-39-37-45(3,4)5)53-44(47)36-32-28-24-21-20-23-27-31-35-42(46)34-30-26-13-11-9-7-2/h9,11,21,23-24,26-27,30-31,35,42-43,46H,6-8,10,12-20,22,25,28-29,32-34,36-41H2,1-5H3/b11-9-,24-21-,27-23-,30-26-,35-31+
Instrument: Acquity UPLC Peptide BEH C18 column (50 x 2.1 mm; 1.7 um), Sciex TripleTOF5600
Instrument type: LC-ESI-QTOF
Ms type: MS2
Ion mode: NEGATIVE
Collision energy: 30-50
Precursor m/z: 840.576008
Precursor type: [M+CH3COOH-H]-
m/z	relative intensity
109.1063	15
135.1168	15
137.0987	10
163.1097	15
163.1134	10
168.0407	15
178.5469	10
179.0922	10
179.0959	10
179.0997	20
179.1016	54
179.1035	79
179.1054	70
179.1073	104
179.1092	65
179.1111	40
179.1129	30
179.1148	20
179.1167	25
179.1186	10
179.1224	15
179.1243	10
201.1607	10
201.1667	10
207.0994	30
207.1015	15
207.1035	20
207.1075	10
207.1096	10
207.1197	15
208.0976	20
208.1017	35
208.1037	10
208.1057	40
208.1078	25
208.1098	59
208.1119	30
208.1139	25
208.1159	10
208.118	20
208.122	15
208.1281	10
255.1997	25
255.2019	25
255.2042	20
255.2065	40
255.2087	40
255.211	25
255.2132	54
255.2155	45
255.2177	40
255.22	15
255.2267	10
273.2004	10
273.2121	10
273.2214	10
273.2284	10
299.1805	10
299.1829	10
299.1854	20
299.1878	20
299.1902	30
299.1927	20
299.1951	35
299.1976	30
299.2	74
299.2025	40
299.2049	25
299.2073	40
299.2098	45
299.2122	10
299.2195	10
299.7347	10
301.2218	10
304.9728	10
316.2144	20
317.1585	10
317.1837	30
317.1862	36
317.1887	21
317.1912	56
317.1937	68
317.1962	111
317.1987	125
317.2012	247
317.2037	248
317.2062	299
317.2088	306
317.2113	347
317.2138	310
317.2163	320
317.2188	290
317.2213	183
317.2238	84
317.2263	136
317.2289	42
317.2314	36
317.2339	26
317.2364	16
317.2389	11
317.2415	5
317.244	11
317.2465	10
317.2515	5
318.2248	10
318.5773	5
331.2167	10
331.2321	10
331.2372	10
377.2263	10
377.2318	10
377.2345	15
377.2372	20
377.24	15
377.2427	35
377.2455	30
377.2482	35
377.2509	30
377.2537	25
377.2564	15
377.2701	10
395.2465	10
405.2816	10
423.2988	10
431.5335	10
448.2917	10
448.3066	25
448.3096	30
448.3126	25
448.3156	25
448.3186	50
448.3216	35
448.3246	45
448.3275	20
448.3305	40
448.3335	10
448.3395	15
448.3484	10
464.3074	10
464.3257	10
464.8853	10
466.2918	10
466.2949	30
466.2979	25
466.3009	65
466.304	60
466.307	75
466.3101	55
466.3131	86
466.3162	61
466.3192	102
466.3223	148
466.3253	102
466.3284	132
466.3314	107
466.3345	146
466.3375	95
466.3405	91
466.3436	80
466.3466	75
466.3497	45
466.3528	20
466.3558	35
466.3619	10
466.3649	20
466.3771	5
575.4067	10
657.4395	10
695.4169	10
695.428	10
695.4392	10
695.4429	30
695.4467	10
695.4504	20
695.4541	20
695.4578	25
695.4615	30
695.4653	15
695.469	30
695.4727	35
695.4764	40
695.4801	20
695.4838	20
695.4876	10
695.4913	20
695.495	10
695.4987	15
695.5024	10
721.4867	15
721.498	10
721.5018	10
722.4838	10
722.5065	10
748.5418	10
748.5688	16
764.1096	15
764.1213	10
764.133	10
766.4515	10
766.4633	25
766.4672	10
766.4711	11
766.4789	27
766.4828	5
766.4867	13
766.4906	73
766.4945	95
766.4984	202
766.5023	225
766.5062	293
766.5101	357
766.514	399
766.5179	557
766.5219	582
766.5258	695
766.5297	758
766.5336	854
766.5375	871
766.5414	910
766.5453	911
766.5492	941
766.5531	919
766.557	999
766.5609	629
766.5648	561
766.5687	495
766.5726	408
766.5765	317
766.5804	311
766.5844	176
766.5883	111
766.5922	93
766.5961	44
766.6	63
766.6039	63
766.6078	70
766.6117	6
766.6156	19
766.6195	13
766.6234	31
766.6273	10
766.6312	6
767.5105	10
767.5222	20
767.5339	10
767.5378	25
767.5418	15
767.5457	10
767.5496	15
767.5574	15
767.5613	10
767.577	10
780.5352	20
780.5391	10
780.547	25
780.5509	10
780.5549	15
780.5588	20
780.5627	10
780.5667	10
780.5785	10
780.5825	15
780.5864	10
780.5903	10
780.5982	10
781.4618	10
781.4855	10
781.4894	10
781.4933	15
781.5012	20
781.5052	15
781.5131	10
781.517	15
781.5249	10
781.5328	10
781.5367	10
781.5446	10
793.5461	10
793.5541	15
793.582	15
840.5104	10
840.5145	10
840.5186	10
840.5226	10
840.5308	20
840.5349	25
840.539	30
840.5431	25
840.5472	40
840.5513	45
840.5554	35
840.5594	30
840.5635	59
840.5677	50
840.5718	65
840.5759	54
840.58	54
840.584	54
840.5881	59
840.5922	70
840.5963	50
840.6004	45
840.6045	40
840.6086	25
840.6127	10
840.6168	30
840.6208	15
840.6249	25
841.6029	10
