Mass spectrum: Cer[NS] d33:1; LC-ESI-QTOF; MS2
Name: Cer[NS] d33:1
Class: Cer_NS
Formula: C33H65NO3
Exact mass: 523.887
SMILES: CCCCCCCCCCCCCCCC(=O)NC(CO)C(O)\C=C\CCCCCCCCCCCC
InChI: InChI=1S/C33H65NO3/c1-3-5-7-9-11-13-15-17-19-21-23-25-27-29-33(37)34-31(30-35)32(36)28-26-24-22-20-18-16-14-12-10-8-6-4-2/h26,28,31-32,35-36H,3-25,27,29-30H2,1-2H3,(H,34,37)/b28-26+
Instrument: AB Sciex TripleTOF 5600+ system (Q-TOF) equipped with a DuoSpray ion source
Instrument type: LC-ESI-QTOF
Ms type: MS2
Ion mode: NEGATIVE
Collision energy: 45V
Column name: Acquity UPLC Peptide BEH C18 column (50*2.1 mm; 1.7 um; 130A)(Waters Co.,Milford, MA, USA)
Retention time: 9.369188
Precursor type: [M+CH3COOH-H]-
Precursor m/z: 582.5073
m/z	relative intensity
223.205	199
225.223	24
236.239	24
237.22	187
249.22	197
253.25	40
254.246	174
255.228	61
266.248	111
280.264	487
280.279	99
296.249	77
474.468	111
490.461	110
492.471	198
504.477	24
522.482	999
522.498	487
522.534	49
