Mass spectrum: SM d38:1; LC-ESI-QTOF; MS2
Name: SM d38:1
Class: SM
Formula: C43H87N2O6P
Exact mass: 759.153
SMILES: CCCCCCCCCCCCCCCCCCCC(=O)NC(COP([O-])(=O)OCC[N+](C)(C)C)C(O)\C=C\CCCCCCCCCCCCC
InChI: InChI=1S/C43H87N2O6P/c1-6-8-10-12-14-16-18-20-21-22-23-25-27-29-31-33-35-37-43(47)44-41(40-51-52(48,49)50-39-38-45(3,4)5)42(46)36-34-32-30-28-26-24-19-17-15-13-11-9-7-2/h34,36,41-42,46H,6-33,35,37-40H2,1-5H3,(H-,44,47,48,49)/b36-34+
Instrument: AB Sciex TripleTOF 5600+ system (Q-TOF) equipped with a DuoSpray ion source
Instrument type: LC-ESI-QTOF
Ms type: MS2
Ion mode: NEGATIVE
Collision energy: 45V
Column name: Acquity UPLC Peptide BEH C18 column (50*2.1 mm; 1.7 um; 130A)(Waters Co.,Milford, MA, USA)
Retention time: 10.80772
Precursor type: [M+CH3COOH-H]-
Precursor m/z: 817.6398
m/z	relative intensity
78.959	18
83.379	0
122.983	1
168.043	48
255.224	1
281.261	0
305.253	1
407.994	1
412.529	0
413.781	0
424.787	0
435.64	0
449.301	3
609.57	0
654.511	0
672.531	4
698.52	1
741.195	1
741.286	2
743.599	999
743.706	1
744.587	2
758.543	3
758.563	2
770.611	1
771.581	1
771.61	3
771.643	2
799.632	1
817.574	2
817.594	2
817.611	3
817.639	15
817.672	11
