Mass spectrum: PI 40:5; LC-ESI-QTOF; MS2
Name: PI 40:5
Class: PI
Formula: C49H85O13P
Exact mass: 913.182
SMILES: CCCCCCCC\C=C/CCCCCCCCCC(=O)OCC(COP(O)(=O)OC1C(O)C(O)C(O)C(O)C1O)OC(=O)CCCCCC\C=C/C\C=C/C\C=C/C\C=C/CC
InChI: InChI=1S/C49H85O13P/c1-3-5-7-9-11-13-15-17-19-21-23-25-27-29-31-33-35-37-42(50)59-39-41(40-60-63(57,58)62-49-47(55)45(53)44(52)46(54)48(49)56)61-43(51)38-36-34-32-30-28-26-24-22-20-18-16-14-12-10-8-6-4-2/h6,8,12,14,17-20,24,26,41,44-49,52-56H,3-5,7,9-11,13,15-16,21-23,25,27-40H2,1-2H3,(H,57,58)/b8-6-,14-12-,19-17-,20-18-,26-24-
Instrument: AB Sciex TripleTOF 5600+ system (Q-TOF) equipped with a DuoSpray ion source
Instrument type: LC-ESI-QTOF
Ms type: MS2
Ion mode: NEGATIVE
Collision energy: 45V
Column name: Acquity UPLC Peptide BEH C18 column (50*2.1 mm; 1.7 um; 130A)(Waters Co.,Milford, MA, USA)
Retention time: 8.774894
Precursor type: [M-H]-
Precursor m/z: 911.5637
m/z	relative intensity
152.994	14
223.0	25
240.998	5
241.013	46
259.023	7
259.241	3
283.236	4
283.255	36
283.266	58
285.259	3
297.036	7
303.213	7
303.234	62
309.255	5
309.281	34
315.045	9
328.235	1
329.25	37
419.254	26
419.272	6
437.264	4
439.209	3
439.259	1
445.263	22
445.285	8
463.249	2
465.245	4
496.279	1
502.357	1
506.406	1
581.277	4
581.313	21
581.34	8
599.301	6
599.343	5
601.281	7
607.325	30
625.337	5
627.289	6
723.479	1
749.495	3
751.513	1
821.552	2
824.555	3
826.669	3
829.504	2
885.541	17
885.559	5
885.592	5
908.631	1
908.703	4
911.344	1
911.492	18
911.565	999
912.568	7
