Mass spectrum: PC(16:1/12-HETE); LC-ESI-QTOF; MS2
Name: PC(16:1/12-HETE)
Class: Oxidized Phospholipid
Formula: C44H78NO9P
Exact mass: 796.082
SMILES: CCCCCC\C=C/CCCCCCCC(=O)OCC(COP([O-])(=O)OCC[N+](C)(C)C)OC(=O)CCC\C=C/C\C=C/C=C/C(O)C\C=C/CCCCC
InChI: InChI=1S/C44H78NO9P/c1-6-8-10-12-14-15-16-17-18-19-23-27-31-35-43(47)51-39-42(40-53-55(49,50)52-38-37-45(3,4)5)54-44(48)36-32-28-24-21-20-22-26-30-34-41(46)33-29-25-13-11-9-7-2/h15-16,21-22,24-26,29-30,34,41-42,46H,6-14,17-20,23,27-28,31-33,35-40H2,1-5H3/b16-15-,24-21-,26-22-,29-25-,34-30+
Instrument: Acquity UPLC Peptide BEH C18 column (50 x 2.1 mm; 1.7 um), Sciex TripleTOF5600
Instrument type: LC-ESI-QTOF
Ms type: MS2
Ion mode: NEGATIVE
Collision energy: 30-50
Precursor m/z: 854.5552726
Precursor type: [M+CH3COOH-H]-
m/z	relative intensity
78.95889	7
78.9614	4
78.96265	4
78.9639	7
135.1176	4
163.1036	4
168.029	4
168.0308	4
168.0363	4
168.0381	7
168.0399	13
168.0418	7
168.0454	13
168.0473	7
168.0491	13
168.0509	9
168.0527	7
179.0952	9
179.0971	9
179.099	4
179.1008	18
179.1027	36
179.1046	30
179.1065	22
179.1084	36
179.1103	32
179.1122	26
179.1141	20
179.116	18
179.1197	4
180.1201	7
198.3899	4
202.0956	4
203.1802	11
203.1823	4
207.1007	4
208.101	9
208.105	7
208.1071	9
208.1091	7
208.1111	13
208.1132	9
208.1172	4
224.0604	11
224.0625	7
224.0646	9
224.0667	22
224.0688	20
224.0709	20
224.073	7
224.0752	18
224.0773	7
224.0794	4
224.0836	7
224.0857	7
224.0899	4
242.0692	4
242.0736	4
242.078	4
242.0824	4
252.4207	4
252.4319	9
252.4364	4
252.4431	4
252.4453	9
252.858	4
252.9814	4
253.1879	7
253.1902	7
253.1924	9
253.1947	50
253.1969	62
253.1991	90
253.2014	164
253.2036	219
253.2059	322
253.2081	513
253.2104	646
253.2126	618
253.2149	738
253.2171	767
253.2194	715
253.2216	667
253.2238	541
253.2261	480
253.2283	312
253.2306	171
253.2328	113
253.2351	80
253.2373	68
253.2396	52
253.2418	53
253.2441	8
253.2463	14
253.2486	10
253.2553	4
254.1992	4
254.2105	4
254.215	7
254.2172	9
254.2195	11
254.2217	9
254.224	7
257.2113	4
257.2136	7
257.2159	11
257.2181	18
257.2204	20
257.2226	9
257.2249	20
257.2272	24
257.2294	15
257.2317	9
257.2339	11
257.2362	15
257.2408	4
257.2475	4
275.2349	4
275.2372	7
275.2396	4
275.2419	7
279.2145	7
279.2169	7
279.2192	11
279.2216	9
279.2239	22
279.2263	20
279.2287	30
279.231	20
279.2334	47
279.2357	36
279.2381	20
279.2404	26
279.2428	18
279.2452	9
279.2475	4
279.2523	4
279.2546	4
283.2607	4
283.2631	7
283.2702	4
283.275	4
293.1967	4
293.2015	7
293.2039	4
293.2063	7
293.2087	13
293.2112	9
293.2136	9
293.216	13
293.2184	11
293.2208	4
293.2305	4
301.1967	9
301.1992	11
301.2016	11
301.2041	11
301.2065	20
301.209	30
301.2114	39
301.2139	41
301.2163	34
301.2188	30
301.2212	32
301.2237	36
301.2261	15
301.2286	18
301.231	20
301.2335	4
301.2359	9
301.2433	4
301.2482	4
318.2117	4
318.2646	7
319.1941	4
319.1966	4
319.1991	4
319.2017	11
319.2042	9
319.2067	22
319.2092	32
319.2117	61
319.2143	86
319.2168	103
319.2193	151
319.2218	171
319.2243	173
319.2269	151
319.2294	153
319.2319	177
319.2344	168
319.2369	132
319.2395	90
319.242	56
319.2445	47
319.247	26
319.2495	26
319.2521	20
319.2546	18
319.2571	4
319.2596	11
320.2184	4
320.2285	4
333.2376	7
333.2453	4
355.1715	4
389.1964	4
389.2159	4
389.2215	4
404.2593	7
435.2373	4
455.213	4
455.2281	9
455.2401	4
455.2461	4
460.2634	4
460.2694	7
460.2755	7
460.2815	4
460.2876	9
460.2906	7
460.2936	4
460.2967	4
460.3027	4
478.2654	4
478.2685	4
478.2716	4
478.2747	13
478.2778	7
478.2809	11
478.2839	30
478.287	13
478.2901	32
478.2932	20
478.2963	26
478.2993	36
478.3024	24
478.3055	30
478.3086	9
478.3117	24
478.3148	18
478.3271	7
480.3165	4
480.3289	4
504.3146	4
504.3241	4
518.295	4
518.3014	4
526.2693	7
526.2758	7
526.2855	11
526.2887	11
526.2919	18
526.2952	18
526.3016	9
526.3049	13
526.3081	15
526.3113	9
544.2554	4
544.2653	4
544.2686	4
544.2719	4
544.2751	4
544.2784	11
544.2817	13
544.285	24
544.2883	7
544.2916	18
544.2949	39
544.2982	45
544.3015	26
544.3047	36
544.308	39
544.3113	30
544.3146	43
544.3179	20
544.3212	34
544.3245	36
544.3278	11
544.3311	7
544.3344	13
544.3377	4
544.3508	7
587.3413	4
587.3481	4
587.3652	7
587.3755	4
587.3857	9
625.3393	4
625.3428	4
625.3464	4
625.3499	7
640.4248	4
641.4036	4
668.3747	4
668.3784	7
668.3929	7
668.3966	4
668.4039	4
668.4112	9
668.4221	7
668.4258	7
669.3636	4
669.4038	7
669.4074	4
669.4111	4
669.4147	4
669.4293	4
683.3921	4
683.4032	9
683.4069	7
683.418	7
683.4253	4
683.429	4
683.4401	7
709.3918	4
709.4106	7
709.4144	4
709.4181	7
709.4219	9
709.4256	4
709.4294	18
709.4332	15
709.4369	32
709.4407	11
709.4444	22
709.4482	15
709.4519	20
709.4557	24
709.4595	13
709.4632	18
709.467	18
709.4707	22
709.4745	11
709.4782	7
709.482	18
709.4858	7
709.4895	7
709.4933	4
709.497	4
709.5008	4
735.4444	9
735.4559	9
735.4597	7
735.4712	9
735.4827	13
735.4904	7
735.4941	4
735.498	4
736.4703	4
767.5075	4
767.5153	4
778.0389	4
778.0428	4
778.0468	4
778.0625	9
778.0665	4
778.0782	4
778.0901	4
778.094	7
778.0979	4
778.1097	4
778.1176	7
780.41	7
780.4257	4
780.4336	11
780.4376	11
780.4415	11
780.4454	7
780.4494	7
780.4533	30
780.4573	26
780.4612	59
780.4651	21
780.4691	64
780.473	155
780.477	168
780.4809	228
780.4849	315
780.4888	310
780.4927	406
780.4967	513
780.5006	574
780.5046	648
780.5085	800
780.5125	813
780.5164	866
780.5203	938
780.5243	999
780.5283	964
780.5322	925
780.5361	816
780.54	891
780.544	758
780.5479	701
780.5519	528
780.5558	472
780.5598	381
780.5637	292
780.5676	224
780.5716	132
780.5755	117
780.5795	85
780.5834	94
780.5873	52
780.5913	53
780.5952	24
780.5992	22
780.6031	11
780.6071	11
780.611	13
780.6149	4
780.6426	4
780.7332	4
780.8712	4
781.2734	4
781.4785	4
781.4825	4
781.4865	11
781.4904	7
781.4943	13
781.4982	11
781.5022	15
781.5062	20
781.5101	7
781.514	15
781.5179	13
781.5219	15
781.5259	26
781.5298	11
781.5338	26
781.5377	26
781.5416	9
781.5456	32
781.5495	24
781.5535	13
781.5574	11
781.5613	7
781.5653	4
781.5693	4
781.5732	11
781.5771	7
781.5811	7
781.589	7
781.6008	4
785.242	4
794.5014	9
794.5054	4
794.5133	9
794.5173	4
794.5213	4
794.5253	9
794.5292	7
794.5332	7
794.5372	18
794.5411	4
794.5452	13
794.5491	13
794.5531	7
794.5571	11
794.561	7
794.565	7
794.569	7
794.573	7
795.4442	4
795.4522	9
795.4562	4
795.4601	7
795.4641	13
795.4681	9
795.4721	9
795.4761	15
795.48	22
795.484	11
795.488	4
795.492	18
795.496	7
795.4999	9
795.5039	7
795.5079	9
795.5119	22
795.5198	9
795.5238	4
795.5278	9
836.5157	7
836.5239	4
836.528	4
836.5443	4
854.4525	4
854.4608	4
854.469	4
854.4772	9
854.4814	4
854.4937	9
854.4979	13
854.502	18
854.5061	11
854.5103	13
854.5143	30
854.5185	24
854.5226	22
854.5267	39
854.5308	45
854.535	41
854.5391	54
854.5432	72
854.5474	63
854.5515	63
854.5556	76
854.5598	63
854.5638	80
854.568	67
854.5721	61
854.5762	69
854.5803	45
854.5845	47
854.5886	58
854.5927	50
854.5969	39
854.601	30
854.6051	24
854.6092	15
854.6133	13
854.6175	9
854.6216	9
854.6257	7
854.634	4
854.6381	9
854.6422	4
854.6464	4
855.5417	4
855.5499	4
855.5541	4
855.5871	4
