Mass spectrum: PC(16:1/20-HETE); LC-ESI-QTOF; MS2
Name: PC(16:1/20-HETE)
Class: Oxidized Phospholipid
Formula: C44H78NO9P
Exact mass: 796.082
SMILES: CCCCCC\C=C/CCCCCCCC(=O)OCC(COP([O-])(=O)OCC[N+](C)(C)C)OC(=O)CCC\C=C/C\C=C/C\C=C/C\C=C/CCCCCO
InChI: InChI=1S/C44H78NO9P/c1-5-6-7-8-9-10-11-17-20-23-26-29-32-35-43(47)51-40-42(41-53-55(49,50)52-39-37-45(2,3)4)54-44(48)36-33-30-27-24-21-18-15-13-12-14-16-19-22-25-28-31-34-38-46/h10-12,14-15,18-19,22,24,27,42,46H,5-9,13,16-17,20-21,23,25-26,28-41H2,1-4H3/b11-10-,14-12-,18-15-,22-19-,27-24-
Instrument: Acquity UPLC Peptide BEH C18 column (50 x 2.1 mm; 1.7 um), Sciex TripleTOF5600
Instrument type: LC-ESI-QTOF
Ms type: MS2
Ion mode: NEGATIVE
Collision energy: 30-50
Precursor m/z: 854.5552726
Precursor type: [M+CH3COOH-H]-
m/z	relative intensity
78.9638	6
135.1208	6
152.9973	6
163.0836	6
168.0325	6
168.0343	11
168.0361	11
168.0398	22
168.0416	9
168.0434	6
168.0453	17
168.0471	11
168.0507	17
168.0526	6
189.161	6
191.1749	6
219.1829	6
224.0602	9
224.0623	22
224.0644	9
224.0665	14
224.0686	20
224.0707	17
224.0728	17
224.075	20
224.0771	20
224.0855	6
234.9978	6
242.0778	6
242.0865	6
245.1853	6
245.2184	9
245.2206	6
245.2228	9
245.225	9
245.2272	9
245.2294	17
245.2316	6
245.2361	9
245.2449	6
252.4227	11
252.4317	6
252.6088	6
252.7052	6
252.9386	6
253.1832	6
253.1877	6
253.1922	11
253.1944	17
253.1967	35
253.1989	49
253.2012	67
253.2034	107
253.2057	181
253.2079	266
253.2102	317
253.2124	385
253.2146	417
253.2169	391
253.2191	345
253.2214	357
253.2236	274
253.2259	249
253.2281	143
253.2304	96
253.2326	79
253.2349	61
253.2371	40
253.2393	31
253.2416	11
253.2438	9
253.2461	11
253.2483	6
253.2663	6
254.2103	9
254.2193	6
254.2283	9
254.2305	6
257.2224	9
257.2315	6
257.2337	6
271.2092	6
273.2136	6
273.2182	6
273.2206	9
273.2229	9
273.2252	6
273.2275	9
273.2299	6
273.2322	6
275.2136	6
275.2229	11
275.2276	20
275.2299	6
275.2323	22
275.2346	40
275.237	17
275.2393	11
275.2417	17
275.244	14
275.2463	6
275.2487	9
275.251	6
279.2284	6
279.2332	6
281.2527	6
289.2044	9
289.2068	6
289.2092	9
289.2116	20
289.214	17
289.2164	14
289.2188	14
289.2212	11
289.2236	6
289.226	11
289.2284	9
291.25	6
293.2037	6
293.2109	6
293.2206	9
293.2278	6
301.1965	6
301.1989	11
301.2014	22
301.2039	22
301.2063	31
301.2087	29
301.2112	22
301.2137	26
301.2161	46
301.2185	46
301.221	29
301.2234	40
301.2259	35
301.2283	37
301.2308	6
301.2332	9
301.2357	11
301.2381	6
302.2185	6
318.2241	6
318.2442	6
318.2593	6
318.2618	6
319.0476	6
319.1888	6
319.1938	6
319.1964	32
319.1989	14
319.2014	35
319.2039	61
319.2065	67
319.209	135
319.2115	224
319.214	297
319.2165	347
319.2191	523
319.2216	589
319.2241	539
319.2266	705
319.2291	672
319.2317	634
319.2342	532
319.2367	438
319.2392	406
319.2417	245
319.2443	125
319.2468	123
319.2493	108
319.2518	84
319.2543	36
319.2569	21
319.2594	23
319.2619	16
319.2644	12
319.2669	6
319.2695	6
320.2181	6
320.2206	9
320.2282	14
320.2307	14
320.2358	9
320.2383	6
320.2434	6
320.2484	6
321.7677	6
389.224	9
404.2675	6
460.257	6
460.2661	9
460.2691	9
460.2721	9
460.2751	11
460.2782	17
460.2812	11
460.2842	14
460.2873	11
460.2903	29
460.2933	22
460.2993	9
460.3024	6
460.3115	9
460.3145	9
478.2558	6
478.2589	9
478.2651	22
478.2682	11
478.2712	11
478.2744	22
478.2774	46
478.2805	20
478.2836	71
478.2867	42
478.2898	48
478.2928	57
478.2959	77
478.299	66
478.3021	66
478.3052	22
478.3083	54
478.3114	37
478.3145	37
478.3175	22
478.3206	14
478.3237	9
479.077	6
479.321	6
526.2786	6
526.2851	14
526.2883	6
526.2916	6
526.2948	11
526.3013	17
526.3045	6
526.3077	11
526.311	6
526.3142	9
526.3239	6
544.2715	9
544.2814	11
544.2847	6
544.288	6
544.2913	6
544.2946	11
544.2978	14
544.3011	17
544.3044	11
544.3077	11
544.311	9
544.3143	14
544.3176	11
544.3209	6
544.3242	11
544.3275	9
544.3307	14
544.334	6
544.3373	6
709.444	11
709.4478	6
709.4628	9
728.7972	6
735.4593	6
735.5052	6
778.0148	6
778.066	6
778.0739	11
778.0778	6
778.0896	9
778.1093	9
778.1486	6
780.4135	6
780.4253	6
780.4292	6
780.4371	6
780.441	14
780.445	26
780.4489	11
780.4529	35
780.4568	51
780.4608	69
780.4647	23
780.4686	25
780.4726	88
780.4765	115
780.4805	217
780.4844	272
780.4883	292
780.4923	398
780.4962	468
780.5002	614
780.5041	696
780.5081	812
780.512	888
780.5159	884
780.5199	944
780.5238	885
780.5278	999
780.5317	910
780.5356	934
780.5396	971
780.5435	844
780.5475	738
780.5514	598
780.5554	549
780.5593	381
780.5632	311
780.5672	244
780.5711	211
780.5751	123
780.579	81
780.5829	32
780.5869	45
780.5908	49
780.5948	35
780.5987	13
780.6027	23
780.6066	18
780.6105	9
780.6145	6
780.6184	6
780.7327	6
781.4741	6
781.482	6
781.4899	6
781.4938	9
781.4978	26
781.5017	6
781.5057	29
781.5096	6
781.5135	14
781.5175	31
781.5214	14
781.5254	26
781.5294	22
781.5333	17
781.5372	22
781.5412	26
781.5451	26
781.5491	11
781.553	14
781.5569	6
781.5609	9
781.5688	6
781.5845	9
782.5474	6
782.9974	6
795.4478	9
795.4517	14
795.4557	6
795.4637	9
795.4677	9
795.4716	6
795.4756	11
795.4796	14
795.4836	9
795.4875	11
795.4915	6
795.4955	22
795.4995	11
795.5035	14
795.5074	11
795.5154	6
795.5193	9
795.5234	6
795.5392	6
795.5433	6
836.5519	6
854.4891	11
854.4932	20
854.4974	9
854.5015	11
854.5056	17
854.5097	20
854.5139	22
854.518	11
854.5221	22
854.5262	54
854.5303	77
854.5345	57
854.5386	46
854.5427	77
854.5469	62
854.551	86
854.5551	66
854.5592	68
854.5634	94
854.5674	62
854.5716	66
854.5757	97
854.5798	91
854.584	74
854.5881	68
854.5922	48
854.5964	35
854.6005	31
854.6046	14
854.6087	29
854.6129	11
854.6169	11
854.6211	14
854.6252	9
854.6293	6
854.6458	6
855.5659	6
855.5783	6
855.6031	6
