Mass spectrum: PC(16:0e/10-HDoHE); LC-ESI-QTOF; MS2
Name: PC(16:0e/10-HDoHE)
Class: Oxidized Phospholipid
Formula: C46H82NO8P
Exact mass: 808.137
SMILES: CCCCCCCCCCCCCCCCOCC(COP([O-])(=O)OCC[N+](C)(C)C)OC(=O)CC\C=C/C\C=C/CC(O)\C=C\C=C/C\C=C/C\C=C/CC
InChI: InChI=1S/C46H82NO8P/c1-6-8-10-12-14-16-18-19-20-21-23-27-31-35-40-52-42-45(43-54-56(50,51)53-41-39-47(3,4)5)55-46(49)38-34-30-26-25-29-33-37-44(48)36-32-28-24-22-17-15-13-11-9-7-2/h9,11,15,17,24,26,28-30,32-33,36,44-45,48H,6-8,10,12-14,16,18-23,25,27,31,34-35,37-43H2,1-5H3/b11-9-,17-15-,28-24-,30-26-,33-29-,36-32+
Instrument: Acquity UPLC Peptide BEH C18 column (50 x 2.1 mm; 1.7 um), Sciex TripleTOF5600
Instrument type: LC-ESI-QTOF
Ms type: MS2
Ion mode: NEGATIVE
Collision energy: 30-50
Precursor m/z: 866.5916581
Precursor type: [M+CH3COOH-H]-
m/z	relative intensity
153.0864	70
153.0881	56
153.0899	27
153.0916	56
153.0934	125
153.0951	42
153.0968	42
153.0986	42
161.1362	42
161.138	27
181.0889	56
181.0946	27
181.0965	27
190.1345	27
281.2124	83
281.2148	42
281.2171	83
281.2195	83
281.2218	56
281.2242	70
281.2266	70
281.2289	70
281.2313	27
281.2337	56
281.2361	42
281.2384	27
281.2408	42
299.243	42
325.2037	27
325.2088	83
325.2139	83
325.2164	27
325.2368	42
343.2065	27
343.2091	56
343.2169	70
343.2196	139
343.2222	70
343.2248	112
343.2274	83
343.23	209
343.2326	97
343.2353	125
343.2379	83
343.2405	125
343.2431	70
343.2457	42
343.2509	42
377.2337	27
377.2391	42
377.2501	27
377.2528	42
377.2583	27
423.3096	27
448.2999	42
448.3089	27
448.3119	27
448.3238	27
448.3298	27
466.3094	83
466.3155	97
466.3185	56
466.3216	125
466.3246	83
466.3276	97
466.3307	83
466.3337	83
466.3368	42
466.3398	70
466.3429	83
466.3459	97
466.349	27
466.3581	27
466.3672	27
721.4409	27
721.475	27
721.4826	42
721.4978	27
790.0403	27
790.0641	29
791.5441	29
792.4852	42
792.4931	97
792.4971	42
792.501	71
792.505	29
792.509	128
792.5129	89
792.5169	132
792.5209	236
792.5248	179
792.5289	252
792.5328	301
792.5368	452
792.5408	547
792.5447	698
792.5487	771
792.5527	699
792.5566	999
792.5606	609
792.5646	846
792.5685	635
792.5725	983
792.5765	664
792.5805	559
792.5845	679
792.5884	587
792.5924	285
792.5964	243
792.6003	300
792.6043	91
792.6083	226
792.6122	105
792.6162	93
792.6202	60
792.6242	45
792.6282	30
792.6321	30
792.7156	15
793.5262	27
793.55	27
793.558	42
793.5699	27
793.5739	42
806.5404	15
806.5724	27
807.5144	27
807.5184	42
807.5225	27
808.5051	27
866.5162	27
866.5328	27
866.5536	27
866.5577	27
866.5619	27
866.5702	56
866.5743	27
866.5785	27
866.5826	27
866.5868	70
866.5909	27
866.5951	139
866.5992	56
866.6034	83
866.6117	83
866.6158	56
866.62	42
866.6241	56
866.6284	56
866.6325	27
866.6367	42
866.6408	42
866.6533	27
867.5507	27
867.6089	27
