Mass spectrum: Cer[NS] d46:1; LC-ESI-QTOF; MS2
Name: Cer[NS] d46:1
Class: Cer_NS
Formula: C46H91NO3
Exact mass: 706.2379999999998
SMILES: CCCCCCCCCCCCCCCCCCCCCCCCCC(=O)NC(CO)C(O)\C=C\CCCCCCCCCCCCCCC
InChI: InChI=1S/C46H91NO3/c1-3-5-7-9-11-13-15-17-19-20-21-22-23-24-25-26-28-30-32-34-36-38-40-42-46(50)47-44(43-48)45(49)41-39-37-35-33-31-29-27-18-16-14-12-10-8-6-4-2/h39,41,44-45,48-49H,3-38,40,42-43H2,1-2H3,(H,47,50)/b41-39+
Instrument: AB Sciex TripleTOF 5600+ system (Q-TOF) equipped with a DuoSpray ion source
Instrument type: LC-ESI-QTOF
Ms type: MS2
Ion mode: NEGATIVE
Collision energy: 45V
Column name: Acquity UPLC Peptide BEH C18 column (50*2.1 mm; 1.7 um; 130A)(Waters Co.,Milford, MA, USA)
Retention time: 13.77286
Precursor type: [M+CH3COOH-H]-
Precursor m/z: 764.7082
m/z	relative intensity
237.214	1
253.249	0
263.237	1
263.252	1
265.252	66
267.267	2
267.28	1
277.25	0
278.273	1
278.286	3
279.268	1
283.263	1
291.267	71
293.283	4
294.278	9
296.278	1
296.294	11
306.272	1
309.275	2
319.29	1
319.303	2
322.309	1
326.287	1
326.307	3
349.347	4
366.367	2
367.351	2
375.365	1
376.214	0
377.376	79
379.396	0
392.386	23
393.417	4
394.374	5
394.403	61
395.356	2
395.387	55
405.391	1
405.411	1
408.369	1
408.38	1
408.4	2
418.398	1
419.096	1
420.418	313
421.387	1
423.413	1
434.406	2
435.411	1
436.41	47
438.422	1
438.443	0
448.413	1
448.451	4
629.644	0
630.643	0
645.658	1
654.652	0
656.639	10
656.664	28
656.683	16
658.662	0
668.662	0
672.538	0
672.659	67
672.739	1
674.677	113
674.745	1
676.704	0
686.672	4
686.7	2
702.392	0
702.439	2
702.471	2
702.496	1
704.446	0
704.683	999
705.238	0
705.424	0
705.656	1
705.696	2
764.66	0
764.689	3
764.736	2
