Mass spectrum: PI 38:5; LC-ESI-QTOF; MS2
Name: PI 38:5
Class: PI
Formula: C47H81O13P
Exact mass: 885.1279999999999
SMILES: CCCCCCCCCCCCCCCCCC(=O)OCC(COP(O)(=O)OC1C(O)C(O)C(O)C(O)C1O)OC(=O)CCC\C=C/C\C=C/C\C=C/C\C=C/C\C=C/CC
InChI: InChI=1S/C47H81O13P/c1-3-5-7-9-11-13-15-17-19-20-22-24-26-28-30-32-34-36-41(49)59-39(38-58-61(55,56)60-47-45(53)43(51)42(50)44(52)46(47)54)37-57-40(48)35-33-31-29-27-25-23-21-18-16-14-12-10-8-6-4-2/h5,7,11,13,17,19,22,24,28,30,39,42-47,50-54H,3-4,6,8-10,12,14-16,18,20-21,23,25-27,29,31-38H2,1-2H3,(H,55,56)/b7-5-,13-11-,19-17-,24-22-,30-28-
Instrument: AB Sciex TripleTOF 5600+ system (Q-TOF) equipped with a DuoSpray ion source
Instrument type: LC-ESI-QTOF
Ms type: MS2
Ion mode: NEGATIVE
Collision energy: 45V
Column name: Acquity UPLC Peptide BEH C18 column (50*2.1 mm; 1.7 um; 130A)(Waters Co.,Milford, MA, USA)
Retention time: 8.462485
Precursor type: [M-H]-
Precursor m/z: 883.532
m/z	relative intensity
78.958	6
96.969	1
134.983	0
152.994	12
171.002	0
203.18	4
223.002	20
223.17	0
224.196	0
224.208	0
229.195	0
240.263	1
241.011	89
255.231	0
257.215	4
257.228	18
259.021	8
281.248	0
282.378	0
283.201	0
283.263	135
284.268	1
297.038	14
299.194	0
300.284	0
301.216	97
303.227	1
315.045	6
417.235	0
417.941	0
419.256	69
420.233	0
432.42	0
437.208	8
437.268	5
455.229	0
485.704	0
490.461	0
520.199	0
525.261	0
553.259	0
564.52	0
579.472	0
581.304	91
599.227	2
599.257	12
599.296	9
599.323	14
600.331	0
617.251	0
617.288	1
721.444	0
721.485	0
723.485	0
763.484	0
805.49	0
809.557	0
851.503	0
865.522	0
880.709	2
880.749	1
880.804	0
881.351	0
882.533	0
882.663	0
883.239	0
883.358	0
883.526	999
883.714	0
884.047	0
884.535	3
884.591	0
