Mass spectrum: PI(16:0/10-HDoHE); LC-ESI-QTOF; MS2
Name: PI(16:0/10-HDoHE)
Class: Oxidized Phospholipid
Formula: C47H79O14P
Exact mass: 899.111
SMILES: CCCCCCCCCCCCCCCC(=O)OCC(COP(O)(=O)OC1C(O)C(O)C(O)C(O)C1O)OC(=O)CC\C=C/C\C=C/CC(O)\C=C\C=C/C\C=C/C\C=C/CC
InChI: InChI=1S/C47H79O14P/c1-3-5-7-9-11-13-15-16-17-19-21-26-30-34-40(49)58-36-39(37-59-62(56,57)61-47-45(54)43(52)42(51)44(53)46(47)55)60-41(50)35-31-27-23-22-25-29-33-38(48)32-28-24-20-18-14-12-10-8-6-4-2/h6,8,12,14,20,23-25,27-29,32,38-39,42-48,51-55H,3-5,7,9-11,13,15-19,21-22,26,30-31,33-37H2,1-2H3,(H,56,57)/b8-6-,14-12-,24-20-,27-23-,29-25-,32-28+
Instrument: Acquity UPLC Peptide BEH C18 column (50 x 2.1 mm; 1.7 um), Sciex TripleTOF5600
Instrument type: LC-ESI-QTOF
Ms type: MS2
Ion mode: NEGATIVE
Collision energy: 30-50
Precursor m/z: 897.5134677
Precursor type: [M-H]-
m/z	relative intensity
78.96705	13
113.9907	13
134.9904	13
152.9928	13
152.9963	13
152.9981	13
153.0033	13
153.0871	13
153.0906	26
153.0923	21
153.0976	34
181.0782	21
181.0858	13
181.0877	13
181.0896	13
181.0953	21
222.9913	13
222.9955	13
222.9998	21
223.0019	39
223.004	21
227.1699	13
240.9951	13
240.9995	13
241.0017	34
241.0039	52
241.0061	52
241.0083	52
241.0105	112
241.0127	52
241.0149	73
241.0171	47
241.0193	93
241.0214	34
241.0236	26
241.0302	26
255.2107	13
255.2175	21
255.2197	21
255.222	60
255.2242	34
255.2265	34
255.2288	34
255.231	34
255.2333	52
255.2355	93
255.2378	39
255.24	34
255.2423	47
255.2445	21
255.2468	13
259.0139	13
259.0229	26
259.032	13
281.2178	13
281.2202	21
281.2225	13
281.2249	13
281.2296	34
281.232	13
281.2343	13
281.2367	26
281.2391	26
281.2414	13
281.2438	21
281.2485	21
281.2533	26
281.258	13
281.2651	13
297.0316	13
297.034	21
297.0364	13
297.0437	13
297.0534	13
299.2388	13
315.041	13
315.0435	13
317.201	13
317.2236	13
325.1992	13
325.2043	13
325.2119	26
325.2145	21
325.2196	13
325.2221	21
343.2097	26
343.2149	13
343.2175	34
343.2202	39
343.2227	52
343.2254	39
343.228	26
343.2306	21
343.2332	13
343.2358	34
343.2384	21
343.2411	26
343.2437	21
343.2489	13
343.2541	13
391.2032	13
391.2116	13
391.2144	26
391.2172	13
391.2199	13
391.2227	34
391.2255	26
391.2283	26
391.2311	21
391.2367	13
391.2395	13
391.2422	21
391.2451	13
409.222	13
409.242	13
417.2386	13
479.216	13
479.2222	21
553.2451	13
553.2551	21
553.2584	34
553.2617	26
553.265	34
553.2683	13
553.275	65
553.2783	34
553.2816	21
553.2849	34
553.2882	26
553.2916	13
553.2982	13
553.3082	13
553.3181	13
571.2711	13
571.2744	21
571.2811	13
571.2845	26
571.2879	13
571.298	21
571.3047	21
571.3115	21
571.325	13
579.2916	26
579.3051	13
597.3059	13
625.282	13
625.3173	13
641.249	13
641.2526	21
641.2598	13
641.2633	13
641.274	13
641.2776	13
641.2883	13
853.7827	13
894.7104	13
894.7188	21
894.7315	13
894.7484	13
894.7568	13
897.405	13
897.4219	26
897.4304	13
897.4346	13
897.4388	52
897.4431	73
897.4473	34
897.4515	114
897.4557	169
897.46	140
897.4642	176
897.4684	285
897.4727	343
897.4769	446
897.4811	309
897.4854	511
897.4896	566
897.4938	714
897.498	740
897.5023	836
897.5065	838
897.5107	908
897.515	838
897.5192	861
897.5234	973
897.5276	882
897.5319	999
897.5361	867
897.5403	742
897.5446	638
897.5488	490
897.553	527
897.5572	415
897.5615	363
897.5657	215
897.5699	288
897.5742	130
897.5784	174
897.5826	135
897.5868	130
897.5911	80
897.5953	44
897.5995	57
897.6037	42
897.608	13
897.6164	13
898.0265	13
898.462	13
898.4705	13
898.4832	21
898.4874	13
898.4917	39
898.4959	21
898.5001	26
898.5086	13
898.5128	39
898.517	52
898.5212	13
898.5255	34
898.5297	26
898.5339	52
898.5382	21
898.5424	21
898.5466	26
898.5551	21
898.572	13
899.507	13
