Mass spectrum: PC 35:2; LC-ESI-QTOF; MS2
Name: PC 35:2
Class: PC
Formula: C43H82NO8P
Exact mass: 772.1039999999998
SMILES: CCCCCCCCCCCCCCCCC(=O)OCC(COP([O-])(=O)OCC[N+](C)(C)C)OC(=O)CCCCCCC\C=C/C\C=C/CCCCC
InChI: InChI=1S/C43H82NO8P/c1-6-8-10-12-14-16-18-20-22-24-26-28-30-32-34-36-43(46)52-41(40-51-53(47,48)50-38-37-44(3,4)5)39-49-42(45)35-33-31-29-27-25-23-21-19-17-15-13-11-9-7-2/h14,16,20,22,41H,6-13,15,17-19,21,23-40H2,1-5H3/b16-14-,22-20-
Instrument: AB Sciex TripleTOF 5600+ system (Q-TOF) equipped with a DuoSpray ion source
Instrument type: LC-ESI-QTOF
Ms type: MS2
Ion mode: NEGATIVE
Collision energy: 45V
Column name: Acquity UPLC Peptide BEH C18 column (50*2.1 mm; 1.7 um; 130A)(Waters Co.,Milford, MA, USA)
Retention time: 9.752016
Precursor type: [M+CH3COOH-H]-
Precursor m/z: 830.5896
m/z	relative intensity
168.041	21
255.23	89
265.219	6
269.247	327
269.275	14
278.35	7
279.23	999
281.244	7
283.247	16
293.246	6
327.228	11
329.236	14
420.274	4
429.282	4
436.284	4
437.286	4
438.296	7
458.261	21
476.313	13
480.306	4
486.292	20
494.308	28
494.324	47
504.309	11
711.507	4
748.501	18
748.527	37
756.546	985
756.613	14
770.567	4
771.478	7
771.554	4
830.56	21
830.584	58
