Mass spectrum: PC 34:3; LC-ESI-QTOF; MS2
Name: PC 34:3
Class: PC
Formula: C42H78NO8P
Exact mass: 756.0609999999999
SMILES: CCCCCC\C=C/CCCCCCCC(=O)OCC(COP([O-])(=O)OCC[N+](C)(C)C)OC(=O)CCCCCCC\C=C/C\C=C/CCCCC
InChI: InChI=1S/C42H78NO8P/c1-6-8-10-12-14-16-18-20-21-23-25-27-29-31-33-35-42(45)51-40(39-50-52(46,47)49-37-36-43(3,4)5)38-48-41(44)34-32-30-28-26-24-22-19-17-15-13-11-9-7-2/h14,16-17,19-21,40H,6-13,15,18,22-39H2,1-5H3/b16-14-,19-17-,21-20-
Instrument: AB Sciex TripleTOF 5600+ system (Q-TOF) equipped with a DuoSpray ion source
Instrument type: LC-ESI-QTOF
Ms type: MS2
Ion mode: NEGATIVE
Collision energy: 45V
Column name: Acquity UPLC Peptide BEH C18 column (50*2.1 mm; 1.7 um; 130A)(Waters Co.,Milford, MA, USA)
Retention time: 8.806489
Precursor type: [M+CH3COOH-H]-
Precursor m/z: 814.5544
m/z	relative intensity
78.957	1
152.993	1
168.042	14
224.066	14
224.075	5
227.202	2
242.079	1
251.201	2
252.427	1
253.216	277
255.23	2
261.221	2
277.218	2
278.357	4
279.232	999
280.237	1
281.25	4
283.264	1
303.233	1
304.238	0
305.234	3
305.25	8
322.963	1
327.234	1
389.192	1
389.222	1
430.277	1
460.271	7
478.278	26
478.298	37
478.343	1
480.303	0
486.266	1
486.296	5
486.325	1
486.97	1
493.248	0
504.303	6
525.016	0
559.603	1
568.864	0
669.433	1
738.141	0
738.182	2
738.219	1
740.516	883
740.76	0
740.926	1
741.512	3
755.459	3
755.476	4
755.503	2
764.529	1
796.54	0
814.5	9
814.539	38
814.564	33
814.588	12
