Mass spectrum: PC(18:1e/16,17-EpDPE); LC-ESI-QTOF; MS2
Name: PC(18:1e/16,17-EpDPE)
Class: Oxidized Phospholipid
Formula: C48H84NO8P
Exact mass: 834.175
SMILES: CCCCCCCCCCCCCCCC\C=C/OCC(COP([O-])(=O)OCC[N+](C)(C)C)OC(=O)CC\C=C/C\C=C/C\C=C/C\C=C/CC1OC1C\C=C/CC
InChI: InChI=1S/C48H84NO8P/c1-6-8-10-11-12-13-14-15-16-17-20-23-26-29-32-36-41-53-43-45(44-55-58(51,52)54-42-40-49(3,4)5)56-48(50)39-35-31-28-25-22-19-18-21-24-27-30-34-38-47-46(57-47)37-33-9-7-2/h9,19,21-22,24,28,30-31,33-34,36,41,45-47H,6-8,10-18,20,23,25-27,29,32,35,37-40,42-44H2,1-5H3/b22-19-,24-21-,31-28-,33-9-,34-30-,41-36-
Instrument: Acquity UPLC Peptide BEH C18 column (50 x 2.1 mm; 1.7 um), Sciex TripleTOF5600
Instrument type: LC-ESI-QTOF
Ms type: MS2
Ion mode: NEGATIVE
Collision energy: 30-50
Precursor m/z: 892.6073082
Precursor type: [M+CH3COOH-H]-
m/z	relative intensity
201.1686	77
233.1485	77
233.1528	77
245.1529	77
247.1696	77
274.1479	77
281.2108	77
281.2463	77
281.2487	77
281.2676	77
303.2281	77
343.2072	77
343.2125	77
343.2177	77
343.2203	196
343.2229	234
343.2255	158
343.2281	77
343.2308	196
343.2334	234
343.236	234
343.2386	77
343.2491	77
492.3237	234
492.33	158
492.3331	158
492.3362	77
492.3394	119
492.3456	119
492.3488	158
492.3519	119
492.355	77
492.3582	119
492.3707	77
512.8612	77
579.2952	81
810.5162	81
810.5806	81
818.5095	77
818.5135	77
818.5176	158
818.5217	119
818.5257	119
818.5297	396
818.5338	315
818.5378	672
818.5419	238
818.5459	319
818.5499	596
818.554	396
818.558	761
818.562	719
818.566	719
818.5701	719
818.5742	799
818.5782	999
818.5822	876
818.5862	557
818.5903	884
818.5943	834
818.5983	434
818.6024	519
818.6064	396
818.6105	238
818.6145	200
818.6185	361
818.6226	119
818.6266	158
818.6307	77
818.6468	77
819.5675	77
819.5917	119
832.5606	77
883.528	77
883.5364	77
883.5532	77
883.5615	77
892.5132	77
892.5596	77
892.5723	234
892.5807	77
892.5849	77
892.5891	77
892.5933	77
892.6018	158
892.606	77
892.6144	234
892.6271	196
892.6313	119
892.6439	77
892.6481	77
892.6566	77
892.6693	119
