Mass spectrum: PI(18:0/12-HETE); LC-ESI-QTOF; MS2
Name: PI(18:0/12-HETE)
Class: Oxidized Phospholipid
Formula: C47H83O14P
Exact mass: 903.143
SMILES: CCCCCCCCCCCCCCCCCC(=O)OCC(COP(O)(=O)OC1C(O)C(O)C(O)C(O)C1O)OC(=O)CCC\C=C/C\C=C/C=C/C(O)C\C=C/CCCCC
InChI: InChI=1S/C47H83O14P/c1-3-5-7-9-11-12-13-14-15-16-17-18-22-26-30-34-40(49)58-36-39(37-59-62(56,57)61-47-45(54)43(52)42(51)44(53)46(47)55)60-41(50)35-31-27-23-20-19-21-25-29-33-38(48)32-28-24-10-8-6-4-2/h20-21,23-25,28-29,33,38-39,42-48,51-55H,3-19,22,26-27,30-32,34-37H2,1-2H3,(H,56,57)/b23-20-,25-21-,28-24-,33-29+
Instrument: Acquity UPLC Peptide BEH C18 column (50 x 2.1 mm; 1.7 um), Sciex TripleTOF5600
Instrument type: LC-ESI-QTOF
Ms type: MS2
Ion mode: NEGATIVE
Collision energy: 30-50
Precursor m/z: 901.5447679
Precursor type: [M-H]-
m/z	relative intensity
78.96002	14
78.96379	14
152.9957	14
152.9975	14
179.1009	14
179.1065	21
179.1084	21
179.1103	21
179.1122	21
222.9973	14
222.9994	35
240.9992	28
241.0014	28
241.0036	64
241.0058	57
241.008	35
241.0102	21
241.0124	64
241.0146	43
241.0167	35
241.0189	64
241.0255	14
241.0277	21
257.2251	14
259.0091	14
259.0227	14
259.0318	21
283.2491	14
283.2514	35
283.2538	35
283.2562	14
283.2585	14
283.2609	43
283.2633	70
283.2657	70
283.2681	50
283.2704	70
283.2728	43
283.2752	28
283.2776	35
283.2799	28
283.2823	14
284.7399	14
297.0461	14
301.1994	14
301.2068	14
301.2117	21
301.219	21
315.046	14
315.051	21
319.2095	21
319.212	64
319.2145	43
319.2171	43
319.2196	70
319.2221	77
319.2246	35
319.2271	64
319.2297	98
319.2322	57
319.2347	57
319.2372	70
319.2397	14
319.2423	43
319.2675	14
419.2331	14
419.2389	14
419.2418	21
419.2447	21
419.2476	21
419.2504	14
419.2562	50
419.2591	28
419.262	35
419.2649	28
419.2678	14
419.2736	14
455.2136	14
494.5655	14
581.2848	21
581.2916	14
581.2984	28
581.3052	14
581.3087	21
581.312	35
581.3154	21
581.3188	35
581.3223	21
581.3325	35
582.282	14
599.3127	28
599.3162	14
599.3196	35
599.3231	14
599.3265	14
599.33	14
617.2583	14
617.2653	14
617.2688	21
617.2723	14
617.2828	14
617.2933	14
617.3004	21
635.305	14
708.3712	14
901.4583	35
901.4625	36
901.4667	36
901.4709	36
901.4752	28
901.4794	50
901.4837	99
901.4879	79
901.4921	65
901.4964	102
901.5006	134
901.5049	187
901.5091	265
901.5134	274
901.5176	395
901.5218	358
901.5261	506
901.5303	626
901.5345	558
901.5388	688
901.543	999
901.5472	750
901.5515	819
901.5557	774
901.5599	949
901.5641	825
901.5684	837
901.5726	649
901.5769	596
901.5811	496
901.5854	420
901.5896	442
901.5938	410
901.5981	236
901.6023	275
901.6066	191
901.6108	167
901.615	98
901.6193	77
901.6235	54
901.6277	33
901.632	22
902.488	14
902.5007	14
902.5176	14
902.5219	14
902.5304	57
902.5346	21
902.5389	14
902.5431	14
902.5473	14
902.5516	21
902.5558	43
902.5601	50
902.5643	57
902.5685	21
902.5728	43
902.577	28
902.5812	21
902.5855	14
902.5939	14
902.5982	28
902.6024	28
902.6109	14
902.6321	14
