Mass spectrum: PE 38:2; LC-ESI-QTOF; MS2
Name: PE 38:2
Class: PE
Formula: C43H82NO8P
Exact mass: 772.1039999999998
SMILES: CCCCCCCCCCCCCCCCCC(=O)OCC(COP(O)(=O)OCCN)OC(=O)CCCCCCCCC\C=C/C\C=C/CCCCC
InChI: InChI=1S/C43H82NO8P/c1-3-5-7-9-11-13-15-17-19-20-22-24-26-28-30-32-34-36-43(46)52-41(40-51-53(47,48)50-38-37-44)39-49-42(45)35-33-31-29-27-25-23-21-18-16-14-12-10-8-6-4-2/h11,13,17,19,41H,3-10,12,14-16,18,20-40,44H2,1-2H3,(H,47,48)/b13-11-,19-17-
Instrument: AB Sciex TripleTOF 5600+ system (Q-TOF) equipped with a DuoSpray ion source
Instrument type: LC-ESI-QTOF
Ms type: MS2
Ion mode: NEGATIVE
Collision energy: 45V
Column name: Acquity UPLC Peptide BEH C18 column (50*2.1 mm; 1.7 um; 130A)(Waters Co.,Milford, MA, USA)
Retention time: 11.44088
Precursor type: [M-H]-
Precursor m/z: 770.5727
m/z	relative intensity
100.932	6
140.012	11
141.017	4
196.036	6
279.226	13
279.252	9
281.252	15
282.367	6
283.264	346
298.971	4
306.314	4
307.26	999
307.308	9
309.276	9
311.304	10
315.013	4
328.993	4
335.302	6
372.922	4
411.02	4
420.954	4
462.293	6
464.991	4
480.286	13
480.309	24
486.282	9
504.287	4
770.509	22
770.563	470
770.592	117
770.621	22
770.638	11
771.588	4
