Mass spectrum: PG 36:2; LC-ESI-QTOF; MS2
Name: PG 36:2
Class: PG
Formula: C42H79O10P
Exact mass: 775.0600000000001
SMILES: CCCCCCCC\C=C/CCCCCCCC(=O)OCC(COP(O)(=O)OCC(O)CO)OC(=O)CCCCCCC\C=C/CCCCCCCC
InChI: InChI=1S/C42H79O10P/c1-3-5-7-9-11-13-15-17-19-21-23-25-27-29-31-33-41(45)49-37-40(38-51-53(47,48)50-36-39(44)35-43)52-42(46)34-32-30-28-26-24-22-20-18-16-14-12-10-8-6-4-2/h17-20,39-40,43-44H,3-16,21-38H2,1-2H3,(H,47,48)/b19-17-,20-18-
Instrument: AB Sciex TripleTOF 5600+ system (Q-TOF) equipped with a DuoSpray ion source
Instrument type: LC-ESI-QTOF
Ms type: MS2
Ion mode: NEGATIVE
Collision energy: 45V
Column name: Acquity UPLC Peptide BEH C18 column (50*2.1 mm; 1.7 um; 130A)(Waters Co.,Milford, MA, USA)
Retention time: 8.413065
Precursor type: [M-H]-
Precursor m/z: 773.5363
m/z	relative intensity
78.953	0
152.991	3
153.005	1
166.897	0
171.009	0
227.026	0
253.211	1
255.229	1
279.229	2
280.231	1
280.355	2
280.381	2
281.165	1
281.249	999
281.493	1
282.243	2
283.26	2
307.265	3
309.274	1
417.235	2
491.271	5
491.288	2
509.285	9
509.308	1
713.481	0
771.122	1
773.268	0
773.457	3
773.535	394
773.616	3
773.786	1
774.534	1
