Mass spectrum: Cer[NS] d40:1; LC-ESI-QTOF; MS2
Name: Cer[NS] d40:1
Class: Cer_NS
Formula: C40H79NO3
Exact mass: 622.0759999999998
SMILES: CCCCCCCCCCCCCCCCCCCCCC(=O)NC(CO)C(O)\C=C\CCCCCCCCCCCCC
InChI: InChI=1S/C40H79NO3/c1-3-5-7-9-11-13-15-17-18-19-20-21-22-24-26-28-30-32-34-36-40(44)41-38(37-42)39(43)35-33-31-29-27-25-23-16-14-12-10-8-6-4-2/h33,35,38-39,42-43H,3-32,34,36-37H2,1-2H3,(H,41,44)/b35-33+
Instrument: AB Sciex TripleTOF 5600+ system (Q-TOF) equipped with a DuoSpray ion source
Instrument type: LC-ESI-QTOF
Ms type: MS2
Ion mode: NEGATIVE
Collision energy: 45V
Column name: Acquity UPLC Peptide BEH C18 column (50*2.1 mm; 1.7 um; 130A)(Waters Co.,Milford, MA, USA)
Retention time: 13.08264
Precursor type: [M+CH3COOH-H]-
Precursor m/z: 680.6145
m/z	relative intensity
209.193	1
223.201	0
225.227	1
235.204	6
236.483	1
237.22	165
239.236	5
248.235	1
249.224	1
250.251	8
255.228	1
261.221	1
262.411	1
263.205	1
263.237	134
265.248	3
265.26	1
266.246	35
268.265	24
280.268	1
281.246	3
291.267	2
293.284	3
298.271	11
310.311	2
311.287	1
319.307	1
320.327	1
321.314	195
323.321	1
323.339	1
335.324	1
336.321	9
337.347	15
338.264	1
338.34	189
339.324	129
349.347	3
352.319	1
352.35	4
362.325	2
362.344	2
363.203	1
363.222	2
363.249	1
364.355	772
365.36	1
366.362	1
367.355	1
378.328	3
378.347	3
378.371	3
379.165	1
379.336	2
380.309	2
380.35	108
382.36	2
382.376	2
392.364	2
392.385	3
392.404	2
394.366	2
408.376	1
545.547	2
545.577	0
561.548	1
561.585	1
570.556	0
570.765	0
572.57	117
572.631	1
574.591	2
584.547	0
584.578	2
588.565	145
588.73	0
589.581	0
590.581	242
592.596	1
602.564	5
602.584	4
602.612	1
618.61	3
618.635	4
618.658	1
618.703	1
620.136	0
620.442	0
620.591	999
621.579	2
621.609	1
647.583	1
647.621	0
680.607	1
680.638	0
