Mass spectrum: Cer[NS] d39:1; LC-ESI-QTOF; MS2
Name: Cer[NS] d39:1
Class: Cer_NS
Formula: C39H77NO3
Exact mass: 608.0489999999999
SMILES: CCCCCCCCCCCCCCCCCCCCC(=O)NC(CO)C(O)\C=C\CCCCCCCCCCCCC
InChI: InChI=1S/C39H77NO3/c1-3-5-7-9-11-13-15-17-18-19-20-21-23-25-27-29-31-33-35-39(43)40-37(36-41)38(42)34-32-30-28-26-24-22-16-14-12-10-8-6-4-2/h32,34,37-38,41-42H,3-31,33,35-36H2,1-2H3,(H,40,43)/b34-32+
Instrument: AB Sciex TripleTOF 5600+ system (Q-TOF) equipped with a DuoSpray ion source
Instrument type: LC-ESI-QTOF
Ms type: MS2
Ion mode: NEGATIVE
Collision energy: 45V
Column name: Acquity UPLC Peptide BEH C18 column (50*2.1 mm; 1.7 um; 130A)(Waters Co.,Milford, MA, USA)
Retention time: 12.90969
Precursor type: [M+CH3COOH-H]-
Precursor m/z: 666.6004
m/z	relative intensity
235.211	54
237.226	90
263.242	54
307.3	144
324.326	72
338.342	54
350.343	387
364.355	239
366.342	114
378.371	110
380.346	36
422.388	36
558.55	74
558.573	36
576.572	222
606.577	999
606.59	221
606.597	146
606.604	92
606.615	92
620.597	36
