Mass spectrum: PI(18:0/18-HEPE); LC-ESI-QTOF; MS2
Name: PI(18:0/18-HEPE)
Class: Oxidized Phospholipid
Formula: C47H81O14P
Exact mass: 901.127
SMILES: CCCCCCCCCCCCCCCCCC(=O)OCC(COP(O)(=O)OC1C(O)C(O)C(O)C(O)C1O)OC(=O)CCC\C=C/C\C=C/C\C=C/C\C=C/C=C/C(O)CC
InChI: InChI=1S/C47H81O14P/c1-3-5-6-7-8-9-10-11-12-16-19-22-25-28-31-34-40(49)58-36-39(37-59-62(56,57)61-47-45(54)43(52)42(51)44(53)46(47)55)60-41(50)35-32-29-26-23-20-17-14-13-15-18-21-24-27-30-33-38(48)4-2/h14-15,17-18,23-24,26-27,30,33,38-39,42-48,51-55H,3-13,16,19-22,25,28-29,31-32,34-37H2,1-2H3,(H,56,57)/b17-14-,18-15-,26-23-,27-24-,33-30+
Instrument: Acquity UPLC Peptide BEH C18 column (50 x 2.1 mm; 1.7 um), Sciex TripleTOF5600
Instrument type: LC-ESI-QTOF
Ms type: MS2
Ion mode: NEGATIVE
Collision energy: 30-50
Precursor m/z: 899.5291178
Precursor type: [M-H]-
m/z	relative intensity
71.04939	1
71.05058	1
75.59896	1
75.60019	1
76.72442	1
78.95515	3
78.9564	8
78.95766	7
78.95891	12
78.96016	9
78.96142	14
78.96267	7
78.96393	7
78.96518	3
78.96643	4
78.96769	2
78.96894	2
78.9702	1
78.97145	1
78.9727	1
78.97646	0
79.33172	0
81.07168	1
81.07295	1
81.07676	1
93.07067	1
93.07339	1
93.07612	1
93.07748	1
95.08516	1
95.08653	1
95.09066	1
96.96554	2
96.96692	2
96.96831	5
96.9697	5
96.97109	4
96.97248	3
96.97387	3
96.97526	2
96.97665	1
96.97804	1
97.06977	1
97.07255	1
105.0729	2
107.0812	1
107.0841	1
107.087	2
107.0885	2
107.0899	1
107.0914	1
109.0967	1
109.0997	1
109.1011	2
109.1026	2
109.1085	1
117.0673	1
117.0688	1
117.0703	1
119.0849	1
119.0865	1
121.1028	2
121.1043	1
121.1059	2
123.1172	1
129.0646	1
131.089	1
131.0906	1
131.0922	1
133.0982	2
133.0998	1
133.1031	2
134.9833	1
134.985	1
134.9866	1
134.9882	1
134.9915	1
135.1112	1
135.1128	2
135.1145	1
135.1161	1
135.121	2
135.1243	1
141.0884	1
147.1076	1
147.1093	1
147.1145	2
147.1162	1
147.1179	1
147.1213	1
149.1287	2
149.1305	2
149.1322	1
149.1339	2
149.1356	1
149.5892	1
150.985	1
152.5268	1
152.9802	1
152.9819	2
152.9837	2
152.9854	4
152.9872	5
152.9889	12
152.9907	10
152.9924	17
152.9942	20
152.9959	20
152.9977	20
152.9994	12
153.0011	9
153.0029	5
153.0046	5
153.0064	2
153.0081	2
153.0099	0
153.0116	0
153.0168	0
153.1268	1
153.1303	0
159.1208	1
161.1222	1
161.1258	2
161.1276	2
161.1294	2
161.1312	4
161.133	4
161.1348	2
161.1366	1
161.1384	3
161.1401	4
161.1419	3
161.1437	1
161.1473	1
163.0677	1
163.0767	1
163.138	1
163.1398	1
163.1416	2
163.1434	2
163.147	3
163.1488	2
163.1506	2
163.1524	1
163.1578	1
166.1979	1
167.1396	1
171.0034	1
171.0052	1
171.007	1
172.1381	1
173.1244	1
173.1374	1
173.1392	1
173.1411	1
175.1501	1
175.152	1
176.7691	1
177.0901	1
177.0919	1
177.1239	1
181.1196	1
181.1215	2
181.1234	1
181.1272	1
183.4017	1
187.1409	1
187.1467	1
187.1486	1
187.1506	1
189.1537	1
189.1556	2
189.1576	1
189.1595	1
189.1615	2
189.1653	1
189.1673	1
189.1692	1
189.1712	1
191.1012	1
191.107	1
191.1109	1
196.4929	1
201.1543	2
201.1563	2
201.1583	4
201.1603	6
201.1623	5
201.1643	5
201.1663	8
201.1683	6
201.1703	5
201.1723	2
201.1743	1
201.1763	1
203.1122	1
203.1182	1
203.1403	1
203.1443	1
204.9906	1
204.9926	1
207.1355	1
207.1376	1
207.1416	1
208.0361	1
212.8317	1
213.1756	1
213.4847	1
214.5147	1
214.5312	1
215.1103	1
215.1413	1
215.1434	2
215.1558	2
215.1579	1
215.16	2
215.162	2
215.1641	4
215.1662	3
215.1682	8
215.1703	16
215.1724	24
215.1745	24
215.1765	34
215.1786	36
215.1807	36
215.1827	36
215.1848	25
215.1869	22
215.1889	10
215.191	10
215.1931	5
215.1951	1
215.1972	3
215.1993	0
215.2014	1
215.2055	1
215.2138	0
215.2179	0
215.278	0
216.1877	0
216.194	0
216.634	0
219.1395	1
219.1667	1
219.1771	1
219.1834	1
220.9227	1
221.1409	1
221.1514	1
221.1535	2
221.1556	2
221.1577	1
221.164	2
221.1682	1
221.4599	1
222.2754	1
222.3132	1
222.3932	1
222.9807	2
222.9828	1
222.9849	2
222.987	3
222.9891	8
222.9912	9
222.9933	15
222.9954	20
222.9975	25
222.9996	33
223.0017	29
223.0038	25
223.0059	22
223.008	15
223.0101	9
223.0123	6
223.0144	4
223.0165	3
223.0186	3
223.0207	1
223.0228	2
223.027	0
223.1408	0
223.4782	0
223.7419	0
224.0882	0
227.1847	1
227.1868	0
233.1461	1
233.1505	1
233.1526	1
233.1548	1
233.1612	1
239.1565	1
239.1608	1
239.163	1
239.1696	1
240.2553	2
240.2597	1
240.2619	2
240.2641	1
240.2662	2
240.2684	1
240.3012	1
240.7827	1
240.9447	2
240.96	1
240.9732	1
240.9841	1
240.9863	1
240.9885	1
240.9907	4
240.9929	7
240.9951	7
240.9973	20
240.9995	37
241.0017	78
241.0038	99
241.006	146
241.0082	148
241.0104	183
241.0126	183
241.0148	169
241.017	159
241.0192	124
241.0214	61
241.0236	38
241.0258	22
241.0279	11
241.0301	8
241.0323	4
241.0345	3
241.0367	1
241.0411	1
241.0455	1
241.0608	0
241.098	1
241.1572	1
241.1594	1
241.2755	1
241.7426	1
242.0125	2
242.0169	1
242.0191	1
242.0213	1
242.0279	1
243.1773	1
243.4348	1
244.3999	1
245.1196	1
245.1373	1
245.1417	1
245.1505	1
245.1549	1
245.1571	3
245.1593	1
245.1638	1
245.1682	1
245.7562	1
247.3314	1
254.4427	1
254.4809	1
254.5439	1
255.0282	1
255.1409	1
255.1724	2
255.1837	1
255.1882	1
255.1904	2
255.1927	4
255.1949	8
255.1972	9
255.1994	19
255.2017	20
255.204	31
255.2062	38
255.2085	45
255.2107	57
255.213	54
255.2152	45
255.2175	37
255.2197	28
255.222	21
255.2242	10
255.2265	10
255.2288	5
255.231	1
255.2333	2
255.2355	2
255.2378	0
255.24	1
255.2423	0
255.2671	0
255.3911	0
255.6347	0
256.2102	1
257.0126	0
257.5038	1
258.349	1
258.3648	1
258.771	1
258.8867	1
258.9957	1
258.998	1
259.0003	2
259.0025	0
259.0048	1
259.0071	3
259.0093	3
259.0116	6
259.0139	10
259.0162	13
259.0184	15
259.0207	11
259.023	13
259.0252	10
259.0275	10
259.0298	9
259.032	10
259.0343	3
259.0366	4
259.0388	1
259.0411	1
259.0434	2
259.0457	0
259.0547	1
259.0684	1
259.082	1
259.1388	2
259.1456	0
259.1479	1
259.1501	4
259.1524	6
259.1547	10
259.157	17
259.1592	19
259.1615	25
259.1638	33
259.166	35
259.1683	52
259.1706	48
259.1729	51
259.1751	41
259.1774	33
259.1797	25
259.1819	19
259.1842	8
259.1865	6
259.1888	4
259.191	4
259.1933	3
259.1956	2
259.1978	1
259.2001	0
259.2228	0
259.2342	0
259.4137	0
259.6774	0
260.1573	0
260.171	1
260.1733	2
260.1778	1
261.1734	1
261.1779	1
261.1802	1
261.1825	1
261.1848	1
261.1893	2
261.1916	1
271.1936	1
271.2006	1
271.2052	2
271.2076	1
271.2099	2
271.2122	1
271.2145	1
272.3636	1
272.3683	1
272.515	1
273.0277	1
273.079	1
273.1932	1
273.1956	1
273.2026	2
273.2049	3
273.2072	5
273.2096	6
273.2119	7
273.2142	12
273.2166	16
273.2189	14
273.2212	18
273.2236	18
273.2259	16
273.2282	12
273.2306	12
273.2329	10
273.2352	5
273.2375	5
273.2399	5
273.2422	4
273.2446	2
273.2469	1
274.0171	0
274.2203	1
274.2227	1
274.2344	0
281.1801	1
281.1895	1
282.3666	1
282.369	1
282.3737	1
282.3785	2
282.3832	1
282.388	1
282.3904	2
282.3927	1
282.4117	1
282.5753	1
283.0665	1
283.1971	1
283.2208	1
283.228	1
283.2327	0
283.2351	0
283.2375	1
283.2398	3
283.2422	6
283.2446	10
283.2469	22
283.2493	27
283.2517	47
283.2541	83
283.2565	105
283.2588	143
283.2612	157
283.2636	166
283.266	160
283.2683	154
283.2707	128
283.2731	88
283.2755	64
283.2778	33
283.2802	19
283.2826	13
283.285	6
283.2873	9
283.2897	6
283.2921	2
283.2945	2
283.2968	1
283.2992	2
283.3016	1
283.3728	1
283.4275	1
283.5724	1
283.6009	0
283.6698	1
284.2499	1
284.2547	1
284.2595	1
284.2618	1
284.2642	2
284.2666	2
284.269	1
284.2714	1
284.2737	1
284.2785	2
284.2809	2
286.3353	1
286.3639	1
286.395	1
288.6607	1
293.1344	1
293.787	1
295.0556	1
295.7298	1
296.1035	1
296.3051	1
297.0147	1
297.0172	2
297.0196	3
297.022	4
297.0245	7
297.0269	11
297.0293	12
297.0318	19
297.0342	18
297.0366	21
297.0391	19
297.0415	21
297.0439	17
297.0464	12
297.0488	12
297.0512	7
297.0536	4
297.0561	3
297.0585	0
297.0609	1
297.0634	2
297.1996	0
298.0418	1
298.0442	1
298.2586	1
298.2684	1
298.2733	1
298.2757	1
298.2903	1
298.4195	1
298.5755	1
299.0511	1
299.1658	1
299.1707	2
299.1731	1
299.1756	1
299.178	4
299.1805	8
299.1829	8
299.1853	17
299.1878	25
299.1902	34
299.1926	42
299.1951	42
299.1975	56
299.2	58
299.2024	79
299.2049	63
299.2073	62
299.2097	48
299.2122	34
299.2146	21
299.217	18
299.2195	11
299.2219	5
299.2244	3
299.2268	2
299.2292	2
299.2317	1
299.2366	1
299.239	1
299.4294	0
300.199	1
300.2039	1
300.2088	1
300.2137	1
300.2234	1
308.1943	1
310.1245	1
310.4849	1
314.8485	1
315.0238	1
315.0263	2
315.0288	2
315.0313	2
315.0338	4
315.0363	4
315.0388	5
315.0413	13
315.0438	11
315.0463	9
315.0488	11
315.0513	14
315.0538	9
315.0563	9
315.0588	5
315.0613	6
315.0638	4
315.0663	3
315.0688	1
315.0714	1
315.0739	2
315.0864	0
315.1891	1
315.2016	1
315.2091	1
316.2119	1
316.2169	1
316.2195	2
316.222	2
316.227	2
316.2295	2
317.1083	1
317.1761	1
317.1786	1
317.1812	1
317.1837	1
317.1862	7
317.1887	10
317.1912	18
317.1937	21
317.1963	45
317.1988	62
317.2013	88
317.2038	114
317.2063	133
317.2088	164
317.2113	175
317.2138	186
317.2163	155
317.2189	140
317.2214	97
317.2239	69
317.2264	47
317.2289	26
317.2314	22
317.2339	9
317.2365	9
317.239	7
317.2415	4
317.244	2
317.2465	1
317.249	2
317.2515	1
317.2616	1
317.6236	1
317.9481	1
317.9808	1
318.099	1
318.1594	1
318.2047	2
318.2072	1
318.2098	1
318.2123	3
318.2148	2
318.2173	3
318.2198	2
318.2224	1
318.2324	1
318.235	1
320.2846	1
325.8029	1
326.2462	1
328.6411	1
417.9373	1
417.9402	1
417.9431	1
417.9575	1
417.9661	1
419.2046	1
419.2074	2
419.2132	0
419.2161	1
419.219	0
419.2219	1
419.2248	3
419.2277	6
419.2306	7
419.2334	15
419.2363	21
419.2392	28
419.2421	30
419.245	43
419.2479	58
419.2508	59
419.2537	68
419.2566	70
419.2594	65
419.2623	78
419.2652	55
419.2681	51
419.271	46
419.2739	31
419.2768	20
419.2797	17
419.2826	11
419.2854	7
419.2883	5
419.2912	2
419.2941	2
419.297	2
419.2999	1
419.3057	1
419.3086	0
419.3172	0
419.9762	0
420.2278	0
420.2365	0
420.251	1
420.2568	1
420.2597	1
420.2683	2
420.2712	1
435.1969	1
435.247	1
437.2362	1
437.2392	2
437.2451	2
437.248	2
437.2509	2
437.2539	3
437.2569	2
437.2598	6
437.2628	4
437.2657	6
437.2686	8
437.2716	8
437.2746	7
437.2775	5
437.2805	4
437.2834	4
437.2863	3
437.2893	2
437.2923	2
437.2952	1
437.2982	2
437.307	1
451.7825	1
451.7855	1
451.7885	1
451.7945	1
451.8335	1
453.1451	1
453.1602	1
453.1631	2
453.1661	0
453.1692	2
453.1721	4
453.1752	1
453.1782	4
453.1812	5
453.1842	5
453.1872	10
453.1902	13
453.1932	21
453.1962	20
453.1992	26
453.2022	22
453.2052	34
453.2082	26
453.2112	30
453.2142	26
453.2172	20
453.2202	13
453.2232	9
453.2262	7
453.2292	8
453.2322	5
453.2352	4
453.2383	2
453.2412	1
453.2443	1
453.2473	1
453.2503	0
453.2563	0
454.2241	1
455.2802	0
471.2446	1
474.2327	1
487.2786	1
489.0275	1
492.3154	1
492.9512	1
495.5673	1
495.5987	1
498.5652	1
498.6314	1
499.4131	1
499.7064	1
502.5459	1
506.6695	1
507.2668	1
507.2953	1
507.343	1
508.1697	1
508.5228	1
509.4778	1
509.8314	1
510.8067	1
512.5142	1
515.3738	1
517.4741	1
518.0359	1
518.264	1
521.4682	1
521.9935	1
522.7643	1
525.2642	1
525.2739	1
525.2772	1
525.2804	1
525.2836	1
525.2869	1
525.2966	1
526.9503	1
533.0604	1
533.4905	1
559.2267	1
559.2401	1
565.8898	1
569.0089	1
579.4904	1
579.5006	1
579.521	1
579.5651	1
580.4827	1
580.8839	1
581.2444	1
581.2546	2
581.2614	3
581.2648	2
581.2682	7
581.2716	7
581.275	5
581.2784	11
581.2818	22
581.2852	14
581.2886	32
581.292	33
581.2954	57
581.2988	60
581.3022	65
581.3056	68
581.309	64
581.3124	82
581.3158	72
581.3192	76
581.3226	61
581.326	63
581.3294	47
581.3328	45
581.3362	35
581.3397	21
581.343	16
581.3464	6
581.3499	9
581.3533	6
581.3566	6
581.36	1
581.3635	1
581.3668	3
581.3702	1
581.3737	0
581.3804	0
581.4689	1
581.5744	1
582.2823	1
582.2994	1
582.3062	1
582.3096	1
582.313	1
582.3164	2
582.3198	1
582.3267	2
593.892	1
594.5833	1
598.336	1
599.2164	1
599.2613	2
599.2648	2
599.2682	1
599.2717	0
599.2751	2
599.2786	2
599.282	5
599.2855	3
599.2889	7
599.2924	8
599.2958	10
599.2993	15
599.3027	21
599.3062	20
599.3096	30
599.3131	32
599.3166	30
599.32	37
599.3235	36
599.3269	32
599.3304	34
599.3339	35
599.3373	33
599.3408	25
599.3442	18
599.3477	15
599.3511	8
599.3546	11
599.358	5
599.3615	4
599.3649	1
599.3684	1
599.3718	1
599.3753	2
599.3787	1
599.396	0
599.4236	0
599.8245	0
600.3187	1
600.3256	1
600.329	2
600.336	1
600.3429	1
600.3464	1
600.3533	1
600.3568	1
601.7092	1
614.2546	1
615.1992	2
615.2027	2
615.2062	1
615.2097	1
615.2132	2
615.2167	0
615.2202	4
615.2237	5
615.2272	4
615.2307	8
615.2342	9
615.2377	13
615.2411	19
615.2447	19
615.2482	21
615.2517	28
615.2552	25
615.2587	24
615.2622	29
615.2657	26
615.2692	32
615.2727	29
615.2762	28
615.2797	23
615.2832	13
615.2867	19
615.2902	10
615.2937	6
615.2972	1
615.3007	5
615.3042	2
615.3077	1
615.3112	1
615.3182	1
615.3217	0
615.3322	0
616.232	1
616.2426	1
616.2531	2
616.274	1
633.2338	1
633.2408	2
633.2444	1
633.2479	2
633.2515	2
633.2551	2
633.2586	2
633.2621	4
633.2657	2
633.2692	2
633.2728	4
633.2764	3
633.2799	2
633.2834	2
633.287	3
633.2905	4
633.2941	2
633.2977	1
633.3012	1
633.3083	1
667.4609	1
734.268	1
737.4257	1
737.4295	1
737.4333	1
737.441	2
737.4449	2
737.4487	2
737.4525	2
737.4564	3
737.4602	3
737.464	3
737.4678	4
737.4717	3
737.4755	4
737.4794	4
737.4832	4
737.487	8
737.4908	4
737.4947	4
737.4985	4
737.5023	2
737.5062	2
737.51	2
737.5176	1
737.5215	1
738.4797	1
881.5447	1
890.3264	1
895.2167	1
896.2936	1
896.5809	1
896.6104	1
896.6147	1
896.6231	1
896.6358	2
896.64	3
896.6442	2
896.6484	4
896.6527	2
896.6569	5
896.6611	4
896.6653	4
896.6696	5
896.6738	8
896.678	6
896.6823	7
896.6865	5
896.6907	9
896.6949	10
896.6992	10
896.7034	14
896.7076	16
896.7119	11
896.7161	10
896.7203	10
896.7245	8
896.7288	10
896.733	12
896.7372	8
896.7414	4
896.7457	7
896.7499	4
896.7541	4
896.7583	4
896.7625	2
896.7668	3
896.771	5
896.7752	3
896.7794	2
896.7837	2
896.7879	4
896.7921	1
896.7963	1
896.8048	1
897.0161	1
897.0837	1
897.3542	1
897.3753	1
897.4429	1
897.4598	1
897.4641	1
897.5656	1
897.5825	1
897.5909	1
897.5951	1
897.6163	1
897.6797	1
897.6923	1
897.7008	1
897.7135	1
897.9207	1
898.2462	1
898.335	1
898.3393	1
898.3858	2
898.4027	1
898.4069	1
898.4196	1
898.4238	1
898.4408	1
898.4492	1
898.4661	1
898.483	1
898.5084	1
898.5211	1
898.5423	1
898.5465	1
898.5507	1
898.5592	1
898.5634	1
898.5676	1
898.5803	1
898.5846	2
898.593	1
898.6184	1
898.6226	1
898.6607	1
898.7199	1
898.7411	1
898.7707	1
898.8722	1
898.9061	1
898.9145	1
898.9441	1
898.9526	1
898.9738	1
899.0245	1
899.0372	1
899.0541	2
899.0668	1
899.0922	1
899.1387	1
899.1726	1
899.1768	1
899.1852	1
899.1895	1
899.1937	1
899.2022	1
899.2064	1
899.2318	1
899.2445	1
899.2572	1
899.2614	1
899.2657	1
899.2741	1
899.2784	1
899.2826	1
899.2868	1
899.2995	1
899.3037	1
899.308	1
899.3165	1
899.3249	1
899.3291	1
899.3503	1
899.3588	2
899.3757	3
899.3884	3
899.3926	2
899.3969	8
899.4011	3
899.418	2
899.4688	1
899.473	3
899.4772	11
899.4814	5
899.4857	37
899.4899	53
899.4941	112
899.4984	204
899.5026	326
899.5068	453
899.5111	618
899.5153	757
899.5195	952
899.5238	923
899.528	745
899.5322	516
899.5365	599
899.5407	855
899.5449	864
899.5492	866
899.5534	999
899.5576	827
899.5619	518
899.5661	226
899.5703	68
899.5746	18
899.5788	17
899.583	4
899.5873	4
899.5915	1
899.5957	1
899.6127	1
900.0148	3
900.0698	1
900.0782	2
900.1121	3
900.146	1
900.2983	3
900.3153	1
900.3195	1
900.3619	1
900.4296	1
900.4508	1
900.4635	1
900.4847	3
900.4889	5
900.4931	8
900.4974	6
900.5016	18
900.5059	16
900.5101	21
900.5143	21
900.5186	38
900.5228	44
900.527	50
900.5313	51
900.5355	65
900.5397	66
900.5439	70
900.5482	66
900.5524	50
900.5566	57
900.5609	53
900.5651	39
900.5693	30
900.5736	26
900.5778	22
900.582	18
900.5863	8
900.5905	7
900.5947	6
900.599	4
900.6032	5
900.6074	2
900.6117	3
900.6159	1
900.6202	1
900.6244	2
900.6286	1
900.6371	1
900.6456	1
900.671	1
900.6921	0
900.7133	1
900.7175	1
900.743	1
900.7472	1
900.7514	2
900.7642	3
900.7684	1
900.7726	1
900.7769	2
900.7811	1
900.7853	1
900.7896	1
900.8065	3
900.8149	1
900.8192	2
900.8234	1
900.8827	1
900.8997	1
900.9124	1
900.9801	1
900.9886	1
901.0055	1
901.014	1
901.0182	2
901.0267	2
901.0309	7
901.0352	12
901.0394	10
901.0436	5
901.0479	4
901.0521	1
901.0563	1
901.0648	1
901.069	1
901.0733	1
901.0775	1
901.0818	1
901.0987	1
901.1072	2
901.1453	1
901.1707	1
901.1792	1
901.1919	1
901.2004	1
901.2385	1
901.2469	1
901.2554	1
901.2596	1
901.2724	1
901.2766	1
901.2808	2
901.2851	1
901.2893	1
901.3147	1
901.3359	1
901.3655	1
901.3783	1
901.4545	1
901.4757	2
901.4799	1
901.4927	1
901.4969	2
901.5011	2
901.5054	2
901.5096	1
901.5139	1
901.5181	1
901.5266	1
901.5308	2
901.5435	1
901.5519	1
901.5647	1
901.5689	1
901.7045	1
901.8782	1
901.8867	1
901.9078	1
901.9121	1
901.9248	1
902.0266	1
902.0519	1
902.0943	1
902.1494	1
902.1621	1
902.1833	1
902.1876	1
902.2512	1
902.2554	1
902.2596	1
902.3274	1
902.3317	1
902.3528	1
902.391	1
902.4249	1
902.4376	2
902.4758	1
902.5097	1
902.5521	1
902.5775	1
902.6157	2
902.6241	1
902.6411	1
902.658	1
902.6708	2
902.7131	1
902.7725	1
902.8149	1
902.9717	1
903.1329	1
903.1541	1
903.2474	1
903.2643	1
903.3068	1
903.4085	1
903.4382	1
903.5485	1
903.5994	1
903.6418	1
903.7054	1
903.7563	1
903.8666	1
903.9981	1
904.0914	1
904.0957	1
904.2484	1
904.4182	1
904.4521	1
904.5327	1
904.7025	1
904.834	1
904.8807	1
904.8849	1
904.9105	1
905.076	1
905.1821	1
905.3264	1
905.5599	1
905.7298	1
906.2734	1
906.3839	1
906.3881	1
906.6685	1
906.7365	1
906.9872	1
907.1274	1
907.2294	1
907.5566	1
907.7565	1
907.816	1
907.8712	1
907.918	1
908.3773	1
908.5984	1
908.692	1
908.8238	1
908.9004	1
909.0918	1
909.3556	1
909.4918	1
909.6109	1
909.6407	1
910.1216	1
910.1344	1
910.1472	1
910.492	1
910.8369	1
911.3735	1
911.6376	1
911.6504	1
912.4387	1
912.8692	1
912.9545	1
913.2061	1
914.9551	1
915.0234	1
915.6295	1
916.1846	1
917.8724	1
923.3865	1
924.8062	1
926.1541	1
930.8318	1
934.0675	1
