Mass spectrum: PE 40:7; LC-ESI-QTOF; MS2
Name: PE 40:7
Class: PE
Formula: C45H76NO8P
Exact mass: 790.078
SMILES: CCCCCCCC\C=C/CCCCCCCC(=O)OCC(COP(O)(=O)OCCN)OC(=O)CC\C=C/C\C=C/C\C=C/C\C=C/C\C=C/C\C=C/CC
InChI: InChI=1S/C45H76NO8P/c1-3-5-7-9-11-13-15-17-19-20-21-22-24-26-28-30-32-34-36-38-45(48)54-43(42-53-55(49,50)52-40-39-46)41-51-44(47)37-35-33-31-29-27-25-23-18-16-14-12-10-8-6-4-2/h5,7,11,13,17-19,21-23,26,28,32,34,43H,3-4,6,8-10,12,14-16,20,24-25,27,29-31,33,35-42,46H2,1-2H3,(H,49,50)/b7-5-,13-11-,19-17-,22-21-,23-18-,28-26-,34-32-
Instrument: AB Sciex TripleTOF 5600+ system (Q-TOF) equipped with a DuoSpray ion source
Instrument type: LC-ESI-QTOF
Ms type: MS2
Ion mode: NEGATIVE
Collision energy: 45V
Column name: Acquity UPLC Peptide BEH C18 column (50*2.1 mm; 1.7 um; 130A)(Waters Co.,Milford, MA, USA)
Retention time: 9.413862
Precursor type: [M-H]-
Precursor m/z: 788.5205
m/z	relative intensity
78.959	8
93.069	1
105.07	1
107.088	3
117.074	2
119.087	1
121.106	3
122.0	3
133.103	2
135.116	1
137.133	2
140.011	32
143.085	1
147.117	2
149.132	4
152.994	1
161.135	2
163.071	1
163.149	4
175.15	2
177.086	1
177.163	10
187.146	1
189.161	3
191.176	8
193.124	1
196.036	42
201.161	1
203.109	1
203.179	3
214.045	6
217.122	1
219.136	1
229.196	62
241.195	1
245.155	1
249.184	12
255.209	4
279.231	2
280.381	1
281.247	999
282.361	2
283.241	401
283.276	2
297.221	2
309.217	5
309.23	2
326.206	4
327.103	1
327.23	981
329.246	3
404.253	1
417.238	1
419.255	1
437.253	1
450.236	1
460.276	30
476.788	1
478.289	203
506.258	10
524.273	15
541.939	0
559.724	3
563.49	1
701.503	3
714.525	1
786.025	4
786.06	2
787.562	0
788.085	0
788.201	0
788.351	0
788.512	777
788.573	4
789.286	0
789.526	1
