Mass spectrum: PC(16:0/10-HDoHE); LC-ESI-QTOF; MS2
Name: PC(16:0/10-HDoHE)
Class: Oxidized Phospholipid
Formula: C46H80NO9P
Exact mass: 822.12
SMILES: CCCCCCCCCCCCCCCC(=O)OCC(COP([O-])(=O)OCC[N+](C)(C)C)OC(=O)CC\C=C/C\C=C/CC(O)\C=C\C=C/C\C=C/C\C=C/CC
InChI: InChI=1S/C46H80NO9P/c1-6-8-10-12-14-16-18-19-20-22-24-29-33-37-45(49)53-41-44(42-55-57(51,52)54-40-39-47(3,4)5)56-46(50)38-34-30-26-25-28-32-36-43(48)35-31-27-23-21-17-15-13-11-9-7-2/h9,11,15,17,23,26-28,30-32,35,43-44,48H,6-8,10,12-14,16,18-22,24-25,29,33-34,36-42H2,1-5H3/b11-9-,17-15-,27-23-,30-26-,32-28-,35-31+
Instrument: Acquity UPLC Peptide BEH C18 column (50 x 2.1 mm; 1.7 um), Sciex TripleTOF5600
Instrument type: LC-ESI-QTOF
Ms type: MS2
Ion mode: NEGATIVE
Collision energy: 30-50
Precursor m/z: 880.5709227
Precursor type: [M+CH3COOH-H]-
m/z	relative intensity
78.95638	7
78.96014	7
78.9614	7
133.1012	7
137.0896	7
137.1011	7
149.144	7
153.0812	10
153.0829	10
153.0847	10
153.0864	24
153.0881	48
153.0899	28
153.0916	45
153.0934	38
153.0951	34
153.0969	31
153.0986	10
153.1004	7
153.1039	14
155.0707	7
155.0725	10
155.0742	10
161.1255	10
161.1273	10
161.1309	24
161.1327	7
161.1345	21
161.138	7
161.1398	7
161.1416	7
163.0818	7
168.0361	7
168.038	14
168.0398	7
168.0416	17
168.0435	7
168.0471	17
181.0737	10
181.0775	7
181.0794	17
181.0813	10
181.0832	24
181.0851	28
181.087	17
181.0889	31
181.0908	17
181.0927	10
181.0946	14
181.0965	7
189.1319	7
189.163	7
189.1669	7
190.1345	7
190.1365	7
198.1394	7
224.0601	7
224.0623	7
224.0644	14
224.0665	10
224.0686	7
224.0707	28
224.0728	14
224.0749	10
224.077	7
224.0791	14
227.1734	7
227.1777	7
242.0689	7
242.0909	7
253.2146	7
254.4285	7
254.433	7
254.4352	7
254.4375	14
254.4397	14
255.1875	7
255.192	7
255.201	7
255.2055	15
255.2078	11
255.21	7
255.2123	49
255.2145	46
255.2168	110
255.2191	148
255.2213	253
255.2236	299
255.2258	367
255.2281	504
255.2303	515
255.2326	574
255.2348	509
255.2371	462
255.2393	420
255.2416	225
255.2438	225
255.2461	143
255.2484	66
255.2506	66
255.2529	43
255.2551	20
255.2574	19
255.2596	8
255.2619	20
255.6092	4
255.8777	4
256.0718	7
256.2276	7
256.2321	10
256.2344	7
256.2367	10
256.2412	11
256.6547	4
279.2378	10
280.3423	7
281.21	7
281.2124	21
281.2147	38
281.2171	42
281.2195	31
281.2218	55
281.2242	52
281.2266	76
281.2289	62
281.2313	90
281.2337	38
281.236	24
281.2384	21
281.2408	24
281.2431	45
281.2455	28
281.2479	31
281.2502	21
281.2526	31
281.255	14
281.2573	17
281.2644	10
299.1869	7
299.2015	17
299.2064	7
299.2113	7
299.2137	14
299.2259	7
299.2332	10
299.2357	10
299.2381	7
299.2406	10
299.243	21
299.2503	10
317.1928	7
317.2003	21
317.2028	7
317.2054	17
317.2079	10
317.2104	7
317.2129	24
317.2154	24
317.2204	14
317.2229	17
325.1986	7
325.2011	10
325.2037	14
325.2062	28
325.2087	21
325.2113	24
325.2138	24
325.2164	24
325.2189	24
325.2215	21
325.224	21
325.2266	17
325.2291	14
325.2317	10
325.2342	17
342.1643	7
342.1721	10
342.1878	7
343.1986	10
343.2012	18
343.2039	14
343.2065	28
343.2091	32
343.2117	63
343.2143	63
343.2169	67
343.2195	134
343.2221	127
343.2248	106
343.2274	99
343.23	88
343.2326	106
343.2352	66
343.2378	81
343.2404	49
343.2431	31
343.2457	28
343.2483	28
343.2509	7
343.2587	10
344.2371	4
357.2215	7
391.2249	7
409.2472	7
419.2638	7
419.2696	7
447.0967	7
462.287	7
462.29	7
462.2931	17
462.2961	7
462.2991	14
462.3052	10
462.3173	7
479.2125	7
479.2217	14
479.2279	7
479.231	7
480.2787	10
480.2818	14
480.2849	10
480.288	14
480.291	34
480.2942	24
480.2972	17
480.3004	28
480.3034	38
480.3065	31
480.3096	24
480.3127	17
480.3158	41
480.3189	31
480.322	31
480.3251	21
480.3282	17
480.3313	10
480.3344	7
480.3375	10
488.3302	7
506.3184	7
506.3215	10
506.3247	7
506.3279	7
506.3406	7
506.3438	7
507.2458	7
550.2686	7
550.2818	14
550.2851	7
550.295	7
550.3016	7
550.3049	7
550.3116	7
550.3215	7
568.2665	10
568.28	14
568.2833	10
568.2867	7
568.2901	17
568.2935	21
568.2968	7
568.3002	28
568.3035	21
568.3069	34
568.3102	10
568.3136	21
568.317	21
568.3204	7
568.3237	10
568.3271	7
735.4202	17
735.4241	14
735.4317	21
735.4355	7
735.4394	17
735.4432	17
735.447	14
735.4509	10
735.4547	7
735.4585	24
735.4623	24
735.4661	31
735.47	10
735.4738	14
735.4814	24
735.4853	17
735.4929	7
735.5006	7
735.5121	10
735.5197	7
761.4593	7
761.4632	10
761.471	7
761.4788	7
761.4827	7
761.4944	7
762.4797	7
803.9857	10
803.9897	7
804.0017	7
804.0057	7
804.0137	10
804.0217	7
804.0297	10
806.444	7
806.4481	7
806.4681	4
806.472	32
806.4761	33
806.4801	66
806.4841	76
806.4881	108
806.4921	205
806.4961	154
806.5001	213
806.5042	322
806.5081	456
806.5121	475
806.5162	578
806.5201	673
806.5242	849
806.5282	917
806.5322	943
806.5362	976
806.5402	900
806.5442	978
806.5482	932
806.5522	999
806.5562	853
806.5602	734
806.5642	648
806.5682	588
806.5723	385
806.5762	254
806.5803	188
806.5843	181
806.5883	105
806.5923	100
806.5963	48
806.6003	56
806.6043	20
806.6083	24
806.6123	17
806.6163	4
806.6204	14
806.6844	4
807.0251	5
807.4982	7
807.5062	7
807.5102	7
807.5142	7
807.5182	17
807.5222	17
807.5262	14
807.5303	32
807.5342	34
807.5383	34
807.5423	21
807.5463	31
807.5503	17
807.5543	14
807.5583	14
807.5623	34
807.5663	10
807.5704	24
807.5743	14
807.5784	14
807.5824	7
807.5904	7
807.5944	7
808.2441	7
820.5048	7
820.529	7
820.5452	7
820.5492	7
820.5533	10
820.5573	17
820.5695	17
820.5735	7
820.5775	14
820.5815	7
820.5897	10
821.4387	7
821.4629	14
821.467	10
821.475	7
821.4791	10
821.4872	7
821.4912	24
821.4953	17
821.4993	17
821.5034	10
821.5074	7
821.5114	17
821.5236	7
821.5317	10
821.5357	7
821.5397	14
821.5438	7
880.4564	7
880.4816	7
880.4858	14
880.4899	14
880.5025	17
880.5067	7
880.5109	31
880.5151	28
880.5192	10
880.5234	35
880.5276	45
880.5318	35
880.536	31
880.5402	38
880.5444	28
880.5485	49
880.5527	67
880.5569	43
880.5611	74
880.5653	36
880.5695	100
880.5737	117
880.5779	96
880.582	110
880.5862	68
880.5904	60
880.5946	46
880.5988	49
880.603	46
880.6072	60
880.6114	39
880.6155	18
880.6198	31
880.6239	28
880.6281	10
880.6365	7
881.5076	7
881.5621	7
