Mass spectrum: PE(18:1/14-HDoHE); LC-ESI-QTOF; MS2
Name: PE(18:1/14-HDoHE)
Class: Oxidized Phospholipid
Formula: C45H76NO9P
Exact mass: 806.077
SMILES: CCCCCCCC\C=C/CCCCCCCC(=O)OCC(COP(O)(=O)OCCN)OC(=O)CC\C=C/C\C=C/C\C=C/C=C/C(O)C\C=C/C\C=C/CC
InChI: InChI=1S/C45H76NO9P/c1-3-5-7-9-11-12-13-14-15-16-17-21-24-28-32-36-44(48)52-40-43(41-54-56(50,51)53-39-38-46)55-45(49)37-33-29-25-22-19-18-20-23-27-31-35-42(47)34-30-26-10-8-6-4-2/h6,8,14-15,18-19,23,25-27,29-31,35,42-43,47H,3-5,7,9-13,16-17,20-22,24,28,32-34,36-41,46H2,1-2H3,(H,50,51)/b8-6-,15-14-,19-18-,27-23-,29-25-,30-26-,35-31+
Instrument: Acquity UPLC Peptide BEH C18 column (50 x 2.1 mm; 1.7 um), Sciex TripleTOF5600
Instrument type: LC-ESI-QTOF
Ms type: MS2
Ion mode: NEGATIVE
Collision energy: 30-50
Precursor m/z: 804.5184935
Precursor type: [M-H]-
m/z	relative intensity
109.1042	33
140.0145	33
161.1311	33
161.1329	33
161.1365	33
161.1383	66
161.1401	33
163.2876	33
189.1244	33
189.1322	33
189.138	33
196.0341	33
196.0361	47
196.038	47
196.04	47
196.042	33
196.0459	33
205.1157	47
205.1177	80
205.1197	47
205.1217	80
205.1237	94
205.1278	47
205.1318	33
205.1338	33
227.1886	33
227.1907	33
227.1971	47
227.1992	47
227.2013	33
227.2035	66
227.2056	33
227.2099	33
233.1113	33
234.1185	33
234.1206	47
234.1249	33
234.1271	47
234.1292	33
234.1314	47
234.1336	33
234.1357	33
234.1422	33
253.2036	33
253.2058	33
253.2081	113
253.2103	33
253.2126	80
253.2148	80
253.2171	113
253.2193	33
253.2216	80
253.226	33
255.2238	33
255.226	66
255.2283	80
255.2305	47
255.2328	33
255.2351	47
255.2373	33
255.2396	66
255.2418	47
256.2414	33
257.2339	33
267.232	33
281.2102	33
281.2149	33
281.2173	113
281.2197	33
281.222	66
281.2244	113
281.2268	160
281.2291	146
281.2315	113
281.2339	254
281.2362	226
281.2386	287
281.241	386
281.2433	415
281.2457	415
281.2481	467
281.2504	495
281.2528	353
281.2552	386
281.2575	287
281.2599	254
281.2623	127
281.2646	66
281.267	33
281.2693	66
281.2717	33
282.2428	33
282.2594	47
282.2831	33
297.233	33
299.2335	47
299.2676	33
325.2064	33
325.2115	47
325.214	66
325.2166	33
325.2191	47
325.2216	66
325.2242	33
325.2293	47
325.2344	33
327.2222	33
327.2273	33
327.2324	33
327.2375	33
342.1775	33
343.1988	33
343.2014	47
343.204	33
343.2066	127
343.2092	33
343.2119	33
343.2145	146
343.2171	226
343.2197	226
343.2223	240
343.2249	386
343.2275	207
343.2302	335
343.2328	160
343.2354	193
343.238	193
343.2406	127
343.2432	47
343.2458	66
343.2484	47
343.2511	66
343.2589	33
389.2072	33
460.2779	47
460.2839	47
460.293	47
462.3052	33
463.2523	33
478.2679	66
478.274	66
478.2771	47
478.2802	94
478.2833	66
478.2894	66
478.2925	66
478.2956	47
478.2987	94
478.3018	113
478.311	66
478.3265	47
522.2625	33
540.2658	33
714.0392	33
717.4214	66
717.4516	33
717.463	33
717.5045	33
719.4371	33
719.4598	94
719.4636	47
719.475	33
719.4825	47
719.4863	66
719.4939	113
719.5015	80
719.5052	80
719.5166	47
719.5317	33
730.5076	33
730.5114	33
730.5305	33
730.5724	33
730.5762	33
804.4255	33
804.4375	47
804.4455	80
804.4536	160
804.4575	113
804.4615	174
804.4655	207
804.4695	193
804.4735	193
804.4775	306
804.4816	353
804.4855	532
804.4896	518
804.4935	419
804.4976	565
804.5015	551
804.5056	646
804.5095	712
804.5135	467
804.5176	938
804.5215	693
804.5256	999
804.5295	613
804.5336	825
804.5376	740
804.5416	754
804.5456	641
804.5496	514
804.5536	415
804.5576	273
804.5616	254
804.5656	113
804.5696	146
804.5736	127
804.5776	174
804.5816	174
804.5856	33
804.5936	66
805.4583	47
805.4663	47
805.4703	80
805.4744	66
805.4783	33
805.4824	47
805.4863	94
805.4904	47
805.4944	66
805.4984	66
805.5024	127
805.5063	47
805.5104	94
805.5144	80
805.5184	80
805.5224	66
805.5264	47
805.5304	66
805.5344	33
805.5464	47
805.5504	33
805.5544	66
805.5584	33
805.5624	33
805.5665	33
