Mass spectrum: PG 44:8; LC-ESI-QTOF; MS2
Name: PG 44:8
Class: PG
Formula: C50H83O10P
Exact mass: 875.18
SMILES: CC\C=C/C\C=C/C\C=C/C\C=C/CCCCCCCCC(=O)OCC(COP(O)(=O)OCC(O)CO)OC(=O)CCCCCCCC\C=C/C\C=C/C\C=C/C\C=C/CC
InChI: InChI=1S/C50H83O10P/c1-3-5-7-9-11-13-15-17-19-21-23-25-27-29-31-33-35-37-39-41-49(53)57-45-48(46-59-61(55,56)58-44-47(52)43-51)60-50(54)42-40-38-36-34-32-30-28-26-24-22-20-18-16-14-12-10-8-6-4-2/h5-8,11-14,17-20,23-26,47-48,51-52H,3-4,9-10,15-16,21-22,27-46H2,1-2H3,(H,55,56)/b7-5-,8-6-,13-11-,14-12-,19-17-,20-18-,25-23-,26-24-
Instrument: AB Sciex TripleTOF 5600+ system (Q-TOF) equipped with a DuoSpray ion source
Instrument type: LC-ESI-QTOF
Ms type: MS2
Ion mode: NEGATIVE
Collision energy: 45V
Column name: Acquity UPLC Peptide BEH C18 column (50*2.1 mm; 1.7 um; 130A)(Waters Co.,Milford, MA, USA)
Retention time: 8.431176
Precursor type: [M-H]-
Precursor m/z: 873.5632
m/z	relative intensity
152.99	17
269.247	9
270.246	16
287.278	30
303.219	22
303.236	74
304.245	18
331.263	999
359.296	25
406.239	8
467.258	9
471.711	5
481.454	13
485.267	9
541.295	11
559.307	16
568.271	5
569.302	11
709.473	19
791.47	11
799.523	5
799.63	5
870.837	11
873.508	60
873.541	455
873.562	688
873.591	452
873.627	51
874.148	5
