Mass spectrum: PG 36:2; LC-ESI-QTOF; MS2
Name: PG 36:2
Class: PG
Formula: C42H79O10P
Exact mass: 775.0600000000001
SMILES: CCCCCCCC\C=C/CCCCCCCC(=O)OCC(COP(O)(=O)OCC(O)CO)OC(=O)CCCCCCC\C=C/CCCCCCCC
InChI: InChI=1S/C42H79O10P/c1-3-5-7-9-11-13-15-17-19-21-23-25-27-29-31-33-41(45)49-37-40(38-51-53(47,48)50-36-39(44)35-43)52-42(46)34-32-30-28-26-24-22-20-18-16-14-12-10-8-6-4-2/h17-20,39-40,43-44H,3-16,21-38H2,1-2H3,(H,47,48)/b19-17-,20-18-
Instrument: AB Sciex TripleTOF 5600+ system (Q-TOF) equipped with a DuoSpray ion source
Instrument type: LC-ESI-QTOF
Ms type: MS2
Ion mode: NEGATIVE
Collision energy: 45V
Column name: Acquity UPLC Peptide BEH C18 column (50*2.1 mm; 1.7 um; 130A)(Waters Co.,Milford, MA, USA)
Retention time: 8.792283
Precursor type: [M-H]-
Precursor m/z: 773.5358
m/z	relative intensity
120.974	3
138.979	19
152.997	3
195.002	10
255.231	21
279.223	3
280.38	18
281.249	999
281.764	4
283.264	8
307.256	25
307.273	34
403.236	5
417.215	7
417.243	7
459.249	37
477.249	12
477.269	23
483.264	9
507.943	3
699.512	5
727.601	3
741.026	3
741.474	84
741.509	226
773.466	9
773.52	234
773.545	114
773.568	31
773.604	7
