Mass spectrum: PE 35:2; LC-ESI-QTOF; MS2
Name: PE 35:2
Class: PE
Formula: C40H76NO8P
Exact mass: 730.0229999999999
SMILES: CCCCCCCCCCCCCCCCC(=O)OCC(COP(O)(=O)OCCN)OC(=O)CCCCCCC\C=C/C\C=C/CCCCC
InChI: InChI=1S/C40H76NO8P/c1-3-5-7-9-11-13-15-17-19-21-23-25-27-29-31-33-40(43)49-38(37-48-50(44,45)47-35-34-41)36-46-39(42)32-30-28-26-24-22-20-18-16-14-12-10-8-6-4-2/h11,13,17,19,38H,3-10,12,14-16,18,20-37,41H2,1-2H3,(H,44,45)/b13-11-,19-17-
Instrument: AB Sciex TripleTOF 5600+ system (Q-TOF) equipped with a DuoSpray ion source
Instrument type: LC-ESI-QTOF
Ms type: MS2
Ion mode: NEGATIVE
Collision energy: 45V
Column name: Acquity UPLC Peptide BEH C18 column (50*2.1 mm; 1.7 um; 130A)(Waters Co.,Milford, MA, USA)
Retention time: 9.902286
Precursor type: [M-H]-
Precursor m/z: 728.521
m/z	relative intensity
140.009	8
196.04	22
265.208	16
269.248	338
278.364	8
279.231	999
466.297	33
668.576	8
728.518	346
728.535	81
