Mass spectrum: PG(18:1/8,9-EET); LC-ESI-QTOF; MS2
Name: PG(18:1/8,9-EET)
Class: Oxidized Phospholipid
Formula: C44H77O11P
Exact mass: 813.065
SMILES: CCCCCCCC\C=C/CCCCCCCC(=O)OCC(COP(O)(=O)OCC(O)CO)OC(=O)CCC\C=C/CC1OC1C\C=C/C\C=C/CCCCC
InChI: InChI=1S/C44H77O11P/c1-3-5-7-9-11-13-14-15-16-17-18-20-22-24-29-33-43(47)51-37-40(38-53-56(49,50)52-36-39(46)35-45)54-44(48)34-30-26-25-28-32-42-41(55-42)31-27-23-21-19-12-10-8-6-4-2/h12,15-16,19,23,25,27-28,39-42,45-46H,3-11,13-14,17-18,20-22,24,26,29-38H2,1-2H3,(H,49,50)/b16-15-,19-12-,27-23-,28-25-
Instrument: Acquity UPLC Peptide BEH C18 column (50 x 2.1 mm; 1.7 um), Sciex TripleTOF5600
Instrument type: LC-ESI-QTOF
Ms type: MS2
Ion mode: NEGATIVE
Collision energy: 30-50
Precursor m/z: 811.5130738
Precursor type: [M-H]-
m/z	relative intensity
123.0769	28
123.0785	14
123.0801	14
123.0863	14
125.0766	14
125.0782	14
127.0687	14
127.0719	14
127.0735	14
127.0798	14
139.0755	28
139.0771	14
151.1099	14
151.1427	14
151.1444	14
151.1461	14
151.1496	14
151.1565	14
152.9846	28
152.9863	14
152.9915	14
152.9933	14
152.995	14
152.9967	28
152.9985	14
153.0037	14
155.0559	14
155.0577	14
155.0629	14
155.0647	14
155.0664	28
155.0681	42
155.0699	42
155.0716	28
155.0734	14
163.1399	28
163.1417	14
163.156	14
167.0613	28
167.0631	14
167.0667	14
167.0685	42
167.0722	14
167.0758	14
167.0776	14
171.0971	14
171.1063	14
179.133	14
179.1386	28
179.1405	28
179.1423	42
179.1442	14
179.1461	28
179.148	14
191.1407	14
191.1484	14
191.1503	14
191.7286	14
191.7325	14
203.1738	14
203.1758	28
244.7267	28
257.2105	14
257.2173	14
257.2218	42
257.224	42
257.2263	69
257.2285	56
257.2308	69
257.233	28
257.2353	28
257.2443	14
275.2291	28
275.2314	14
275.2361	42
275.2384	14
275.2477	14
275.2547	14
281.225	14
281.2274	28
281.2297	14
281.2321	106
281.2344	86
281.2368	162
281.2391	310
281.2415	405
281.2438	428
281.2462	356
281.2485	645
281.2509	391
281.2532	271
281.2556	259
281.2579	208
281.2603	123
281.2626	69
281.265	14
281.2674	14
281.2697	28
293.2137	14
293.2185	14
293.2545	14
301.2023	14
301.2072	56
301.2096	42
301.212	69
301.2169	42
301.2193	14
301.2218	28
301.2242	14
301.2291	14
301.2315	14
301.2364	14
319.2059	28
319.2084	56
319.2109	81
319.2134	56
319.2159	150
319.2184	194
319.2209	324
319.2234	280
319.2259	432
319.2284	284
319.2309	162
319.2334	160
319.2359	83
319.2384	88
319.2409	69
319.2434	42
319.2459	28
319.2485	28
319.251	14
319.2535	14
319.2936	14
366.8353	14
366.8434	14
417.2367	14
417.2453	14
455.2032	14
455.2212	14
455.2242	28
455.2272	14
455.2332	14
469.9626	14
469.9748	14
473.2185	14
473.2246	14
473.2277	14
491.257	28
491.2601	14
491.2725	14
509.2751	14
509.2783	69
509.2814	14
509.2846	14
509.2941	28
512.8611	14
512.8643	14
529.233	14
529.2427	14
529.2458	14
529.2491	28
529.2523	42
529.2556	14
529.2588	14
529.2653	14
529.2685	28
529.2846	14
547.2556	14
547.2687	14
547.272	14
547.2753	42
590.9853	14
591.0126	14
610.9713	14
610.9852	14
611.0372	14
630.9902	14
630.9973	14
631.0184	14
650.9703	14
651.0062	14
651.0097	14
670.9785	14
671.004	28
671.0148	14
724.4495	14
724.4608	14
724.4721	14
808.9338	14
808.9578	14
808.9977	14
811.4529	14
811.4569	28
811.4609	14
811.4649	14
811.4689	86
811.4729	95
811.4769	160
811.4809	180
811.4849	173
811.4889	264
811.4929	354
811.4969	555
811.5009	555
811.5048	745
811.5089	895
811.5128	999
811.5168	906
811.5208	550
811.5248	742
811.5288	550
811.5328	444
811.5368	314
811.5408	291
811.5448	183
811.5488	92
811.5528	88
811.5568	69
811.5608	42
811.5648	56
811.5688	42
811.5728	14
811.5928	14
811.6047	28
811.6127	14
811.6607	14
811.7246	14
815.2088	14
815.2609	14
816.9356	14
817.0078	14
