Mass spectrum: PC 40:5; LC-ESI-QTOF; MS2
Name: PC 40:5
Class: PC
Formula: C48H86NO8P
Exact mass: 836.1909999999999
SMILES: CCCCCCCCCCCCCCCCCC(=O)OCC(COP([O-])(=O)OCC[N+](C)(C)C)OC(=O)CCCCC\C=C/C\C=C/C\C=C/C\C=C/C\C=C/CC
InChI: InChI=1S/C48H86NO8P/c1-6-8-10-12-14-16-18-20-22-23-24-25-27-29-31-33-35-37-39-41-48(51)57-46(45-56-58(52,53)55-43-42-49(3,4)5)44-54-47(50)40-38-36-34-32-30-28-26-21-19-17-15-13-11-9-7-2/h8,10,14,16,20,22,24-25,29,31,46H,6-7,9,11-13,15,17-19,21,23,26-28,30,32-45H2,1-5H3/b10-8-,16-14-,22-20-,25-24-,31-29-
Instrument: AB Sciex TripleTOF 5600+ system (Q-TOF) equipped with a DuoSpray ion source
Instrument type: LC-ESI-QTOF
Ms type: MS2
Ion mode: NEGATIVE
Collision energy: 45V
Column name: Acquity UPLC Peptide BEH C18 column (50*2.1 mm; 1.7 um; 130A)(Waters Co.,Milford, MA, USA)
Retention time: 10.22377
Precursor type: [M+CH3COOH-H]-
Precursor m/z: 894.6211
m/z	relative intensity
168.043	7
224.066	10
231.208	5
255.23	2
257.231	2
259.245	4
282.387	3
283.263	254
285.246	9
285.259	26
303.231	27
309.276	13
311.227	3
327.23	2
328.224	4
329.247	597
330.243	2
357.289	5
419.259	3
490.324	8
490.36	2
502.289	1
503.304	2
508.309	9
508.341	58
508.38	4
516.345	1
534.365	5
536.321	6
554.336	5
599.415	1
749.502	1
818.015	4
818.064	1
820.508	6
820.586	999
821.595	5
835.53	6
835.57	9
894.565	13
894.613	152
894.66	12
