Mass spectrum: PI(18:1/18-HEPE); LC-ESI-QTOF; MS2
Name: PI(18:1/18-HEPE)
Class: Oxidized Phospholipid
Formula: C47H79O14P
Exact mass: 899.111
SMILES: CCCCCCCC\C=C/CCCCCCCC(=O)OCC(COP(O)(=O)OC1C(O)C(O)C(O)C(O)C1O)OC(=O)CCC\C=C/C\C=C/C\C=C/C\C=C/C=C/C(O)CC
InChI: InChI=1S/C47H79O14P/c1-3-5-6-7-8-9-10-11-12-16-19-22-25-28-31-34-40(49)58-36-39(37-59-62(56,57)61-47-45(54)43(52)42(51)44(53)46(47)55)60-41(50)35-32-29-26-23-20-17-14-13-15-18-21-24-27-30-33-38(48)4-2/h11-12,14-15,17-18,23-24,26-27,30,33,38-39,42-48,51-55H,3-10,13,16,19-22,25,28-29,31-32,34-37H2,1-2H3,(H,56,57)/b12-11-,17-14-,18-15-,26-23-,27-24-,33-30+
Instrument: Acquity UPLC Peptide BEH C18 column (50 x 2.1 mm; 1.7 um), Sciex TripleTOF5600
Instrument type: LC-ESI-QTOF
Ms type: MS2
Ion mode: NEGATIVE
Collision energy: 30-50
Precursor m/z: 897.5134677
Precursor type: [M-H]-
m/z	relative intensity
71.05178	0
78.95516	1
78.95642	3
78.95767	3
78.95892	5
78.96018	8
78.96143	5
78.96268	6
78.96394	5
78.96519	2
78.96645	1
78.9677	1
78.96895	1
78.97021	1
78.97146	1
78.97271	1
78.97397	0
93.07206	0
93.07342	1
93.07478	0
93.07614	0
96.96556	1
96.96695	2
96.96834	1
96.96973	2
96.97112	1
96.97251	0
96.9739	1
96.97529	1
96.97668	0
96.98223	0
97.06701	1
105.0671	1
105.0714	0
107.0841	1
107.0856	0
107.0871	1
107.09	1
107.0973	1
109.0982	0
109.1012	1
117.0688	0
119.085	0
119.0881	0
121.0997	2
121.1013	1
121.1028	1
121.1059	0
133.0982	0
133.1015	1
133.1048	0
133.1129	0
134.9817	0
134.985	0
134.9866	1
134.9899	0
135.1129	0
135.1162	1
135.1227	1
147.0666	0
147.1128	0
147.1145	0
147.1162	1
147.1179	1
147.1214	1
147.1231	0
147.1265	0
147.1282	0
147.1351	1
149.1271	0
149.1322	0
149.1357	1
149.1374	0
149.1391	1
150.2077	0
152.9785	1
152.9803	0
152.982	1
152.9838	1
152.9855	3
152.9872	6
152.989	8
152.9907	11
152.9925	14
152.9942	11
152.996	8
152.9977	10
152.9995	7
153.0012	4
153.003	3
153.0047	1
153.0065	2
153.0082	2
153.0099	1
159.1102	0
159.1226	0
161.1223	0
161.1241	1
161.1259	1
161.1277	2
161.1295	1
161.1313	1
161.1331	2
161.1348	1
161.1366	2
161.1384	3
161.1402	0
163.075	0
163.1435	1
163.1453	1
163.1471	1
163.1489	2
163.1543	0
163.1579	1
171.0034	0
171.009	1
171.0108	0
171.0145	0
172.1234	0
173.13	0
173.1356	0
180.2246	0
181.1178	0
181.1197	1
181.1216	1
181.1235	1
181.1254	1
181.1273	0
181.1311	0
185.1332	0
185.1409	0
187.1449	1
187.1487	1
187.1526	1
189.1596	0
189.1616	0
189.1635	1
189.1654	1
189.1674	1
189.1693	1
193.1568	0
197.7449	0
201.1484	1
201.1524	1
201.1544	1
201.1564	2
201.1584	1
201.1604	4
201.1624	3
201.1644	2
201.1664	2
201.1684	2
201.1704	1
201.1724	1
201.1744	1
201.1764	0
201.1784	1
201.1804	0
201.1824	0
203.1022	0
203.1082	0
204.9968	0
205.0978	0
205.118	0
206.533	0
207.1357	1
207.1397	0
207.1418	1
215.1601	0
215.1622	0
215.1642	1
215.1663	3
215.1684	5
215.1704	7
215.1725	10
215.1746	10
215.1766	16
215.1787	19
215.1808	19
215.1828	17
215.1849	15
215.187	10
215.1891	7
215.1911	5
215.1932	3
215.1953	3
215.1973	1
215.1994	1
215.2015	1
215.2036	0
215.2077	0
217.1162	0
217.1308	0
219.1668	0
219.1772	1
219.1835	0
221.141	0
221.1473	0
221.1515	1
221.1536	1
221.1557	1
221.1578	1
221.1599	1
221.1641	0
221.1704	0
222.3155	1
222.9829	1
222.985	1
222.9871	2
222.9892	4
222.9913	5
222.9934	8
222.9955	9
222.9976	13
222.9997	16
223.0018	14
223.004	10
223.0061	11
223.0082	9
223.0103	3
223.0124	2
223.0145	4
223.0166	1
223.0187	1
223.0229	0
223.1452	0
223.1557	0
226.4135	0
229.1114	0
233.1528	0
233.1549	0
233.1614	0
239.161	0
239.1632	1
239.1653	1
239.1675	0
239.1785	0
240.2554	0
240.2576	0
240.2598	1
240.262	1
240.2686	0
240.2729	1
240.2817	1
240.2883	1
240.2926	0
240.5267	0
240.7653	0
240.9799	0
240.9843	1
240.9865	0
240.9887	1
240.9908	2
240.993	4
240.9952	8
240.9974	16
240.9996	23
241.0018	38
241.004	61
241.0062	71
241.0084	83
241.0106	94
241.0128	99
241.0149	104
241.0171	79
241.0193	64
241.0215	36
241.0237	22
241.0259	19
241.0281	14
241.0303	10
241.0325	4
241.0347	2
241.0368	0
241.039	1
241.0412	1
241.0434	2
241.0478	0
241.1705	1
241.3371	0
242.0105	0
242.0126	0
242.0148	0
242.017	0
243.1752	0
243.1796	0
243.4085	0
244.4133	0
245.1507	1
245.1529	1
245.1551	1
245.1573	0
245.1595	1
245.1639	1
245.1948	0
252.1277	0
254.5351	0
255.1433	0
255.1838	0
255.1883	0
255.1906	1
255.1929	1
255.1951	4
255.1974	4
255.1996	6
255.2019	12
255.2041	16
255.2064	21
255.2086	24
255.2109	26
255.2131	20
255.2154	23
255.2176	21
255.2199	12
255.2222	10
255.2244	9
255.2267	4
255.2289	4
255.2312	3
255.2334	2
255.2357	2
255.2402	1
256.2059	0
256.2104	0
256.2149	0
258.3695	0
259.0027	1
259.0072	1
259.0095	3
259.0118	4
259.014	5
259.0163	5
259.0186	9
259.0209	7
259.0231	13
259.0254	12
259.0277	8
259.0299	5
259.0322	3
259.0345	3
259.0368	3
259.0436	1
259.0458	1
259.0504	1
259.1435	1
259.1458	1
259.148	2
259.1503	1
259.1526	2
259.1548	3
259.1571	6
259.1594	10
259.1617	17
259.1639	20
259.1662	23
259.1685	28
259.1707	26
259.173	22
259.1753	18
259.1776	16
259.1798	10
259.1821	7
259.1844	6
259.1866	4
259.1889	2
259.1912	2
259.1935	1
260.1712	1
260.1826	1
261.1826	0
261.1849	0
261.1895	1
261.1918	0
271.2054	0
271.2101	1
272.3848	0
273.1818	0
273.2004	0
273.2028	1
273.2051	1
273.2074	2
273.2097	4
273.2121	4
273.2144	8
273.2167	6
273.2191	11
273.2214	10
273.2238	12
273.2261	10
273.2284	7
273.2307	5
273.2331	5
273.2354	3
273.2377	2
273.2401	1
273.2424	1
273.2447	0
273.2494	1
280.3646	0
280.3693	1
280.3716	0
280.374	1
280.3787	1
280.3835	0
280.4023	0
281.0241	0
281.1897	1
281.1944	1
281.1992	1
281.2157	0
281.2181	1
281.2228	2
281.2252	4
281.2275	8
281.2299	11
281.2323	15
281.2346	26
281.237	37
281.2394	47
281.2417	65
281.2441	78
281.2465	96
281.2488	103
281.2512	105
281.2536	94
281.256	76
281.2583	59
281.2607	33
281.263	23
281.2654	15
281.2678	10
281.2701	8
281.2725	5
281.2749	5
281.2773	3
281.2796	3
281.282	1
281.2843	0
281.2867	0
281.4429	0
281.926	0
282.2365	0
282.2436	1
282.2459	1
282.2483	0
282.253	1
282.2554	1
282.2578	1
282.2602	0
282.2625	0
283.3801	0
285.1501	0
297.0149	1
297.0174	1
297.0198	1
297.0222	2
297.0247	6
297.0271	5
297.0295	7
297.032	8
297.0344	9
297.0368	9
297.0392	11
297.0417	10
297.0441	8
297.0465	7
297.049	4
297.0514	3
297.0538	1
297.0563	1
297.0587	1
297.0611	0
297.0636	1
298.1931	0
298.2661	1
298.271	0
298.2856	0
298.644	0
298.9147	0
299.1563	0
299.1758	2
299.1782	2
299.1806	2
299.1831	5
299.1855	6
299.188	12
299.1904	15
299.1928	21
299.1953	24
299.1977	27
299.2002	29
299.2026	34
299.205	32
299.2075	25
299.2099	27
299.2124	22
299.2148	13
299.2173	5
299.2197	7
299.2221	5
299.2246	2
299.227	2
299.2295	0
299.2319	0
299.2343	1
299.2368	1
299.2441	0
299.2466	0
300.2041	1
300.209	1
300.2114	0
315.0265	1
315.029	1
315.0315	1
315.034	1
315.0365	5
315.039	4
315.0415	3
315.044	5
315.0465	6
315.049	6
315.0515	5
315.054	5
315.0565	6
315.0591	4
315.0616	5
315.0641	3
315.0666	1
315.0691	1
315.0716	0
315.0741	0
315.1893	0
315.1993	0
316.2172	0
316.2197	1
316.2247	1
316.2297	0
316.2322	0
316.4782	0
316.8699	0
317.0583	0
317.0608	0
317.1713	0
317.1739	0
317.1764	1
317.1789	1
317.1814	2
317.1839	2
317.1864	4
317.1889	6
317.1914	7
317.1939	14
317.1965	23
317.199	34
317.2015	43
317.204	55
317.2065	64
317.209	79
317.2115	76
317.2141	85
317.2166	87
317.2191	78
317.2216	55
317.2241	42
317.2266	28
317.2291	17
317.2316	13
317.2342	11
317.2367	7
317.2392	5
317.2417	3
317.2442	1
317.2467	1
317.2492	1
317.2517	1
317.2543	0
317.2568	1
317.2668	0
317.6465	0
318.1823	0
318.1999	0
318.2025	1
318.205	1
318.2075	0
318.21	0
318.215	0
318.2175	1
318.2201	1
318.2251	0
318.2276	1
318.2326	1
318.2377	1
318.8118	0
415.9324	0
415.941	0
417.188	1
417.1937	1
417.1995	1
417.2024	0
417.2053	0
417.2081	3
417.211	3
417.2139	4
417.2168	6
417.2197	7
417.2225	11
417.2254	15
417.2283	19
417.2312	24
417.2341	28
417.2369	31
417.2398	29
417.2427	31
417.2456	34
417.2485	31
417.2514	34
417.2542	25
417.2571	20
417.26	16
417.2629	11
417.2658	9
417.2686	5
417.2715	5
417.2744	1
417.2773	1
417.2802	1
417.2831	1
417.2888	0
418.2376	0
418.2434	1
418.2463	0
418.2521	0
435.1973	0
435.2179	0
435.2267	1
435.2326	2
435.2355	1
435.2385	2
435.2414	2
435.2444	3
435.2473	2
435.2502	3
435.2532	4
435.2561	4
435.2591	2
435.262	3
435.265	1
435.2679	1
435.2708	2
435.2738	1
435.2767	0
435.2826	1
435.2856	0
453.1605	1
453.1665	1
453.1695	1
453.1725	1
453.1755	2
453.1785	3
453.1815	2
453.1845	3
453.1875	7
453.1905	8
453.1935	10
453.1965	11
453.1996	12
453.2025	11
453.2055	11
453.2086	12
453.2115	14
453.2146	15
453.2176	11
453.2206	8
453.2236	9
453.2266	4
453.2296	4
453.2326	4
453.2356	2
453.2386	1
453.2416	2
453.2446	1
453.2476	1
455.4009	0
471.2052	0
471.2113	0
471.2205	0
487.5718	0
491.6336	0
492.2939	0
495.6148	0
496.4004	0
496.7306	0
496.7495	0
497.3786	0
498.279	0
498.7389	0
501.6579	0
501.9518	0
503.6192	0
505.248	0
506.7112	0
509.7011	0
516.3677	0
523.2422	0
523.2551	1
523.2681	1
548.092	0
565.5949	0
577.4988	0
577.8752	0
579.2294	1
579.243	1
579.2464	2
579.2498	3
579.2532	2
579.2565	2
579.2599	6
579.2634	9
579.2667	14
579.2701	19
579.2736	15
579.2769	18
579.2803	25
579.2838	28
579.2871	32
579.2905	35
579.2939	45
579.2973	38
579.3007	40
579.3041	33
579.3075	31
579.3109	32
579.3143	30
579.3177	26
579.3211	17
579.3245	18
579.3279	8
579.3313	3
579.3347	7
579.3381	5
579.3414	3
579.3448	1
579.3483	1
579.3516	0
579.3585	1
579.4128	0
580.2656	0
580.2859	0
580.2961	0
580.2996	1
580.303	0
580.3098	1
580.3199	1
580.3336	1
580.9421	0
591.0797	0
591.5806	0
597.2463	0
597.2498	0
597.2567	1
597.2601	1
597.2635	2
597.267	1
597.2704	3
597.2739	6
597.2773	7
597.2808	9
597.2842	11
597.2877	14
597.2911	14
597.2946	13
597.298	16
597.3015	20
597.3049	15
597.3084	18
597.3118	19
597.3153	17
597.3187	14
597.3222	17
597.3256	13
597.3291	12
597.3325	7
597.336	7
597.3394	4
597.3429	3
597.3463	3
597.3498	1
597.3532	1
597.3567	1
597.3636	0
597.367	1
597.3808	0
597.3843	1
598.2881	0
598.2985	0
598.3019	1
598.3088	0
598.3157	0
598.3296	0
613.3358	0
613.3393	0
615.1997	0
615.2102	1
615.2137	1
615.2172	0
615.2207	4
615.2242	6
615.2277	7
615.2312	6
615.2347	9
615.2382	7
615.2417	12
615.2452	12
615.2487	12
615.2522	15
615.2557	15
615.2592	19
615.2627	15
615.2662	18
615.2697	14
615.2732	12
615.2767	13
615.2802	10
615.2837	8
615.2872	8
615.2907	6
615.2942	4
615.2977	3
615.3012	3
615.3047	1
615.3082	1
615.3117	1
615.3152	0
615.3257	0
616.236	0
616.2676	0
616.2711	1
616.2745	1
633.2307	0
633.2343	0
633.2378	0
633.2414	0
633.2449	1
633.252	1
633.2556	2
633.2592	1
633.2627	2
633.2662	2
633.2698	0
633.2733	1
633.2769	2
633.2805	2
633.284	2
633.2875	1
633.2911	2
633.2946	1
633.2982	1
633.3018	0
652.1706	0
735.4161	0
735.4276	1
735.4315	1
735.4352	0
735.4391	1
735.4429	1
735.4467	3
735.4506	1
735.4544	2
735.4582	2
735.462	1
735.4659	2
735.4697	3
735.4735	3
735.4774	1
735.4811	2
735.485	2
735.4888	1
735.4927	1
735.4965	2
735.5003	1
735.5042	1
735.5118	1
785.4146	0
785.4383	0
885.4249	0
894.5675	0
894.6055	1
894.6182	0
894.6224	1
894.6266	0
894.6309	1
894.6351	2
894.6393	2
894.6435	2
894.6477	3
894.6519	1
894.6562	2
894.6604	3
894.6646	4
894.6688	4
894.673	4
894.6772	5
894.6815	5
894.6857	3
894.6899	5
894.6942	5
894.6984	5
894.7026	5
894.7068	4
894.711	5
894.7152	4
894.7195	5
894.7237	4
894.7279	3
894.7321	4
894.7363	4
894.7405	3
894.7448	4
894.749	2
894.7532	2
894.7574	1
894.7617	2
894.7659	1
894.7701	3
894.7744	1
894.7786	1
894.7828	1
894.787	1
894.7912	1
894.7954	0
894.8039	1
894.8081	0
894.8123	1
894.8419	0
895.5258	0
895.5553	0
895.5806	0
895.5975	0
895.606	0
895.644	1
895.6609	0
895.6862	0
895.6989	0
895.7242	1
895.7327	0
895.9776	0
896.1677	0
896.1761	0
896.1973	0
896.2099	1
896.2352	0
896.2648	0
896.3113	0
896.3324	0
896.3367	1
896.3578	1
896.362	0
896.3662	1
896.4127	0
896.4254	0
896.4465	0
896.4507	0
896.4592	1
896.4803	0
896.5098	0
896.5141	1
896.5267	0
896.5605	0
896.5648	1
896.5901	0
896.5944	0
896.6028	0
896.607	0
896.6155	0
896.6197	0
896.6366	0
896.6915	0
896.8098	0
896.9155	0
896.9282	0
896.9662	0
897.0042	0
897.0338	0
897.0676	0
897.0803	0
897.1141	0
897.1268	0
897.1479	0
897.1901	0
897.207	1
897.2155	0
897.2282	0
897.2451	0
897.2493	1
897.2789	0
897.2874	0
897.2916	0
897.3043	0
897.317	0
897.3212	0
897.3254	0
897.3296	0
897.3339	1
897.3381	1
897.3423	1
897.3508	1
897.355	0
897.3592	1
897.3635	2
897.3677	1
897.3761	1
897.3803	0
897.3888	1
897.393	1
897.3973	1
897.4015	0
897.4099	0
897.4142	0
897.4184	1
897.4226	0
897.4311	1
897.4564	17
897.4606	26
897.4649	35
897.4691	64
897.4733	84
897.4775	112
897.4818	173
897.486	246
897.4902	317
897.4944	429
897.4987	564
897.5029	734
897.5071	782
897.5114	854
897.5156	889
897.5198	884
897.524	897
897.5283	969
897.5325	999
897.5367	926
897.541	865
897.5452	710
897.5494	509
897.5536	346
897.5579	240
897.5621	139
897.5663	73
897.5706	46
897.5748	35
897.579	22
897.5833	11
897.5875	17
897.5917	7
897.5959	22
897.6002	5
897.6086	2
897.6129	1
897.6213	0
897.6467	1
897.6678	1
897.8665	1
897.9891	0
898.0272	0
898.0356	0
898.061	0
898.0695	0
898.1075	1
898.1794	0
898.1963	0
898.2048	1
898.2555	0
898.264	1
898.2766	1
898.302	0
898.357	0
898.4035	1
898.4289	0
898.4331	1
898.4373	1
898.4416	0
898.4458	0
898.45	1
898.4543	1
898.4585	2
898.4627	5
898.467	4
898.4712	5
898.4754	4
898.4796	7
898.4839	8
898.4881	12
898.4923	13
898.4966	17
898.5008	17
898.505	20
898.5092	21
898.5135	23
898.5177	21
898.5219	24
898.5262	33
898.5304	29
898.5346	32
898.5389	28
898.5431	26
898.5473	25
898.5515	21
898.5558	18
898.56	14
898.5642	13
898.5685	10
898.5727	8
898.5769	6
898.5811	5
898.5854	2
898.5896	2
898.5938	3
898.5981	1
898.6023	2
898.6065	1
898.6108	1
898.6234	0
898.6361	1
898.6573	0
898.7038	1
898.7334	1
898.7588	0
898.7673	0
898.7969	0
898.835	1
898.9788	0
898.9915	0
898.9999	1
899.1691	0
899.1734	0
899.1818	0
899.2326	0
899.2623	0
899.313	1
899.4442	1
899.4484	0
899.4611	0
899.4653	0
899.5034	0
899.5161	0
899.5204	0
899.5246	0
899.5288	0
899.5373	0
899.5712	0
899.7023	1
899.7235	1
899.8716	0
899.8843	0
899.9393	0
900.0283	0
900.1807	0
900.3119	0
900.405	0
900.4092	0
900.5659	0
900.5744	1
900.8369	0
900.8412	1
900.8454	0
900.9513	0
901.0868	0
901.1545	0
901.2097	0
901.2393	0
901.252	1
901.3028	0
901.574	0
901.6205	0
901.6375	0
901.7561	0
901.8621	0
901.9256	0
901.968	0
902.3028	0
902.5147	0
902.7988	1
902.9047	0
903.0489	0
903.1083	0
903.2057	0
903.3415	0
903.3924	0
903.7189	0
904.3087	0
904.6863	0
905.2721	0
905.9429	0
905.9811	0
906.8775	0
906.8945	0
907.192	0
907.209	0
907.8083	0
908.8884	1
909.3394	0
909.3734	0
909.833	0
910.0118	0
910.6716	0
911.2764	0
912.9894	0
916.1214	0
919.0919	0
923.4216	0
923.4817	0
