Mass spectrum: PC(14:0/17-HDoHE); LC-ESI-QTOF; MS2
Name: PC(14:0/17-HDoHE)
Class: Oxidized Phospholipid
Formula: C44H76NO9P
Exact mass: 794.066
SMILES: CCCCCCCCCCCCCC(=O)OCC(COP([O-])(=O)OCC[N+](C)(C)C)OC(=O)CC\C=C/C\C=C/C\C=C/C\C=C/C=C\C(O)C\C=C/CC
InChI: InChI=1S/C44H76NO9P/c1-6-8-10-11-12-13-17-21-24-27-31-35-43(47)51-39-42(40-53-55(49,50)52-38-37-45(3,4)5)54-44(48)36-32-28-25-22-19-16-14-15-18-20-23-26-30-34-41(46)33-29-9-7-2/h9,15-16,18-19,23,25-26,28-30,34,41-42,46H,6-8,10-14,17,20-22,24,27,31-33,35-40H2,1-5H3/b18-15-,19-16-,26-23-,28-25-,29-9-,34-30-
Instrument: Acquity UPLC Peptide BEH C18 column (50 x 2.1 mm; 1.7 um), Sciex TripleTOF5600
Instrument type: LC-ESI-QTOF
Ms type: MS2
Ion mode: NEGATIVE
Collision energy: 30-50
Precursor m/z: 852.5396225
Precursor type: [M+CH3COOH-H]-
m/z	relative intensity
168.0373	20
168.041	40
201.1549	40
201.1569	40
201.1589	59
201.1628	20
201.1668	40
201.1688	20
224.0591	40
224.0717	20
227.1621	20
227.1769	20
227.1791	20
227.1854	59
227.1917	79
227.1938	79
227.196	120
227.1981	119
227.2002	117
227.2023	99
227.2044	127
227.2065	99
227.2086	40
227.2129	40
227.215	59
227.2171	20
229.145	20
229.1535	20
229.1599	20
229.1663	20
245.1427	20
245.1449	20
245.1515	40
245.1537	20
245.169	20
245.1844	20
247.1759	20
247.1825	20
253.2078	20
253.2122	40
255.1464	20
255.1509	20
255.1733	20
274.1377	20
274.1586	20
274.1609	20
281.2073	40
281.212	20
281.2143	20
281.2191	79
281.2214	79
281.2238	117
281.2261	20
281.2285	79
281.2308	20
281.2332	40
281.2426	20
281.2496	20
281.2543	20
299.2374	20
299.2544	40
299.2592	20
317.2054	20
317.2079	20
317.2179	40
325.196	20
325.1985	20
325.2036	20
325.2061	20
325.2087	40
325.2112	20
325.2137	40
325.2163	59
325.2188	20
325.2213	40
325.239	20
343.2038	59
343.2064	40
343.209	40
343.2116	20
343.2142	20
343.2168	79
343.2194	119
343.222	127
343.2245	199
343.2272	129
343.2298	152
343.2324	125
343.235	129
343.2375	40
343.2401	99
343.2427	40
343.2454	40
343.2505	20
343.2531	20
409.2233	20
409.2431	20
417.2318	20
417.2576	20
434.2266	20
434.2558	20
434.2587	40
434.2617	20
434.2646	40
434.2733	20
435.2384	20
435.2443	40
442.4425	20
442.4809	20
442.4897	20
442.4956	20
452.2434	20
452.2523	20
452.2613	20
452.2643	59
452.2673	40
452.2732	20
452.2762	99
452.2792	106
452.2822	40
452.2852	20
452.2881	20
452.2911	20
453.2133	20
453.2521	20
466.7217	20
466.7338	20
478.2791	20
478.3097	20
479.215	20
479.2335	20
489.568	20
489.5711	20
550.2854	20
550.3085	20
568.2687	20
568.2787	20
586.334	20
586.3476	20
665.3738	20
665.3956	20
707.3938	20
707.405	20
707.4088	20
707.4162	40
707.4199	20
707.4274	20
707.4349	20
707.4423	20
707.446	59
707.4572	40
707.4684	20
708.4125	20
708.4238	20
765.4631	20
765.4708	20
765.4825	20
765.4864	20
765.5019	20
776.0072	20
776.0463	20
776.0502	20
778.451	77
778.4549	40
778.4588	58
778.4627	40
778.4666	58
778.4705	117
778.4745	199
778.4784	272
778.4823	424
778.4862	559
778.4901	593
778.494	692
778.4979	999
778.5018	796
778.5058	758
778.5097	551
778.5136	773
778.5175	490
778.5214	313
778.5253	345
778.5292	158
778.5331	134
778.5371	117
778.541	77
778.5449	58
778.5488	40
778.5527	40
778.5566	20
778.5605	20
778.5645	40
778.5684	20
792.4757	20
792.4836	20
792.4994	20
792.5034	20
792.5152	20
792.5192	20
793.4315	20
793.4434	20
793.4473	40
793.4512	40
793.4552	20
793.4631	20
793.471	40
793.4868	40
793.5105	20
816.4705	20
816.4825	20
852.4782	20
852.4946	20
852.4987	40
852.5028	40
852.5069	40
852.511	79
852.5151	59
852.5192	79
852.5233	40
852.5273	99
852.5314	166
852.5355	79
852.5396	140
852.5438	117
852.5479	20
852.556	99
852.5601	79
852.5642	20
852.5683	40
852.5724	20
852.5765	79
852.5806	20
