Mass spectrum: PC(18:1/8,9-EpETE); LC-ESI-QTOF; MS2
Name: PC(18:1/8,9-EpETE)
Class: Oxidized Phospholipid
Formula: C46H80NO9P
Exact mass: 822.12
SMILES: CCCCCCCC\C=C/CCCCCCCC(=O)OCC(COP([O-])(=O)OCC[N+](C)(C)C)OC(=O)CCC\C=C/CC1OC1C\C=C/C\C=C/C\C=C/CC
InChI: InChI=1S/C46H80NO9P/c1-6-8-10-12-14-16-17-18-19-20-21-23-25-27-32-36-45(48)52-40-42(41-54-57(50,51)53-39-38-47(3,4)5)55-46(49)37-33-29-28-31-35-44-43(56-44)34-30-26-24-22-15-13-11-9-7-2/h9,11,15,18-19,22,26,28,30-31,42-44H,6-8,10,12-14,16-17,20-21,23-25,27,29,32-41H2,1-5H3/b11-9-,19-18-,22-15-,30-26-,31-28-
Instrument: Acquity UPLC Peptide BEH C18 column (50 x 2.1 mm; 1.7 um), Sciex TripleTOF5600
Instrument type: LC-ESI-QTOF
Ms type: MS2
Ion mode: NEGATIVE
Collision energy: 30-50
Precursor m/z: 880.5709227
Precursor type: [M+CH3COOH-H]-
m/z	relative intensity
78.95333	1
78.95582	0
78.95707	1
78.95831	1
78.95956	1
81.07097	1
83.04912	0
83.05679	0
85.02524	0
85.02653	1
93.06599	0
93.07275	0
95.08198	1
95.08334	1
95.08471	0
95.08608	0
95.08745	1
95.08881	0
105.0643	0
105.0672	0
105.106	0
105.1075	0
105.1089	0
107.0822	0
107.0866	0
109.0608	0
109.0622	0
109.0637	1
109.0652	0
109.0666	1
109.0989	0
109.1003	0
109.1018	0
109.1047	0
111.0412	0
111.0441	0
111.0737	0
111.0811	1
111.2008	0
111.2201	0
114.9426	0
114.9486	0
119.0781	0
119.0812	0
121.0591	0
121.0606	1
121.0637	2
121.0653	0
121.0699	0
121.0915	0
121.093	0
121.0977	1
121.0992	1
121.1023	0
121.1038	0
121.1069	0
121.1085	0
123.0704	0
123.0735	1
123.0751	0
123.0766	3
123.0782	1
123.0797	6
123.0813	2
123.0828	2
123.0844	1
123.086	1
123.0875	0
123.1171	0
123.1295	0
125.0889	0
125.1014	1
125.114	0
127.0637	1
127.0668	1
127.0684	0
127.07	2
127.0715	3
127.0731	7
127.0747	3
127.0763	3
127.0779	5
127.0795	1
127.081	1
127.0826	1
127.0842	0
127.0858	1
127.0874	1
131.0821	0
131.0885	0
133.0922	0
133.097	0
135.1126	1
135.1142	1
135.1159	2
135.1175	0
135.1191	0
135.1208	0
135.1224	0
135.1257	0
135.1289	0
136.733	0
136.7363	0
137.0908	0
137.0941	0
137.0957	0
137.0974	1
137.1269	0
139.0668	0
139.0685	1
139.0701	1
139.0718	1
139.0734	1
139.0751	2
139.0767	1
139.0784	1
139.0817	1
139.0834	0
139.1148	0
139.1231	0
143.0814	0
143.0831	0
143.0848	0
143.0915	0
148.6387	0
149.0528	0
149.0546	0
149.0563	1
149.0597	0
149.0683	1
149.0974	0
149.0991	0
149.1179	0
149.1196	0
149.1213	0
149.123	1
149.1248	0
149.1265	5
149.1282	5
149.1299	4
149.1316	6
149.1333	7
149.135	3
149.1367	2
149.1385	1
149.1402	2
149.1419	2
149.147	0
151.1147	0
151.1233	0
151.1474	0
151.1716	0
151.1837	0
152.9877	0
152.9894	0
152.9929	0
152.9946	0
152.9963	0
152.9998	0
154.5843	0
154.6018	0
155.0555	0
155.0573	0
155.059	0
155.0607	2
155.0625	4
155.0642	3
155.066	6
155.0677	9
155.0695	11
155.0712	8
155.073	9
155.0747	4
155.0765	2
155.0782	2
155.08	2
155.0817	1
159.0771	0
159.1072	0
159.1284	0
161.1161	0
161.1197	0
161.1232	0
161.125	1
161.1268	2
161.1286	3
161.1304	5
161.1322	3
161.1339	5
161.1357	2
161.1375	1
161.1393	2
161.1411	0
161.1428	1
162.145	1
163.1377	1
163.1431	1
163.1448	1
163.1466	2
163.1484	1
163.1556	0
163.1628	0
166.55	0
166.5536	0
167.0518	0
167.0554	0
167.0572	1
167.059	1
167.0608	2
167.0626	4
167.0645	5
167.0663	7
167.0681	8
167.0699	9
167.0717	7
167.0735	7
167.0753	5
167.0771	3
167.079	2
167.0808	0
167.0826	0
167.0844	1
167.0862	0
167.1062	0
168.0284	0
168.0303	0
168.0321	1
168.0339	1
168.0357	4
168.0375	5
168.0394	5
168.0412	2
168.043	5
168.0448	2
168.0466	3
168.0484	1
168.0503	2
168.0521	1
168.0685	0
168.0721	1
168.0739	2
168.0757	1
168.0775	2
168.0794	1
168.083	1
168.0848	0
169.0736	0
169.0791	0
169.0846	0
169.09	0
169.1247	0
169.6723	0
169.6869	0
169.6888	0
171.0489	0
171.0544	0
171.4086	0
171.416	0
171.903	0
171.9269	0
171.9324	0
173.1298	0
173.1335	0
173.7856	0
173.793	0
173.8189	0
175.1472	0
175.1509	0
175.1565	0
177.1202	0
177.1221	2
177.124	1
177.1258	1
177.1277	2
177.1296	1
177.1314	2
177.1333	0
177.137	0
177.1632	0
181.5112	0
181.5168	0
183.0943	1
183.1019	0
183.1057	1
187.0035	0
187.0074	0
189.1231	2
189.125	1
189.1269	1
189.1288	1
189.1308	0
189.1327	0
189.1559	0
189.1616	0
189.1636	0
189.3662	0
189.3739	0
189.3835	0
190.1196	0
190.1216	0
190.1235	1
190.1254	2
190.1274	2
190.1293	2
190.1312	2
190.1332	4
190.1351	2
190.137	3
190.139	2
190.1409	3
190.1428	1
190.1448	0
190.1467	0
191.144	1
193.1601	0
193.166	0
195.0947	0
195.0986	0
195.1006	0
195.1084	0
197.1059	0
197.1197	0
201.1532	0
201.1552	1
201.1592	2
201.1611	1
201.1631	2
201.1651	2
201.1671	2
201.1731	0
201.1751	0
201.189	0
202.0394	0
202.0693	0
205.1211	0
205.1573	0
205.1633	0
206.0502	1
214.6008	0
214.6029	0
215.9301	0
215.9322	0
216.4436	1
217.1747	0
217.1871	0
217.1912	0
217.1974	0
217.1995	0
219.1655	0
219.1676	1
219.1696	0
219.1717	2
219.1738	1
219.1759	0
219.1883	0
219.1904	0
221.1133	1
221.1153	0
221.1237	0
221.1591	0
221.3573	1
224.0531	0
224.0552	2
224.0573	0
224.0594	2
224.0615	3
224.0636	4
224.0657	3
224.0678	4
224.0699	5
224.072	3
224.0741	3
224.0762	2
224.0783	2
224.0804	0
224.0846	1
227.1731	0
227.1752	2
227.1773	0
227.1815	0
229.1964	0
229.1985	1
229.2197	0
233.0428	1
233.1135	0
233.1456	0
238.2422	0
238.2509	0
242.0653	0
242.0719	0
242.0741	0
242.085	0
245.1804	0
245.1848	0
245.187	0
245.1958	0
255.1805	1
255.1961	2
255.1984	4
255.2006	3
255.2029	4
255.2051	11
255.2073	10
255.2096	9
255.2118	9
255.2141	8
255.2163	5
255.2185	5
255.2208	2
255.223	1
255.2253	1
255.2297	0
255.2342	0
255.2365	0
256.6883	0
256.6927	0
256.695	0
257.1491	0
257.1896	0
261.1771	0
261.1794	0
261.1816	0
271.1992	0
271.2108	0
273.1823	0
273.1846	1
273.1985	0
273.2078	0
273.2101	2
273.2124	3
273.2148	2
273.2171	4
273.2194	10
273.2217	1
273.224	3
273.2263	1
273.2286	1
273.231	2
273.2356	1
273.2379	0
273.2449	0
275.2889	0
275.2982	0
280.35	0
280.3547	0
280.3594	1
280.3641	1
280.3664	1
280.3688	0
280.3711	0
280.3735	1
280.3758	0
280.3829	0
280.3876	0
280.3899	0
281.2125	0
281.2219	0
281.2243	2
281.2266	2
281.229	2
281.2313	4
281.2337	8
281.236	20
281.2384	34
281.2407	60
281.2431	92
281.2454	107
281.2478	107
281.2501	90
281.2525	56
281.2549	43
281.2572	23
281.2596	11
281.2619	7
281.2643	5
281.2666	2
281.2713	2
281.2737	0
281.2854	0
281.3913	0
281.4171	0
281.4195	0
281.4407	0
282.4816	1
282.4864	0
282.6089	0
282.8872	0
282.8896	0
282.9344	0
282.9674	0
282.9698	0
282.9769	0
282.9934	0
283.1279	0
283.1656	0
283.4371	0
283.456	0
283.5457	0
283.5717	0
283.5835	0
283.6143	0
283.6827	0
283.7017	0
283.7229	0
283.7253	0
283.8245	0
283.8387	0
283.9096	0
283.919	0
284.0419	0
284.0727	0
284.1459	0
284.1672	0
284.3398	0
284.3422	0
285.0143	0
285.0166	0
285.0261	0
285.0403	0
285.0474	0
285.0663	0
285.0995	0
285.1161	0
285.1658	1
285.2132	0
285.244	0
285.4975	1
285.5473	0
285.5591	0
285.5781	0
285.597	0
285.8697	0
285.8839	0
285.9456	0
285.9527	0
286.0072	0
286.0191	0
286.057	0
286.5364	0
286.5507	0
287.0495	0
287.0922	0
288.6461	0
288.6652	0
289.204	0
289.2087	1
289.2112	1
289.2135	0
289.2159	1
289.2183	1
295.9113	0
295.9426	0
299.1676	0
299.1773	1
299.1822	3
299.1846	1
299.187	4
299.1894	6
299.1919	6
299.1943	12
299.1967	12
299.1991	11
299.2016	8
299.204	9
299.2064	7
299.2088	5
299.2113	5
299.2137	3
299.2161	2
299.2185	1
299.221	2
299.2549	0
299.2574	0
304.0928	0
304.1271	0
305.2483	0
305.2924	0
306.4257	0
306.46	0
309.3221	0
309.3493	0
314.9768	0
314.9793	0
316.2076	1
316.2101	1
316.2126	1
316.2151	0
316.2176	1
316.2226	1
316.2251	1
316.2301	0
316.235	0
316.255	0
316.2575	0
316.2675	0
317.1635	0
317.1785	0
317.1835	1
317.186	0
317.1885	1
317.191	3
317.1935	5
317.196	10
317.1985	19
317.201	36
317.2035	70
317.206	88
317.2085	122
317.211	134
317.2135	113
317.216	95
317.2185	54
317.221	26
317.2235	16
317.226	11
317.2285	4
317.231	2
317.2335	2
317.236	1
317.251	0
317.256	0
317.291	0
317.3009	0
318.5163	0
318.5288	0
318.6064	0
318.6214	0
319.1123	0
319.1248	0
319.2	0
319.2476	0
319.2827	0
319.3278	0
319.383	0
319.388	0
320.0475	0
320.05	0
320.1027	0
320.1479	0
320.1604	0
320.1906	1
320.3838	0
320.3939	0
321.3008	0
321.3083	0
321.3385	0
321.8667	0
321.8969	0
322.8765	0
322.9017	0
322.9496	1
322.9823	0
323.0504	1
323.0933	0
335.739	0
335.7416	0
343.2201	1
343.2227	1
343.2356	0
349.2275	0
349.2406	0
356.3506	0
356.3851	0
392.728	0
392.7308	0
417.2241	1
417.227	1
417.2327	1
417.2356	0
417.2384	2
417.2441	1
417.247	0
417.2499	0
417.2527	1
417.2671	0
432.2774	0
432.2804	0
432.2833	0
432.2862	0
432.2891	0
432.3008	0
432.9834	0
432.9922	0
433.0155	0
435.2423	1
435.2452	0
439.0162	0
439.0221	0
439.4689	0
439.5071	0
440.1042	0
440.116	0
440.7635	0
440.8136	0
440.8695	0
440.8842	0
440.9932	1
440.9962	0
445.2565	0
445.2742	0
445.6176	0
445.662	0
445.7568	0
445.7597	0
445.9019	0
445.9374	0
445.9433	0
446.0026	0
446.0352	0
446.6159	0
446.6455	0
446.6485	0
447.0073	0
447.0102	0
447.2297	0
447.2386	0
447.4284	0
447.464	0
448.1081	0
448.1466	0
448.1734	0
448.1912	0
448.1942	0
449.3916	0
449.4153	0
450.0965	0
450.1292	0
451.1504	0
451.1653	0
452.1967	0
452.2533	0
453.1814	0
453.1993	0
453.2113	0
453.2173	0
453.2232	0
453.6025	0
453.6264	0
453.8116	0
453.8654	0
453.8714	0
454.2539	0
454.2808	0
454.9208	0
454.9746	0
454.9776	0
454.9896	0
455.0045	0
455.1571	0
455.1721	0
455.22	0
456.4956	0
456.5376	0
456.8793	0
456.9212	0
456.9512	0
456.9872	0
456.9932	0
457.0322	0
457.6021	0
457.656	0
457.731	0
457.7431	0
457.8001	0
457.8271	0
457.8721	0
458.0372	0
458.0402	0
458.5536	0
458.5566	0
458.5626	0
458.8961	0
458.9051	0
458.9471	0
458.9532	0
459.4941	0
459.4972	0
459.6595	0
459.6625	0
460.5711	0
460.6102	0
460.6192	0
460.6463	0
460.6523	0
460.6644	0
460.839	0
460.8601	0
461.2064	0
461.2155	0
461.2184	0
461.4444	0
461.4685	0
461.7879	0
461.8391	0
462.1828	0
462.2401	0
462.3607	0
462.3637	0
462.5266	0
462.5538	0
462.5749	0
462.593	0
462.602	0
462.6201	0
463.3414	0
463.3535	0
463.6947	0
463.7279	0
463.743	0
464.5014	0
464.5074	0
465.2393	0
465.2453	0
465.2604	0
465.333	0
465.3361	0
465.9081	0
465.9262	0
466.1442	0
466.1472	0
466.7682	1
467.141	0
467.1531	0
467.235	0
467.238	0
467.2441	0
467.708	0
467.7202	0
467.7505	0
468.1844	0
468.2268	0
468.2329	0
468.242	1
468.2451	0
468.2481	0
468.2511	0
468.2633	0
468.7672	1
469.3656	0
469.3717	0
469.4325	0
469.4781	0
469.4933	0
469.4993	0
469.5054	0
471.1723	0
471.1844	0
471.2301	0
472.2323	0
472.2567	0
472.2628	0
472.2658	0
472.406	0
472.4091	0
473.2722	0
473.3057	1
473.4156	0
473.4186	0
473.4217	0
473.4736	0
474.301	0
474.3071	1
474.3224	0
475.2881	0
475.3034	0
475.3095	0
475.7897	0
475.8019	0
476.166	1
476.5977	0
476.6099	0
476.6191	0
478.1513	0
478.1758	0
478.2035	0
478.2065	0
478.3997	0
478.412	0
478.4826	0
478.5317	1
479.2253	0
479.2683	0
479.2929	0
479.2959	0
480.2729	0
480.2975	0
483.0277	0
483.0308	0
483.3391	0
483.3453	0
483.3545	0
483.3576	0
483.5118	0
483.518	0
485.2836	0
485.3423	0
486.8637	0
486.9194	0
486.9999	0
487.0092	0
487.0185	0
487.3435	0
487.359	0
487.7523	0
487.7554	0
487.7771	0
488.0032	0
488.0249	0
488.2852	0
488.2914	1
488.2945	3
488.2976	3
488.3007	1
488.3038	4
488.3069	5
488.31	7
488.3131	4
488.3162	3
488.3193	4
488.3224	4
488.3255	2
488.3286	1
488.3317	1
488.3441	1
488.5208	0
488.5363	0
488.8091	0
488.8432	0
489.3705	1
489.3954	0
492.5123	0
492.5621	0
493.107	0
493.1133	0
493.4435	0
493.4746	0
494.2444	0
494.2507	0
494.3162	0
494.3224	0
495.3301	0
495.3925	0
495.43	0
496.6076	0
496.6358	0
498.3407	0
498.3907	0
499.4402	0
499.4528	0
500.9647	0
500.9804	0
500.993	0
502.35	0
502.3815	0
504.6978	0
504.7356	0
504.9405	0
504.9909	0
505.7665	0
505.7823	0
506.1167	1
506.1199	0
506.2745	0
506.2808	0
506.2839	0
506.2871	2
506.2903	1
506.2934	1
506.2966	3
506.2997	3
506.3029	6
506.306	10
506.3092	11
506.3123	17
506.3155	25
506.3187	22
506.3218	24
506.325	28
506.3281	24
506.3313	15
506.3344	16
506.3376	10
506.3408	4
506.3439	4
506.3471	3
506.3502	2
506.3534	2
506.3597	0
506.3692	0
507.5818	0
507.6229	0
508.0274	0
508.0749	0
509.2357	0
509.2769	0
510.7244	1
511.2126	0
511.2317	0
511.2538	0
512.3549	1
514.2742	1
514.6813	0
514.7164	0
514.7577	0
514.7704	0
514.7736	0
514.8341	0
515.2224	0
515.2352	0
519.5579	0
519.5675	0
519.6027	0
519.9704	0
519.9832	0
520.7191	0
520.7478	0
521.2856	0
521.2985	1
524.2455	0
524.2487	1
524.2519	2
524.2551	0
524.2584	1
524.2615	3
524.2648	3
524.2679	3
524.2712	4
524.2744	1
524.2776	4
524.2808	3
524.2841	2
524.2872	1
524.2905	0
524.2936	0
524.2969	1
524.3001	1
525.9585	0
525.9617	0
534.4552	0
534.4747	0
535.211	0
535.2239	0
535.3668	0
535.3765	0
538.7665	0
538.7698	0
538.7958	0
538.8089	0
542.2196	0
542.2621	1
542.2653	1
542.2686	2
542.2719	2
542.2751	2
542.2784	2
542.2817	1
542.2849	3
542.2882	4
542.2914	4
542.2947	2
542.298	1
542.3013	1
542.3045	1
542.3078	1
542.3176	0
549.5368	0
549.5598	0
553.4497	0
553.453	0
575.3196	0
575.3264	0
595.1165	1
603.8146	1
608.2341	0
608.2513	0
610.8969	0
610.9385	0
619.3357	0
619.3392	0
668.6971	0
668.708	0
702.7515	0
702.7552	0
735.4136	0
735.4288	0
735.4364	0
735.4402	0
735.444	0
735.4478	2
735.4516	1
735.4554	2
735.4592	0
735.463	0
735.4668	1
735.4706	2
735.4782	0
735.4821	0
735.4858	0
735.4896	1
735.4973	0
735.5048	0
753.4754	0
753.4869	0
761.4425	0
761.4502	0
761.4541	1
761.4579	0
761.4619	1
761.4657	2
761.4695	0
761.4734	0
761.4812	0
761.485	0
761.489	1
761.4966	0
761.5083	1
761.5121	0
761.5199	0
781.1632	0
781.1671	0
781.175	0
792.5251	0
792.5291	0
795.4654	1
795.4733	0
795.4813	0
795.4891	0
795.4971	0
800.2908	0
800.3265	0
803.6509	0
803.6747	0
803.9133	0
803.9253	0
803.9412	0
803.9452	0
803.9492	1
803.9531	0
803.9571	2
803.9611	2
803.965	1
803.9691	1
803.973	3
803.977	2
803.981	1
803.9849	2
803.9889	1
803.9929	2
803.9969	0
804.0009	2
804.0048	2
804.0088	1
804.0128	1
804.0208	0
804.0247	0
804.0327	0
804.0406	0
804.0486	1
804.0565	0
804.0645	1
804.0804	0
804.7885	0
804.7924	0
804.8521	0
805.254	0
805.2779	0
805.2859	0
805.3456	0
805.3655	0
805.3694	0
805.4411	0
805.4451	0
805.469	0
805.473	0
805.5088	0
805.5167	1
805.5366	1
805.5446	0
805.5605	0
805.5765	0
805.5804	0
805.5964	0
805.6003	0
805.6043	0
805.6282	0
805.6362	0
805.664	0
805.7357	0
805.7556	0
805.7596	0
805.7874	0
805.7914	0
805.883	0
805.887	0
805.9387	0
805.9467	0
805.9587	0
805.9905	0
806.0861	0
806.09	0
806.098	0
806.1378	0
806.2095	0
806.2214	0
806.2613	0
806.2692	0
806.2733	1
806.2772	0
806.317	0
806.3449	0
806.3648	0
806.3848	0
806.4206	0
806.4525	0
806.4803	3
806.4843	1
806.4883	2
806.4923	2
806.4963	10
806.5002	8
806.5042	23
806.5082	41
806.5122	90
806.5162	218
806.5201	280
806.5242	590
806.5281	820
806.5321	972
806.5361	999
806.5401	790
806.5441	611
806.548	415
806.552	195
806.556	112
806.56	52
806.564	27
806.5679	15
806.572	13
806.5759	4
806.5799	3
806.5839	1
806.5879	1
806.5919	1
806.5999	1
806.6038	1
806.6476	0
806.8189	0
806.8827	0
807.305	0
807.3448	0
807.3489	0
807.3528	0
807.3648	1
807.3688	0
807.4445	0
807.4803	0
807.4883	0
807.5123	0
807.5242	1
807.5362	0
807.5402	1
807.5441	0
807.5521	1
807.572	1
807.588	0
807.6079	0
807.7394	0
807.7554	0
807.7913	0
807.8391	0
807.875	0
807.9427	0
807.9547	0
808.0464	0
808.0544	0
808.0903	0
808.1182	0
808.166	0
808.1899	0
808.2498	0
808.2617	0
808.3176	0
808.3335	0
808.6047	0
808.6166	0
808.6206	1
808.6565	0
808.6605	0
808.9357	0
808.9517	0
808.9677	0
808.9796	0
808.9995	0
809.0195	0
809.0714	0
809.2828	0
809.3068	0
809.3227	0
809.3267	0
809.3546	0
809.3826	0
809.4983	0
809.5062	0
809.598	0
809.626	0
809.7377	0
809.8176	0
809.8894	0
809.9014	0
810.085	0
810.1129	0
810.1528	0
810.2526	0
810.2686	0
810.2966	0
810.3804	0
810.4003	0
810.7078	0
810.7278	0
810.8157	0
810.8556	0
810.8596	0
810.8755	0
810.8915	0
810.8995	0
810.9315	0
810.9674	0
810.9714	0
810.9874	0
811.0393	0
811.1032	0
811.3109	0
811.3269	0
811.6146	0
811.6266	0
811.6665	0
811.6745	0
811.6785	0
811.7105	0
812.0422	0
812.0941	0
812.1301	0
812.1341	0
812.1461	0
812.1501	0
812.1541	0
812.186	0
812.1901	0
812.194	0
812.1981	0
812.222	0
812.4659	0
812.5018	0
812.5418	0
812.6138	0
812.6538	0
812.6618	0
812.7338	1
812.7457	0
812.7937	0
812.9496	0
812.9897	0
813.0016	0
813.0577	0
813.1616	0
813.4776	0
813.5016	0
813.5776	0
813.5977	0
813.9017	0
813.9777	0
814.1298	0
814.1498	0
814.1858	0
814.2299	0
814.2939	0
814.3019	0
814.3739	0
814.418	0
814.446	1
814.6181	0
814.6541	0
814.7502	0
814.7902	0
814.8102	0
814.8543	1
814.8663	0
814.8983	0
814.9343	0
814.9584	0
814.9984	0
815.2307	0
815.2667	0
815.3588	0
815.3708	0
815.455	0
815.4589	0
815.503	0
815.519	0
815.5911	1
815.6191	0
815.6592	0
815.7233	0
815.9156	0
815.9196	0
815.9957	0
816.0037	0
816.2521	0
816.2802	0
816.2922	0
816.3082	0
816.8453	0
816.9214	0
817.1339	0
817.166	0
817.6873	0
817.6953	0
817.7675	0
817.972	0
818.0242	0
818.626	0
818.6742	0
818.7384	0
818.8588	0
818.903	1
818.927	1
819.0273	0
819.0555	0
819.3124	0
819.3887	0
820.5212	1
820.5292	0
820.5493	0
820.5533	0
820.5613	0
820.5775	0
820.5855	0
820.6056	0
820.915	0
820.9792	0
821.0315	0
821.0596	0
821.3932	0
821.4334	0
821.4415	0
821.4455	0
821.4575	2
821.4615	0
821.4656	1
821.4696	2
821.4736	2
821.4777	4
821.4817	3
821.4857	5
821.4897	4
821.4937	4
821.4977	5
821.5018	5
821.5058	4
821.5098	5
821.5138	4
821.5178	2
821.5219	2
821.5259	0
821.5299	2
821.5339	0
821.538	1
821.5419	0
821.546	1
821.55	0
821.558	0
821.5661	0
821.6103	0
823.9879	0
823.996	0
828.0713	0
828.1278	0
834.193	0
834.2092	0
838.5533	1
842.1393	0
842.1638	0
842.6482	1
850.0865	0
850.0906	0
877.7177	0
877.7385	0
877.7593	1
877.7634	1
877.7676	1
877.7759	0
877.78	0
877.7883	0
877.8133	1
877.8216	0
877.8382	0
880.1876	0
880.2708	0
880.3499	0
880.4789	1
880.4955	0
880.4997	0
880.5038	1
880.5081	0
880.5122	1
880.5164	2
880.5205	2
880.5247	1
880.5289	2
880.533	5
880.5372	6
880.5413	5
880.5455	16
880.5496	20
880.5538	39
880.558	48
880.5621	68
880.5663	56
880.5704	81
880.5746	73
880.5788	63
880.5829	40
880.5871	36
880.5912	17
880.5955	12
880.5996	11
880.6038	8
880.6079	2
880.6121	2
880.6162	3
880.6204	1
880.6246	1
880.6287	1
880.6329	0
880.6412	0
880.6454	0
880.9201	0
880.9326	0
880.97	0
887.3549	0
887.426	0
914.558	0
914.575	0
914.6047	0
1207.461	0
1207.476	0
1234.991	0
1235.016	0
