Mass spectrum: Cer[NS] d45:1; LC-ESI-QTOF; MS2
Name: Cer[NS] d45:1
Class: Cer_NS
Formula: C45H89NO3
Exact mass: 692.2109999999999
SMILES: CCCCCCCCCCCCCCCCCCCCCCCCC(=O)NC(CO)C(O)\C=C\CCCCCCCCCCCCCCC
InChI: InChI=1S/C45H89NO3/c1-3-5-7-9-11-13-15-17-19-20-21-22-23-24-25-27-29-31-33-35-37-39-41-45(49)46-43(42-47)44(48)40-38-36-34-32-30-28-26-18-16-14-12-10-8-6-4-2/h38,40,43-44,47-48H,3-37,39,41-42H2,1-2H3,(H,46,49)/b40-38+
Instrument: AB Sciex TripleTOF 5600+ system (Q-TOF) equipped with a DuoSpray ion source
Instrument type: LC-ESI-QTOF
Ms type: MS2
Ion mode: NEGATIVE
Collision energy: 45V
Column name: Acquity UPLC Peptide BEH C18 column (50*2.1 mm; 1.7 um; 130A)(Waters Co.,Milford, MA, USA)
Retention time: 13.65635
Precursor type: [M+CH3COOH-H]-
Precursor m/z: 750.6931
m/z	relative intensity
251.235	18
265.245	18
265.252	20
265.261	36
277.241	16
277.263	11
279.267	16
291.266	45
294.271	10
296.299	11
305.296	13
349.342	17
363.345	28
363.368	63
366.371	11
367.354	11
377.363	24
380.385	62
381.352	9
381.363	13
381.372	13
392.36	18
392.393	43
395.384	21
406.378	30
406.386	62
406.403	205
408.411	27
420.396	9
420.404	13
420.416	66
420.431	19
420.442	11
422.382	11
422.401	9
422.415	19
434.413	9
434.43	34
436.419	11
642.645	30
642.676	8
654.647	5
658.634	55
658.653	16
658.673	22
660.636	58
660.659	83
688.487	7
690.647	343
690.666	999
690.682	288
690.699	222
750.533	3
750.695	9
