Mass spectrum: PE 36:3; LC-ESI-QTOF; MS2
Name: PE 36:3
Class: PE
Formula: C41H76NO8P
Exact mass: 742.0339999999999
SMILES: CCCCCCCC\C=C/CCCCCCCC(=O)OCC(COP(O)(=O)OCCN)OC(=O)CCCCCCC\C=C/C\C=C/CCCCC
InChI: InChI=1S/C41H76NO8P/c1-3-5-7-9-11-13-15-17-19-21-23-25-27-29-31-33-40(43)47-37-39(38-49-51(45,46)48-36-35-42)50-41(44)34-32-30-28-26-24-22-20-18-16-14-12-10-8-6-4-2/h12,14,17-20,39H,3-11,13,15-16,21-38,42H2,1-2H3,(H,45,46)/b14-12-,19-17-,20-18-
Instrument: AB Sciex TripleTOF 5600+ system (Q-TOF) equipped with a DuoSpray ion source
Instrument type: LC-ESI-QTOF
Ms type: MS2
Ion mode: NEGATIVE
Collision energy: 45V
Column name: Acquity UPLC Peptide BEH C18 column (50*2.1 mm; 1.7 um; 130A)(Waters Co.,Milford, MA, USA)
Retention time: 9.574076
Precursor type: [M-H]-
Precursor m/z: 740.5203
m/z	relative intensity
78.959	5
96.971	0
121.999	1
140.013	12
152.995	1
178.027	0
196.037	17
214.047	1
255.234	0
261.215	2
261.228	0
278.337	0
278.359	3
279.183	0
279.231	999
280.364	1
281.247	447
303.24	0
304.235	1
305.24	0
394.398	0
402.235	1
404.26	0
417.237	0
458.235	0
458.25	1
458.267	3
460.249	1
460.274	6
460.294	3
476.259	3
476.274	5
476.301	0
478.268	6
478.289	52
494.153	0
557.654	0
559.364	0
559.465	1
575.028	0
632.577	0
662.576	0
662.625	0
738.132	0
738.185	0
738.21	0
739.533	0
739.638	0
740.186	0
740.436	2
740.516	366
740.651	0
741.085	0
741.498	0
741.544	0
