Mass spectrum: PE 38:4; LC-ESI-QTOF; MS2
Name: PE 38:4
Class: PE
Formula: C43H78NO8P
Exact mass: 768.0719999999999
SMILES: CCCCCCCC\C=C/CCCCCCCC(=O)OCC(COP(O)(=O)OCCN)OC(=O)CCCCCCCCC\C=C/C\C=C/C\C=C/CC
InChI: InChI=1S/C43H78NO8P/c1-3-5-7-9-11-13-15-17-19-20-22-24-26-28-30-32-34-36-43(46)52-41(40-51-53(47,48)50-38-37-44)39-49-42(45)35-33-31-29-27-25-23-21-18-16-14-12-10-8-6-4-2/h5,7,11,13,17-19,21,41H,3-4,6,8-10,12,14-16,20,22-40,44H2,1-2H3,(H,47,48)/b7-5-,13-11-,19-17-,21-18-
Instrument: AB Sciex TripleTOF 5600+ system (Q-TOF) equipped with a DuoSpray ion source
Instrument type: LC-ESI-QTOF
Ms type: MS2
Ion mode: NEGATIVE
Collision energy: 45V
Column name: Acquity UPLC Peptide BEH C18 column (50*2.1 mm; 1.7 um; 130A)(Waters Co.,Milford, MA, USA)
Retention time: 9.799648
Precursor type: [M-H]-
Precursor m/z: 766.5382
m/z	relative intensity
196.047	25
255.235	57
256.229	19
279.238	26
281.239	123
281.244	142
281.248	220
281.253	136
281.258	110
281.263	71
283.267	50
286.257	25
303.218	25
303.223	45
303.231	52
303.24	142
305.247	999
305.259	213
307.269	19
319.225	44
329.247	12
330.251	38
331.265	31
442.749	12
460.283	19
478.286	70
484.286	12
502.305	21
716.588	25
766.476	19
766.491	38
766.499	64
766.52	505
766.538	181
766.553	337
