Mass spectrum: PI 37:4; LC-ESI-QTOF; MS2
Name: PI 37:4
Class: PI
Formula: C46H81O13P
Exact mass: 873.117
SMILES: CCCCCCCCCCCCCCCCC(=O)OCC(COP(O)(=O)OC1C(O)C(O)C(O)C(O)C1O)OC(=O)CCCCCC\C=C/C\C=C/C\C=C/C\C=C/CC
InChI: InChI=1S/C46H81O13P/c1-3-5-7-9-11-13-15-17-19-20-21-23-25-27-29-31-33-35-40(48)58-38(37-57-60(54,55)59-46-44(52)42(50)41(49)43(51)45(46)53)36-56-39(47)34-32-30-28-26-24-22-18-16-14-12-10-8-6-4-2/h5,7,11,13,17,19,21,23,38,41-46,49-53H,3-4,6,8-10,12,14-16,18,20,22,24-37H2,1-2H3,(H,54,55)/b7-5-,13-11-,19-17-,23-21-
Instrument: AB Sciex TripleTOF 5600+ system (Q-TOF) equipped with a DuoSpray ion source
Instrument type: LC-ESI-QTOF
Ms type: MS2
Ion mode: NEGATIVE
Collision energy: 45V
Column name: Acquity UPLC Peptide BEH C18 column (50*2.1 mm; 1.7 um; 130A)(Waters Co.,Milford, MA, USA)
Retention time: 8.496168
Precursor type: [M-H]-
Precursor m/z: 871.5284
m/z	relative intensity
78.958	4
152.993	12
153.008	2
205.192	1
223.002	14
241.012	69
255.231	3
256.232	1
259.021	5
259.239	10
269.247	110
283.269	1
295.23	3
297.03	7
297.048	6
303.232	100
315.046	4
405.233	43
405.254	13
423.257	3
439.213	4
439.257	2
505.177	1
565.319	1
567.255	6
567.276	26
567.296	39
581.308	1
585.284	8
585.314	11
599.402	1
601.262	10
619.28	1
709.452	4
711.496	2
779.507	2
797.528	4
839.513	4
853.556	1
853.623	1
868.772	4
868.812	2
871.417	2
871.469	50
871.533	999
872.506	5
872.582	3
