Mass spectrum: PE(16:1e/8-HETE); LC-ESI-QTOF; MS2
Name: PE(16:1e/8-HETE)
Class: Oxidized Phospholipid
Formula: C41H74NO8P
Exact mass: 740.018
SMILES: CCCCCCCCCCCCCC\C=C/OCC(COP(O)(=O)OCCN)OC(=O)CCC\C=C/CC(O)\C=C/C=C\C\C=C/CCCCC
InChI: InChI=1S/C41H74NO8P/c1-3-5-7-9-11-13-15-16-17-18-20-22-26-30-35-47-37-40(38-49-51(45,46)48-36-34-42)50-41(44)33-29-25-24-28-32-39(43)31-27-23-21-19-14-12-10-8-6-4-2/h12,14,21,23-24,27-28,30-31,35,39-40,43H,3-11,13,15-20,22,25-26,29,32-34,36-38,42H2,1-2H3,(H,45,46)/b14-12-,23-21-,28-24-,31-27-,35-30-
Instrument: Acquity UPLC Peptide BEH C18 column (50 x 2.1 mm; 1.7 um), Sciex TripleTOF5600
Instrument type: LC-ESI-QTOF
Ms type: MS2
Ion mode: NEGATIVE
Collision energy: 30-50
Precursor m/z: 738.5079288
Precursor type: [M-H]-
m/z	relative intensity
78.9553	10
78.95655	19
78.9578	6
78.95906	35
78.96031	19
78.96156	35
78.96282	26
78.96407	26
78.96533	16
78.96658	6
78.96909	6
93.07488	6
105.0715	6
107.0827	6
109.0659	6
109.0688	13
111.0434	6
111.0746	6
111.0776	13
111.0791	16
111.0806	16
111.0821	19
111.0835	19
111.085	22
111.0865	10
111.0895	6
111.0925	6
117.0704	6
119.0865	6
125.0947	6
126.6873	7
127.0687	10
127.0703	23
127.0719	39
127.0735	23
127.0751	42
127.0767	52
127.0782	52
127.0798	46
127.0814	39
127.083	19
127.0846	10
127.0878	10
127.0894	10
127.091	7
137.0601	6
137.0634	6
137.0667	6
137.0981	6
137.1361	6
140.0028	16
140.0045	6
140.0061	19
140.0078	38
140.0095	32
140.0111	26
140.0128	26
140.0145	19
140.0161	16
140.0178	19
140.0195	16
151.1533	6
151.1637	6
154.0501	7
154.5882	10
154.5935	7
154.7883	7
155.0552	3
155.057	17
155.0587	18
155.0605	21
155.0622	60
155.064	98
155.0658	180
155.0675	205
155.0693	200
155.071	251
155.0728	218
155.0745	215
155.0763	126
155.078	120
155.0798	66
155.0816	35
155.0833	25
155.0851	22
155.0868	18
155.0886	28
155.0903	14
155.0921	11
155.0939	3
155.0974	3
155.1026	3
155.7271	3
156.0706	6
163.0083	6
163.0209	6
163.0245	7
163.0803	6
163.0875	7
163.1127	7
163.1362	10
163.138	20
163.1398	16
163.1416	39
163.1434	69
163.1452	56
163.147	96
163.1488	92
163.1506	70
163.1524	76
163.1542	56
163.156	26
163.1578	26
163.1596	23
163.1614	13
163.1632	3
163.1668	3
163.1686	3
163.1704	6
163.2029	3
165.1626	6
165.1663	13
171.1066	10
177.1276	6
177.1614	6
177.1651	10
179.0274	10
179.0312	6
179.033	6
179.0368	6
179.0425	6
180.035	6
180.0388	6
180.0407	10
180.0426	6
180.0445	13
181.0854	6
181.0892	6
181.6821	6
191.1323	10
191.1382	10
191.1401	13
191.1421	13
191.144	6
191.1479	13
191.1499	10
192.1402	6
192.15	6
192.1519	6
192.1539	6
192.1558	16
192.1617	6
196.0243	10
196.0263	16
196.0282	35
196.0302	35
196.0322	29
196.0342	38
196.0361	80
196.0381	90
196.0401	58
196.0421	45
196.0441	45
196.046	19
196.048	29
196.05	6
196.052	19
196.0539	6
199.164	6
199.1719	10
201.1762	6
203.1643	10
203.1663	10
203.1683	13
203.1703	16
203.1724	32
203.1744	35
203.1764	80
203.1784	38
203.1804	54
203.1824	58
203.1844	35
203.1864	58
203.1884	22
203.1905	16
203.1925	6
203.1945	13
203.1965	6
203.2025	6
204.0038	6
207.1699	6
207.174	6
207.1842	6
221.2016	6
223.1765	7
224.0795	6
226.0651	7
226.9272	7
227.1781	7
227.1802	6
227.1823	10
227.1845	16
227.1887	16
227.1909	49
227.193	56
227.1951	79
227.1972	72
227.1994	79
227.2015	78
227.2036	117
227.2057	93
227.2079	61
227.21	42
227.2121	26
227.2142	29
227.2164	16
227.2185	10
227.2228	6
227.2249	6
227.4951	6
228.1212	7
228.1873	16
228.1894	19
228.1915	32
228.1936	19
228.1958	26
228.1979	48
228.2	103
228.2022	81
228.2043	68
228.2064	84
228.2086	65
228.2107	71
228.2128	39
228.215	39
228.2171	19
228.2192	26
228.2214	10
228.2235	13
229.188	3
229.1901	6
229.1922	16
229.1944	6
229.1965	13
229.1987	16
229.2008	16
229.2029	29
229.2051	26
229.2072	13
229.2093	22
229.2115	13
229.2136	19
229.2157	19
229.2179	10
239.2217	6
239.2239	10
239.2261	6
239.2283	29
239.2305	19
239.2326	19
239.2348	35
239.237	35
239.2392	29
239.2414	42
239.2435	42
239.2457	26
239.2479	29
239.2501	19
239.2523	6
240.3863	6
247.2047	6
250.0926	6
255.2262	6
255.2307	13
255.233	10
255.242	10
255.2443	10
256.2348	7
256.2371	6
256.2439	10
256.4156	7
256.4178	7
256.4291	7
256.68	7
257.2024	10
257.2047	7
257.2069	27
257.2092	53
257.2115	40
257.2137	88
257.216	115
257.2183	140
257.2205	144
257.2228	226
257.225	267
257.2273	240
257.2296	267
257.2318	298
257.2341	240
257.2364	181
257.2386	103
257.2409	103
257.2432	58
257.2454	27
257.2477	17
257.2499	21
257.2522	10
257.2545	10
257.2567	10
257.259	3
257.3631	3
258.2331	7
260.3255	3
261.4331	3
273.2279	6
275.1929	6
275.2046	16
275.2116	6
275.2233	6
275.2256	13
275.228	19
275.2303	26
275.2327	10
275.235	19
275.2374	64
275.2397	51
275.242	16
275.2444	29
275.2467	32
275.2491	29
275.2514	13
275.2538	10
283.2015	10
283.2086	6
283.211	10
290.3336	6
291.2335	6
291.2359	13
291.2383	6
291.2407	6
291.2431	10
292.7621	7
300.3893	7
300.4798	6
300.7783	7
300.9349	7
301.1675	7
301.1773	7
301.1822	7
301.1846	7
301.1871	10
301.1895	3
301.192	21
301.1944	40
301.1969	35
301.1993	49
301.2018	144
301.2042	155
301.2067	219
301.2091	396
301.2116	379
301.214	394
301.2165	492
301.2189	490
301.2214	461
301.2238	483
301.2263	310
301.2287	249
301.2312	163
301.2336	126
301.2361	84
301.2385	50
301.241	47
301.2434	29
301.2458	18
301.2483	4
301.2508	6
301.2532	11
301.2654	3
301.3732	3
301.7677	4
301.8315	3
302.214	6
302.2164	6
302.2189	14
302.2262	10
302.2311	6
303.2278	6
317.2134	10
317.2234	6
318.2068	6
318.2219	10
318.2269	6
318.2446	7
318.2597	7
318.2647	7
318.3176	7
319.0077	7
319.1917	3
319.1967	10
319.1992	18
319.2018	26
319.2043	54
319.2068	82
319.2094	78
319.2119	166
319.2144	270
319.2169	334
319.2194	543
319.222	494
319.2245	595
319.227	769
319.2295	667
319.232	768
319.2346	592
319.2371	553
319.2396	367
319.2421	277
319.2446	201
319.2472	118
319.2497	92
319.2522	38
319.2547	39
319.2572	23
319.2598	3
319.2623	4
319.2648	4
319.2673	8
319.2925	4
319.343	4
319.6733	4
320.009	3
320.2185	6
320.2235	10
320.2261	6
320.2311	4
320.2336	13
320.2362	13
320.2387	10
320.2412	10
375.2063	6
375.2117	6
375.2172	10
375.2199	10
375.2227	10
375.2254	22
375.2281	19
375.2309	22
375.2336	16
375.2363	13
375.2391	6
375.2418	13
375.2445	10
375.2473	10
375.2527	6
391.2507	7
393.2515	7
414.9363	7
417.8183	10
418.2308	10
418.2337	10
418.2395	6
418.2452	16
418.2481	23
418.251	40
418.2539	30
418.2568	50
418.2597	85
418.2625	56
418.2654	93
418.2683	142
418.2712	96
418.2741	159
418.277	119
418.2798	100
418.2827	106
418.2856	63
418.2885	56
418.2914	73
418.2943	53
418.2972	20
418.3	20
418.3029	17
418.3058	3
418.3087	13
418.3116	3
418.3289	3
419.2616	6
419.2645	3
419.2847	6
434.2665	6
434.9018	6
434.9165	6
434.9254	6
435.9117	7
436.2446	11
436.2476	7
436.2505	14
436.2535	46
436.2564	67
436.2594	74
436.2623	125
436.2653	150
436.2682	136
436.2711	270
436.2741	305
436.277	319
436.28	402
436.2829	419
436.2859	455
436.2888	416
436.2918	386
436.2947	372
436.2977	321
436.3006	280
436.3036	168
436.3065	113
436.3094	98
436.3124	48
436.3154	25
436.3183	29
436.3213	25
436.3242	18
436.3271	21
436.3301	10
436.333	4
436.336	8
436.3419	6
436.7281	4
437.2737	4
437.2767	10
437.2914	6
437.2944	13
437.2974	4
452.2856	6
453.2854	6
454.2923	10
462.494	6
481.6286	6
490.2754	6
498.2587	6
498.2681	10
498.2713	10
529.3391	6
545.3191	6
545.3323	6
545.3356	10
545.3389	19
545.3422	6
545.3488	13
545.3521	13
545.3553	13
545.3652	10
662.4456	6
662.4747	6
662.5037	6
663.441	6
663.4556	6
663.4664	10
663.481	16
663.4846	16
663.4883	6
663.4955	16
663.4991	10
663.5101	10
663.5246	6
663.561	7
664.4445	10
664.4481	32
664.4517	10
664.4554	42
664.459	42
664.4626	49
664.4663	43
664.4699	46
664.4736	43
664.4772	52
664.4808	79
664.4845	82
664.4881	76
664.4918	69
664.4954	59
664.499	66
664.5027	59
664.5063	42
664.5099	36
664.5135	46
664.5172	26
664.5208	33
664.5245	23
664.5281	13
664.5317	10
664.5354	10
736.1677	6
736.1714	6
736.1753	10
736.1791	6
736.1829	10
736.1868	6
736.1982	6
736.2021	16
736.2174	6
736.2213	6
736.2289	10
737.4468	8
737.5388	6
738.4243	10
738.4357	6
738.4396	4
738.4434	4
738.4473	8
738.451	23
738.4549	27
738.4587	43
738.4626	59
738.4664	82
738.4702	123
738.4741	172
738.4779	253
738.4818	307
738.4856	380
738.4894	397
738.4932	624
738.4971	721
738.5009	765
738.5048	821
738.5086	872
738.5124	895
738.5162	999
738.5201	953
738.5239	900
738.5278	937
738.5316	703
738.5354	661
738.5392	515
738.5431	410
738.5469	283
738.5508	180
738.5546	111
738.5584	79
738.5623	43
738.5661	30
738.5699	21
738.5738	13
738.5776	8
738.5853	8
738.5891	9
738.6236	4
738.662	4
738.8767	5
739.4483	6
739.4598	6
739.4637	6
739.4713	6
739.479	19
739.4828	6
739.4867	6
739.4905	32
739.4943	10
739.4982	26
739.502	22
739.5059	29
739.5097	32
739.5135	19
739.5174	35
739.5212	32
739.525	38
739.5289	22
739.5327	26
739.5366	32
739.5404	19
739.5443	29
739.5481	19
739.5519	6
739.5557	10
739.5596	10
739.5634	6
