Mass spectrum: PC(18:0/12-HEPE); LC-ESI-QTOF; MS2
Name: PC(18:0/12-HEPE)
Class: Oxidized Phospholipid
Formula: C46H82NO9P
Exact mass: 824.136
SMILES: CCCCCCCCCCCCCCCCCC(=O)OCC(COP([O-])(=O)OCC[N+](C)(C)C)OC(=O)CCC\C=C/C\C=C/C=C/C(O)C\C=C/C\C=C/CC
InChI: InChI=1S/C46H82NO9P/c1-6-8-10-12-14-15-16-17-18-19-20-21-25-29-33-37-45(49)53-41-44(42-55-57(51,52)54-40-39-47(3,4)5)56-46(50)38-34-30-26-23-22-24-28-32-36-43(48)35-31-27-13-11-9-7-2/h9,11,23-24,26-28,31-32,36,43-44,48H,6-8,10,12-22,25,29-30,33-35,37-42H2,1-5H3/b11-9-,26-23-,28-24-,31-27-,36-32+
Instrument: Acquity UPLC Peptide BEH C18 column (50 x 2.1 mm; 1.7 um), Sciex TripleTOF5600
Instrument type: LC-ESI-QTOF
Ms type: MS2
Ion mode: NEGATIVE
Collision energy: 30-50
Precursor m/z: 882.5865727
Precursor type: [M+CH3COOH-H]-
m/z	relative intensity
78.95899	33
109.1115	13
152.9923	13
152.9958	27
163.1144	13
168.0382	27
168.04	13
168.0418	13
168.0455	13
168.0473	20
179.0971	13
179.099	20
179.1009	13
179.1028	100
179.1047	80
179.1066	40
179.1084	27
179.1122	33
179.1141	20
179.1236	13
201.162	20
201.164	13
207.1069	13
208.103	27
208.1071	20
208.1091	13
208.1132	20
208.1152	33
208.1213	13
216.5299	13
223.0014	13
223.0035	13
223.0056	13
224.0625	13
224.0646	13
224.0752	13
224.0773	13
241.0013	33
241.0035	27
241.0057	54
241.0078	47
241.01	67
241.0122	73
241.0144	54
241.0166	20
241.0188	13
241.021	20
255.2013	13
255.2035	33
255.2058	33
255.208	47
255.2103	13
255.2126	20
255.2148	20
255.2171	13
255.2193	33
255.2216	13
255.2283	20
257.2271	20
257.2317	13
257.2339	13
259.0271	13
273.2137	20
273.2208	20
273.2278	13
273.2324	13
279.2216	13
279.2286	20
279.231	13
279.2357	13
279.2381	20
279.2404	20
279.2428	13
280.2339	13
280.2386	13
281.2339	13
281.2363	20
281.2387	20
281.2411	67
281.2434	33
281.2458	40
281.2481	40
281.2505	13
281.2529	20
281.2552	13
281.2576	47
281.26	13
282.2357	13
282.2381	27
282.2429	13
282.2452	20
282.2476	20
282.25	33
282.2523	54
282.2571	20
282.2618	14
282.3756	28
283.2251	14
283.2417	20
283.244	34
283.2464	28
283.2488	61
283.2512	75
283.2536	152
283.256	151
283.2583	242
283.2607	250
283.2631	234
283.2654	256
283.2678	151
283.2702	205
283.2726	109
283.2749	109
283.2773	55
283.2797	96
283.2821	28
283.2844	35
283.2868	14
283.2892	7
284.2685	13
297.0336	13
297.036	13
297.0433	20
299.1896	20
299.1921	13
299.197	60
299.1994	13
299.2018	54
299.2043	40
299.2067	40
299.2091	13
299.2116	13
299.214	20
299.2238	13
301.204	20
301.2065	27
301.2114	20
301.2138	27
301.2163	13
301.2187	20
301.2285	13
302.2089	20
302.2187	13
302.2236	27
302.226	13
302.2309	13
302.2334	13
303.2326	27
303.2375	13
303.2399	13
303.2424	13
304.2285	13
304.2359	14
304.2605	13
315.0482	14
315.0632	20
316.2314	14
316.6656	14
317.178	14
317.183	27
317.1855	35
317.1881	14
317.1906	34
317.1931	49
317.1956	140
317.1981	140
317.2006	188
317.2032	265
317.2057	279
317.2082	342
317.2107	348
317.2132	223
317.2157	284
317.2182	340
317.2207	180
317.2232	111
317.2258	97
317.2283	55
317.2308	42
317.2333	21
317.2358	21
317.2383	28
317.2408	14
317.2559	7
317.8065	7
318.2217	13
330.2513	7
331.2341	13
415.235	13
417.227	27
417.2414	13
417.2443	20
417.2501	33
417.2529	13
418.2306	20
418.2334	20
418.2508	13
418.2594	13
418.2623	13
419.2267	13
419.2527	13
437.2027	13
437.2204	13
437.2587	20
490.3094	20
490.3126	13
490.3157	27
490.3188	20
490.325	20
490.3282	13
490.3313	13
490.3407	20
508.3115	13
508.3146	13
508.3178	20
508.321	33
508.3242	47
508.3274	20
508.3305	33
508.3337	27
508.3369	54
508.3401	47
508.3433	67
508.3464	20
508.3496	67
508.3528	54
508.356	13
508.3592	40
508.3624	13
508.3655	13
508.3814	13
509.349	13
524.2673	13
524.2802	13
542.272	20
542.2753	13
542.2819	20
577.2797	20
578.2904	13
579.2681	13
579.2748	13
579.3054	13
580.2873	13
580.2906	13
580.2975	13
580.3008	27
580.3043	27
580.3077	27
580.311	13
598.3136	13
600.2755	13
617.3937	13
737.4349	13
737.4388	20
737.4579	27
737.4617	40
737.4656	33
737.4694	20
737.4733	47
737.4809	20
737.4847	13
737.4886	13
737.4924	33
737.4962	54
737.5001	20
737.5039	13
737.5078	13
737.5115	13
737.5154	20
763.4781	13
763.4977	20
797.5342	13
805.98	13
806.0081	13
806.0401	13
808.4734	14
808.4855	7
808.4895	22
808.4935	7
808.4976	80
808.5016	73
808.5056	127
808.5096	131
808.5136	274
808.5176	245
808.5216	484
808.5256	408
808.5297	495
808.5336	612
808.5377	614
808.5417	707
808.5457	999
808.5497	781
808.5537	862
808.5577	996
808.5618	928
808.5657	753
808.5698	768
808.5738	703
808.5778	555
808.5818	585
808.5858	423
808.5898	329
808.5938	225
808.5978	203
808.6019	187
808.6059	85
808.6099	56
808.6139	63
808.6179	24
808.6219	31
808.6259	37
808.6299	24
808.634	24
808.638	14
808.642	13
808.65	21
808.7383	8
809.5089	9
809.533	13
809.545	13
809.549	33
809.5571	13
809.5611	27
809.5651	27
809.5691	13
809.5731	13
809.5771	27
809.5851	40
822.5114	13
822.5518	13
822.5559	13
822.564	27
822.5761	27
822.5801	13
822.5883	20
822.5923	20
822.5964	13
822.6004	13
822.6044	20
823.4747	13
823.4788	13
823.4909	20
823.495	20
823.5071	27
823.5112	13
823.5193	27
823.5273	27
823.5314	13
823.5395	27
823.5476	13
823.5557	13
823.5638	13
835.593	20
864.7067	14
879.7582	13
882.447	20
882.4554	14
882.4596	13
882.4638	20
882.468	77
882.4722	91
882.4764	84
882.4805	133
882.4847	132
882.489	146
882.4931	182
882.4973	219
882.5015	161
882.5057	318
882.5099	319
882.5141	370
882.5182	393
882.5225	498
882.5267	490
882.5308	503
882.535	469
882.5392	395
882.5434	376
882.5476	481
882.5518	368
882.556	347
882.5602	310
882.5644	214
882.5685	186
882.5728	155
882.577	176
882.5811	178
882.5853	118
882.5895	73
882.5938	122
882.5979	108
882.6021	92
882.6063	66
882.6105	38
882.6147	28
882.6189	82
882.623	58
882.6273	20
882.6315	53
882.6398	13
882.644	13
882.6482	16
882.6524	13
882.6608	20
883.4868	13
883.5162	33
883.5203	20
883.5245	13
883.5329	13
883.5413	13
883.5455	13
883.5539	13
883.5581	13
883.6042	13
