Mass spectrum: PE(18:2/12-HETE); LC-ESI-QTOF; MS2
Name: PE(18:2/12-HETE)
Class: Oxidized Phospholipid
Formula: C43H74NO9P
Exact mass: 780.039
SMILES: CCCCC\C=C/C\C=C/CCCCCCCC(=O)OCC(COP(O)(=O)OCCN)OC(=O)CCC\C=C/C\C=C/C=C/C(O)C\C=C/CCCCC
InChI: InChI=1S/C43H74NO9P/c1-3-5-7-9-11-12-13-14-15-16-17-18-22-26-30-34-42(46)50-38-41(39-52-54(48,49)51-37-36-44)53-43(47)35-31-27-23-20-19-21-25-29-33-40(45)32-28-24-10-8-6-4-2/h11-12,14-15,20-21,23-25,28-29,33,40-41,45H,3-10,13,16-19,22,26-27,30-32,34-39,44H2,1-2H3,(H,48,49)/b12-11-,15-14-,23-20-,25-21-,28-24-,33-29+
Instrument: Acquity UPLC Peptide BEH C18 column (50 x 2.1 mm; 1.7 um), Sciex TripleTOF5600
Instrument type: LC-ESI-QTOF
Ms type: MS2
Ion mode: NEGATIVE
Collision energy: 30-50
Precursor m/z: 778.5028435
Precursor type: [M-H]-
m/z	relative intensity
140.0111	64
179.1048	131
179.1104	64
196.0361	64
208.1092	64
241.0124	64
253.2128	64
253.2218	64
253.2262	64
255.224	64
257.2183	64
279.2147	64
279.217	64
279.2194	64
279.2217	64
279.2241	195
279.2264	263
279.2288	131
279.2312	131
279.2335	163
279.2359	227
279.2383	263
279.243	64
279.2453	131
279.2477	99
279.25	99
281.2294	64
281.2436	64
281.2507	64
281.2625	64
301.2018	99
301.2091	99
301.2165	64
301.2214	131
301.2238	64
301.2385	64
319.2068	64
319.2094	64
319.2144	131
319.2169	131
319.2195	263
319.222	227
319.2245	295
319.227	195
319.2295	263
319.2321	131
319.2346	163
319.2371	131
319.2396	163
319.2497	64
476.2589	64
476.2743	99
476.2805	64
476.2835	99
776.0882	64
778.4327	67
778.4445	64
778.4484	99
778.4523	131
778.4602	163
778.4642	131
778.4681	266
778.472	231
778.476	496
778.4799	596
778.4838	631
778.4878	564
778.4917	999
778.4957	602
778.4996	900
778.5035	567
778.5074	637
778.5114	765
778.5153	829
778.5193	839
778.5232	397
778.5272	602
778.5311	768
778.535	467
778.5389	535
778.5429	231
778.5468	304
778.5508	134
778.5547	266
778.5587	163
778.5626	195
778.5665	99
778.5744	99
778.5783	64
779.4408	64
779.4487	64
779.4565	64
779.4604	99
779.4644	99
779.4683	131
779.4723	163
779.4802	99
779.4841	64
779.488	64
779.492	64
779.4959	99
779.5038	99
