Mass spectrum: PE(16:1e/14,15-EpETE); LC-ESI-QTOF; MS2
Name: PE(16:1e/14,15-EpETE)
Class: Oxidized Phospholipid
Formula: C41H72NO8P
Exact mass: 738.002
SMILES: CCCCCCCCCCCCCC\C=C/OCC(COP(O)(=O)OCCN)OC(=O)CCC\C=C/C\C=C/C\C=C/CC1OC1C\C=C/CC
InChI: InChI=1S/C41H72NO8P/c1-3-5-7-8-9-10-11-12-13-16-19-22-25-29-34-46-36-38(37-48-51(44,45)47-35-33-42)49-41(43)32-28-24-21-18-15-14-17-20-23-27-31-40-39(50-40)30-26-6-4-2/h6,14,17-18,21,23,26-27,29,34,38-40H,3-5,7-13,15-16,19-20,22,24-25,28,30-33,35-37,42H2,1-2H3,(H,44,45)/b17-14-,21-18-,26-6-,27-23-,34-29-
Instrument: Acquity UPLC Peptide BEH C18 column (50 x 2.1 mm; 1.7 um), Sciex TripleTOF5600
Instrument type: LC-ESI-QTOF
Ms type: MS2
Ion mode: NEGATIVE
Collision energy: 30-50
Precursor m/z: 736.4922788
Precursor type: [M-H]-
m/z	relative intensity
78.95442	23
78.95818	23
78.95944	23
78.96069	23
78.96194	46
78.96696	23
96.9716	35
107.086	23
109.1075	23
109.1105	23
121.0691	23
121.1017	23
121.1156	23
122.0039	23
125.0919	23
135.1165	23
135.1182	46
140.0065	35
140.0099	23
140.0115	23
140.0132	46
140.0149	58
140.0299	23
149.1378	23
163.1492	46
163.151	23
163.1546	23
167.0998	23
175.1187	23
175.1393	23
175.143	23
175.1449	46
175.1467	58
175.1486	69
175.1505	46
175.1523	46
177.1655	23
189.1268	35
189.1287	23
191.1053	23
191.1092	23
193.1216	23
196.0306	58
196.0325	35
196.0365	104
196.0385	81
196.0404	46
196.0424	69
196.0444	58
196.0464	46
196.0483	23
201.1605	35
201.1625	23
201.1685	23
203.1385	23
205.1201	23
205.1242	23
205.1262	23
205.1282	23
205.1302	24
207.1215	23
207.1256	58
207.1276	69
207.1297	104
207.1317	255
207.1337	279
207.1358	245
207.1378	268
207.1398	268
207.1418	197
207.1439	245
207.1459	127
207.1479	93
207.15	35
207.152	58
207.154	23
207.1561	23
219.1272	46
219.1292	116
219.1313	58
219.1334	46
219.1355	116
219.1376	93
219.1397	116
219.1418	81
219.1439	116
219.146	23
219.148	46
219.1522	35
219.1543	46
219.1585	23
220.1371	23
220.1476	23
221.1452	23
221.1473	23
221.1557	35
225.188	35
227.2039	35
227.2082	23
235.126	23
235.1282	35
235.1325	35
235.1347	23
235.1455	23
239.2286	23
239.2329	23
239.2373	23
239.2395	35
239.2417	58
239.2439	35
239.246	23
239.2482	35
239.2526	23
247.1251	23
247.1429	35
247.1473	23
248.1243	23
248.1265	46
248.1287	23
248.1309	23
248.1331	35
248.1354	93
248.1376	93
248.1398	23
248.142	151
248.1443	58
248.1465	93
248.1487	69
248.1509	35
248.1532	81
248.1576	23
255.195	58
255.1995	81
255.2017	58
255.204	81
255.2062	116
255.2085	151
255.2107	81
255.213	138
255.2153	104
255.2175	116
255.2198	69
255.222	138
255.2243	69
255.2265	46
255.2288	23
256.2441	23
273.2119	23
273.2165	35
273.2212	69
273.2235	23
273.2258	35
273.2282	46
273.2305	23
281.2486	35
281.2509	23
281.2604	23
289.2122	23
299.1778	23
299.1827	23
299.1876	46
299.19	58
299.1925	116
299.1949	116
299.1974	93
299.1998	104
299.2022	116
299.2047	93
299.2071	116
299.2096	58
299.212	46
299.2144	177
299.2169	23
314.3077	24
316.2217	24
316.2343	24
317.1809	46
317.1834	12
317.1859	35
317.1884	49
317.191	49
317.1935	144
317.196	144
317.1985	242
317.201	349
317.2035	384
317.2061	481
317.2086	494
317.2111	386
317.2136	531
317.2161	469
317.2186	581
317.2211	447
317.2236	338
317.2261	119
317.2287	109
317.2312	144
317.2337	96
317.2362	36
317.2387	36
317.2437	12
317.2488	24
318.2221	24
318.2246	23
375.2228	58
375.2255	35
375.2282	58
375.2337	35
375.2392	23
418.2481	23
418.251	23
418.2539	35
418.2568	46
418.2597	69
418.2626	69
418.2655	35
418.2683	173
418.2712	173
418.2741	138
418.277	104
418.2799	116
418.2828	93
418.2857	58
418.2885	93
418.2914	23
418.2943	46
418.3087	35
418.6869	24
421.9064	24
423.4293	24
434.8812	24
436.0737	24
436.2417	23
436.2446	24
436.2505	59
436.2534	35
436.2564	94
436.2594	188
436.2623	189
436.2653	227
436.2682	287
436.2711	442
436.2741	276
436.277	299
436.28	433
436.2829	349
436.2859	432
436.2888	456
436.2918	481
436.2947	300
436.2977	252
436.3006	276
436.3036	144
436.3065	108
436.3094	84
436.3124	12
436.3153	36
436.3183	24
436.3271	35
436.333	12
436.8224	12
437.2944	23
437.5718	12
454.2141	24
662.4814	23
662.496	23
734.1891	23
734.2083	24
736.4235	46
736.4274	46
736.4312	24
736.4351	61
736.4388	50
736.4427	121
736.4465	125
736.4503	175
736.4542	212
736.458	290
736.4619	339
736.4656	367
736.4695	681
736.4733	545
736.4772	650
736.481	573
736.4848	778
736.4886	763
736.4924	983
736.4963	770
736.5001	935
736.504	960
736.5078	999
736.5116	839
736.5154	739
736.5193	499
736.5231	395
736.5269	407
736.5308	293
736.5346	112
736.5384	153
736.5422	88
736.5461	126
736.5499	24
736.5537	26
736.5576	25
736.5614	25
736.5652	51
737.4922	23
737.496	23
737.4999	35
737.5037	35
737.5152	23
737.542	23
