Mass spectrum: PE 34:3; LC-ESI-QTOF; MS2
Name: PE 34:3
Class: PE
Formula: C39H72NO8P
Exact mass: 713.9799999999999
SMILES: CCCCCCCCCCCCCCCC(=O)OCC(COP(O)(=O)OCCN)OC(=O)CCCCCCC\C=C/C\C=C/C\C=C/CC
InChI: InChI=1S/C39H72NO8P/c1-3-5-7-9-11-13-15-17-18-20-22-24-26-28-30-32-39(42)48-37(36-47-49(43,44)46-34-33-40)35-45-38(41)31-29-27-25-23-21-19-16-14-12-10-8-6-4-2/h5,7,11,13,17-18,37H,3-4,6,8-10,12,14-16,19-36,40H2,1-2H3,(H,43,44)/b7-5-,13-11-,18-17-
Instrument: AB Sciex TripleTOF 5600+ system (Q-TOF) equipped with a DuoSpray ion source
Instrument type: LC-ESI-QTOF
Ms type: MS2
Ion mode: NEGATIVE
Collision energy: 45V
Column name: Acquity UPLC Peptide BEH C18 column (50*2.1 mm; 1.7 um; 130A)(Waters Co.,Milford, MA, USA)
Retention time: 9.043955
Precursor type: [M-H]-
Precursor m/z: 712.4879
m/z	relative intensity
152.991	9
196.044	9
255.232	401
259.211	10
275.2	10
277.214	999
279.229	24
434.251	14
452.265	39
452.295	29
474.253	19
509.457	16
712.463	76
712.475	131
712.491	228
712.512	86
