Mass spectrum: PC(16:0e/7-HDoHE); LC-ESI-QTOF; MS2
Name: PC(16:0e/7-HDoHE)
Class: Oxidized Phospholipid
Formula: C46H82NO8P
Exact mass: 808.137
SMILES: CCCCCCCCCCCCCCCCOCC(COP([O-])(=O)OCC[N+](C)(C)C)OC(=O)CC\C=C/CC(O)\C=C\C=C/C\C=C/C\C=C/C\C=C/CC
InChI: InChI=1S/C46H82NO8P/c1-6-8-10-12-14-16-18-20-22-24-26-28-30-35-40-52-42-45(43-54-56(50,51)53-41-39-47(3,4)5)55-46(49)38-34-31-33-37-44(48)36-32-29-27-25-23-21-19-17-15-13-11-9-7-2/h9,11,15,17,21,23,27,29,31-33,36,44-45,48H,6-8,10,12-14,16,18-20,22,24-26,28,30,34-35,37-43H2,1-5H3/b11-9-,17-15-,23-21-,29-27-,33-31-,36-32+
Instrument: Acquity UPLC Peptide BEH C18 column (50 x 2.1 mm; 1.7 um), Sciex TripleTOF5600
Instrument type: LC-ESI-QTOF
Ms type: MS2
Ion mode: NEGATIVE
Collision energy: 30-50
Precursor m/z: 866.5916581
Precursor type: [M+CH3COOH-H]-
m/z	relative intensity
113.0618	30
141.0487	30
141.0504	30
141.0554	30
141.0571	30
201.1586	30
201.1606	30
201.1626	46
201.1646	61
201.1666	46
245.1837	30
281.2106	46
281.213	46
281.2154	46
281.2177	91
281.2201	46
281.2224	61
281.2248	46
281.2272	76
281.2296	61
281.2319	76
281.2343	91
281.2367	91
281.239	61
281.2414	46
281.2509	30
325.2067	30
325.2093	30
325.2118	30
325.2144	30
325.2169	46
325.222	30
343.1991	30
343.2069	30
343.2122	46
343.2148	61
343.2174	106
343.22	166
343.2226	122
343.2253	106
343.2279	122
343.2305	106
343.2331	91
343.2357	61
343.2383	122
343.2409	46
343.2435	30
343.2488	30
377.2422	30
448.303	30
448.312	30
448.315	61
448.318	30
448.3239	46
448.3329	30
466.3064	46
466.3094	76
466.3125	61
466.3186	76
466.3216	46
466.3247	91
466.3277	106
466.3307	137
466.3338	137
466.3399	106
466.343	76
466.346	122
466.3643	30
705.5057	31
721.4666	30
747.5064	30
792.476	31
792.4879	107
792.4919	92
792.4958	91
792.4999	140
792.5038	77
792.5078	109
792.5118	241
792.5157	193
792.5197	323
792.5237	324
792.5276	227
792.5316	621
792.5356	541
792.5396	623
792.5436	605
792.5475	849
792.5515	785
792.5555	950
792.5594	986
792.5634	999
792.5674	963
792.5714	865
792.5753	556
792.5793	569
792.5833	360
792.5872	456
792.5912	294
792.5952	196
792.5992	230
792.6031	162
792.6071	196
792.6111	198
792.6151	65
792.619	16
792.6309	16
792.6349	31
792.6508	16
793.5369	30
793.5449	46
793.5528	46
793.5568	46
793.5607	30
793.5727	30
793.5886	30
793.5925	46
806.5592	30
807.5292	30
866.5189	30
866.5272	30
866.5396	30
866.5479	46
866.5521	46
866.5562	46
866.5645	61
866.5687	46
866.5728	30
866.5811	61
866.5853	46
866.5894	61
866.5936	76
866.5978	30
866.6019	46
866.6102	46
866.6144	46
866.6185	30
866.6227	61
866.6393	30
866.6767	30
867.5242	30
867.5284	30
867.5409	30
867.545	61
867.5533	30
867.5825	30
867.624	30
