Mass spectrum: PC(16:1/14,15-EET); LC-ESI-QTOF; MS2
Name: PC(16:1/14,15-EET)
Class: Oxidized Phospholipid
Formula: C44H78NO9P
Exact mass: 796.082
SMILES: CCCCCC\C=C/CCCCCCCC(=O)OCC(COP([O-])(=O)OCC[N+](C)(C)C)OC(=O)CCC\C=C/C\C=C/C\C=C/CC1OC1CCCCC
InChI: InChI=1S/C44H78NO9P/c1-6-8-10-11-12-13-14-15-16-20-23-26-30-34-43(46)50-38-40(39-52-55(48,49)51-37-36-45(3,4)5)53-44(47)35-31-27-24-21-18-17-19-22-25-29-33-42-41(54-42)32-28-9-7-2/h13-14,17,19,21,24-25,29,40-42H,6-12,15-16,18,20,22-23,26-28,30-39H2,1-5H3/b14-13-,19-17-,24-21-,29-25-
Instrument: Acquity UPLC Peptide BEH C18 column (50 x 2.1 mm; 1.7 um), Sciex TripleTOF5600
Instrument type: LC-ESI-QTOF
Ms type: MS2
Ion mode: NEGATIVE
Collision energy: 30-50
Precursor m/z: 854.5552726
Precursor type: [M+CH3COOH-H]-
m/z	relative intensity
168.0401	23
168.0419	34
168.0438	23
168.0456	23
175.1445	34
175.1464	23
175.1482	34
175.1501	23
175.1594	34
189.1303	23
193.1153	23
219.1246	23
219.1308	23
219.1329	57
219.135	70
219.1371	70
219.1392	57
219.1413	23
219.1434	23
219.1455	57
219.1476	45
219.1496	34
219.1517	23
224.0603	34
224.0688	23
253.1945	34
253.1968	34
253.2012	70
253.2035	173
253.2057	209
253.208	209
253.2102	418
253.2125	266
253.2147	288
253.217	452
253.2192	452
253.2215	336
253.2237	313
253.2259	325
253.2282	220
253.2304	173
253.2327	104
253.2349	23
253.2372	23
253.2417	23
254.2261	23
255.2259	23
257.2134	34
257.2157	34
257.2179	45
257.2202	45
257.2225	34
257.2247	116
257.227	57
257.2292	45
257.2315	57
257.2338	93
257.2383	23
257.2406	23
257.2451	34
275.2393	23
301.1988	23
301.2013	34
301.2037	70
301.2062	82
301.2086	70
301.2111	127
301.2135	104
301.216	104
301.2184	150
301.2209	138
301.2233	93
301.2258	104
301.2282	23
301.2307	34
301.2331	23
301.2356	34
319.1962	23
319.2062	34
319.2088	70
319.2113	104
319.2138	161
319.2163	173
319.2188	302
319.2214	381
319.2239	359
319.2264	277
319.2289	381
319.2314	359
319.234	266
319.2365	288
319.239	220
319.2415	161
319.244	150
319.2466	45
319.2491	45
319.2516	23
319.2542	57
320.2432	34
416.4772	23
460.2743	23
460.2834	23
460.2864	34
460.3106	23
478.2611	23
478.2672	23
478.2703	23
478.2734	45
478.2765	45
478.2796	70
478.2827	82
478.2857	45
478.2888	70
478.2919	70
478.295	57
478.2981	45
478.3012	70
478.3043	70
478.3104	34
478.3135	57
478.3166	70
478.3197	34
526.2839	23
526.3228	23
544.3032	34
544.3098	23
672.7971	23
767.5242	23
767.5281	23
780.4424	57
780.4464	70
780.4504	23
780.4543	59
780.4661	132
780.4701	141
780.474	182
780.478	402
780.4819	393
780.4858	406
780.4898	461
780.4937	411
780.4977	765
780.5016	763
780.5056	742
780.5095	806
780.5134	817
780.5174	826
780.5213	999
780.5253	974
780.5292	801
780.5331	910
780.5371	804
780.541	765
780.545	765
780.5489	450
780.5529	354
780.5568	450
780.5607	293
780.5647	207
780.5686	207
780.5726	134
780.5765	39
780.5804	111
780.5844	27
780.5923	27
780.5962	23
780.6002	70
781.5229	23
781.5308	34
781.5386	23
781.5466	23
795.481	23
795.4929	23
854.478	23
854.4862	34
854.5027	23
854.5068	34
854.5109	57
854.5151	45
854.5192	45
854.5233	70
854.5275	23
854.5316	23
854.5357	34
854.5398	70
854.5439	70
854.548	93
854.5522	93
854.5563	45
854.5604	138
854.5646	82
854.5687	93
854.5728	116
854.5769	70
854.5811	70
854.5852	34
854.5893	93
854.5934	57
854.5975	23
854.6017	23
854.6058	34
854.6141	23
855.5094	23
855.5754	23
