Mass spectrum: PE(16:1/17,18-EpETE); LC-ESI-QTOF; MS2
Name: PE(16:1/17,18-EpETE)
Class: Oxidized Phospholipid
Formula: C41H70NO9P
Exact mass: 751.985
SMILES: CCCCCC\C=C/CCCCCCCC(=O)OCC(COP(O)(=O)OCCN)OC(=O)CCC\C=C/C\C=C/C\C=C/C\C=C/CC1OC1CC
InChI: InChI=1S/C41H70NO9P/c1-3-5-6-7-8-9-10-12-16-19-22-25-28-31-40(43)47-35-37(36-49-52(45,46)48-34-33-42)50-41(44)32-29-26-23-20-17-14-11-13-15-18-21-24-27-30-39-38(4-2)51-39/h9-11,14-15,18,20,23-24,27,37-39H,3-8,12-13,16-17,19,21-22,25-26,28-36,42H2,1-2H3,(H,45,46)/b10-9-,14-11-,18-15-,23-20-,27-24-
Instrument: Acquity UPLC Peptide BEH C18 column (50 x 2.1 mm; 1.7 um), Sciex TripleTOF5600
Instrument type: LC-ESI-QTOF
Ms type: MS2
Ion mode: NEGATIVE
Collision energy: 30-50
Precursor m/z: 750.4715433
Precursor type: [M-H]-
m/z	relative intensity
140.0048	89
140.0098	89
196.0326	134
196.0345	178
201.1685	134
214.0502	89
215.1726	89
215.1768	89
215.1788	89
215.1809	223
215.183	89
215.185	89
253.202	277
253.2042	178
253.2065	321
253.2087	223
253.211	633
253.2132	633
253.2155	865
253.2177	999
253.2199	776
253.2222	776
253.2244	589
253.2267	455
253.2289	366
253.2312	223
253.2334	178
253.2357	134
253.2379	89
255.2086	89
255.2109	89
255.2132	134
255.2154	134
259.1548	89
259.1594	89
259.1662	134
259.1685	277
259.1753	89
273.2191	134
273.226	89
273.2354	89
299.1903	134
299.1952	89
299.1976	89
299.2001	134
299.2025	223
299.2049	89
299.2098	89
299.2122	178
316.2371	89
317.1913	89
317.1938	89
317.1963	178
317.1988	277
317.2013	277
317.2038	455
317.2064	134
317.2089	277
317.2114	455
317.2139	544
317.2164	544
317.2189	223
317.2214	500
317.2239	455
317.2265	89
317.229	178
317.2315	89
317.2365	134
432.2553	89
450.2361	89
450.2511	89
450.2541	134
450.2571	89
450.2601	89
450.2661	89
450.269	89
450.272	134
450.275	89
450.278	89
450.293	134
450.299	89
750.4245	134
750.4284	134
750.4323	89
750.4362	178
750.44	134
750.4438	223
750.4477	277
750.4516	500
750.4554	277
750.4593	544
750.4632	731
750.467	544
750.4709	633
750.4748	776
750.4786	999
750.4825	589
750.4864	910
750.4902	731
750.4941	455
750.498	731
750.5018	544
750.5057	544
750.5096	277
750.5134	321
750.5173	134
750.5212	134
750.525	134
750.5405	89
751.4879	89
