Mass spectrum: Cer[NS] d33:1; LC-ESI-QTOF; MS2
Name: Cer[NS] d33:1
Class: Cer_NS
Formula: C33H65NO3
Exact mass: 523.887
SMILES: CCCCCCCCCCCCCCCC(=O)NC(CO)C(O)\C=C\CCCCCCCCCCCC
InChI: InChI=1S/C33H65NO3/c1-3-5-7-9-11-13-15-17-19-21-23-25-27-29-33(37)34-31(30-35)32(36)28-26-24-22-20-18-16-14-12-10-8-6-4-2/h26,28,31-32,35-36H,3-25,27,29-30H2,1-2H3,(H,34,37)/b28-26+
Instrument: AB Sciex TripleTOF 5600+ system (Q-TOF) equipped with a DuoSpray ion source
Instrument type: LC-ESI-QTOF
Ms type: MS2
Ion mode: NEGATIVE
Collision energy: 45V
Column name: Acquity UPLC Peptide BEH C18 column (50*2.1 mm; 1.7 um; 130A)(Waters Co.,Milford, MA, USA)
Retention time: 9.363428
Precursor type: [M+CH3COOH-H]-
Precursor m/z: 582.5057
m/z	relative intensity
223.197	98
223.207	142
223.22	64
237.223	230
249.212	81
249.227	107
252.235	67
254.242	76
254.249	163
254.257	64
255.226	76
255.239	130
266.244	130
280.263	954
280.28	87
296.252	141
296.26	65
296.271	43
298.272	21
303.247	21
474.458	174
490.454	108
492.441	21
492.476	108
520.84	24
522.474	999
522.493	537
522.526	43
