Mass spectrum: SM d42:2; LC-ESI-QTOF; MS2
Name: SM d42:2
Class: SM
Formula: C47H93N2O6P
Exact mass: 813.245
SMILES: CCCCCCCCCCCCC\C=C\C(O)C(COP([O-])(=O)OCC[N+](C)(C)C)NC(=O)CCCCCCCCC\C=C/CCCCCCCCCCCC
InChI: InChI=1S/C47H93N2O6P/c1-6-8-10-12-14-16-18-20-21-22-23-24-25-26-27-29-31-33-35-37-39-41-47(51)48-45(44-55-56(52,53)54-43-42-49(3,4)5)46(50)40-38-36-34-32-30-28-19-17-15-13-11-9-7-2/h24-25,38,40,45-46,50H,6-23,26-37,39,41-44H2,1-5H3,(H-,48,51,52,53)/b25-24-,40-38+
Instrument: AB Sciex TripleTOF 5600+ system (Q-TOF) equipped with a DuoSpray ion source
Instrument type: LC-ESI-QTOF
Ms type: MS2
Ion mode: NEGATIVE
Collision energy: 45V
Column name: Acquity UPLC Peptide BEH C18 column (50*2.1 mm; 1.7 um; 130A)(Waters Co.,Milford, MA, USA)
Retention time: 12.23446
Precursor type: [M+CH3COOH-H]-
Precursor m/z: 871.6905
m/z	relative intensity
78.958	9
89.026	0
119.031	1
122.983	4
168.042	41
431.306	1
449.295	1
449.333	1
459.353	1
463.527	0
514.356	1
644.59	0
645.614	2
726.575	3
752.586	2
795.077	1
795.133	3
797.653	999
798.657	3
812.576	2
812.608	7
812.655	2
825.642	6
825.673	6
825.704	2
871.617	2
871.65	9
871.671	12
871.684	7
871.7	16
871.735	4
