Mass spectrum: PI 35:2; LC-ESI-QTOF; MS2
Name: PI 35:2
Class: PI
Formula: C44H81O13P
Exact mass: 849.0949999999999
SMILES: CCCCCCCCCCCCCCCCC(=O)OCC(COP(O)(=O)OC1C(O)C(O)C(O)C(O)C1O)OC(=O)CCCCCCC\C=C/C\C=C/CCCCC
InChI: InChI=1S/C44H81O13P/c1-3-5-7-9-11-13-15-17-19-21-23-25-27-29-31-33-38(46)56-36(35-55-58(52,53)57-44-42(50)40(48)39(47)41(49)43(44)51)34-54-37(45)32-30-28-26-24-22-20-18-16-14-12-10-8-6-4-2/h11,13,17,19,36,39-44,47-51H,3-10,12,14-16,18,20-35H2,1-2H3,(H,52,53)/b13-11-,19-17-
Instrument: AB Sciex TripleTOF 5600+ system (Q-TOF) equipped with a DuoSpray ion source
Instrument type: LC-ESI-QTOF
Ms type: MS2
Ion mode: NEGATIVE
Collision energy: 45V
Column name: Acquity UPLC Peptide BEH C18 column (50*2.1 mm; 1.7 um; 130A)(Waters Co.,Milford, MA, USA)
Retention time: 8.489993
Precursor type: [M-H]-
Precursor m/z: 847.5332
m/z	relative intensity
139.007	2
152.993	7
171.109	2
222.999	18
241.011	74
259.025	2
269.247	99
279.231	91
281.248	6
283.237	7
283.264	6
293.215	3
295.234	5
296.239	5
297.037	12
309.281	2
310.188	2
315.049	5
327.233	3
405.229	18
405.243	32
415.22	10
423.253	7
518.981	2
567.29	70
567.341	5
577.275	10
585.295	12
595.284	3
655.558	2
662.834	2
685.472	3
787.487	7
787.634	2
844.866	6
847.531	999
847.624	6
848.525	2
