Mass spectrum: PE 40:6; LC-ESI-QTOF; MS2
Name: PE 40:6
Class: PE
Formula: C45H78NO8P
Exact mass: 792.0939999999999
SMILES: CCCCCCCC\C=C/CCCCCCCC(=O)OCC(COP(O)(=O)OCCN)OC(=O)CCCCC\C=C/C\C=C/C\C=C/C\C=C/C\C=C/CC
InChI: InChI=1S/C45H78NO8P/c1-3-5-7-9-11-13-15-17-19-20-21-22-24-26-28-30-32-34-36-38-45(48)54-43(42-53-55(49,50)52-40-39-46)41-51-44(47)37-35-33-31-29-27-25-23-18-16-14-12-10-8-6-4-2/h5,7,11,13,17-19,21-23,26,28,43H,3-4,6,8-10,12,14-16,20,24-25,27,29-42,46H2,1-2H3,(H,49,50)/b7-5-,13-11-,19-17-,22-21-,23-18-,28-26-
Instrument: AB Sciex TripleTOF 5600+ system (Q-TOF) equipped with a DuoSpray ion source
Instrument type: LC-ESI-QTOF
Ms type: MS2
Ion mode: NEGATIVE
Collision energy: 45V
Column name: Acquity UPLC Peptide BEH C18 column (50*2.1 mm; 1.7 um; 130A)(Waters Co.,Milford, MA, USA)
Retention time: 9.607102
Precursor type: [M-H]-
Precursor m/z: 790.5392
m/z	relative intensity
78.958	3
140.011	19
178.031	1
196.036	23
214.052	2
219.136	1
231.139	1
231.211	12
245.153	1
251.2	6
253.22	1
257.223	2
279.235	4
280.372	4
281.248	503
282.255	3
283.246	2
283.272	2
284.269	2
285.256	74
303.22	3
303.237	3
307.264	1
311.244	4
327.228	2
328.226	3
329.248	999
331.177	1
331.255	3
331.268	3
417.224	2
438.269	1
460.28	19
460.302	2
478.24	1
478.273	31
478.292	75
478.323	7
508.276	5
508.301	2
526.28	6
526.302	6
659.495	3
703.496	3
715.602	0
716.508	0
716.564	6
722.497	0
788.018	2
788.071	3
788.446	0
790.464	2
790.536	593
791.024	0
791.538	4
