Mass spectrum: PG(18:1/10-HDoHE); LC-ESI-QTOF; MS2
Name: PG(18:1/10-HDoHE)
Class: Oxidized Phospholipid
Formula: C46H77O11P
Exact mass: 837.087
SMILES: CCCCCCCC\C=C/CCCCCCCC(=O)OCC(COP(O)(=O)OCC(O)CO)OC(=O)CC\C=C/C\C=C/CC(O)\C=C\C=C/C\C=C/C\C=C/CC
InChI: InChI=1S/C46H77O11P/c1-3-5-7-9-11-13-15-16-17-18-19-21-23-28-32-36-45(50)54-40-44(41-56-58(52,53)55-39-43(49)38-47)57-46(51)37-33-29-25-24-27-31-35-42(48)34-30-26-22-20-14-12-10-8-6-4-2/h6,8,12,14,16-17,22,25-27,29-31,34,42-44,47-49H,3-5,7,9-11,13,15,18-21,23-24,28,32-33,35-41H2,1-2H3,(H,52,53)/b8-6-,14-12-,17-16-,26-22-,29-25-,31-27-,34-30+
Instrument: Acquity UPLC Peptide BEH C18 column (50 x 2.1 mm; 1.7 um), Sciex TripleTOF5600
Instrument type: LC-ESI-QTOF
Ms type: MS2
Ion mode: NEGATIVE
Collision energy: 30-50
Precursor m/z: 835.5130738
Precursor type: [M-H]-
m/z	relative intensity
78.95904	8
107.09	8
109.1026	8
121.1059	8
133.103	8
137.0963	8
137.1029	8
152.9853	8
152.987	8
152.9888	11
152.9905	8
152.9923	8
152.994	19
152.9958	16
152.9975	11
152.9993	11
153.001	19
153.0028	11
153.0796	16
153.0813	19
153.0831	23
153.0848	23
153.0865	35
153.0883	74
153.09	74
153.0918	66
153.0935	89
153.0953	58
153.097	27
153.0988	35
153.1005	23
153.1023	11
153.104	8
161.1239	8
161.1256	8
161.1274	8
161.1292	23
161.131	23
161.1328	27
161.1346	27
161.1364	8
161.1382	16
161.1418	8
161.1436	8
163.0784	8
181.0738	8
181.0757	23
181.0776	16
181.0795	23
181.0814	35
181.0833	47
181.0852	50
181.0871	16
181.089	47
181.0909	27
181.0928	35
181.0947	23
181.0966	16
181.0985	8
181.1004	11
181.1023	8
189.167	8
189.1689	8
190.1249	8
190.1347	16
190.1366	23
190.1405	11
190.1424	8
190.1444	11
190.1463	11
190.16	8
198.889	8
203.315	8
203.8686	8
227.18	11
227.1863	19
280.366	8
280.3684	11
280.3708	8
280.3731	16
281.1935	8
281.2077	11
281.2101	19
281.2125	51
281.2148	27
281.2172	71
281.2196	72
281.2219	92
281.2243	127
281.2267	222
281.229	234
281.2314	249
281.2338	351
281.2361	468
281.2385	496
281.2409	640
281.2432	820
281.2456	929
281.248	999
281.2503	845
281.2527	818
281.255	714
281.2574	412
281.2598	328
281.2621	228
281.2645	174
281.2669	107
281.2693	83
281.2716	67
281.274	63
281.2763	36
281.2787	13
281.2976	8
281.345	5
281.8375	5
282.2379	11
282.2426	11
282.245	19
282.2474	16
282.2521	11
282.2545	11
282.2569	11
282.2616	11
299.2211	8
299.2236	8
299.226	19
299.2285	8
299.2333	27
299.2358	27
299.2382	19
299.2407	19
299.2431	19
299.248	8
299.2529	8
299.2553	11
299.2626	8
325.1936	8
325.1986	27
325.2012	16
325.2037	47
325.2063	23
325.2088	35
325.2114	35
325.2139	31
325.2165	62
325.219	74
325.2216	42
325.2241	31
325.2267	23
325.2292	19
325.2317	23
325.2343	19
325.2368	11
325.2521	8
343.1908	8
343.1961	11
343.2013	27
343.2039	23
343.2065	47
343.2091	50
343.2118	66
343.2144	89
343.217	139
343.2196	152
343.2222	155
343.2248	249
343.2274	155
343.23	139
343.2327	116
343.2353	124
343.2379	94
343.2405	81
343.2431	50
343.2457	31
343.2484	23
343.2509	23
343.2536	8
343.2588	8
343.264	11
344.2346	8
435.2396	8
435.2514	11
435.2661	8
469.569	8
479.197	8
479.2094	16
479.2155	8
479.2186	16
479.2217	8
479.2279	8
479.231	16
479.2341	8
479.2372	11
491.278	8
491.2936	11
493.5887	8
497.2222	8
497.2317	8
509.2498	8
509.2689	8
509.2721	11
509.2753	8
509.288	8
509.2912	11
509.2944	19
509.2976	16
509.304	8
553.2314	8
553.2347	16
553.238	8
553.2414	19
553.2447	11
553.248	11
553.2513	11
553.2546	27
553.258	50
553.2613	19
553.2646	19
553.2679	27
553.2712	16
553.2779	8
553.2812	8
553.2845	8
553.3177	8
571.2504	11
571.2538	8
571.2639	8
571.2673	11
571.274	23
571.2774	8
832.8492	8
832.8615	8
832.8859	8
832.89	11
832.894	11
832.8981	8
834.5155	8
834.5807	8
835.3962	11
835.4166	8
835.4247	8
835.4288	16
835.4329	19
835.437	16
835.441	31
835.4451	79
835.4492	43
835.4532	70
835.4573	60
835.4614	108
835.4655	130
835.4695	174
835.4736	202
835.4777	297
835.4818	360
835.4859	428
835.49	489
835.494	653
835.4981	789
835.5022	758
835.5063	795
835.5104	821
835.5145	899
835.5185	931
835.5226	997
835.5267	935
835.5308	888
835.5349	732
835.5389	704
835.543	630
835.5471	683
835.5511	473
835.5552	333
835.5593	244
835.5634	225
835.5674	186
835.5715	116
835.5756	70
835.5797	111
835.5837	39
835.5878	43
835.5919	27
835.596	19
835.6001	35
835.6042	14
835.6082	8
835.6205	8
836.4446	8
836.465	8
836.4894	19
836.4935	19
836.4976	16
836.5017	19
836.5058	19
836.5099	35
836.514	35
836.518	31
836.5221	27
836.5262	19
836.5303	35
836.5344	8
836.5385	19
836.5425	16
836.5466	19
836.5547	19
836.5629	19
836.5711	8
