Mass spectrum: SM d41:1; LC-ESI-QTOF; MS2
Name: SM d41:1
Class: SM
Formula: C46H93N2O6P
Exact mass: 801.234
SMILES: CCCCCCCCCCCCCCCCCCCCCCC(=O)NC(COP([O-])(=O)OCC[N+](C)(C)C)C(O)\C=C\CCCCCCCCCCCCC
InChI: InChI=1S/C46H93N2O6P/c1-6-8-10-12-14-16-18-20-21-22-23-24-25-26-28-30-32-34-36-38-40-46(50)47-44(43-54-55(51,52)53-42-41-48(3,4)5)45(49)39-37-35-33-31-29-27-19-17-15-13-11-9-7-2/h37,39,44-45,49H,6-36,38,40-43H2,1-5H3,(H-,47,50,51,52)/b39-37+
Instrument: AB Sciex TripleTOF 5600+ system (Q-TOF) equipped with a DuoSpray ion source
Instrument type: LC-ESI-QTOF
Ms type: MS2
Ion mode: NEGATIVE
Collision energy: 45V
Column name: Acquity UPLC Peptide BEH C18 column (50*2.1 mm; 1.7 um; 130A)(Waters Co.,Milford, MA, USA)
Retention time: 12.87914
Precursor type: [M+CH3COOH-H]-
Precursor m/z: 859.6846
m/z	relative intensity
78.72	0
78.959	9
89.021	0
96.972	0
119.036	0
122.983	1
122.991	0
125.0	0
141.015	0
145.935	0
167.521	0
168.042	31
353.341	0
429.738	0
431.313	0
441.073	0
441.165	0
446.552	0
449.298	1
449.321	1
453.173	0
633.59	0
633.645	0
651.602	0
714.546	1
714.579	1
740.595	0
740.626	0
783.139	1
783.172	2
783.226	0
783.709	0
785.503	0
785.648	999
786.238	0
786.37	0
786.622	1
786.653	1
786.672	1
799.662	0
800.586	2
800.618	4
800.651	0
812.658	0
813.643	1
813.666	1
813.689	1
859.674	29
859.71	9
