Mass spectrum: PI 40:8; LC-ESI-QTOF; MS2
Name: PI 40:8
Class: PI
Formula: C49H79O13P
Exact mass: 907.134
SMILES: CC\C=C/C\C=C/C\C=C/C\C=C/CCCCCCC(=O)OCC(COP(O)(=O)OC1C(O)C(O)C(O)C(O)C1O)OC(=O)CCCCCC\C=C/C\C=C/C\C=C/C\C=C/CC
InChI: InChI=1S/C49H79O13P/c1-3-5-7-9-11-13-15-17-19-21-23-25-27-29-31-33-35-37-42(50)59-39-41(40-60-63(57,58)62-49-47(55)45(53)44(52)46(54)48(49)56)61-43(51)38-36-34-32-30-28-26-24-22-20-18-16-14-12-10-8-6-4-2/h5-8,11-14,17-20,23-26,41,44-49,52-56H,3-4,9-10,15-16,21-22,27-40H2,1-2H3,(H,57,58)/b7-5-,8-6-,13-11-,14-12-,19-17-,20-18-,25-23-,26-24-
Instrument: AB Sciex TripleTOF 5600+ system (Q-TOF) equipped with a DuoSpray ion source
Instrument type: LC-ESI-QTOF
Ms type: MS2
Ion mode: NEGATIVE
Collision energy: 45V
Column name: Acquity UPLC Peptide BEH C18 column (50*2.1 mm; 1.7 um; 130A)(Waters Co.,Milford, MA, USA)
Retention time: 8.06666
Precursor type: [M-H]-
Precursor m/z: 905.5183
m/z	relative intensity
134.985	7
152.989	7
222.999	31
241.011	87
255.232	19
259.241	14
279.229	17
283.255	10
297.039	13
303.23	157
303.247	30
315.04	15
327.224	7
375.215	5
415.226	14
419.26	13
436.299	5
439.216	46
439.24	23
569.635	5
577.267	5
601.271	47
601.294	33
619.283	30
705.437	5
743.452	12
823.496	21
823.55	19
829.524	5
831.517	15
844.577	5
845.395	5
845.465	5
873.496	7
887.476	6
887.58	6
902.654	9
905.468	228
905.514	999
905.609	16
906.51	8
