Mass spectrum: PG(18:1/11,12-EET); LC-ESI-QTOF; MS2
Name: PG(18:1/11,12-EET)
Class: Oxidized Phospholipid
Formula: C44H77O11P
Exact mass: 813.065
SMILES: CCCCCCCC\C=C/CCCCCCCC(=O)OCC(COP(O)(=O)OCC(O)CO)OC(=O)CCC\C=C/C\C=C/CC1OC1C\C=C/CCCCC
InChI: InChI=1S/C44H77O11P/c1-3-5-7-9-11-12-13-14-15-16-17-18-21-25-29-33-43(47)51-37-40(38-53-56(49,50)52-36-39(46)35-45)54-44(48)34-30-26-22-19-20-24-28-32-42-41(55-42)31-27-23-10-8-6-4-2/h14-15,19,22-24,27-28,39-42,45-46H,3-13,16-18,20-21,25-26,29-38H2,1-2H3,(H,49,50)/b15-14-,22-19-,27-23-,28-24-
Instrument: Acquity UPLC Peptide BEH C18 column (50 x 2.1 mm; 1.7 um), Sciex TripleTOF5600
Instrument type: LC-ESI-QTOF
Ms type: MS2
Ion mode: NEGATIVE
Collision energy: 30-50
Precursor m/z: 811.5130738
Precursor type: [M-H]-
m/z	relative intensity
152.9923	76
167.1085	152
179.1066	109
208.1091	76
281.2292	109
281.2316	293
281.234	217
281.2363	369
281.2387	554
281.2411	630
281.2434	586
281.2458	771
281.2482	814
281.2505	521
281.2529	890
281.2553	445
281.2576	445
281.26	369
281.2624	217
281.2647	109
281.2671	185
281.2695	76
281.2718	76
281.2766	76
284.2685	76
301.2016	76
301.2065	76
301.209	76
319.2117	109
319.2142	109
319.2167	109
319.2193	185
319.2218	185
319.2243	217
319.2268	261
319.2293	185
319.2319	185
319.2344	185
319.2369	152
319.2394	109
319.2419	109
319.2445	152
491.2816	76
546.2715	76
547.2646	76
724.5183	109
729.4792	76
729.4907	76
737.4887	76
811.4331	76
811.4532	76
811.4612	109
811.4652	109
811.4692	76
811.4733	293
811.4773	337
811.4813	478
811.4854	185
811.4894	261
811.4933	185
811.4974	521
811.5014	402
811.5054	445
811.5095	478
811.5135	630
811.5175	478
811.5215	999
811.5255	706
811.5295	586
811.5336	771
811.5376	662
811.5416	402
811.5457	293
811.5496	337
811.5536	261
811.5577	185
811.5617	261
811.5657	152
811.5698	261
811.5737	109
811.5778	76
811.5818	109
812.5226	76
