Mass spectrum: PC(16:0/8,9-EpETE); LC-ESI-QTOF; MS2
Name: PC(16:0/8,9-EpETE)
Class: Oxidized Phospholipid
Formula: C44H78NO9P
Exact mass: 796.082
SMILES: CCCCCCCCCCCCCCCC(=O)OCC(COP([O-])(=O)OCC[N+](C)(C)C)OC(=O)CCC\C=C/CC1OC1C\C=C/C\C=C/C\C=C/CC
InChI: InChI=1S/C44H78NO9P/c1-6-8-10-12-14-16-17-18-19-21-23-25-30-34-43(46)50-38-40(39-52-55(48,49)51-37-36-45(3,4)5)53-44(47)35-31-27-26-29-33-42-41(54-42)32-28-24-22-20-15-13-11-9-7-2/h9,11,15,20,24,26,28-29,40-42H,6-8,10,12-14,16-19,21-23,25,27,30-39H2,1-5H3/b11-9-,20-15-,28-24-,29-26-
Instrument: Acquity UPLC Peptide BEH C18 column (50 x 2.1 mm; 1.7 um), Sciex TripleTOF5600
Instrument type: LC-ESI-QTOF
Ms type: MS2
Ion mode: NEGATIVE
Collision energy: 30-50
Precursor m/z: 854.5552726
Precursor type: [M+CH3COOH-H]-
m/z	relative intensity
123.073	30
123.0793	30
123.0808	46
149.137	46
155.0636	30
155.0671	30
155.0689	30
155.0706	30
155.0741	46
155.0812	46
167.0663	61
167.0717	76
168.0452	30
190.1364	30
219.1808	30
224.0623	30
224.0644	30
224.0686	30
224.0729	30
254.4421	31
255.2012	61
255.2034	61
255.2057	31
255.2102	77
255.2124	231
255.2147	138
255.2169	231
255.2192	107
255.2215	124
255.2237	249
255.226	246
255.2282	450
255.2305	323
255.2327	432
255.235	231
255.2372	353
255.2395	430
255.2417	259
255.244	152
255.2462	92
255.2485	92
255.2508	76
255.253	30
255.2553	30
273.2137	30
273.2346	46
281.2339	30
281.2362	30
281.2386	30
281.2433	61
281.2457	30
281.2481	46
281.2505	76
282.2546	30
289.2069	30
299.1847	61
299.1945	61
299.1969	46
299.1994	30
299.2067	30
299.2091	46
299.2116	30
299.2165	30
299.2189	30
317.178	31
317.1831	61
317.1881	46
317.1931	107
317.1956	138
317.1982	61
317.2007	185
317.2032	185
317.2057	290
317.2082	259
317.2107	229
317.2132	259
317.2157	244
317.2183	214
317.2208	152
317.2233	122
317.2258	198
317.2283	106
317.2308	106
317.2333	61
317.2358	61
317.2409	30
317.2434	30
462.2848	30
462.2969	46
480.2827	46
480.292	46
480.295	61
480.2981	106
480.3012	76
480.3043	30
480.3074	61
480.3105	91
480.3136	61
480.3167	76
480.3198	76
480.3229	61
480.326	91
480.3291	30
480.3322	76
480.3352	30
480.3383	61
524.2678	30
780.4343	63
780.4462	46
780.454	30
780.458	61
780.4619	109
780.4659	94
780.4698	146
780.4738	226
780.4777	195
780.4816	192
780.4856	197
780.4895	424
780.4935	228
780.4974	356
780.5013	639
780.5053	947
780.5092	819
780.5132	642
780.5171	858
780.5211	951
780.525	852
780.5289	804
780.5329	999
780.5368	756
780.5408	753
780.5447	785
780.5486	701
780.5526	639
780.5565	473
780.5605	523
780.5644	164
780.5684	147
780.5723	82
780.5762	79
780.5802	49
780.5841	97
780.5881	66
780.592	61
780.5959	30
780.5999	46
780.6038	30
780.6078	34
781.5424	46
795.4927	30
807.5244	30
807.5324	61
807.5404	46
807.5444	30
807.5484	61
807.5565	46
807.5925	46
854.3626	30
854.4863	30
854.5029	46
854.5234	30
854.5276	137
854.5317	46
854.5358	46
854.54	46
854.5441	91
854.5523	76
854.5565	137
854.5606	46
854.5647	46
854.5688	122
854.5729	91
854.5771	46
854.5812	30
854.5853	91
854.5895	91
854.5936	61
854.5977	46
854.6018	76
854.606	61
854.6101	30
854.6348	30
855.4683	30
855.4724	46
855.4889	30
855.493	30
855.5013	30
855.5054	91
855.5095	30
855.5137	30
855.5219	30
855.5302	46
855.5466	46
855.5508	30
