Mass spectrum: PC 36:5; LC-ESI-QTOF; MS2
Name: PC 36:5
Class: PC
Formula: C44H78NO8P
Exact mass: 780.0829999999999
SMILES: CCCCC\C=C/C\C=C/CCCCCCCC(=O)OCC(COP([O-])(=O)OCC[N+](C)(C)C)OC(=O)CCCCCCC\C=C/C\C=C/C\C=C/CC
InChI: InChI=1S/C44H78NO8P/c1-6-8-10-12-14-16-18-20-22-24-26-28-30-32-34-36-43(46)50-40-42(41-52-54(48,49)51-39-38-45(3,4)5)53-44(47)37-35-33-31-29-27-25-23-21-19-17-15-13-11-9-7-2/h9,11,14-17,20-23,42H,6-8,10,12-13,18-19,24-41H2,1-5H3/b11-9-,16-14-,17-15-,22-20-,23-21-
Instrument: AB Sciex TripleTOF 5600+ system (Q-TOF) equipped with a DuoSpray ion source
Instrument type: LC-ESI-QTOF
Ms type: MS2
Ion mode: NEGATIVE
Collision energy: 45V
Column name: Acquity UPLC Peptide BEH C18 column (50*2.1 mm; 1.7 um; 130A)(Waters Co.,Milford, MA, USA)
Retention time: 8.60985
Precursor type: [M+CH3COOH-H]-
Precursor m/z: 838.5557
m/z	relative intensity
168.042	32
224.07	16
227.208	8
253.228	8
255.229	12
277.217	331
278.218	8
279.208	38
279.232	999
281.253	8
300.205	8
301.216	12
303.231	20
327.209	8
478.285	8
480.314	8
484.279	8
486.282	16
502.266	12
502.293	29
504.297	17
748.509	8
751.515	16
763.502	9
764.485	314
764.521	583
764.548	225
779.471	20
838.523	37
838.558	67
838.605	37
