Mass spectrum: PC 36:5; LC-ESI-QTOF; MS2
Name: PC 36:5
Class: PC
Formula: C44H78NO8P
Exact mass: 780.0829999999999
SMILES: CCCCCCCCCCCCCCCC(=O)OCC(COP([O-])(=O)OCC[N+](C)(C)C)OC(=O)CCC\C=C/C\C=C/C\C=C/C\C=C/C\C=C/CC
InChI: InChI=1S/C44H78NO8P/c1-6-8-10-12-14-16-18-20-21-22-23-25-27-29-31-33-35-37-44(47)53-42(41-52-54(48,49)51-39-38-45(3,4)5)40-50-43(46)36-34-32-30-28-26-24-19-17-15-13-11-9-7-2/h8,10,14,16,20-21,23,25,29,31,42H,6-7,9,11-13,15,17-19,22,24,26-28,30,32-41H2,1-5H3/b10-8-,16-14-,21-20-,25-23-,31-29-
Instrument: AB Sciex TripleTOF 5600+ system (Q-TOF) equipped with a DuoSpray ion source
Instrument type: LC-ESI-QTOF
Ms type: MS2
Ion mode: NEGATIVE
Collision energy: 45V
Column name: Acquity UPLC Peptide BEH C18 column (50*2.1 mm; 1.7 um; 130A)(Waters Co.,Milford, MA, USA)
Retention time: 8.91649
Precursor type: [M+CH3COOH-H]-
Precursor m/z: 838.5594
m/z	relative intensity
78.958	2
107.085	0
117.071	0
121.102	0
137.132	0
151.148	1
152.992	0
163.149	1
165.164	0
168.042	21
177.092	1
177.164	1
181.125	0
191.105	0
195.139	0
202.541	0
203.18	21
206.059	1
215.18	1
217.125	1
223.17	5
224.069	27
229.195	2
231.141	0
237.216	0
242.077	1
245.156	1
254.439	2
255.232	514
256.235	0
256.424	0
257.227	150
271.205	1
281.192	0
283.208	5
283.263	0
284.269	0
285.187	0
299.201	0
300.277	4
300.298	0
301.124	0
301.217	999
302.221	1
391.226	3
406.275	1
409.235	0
437.21	0
452.252	1
462.296	22
478.228	0
478.806	0
480.307	135
480.69	0
495.269	0
508.283	12
517.327	0
526.288	9
693.439	2
693.468	0
719.456	1
719.489	0
762.064	0
762.095	2
762.116	0
762.142	1
762.159	0
764.52	910
764.703	0
765.083	0
765.489	0
765.521	3
778.538	0
779.46	2
779.485	11
779.537	0
835.913	0
838.557	98
841.869	0
