Mass spectrum: PC 33:0; LC-ESI-QTOF; MS2
Name: PC 33:0
Class: PC
Formula: C41H82NO8P
Exact mass: 748.0819999999999
SMILES: CCCCCCCCCCCCCCCCC(=O)OC(COC(=O)CCCCCCCCCCCCCCC)COP([O-])(=O)OCC[N+](C)(C)C
InChI: InChI=1S/C41H82NO8P/c1-6-8-10-12-14-16-18-20-22-24-26-28-30-32-34-41(44)50-39(38-49-51(45,46)48-36-35-42(3,4)5)37-47-40(43)33-31-29-27-25-23-21-19-17-15-13-11-9-7-2/h39H,6-38H2,1-5H3
Instrument: AB Sciex TripleTOF 5600+ system (Q-TOF) equipped with a DuoSpray ion source
Instrument type: LC-ESI-QTOF
Ms type: MS2
Ion mode: NEGATIVE
Collision energy: 45V
Column name: Acquity UPLC Peptide BEH C18 column (50*2.1 mm; 1.7 um; 130A)(Waters Co.,Milford, MA, USA)
Retention time: 10.22326
Precursor type: [M+CH3COOH-H]-
Precursor m/z: 806.5928
m/z	relative intensity
224.071	39
241.21	69
241.218	50
241.227	80
255.231	999
269.247	536
279.238	22
281.247	59
282.261	29
283.265	139
305.248	273
436.289	29
480.297	29
494.33	130
508.331	22
566.499	19
724.506	110
724.529	70
724.543	80
724.556	29
732.549	939
732.57	384
732.58	202
743.554	19
747.526	19
806.507	90
806.536	70
806.549	39
806.577	50
806.595	91
806.61	80
