Mass spectrum: PS 42:10; LC-ESI-QTOF; MS2
Name: PS 42:10
Class: PS
Formula: C48H74NO10P
Exact mass: 856.093
SMILES: CC\C=C/C\C=C/C\C=C/C\C=C/CCCCCCC(=O)OCC(COP(O)(=O)OCC(N)C(O)=O)OC(=O)CC\C=C/C\C=C/C\C=C/C\C=C/C\C=C/C\C=C/CC
InChI: InChI=1S/C48H74NO10P/c1-3-5-7-9-11-13-15-17-19-21-22-24-26-28-30-32-34-36-38-40-47(51)59-44(42-57-60(54,55)58-43-45(49)48(52)53)41-56-46(50)39-37-35-33-31-29-27-25-23-20-18-16-14-12-10-8-6-4-2/h5-8,11-14,17-20,22,24-25,27-28,30,34,36,44-45H,3-4,9-10,15-16,21,23,26,29,31-33,35,37-43,49H2,1-2H3,(H,52,53)(H,54,55)/b7-5-,8-6-,13-11-,14-12-,19-17-,20-18-,24-22-,27-25-,30-28-,36-34-
Instrument: AB Sciex TripleTOF 5600+ system (Q-TOF) equipped with a DuoSpray ion source
Instrument type: LC-ESI-QTOF
Ms type: MS2
Ion mode: NEGATIVE
Collision energy: 45V
Column name: Acquity UPLC Peptide BEH C18 column (50*2.1 mm; 1.7 um; 130A)(Waters Co.,Milford, MA, USA)
Retention time: 8.073263
Precursor type: [M-H]-
Precursor m/z: 854.5099
m/z	relative intensity
78.957	28
97.029	20
121.062	18
140.011	21
152.988	31
153.0	28
162.065	24
196.034	72
196.044	31
214.05	18
225.179	19
225.193	40
255.164	24
255.183	24
255.23	21
269.243	28
283.263	999
293.191	17
295.204	16
301.179	10
303.227	64
311.204	62
327.228	119
337.183	27
355.183	34
373.2	50
439.217	34
457.238	15
463.221	107
480.302	355
480.322	198
481.238	44
564.349	6
570.251	6
599.245	6
602.348	9
767.414	15
767.44	44
767.465	186
767.503	53
767.529	15
820.542	12
836.467	25
836.496	53
836.513	62
836.528	28
836.567	21
854.454	47
854.483	132
854.511	265
854.544	40
854.586	34
855.468	11
855.524	31
