Mass spectrum: PE(18:2e/8-HETE); LC-ESI-QTOF; MS2
Name: PE(18:2e/8-HETE)
Class: Oxidized Phospholipid
Formula: C43H76NO8P
Exact mass: 766.056
SMILES: CCCCCCCCCCCCC\C=C/C\C=C/OCC(COP(O)(=O)OCCN)OC(=O)CCC\C=C/CC(O)\C=C/C=C\C\C=C/CCCCC
InChI: InChI=1S/C43H76NO8P/c1-3-5-7-9-11-13-15-16-17-18-19-20-22-24-28-32-37-49-39-42(40-51-53(47,48)50-38-36-44)52-43(46)35-31-27-26-30-34-41(45)33-29-25-23-21-14-12-10-8-6-4-2/h12,14,22-26,29-30,32-33,37,41-42,45H,3-11,13,15-21,27-28,31,34-36,38-40,44H2,1-2H3,(H,47,48)/b14-12-,24-22-,25-23-,30-26-,33-29-,37-32-
Instrument: Acquity UPLC Peptide BEH C18 column (50 x 2.1 mm; 1.7 um), Sciex TripleTOF5600
Instrument type: LC-ESI-QTOF
Ms type: MS2
Ion mode: NEGATIVE
Collision energy: 30-50
Precursor m/z: 764.5235789
Precursor type: [M-H]-
m/z	relative intensity
111.0823	34
111.0838	34
127.0705	34
127.0753	53
127.0769	34
140.0164	34
155.0642	105
155.066	70
155.0677	70
155.0695	175
155.0712	192
155.073	105
155.0748	70
155.0765	87
155.0783	34
155.08	34
163.1454	34
163.1472	53
163.149	53
163.1508	53
163.1526	34
192.1541	34
196.0383	34
196.0403	34
219.6996	34
227.1889	34
227.191	34
227.1931	34
227.1953	53
227.1974	34
227.1995	34
227.2016	87
227.2038	122
227.2059	141
227.208	53
227.2101	34
227.2165	34
228.2045	53
228.2066	34
228.2087	34
228.2151	70
228.2172	34
229.2073	34
253.2039	34
253.2106	70
253.2129	87
253.2151	87
253.2174	70
253.2196	105
253.2219	141
253.2241	34
253.2264	53
254.2062	34
254.2085	70
254.2107	53
254.2175	53
254.2197	53
254.222	70
254.2242	70
254.2287	53
255.2196	53
255.2241	70
255.2286	87
257.2071	34
257.2093	34
257.2138	87
257.2161	87
257.2184	70
257.2206	158
257.2229	122
257.2252	122
257.2274	175
257.2297	105
257.2319	105
257.2342	122
257.2365	70
257.2387	105
265.2639	34
281.2342	34
281.2437	34
281.2555	34
281.265	34
291.2287	34
301.1945	53
301.2018	70
301.2043	175
301.2067	175
301.2092	158
301.2116	158
301.2141	262
301.2165	296
301.219	228
301.2214	192
301.2238	192
301.2263	158
301.2288	53
301.2312	175
301.2386	70
319.2018	34
319.2043	53
319.2094	53
319.2119	315
319.2144	192
319.2169	175
319.2195	262
319.222	350
319.2245	490
319.227	350
319.2295	315
319.232	296
319.2346	245
319.2371	332
319.2396	228
319.2421	105
319.2447	87
319.2472	105
319.2522	70
320.2185	34
444.2763	87
444.2793	34
444.2852	105
444.2882	105
444.2942	70
444.2971	53
444.3001	34
444.3031	34
444.3061	53
444.321	34
462.2723	53
462.2753	34
462.2784	53
462.2814	122
462.2845	209
462.2875	192
462.2905	158
462.2935	175
462.2966	175
462.2996	192
462.3026	315
462.3057	192
462.3087	122
462.3117	141
462.3148	158
462.3178	122
462.3239	34
462.33	53
462.333	34
687.488	34
689.4725	34
689.491	34
689.4947	34
689.5058	34
689.5095	70
689.5132	34
690.4546	53
690.4583	53
690.4657	34
690.4694	70
690.4731	53
690.4805	53
690.4843	53
690.488	70
690.4917	158
690.4954	192
690.4991	122
690.5028	105
690.5065	122
690.5102	105
690.5139	53
690.5176	141
690.5214	87
690.525	105
690.5287	53
690.5436	34
690.5584	34
747.4689	36
763.6338	36
764.4411	53
764.4645	53
764.4684	142
764.4723	72
764.4762	163
764.4801	267
764.484	308
764.4879	235
764.4918	221
764.4957	368
764.4996	610
764.5035	418
764.5074	458
764.5113	533
764.5152	682
764.5191	631
764.523	775
764.5269	905
764.5308	608
764.5347	999
764.5386	684
764.5425	553
764.5464	682
764.5503	663
764.5542	350
764.5581	368
764.562	332
764.5659	257
764.5698	166
764.5737	111
764.5776	111
764.5815	113
764.5854	55
764.5894	72
764.5932	34
764.5971	53
764.601	34
764.6127	34
765.5259	34
765.5299	34
