Mass spectrum: Cer[NP] t36:0; LC-ESI-QTOF; MS2
Name: Cer[NP] t36:0
Class: Cer_NP
Formula: C36H73NO4
Exact mass: 583.983
SMILES: CCCCCCCCCCCCCCCCCC(=O)NC(CO)C(O)C(O)CCCCCCCCCCCCCC
InChI: InChI=1S/C36H73NO4/c1-3-5-7-9-11-13-15-17-18-19-21-23-25-27-29-31-35(40)37-33(32-38)36(41)34(39)30-28-26-24-22-20-16-14-12-10-8-6-4-2/h33-34,36,38-39,41H,3-32H2,1-2H3,(H,37,40)
Instrument: AB Sciex TripleTOF 5600+ system (Q-TOF) equipped with a DuoSpray ion source
Instrument type: LC-ESI-QTOF
Ms type: MS2
Ion mode: NEGATIVE
Collision energy: 45V
Column name: Acquity UPLC Peptide BEH C18 column (50*2.1 mm; 1.7 um; 130A)(Waters Co.,Milford, MA, USA)
Retention time: 10.25346
Precursor type: [M+CH3COOH-H]-
Precursor m/z: 642.5667
m/z	relative intensity
225.225	34
255.233	65
265.255	55
267.233	72
279.223	20
282.276	87
283.263	488
296.301	31
308.295	167
316.273	104
324.29	212
326.292	126
326.312	265
338.308	105
516.504	31
546.528	52
564.531	63
582.51	116
582.539	999
582.572	233
