Mass spectrum: PI(18:0e/18-HETE); LC-ESI-QTOF; MS2
Name: PI(18:0e/18-HETE)
Class: Oxidized Phospholipid
Formula: C47H85O13P
Exact mass: 889.16
SMILES: CCCCCCCCCCCCCCCCCCOCC(COP(O)(=O)OC1C(O)C(O)C(O)C(O)C1O)OC(=O)CCC\C=C/C\C=C/C\C=C/C\C=C/CCC(O)CC
InChI: InChI=1S/C47H85O13P/c1-3-5-6-7-8-9-10-11-12-15-18-21-24-27-30-33-36-57-37-40(38-58-61(55,56)60-47-45(53)43(51)42(50)44(52)46(47)54)59-41(49)35-32-29-26-23-20-17-14-13-16-19-22-25-28-31-34-39(48)4-2/h14,16-17,19,23,25-26,28,39-40,42-48,50-54H,3-13,15,18,20-22,24,27,29-38H2,1-2H3,(H,55,56)/b17-14-,19-16-,26-23-,28-25-
Instrument: Acquity UPLC Peptide BEH C18 column (50 x 2.1 mm; 1.7 um), Sciex TripleTOF5600
Instrument type: LC-ESI-QTOF
Ms type: MS2
Ion mode: NEGATIVE
Collision energy: 30-50
Precursor m/z: 887.5655033
Precursor type: [M-H]-
m/z	relative intensity
132.2577	14
217.1967	22
217.203	14
240.999	22
241.0012	14
241.0034	36
241.0055	43
241.0077	29
241.0099	58
241.0121	116
241.0143	36
241.0165	72
241.0187	58
241.0318	29
261.1705	14
261.1774	22
261.1819	36
261.1842	22
261.1865	22
261.1888	36
261.1934	22
261.1956	22
283.263	14
301.2065	22
301.2113	14
301.2138	14
301.2162	29
301.2187	22
301.2211	14
317.2056	14
318.2267	15
319.2066	14
319.2091	43
319.2116	29
319.2142	36
319.2167	146
319.2192	72
319.2217	182
319.2242	182
319.2267	131
319.2293	203
319.2318	139
319.2343	96
319.2368	124
319.2394	66
319.2419	65
319.2444	43
319.2495	15
320.2309	22
405.25	14
405.2556	29
405.2585	14
405.2613	29
405.2642	14
405.267	22
405.2698	43
405.2727	36
405.2755	36
405.2784	65
405.2812	72
405.2841	29
405.2869	58
405.2897	50
405.2926	29
405.2954	22
405.2982	22
405.3153	14
567.2958	14
567.3025	14
567.3193	14
567.3361	43
567.3394	22
567.3495	14
567.3596	22
567.3663	14
567.3898	14
585.3152	14
585.3255	14
585.3323	22
585.3392	22
585.346	29
585.3494	29
585.3528	14
813.5693	14
884.7715	14
884.8008	14
887.4554	16
887.4848	22
887.489	29
887.51	9
887.5142	72
887.5184	114
887.5226	114
887.5268	163
887.531	300
887.5352	285
887.5394	488
887.5436	399
887.5479	601
887.5521	624
887.5562	670
887.5604	792
887.5646	753
887.5688	812
887.5731	655
887.5773	999
887.5815	916
887.5856	718
887.5898	691
887.5941	778
887.5983	598
887.6025	575
887.6067	595
887.6109	327
887.6151	395
887.6193	229
887.6235	167
887.6277	145
887.6319	108
887.6361	84
887.6403	43
887.6445	25
887.6487	17
887.6529	26
887.6571	42
887.6613	17
887.6655	16
887.6697	16
888.5233	14
888.5569	22
888.5612	58
888.5654	43
888.5696	14
888.5738	43
888.578	22
888.5822	22
888.5864	58
888.5906	43
888.5948	22
888.6032	14
888.6074	29
888.6116	22
888.6158	36
888.6201	14
888.6243	22
888.6411	14
