Mass spectrum: PC(16:0e/19,20-EpDPE); LC-ESI-QTOF; MS2
Name: PC(16:0e/19,20-EpDPE)
Class: Oxidized Phospholipid
Formula: C46H82NO8P
Exact mass: 808.137
SMILES: CCCCCCCCCCCCCCCCOCC(COP([O-])(=O)OCC[N+](C)(C)C)OC(=O)CC\C=C/C\C=C/C\C=C/C\C=C/C\C=C/CC1OC1CC
InChI: InChI=1S/C46H82NO8P/c1-6-8-9-10-11-12-13-14-20-23-26-29-32-35-39-51-41-43(42-53-56(49,50)52-40-38-47(3,4)5)54-46(48)37-34-31-28-25-22-19-17-15-16-18-21-24-27-30-33-36-45-44(7-2)55-45/h15-16,19,21-22,24,28,30-31,33,43-45H,6-14,17-18,20,23,25-27,29,32,34-42H2,1-5H3/b16-15-,22-19-,24-21-,31-28-,33-30-
Instrument: Acquity UPLC Peptide BEH C18 column (50 x 2.1 mm; 1.7 um), Sciex TripleTOF5600
Instrument type: LC-ESI-QTOF
Ms type: MS2
Ion mode: NEGATIVE
Collision energy: 30-50
Precursor m/z: 866.5916581
Precursor type: [M+CH3COOH-H]-
m/z	relative intensity
105.0732	20
107.0917	20
154.9502	20
161.1333	20
175.1487	20
227.1744	20
241.1883	50
241.1904	31
241.1926	31
241.1948	81
241.1992	60
241.2014	31
241.2036	31
241.2058	20
241.208	20
241.2102	31
243.2062	20
281.2159	20
281.2206	41
281.223	60
281.2254	60
281.2278	60
281.2301	41
281.2325	60
281.2372	31
281.2396	50
281.2443	20
285.1765	20
285.1788	20
285.1836	31
285.1884	41
285.1907	50
285.1931	31
299.2198	20
299.2223	20
299.2247	41
299.2272	50
299.2296	20
299.2321	50
299.2345	50
299.2369	50
299.2394	60
299.2418	60
299.2443	50
299.2491	31
299.2516	31
299.254	41
299.2589	20
315.2446	20
325.2025	41
325.2076	31
325.2101	50
325.2126	60
325.2152	60
325.2177	60
325.2203	31
325.2228	41
325.2254	31
325.2279	41
325.2305	20
342.1527	20
343.2027	20
343.2079	20
343.2105	50
343.2131	81
343.2157	132
343.2184	132
343.2209	101
343.2236	243
343.2262	192
343.2288	233
343.2314	243
343.234	161
343.2366	121
343.2393	151
343.2419	81
343.2445	31
343.2471	50
343.2497	41
344.2307	20
377.2407	20
377.2434	20
377.2599	20
448.2897	20
448.3017	20
448.3136	41
448.3166	31
448.3196	41
448.3226	20
448.3256	20
448.3316	31
448.3346	41
466.299	41
466.3051	31
466.3082	41
466.3112	41
466.3143	81
466.3173	91
466.3204	91
466.3234	111
466.3264	142
466.3295	151
466.3326	70
466.3356	142
466.3387	111
466.3417	151
466.3447	70
466.3478	50
466.3508	91
466.3569	20
466.363	20
466.3661	20
466.3691	20
792.4843	20
792.4882	20
792.4922	20
792.4962	62
792.5001	43
792.5041	63
792.5081	88
792.512	132
792.516	168
792.52	266
792.524	349
792.528	368
792.5319	359
792.5359	455
792.5399	613
792.5438	619
792.5478	758
792.5518	784
792.5557	752
792.5597	833
792.5637	999
792.5677	888
792.5717	864
792.5756	657
792.5796	748
792.5836	648
792.5875	464
792.5915	553
792.5955	372
792.5994	398
792.6034	250
792.6074	224
792.6113	114
792.6153	125
792.6193	90
792.6233	23
792.6273	23
792.6312	38
792.6352	22
792.6392	23
792.6431	20
793.108	12
793.5372	20
793.5531	42
793.561	21
793.565	20
793.5729	31
793.5769	32
793.5928	50
793.5968	20
807.5256	20
819.5748	20
857.5217	20
866.4697	20
866.4904	20
866.5237	50
866.5278	20
866.5361	20
866.5403	31
866.5527	20
866.5569	20
866.561	41
866.5693	50
866.5735	50
866.5776	70
866.5818	91
866.586	50
866.5901	41
866.5943	101
866.5984	81
866.6026	41
866.6068	81
866.6109	70
866.6151	60
866.6234	81
866.6275	121
866.6441	20
866.6483	31
867.5416	31
867.5582	20
