Mass spectrum: PI(16:0e/18-HETE); LC-ESI-QTOF; MS2
Name: PI(16:0e/18-HETE)
Class: Oxidized Phospholipid
Formula: C45H81O13P
Exact mass: 861.106
SMILES: CCCCCCCCCCCCCCCCOCC(COP(O)(=O)OC1C(O)C(O)C(O)C(O)C1O)OC(=O)CCC\C=C/C\C=C/C\C=C/C\C=C/CCC(O)CC
InChI: InChI=1S/C45H81O13P/c1-3-5-6-7-8-9-10-11-16-19-22-25-28-31-34-55-35-38(36-56-59(53,54)58-45-43(51)41(49)40(48)42(50)44(45)52)57-39(47)33-30-27-24-21-18-15-13-12-14-17-20-23-26-29-32-37(46)4-2/h13-15,17,21,23-24,26,37-38,40-46,48-52H,3-12,16,18-20,22,25,27-36H2,1-2H3,(H,53,54)/b15-13-,17-14-,24-21-,26-23-
Instrument: Acquity UPLC Peptide BEH C18 column (50 x 2.1 mm; 1.7 um), Sciex TripleTOF5600
Instrument type: LC-ESI-QTOF
Ms type: MS2
Ion mode: NEGATIVE
Collision energy: 30-50
Precursor m/z: 859.5342032
Precursor type: [M-H]-
m/z	relative intensity
78.95605	5
78.9573	5
78.95854	7
78.96228	5
217.1835	5
217.1855	5
217.1897	7
217.1959	5
217.198	5
222.9927	7
223.0011	7
223.0052	5
240.9979	22
241	7
241.0022	7
241.0044	18
241.0066	34
241.0087	30
241.0109	19
241.0131	38
241.0153	16
241.0175	14
241.0196	12
241.0218	17
241.0262	7
261.1755	5
261.1778	7
261.18	7
261.1823	12
261.1845	13
261.1868	12
261.1891	12
261.1913	5
261.1936	7
261.1982	7
275.2384	5
301.2022	5
301.2047	10
301.2071	5
301.2095	7
301.212	7
301.2144	13
301.2168	10
301.2193	13
301.2217	10
301.2242	12
301.2266	7
301.229	5
319.2033	5
319.2083	13
319.2108	14
319.2133	33
319.2158	50
319.2183	33
319.2208	80
319.2233	72
319.2258	118
319.2283	73
319.2308	77
319.2333	62
319.2358	53
319.2384	27
319.2409	21
319.2434	14
319.2459	16
319.2484	7
377.2284	5
377.2311	7
377.2338	28
377.2365	20
377.2393	20
377.242	27
377.2447	48
377.2474	30
377.2502	23
377.2529	22
377.2556	14
377.2583	10
377.261	12
377.2638	5
395.254	10
395.2596	5
395.2763	5
478.9839	5
483.809	5
488.4909	5
489.5703	5
500.0685	5
539.2758	5
539.2823	12
539.2855	5
539.2888	12
539.2921	12
539.2953	18
539.2986	12
539.3018	5
539.3051	7
539.3083	5
539.3116	7
539.3181	5
539.3214	5
557.2884	5
557.2983	7
557.3016	7
557.3049	10
557.3082	7
557.3115	10
557.3182	7
606.2585	5
697.4797	7
697.4835	7
697.4982	5
697.5057	5
712.457	5
772.4713	5
785.5497	5
785.5654	5
785.5733	5
799.4873	5
799.4913	5
799.4952	5
856.7875	5
856.8121	12
856.8162	5
856.8203	7
856.8286	5
856.8326	10
856.8367	7
856.845	5
856.886	5
859.4457	5
859.4539	5
859.4581	7
859.4704	7
859.4745	23
859.4786	15
859.4827	14
859.4868	32
859.491	47
859.4951	59
859.4991	101
859.5033	167
859.5074	195
859.5115	339
859.5156	410
859.5197	586
859.5238	714
859.528	784
859.532	999
859.5362	918
859.5403	940
859.5444	869
859.5485	665
859.5526	508
859.5567	383
859.5609	306
859.5649	198
859.569	160
859.5732	140
859.5773	104
859.5814	54
859.5855	55
859.5896	23
859.5938	25
859.5978	31
859.602	12
859.6102	9
859.7294	5
