Mass spectrum: PC 44:8; LC-ESI-QTOF; MS2
Name: PC 44:8
Class: PC
Formula: C52H88NO8P
Exact mass: 886.251
SMILES: CC\C=C/C\C=C/C\C=C/C\C=C/CCCCCCCCCCC(=O)OC(COC(=O)CCCCCC\C=C/C\C=C/C\C=C/C\C=C/CC)COP([O-])(=O)OCC[N+](C)(C)C
InChI: InChI=1S/C52H88NO8P/c1-6-8-10-12-14-16-18-20-22-24-25-26-27-29-31-33-35-37-39-41-43-45-52(55)61-50(49-60-62(56,57)59-47-46-53(3,4)5)48-58-51(54)44-42-40-38-36-34-32-30-28-23-21-19-17-15-13-11-9-7-2/h8-11,14-17,20-23,25-26,30,32,50H,6-7,12-13,18-19,24,27-29,31,33-49H2,1-5H3/b10-8-,11-9-,16-14-,17-15-,22-20-,23-21-,26-25-,32-30-
Instrument: AB Sciex TripleTOF 5600+ system (Q-TOF) equipped with a DuoSpray ion source
Instrument type: LC-ESI-QTOF
Ms type: MS2
Ion mode: NEGATIVE
Collision energy: 45V
Column name: Acquity UPLC Peptide BEH C18 column (50*2.1 mm; 1.7 um; 130A)(Waters Co.,Milford, MA, USA)
Retention time: 10.03659
Precursor type: [M+CH3COOH-H]-
Precursor m/z: 944.637
m/z	relative intensity
168.043	16
205.195	12
224.071	10
259.238	24
259.263	6
283.26	7
285.225	6
302.277	7
303.231	708
358.213	4
359.278	56
359.297	246
528.304	10
566.36	16
584.333	8
584.368	47
584.388	19
652.41	4
673.476	4
799.536	7
868.539	4
870.567	216
870.6	999
870.653	49
870.669	20
870.723	8
871.588	9
885.545	23
900.514	4
944.606	43
944.638	69
944.676	28
944.705	12
