Mass spectrum: PE(18:2e/16,17-EpDPE); LC-ESI-QTOF; MS2
Name: PE(18:2e/16,17-EpDPE)
Class: Oxidized Phospholipid
Formula: C45H76NO8P
Exact mass: 790.078
SMILES: CCCCCCCCCCCCC\C=C/C\C=C/OCC(COP(O)(=O)OCCN)OC(=O)CC\C=C/C\C=C/C\C=C/C\C=C/CC1OC1C\C=C/CC
InChI: InChI=1S/C45H76NO8P/c1-3-5-7-8-9-10-11-12-13-14-17-20-23-26-29-33-38-50-40-42(41-52-55(48,49)51-39-37-46)53-45(47)36-32-28-25-22-19-16-15-18-21-24-27-31-35-44-43(54-44)34-30-6-4-2/h6,16,18-19,21,23,25-28,30-31,33,38,42-44H,3-5,7-15,17,20,22,24,29,32,34-37,39-41,46H2,1-2H3,(H,48,49)/b19-16-,21-18-,26-23-,28-25-,30-6-,31-27-,38-33-
Instrument: Acquity UPLC Peptide BEH C18 column (50 x 2.1 mm; 1.7 um), Sciex TripleTOF5600
Instrument type: LC-ESI-QTOF
Ms type: MS2
Ion mode: NEGATIVE
Collision energy: 30-50
Precursor m/z: 788.5235789
Precursor type: [M-H]-
m/z	relative intensity
93.07014	44
140.0135	44
147.1203	44
161.1301	44
189.1562	44
189.162	69
189.1679	69
189.1737	44
196.0348	44
196.0368	69
196.0388	44
196.0427	44
196.0506	44
205.1245	44
225.1904	44
229.1523	44
229.1587	44
233.1444	69
233.1465	69
233.1487	44
233.1508	69
233.1552	135
233.1573	44
233.1595	135
233.1616	91
245.153	44
245.1597	91
247.1653	44
247.1764	44
251.2011	44
251.2101	44
252.1905	44
253.2021	44
253.2066	91
253.2088	113
253.2111	157
253.2133	91
253.2156	69
253.2178	182
253.2201	113
253.2223	113
253.2245	135
253.229	44
254.2314	44
265.2482	44
273.1561	44
274.1388	44
274.1481	44
274.1505	69
274.1575	44
274.1598	69
274.1621	69
274.1645	113
274.1691	44
274.1808	44
279.2175	44
281.2109	44
281.2133	44
281.218	44
281.2204	44
281.2228	91
281.2252	182
281.2275	69
281.2299	44
281.2322	44
281.2346	113
281.237	69
281.2417	44
281.2441	69
281.2464	113
281.2535	69
281.2583	44
282.2459	44
282.2601	44
283.2566	44
283.2661	44
283.2685	69
283.2851	44
296.2372	44
299.2366	69
299.2391	69
299.2415	44
325.2046	44
325.2071	69
325.2173	69
325.2198	113
325.2224	69
343.2021	44
343.2073	44
343.21	44
343.2126	113
343.2152	157
343.2178	270
343.2204	339
343.223	182
343.2256	317
343.2283	248
343.2309	339
343.2335	226
343.2361	204
343.2387	113
343.2413	113
343.244	157
343.2492	44
401.2354	44
401.2524	44
419.2444	44
444.2647	44
444.2706	69
444.2736	44
444.2766	113
444.2795	44
444.2855	113
444.2885	44
444.2914	135
444.2944	91
444.2974	44
444.3004	91
444.3033	44
444.3063	44
444.3271	44
462.2664	44
462.2695	69
462.2725	44
462.2756	44
462.2786	226
462.2816	113
462.2847	113
462.2877	339
462.2907	248
462.2938	270
462.2968	226
462.2998	182
462.3029	295
462.3059	135
462.3089	248
462.312	270
462.315	91
462.318	113
462.321	91
462.3241	69
462.3271	69
462.3302	44
668.4505	44
701.4948	44
701.4985	69
701.5284	69
701.5321	44
713.4703	44
714.477	91
714.4808	91
714.4846	44
714.4883	44
714.4921	69
714.4958	44
714.4996	69
714.5034	113
714.5109	182
714.5147	69
714.5185	91
714.526	44
714.5298	44
714.5411	69
726.5548	47
788.094	47
788.2128	47
788.2723	47
788.4505	44
788.4545	44
788.4584	44
788.4664	113
788.4703	44
788.4743	137
788.4783	159
788.4822	93
788.4862	259
788.4901	330
788.4941	284
788.498	403
788.502	452
788.506	545
788.5099	636
788.5139	802
788.5179	877
788.5219	738
788.5258	999
788.5298	738
788.5337	833
788.5377	966
788.5416	636
788.5456	709
788.5496	618
788.5535	452
788.5575	423
788.5615	213
788.5654	284
788.5694	237
788.5734	334
788.5773	264
788.5813	71
788.5852	142
788.5931	69
788.5971	44
788.6011	44
788.609	44
789.5127	69
789.5166	69
789.5245	44
789.5364	44
789.5404	91
