Mass spectrum: Cer[NP] t40:0; LC-ESI-QTOF; MS2
Name: Cer[NP] t40:0
Class: Cer_NP
Formula: C40H81NO4
Exact mass: 640.0909999999999
SMILES: CCCCCCCCCCCCCCCCCCCCCC(=O)NC(CO)C(O)C(O)CCCCCCCCCCCCCC
InChI: InChI=1S/C40H81NO4/c1-3-5-7-9-11-13-15-17-18-19-20-21-22-23-25-27-29-31-33-35-39(44)41-37(36-42)40(45)38(43)34-32-30-28-26-24-16-14-12-10-8-6-4-2/h37-38,40,42-43,45H,3-36H2,1-2H3,(H,41,44)
Instrument: AB Sciex TripleTOF 5600+ system (Q-TOF) equipped with a DuoSpray ion source
Instrument type: LC-ESI-QTOF
Ms type: MS2
Ion mode: NEGATIVE
Collision energy: 45V
Column name: Acquity UPLC Peptide BEH C18 column (50*2.1 mm; 1.7 um; 130A)(Waters Co.,Milford, MA, USA)
Retention time: 12.84217
Precursor type: [M+CH3COOH-H]-
Precursor m/z: 698.6279
m/z	relative intensity
225.22	11
237.223	2
239.235	2
250.255	2
255.231	38
263.242	2
266.397	2
267.231	171
279.227	5
279.246	2
280.261	14
280.28	2
281.244	2
284.258	7
297.244	3
316.282	9
321.31	8
321.329	2
323.329	7
338.24	2
338.339	102
339.324	142
350.344	2
352.357	19
353.341	12
362.338	6
364.355	63
366.37	3
376.354	10
380.35	98
381.169	2
382.333	5
382.364	265
394.365	239
396.381	3
408.386	3
445.399	2
505.423	5
572.574	12
584.567	2
588.578	3
590.589	3
602.588	71
606.533	2
606.572	19
606.591	10
608.569	2
608.595	6
620.551	2
620.588	22
620.619	4
636.579	5
638.412	3
638.602	999
