Mass spectrum: PG 36:4; LC-ESI-QTOF; MS2
Name: PG 36:4
Class: PG
Formula: C42H75O10P
Exact mass: 771.028
SMILES: CCCCC\C=C/C\C=C/CCCCCCCC(=O)OCC(COP(O)(=O)OCC(O)CO)OC(=O)CCCCCCC\C=C/C\C=C/CCCCC
InChI: InChI=1S/C42H75O10P/c1-3-5-7-9-11-13-15-17-19-21-23-25-27-29-31-33-41(45)49-37-40(38-51-53(47,48)50-36-39(44)35-43)52-42(46)34-32-30-28-26-24-22-20-18-16-14-12-10-8-6-4-2/h11-14,17-20,39-40,43-44H,3-10,15-16,21-38H2,1-2H3,(H,47,48)/b13-11-,14-12-,19-17-,20-18-
Instrument: AB Sciex TripleTOF 5600+ system (Q-TOF) equipped with a DuoSpray ion source
Instrument type: LC-ESI-QTOF
Ms type: MS2
Ion mode: NEGATIVE
Collision energy: 45V
Column name: Acquity UPLC Peptide BEH C18 column (50*2.1 mm; 1.7 um; 130A)(Waters Co.,Milford, MA, USA)
Retention time: 7.939426
Precursor type: [M-H]-
Precursor m/z: 769.4999
m/z	relative intensity
152.995	8
253.219	4
255.229	2
261.22	3
277.215	61
278.36	6
279.231	999
279.286	1
281.246	72
283.26	14
305.246	3
315.201	1
406.776	1
415.221	13
434.317	1
489.261	13
491.264	1
507.268	15
509.286	1
609.469	1
706.493	1
709.591	1
730.853	1
767.06	1
769.421	3
769.498	556
