Mass spectrum: PE(15:1e/12-HETE); LC-ESI-QTOF; MS2
Name: PE(15:1e/12-HETE)
Class: Oxidized Phospholipid
Formula: C40H72NO8P
Exact mass: 725.991
SMILES: CCCCCCCCCCCCC\C=C/OCC(COP(O)(=O)OCCN)OC(=O)CCC\C=C/C\C=C/C=C/C(O)C\C=C/CCCCC
InChI: InChI=1S/C40H72NO8P/c1-3-5-7-9-11-12-13-14-15-18-21-25-29-34-46-36-39(37-48-50(44,45)47-35-33-41)49-40(43)32-28-24-20-17-16-19-23-27-31-38(42)30-26-22-10-8-6-4-2/h17,19-20,22-23,26-27,29,31,34,38-39,42H,3-16,18,21,24-25,28,30,32-33,35-37,41H2,1-2H3,(H,44,45)/b20-17-,23-19-,26-22-,31-27+,34-29-
Instrument: Acquity UPLC Peptide BEH C18 column (50 x 2.1 mm; 1.7 um), Sciex TripleTOF5600
Instrument type: LC-ESI-QTOF
Ms type: MS2
Ion mode: NEGATIVE
Collision energy: 30-50
Precursor m/z: 724.4922788
Precursor type: [M-H]-
m/z	relative intensity
78.96049	28
107.0887	28
135.1163	28
135.1262	28
139.1129	28
140.008	56
140.013	42
145.1021	28
163.1021	28
163.1057	28
163.1129	42
163.1147	42
163.1201	28
179.0993	127
179.1012	98
179.103	42
179.1049	84
179.1068	141
179.1087	197
179.1106	183
179.1125	113
179.1144	169
179.1163	70
179.1181	56
179.1219	42
179.1276	28
180.1242	28
196.0343	28
196.0363	28
196.0382	42
196.0402	28
196.0422	28
196.0442	28
203.1765	28
203.1866	28
208.1033	28
208.1073	84
208.1094	42
208.1134	42
208.1155	28
208.1196	28
225.2153	56
225.2195	56
225.2216	28
225.2259	28
228.2065	28
251.2029	28
255.2195	28
255.224	42
255.2331	28
255.2353	42
255.2376	56
255.2398	56
255.2443	28
257.2115	42
257.2138	28
257.2161	70
257.2183	98
257.2206	141
257.2228	28
257.2251	70
257.2274	28
257.2296	127
257.2319	56
257.2342	113
257.2364	70
257.2387	141
257.2409	42
269.2103	28
281.2413	28
281.246	28
281.2531	56
287.1975	28
301.1944	28
301.1993	42
301.2043	84
301.2067	141
301.2091	84
301.2116	141
301.2141	98
301.2165	84
301.2189	56
301.2214	155
301.2238	113
301.2263	98
301.2287	70
301.2312	56
301.2336	56
301.2361	28
305.2188	42
319.1967	28
319.1992	28
319.2043	84
319.2068	155
319.2094	253
319.2119	253
319.2144	253
319.2169	338
319.2194	394
319.222	507
319.2245	746
319.227	535
319.2295	760
319.232	436
319.2345	591
319.2371	464
319.2396	352
319.2421	253
319.2446	98
319.2472	127
319.2497	84
319.2522	56
319.2547	42
319.2623	42
331.2317	28
361.2039	28
404.2366	28
404.2395	56
404.2423	42
404.2451	56
404.248	113
404.2508	113
404.2537	127
404.2565	56
404.2593	42
404.2621	28
404.265	28
404.2678	28
404.2707	28
404.2763	56
404.2849	28
404.2905	28
422.2367	42
422.2425	28
422.2454	70
422.2483	56
422.2512	56
422.2541	155
422.257	127
422.2599	183
422.2628	197
422.2657	211
422.2686	253
422.2715	267
422.2744	239
422.2773	127
422.2802	155
422.2831	98
422.286	98
422.2889	113
422.2918	70
422.2947	42
422.2976	42
422.3063	28
531.3403	28
613.3684	28
613.3964	28
642.379	28
642.3861	28
648.3973	28
650.4468	28
692.3766	42
692.384	28
722.2184	28
724.3624	28
724.3776	28
724.3965	28
724.4155	42
724.4193	56
724.4307	70
724.4345	56
724.4383	70
724.4421	155
724.4459	84
724.4497	141
724.4535	155
724.4573	267
724.4611	253
724.4649	422
724.4687	492
724.4725	464
724.4763	507
724.4801	633
724.4839	492
724.4877	647
724.4915	718
724.4953	704
724.4991	999
724.5029	774
724.5067	774
724.5105	788
724.5143	704
724.5181	507
724.5219	352
724.5257	394
724.5295	324
724.5333	239
724.537	127
724.5408	113
724.5447	141
724.5485	98
724.556	28
724.5637	28
724.5674	28
725.4033	28
725.4489	42
725.4641	42
725.4678	42
725.4869	28
725.4907	28
725.4944	56
725.4982	42
725.5096	70
725.5135	28
725.5211	28
725.5363	28
