Mass spectrum: PS(18:0/11,12-EET); LC-ESI-QTOF; MS2
Name: PS(18:0/11,12-EET)
Class: Oxidized Phospholipid
Formula: C44H78NO11P
Exact mass: 828.08
SMILES: CCCCCCCCCCCCCCCCCC(=O)OCC(COP(O)(=O)OCC(N)C(O)=O)OC(=O)CCC\C=C/C\C=C/CC1OC1C\C=C/CCCCC
InChI: InChI=1S/C44H78NO11P/c1-3-5-7-9-11-12-13-14-15-16-17-18-21-25-29-33-42(46)52-35-38(36-53-57(50,51)54-37-39(45)44(48)49)55-43(47)34-30-26-22-19-20-24-28-32-41-40(56-41)31-27-23-10-8-6-4-2/h19,22-24,27-28,38-41H,3-18,20-21,25-26,29-37,45H2,1-2H3,(H,48,49)(H,50,51)/b22-19-,27-23-,28-24-
Instrument: Acquity UPLC Peptide BEH C18 column (50 x 2.1 mm; 1.7 um), Sciex TripleTOF5600
Instrument type: LC-ESI-QTOF
Ms type: MS2
Ion mode: NEGATIVE
Collision energy: 30-50
Precursor m/z: 826.5239728
Precursor type: [M-H]-
m/z	relative intensity
78.9567	36
78.9592	74
78.96046	56
78.96171	56
78.96296	74
78.96422	74
96.96997	36
96.97552	36
152.9873	36
152.989	74
152.9908	92
152.9943	110
152.996	166
152.9978	184
152.9995	110
153.0013	56
153.003	56
153.0048	36
167.1051	36
167.1142	56
179.1106	36
257.216	36
257.2319	38
266.0089	38
281.2578	38
283.2205	38
283.2324	38
283.2395	36
283.2419	38
283.2443	112
283.2466	226
283.249	285
283.2514	229
283.2538	325
283.2561	649
283.2585	768
283.2609	976
283.2632	784
283.2656	999
283.268	533
283.2704	766
283.2727	461
283.2751	479
283.2775	345
283.2799	191
283.2823	154
283.2846	134
283.287	38
283.2894	20
283.2965	20
283.7099	20
283.717	20
284.1117	20
285.7097	20
319.2119	74
319.2144	36
319.2169	74
319.2194	56
319.2219	128
319.2244	110
319.227	148
319.2295	74
319.232	240
319.2345	92
319.2396	56
319.2421	36
320.2235	38
365.2617	38
417.9306	38
419.2239	36
419.2268	112
419.2296	130
419.2325	338
419.2354	94
419.2383	186
419.2412	298
419.2441	224
419.247	359
419.2499	453
419.2528	397
419.2556	509
419.2585	396
419.2614	641
419.2643	282
419.2672	582
419.2701	322
419.273	358
419.2759	226
419.2788	170
419.2816	38
419.2845	130
419.2903	56
419.3019	36
426.5735	20
437.2411	92
437.2441	36
437.247	56
437.25	166
437.2529	110
437.2559	148
437.2589	184
437.2618	92
437.2647	220
437.2677	184
437.2706	184
437.2736	258
437.2766	166
437.2795	202
437.2824	74
437.2854	56
437.2913	74
437.3001	36
455.1978	36
455.2039	36
455.2099	74
455.2159	74
455.2189	92
455.2219	74
455.2249	74
455.2279	110
455.231	36
455.2339	74
473.2457	36
739.4209	56
739.4324	56
739.4401	112
739.4439	92
739.4478	208
739.4516	320
739.4554	341
739.4593	193
739.4631	323
739.467	289
739.4708	425
739.4746	363
739.4785	504
739.4823	634
739.4861	584
739.49	874
739.4938	853
739.4976	620
739.5015	620
739.5053	621
739.5092	739
739.513	620
739.5168	600
739.5207	350
739.5245	367
739.5283	406
739.5322	291
739.536	135
739.5399	193
739.5437	76
739.5475	58
739.5514	38
739.5552	40
739.559	36
740.4725	56
740.5302	20
740.5378	36
745.4684	38
770.9152	38
826.4289	36
826.4532	74
826.4573	94
826.4654	112
826.4694	92
826.4735	186
826.4775	148
826.4816	92
826.4857	92
826.4897	170
826.4938	285
826.4978	381
826.5019	477
826.5059	363
826.51	343
826.514	249
826.5181	625
826.5222	401
826.5262	650
826.5303	652
826.5344	616
826.5384	538
826.5425	461
826.5465	499
826.5505	363
826.5546	499
826.5587	363
826.5627	96
826.5668	267
826.5709	154
826.5749	211
826.579	38
826.583	56
826.5871	132
826.5911	36
826.5952	36
826.6033	38
826.6114	20
827.5122	56
827.5163	36
827.5406	36
827.5731	36
