Mass spectrum: PG(18:1/9-HODE); LC-ESI-QTOF; MS2
Name: PG(18:1/9-HODE)
Class: Oxidized Phospholipid
Formula: C42H77O11P
Exact mass: 789.043
SMILES: CCCCCCCC\C=C/CCCCCCCC(=O)OCC(COP(O)(=O)OCC(O)CO)OC(=O)CCCCCCCC(O)\C=C\C=C/CCCCC
InChI: InChI=1S/C42H77O11P/c1-3-5-7-9-11-12-13-14-15-16-17-18-20-24-28-32-41(46)50-36-40(37-52-54(48,49)51-35-39(45)34-43)53-42(47)33-29-25-21-23-27-31-38(44)30-26-22-19-10-8-6-4-2/h14-15,19,22,26,30,38-40,43-45H,3-13,16-18,20-21,23-25,27-29,31-37H2,1-2H3,(H,48,49)/b15-14-,22-19-,30-26+
Instrument: Acquity UPLC Peptide BEH C18 column (50 x 2.1 mm; 1.7 um), Sciex TripleTOF5600
Instrument type: LC-ESI-QTOF
Ms type: MS2
Ion mode: NEGATIVE
Collision energy: 30-50
Precursor m/z: 787.5130738
Precursor type: [M-H]-
m/z	relative intensity
138.9985	30
139.0002	61
139.0018	30
139.0052	91
139.0068	76
139.0085	91
139.0102	30
139.0118	30
139.0135	30
152.9968	30
171.0876	30
171.095	76
171.0987	61
171.1005	61
171.1024	46
171.1061	76
171.1098	30
175.1627	30
255.2316	30
277.1991	76
277.2038	61
277.2061	30
277.2085	106
277.2108	76
277.2132	122
277.2155	122
277.2179	106
277.2202	198
277.2226	122
277.2249	106
277.2273	106
277.2296	61
277.232	61
277.2461	31
278.2125	31
280.3725	31
280.3748	31
280.3772	31
281.2237	16
281.226	79
281.2284	170
281.2308	48
281.2332	268
281.2355	269
281.2379	333
281.2402	649
281.2426	777
281.245	828
281.2473	779
281.2497	554
281.2521	680
281.2544	459
281.2568	380
281.2592	253
281.2615	286
281.2639	143
281.2663	79
281.2686	63
281.271	33
281.2734	16
281.4485	16
284.5794	16
293.196	31
294.3036	31
295.1272	31
295.1999	46
295.2047	63
295.2072	77
295.2096	76
295.212	170
295.2144	249
295.2169	277
295.2193	219
295.2217	482
295.2242	606
295.2266	451
295.229	529
295.2314	356
295.2339	465
295.2363	311
295.2387	200
295.2411	170
295.2435	46
295.246	61
295.2484	63
295.2508	16
296.5809	16
322.9864	16
365.273	30
430.4043	30
491.2753	30
505.2528	30
505.2592	30
509.2824	30
523.27	30
786.5405	31
787.4351	31
787.4549	109
787.4588	30
787.4628	61
787.4667	188
787.4707	109
787.4747	115
787.4786	159
787.4826	241
787.4865	289
787.4905	354
787.4944	454
787.4984	520
787.5024	520
787.5063	716
787.5103	999
787.5143	969
787.5182	785
787.5222	995
787.5261	814
787.5301	767
787.5341	846
787.538	703
787.542	536
787.546	505
787.5499	377
787.5538	424
787.5578	194
787.5618	147
787.5657	177
787.5697	112
787.5737	49
787.5776	46
787.5816	48
788.3975	30
790.6097	16
