Mass spectrum: PE 44:11; LC-ESI-QTOF; MS2
Name: PE 44:11
Class: PE
Formula: C49H76NO8P
Exact mass: 838.1219999999998
SMILES: CC\C=C/C\C=C/C\C=C/C\C=C/C\C=C/CCCCCC(=O)OCC(COP(O)(=O)OCCN)OC(=O)CC\C=C/C\C=C/C\C=C/C\C=C/C\C=C/C\C=C/CC
InChI: InChI=1S/C49H76NO8P/c1-3-5-7-9-11-13-15-17-19-21-23-25-27-29-31-33-35-37-39-41-48(51)55-45-47(46-57-59(53,54)56-44-43-50)58-49(52)42-40-38-36-34-32-30-28-26-24-22-20-18-16-14-12-10-8-6-4-2/h5-8,11-14,17-20,23-26,29-32,36,38,47H,3-4,9-10,15-16,21-22,27-28,33-35,37,39-46,50H2,1-2H3,(H,53,54)/b7-5-,8-6-,13-11-,14-12-,19-17-,20-18-,25-23-,26-24-,31-29-,32-30-,38-36-
Instrument: AB Sciex TripleTOF 5600+ system (Q-TOF) equipped with a DuoSpray ion source
Instrument type: LC-ESI-QTOF
Ms type: MS2
Ion mode: NEGATIVE
Collision energy: 45V
Column name: Acquity UPLC Peptide BEH C18 column (50*2.1 mm; 1.7 um; 130A)(Waters Co.,Milford, MA, USA)
Retention time: 8.961686
Precursor type: [M-H]-
Precursor m/z: 836.524
m/z	relative intensity
78.958	6
81.071	0
83.052	0
93.07	1
95.085	0
96.968	1
105.07	0
107.081	0
107.088	1
109.099	1
117.068	1
119.089	0
121.102	2
122.001	1
123.12	0
131.085	0
133.101	2
135.117	1
137.129	0
137.141	0
140.011	17
143.084	0
147.117	1
149.057	0
149.127	0
149.136	1
151.146	0
152.995	6
159.117	0
161.131	1
163.075	1
163.148	2
167.107	0
173.135	0
175.148	2
177.086	1
177.098	0
177.165	8
178.029	1
181.122	1
187.147	0
189.161	1
189.171	1
191.103	0
191.112	0
191.178	6
195.135	1
196.037	31
199.152	0
201.163	1
203.105	0
203.18	2
205.123	0
205.204	0
207.134	0
213.164	0
214.047	3
215.179	0
217.121	1
217.197	1
219.145	0
221.155	0
227.174	0
229.195	38
231.138	0
231.209	5
241.196	1
245.156	1
249.184	10
251.198	2
255.213	2
255.234	0
255.245	0
257.154	0
257.217	0
259.168	0
273.184	0
279.232	0
281.225	1
282.346	0
282.369	1
283.241	303
283.266	27
285.257	29
297.223	2
301.206	0
301.223	0
303.225	0
309.206	0
309.221	3
311.229	1
311.243	1
325.215	0
326.19	1
326.207	1
327.231	728
327.286	0
327.342	0
328.219	2
328.243	1
329.247	461
330.252	0
419.255	27
420.238	0
421.236	0
421.269	1
437.267	10
438.287	0
439.257	1
450.222	0
450.244	0
452.249	1
463.227	0
464.213	0
465.236	3
465.254	1
465.268	0
480.318	0
483.254	0
506.26	7
506.284	1
506.303	0
508.28	29
524.258	3
524.278	7
524.323	0
524.634	0
526.286	176
527.29	0
552.285	0
657.735	0
676.496	0
747.163	0
747.505	0
748.487	0
749.473	5
749.508	52
754.549	0
762.513	0
762.549	0
764.494	0
764.539	1
765.517	0
776.515	0
804.497	0
804.53	0
818.511	0
833.823	0
833.855	2
833.885	1
833.899	0
833.974	0
835.604	0
835.913	0
836.076	0
836.175	0
836.304	0
836.438	3
836.52	999
837.489	1
837.516	2
837.554	1
838.019	0
