Mass spectrum: PE(18:1e/10-HDoHE); LC-ESI-QTOF; MS2
Name: PE(18:1e/10-HDoHE)
Class: Oxidized Phospholipid
Formula: C45H78NO8P
Exact mass: 792.094
SMILES: CCCCCCCCCCCCCCCC\C=C/OCC(COP(O)(=O)OCCN)OC(=O)CC\C=C/C\C=C/CC(O)\C=C\C=C/C\C=C/C\C=C/CC
InChI: InChI=1S/C45H78NO8P/c1-3-5-7-9-11-13-15-16-17-18-19-20-22-26-30-34-39-51-41-44(42-53-55(49,50)52-40-38-46)54-45(48)37-33-29-25-24-28-32-36-43(47)35-31-27-23-21-14-12-10-8-6-4-2/h6,8,12,14,23,25,27-29,31-32,34-35,39,43-44,47H,3-5,7,9-11,13,15-22,24,26,30,33,36-38,40-42,46H2,1-2H3,(H,49,50)/b8-6-,14-12-,27-23-,29-25-,32-28-,35-31+,39-34-
Instrument: Acquity UPLC Peptide BEH C18 column (50 x 2.1 mm; 1.7 um), Sciex TripleTOF5600
Instrument type: LC-ESI-QTOF
Ms type: MS2
Ion mode: NEGATIVE
Collision energy: 30-50
Precursor m/z: 790.539229
Precursor type: [M-H]-
m/z	relative intensity
119.0856	20
121.0646	20
121.0677	20
135.079	20
137.1003	51
140.005	20
140.0084	20
140.0117	20
140.0134	31
152.6214	20
152.9999	21
153.0785	21
153.0802	21
153.0837	31
153.0854	63
153.0872	104
153.0889	145
153.0907	114
153.0924	113
153.0942	114
153.0959	103
153.0977	102
153.0994	61
153.1012	41
153.1029	72
153.1064	21
153.1081	20
161.1281	31
161.1299	41
161.1317	41
161.1335	82
161.1352	20
161.1388	51
161.1406	41
161.1442	31
163.0195	20
181.0763	31
181.0801	31
181.082	61
181.0839	82
181.0858	102
181.0877	92
181.0896	122
181.0915	82
181.0934	61
181.0953	31
181.101	20
189.1327	20
189.1676	20
190.1314	20
190.1333	31
190.1353	61
190.1372	41
196.0286	20
196.0306	20
196.0326	20
196.0385	31
196.0405	41
196.0424	20
196.0444	20
201.1625	20
224.0735	20
227.1783	31
227.1847	20
227.1868	31
227.1954	20
231.0889	20
251.203	20
253.1994	41
253.2039	51
253.2062	71
253.2084	82
253.2107	153
253.2129	133
253.2151	133
253.2174	122
253.2196	143
253.2219	163
253.2241	143
253.2264	71
253.2286	31
253.2309	71
254.204	20
254.2063	20
254.2085	20
254.2108	51
254.213	51
254.2153	71
254.2175	82
254.2198	112
254.222	153
254.2243	102
254.2265	71
254.2288	71
254.231	71
254.2355	31
254.2423	31
255.1993	20
255.2061	20
255.2106	20
255.2128	41
255.2151	20
255.2173	20
255.2196	20
255.2219	20
255.2241	41
255.2264	61
255.2286	31
255.2309	31
255.2331	51
255.2444	31
267.2623	31
267.2646	20
267.2669	41
267.2715	31
267.2808	20
279.2265	20
279.2288	20
279.2406	20
279.243	20
279.25	20
280.2294	20
280.2341	20
280.2365	20
280.2483	20
281.2034	31
281.2081	31
281.2105	41
281.2128	51
281.2152	51
281.2176	102
281.2199	92
281.2223	61
281.2247	204
281.227	153
281.2294	153
281.2318	143
281.2341	82
281.2365	82
281.2389	51
281.2412	82
281.2436	20
281.2483	31
281.2507	20
281.2531	20
281.2554	41
282.2383	20
282.243	20
299.2239	20
299.2288	31
299.2337	20
299.2361	20
299.2386	31
299.241	31
299.2434	31
299.2483	20
299.2508	41
325.1938	20
325.2014	20
325.204	51
325.2065	51
325.2091	82
325.2116	71
325.2142	51
325.2167	61
325.2192	71
325.2218	41
325.2243	61
325.2269	41
325.2345	31
325.2371	20
325.2396	20
326.2124	20
343.191	21
343.2041	20
343.2067	41
343.2093	62
343.2119	93
343.2146	227
343.2172	176
343.2198	175
343.2224	258
343.225	174
343.2276	267
343.2303	174
343.2328	256
343.2355	165
343.2381	82
343.2407	204
343.2433	122
343.2459	41
343.2485	31
343.2512	41
446.2675	20
446.2765	20
446.2854	71
446.2884	41
446.2914	61
446.2943	82
446.2973	51
446.3003	71
446.3033	82
446.3092	61
446.3122	61
446.3152	51
446.3182	20
446.3212	31
446.3242	61
446.3271	20
461.2862	31
462.2958	31
463.0364	21
464.2212	21
464.2607	21
464.2729	21
464.2759	31
464.279	61
464.2881	72
464.2912	123
464.2942	93
464.2972	144
464.3003	166
464.3033	145
464.3064	177
464.3094	334
464.3124	250
464.3155	260
464.3185	270
464.3216	303
464.3246	259
464.3276	125
464.3307	146
464.3337	84
464.3368	52
464.3398	42
464.3459	21
464.3489	42
464.352	20
464.355	20
478.286	20
480.2722	20
522.2587	20
669.4526	20
714.5056	20
715.4714	20
715.4752	20
715.4865	20
715.494	20
715.5016	20
715.5167	41
715.5242	31
715.5317	61
716.4567	20
716.4643	20
716.4681	31
716.4719	20
716.4756	20
716.4794	20
716.4832	82
716.487	31
716.4907	92
716.4945	82
716.4983	153
716.5021	92
716.5059	102
716.5096	184
716.5134	143
716.5172	173
716.5209	112
716.5247	163
716.5285	163
716.5323	112
716.5361	92
716.5399	71
716.5436	41
716.5474	41
716.5511	61
716.5549	61
716.5587	31
716.5739	31
716.5776	20
788.0882	20
790.4745	22
790.4785	97
790.4825	90
790.4865	142
790.4904	155
790.4944	253
790.4984	280
790.5023	268
790.5063	258
790.5103	349
790.5142	532
790.5182	642
790.5222	645
790.5261	773
790.5301	817
790.5341	973
790.538	943
790.542	862
790.546	828
790.5499	829
790.5539	999
790.5579	840
790.5618	672
790.5658	567
790.5698	558
790.5737	442
790.5777	352
790.5817	259
790.5856	204
790.5896	180
790.5936	34
790.5975	91
790.6015	56
790.6055	34
790.6094	11
790.6134	34
790.6173	36
790.6253	11
791.5142	20
791.5222	52
791.5261	31
791.5301	41
791.5341	31
791.542	31
791.546	20
791.5499	41
791.5539	20
791.5579	20
791.5618	20
791.5658	20
791.5698	20
791.5936	20
