Mass spectrum: PC 35:5; LC-ESI-QTOF; MS2
Name: PC 35:5
Class: PC
Formula: C43H76NO8P
Exact mass: 766.0559999999998
SMILES: CCCCCCCCCCCCCCC(=O)OCC(COP([O-])(=O)OCC[N+](C)(C)C)OC(=O)CCC\C=C/C\C=C/C\C=C/C\C=C/C\C=C/CC
InChI: InChI=1S/C43H76NO8P/c1-6-8-10-12-14-16-18-20-21-22-23-24-26-28-30-32-34-36-43(46)52-41(40-51-53(47,48)50-38-37-44(3,4)5)39-49-42(45)35-33-31-29-27-25-19-17-15-13-11-9-7-2/h8,10,14,16,20-21,23-24,28,30,41H,6-7,9,11-13,15,17-19,22,25-27,29,31-40H2,1-5H3/b10-8-,16-14-,21-20-,24-23-,30-28-
Instrument: AB Sciex TripleTOF 5600+ system (Q-TOF) equipped with a DuoSpray ion source
Instrument type: LC-ESI-QTOF
Ms type: MS2
Ion mode: NEGATIVE
Collision energy: 45V
Column name: Acquity UPLC Peptide BEH C18 column (50*2.1 mm; 1.7 um; 130A)(Waters Co.,Milford, MA, USA)
Retention time: 8.634011
Precursor type: [M+CH3COOH-H]-
Precursor m/z: 824.5427
m/z	relative intensity
241.214	297
255.23	55
257.225	91
257.234	25
281.249	30
283.264	31
284.269	20
301.215	639
303.234	10
343.226	15
352.931	10
448.276	20
466.294	121
480.295	10
508.284	10
526.296	20
750.481	117
750.504	999
764.517	35
806.524	21
824.509	20
824.518	40
824.533	90
824.546	46
824.558	35
824.566	30
824.615	16
