Mass spectrum: PG(16:0/10-HDoHE); LC-ESI-QTOF; MS2
Name: PG(16:0/10-HDoHE)
Class: Oxidized Phospholipid
Formula: C44H75O11P
Exact mass: 811.049
SMILES: CCCCCCCCCCCCCCCC(=O)OCC(COP(O)(=O)OCC(O)CO)OC(=O)CC\C=C/C\C=C/CC(O)\C=C\C=C/C\C=C/C\C=C/CC
InChI: InChI=1S/C44H75O11P/c1-3-5-7-9-11-13-15-16-17-19-21-26-30-34-43(48)52-38-42(39-54-56(50,51)53-37-41(47)36-45)55-44(49)35-31-27-23-22-25-29-33-40(46)32-28-24-20-18-14-12-10-8-6-4-2/h6,8,12,14,20,23-25,27-29,32,40-42,45-47H,3-5,7,9-11,13,15-19,21-22,26,30-31,33-39H2,1-2H3,(H,50,51)/b8-6-,14-12-,24-20-,27-23-,29-25-,32-28+
Instrument: Acquity UPLC Peptide BEH C18 column (50 x 2.1 mm; 1.7 um), Sciex TripleTOF5600
Instrument type: LC-ESI-QTOF
Ms type: MS2
Ion mode: NEGATIVE
Collision energy: 30-50
Precursor m/z: 809.4974237
Precursor type: [M-H]-
m/z	relative intensity
95.82493	36
95.84964	36
135.1195	36
135.126	36
137.0944	71
152.9846	36
152.9915	36
152.9933	36
152.995	36
153.0019	36
153.0835	36
153.087	107
153.0887	36
153.0904	143
153.0922	143
153.0939	143
153.0956	107
153.0991	36
153.1026	36
158.9679	36
158.9696	36
161.129	71
161.1308	36
161.1326	36
161.1361	36
181.0811	36
181.0848	71
181.0867	36
181.0886	71
181.0924	71
190.1317	107
190.1336	71
190.1395	36
190.1452	36
198.333	36
198.337	36
254.4333	36
254.4378	36
255.2012	36
255.2102	36
255.2147	36
255.2169	196
255.2192	71
255.2214	36
255.2236	259
255.2259	348
255.2281	687
255.2304	589
255.2326	705
255.2348	446
255.2371	250
255.2393	268
255.2416	107
255.2438	71
255.246	36
255.2483	178
255.255	36
255.2595	36
281.2179	143
281.2202	71
281.2226	143
281.2249	71
281.2273	36
281.2296	71
281.232	71
281.2367	36
281.239	71
299.2265	36
299.2314	36
299.2362	36
299.2411	36
299.2484	36
325.205	36
325.2076	36
325.2101	36
325.2126	178
325.2151	36
325.2177	71
325.2202	107
325.2227	71
343.2027	36
343.2053	36
343.2079	71
343.2131	71
343.2157	36
343.2183	107
343.2209	232
343.2234	339
343.2261	143
343.2286	178
343.2313	107
343.2339	268
343.2365	143
343.239	107
343.2416	107
343.2442	71
343.2468	36
458.7529	36
458.7559	36
458.7619	36
465.2403	36
465.2494	36
479.2111	36
479.2141	36
483.257	36
483.2693	36
483.2724	36
553.2398	71
553.2431	36
553.2464	36
553.2497	36
553.2563	36
553.2629	71
553.2695	36
553.2794	36
571.271	36
571.2844	36
685.2658	36
685.2842	36
717.4635	36
717.4823	36
806.9163	36
806.9283	36
809.3843	36
809.4362	36
809.4442	71
809.4521	107
809.4562	71
809.4601	303
809.4641	143
809.4681	205
809.4721	517
809.4761	446
809.4801	794
809.4841	901
809.4881	999
809.4921	990
809.496	847
809.5001	830
809.504	669
809.5081	580
809.512	963
809.516	776
809.52	392
809.524	446
809.528	303
809.532	223
809.5359	223
809.54	71
809.5439	71
809.5479	143
809.5519	36
809.5639	36
809.5679	36
809.5798	71
