Mass spectrum: SM d41:1; LC-ESI-QTOF; MS2
Name: SM d41:1
Class: SM
Formula: C46H93N2O6P
Exact mass: 801.234
SMILES: CCCCCCCCCCCCCCCCCCCCCCC(=O)NC(COP([O-])(=O)OCC[N+](C)(C)C)C(O)\C=C\CCCCCCCCCCCCC
InChI: InChI=1S/C46H93N2O6P/c1-6-8-10-12-14-16-18-20-21-22-23-24-25-26-28-30-32-34-36-38-40-46(50)47-44(43-54-55(51,52)53-42-41-48(3,4)5)45(49)39-37-35-33-31-29-27-19-17-15-13-11-9-7-2/h37,39,44-45,49H,6-36,38,40-43H2,1-5H3,(H-,47,50,51,52)/b39-37+
Instrument: AB Sciex TripleTOF 5600+ system (Q-TOF) equipped with a DuoSpray ion source
Instrument type: LC-ESI-QTOF
Ms type: MS2
Ion mode: NEGATIVE
Collision energy: 45V
Column name: Acquity UPLC Peptide BEH C18 column (50*2.1 mm; 1.7 um; 130A)(Waters Co.,Milford, MA, USA)
Retention time: 12.8853
Precursor type: [M+CH3COOH-H]-
Precursor m/z: 859.6851
m/z	relative intensity
78.718	0
78.959	8
89.023	0
96.97	0
122.984	1
124.996	0
141.017	0
167.516	0
167.534	0
167.551	0
168.042	32
183.002	0
255.231	0
256.23	0
281.246	0
299.007	0
309.281	0
334.221	0
337.308	1
338.313	1
353.341	0
367.361	0
431.178	0
431.273	0
431.313	0
432.78	0
435.278	0
435.318	0
438.602	0
441.449	0
442.606	0
444.832	0
449.267	0
449.31	2
453.8	0
461.123	0
464.054	0
464.306	0
464.332	0
465.313	0
467.61	0
487.015	0
488.354	0
502.361	0
505.449	0
508.193	0
627.477	0
627.515	0
633.587	0
637.628	0
639.586	0
639.626	0
650.56	0
651.618	0
696.542	0
696.572	0
714.536	0
714.573	2
714.605	0
717.557	0
717.576	0
740.534	0
740.561	0
740.587	0
740.613	0
758.599	0
767.616	0
783.108	0
783.148	1
783.169	1
783.206	0
783.239	0
783.286	0
784.648	0
785.332	0
785.546	0
785.646	999
785.87	0
786.111	0
786.439	0
786.6	0
786.636	2
786.665	1
786.704	0
786.803	0
787.014	0
799.527	0
799.624	0
799.659	0
799.69	0
800.563	0
800.603	3
800.634	3
812.622	0
812.677	0
813.634	0
813.663	0
813.687	0
813.705	0
827.611	0
859.521	0
859.678	42
864.163	0
