Mass spectrum: PE(17:1e/18-HETE); LC-ESI-QTOF; MS2
Name: PE(17:1e/18-HETE)
Class: Oxidized Phospholipid
Formula: C42H76NO8P
Exact mass: 754.045
SMILES: CCCCCCCCCCCCCCC\C=C/OCC(COP(O)(=O)OCCN)OC(=O)CCC\C=C/C\C=C/C\C=C/C\C=C/CCC(O)CC
InChI: InChI=1S/C42H76NO8P/c1-3-5-6-7-8-9-10-11-14-17-20-23-26-29-32-36-48-38-41(39-50-52(46,47)49-37-35-43)51-42(45)34-31-28-25-22-19-16-13-12-15-18-21-24-27-30-33-40(44)4-2/h13,15-16,18,22,24-25,27,32,36,40-41,44H,3-12,14,17,19-21,23,26,28-31,33-35,37-39,43H2,1-2H3,(H,46,47)/b16-13-,18-15-,25-22-,27-24-,36-32-
Instrument: Acquity UPLC Peptide BEH C18 column (50 x 2.1 mm; 1.7 um), Sciex TripleTOF5600
Instrument type: LC-ESI-QTOF
Ms type: MS2
Ion mode: NEGATIVE
Collision energy: 30-50
Precursor m/z: 752.5235789
Precursor type: [M-H]-
m/z	relative intensity
255.2321	103
261.1859	160
261.1881	160
261.195	103
301.2057	211
301.2106	211
301.2131	103
301.2229	103
301.2302	103
319.2084	103
319.2134	160
319.2159	366
319.2184	628
319.221	685
319.2235	736
319.226	891
319.2285	999
319.2311	788
319.2336	577
319.2361	366
319.2386	366
319.2411	263
319.2437	314
319.2462	160
432.2742	103
432.2918	160
432.2947	103
432.2977	160
432.3035	103
450.2794	103
450.2854	103
450.2914	160
450.2943	103
450.2973	103
450.3003	160
450.3033	103
450.3063	103
450.3093	211
450.3183	103
450.3243	211
665.433	103
752.4493	103
752.4648	103
752.4725	103
752.4803	211
752.4841	103
752.4919	263
752.4958	103
752.4996	314
752.5035	314
752.5074	474
752.5112	628
752.5151	525
752.519	628
752.5229	891
752.5267	366
752.5306	736
752.5345	628
752.5383	474
752.5422	839
752.5461	891
752.55	628
752.5538	736
752.5577	314
752.5616	211
752.5654	211
752.5693	160
752.5732	263
752.577	103
752.5848	211
752.5925	103
752.6041	103
