Mass spectrum: Cer[AS] d42:1; LC-ESI-QTOF; MS2
Name: Cer[AS] d42:1
Class: Cer_AS
Formula: C42H83NO4
Exact mass: 666.1289999999999
SMILES: CCCCCCCCCCCCCCCCCCCCCCC(O)C(=O)NC(CO)C(O)\C=C\CCCCCCCCCCCCC
InChI: InChI=1S/C42H83NO4/c1-3-5-7-9-11-13-15-17-18-19-20-21-22-23-25-27-29-31-33-35-37-41(46)42(47)43-39(38-44)40(45)36-34-32-30-28-26-24-16-14-12-10-8-6-4-2/h34,36,39-41,44-46H,3-33,35,37-38H2,1-2H3,(H,43,47)/b36-34+
Instrument: AB Sciex TripleTOF 5600+ system (Q-TOF) equipped with a DuoSpray ion source
Instrument type: LC-ESI-QTOF
Ms type: MS2
Ion mode: NEGATIVE
Collision energy: 45V
Column name: Acquity UPLC Peptide BEH C18 column (50*2.1 mm; 1.7 um; 130A)(Waters Co.,Milford, MA, USA)
Retention time: 13.1941
Precursor type: [M+CH3COOH-H]-
Precursor m/z: 724.6471
m/z	relative intensity
217.002	0
232.961	0
235.199	0
237.22	17
239.22	0
239.24	7
246.978	0
248.237	0
250.235	0
250.252	6
250.265	2
251.238	1
255.229	1
262.25	1
262.272	0
263.236	12
263.258	0
265.243	0
266.248	16
267.233	0
267.258	0
268.262	29
269.248	0
278.244	2
280.263	10
290.247	5
296.259	0
298.273	14
308.26	2
309.311	0
314.962	0
326.264	1
328.979	1
335.334	2
337.346	99
338.354	0
351.366	3
364.358	1
365.342	37
367.346	1
367.372	1
372.358	0
378.368	2
378.386	1
379.374	0
382.366	20
383.352	45
390.372	15
394.361	1
396.387	0
406.365	2
408.383	91
423.365	2
423.386	1
424.341	1
424.378	40
426.392	12
436.381	0
598.585	3
598.619	0
614.591	1
616.545	1
616.596	49
616.618	10
616.653	1
618.622	0
628.589	3
628.62	1
632.573	4
632.601	12
632.646	0
634.568	1
634.6	8
634.618	7
636.597	1
636.63	2
636.661	1
646.567	1
646.609	35
662.509	1
662.526	3
662.554	1
662.582	0
664.624	999
665.111	0
665.585	0
665.623	2
665.641	1
671.573	1
724.506	0
724.565	0
