Mass spectrum: PE(18:1/5,6-EET); LC-ESI-QTOF; MS2
Name: PE(18:1/5,6-EET)
Class: Oxidized Phospholipid
Formula: C43H76NO9P
Exact mass: 782.055
SMILES: CCCCCCCC\C=C/CCCCCCCC(=O)OCC(COP(O)(=O)OCCN)OC(=O)CCCC1OC1C\C=C/C\C=C/C\C=C/CCCCC
InChI: InChI=1S/C43H76NO9P/c1-3-5-7-9-11-13-15-17-18-19-21-23-25-27-29-33-42(45)49-37-39(38-51-54(47,48)50-36-35-44)52-43(46)34-30-32-41-40(53-41)31-28-26-24-22-20-16-14-12-10-8-6-4-2/h12,14,17-18,20,22,26,28,39-41H,3-11,13,15-16,19,21,23-25,27,29-38,44H2,1-2H3,(H,47,48)/b14-12-,18-17-,22-20-,28-26-
Instrument: Acquity UPLC Peptide BEH C18 column (50 x 2.1 mm; 1.7 um), Sciex TripleTOF5600
Instrument type: LC-ESI-QTOF
Ms type: MS2
Ion mode: NEGATIVE
Collision energy: 30-50
Precursor m/z: 780.5184935
Precursor type: [M-H]-
m/z	relative intensity
83.05442	91
115.0354	59
137.1347	59
191.1718	150
191.1737	59
191.1756	120
191.1776	120
191.1796	120
191.1835	120
191.1854	91
191.1873	59
191.1932	91
203.1869	59
253.2088	59
253.2268	59
257.2347	59
281.2277	59
281.23	91
281.2324	209
281.2348	391
281.2371	241
281.2395	241
281.2419	450
281.2442	241
281.2466	541
281.249	329
281.2513	420
281.2537	358
281.256	420
281.2584	391
281.2608	329
281.2632	179
281.2655	59
281.2703	59
281.2726	91
301.2049	59
301.2294	91
319.2075	91
319.2126	59
319.2151	150
319.2176	150
319.2202	300
319.2227	120
319.2252	241
319.2277	479
319.2302	300
319.2327	329
319.2353	241
319.2378	179
319.2403	150
319.2428	120
319.2454	120
319.2479	59
319.2554	91
478.2696	59
478.2727	59
478.282	120
478.285	59
478.2881	59
478.2912	209
478.2974	91
478.3004	120
478.3035	59
478.3066	59
478.3097	120
478.3128	209
478.3159	120
478.3252	59
673.5806	62
706.5363	59
706.5438	59
706.5588	59
780.4116	62
780.4706	91
780.4746	150
780.4785	91
780.4825	241
780.4865	91
780.4904	91
780.4943	120
780.4982	547
780.5022	397
780.5061	364
780.5101	547
780.514	999
780.5179	488
780.5219	547
780.5258	455
780.5298	452
780.5338	332
780.5377	514
780.5416	394
780.5455	452
780.5495	303
780.5535	361
780.5574	179
780.5613	91
780.5692	91
780.5731	150
781.5037	59
781.5432	59
