Mass spectrum: Cer[NS] d44:2; LC-ESI-QTOF; MS2
Name: Cer[NS] d44:2
Class: Cer_NS
Formula: C44H85NO3
Exact mass: 676.1679999999999
SMILES: CCCCCCCCCCCCCCC\C=C\C(O)C(CO)NC(=O)CCCCCCCCC\C=C/CCCCCCCCCCCC
InChI: InChI=1S/C44H85NO3/c1-3-5-7-9-11-13-15-17-19-20-21-22-23-24-26-28-30-32-34-36-38-40-44(48)45-42(41-46)43(47)39-37-35-33-31-29-27-25-18-16-14-12-10-8-6-4-2/h22-23,37,39,42-43,46-47H,3-21,24-36,38,40-41H2,1-2H3,(H,45,48)/b23-22-,39-37+
Instrument: AB Sciex TripleTOF 5600+ system (Q-TOF) equipped with a DuoSpray ion source
Instrument type: LC-ESI-QTOF
Ms type: MS2
Ion mode: NEGATIVE
Collision energy: 45V
Column name: Acquity UPLC Peptide BEH C18 column (50*2.1 mm; 1.7 um; 130A)(Waters Co.,Milford, MA, USA)
Retention time: 13.31557
Precursor type: [M+CH3COOH-H]-
Precursor m/z: 734.6581
m/z	relative intensity
235.207	2
237.213	22
237.226	17
237.24	4
263.238	28
265.234	2
265.253	35
268.247	2
268.269	5
278.282	4
281.242	1
291.258	17
291.272	18
294.279	6
296.294	4
347.332	36
349.341	15
349.357	7
364.346	29
364.367	18
365.326	7
365.343	25
366.376	12
367.348	6
375.332	4
375.355	21
375.373	16
390.34	7
390.369	159
392.354	9
392.383	99
392.407	15
393.36	13
406.351	4
406.369	21
408.379	10
418.401	130
418.42	21
420.405	5
434.387	10
434.409	12
600.565	2
600.603	12
600.628	4
616.579	7
616.617	5
618.59	5
618.62	7
618.644	3
626.588	9
626.616	37
626.652	5
642.603	44
642.642	8
644.624	93
644.682	3
648.626	17
656.633	5
672.476	3
672.531	5
674.638	999
674.71	4
675.646	5
734.667	4
