Mass spectrum: PI(18:1/12-HEPE); LC-ESI-QTOF; MS2
Name: PI(18:1/12-HEPE)
Class: Oxidized Phospholipid
Formula: C47H79O14P
Exact mass: 899.111
SMILES: CCCCCCCC\C=C/CCCCCCCC(=O)OCC(COP(O)(=O)OC1C(O)C(O)C(O)C(O)C1O)OC(=O)CCC\C=C/C\C=C/C=C/C(O)C\C=C/C\C=C/CC
InChI: InChI=1S/C47H79O14P/c1-3-5-7-9-11-12-13-14-15-16-17-18-22-26-30-34-40(49)58-36-39(37-59-62(56,57)61-47-45(54)43(52)42(51)44(53)46(47)55)60-41(50)35-31-27-23-20-19-21-25-29-33-38(48)32-28-24-10-8-6-4-2/h6,8,14-15,20-21,23-25,28-29,33,38-39,42-48,51-55H,3-5,7,9-13,16-19,22,26-27,30-32,34-37H2,1-2H3,(H,56,57)/b8-6-,15-14-,23-20-,25-21-,28-24-,33-29+
Instrument: Acquity UPLC Peptide BEH C18 column (50 x 2.1 mm; 1.7 um), Sciex TripleTOF5600
Instrument type: LC-ESI-QTOF
Ms type: MS2
Ion mode: NEGATIVE
Collision energy: 30-50
Precursor m/z: 897.5134677
Precursor type: [M-H]-
m/z	relative intensity
78.96542	13
152.9926	13
152.9943	13
152.996	25
179.0993	13
179.1012	13
179.103	13
179.1049	25
179.1068	19
179.1087	31
179.1106	13
179.1125	13
179.1163	19
208.1115	13
208.1155	13
222.9891	13
222.9996	13
223.0017	13
223.0059	25
223.0101	19
223.0122	13
240.995	13
240.9972	25
240.9994	31
241.0016	13
241.0038	70
241.006	70
241.0082	51
241.0104	70
241.0125	76
241.0147	51
241.0169	70
241.0191	51
241.0213	45
259.0229	19
259.0251	19
259.032	13
281.2272	13
281.2296	13
281.2319	13
281.2367	25
281.239	19
281.2414	45
281.2438	64
281.2461	64
281.2485	51
281.2509	109
281.2532	51
281.2556	76
281.258	31
281.2603	13
281.265	25
281.2698	13
297.0316	13
297.034	19
299.19	19
299.1924	13
299.1997	13
299.2022	13
299.2095	13
315.026	13
317.196	13
317.1985	58
317.201	45
317.2035	89
317.206	51
317.2086	89
317.2111	64
317.2136	76
317.2161	95
317.2186	51
317.2211	25
317.2236	64
317.2261	45
317.2286	45
317.2312	13
317.2337	25
371.0637	13
417.2188	13
417.2245	19
417.2274	13
417.2303	25
417.2361	13
417.239	19
417.2419	45
417.2447	25
417.2476	13
417.2505	25
417.2534	25
417.2649	19
417.2793	13
453.1895	13
453.1955	31
453.2045	13
453.2105	19
453.2346	13
579.255	13
579.2618	19
579.2686	13
579.272	19
579.2788	19
579.2822	25
579.2856	25
579.2889	13
579.2924	45
579.2958	39
579.2991	51
579.3026	25
579.306	31
579.3093	25
579.3127	31
579.3162	13
579.3195	13
579.3229	13
597.2827	13
597.293	25
597.2964	25
597.3102	19
597.324	19
597.3309	19
597.3412	13
615.2295	13
615.254	19
615.2715	19
706.3849	13
759.4063	13
759.4335	13
894.7081	13
894.7123	13
896.2365	14
897.407	13
897.4281	19
897.4323	13
897.4365	31
897.4408	51
897.445	25
897.4492	45
897.4534	66
897.4577	61
897.4619	128
897.4661	169
897.4703	154
897.4746	215
897.4788	386
897.483	399
897.4872	383
897.4915	512
897.4957	643
897.4999	666
897.5042	776
897.5084	859
897.5126	893
897.5168	999
897.5211	979
897.5253	908
897.5295	860
897.5338	929
897.538	800
897.5422	772
897.5464	642
897.5507	631
897.5549	570
897.5591	458
897.5634	373
897.5676	283
897.5718	184
897.576	134
897.5803	105
897.5845	63
897.5887	49
897.593	56
897.5972	28
897.6014	41
897.6057	31
897.6099	13
897.6183	13
897.6775	13
897.8423	13
898.4767	13
898.4894	13
898.4936	25
898.502	19
898.5063	13
898.5105	25
898.5189	31
898.5232	13
898.5274	13
898.5316	39
898.5359	25
898.5443	13
898.5486	19
898.5528	39
898.5655	19
898.5739	13
