Mass spectrum: PC(16:1/8,9-EET); LC-ESI-QTOF; MS2
Name: PC(16:1/8,9-EET)
Class: Oxidized Phospholipid
Formula: C44H78NO9P
Exact mass: 796.082
SMILES: CCCCCC\C=C/CCCCCCCC(=O)OCC(COP([O-])(=O)OCC[N+](C)(C)C)OC(=O)CCC\C=C/CC1OC1C\C=C/C\C=C/CCCCC
InChI: InChI=1S/C44H78NO9P/c1-6-8-10-12-14-16-17-18-19-21-23-25-30-34-43(46)50-38-40(39-52-55(48,49)51-37-36-45(3,4)5)53-44(47)35-31-27-26-29-33-42-41(54-42)32-28-24-22-20-15-13-11-9-7-2/h15-17,20,24,26,28-29,40-42H,6-14,18-19,21-23,25,27,30-39H2,1-5H3/b17-16-,20-15-,28-24-,29-26-
Instrument: Acquity UPLC Peptide BEH C18 column (50 x 2.1 mm; 1.7 um), Sciex TripleTOF5600
Instrument type: LC-ESI-QTOF
Ms type: MS2
Ion mode: NEGATIVE
Collision energy: 30-50
Precursor m/z: 854.5552726
Precursor type: [M+CH3COOH-H]-
m/z	relative intensity
127.08	44
155.0677	44
155.0747	44
167.0668	31
168.0403	31
179.1408	31
179.1465	31
203.1745	31
224.0649	44
224.067	44
224.0691	61
253.1972	61
253.1994	118
253.2017	105
253.2039	88
253.2062	180
253.2084	342
253.2107	311
253.2129	508
253.2152	460
253.2174	609
253.2197	583
253.2219	478
253.2241	416
253.2264	285
253.2286	74
253.2309	118
253.2331	44
253.2354	31
253.2376	88
253.2421	31
253.2444	31
257.2207	61
257.2252	31
257.2297	74
257.232	44
257.2365	44
257.2388	44
281.2461	31
301.2019	31
301.2043	44
301.2068	31
301.2093	31
301.2117	74
301.2141	31
301.2166	74
301.2191	61
301.2239	74
301.2264	44
301.2313	31
301.2337	31
318.2397	31
319.2044	44
319.2069	105
319.2095	61
319.212	210
319.2145	118
319.217	162
319.2195	267
319.222	237
319.2246	223
319.2271	254
319.2296	342
319.2321	237
319.2347	267
319.2372	210
319.2397	118
319.2422	88
319.2448	44
319.2473	31
319.2498	44
389.1994	31
441.6307	31
455.2161	31
460.2695	31
460.2726	31
460.2756	31
460.2816	31
478.2717	31
478.2809	61
478.284	61
478.2871	74
478.2933	118
478.2964	31
478.2994	44
478.3025	105
478.3056	44
478.3118	31
478.318	31
478.3427	31
526.2888	44
544.2883	31
544.3015	31
544.3048	31
544.3245	31
769.5256	31
780.4491	31
780.4531	61
780.457	31
780.4609	92
780.4648	31
780.4688	118
780.4728	237
780.4767	223
780.4807	372
780.4846	285
780.4885	298
780.4924	513
780.4964	740
780.5004	771
780.5043	999
780.5082	789
780.5121	727
780.5161	758
780.52	776
780.524	819
780.528	697
780.5319	819
780.5358	776
780.5397	697
780.5437	771
780.5477	574
780.5516	478
780.5555	403
780.5594	285
780.5634	254
780.5674	210
780.5713	74
780.5753	105
780.5792	88
780.5831	44
780.591	61
780.6068	31
781.5098	61
781.5374	74
854.4974	31
854.514	61
854.5181	74
854.5222	31
854.5264	61
854.5305	74
854.5387	61
854.5428	61
854.5469	61
854.5511	61
854.5552	44
854.5593	105
854.5635	118
854.5676	136
854.5717	105
854.5758	61
854.58	61
854.5841	118
854.5923	31
854.5964	31
854.6006	44
854.6047	31
854.6295	31
855.5289	31
