Mass spectrum: PI(18:0e/15-HETE); LC-ESI-QTOF; MS2
Name: PI(18:0e/15-HETE)
Class: Oxidized Phospholipid
Formula: C47H85O13P
Exact mass: 889.16
SMILES: CCCCCCCCCCCCCCCCCCOCC(COP(O)(=O)OC1C(O)C(O)C(O)C(O)C1O)OC(=O)CCC\C=C/C\C=C/C\C=C/C=C/C(O)CCCCC
InChI: InChI=1S/C47H85O13P/c1-3-5-7-8-9-10-11-12-13-14-15-19-22-25-28-32-36-57-37-40(38-58-61(55,56)60-47-45(53)43(51)42(50)44(52)46(47)54)59-41(49)35-31-27-24-21-18-16-17-20-23-26-30-34-39(48)33-29-6-4-2/h16-17,21,23-24,26,30,34,39-40,42-48,50-54H,3-15,18-20,22,25,27-29,31-33,35-38H2,1-2H3,(H,55,56)/b17-16-,24-21-,26-23-,34-30+
Instrument: Acquity UPLC Peptide BEH C18 column (50 x 2.1 mm; 1.7 um), Sciex TripleTOF5600
Instrument type: LC-ESI-QTOF
Ms type: MS2
Ion mode: NEGATIVE
Collision energy: 30-50
Precursor m/z: 887.5655033
Precursor type: [M-H]-
m/z	relative intensity
175.1381	20
175.1418	20
175.1474	20
175.1511	20
175.1548	20
192.722	20
192.724	20
219.1346	40
219.1387	20
241.0019	40
241.0062	20
241.0084	110
241.0106	20
241.0128	20
241.015	20
241.028	20
253.2062	20
253.2174	20
253.2308	20
257.2213	20
257.2236	20
257.2303	20
297.0321	20
297.049	20
301.2115	40
301.214	40
301.2164	40
301.2213	60
301.231	20
301.2456	20
315.0393	20
315.0617	20
319.2053	40
319.2078	20
319.2154	20
319.2179	40
319.2204	80
319.2229	60
319.2254	80
319.2279	80
319.2304	20
319.2354	60
319.2454	20
377.2415	20
377.2551	20
389.2064	20
389.2258	20
405.2677	40
405.2762	20
405.279	40
405.2846	20
405.2903	40
483.6633	20
483.6757	40
490.2401	20
490.2463	20
501.8633	20
501.9136	20
514.7677	20
514.7836	20
520.5211	20
520.5306	20
523.1739	20
523.2316	20
523.2413	20
523.267	20
530.7399	20
530.7851	20
539.2978	20
539.3043	20
567.2947	20
567.3214	20
567.3248	20
567.3281	20
567.3314	20
567.3414	40
567.3448	40
579.2696	40
579.2864	20
579.2932	20
579.3033	20
585.3311	20
585.3345	20
585.3447	40
585.348	20
585.3616	20
740.4852	20
740.5005	20
740.5654	20
783.5372	20
783.549	20
805.4417	40
805.4457	20
805.4496	20
805.4536	40
805.4576	60
805.4616	80
805.4656	119
805.4695	124
805.4736	172
805.4775	124
805.4815	246
805.4855	199
805.4894	172
805.4935	223
805.4974	139
805.5014	157
805.5054	124
805.5094	162
805.5134	60
805.5173	40
805.5213	40
805.5253	104
805.5293	20
805.5333	20
805.5452	20
805.5571	20
813.5582	20
813.5622	20
813.5662	20
813.6062	20
813.6182	20
819.4976	20
819.5258	20
887.4474	20
887.4725	20
887.4851	20
887.4893	20
887.5018	40
887.5101	20
887.5143	59
887.5185	20
887.5227	59
887.5269	59
887.5311	162
887.5352	249
887.5394	224
887.5436	450
887.5477	514
887.5519	723
887.5561	848
887.5603	830
887.5645	999
887.5687	703
887.5728	788
887.577	664
887.5812	465
887.5854	582
887.5895	318
887.5937	460
887.5979	192
887.6021	147
887.6063	141
887.6104	136
887.6146	59
887.6188	40
887.623	40
887.6271	20
887.6439	20
