Mass spectrum: PC 32:2; LC-ESI-QTOF; MS2
Name: PC 32:2
Class: PC
Formula: C40H76NO8P
Exact mass: 730.0229999999999
SMILES: CCCCCCCCCCCCCC(=O)OCC(COP([O-])(=O)OCC[N+](C)(C)C)OC(=O)CCCCCCC\C=C/C\C=C/CCCCC
InChI: InChI=1S/C40H76NO8P/c1-6-8-10-12-14-16-18-19-20-21-23-25-27-29-31-33-40(43)49-38(37-48-50(44,45)47-35-34-41(3,4)5)36-46-39(42)32-30-28-26-24-22-17-15-13-11-9-7-2/h14,16,19-20,38H,6-13,15,17-18,21-37H2,1-5H3/b16-14-,20-19-
Instrument: AB Sciex TripleTOF 5600+ system (Q-TOF) equipped with a DuoSpray ion source
Instrument type: LC-ESI-QTOF
Ms type: MS2
Ion mode: NEGATIVE
Collision energy: 45V
Column name: Acquity UPLC Peptide BEH C18 column (50*2.1 mm; 1.7 um; 130A)(Waters Co.,Milford, MA, USA)
Retention time: 8.67962
Precursor type: [M+CH3COOH-H]-
Precursor m/z: 788.5428
m/z	relative intensity
168.041	18
224.068	38
225.184	6
227.2	543
253.217	274
255.233	21
279.232	999
280.238	5
281.245	14
282.249	1
283.264	20
307.247	3
327.243	3
418.243	5
419.234	5
434.264	18
452.277	57
478.286	10
486.287	11
504.305	18
556.716	5
643.435	5
701.508	29
712.254	9
712.445	3
713.492	3
714.469	145
714.512	998
729.493	11
738.521	5
788.483	11
788.51	20
788.544	58
788.58	16
