Mass spectrum: PG 32:0; LC-ESI-QTOF; MS2
Name: PG 32:0
Class: PG
Formula: C38H75O10P
Exact mass: 722.9839999999999
SMILES: CCCCCCCCCCCCCCCC(=O)OCC(COP(O)(=O)OCC(O)CO)OC(=O)CCCCCCCCCCCCCCC
InChI: InChI=1S/C38H75O10P/c1-3-5-7-9-11-13-15-17-19-21-23-25-27-29-37(41)45-33-36(34-47-49(43,44)46-32-35(40)31-39)48-38(42)30-28-26-24-22-20-18-16-14-12-10-8-6-4-2/h35-36,39-40H,3-34H2,1-2H3,(H,43,44)
Instrument: AB Sciex TripleTOF 5600+ system (Q-TOF) equipped with a DuoSpray ion source
Instrument type: LC-ESI-QTOF
Ms type: MS2
Ion mode: NEGATIVE
Collision energy: 45V
Column name: Acquity UPLC Peptide BEH C18 column (50*2.1 mm; 1.7 um; 130A)(Waters Co.,Milford, MA, USA)
Retention time: 8.578336
Precursor type: [M-H]-
Precursor m/z: 721.4993
m/z	relative intensity
78.959	5
96.97	0
134.985	0
152.995	24
171.005	13
209.021	4
227.032	8
227.199	1
237.22	0
245.037	0
254.413	0
254.428	1
254.439	3
255.03	0
255.103	1
255.233	999
256.233	0
283.27	0
303.241	0
391.189	1
391.223	30
400.975	0
409.218	1
409.249	0
433.227	0
440.175	0
463.792	0
465.247	13
465.264	22
465.285	3
481.757	0
483.235	1
483.274	43
484.274	0
486.599	0
487.196	0
509.331	0
510.126	0
647.449	0
647.499	0
689.458	1
689.494	1
719.172	0
719.205	1
719.239	1
719.3	0
720.865	0
721.183	0
721.499	392
722.26	0
722.512	0
