Mass spectrum: PE 34:3; LC-ESI-QTOF; MS2
Name: PE 34:3
Class: PE
Formula: C39H72NO8P
Exact mass: 713.9799999999999
SMILES: CCCCCC\C=C/CCCCCCCC(=O)OCC(COP(O)(=O)OCCN)OC(=O)CCCCCCC\C=C/C\C=C/CCCCC
InChI: InChI=1S/C39H72NO8P/c1-3-5-7-9-11-13-15-17-18-20-22-24-26-28-30-32-39(42)48-37(36-47-49(43,44)46-34-33-40)35-45-38(41)31-29-27-25-23-21-19-16-14-12-10-8-6-4-2/h11,13-14,16-18,37H,3-10,12,15,19-36,40H2,1-2H3,(H,43,44)/b13-11-,16-14-,18-17-
Instrument: AB Sciex TripleTOF 5600+ system (Q-TOF) equipped with a DuoSpray ion source
Instrument type: LC-ESI-QTOF
Ms type: MS2
Ion mode: NEGATIVE
Collision energy: 45V
Column name: Acquity UPLC Peptide BEH C18 column (50*2.1 mm; 1.7 um; 130A)(Waters Co.,Milford, MA, USA)
Retention time: 8.900139
Precursor type: [M-H]-
Precursor m/z: 712.4878
m/z	relative intensity
140.008	12
155.067	6
196.036	15
253.216	381
277.217	6
278.713	6
279.231	999
364.363	7
432.247	12
450.257	61
712.443	45
712.482	303
712.518	45
