Mass spectrum: PC(16:0e/5,6-EET); LC-ESI-QTOF; MS2
Name: PC(16:0e/5,6-EET)
Class: Oxidized Phospholipid
Formula: C44H82NO8P
Exact mass: 784.115
SMILES: CCCCCCCCCCCCCCCCOCC(COP([O-])(=O)OCC[N+](C)(C)C)OC(=O)CCCC1OC1C\C=C/C\C=C/C\C=C/CCCCC
InChI: InChI=1S/C44H82NO8P/c1-6-8-10-12-14-16-18-20-21-23-25-27-29-31-37-49-39-41(40-51-54(47,48)50-38-36-45(3,4)5)52-44(46)35-32-34-43-42(53-43)33-30-28-26-24-22-19-17-15-13-11-9-7-2/h15,17,22,24,28,30,41-43H,6-14,16,18-21,23,25-27,29,31-40H2,1-5H3/b17-15-,24-22-,30-28-
Instrument: Acquity UPLC Peptide BEH C18 column (50 x 2.1 mm; 1.7 um), Sciex TripleTOF5600
Instrument type: LC-ESI-QTOF
Ms type: MS2
Ion mode: NEGATIVE
Collision energy: 30-50
Precursor m/z: 842.5916581
Precursor type: [M+CH3COOH-H]-
m/z	relative intensity
191.1757	114
191.1777	74
191.1796	74
191.1816	114
191.1835	74
219.1734	74
281.2561	114
282.258	74
319.2001	74
319.2127	74
319.2152	74
319.2177	262
319.2227	225
319.2253	188
319.2278	225
319.2303	151
319.2328	262
319.2354	74
319.2379	74
319.2404	74
319.2455	74
319.2505	188
377.2379	74
448.3196	74
466.3021	74
466.3112	114
466.3203	151
466.3234	151
466.3264	151
466.3295	114
466.3356	188
466.3386	74
466.3447	74
760.4776	74
760.5243	74
760.5359	77
765.4702	77
768.4907	74
768.5024	74
768.5103	151
768.5142	114
768.5181	343
768.522	417
768.5259	302
768.5298	343
768.5338	608
768.5377	457
768.5416	531
768.5455	800
768.5494	881
768.5533	616
768.5573	999
768.5612	652
768.5651	501
768.569	693
768.5729	925
768.5768	461
768.5807	730
768.5846	693
768.5885	420
768.5924	229
768.5963	265
768.6003	229
768.6042	188
768.6081	151
768.612	151
768.6159	74
768.6276	74
782.4943	74
782.5023	74
809.5475	74
842.515	114
842.5518	74
842.5559	74
842.56	74
842.5682	114
842.5723	74
842.5764	114
842.5887	74
842.5928	151
842.5969	74
842.601	114
842.6133	151
842.6296	74
