Mass spectrum: PC 40:7; LC-ESI-QTOF; MS2
Name: PC 40:7
Class: PC
Formula: C48H82NO8P
Exact mass: 832.1589999999999
SMILES: CCCCC\C=C/C\C=C/CCCCCCCC(=O)OCC(COP([O-])(=O)OCC[N+](C)(C)C)OC(=O)CCCCC\C=C/C\C=C/C\C=C/C\C=C/C\C=C/CC
InChI: InChI=1S/C48H82NO8P/c1-6-8-10-12-14-16-18-20-22-23-24-25-27-29-31-33-35-37-39-41-48(51)57-46(45-56-58(52,53)55-43-42-49(3,4)5)44-54-47(50)40-38-36-34-32-30-28-26-21-19-17-15-13-11-9-7-2/h8,10,14-17,20-22,24-26,29,31,46H,6-7,9,11-13,18-19,23,27-28,30,32-45H2,1-5H3/b10-8-,16-14-,17-15-,22-20-,25-24-,26-21-,31-29-
Instrument: AB Sciex TripleTOF 5600+ system (Q-TOF) equipped with a DuoSpray ion source
Instrument type: LC-ESI-QTOF
Ms type: MS2
Ion mode: NEGATIVE
Collision energy: 45V
Column name: Acquity UPLC Peptide BEH C18 column (50*2.1 mm; 1.7 um; 130A)(Waters Co.,Milford, MA, USA)
Retention time: 9.007365
Precursor type: [M+CH3COOH-H]-
Precursor m/z: 890.5885
m/z	relative intensity
168.038	6
224.067	14
231.205	7
279.231	186
279.241	52
285.262	30
307.271	3
311.253	4
327.237	5
328.218	6
329.246	517
331.261	4
355.261	1
408.985	1
415.218	2
479.232	1
486.299	9
504.276	5
504.305	38
504.323	19
504.338	7
536.323	7
554.308	4
554.344	1
617.463	1
619.418	5
619.45	7
645.437	2
701.402	2
745.462	4
771.492	2
813.984	5
815.557	1
816.551	999
816.611	35
816.716	1
817.574	2
831.503	11
890.477	4
890.552	27
890.587	68
890.614	16
890.647	4
