Mass spectrum: PE(18:1/11,12-EET); LC-ESI-QTOF; MS2
Name: PE(18:1/11,12-EET)
Class: Oxidized Phospholipid
Formula: C43H76NO9P
Exact mass: 782.055
SMILES: CCCCCCCC\C=C/CCCCCCCC(=O)OCC(COP(O)(=O)OCCN)OC(=O)CCC\C=C/C\C=C/CC1OC1C\C=C/CCCCC
InChI: InChI=1S/C43H76NO9P/c1-3-5-7-9-11-12-13-14-15-16-17-18-21-25-29-33-42(45)49-37-39(38-51-54(47,48)50-36-35-44)52-43(46)34-30-26-22-19-20-24-28-32-41-40(53-41)31-27-23-10-8-6-4-2/h14-15,19,22-24,27-28,39-41H,3-13,16-18,20-21,25-26,29-38,44H2,1-2H3,(H,47,48)/b15-14-,22-19-,27-23-,28-24-
Instrument: Acquity UPLC Peptide BEH C18 column (50 x 2.1 mm; 1.7 um), Sciex TripleTOF5600
Instrument type: LC-ESI-QTOF
Ms type: MS2
Ion mode: NEGATIVE
Collision energy: 30-50
Precursor m/z: 780.5184935
Precursor type: [M-H]-
m/z	relative intensity
78.96157	26
78.96282	40
135.1227	26
135.1244	26
140.0061	26
140.0078	66
140.0095	53
140.0111	26
140.0128	40
140.0145	26
140.0228	26
149.096	53
149.0977	40
152.9907	26
152.9924	26
152.9959	26
152.9994	26
153.0011	26
163.1163	26
167.0958	26
167.0977	40
167.0995	92
167.1013	79
167.1031	66
167.1049	157
167.1068	131
167.1086	184
167.1104	119
167.1122	144
167.1141	79
167.1159	53
167.1177	40
167.1195	53
179.0991	26
179.101	40
179.1029	66
179.1048	79
179.1067	66
179.1086	79
179.1105	66
179.1124	53
179.1142	92
179.1161	40
196.0342	53
196.0361	53
196.0381	40
196.0401	40
196.0421	26
196.044	26
203.1764	26
203.1804	26
207.1009	26
207.3649	26
208.1032	26
208.1052	26
208.1072	26
208.1093	26
208.1113	66
208.1133	40
208.1154	66
208.1194	26
253.2105	26
253.215	26
253.2195	26
255.2262	40
255.233	26
255.2443	26
257.2137	26
257.216	40
257.2228	92
257.225	40
257.2273	92
257.2318	79
257.2341	40
271.2375	26
275.228	26
275.2327	26
275.235	26
275.2397	26
275.242	26
275.2467	26
275.2491	53
275.2538	26
280.3664	27
280.3829	27
280.4113	27
281.1513	27
281.2223	54
281.2294	40
281.2318	273
281.2341	220
281.2365	304
281.2389	526
281.2412	596
281.2436	647
281.2459	953
281.2483	831
281.2507	855
281.2531	789
281.2554	608
281.2578	483
281.2602	290
281.2625	220
281.2649	54
281.2672	70
281.2696	54
281.272	98
281.2744	27
281.2767	68
281.2791	27
281.4329	14
281.5868	14
282.2454	26
282.4398	27
301.2091	53
301.2115	106
301.214	26
301.2165	66
301.2189	26
301.2214	92
301.2238	119
301.2263	106
301.2287	53
303.2377	27
308.0651	27
317.4698	27
318.242	27
319.1992	26
319.2043	40
319.2068	66
319.2093	174
319.2119	231
319.2144	338
319.2169	298
319.2194	380
319.222	422
319.2245	543
319.227	406
319.2295	544
319.232	366
319.2345	339
319.2371	433
319.2396	257
319.2421	148
319.2446	82
319.2472	81
319.2497	14
319.2522	41
319.2547	54
319.2572	41
320.2235	14
389.2327	26
404.2538	26
417.233	26
417.2618	26
460.2694	26
460.2755	26
460.2816	26
460.2846	40
460.2906	26
460.2997	26
460.3027	26
460.3118	26
478.2562	26
478.2623	53
478.2685	26
478.2716	26
478.2747	79
478.2778	53
478.2809	66
478.287	131
478.2901	119
478.2932	106
478.2963	144
478.2994	53
478.3025	131
478.3055	210
478.3086	106
478.3117	40
478.3148	66
478.3179	26
478.321	40
478.3271	26
478.3364	26
481.2756	26
498.265	53
498.2681	26
498.2712	26
516.2572	26
516.2604	26
516.2668	26
516.2797	26
544.2686	26
544.2718	53
544.2751	26
544.2784	26
693.4542	26
706.5422	26
706.6022	26
780.4334	26
780.4413	53
780.4453	53
780.4492	53
780.4531	80
780.457	120
780.461	79
780.465	82
780.4689	85
780.4728	169
780.4767	166
780.4807	184
780.4847	269
780.4886	357
780.4926	545
780.4965	566
780.5004	562
780.5043	754
780.5083	629
780.5123	816
780.5162	799
780.5201	758
780.524	900
780.528	973
780.5319	999
780.5359	955
780.5399	621
780.5438	959
780.5477	625
780.5516	562
780.5556	491
780.5596	335
780.5635	174
780.5674	146
780.5714	103
780.5753	129
780.5792	72
780.5832	14
780.5872	62
780.5911	14
780.6029	15
780.6108	14
780.6187	26
780.6502	14
781.3915	14
781.502	40
781.5138	40
781.5256	40
781.5375	26
