Mass spectrum: Cer[NS] d48:2; LC-ESI-QTOF; MS2
Name: Cer[NS] d48:2
Class: Cer_NS
Formula: C48H93NO3
Exact mass: 732.276
SMILES: CCCCCCCCCCCCCCC\C=C\C(O)C(CO)NC(=O)CCCCCCCCCCC\C=C/CCCCCCCCCCCCCC
InChI: InChI=1S/C48H93NO3/c1-3-5-7-9-11-13-15-17-19-20-21-22-23-24-25-26-27-28-30-32-34-36-38-40-42-44-48(52)49-46(45-50)47(51)43-41-39-37-35-33-31-29-18-16-14-12-10-8-6-4-2/h24-25,41,43,46-47,50-51H,3-23,26-40,42,44-45H2,1-2H3,(H,49,52)/b25-24-,43-41+
Instrument: AB Sciex TripleTOF 5600+ system (Q-TOF) equipped with a DuoSpray ion source
Instrument type: LC-ESI-QTOF
Ms type: MS2
Ion mode: NEGATIVE
Collision energy: 45V
Column name: Acquity UPLC Peptide BEH C18 column (50*2.1 mm; 1.7 um; 130A)(Waters Co.,Milford, MA, USA)
Retention time: 13.77116
Precursor type: [M+CH3COOH-H]-
Precursor m/z: 790.723
m/z	relative intensity
118.97	9
141.016	19
216.992	65
217.003	265
246.976	13
263.235	19
265.248	92
265.26	32
265.269	18
277.018	10
291.256	27
291.264	41
291.272	31
293.276	24
298.984	27
298.99	51
299.001	135
299.02	37
377.356	22
377.379	41
381.004	78
392.375	22
394.409	41
395.381	41
403.385	32
403.404	50
418.395	63
420.394	46
420.403	56
420.419	177
420.432	56
421.402	54
436.428	37
446.397	27
446.424	274
446.442	116
463.005	93
474.478	22
545.023	13
626.966	9
656.657	55
672.656	22
674.666	66
682.642	13
682.681	60
698.651	22
698.666	27
698.685	27
698.704	18
700.625	18
700.656	22
700.669	27
700.7	74
704.674	50
704.699	18
705.7	22
728.381	23
730.648	118
730.687	999
730.707	492
730.719	351
