Mass spectrum: PE(18:1/10-HDoHE); LC-ESI-QTOF; MS2
Name: PE(18:1/10-HDoHE)
Class: Oxidized Phospholipid
Formula: C45H76NO9P
Exact mass: 806.077
SMILES: CCCCCCCC\C=C/CCCCCCCC(=O)OCC(COP(O)(=O)OCCN)OC(=O)CC\C=C/C\C=C/CC(O)\C=C\C=C/C\C=C/C\C=C/CC
InChI: InChI=1S/C45H76NO9P/c1-3-5-7-9-11-13-15-16-17-18-19-21-23-28-32-36-44(48)52-40-43(41-54-56(50,51)53-39-38-46)55-45(49)37-33-29-25-24-27-31-35-42(47)34-30-26-22-20-14-12-10-8-6-4-2/h6,8,12,14,16-17,22,25-27,29-31,34,42-43,47H,3-5,7,9-11,13,15,18-21,23-24,28,32-33,35-41,46H2,1-2H3,(H,50,51)/b8-6-,14-12-,17-16-,26-22-,29-25-,31-27-,34-30+
Instrument: Acquity UPLC Peptide BEH C18 column (50 x 2.1 mm; 1.7 um), Sciex TripleTOF5600
Instrument type: LC-ESI-QTOF
Ms type: MS2
Ion mode: NEGATIVE
Collision energy: 30-50
Precursor m/z: 804.5184935
Precursor type: [M-H]-
m/z	relative intensity
135.1158	36
135.119	23
135.1207	23
137.0911	23
140.0107	23
140.0141	23
153.0828	48
153.0862	48
153.088	60
153.0897	96
153.0915	96
153.0932	48
153.095	71
153.0967	36
153.1002	71
153.102	23
161.1272	36
161.1307	36
161.1361	71
161.1433	23
181.0716	23
181.0754	36
181.0773	23
181.0792	60
181.0811	48
181.083	48
181.0849	48
181.0887	36
181.0906	48
181.0963	23
190.1324	23
190.1363	23
196.0278	36
196.0337	60
196.0356	48
196.0376	36
196.0396	36
196.0534	23
227.1669	23
227.1754	23
227.1818	36
253.2077	23
253.2167	23
261.2637	23
281.2075	23
281.2146	36
281.2169	23
281.2193	98
281.2217	49
281.2241	136
281.2264	208
281.2288	136
281.2312	223
281.2335	211
281.2359	198
281.2383	532
281.2406	312
281.243	449
281.2454	685
281.2477	662
281.2501	500
281.2524	525
281.2548	385
281.2572	300
281.2596	200
281.2619	138
281.2643	137
281.2667	50
281.269	23
281.2714	37
281.2737	62
281.2809	48
281.7307	13
299.2282	36
299.2307	23
299.238	36
299.2404	23
299.2453	36
325.1985	23
325.201	36
325.2036	23
325.2061	23
325.2112	36
325.2137	48
325.2162	48
325.2188	83
325.2213	60
325.2239	23
325.2264	23
325.229	36
325.2315	23
325.2366	23
325.2392	23
343.1985	23
343.209	23
343.2115	60
343.2142	83
343.2168	119
343.2194	108
343.222	227
343.2246	239
343.2273	156
343.2299	156
343.2325	179
343.2351	191
343.2377	71
343.2403	96
343.2429	83
343.2455	60
343.2482	71
343.2508	23
343.2534	23
344.237	23
460.2596	23
460.2717	23
460.2777	36
460.2868	23
460.2929	23
460.2989	23
460.305	23
478.2615	23
478.2646	36
478.2677	36
478.2708	48
478.2739	23
478.2769	60
478.2801	48
478.2831	36
478.2862	71
478.2893	108
478.2924	96
478.2955	83
478.2986	96
478.3016	48
478.3047	36
478.3078	96
478.3109	60
478.3232	36
478.3264	23
540.2756	23
719.4714	23
736.5226	23
804.4459	60
804.4539	71
804.4579	37
804.4619	49
804.4659	197
804.4699	101
804.4739	88
804.4779	166
804.4819	141
804.4859	254
804.4899	374
804.4939	390
804.4979	536
804.5019	508
804.5059	800
804.5099	614
804.5139	738
804.5179	709
804.5219	843
804.5259	815
804.5299	999
804.5339	842
804.5379	837
804.5419	563
804.5459	666
804.5499	432
804.5539	355
804.5579	364
804.562	313
804.5659	143
804.5699	183
804.5739	63
804.5779	90
804.582	64
804.5859	39
804.59	39
804.5939	37
804.598	25
804.606	23
805.4947	23
805.4987	36
805.5027	48
805.5067	23
805.5147	36
805.5228	48
805.5267	71
805.5347	23
805.5508	23
805.5548	23
805.5668	23
