Mass spectrum: PC(16:1e/12-HETE); LC-ESI-QTOF; MS2
Name: PC(16:1e/12-HETE)
Class: Oxidized Phospholipid
Formula: C44H80NO8P
Exact mass: 782.099
SMILES: CCCCCCCCCCCCCC\C=C/OCC(COP([O-])(=O)OCC[N+](C)(C)C)OC(=O)CCC\C=C/C\C=C/C=C/C(O)C\C=C/CCCCC
InChI: InChI=1S/C44H80NO8P/c1-6-8-10-12-14-15-16-17-18-19-22-25-29-33-38-50-40-43(41-52-54(48,49)51-39-37-45(3,4)5)53-44(47)36-32-28-24-21-20-23-27-31-35-42(46)34-30-26-13-11-9-7-2/h21,23-24,26-27,30-31,33,35,38,42-43,46H,6-20,22,25,28-29,32,34,36-37,39-41H2,1-5H3/b24-21-,27-23-,30-26-,35-31+,38-33-
Instrument: Acquity UPLC Peptide BEH C18 column (50 x 2.1 mm; 1.7 um), Sciex TripleTOF5600
Instrument type: LC-ESI-QTOF
Ms type: MS2
Ion mode: NEGATIVE
Collision energy: 30-50
Precursor m/z: 840.576008
Precursor type: [M+CH3COOH-H]-
m/z	relative intensity
163.1102	45
163.1156	29
168.0357	29
179.0984	45
179.1003	45
179.1022	45
179.1041	88
179.1059	88
179.1078	88
179.1097	132
179.1116	59
179.1192	29
208.1045	29
208.1065	29
208.1207	29
257.2175	45
257.2198	45
257.2266	73
257.2289	29
257.2311	59
257.2356	29
281.2429	29
281.25	29
301.1986	29
301.2035	45
301.206	59
301.2084	29
301.2109	29
301.2133	59
301.2158	73
301.2182	29
301.2207	59
301.2231	73
301.2256	45
301.228	59
318.473	30
319.0448	30
319.2036	103
319.2061	60
319.2086	45
319.2112	194
319.2137	180
319.2162	345
319.2188	390
319.2213	464
319.2238	331
319.2263	463
319.2288	300
319.2314	312
319.2339	285
319.2364	358
319.2389	253
319.2414	132
319.244	89
319.2465	103
319.249	88
319.254	30
319.2566	45
319.2591	45
319.2616	29
333.237	29
375.2303	59
375.233	29
375.2357	29
375.2412	29
446.2857	29
446.2946	45
446.2976	29
446.3006	45
446.3065	59
446.3155	29
446.3185	29
446.3304	29
464.2825	29
464.2916	29
464.2946	59
464.2977	59
464.3007	88
464.3037	118
464.3068	59
464.3098	118
464.3129	147
464.3159	161
464.3189	88
464.322	102
464.325	147
464.3281	45
464.3311	45
464.3372	88
464.3402	45
573.3843	29
695.4432	29
695.4656	29
695.4693	29
695.473	29
695.4842	88
703.5411	29
765.152	30
766.46	30
766.4678	30
766.4717	59
766.4756	119
766.4796	89
766.4835	119
766.4874	91
766.4913	121
766.4952	47
766.4991	198
766.503	253
766.5069	201
766.5108	329
766.5147	283
766.5186	457
766.5225	661
766.5264	617
766.5303	647
766.5342	900
766.5381	808
766.5421	999
766.546	713
766.5499	885
766.5538	822
766.5577	775
766.5616	745
766.5655	808
766.5694	539
766.5733	364
766.5772	428
766.5811	346
766.585	206
766.5889	157
766.5928	111
766.5967	206
766.6006	63
766.6046	47
766.6085	47
766.6124	16
766.6358	30
767.5034	30
767.5229	29
767.5659	29
767.5815	29
780.5556	29
781.5059	29
781.5099	29
793.5589	29
840.5237	45
840.5278	29
840.5319	29
840.5482	29
840.5523	59
840.5605	59
840.5687	45
840.5728	45
840.5768	59
840.5809	45
840.5891	73
840.5973	29
840.6014	73
840.6055	59
840.6137	45
840.6219	59
840.6301	45
840.6423	29
