Mass spectrum: PC 40:6; LC-ESI-QTOF; MS2
Name: PC 40:6
Class: PC
Formula: C48H84NO8P
Exact mass: 834.175
SMILES: CCCCCCCC\C=C/CCCCCCCC(=O)OCC(COP([O-])(=O)OCC[N+](C)(C)C)OC(=O)CCCCC\C=C/C\C=C/C\C=C/C\C=C/C\C=C/CC
InChI: InChI=1S/C48H84NO8P/c1-6-8-10-12-14-16-18-20-22-23-24-25-27-29-31-33-35-37-39-41-48(51)57-46(45-56-58(52,53)55-43-42-49(3,4)5)44-54-47(50)40-38-36-34-32-30-28-26-21-19-17-15-13-11-9-7-2/h8,10,14,16,20-22,24-26,29,31,46H,6-7,9,11-13,15,17-19,23,27-28,30,32-45H2,1-5H3/b10-8-,16-14-,22-20-,25-24-,26-21-,31-29-
Instrument: AB Sciex TripleTOF 5600+ system (Q-TOF) equipped with a DuoSpray ion source
Instrument type: LC-ESI-QTOF
Ms type: MS2
Ion mode: NEGATIVE
Collision energy: 45V
Column name: Acquity UPLC Peptide BEH C18 column (50*2.1 mm; 1.7 um; 130A)(Waters Co.,Milford, MA, USA)
Retention time: 9.500834
Precursor type: [M+CH3COOH-H]-
Precursor m/z: 892.6064
m/z	relative intensity
224.069	11
279.245	4
281.233	30
281.238	57
281.247	245
285.248	9
285.26	30
285.277	5
329.244	603
488.309	15
506.303	13
506.312	12
506.318	7
506.325	15
506.331	10
506.347	6
506.363	3
536.32	8
554.291	3
703.47	3
810.477	2
815.966	2
818.487	10
818.503	18
818.527	66
818.563	999
818.656	5
833.527	10
892.567	13
892.575	20
892.588	21
892.596	24
892.627	53
