Mass spectrum: PC 38:4; LC-ESI-QTOF; MS2
Name: PC 38:4
Class: PC
Formula: C46H84NO8P
Exact mass: 810.1529999999999
SMILES: CCCCCCCCCCCCCCCC(=O)OCC(COP([O-])(=O)OCC[N+](C)(C)C)OC(=O)CCCCCCCC\C=C/C\C=C/C\C=C/C\C=C/CC
InChI: InChI=1S/C46H84NO8P/c1-6-8-10-12-14-16-18-20-21-22-23-24-25-27-29-31-33-35-37-39-46(49)55-44(43-54-56(50,51)53-41-40-47(3,4)5)42-52-45(48)38-36-34-32-30-28-26-19-17-15-13-11-9-7-2/h8,10,14,16,20-21,23-24,44H,6-7,9,11-13,15,17-19,22,25-43H2,1-5H3/b10-8-,16-14-,21-20-,24-23-
Instrument: AB Sciex TripleTOF 5600+ system (Q-TOF) equipped with a DuoSpray ion source
Instrument type: LC-ESI-QTOF
Ms type: MS2
Ion mode: NEGATIVE
Collision energy: 45V
Column name: Acquity UPLC Peptide BEH C18 column (50*2.1 mm; 1.7 um; 130A)(Waters Co.,Milford, MA, USA)
Retention time: 9.922771
Precursor type: [M+CH3COOH-H]-
Precursor m/z: 868.6013
m/z	relative intensity
78.958	1
168.044	8
205.121	1
206.061	1
224.068	11
233.226	4
242.076	1
253.221	1
254.429	1
255.232	287
259.25	1
281.239	3
281.252	15
283.261	4
287.262	7
287.276	8
303.225	3
303.238	3
305.242	1
313.256	3
330.22	2
330.266	1
331.261	813
332.262	1
391.204	1
391.229	1
406.261	1
462.274	2
462.296	10
467.256	0
480.262	2
480.304	56
482.291	0
484.291	0
485.979	0
495.269	0
496.282	0
506.328	0
538.324	3
538.347	2
556.308	1
556.327	3
556.349	2
556.395	0
661.269	0
723.492	2
749.507	1
792.014	1
792.04	2
792.096	1
794.427	0
794.48	3
794.565	999
794.642	6
795.549	3
808.54	1
809.484	1
809.526	9
809.562	2
868.546	9
868.569	16
868.593	40
868.62	39
868.669	2
