Mass spectrum: PC(15:0/17,18-EpETE); LC-ESI-QTOF; MS2
Name: PC(15:0/17,18-EpETE)
Class: Oxidized Phospholipid
Formula: C43H76NO9P
Exact mass: 782.055
SMILES: CCCCCCCCCCCCCCC(=O)OCC(COP([O-])(=O)OCC[N+](C)(C)C)OC(=O)CCC\C=C/C\C=C/C\C=C/C\C=C/CC1OC1CC
InChI: InChI=1S/C43H76NO9P/c1-6-8-9-10-11-12-13-18-21-24-27-30-33-42(45)49-37-39(38-51-54(47,48)50-36-35-44(3,4)5)52-43(46)34-31-28-25-22-19-16-14-15-17-20-23-26-29-32-41-40(7-2)53-41/h14,16-17,20,22,25-26,29,39-41H,6-13,15,18-19,21,23-24,27-28,30-38H2,1-5H3/b16-14-,20-17-,25-22-,29-26-
Instrument: Acquity UPLC Peptide BEH C18 column (50 x 2.1 mm; 1.7 um), Sciex TripleTOF5600
Instrument type: LC-ESI-QTOF
Ms type: MS2
Ion mode: NEGATIVE
Collision energy: 30-50
Precursor m/z: 840.5396225
Precursor type: [M+CH3COOH-H]-
m/z	relative intensity
135.1199	17
152.9946	17
161.1352	17
161.1388	17
168.0387	17
168.0405	17
168.0424	51
168.046	17
168.0515	17
201.1566	25
201.1626	25
201.1646	17
215.1623	17
215.1726	17
215.1747	59
215.1767	34
215.1788	42
215.1809	51
215.183	68
215.185	17
215.1892	17
224.0567	25
224.0588	34
224.0651	17
224.0672	17
224.0694	68
224.0715	25
224.0736	34
241.1924	17
241.1968	17
241.199	25
241.2012	59
241.2033	119
241.2055	169
241.2077	246
241.2099	203
241.2121	347
241.2143	415
241.2165	347
241.2187	356
241.2209	288
241.2231	237
241.2253	254
241.2274	186
241.2296	93
241.2318	76
241.2362	42
241.2384	51
241.2406	25
241.2472	17
242.2146	25
245.155	17
247.1784	17
255.1973	34
255.1995	51
255.2018	17
255.204	42
255.2063	110
255.2085	85
255.2108	59
255.213	42
255.2153	34
255.2175	68
255.2198	34
255.2221	17
255.2243	25
255.2266	25
255.2288	17
255.2311	17
255.2333	17
255.2356	17
255.2401	17
259.1548	25
259.157	25
259.1593	25
259.1616	25
259.1638	34
259.1661	68
259.1684	42
259.1707	119
259.1729	51
259.1752	76
259.1797	17
261.1825	25
273.2096	25
273.2166	34
273.2189	34
273.2212	25
273.2235	17
273.2259	25
273.2282	34
273.2305	17
281.2439	25
281.2486	17
282.2457	17
283.2564	17
283.2706	34
299.1852	17
299.1901	42
299.1925	25
299.1949	102
299.1974	119
299.1998	68
299.2023	51
299.2047	42
299.2072	76
299.2096	85
299.212	25
299.2145	34
299.2169	17
299.2194	25
317.186	25
317.1885	51
317.191	34
317.1935	127
317.196	119
317.1985	152
317.201	186
317.2036	398
317.2061	296
317.2086	330
317.2111	347
317.2136	271
317.2161	322
317.2186	305
317.2212	271
317.2237	110
317.2262	169
317.2287	59
317.2312	25
317.2337	42
317.2362	25
317.2387	17
317.2413	17
317.2438	34
318.2121	17
351.226	17
377.2234	17
448.2706	25
448.2825	25
448.2885	25
448.2975	17
448.3004	25
453.2163	17
466.2672	42
466.2703	17
466.2733	42
466.2764	59
466.2794	93
466.2825	42
466.2855	42
466.2886	135
466.2916	68
466.2947	59
466.2977	93
466.3008	76
466.3038	76
466.3069	76
466.3099	51
466.313	51
466.316	17
466.3191	25
466.3251	17
466.3282	42
542.2786	17
542.2885	25
550.918	17
690.818	17
755.4482	17
755.5219	17
758.756	17
764.0392	17
765.2371	17
766.428	17
766.4319	25
766.4358	51
766.4397	25
766.4436	68
766.4475	68
766.4514	135
766.4553	262
766.4592	169
766.4631	262
766.467	203
766.4709	356
766.4749	516
766.4788	610
766.4827	610
766.4866	635
766.4905	880
766.4944	770
766.4983	906
766.5022	914
766.5061	999
766.51	830
766.5139	923
766.5178	745
766.5217	728
766.5256	796
766.5295	686
766.5334	516
766.5374	542
766.5413	322
766.5452	322
766.5491	262
766.553	229
766.5569	85
766.5608	93
766.5647	42
766.5686	42
766.5725	42
766.5764	17
766.5803	17
766.5842	34
766.5881	17
766.6038	17
767.4752	17
767.4908	34
767.4947	25
767.5065	17
767.5104	17
767.5143	17
767.5182	25
767.5377	17
767.5573	17
780.4325	17
780.5271	17
781.442	25
781.4498	25
781.4577	17
781.4893	17
822.446	17
822.531	17
840.4285	17
840.453	17
840.4612	25
840.4694	34
840.4734	51
840.4775	25
840.4816	25
840.4857	51
840.4898	42
840.4939	42
840.498	42
840.5021	51
840.5062	51
840.5103	85
840.5143	85
840.5184	51
840.5225	135
840.5266	85
840.5307	85
840.5348	102
840.5389	68
840.543	59
840.5471	102
840.5511	93
840.5552	76
840.5593	144
840.5634	93
840.5675	68
840.5716	59
840.5757	85
840.5798	17
840.5839	68
840.588	59
840.592	42
840.5961	51
840.6044	25
841.5455	17
1092.582	17
