Mass spectrum: PC(16:1/16,17-EpDPE); LC-ESI-QTOF; MS2
Name: PC(16:1/16,17-EpDPE)
Class: Oxidized Phospholipid
Formula: C46H78NO9P
Exact mass: 820.104
SMILES: CCCCCC\C=C/CCCCCCCC(=O)OCC(COP([O-])(=O)OCC[N+](C)(C)C)OC(=O)CC\C=C/C\C=C/C\C=C/C\C=C/CC1OC1C\C=C/CC
InChI: InChI=1S/C46H78NO9P/c1-6-8-10-11-12-13-14-15-19-22-25-28-32-36-45(48)52-40-42(41-54-57(50,51)53-39-38-47(3,4)5)55-46(49)37-33-29-26-23-20-17-16-18-21-24-27-31-35-44-43(56-44)34-30-9-7-2/h9,13-14,17-18,20-21,26-27,29-31,42-44H,6-8,10-12,15-16,19,22-25,28,32-41H2,1-5H3/b14-13-,20-17-,21-18-,29-26-,30-9-,31-27-
Instrument: Acquity UPLC Peptide BEH C18 column (50 x 2.1 mm; 1.7 um), Sciex TripleTOF5600
Instrument type: LC-ESI-QTOF
Ms type: MS2
Ion mode: NEGATIVE
Collision energy: 30-50
Precursor m/z: 878.5552726
Precursor type: [M+CH3COOH-H]-
m/z	relative intensity
121.0677	26
156.9043	26
168.0388	26
168.0461	26
168.048	26
189.1561	26
224.061	26
224.0632	26
224.0716	26
233.1421	26
233.1486	40
233.1529	26
233.1572	26
233.1594	26
245.1508	27
247.1763	27
248.1422	27
252.2487	27
252.4392	27
252.9596	27
253.1886	26
253.1931	27
253.1953	14
253.1975	56
253.1998	123
253.202	167
253.2043	222
253.2065	470
253.2088	624
253.211	585
253.2133	791
253.2155	849
253.2177	974
253.22	765
253.2222	764
253.2245	597
253.2267	388
253.229	361
253.2312	138
253.2335	124
253.2357	41
253.2379	70
253.2402	43
253.2447	54
253.4648	14
254.7018	14
274.1457	26
274.1504	26
274.1574	40
274.1691	26
281.2156	40
281.2275	26
281.2322	40
281.2346	40
281.2393	40
299.2366	26
299.239	26
317.2113	26
325.2097	40
325.2122	40
343.1969	26
343.2021	26
343.2074	26
343.21	26
343.2126	40
343.2152	53
343.2178	92
343.2205	53
343.2231	198
343.2257	79
343.2283	106
343.2309	132
343.2335	92
343.2361	92
343.2387	66
343.2414	66
343.244	106
343.2492	26
458.5367	26
460.2636	26
478.2656	26
478.2779	53
478.281	26
478.2841	66
478.2872	79
478.2933	66
478.2964	53
478.2995	40
478.3026	40
478.3119	26
478.3181	26
504.3115	26
550.2892	26
550.3058	40
568.2707	40
568.2842	26
568.2875	26
568.2909	53
568.2943	26
568.301	53
568.3043	26
568.3145	40
568.3212	26
568.3245	26
791.4889	26
802.0431	27
804.4144	27
804.4304	27
804.4344	81
804.4464	80
804.4504	67
804.4584	27
804.4625	168
804.4664	180
804.4705	84
804.4744	97
804.4785	185
804.4824	226
804.4865	363
804.4905	496
804.4944	485
804.4985	500
804.5024	716
804.5065	707
804.5104	702
804.5145	720
804.5185	906
804.5225	981
804.5265	980
804.5305	809
804.5345	999
804.5385	836
804.5425	825
804.5465	722
804.5505	535
804.5545	432
804.5585	389
804.5625	275
804.5665	286
804.5705	217
804.5745	145
804.5785	158
804.5825	84
804.5865	128
804.5905	75
804.5945	27
804.5985	27
805.4953	26
805.5073	26
805.5193	26
805.5233	26
805.5273	26
805.5353	14
805.5393	40
805.5473	53
805.5554	40
819.4872	26
878.4903	40
878.4987	26
878.507	26
878.5154	26
878.5196	40
878.5237	40
878.528	106
878.5321	66
878.5363	26
878.5405	92
878.5447	79
878.5489	40
878.553	132
878.5572	53
878.5614	40
878.5656	79
878.5698	92
878.574	66
878.5781	66
878.5823	26
878.5865	92
878.5907	40
878.5948	53
878.5991	40
878.6032	26
878.6116	40
