Mass spectrum: PI 38:7; LC-ESI-QTOF; MS2
Name: PI 38:7
Class: PI
Formula: C47H77O13P
Exact mass: 881.0959999999999
SMILES: CCCCC\C=C/C\C=C/CCCCCCCC(=O)OCC(COP(O)(=O)OC1C(O)C(O)C(O)C(O)C1O)OC(=O)CCC\C=C/C\C=C/C\C=C/C\C=C/C\C=C/CC
InChI: InChI=1S/C47H77O13P/c1-3-5-7-9-11-13-15-17-19-20-22-24-26-28-30-32-34-36-41(49)59-39(38-58-61(55,56)60-47-45(53)43(51)42(50)44(52)46(47)54)37-57-40(48)35-33-31-29-27-25-23-21-18-16-14-12-10-8-6-4-2/h5,7,11-14,17-19,21-22,24,28,30,39,42-47,50-54H,3-4,6,8-10,15-16,20,23,25-27,29,31-38H2,1-2H3,(H,55,56)/b7-5-,13-11-,14-12-,19-17-,21-18-,24-22-,30-28-
Instrument: AB Sciex TripleTOF 5600+ system (Q-TOF) equipped with a DuoSpray ion source
Instrument type: LC-ESI-QTOF
Ms type: MS2
Ion mode: NEGATIVE
Collision energy: 45V
Column name: Acquity UPLC Peptide BEH C18 column (50*2.1 mm; 1.7 um; 130A)(Waters Co.,Milford, MA, USA)
Retention time: 7.911642
Precursor type: [M-H]-
Precursor m/z: 879.5082
m/z	relative intensity
223.003	68
241.012	102
279.217	42
279.233	206
301.207	25
301.212	42
301.222	34
301.229	25
315.042	17
415.215	17
437.211	42
543.271	17
577.251	25
577.261	34
577.272	42
577.284	111
595.274	59
599.265	34
817.488	25
819.501	27
879.464	148
879.472	305
879.481	252
879.489	305
879.513	999
879.531	218
879.539	191
879.573	51
879.627	17
879.635	25
