Mass spectrum: PC(18:1e/5,6-EET); LC-ESI-QTOF; MS2
Name: PC(18:1e/5,6-EET)
Class: Oxidized Phospholipid
Formula: C46H84NO8P
Exact mass: 810.153
SMILES: CCCCCCCCCCCCCCCC\C=C/OCC(COP([O-])(=O)OCC[N+](C)(C)C)OC(=O)CCCC1OC1C\C=C/C\C=C/C\C=C/CCCCC
InChI: InChI=1S/C46H84NO8P/c1-6-8-10-12-14-16-18-20-21-22-23-25-27-29-31-33-39-51-41-43(42-53-56(49,50)52-40-38-47(3,4)5)54-46(48)37-34-36-45-44(55-45)35-32-30-28-26-24-19-17-15-13-11-9-7-2/h15,17,24,26,30,32-33,39,43-45H,6-14,16,18-23,25,27-29,31,34-38,40-42H2,1-5H3/b17-15-,26-24-,32-30-,39-33-
Instrument: Acquity UPLC Peptide BEH C18 column (50 x 2.1 mm; 1.7 um), Sciex TripleTOF5600
Instrument type: LC-ESI-QTOF
Ms type: MS2
Ion mode: NEGATIVE
Collision energy: 30-50
Precursor m/z: 868.6073082
Precursor type: [M+CH3COOH-H]-
m/z	relative intensity
191.1719	109
191.1758	109
191.1797	223
191.1855	168
219.188	109
241.0064	109
275.2497	109
319.2151	109
319.2202	109
319.2227	168
319.2252	223
319.2277	168
319.2303	168
319.2328	331
319.2353	109
319.2378	168
329.2479	109
347.2687	109
474.3402	109
492.3311	277
492.3342	223
492.3373	168
492.3405	109
492.3436	277
492.3467	277
492.3499	109
492.3561	109
492.3624	168
492.3781	168
544.2663	109
794.4946	109
794.5224	109
794.5264	223
794.5344	168
794.5383	223
794.5423	331
794.5463	385
794.5503	331
794.5543	608
794.5582	776
794.5622	500
794.5662	554
794.5701	500
794.5742	608
794.5781	831
794.5821	554
794.5861	831
794.59	999
794.594	385
794.598	277
794.602	331
794.606	277
794.6099	500
794.6139	168
794.6179	168
794.6219	223
794.6259	168
794.6298	109
794.6497	109
794.6577	109
808.4954	109
808.5154	109
808.5275	109
868.5342	168
868.5508	109
868.5716	109
868.5758	168
868.58	109
868.5924	109
868.5966	109
868.6174	168
868.634	109
868.6465	109
869.52	109
869.5366	109
869.5408	109
869.5449	109
869.5533	168
869.5574	168
869.5699	109
869.5741	109
869.5782	168
869.5824	168
869.5949	109
869.6032	109
