Mass spectrum: PS 36:4; LC-ESI-QTOF; MS2
Name: PS 36:4
Class: PS
Formula: C42H74NO10P
Exact mass: 784.0269999999999
SMILES: CCCCCCCCCCCCCCCC(=O)OCC(COP(O)(=O)OCC(N)C(O)=O)OC(=O)CCCCCC\C=C/C\C=C/C\C=C/C\C=C/CC
InChI: InChI=1S/C42H74NO10P/c1-3-5-7-9-11-13-15-17-18-19-20-22-24-26-28-30-32-34-41(45)53-38(36-51-54(48,49)52-37-39(43)42(46)47)35-50-40(44)33-31-29-27-25-23-21-16-14-12-10-8-6-4-2/h5,7,11,13,17-18,20,22,38-39H,3-4,6,8-10,12,14-16,19,21,23-37,43H2,1-2H3,(H,46,47)(H,48,49)/b7-5-,13-11-,18-17-,22-20-
Instrument: AB Sciex TripleTOF 5600+ system (Q-TOF) equipped with a DuoSpray ion source
Instrument type: LC-ESI-QTOF
Ms type: MS2
Ion mode: NEGATIVE
Collision energy: 45V
Column name: Acquity UPLC Peptide BEH C18 column (50*2.1 mm; 1.7 um; 130A)(Waters Co.,Milford, MA, USA)
Retention time: 8.33168
Precursor type: [M-H]-
Precursor m/z: 782.494
m/z	relative intensity
78.959	36
113.096	7
136.964	19
152.995	161
171.008	10
175.148	18
196.036	7
203.18	7
219.141	38
254.429	6
255.232	999
257.224	29
257.236	16
259.241	19
283.236	10
283.263	360
284.265	41
301.215	56
303.224	192
303.238	170
319.225	120
345.225	14
345.246	24
391.197	33
391.224	440
409.233	229
419.251	69
420.263	44
436.284	14
437.27	11
438.272	19
439.2	9
439.226	89
457.244	17
462.289	10
480.3	19
480.325	8
495.275	4
496.269	2
498.244	2
526.928	3
669.097	3
694.42	5
695.403	21
695.46	770
723.495	3
724.438	4
724.5	76
764.514	16
764.561	9
780.044	6
782.328	3
782.482	643
782.513	787
783.506	5
