Mass spectrum: PI(18:1/13-HODE); LC-ESI-QTOF; MS2
Name: PI(18:1/13-HODE)
Class: Oxidized Phospholipid
Formula: C45H81O14P
Exact mass: 877.105
SMILES: CCCCCCCC\C=C/CCCCCCCC(=O)OCC(COP(O)(=O)OC1C(O)C(O)C(O)C(O)C1O)OC(=O)CCCCCCC\C=C/C=C/C(O)CCCCC
InChI: InChI=1S/C45H81O14P/c1-3-5-7-8-9-10-11-12-13-14-15-18-21-24-28-32-38(47)56-34-37(35-57-60(54,55)59-45-43(52)41(50)40(49)42(51)44(45)53)58-39(48)33-29-25-22-19-16-17-20-23-27-31-36(46)30-26-6-4-2/h12-13,20,23,27,31,36-37,40-46,49-53H,3-11,14-19,21-22,24-26,28-30,32-35H2,1-2H3,(H,54,55)/b13-12-,23-20-,31-27+
Instrument: Acquity UPLC Peptide BEH C18 column (50 x 2.1 mm; 1.7 um), Sciex TripleTOF5600
Instrument type: LC-ESI-QTOF
Ms type: MS2
Ion mode: NEGATIVE
Collision energy: 30-50
Precursor m/z: 875.5291178
Precursor type: [M-H]-
m/z	relative intensity
78.9614	7
78.96892	7
152.9882	11
152.9899	7
152.9952	7
153.0004	7
153.0039	7
195.1302	15
195.1322	7
195.1342	7
195.1362	11
195.1381	18
195.1421	11
195.144	15
222.987	7
222.9913	7
222.9976	11
222.9997	29
223.0018	11
223.0039	11
223.0081	11
240.9932	15
240.9954	18
240.9976	11
240.9998	33
241.002	48
241.0041	26
241.0063	59
241.0085	73
241.0107	62
241.0129	51
241.0151	55
241.0173	44
241.0195	26
241.0217	33
241.0238	22
241.026	15
241.0304	15
253.2067	7
253.209	7
253.2202	11
259.019	18
259.0212	7
259.0235	7
267.194	7
277.2036	11
277.213	15
277.2153	15
277.2177	11
277.22	7
277.2294	11
278.2123	8
280.3746	7
281.2282	15
281.2329	11
281.2353	29
281.2376	37
281.24	37
281.2424	85
281.2448	100
281.2471	103
281.2495	107
281.2519	63
281.2542	85
281.2566	37
281.2589	22
281.2637	15
281.2661	11
281.2708	11
281.2732	4
281.2755	7
283.2597	15
283.2644	8
284.2318	8
284.2603	8
294.3542	8
295.2045	7
295.2093	15
295.2118	37
295.2142	78
295.2166	41
295.219	71
295.2215	113
295.2239	109
295.2263	112
295.2287	124
295.2311	142
295.2336	105
295.236	79
295.2384	79
295.2408	48
295.2433	26
295.2481	8
295.2505	8
295.2554	8
297.0255	7
297.028	7
297.0352	15
297.0377	7
297.0425	7
297.045	7
297.0474	18
297.0498	7
315.0451	7
315.0501	7
315.0551	7
365.2779	11
417.2193	7
417.225	7
417.2279	18
417.2308	18
417.2337	18
417.2366	26
417.2395	37
417.2423	33
417.2452	7
417.2481	7
417.251	18
417.2539	7
417.2568	18
417.2625	7
417.2683	11
431.2002	11
431.2031	11
431.209	15
431.2119	7
431.2148	18
431.2178	15
431.2207	11
431.2236	22
431.2266	29
431.2295	18
431.2324	22
431.2354	22
431.2383	15
431.2441	15
431.25	11
579.2513	11
579.2582	7
579.265	7
579.2717	7
579.2751	15
579.2785	29
579.2819	26
579.2853	22
579.2887	18
579.2921	22
579.2955	15
579.2989	11
579.3023	22
579.3057	7
579.3091	11
579.3159	15
579.3193	7
579.3227	7
593.2411	7
593.248	18
593.2514	7
593.2549	15
593.2583	33
593.2617	15
593.2652	18
593.2686	18
593.272	37
593.2755	44
593.2789	26
593.2823	22
593.2858	15
593.2892	7
593.2927	18
593.2961	22
593.303	7
597.2792	7
597.2861	11
597.2896	11
597.3033	11
597.3102	22
597.3137	7
597.3171	11
597.324	11
597.3344	11
611.2883	7
733.397	7
872.7173	7
872.7632	7
872.7756	7
872.7965	7
872.8048	7
872.8423	7
875.4371	7
875.4581	26
875.4622	42
875.4664	26
875.4706	26
875.4747	85
875.4789	76
875.4831	80
875.4872	119
875.4915	230
875.4956	227
875.4998	403
875.504	362
875.5081	508
875.5123	568
875.5165	565
875.5206	690
875.5248	735
875.529	898
875.5332	999
875.5374	882
875.5416	935
875.5457	847
875.5499	756
875.5541	738
875.5582	637
875.5624	544
875.5666	406
875.5707	282
875.575	254
875.5791	211
875.5833	147
875.5875	126
875.5916	73
875.5958	42
875.6	39
875.6042	20
875.6083	9
875.6125	14
875.6167	9
875.6208	5
875.6251	5
875.6501	5
875.8004	5
875.8297	5
876.4728	4
876.4854	7
876.5104	7
876.5146	11
876.5188	11
876.5229	11
876.5271	11
876.5313	11
876.5397	23
876.548	15
876.5522	7
876.5564	15
