Mass spectrum: PC(16:1/5-HEPE); LC-ESI-QTOF; MS2
Name: PC(16:1/5-HEPE)
Class: Oxidized Phospholipid
Formula: C44H76NO9P
Exact mass: 794.066
SMILES: CCCCCC\C=C/CCCCCCCC(=O)OCC(COP([O-])(=O)OCC[N+](C)(C)C)OC(=O)CCCC(O)\C=C\C=C/C\C=C/C\C=C/C\C=C/CC
InChI: InChI=1S/C44H76NO9P/c1-6-8-10-12-14-16-18-20-22-24-26-28-30-33-41(46)34-32-36-44(48)54-42(40-53-55(49,50)52-38-37-45(3,4)5)39-51-43(47)35-31-29-27-25-23-21-19-17-15-13-11-9-7-2/h8,10,14,16-17,19-20,22,26,28,30,33,41-42,46H,6-7,9,11-13,15,18,21,23-25,27,29,31-32,34-40H2,1-5H3/b10-8-,16-14-,19-17-,22-20-,28-26-,33-30+
Instrument: Acquity UPLC Peptide BEH C18 column (50 x 2.1 mm; 1.7 um), Sciex TripleTOF5600
Instrument type: LC-ESI-QTOF
Ms type: MS2
Ion mode: NEGATIVE
Collision energy: 30-50
Precursor m/z: 852.5396225
Precursor type: [M+CH3COOH-H]-
m/z	relative intensity
115.0354	35
115.0369	25
115.0384	71
115.0399	35
115.0414	25
115.0429	60
115.0444	35
115.046	25
115.049	25
115.0505	35
115.0565	25
121.1124	25
168.0367	25
181.0819	25
201.1585	60
201.1605	35
201.1645	25
201.1665	60
224.0566	25
224.0651	25
224.0672	25
224.0714	50
224.0756	25
242.0784	25
252.4279	25
252.4324	25
253.1951	25
253.1996	50
253.2019	96
253.2041	181
253.2064	156
253.2086	205
253.2108	301
253.2131	290
253.2153	266
253.2176	411
253.2198	351
253.2221	312
253.2243	301
253.2266	205
253.2288	71
253.2311	85
253.2333	60
253.2355	25
253.2378	25
254.2312	25
255.1927	35
255.1995	25
255.204	25
255.2063	96
255.2085	71
255.2108	110
255.213	85
255.2175	35
255.2198	85
255.2243	50
255.2266	60
255.2288	25
255.2333	25
299.1828	25
299.1853	25
299.1877	120
299.1902	71
299.1926	50
299.195	25
299.1975	156
299.1999	110
299.2024	120
299.2048	96
299.2072	85
299.2097	96
299.2121	71
299.2146	35
299.2268	35
299.2317	25
317.1811	25
317.1911	25
317.1936	35
317.1961	60
317.1987	131
317.2012	60
317.2037	181
317.2062	156
317.2087	145
317.2112	181
317.2137	241
317.2162	205
317.2188	110
317.2213	85
317.2238	60
317.2263	50
317.2288	60
317.2314	25
460.2729	25
460.282	25
478.2535	25
478.2658	25
478.2689	50
478.272	25
478.2751	50
478.2782	35
478.2813	110
478.2844	85
478.2874	96
478.2905	50
478.2936	71
478.2967	110
478.2998	96
478.3029	145
478.3059	120
478.3091	110
478.3121	50
478.3152	71
478.3183	25
478.3214	50
542.299	25
707.4355	25
707.4393	25
765.5155	25
776.0726	25
776.104	25
778.4367	35
778.4446	71
778.4485	60
778.4525	60
778.4564	181
778.4603	354
778.4642	404
778.4682	259
778.4721	340
778.4761	319
778.48	503
778.4839	538
778.4879	602
778.4918	815
778.4957	854
778.4997	765
778.5036	999
778.5076	978
778.5115	964
778.5154	939
778.5193	740
778.5233	556
778.5272	680
778.5312	517
778.5351	528
778.5391	461
778.543	365
778.5469	230
778.5508	181
778.5548	181
778.5587	120
778.5627	60
778.5666	50
778.5706	50
778.5784	60
779.5157	25
779.5197	35
779.5275	25
792.5302	25
792.5381	25
793.4401	25
793.456	25
793.4918	25
852.4617	50
852.4741	35
852.4865	25
852.4906	50
852.4988	35
852.5029	35
852.5071	60
852.5112	85
852.5153	25
852.5194	96
852.5236	71
852.5276	156
852.5318	131
852.5359	96
852.54	96
852.5441	110
852.5483	71
852.5524	96
852.5565	85
852.5606	110
852.5648	85
852.5688	35
852.573	25
852.5771	35
852.5812	71
852.5853	60
852.5936	50
852.606	25
852.6224	25
