Mass spectrum: PE 42:9; LC-ESI-QTOF; MS2
Name: PE 42:9
Class: PE
Formula: C47H76NO8P
Exact mass: 814.0999999999999
SMILES: CC\C=C/C\C=C/C\C=C/CCCCCCCCCC(=O)OCC(COP(O)(=O)OCCN)OC(=O)CC\C=C/C\C=C/C\C=C/C\C=C/C\C=C/C\C=C/CC
InChI: InChI=1S/C47H76NO8P/c1-3-5-7-9-11-13-15-17-19-21-22-24-26-28-30-32-34-36-38-40-47(50)56-45(44-55-57(51,52)54-42-41-48)43-53-46(49)39-37-35-33-31-29-27-25-23-20-18-16-14-12-10-8-6-4-2/h5-8,11-14,17-20,22,24,28,30,34,36,45H,3-4,9-10,15-16,21,23,25-27,29,31-33,35,37-44,48H2,1-2H3,(H,51,52)/b7-5-,8-6-,13-11-,14-12-,19-17-,20-18-,24-22-,30-28-,36-34-
Instrument: AB Sciex TripleTOF 5600+ system (Q-TOF) equipped with a DuoSpray ion source
Instrument type: LC-ESI-QTOF
Ms type: MS2
Ion mode: NEGATIVE
Collision energy: 45V
Column name: Acquity UPLC Peptide BEH C18 column (50*2.1 mm; 1.7 um; 130A)(Waters Co.,Milford, MA, USA)
Retention time: 9.124788
Precursor type: [M-H]-
Precursor m/z: 812.5197
m/z	relative intensity
140.013	20
196.038	20
249.185	31
253.226	31
255.23	52
283.24	239
283.272	31
284.264	31
303.243	20
305.245	624
317.212	20
327.232	670
419.249	52
441.231	22
445.937	20
484.277	41
502.288	114
725.501	62
812.504	999
812.534	520
