Mass spectrum: PC 40:4; LC-ESI-QTOF; MS2
Name: PC 40:4
Class: PC
Formula: C48H88NO8P
Exact mass: 838.2069999999999
SMILES: CCCCCCCCCCCCCCCCCC(=O)OCC(COP([O-])(=O)OCC[N+](C)(C)C)OC(=O)CCCCCCCC\C=C/C\C=C/C\C=C/C\C=C/CC
InChI: InChI=1S/C48H88NO8P/c1-6-8-10-12-14-16-18-20-22-23-24-25-27-29-31-33-35-37-39-41-48(51)57-46(45-56-58(52,53)55-43-42-49(3,4)5)44-54-47(50)40-38-36-34-32-30-28-26-21-19-17-15-13-11-9-7-2/h8,10,14,16,20,22,24-25,46H,6-7,9,11-13,15,17-19,21,23,26-45H2,1-5H3/b10-8-,16-14-,22-20-,25-24-
Instrument: AB Sciex TripleTOF 5600+ system (Q-TOF) equipped with a DuoSpray ion source
Instrument type: LC-ESI-QTOF
Ms type: MS2
Ion mode: NEGATIVE
Collision energy: 45V
Column name: Acquity UPLC Peptide BEH C18 column (50*2.1 mm; 1.7 um; 130A)(Waters Co.,Milford, MA, USA)
Retention time: 10.98032
Precursor type: [M+CH3COOH-H]-
Precursor m/z: 896.6354
m/z	relative intensity
168.043	12
224.067	4
233.218	1
242.08	3
281.248	6
282.375	2
283.262	276
287.273	14
303.235	4
311.295	2
330.224	6
330.363	1
330.828	1
331.262	732
332.264	1
490.334	11
501.553	1
508.337	65
516.892	1
538.314	4
538.344	2
556.338	8
567.512	2
751.551	3
819.961	2
822.597	999
822.884	1
823.592	5
837.549	9
837.603	3
896.586	8
896.634	141
