Mass spectrum: PI 32:0; LC-ESI-QTOF; MS2
Name: PI 32:0
Class: PI
Formula: C41H79O13P
Exact mass: 811.0459999999999
SMILES: CCCCCCCCCCCCCCCC(=O)OCC(COP(O)(=O)OC1C(O)C(O)C(O)C(O)C1O)OC(=O)CCCCCCCCCCCCCCC
InChI: InChI=1S/C41H79O13P/c1-3-5-7-9-11-13-15-17-19-21-23-25-27-29-34(42)51-31-33(32-52-55(49,50)54-41-39(47)37(45)36(44)38(46)40(41)48)53-35(43)30-28-26-24-22-20-18-16-14-12-10-8-6-4-2/h33,36-41,44-48H,3-32H2,1-2H3,(H,49,50)
Instrument: AB Sciex TripleTOF 5600+ system (Q-TOF) equipped with a DuoSpray ion source
Instrument type: LC-ESI-QTOF
Ms type: MS2
Ion mode: NEGATIVE
Collision energy: 45V
Column name: Acquity UPLC Peptide BEH C18 column (50*2.1 mm; 1.7 um; 130A)(Waters Co.,Milford, MA, USA)
Retention time: 8.517325
Precursor type: [M-H]-
Precursor m/z: 809.5172
m/z	relative intensity
140.013	38
152.995	18
196.036	42
229.198	49
241.011	23
255.233	118
257.222	20
257.234	62
258.229	38
283.23	31
283.24	138
283.258	48
283.266	24
284.249	190
298.23	15
301.203	77
301.221	238
302.204	29
302.224	180
327.226	380
327.24	158
327.249	46
328.236	457
329.247	18
391.221	52
419.248	14
447.299	18
464.306	26
465.315	26
480.26	24
481.251	18
498.266	157
499.259	93
506.272	10
507.266	20
524.284	15
525.275	29
553.271	38
571.286	10
722.477	34
762.507	14
777.483	29
791.537	20
809.401	15
809.453	132
809.465	238
809.485	999
809.503	571
809.517	306
809.529	221
809.541	157
809.565	77
