Mass spectrum: PE(16:1e/5-HETE); LC-ESI-QTOF; MS2
Name: PE(16:1e/5-HETE)
Class: Oxidized Phospholipid
Formula: C41H74NO8P
Exact mass: 740.018
SMILES: CCCCCCCCCCCCCC\C=C/OCC(COP(O)(=O)OCCN)OC(=O)CCCC(O)\C=C\C=C/C\C=C/C\C=C/CCCCC
InChI: InChI=1S/C41H74NO8P/c1-3-5-7-9-11-13-15-17-19-21-23-25-27-29-35-47-37-40(38-49-51(45,46)48-36-34-42)50-41(44)33-30-32-39(43)31-28-26-24-22-20-18-16-14-12-10-8-6-4-2/h12,14,18,20,24,26,28-29,31,35,39-40,43H,3-11,13,15-17,19,21-23,25,27,30,32-34,36-38,42H2,1-2H3,(H,45,46)/b14-12-,20-18-,26-24-,31-28+,35-29-
Instrument: Acquity UPLC Peptide BEH C18 column (50 x 2.1 mm; 1.7 um), Sciex TripleTOF5600
Instrument type: LC-ESI-QTOF
Ms type: MS2
Ion mode: NEGATIVE
Collision energy: 30-50
Precursor m/z: 738.5079288
Precursor type: [M-H]-
m/z	relative intensity
78.95886	31
78.96137	24
78.96262	47
78.96388	31
109.0685	16
114.6644	16
114.7218	16
115.0273	8
115.0318	48
115.0333	48
115.0348	130
115.0363	146
115.0379	137
115.0394	268
115.0409	252
115.0424	227
115.0439	203
115.0454	90
115.0469	41
115.0485	33
115.05	25
115.0515	25
115.0545	8
115.056	8
115.0575	16
115.0591	8
129.0579	24
133.0979	15
139.9991	15
140.0058	24
140.0075	24
140.0091	15
140.0125	15
140.0141	24
140.0158	24
140.0175	15
151.1477	24
151.1564	15
191.1845	15
196.0258	15
196.0278	31
196.0298	47
196.0317	54
196.0337	24
196.0357	54
196.0376	71
196.0396	63
196.0416	86
196.0436	15
196.0456	24
196.0475	24
196.0554	15
203.1578	15
203.1638	15
203.1658	15
203.1679	15
203.1699	47
203.1719	31
203.1739	86
203.1759	78
203.1779	102
203.1799	94
203.1819	133
203.1839	78
203.186	47
203.188	31
203.19	39
203.192	31
203.196	31
205.184	15
205.186	15
205.1961	15
227.1967	24
227.1988	15
227.2031	15
227.2052	15
227.2073	15
229.1874	15
239.2277	24
239.2299	15
239.2321	47
239.2343	24
239.2364	47
239.2386	31
239.2408	54
239.243	24
239.2452	15
239.2474	15
239.2539	15
239.2561	15
249.1713	15
249.178	24
249.1802	47
249.1824	39
249.1847	24
249.1869	24
249.1891	24
249.1914	31
251.2089	24
253.1965	16
253.2077	15
253.2122	15
253.2189	15
253.2212	15
253.2234	15
255.2166	16
256.4285	16
256.4308	16
256.4443	16
256.4647	16
257.2063	24
257.2086	71
257.2109	71
257.2131	64
257.2154	111
257.2177	120
257.2199	202
257.2222	290
257.2245	282
257.2267	282
257.229	282
257.2312	298
257.2335	177
257.2357	170
257.238	130
257.2403	81
257.2426	72
257.2448	41
257.2471	41
257.2493	8
257.2516	24
257.2561	15
257.2584	8
273.2156	15
275.1922	15
275.2156	8
275.2274	15
275.239	15
277.2065	24
277.2112	15
277.2206	31
277.2253	15
281.2335	54
281.2382	31
281.2406	55
281.2429	24
281.2453	47
281.2477	47
281.25	63
281.2524	63
281.2548	24
281.2571	31
286.5683	16
299.2135	16
300.2615	16
301.1888	32
301.1913	48
301.1937	65
301.1962	56
301.1986	97
301.2011	90
301.2035	265
301.206	204
301.2084	278
301.2109	327
301.2133	385
301.2158	460
301.2182	417
301.2207	410
301.2231	450
301.2256	319
301.228	180
301.2305	163
301.2329	123
301.2354	58
301.2378	25
301.2403	33
301.2451	16
301.2476	25
301.2721	16
302.2182	8
303.205	15
303.2149	8
303.2173	39
303.2247	15
303.2271	24
303.2321	24
303.2345	24
303.237	15
303.2394	31
317.1976	24
317.2001	24
317.2026	15
317.2051	31
317.2076	15
317.2101	47
317.2126	15
317.2177	15
317.2202	31
317.2227	15
318.2187	15
318.2438	16
318.3244	16
318.4326	16
319.1279	16
319.1632	16
319.196	56
319.1985	25
319.201	49
319.2036	57
319.2061	49
319.2086	140
319.2111	99
319.2137	180
319.2162	288
319.2187	346
319.2212	460
319.2237	445
319.2262	429
319.2288	453
319.2313	371
319.2338	412
319.2363	280
319.2389	237
319.2414	222
319.2439	116
319.2464	83
319.2489	50
319.2515	41
319.254	41
319.2565	33
319.259	16
319.2641	16
320.2278	15
320.2354	15
375.2109	31
375.2245	15
375.2273	15
375.23	39
375.2355	24
375.2382	15
408.5992	15
418.2443	31
418.25	24
418.2529	39
418.2558	78
418.2587	47
418.2616	71
418.2645	78
418.2674	102
418.2702	86
418.2731	110
418.276	141
418.2789	86
418.2818	71
418.2847	117
418.2875	39
418.2904	63
418.2933	63
418.2962	15
418.2991	15
418.3049	15
418.3077	15
434.9243	15
435.9637	16
436.2407	31
436.2466	71
436.2495	8
436.2525	88
436.2554	50
436.2584	91
436.2613	115
436.2643	155
436.2672	265
436.2701	290
436.2731	290
436.276	335
436.279	552
436.2819	486
436.2849	470
436.2878	638
436.2908	394
436.2937	485
436.2967	369
436.2996	368
436.3026	259
436.3055	158
436.3085	51
436.3114	68
436.3144	51
436.3173	34
436.3203	59
436.3232	17
436.3261	25
436.3291	25
436.332	25
437.2639	15
437.2698	15
437.2757	24
438.2824	15
438.2853	15
438.3001	15
438.3031	15
438.3119	24
438.3149	15
456.4109	15
506.3116	15
506.3243	24
676.4003	15
688.4531	15
688.4642	24
736.0932	17
736.1927	24
736.2042	15
736.2081	15
736.231	15
738.4417	16
738.4456	16
738.4494	8
738.4532	17
738.457	68
738.4609	112
738.4647	166
738.4686	116
738.4724	220
738.4763	219
738.48	460
738.4839	444
738.4877	549
738.4916	596
738.4954	603
738.4992	761
738.5031	762
738.5069	819
738.5107	770
738.5146	999
738.5184	878
738.5222	914
738.5261	915
738.5299	776
738.5338	539
738.5376	542
738.5414	424
738.5452	434
738.5491	293
738.5529	180
738.5568	81
738.5606	123
738.5644	81
738.5682	54
738.5721	45
738.5759	35
738.5798	26
738.5874	18
738.5912	25
738.5951	15
738.6334	15
738.7446	9
739.4734	15
739.4773	15
739.4811	15
739.485	24
739.4927	31
739.4965	24
739.5004	24
739.5042	39
739.508	15
739.5118	24
739.5157	31
739.5234	24
739.5272	15
739.5349	31
739.5464	15
739.5541	15
