Mass spectrum: PC(16:0/7-HDoHE); LC-ESI-QTOF; MS2
Name: PC(16:0/7-HDoHE)
Class: Oxidized Phospholipid
Formula: C46H80NO9P
Exact mass: 822.12
SMILES: CCCCCCCCCCCCCCCC(=O)OCC(COP([O-])(=O)OCC[N+](C)(C)C)OC(=O)CC\C=C/CC(O)\C=C\C=C/C\C=C/C\C=C/C\C=C/CC
InChI: InChI=1S/C46H80NO9P/c1-6-8-10-12-14-16-18-20-22-24-26-28-31-35-43(48)36-32-30-34-38-46(50)56-44(42-55-57(51,52)54-40-39-47(3,4)5)41-53-45(49)37-33-29-27-25-23-21-19-17-15-13-11-9-7-2/h8,10,14,16,20,22,26,28,30-32,35,43-44,48H,6-7,9,11-13,15,17-19,21,23-25,27,29,33-34,36-42H2,1-5H3/b10-8-,16-14-,22-20-,28-26-,32-30-,35-31+
Instrument: Acquity UPLC Peptide BEH C18 column (50 x 2.1 mm; 1.7 um), Sciex TripleTOF5600
Instrument type: LC-ESI-QTOF
Ms type: MS2
Ion mode: NEGATIVE
Collision energy: 30-50
Precursor m/z: 880.5709227
Precursor type: [M+CH3COOH-H]-
m/z	relative intensity
113.0614	19
141.0501	13
141.0551	13
141.0568	13
152.9962	13
168.044	13
168.0459	19
201.1624	13
201.1644	25
224.0735	19
224.0777	19
230.1698	13
245.1903	13
254.4382	13
254.445	19
254.4517	13
255.195	13
255.1995	13
255.2018	13
255.204	13
255.2085	13
255.2108	26
255.213	19
255.2153	78
255.2175	151
255.2198	186
255.222	277
255.2243	452
255.2265	446
255.2288	520
255.2311	712
255.2333	605
255.2356	538
255.2378	585
255.2401	447
255.2423	432
255.2446	153
255.2468	113
255.2491	80
255.2513	80
255.2536	40
255.2581	40
256.2374	13
281.2202	51
281.2226	45
281.225	19
281.2273	25
281.2297	45
281.2321	31
281.2344	25
281.2368	25
281.2415	31
281.2463	19
281.2486	13
281.251	19
281.2534	19
281.2557	13
281.2581	19
282.2457	13
299.2438	13
325.2096	19
325.2147	19
325.2173	19
325.2198	13
325.2224	25
325.23	13
325.2376	13
343.2021	13
343.2047	13
343.2073	13
343.21	13
343.2126	39
343.2152	31
343.2178	25
343.2204	83
343.2231	51
343.2256	58
343.2283	58
343.2309	70
343.2335	51
343.2361	58
343.2387	31
343.2413	19
343.244	19
343.2466	25
343.2492	13
462.2911	13
480.32	13
480.3231	25
550.2963	13
550.2996	13
568.2644	13
568.2779	25
568.2813	13
568.2846	31
568.288	25
568.2913	45
568.2947	31
568.298	25
568.3014	25
568.3048	31
568.3082	19
568.3115	25
568.3149	19
568.3182	31
568.3216	19
568.325	25
568.3283	19
568.3317	25
568.3351	13
568.3384	13
597.3138	13
735.4447	19
735.4523	13
735.4562	45
735.46	19
735.4753	19
735.4791	13
735.4868	25
735.4906	25
804.0233	19
804.0393	13
805.5724	14
806.4417	33
806.4576	13
806.4617	26
806.4656	13
806.4697	33
806.4737	58
806.4777	58
806.4817	99
806.4857	127
806.4897	137
806.4937	227
806.4977	238
806.5017	269
806.5057	466
806.5097	437
806.5137	531
806.5178	669
806.5217	668
806.5258	664
806.5298	825
806.5338	826
806.5378	861
806.5418	999
806.5458	845
806.5498	737
806.5538	747
806.5578	762
806.5618	683
806.5659	558
806.5698	392
806.5739	343
806.5778	272
806.5818	279
806.5859	148
806.5899	112
806.5939	114
806.5979	114
806.6019	41
806.6059	44
806.6099	38
806.6139	19
806.6299	19
807.4958	25
807.5158	13
807.5198	13
807.5238	19
807.5278	45
807.5319	31
807.5399	25
807.5439	13
807.5479	31
807.5519	19
807.5559	13
807.5599	39
807.5639	25
820.5387	13
820.5468	13
820.5508	13
820.5589	19
821.4524	13
821.4564	13
821.4807	13
821.4969	13
821.5009	39
821.5049	19
821.509	31
821.5171	19
880.4707	13
880.5042	25
880.5126	13
880.5209	25
880.5251	45
880.5293	31
880.5335	39
880.5377	19
880.5419	31
880.5461	25
880.5502	19
880.5544	51
880.5587	51
880.5628	77
880.567	64
880.5712	51
880.5754	95
880.5796	89
880.5837	51
880.588	58
880.5921	64
880.5963	51
880.6005	45
880.6047	51
880.6089	58
880.613	45
880.6172	19
880.6215	45
880.6256	25
880.6298	13
880.6382	13
881.4883	19
881.5721	13
