Mass spectrum: PE(16:0/18-HEPE); LC-ESI-QTOF; MS2
Name: PE(16:0/18-HEPE)
Class: Oxidized Phospholipid
Formula: C41H72NO9P
Exact mass: 754.001
SMILES: CCCCCCCCCCCCCCCC(=O)OCC(COP(O)(=O)OCCN)OC(=O)CCC\C=C/C\C=C/C\C=C/C\C=C/C=C/C(O)CC
InChI: InChI=1S/C41H72NO9P/c1-3-5-6-7-8-9-10-13-17-20-23-26-29-32-40(44)48-36-39(37-50-52(46,47)49-35-34-42)51-41(45)33-30-27-24-21-18-15-12-11-14-16-19-22-25-28-31-38(43)4-2/h12,14-16,21-22,24-25,28,31,38-39,43H,3-11,13,17-20,23,26-27,29-30,32-37,42H2,1-2H3,(H,46,47)/b15-12-,16-14-,24-21-,25-22-,31-28+
Instrument: Acquity UPLC Peptide BEH C18 column (50 x 2.1 mm; 1.7 um), Sciex TripleTOF5600
Instrument type: LC-ESI-QTOF
Ms type: MS2
Ion mode: NEGATIVE
Collision energy: 30-50
Precursor m/z: 752.4871934
Precursor type: [M-H]-
m/z	relative intensity
140.0019	64
140.0069	64
140.0086	64
196.0333	64
196.0372	64
196.0392	64
196.0412	64
196.0451	64
215.1715	64
215.1736	64
215.1797	64
215.1818	128
215.1859	64
255.1998	64
255.2021	64
255.2043	64
255.2066	64
255.2088	319
255.211	319
255.2133	191
255.2155	128
255.2178	128
255.22	128
255.2222	64
255.2245	319
255.2267	446
255.229	478
255.2312	457
255.2334	393
255.2357	351
255.2379	351
255.2402	191
255.2424	128
255.2469	128
255.2491	191
259.1629	64
259.1652	64
259.1697	64
259.172	319
259.1742	64
273.1676	64
273.214	64
273.2209	64
273.2233	64
273.2256	64
273.2302	64
273.2349	64
299.179	64
299.1863	128
299.1912	128
299.1936	128
299.196	191
299.1985	255
299.2009	255
299.2033	128
299.2057	191
299.2082	64
299.2106	128
299.213	191
299.23	64
316.197	64
316.202	64
317.1929	64
317.1954	128
317.1979	319
317.2004	255
317.2029	191
317.2054	128
317.2079	255
317.2104	531
317.2129	563
317.2154	383
317.2179	319
317.2204	319
317.2229	255
317.2254	64
317.2279	128
317.2304	128
317.2328	64
317.2354	64
317.2404	64
317.2429	64
434.2594	64
434.2711	64
452.2621	64
452.265	64
452.271	128
452.274	128
452.283	128
452.2889	64
452.2979	64
452.3008	64
452.3038	64
472.2748	64
472.2779	64
472.284	64
678.4786	64
678.4822	64
708.3777	64
708.4375	64
752.4411	64
752.4449	64
752.4488	128
752.4526	128
752.4603	128
752.4642	478
752.468	553
752.4719	627
752.4757	850
752.4796	733
752.4834	712
752.4872	903
752.4911	521
752.4949	999
752.4988	861
752.5027	755
752.5065	659
752.5104	414
752.5142	425
752.5181	563
752.5219	191
752.5258	64
752.5296	64
752.5334	191
752.5373	128
752.5411	128
752.545	64
752.5604	64
752.645	64
752.6796	64
