Mass spectrum: PC 36:6; LC-ESI-QTOF; MS2
Name: PC 36:6
Class: PC
Formula: C44H76NO8P
Exact mass: 778.0669999999998
SMILES: CCCCCC\C=C/CCCCCCCC(=O)OCC(COP([O-])(=O)OCC[N+](C)(C)C)OC(=O)CCC\C=C/C\C=C/C\C=C/C\C=C/C\C=C/CC
InChI: InChI=1S/C44H76NO8P/c1-6-8-10-12-14-16-18-20-21-22-23-25-27-29-31-33-35-37-44(47)53-42(41-52-54(48,49)51-39-38-45(3,4)5)40-50-43(46)36-34-32-30-28-26-24-19-17-15-13-11-9-7-2/h8,10,14,16-17,19-21,23,25,29,31,42H,6-7,9,11-13,15,18,22,24,26-28,30,32-41H2,1-5H3/b10-8-,16-14-,19-17-,21-20-,25-23-,31-29-
Instrument: AB Sciex TripleTOF 5600+ system (Q-TOF) equipped with a DuoSpray ion source
Instrument type: LC-ESI-QTOF
Ms type: MS2
Ion mode: NEGATIVE
Collision energy: 45V
Column name: Acquity UPLC Peptide BEH C18 column (50*2.1 mm; 1.7 um; 130A)(Waters Co.,Milford, MA, USA)
Retention time: 8.462694
Precursor type: [M+CH3COOH-H]-
Precursor m/z: 836.5422
m/z	relative intensity
168.045	10
203.182	18
223.169	10
224.07	10
253.195	15
253.217	309
253.242	15
257.224	85
257.234	34
301.216	645
460.271	18
478.289	107
508.271	16
526.277	19
691.462	5
710.992	5
760.067	8
762.479	392
762.507	999
762.538	112
777.458	26
836.499	29
836.532	37
836.55	42
836.586	10
