Mass spectrum: PC(18:0e/20-HETE); LC-ESI-QTOF; MS2
Name: PC(18:0e/20-HETE)
Class: Oxidized Phospholipid
Formula: C46H86NO8P
Exact mass: 812.169
SMILES: CCCCCCCCCCCCCCCCCCOCC(COP([O-])(=O)OCC[N+](C)(C)C)OC(=O)CCC\C=C/C\C=C/C\C=C/C\C=C/CCCCCO
InChI: InChI=1S/C46H86NO8P/c1-5-6-7-8-9-10-11-12-13-19-22-25-28-31-34-37-41-52-43-45(44-54-56(50,51)53-42-39-47(2,3)4)55-46(49)38-35-32-29-26-23-20-17-15-14-16-18-21-24-27-30-33-36-40-48/h14,16-17,20-21,24,26,29,45,48H,5-13,15,18-19,22-23,25,27-28,30-44H2,1-4H3/b16-14-,20-17-,24-21-,29-26-
Instrument: Acquity UPLC Peptide BEH C18 column (50 x 2.1 mm; 1.7 um), Sciex TripleTOF5600
Instrument type: LC-ESI-QTOF
Ms type: MS2
Ion mode: NEGATIVE
Collision energy: 30-50
Precursor m/z: 870.6229582
Precursor type: [M+CH3COOH-H]-
m/z	relative intensity
168.049	17
257.2158	17
257.2271	17
257.2384	17
275.2301	27
275.2325	17
275.2348	53
275.2395	44
275.2418	53
275.2465	17
289.2069	17
289.2141	17
301.2016	17
301.204	36
301.2065	17
301.2089	27
301.2114	17
301.2138	36
301.2162	36
301.2187	62
301.2212	44
301.2236	36
301.226	27
301.231	27
301.2358	28
317.2157	18
317.9801	18
318.2393	18
318.2469	18
318.8941	18
319.189	55
319.2016	28
319.2041	19
319.2066	66
319.2091	196
319.2117	206
319.2142	207
319.2167	376
319.2192	397
319.2217	583
319.2243	596
319.2268	663
319.2293	545
319.2318	728
319.2343	424
319.2369	443
319.2394	425
319.2419	235
319.2444	179
319.2469	84
319.2495	151
319.252	76
319.2545	47
319.257	56
319.2596	19
319.2621	10
319.2646	10
319.2722	10
319.7362	10
320.2309	17
322.2186	10
322.5327	17
332.2749	17
476.3419	17
476.348	53
476.3511	44
476.3542	36
476.3572	17
476.3634	27
476.3665	17
476.3696	27
476.385	17
494.3326	17
494.3389	53
494.342	27
494.3452	53
494.3483	80
494.3514	53
494.3546	116
494.3577	80
494.3609	106
494.364	177
494.3671	97
494.3703	97
494.3734	71
494.3765	44
494.3797	53
494.3828	80
494.3891	44
494.3954	17
494.3985	27
725.48	17
725.5219	17
794.072	17
794.08	17
796.5032	18
796.5192	46
796.5271	18
796.5311	46
796.5351	37
796.5391	50
796.543	97
796.5471	206
796.551	264
796.555	276
796.559	267
796.563	416
796.567	381
796.5709	418
796.5749	483
796.5789	917
796.5829	809
796.5869	910
796.5908	999
796.5948	981
796.5988	729
796.6028	945
796.6068	932
796.6108	957
796.6147	686
796.6187	724
796.6227	477
796.6267	388
796.6307	377
796.6346	123
796.6386	225
796.6426	134
796.6466	183
796.6506	62
796.6545	31
796.6586	10
796.6625	29
796.6665	20
796.6705	53
797.5867	27
797.5907	27
797.6107	17
797.6186	62
810.5658	17
811.5422	17
811.5463	17
811.5583	17
811.5704	17
811.5744	17
811.6187	17
870.4803	17
870.4845	27
870.4886	17
870.4969	53
870.5012	44
870.5095	27
870.5136	36
870.5178	44
870.5219	44
870.5303	44
870.5344	44
870.5386	27
870.5428	53
870.5469	89
870.5511	53
870.5552	53
870.5594	71
870.5636	36
870.5677	44
870.5719	44
870.576	53
870.5802	27
870.5844	53
870.5886	62
870.5927	53
870.5969	62
870.601	44
870.6052	53
870.6094	80
870.6135	71
870.6177	106
870.6219	89
870.626	62
870.6302	80
870.6343	133
870.6385	62
870.6427	62
870.6469	71
870.651	89
870.6552	27
870.6593	62
870.6635	27
870.6677	27
870.6718	71
870.676	27
870.6843	17
870.6885	27
871.5547	17
