Mass spectrum: PE(16:1e/20-HETE); LC-ESI-QTOF; MS2
Name: PE(16:1e/20-HETE)
Class: Oxidized Phospholipid
Formula: C41H74NO8P
Exact mass: 740.018
SMILES: CCCCCCCCCCCCCC\C=C/OCC(COP(O)(=O)OCCN)OC(=O)CCC\C=C/C\C=C/C\C=C/C\C=C/CCCCCO
InChI: InChI=1S/C41H74NO8P/c1-2-3-4-5-6-7-8-9-17-20-23-26-29-32-36-47-38-40(39-49-51(45,46)48-37-34-42)50-41(44)33-30-27-24-21-18-15-13-11-10-12-14-16-19-22-25-28-31-35-43/h10,12-13,15-16,19,21,24,32,36,40,43H,2-9,11,14,17-18,20,22-23,25-31,33-35,37-39,42H2,1H3,(H,45,46)/b12-10-,15-13-,19-16-,24-21-,36-32-
Instrument: Acquity UPLC Peptide BEH C18 column (50 x 2.1 mm; 1.7 um), Sciex TripleTOF5600
Instrument type: LC-ESI-QTOF
Ms type: MS2
Ion mode: NEGATIVE
Collision energy: 30-50
Precursor m/z: 738.5079288
Precursor type: [M-H]-
m/z	relative intensity
78.72455	1
78.95507	4
78.95632	5
78.95757	7
78.95883	8
78.96008	11
78.96134	9
78.96259	6
78.96384	3
78.9651	4
78.96635	4
78.9676	2
78.96886	2
78.97011	2
78.97137	1
78.97387	1
81.07032	1
83.05143	1
83.054	2
93.07328	1
95.08229	1
95.08504	1
97.06547	1
105.0669	1
107.081	1
107.0839	1
107.0869	3
107.0898	2
107.0912	1
109.0966	1
109.0995	1
109.1025	1
109.1084	1
119.0832	1
119.0909	1
121.0995	1
121.101	2
121.1026	1
121.1041	2
121.1072	1
121.1104	1
121.9986	2
122.0048	2
123.1186	1
124.0173	1
133.1045	1
135.1077	1
135.111	2
135.1126	2
135.1192	2
135.1208	2
135.1225	3
137.002	1
137.1259	1
137.1308	1
137.1325	2
137.1342	2
137.1375	2
137.1391	1
139.1141	2
139.5771	1
139.5788	1
140.0009	2
140.0025	3
140.0042	5
140.0059	5
140.0076	10
140.0092	18
140.0109	16
140.0126	12
140.0142	12
140.0159	9
140.0176	8
140.0192	3
140.0209	3
140.0226	2
140.0242	2
140.0259	1
140.0777	1
140.0877	1
141.0898	1
147.1108	1
147.1142	1
147.121	1
147.1228	1
147.1245	1
149.1233	1
149.1268	1
149.1319	2
149.1337	2
149.1354	2
149.1371	3
149.1388	3
149.1406	1
151.1426	2
151.1443	1
151.1495	1
151.153	1
151.1548	1
151.1565	1
152.9974	2
153.1196	1
153.1371	1
155.1077	1
155.1094	1
161.0951	1
161.1345	2
161.1363	1
163.0098	2
163.0116	1
163.0134	2
163.0152	2
163.017	3
163.0188	1
163.0206	1
163.0224	2
163.026	1
163.0638	1
163.0692	1
163.071	3
163.0728	2
163.0746	2
163.0764	2
163.08	2
163.1431	1
163.1449	3
163.1467	2
163.1485	2
163.1503	1
163.1521	1
165.1551	1
165.1624	2
165.1642	1
165.166	2
166.0285	1
166.0321	1
166.103	2
167.1029	1
167.1466	2
167.1485	1
167.1521	1
174.1076	1
175.12	1
175.1461	2
175.148	1
175.1498	2
175.1517	2
175.1536	2
177.0766	1
177.086	2
177.0879	1
177.0898	3
177.0916	2
177.0935	4
177.0954	4
177.0973	2
177.0991	1
177.1085	1
177.1555	2
177.1592	1
177.163	2
177.1649	1
177.1667	2
177.1724	1
178.0298	1
178.0317	1
178.0336	1
179.0252	1
179.029	3
179.0309	1
179.0328	4
179.0347	2
179.0366	4
179.0384	4
179.0403	3
179.0479	2
179.1801	2
180.031	1
180.048	1
180.0518	1
181.1668	2
183.1377	1
189.1534	1
189.1611	2
189.1631	1
189.1708	1
190.6408	2
191.0969	1
191.1008	1
191.1067	4
191.1086	2
191.1106	3
191.1145	2
191.1164	1
191.1398	1
191.1476	1
191.1652	1
191.1691	2
191.173	3
191.175	3
191.1769	5
191.1789	2
191.1808	4
191.1828	3
191.1847	3
191.1867	2
191.1886	2
191.1906	1
191.1945	1
193.1249	1
193.1563	1
195.1597	1
195.1775	1
195.1794	1
195.4299	1
195.4437	1
195.7041	1
195.9134	1
196.0181	1
196.022	1
196.024	5
196.026	5
196.028	7
196.03	12
196.0319	19
196.0339	16
196.0359	28
196.0379	26
196.0398	23
196.0418	18
196.0438	16
196.0458	10
196.0477	5
196.0497	3
196.0517	3
196.0537	2
196.0556	3
196.0576	2
196.0774	1
196.0971	1
197.1477	1
197.1556	1
198.8452	1
199.2692	1
201.5363	1
203.1379	2
203.1419	1
203.146	1
203.1701	3
203.1721	2
203.1741	2
203.1761	3
203.1801	1
203.1822	2
203.1862	2
203.1882	1
205.1034	1
205.1195	1
205.1256	1
205.1276	1
205.16	2
207.1717	1
210.5546	1
215.174	1
215.1844	2
217.1219	1
217.1489	1
217.1864	2
217.1926	1
217.1947	1
217.1967	3
217.1988	3
217.2009	2
217.203	2
217.2051	1
219.1328	1
219.1349	3
219.137	2
219.1391	1
219.1412	1
219.1433	1
219.1725	1
219.2101	2
219.2122	3
219.2185	2
221.1887	1
221.1929	1
221.2076	1
223.153	1
223.1572	1
223.1635	1
223.1678	2
223.172	1
223.1741	2
223.1783	1
229.1963	2
229.2069	1
229.2091	2
233.1565	1
233.1866	2
233.1931	1
233.1952	2
233.2017	1
237.1832	1
237.2245	2
237.2266	1
237.2288	1
238.5018	1
239.0447	1
239.1495	1
239.2171	2
239.2193	2
239.2215	3
239.2236	3
239.2258	8
239.228	8
239.2302	15
239.2324	17
239.2346	20
239.2367	18
239.2389	15
239.2411	20
239.2433	13
239.2455	17
239.2477	6
239.2498	4
239.252	4
239.2542	2
239.2564	1
239.2586	1
239.2608	2
239.2651	1
240.5086	1
243.168	1
245.1743	2
245.1832	3
245.1854	4
245.1876	3
245.1898	4
245.192	3
245.1942	5
245.1964	4
245.1986	2
245.2008	3
245.203	2
245.2052	4
245.2074	2
245.2097	3
245.2119	2
245.2141	4
245.2163	8
245.2185	14
245.2207	18
245.2229	20
245.2251	16
245.2273	27
245.2296	19
245.2318	17
245.234	16
245.2362	10
245.2384	5
245.2406	5
245.2428	5
245.245	5
245.2472	1
245.2494	2
245.2605	1
246.2315	1
246.2359	1
246.7343	1
246.7964	1
247.1956	1
247.2044	2
247.2066	2
247.2111	2
257.1909	1
257.1931	1
257.2067	2
257.2112	2
257.2135	5
257.2157	2
257.218	7
257.2203	11
257.2225	18
257.2248	11
257.2271	14
257.2293	11
257.2316	10
257.2338	7
257.2361	4
257.2384	6
257.2406	3
257.2429	6
257.2451	4
263.1925	2
263.1947	3
263.197	2
263.1993	2
263.2016	3
263.2039	2
263.2131	1
271.1954	1
271.2024	2
271.2047	2
271.207	4
271.2093	3
271.2116	2
271.214	1
273.146	1
273.181	1
273.1833	2
273.1903	1
273.1927	1
273.202	2
273.2043	4
273.2067	6
273.209	7
273.2113	9
273.2137	12
273.216	20
273.2183	11
273.2207	25
273.223	20
273.2253	17
273.2277	22
273.23	13
273.2323	10
273.2346	3
273.237	5
273.2393	2
273.2417	2
273.244	1
273.251	2
273.2556	1
273.769	1
274.3717	2
275.202	1
275.2043	2
275.2067	4
275.209	2
275.2114	3
275.2137	2
275.216	4
275.2184	4
275.2207	8
275.2231	7
275.2254	14
275.2278	26
275.2301	25
275.2324	30
275.2348	37
275.2371	42
275.2394	45
275.2418	38
275.2441	35
275.2465	28
275.2488	20
275.2512	10
275.2535	10
275.2558	6
275.2582	4
275.2605	1
275.2628	3
275.2652	1
275.2675	1
275.2699	1
275.2722	1
275.5063	1
276.2375	1
276.2422	1
277.7569	1
278.0862	1
283.187	1
283.1941	1
283.1965	2
283.1989	2
283.2013	5
283.2036	5
283.206	3
283.2084	5
283.2108	5
283.2131	4
283.2155	1
283.2179	2
283.2369	1
287.8217	1
288.3078	1
289.1013	1
289.1829	2
289.1877	3
289.1901	1
289.1925	2
289.1949	2
289.1973	6
289.1997	5
289.2021	7
289.2045	15
289.2069	14
289.2093	24
289.2117	28
289.2141	25
289.2165	29
289.2189	32
289.2213	40
289.2237	22
289.2261	17
289.2285	15
289.2309	12
289.2333	7
289.2357	4
289.2381	4
289.2405	3
289.2429	3
289.2453	3
289.2573	1
289.3221	1
289.4613	1
290.218	1
290.2204	2
290.2228	1
290.812	1
291.2188	1
291.2212	1
291.2236	2
291.226	3
291.2284	5
291.2308	5
291.2332	2
291.2356	4
291.238	2
291.2404	3
291.2429	3
291.2453	1
291.2477	1
291.2525	2
291.2549	1
299.1896	1
299.1945	2
299.1993	1
300.2766	1
300.2815	2
300.3011	1
300.7487	1
300.9641	1
301.1011	1
301.1501	1
301.1721	1
301.1844	2
301.1868	1
301.1893	5
301.1917	5
301.1942	4
301.1966	6
301.1991	11
301.2015	27
301.204	42
301.2064	50
301.2089	53
301.2113	80
301.2138	85
301.2162	93
301.2187	92
301.2211	95
301.2236	81
301.226	69
301.2285	37
301.2309	31
301.2334	14
301.2358	12
301.2383	13
301.2407	5
301.2432	8
301.2456	3
301.2505	4
301.253	1
301.2554	1
301.4416	1
302.226	1
302.2309	2
305.6279	1
317.1931	1
317.1981	3
317.2006	4
317.2031	5
317.2056	5
317.2081	4
317.2106	4
317.2131	4
317.2157	5
317.2182	4
317.2207	5
317.2232	4
317.2257	1
318.2091	2
318.2116	2
318.2141	2
318.2166	2
318.2191	5
318.2242	5
318.2267	3
318.2292	4
318.2318	6
318.2343	5
318.2368	4
318.2393	5
318.2418	6
318.2443	2
318.2468	3
318.2519	2
318.2544	2
318.2569	1
318.2594	1
318.267	2
318.2695	1
318.272	1
318.8865	1
318.9974	1
319.0679	2
319.1259	1
319.1562	2
319.1662	2
319.1789	2
319.1814	2
319.194	1
319.1965	6
319.199	7
319.2015	18
319.204	12
319.2066	41
319.2091	70
319.2116	121
319.2141	248
319.2167	406
319.2192	594
319.2217	792
319.2242	880
319.2267	877
319.2292	938
319.2318	999
319.2343	789
319.2368	516
319.2393	281
319.2419	178
319.2444	93
319.2469	58
319.2494	22
319.252	10
319.2545	4
319.257	5
319.2595	4
319.2621	2
319.2646	5
319.2671	1
319.2696	2
319.2746	1
319.5016	2
319.6403	1
319.827	1
319.9279	1
320.0087	1
320.0415	1
320.0769	1
320.1046	1
320.1602	1
320.2082	2
320.2107	2
320.2132	2
320.2157	3
320.2183	3
320.2208	6
320.2233	6
320.2258	6
320.2284	9
320.2309	11
320.2334	8
320.2359	12
320.2385	4
320.241	5
320.2435	6
320.246	6
320.2485	1
320.2511	5
320.2536	2
320.2889	2
320.5213	1
320.5592	1
320.7613	1
321.1506	1
321.229	1
321.2416	1
321.573	2
321.616	1
322.0084	1
322.14	2
322.5504	1
323.6841	1
324.2225	1
324.4868	1
324.5046	1
325.0411	1
326.2659	1
362.2503	2
375.2061	1
375.2088	2
375.2115	2
375.2143	2
375.217	6
375.2197	7
375.2224	6
375.2252	9
375.2279	4
375.2307	9
375.2334	5
375.2361	8
375.2389	6
375.2416	4
375.2443	2
375.247	2
375.2498	2
375.2525	1
393.2457	1
393.2485	2
416.9734	1
416.9821	1
417.7546	1
417.844	1
418.222	1
418.2248	2
418.2306	1
418.2364	2
418.2393	3
418.2421	4
418.245	7
418.2479	8
418.2508	19
418.2537	21
418.2566	32
418.2595	34
418.2623	39
418.2652	44
418.2681	59
418.271	50
418.2739	65
418.2768	70
418.2797	37
418.2825	61
418.2854	47
418.2883	31
418.2912	29
418.2941	18
418.297	10
418.2998	9
418.3027	5
418.3056	6
418.3085	2
418.3114	1
418.3143	2
418.3172	1
418.3258	1
418.9263	1
419.2643	2
419.2672	1
419.2729	2
419.2758	1
419.2816	1
421.4136	1
421.6917	1
421.767	1
434.8958	1
434.8987	1
434.9016	1
434.9193	3
434.9222	2
434.9252	2
434.9369	1
434.9399	1
434.9517	2
435.614	1
436.1472	1
436.2385	2
436.2415	1
436.2444	2
436.2474	7
436.2503	9
436.2533	15
436.2562	21
436.2592	26
436.2621	41
436.265	72
436.268	89
436.2709	102
436.2739	133
436.2769	180
436.2798	158
436.2827	178
436.2857	177
436.2886	162
436.2916	211
436.2945	152
436.2975	113
436.3004	92
436.3034	77
436.3063	46
436.3093	28
436.3122	30
436.3152	15
436.3181	10
436.321	6
436.324	2
436.3269	1
436.3299	3
436.3329	1
436.3505	1
436.3564	1
436.3594	1
436.3682	1
436.5215	1
436.6571	1
436.7249	1
437.2647	1
437.2676	1
437.2706	1
437.2765	4
437.2794	2
437.2824	2
437.2883	2
437.2913	2
437.2971	2
437.3001	2
437.303	2
437.309	2
437.3119	1
438.3068	1
439.2881	1
439.5721	1
442.2355	1
498.2302	1
498.2396	2
498.2491	2
498.2522	1
498.2553	1
498.2585	2
498.2648	1
498.2679	1
498.2742	2
518.5197	1
736.1484	1
736.16	2
736.1638	2
736.1676	2
736.1714	2
736.1752	3
736.1791	3
736.1829	2
736.1868	3
736.1906	4
736.1944	3
736.1982	4
736.2021	1
736.2059	2
736.2097	2
736.2136	2
736.2173	2
736.2212	2
736.225	2
736.2289	1
736.2441	2
736.248	1
736.2557	2
737.0369	1
737.4928	1
737.5771	1
737.6001	1
737.6154	1
737.6614	1
738.2862	1
738.4203	2
738.4357	1
738.4395	1
738.4549	7
738.4587	7
738.4625	9
738.4664	16
738.4702	29
738.4741	33
738.4779	51
738.4818	76
738.4855	86
738.4894	145
738.4932	181
738.4971	164
738.5009	190
738.5047	212
738.5085	239
738.5124	207
738.5162	237
738.5201	227
738.5239	224
738.5277	224
738.5316	196
738.5354	128
738.5392	91
738.5431	66
738.5469	31
738.5507	27
738.5546	20
738.5584	13
738.5623	7
738.566	3
738.5699	6
738.5737	2
738.5776	3
738.5814	2
738.5853	2
738.5891	2
738.6505	1
739.0071	1
739.0378	1
739.1452	1
739.1605	1
739.2565	1
739.4329	1
739.4521	1
739.4559	2
739.4636	2
739.4675	2
739.4713	3
739.4752	5
739.479	5
739.4828	8
739.4866	7
739.4905	11
739.4943	8
739.4982	14
739.502	10
739.5059	9
739.5096	10
739.5135	11
739.5173	11
739.5212	12
739.525	9
739.5289	14
739.5327	13
739.5366	15
739.5403	9
739.5442	4
739.548	5
739.5519	5
739.5557	3
739.5596	2
739.5634	1
739.5672	1
739.571	1
739.667	1
739.69	1
740.0431	1
740.3502	1
741.8021	1
742.0404	1
742.6286	1
746.1587	1
