Mass spectrum: PC 38:2; LC-ESI-QTOF; MS2
Name: PC 38:2
Class: PC
Formula: C46H88NO8P
Exact mass: 814.185
SMILES: CCCCCCCCCCCCCCCCCC(=O)OCC(COP([O-])(=O)OCC[N+](C)(C)C)OC(=O)CCCCCCCCC\C=C/C\C=C/CCCCC
InChI: InChI=1S/C46H88NO8P/c1-6-8-10-12-14-16-18-20-22-23-25-27-29-31-33-35-37-39-46(49)55-44(43-54-56(50,51)53-41-40-47(3,4)5)42-52-45(48)38-36-34-32-30-28-26-24-21-19-17-15-13-11-9-7-2/h14,16,20,22,44H,6-13,15,17-19,21,23-43H2,1-5H3/b16-14-,22-20-
Instrument: AB Sciex TripleTOF 5600+ system (Q-TOF) equipped with a DuoSpray ion source
Instrument type: LC-ESI-QTOF
Ms type: MS2
Ion mode: NEGATIVE
Collision energy: 45V
Column name: Acquity UPLC Peptide BEH C18 column (50*2.1 mm; 1.7 um; 130A)(Waters Co.,Milford, MA, USA)
Retention time: 11.30411
Precursor type: [M+CH3COOH-H]-
Precursor m/z: 872.6343
m/z	relative intensity
141.016	4
168.041	6
217.002	7
224.067	12
255.229	6
278.354	4
279.232	306
281.246	11
281.258	5
283.261	126
299.009	6
307.261	342
309.277	7
311.294	147
327.229	2
335.287	5
381.008	6
434.311	2
447.292	2
462.913	2
462.998	3
486.291	4
490.293	3
490.33	4
500.315	2
504.293	4
504.323	4
508.33	18
508.356	9
514.32	5
518.353	7
532.346	5
536.355	13
536.375	16
624.904	2
640.458	2
753.561	4
790.56	8
796.058	4
796.634	5
797.632	10
797.682	5
798.548	78
798.595	999
799.632	3
810.079	2
812.596	2
812.665	11
813.529	8
813.584	4
872.606	35
872.637	41
872.665	31
