Mass spectrum: PE 36:4; LC-ESI-QTOF; MS2
Name: PE 36:4
Class: PE
Formula: C41H74NO8P
Exact mass: 740.0179999999999
SMILES: CCCCC\C=C/C\C=C/CCCCCCCC(=O)OCC(COP(O)(=O)OCCN)OC(=O)CCCCCCC\C=C/C\C=C/CCCCC
InChI: InChI=1S/C41H74NO8P/c1-3-5-7-9-11-13-15-17-19-21-23-25-27-29-31-33-40(43)47-37-39(38-49-51(45,46)48-36-35-42)50-41(44)34-32-30-28-26-24-22-20-18-16-14-12-10-8-6-4-2/h11-14,17-20,39H,3-10,15-16,21-38,42H2,1-2H3,(H,45,46)/b13-11-,14-12-,19-17-,20-18-
Instrument: AB Sciex TripleTOF 5600+ system (Q-TOF) equipped with a DuoSpray ion source
Instrument type: LC-ESI-QTOF
Ms type: MS2
Ion mode: NEGATIVE
Collision energy: 45V
Column name: Acquity UPLC Peptide BEH C18 column (50*2.1 mm; 1.7 um; 130A)(Waters Co.,Milford, MA, USA)
Retention time: 8.872219
Precursor type: [M-H]-
Precursor m/z: 738.5031
m/z	relative intensity
78.959	5
134.986	2
135.561	1
135.979	12
152.994	1
173.995	2
192.003	12
253.213	2
254.217	4
255.222	1
261.221	3
263.236	1
278.356	4
279.232	999
281.242	3
282.386	2
283.262	308
303.219	1
303.241	2
304.222	2
304.245	2
305.234	3
402.243	2
404.338	1
404.36	4
419.234	1
419.249	3
454.235	16
458.254	15
458.271	10
458.301	3
472.243	3
476.249	7
476.276	21
513.918	0
557.352	1
612.563	1
630.578	1
644.598	0
660.573	3
660.616	5
736.161	1
736.213	1
738.043	1
738.333	0
738.502	633
738.959	1
739.515	1
739.675	0
741.831	0
