Mass spectrum: PE(18:0/10-HDoHE); LC-ESI-QTOF; MS2
Name: PE(18:0/10-HDoHE)
Class: Oxidized Phospholipid
Formula: C45H78NO9P
Exact mass: 808.093
SMILES: CCCCCCCCCCCCCCCCCC(=O)OCC(COP(O)(=O)OCCN)OC(=O)CC\C=C/C\C=C/CC(O)\C=C\C=C/C\C=C/C\C=C/CC
InChI: InChI=1S/C45H78NO9P/c1-3-5-7-9-11-13-15-16-17-18-19-21-23-28-32-36-44(48)52-40-43(41-54-56(50,51)53-39-38-46)55-45(49)37-33-29-25-24-27-31-35-42(47)34-30-26-22-20-14-12-10-8-6-4-2/h6,8,12,14,22,25-27,29-31,34,42-43,47H,3-5,7,9-11,13,15-21,23-24,28,32-33,35-41,46H2,1-2H3,(H,50,51)/b8-6-,14-12-,26-22-,29-25-,31-27-,34-30+
Instrument: Acquity UPLC Peptide BEH C18 column (50 x 2.1 mm; 1.7 um), Sciex TripleTOF5600
Instrument type: LC-ESI-QTOF
Ms type: MS2
Ion mode: NEGATIVE
Collision energy: 30-50
Precursor m/z: 806.5341436
Precursor type: [M-H]-
m/z	relative intensity
135.1233	57
140.0133	89
153.0819	89
153.0889	118
153.0907	118
153.0941	118
161.128	57
161.1298	89
181.0858	57
181.0915	118
190.1313	89
196.0365	57
196.0404	57
253.2218	89
255.2308	57
271.2212	57
271.2259	57
281.2151	57
281.2223	293
281.2246	118
281.227	118
281.2294	118
281.2317	118
281.2341	57
281.2388	57
281.2412	89
281.2506	57
281.2601	57
283.2418	57
283.249	57
283.2513	204
283.2537	322
283.2561	350
283.2585	382
283.2608	175
283.2632	439
283.2656	382
283.2679	322
283.2703	293
283.2727	264
283.2751	175
283.2774	146
283.2822	89
284.271	57
299.2458	57
325.2167	89
325.2243	89
343.2067	57
343.2093	175
343.2119	118
343.2145	57
343.2171	89
343.2197	118
343.2224	204
343.225	57
343.2276	175
343.2302	264
343.2328	89
343.2354	204
343.238	57
462.2837	57
471.0405	57
480.269	57
480.2876	57
480.2907	57
480.2969	57
480.3	57
480.3031	57
480.3062	57
480.3093	89
480.3123	89
480.3154	146
480.3185	118
732.4868	57
732.5249	89
805.5848	60
806.4581	57
806.462	118
806.4741	57
806.4781	146
806.4821	296
806.4861	207
806.4901	238
806.4941	327
806.4981	178
806.5021	479
806.5062	362
806.5101	689
806.5142	574
806.5182	996
806.5222	637
806.5262	904
806.5302	999
806.5342	755
806.5382	726
806.5422	666
806.5462	758
806.5502	970
806.5542	517
806.5582	729
806.5623	422
806.5662	301
806.5703	451
806.5743	92
806.5782	149
806.5823	178
806.5863	60
806.5903	121
806.5943	89
806.6023	57
807.5242	57
807.5363	57
807.5403	89
