Mass spectrum: PE(18:1/5-HEPE); LC-ESI-QTOF; MS2
Name: PE(18:1/5-HEPE)
Class: Oxidized Phospholipid
Formula: C43H74NO9P
Exact mass: 780.039
SMILES: CCCCCCCC\C=C/CCCCCCCC(=O)OCC(COP(O)(=O)OCCN)OC(=O)CCCC(O)\C=C\C=C/C\C=C/C\C=C/C\C=C/CC
InChI: InChI=1S/C43H74NO9P/c1-3-5-7-9-11-13-15-17-18-20-22-24-26-28-30-34-42(46)50-38-41(39-52-54(48,49)51-37-36-44)53-43(47)35-31-33-40(45)32-29-27-25-23-21-19-16-14-12-10-8-6-4-2/h6,8,12,14,17-19,21,25,27,29,32,40-41,45H,3-5,7,9-11,13,15-16,20,22-24,26,28,30-31,33-39,44H2,1-2H3,(H,48,49)/b8-6-,14-12-,18-17-,21-19-,27-25-,32-29+
Instrument: Acquity UPLC Peptide BEH C18 column (50 x 2.1 mm; 1.7 um), Sciex TripleTOF5600
Instrument type: LC-ESI-QTOF
Ms type: MS2
Ion mode: NEGATIVE
Collision energy: 30-50
Precursor m/z: 778.5028435
Precursor type: [M-H]-
m/z	relative intensity
115.0399	73
115.0414	44
140.008	29
140.0114	29
196.0343	44
201.1663	29
255.2014	29
255.2037	59
255.2082	44
255.2105	87
255.2127	29
255.215	44
255.2195	59
255.2285	29
255.233	44
256.4404	30
275.0547	30
279.2241	30
279.2311	30
280.3805	30
280.4349	30
281.227	76
281.2293	91
281.2317	151
281.2341	369
281.2365	284
281.2388	427
281.2412	550
281.2435	597
281.2459	936
281.2483	999
281.2506	963
281.253	888
281.2554	474
281.2578	522
281.2601	462
281.2625	246
281.2648	293
281.2672	107
281.2696	60
281.2719	46
281.2743	30
281.2767	31
281.279	16
281.2838	16
281.3974	16
282.2335	16
282.243	44
282.2596	16
299.1897	29
299.1946	29
299.1971	29
299.1995	87
299.2019	59
299.2044	29
299.2068	59
316.1913	29
317.1982	87
317.2007	44
317.2032	59
317.2108	87
317.2133	59
317.2158	29
317.2183	87
317.2208	44
436.2943	29
478.2957	29
478.3019	29
478.305	29
478.3081	29
514.2325	29
514.2452	29
514.2516	73
514.2549	59
627.5313	29
628.5284	29
718.5783	30
760.5211	30
760.5638	30
778.4467	59
778.4506	44
778.4545	59
778.4585	147
778.4624	117
778.4664	89
778.4703	240
778.4742	180
778.4781	362
778.4821	286
778.486	407
778.49	406
778.4939	349
778.4979	619
778.5018	409
778.5057	393
778.5096	713
778.5136	317
778.5175	443
778.5215	410
778.5254	289
778.5294	364
778.5333	303
778.5372	289
778.5411	303
778.5451	91
778.549	226
778.553	182
778.5569	106
778.5609	44
778.5648	60
778.5687	60
778.5726	44
778.5766	44
779.0806	16
779.5139	29
