Mass spectrum: PI 40:6; LC-ESI-QTOF; MS2
Name: PI 40:6
Class: PI
Formula: C49H83O13P
Exact mass: 911.1659999999999
SMILES: CCCCCCCCCCCCCCCCCC(=O)OCC(COP(O)(=O)OC1C(O)C(O)C(O)C(O)C1O)OC(=O)CC\C=C/C\C=C/C\C=C/C\C=C/C\C=C/C\C=C/CC
InChI: InChI=1S/C49H83O13P/c1-3-5-7-9-11-13-15-17-19-20-21-22-24-26-28-30-32-34-36-38-43(51)61-41(40-60-63(57,58)62-49-47(55)45(53)44(52)46(54)48(49)56)39-59-42(50)37-35-33-31-29-27-25-23-18-16-14-12-10-8-6-4-2/h5,7,11,13,17,19,21-22,26,28,32,34,41,44-49,52-56H,3-4,6,8-10,12,14-16,18,20,23-25,27,29-31,33,35-40H2,1-2H3,(H,57,58)/b7-5-,13-11-,19-17-,22-21-,28-26-,34-32-
Instrument: AB Sciex TripleTOF 5600+ system (Q-TOF) equipped with a DuoSpray ion source
Instrument type: LC-ESI-QTOF
Ms type: MS2
Ion mode: NEGATIVE
Collision energy: 45V
Column name: Acquity UPLC Peptide BEH C18 column (50*2.1 mm; 1.7 um; 130A)(Waters Co.,Milford, MA, USA)
Retention time: 8.653857
Precursor type: [M-H]-
Precursor m/z: 909.5445
m/z	relative intensity
78.958	6
93.071	0
96.967	1
117.068	0
121.103	0
133.099	0
134.987	0
135.115	0
149.134	0
152.995	17
161.132	0
163.074	0
163.147	0
171.0	0
175.146	0
177.157	0
177.166	0
189.163	0
191.178	1
203.181	0
223.0	23
229.195	5
238.987	0
239.0	0
240.001	0
241.011	112
249.181	1
249.201	0
255.211	0
259.02	11
271.168	0
282.364	0
283.262	162
284.24	0
284.267	1
285.273	0
297.036	20
309.222	0
315.047	8
326.204	0
327.186	0
327.231	102
327.273	0
328.237	0
341.01	0
385.231	0
419.254	90
420.253	1
420.275	0
421.242	0
437.246	3
437.259	0
437.266	8
438.285	0
439.264	0
461.253	0
463.225	13
464.217	0
479.516	0
481.234	0
489.262	0
501.23	0
505.726	0
507.254	0
507.831	0
509.312	0
516.044	0
516.789	0
518.742	0
525.279	0
525.45	0
563.789	0
579.472	0
580.278	0
581.305	112
582.297	0
597.445	0
598.306	0
599.316	33
599.372	0
616.058	0
625.231	1
625.267	13
625.289	7
625.321	0
643.263	0
643.29	1
643.319	0
747.436	0
747.472	2
747.498	5
747.52	1
747.549	0
748.461	0
748.494	0
749.465	0
749.478	1
749.508	2
789.475	0
789.529	0
817.472	0
817.495	0
817.531	0
831.509	0
835.538	0
835.592	0
859.482	0
859.528	0
877.476	0
877.515	3
877.56	0
891.514	0
906.637	4
906.677	4
906.767	0
908.276	0
908.395	0
908.561	0
908.592	0
908.636	0
909.214	0
909.306	0
909.364	0
909.398	0
909.542	999
910.323	0
910.523	2
910.556	3
910.782	0
911.044	0
911.114	0
911.301	0
