Mass spectrum: PC(14:0/14-HDoHE); LC-ESI-QTOF; MS2
Name: PC(14:0/14-HDoHE)
Class: Oxidized Phospholipid
Formula: C44H76NO9P
Exact mass: 794.066
SMILES: CCCCCCCCCCCCCC(=O)OCC(COP([O-])(=O)OCC[N+](C)(C)C)OC(=O)CC\C=C/C\C=C/C\C=C/C=C/C(O)C\C=C/C\C=C/CC
InChI: InChI=1S/C44H76NO9P/c1-6-8-10-12-14-15-16-20-23-27-31-35-43(47)51-39-42(40-53-55(49,50)52-38-37-45(3,4)5)54-44(48)36-32-28-24-21-18-17-19-22-26-30-34-41(46)33-29-25-13-11-9-7-2/h9,11,17-18,22,24-26,28-30,34,41-42,46H,6-8,10,12-16,19-21,23,27,31-33,35-40H2,1-5H3/b11-9-,18-17-,26-22-,28-24-,29-25-,34-30+
Instrument: Acquity UPLC Peptide BEH C18 column (50 x 2.1 mm; 1.7 um), Sciex TripleTOF5600
Instrument type: LC-ESI-QTOF
Ms type: MS2
Ion mode: NEGATIVE
Collision energy: 30-50
Precursor m/z: 852.5396225
Precursor type: [M+CH3COOH-H]-
m/z	relative intensity
161.1292	25
168.0307	25
168.0362	25
168.0381	37
168.0454	37
179.0989	25
179.1008	25
179.1027	37
179.1046	61
179.1064	25
179.1102	25
179.1121	37
179.114	25
205.1155	25
205.1256	25
205.1276	25
208.111	37
224.0644	25
224.0665	37
224.0708	25
227.182	25
227.1841	37
227.1863	37
227.1884	86
227.1927	190
227.1948	300
227.1969	202
227.199	276
227.2012	276
227.2033	300
227.2054	325
227.2075	264
227.2097	147
227.2118	74
227.2139	61
227.216	37
227.2182	25
227.2203	25
227.2224	37
227.2352	25
228.2018	25
234.1248	25
234.1312	25
253.1989	25
253.2034	49
253.2057	49
253.2079	37
253.2102	135
253.2124	135
253.2146	61
253.2169	202
253.2191	251
253.2214	190
253.2236	190
253.2259	49
253.2281	74
253.2304	74
253.2326	37
255.2011	25
255.2033	25
255.2056	25
255.2078	49
255.2123	25
255.2146	37
255.2168	37
281.2219	25
281.2242	25
281.2314	25
281.2337	25
281.2361	25
299.182	37
299.1942	37
299.1967	25
299.2016	37
299.2065	37
299.2089	25
299.2162	25
300.2544	25
317.1903	49
317.1928	25
317.1953	98
317.1978	61
317.2003	123
317.2029	86
317.2054	190
317.2079	98
317.2104	178
317.2129	61
317.2154	165
317.2179	98
317.2205	123
317.223	74
317.2255	74
317.228	49
317.2305	25
317.233	25
317.238	25
317.2456	25
325.2113	25
343.2039	37
343.2143	25
343.2169	37
343.2195	49
343.2222	110
343.2248	98
343.2274	49
343.23	25
343.2326	61
343.2379	86
343.2404	49
343.2431	37
343.2457	25
452.2669	25
452.2819	25
452.2909	25
452.2969	25
460.2657	25
460.302	25
478.2678	25
478.2832	25
478.2863	49
478.2894	37
478.2924	37
478.2955	25
478.2986	49
478.3017	25
478.3048	49
478.3079	25
478.3202	25
479.2125	25
480.2972	25
480.3096	25
568.3102	25
707.4001	25
707.4076	37
707.4114	37
707.4151	25
707.4226	25
707.4264	37
707.4301	25
707.4376	37
707.4451	37
707.4526	25
707.4564	25
707.4714	25
733.4355	25
765.5021	25
776.0472	25
778.4271	37
778.4349	25
778.4388	25
778.4428	98
778.4468	74
778.4507	123
778.4546	123
778.4586	215
778.4625	300
778.4664	227
778.4704	202
778.4743	386
778.4782	460
778.4822	625
778.4861	662
778.4901	699
778.494	760
778.4979	852
778.5018	840
778.5058	852
778.5098	840
778.5137	999
778.5176	674
778.5215	674
778.5255	735
778.5294	760
778.5334	564
778.5373	398
778.5413	264
778.5452	135
778.5491	251
778.553	227
778.557	165
778.5609	61
778.5649	86
778.5688	74
778.5806	49
779.4785	25
779.4864	37
779.4903	25
779.51	37
779.5179	37
779.5219	49
779.5376	25
790.7142	25
792.5165	37
792.5403	25
792.5642	25
852.4681	25
852.4763	37
852.4805	25
852.4969	49
852.501	98
852.5052	37
852.5093	74
852.5134	49
852.5175	49
852.5217	86
852.5258	86
852.5299	74
852.534	37
852.5381	110
852.5422	61
852.5464	98
852.5505	98
852.5546	49
852.5587	49
852.5629	49
852.567	49
852.5711	98
852.5752	49
852.5793	49
853.0903	25
