Mass spectrum: PE 32:0; LC-ESI-QTOF; MS2
Name: PE 32:0
Class: PE
Formula: C37H74NO8P
Exact mass: 691.9739999999999
SMILES: CCCCCCCCCCCCCCCC(=O)OCC(COP(O)(=O)OCCN)OC(=O)CCCCCCCCCCCCCCC
InChI: InChI=1S/C37H74NO8P/c1-3-5-7-9-11-13-15-17-19-21-23-25-27-29-36(39)43-33-35(34-45-47(41,42)44-32-31-38)46-37(40)30-28-26-24-22-20-18-16-14-12-10-8-6-4-2/h35H,3-34,38H2,1-2H3,(H,41,42)
Instrument: AB Sciex TripleTOF 5600+ system (Q-TOF) equipped with a DuoSpray ion source
Instrument type: LC-ESI-QTOF
Ms type: MS2
Ion mode: NEGATIVE
Collision energy: 45V
Column name: Acquity UPLC Peptide BEH C18 column (50*2.1 mm; 1.7 um; 130A)(Waters Co.,Milford, MA, USA)
Retention time: 9.916547
Precursor type: [M-H]-
Precursor m/z: 690.5115
m/z	relative intensity
140.009	8
196.037	14
207.354	2
214.049	2
227.202	19
254.448	4
255.234	999
256.234	3
283.259	8
390.449	2
434.261	8
452.272	35
452.303	5
690.453	9
690.48	57
690.508	125
690.527	98
