Mass spectrum: PC(18:0/17-HDoHE); LC-ESI-QTOF; MS2
Name: PC(18:0/17-HDoHE)
Class: Oxidized Phospholipid
Formula: C48H84NO9P
Exact mass: 850.174
SMILES: CCCCCCCCCCCCCCCCCC(=O)OCC(COP([O-])(=O)OCC[N+](C)(C)C)OC(=O)CC\C=C/C\C=C/C\C=C/C\C=C/C=C\C(O)C\C=C/CC
InChI: InChI=1S/C48H84NO9P/c1-6-8-10-11-12-13-14-15-16-19-22-25-28-31-35-39-47(51)55-43-46(44-57-59(53,54)56-42-41-49(3,4)5)58-48(52)40-36-32-29-26-23-20-17-18-21-24-27-30-34-38-45(50)37-33-9-7-2/h9,18,20-21,23,27,29-30,32-34,38,45-46,50H,6-8,10-17,19,22,24-26,28,31,35-37,39-44H2,1-5H3/b21-18-,23-20-,30-27-,32-29-,33-9-,38-34-
Instrument: Acquity UPLC Peptide BEH C18 column (50 x 2.1 mm; 1.7 um), Sciex TripleTOF5600
Instrument type: LC-ESI-QTOF
Ms type: MS2
Ion mode: NEGATIVE
Collision energy: 30-50
Precursor m/z: 908.6022228
Precursor type: [M+CH3COOH-H]-
m/z	relative intensity
241.0054	109
245.1543	109
281.2241	109
281.2312	109
281.243	109
283.2508	109
283.2555	168
283.2579	109
283.2603	277
283.265	168
283.2674	223
325.2008	168
343.2166	109
343.2191	109
343.2218	168
343.2244	168
343.227	109
343.2296	109
343.2322	223
343.2375	168
508.3448	109
763.4907	109
834.4967	109
834.5049	109
834.509	109
834.513	109
834.5212	331
834.5253	223
834.5294	277
834.5334	500
834.5375	608
834.5416	500
834.5457	331
834.5497	554
834.5538	662
834.5579	385
834.562	445
834.566	722
834.5701	722
834.5742	776
834.5782	999
834.5823	331
834.5864	331
834.5905	554
834.5945	168
834.5986	662
834.6027	385
834.6068	277
834.6108	223
834.6149	168
834.619	168
834.6353	223
834.6435	168
835.569	109
908.4553	109
908.4808	109
908.4936	109
908.5063	168
908.5106	277
908.5149	109
908.5191	331
908.5276	445
908.5319	223
908.5361	277
908.5404	109
908.5446	445
908.5489	223
908.5532	331
908.5574	223
908.5616	223
908.5659	168
908.5744	331
908.5787	277
908.5829	109
908.5872	109
908.5914	109
908.5957	223
908.6127	223
908.6254	168
908.6382	109
908.6425	109
908.6467	109
