Mass spectrum: PE(18:1/11,12-EpETE); LC-ESI-QTOF; MS2
Name: PE(18:1/11,12-EpETE)
Class: Oxidized Phospholipid
Formula: C43H74NO9P
Exact mass: 780.039
SMILES: CCCCCCCC\C=C/CCCCCCCC(=O)OCC(COP(O)(=O)OCCN)OC(=O)CCC\C=C/C\C=C/CC1OC1C\C=C/C\C=C/CC
InChI: InChI=1S/C43H74NO9P/c1-3-5-7-9-11-12-13-14-15-16-17-18-21-25-29-33-42(45)49-37-39(38-51-54(47,48)50-36-35-44)52-43(46)34-30-26-22-19-20-24-28-32-41-40(53-41)31-27-23-10-8-6-4-2/h6,8,14-15,19,22-24,27-28,39-41H,3-5,7,9-13,16-18,20-21,25-26,29-38,44H2,1-2H3,(H,47,48)/b8-6-,15-14-,22-19-,27-23-,28-24-
Instrument: Acquity UPLC Peptide BEH C18 column (50 x 2.1 mm; 1.7 um), Sciex TripleTOF5600
Instrument type: LC-ESI-QTOF
Ms type: MS2
Ion mode: NEGATIVE
Collision energy: 30-50
Precursor m/z: 778.5028435
Precursor type: [M-H]-
m/z	relative intensity
78.96187	3
78.96312	5
78.96814	3
96.95621	3
96.9576	6
96.95899	11
96.96038	12
96.96177	8
96.96316	11
96.96455	11
96.96594	6
113.027	3
135.1197	6
135.1213	3
140.0047	3
140.0063	3
140.008	5
140.0097	8
140.0164	11
140.018	3
149.0859	3
149.091	3
149.0962	6
149.0979	5
149.0997	3
149.1324	3
163.1057	3
163.1129	5
163.1147	6
163.1183	3
167.096	5
167.0978	12
167.0996	12
167.1015	16
167.1033	29
167.1051	33
167.1069	29
167.1088	25
167.1106	22
167.1124	12
167.1142	17
167.116	8
167.1179	12
167.1197	8
167.1234	3
167.127	3
179.0974	8
179.0993	3
179.1012	11
179.103	9
179.1049	11
179.1068	6
179.1087	11
179.1125	5
179.1144	6
179.1219	3
189.0936	3
195.0931	3
195.097	6
195.099	3
195.101	9
195.1029	3
195.1049	9
195.1069	6
195.1088	6
195.1108	3
195.1128	3
196.0303	5
196.0323	5
196.0343	3
196.0362	14
196.0382	6
196.0402	8
196.0422	6
196.0441	3
196.0461	3
196.052	5
201.1602	3
201.1662	5
201.1682	3
201.1743	3
207.0989	5
207.101	6
207.103	3
207.105	6
208.1032	5
208.1053	3
208.1073	5
208.1093	9
208.1114	3
208.1134	6
208.1154	8
208.1175	5
208.1215	3
240.9926	3
240.9992	5
255.1969	6
255.1991	3
255.2036	8
255.2059	22
255.2081	17
255.2104	8
255.2126	23
255.2149	9
255.2172	12
255.2194	11
255.2239	9
255.2262	9
255.2284	3
255.2329	3
255.2375	3
257.001	3
273.2138	3
273.2161	3
273.2185	5
273.2231	5
273.2255	5
273.2325	3
273.2348	3
273.2371	3
280.3639	3
280.3828	6
280.4017	3
280.4419	3
281.1678	3
281.1938	3
281.2151	3
281.2174	3
281.2198	3
281.2222	3
281.2245	13
281.2269	16
281.2292	11
281.2316	25
281.234	35
281.2364	69
281.2387	56
281.2411	95
281.2434	108
281.2458	125
281.2482	120
281.2505	141
281.2529	131
281.2553	98
281.2577	70
281.26	45
281.2624	40
281.2647	37
281.2671	18
281.2695	15
281.2719	5
281.2742	8
281.2766	2
281.279	7
282.2073	2
282.2761	2
282.5962	2
282.8643	2
299.1872	3
299.1896	9
299.192	6
299.1945	9
299.197	14
299.1994	20
299.2018	12
299.2043	9
299.2067	9
299.2091	11
299.2116	5
299.2165	3
299.2238	5
299.2262	3
314.2247	3
315.9278	3
316.2288	5
317.1101	3
317.1328	3
317.1805	5
317.188	6
317.1905	14
317.1931	9
317.1956	13
317.1981	38
317.2006	37
317.2031	46
317.2056	50
317.2081	56
317.2106	71
317.2131	72
317.2157	66
317.2182	60
317.2207	39
317.2232	48
317.2257	24
317.2282	19
317.2307	8
317.2332	11
317.2383	6
317.2408	2
317.2433	5
317.2458	3
317.2609	2
317.5022	2
436.3088	3
445.8594	3
460.2657	3
460.2718	3
460.2778	5
460.2809	5
460.2839	3
460.2869	5
460.299	5
478.2647	5
478.2678	3
478.2708	12
478.2739	8
478.277	9
478.2801	11
478.2832	14
478.2863	22
478.2894	19
478.2924	20
478.2955	26
478.2986	16
478.3017	26
478.3048	17
478.3079	16
478.311	12
478.314	3
478.3171	5
478.3202	9
478.3233	3
478.3295	6
496.241	3
496.2567	3
514.2546	3
514.2578	3
514.2738	6
691.4662	3
704.543	6
704.5729	3
718.5401	3
760.5245	3
776.0349	3
776.0466	3
776.0506	3
776.0545	9
776.0585	3
776.0663	3
776.0703	3
776.0742	3
776.0859	6
776.0899	3
776.0938	6
776.0978	3
776.1252	3
776.1331	3
776.597	3
778.4265	3
778.458	12
778.4619	31
778.4659	58
778.4698	123
778.4738	115
778.4777	218
778.4816	237
778.4855	383
778.4895	466
778.4934	594
778.4974	653
778.5013	790
778.5052	890
778.5092	891
778.5131	880
778.517	999
778.521	941
778.5249	920
778.5289	923
778.5328	895
778.5367	750
778.5406	525
778.5446	403
778.5485	392
778.5525	278
778.5564	175
778.5604	117
778.5643	112
778.5682	61
778.5721	33
778.5761	22
778.58	24
778.584	22
778.5879	11
778.5919	4
778.5958	8
778.5997	19
778.6351	4
778.6548	3
778.9462	3
779.4622	5
779.478	5
779.4819	9
779.4858	5
779.4897	8
779.4937	5
779.4976	8
779.5016	3
779.5055	9
779.5095	16
779.5134	19
779.5173	9
779.5212	16
779.5252	11
779.5292	17
779.5331	9
779.537	9
779.541	5
779.5449	11
779.5488	9
779.5528	5
779.5567	6
779.5607	6
779.5764	3
779.5804	3
779.5922	3
780.0453	3
784.7774	3
