Mass spectrum: PC 38:4; LC-ESI-QTOF; MS2
Name: PC 38:4
Class: PC
Formula: C46H84NO8P
Exact mass: 810.1529999999999
SMILES: CCCCCCCCCCCCCCCCCC(=O)OCC(COP([O-])(=O)OCC[N+](C)(C)C)OC(=O)CCCCCC\C=C/C\C=C/C\C=C/C\C=C/CC
InChI: InChI=1S/C46H84NO8P/c1-6-8-10-12-14-16-18-20-22-23-25-27-29-31-33-35-37-39-46(49)55-44(43-54-56(50,51)53-41-40-47(3,4)5)42-52-45(48)38-36-34-32-30-28-26-24-21-19-17-15-13-11-9-7-2/h8,10,14,16,20,22,25,27,44H,6-7,9,11-13,15,17-19,21,23-24,26,28-43H2,1-5H3/b10-8-,16-14-,22-20-,27-25-
Instrument: AB Sciex TripleTOF 5600+ system (Q-TOF) equipped with a DuoSpray ion source
Instrument type: LC-ESI-QTOF
Ms type: MS2
Ion mode: NEGATIVE
Collision energy: 45V
Column name: Acquity UPLC Peptide BEH C18 column (50*2.1 mm; 1.7 um; 130A)(Waters Co.,Milford, MA, USA)
Retention time: 10.16551
Precursor type: [M+CH3COOH-H]-
Precursor m/z: 868.6048
m/z	relative intensity
78.959	1
152.995	1
163.077	1
168.042	13
177.091	1
205.194	8
217.194	1
224.068	17
231.209	1
242.078	2
259.241	58
282.379	2
282.404	0
283.263	380
285.218	4
301.214	1
302.299	1
303.054	1
303.231	978
304.116	0
304.241	1
419.244	2
437.261	0
480.349	0
483.606	0
484.847	0
490.324	14
490.368	0
506.71	0
507.822	0
508.335	109
508.367	6
509.305	0
510.291	8
515.236	0
523.294	1
528.294	3
528.309	5
603.552	2
723.501	1
749.512	2
792.028	1
792.065	3
794.486	0
794.563	999
795.118	0
795.562	2
795.593	1
809.526	13
809.563	2
868.601	105
