Mass spectrum: Cer[AP] t41:0; LC-ESI-QTOF; MS2
Name: Cer[AP] t41:0
Class: Cer_AP
Formula: C41H83NO5
Exact mass: 670.117
SMILES: CCCCCCCCCCCCCCCCCCCCCC(O)C(=O)NC(CO)C(O)C(O)CCCCCCCCCCCCCC
InChI: InChI=1S/C41H83NO5/c1-3-5-7-9-11-13-15-17-18-19-20-21-22-23-25-27-29-31-33-35-39(45)41(47)42-37(36-43)40(46)38(44)34-32-30-28-26-24-16-14-12-10-8-6-4-2/h37-40,43-46H,3-36H2,1-2H3,(H,42,47)
Instrument: AB Sciex TripleTOF 5600+ system (Q-TOF) equipped with a DuoSpray ion source
Instrument type: LC-ESI-QTOF
Ms type: MS2
Ion mode: NEGATIVE
Collision energy: 45V
Column name: Acquity UPLC Peptide BEH C18 column (50*2.1 mm; 1.7 um; 130A)(Waters Co.,Milford, MA, USA)
Retention time: 12.93959
Precursor type: [M+CH3COOH-H]-
Precursor m/z: 728.6371
m/z	relative intensity
88.042	2
100.041	1
141.011	2
225.222	4
241.216	1
253.211	4
253.228	3
255.231	25
266.249	1
267.23	29
268.258	1
279.228	5
280.263	6
281.247	6
284.258	8
308.257	4
309.31	2
316.28	5
321.312	2
323.33	80
337.346	8
351.32	9
351.337	5
355.308	3
364.355	7
368.339	6
368.354	21
369.332	117
376.354	6
382.36	2
383.353	6
394.363	15
410.359	9
412.377	66
424.377	54
426.394	2
438.387	4
578.348	2
602.584	3
620.605	3
632.593	6
636.568	2
636.606	3
639.596	2
640.617	2
650.591	6
650.614	10
666.5	2
666.582	3
668.397	1
668.615	999
668.706	1
682.632	12
728.521	0
728.57	1
