Mass spectrum: PE(18:1/8-HETE); LC-ESI-QTOF; MS2
Name: PE(18:1/8-HETE)
Class: Oxidized Phospholipid
Formula: C43H76NO9P
Exact mass: 782.055
SMILES: CCCCCCCC\C=C/CCCCCCCC(=O)OCC(COP(O)(=O)OCCN)OC(=O)CCC\C=C/CC(O)\C=C/C=C\C\C=C/CCCCC
InChI: InChI=1S/C43H76NO9P/c1-3-5-7-9-11-13-15-16-17-18-19-21-23-25-30-34-42(46)50-38-41(39-52-54(48,49)51-37-36-44)53-43(47)35-31-27-26-29-33-40(45)32-28-24-22-20-14-12-10-8-6-4-2/h12,14,16-17,22,24,26,28-29,32,40-41,45H,3-11,13,15,18-21,23,25,27,30-31,33-39,44H2,1-2H3,(H,48,49)/b14-12-,17-16-,24-22-,29-26-,32-28-
Instrument: Acquity UPLC Peptide BEH C18 column (50 x 2.1 mm; 1.7 um), Sciex TripleTOF5600
Instrument type: LC-ESI-QTOF
Ms type: MS2
Ion mode: NEGATIVE
Collision energy: 30-50
Precursor m/z: 780.5184935
Precursor type: [M-H]-
m/z	relative intensity
78.95925	34
127.0769	69
127.08	34
140.0047	34
140.0063	34
140.008	52
140.0147	34
140.018	34
152.9891	34
155.0624	34
155.0659	102
155.0677	102
155.0695	69
155.0712	119
155.073	154
155.0747	102
155.0765	69
155.0782	102
155.0818	34
163.1436	34
163.1454	52
163.1472	52
163.149	52
163.1508	34
163.1526	52
196.0284	34
196.0304	52
196.0344	52
196.0363	52
196.0423	34
203.1746	34
203.1806	52
203.1826	34
203.1846	34
203.1967	34
255.2377	34
257.2184	34
257.2207	86
257.223	86
257.2252	171
257.2275	154
257.2297	138
257.232	138
257.2343	69
257.2365	119
257.2388	34
257.2411	34
257.2433	34
265.1766	35
279.2242	34
280.3571	35
280.3736	35
280.3902	35
280.3996	35
281.2224	52
281.2296	191
281.2319	87
281.2343	173
281.2366	193
281.239	299
281.2414	228
281.2437	756
281.2461	494
281.2485	787
281.2509	670
281.2532	368
281.2556	457
281.2579	280
281.2603	280
281.2627	176
281.265	158
281.2674	52
281.2698	52
281.2721	71
282.2503	18
282.8147	18
301.197	52
301.1995	52
301.2043	52
301.2068	102
301.2093	171
301.2117	138
301.2142	154
301.2166	205
301.2191	138
301.2215	223
301.2239	188
301.2264	138
301.2289	69
301.2313	138
301.2338	69
301.2362	102
301.2386	34
301.2411	34
317.206	34
317.216	34
319.1943	69
319.1994	52
319.2044	35
319.2069	34
319.2095	121
319.212	207
319.2145	190
319.217	259
319.2195	346
319.2221	292
319.2246	274
319.2271	359
319.2296	290
319.2321	326
319.2347	240
319.2372	223
319.2397	240
319.2422	138
319.2448	69
319.2473	86
319.2498	34
319.2523	52
478.2686	52
478.2716	34
478.2778	34
478.2809	52
478.284	52
478.287	102
478.2901	138
478.2932	52
478.2963	119
478.2994	69
478.3025	69
478.3056	34
478.3087	34
478.3117	34
478.3148	52
498.2902	34
544.2784	34
587.3549	34
693.4131	34
693.4726	34
706.4932	34
706.5045	34
780.441	34
780.4489	34
780.4529	34
780.4568	87
780.4608	102
780.4647	35
780.4686	104
780.4726	245
780.4765	331
780.4805	144
780.4844	200
780.4883	203
780.4923	348
780.4962	433
780.5002	482
780.5042	567
780.5081	667
780.512	851
780.5159	903
780.5199	905
780.5239	850
780.5278	947
780.5317	853
780.5356	999
780.5396	928
780.5436	571
780.5475	663
780.5515	512
780.5554	426
780.5593	368
780.5632	312
780.5672	223
780.5712	238
780.5751	149
780.579	165
780.5829	55
780.5869	109
780.5908	54
780.5948	18
780.6027	34
780.6066	42
780.6105	34
781.4741	34
781.5057	35
781.5135	34
781.5215	69
781.5294	34
781.5333	34
782.575	34
