Mass spectrum: SM d38:0; LC-ESI-QTOF; MS2
Name: SM d38:0
Class: SM
Formula: C43H89N2O6P
Exact mass: 761.169
SMILES: CCCCCCCCCCCCCCCCCCCC(=O)NC(COP([O-])(=O)OCC[N+](C)(C)C)C(O)CCCCCCCCCCCCCCC
InChI: InChI=1S/C43H89N2O6P/c1-6-8-10-12-14-16-18-20-21-22-23-25-27-29-31-33-35-37-43(47)44-41(40-51-52(48,49)50-39-38-45(3,4)5)42(46)36-34-32-30-28-26-24-19-17-15-13-11-9-7-2/h41-42,46H,6-40H2,1-5H3,(H-,44,47,48,49)
Instrument: AB Sciex TripleTOF 5600+ system (Q-TOF) equipped with a DuoSpray ion source
Instrument type: LC-ESI-QTOF
Ms type: MS2
Ion mode: NEGATIVE
Collision energy: 45V
Column name: Acquity UPLC Peptide BEH C18 column (50*2.1 mm; 1.7 um; 130A)(Waters Co.,Milford, MA, USA)
Retention time: 11.30204
Precursor type: [M+CH3COOH-H]-
Precursor m/z: 819.6533
m/z	relative intensity
122.984	2
168.03	8
168.037	23
168.043	19
168.048	17
255.228	4
281.243	4
327.229	9
426.534	3
627.493	24
627.512	9
627.53	25
674.541	5
744.591	7
745.544	9
745.586	137
745.596	245
745.624	999
759.573	11
759.597	7
759.634	21
760.577	14
773.602	7
775.609	5
819.586	11
819.605	9
819.651	17
819.679	11
819.698	7
