Mass spectrum: PI(18:0/9-HODE); LC-ESI-QTOF; MS2
Name: PI(18:0/9-HODE)
Class: Oxidized Phospholipid
Formula: C45H83O14P
Exact mass: 879.121
SMILES: CCCCCCCCCCCCCCCCCC(=O)OCC(COP(O)(=O)OC1C(O)C(O)C(O)C(O)C1O)OC(=O)CCCCCCCC(O)\C=C\C=C/CCCCC
InChI: InChI=1S/C45H83O14P/c1-3-5-7-9-11-12-13-14-15-16-17-18-20-24-28-32-38(47)56-34-37(35-57-60(54,55)59-45-43(52)41(50)40(49)42(51)44(45)53)58-39(48)33-29-25-21-23-27-31-36(46)30-26-22-19-10-8-6-4-2/h19,22,26,30,36-37,40-46,49-53H,3-18,20-21,23-25,27-29,31-35H2,1-2H3,(H,54,55)/b22-19-,30-26+
Instrument: Acquity UPLC Peptide BEH C18 column (50 x 2.1 mm; 1.7 um), Sciex TripleTOF5600
Instrument type: LC-ESI-QTOF
Ms type: MS2
Ion mode: NEGATIVE
Collision energy: 30-50
Precursor m/z: 877.5447679
Precursor type: [M-H]-
m/z	relative intensity
78.95506	4
78.95631	3
78.95756	7
78.95882	3
78.96007	6
78.96132	3
78.96258	3
78.96383	4
78.96509	3
78.96634	4
96.97127	6
123.1194	3
152.9866	3
152.9883	4
152.9901	6
152.9918	8
152.9936	11
152.9953	8
152.9971	16
152.9988	6
153.0005	6
153.0023	8
153.004	4
153.0093	3
171.0916	3
171.0934	3
171.0953	7
171.0971	10
171.099	11
171.1008	10
171.1026	13
171.1045	8
171.1063	6
171.1082	10
171.11	6
171.1119	3
171.1156	3
222.9853	3
222.9874	3
222.9895	4
222.9916	8
222.9937	6
222.9958	6
222.9979	11
223	14
223.0021	21
223.0042	13
223.0063	11
223.0085	3
223.0106	8
223.0211	4
236.2964	3
240.1051	3
240.2625	3
240.2647	3
240.9848	3
240.987	3
240.9914	4
240.9936	3
240.9958	7
240.998	10
241.0002	20
241.0024	26
241.0045	51
241.0067	63
241.0089	88
241.0111	68
241.0133	48
241.0155	63
241.0177	42
241.0199	34
241.0221	19
241.0243	15
241.0265	10
241.0286	9
241.0308	4
241.033	2
241.0374	2
241.7016	2
241.8618	2
241.8662	2
242.6524	2
255.241	3
259.0194	6
259.0217	7
259.024	6
259.0262	8
259.0285	6
259.0308	3
277.2018	4
277.2041	6
277.2065	10
277.2088	17
277.2112	28
277.2135	14
277.2159	14
277.2182	33
277.2206	14
277.2229	13
277.2253	8
277.2276	11
277.2299	3
277.2346	7
277.2393	7
282.3657	3
282.3846	3
282.4107	3
282.4155	3
283.2412	3
283.2436	6
283.246	4
283.2484	14
283.2508	33
283.2531	29
283.2555	64
283.2579	53
283.2603	73
283.2626	97
283.265	88
283.2674	70
283.2697	71
283.2721	37
283.2745	46
283.2769	19
283.2792	18
283.2816	18
283.284	7
283.2864	13
283.2888	4
283.2935	2
283.2959	2
284.2609	4
286.695	2
287.4911	3
292.5323	3
293.2205	2
294.425	3
294.8803	3
294.9603	3
295.2002	6
295.2075	4
295.2099	7
295.2124	25
295.2148	22
295.2172	46
295.2196	56
295.222	57
295.2245	77
295.2269	98
295.2293	76
295.2318	65
295.2342	56
295.2366	40
295.239	16
295.2415	35
295.2439	13
295.2463	4
295.2487	7
295.2512	12
295.256	2
295.2875	2
295.2924	2
295.5422	2
296.2339	3
297.0115	3
297.0261	4
297.0286	3
297.031	4
297.0334	11
297.0359	7
297.0383	14
297.0407	10
297.0432	7
297.0456	10
297.048	4
297.0529	3
297.0553	4
315.0283	3
315.0383	6
315.0433	6
315.0458	7
315.0483	4
315.0508	3
315.0533	3
315.0558	3
315.0583	4
417.947	3
417.9787	3
419.2287	6
419.2316	7
419.2345	11
419.2374	13
419.2403	13
419.2432	13
419.246	19
419.2489	34
419.2518	33
419.2547	48
419.2576	30
419.2605	20
419.2634	26
419.2663	20
419.2692	20
419.2721	17
419.2749	16
419.2778	3
419.2807	8
419.2836	4
419.2952	3
431.1984	4
431.2013	6
431.2043	6
431.2072	8
431.2101	6
431.213	6
431.216	11
431.2189	8
431.2218	17
431.2248	11
431.2277	20
431.2306	14
431.2336	13
431.2365	7
431.2394	3
431.2423	4
437.2494	3
437.2552	3
437.2582	4
437.2611	3
437.2641	3
437.27	3
437.2788	4
437.2818	4
437.2848	3
482.1891	3
521.3034	3
571.2091	3
579.4976	3
581.2686	4
581.272	10
581.2755	6
581.2789	4
581.2822	7
581.2856	10
581.2891	22
581.2924	19
581.2958	20
581.2993	33
581.3027	29
581.306	32
581.3094	33
581.3129	40
581.3163	40
581.3196	29
581.3231	26
581.3265	16
581.3299	26
581.3333	17
581.3367	10
581.3401	3
581.3434	4
581.3469	8
581.3503	6
581.3537	3
581.3571	4
581.3639	3
590.8842	3
593.2463	6
593.2532	3
593.2567	7
593.2635	10
593.267	11
593.2704	8
593.2739	18
593.2773	14
593.2807	6
593.2842	14
593.2876	6
593.291	10
593.2944	6
593.2979	4
593.3013	4
593.3047	3
593.3082	3
593.3116	4
593.3151	3
593.3323	3
599.2931	4
599.2966	4
599.3	3
599.3035	3
599.3069	7
599.3104	4
599.3138	8
599.3173	10
599.3207	7
599.3242	14
599.3276	4
599.3311	14
599.3345	3
599.338	4
599.3414	4
599.3449	3
599.3484	3
599.3622	4
600.316	3
611.2762	3
715.4631	4
715.4706	4
715.4744	3
715.482	3
715.4896	3
715.5084	6
715.5122	3
715.5159	4
874.739	3
874.7431	3
874.7473	3
874.7515	3
874.7556	4
874.7598	3
874.7806	3
874.7849	8
874.789	6
874.7932	7
874.7974	4
874.8057	4
874.8182	4
874.8224	6
874.8349	3
877.2906	3
877.3992	3
877.4243	3
877.4369	3
877.4619	3
877.487	20
877.4912	24
877.4954	55
877.4996	77
877.5037	107
877.5079	156
877.5121	173
877.5163	276
877.5204	385
877.5247	477
877.5288	540
877.533	628
877.5372	688
877.5413	699
877.5455	776
877.5497	863
877.5539	999
877.558	854
877.5623	800
877.5664	692
877.5706	650
877.5748	527
877.579	462
877.5831	308
877.5873	218
877.5915	169
877.5957	132
877.5999	75
877.6041	54
877.6082	40
877.6124	26
877.6166	21
877.6208	19
877.6249	16
877.6292	14
877.6333	4
877.6375	11
877.6417	6
877.6459	5
877.7211	2
877.8047	3
878.5114	7
878.5155	6
878.5281	8
878.5322	7
878.5364	13
878.5406	8
878.5448	8
878.549	16
878.5532	11
878.5574	13
878.5615	7
878.5657	8
878.5699	6
878.5741	10
878.5782	6
878.5825	7
878.5866	3
878.5908	4
878.595	4
878.6033	6
879.5613	3
