Mass spectrum: Cer[NS] d38:1; LC-ESI-QTOF; MS2
Name: Cer[NS] d38:1
Class: Cer_NS
Formula: C38H75NO3
Exact mass: 594.0219999999998
SMILES: CCCCCCCCCCCCCCCCCCCC(=O)NC(CO)C(O)\C=C\CCCCCCCCCCCCC
InChI: InChI=1S/C38H75NO3/c1-3-5-7-9-11-13-15-17-18-19-20-22-24-26-28-30-32-34-38(42)39-36(35-40)37(41)33-31-29-27-25-23-21-16-14-12-10-8-6-4-2/h31,33,36-37,40-41H,3-30,32,34-35H2,1-2H3,(H,39,42)/b33-31+
Instrument: AB Sciex TripleTOF 5600+ system (Q-TOF) equipped with a DuoSpray ion source
Instrument type: LC-ESI-QTOF
Ms type: MS2
Ion mode: NEGATIVE
Collision energy: 45V
Column name: Acquity UPLC Peptide BEH C18 column (50*2.1 mm; 1.7 um; 130A)(Waters Co.,Milford, MA, USA)
Retention time: 12.21341
Precursor type: [M+CH3COOH-H]-
Precursor m/z: 652.59
m/z	relative intensity
209.194	1
225.222	1
235.206	2
237.222	97
239.242	2
250.246	4
263.236	55
266.246	15
268.265	14
281.241	2
293.283	110
298.279	5
309.317	10
310.284	3
310.306	63
310.32	28
311.293	56
334.31	2
335.277	2
336.327	401
350.318	7
352.321	55
352.354	2
354.336	4
364.348	4
366.335	2
544.497	3
544.541	50
544.571	9
560.501	5
560.536	49
560.567	9
562.554	112
562.597	5
574.55	9
590.681	2
590.727	5
592.5	4
592.565	999
592.636	3
593.576	3
