Mass spectrum: SM d30:1; LC-ESI-QTOF; MS2
Name: SM d30:1
Class: SM
Formula: C35H71N2O6P
Exact mass: 646.937
SMILES: CCCCCCCCCCCCC\C=C\C(O)C(COP([O-])(=O)OCC[N+](C)(C)C)NC(=O)CCCCCCCCCCC
InChI: InChI=1S/C35H71N2O6P/c1-6-8-10-12-14-16-17-18-19-21-22-24-26-28-34(38)33(32-43-44(40,41)42-31-30-37(3,4)5)36-35(39)29-27-25-23-20-15-13-11-9-7-2/h26,28,33-34,38H,6-25,27,29-32H2,1-5H3,(H-,36,39,40,41)/b28-26+
Instrument: AB Sciex TripleTOF 5600+ system (Q-TOF) equipped with a DuoSpray ion source
Instrument type: LC-ESI-QTOF
Ms type: MS2
Ion mode: NEGATIVE
Collision energy: 45V
Column name: Acquity UPLC Peptide BEH C18 column (50*2.1 mm; 1.7 um; 130A)(Waters Co.,Milford, MA, USA)
Retention time: 8.006198
Precursor type: [M+CH3COOH-H]-
Precursor m/z: 705.5192
m/z	relative intensity
78.958	37
96.967	0
122.982	2
167.524	0
168.041	112
171.027	0
199.165	0
205.161	0
255.229	0
279.232	0
283.267	0
329.18	0
348.192	0
391.214	0
393.252	0
449.316	5
539.409	0
539.457	0
542.374	0
542.413	0
557.451	0
560.409	4
560.441	0
586.419	1
613.495	0
627.458	0
627.502	1
627.525	2
627.553	0
629.471	1
629.492	1
629.56	0
631.415	3
631.481	999
632.457	0
632.485	1
645.511	3
645.53	5
645.558	0
645.571	0
646.4	0
646.445	3
646.473	0
687.454	0
687.497	0
687.562	0
705.437	0
705.509	10
705.538	1
705.624	0
