Mass spectrum: PE(18:0/8-HETE); LC-ESI-QTOF; MS2
Name: PE(18:0/8-HETE)
Class: Oxidized Phospholipid
Formula: C43H78NO9P
Exact mass: 784.071
SMILES: CCCCCCCCCCCCCCCCCC(=O)OCC(COP(O)(=O)OCCN)OC(=O)CCC\C=C/CC(O)\C=C/C=C\C\C=C/CCCCC
InChI: InChI=1S/C43H78NO9P/c1-3-5-7-9-11-13-15-16-17-18-19-21-23-25-30-34-42(46)50-38-41(39-52-54(48,49)51-37-36-44)53-43(47)35-31-27-26-29-33-40(45)32-28-24-22-20-14-12-10-8-6-4-2/h12,14,22,24,26,28-29,32,40-41,45H,3-11,13,15-21,23,25,27,30-31,33-39,44H2,1-2H3,(H,48,49)/b14-12-,24-22-,29-26-,32-28-
Instrument: Acquity UPLC Peptide BEH C18 column (50 x 2.1 mm; 1.7 um), Sciex TripleTOF5600
Instrument type: LC-ESI-QTOF
Ms type: MS2
Ion mode: NEGATIVE
Collision energy: 30-50
Precursor m/z: 782.5341436
Precursor type: [M-H]-
m/z	relative intensity
78.959	17
78.96402	17
78.96652	11
109.0688	11
111.079	23
111.0865	11
122.0098	11
127.0703	11
127.0719	11
127.0751	11
127.0766	29
127.0798	29
127.0814	17
127.083	11
140.0061	29
140.0078	17
140.0111	17
140.0128	17
140.0145	23
152.9732	11
152.9855	11
152.989	11
152.9907	11
152.9942	29
152.9959	23
152.9977	11
152.9994	17
153.0012	17
153.0064	11
154.5917	12
154.5988	12
155.0587	6
155.0623	30
155.064	53
155.0658	83
155.0675	77
155.0693	88
155.071	117
155.0728	94
155.0746	99
155.0763	65
155.0781	35
155.0798	29
155.0816	35
155.0833	18
155.0851	6
155.0921	6
155.0939	6
163.1416	11
163.1434	23
163.1452	23
163.147	23
163.1488	63
163.1506	29
163.1524	11
163.1542	57
174.9784	11
184.3257	11
191.1441	11
191.1519	11
195.4243	11
196.0263	11
196.0303	11
196.0323	11
196.0342	29
196.0362	17
196.0382	57
196.0402	23
196.0441	34
196.0461	23
196.054	11
203.1664	11
203.1724	17
203.1745	17
203.1765	17
203.1785	17
203.1805	23
203.1825	29
203.1865	29
203.1885	11
207.1802	11
253.2062	11
253.2129	23
253.2152	11
253.2174	11
253.2219	17
253.2241	17
253.2264	11
255.2174	17
255.2196	11
255.2219	23
255.2241	29
255.2264	40
255.2309	52
255.2332	23
255.2354	34
255.2377	23
255.2399	17
255.2422	29
255.2444	23
257.0533	12
257.2048	17
257.2071	12
257.2116	29
257.2139	63
257.2162	76
257.2184	99
257.2207	76
257.2229	93
257.2252	98
257.2274	156
257.2297	122
257.232	133
257.2343	81
257.2365	53
257.2388	76
257.241	35
257.2433	11
257.2456	12
257.2478	17
257.2523	11
262.0108	11
262.013	11
262.0153	17
275.1978	11
275.2071	11
275.2188	11
275.2282	11
275.2305	17
275.2328	17
275.2375	11
275.2445	23
275.2469	11
280.0123	17
280.0218	11
280.0241	11
281.2367	23
281.239	29
281.2438	29
281.2485	17
281.2509	17
281.2532	29
281.2556	11
281.258	23
281.2651	11
282.3712	18
282.3784	11
282.3831	11
282.3902	18
283.0213	12
283.2207	12
283.2254	12
283.2326	23
283.2373	24
283.2397	53
283.242	31
283.2444	54
283.2468	129
283.2492	85
283.2516	180
283.2539	280
283.2563	404
283.2587	505
283.261	449
283.2634	556
283.2658	489
283.2682	586
283.2705	641
283.2729	393
283.2753	363
283.2777	207
283.2801	131
283.2824	86
283.2848	113
283.2872	6
283.2896	25
283.2919	6
283.3014	6
283.3086	6
283.4915	6
283.8622	6
283.9597	6
284.2617	11
284.2664	29
284.2784	11
284.2831	11
287.6953	12
291.2313	11
291.6263	12
299.8322	12
300.2795	12
301.1922	12
301.1946	29
301.1971	17
301.1996	52
301.202	76
301.2044	89
301.2069	124
301.2093	130
301.2118	154
301.2142	202
301.2167	272
301.2191	183
301.2216	230
301.224	166
301.2265	142
301.2289	107
301.2314	105
301.2338	112
301.2363	24
301.2387	24
301.2412	35
301.2436	30
301.2461	6
301.2583	11
302.2093	11
303.2575	12
307.4713	12
317.7542	12
318.2247	12
318.2347	12
318.9651	12
319.1869	12
319.1894	12
319.1919	12
319.1945	12
319.197	23
319.1995	12
319.202	24
319.2045	24
319.2071	30
319.2096	72
319.2121	132
319.2146	181
319.2171	243
319.2197	254
319.2222	320
319.2247	345
319.2272	381
319.2297	373
319.2323	284
319.2348	217
319.2373	253
319.2398	205
319.2423	97
319.2449	115
319.2474	90
319.2499	36
319.2524	35
319.2549	18
319.2575	18
319.2625	6
319.265	6
319.497	6
319.5248	6
320.2137	6
320.2187	11
320.2238	11
320.2288	17
321.1309	6
391.212	11
391.2148	29
391.2203	11
391.2315	11
391.2343	29
417.2276	11
431.2114	11
431.2173	11
431.2348	11
462.2791	17
462.2821	11
462.2851	11
462.2881	11
462.2912	11
462.2942	29
462.2972	17
462.3003	11
462.3033	11
462.3064	11
462.3094	23
462.3124	17
462.3155	11
462.3185	17
480.2706	12
480.2861	17
480.2892	34
480.2923	86
480.2954	109
480.2985	81
480.3016	110
480.3047	115
480.3077	57
480.3109	97
480.3139	80
480.317	86
480.3201	97
480.3232	92
480.3263	69
480.3294	57
480.3325	34
480.3356	34
480.3387	23
480.3418	11
480.3448	11
481.3225	11
498.2371	11
498.2403	17
498.2592	11
498.2686	17
498.2781	11
516.2097	11
516.2449	11
516.2738	17
516.2866	17
518.2152	11
518.2281	11
518.2313	11
518.2345	23
518.2377	29
518.241	11
518.2441	11
518.2474	34
518.2505	34
518.2538	17
518.2602	17
518.2666	23
518.2698	11
544.2593	11
544.2724	11
544.2823	17
544.2856	17
544.3054	11
546.2625	17
546.269	11
546.2789	11
546.2822	17
546.2921	11
546.2954	17
573.3549	11
589.3577	11
695.448	11
695.4517	29
695.4554	11
695.4592	11
695.4703	23
695.4741	29
695.4778	17
695.4815	23
695.4927	11
695.4964	11
695.5038	11
695.5076	11
780.0443	11
780.0521	11
780.056	11
780.1033	11
780.1743	11
782.3789	11
782.45	29
782.4539	17
782.4618	24
782.4658	31
782.4697	6
782.4736	6
782.4776	31
782.4815	57
782.4855	91
782.4894	121
782.4933	113
782.4973	170
782.5012	353
782.5052	341
782.5092	389
782.5131	550
782.517	634
782.521	605
782.5249	718
782.5289	846
782.5328	812
782.5367	815
782.5407	977
782.5447	895
782.5486	999
782.5526	833
782.5565	729
782.5604	758
782.5644	531
782.5684	408
782.5723	377
782.5762	271
782.5802	195
782.5842	174
782.5881	140
782.592	63
782.596	103
782.5999	62
782.6039	34
782.6078	28
782.6118	28
782.6157	7
782.6354	7
782.8762	7
783.4567	7
783.4883	11
783.4962	11
783.5081	40
783.512	23
783.5159	11
783.5199	17
783.5239	23
783.5278	23
783.5317	63
783.5357	29
783.5396	30
783.5436	34
783.5475	29
783.5515	17
783.5554	23
783.5594	63
783.5634	23
783.5673	11
783.5712	11
783.5752	17
783.5791	17
783.5831	11
783.6028	11
