Mass spectrum: PE(16:1e/20-HDoHE); LC-ESI-QTOF; MS2
Name: PE(16:1e/20-HDoHE)
Class: Oxidized Phospholipid
Formula: C43H74NO8P
Exact mass: 764.04
SMILES: CCCCCCCCCCCCCC\C=C/OCC(COP(O)(=O)OCCN)OC(=O)CC\C=C/C\C=C/C\C=C/C\C=C/C\C=C/C=C/C(O)CC
InChI: InChI=1S/C43H74NO8P/c1-3-5-6-7-8-9-10-11-18-21-24-27-30-33-37-49-39-42(40-51-53(47,48)50-38-36-44)52-43(46)35-32-29-26-23-20-17-15-13-12-14-16-19-22-25-28-31-34-41(45)4-2/h12-13,16-17,19-20,25-26,28-29,31,33-34,37,41-42,45H,3-11,14-15,18,21-24,27,30,32,35-36,38-40,44H2,1-2H3,(H,47,48)/b13-12-,19-16-,20-17-,28-25-,29-26-,34-31+,37-33-
Instrument: Acquity UPLC Peptide BEH C18 column (50 x 2.1 mm; 1.7 um), Sciex TripleTOF5600
Instrument type: LC-ESI-QTOF
Ms type: MS2
Ion mode: NEGATIVE
Collision energy: 30-50
Precursor m/z: 762.5079288
Precursor type: [M-H]-
m/z	relative intensity
71.05289	7
78.95632	7
78.95757	14
78.95883	7
78.96008	20
78.96134	7
78.96259	14
78.96384	7
78.9651	14
81.06905	7
93.0692	10
93.07465	10
95.08367	7
107.084	17
107.0854	14
107.0869	10
107.0883	20
107.0913	14
107.0971	7
109.0995	7
109.1025	7
119.0817	7
119.0832	7
119.0894	7
119.0909	7
121.098	14
121.0995	17
121.1011	10
121.1042	10
122.0033	7
123.081	10
123.128	7
131.0872	10
133.0948	7
133.098	20
133.1013	14
133.1029	17
133.1045	10
133.1061	7
133.1094	17
135.1127	10
135.1143	10
135.1159	20
135.1176	20
135.1192	7
135.1209	10
135.1225	10
135.1241	7
140.0026	7
140.0042	14
140.0059	20
140.0076	17
140.0092	31
140.0109	17
140.0126	34
140.0143	17
140.0159	14
140.0176	24
140.0193	7
140.0209	7
143.0879	10
143.0964	7
145.0983	7
147.1142	7
147.116	14
147.1177	7
147.1194	7
147.1228	10
147.1245	7
149.0992	7
149.1268	7
149.1303	10
149.132	17
149.1337	10
149.1354	10
149.144	7
153.1284	7
157.1015	7
159.1116	14
159.117	7
159.1188	14
161.1274	10
161.1345	7
161.1363	14
163.0116	7
163.0206	10
163.1414	7
163.145	10
166.0249	7
171.112	7
171.1194	7
173.1241	10
173.1278	7
173.1297	7
173.1334	14
173.1353	10
175.1144	7
175.1462	7
175.148	14
175.1499	14
175.1518	14
178.028	7
179.0253	7
179.0347	7
185.1444	7
187.1387	10
187.1406	24
187.1426	34
187.1445	24
187.1464	45
187.1483	38
187.1503	27
187.1522	31
187.1541	20
187.1561	24
187.158	20
187.1599	14
187.1619	14
189.1554	10
189.1573	10
189.1592	10
189.1631	17
189.1651	27
189.167	20
189.1689	17
189.1709	10
189.1767	7
191.1555	7
196.0241	10
196.0261	14
196.028	14
196.03	41
196.032	51
196.034	31
196.0359	48
196.0379	79
196.0399	38
196.0419	51
196.0439	34
196.0458	38
196.0478	20
196.0498	7
196.0518	14
199.1478	10
199.1518	7
199.1538	10
203.1018	7
203.1078	7
205.158	7
207.1352	7
207.1373	7
207.1413	14
207.1434	10
213.1671	10
215.1741	7
215.1762	14
215.1824	10
217.1303	7
219.1455	10
221.151	7
227.1652	7
227.1673	7
227.1716	14
227.1737	17
227.1758	17
227.1779	14
227.1801	27
227.1822	14
227.1843	17
227.1864	14
227.1907	10
227.1928	10
227.1992	7
228.185	7
231.1443	10
233.1501	10
239.1779	7
239.1867	7
239.2259	7
239.2281	17
239.2303	7
239.2325	38
239.2347	45
239.2368	41
239.239	41
239.2412	27
239.2434	10
239.2456	24
239.2478	20
239.2499	7
239.2609	7
240.4606	7
240.8655	7
241.1612	7
241.17	7
241.1743	7
241.1765	4
241.1787	7
241.1809	46
241.1831	36
241.1853	57
241.1875	117
241.1897	134
241.1919	156
241.1941	170
241.1963	171
241.1985	210
241.2007	159
241.2028	74
241.205	92
241.2072	53
241.2094	39
241.2116	10
241.2138	18
241.2182	4
241.2204	7
241.2247	7
241.4111	4
241.7993	4
242.2009	7
245.1391	7
245.159	7
245.1678	7
245.1766	7
245.1833	10
245.1877	17
245.1899	17
245.1921	10
245.1987	7
245.2186	7
247.1691	7
247.1779	10
259.1566	7
259.1611	7
259.1656	7
259.177	7
265.1694	7
271.156	7
271.1606	7
271.163	7
271.17	18
271.1723	7
271.1746	7
280.3427	7
280.3663	7
280.3805	7
281.0708	7
281.1772	7
281.2032	14
281.208	25
281.2104	50
281.2127	79
281.2151	104
281.2174	101
281.2198	192
281.2222	206
281.2245	218
281.2269	188
281.2293	206
281.2316	231
281.234	216
281.2364	148
281.2387	112
281.2411	79
281.2435	58
281.2458	43
281.2482	18
281.2506	18
281.2529	4
281.2577	4
281.26	7
281.8875	4
282.1837	4
282.2358	4
283.2798	7
284.4398	7
284.9041	7
284.9612	7
285.0493	7
285.1613	7
285.1637	7
285.1661	24
285.1685	28
285.1709	18
285.1732	87
285.1756	84
285.178	77
285.1804	95
285.1828	113
285.1852	116
285.1875	113
285.1899	113
285.1923	98
285.1947	64
285.1971	39
285.1995	49
285.2018	21
285.2042	24
285.2066	14
285.209	7
285.2137	7
287.1926	7
287.195	7
287.1974	7
287.1997	7
287.2021	14
287.2045	10
287.2093	7
287.2141	7
297.2307	7
297.4083	7
298.2289	7
298.2996	7
299.1604	7
299.2092	4
299.2117	24
299.2141	21
299.2166	14
299.219	39
299.2214	57
299.2239	64
299.2263	117
299.2288	99
299.2312	111
299.2336	150
299.2361	192
299.2385	203
299.241	143
299.2434	149
299.2458	107
299.2483	96
299.2507	64
299.2532	43
299.2556	43
299.2581	18
299.2605	14
299.2678	4
299.2751	4
301.0254	4
301.2139	4
301.3437	4
307.1989	7
317.1882	7
317.2007	14
317.2032	14
317.2083	10
317.2108	10
317.2133	10
317.2184	7
317.2234	14
324.1973	7
324.1998	7
324.2024	7
324.2049	7
324.2456	7
325.1761	7
325.1863	7
325.1888	14
325.1914	42
325.1939	18
325.1965	25
325.199	32
325.2016	64
325.2041	60
325.2067	111
325.2092	150
325.2118	172
325.2143	205
325.2168	196
325.2194	161
325.2219	151
325.2245	157
325.227	111
325.2296	100
325.2321	96
325.2346	35
325.2372	47
325.2397	25
325.2423	11
325.2448	7
325.2474	7
325.2499	7
325.2576	4
325.2627	7
341.1946	4
341.2102	10
342.1413	7
342.157	7
342.1961	7
342.2092	7
342.23	7
342.2979	7
342.4258	7
343.0632	7
343.1625	7
343.1965	7
343.1991	11
343.2017	15
343.2043	35
343.207	77
343.2096	95
343.2122	143
343.2148	240
343.2174	294
343.22	383
343.2227	433
343.2253	384
343.2279	492
343.2305	434
343.2331	472
343.2357	443
343.2383	258
343.2409	261
343.2436	172
343.2462	112
343.2488	73
343.2514	42
343.254	47
343.2566	19
343.2592	15
343.2619	26
343.2645	8
343.2697	4
343.2932	4
343.3403	4
343.8215	4
343.989	4
344.2245	7
344.2298	7
375.2172	7
375.2254	27
375.2281	17
375.2309	10
375.2336	20
375.2363	7
375.2391	14
375.2418	10
375.2445	7
383.2293	7
397.9297	7
408.1012	7
417.2474	7
418.2395	7
418.2424	7
418.2453	27
418.2481	31
418.251	56
418.2539	10
418.2568	70
418.2597	53
418.2626	84
418.2655	91
418.2683	105
418.2712	141
418.2741	99
418.277	113
418.2799	88
418.2828	110
418.2857	78
418.2885	60
418.2914	67
418.2943	39
418.2972	18
418.3001	11
418.303	21
418.3059	7
418.3087	10
418.3116	14
418.3145	4
418.3232	4
419.2963	7
426.906	7
434.3077	7
434.9077	14
434.9254	7
434.9343	7
434.9931	7
436.2299	7
436.2417	7
436.2476	11
436.2506	22
436.2535	38
436.2565	59
436.2594	60
436.2624	109
436.2653	136
436.2682	159
436.2712	254
436.2742	306
436.2771	266
436.2801	343
436.283	403
436.2859	343
436.2889	424
436.2918	331
436.2948	365
436.2977	266
436.3007	194
436.3036	126
436.3066	76
436.3095	80
436.3125	56
436.3154	42
436.3184	34
436.3213	34
436.3242	8
436.3272	8
436.3301	11
436.911	4
437.1411	4
437.2856	10
437.2886	7
437.2945	4
437.2974	7
437.3033	7
437.8611	4
438.3041	7
438.3071	10
462.3029	7
466.2461	7
522.2763	7
522.2859	7
688.5143	7
688.5217	7
688.5291	7
688.5587	7
688.5846	10
760.1066	7
760.1339	7
760.1378	7
760.1416	14
760.1455	14
760.1494	10
760.1533	7
760.2	7
762.4152	7
762.4269	7
762.4541	20
762.458	32
762.4619	54
762.4658	96
762.4697	100
762.4736	181
762.4775	165
762.4814	304
762.4853	325
762.4892	420
762.4931	523
762.497	540
762.5009	820
762.5048	749
762.5087	762
762.5126	944
762.5165	999
762.5203	786
762.5242	959
762.5281	814
762.532	695
762.5359	697
762.5399	551
762.5437	394
762.5476	325
762.5515	194
762.5554	135
762.5593	77
762.5632	76
762.5671	48
762.571	31
762.5749	27
762.5788	22
762.5905	14
762.5944	12
762.5983	4
762.6918	5
762.8087	5
763.4791	7
763.4869	10
763.4908	14
763.4947	17
763.4986	14
763.5025	20
763.5064	20
763.5103	31
763.5142	14
763.5181	14
763.522	17
763.5298	14
763.5337	7
763.5376	10
763.5415	7
763.5454	14
763.5493	10
763.5532	14
763.5688	7
783.9816	7
