Mass spectrum: PC(18:2/12-HETE); LC-ESI-QTOF; MS2
Name: PC(18:2/12-HETE)
Class: Oxidized Phospholipid
Formula: C46H80NO9P
Exact mass: 822.12
SMILES: CCCCC\C=C/C\C=C/CCCCCCCC(=O)OCC(COP([O-])(=O)OCC[N+](C)(C)C)OC(=O)CCC\C=C/C\C=C/C=C/C(O)C\C=C/CCCCC
InChI: InChI=1S/C46H80NO9P/c1-6-8-10-12-14-15-16-17-18-19-20-21-25-29-33-37-45(49)53-41-44(42-55-57(51,52)54-40-39-47(3,4)5)56-46(50)38-34-30-26-23-22-24-28-32-36-43(48)35-31-27-13-11-9-7-2/h14-15,17-18,23-24,26-28,31-32,36,43-44,48H,6-13,16,19-22,25,29-30,33-35,37-42H2,1-5H3/b15-14-,18-17-,26-23-,28-24-,31-27-,36-32+
Instrument: Acquity UPLC Peptide BEH C18 column (50 x 2.1 mm; 1.7 um), Sciex TripleTOF5600
Instrument type: LC-ESI-QTOF
Ms type: MS2
Ion mode: NEGATIVE
Collision energy: 30-50
Precursor m/z: 880.5709227
Precursor type: [M+CH3COOH-H]-
m/z	relative intensity
78.96525	12
163.1128	12
168.0383	12
168.0402	18
168.0475	12
168.0493	18
168.0511	12
179.0916	12
179.0973	18
179.0992	24
179.1011	59
179.103	36
179.1049	36
179.1068	12
179.1086	48
179.1105	54
179.1124	18
179.1143	24
179.1162	30
179.1181	12
179.1294	12
207.103	12
208.0992	12
208.1012	18
208.1094	30
208.1135	30
208.1175	12
224.067	12
224.0691	18
224.0712	24
224.0755	18
257.2185	18
257.2207	12
257.223	30
257.2298	36
257.2343	24
257.2366	12
257.2388	12
275.2376	12
275.2516	12
279.2055	12
279.2079	12
279.2102	18
279.2126	18
279.2149	30
279.2173	54
279.2196	107
279.222	125
279.2244	149
279.2267	208
279.2291	220
279.2314	220
279.2338	297
279.2361	190
279.2385	226
279.2408	137
279.2432	178
279.2456	95
279.2479	42
279.2503	48
279.2527	24
279.255	48
279.2574	12
279.2597	24
279.2621	24
279.2715	18
281.2273	12
281.2344	12
281.2368	12
281.2391	12
281.2415	18
281.2438	12
281.2462	24
281.2486	24
281.2509	30
281.2533	30
281.2557	30
281.2581	24
284.2618	12
301.1996	18
301.2045	18
301.207	36
301.2094	48
301.2119	59
301.2143	65
301.2168	54
301.2192	89
301.2216	36
301.2241	48
301.2266	30
301.229	30
301.2314	12
319.1945	12
319.1971	24
319.2021	18
319.2046	18
319.2072	30
319.2097	83
319.2122	107
319.2147	125
319.2173	178
319.2198	172
319.2223	274
319.2248	309
319.2273	274
319.2298	291
319.2324	303
319.2349	202
319.2374	178
319.2399	119
319.2425	161
319.245	59
319.2475	71
319.25	42
319.2525	24
320.2415	18
333.2458	12
415.2156	12
455.2107	12
486.2852	12
486.2884	12
486.2977	18
486.3008	12
486.3039	12
504.2805	18
504.2868	30
504.29	18
504.2932	12
504.2963	36
504.2995	48
504.3026	24
504.3058	36
504.309	65
504.3122	65
504.3153	54
504.3185	54
504.3217	36
504.3248	30
504.328	18
504.3312	30
504.3344	18
504.3375	12
504.3407	12
506.3135	30
506.3167	30
506.3199	18
506.3231	30
506.3262	12
506.3294	36
506.3326	12
506.3358	12
506.3389	24
506.3421	24
526.2733	12
526.2766	12
526.2863	18
526.2895	18
526.2927	12
526.2992	12
526.3121	12
544.3056	12
544.3089	12
544.3154	12
613.3803	12
640.8293	12
656.7791	12
667.4131	12
668.8099	12
694.4143	12
709.4455	12
735.4264	18
735.4379	18
735.4417	18
735.4456	30
735.4493	18
735.4532	18
735.457	42
735.4608	54
735.4647	12
735.4685	24
735.4723	18
735.4761	18
735.4876	12
735.4915	18
735.5068	12
761.5046	18
761.5124	12
806.4587	18
806.4626	18
806.4667	24
806.4706	30
806.4747	59
806.4787	65
806.4827	89
806.4867	65
806.4907	119
806.4947	196
806.4987	268
806.5027	279
806.5067	398
806.5107	381
806.5148	523
806.5187	595
806.5228	666
806.5268	892
806.5308	815
806.5348	791
806.5388	999
806.5428	791
806.5468	797
806.5508	856
806.5548	904
806.5588	720
806.5628	612
806.5668	624
806.5709	577
806.5749	392
806.5789	291
806.5829	262
806.5869	184
806.5909	137
806.5949	83
806.5989	77
806.6029	54
806.6069	59
806.6109	65
806.6149	48
806.619	12
806.6229	24
806.631	12
807.5168	30
807.5208	12
807.5248	12
807.5289	18
807.5328	30
807.5369	24
807.5409	36
807.5449	24
807.5489	24
807.5529	18
807.5569	18
807.5609	36
807.5649	12
807.569	30
807.5729	36
807.577	24
807.589	18
807.593	12
807.601	12
820.5357	18
820.5438	18
820.5479	12
820.5519	24
820.5559	18
820.56	12
820.5761	12
820.5802	18
820.5842	12
821.4696	12
821.4736	18
821.4818	18
821.4858	12
821.4979	12
821.502	18
821.5141	12
821.5222	18
821.5303	24
821.5505	18
880.4175	12
880.4719	12
880.5012	12
880.5054	36
880.5137	18
880.5179	30
880.5221	18
880.5263	30
880.5305	30
880.5347	30
880.5389	30
880.543	30
880.5472	36
880.5515	65
880.5556	77
880.5598	65
880.564	89
880.5682	83
880.5724	83
880.5765	65
880.5807	95
880.5849	54
880.5891	83
880.5933	77
880.5975	71
880.6017	59
880.6058	36
880.61	59
880.6143	42
880.6184	36
880.6226	36
880.6268	30
880.631	18
880.6352	30
880.6436	12
880.6645	12
880.6812	12
880.9576	18
881.4979	12
881.5147	24
881.5608	12
