Mass spectrum: PC 40:6; LC-ESI-QTOF; MS2
Name: PC 40:6
Class: PC
Formula: C48H84NO8P
Exact mass: 834.175
SMILES: CCCCCCCC\C=C/CCCCCCCC(=O)OCC(COP([O-])(=O)OCC[N+](C)(C)C)OC(=O)CCCCC\C=C/C\C=C/C\C=C/C\C=C/C\C=C/CC
InChI: InChI=1S/C48H84NO8P/c1-6-8-10-12-14-16-18-20-22-23-24-25-27-29-31-33-35-37-39-41-48(51)57-46(45-56-58(52,53)55-43-42-49(3,4)5)44-54-47(50)40-38-36-34-32-30-28-26-21-19-17-15-13-11-9-7-2/h8,10,14,16,20-22,24-26,29,31,46H,6-7,9,11-13,15,17-19,23,27-28,30,32-45H2,1-5H3/b10-8-,16-14-,22-20-,25-24-,26-21-,31-29-
Instrument: AB Sciex TripleTOF 5600+ system (Q-TOF) equipped with a DuoSpray ion source
Instrument type: LC-ESI-QTOF
Ms type: MS2
Ion mode: NEGATIVE
Collision energy: 45V
Column name: Acquity UPLC Peptide BEH C18 column (50*2.1 mm; 1.7 um; 130A)(Waters Co.,Milford, MA, USA)
Retention time: 9.505391
Precursor type: [M+CH3COOH-H]-
Precursor m/z: 892.6068
m/z	relative intensity
196.037	5
224.07	5
251.202	5
262.011	6
279.239	9
280.234	7
281.247	250
285.254	28
303.238	6
329.246	540
488.285	3
488.323	4
506.296	11
506.326	29
536.303	5
546.276	10
554.315	9
569.463	3
699.523	3
714.49	3
742.598	4
788.552	5
805.582	5
810.494	9
810.536	19
818.499	78
818.552	999
818.592	192
818.627	21
833.54	3
892.499	15
892.55	27
892.599	61
892.638	21
