Mass spectrum: PE(18:1/14,15-EpETE); LC-ESI-QTOF; MS2
Name: PE(18:1/14,15-EpETE)
Class: Oxidized Phospholipid
Formula: C43H74NO9P
Exact mass: 780.039
SMILES: CCCCCCCC\C=C/CCCCCCCC(=O)OCC(COP(O)(=O)OCCN)OC(=O)CCC\C=C/C\C=C/C\C=C/CC1OC1C\C=C/CC
InChI: InChI=1S/C43H74NO9P/c1-3-5-7-8-9-10-11-12-13-14-15-19-22-25-29-33-42(45)49-37-39(38-51-54(47,48)50-36-35-44)52-43(46)34-30-26-23-20-17-16-18-21-24-28-32-41-40(53-41)31-27-6-4-2/h6,12-13,16,18,20,23-24,27-28,39-41H,3-5,7-11,14-15,17,19,21-22,25-26,29-38,44H2,1-2H3,(H,47,48)/b13-12-,18-16-,23-20-,27-6-,28-24-
Instrument: Acquity UPLC Peptide BEH C18 column (50 x 2.1 mm; 1.7 um), Sciex TripleTOF5600
Instrument type: LC-ESI-QTOF
Ms type: MS2
Ion mode: NEGATIVE
Collision energy: 30-50
Precursor m/z: 778.5028435
Precursor type: [M-H]-
m/z	relative intensity
78.95966	13
78.96091	26
78.96342	20
93.07414	20
109.0694	13
111.0827	13
121.0662	13
121.1035	39
121.1112	13
133.1021	13
135.1217	13
140.0034	13
140.0085	13
140.0101	33
140.0118	39
140.0135	33
140.0151	39
140.0168	26
140.0185	26
140.0201	13
147.11	13
147.1151	13
149.138	13
161.1336	13
163.153	13
167.1092	13
175.1433	13
175.1451	26
175.147	46
175.1489	26
175.1507	26
175.1526	33
175.1545	13
175.1582	13
175.162	13
177.0944	13
179.1035	13
181.1297	13
189.164	13
196.0249	26
196.0269	13
196.0309	26
196.0328	26
196.0348	39
196.0368	46
196.0388	46
196.0407	46
196.0427	20
196.0447	33
196.0466	26
196.0486	26
196.0546	13
201.1268	13
201.1588	13
201.1668	13
201.1688	20
203.1388	13
203.1408	13
203.1428	20
203.1468	33
203.1509	13
205.1225	14
205.1245	13
207.1178	13
207.1198	14
207.1239	26
207.1259	53
207.1279	26
207.1299	60
207.132	113
207.134	112
207.136	159
207.1381	165
207.1401	139
207.1421	185
207.1442	125
207.1462	99
207.1482	60
207.1503	26
207.1523	13
207.1543	20
207.1604	13
219.1233	20
219.1274	20
219.1295	26
219.1316	33
219.1337	72
219.1358	66
219.1379	99
219.14	79
219.1421	33
219.1441	59
219.1462	39
219.1483	13
219.1504	33
219.1525	13
219.1546	13
220.15	13
220.1563	13
221.1497	20
221.1539	13
221.156	13
221.1581	20
221.1602	20
221.1623	13
229.1181	13
235.122	13
235.1242	20
235.1307	20
235.1393	13
247.1321	39
247.1343	20
247.1365	13
248.129	46
248.1312	33
248.1335	20
248.1357	39
248.1379	53
248.1401	46
248.1423	92
248.1446	59
248.1468	39
248.149	72
248.1512	20
248.1534	26
248.1557	13
255.1953	20
255.1975	13
255.1998	39
255.202	26
255.2043	13
255.2065	46
255.2088	66
255.211	39
255.2133	53
255.2155	86
255.2178	33
255.22	46
255.2223	13
255.2268	33
255.2291	20
255.2358	13
255.2403	13
269.1761	13
273.2145	20
273.2215	39
273.2261	13
273.2332	13
280.3646	14
280.3788	13
280.4213	13
281.0809	14
281.1992	28
281.2157	13
281.2205	21
281.2228	21
281.2252	30
281.2276	36
281.2299	108
281.2323	173
281.2347	253
281.237	366
281.2394	600
281.2418	713
281.2441	999
281.2465	750
281.2489	903
281.2512	958
281.2536	874
281.256	755
281.2583	569
281.2607	355
281.2631	296
281.2654	207
281.2678	148
281.2702	104
281.2725	30
281.2749	30
281.2773	37
281.2796	15
281.2867	8
281.2891	7
281.6726	8
281.8194	7
282.1061	7
282.2459	8
282.2602	13
289.2077	20
289.2269	13
298.2612	13
299.1732	13
299.183	13
299.1855	13
299.1879	46
299.1903	33
299.1928	46
299.1952	66
299.1977	79
299.2001	92
299.2025	79
299.205	79
299.2074	33
299.2099	33
299.2123	39
299.2172	26
299.2367	14
301.2121	14
315.1866	14
316.2245	27
317.1787	13
317.1837	14
317.1888	81
317.1913	62
317.1938	104
317.1963	109
317.1988	82
317.2013	212
317.2038	332
317.2064	298
317.2089	458
317.2114	347
317.2139	410
317.2164	396
317.2189	376
317.2214	291
317.2239	160
317.2265	139
317.229	104
317.2315	35
317.234	42
317.2365	21
317.239	48
317.2415	7
317.244	13
317.2466	21
317.2541	7
318.2123	7
339.6097	7
440.2354	13
460.2606	13
460.2667	20
460.2697	13
460.2727	13
460.2758	26
460.2788	46
460.2849	26
460.2879	33
460.2939	13
460.3	13
460.306	13
460.3121	14
461.7087	13
478.2502	14
478.2564	13
478.2626	14
478.2657	20
478.2687	46
478.2718	46
478.2749	133
478.278	74
478.2811	106
478.2842	126
478.2873	113
478.2903	100
478.2934	159
478.2965	146
478.2996	113
478.3027	112
478.3058	126
478.3088	92
478.312	40
478.315	59
478.3181	39
478.3212	13
478.3243	39
496.2137	13
496.2389	13
496.2452	13
496.2483	33
496.2515	13
496.2546	26
496.2609	20
496.264	20
496.2672	13
514.2396	13
514.2429	39
514.2492	20
514.2524	20
514.2589	13
514.2716	13
778.4358	14
778.4397	41
778.4437	28
778.4476	21
778.4515	28
778.4554	63
778.4594	37
778.4633	134
778.4673	261
778.4712	232
778.4752	290
778.4791	434
778.483	500
778.4869	500
778.4909	491
778.4948	564
778.4988	723
778.5027	846
778.5067	648
778.5106	773
778.5145	712
778.5184	696
778.5224	656
778.5263	651
778.5303	404
778.5342	431
778.5381	415
778.5421	315
778.546	158
778.5499	186
778.5539	202
778.5578	91
778.5618	75
778.5657	60
778.5696	27
778.5735	23
778.5775	15
778.5814	14
778.5854	21
778.5893	15
778.5933	8
778.7271	8
779.4557	8
779.4833	13
779.4951	13
779.499	13
779.503	13
779.5109	20
779.5226	13
779.5266	13
779.5305	13
779.5424	13
779.5502	20
779.5542	13
779.6526	13
