Mass spectrum: PE(16:1e/12-HEPE); LC-ESI-QTOF; MS2
Name: PE(16:1e/12-HEPE)
Class: Oxidized Phospholipid
Formula: C41H72NO8P
Exact mass: 738.002
SMILES: CCCCCCCCCCCCCC\C=C/OCC(COP(O)(=O)OCCN)OC(=O)CCC\C=C/C\C=C/C=C/C(O)C\C=C/C\C=C/CC
InChI: InChI=1S/C41H72NO8P/c1-3-5-7-9-11-12-13-14-15-16-19-22-26-30-35-47-37-40(38-49-51(45,46)48-36-34-42)50-41(44)33-29-25-21-18-17-20-24-28-32-39(43)31-27-23-10-8-6-4-2/h6,8,18,20-21,23-24,27-28,30,32,35,39-40,43H,3-5,7,9-17,19,22,25-26,29,31,33-34,36-38,42H2,1-2H3,(H,45,46)/b8-6-,21-18-,24-20-,27-23-,32-28+,35-30-
Instrument: Acquity UPLC Peptide BEH C18 column (50 x 2.1 mm; 1.7 um), Sciex TripleTOF5600
Instrument type: LC-ESI-QTOF
Ms type: MS2
Ion mode: NEGATIVE
Collision energy: 30-50
Precursor m/z: 736.4922788
Precursor type: [M-H]-
m/z	relative intensity
78.95839	31
78.95964	31
78.9609	21
78.96215	10
78.9634	10
78.96466	16
78.96591	21
78.96717	10
78.96967	10
78.97093	10
95.08726	10
107.0819	10
107.0848	16
107.0863	10
107.0877	21
109.0974	16
109.0989	16
109.1004	10
109.1018	36
109.1033	10
109.1048	21
109.1063	16
109.1077	10
109.1107	10
121.0988	10
135.1119	21
135.1135	16
135.1151	16
135.1168	68
135.1184	16
135.1201	26
135.1217	21
135.125	10
135.1266	10
137.0904	16
137.1003	16
137.1036	16
140.0034	16
140.0051	31
140.0067	16
140.0084	21
140.0101	16
140.0117	57
140.0134	63
140.0151	10
140.0168	10
140.0184	10
140.0201	10
145.0958	10
149.138	10
151.1122	16
151.1174	10
161.1353	10
163.0215	10
163.1061	10
163.1079	16
163.1097	21
163.1116	31
163.1134	36
163.1151	21
163.1169	10
163.1188	10
163.1224	10
163.1458	16
163.1494	10
177.0887	10
177.0906	10
177.1225	11
178.0363	11
179.028	10
179.0374	11
179.0393	10
179.0884	6
179.0922	6
179.0941	22
179.0959	32
179.0978	54
179.0997	75
179.1016	161
179.1035	205
179.1054	221
179.1073	205
179.1092	172
179.1111	157
179.1129	161
179.1148	108
179.1167	49
179.1186	75
179.1205	33
179.1224	38
179.1243	11
179.1261	22
179.1375	10
179.1394	6
179.1413	11
180.0451	16
180.1057	10
180.1189	10
189.0902	10
196.0249	16
196.0268	10
196.0288	26
196.0308	16
196.0328	36
196.0347	52
196.0367	47
196.0387	47
196.0407	47
196.0426	42
196.0446	36
196.0466	26
196.0486	10
196.0505	21
199.1705	10
201.1567	16
201.1587	10
201.1607	26
201.1627	16
201.1647	16
201.1667	21
201.1767	21
201.1787	10
207.0893	21
207.0913	21
207.0933	16
207.0954	21
207.0974	16
207.0994	36
207.1015	42
207.1035	26
207.1055	26
207.1075	31
207.1096	10
208.0935	16
208.0976	16
208.0997	36
208.1017	63
208.1037	47
208.1057	99
208.1078	78
208.1098	52
208.1119	84
208.1139	105
208.1159	52
208.118	47
208.12	36
208.122	16
208.1261	21
208.1383	10
221.1622	10
223.1243	16
225.1755	16
226.1844	16
227.1871	21
227.2063	10
228.1985	10
229.2077	10
239.2222	10
239.2244	10
239.231	16
239.2332	16
239.2353	57
239.2375	42
239.2397	31
239.2419	10
239.2441	36
239.2463	10
239.2506	10
239.2528	10
253.22	10
254.2201	11
254.2224	10
255.1839	11
255.1907	21
255.1929	47
255.1974	79
255.1997	121
255.2019	85
255.2042	89
255.2065	137
255.2087	116
255.211	147
255.2132	131
255.2155	141
255.2177	111
255.22	57
255.2222	73
255.2245	47
255.2267	26
255.229	16
255.2312	10
271.224	10
273.2051	10
273.2097	10
273.2144	16
273.2167	16
273.2191	31
273.2214	26
273.2237	31
273.2261	16
273.2284	10
273.2307	10
273.2354	26
273.2377	10
281.1801	10
281.192	10
289.2052	11
289.2172	10
289.222	11
299.1683	11
299.1756	10
299.178	11
299.1805	32
299.1829	37
299.1854	42
299.1878	64
299.1902	106
299.1927	70
299.1951	86
299.1976	186
299.2	96
299.2025	160
299.2049	101
299.2073	138
299.2098	74
299.2122	69
299.2147	43
299.2171	16
299.2195	11
299.222	10
299.2293	6
300.1966	6
300.2186	10
316.2144	10
316.2295	16
316.247	11
316.9851	11
317.1485	11
317.166	11
317.1811	17
317.1837	23
317.1862	41
317.1887	41
317.1912	81
317.1937	140
317.1962	259
317.1987	305
317.2012	418
317.2037	534
317.2062	730
317.2088	767
317.2113	750
317.2138	844
317.2163	773
317.2188	599
317.2213	446
317.2238	329
317.2263	181
317.2289	141
317.2314	88
317.2339	111
317.2364	41
317.2389	54
317.244	6
317.2465	12
317.3947	6
317.7719	6
317.938	6
318.182	6
318.2173	10
318.2198	10
318.2248	16
375.2093	10
375.2284	21
375.2311	21
375.2339	10
375.2421	10
375.2448	11
417.4407	11
418.2483	48
418.2512	42
418.2541	69
418.257	106
418.2599	74
418.2627	107
418.2656	90
418.2685	121
418.2714	158
418.2743	121
418.2772	106
418.2801	85
418.2829	115
418.2858	53
418.2887	21
418.2916	16
418.2945	22
418.2974	10
418.3003	16
418.306	16
418.3089	10
418.3291	10
428.923	11
433.5789	11
434.9167	11
436.1475	11
436.1593	11
436.2389	16
436.2418	11
436.2448	27
436.2477	11
436.2507	43
436.2536	114
436.2566	60
436.2595	89
436.2625	88
436.2654	146
436.2683	173
436.2713	296
436.2743	223
436.2772	364
436.2802	393
436.2831	410
436.286	437
436.289	337
436.2919	325
436.2949	338
436.2978	192
436.3008	197
436.3037	96
436.3067	84
436.3096	68
436.3126	45
436.3155	6
436.3185	17
436.3243	6
436.3302	6
436.3362	6
437.265	10
437.2768	10
437.2827	6
438.8686	6
496.2513	10
545.3355	21
545.342	26
545.3453	16
545.3519	10
545.3552	10
545.3651	10
599.4151	10
661.4686	10
662.4488	21
662.4778	21
662.4851	10
662.4888	10
662.4924	10
662.5142	10
734.1509	10
734.1585	10
734.1815	10
734.1929	10
734.2579	12
736.4158	16
736.4427	42
736.4465	78
736.4503	84
736.4542	205
736.458	225
736.4618	292
736.4656	321
736.4695	401
736.4733	544
736.4771	654
736.481	847
736.4848	864
736.4886	810
736.4924	959
736.4963	973
736.5001	965
736.5039	999
736.5078	985
736.5116	824
736.5154	762
736.5192	563
736.5231	310
736.5269	349
736.5307	208
736.5345	136
736.5384	105
736.5422	38
736.546	58
736.5499	64
736.5537	33
736.5576	13
736.5613	13
736.569	13
736.5729	10
736.5882	10
737.1244	7
737.4692	6
737.473	10
737.4769	26
737.4807	10
737.4845	7
737.496	31
737.4998	16
737.5037	10
737.5075	10
737.5114	10
737.5152	21
737.519	16
737.5228	10
737.5343	10
737.542	10
