Mass spectrum: PC(18:1/19,20-EpDPE); LC-ESI-QTOF; MS2
Name: PC(18:1/19,20-EpDPE)
Class: Oxidized Phospholipid
Formula: C48H82NO9P
Exact mass: 848.158
SMILES: CCCCCCCC\C=C/CCCCCCCC(=O)OCC(COP([O-])(=O)OCC[N+](C)(C)C)OC(=O)CC\C=C/C\C=C/C\C=C/C\C=C/C\C=C/CC1OC1CC
InChI: InChI=1S/C48H82NO9P/c1-6-8-9-10-11-12-13-14-16-20-23-26-29-32-35-38-47(50)54-42-44(43-56-59(52,53)55-41-40-49(3,4)5)57-48(51)39-36-33-30-27-24-21-18-15-17-19-22-25-28-31-34-37-46-45(7-2)58-46/h14-17,21-22,24-25,30-31,33-34,44-46H,6-13,18-20,23,26-29,32,35-43H2,1-5H3/b16-14-,17-15-,24-21-,25-22-,33-30-,34-31-
Instrument: Acquity UPLC Peptide BEH C18 column (50 x 2.1 mm; 1.7 um), Sciex TripleTOF5600
Instrument type: LC-ESI-QTOF
Ms type: MS2
Ion mode: NEGATIVE
Collision energy: 30-50
Precursor m/z: 906.5865727
Precursor type: [M+CH3COOH-H]-
m/z	relative intensity
71.01707	2
71.02062	2
71.04663	2
71.05135	2
78.95228	2
78.95478	2
78.95602	2
81.06865	5
93.07028	2
93.07164	2
121.0949	2
121.098	7
121.1026	5
141.074	2
141.0873	2
147.1127	2
147.1144	7
147.1178	2
149.0977	2
149.1286	2
149.1303	2
149.1354	5
149.1371	2
152.9881	2
152.995	2
159.1147	2
159.1253	2
161.1326	2
161.1361	7
161.1379	2
168.0343	5
168.038	2
168.0398	13
168.0416	7
168.0434	10
168.0453	7
168.0471	5
172.1978	2
172.1996	2
173.1247	2
173.1303	2
173.1432	2
175.1421	5
175.1458	2
175.1476	2
175.1514	2
175.1532	2
187.1383	2
187.1402	2
187.146	2
187.1479	7
187.1498	5
187.1517	2
187.1536	2
189.1621	2
189.1641	2
189.1834	2
193.1294	2
193.1509	2
203.0999	2
203.1298	2
203.5538	2
203.5638	2
207.1353	2
207.1413	2
207.1696	2
209.0127	2
209.0188	2
224.06	2
224.0621	12
224.0642	10
224.0663	12
224.0684	5
224.0705	5
224.0726	2
224.0768	2
227.1779	2
227.1821	2
227.1842	2
227.1906	2
227.2773	2
227.2815	2
233.022	2
233.0306	2
241.1808	5
241.1852	10
241.1874	2
241.1895	2
241.1917	7
241.1939	19
241.1961	16
241.1983	13
241.2004	7
241.2026	2
241.2048	2
241.207	2
241.2091	2
241.8609	2
241.8674	2
242.0856	2
242.0987	2
245.1767	2
245.1833	2
245.1855	2
245.1899	5
245.1921	7
245.1942	2
245.1965	2
247.155	2
247.1594	2
247.1638	2
247.1682	2
255.1632	2
255.1699	2
255.1789	2
259.1599	2
259.1621	2
265.1549	2
265.1777	2
265.18	2
265.1823	2
265.1891	5
273.1714	2
273.1807	2
273.183	2
275.534	2
275.5386	2
275.5503	2
280.3625	2
280.3648	2
280.3766	2
280.4024	2
281.1732	2
281.2109	5
281.2132	9
281.2156	7
281.2179	13
281.2203	18
281.2227	14
281.225	18
281.2274	26
281.2297	29
281.2321	38
281.2344	34
281.2368	56
281.2391	94
281.2415	132
281.2438	195
281.2462	210
281.2485	153
281.2509	152
281.2532	90
281.2556	110
281.2579	49
281.2603	50
281.2626	15
281.265	12
281.2673	7
281.2697	5
281.272	2
281.2767	2
281.2862	2
281.2932	2
283.3316	2
283.36	2
284.8304	2
284.8682	2
285.1666	2
285.1689	2
285.1713	5
285.1737	5
285.176	5
285.1808	13
285.1831	13
285.1855	16
285.1879	12
285.1902	7
285.195	7
285.1974	5
285.1997	2
285.2092	2
287.1952	2
287.1975	2
287.1999	2
287.2023	2
287.2094	2
287.2142	2
287.2166	2
289.5244	2
289.5602	2
299.2193	2
299.2217	2
299.2266	7
299.229	21
299.2314	23
299.2339	14
299.2363	15
299.2387	27
299.2411	13
299.2436	13
299.246	13
299.2484	2
299.2509	5
299.2533	2
299.2557	2
314.1915	2
314.194	2
317.1993	2
317.2018	2
325.1975	2
325.2	2
325.2026	10
325.2051	7
325.2076	12
325.2102	16
325.2127	25
325.2152	14
325.2178	19
325.2203	19
325.2228	7
325.2253	7
325.2279	2
325.2304	14
325.2329	2
325.2456	2
342.1383	2
342.1461	2
342.1512	2
342.159	2
343.1846	2
343.2054	12
343.2079	5
343.2106	17
343.2132	36
343.2158	57
343.2184	69
343.2209	81
343.2235	97
343.2261	89
343.2288	79
343.2314	70
343.2339	43
343.2365	24
343.2391	27
343.2417	9
343.2444	12
343.2469	2
343.2547	5
351.6702	2
351.6834	2
417.2137	2
417.2481	2
417.251	2
417.271	2
441.5512	2
441.5895	2
443.8737	2
443.8855	2
452.353	2
452.3619	2
454.0459	2
454.0519	2
457.7713	2
457.7773	2
464.0463	2
464.0886	2
466.0243	2
466.0576	2
466.6119	5
468.4254	2
468.4284	2
468.9324	2
468.978	2
469.221	2
470.2637	2
470.3002	2
470.9421	2
470.9543	5
472.9531	2
472.9561	2
476.8899	2
476.9144	2
479.113	2
479.1529	2
479.1744	2
479.202	2
479.2112	2
479.2143	2
480.6953	2
480.7045	2
488.2865	2
488.2989	5
488.302	2
488.3051	12
488.3082	2
488.3113	2
488.3144	2
488.3175	7
488.3206	5
488.3516	2
489.1888	2
489.2012	2
489.2167	2
490.1913	2
490.1975	2
492.7533	2
492.7627	2
496.7371	2
496.7433	5
497.3062	2
497.3124	2
497.3468	2
497.3531	2
499.2504	5
506.2916	2
506.2948	12
506.2979	5
506.3011	13
506.3042	10
506.3074	12
506.3105	16
506.3137	23
506.3169	27
506.32	20
506.3232	17
506.3263	16
506.3295	31
506.3326	14
506.3358	21
506.3389	14
506.3421	2
506.3452	7
506.3484	7
506.3516	5
511.9182	2
511.9404	2
518.5048	2
518.5112	2
520.5828	5
521.2806	2
521.2902	2
523.5631	5
523.5695	2
523.5792	2
526.848	2
526.8577	2
540.0221	2
540.0253	2
544.2412	2
544.251	2
550.2585	2
550.275	5
550.2816	2
550.2849	7
550.2914	7
550.2947	2
550.298	2
550.3013	7
550.3079	2
550.3112	5
550.3145	2
550.3243	2
550.3309	2
568.2816	5
568.2916	10
568.295	10
568.2983	15
568.3017	13
568.305	15
568.3083	7
568.3117	5
568.3151	2
568.3184	2
568.3217	5
568.3251	2
568.3284	5
568.3351	5
568.3484	2
616.3914	2
616.4158	2
761.4639	2
761.4677	5
761.4716	2
761.4755	2
761.4793	7
761.5026	2
761.5064	2
761.518	2
787.4695	2
787.4734	2
787.4853	5
787.4971	2
787.5049	2
819.5313	2
819.5594	2
826.972	2
827.0003	2
829.8745	2
829.8826	2
829.8867	2
829.8907	2
829.8947	2
829.8987	2
829.9028	2
829.9069	2
829.9149	2
829.9189	2
829.923	5
829.9311	2
829.9473	2
829.9553	5
829.9715	2
829.9836	2
829.9877	2
829.9957	2
830.0361	2
831.5117	2
831.5238	2
831.5359	2
831.5683	2
831.5885	2
831.6006	2
832.3248	2
832.3734	2
832.3855	2
832.4502	2
832.4826	2
832.4907	2
832.4947	4
832.4988	7
832.5028	7
832.5068	21
832.5109	24
832.515	55
832.519	83
832.5231	131
832.5271	245
832.5311	334
832.5352	449
832.5392	628
832.5433	783
832.5473	941
832.5514	904
832.5554	999
832.5594	715
832.5635	524
832.5676	415
832.5716	322
832.5757	159
832.5797	133
832.5837	74
832.5878	26
832.5919	18
832.5959	14
832.5999	4
832.604	4
832.608	4
832.6121	9
832.6161	2
832.6323	7
832.6404	2
832.8954	2
832.9359	2
833.3812	2
833.3853	2
833.5472	5
833.5553	2
833.5634	2
834.1993	2
834.2641	2
834.653	2
834.6814	2
836.2056	2
836.2746	2
837.297	2
837.3578	2
837.4025	2
837.4188	2
837.4269	2
838.2185	2
838.2225	2
838.2429	2
838.7952	5
843.3386	2
843.3956	2
844.6302	2
844.675	2
846.5634	2
846.6042	2
847.4818	5
847.4859	7
847.49	12
847.4941	5
847.4982	12
847.5023	7
847.5063	15
847.5104	12
847.5145	12
847.5186	7
847.5226	12
847.5267	7
847.5349	2
847.5431	5
847.5513	2
847.6492	5
903.7302	2
903.7344	2
906.4856	2
906.5024	2
906.5236	5
906.532	5
906.5363	9
906.5405	5
906.5447	9
906.5489	7
906.5531	19
906.5574	17
906.5616	41
906.5658	66
906.57	48
906.5743	79
906.5785	78
906.5827	107
906.5869	71
906.5911	72
906.5953	79
906.5996	75
906.6038	36
906.608	30
906.6122	25
906.6165	17
906.6207	14
906.6249	13
906.6292	13
906.6334	14
906.6376	7
906.6418	7
906.6503	7
906.6545	2
906.6629	2
907.3134	2
907.3514	2
