Mass spectrum: PI 32:0; LC-ESI-QTOF; MS2
Name: PI 32:0
Class: PI
Formula: C41H79O13P
Exact mass: 811.0459999999999
SMILES: CCCCCCCCCCCCCCCC(=O)OCC(COP(O)(=O)OC1C(O)C(O)C(O)C(O)C1O)OC(=O)CCCCCCCCCCCCCCC
InChI: InChI=1S/C41H79O13P/c1-3-5-7-9-11-13-15-17-19-21-23-25-27-29-34(42)51-31-33(32-52-55(49,50)54-41-39(47)37(45)36(44)38(46)40(41)48)53-35(43)30-28-26-24-22-20-18-16-14-12-10-8-6-4-2/h33,36-41,44-48H,3-32H2,1-2H3,(H,49,50)
Instrument: AB Sciex TripleTOF 5600+ system (Q-TOF) equipped with a DuoSpray ion source
Instrument type: LC-ESI-QTOF
Ms type: MS2
Ion mode: NEGATIVE
Collision energy: 45V
Column name: Acquity UPLC Peptide BEH C18 column (50*2.1 mm; 1.7 um; 130A)(Waters Co.,Milford, MA, USA)
Retention time: 8.505555
Precursor type: [M-H]-
Precursor m/z: 809.5128
m/z	relative intensity
78.96	14
96.973	4
152.996	53
223.001	22
224.205	1
227.191	1
227.207	3
241.01	71
254.437	2
255.231	207
256.235	2
257.225	4
258.239	1
259.02	5
281.25	2
282.376	2
283.262	112
284.265	74
297.037	14
301.215	31
302.219	19
302.237	3
315.05	2
391.22	67
392.225	3
409.227	5
419.229	3
419.256	50
420.236	7
420.259	35
437.197	3
437.22	4
437.265	37
438.198	2
438.218	6
438.248	4
438.269	6
438.287	4
506.019	0
520.974	0
553.264	59
553.29	24
553.319	1
571.288	13
581.306	3
599.273	0
647.46	0
649.443	0
649.531	0
720.183	0
721.421	0
721.463	10
721.51	4
722.476	145
722.508	21
749.498	1
791.483	1
791.549	1
806.952	4
807.753	1
809.425	2
809.509	999
810.51	2
