Mass spectrum: PE 40:5; LC-ESI-QTOF; MS2
Name: PE 40:5
Class: PE
Formula: C45H80NO8P
Exact mass: 794.1099999999999
SMILES: CCCCCCCCCCCCCCCCCC(=O)OCC(COP(O)(=O)OCCN)OC(=O)CCCCC\C=C/C\C=C/C\C=C/C\C=C/C\C=C/CC
InChI: InChI=1S/C45H80NO8P/c1-3-5-7-9-11-13-15-17-19-20-21-22-24-26-28-30-32-34-36-38-45(48)54-43(42-53-55(49,50)52-40-39-46)41-51-44(47)37-35-33-31-29-27-25-23-18-16-14-12-10-8-6-4-2/h5,7,11,13,17,19,21-22,26,28,43H,3-4,6,8-10,12,14-16,18,20,23-25,27,29-42,46H2,1-2H3,(H,49,50)/b7-5-,13-11-,19-17-,22-21-,28-26-
Instrument: AB Sciex TripleTOF 5600+ system (Q-TOF) equipped with a DuoSpray ion source
Instrument type: LC-ESI-QTOF
Ms type: MS2
Ion mode: NEGATIVE
Collision energy: 45V
Column name: Acquity UPLC Peptide BEH C18 column (50*2.1 mm; 1.7 um; 130A)(Waters Co.,Milford, MA, USA)
Retention time: 10.46396
Precursor type: [M-H]-
Precursor m/z: 792.5519
m/z	relative intensity
78.959	5
139.998	2
140.011	14
196.036	24
205.117	1
214.047	3
231.133	1
231.211	8
231.225	2
245.154	1
251.193	3
251.204	5
257.224	2
259.18	1
282.375	4
283.262	495
284.26	1
285.257	75
299.237	1
301.212	1
303.231	4
309.278	4
311.235	5
327.227	3
328.202	1
328.223	3
329.245	999
330.245	1
452.249	2
462.271	3
462.294	17
465.233	1
480.303	93
498.939	0
508.252	2
508.278	7
526.257	0
526.296	7
642.544	0
718.538	0
789.989	1
790.04	1
790.084	2
791.472	0
792.466	3
792.545	796
792.811	0
792.924	0
793.106	0
793.51	1
793.549	1
793.579	1
