Mass spectrum: PI 32:1; LC-ESI-QTOF; MS2
Name: PI 32:1
Class: PI
Formula: C41H77O13P
Exact mass: 809.03
SMILES: CCCCCCCCCCCCCCCC(=O)OCC(COP(O)(=O)OC1C(O)C(O)C(O)C(O)C1O)OC(=O)CCCCCCC\C=C/CCCCCC
InChI: InChI=1S/C41H77O13P/c1-3-5-7-9-11-13-15-17-19-21-23-25-27-29-34(42)51-31-33(32-52-55(49,50)54-41-39(47)37(45)36(44)38(46)40(41)48)53-35(43)30-28-26-24-22-20-18-16-14-12-10-8-6-4-2/h14,16,33,36-41,44-48H,3-13,15,17-32H2,1-2H3,(H,49,50)/b16-14-
Instrument: AB Sciex TripleTOF 5600+ system (Q-TOF) equipped with a DuoSpray ion source
Instrument type: LC-ESI-QTOF
Ms type: MS2
Ion mode: NEGATIVE
Collision energy: 45V
Column name: Acquity UPLC Peptide BEH C18 column (50*2.1 mm; 1.7 um; 130A)(Waters Co.,Milford, MA, USA)
Retention time: 8.198328
Precursor type: [M-H]-
Precursor m/z: 807.5014
m/z	relative intensity
152.996	45
158.975	45
222.999	30
241.017	60
253.216	105
255.231	182
259.021	45
269.246	90
283.244	45
284.262	30
297.039	30
327.234	90
389.208	30
391.231	90
415.348	30
551.26	30
553.279	90
720.502	60
807.461	152
807.496	999
807.522	354
