Mass spectrum: PC(16:0e/5-HETE); LC-ESI-QTOF; MS2
Name: PC(16:0e/5-HETE)
Class: Oxidized Phospholipid
Formula: C44H82NO8P
Exact mass: 784.115
SMILES: CCCCCCCCCCCCCCCCOCC(COP([O-])(=O)OCC[N+](C)(C)C)OC(=O)CCCC(O)\C=C\C=C/C\C=C/C\C=C/CCCCC
InChI: InChI=1S/C44H82NO8P/c1-6-8-10-12-14-16-18-20-22-24-26-28-30-32-38-50-40-43(41-52-54(48,49)51-39-37-45(3,4)5)53-44(47)36-33-35-42(46)34-31-29-27-25-23-21-19-17-15-13-11-9-7-2/h15,17,21,23,27,29,31,34,42-43,46H,6-14,16,18-20,22,24-26,28,30,32-33,35-41H2,1-5H3/b17-15-,23-21-,29-27-,34-31+
Instrument: Acquity UPLC Peptide BEH C18 column (50 x 2.1 mm; 1.7 um), Sciex TripleTOF5600
Instrument type: LC-ESI-QTOF
Ms type: MS2
Ion mode: NEGATIVE
Collision energy: 30-50
Precursor m/z: 842.5916581
Precursor type: [M+CH3COOH-H]-
m/z	relative intensity
115.0354	32
115.0384	32
115.0399	67
115.0415	67
115.0445	32
115.046	32
115.0505	50
203.1768	50
203.1788	50
203.1849	67
203.1889	50
222.9936	32
241.0107	32
241.0173	50
241.0195	32
257.2143	32
257.2165	83
257.2188	99
257.221	50
257.2233	99
257.2256	83
257.2278	115
257.2301	99
257.2324	149
257.2346	67
257.2369	32
257.2391	67
257.2437	32
281.2371	32
300.2726	32
301.2024	50
301.2048	50
301.2072	115
301.2097	115
301.2122	99
301.2146	182
301.2171	216
301.2195	133
301.222	99
301.2244	99
301.2268	83
301.2293	83
301.2318	115
301.2464	32
303.2186	50
303.2211	67
303.2235	67
303.226	50
303.2285	83
303.2309	83
303.2333	133
303.2358	67
303.2383	99
303.2432	67
319.21	50
319.2125	83
319.215	83
319.2175	198
319.22	198
319.2226	166
319.2251	149
319.2276	331
319.2301	216
319.2326	115
319.2352	99
319.2377	99
319.2402	166
319.2427	83
319.2452	50
319.2478	32
319.2503	50
377.224	32
377.2295	32
377.2322	32
377.2349	67
377.2377	67
377.2404	133
377.2432	83
377.2459	67
377.2486	32
377.2514	83
377.2541	99
377.2568	83
377.2596	32
377.2623	32
378.2441	32
395.2498	32
431.5781	32
448.3043	32
448.3073	32
448.3163	32
448.3252	32
448.3282	50
448.3312	32
448.3342	32
466.2895	32
466.2986	50
466.3078	67
466.3109	83
466.3139	83
466.3169	166
466.32	83
466.323	115
466.3261	67
466.3291	99
466.3322	182
466.3352	216
466.3383	149
466.3413	149
466.3444	198
466.3474	83
466.3505	50
466.3535	32
466.3566	83
466.3687	32
539.2776	32
539.2907	32
539.2972	83
539.3038	50
539.3169	32
539.3202	32
557.3196	32
723.4758	32
723.5366	34
768.4822	50
768.4901	32
768.494	32
768.4979	67
768.5018	99
768.5057	32
768.5096	84
768.5135	206
768.5175	193
768.5214	315
768.5253	193
768.5292	283
768.5331	508
768.537	393
768.541	723
768.5449	658
768.5488	781
768.5527	674
768.5566	999
768.5605	903
768.5644	776
768.5683	781
768.5722	759
768.5761	737
768.5801	619
768.584	442
768.5879	387
768.5918	403
768.5957	213
768.5996	265
768.6035	106
768.6074	123
768.6113	123
768.6152	88
768.6191	50
768.6231	68
768.627	107
768.6309	50
768.6387	32
769.5348	50
769.5465	50
769.5544	50
769.5661	32
769.57	32
769.5857	32
769.6052	32
782.4858	32
782.4937	32
842.4774	32
842.506	50
842.5101	32
842.5429	50
842.547	67
842.5552	50
842.5593	83
842.5634	32
842.5675	83
842.5716	67
842.5798	67
842.5839	50
842.588	32
842.592	83
842.5961	32
842.6002	99
842.6044	99
842.6085	133
842.6125	83
842.6166	115
842.6207	50
842.6248	32
842.6289	32
842.6371	32
842.6412	32
843.4852	68
843.4893	50
843.4933	67
843.4974	167
843.5015	67
843.5056	239
843.5098	154
843.5139	185
843.5179	359
843.522	275
843.5261	239
843.5302	479
843.5343	599
843.5385	377
843.5425	479
843.5466	463
843.5507	445
843.5548	343
843.5589	375
843.563	377
843.5671	323
843.5712	239
843.5753	188
843.5794	169
843.5835	135
843.5876	185
843.5917	84
843.5958	117
843.5999	50
843.6081	32
843.6122	32
