Mass spectrum: PI 40:5; LC-ESI-QTOF; MS2
Name: PI 40:5
Class: PI
Formula: C49H85O13P
Exact mass: 913.182
SMILES: CCCCCCCCCCCCCCCCCC(=O)OCC(COP(O)(=O)OC1C(O)C(O)C(O)C(O)C1O)OC(=O)CCCCC\C=C/C\C=C/C\C=C/C\C=C/C\C=C/CC
InChI: InChI=1S/C49H85O13P/c1-3-5-7-9-11-13-15-17-19-20-21-22-24-26-28-30-32-34-36-38-43(51)61-41(40-60-63(57,58)62-49-47(55)45(53)44(52)46(54)48(49)56)39-59-42(50)37-35-33-31-29-27-25-23-18-16-14-12-10-8-6-4-2/h5,7,11,13,17,19,21-22,26,28,41,44-49,52-56H,3-4,6,8-10,12,14-16,18,20,23-25,27,29-40H2,1-2H3,(H,57,58)/b7-5-,13-11-,19-17-,22-21-,28-26-
Instrument: AB Sciex TripleTOF 5600+ system (Q-TOF) equipped with a DuoSpray ion source
Instrument type: LC-ESI-QTOF
Ms type: MS2
Ion mode: NEGATIVE
Collision energy: 45V
Column name: Acquity UPLC Peptide BEH C18 column (50*2.1 mm; 1.7 um; 130A)(Waters Co.,Milford, MA, USA)
Retention time: 8.794852
Precursor type: [M-H]-
Precursor m/z: 911.5652
m/z	relative intensity
78.958	2
96.963	0
96.97	0
152.995	8
171.006	0
204.991	0
219.146	0
223.0	14
231.211	0
240.266	0
241.011	58
242.014	0
251.196	0
259.021	5
282.375	0
283.264	85
284.268	1
285.255	3
285.277	0
297.036	11
303.226	0
309.278	1
311.238	0
315.046	4
327.234	0
328.221	0
329.247	72
329.288	0
330.254	0
419.22	1
419.254	42
420.259	0
437.267	3
445.272	0
465.24	7
466.241	0
520.493	0
525.281	0
579.462	0
581.283	8
581.309	50
599.308	5
599.324	7
607.321	0
627.287	8
627.316	1
645.288	1
645.308	0
645.332	0
723.489	1
749.463	0
749.492	2
749.526	1
751.497	0
751.535	0
791.514	0
819.538	0
829.491	0
829.544	0
833.527	0
861.525	0
879.515	0
879.542	0
893.506	0
908.635	1
908.689	4
908.739	0
910.505	0
910.603	0
911.184	0
911.463	0
911.564	999
911.797	0
911.992	0
912.263	0
912.502	0
912.554	4
912.597	2
913.582	0
