Mass spectrum: PC(16:0/12-HETE); LC-ESI-QTOF; MS2
Name: PC(16:0/12-HETE)
Class: Oxidized Phospholipid
Formula: C44H80NO9P
Exact mass: 798.098
SMILES: CCCCCCCCCCCCCCCC(=O)OCC(COP([O-])(=O)OCC[N+](C)(C)C)OC(=O)CCC\C=C/C\C=C/C=C/C(O)C\C=C/CCCCC
InChI: InChI=1S/C44H80NO9P/c1-6-8-10-12-14-15-16-17-18-19-23-27-31-35-43(47)51-39-42(40-53-55(49,50)52-38-37-45(3,4)5)54-44(48)36-32-28-24-21-20-22-26-30-34-41(46)33-29-25-13-11-9-7-2/h21-22,24-26,29-30,34,41-42,46H,6-20,23,27-28,31-33,35-40H2,1-5H3/b24-21-,26-22-,29-25-,34-30+
Instrument: Acquity UPLC Peptide BEH C18 column (50 x 2.1 mm; 1.7 um), Sciex TripleTOF5600
Instrument type: LC-ESI-QTOF
Ms type: MS2
Ion mode: NEGATIVE
Collision energy: 30-50
Precursor m/z: 856.5709227
Precursor type: [M+CH3COOH-H]-
m/z	relative intensity
78.95554	3
78.95679	3
78.95805	2
78.9593	3
78.96056	5
78.96181	5
78.96306	3
78.96432	3
78.96557	2
78.96808	3
107.0844	5
107.0874	9
107.0888	4
107.0903	7
107.0917	2
107.0947	5
108.0605	2
111.1135	4
125.0002	2
135.1115	3
135.1131	7
135.1148	10
135.1164	9
135.1181	5
135.1197	16
135.1213	12
135.123	5
135.1246	4
135.1263	3
135.1279	2
135.1295	2
135.1328	3
137.128	2
139.108	2
139.1096	3
139.1113	7
139.1129	4
139.1146	5
139.1179	2
139.1279	2
151.1448	2
151.1466	2
151.1483	2
151.15	2
152.9892	3
152.9926	2
152.9944	5
152.9961	3
152.9996	2
153.0014	2
153.1271	2
153.1288	2
153.1323	2
161.0938	2
161.0956	3
161.0992	2
163.0805	2
163.104	11
163.1058	13
163.1076	14
163.1094	26
163.1112	19
163.113	15
163.1148	7
163.1166	19
163.1184	12
163.1202	4
163.122	4
163.1238	2
165.094	2
167.5195	2
168.0312	8
168.033	5
168.0349	12
168.0367	10
168.0385	13
168.0403	23
168.0422	14
168.044	25
168.0458	18
168.0477	17
168.0495	10
168.0513	5
168.0531	5
168.0605	2
168.0623	3
168.0659	2
177.0977	2
177.1034	2
177.1691	3
178.554	2
178.8936	2
178.9257	2
179.0427	2
179.088	2
179.0899	3
179.0918	2
179.0937	8
179.0956	21
179.0974	26
179.0993	44
179.1012	70
179.1031	106
179.105	99
179.1069	116
179.1088	132
179.1107	101
179.1126	84
179.1145	65
179.1163	40
179.1182	28
179.1201	19
179.122	22
179.1239	12
179.1258	5
179.1277	5
179.1296	1
179.1314	3
179.1333	2
179.1409	2
179.2693	1
179.6152	1
180.1034	2
180.1053	2
180.1072	5
180.1091	2
180.111	5
180.1129	2
180.1148	3
180.1167	5
180.1186	5
180.1205	4
181.1103	2
189.084	2
203.1645	3
203.1665	3
203.1705	2
203.1726	9
203.1746	9
203.1766	7
203.1786	14
203.1806	10
203.1826	14
203.1846	15
203.1866	9
203.1886	7
203.1927	2
205.2049	2
206.0547	3
206.0607	6
207.0909	2
207.093	5
207.095	3
207.097	4
207.0991	5
207.1011	7
207.1031	4
207.1051	6
207.1072	3
207.1092	6
207.1112	2
207.1153	5
208.0565	2
208.0748	2
208.0952	5
208.0972	10
208.0993	12
208.1013	15
208.1033	22
208.1054	30
208.1074	52
208.1095	30
208.1115	33
208.1135	47
208.1156	15
208.1176	26
208.1196	12
208.1217	8
208.1237	3
208.1257	2
208.1278	2
208.1298	2
208.2968	1
209.647	1
219.2147	2
223.1682	2
223.1745	2
223.3685	2
224.0058	2
224.048	3
224.0502	2
224.0565	12
224.0586	13
224.0607	16
224.0628	23
224.0649	23
224.067	28
224.0692	38
224.0713	25
224.0734	30
224.0755	14
224.0776	16
224.0797	12
224.0818	9
224.0839	4
224.086	3
229.1903	2
229.1924	2
229.1946	2
229.201	3
240.9972	2
240.9994	2
241.0038	2
241.0082	3
241.0147	2
242.0695	2
242.0739	3
242.0761	3
242.0783	2
253.2084	2
253.2152	4
253.2174	2
254.42	2
254.4268	5
254.429	2
254.4358	2
254.438	3
254.4403	3
254.4426	4
254.4493	2
254.4516	3
254.4561	2
254.4808	2
254.8208	3
254.8794	3
254.9582	3
255.1227	3
255.1858	3
255.1881	2
255.2061	5
255.2083	8
255.2106	10
255.2129	25
255.2151	35
255.2174	54
255.2196	90
255.2219	147
255.2241	268
255.2264	373
255.2286	380
255.2309	502
255.2332	483
255.2354	544
255.2377	441
255.2399	386
255.2422	246
255.2444	165
255.2467	104
255.2489	53
255.2512	30
255.2534	29
255.2557	28
255.2579	11
255.2602	10
255.2625	3
255.2647	1
255.267	1
255.2692	2
255.2715	1
255.276	2
255.5533	1
255.6097	1
255.9776	1
256.113	1
256.2214	2
256.226	2
256.2282	4
256.2305	3
256.2327	3
256.235	4
256.2395	5
256.2418	11
256.244	4
256.2463	3
256.2485	2
256.2508	3
256.4225	2
256.4247	3
256.7728	2
256.861	2
257.0238	2
257.0442	2
257.1505	2
257.1641	2
257.198	2
257.2003	2
257.2026	3
257.2048	11
257.2071	7
257.2094	3
257.2116	13
257.2139	12
257.2161	38
257.2184	35
257.2207	52
257.2229	52
257.2252	57
257.2274	71
257.2297	73
257.232	58
257.2343	47
257.2365	44
257.2388	27
257.241	17
257.2433	6
257.2456	10
257.2478	2
257.2501	3
257.2523	1
257.2591	1
257.3406	1
257.481	1
257.5964	2
257.7074	1
258.0949	2
258.2422	2
258.2536	2
275.2164	3
275.2234	2
275.2258	5
275.2281	2
275.2305	6
275.2328	6
275.2351	10
275.2375	14
275.2398	9
275.2422	5
275.2445	4
275.2469	4
275.2562	2
279.2195	2
281.2413	2
281.2484	2
281.2532	3
282.2597	2
283.2064	2
283.2467	2
291.2216	3
291.224	2
291.236	2
291.2408	3
293.1051	2
293.2066	2
293.2138	3
300.2745	3
300.2769	2
300.2867	4
301.17	2
301.1798	2
301.1896	1
301.1921	1
301.1945	10
301.197	15
301.1994	15
301.2019	30
301.2043	40
301.2068	67
301.2092	94
301.2117	118
301.2141	109
301.2166	118
301.219	147
301.2215	110
301.2239	86
301.2263	75
301.2288	59
301.2313	33
301.2337	20
301.2361	14
301.2386	7
301.2411	8
301.2435	2
301.2459	2
301.2607	1
301.2998	1
301.3268	1
302.013	1
302.0522	1
302.1331	1
302.2091	3
302.2116	2
303.2255	2
318.2018	2
318.2094	3
318.2144	3
318.2195	3
318.222	5
318.2245	3
318.227	2
318.2296	3
318.2321	4
318.2346	5
318.2371	4
318.2396	4
318.2421	3
318.2522	2
318.2572	2
319.1615	3
319.1918	2
319.1943	1
319.1968	6
319.1993	7
319.2018	20
319.2044	41
319.2069	53
319.2094	126
319.2119	132
319.2144	221
319.217	391
319.2195	475
319.222	615
319.2245	622
319.2271	683
319.2296	792
319.2321	684
319.2346	578
319.2372	402
319.2397	279
319.2422	189
319.2447	105
319.2472	73
319.2498	46
319.2523	25
319.2548	19
319.2573	17
319.2598	5
319.2624	7
319.2674	2
319.28	2
319.2926	2
319.4162	1
319.5347	2
319.681	2
319.9485	1
320.2186	3
320.2211	3
320.2236	3
320.2261	4
320.2287	11
320.2312	6
320.2337	12
320.2362	11
320.2388	10
320.2413	3
320.2438	5
320.2463	4
320.2489	2
320.2514	4
320.259	2
321.1105	2
322.2999	2
333.2172	2
333.2249	4
333.2275	2
333.23	4
333.2326	4
333.2352	5
333.2378	5
333.2404	7
333.2429	11
333.2455	11
333.2481	6
333.2507	11
333.2532	9
333.2558	3
333.2584	5
333.261	2
349.1031	2
363.2126	2
391.2004	2
391.2032	2
391.206	5
391.2088	4
391.2116	2
391.2144	4
391.2172	9
391.22	11
391.2228	11
391.2256	13
391.2284	7
391.2311	7
391.2339	13
391.2367	9
391.2395	10
391.2423	5
391.2451	3
391.2563	3
406.2676	2
406.2761	2
406.2818	2
409.2136	2
409.2221	3
409.225	3
409.2278	2
409.2307	6
409.2336	6
409.2364	6
409.2393	9
409.2421	2
409.245	4
409.2507	3
409.2564	4
414.1835	2
419.2442	2
419.2471	4
419.25	3
419.2528	6
419.2615	4
419.2673	2
419.2702	4
427.9882	2
428.6949	2
431.3223	2
437.2501	2
437.2737	2
437.2766	2
449.6996	2
451.9885	2
455.2039	2
455.21	3
455.228	2
455.231	2
455.234	4
455.2521	2
460.8113	2
461.2112	2
462.2603	2
462.2664	2
462.2694	4
462.2724	6
462.2755	7
462.2785	10
462.2815	12
462.2845	10
462.2876	19
462.2906	19
462.2936	21
462.2967	16
462.2997	17
462.3028	26
462.3058	8
462.3088	24
462.3119	16
462.3149	12
462.3179	12
462.321	7
462.324	13
462.327	1
462.33	6
462.3331	1
463.019	2
468.439	2
470.2609	2
470.2639	3
477.2784	2
478.7962	2
479.7414	2
480.1587	2
480.2484	2
480.2607	2
480.2638	2
480.2669	3
480.27	6
480.2731	7
480.2762	12
480.2793	21
480.2824	17
480.2855	31
480.2886	43
480.2917	70
480.2947	70
480.2979	97
480.3009	93
480.304	96
480.3071	130
480.3102	131
480.3133	123
480.3164	152
480.3195	116
480.3226	94
480.3257	79
480.3288	77
480.3318	46
480.335	41
480.338	27
480.3411	24
480.3442	13
480.3473	12
480.3504	6
480.3535	7
480.3566	2
480.3628	1
480.3659	1
481.2817	2
481.3033	3
481.3095	2
481.3188	2
481.3219	2
481.3436	1
495.2804	2
518.3173	2
519.3232	2
521.2253	2
526.2529	3
526.2626	2
526.2658	4
526.269	3
526.2723	11
526.2755	9
526.2788	6
526.282	6
526.2853	4
526.2885	13
526.2917	9
526.295	12
526.2982	18
526.3015	10
526.3047	13
526.3079	15
526.3112	4
526.3144	5
526.3176	7
526.3209	4
526.3241	6
526.3273	2
526.3306	2
534.2977	2
534.327	2
534.3368	2
544.2617	2
544.2683	3
544.2716	2
544.2749	2
544.2815	3
544.2848	4
544.2881	4
544.2914	5
544.2947	10
544.2979	7
544.3013	11
544.3045	4
544.3078	9
544.3111	4
544.3144	6
544.3177	2
544.321	3
544.3243	4
544.3276	2
544.3309	5
544.3342	2
544.3375	2
544.3441	2
545.2991	2
545.3387	2
545.4573	2
546.3474	4
546.354	2
551.2791	2
589.3362	2
589.3465	3
589.3499	2
589.3533	5
589.3602	2
589.3636	5
589.367	2
589.3705	6
589.3739	6
589.3773	7
589.3807	12
589.3842	12
589.3876	9
589.391	9
589.3945	5
589.3979	4
589.4013	4
589.4116	2
589.415	2
597.3442	2
597.3545	2
626.3448	3
626.3484	2
626.3625	2
627.3446	2
627.3481	2
627.3517	3
627.3552	4
627.3587	2
627.3622	2
627.3658	3
627.3693	2
627.3729	5
627.3764	3
627.3799	2
627.3835	2
627.387	4
627.3905	3
627.394	4
628.3734	2
628.3876	2
640.3851	2
643.4058	2
643.4094	2
643.4344	2
643.438	4
670.382	4
670.3856	2
670.3893	4
670.3929	10
670.3965	6
670.4002	9
670.4039	5
670.4075	5
670.4112	4
670.4149	4
670.4185	4
670.4222	7
670.4258	6
670.4294	6
670.4331	7
670.4368	5
670.4404	3
670.4441	4
670.4477	3
670.4733	2
671.3724	2
671.3906	3
671.3979	2
671.4053	6
671.4089	2
671.4126	3
671.4163	3
671.4199	6
671.4235	4
671.4272	2
671.4308	4
671.4345	3
671.4382	5
671.4418	4
671.4528	2
684.41	3
684.4358	2
685.4033	2
685.4144	4
685.418	3
685.4218	6
685.4254	5
685.4291	4
685.4328	6
685.4365	7
685.4402	5
685.4439	4
685.4476	2
685.455	5
685.4587	2
685.4624	3
685.4698	3
685.4808	4
709.2296	2
711.3843	2
711.3956	2
711.3994	4
711.4031	2
711.4069	2
711.4106	6
711.4144	2
711.4182	3
711.4219	6
711.4257	16
711.4295	13
711.4332	9
711.437	24
711.4408	31
711.4445	23
711.4483	25
711.4521	29
711.4558	29
711.4596	36
711.4634	48
711.4671	34
711.4709	42
711.4747	36
711.4784	42
711.4822	27
711.486	26
711.4897	21
711.4935	17
711.4973	13
711.501	16
711.5048	9
711.5085	5
711.5123	6
711.5161	2
711.5198	1
711.5236	3
711.5273	2
711.5349	2
711.5424	4
712.4347	2
712.4648	2
719.4379	2
719.4795	2
737.4387	2
737.4501	2
737.454	3
737.4616	3
737.4655	3
737.4693	7
737.4731	9
737.477	6
737.4808	7
737.4846	5
737.4885	12
737.4923	6
737.4961	5
737.4999	4
737.5038	13
737.5076	3
737.5153	3
737.5191	3
737.5229	2
737.5268	3
737.5344	2
738.4467	3
738.4543	2
738.4889	2
738.5042	2
738.5234	2
778.5498	4
780.0151	2
780.019	4
780.0269	4
780.0427	5
780.0466	4
780.0505	7
780.0544	6
780.0584	3
780.0623	9
780.0663	7
780.0703	11
780.0742	7
780.0781	6
780.082	10
780.086	5
780.0899	4
780.0939	13
780.0978	6
780.1017	6
780.1057	3
780.1096	3
780.1136	4
780.1175	4
780.1215	3
780.1254	3
780.1333	2
780.1372	2
780.153	2
780.4683	2
781.04	2
781.1385	2
781.4896	2
781.5211	2
781.5251	2
781.529	2
781.533	2
781.5448	2
781.5882	2
781.6473	2
781.9037	2
782.1248	2
782.2076	4
782.2708	2
782.2865	2
782.326	2
782.4049	2
782.4484	2
782.476	16
782.4799	30
782.4839	41
782.4878	46
782.4918	89
782.4957	106
782.4996	188
782.5036	223
782.5076	319
782.5115	452
782.5154	597
782.5194	659
782.5233	939
782.5273	884
782.5313	940
782.5352	916
782.5391	819
782.543	963
782.547	950
782.551	999
782.5549	805
782.5588	711
782.5628	461
782.5667	327
782.5707	191
782.5746	128
782.5786	52
782.5825	46
782.5865	32
782.5905	23
782.5944	37
782.5983	12
782.6023	7
782.6062	9
782.6141	5
782.622	2
782.626	5
782.9023	3
782.9418	2
783.0168	2
783.1668	3
783.2656	2
783.3169	2
783.459	2
783.4669	3
783.4749	4
783.4788	4
783.4827	10
783.4867	5
783.4907	5
783.4946	11
783.4985	10
783.5025	13
783.5065	20
783.5104	17
783.5143	31
783.5182	25
783.5222	31
783.5262	16
783.5302	38
783.5341	40
783.538	36
783.542	28
783.546	34
783.5499	28
783.5538	26
783.5578	38
783.5617	37
783.5657	29
783.5696	25
783.5736	19
783.5775	16
783.5815	12
783.5854	8
783.5894	3
783.5933	7
783.5973	3
783.6012	2
783.6052	6
783.6091	4
783.6131	2
783.9172	1
783.9449	2
783.9489	2
784.0871	2
784.4941	2
784.506	2
784.5376	2
784.5416	2
784.5534	2
785.1859	2
786.3526	2
787.7103	2
789.0533	2
789.3824	3
790.3024	2
790.4491	2
791.5761	2
793.4549	2
796.4943	3
796.5023	6
796.5063	2
796.5103	5
796.5142	5
796.5182	11
796.5222	9
796.5262	7
796.5302	15
796.5341	12
796.5381	14
796.5421	33
796.5461	29
796.55	18
796.5541	27
796.558	25
796.562	18
796.566	22
796.57	13
796.574	11
796.5779	11
796.5819	14
796.5859	10
796.5899	6
796.5939	9
796.5978	4
796.6058	2
796.6178	2
796.6218	3
796.6417	2
796.6456	2
797.0798	2
797.4423	2
797.4464	7
797.4503	3
797.4543	11
797.4583	10
797.4623	7
797.4662	11
797.4702	14
797.4742	12
797.4782	24
797.4822	17
797.4861	19
797.4902	27
797.4941	18
797.4981	19
797.5021	28
797.5061	17
797.5101	18
797.514	21
797.5181	19
797.522	13
797.526	16
797.53	12
797.534	13
797.538	11
797.5419	8
797.546	6
797.5499	3
797.5858	2
797.7372	2
798.4866	2
809.5247	2
809.5368	2
809.5408	5
809.5488	2
809.5529	4
809.5568	3
809.5609	5
809.5649	2
809.5689	2
809.5729	2
809.589	2
809.593	2
856.4406	2
856.4448	2
856.453	2
856.4572	2
856.4612	2
856.4654	4
856.4695	4
856.4736	5
856.4778	2
856.4819	6
856.486	2
856.4902	11
856.4943	14
856.4984	11
856.5026	4
856.5108	7
856.515	7
856.519	13
856.5232	13
856.5273	9
856.5314	19
856.5356	14
856.5397	39
856.5438	61
856.548	59
856.5521	61
856.5562	70
856.5604	79
856.5645	91
856.5686	85
856.5728	98
856.5769	76
856.581	102
856.5851	83
856.5893	98
856.5934	75
856.5975	70
856.6017	66
856.6058	62
856.6099	34
856.6141	36
856.6182	28
856.6223	17
856.6265	8
856.6306	7
856.6347	6
856.6389	4
856.6429	10
856.6471	4
856.6512	1
856.6553	3
856.6595	2
857.5352	2
857.5394	1
857.5518	2
857.5558	4
857.5641	2
857.5682	3
857.5765	7
857.5806	3
857.5931	3
857.6055	3
857.6137	2
857.6509	2
