Mass spectrum: PI 38:5; LC-ESI-QTOF; MS2
Name: PI 38:5
Class: PI
Formula: C47H81O13P
Exact mass: 885.1279999999999
SMILES: CCCCCCCC\C=C/CCCCCCCC(=O)OCC(COP(O)(=O)OC1C(O)C(O)C(O)C(O)C1O)OC(=O)CCCCCC\C=C/C\C=C/C\C=C/C\C=C/CC
InChI: InChI=1S/C47H81O13P/c1-3-5-7-9-11-13-15-17-19-20-22-24-26-28-30-32-34-36-41(49)59-39(38-58-61(55,56)60-47-45(53)43(51)42(50)44(52)46(47)54)37-57-40(48)35-33-31-29-27-25-23-21-18-16-14-12-10-8-6-4-2/h5,7,11,13,17-19,21-22,24,39,42-47,50-54H,3-4,6,8-10,12,14-16,20,23,25-38H2,1-2H3,(H,55,56)/b7-5-,13-11-,19-17-,21-18-,24-22-
Instrument: AB Sciex TripleTOF 5600+ system (Q-TOF) equipped with a DuoSpray ion source
Instrument type: LC-ESI-QTOF
Ms type: MS2
Ion mode: NEGATIVE
Collision energy: 45V
Column name: Acquity UPLC Peptide BEH C18 column (50*2.1 mm; 1.7 um; 130A)(Waters Co.,Milford, MA, USA)
Retention time: 8.352509
Precursor type: [M-H]-
Precursor m/z: 883.5337
m/z	relative intensity
78.955	2
78.961	1
96.967	1
134.981	0
152.995	11
171.005	0
204.988	0
205.192	1
223.0	15
231.212	0
240.259	0
241.011	65
251.2	0
255.233	40
257.23	0
259.02	4
259.242	3
280.372	0
281.248	56
283.254	0
283.266	1
285.257	2
297.036	12
301.206	0
301.222	0
303.232	48
315.049	5
329.246	45
391.222	21
409.233	2
417.239	25
417.285	0
419.26	0
435.242	1
435.271	0
439.219	2
439.243	0
465.244	3
486.939	0
497.25	0
553.272	26
553.297	8
571.247	0
571.269	2
571.291	3
579.287	29
579.308	7
581.316	1
597.265	0
597.302	5
597.33	1
597.355	0
599.285	0
601.271	5
619.279	0
627.266	1
627.297	5
627.334	0
645.306	1
721.459	0
721.48	1
723.495	0
763.481	0
796.496	0
809.573	2
809.616	5
809.654	1
823.591	0
823.652	1
851.505	0
865.522	0
880.708	1
880.755	1
880.803	1
882.346	0
882.979	0
883.29	0
883.351	0
883.533	999
883.631	1
883.723	0
883.816	0
884.504	1
884.535	2
884.561	1
884.994	0
