Mass spectrum: PG 38:7; LC-ESI-QTOF; MS2
Name: PG 38:7
Class: PG
Formula: C44H73O10P
Exact mass: 793.034
SMILES: CCCCC\C=C/C\C=C/CCCCCCCC(=O)OCC(COP(O)(=O)OCC(O)CO)OC(=O)CCC\C=C/C\C=C/C\C=C/C\C=C/C\C=C/CC
InChI: InChI=1S/C44H73O10P/c1-3-5-7-9-11-13-15-17-19-20-22-24-26-28-30-32-34-36-44(48)54-42(40-53-55(49,50)52-38-41(46)37-45)39-51-43(47)35-33-31-29-27-25-23-21-18-16-14-12-10-8-6-4-2/h5,7,11-14,17-19,21-22,24,28,30,41-42,45-46H,3-4,6,8-10,15-16,20,23,25-27,29,31-40H2,1-2H3,(H,49,50)/b7-5-,13-11-,14-12-,19-17-,21-18-,24-22-,30-28-
Instrument: AB Sciex TripleTOF 5600+ system (Q-TOF) equipped with a DuoSpray ion source
Instrument type: LC-ESI-QTOF
Ms type: MS2
Ion mode: NEGATIVE
Collision energy: 45V
Column name: Acquity UPLC Peptide BEH C18 column (50*2.1 mm; 1.7 um; 130A)(Waters Co.,Milford, MA, USA)
Retention time: 7.740366
Precursor type: [M-H]-
Precursor m/z: 791.4865
m/z	relative intensity
152.985	10
152.999	12
203.182	12
253.208	15
253.222	24
255.226	4
257.217	48
257.231	46
277.219	11
279.231	999
283.21	6
283.253	10
283.276	8
291.191	7
293.217	5
297.243	3
300.278	3
301.216	522
303.233	4
327.234	25
415.231	5
433.243	3
437.194	8
437.212	10
455.222	7
463.248	2
463.296	2
479.28	3
480.112	2
480.301	2
489.253	15
507.273	18
511.247	15
529.256	18
622.922	2
627.484	2
653.532	3
709.465	2
731.542	3
755.505	4
773.487	2
788.996	2
791.225	2
791.466	469
791.491	698
791.509	183
792.477	7
