Mass spectrum: PC(16:0/8-HEPE); LC-ESI-QTOF; MS2
Name: PC(16:0/8-HEPE)
Class: Oxidized Phospholipid
Formula: C44H78NO9P
Exact mass: 796.082
SMILES: CCCCCCCCCCCCCCCC(=O)OCC(COP([O-])(=O)OCC[N+](C)(C)C)OC(=O)CCC\C=C/CC(O)\C=C\C=C/C\C=C/C\C=C/CC
InChI: InChI=1S/C44H78NO9P/c1-6-8-10-12-14-16-18-19-20-22-24-26-31-35-43(47)51-39-42(40-53-55(49,50)52-38-37-45(3,4)5)54-44(48)36-32-28-27-30-34-41(46)33-29-25-23-21-17-15-13-11-9-7-2/h9,11,15,17,23,25,27,29-30,33,41-42,46H,6-8,10,12-14,16,18-22,24,26,28,31-32,34-40H2,1-5H3/b11-9-,17-15-,25-23-,30-27-,33-29+
Instrument: Acquity UPLC Peptide BEH C18 column (50 x 2.1 mm; 1.7 um), Sciex TripleTOF5600
Instrument type: LC-ESI-QTOF
Ms type: MS2
Ion mode: NEGATIVE
Collision energy: 30-50
Precursor m/z: 854.5552726
Precursor type: [M+CH3COOH-H]-
m/z	relative intensity
127.0782	8
155.0587	8
155.0622	8
155.0657	8
155.0675	18
155.0692	26
155.071	18
155.0727	15
155.0745	18
155.0763	15
155.0815	8
161.1365	11
161.1419	8
168.0346	15
168.0364	11
168.0383	11
168.0401	8
168.0437	11
168.0456	8
168.0474	15
168.0492	8
190.1329	8
201.1701	8
224.0626	8
224.0668	11
224.0689	22
224.071	18
224.0774	8
229.1986	8
242.0781	8
254.2218	8
254.4311	8
254.4356	8
254.4446	8
254.4513	8
255.1969	29
255.2014	26
255.2036	8
255.2059	27
255.2081	60
255.2104	50
255.2126	92
255.2149	131
255.2172	158
255.2194	266
255.2217	351
255.2239	464
255.2262	694
255.2284	732
255.2307	753
255.2329	769
255.2352	896
255.2375	787
255.2397	515
255.242	444
255.2442	266
255.2465	218
255.2487	85
255.251	94
255.2532	66
255.2555	55
255.2577	48
255.26	4
255.2623	16
255.2668	8
255.2848	4
256.2303	11
256.2415	8
256.2438	8
257.3291	8
273.2162	8
273.2325	8
281.2459	8
281.253	8
281.2577	8
291.101	8
291.1925	8
291.1997	11
299.18	8
299.1848	8
299.1873	26
299.1897	22
299.1922	22
299.1946	26
299.1971	33
299.1995	37
299.2019	22
299.2044	52
299.2068	26
299.2093	8
299.2117	18
299.2141	15
299.2166	11
299.219	8
299.2215	8
317.1857	8
317.1882	8
317.1932	11
317.1957	8
317.1982	29
317.2007	18
317.2033	55
317.2058	70
317.2083	73
317.2108	103
317.2133	73
317.2158	66
317.2184	63
317.2209	55
317.2234	33
317.2259	44
317.2284	29
317.2309	8
317.2334	8
317.2359	15
331.2444	8
453.1952	8
462.2694	8
462.2997	8
471.2099	8
480.2793	8
480.2979	8
480.3133	18
480.3164	18
480.3195	33
480.3257	8
480.3288	15
480.3319	8
480.335	8
524.2513	18
524.2545	8
524.2707	8
524.2739	8
524.2772	8
524.2804	11
524.2836	15
524.2868	8
524.29	18
524.3094	8
534.3173	8
542.2557	11
542.2689	11
542.2722	22
542.2755	26
542.2787	22
542.282	26
542.2853	37
542.2886	33
542.2919	15
542.2952	18
542.2985	33
542.3018	22
542.3051	29
542.3083	29
542.3116	22
542.3149	11
542.3248	11
542.328	8
542.351	8
546.3442	8
589.3843	8
589.3946	11
709.4253	15
709.4328	33
709.4366	18
709.4404	8
709.4441	15
709.4516	15
709.4554	11
709.4591	11
709.4704	26
709.4742	11
709.4779	8
709.4854	8
735.4479	11
735.4594	8
735.4632	11
735.4861	15
778.0385	8
778.0503	8
778.0818	11
778.0936	11
779.1094	8
779.5663	8
780.4254	11
780.4411	8
780.4451	8
780.449	22
780.4529	29
780.4569	44
780.4608	18
780.4648	24
780.4687	46
780.4727	58
780.4766	166
780.4805	178
780.4845	258
780.4884	283
780.4924	379
780.4963	394
780.5002	532
780.5042	643
780.5081	753
780.5121	760
780.516	932
780.52	834
780.5239	840
780.5278	912
780.5318	901
780.5357	999
780.5397	870
780.5436	714
780.5475	634
780.5515	443
780.5554	427
780.5594	354
780.5633	261
780.5673	199
780.5712	201
780.5751	126
780.5791	98
780.583	50
780.587	37
780.5909	57
780.5948	31
780.5988	22
780.6067	10
780.6185	8
780.6343	8
781.348	8
781.4703	8
781.4939	11
781.4979	22
781.5018	15
781.5057	8
781.5097	18
781.5136	26
781.5215	8
781.5255	18
781.5294	11
781.5334	11
781.5373	15
781.5413	15
781.5452	8
781.5491	8
781.561	11
781.5688	8
781.7424	8
794.5209	11
794.5328	15
794.5368	8
794.5408	8
794.5447	8
794.5487	8
794.5607	8
794.5765	11
795.4399	8
795.4478	11
795.4557	8
795.4677	18
795.4717	11
795.4836	8
795.4916	11
795.4955	11
795.4996	11
795.5075	11
795.5154	15
821.5852	8
854.4727	11
854.485	8
854.4933	8
854.5015	11
854.5056	8
854.5098	18
854.5139	18
854.518	8
854.5222	18
854.5262	33
854.5304	26
854.5345	52
854.5386	44
854.5428	48
854.5469	33
854.551	66
854.5551	55
854.5593	81
854.5634	89
854.5675	58
854.5717	63
854.5757	70
854.5799	48
854.584	33
854.5881	40
854.5923	58
854.5964	18
854.6005	37
854.6046	26
854.6088	22
854.6129	11
854.617	15
854.6335	8
