Mass spectrum: PG(16:0/5-HEPE); LC-ESI-QTOF; MS2
Name: PG(16:0/5-HEPE)
Class: Oxidized Phospholipid
Formula: C42H73O11P
Exact mass: 785.011
SMILES: CCCCCCCCCCCCCCCC(=O)OCC(COP(O)(=O)OCC(O)CO)OC(=O)CCCC(O)\C=C\C=C/C\C=C/C\C=C/C\C=C/CC
InChI: InChI=1S/C42H73O11P/c1-3-5-7-9-11-13-15-17-19-21-23-25-27-30-38(44)31-29-33-42(47)53-40(37-52-54(48,49)51-35-39(45)34-43)36-50-41(46)32-28-26-24-22-20-18-16-14-12-10-8-6-4-2/h5,7,11,13,17,19,23,25,27,30,38-40,43-45H,3-4,6,8-10,12,14-16,18,20-22,24,26,28-29,31-37H2,1-2H3,(H,48,49)/b7-5-,13-11-,19-17-,25-23-,30-27+
Instrument: Acquity UPLC Peptide BEH C18 column (50 x 2.1 mm; 1.7 um), Sciex TripleTOF5600
Instrument type: LC-ESI-QTOF
Ms type: MS2
Ion mode: NEGATIVE
Collision energy: 30-50
Precursor m/z: 783.4817737
Precursor type: [M-H]-
m/z	relative intensity
115.035	69
115.038	69
115.041	23
152.9851	23
152.9868	23
152.9885	46
152.9903	69
152.9937	92
152.9972	23
153.0007	69
153.0024	69
153.0042	46
163.1476	46
170.9949	23
170.9967	23
171.0004	46
171.0022	23
171.0096	23
201.1624	23
201.1643	23
201.1743	23
227.0286	46
227.0307	23
227.0328	23
227.0349	46
227.0371	46
227.0392	23
227.0413	23
227.1998	23
227.2019	23
255.1999	23
255.2022	23
255.2044	23
255.2066	69
255.2089	46
255.2134	69
255.2156	23
255.2178	139
255.2201	162
255.2223	260
255.2246	312
255.2268	266
255.229	312
255.2313	566
255.2335	704
255.2358	468
255.238	364
255.2403	208
255.2425	231
255.2447	92
255.247	69
255.2492	46
255.2515	46
255.2537	23
281.2354	23
281.2613	23
291.1577	23
291.2008	23
291.2032	23
291.2056	23
299.1913	69
299.1937	23
299.1961	46
299.1985	127
299.201	23
299.2083	23
299.2131	46
317.1905	23
317.193	23
317.198	46
317.2005	23
317.203	69
317.2055	46
317.208	127
317.2105	115
317.213	92
317.2155	69
317.218	23
317.2205	23
317.223	23
317.2255	115
317.228	46
337.2977	23
337.3029	23
337.308	23
434.2449	23
434.2975	23
435.4587	23
453.1783	23
453.1843	23
453.1873	23
453.1933	46
453.1992	69
453.2022	92
453.2052	46
453.2082	23
453.2112	46
453.2142	23
453.2172	23
453.2202	46
453.2291	23
465.2362	23
465.2543	46
465.2604	46
465.2664	23
465.2876	23
471.2118	23
471.2484	23
471.2757	23
483.259	23
483.2651	23
483.2682	23
483.2744	23
483.2836	23
483.2898	23
483.2929	23
483.3052	23
498.8825	23
498.9295	23
502.5168	23
502.523	46
527.2042	23
527.2235	23
527.2267	23
527.2332	46
527.2365	23
527.2396	69
527.2429	23
527.2461	46
527.2493	23
527.2525	23
527.2557	23
527.2622	23
545.2385	23
545.2417	46
545.2483	46
545.2515	23
545.2548	23
545.2581	23
545.2614	23
545.2712	23
636.4158	23
636.4299	46
636.4476	23
659.1213	23
659.1861	23
659.2294	23
659.2473	23
709.487	23
709.502	23
780.9763	23
780.9959	23
781.0077	23
781.0586	23
781.1331	23
783.4279	23
783.4318	23
783.4358	69
783.4397	69
783.4436	127
783.4476	214
783.4515	179
783.4554	179
783.4594	422
783.4633	549
783.4672	485
783.4711	999
783.475	884
783.4789	780
783.4829	976
783.4868	774
783.4907	837
783.4947	884
783.4986	791
783.5025	393
783.5065	531
783.5104	381
783.5143	271
783.5182	196
783.5222	248
783.5261	162
783.53	173
783.5339	156
783.5378	23
783.5417	69
783.5457	46
783.5496	23
784.4961	23
784.5	23
787.2877	23
787.3388	23
