Mass spectrum: PE 38:5; LC-ESI-QTOF; MS2
Name: PE 38:5
Class: PE
Formula: C43H76NO8P
Exact mass: 766.0559999999998
SMILES: CCCCCCCCCCCCCCCCCC(=O)OCC(COP(O)(=O)OCCN)OC(=O)CCC\C=C/C\C=C/C\C=C/C\C=C/C\C=C/CC
InChI: InChI=1S/C43H76NO8P/c1-3-5-7-9-11-13-15-17-19-20-22-24-26-28-30-32-34-36-43(46)52-41(40-51-53(47,48)50-38-37-44)39-49-42(45)35-33-31-29-27-25-23-21-18-16-14-12-10-8-6-4-2/h5,7,11,13,17,19,22,24,28,30,41H,3-4,6,8-10,12,14-16,18,20-21,23,25-27,29,31-40,44H2,1-2H3,(H,47,48)/b7-5-,13-11-,19-17-,24-22-,30-28-
Instrument: AB Sciex TripleTOF 5600+ system (Q-TOF) equipped with a DuoSpray ion source
Instrument type: LC-ESI-QTOF
Ms type: MS2
Ion mode: NEGATIVE
Collision energy: 45V
Column name: Acquity UPLC Peptide BEH C18 column (50*2.1 mm; 1.7 um; 130A)(Waters Co.,Milford, MA, USA)
Retention time: 9.777547
Precursor type: [M-H]-
Precursor m/z: 764.5181
m/z	relative intensity
78.959	9
83.051	1
93.07	0
96.964	1
117.071	1
122.002	2
137.137	1
140.011	24
149.133	1
151.148	3
152.999	0
163.076	1
163.148	2
165.165	1
167.105	0
175.146	1
177.09	1
177.167	2
178.025	1
196.037	38
203.099	1
203.179	31
214.046	3
214.061	1
215.184	2
217.12	1
223.168	6
229.196	3
231.136	2
245.15	1
255.208	1
255.234	1
256.42	1
257.226	179
265.195	1
271.207	1
280.26	0
282.37	2
282.39	1
283.203	2
283.264	788
283.373	0
284.265	1
299.207	1
300.277	4
301.215	999
329.243	0
381.203	1
381.364	1
406.27	0
419.258	0
424.228	1
462.263	2
462.295	27
478.517	0
478.729	0
478.779	0
480.234	3
480.25	5
480.305	156
480.364	0
480.882	0
498.248	7
498.268	2
498.286	0
529.494	1
628.537	0
762.085	2
762.116	2
762.16	1
763.553	0
764.278	0
764.38	0
764.515	554
765.118	0
765.248	0
765.494	1
765.541	1
768.555	0
