Mass spectrum: PI(16:0e/12-HETE); LC-ESI-QTOF; MS2
Name: PI(16:0e/12-HETE)
Class: Oxidized Phospholipid
Formula: C45H81O13P
Exact mass: 861.106
SMILES: CCCCCCCCCCCCCCCCOCC(COP(O)(=O)OC1C(O)C(O)C(O)C(O)C1O)OC(=O)CCC\C=C/C\C=C/C=C/C(O)C\C=C/CCCCC
InChI: InChI=1S/C45H81O13P/c1-3-5-7-9-11-12-13-14-15-16-19-22-26-30-34-55-35-38(36-56-59(53,54)58-45-43(51)41(49)40(48)42(50)44(45)52)57-39(47)33-29-25-21-18-17-20-24-28-32-37(46)31-27-23-10-8-6-4-2/h18,20-21,23-24,27-28,32,37-38,40-46,48-52H,3-17,19,22,25-26,29-31,33-36H2,1-2H3,(H,53,54)/b21-18-,24-20-,27-23-,32-28+
Instrument: Acquity UPLC Peptide BEH C18 column (50 x 2.1 mm; 1.7 um), Sciex TripleTOF5600
Instrument type: LC-ESI-QTOF
Ms type: MS2
Ion mode: NEGATIVE
Collision energy: 30-50
Precursor m/z: 859.5342032
Precursor type: [M-H]-
m/z	relative intensity
179.1048	33
179.1086	33
179.1123	33
241.0001	33
241.0067	33
241.0088	83
241.011	33
241.0132	33
301.2097	33
319.211	33
319.216	50
319.2185	99
319.221	66
319.2235	105
319.226	127
319.2285	94
319.231	127
319.2361	33
319.2386	66
319.2411	33
377.2341	33
377.2395	50
377.2422	33
377.245	33
377.2477	33
377.2504	33
377.2586	33
539.2894	33
539.2926	33
539.2991	83
557.2955	33
557.3154	33
757.5181	33
785.5231	33
785.5271	33
785.5389	33
785.5428	83
785.5468	66
785.5507	66
785.5546	50
785.5585	33
785.5625	33
785.5664	50
785.5743	33
785.5782	33
859.4714	50
859.4797	50
859.4838	33
859.4879	50
859.492	116
859.4962	127
859.5002	149
859.5043	221
859.5085	364
859.5126	491
859.5167	635
859.5208	740
859.5249	701
859.529	789
859.5331	949
859.5372	999
859.5414	833
859.5455	828
859.5496	701
859.5537	607
859.5578	464
859.5619	293
859.566	199
859.5701	144
859.5743	182
859.5784	116
859.5825	105
859.5866	33
859.5907	66
859.5948	83
859.5989	83
859.603	33
859.6072	50
