Mass spectrum: SM d42:3; LC-ESI-QTOF; MS2
Name: SM d42:3
Class: SM
Formula: C47H91N2O6P
Exact mass: 811.2289999999999
SMILES: CCCCCCCCCCCCC\C=C\C(O)C(COP([O-])(=O)OCC[N+](C)(C)C)NC(=O)CCCCCCCCCCCCCCCC\C=C/C\C=C/CC
InChI: InChI=1S/C47H91N2O6P/c1-6-8-10-12-14-16-18-20-21-22-23-24-25-26-27-29-31-33-35-37-39-41-47(51)48-45(44-55-56(52,53)54-43-42-49(3,4)5)46(50)40-38-36-34-32-30-28-19-17-15-13-11-9-7-2/h8,10,14,16,38,40,45-46,50H,6-7,9,11-13,15,17-37,39,41-44H2,1-5H3,(H-,48,51,52,53)/b10-8-,16-14-,40-38+
Instrument: AB Sciex TripleTOF 5600+ system (Q-TOF) equipped with a DuoSpray ion source
Instrument type: LC-ESI-QTOF
Ms type: MS2
Ion mode: NEGATIVE
Collision energy: 45V
Column name: Acquity UPLC Peptide BEH C18 column (50*2.1 mm; 1.7 um; 130A)(Waters Co.,Milford, MA, USA)
Retention time: 11.076
Precursor type: [M+CH3COOH-H]-
Precursor m/z: 869.6752
m/z	relative intensity
78.958	10
96.97	0
122.983	1
139.005	0
167.524	0
168.041	38
171.484	0
183.002	0
431.315	0
448.774	0
449.306	0
449.326	0
450.911	0
548.88	0
558.479	0
634.016	0
706.532	0
706.557	0
724.553	2
750.566	1
750.598	0
793.073	0
793.109	0
793.132	1
793.167	1
794.675	0
795.394	0
795.419	0
795.638	999
796.29	0
796.623	2
796.66	1
809.657	0
810.549	0
810.585	3
810.608	3
810.63	1
869.629	4
869.672	32
869.707	4
869.745	0
