Mass spectrum: PE(16:1e/11,12-EpETE); LC-ESI-QTOF; MS2
Name: PE(16:1e/11,12-EpETE)
Class: Oxidized Phospholipid
Formula: C41H72NO8P
Exact mass: 738.002
SMILES: CCCCCCCCCCCCCC\C=C/OCC(COP(O)(=O)OCCN)OC(=O)CCC\C=C/C\C=C/CC1OC1C\C=C/C\C=C/CC
InChI: InChI=1S/C41H72NO8P/c1-3-5-7-9-11-12-13-14-15-16-17-21-25-29-34-46-36-38(37-48-51(44,45)47-35-33-42)49-41(43)32-28-24-20-18-19-23-27-31-40-39(50-40)30-26-22-10-8-6-4-2/h6,8,18,20,22-23,26-27,29,34,38-40H,3-5,7,9-17,19,21,24-25,28,30-33,35-37,42H2,1-2H3,(H,44,45)/b8-6-,20-18-,26-22-,27-23-,34-29-
Instrument: Acquity UPLC Peptide BEH C18 column (50 x 2.1 mm; 1.7 um), Sciex TripleTOF5600
Instrument type: LC-ESI-QTOF
Ms type: MS2
Ion mode: NEGATIVE
Collision energy: 30-50
Precursor m/z: 736.4922788
Precursor type: [M-H]-
m/z	relative intensity
78.95693	27
78.95944	18
78.96069	18
78.96195	36
78.9632	36
78.96446	27
78.96571	18
78.96947	27
95.08979	18
107.086	54
107.0875	18
109.0987	18
109.1031	27
109.1046	18
121.0955	18
133.1019	27
135.1149	18
135.1165	27
135.1182	45
135.1198	18
135.1215	27
135.1231	18
135.128	18
140.0048	27
140.0065	18
140.0082	36
140.0099	62
140.0115	62
140.0132	45
140.0215	27
149.0947	36
149.0981	18
149.0998	18
149.1015	62
149.1033	27
149.1308	18
150.1008	18
151.1085	18
151.1103	18
151.1137	18
151.1241	18
153.0888	18
163.1041	18
163.1095	36
163.1149	27
163.1167	27
163.1185	27
163.1203	27
165.1249	18
166.0945	18
166.595	18
167.0706	18
167.0907	18
167.0944	63
167.098	111
167.0998	175
167.1017	147
167.1035	248
167.1053	277
167.1071	407
167.1089	248
167.1108	249
167.1126	222
167.1144	82
167.1162	111
167.1181	55
167.1199	37
167.1217	18
167.1235	27
167.1254	18
167.1272	10
168.5548	10
179.0296	18
179.0372	18
179.0957	36
179.0976	36
179.0995	99
179.1014	81
179.1032	134
179.1051	171
179.107	171
179.1089	162
179.1108	261
179.1127	144
179.1146	73
179.1165	73
179.1183	36
179.1202	18
195.0913	27
195.0933	18
195.0972	45
195.0992	27
195.1012	45
195.1031	54
195.1051	54
195.1071	18
195.111	18
195.1189	18
196.0246	27
196.0266	18
196.0286	36
196.0305	54
196.0325	27
196.0345	27
196.0365	72
196.0384	36
196.0404	81
196.0424	72
196.0444	27
196.0463	36
196.0483	27
201.1585	27
201.1605	27
201.1645	27
201.1685	45
207.091	18
207.0931	18
207.0971	54
207.0992	27
207.1012	27
207.1032	27
207.1053	27
207.1073	45
207.1093	27
207.1114	18
207.1134	18
207.1256	18
208.0994	27
208.1014	27
208.1035	18
208.1055	45
208.1075	18
208.1096	36
208.1116	27
208.1136	54
208.1157	18
208.1177	62
227.1869	18
227.189	18
227.1933	45
227.1954	45
227.2039	18
227.2081	18
227.2103	36
227.2124	27
227.2145	18
239.222	18
239.2264	18
239.2307	27
239.2329	45
239.2351	54
239.2373	54
239.2395	36
239.2416	36
239.2438	36
239.246	45
239.2482	18
239.2504	27
239.2525	18
255.1927	27
255.1949	18
255.1972	27
255.1994	62
255.2017	72
255.2039	98
255.2062	98
255.2085	152
255.2107	89
255.213	117
255.2152	125
255.2175	134
255.2197	54
255.222	72
255.2242	45
255.2265	62
255.231	36
255.2332	27
255.2355	18
255.2377	27
257.2343	18
273.2072	27
273.2095	36
273.2118	36
273.2141	36
273.2165	27
273.2211	18
273.2234	18
273.2258	27
273.2281	45
273.2305	36
289.2169	18
299.1826	27
299.1851	27
299.1875	36
299.19	98
299.1924	54
299.1949	54
299.1973	54
299.1997	117
299.2022	161
299.2046	62
299.2071	98
299.2095	89
299.2119	36
299.2144	81
299.2168	72
299.2193	18
299.2242	18
300.2159	18
316.2091	18
316.2242	18
316.2342	18
316.2367	18
317.108	18
317.1507	18
317.1683	18
317.1758	18
317.1834	18
317.1859	28
317.1884	46
317.1909	157
317.1934	93
317.196	140
317.1985	196
317.201	255
317.2035	463
317.206	462
317.2085	574
317.211	547
317.2135	509
317.2161	518
317.2186	386
317.2211	378
317.2236	245
317.2261	178
317.2286	123
317.2311	38
317.2336	47
317.2361	28
317.2386	38
317.2412	10
317.2437	20
317.2462	10
317.573	10
317.8647	10
318.2069	10
319.6962	10
375.2309	45
375.2336	27
375.2446	36
393.2263	18
418.2307	18
418.2452	18
418.248	36
418.2509	72
418.2538	36
418.2567	54
418.2596	117
418.2625	107
418.2654	152
418.2682	179
418.2711	107
418.274	152
418.2769	107
418.2798	117
418.2827	117
418.2856	81
418.2885	62
418.2914	107
418.2942	36
418.2971	45
418.3	18
418.3058	18
434.9223	18
434.9253	18
434.9841	18
435.4139	18
436.1915	18
436.2445	18
436.2504	37
436.2534	55
436.2563	55
436.2593	121
436.2622	185
436.2652	139
436.2681	223
436.2711	316
436.274	338
436.2769	281
436.2799	442
436.2828	414
436.2858	517
436.2887	433
436.2917	462
436.2946	444
436.2976	332
436.3005	301
436.3035	237
436.3064	123
436.3094	56
436.3123	57
436.3182	38
436.3212	46
436.3241	10
436.3271	10
436.3388	10
437.2766	18
437.2943	18
662.4595	18
662.4631	27
662.4668	27
662.4704	45
662.4813	18
662.4849	18
662.4886	36
662.4922	27
662.5031	18
662.5104	18
662.5176	18
734.1507	18
734.1622	18
734.1851	18
734.2119	18
736.4272	46
736.431	46
736.4348	46
736.4387	20
736.4425	18
736.4464	116
736.4501	167
736.454	175
736.4578	196
736.4617	218
736.4655	367
736.4693	318
736.4731	583
736.477	673
736.4808	615
736.4846	645
736.4885	867
736.4923	862
736.4961	954
736.4999	999
736.5038	830
736.5076	910
736.5114	718
736.5153	737
736.5191	637
736.5229	417
736.5267	516
736.5306	361
736.5344	245
736.5382	132
736.5421	152
736.5459	71
736.5497	50
736.5535	21
736.5574	19
736.5612	20
736.5651	20
736.5956	11
736.6187	11
736.8829	10
737.4728	18
737.4767	18
737.4844	27
737.4882	18
737.4958	27
737.4997	27
737.5035	36
737.5073	27
737.5189	19
737.5227	18
737.5265	36
737.5303	27
737.5419	18
