Mass spectrum: Cer[NS] d42:2; LC-ESI-QTOF; MS2
Name: Cer[NS] d42:2
Class: Cer_NS
Formula: C42H81NO3
Exact mass: 648.1139999999999
SMILES: CCCCCCCCCCCCC\C=C\C(O)C(CO)NC(=O)CCCCCCCCC\C=C/CCCCCCCCCCCC
InChI: InChI=1S/C42H81NO3/c1-3-5-7-9-11-13-15-17-18-19-20-21-22-23-24-26-28-30-32-34-36-38-42(46)43-40(39-44)41(45)37-35-33-31-29-27-25-16-14-12-10-8-6-4-2/h21-22,35,37,40-41,44-45H,3-20,23-34,36,38-39H2,1-2H3,(H,43,46)/b22-21-,37-35+
Instrument: AB Sciex TripleTOF 5600+ system (Q-TOF) equipped with a DuoSpray ion source
Instrument type: LC-ESI-QTOF
Ms type: MS2
Ion mode: NEGATIVE
Collision energy: 45V
Column name: Acquity UPLC Peptide BEH C18 column (50*2.1 mm; 1.7 um; 130A)(Waters Co.,Milford, MA, USA)
Retention time: 13.07602
Precursor type: [M+CH3COOH-H]-
Precursor m/z: 706.6348
m/z	relative intensity
80.024	0
95.049	0
209.192	1
221.233	0
223.209	1
225.218	1
235.207	8
235.229	0
236.48	0
237.033	0
237.221	182
239.238	5
245.223	0
250.252	5
251.238	1
255.233	1
261.21	0
261.221	2
261.239	0
262.256	0
262.422	0
263.237	147
264.233	1
266.247	29
268.262	31
278.247	1
281.252	3
298.275	9
345.312	1
346.246	0
347.331	190
349.349	5
349.371	0
363.21	0
363.361	7
363.381	1
364.357	179
365.341	126
366.375	3
367.359	3
378.376	2
388.362	3
389.129	1
389.148	2
389.191	0
390.373	794
391.373	1
392.38	13
392.399	8
404.341	4
404.366	1
405.089	0
405.363	3
406.369	128
408.341	0
408.379	5
408.401	1
420.381	0
559.575	0
571.575	2
571.598	1
580.586	0
587.577	4
588.604	0
596.599	1
596.728	1
598.513	0
598.594	113
600.584	1
600.626	0
610.595	3
612.655	0
614.587	139
614.659	0
615.604	0
616.604	240
618.616	1
628.488	1
628.513	1
628.534	1
628.577	3
628.604	6
644.57	6
644.593	5
644.627	2
646.356	0
646.476	0
646.513	1
646.613	999
646.688	1
647.573	0
647.604	2
647.636	3
647.87	0
650.938	0
706.472	0
706.604	1
706.632	3
