Mass spectrum: PG 44:10; LC-ESI-QTOF; MS2
Name: PG 44:10
Class: PG
Formula: C50H79O10P
Exact mass: 871.148
SMILES: CC\C=C/C\C=C/C\C=C/C\C=C/C\C=C/CCCCCC(=O)OCC(COP(O)(=O)OCC(O)CO)OC(=O)CCCCC\C=C/C\C=C/C\C=C/C\C=C/C\C=C/CC
InChI: InChI=1S/C50H79O10P/c1-3-5-7-9-11-13-15-17-19-21-23-25-27-29-31-33-35-37-39-41-49(53)57-45-48(46-59-61(55,56)58-44-47(52)43-51)60-50(54)42-40-38-36-34-32-30-28-26-24-22-20-18-16-14-12-10-8-6-4-2/h5-8,11-14,17-20,23-26,29-32,47-48,51-52H,3-4,9-10,15-16,21-22,27-28,33-46H2,1-2H3,(H,55,56)/b7-5-,8-6-,13-11-,14-12-,19-17-,20-18-,25-23-,26-24-,31-29-,32-30-
Instrument: AB Sciex TripleTOF 5600+ system (Q-TOF) equipped with a DuoSpray ion source
Instrument type: LC-ESI-QTOF
Ms type: MS2
Ion mode: NEGATIVE
Collision energy: 45V
Column name: Acquity UPLC Peptide BEH C18 column (50*2.1 mm; 1.7 um; 130A)(Waters Co.,Milford, MA, USA)
Retention time: 8.009889
Precursor type: [M-H]-
Precursor m/z: 869.5344
m/z	relative intensity
100.932	24
152.997	37
284.248	24
285.253	49
301.218	37
308.218	24
327.208	49
329.213	28
329.247	999
356.192	24
373.195	24
391.231	24
465.233	24
494.351	37
495.357	74
542.897	24
631.475	37
705.463	104
728.556	49
787.454	24
787.521	28
807.576	24
809.545	28
833.506	24
833.565	37
851.577	126
869.534	847
869.568	239
869.609	136
