Mass spectrum: PC(14:0/20-HETE); LC-ESI-QTOF; MS2
Name: PC(14:0/20-HETE)
Class: Oxidized Phospholipid
Formula: C42H76NO9P
Exact mass: 770.044
SMILES: CCCCCCCCCCCCCC(=O)OCC(COP([O-])(=O)OCC[N+](C)(C)C)OC(=O)CCC\C=C/C\C=C/C\C=C/C\C=C/CCCCCO
InChI: InChI=1S/C42H76NO9P/c1-5-6-7-8-9-10-18-21-24-27-30-33-41(45)49-38-40(39-51-53(47,48)50-37-35-43(2,3)4)52-42(46)34-31-28-25-22-19-16-14-12-11-13-15-17-20-23-26-29-32-36-44/h11,13-14,16-17,20,22,25,40,44H,5-10,12,15,18-19,21,23-24,26-39H2,1-4H3/b13-11-,16-14-,20-17-,25-22-
Instrument: Acquity UPLC Peptide BEH C18 column (50 x 2.1 mm; 1.7 um), Sciex TripleTOF5600
Instrument type: LC-ESI-QTOF
Ms type: MS2
Ion mode: NEGATIVE
Collision energy: 30-50
Precursor m/z: 828.5396225
Precursor type: [M+CH3COOH-H]-
m/z	relative intensity
168.0363	25
168.0418	38
168.0437	25
168.0473	38
224.0647	63
224.0753	51
224.0774	25
227.1802	25
227.1866	78
227.1887	63
227.1909	63
227.193	154
227.1951	207
227.1972	167
227.1994	321
227.2015	258
227.2036	412
227.2057	245
227.2079	180
227.21	154
227.2121	104
227.2143	38
227.2164	63
227.2185	63
245.2298	25
273.2187	38
273.2257	25
275.2281	25
275.2328	25
275.2421	25
281.2437	38
289.2121	25
289.2169	25
293.2018	25
301.2093	25
301.2117	51
301.2142	78
301.2191	38
301.224	91
301.2264	38
301.2289	38
301.2313	25
318.2271	25
318.2448	25
318.2599	25
319.1919	25
319.1995	25
319.202	38
319.2045	104
319.207	116
319.2095	210
319.2121	288
319.2146	382
319.2171	551
319.2196	604
319.2221	594
319.2247	579
319.2272	905
319.2297	567
319.2322	655
319.2347	513
319.2373	665
319.2398	483
319.2423	260
319.2448	286
319.2473	182
319.2499	91
319.2524	104
319.2549	38
319.2574	38
319.265	25
320.2288	25
320.2465	25
434.2669	25
452.2532	38
452.2592	25
452.2652	63
452.2682	51
452.2711	51
452.2742	78
452.2772	51
452.2802	91
452.2862	91
452.2892	104
452.2922	51
452.2952	25
452.3012	25
452.3072	38
526.2991	25
752.1111	25
752.1151	25
752.4517	25
754.4269	25
754.4347	25
754.4424	38
754.4463	78
754.4502	91
754.454	116
754.4579	66
754.4618	238
754.4657	250
754.4695	185
754.4734	266
754.4773	384
754.4812	450
754.485	415
754.489	627
754.4928	493
754.4967	814
754.5005	673
754.5045	744
754.5083	903
754.5122	999
754.5161	941
754.52	984
754.5238	850
754.5277	809
754.5316	850
754.5355	352
754.5393	324
754.5432	364
754.5471	281
754.551	268
754.5548	119
754.5587	149
754.5626	94
754.5665	106
754.5703	38
754.5742	94
754.5781	51
754.582	38
755.5047	38
755.5125	38
769.4644	38
769.4683	25
769.4722	25
769.484	25
769.5074	25
792.4796	25
828.4686	38
828.4767	25
828.4848	25
828.4929	38
828.501	25
828.5051	25
828.5132	38
828.5173	51
828.5214	38
828.5254	25
828.5295	63
828.5335	38
828.5376	63
828.5416	104
828.5457	25
828.5497	78
828.5538	91
828.5579	91
828.562	51
828.566	116
828.5742	25
828.5782	38
828.5823	38
828.5863	63
828.5985	25
828.6066	25
