Mass spectrum: PI 34:1; LC-ESI-QTOF; MS2
Name: PI 34:1
Class: PI
Formula: C43H81O13P
Exact mass: 837.084
SMILES: CCCCCCCCCCCCCCCC(=O)OCC(COP(O)(=O)OC1C(O)C(O)C(O)C(O)C1O)OC(=O)CCCCCCC\C=C/CCCCCCCC
InChI: InChI=1S/C43H81O13P/c1-3-5-7-9-11-13-15-17-18-20-22-24-26-28-30-32-37(45)55-35(34-54-57(51,52)56-43-41(49)39(47)38(46)40(48)42(43)50)33-53-36(44)31-29-27-25-23-21-19-16-14-12-10-8-6-4-2/h17-18,35,38-43,46-50H,3-16,19-34H2,1-2H3,(H,51,52)/b18-17-
Instrument: AB Sciex TripleTOF 5600+ system (Q-TOF) equipped with a DuoSpray ion source
Instrument type: LC-ESI-QTOF
Ms type: MS2
Ion mode: NEGATIVE
Collision energy: 45V
Column name: Acquity UPLC Peptide BEH C18 column (50*2.1 mm; 1.7 um; 130A)(Waters Co.,Milford, MA, USA)
Retention time: 8.577491
Precursor type: [M-H]-
Precursor m/z: 835.5323
m/z	relative intensity
78.959	7
152.995	16
204.988	1
223.002	23
241.01	68
253.217	2
255.232	123
256.231	3
259.02	6
279.232	7
281.189	1
281.246	126
282.257	1
283.26	3
297.032	7
297.046	4
297.097	1
315.046	5
335.605	1
391.222	57
392.233	1
409.235	4
417.238	13
419.254	1
463.564	1
524.799	1
551.503	1
553.275	74
565.8	1
571.279	10
571.316	1
579.275	9
579.299	10
597.304	2
673.492	3
699.476	1
753.519	1
757.489	1
785.505	1
803.498	4
832.863	2
832.944	1
835.198	1
835.456	2
835.528	999
835.64	1
836.519	1
