Mass spectrum: PE(18:1/18-HETE); LC-ESI-QTOF; MS2
Name: PE(18:1/18-HETE)
Class: Oxidized Phospholipid
Formula: C43H76NO9P
Exact mass: 782.055
SMILES: CCCCCCCC\C=C/CCCCCCCC(=O)OCC(COP(O)(=O)OCCN)OC(=O)CCC\C=C/C\C=C/C\C=C/C\C=C/CCC(O)CC
InChI: InChI=1S/C43H76NO9P/c1-3-5-6-7-8-9-10-11-12-16-19-22-25-28-31-34-42(46)50-38-41(39-52-54(48,49)51-37-36-44)53-43(47)35-32-29-26-23-20-17-14-13-15-18-21-24-27-30-33-40(45)4-2/h11-12,14-15,17-18,23-24,26-27,40-41,45H,3-10,13,16,19-22,25,28-39,44H2,1-2H3,(H,48,49)/b12-11-,17-14-,18-15-,26-23-,27-24-
Instrument: Acquity UPLC Peptide BEH C18 column (50 x 2.1 mm; 1.7 um), Sciex TripleTOF5600
Instrument type: LC-ESI-QTOF
Ms type: MS2
Ion mode: NEGATIVE
Collision energy: 30-50
Precursor m/z: 780.5184935
Precursor type: [M-H]-
m/z	relative intensity
78.95619	21
140.0091	21
140.0141	21
140.0191	21
196.0338	43
196.0358	21
196.0397	21
196.0476	21
196.0496	21
217.1842	43
217.1883	33
217.1904	54
217.1925	21
217.1946	33
217.1966	21
217.1987	43
217.2008	21
217.2029	65
217.2091	21
227.1905	21
227.1969	33
227.199	43
227.2118	21
241.0076	33
241.0208	21
241.207	21
242.0141	21
243.1921	33
243.1943	33
243.1965	21
243.1987	43
253.2147	33
253.2237	21
255.2169	43
255.2191	43
255.2214	65
255.2259	21
255.2281	87
255.2304	87
255.2327	65
255.2349	75
255.2372	43
255.2394	87
255.2417	65
255.2462	43
255.2507	33
256.2435	21
257.2179	21
257.2224	21
257.2247	43
257.2292	21
257.236	21
261.1659	21
261.1728	65
261.175	75
261.1773	54
261.1796	108
261.1819	108
261.1841	75
261.1864	195
261.1887	183
261.191	119
261.1933	75
261.1956	43
261.1978	65
261.2001	65
261.2024	33
261.2047	21
275.23	21
275.2323	33
275.2347	21
275.2394	21
280.3708	33
280.3732	22
280.3921	22
281.1486	22
281.1983	22
281.2078	22
281.2243	12
281.2267	66
281.2291	67
281.2314	123
281.2338	188
281.2362	236
281.2385	358
281.2409	369
281.2433	464
281.2456	665
281.248	508
281.2504	519
281.2527	575
281.2551	293
281.2574	371
281.2598	225
281.2622	192
281.2646	102
281.2669	111
281.2693	34
281.2717	34
281.274	12
281.2764	12
281.2787	12
281.2811	23
282.2379	12
282.2522	33
282.2593	12
283.213	12
301.1917	21
301.1966	33
301.2014	33
301.2039	119
301.2064	141
301.2088	97
301.2113	87
301.2137	205
301.2162	97
301.2186	205
301.221	97
301.2235	172
301.226	129
301.2284	43
301.2308	65
301.2333	33
301.2357	21
317.2156	21
318.199	21
318.2241	22
318.2443	22
318.2568	22
318.355	22
318.8461	22
319.1838	22
319.1939	34
319.1964	68
319.199	22
319.2015	23
319.204	103
319.2065	80
319.209	137
319.2115	311
319.2141	509
319.2166	507
319.2191	583
319.2216	767
319.2242	999
319.2267	941
319.2292	812
319.2317	846
319.2343	611
319.2368	508
319.2393	517
319.2418	289
319.2444	208
319.2469	127
319.2494	115
319.2519	93
319.2544	81
319.2595	35
319.2645	12
319.9431	12
320.2384	12
333.2091	12
389.2102	21
389.2269	21
392.2335	21
435.399	21
437.6985	21
460.2693	21
460.2754	43
460.2814	21
460.2845	43
460.2875	21
460.2935	33
460.2996	33
478.2715	33
478.2776	43
478.2807	21
478.2838	87
478.2869	65
478.29	141
478.2931	75
478.2962	119
478.2993	87
478.3023	43
478.3054	65
478.3085	54
478.3116	65
478.3147	54
478.3178	54
478.3239	21
516.2571	33
516.2732	33
516.2828	21
554.2881	21
695.4548	21
706.4598	21
706.4749	21
706.4786	54
706.4824	54
706.4861	33
706.4899	54
706.4936	21
706.4974	65
706.5011	43
706.5086	21
706.5124	119
706.5161	65
706.5198	119
706.5236	54
706.5273	65
706.5311	33
706.5349	43
706.5424	65
706.5461	33
778.0862	33
778.102	21
780.4258	54
780.4337	21
780.4377	21
780.4416	43
780.4456	75
780.4495	108
780.4534	89
780.4574	46
780.4613	115
780.4653	146
780.4692	162
780.4731	141
780.4771	105
780.481	183
780.485	177
780.4889	340
780.4929	511
780.4968	483
780.5007	521
780.5047	602
780.5086	652
780.5126	733
780.5165	773
780.5204	873
780.5244	910
780.5283	996
780.5323	653
780.5362	737
780.5402	774
780.5441	656
780.548	553
780.5519	411
780.5559	289
780.5599	361
780.5638	231
780.5677	196
780.5717	109
780.5756	84
780.5796	60
780.5835	49
780.5875	24
780.5914	29
780.5953	13
780.5993	12
780.6072	21
781.5102	21
781.5141	12
781.5181	21
781.5299	43
781.5417	21
