Mass spectrum: PC 34:1; LC-ESI-QTOF; MS2
Name: PC 34:1
Class: PC
Formula: C42H82NO8P
Exact mass: 760.0929999999998
SMILES: CCCCCCCCCCCCCCCC(=O)OCC(COP([O-])(=O)OCC[N+](C)(C)C)OC(=O)CCCCCCC\C=C/CCCCCCCC
InChI: InChI=1S/C42H82NO8P/c1-6-8-10-12-14-16-18-20-21-23-25-27-29-31-33-35-42(45)51-40(39-50-52(46,47)49-37-36-43(3,4)5)38-48-41(44)34-32-30-28-26-24-22-19-17-15-13-11-9-7-2/h20-21,40H,6-19,22-39H2,1-5H3/b21-20-
Instrument: AB Sciex TripleTOF 5600+ system (Q-TOF) equipped with a DuoSpray ion source
Instrument type: LC-ESI-QTOF
Ms type: MS2
Ion mode: NEGATIVE
Collision energy: 45V
Column name: Acquity UPLC Peptide BEH C18 column (50*2.1 mm; 1.7 um; 130A)(Waters Co.,Milford, MA, USA)
Retention time: 9.861574
Precursor type: [M+CH3COOH-H]-
Precursor m/z: 818.5911
m/z	relative intensity
78.959	2
152.996	1
164.967	0
168.041	17
206.057	0
224.067	20
237.22	0
242.068	0
242.084	0
253.216	8
253.227	1
254.437	3
255.126	0
255.232	662
256.232	1
258.703	0
263.23	0
280.357	1
280.374	4
281.078	0
281.117	0
281.17	1
281.248	999
281.568	0
281.828	0
282.249	3
282.545	0
283.257	4
283.273	2
284.62	0
304.233	0
305.249	0
309.273	0
311.284	0
359.291	0
359.302	0
391.219	2
391.233	0
391.246	0
406.272	1
409.226	0
417.224	0
417.246	0
419.259	0
421.264	0
432.286	0
448.285	0
462.293	23
478.787	0
480.305	72
488.297	3
488.314	8
488.343	1
490.327	0
501.11	0
503.28	0
506.323	32
506.37	0
507.947	0
508.334	0
515.023	0
561.956	0
673.448	0
673.484	1
673.525	0
699.495	2
731.54	1
742.168	0
742.192	2
742.228	2
742.261	0
742.298	0
743.536	0
744.005	0
744.325	0
744.362	0
744.419	0
744.55	532
745.528	1
745.56	5
745.595	0
747.218	0
749.53	0
750.538	0
759.485	4
759.517	14
759.564	0
816.014	0
817.491	0
818.588	99
819.596	0
