Mass spectrum: PE 36:2; LC-ESI-QTOF; MS2
Name: PE 36:2
Class: PE
Formula: C41H78NO8P
Exact mass: 744.0499999999998
SMILES: CCCCCCCC\C=C/CCCCCCCC(=O)OCC(COP(O)(=O)OCCN)OC(=O)CCCCCCC\C=C/CCCCCCCC
InChI: InChI=1S/C41H78NO8P/c1-3-5-7-9-11-13-15-17-19-21-23-25-27-29-31-33-40(43)47-37-39(38-49-51(45,46)48-36-35-42)50-41(44)34-32-30-28-26-24-22-20-18-16-14-12-10-8-6-4-2/h17-20,39H,3-16,21-38,42H2,1-2H3,(H,45,46)/b19-17-,20-18-
Instrument: AB Sciex TripleTOF 5600+ system (Q-TOF) equipped with a DuoSpray ion source
Instrument type: LC-ESI-QTOF
Ms type: MS2
Ion mode: NEGATIVE
Collision energy: 45V
Column name: Acquity UPLC Peptide BEH C18 column (50*2.1 mm; 1.7 um; 130A)(Waters Co.,Milford, MA, USA)
Retention time: 10.1563
Precursor type: [M-H]-
Precursor m/z: 742.5376
m/z	relative intensity
78.961	1
122.001	0
140.01	6
196.037	12
214.045	0
253.217	1
255.234	0
280.374	3
281.135	0
281.249	999
281.338	1
309.281	2
404.261	1
417.249	0
460.268	5
460.288	7
478.289	46
514.269	0
563.484	1
565.517	0
690.403	0
740.19	1
742.01	0
742.539	266
742.745	0
743.55	1
