Mass spectrum: PC(18:1/8-HETE); LC-ESI-QTOF; MS2
Name: PC(18:1/8-HETE)
Class: Oxidized Phospholipid
Formula: C46H82NO9P
Exact mass: 824.136
SMILES: CCCCCCCC\C=C/CCCCCCCC(=O)OCC(COP([O-])(=O)OCC[N+](C)(C)C)OC(=O)CCC\C=C/CC(O)\C=C/C=C\C\C=C/CCCCC
InChI: InChI=1S/C46H82NO9P/c1-6-8-10-12-14-16-18-19-20-21-22-24-26-28-33-37-45(49)53-41-44(42-55-57(51,52)54-40-39-47(3,4)5)56-46(50)38-34-30-29-32-36-43(48)35-31-27-25-23-17-15-13-11-9-7-2/h15,17,19-20,25,27,29,31-32,35,43-44,48H,6-14,16,18,21-24,26,28,30,33-34,36-42H2,1-5H3/b17-15-,20-19-,27-25-,32-29-,35-31-
Instrument: Acquity UPLC Peptide BEH C18 column (50 x 2.1 mm; 1.7 um), Sciex TripleTOF5600
Instrument type: LC-ESI-QTOF
Ms type: MS2
Ion mode: NEGATIVE
Collision energy: 30-50
Precursor m/z: 882.5865727
Precursor type: [M+CH3COOH-H]-
m/z	relative intensity
85.00029	14
127.0794	14
152.9972	14
153.0007	14
155.0671	22
155.0706	59
155.0723	22
155.0776	22
163.1447	14
163.1502	14
163.1538	14
163.1556	14
163.1574	14
168.0379	14
168.0433	14
203.18	22
203.182	14
203.1881	14
224.058	14
224.0665	44
224.0707	44
224.075	14
241.0099	29
241.0142	14
241.0164	14
257.2134	22
257.2157	22
257.2179	59
257.2225	44
257.2247	37
257.227	80
257.2292	29
257.2315	66
257.2338	66
257.2361	22
257.2383	14
257.2406	14
275.23	14
279.2474	22
280.3756	14
280.3779	22
280.593	15
281.1842	15
281.1865	15
281.2173	15
281.2244	14
281.2291	30
281.2315	104
281.2339	144
281.2362	129
281.2386	223
281.2409	321
281.2433	298
281.2457	393
281.248	531
281.2504	432
281.2528	340
281.2551	438
281.2575	270
281.2599	169
281.2622	131
281.2646	101
281.267	46
281.2693	46
281.2717	24
281.2741	16
281.2764	16
281.5889	8
282.1717	8
282.2522	29
282.2546	8
282.257	14
282.2593	14
282.4538	8
301.1991	22
301.2015	29
301.204	66
301.2064	110
301.2089	51
301.2113	96
301.2138	80
301.2162	139
301.2187	139
301.2211	132
301.2236	110
301.226	59
301.2285	37
301.2309	37
304.2284	14
308.6248	15
316.0482	15
318.2192	15
318.2469	15
319.2041	29
319.2066	22
319.2091	103
319.2116	59
319.2142	104
319.2167	223
319.2192	119
319.2217	157
319.2243	180
319.2268	149
319.2293	268
319.2318	187
319.2343	216
319.2368	126
319.2394	119
319.2419	45
319.2444	66
319.2469	45
319.252	22
333.2401	8
345.2462	14
435.255	14
463.2743	14
488.3061	14
488.3186	14
506.3035	14
506.3066	14
506.3098	29
506.313	59
506.3162	37
506.3193	37
506.3225	22
506.3257	51
506.3289	22
506.332	37
506.3352	66
506.3384	14
506.3416	37
506.3447	22
506.3479	51
506.3511	22
506.3575	14
526.2857	14
526.2922	14
526.2954	14
526.3019	14
544.2853	22
544.2886	22
544.2985	37
544.3018	37
544.3116	14
544.3149	14
544.3182	14
544.3248	29
544.338	22
615.3802	14
737.44	14
737.4592	14
737.4745	22
737.4821	22
737.486	29
737.4898	14
737.4937	14
737.5013	29
737.5051	14
737.5243	14
745.4852	14
763.5302	14
806.0175	14
806.0295	14
806.4542	17
808.4669	29
808.491	47
808.495	24
808.499	24
808.503	105
808.507	150
808.511	116
808.5151	319
808.519	302
808.5231	309
808.5271	339
808.5311	519
808.5351	674
808.5391	649
808.5432	785
808.5472	813
808.5511	872
808.5552	936
808.5592	688
808.5632	885
808.5672	999
808.5712	964
808.5753	779
808.5792	773
808.5833	679
808.5873	633
808.5913	528
808.5953	447
808.5993	290
808.6033	233
808.6074	199
808.6113	93
808.6154	68
808.6194	50
808.6234	52
808.6274	52
808.6314	25
808.6354	24
808.6395	17
808.6434	32
808.6755	9
809.0167	9
809.5063	14
809.5143	14
809.5224	22
809.5344	44
809.5385	14
809.5425	29
809.5465	29
809.5505	29
809.5585	37
809.5626	51
809.5665	37
809.5746	51
809.5786	14
809.5826	22
809.5906	14
809.5987	14
809.8275	14
822.5372	14
822.5452	14
822.5533	14
822.5655	14
823.4965	14
823.5046	14
823.5127	14
823.5248	22
823.533	22
823.5573	22
823.5653	22
882.4613	14
882.4655	29
882.4697	29
882.4781	22
882.4822	52
882.4865	14
882.4907	60
882.4948	52
882.499	90
882.5032	52
882.5074	126
882.5116	127
882.5158	172
882.52	240
882.5242	167
882.5284	195
882.5325	136
882.5367	136
882.541	248
882.5451	143
882.5493	75
882.5535	217
882.5577	181
882.5619	181
882.5661	98
882.5703	60
882.5745	90
882.5787	82
882.5828	90
882.587	111
882.5912	104
882.5955	75
882.5996	82
882.6038	67
882.608	74
882.6122	67
882.6164	83
882.6206	37
882.6248	22
882.629	37
882.6332	44
882.6373	22
882.6415	44
882.6458	22
882.6541	22
882.6709	14
883.5095	22
883.522	14
883.5305	14
883.543	22
883.5472	14
883.5556	14
883.564	14
883.6143	14
