Mass spectrum: PC 42:7; LC-ESI-QTOF; MS2
Name: PC 42:7
Class: PC
Formula: C50H86NO8P
Exact mass: 860.2129999999999
SMILES: CCCCCCCC\C=C/CCCCCCCCCC(=O)OCC(COP([O-])(=O)OCC[N+](C)(C)C)OC(=O)CC\C=C/C\C=C/C\C=C/C\C=C/C\C=C/C\C=C/CC
InChI: InChI=1S/C50H86NO8P/c1-6-8-10-12-14-16-18-20-22-24-25-27-29-31-33-35-37-39-41-43-50(53)59-48(47-58-60(54,55)57-45-44-51(3,4)5)46-56-49(52)42-40-38-36-34-32-30-28-26-23-21-19-17-15-13-11-9-7-2/h8,10,14,16,20-23,25,27,31,33,37,39,48H,6-7,9,11-13,15,17-19,24,26,28-30,32,34-36,38,40-47H2,1-5H3/b10-8-,16-14-,22-20-,23-21-,27-25-,33-31-,39-37-
Instrument: AB Sciex TripleTOF 5600+ system (Q-TOF) equipped with a DuoSpray ion source
Instrument type: LC-ESI-QTOF
Ms type: MS2
Ion mode: NEGATIVE
Collision energy: 45V
Column name: Acquity UPLC Peptide BEH C18 column (50*2.1 mm; 1.7 um; 130A)(Waters Co.,Milford, MA, USA)
Retention time: 10.06976
Precursor type: [M+CH3COOH-H]-
Precursor m/z: 918.618
m/z	relative intensity
177.164	8
224.07	15
229.197	19
261.945	7
283.243	149
285.259	11
309.279	228
327.232	387
516.336	15
534.293	11
534.338	15
534.354	66
773.482	7
833.596	8
844.583	999
844.644	23
844.661	11
859.568	11
918.623	126
918.646	35
