Mass spectrum: PE 36:6; LC-ESI-QTOF; MS2
Name: PE 36:6
Class: PE
Formula: C41H70NO8P
Exact mass: 735.9859999999999
SMILES: CCCCCC\C=C/CCCCCCCC(=O)OCC(COP(O)(=O)OCCN)OC(=O)CCC\C=C/C\C=C/C\C=C/C\C=C/C\C=C/CC
InChI: InChI=1S/C41H70NO8P/c1-3-5-7-9-11-13-15-17-18-19-20-22-24-26-28-30-32-34-41(44)50-39(38-49-51(45,46)48-36-35-42)37-47-40(43)33-31-29-27-25-23-21-16-14-12-10-8-6-4-2/h5,7,11,13-14,16-18,20,22,26,28,39H,3-4,6,8-10,12,15,19,21,23-25,27,29-38,42H2,1-2H3,(H,45,46)/b7-5-,13-11-,16-14-,18-17-,22-20-,28-26-
Instrument: AB Sciex TripleTOF 5600+ system (Q-TOF) equipped with a DuoSpray ion source
Instrument type: LC-ESI-QTOF
Ms type: MS2
Ion mode: NEGATIVE
Collision energy: 45V
Column name: Acquity UPLC Peptide BEH C18 column (50*2.1 mm; 1.7 um; 130A)(Waters Co.,Milford, MA, USA)
Retention time: 8.536031
Precursor type: [M-H]-
Precursor m/z: 734.4739
m/z	relative intensity
152.995	55
196.035	47
203.189	39
253.216	576
253.228	73
255.219	64
255.224	105
255.231	210
255.239	177
257.224	173
283.26	19
301.215	999
391.205	104
391.219	48
391.234	88
409.237	39
420.272	15
450.22	19
450.241	40
450.255	129
450.277	23
480.253	23
498.254	31
647.418	47
647.448	47
647.464	145
647.485	39
674.477	19
674.557	23
734.424	82
734.436	130
734.449	146
734.464	202
734.475	364
734.491	333
734.506	113
