Mass spectrum: PI 38:5; LC-ESI-QTOF; MS2
Name: PI 38:5
Class: PI
Formula: C47H81O13P
Exact mass: 885.1279999999999
SMILES: CCCCCCCCCCCCCCCCCC(=O)OCC(COP(O)(=O)OC1C(O)C(O)C(O)C(O)C1O)OC(=O)CCC\C=C/C\C=C/C\C=C/C\C=C/C\C=C/CC
InChI: InChI=1S/C47H81O13P/c1-3-5-7-9-11-13-15-17-19-20-22-24-26-28-30-32-34-36-41(49)59-39(38-58-61(55,56)60-47-45(53)43(51)42(50)44(52)46(47)54)37-57-40(48)35-33-31-29-27-25-23-21-18-16-14-12-10-8-6-4-2/h5,7,11,13,17,19,22,24,28,30,39,42-47,50-54H,3-4,6,8-10,12,14-16,18,20-21,23,25-27,29,31-38H2,1-2H3,(H,55,56)/b7-5-,13-11-,19-17-,24-22-,30-28-
Instrument: AB Sciex TripleTOF 5600+ system (Q-TOF) equipped with a DuoSpray ion source
Instrument type: LC-ESI-QTOF
Ms type: MS2
Ion mode: NEGATIVE
Collision energy: 45V
Column name: Acquity UPLC Peptide BEH C18 column (50*2.1 mm; 1.7 um; 130A)(Waters Co.,Milford, MA, USA)
Retention time: 8.47335
Precursor type: [M-H]-
Precursor m/z: 883.5339
m/z	relative intensity
78.959	5
96.968	2
151.149	0
152.996	12
171.007	0
191.107	0
203.182	3
217.129	0
223.0	23
223.172	0
224.202	0
229.19	0
240.26	1
241.012	106
255.233	0
257.213	3
257.23	16
259.023	11
281.249	0
282.386	0
283.208	0
283.264	167
284.266	1
297.036	19
300.273	0
301.217	108
302.219	0
303.228	0
315.046	7
329.246	0
417.242	0
417.954	0
419.255	80
420.251	0
437.207	9
437.261	4
437.283	1
437.3	0
455.222	0
487.775	0
489.258	0
495.264	0
496.914	0
525.285	0
553.276	0
579.277	0
579.3	0
579.461	0
581.306	107
582.323	0
599.225	1
599.243	0
599.262	2
599.321	25
617.253	1
617.289	1
721.471	1
721.496	0
721.539	0
723.482	1
805.496	0
809.572	0
823.628	0
865.533	0
880.682	0
880.731	4
880.764	3
880.807	1
882.497	0
882.598	0
883.144	0
883.234	0
883.39	0
883.531	999
883.953	0
884.448	0
884.54	8
884.603	0
884.788	0
885.044	0
887.292	0
