Mass spectrum: PC(16:1/10-HDoHE); LC-ESI-QTOF; MS2
Name: PC(16:1/10-HDoHE)
Class: Oxidized Phospholipid
Formula: C46H78NO9P
Exact mass: 820.104
SMILES: CCCCCC\C=C/CCCCCCCC(=O)OCC(COP([O-])(=O)OCC[N+](C)(C)C)OC(=O)CC\C=C/C\C=C/CC(O)\C=C\C=C/C\C=C/C\C=C/CC
InChI: InChI=1S/C46H78NO9P/c1-6-8-10-12-14-16-18-19-20-22-24-29-33-37-45(49)53-41-44(42-55-57(51,52)54-40-39-47(3,4)5)56-46(50)38-34-30-26-25-28-32-36-43(48)35-31-27-23-21-17-15-13-11-9-7-2/h9,11,15-18,23,26-28,30-32,35,43-44,48H,6-8,10,12-14,19-22,24-25,29,33-34,36-42H2,1-5H3/b11-9-,17-15-,18-16-,27-23-,30-26-,32-28-,35-31+
Instrument: Acquity UPLC Peptide BEH C18 column (50 x 2.1 mm; 1.7 um), Sciex TripleTOF5600
Instrument type: LC-ESI-QTOF
Ms type: MS2
Ion mode: NEGATIVE
Collision energy: 30-50
Precursor m/z: 878.5552726
Precursor type: [M+CH3COOH-H]-
m/z	relative intensity
135.1177	6
137.098	6
153.0796	6
153.0831	12
153.0848	12
153.0866	23
153.0883	27
153.0901	18
153.0918	33
153.0935	29
153.0953	29
153.097	15
153.0988	15
153.1005	6
153.1023	12
153.104	15
161.1257	6
161.1275	9
161.131	9
161.1346	6
161.1364	9
161.1418	6
168.0345	6
168.0363	6
168.0382	6
168.04	9
168.0418	15
168.0437	6
168.0455	6
168.0473	15
168.0491	6
168.051	12
181.0777	12
181.0796	6
181.0815	9
181.0834	12
181.0853	27
181.0872	18
181.0891	9
181.091	9
181.0967	12
181.0986	6
189.1612	6
190.1269	6
190.1328	9
190.1386	6
190.162	6
224.0583	9
224.0625	23
224.0646	6
224.0709	18
224.073	18
224.0773	9
224.0815	9
227.1801	6
227.1886	6
241.01	6
243.2165	6
252.4296	6
252.4386	6
252.4408	6
252.4655	6
252.9433	6
253.1902	6
253.1924	6
253.1947	19
253.1969	55
253.1991	68
253.2014	137
253.2036	212
253.2059	339
253.2081	446
253.2104	620
253.2126	695
253.2149	676
253.2171	820
253.2193	833
253.2216	703
253.2238	633
253.2261	427
253.2283	280
253.2306	222
253.2328	125
253.2351	84
253.2373	37
253.2395	43
253.2418	32
253.244	32
253.2485	9
253.2643	6
254.2105	9
254.2127	6
254.215	6
254.2172	12
254.2217	9
254.224	9
254.2262	6
254.233	6
254.9534	6
279.2239	9
281.2103	6
281.2126	12
281.215	18
281.2174	15
281.2198	29
281.2221	27
281.2245	44
281.2268	56
281.2292	33
281.2316	39
281.2339	39
281.2363	15
281.2387	29
281.2411	12
281.2434	6
281.2458	9
281.2481	6
283.2464	6
299.2214	9
299.2262	6
299.2311	6
299.2336	12
299.2384	15
325.1989	6
325.2014	9
325.204	6
325.2091	12
325.2116	6
325.2142	12
325.2167	23
325.2193	6
325.2218	23
325.2244	29
325.2269	12
325.232	9
325.2345	12
325.2371	12
325.2422	12
327.2198	6
327.2274	6
327.2351	6
327.2376	6
343.1937	6
343.2068	18
343.2094	18
343.212	56
343.2147	39
343.2173	39
343.2199	44
343.2225	50
343.2251	66
343.2277	77
343.2303	96
343.2329	23
343.2356	69
343.2382	44
343.2408	21
343.2434	6
343.246	15
343.2486	18
343.2538	6
343.2617	12
343.2669	6
365.7498	6
389.2158	6
447.6373	6
460.2692	6
460.2722	6
460.2964	6
460.3025	6
460.3086	6
475.2644	6
478.259	6
478.2744	15
478.2775	9
478.2837	15
478.2868	12
478.2899	15
478.293	9
478.2961	9
478.2991	15
478.3022	12
478.3053	15
478.3084	12
478.3115	15
478.3177	6
479.2037	9
479.213	9
479.2222	6
479.2284	6
494.2728	6
499.3771	6
515.0363	6
542.5941	6
550.2757	6
550.279	6
550.2856	15
550.2889	18
550.2922	15
550.2955	6
550.2989	6
550.3055	9
550.3088	18
550.3121	9
550.3154	15
550.3187	6
550.322	6
550.3254	6
550.3287	6
568.2604	6
568.2671	12
568.2704	6
568.2738	12
568.2772	15
568.2839	18
568.2873	36
568.2906	21
568.294	23
568.2974	33
568.3007	36
568.3041	36
568.3074	50
568.3108	33
568.3142	33
568.3176	18
568.3209	15
568.3243	23
568.3276	15
568.331	12
568.3344	12
568.3377	15
568.3411	6
568.3445	6
568.3478	9
733.3944	6
733.4173	23
733.4211	15
733.425	18
733.4288	6
733.4326	18
733.4364	29
733.4402	23
733.444	23
733.4479	23
733.4517	27
733.4555	29
733.4594	9
733.4632	15
733.467	29
733.4708	18
733.4746	21
733.4785	18
733.4823	15
733.4861	6
741.4675	6
759.464	6
759.4796	6
759.499	9
800.5695	6
801.9673	6
801.9833	6
801.9874	6
801.9913	6
801.9993	6
802.0153	6
802.0593	6
802.0673	6
804.3786	6
804.4386	18
804.4426	21
804.4467	27
804.4506	33
804.4547	39
804.4586	40
804.4626	68
804.4666	71
804.4706	78
804.4747	201
804.4786	171
804.4827	229
804.4866	333
804.4907	418
804.4946	503
804.4987	597
804.5026	695
804.5067	730
804.5107	827
804.5146	999
804.5187	882
804.5226	976
804.5267	953
804.5306	974
804.5347	958
804.5387	990
804.5427	838
804.5467	711
804.5507	666
804.5547	453
804.5587	464
804.5627	351
804.5667	266
804.5707	175
804.5747	140
804.5787	138
804.5827	74
804.5867	48
804.5907	29
804.5947	36
804.5987	40
804.6067	27
804.6107	15
804.6187	11
804.6267	8
804.6307	6
805.4755	6
805.4835	12
805.4875	18
805.4955	9
805.4995	21
805.5035	15
805.5075	23
805.5115	27
805.5155	39
805.5195	33
805.5235	18
805.5275	33
805.5315	39
805.5355	21
805.5395	15
805.5435	29
805.5475	18
805.5515	29
805.5555	12
805.5596	6
805.5635	15
805.5676	15
805.5756	9
805.5796	6
818.4981	6
818.5021	6
818.5062	12
818.5102	6
818.5223	6
818.5344	6
818.5385	12
818.5425	9
818.5466	6
818.5546	6
818.5627	6
818.5667	6
819.4429	6
819.451	9
819.4591	6
819.4672	6
819.4713	12
819.4753	15
819.4793	9
819.4833	6
819.4874	15
819.4915	18
819.4955	12
819.4995	23
819.5035	21
819.5076	12
819.5116	9
819.5399	6
846.4733	6
875.7327	6
878.4405	6
878.4572	6
878.4697	15
878.4823	18
878.4948	18
878.499	18
878.5032	6
878.5074	21
878.5115	15
878.5157	15
878.5199	42
878.5241	36
878.5283	29
878.5325	56
878.5366	60
878.5408	60
878.545	83
878.5492	77
878.5534	98
878.5576	48
878.5618	92
878.5659	69
878.5701	98
878.5743	48
878.5785	48
878.5826	56
878.5869	44
878.591	33
878.5952	48
878.5994	29
878.6036	29
878.6077	21
878.6119	9
878.6161	12
878.6203	6
878.6245	6
878.6287	15
879.5239	6
879.5406	9
879.5574	6
879.5616	12
879.5699	6
879.5909	9
879.616	6
