Mass spectrum: PG(18:1/17,18-EpETE); LC-ESI-QTOF; MS2
Name: PG(18:1/17,18-EpETE)
Class: Oxidized Phospholipid
Formula: C44H75O11P
Exact mass: 811.049
SMILES: CCCCCCCC\C=C/CCCCCCCC(=O)OCC(COP(O)(=O)OCC(O)CO)OC(=O)CCC\C=C/C\C=C/C\C=C/C\C=C/CC1OC1CC
InChI: InChI=1S/C44H75O11P/c1-3-5-6-7-8-9-10-11-12-15-18-21-24-27-30-33-43(47)51-37-40(38-53-56(49,50)52-36-39(46)35-45)54-44(48)34-31-28-25-22-19-16-13-14-17-20-23-26-29-32-42-41(4-2)55-42/h11-13,16-17,20,22,25-26,29,39-42,45-46H,3-10,14-15,18-19,21,23-24,27-28,30-38H2,1-2H3,(H,49,50)/b12-11-,16-13-,20-17-,25-22-,29-26-
Instrument: Acquity UPLC Peptide BEH C18 column (50 x 2.1 mm; 1.7 um), Sciex TripleTOF5600
Instrument type: LC-ESI-QTOF
Ms type: MS2
Ion mode: NEGATIVE
Collision energy: 30-50
Precursor m/z: 809.4974237
Precursor type: [M-H]-
m/z	relative intensity
152.9894	41
152.9947	41
152.9964	41
152.9982	41
152.9999	59
201.1625	41
211.2212	41
215.1746	59
215.1788	59
215.1808	59
215.1829	41
255.2016	59
255.2062	41
255.2084	41
255.2152	59
255.2197	59
255.2219	41
259.1682	41
259.1705	59
259.1728	82
273.2117	59
273.2211	59
273.2281	59
281.22	41
281.2224	41
281.2248	41
281.2271	118
281.2295	118
281.2319	300
281.2343	382
281.2366	417
281.239	599
281.2413	541
281.2437	999
281.2461	799
281.2484	881
281.2508	899
281.2532	617
281.2555	641
281.2579	441
281.2603	282
281.2626	259
281.265	100
281.2674	141
281.2697	141
281.2745	82
299.1874	41
299.1923	59
299.1972	59
299.1996	41
299.2045	41
299.2069	41
316.2039	41
317.1882	59
317.1933	41
317.1958	100
317.1983	41
317.2008	82
317.2033	200
317.2058	100
317.2083	282
317.2108	159
317.2134	217
317.2159	241
317.2184	217
317.2209	100
317.2234	59
317.226	141
317.2285	41
317.2335	41
435.2515	41
437.167	41
471.2338	41
491.2811	59
491.2967	41
527.2496	41
727.4516	41
809.3785	41
809.4307	59
809.4347	141
809.4387	100
809.4427	182
809.4467	100
809.4507	159
809.4548	41
809.4588	282
809.4628	341
809.4668	358
809.4708	500
809.4749	358
809.4789	382
809.4828	717
809.4869	417
809.4909	899
809.4949	799
809.4989	582
809.5029	717
809.507	717
809.511	517
809.515	658
809.519	482
809.523	641
809.527	482
809.5311	400
809.535	400
809.5391	259
809.5431	217
809.5471	141
809.5511	82
809.5551	141
809.5672	82
810.5029	82
810.5189	41
