Mass spectrum: Cer[NS] d38:1; LC-ESI-QTOF; MS2
Name: Cer[NS] d38:1
Class: Cer_NS
Formula: C38H75NO3
Exact mass: 594.0219999999998
SMILES: CCCCCCCCCCCCCCCCCCCC(=O)NC(CO)C(O)\C=C\CCCCCCCCCCCCC
InChI: InChI=1S/C38H75NO3/c1-3-5-7-9-11-13-15-17-18-19-20-22-24-26-28-30-32-34-38(42)39-36(35-40)37(41)33-31-29-27-25-23-21-16-14-12-10-8-6-4-2/h31,33,36-37,40-41H,3-30,32,34-35H2,1-2H3,(H,39,42)/b33-31+
Instrument: AB Sciex TripleTOF 5600+ system (Q-TOF) equipped with a DuoSpray ion source
Instrument type: LC-ESI-QTOF
Ms type: MS2
Ion mode: NEGATIVE
Collision energy: 45V
Column name: Acquity UPLC Peptide BEH C18 column (50*2.1 mm; 1.7 um; 130A)(Waters Co.,Milford, MA, USA)
Retention time: 12.27682
Precursor type: [M+CH3COOH-H]-
Precursor m/z: 652.5837
m/z	relative intensity
237.218	44
237.228	33
263.228	37
263.239	59
265.253	37
266.248	18
268.252	10
268.271	10
280.261	15
282.276	11
283.262	13
291.262	20
293.284	118
308.28	35
308.301	56
309.312	7
310.308	86
311.29	63
321.314	3
324.273	5
324.292	15
335.258	6
336.325	457
337.285	3
352.312	39
352.329	25
355.456	3
362.954	3
364.362	3
366.348	3
544.511	16
544.536	46
544.569	10
560.521	59
560.545	27
560.573	13
562.539	88
562.564	80
562.604	3
574.541	5
592.535	247
592.561	999
