Mass spectrum: PE 36:1; LC-ESI-QTOF; MS2
Name: PE 36:1
Class: PE
Formula: C41H80NO8P
Exact mass: 746.0659999999999
SMILES: CCCCCCCCCCCCCCCCCC(=O)OCC(COP(O)(=O)OCCN)OC(=O)CCCCCCC\C=C/CCCCCCCC
InChI: InChI=1S/C41H80NO8P/c1-3-5-7-9-11-13-15-17-19-21-23-25-27-29-31-33-40(43)47-37-39(38-49-51(45,46)48-36-35-42)50-41(44)34-32-30-28-26-24-22-20-18-16-14-12-10-8-6-4-2/h18,20,39H,3-17,19,21-38,42H2,1-2H3,(H,45,46)/b20-18-
Instrument: AB Sciex TripleTOF 5600+ system (Q-TOF) equipped with a DuoSpray ion source
Instrument type: LC-ESI-QTOF
Ms type: MS2
Ion mode: NEGATIVE
Collision energy: 45V
Column name: Acquity UPLC Peptide BEH C18 column (50*2.1 mm; 1.7 um; 130A)(Waters Co.,Milford, MA, USA)
Retention time: 11.1291
Precursor type: [M-H]-
Precursor m/z: 744.5527
m/z	relative intensity
78.96	2
96.969	0
122.002	1
140.01	10
152.996	0
178.027	0
196.038	14
214.036	0
214.054	0
253.219	0
255.228	5
255.243	2
280.369	2
280.395	0
281.249	999
281.561	0
282.254	0
282.391	0
283.028	0
283.263	350
309.279	24
404.251	0
406.269	0
419.251	0
452.278	1
460.268	2
460.292	3
462.299	12
478.294	5
480.179	0
480.264	2
480.306	50
488.299	0
563.362	0
563.741	1
563.929	0
565.272	0
570.791	0
638.916	0
742.186	1
742.235	1
744.427	0
744.552	295
744.624	1
745.547	0
745.577	0
745.745	0
