Mass spectrum: PE(16:1/15-HETE); LC-ESI-QTOF; MS2
Name: PE(16:1/15-HETE)
Class: Oxidized Phospholipid
Formula: C41H72NO9P
Exact mass: 754.001
SMILES: CCCCCC\C=C/CCCCCCCC(=O)OCC(COP(O)(=O)OCCN)OC(=O)CCC\C=C/C\C=C/C\C=C/C=C/C(O)CCCCC
InChI: InChI=1S/C41H72NO9P/c1-3-5-7-8-9-10-11-12-15-18-21-24-28-32-40(44)48-36-39(37-50-52(46,47)49-35-34-42)51-41(45)33-29-25-22-19-16-13-14-17-20-23-27-31-38(43)30-26-6-4-2/h10-11,13-14,19-20,22-23,27,31,38-39,43H,3-9,12,15-18,21,24-26,28-30,32-37,42H2,1-2H3,(H,46,47)/b11-10-,14-13-,22-19-,23-20-,31-27+
Instrument: Acquity UPLC Peptide BEH C18 column (50 x 2.1 mm; 1.7 um), Sciex TripleTOF5600
Instrument type: LC-ESI-QTOF
Ms type: MS2
Ion mode: NEGATIVE
Collision energy: 30-50
Precursor m/z: 752.4871934
Precursor type: [M-H]-
m/z	relative intensity
121.1012	135
121.1027	68
121.1058	68
140.0067	135
140.0083	68
140.0133	135
140.0166	68
149.1339	68
149.1424	68
175.1441	68
175.1459	68
175.1478	135
175.1515	68
203.15	68
203.176	68
219.133	135
219.1351	135
219.1371	135
219.1392	68
219.1434	68
219.1455	68
219.1475	135
253.1577	68
253.1956	68
253.2023	203
253.2046	135
253.2068	271
253.209	440
253.2113	440
253.2135	440
253.2157	339
253.218	508
253.2202	542
253.2224	440
253.2247	339
253.2269	203
253.2313	68
257.2197	68
257.2219	68
257.2242	135
257.2264	68
257.2287	135
257.2309	135
257.2354	68
257.2377	68
275.2037	68
275.2107	68
275.2316	68
275.2386	68
279.2202	135
279.2248	135
279.2319	68
279.2365	68
281.2369	68
281.2416	68
293.209	68
293.2162	68
293.2186	135
293.221	68
301.2049	135
301.2073	68
301.2098	135
301.2122	135
301.2146	135
301.2171	135
301.2195	135
301.222	135
301.2244	135
301.2268	68
301.2414	68
319.1985	68
319.2035	68
319.2085	135
319.2136	68
319.2161	203
319.2186	339
319.2211	373
319.2236	474
319.2261	491
319.2286	406
319.2311	356
319.2336	339
319.2386	68
319.2411	68
319.2486	68
425.7252	135
425.7657	68
432.2292	68
432.2409	68
432.2496	135
432.2642	68
432.27	68
450.2437	68
450.2526	203
450.2585	68
450.2615	203
450.2675	68
450.2705	68
516.2464	68
516.2527	68
516.2623	68
516.2687	68
516.2719	68
516.291	68
516.342	68
752.4501	68
752.4539	271
752.4578	339
752.4616	271
752.4655	728
752.4693	965
752.4731	677
752.477	610
752.4808	559
752.4847	914
752.4885	728
752.4924	999
752.4962	847
752.5001	711
752.5039	643
752.5078	542
752.5116	68
752.5154	373
752.5193	203
752.5231	203
752.527	68
752.5386	68
752.5424	68
752.5463	68
752.554	135
752.5732	68
