Mass spectrum: PE(18:1/17,18-EpETE); LC-ESI-QTOF; MS2
Name: PE(18:1/17,18-EpETE)
Class: Oxidized Phospholipid
Formula: C43H74NO9P
Exact mass: 780.039
SMILES: CCCCCCCC\C=C/CCCCCCCC(=O)OCC(COP(O)(=O)OCCN)OC(=O)CCC\C=C/C\C=C/C\C=C/C\C=C/CC1OC1CC
InChI: InChI=1S/C43H74NO9P/c1-3-5-6-7-8-9-10-11-12-15-18-21-24-27-30-33-42(45)49-37-39(38-51-54(47,48)50-36-35-44)52-43(46)34-31-28-25-22-19-16-13-14-17-20-23-26-29-32-41-40(4-2)53-41/h11-13,16-17,20,22,25-26,29,39-41H,3-10,14-15,18-19,21,23-24,27-28,30-38,44H2,1-2H3,(H,47,48)/b12-11-,16-13-,20-17-,25-22-,29-26-
Instrument: Acquity UPLC Peptide BEH C18 column (50 x 2.1 mm; 1.7 um), Sciex TripleTOF5600
Instrument type: LC-ESI-QTOF
Ms type: MS2
Ion mode: NEGATIVE
Collision energy: 30-50
Precursor m/z: 778.5028435
Precursor type: [M-H]-
m/z	relative intensity
107.0845	47
109.1045	47
140.0114	47
161.135	47
196.0325	47
196.0344	73
196.0384	47
196.0403	96
196.0423	47
196.0463	47
196.0502	47
201.1644	73
201.1664	73
214.0542	47
215.1642	47
215.1725	96
215.1766	73
215.1787	73
215.1807	47
215.1828	96
215.187	47
215.189	47
215.1911	47
219.1396	47
255.1994	47
255.2016	47
255.2039	47
255.2061	73
255.2084	96
255.2107	143
255.2129	143
255.2152	96
255.2174	47
255.2197	96
255.2219	47
255.2264	73
259.1478	47
259.1546	47
259.1591	73
259.1614	47
259.1637	96
259.166	143
259.1705	143
259.1728	166
259.175	119
259.1773	73
259.1819	47
273.2001	47
273.2118	47
273.2164	47
273.2188	47
273.2234	73
273.2304	73
280.6336	49
280.9599	49
281.1988	49
281.2225	49
281.2248	122
281.2296	171
281.2319	267
281.2343	318
281.2367	391
281.239	463
281.2414	590
281.2437	735
281.2461	515
281.2485	952
281.2509	653
281.2532	510
281.2556	604
281.258	725
281.2603	363
281.2627	267
281.265	96
281.2674	96
281.2722	96
281.2745	47
282.2503	47
299.1875	47
299.19	119
299.1949	96
299.1973	143
299.2021	143
299.2046	119
299.207	47
299.2095	119
299.2119	47
299.2144	47
299.2168	47
317.1833	49
317.1884	49
317.1909	241
317.1959	96
317.1984	288
317.201	288
317.2035	264
317.206	407
317.2085	529
317.211	576
317.2135	384
317.216	430
317.2185	311
317.221	262
317.2236	215
317.2261	143
317.2286	73
317.2311	96
317.2386	47
460.2784	47
460.2815	47
460.2905	73
460.2966	47
460.2996	47
478.2684	96
478.2746	47
478.2776	96
478.2807	96
478.2838	73
478.2869	73
478.29	215
478.2931	143
478.2962	96
478.3023	166
478.3054	73
478.3085	119
478.3116	73
478.3178	47
478.3239	47
496.2323	47
514.2425	47
704.4617	47
704.5478	73
760.5023	47
776.0989	49
778.4316	73
778.4355	49
778.4434	98
778.4474	49
778.4513	73
778.4553	222
778.4592	388
778.4631	197
778.467	220
778.471	370
778.4749	494
778.4789	400
778.4828	622
778.4868	646
778.4907	999
778.4946	795
778.4985	728
778.5025	777
778.5064	550
778.5104	828
778.5143	973
778.5182	926
778.5222	625
778.5261	751
778.53	475
778.534	475
778.5379	402
778.5419	400
778.5458	402
778.5497	250
778.5536	227
778.5576	124
778.5615	75
778.5655	49
778.5694	51
778.5734	47
778.5773	47
778.597	26
779.483	47
