Mass spectrum: PC(16:0/15-HETE); LC-ESI-QTOF; MS2
Name: PC(16:0/15-HETE)
Class: Oxidized Phospholipid
Formula: C44H80NO9P
Exact mass: 798.098
SMILES: CCCCCCCCCCCCCCCC(=O)OCC(COP([O-])(=O)OCC[N+](C)(C)C)OC(=O)CCC\C=C/C\C=C/C\C=C/C=C/C(O)CCCCC
InChI: InChI=1S/C44H80NO9P/c1-6-8-10-11-12-13-14-15-18-21-24-27-31-35-43(47)51-39-42(40-53-55(49,50)52-38-37-45(3,4)5)54-44(48)36-32-28-25-22-19-16-17-20-23-26-30-34-41(46)33-29-9-7-2/h16-17,22-23,25-26,30,34,41-42,46H,6-15,18-21,24,27-29,31-33,35-40H2,1-5H3/b17-16-,25-22-,26-23-,34-30+
Instrument: Acquity UPLC Peptide BEH C18 column (50 x 2.1 mm; 1.7 um), Sciex TripleTOF5600
Instrument type: LC-ESI-QTOF
Ms type: MS2
Ion mode: NEGATIVE
Collision energy: 30-50
Precursor m/z: 856.5709227
Precursor type: [M+CH3COOH-H]-
m/z	relative intensity
175.1519	123
219.137	190
219.1412	123
255.2213	123
255.2236	123
255.2281	251
255.2303	190
255.2326	313
255.2348	313
255.2371	190
255.2393	190
255.2416	123
255.2439	123
265.1852	190
281.2407	123
281.243	251
301.2109	190
301.2158	313
301.2183	313
301.2256	190
301.2281	123
301.2305	123
301.233	251
303.2395	123
309.2866	123
309.2915	123
319.201	123
319.2137	123
319.2187	251
319.2212	123
319.2237	313
319.2262	564
319.2313	374
319.2338	313
319.2363	313
319.2389	123
480.3087	123
480.3118	251
782.481	123
782.489	190
782.4968	190
782.5008	435
782.5047	374
782.5087	251
782.5126	815
782.5165	251
782.5205	564
782.5245	503
782.5284	625
782.5323	686
782.5363	503
782.5402	686
782.5442	686
782.5482	748
782.5521	999
782.556	564
782.56	503
782.5639	938
782.5679	748
782.5718	313
782.5757	251
782.5797	374
782.5837	190
782.5876	190
782.5916	190
783.5629	123
797.5072	123
809.566	123
809.59	123
856.4829	123
856.4911	190
856.4953	123
856.5613	123
856.5737	123
856.5944	190
856.6027	190
