Mass spectrum: PC 40:8; LC-ESI-QTOF; MS2
Name: PC 40:8
Class: PC
Formula: C48H80NO8P
Exact mass: 830.1429999999999
SMILES: CCCCC\C=C/C\C=C/CCCCCCCC(=O)OCC(COP([O-])(=O)OCC[N+](C)(C)C)OC(=O)CC\C=C/C\C=C/C\C=C/C\C=C/C\C=C/C\C=C/CC
InChI: InChI=1S/C48H80NO8P/c1-6-8-10-12-14-16-18-20-22-23-24-25-27-29-31-33-35-37-39-41-48(51)57-46(45-56-58(52,53)55-43-42-49(3,4)5)44-54-47(50)40-38-36-34-32-30-28-26-21-19-17-15-13-11-9-7-2/h8,10,14-17,20-22,24-26,29,31,35,37,46H,6-7,9,11-13,18-19,23,27-28,30,32-34,36,38-45H2,1-5H3/b10-8-,16-14-,17-15-,22-20-,25-24-,26-21-,31-29-,37-35-
Instrument: AB Sciex TripleTOF 5600+ system (Q-TOF) equipped with a DuoSpray ion source
Instrument type: LC-ESI-QTOF
Ms type: MS2
Ion mode: NEGATIVE
Collision energy: 45V
Column name: Acquity UPLC Peptide BEH C18 column (50*2.1 mm; 1.7 um; 130A)(Waters Co.,Milford, MA, USA)
Retention time: 8.8443
Precursor type: [M+CH3COOH-H]-
Precursor m/z: 888.572
m/z	relative intensity
78.959	3
107.087	1
133.103	1
152.995	1
163.15	1
168.043	13
175.147	1
177.164	4
191.177	5
191.189	2
203.177	1
206.061	1
217.121	1
223.002	2
224.068	19
229.194	25
241.009	11
249.184	4
261.219	1
271.172	1
278.365	1
279.231	342
281.229	1
282.343	1
283.241	164
284.265	7
297.037	2
297.214	1
305.246	9
306.248	8
309.221	2
315.051	0
326.201	3
327.231	508
415.214	2
419.26	4
420.254	5
437.261	0
486.295	14
486.31	4
488.261	0
495.593	0
502.736	1
504.304	115
534.293	5
552.303	9
581.3	3
581.331	0
582.311	4
599.32	1
600.317	1
604.303	1
726.515	0
743.461	1
769.482	1
806.525	0
811.917	0
811.966	3
812.01	0
813.583	0
814.464	2
814.531	999
815.54	2
816.001	0
817.259	0
828.539	0
829.463	2
829.491	10
829.518	3
885.709	0
885.787	1
887.56	0
888.566	315
888.676	0
893.875	0
