Mass spectrum: PC(17:0/12-HETE); LC-ESI-QTOF; MS2
Name: PC(17:0/12-HETE)
Class: Oxidized Phospholipid
Formula: C45H82NO9P
Exact mass: 812.125
SMILES: CCCCCCCCCCCCCCCCC(=O)OCC(COP([O-])(=O)OCC[N+](C)(C)C)OC(=O)CCC\C=C/C\C=C/C=C/C(O)C\C=C/CCCCC
InChI: InChI=1S/C45H82NO9P/c1-6-8-10-12-14-15-16-17-18-19-20-24-28-32-36-44(48)52-40-43(41-54-56(50,51)53-39-38-46(3,4)5)55-45(49)37-33-29-25-22-21-23-27-31-35-42(47)34-30-26-13-11-9-7-2/h22-23,25-27,30-31,35,42-43,47H,6-21,24,28-29,32-34,36-41H2,1-5H3/b25-22-,27-23-,30-26-,35-31+
Instrument: Acquity UPLC Peptide BEH C18 column (50 x 2.1 mm; 1.7 um), Sciex TripleTOF5600
Instrument type: LC-ESI-QTOF
Ms type: MS2
Ion mode: NEGATIVE
Collision energy: 30-50
Precursor m/z: 870.5865727
Precursor type: [M+CH3COOH-H]-
m/z	relative intensity
179.1049	78
179.1124	51
208.1093	51
224.0648	51
269.2381	104
269.2404	78
269.2428	78
269.2451	154
269.2474	154
269.2497	180
269.252	207
269.2544	180
269.2567	154
269.259	51
269.2613	51
301.2092	51
301.219	51
319.2069	51
319.2119	78
319.2144	154
319.2195	129
319.222	78
319.2245	104
319.2271	129
319.2296	180
319.2321	104
319.2346	129
319.2372	129
319.2397	51
331.278	51
332.2649	51
494.3265	51
494.339	78
494.3422	51
794.04	53
795.5476	51
796.499	51
796.507	104
796.511	51
796.515	233
796.5189	260
796.5229	207
796.5269	473
796.5309	496
796.5349	579
796.5388	501
796.5428	288
796.5468	367
796.5508	445
796.5547	129
796.5587	999
796.5627	445
796.5667	546
796.5707	708
796.5746	235
796.5787	362
796.5826	233
796.5866	157
796.5906	283
796.5946	129
796.5986	78
796.6025	78
796.6065	104
796.6105	51
796.6185	51
796.6265	51
797.5666	51
870.4925	104
870.5008	78
870.5049	51
870.5133	104
870.5175	78
870.5299	104
870.5341	51
870.5383	78
870.5424	78
870.5466	78
870.5507	104
870.5549	104
870.5591	104
870.5632	129
870.5715	129
870.5799	78
870.584	51
870.5924	78
870.6007	51
870.6049	104
870.609	154
870.6132	129
870.6215	51
870.634	51
