Mass spectrum: PC(16:1/14-HDoHE); LC-ESI-QTOF; MS2
Name: PC(16:1/14-HDoHE)
Class: Oxidized Phospholipid
Formula: C46H78NO9P
Exact mass: 820.104
SMILES: CCCCCC\C=C/CCCCCCCC(=O)OCC(COP([O-])(=O)OCC[N+](C)(C)C)OC(=O)CC\C=C/C\C=C/C\C=C/C=C/C(O)C\C=C/C\C=C/CC
InChI: InChI=1S/C46H78NO9P/c1-6-8-10-12-14-15-16-17-18-22-25-29-33-37-45(49)53-41-44(42-55-57(51,52)54-40-39-47(3,4)5)56-46(50)38-34-30-26-23-20-19-21-24-28-32-36-43(48)35-31-27-13-11-9-7-2/h9,11,15-16,19-20,24,26-28,30-32,36,43-44,48H,6-8,10,12-14,17-18,21-23,25,29,33-35,37-42H2,1-5H3/b11-9-,16-15-,20-19-,28-24-,30-26-,31-27-,36-32+
Instrument: Acquity UPLC Peptide BEH C18 column (50 x 2.1 mm; 1.7 um), Sciex TripleTOF5600
Instrument type: LC-ESI-QTOF
Ms type: MS2
Ion mode: NEGATIVE
Collision energy: 30-50
Precursor m/z: 878.5552726
Precursor type: [M+CH3COOH-H]-
m/z	relative intensity
161.14	32
168.0455	32
168.0473	32
205.1177	48
205.1197	48
205.1217	32
205.1237	48
205.1278	32
211.1531	32
224.0858	32
234.1185	32
253.1947	32
253.1992	32
253.2015	32
253.2037	111
253.206	159
253.2082	246
253.2105	230
253.2127	388
253.215	278
253.2172	309
253.2194	357
253.2217	436
253.2239	159
253.2262	111
253.2284	214
253.2307	95
253.2329	32
253.2352	63
253.2374	48
253.2464	32
279.2193	32
279.2217	111
279.224	48
279.2288	48
279.2311	63
279.2335	79
279.2358	159
279.2382	48
279.2405	32
279.2429	48
279.2453	48
279.2476	32
279.25	32
279.2523	48
281.2175	48
281.2246	48
281.227	95
281.2293	48
281.2317	32
281.2365	48
281.2388	32
281.2412	32
281.2554	32
317.1958	32
317.2033	32
317.2058	79
317.2083	95
317.2108	143
317.2134	79
317.2159	48
317.2184	48
317.2209	32
317.2234	63
317.236	32
325.2093	32
325.2118	32
325.2321	32
343.2096	79
343.2122	79
343.2148	127
343.2175	95
343.2201	111
343.2227	32
343.2253	143
343.2279	214
343.2305	143
343.2332	127
343.2357	79
343.2384	111
343.241	48
343.2462	32
343.2515	48
478.2656	32
478.2748	48
478.2841	48
478.2872	63
478.2903	48
478.2933	63
478.2964	95
478.3026	32
478.3057	32
478.3087	32
478.3119	32
479.2875	32
480.3043	32
550.2993	32
550.3027	32
550.3291	32
568.2979	32
568.3012	48
568.3079	32
568.3248	48
733.4219	32
733.4295	63
733.4333	48
733.441	32
733.4448	79
733.4562	32
733.4639	32
733.4753	32
733.4792	32
759.4725	32
804.4474	32
804.4554	32
804.4595	95
804.4634	127
804.4675	111
804.4714	174
804.4755	143
804.4794	309
804.4835	246
804.4875	388
804.4915	468
804.4955	468
804.4995	436
804.5035	825
804.5075	745
804.5115	714
804.5155	840
804.5195	904
804.5235	825
804.5275	999
804.5315	872
804.5355	872
804.5395	983
804.5435	856
804.5475	650
804.5515	563
804.5555	531
804.5595	563
804.5635	325
804.5675	341
804.5715	174
804.5755	262
804.5795	111
804.5835	111
804.5875	63
804.5915	63
804.5955	79
804.6035	32
805.4923	32
805.5043	48
805.5123	63
805.5203	32
805.5403	32
818.5191	32
818.5272	32
818.5595	32
818.5716	32
819.4721	32
819.4842	32
819.4922	32
819.5004	32
878.4539	48
878.4623	32
878.4874	48
878.4916	48
878.4958	32
878.5042	32
878.5083	63
878.5125	48
878.5167	79
878.5209	63
878.525	48
878.5292	95
878.5334	79
878.5376	127
878.5417	63
878.546	111
878.5501	159
878.5543	111
878.5585	63
878.5627	95
878.5668	111
878.571	127
878.5752	111
878.5794	95
878.5836	63
878.5878	32
878.592	48
878.5961	79
878.6003	48
878.6045	48
878.6129	79
878.6296	48
878.6379	32
878.7927	32
879.5416	32
879.5499	32
879.5667	32
879.5751	32
879.5834	32
