Mass spectrum: PC(16:0e/18-HETE); LC-ESI-QTOF; MS2
Name: PC(16:0e/18-HETE)
Class: Oxidized Phospholipid
Formula: C44H82NO8P
Exact mass: 784.115
SMILES: CCCCCCCCCCCCCCCCOCC(COP([O-])(=O)OCC[N+](C)(C)C)OC(=O)CCC\C=C/C\C=C/C\C=C/C\C=C/CCC(O)CC
InChI: InChI=1S/C44H82NO8P/c1-6-8-9-10-11-12-13-14-19-22-25-28-31-34-38-50-40-43(41-52-54(48,49)51-39-37-45(3,4)5)53-44(47)36-33-30-27-24-21-18-16-15-17-20-23-26-29-32-35-42(46)7-2/h16-18,20,24,26-27,29,42-43,46H,6-15,19,21-23,25,28,30-41H2,1-5H3/b18-16-,20-17-,27-24-,29-26-
Instrument: Acquity UPLC Peptide BEH C18 column (50 x 2.1 mm; 1.7 um), Sciex TripleTOF5600
Instrument type: LC-ESI-QTOF
Ms type: MS2
Ion mode: NEGATIVE
Collision energy: 30-50
Precursor m/z: 842.5916581
Precursor type: [M+CH3COOH-H]-
m/z	relative intensity
78.96174	4
78.96675	4
107.0931	4
163.1435	6
163.1471	4
163.1489	4
168.031	4
168.0365	4
168.0457	8
168.0475	6
168.053	4
177.0882	4
177.0995	4
189.1692	4
203.1704	4
203.1724	4
203.1744	6
205.1319	6
217.1824	8
217.1845	11
217.1866	4
217.1887	15
217.1908	21
217.1928	27
217.1949	15
217.197	17
217.1991	11
217.2012	40
217.2032	11
217.2053	6
217.2074	17
217.2095	4
217.2136	4
217.2157	4
229.1943	4
229.2093	4
233.6309	4
245.2032	4
257.2137	8
257.2159	11
257.2182	4
257.2204	17
257.2227	6
257.2249	11
257.2272	21
257.2295	8
257.2318	13
257.234	8
257.2363	13
257.2385	4
259.1748	4
260.2389	4
260.2458	6
260.248	4
260.3687	4
261.1638	2
261.1661	11
261.1684	11
261.1707	19
261.173	32
261.1753	41
261.1776	46
261.1798	61
261.1821	74
261.1844	91
261.1867	87
261.189	87
261.1912	57
261.1935	55
261.1958	46
261.1981	50
261.2003	24
261.2026	15
261.2049	7
261.2072	13
261.214	4
261.2163	4
262.1932	4
263.1926	2
275.2255	6
275.2279	6
275.2302	8
275.2325	11
275.2349	8
275.2372	15
275.2396	13
275.2419	4
275.2443	6
275.2466	6
275.2489	4
283.2037	4
292.8585	4
300.2767	4
300.2914	4
300.2938	4
301.1894	4
301.1918	4
301.1942	15
301.1967	4
301.1991	9
301.2016	26
301.204	26
301.2065	60
301.209	52
301.2114	70
301.2138	78
301.2163	98
301.2187	87
301.2212	76
301.2236	65
301.2261	67
301.2285	32
301.231	24
301.2334	20
301.2359	11
301.2383	11
301.2408	13
301.2432	7
301.2457	6
301.2481	4
302.231	4
303.2154	6
303.2227	6
303.2301	21
303.2326	11
303.235	11
303.2375	13
303.24	6
303.2424	11
303.2449	4
303.2473	6
304.2211	4
304.2235	6
304.2285	6
304.2309	4
304.2334	4
304.2359	8
304.2383	8
304.2408	8
304.2506	4
305.2433	4
305.2457	4
305.2605	4
317.1981	4
317.2056	6
317.2157	4
317.2232	6
317.2257	4
317.2283	6
317.2433	4
318.2192	6
318.2242	4
318.2267	11
318.2292	4
318.2318	4
318.2368	6
318.2444	4
318.3375	5
318.5943	5
319.1713	5
319.1814	5
319.1864	5
319.194	2
319.1965	7
319.199	20
319.2016	17
319.2041	26
319.2066	75
319.2091	84
319.2116	169
319.2142	232
319.2167	361
319.2192	473
319.2217	549
319.2242	617
319.2268	673
319.2293	628
319.2318	606
319.2343	536
319.2368	435
319.2394	312
319.2419	216
319.2444	169
319.2469	99
319.2495	67
319.252	41
319.2545	45
319.257	21
319.2596	13
319.2621	14
319.2646	3
319.2696	3
319.2873	2
319.32	3
319.6908	3
319.8825	3
320.1829	4
320.2233	4
320.2284	6
320.2309	9
320.236	11
320.2385	11
320.241	8
320.2461	4
321.2315	4
327.2095	4
327.2223	6
327.2249	4
327.2274	4
327.235	13
327.2402	4
327.2427	6
328.2261	4
328.2312	4
328.2338	4
328.2364	8
328.2389	11
328.2491	4
328.2568	4
377.2284	4
377.2366	11
377.2393	11
377.2448	17
377.2476	6
377.2503	13
377.2531	13
377.2558	8
377.2585	4
377.2613	8
377.2668	6
377.275	4
377.2777	4
419.082	4
447.4012	4
448.294	4
448.297	21
448.3	15
448.303	36
448.306	27
448.309	21
448.312	19
448.3149	34
448.3179	32
448.3209	40
448.3239	59
448.3269	38
448.3299	36
448.3329	27
448.3359	15
448.3388	15
448.3418	15
448.3448	4
448.3478	8
448.3508	4
448.3538	4
448.3568	4
448.3598	4
457.2378	4
464.8816	4
466.2698	4
466.279	4
466.2851	6
466.2881	8
466.2912	2
466.2942	11
466.2973	13
466.3003	24
466.3034	22
466.3064	33
466.3094	47
466.3125	53
466.3156	53
466.3186	107
466.3217	101
466.3247	110
466.3277	130
466.3308	112
466.3338	144
466.3369	90
466.3399	103
466.343	97
466.346	83
466.3491	67
466.3521	45
466.3552	33
466.3582	34
466.3613	20
466.3643	20
466.3673	11
466.3734	2
466.3765	4
466.3826	2
467.3277	6
467.3338	4
467.3399	4
467.349	2
469.1351	4
697.4605	6
697.4642	4
697.468	6
697.4717	4
697.4754	11
697.4792	8
697.4829	6
697.4866	6
697.4904	11
697.5015	4
697.509	4
697.5127	4
697.5201	4
723.481	4
723.5114	4
766.1073	4
766.1112	11
766.119	4
766.1229	4
766.1268	6
766.1385	4
766.1463	4
766.1502	4
766.158	11
766.1619	4
766.1658	6
766.1776	6
766.1932	6
766.1971	4
766.2127	4
767.5529	4
767.5568	4
767.5607	4
768.4758	4
768.5031	39
768.507	71
768.511	96
768.5149	128
768.5188	139
768.5227	254
768.5266	260
768.5305	376
768.5344	469
768.5383	514
768.5422	715
768.5461	740
768.55	819
768.554	864
768.5579	904
768.5618	999
768.5657	834
768.5696	853
768.5735	852
768.5775	741
768.5814	592
768.5853	439
768.5892	368
768.5931	280
768.597	185
768.6009	119
768.6049	70
768.6088	52
768.6127	39
768.6166	31
768.6205	19
768.6244	19
768.6283	26
768.6322	19
768.6361	11
768.64	6
768.6674	3
769.0978	3
769.3756	4
769.4304	4
769.4774	3
769.5048	6
769.5165	4
769.5204	8
769.5244	13
769.5283	13
769.5322	11
769.5361	8
769.54	11
769.5439	8
769.5479	15
769.5518	15
769.5557	13
769.5596	13
769.5635	17
769.5674	27
769.5714	21
769.5753	21
769.5792	21
769.5831	21
769.587	13
769.5909	13
769.5948	4
769.5988	11
769.6027	6
769.6066	8
769.6144	6
771.3024	4
776.4797	6
776.4836	4
776.515	4
776.5229	6
783.482	8
783.4899	11
783.4939	4
783.4978	6
783.5057	8
783.5096	17
783.5136	8
783.5176	4
783.5215	13
783.5255	15
783.5294	6
783.5334	11
783.5373	6
783.5413	4
783.5452	15
783.5491	6
783.5531	11
783.5571	6
783.5649	6
783.5729	4
783.5807	4
792.5681	4
842.4622	6
842.4704	15
842.4745	4
842.4827	8
842.4868	15
842.4908	11
842.495	11
842.4991	13
842.5032	15
842.5073	17
842.5114	4
842.5154	11
842.5195	8
842.5236	17
842.5277	23
842.5318	17
842.5359	11
842.54	15
842.5441	22
842.5482	34
842.5523	15
842.5564	30
842.5605	24
842.5646	15
842.5687	24
842.5728	55
842.5769	49
842.581	56
842.5851	53
842.5892	44
842.5933	40
842.5974	89
842.6014	40
842.6055	67
842.6096	58
842.6138	81
842.6179	47
842.6219	65
842.626	38
842.6301	29
842.6342	33
842.6383	11
842.6424	22
842.6465	20
842.6506	11
842.6547	4
842.6629	2
842.6711	2
843.5806	4
843.5847	4
843.597	4
843.6093	4
