Mass spectrum: PC 38:1; LC-ESI-QTOF; MS2
Name: PC 38:1
Class: PC
Formula: C46H90NO8P
Exact mass: 816.2009999999999
SMILES: CCCCCCCCCCCCCCCCCC(=O)OCC(COP([O-])(=O)OCC[N+](C)(C)C)OC(=O)CCCCCCCCC\C=C/CCCCCCCC
InChI: InChI=1S/C46H90NO8P/c1-6-8-10-12-14-16-18-20-22-23-25-27-29-31-33-35-37-39-46(49)55-44(43-54-56(50,51)53-41-40-47(3,4)5)42-52-45(48)38-36-34-32-30-28-26-24-21-19-17-15-13-11-9-7-2/h20,22,44H,6-19,21,23-43H2,1-5H3/b22-20-
Instrument: AB Sciex TripleTOF 5600+ system (Q-TOF) equipped with a DuoSpray ion source
Instrument type: LC-ESI-QTOF
Ms type: MS2
Ion mode: NEGATIVE
Collision energy: 45V
Column name: Acquity UPLC Peptide BEH C18 column (50*2.1 mm; 1.7 um; 130A)(Waters Co.,Milford, MA, USA)
Retention time: 12.29984
Precursor type: [M+CH3COOH-H]-
Precursor m/z: 874.653
m/z	relative intensity
78.961	5
126.999	5
141.018	6
162.061	3
168.04	12
224.068	9
255.233	24
281.246	37
281.258	15
283.263	274
295.256	4
303.232	4
308.317	5
309.278	831
311.295	15
337.309	23
377.014	6
382.985	4
396.968	4
410.995	4
420.978	4
459.022	7
464.979	5
490.329	13
502.28	3
508.34	55
516.343	10
534.351	7
541.013	4
546.936	4
579.056	3
584.976	5
601.049	3
622.936	3
629.008	4
666.924	3
705.044	4
727.583	12
753.57	4
787.611	5
798.079	4
798.658	10
799.625	6
799.646	16
799.68	14
800.614	999
800.656	147
801.615	6
812.678	5
814.679	8
815.59	9
874.646	103
874.684	25
874.713	14
