Mass spectrum: PC(17:1/9-HODE); LC-ESI-QTOF; MS2
Name: PC(17:1/9-HODE)
Class: Oxidized Phospholipid
Formula: C43H80NO9P
Exact mass: 786.087
SMILES: CCCCCCC\C=C/CCCCCCCC(=O)OCC(COP([O-])(=O)OCC[N+](C)(C)C)OC(=O)CCCCCCCC(O)\C=C\C=C/CCCCC
InChI: InChI=1S/C43H80NO9P/c1-6-8-10-12-14-15-16-17-18-19-20-22-26-30-34-42(46)50-38-41(39-52-54(48,49)51-37-36-44(3,4)5)53-43(47)35-31-27-23-25-29-33-40(45)32-28-24-21-13-11-9-7-2/h16-17,21,24,28,32,40-41,45H,6-15,18-20,22-23,25-27,29-31,33-39H2,1-5H3/b17-16-,24-21-,32-28+
Instrument: Acquity UPLC Peptide BEH C18 column (50 x 2.1 mm; 1.7 um), Sciex TripleTOF5600
Instrument type: LC-ESI-QTOF
Ms type: MS2
Ion mode: NEGATIVE
Collision energy: 30-50
Precursor m/z: 844.5709227
Precursor type: [M+CH3COOH-H]-
m/z	relative intensity
171.0972	79
171.1009	53
171.1028	105
171.1046	79
217.0022	53
217.0043	79
217.0063	53
224.0718	53
267.2176	53
267.2199	131
267.2222	216
267.2245	163
267.2268	163
267.2291	294
267.2314	347
267.2337	563
267.2361	268
267.2383	216
267.2407	216
267.243	131
267.2453	131
267.2499	53
277.1995	53
277.2065	79
277.2089	105
277.2112	79
277.2136	105
277.2159	163
277.2183	105
277.2206	105
277.2253	79
277.2277	79
277.23	53
283.2365	53
295.21	79
295.2124	105
295.2148	268
295.2173	294
295.2197	268
295.2221	373
295.2245	563
295.2269	457
295.2294	431
295.2318	484
295.2342	347
295.2366	400
295.2391	216
295.2415	131
295.2439	131
295.2463	53
295.2487	53
295.2512	53
305.2432	53
305.2457	53
305.2481	79
306.2424	53
306.2449	79
306.2498	79
306.2523	79
327.2278	53
374.9831	53
374.9913	79
374.9968	53
492.2924	53
492.305	53
492.3112	105
492.3144	53
492.3175	53
492.3237	53
492.33	53
520.3371	53
599.2443	53
599.2547	79
599.2616	53
699.475	53
699.4788	53
770.478	79
770.4819	53
770.4858	53
770.4897	216
770.4937	216
770.4976	242
770.5015	347
770.5054	347
770.5093	484
770.5132	510
770.5172	615
770.5211	431
770.525	589
770.5289	757
770.5328	973
770.5367	862
770.5406	810
770.5446	999
770.5485	568
770.5524	542
770.5563	731
770.5602	431
770.5641	457
770.5681	484
770.572	242
770.5759	431
770.5798	216
770.5837	131
770.5876	79
770.5916	105
770.5994	53
770.6033	53
770.6111	53
844.5107	53
844.5148	53
844.5229	131
844.5312	53
844.5353	53
844.5394	105
844.5435	79
844.5476	53
844.5517	79
844.5558	79
844.564	79
844.5722	79
844.5763	105
844.5804	163
844.5845	79
844.5927	53
844.5968	79
844.6009	105
844.6214	53
844.6337	53
