Mass spectrum: PC(18:2/20-HETE); LC-ESI-QTOF; MS2
Name: PC(18:2/20-HETE)
Class: Oxidized Phospholipid
Formula: C46H80NO9P
Exact mass: 822.12
SMILES: CCCCC\C=C/C\C=C/CCCCCCCC(=O)OCC(COP([O-])(=O)OCC[N+](C)(C)C)OC(=O)CCC\C=C/C\C=C/C\C=C/C\C=C/CCCCCO
InChI: InChI=1S/C46H80NO9P/c1-5-6-7-8-9-10-11-12-16-19-22-25-28-31-34-37-45(49)53-42-44(43-55-57(51,52)54-41-39-47(2,3)4)56-46(50)38-35-32-29-26-23-20-17-14-13-15-18-21-24-27-30-33-36-40-48/h9-10,12-13,15-17,20-21,24,26,29,44,48H,5-8,11,14,18-19,22-23,25,27-28,30-43H2,1-4H3/b10-9-,15-13-,16-12-,20-17-,24-21-,29-26-
Instrument: Acquity UPLC Peptide BEH C18 column (50 x 2.1 mm; 1.7 um), Sciex TripleTOF5600
Instrument type: LC-ESI-QTOF
Ms type: MS2
Ion mode: NEGATIVE
Collision energy: 30-50
Precursor m/z: 880.5709227
Precursor type: [M+CH3COOH-H]-
m/z	relative intensity
160.6457	28
160.6617	28
180.6064	28
180.6083	28
224.0586	28
224.0607	28
224.0628	28
224.0649	28
224.0775	28
245.2082	28
245.2214	28
245.2236	28
273.2209	28
273.2233	28
273.2325	28
275.2369	56
279.2138	28
279.2162	28
279.2208	56
279.2232	141
279.2255	28
279.2279	141
279.2302	164
279.2325	164
279.2349	56
279.2372	56
279.2396	56
279.2419	141
279.2443	113
279.2466	28
279.249	28
279.2513	28
279.2537	28
289.2152	28
289.2223	28
301.2178	28
301.2202	28
301.2251	28
301.2397	28
319.2093	84
319.2119	28
319.2143	155
319.2169	155
319.2194	159
319.2219	413
319.2244	295
319.2269	502
319.2294	408
319.2319	347
319.2344	206
319.2369	197
319.2394	178
319.2419	113
319.2444	84
319.2469	28
319.2569	28
391.167	28
391.2003	28
448.4313	28
448.4342	28
457.3286	28
457.3436	28
485.3141	28
485.3203	28
486.2786	28
486.291	28
486.3096	28
502.3937	28
502.4	28
504.2785	28
504.288	28
504.2911	28
504.2943	28
504.2974	28
504.3006	56
504.3037	84
504.3069	28
504.31	56
504.3132	56
504.3163	28
504.3195	56
504.3226	84
504.3258	28
526.2767	28
526.2863	28
526.2896	28
526.2992	28
544.2886	28
544.305	28
597.2979	28
597.3013	28
735.4138	28
735.4404	28
735.4822	28
742.2301	28
742.2607	28
798.4631	28
798.4869	28
798.5384	28
806.4449	28
806.4808	28
806.4847	28
806.4887	28
806.4927	56
806.4967	56
806.5007	202
806.5046	169
806.5086	375
806.5126	277
806.5166	385
806.5206	835
806.5246	783
806.5286	886
806.5325	840
806.5365	999
806.5405	854
806.5445	511
806.5485	689
806.5524	492
806.5565	507
806.5604	202
806.5644	174
806.5684	244
806.5724	253
806.5764	56
806.5803	56
806.5843	56
806.5883	113
806.6122	28
821.4419	28
821.47	28
821.4741	28
821.5223	28
821.5344	28
821.5384	28
878.2711	28
880.5045	28
880.517	28
880.5253	56
880.5295	28
880.5378	28
880.5419	56
880.5461	211
880.5503	159
880.5544	155
880.5586	169
880.5627	84
880.567	188
880.5711	84
880.5753	159
880.5794	197
880.5836	141
880.5878	84
880.5919	183
880.5961	28
880.6002	28
880.6085	28
880.6127	28
880.6169	56
880.6293	28
