Mass spectrum: PI 36:3; LC-ESI-QTOF; MS2
Name: PI 36:3
Class: PI
Formula: C45H81O13P
Exact mass: 861.106
SMILES: CCCCCCCC\C=C/CCCCCCCC(=O)OCC(COP(O)(=O)OC1C(O)C(O)C(O)C(O)C1O)OC(=O)CCCCCCC\C=C/C\C=C/CCCCC
InChI: InChI=1S/C45H81O13P/c1-3-5-7-9-11-13-15-17-19-21-23-25-27-29-31-33-38(46)55-35-37(36-56-59(53,54)58-45-43(51)41(49)40(48)42(50)44(45)52)57-39(47)34-32-30-28-26-24-22-20-18-16-14-12-10-8-6-4-2/h12,14,17-20,37,40-45,48-52H,3-11,13,15-16,21-36H2,1-2H3,(H,53,54)/b14-12-,19-17-,20-18-
Instrument: AB Sciex TripleTOF 5600+ system (Q-TOF) equipped with a DuoSpray ion source
Instrument type: LC-ESI-QTOF
Ms type: MS2
Ion mode: NEGATIVE
Collision energy: 45V
Column name: Acquity UPLC Peptide BEH C18 column (50*2.1 mm; 1.7 um; 130A)(Waters Co.,Milford, MA, USA)
Retention time: 8.368317
Precursor type: [M-H]-
Precursor m/z: 859.5327
m/z	relative intensity
78.96	3
96.969	1
152.994	10
223.0	13
224.065	0
241.01	64
255.234	21
259.023	8
279.232	67
281.25	78
283.257	2
283.272	1
293.21	4
294.214	3
297.033	12
303.231	1
305.246	24
305.267	3
307.248	3
307.268	5
308.269	5
315.049	4
327.235	2
391.225	9
415.217	5
417.239	37
417.276	1
435.235	1
435.258	2
441.241	1
443.249	3
444.25	2
553.258	3
553.287	6
553.323	1
555.295	0
571.271	2
577.275	7
577.475	1
579.233	1
579.291	41
579.347	1
595.293	2
597.269	1
597.296	6
597.325	1
603.28	2
603.306	1
697.487	1
709.16	0
771.487	2
772.502	6
772.53	2
784.551	1
785.525	2
785.56	7
799.565	3
856.792	3
856.853	2
859.441	3
859.531	999
859.788	1
860.525	2
860.564	2
