Mass spectrum: PI 34:2; LC-ESI-QTOF; MS2
Name: PI 34:2
Class: PI
Formula: C43H79O13P
Exact mass: 835.068
SMILES: CCCCCCCCCCCCCCCC(=O)OCC(COP(O)(=O)OC1C(O)C(O)C(O)C(O)C1O)OC(=O)CCCCCCC\C=C/C\C=C/CCCCC
InChI: InChI=1S/C43H79O13P/c1-3-5-7-9-11-13-15-17-18-20-22-24-26-28-30-32-37(45)55-35(34-54-57(51,52)56-43-41(49)39(47)38(46)40(48)42(43)50)33-53-36(44)31-29-27-25-23-21-19-16-14-12-10-8-6-4-2/h11,13,17-18,35,38-43,46-50H,3-10,12,14-16,19-34H2,1-2H3,(H,51,52)/b13-11-,18-17-
Instrument: AB Sciex TripleTOF 5600+ system (Q-TOF) equipped with a DuoSpray ion source
Instrument type: LC-ESI-QTOF
Ms type: MS2
Ion mode: NEGATIVE
Collision energy: 45V
Column name: Acquity UPLC Peptide BEH C18 column (50*2.1 mm; 1.7 um; 130A)(Waters Co.,Milford, MA, USA)
Retention time: 8.304277
Precursor type: [M-H]-
Precursor m/z: 833.5168
m/z	relative intensity
78.959	5
96.964	1
134.987	1
152.996	18
223.0	21
241.01	76
251.204	1
253.208	7
253.221	8
255.233	92
256.236	1
259.02	9
278.35	1
279.232	121
281.248	23
283.26	8
297.038	14
315.04	4
315.065	2
327.226	2
391.214	15
391.231	17
409.24	4
415.226	31
415.256	5
417.212	2
417.239	10
433.233	2
435.252	3
436.273	1
551.276	0
553.256	14
553.273	15
553.293	10
553.314	2
571.258	2
571.298	7
577.253	8
577.283	26
579.269	4
579.302	4
581.288	1
595.293	6
597.302	0
647.954	0
671.441	1
745.485	1
746.495	8
759.539	3
783.476	1
801.511	1
830.834	4
830.89	2
833.143	1
833.397	1
833.443	10
833.516	999
833.711	1
834.519	2
837.961	1
