Mass spectrum: PC(14:0/8-HEPE); LC-ESI-QTOF; MS2
Name: PC(14:0/8-HEPE)
Class: Oxidized Phospholipid
Formula: C42H74NO9P
Exact mass: 768.028
SMILES: CCCCCCCCCCCCCC(=O)OCC(COP([O-])(=O)OCC[N+](C)(C)C)OC(=O)CCC\C=C/CC(O)\C=C\C=C/C\C=C/C\C=C/CC
InChI: InChI=1S/C42H74NO9P/c1-6-8-10-12-14-16-18-20-22-24-29-33-41(45)49-37-40(38-51-53(47,48)50-36-35-43(3,4)5)52-42(46)34-30-26-25-28-32-39(44)31-27-23-21-19-17-15-13-11-9-7-2/h9,11,15,17,21,23,25,27-28,31,39-40,44H,6-8,10,12-14,16,18-20,22,24,26,29-30,32-38H2,1-5H3/b11-9-,17-15-,23-21-,28-25-,31-27+
Instrument: Acquity UPLC Peptide BEH C18 column (50 x 2.1 mm; 1.7 um), Sciex TripleTOF5600
Instrument type: LC-ESI-QTOF
Ms type: MS2
Ion mode: NEGATIVE
Collision energy: 30-50
Precursor m/z: 826.5239725
Precursor type: [M+CH3COOH-H]-
m/z	relative intensity
118.5052	33
155.064	32
155.0728	32
161.1329	32
168.0492	32
224.0647	33
224.0689	49
224.0731	32
226.2496	33
226.4916	33
226.7635	33
227.178	49
227.1801	17
227.1823	32
227.1844	33
227.1865	99
227.1886	99
227.1908	181
227.1929	530
227.195	497
227.1971	650
227.1993	849
227.2014	884
227.2035	851
227.2056	584
227.2078	551
227.2099	450
227.212	251
227.2142	234
227.2163	150
227.2184	33
227.2205	66
227.2227	51
227.2248	33
227.2269	17
227.229	51
229.9126	17
253.2059	32
255.2058	32
255.2081	32
255.2126	32
255.2148	32
299.1921	32
299.1945	32
299.197	32
299.1994	32
299.2018	65
299.2043	80
299.2067	65
317.1981	32
317.2032	80
317.2057	96
317.2082	80
317.2107	112
317.2132	112
317.2157	80
317.2182	49
317.2207	32
317.2233	32
317.2258	65
317.2333	32
460.3962	32
524.2704	32
524.2833	32
542.2719	80
542.2751	32
542.2784	32
542.2817	65
542.285	32
542.2916	65
542.2949	49
542.3014	49
542.3047	32
542.308	32
681.39	49
681.3973	49
681.4084	32
681.4121	49
681.4231	32
748.5457	33
752.4149	33
752.4187	33
752.4304	32
752.438	49
752.442	49
752.4458	66
752.4497	169
752.4536	303
752.4574	339
752.4613	395
752.4651	410
752.4691	480
752.4729	481
752.4767	759
752.4807	773
752.4845	892
752.4884	808
752.4922	999
752.4961	877
752.5	996
752.5038	753
752.5078	586
752.5116	773
752.5155	620
752.5193	412
752.5232	516
752.5271	309
752.5309	308
752.5349	153
752.5387	205
752.5425	35
752.5464	120
752.5503	85
752.5542	52
752.5735	17
752.8251	17
753.468	49
753.4718	32
753.5222	32
766.4828	32
766.5258	32
767.4636	32
826.4936	32
826.4977	49
826.5017	32
826.5058	65
826.5139	49
826.5179	32
826.522	65
826.5261	65
826.5301	49
826.5382	32
826.5423	32
826.5463	65
826.5504	96
826.5544	49
826.5585	49
826.5626	32
826.5667	80
