Mass spectrum: PE 34:4; LC-ESI-QTOF; MS2
Name: PE 34:4
Class: PE
Formula: C39H70NO8P
Exact mass: 711.9639999999999
SMILES: CCCCCCCCCCCCCC(=O)OCC(COP(O)(=O)OCCN)OC(=O)CCCCCC\C=C/C\C=C/C\C=C/C\C=C/CC
InChI: InChI=1S/C39H70NO8P/c1-3-5-7-9-11-13-15-16-17-18-19-20-22-24-26-28-30-32-39(42)48-37(36-47-49(43,44)46-34-33-40)35-45-38(41)31-29-27-25-23-21-14-12-10-8-6-4-2/h5,7,11,13,16-17,19-20,37H,3-4,6,8-10,12,14-15,18,21-36,40H2,1-2H3,(H,43,44)/b7-5-,13-11-,17-16-,20-19-
Instrument: AB Sciex TripleTOF 5600+ system (Q-TOF) equipped with a DuoSpray ion source
Instrument type: LC-ESI-QTOF
Ms type: MS2
Ion mode: NEGATIVE
Collision energy: 45V
Column name: Acquity UPLC Peptide BEH C18 column (50*2.1 mm; 1.7 um; 130A)(Waters Co.,Milford, MA, USA)
Retention time: 8.782741
Precursor type: [M-H]-
Precursor m/z: 710.474
m/z	relative intensity
196.038	92
205.201	138
227.199	999
249.187	403
259.227	101
259.25	249
279.227	61
281.246	276
303.223	972
303.234	944
303.245	566
322.952	61
424.231	123
500.254	61
632.555	61
710.441	470
710.471	532
710.487	344
