Mass spectrum: PG 30:0; LC-ESI-QTOF; MS2
Name: PG 30:0
Class: PG
Formula: C36H71O10P
Exact mass: 694.93
SMILES: CCCCCCCCCCCCCCCC(=O)OC(COC(=O)CCCCCCCCCCCCC)COP(O)(=O)OCC(O)CO
InChI: InChI=1S/C36H71O10P/c1-3-5-7-9-11-13-15-16-18-20-22-24-26-28-36(40)46-34(32-45-47(41,42)44-30-33(38)29-37)31-43-35(39)27-25-23-21-19-17-14-12-10-8-6-4-2/h33-34,37-38H,3-32H2,1-2H3,(H,41,42)
Instrument: AB Sciex TripleTOF 5600+ system (Q-TOF) equipped with a DuoSpray ion source
Instrument type: LC-ESI-QTOF
Ms type: MS2
Ion mode: NEGATIVE
Collision energy: 45V
Column name: Acquity UPLC Peptide BEH C18 column (50*2.1 mm; 1.7 um; 130A)(Waters Co.,Milford, MA, USA)
Retention time: 8.180974
Precursor type: [M-H]-
Precursor m/z: 693.4677
m/z	relative intensity
152.996	38
171.007	11
209.022	12
223.089	7
226.495	7
227.035	21
227.2	999
255.231	399
277.032	7
281.256	5
283.26	21
285.264	4
363.193	22
391.195	11
391.226	28
409.207	4
437.225	21
455.235	14
465.258	31
465.276	16
483.253	26
483.267	23
483.284	21
629.548	4
661.393	4
691.275	4
693.335	4
693.437	262
693.454	671
693.478	261
693.491	236
694.454	5
