Mass spectrum: PI 38:4; LC-ESI-QTOF; MS2
Name: PI 38:4
Class: PI
Formula: C47H83O13P
Exact mass: 887.1439999999999
SMILES: CCCCCCCCCCCCCCCCCC(=O)OCC(COP(O)(=O)OC1C(O)C(O)C(O)C(O)C1O)OC(=O)CCCCCC\C=C/C\C=C/C\C=C/C\C=C/CC
InChI: InChI=1S/C47H83O13P/c1-3-5-7-9-11-13-15-17-19-20-22-24-26-28-30-32-34-36-41(49)59-39(38-58-61(55,56)60-47-45(53)43(51)42(50)44(52)46(47)54)37-57-40(48)35-33-31-29-27-25-23-21-18-16-14-12-10-8-6-4-2/h5,7,11,13,17,19,22,24,39,42-47,50-54H,3-4,6,8-10,12,14-16,18,20-21,23,25-38H2,1-2H3,(H,55,56)/b7-5-,13-11-,19-17-,24-22-
Instrument: AB Sciex TripleTOF 5600+ system (Q-TOF) equipped with a DuoSpray ion source
Instrument type: LC-ESI-QTOF
Ms type: MS2
Ion mode: NEGATIVE
Collision energy: 45V
Column name: Acquity UPLC Peptide BEH C18 column (50*2.1 mm; 1.7 um; 130A)(Waters Co.,Milford, MA, USA)
Retention time: 8.754183
Precursor type: [M-H]-
Precursor m/z: 885.5508
m/z	relative intensity
78.959	17
96.969	4
125.023	0
134.984	1
150.98	0
152.52	0
152.996	43
161.049	0
163.073	0
171.005	0
177.092	0
186.981	0
191.111	0
204.982	0
204.991	0
205.132	0
205.196	5
217.196	0
222.306	0
223.001	62
231.203	0
231.216	0
238.992	0
240.261	1
240.311	0
240.944	0
241.012	208
245.149	0
258.426	0
259.022	21
259.244	27
259.273	0
267.21	0
282.383	0
282.958	0
283.098	0
283.263	255
283.976	0
284.265	1
285.22	1
286.393	0
293.025	0
297.037	46
301.221	0
302.284	1
302.428	0
303.232	263
303.561	0
304.236	1
304.38	0
306.626	0
307.506	0
308.032	0
308.129	0
308.49	0
315.008	0
315.049	18
333.059	0
355.664	0
357.355	0
417.924	0
417.942	0
417.965	0
419.255	211
420.262	0
437.266	17
437.854	0
438.257	0
438.274	0
439.225	26
439.287	0
457.231	0
457.252	0
477.05	0
481.2	0
482.341	0
482.775	0
484.66	0
485.606	0
488.096	0
489.857	0
491.528	0
492.92	0
493.213	0
493.744	0
494.513	0
497.085	0
499.733	0
500.092	0
500.881	0
501.587	0
503.148	0
510.834	0
525.275	0
525.291	0
527.241	0
563.721	0
579.481	0
581.309	239
582.306	0
599.321	66
601.278	45
605.235	0
609.479	0
612.817	0
619.289	5
623.504	0
723.472	1
723.498	2
723.529	0
725.458	0
725.491	0
725.517	0
725.553	0
765.513	0
793.489	0
793.541	0
795.529	0
802.588	0
825.669	0
835.467	0
835.51	0
835.575	0
837.289	0
853.52	0
853.566	0
867.521	0
868.761	0
882.685	0
882.761	17
882.813	1
882.857	0
883.646	0
884.256	0
884.384	0
884.436	0
884.481	0
884.522	0
884.547	0
884.573	0
884.606	0
885.295	0
885.322	0
885.345	0
885.375	0
885.407	0
885.547	999
886.549	9
886.782	52
886.817	18
886.84	13
887.041	20
887.081	1
887.116	1
887.261	29
887.33	0
887.483	10
887.747	3
887.846	0
887.915	0
887.942	0
888.166	0
888.207	0
888.55	0
890.474	0
891.018	0
