Mass spectrum: PC(17:1/20-HETE); LC-ESI-QTOF; MS2
Name: PC(17:1/20-HETE)
Class: Oxidized Phospholipid
Formula: C45H80NO9P
Exact mass: 810.109
SMILES: CCCCCCC\C=C/CCCCCCCC(=O)OCC(COP([O-])(=O)OCC[N+](C)(C)C)OC(=O)CCC\C=C/C\C=C/C\C=C/C\C=C/CCCCCO
InChI: InChI=1S/C45H80NO9P/c1-5-6-7-8-9-10-11-12-18-21-24-27-30-33-36-44(48)52-41-43(42-54-56(50,51)53-40-38-46(2,3)4)55-45(49)37-34-31-28-25-22-19-16-14-13-15-17-20-23-26-29-32-35-39-47/h11-13,15-16,19-20,23,25,28,43,47H,5-10,14,17-18,21-22,24,26-27,29-42H2,1-4H3/b12-11-,15-13-,19-16-,23-20-,28-25-
Instrument: Acquity UPLC Peptide BEH C18 column (50 x 2.1 mm; 1.7 um), Sciex TripleTOF5600
Instrument type: LC-ESI-QTOF
Ms type: MS2
Ion mode: NEGATIVE
Collision energy: 30-50
Precursor m/z: 868.5709227
Precursor type: [M+CH3COOH-H]-
m/z	relative intensity
78.95328	40
78.95951	40
78.9645	40
87.00628	40
87.00758	40
87.00889	40
97.8938	40
97.89658	40
161.0401	40
161.0436	40
163.0719	40
163.0737	40
168.0399	40
168.0435	40
168.0453	202
168.0472	40
168.049	40
168.0544	40
170.0421	40
170.0476	40
170.0512	40
177.091	40
177.1003	40
181.1209	40
181.1567	40
191.1699	40
191.1777	40
192.2399	40
192.2516	40
224.0583	40
224.0604	40
224.0667	81
224.0709	81
245.1552	40
245.1925	40
245.2233	40
245.2255	81
245.2277	40
245.2299	122
245.2321	40
245.2343	40
253.2116	81
253.2138	122
253.2183	40
253.2228	40
253.225	40
255.2242	40
255.2332	40
267.2195	216
267.2218	202
267.2241	243
267.2264	459
267.2287	297
267.231	965
267.2332	533
267.2355	513
267.2378	263
267.2401	162
267.2424	40
267.2447	40
267.247	122
267.2493	122
267.2516	81
267.2608	40
273.1999	40
273.2115	40
273.2184	122
273.2207	40
273.2231	40
273.2254	40
273.23	40
275.2204	40
275.2274	40
275.2321	122
275.2344	40
275.2367	81
275.239	40
275.2414	81
275.2437	40
275.246	40
275.2484	81
281.2351	40
281.2421	40
281.2492	81
283.2497	40
283.2568	40
283.2591	40
283.2639	40
283.2709	40
283.278	40
289.2102	40
289.215	40
289.2174	81
289.2245	40
289.2317	40
290.0743	40
290.0791	40
290.0815	40
290.0839	81
290.091	40
290.0982	40
291.0856	40
291.088	40
291.0928	40
301.1909	40
301.2055	81
301.2079	122
301.2104	40
301.2128	40
301.2152	162
301.2177	202
301.225	81
301.2274	40
305.2132	81
317.2077	40
317.2102	40
317.2252	40
317.2352	40
319.2017	40
319.2067	40
319.2092	122
319.2117	202
319.2143	236
319.2167	668
319.2193	452
319.2218	675
319.2243	918
319.2268	999
319.2293	729
319.2318	520
319.2343	526
319.2368	256
319.2393	216
319.2418	338
319.2443	162
319.2468	122
319.2969	40
319.3471	40
319.3571	40
321.9842	40
321.9867	40
343.2298	40
343.2324	40
347.2378	40
347.2404	40
347.2456	40
347.2482	40
347.2534	40
347.256	40
347.2587	122
347.2613	40
347.2744	40
348.2552	40
348.2604	40
417.2353	81
417.2381	40
419.2574	81
419.2632	40
419.2661	40
419.2747	40
438.1319	40
438.1436	40
438.1554	40
492.2946	81
492.2977	122
492.3008	40
492.3039	81
492.307	81
492.3102	122
492.3133	81
492.3195	81
492.3226	40
492.3257	40
492.3537	40
526.2902	40
526.303	40
534.4718	40
534.488	40
544.309	40
544.3122	40
674.2298	40
674.2407	40
674.2589	40
794.4907	40
794.4947	40
794.4987	40
794.5105	122
794.5145	122
794.5184	162
794.5223	81
794.5263	284
794.5303	40
794.5342	202
794.5381	122
794.5421	162
794.5461	202
794.55	40
794.554	122
794.5579	40
794.5619	40
794.5659	81
794.5698	40
794.5737	40
794.5856	40
808.5151	40
808.535	40
808.5629	40
835.2894	40
835.3137	40
