Mass spectrum: PG 40:8; LC-ESI-QTOF; MS2
Name: PG 40:8
Class: PG
Formula: C46H75O10P
Exact mass: 819.072
SMILES: CCCCC\C=C/C\C=C/CCCCCCCC(=O)OCC(COP(O)(=O)OCC(O)CO)OC(=O)CC\C=C/C\C=C/C\C=C/C\C=C/C\C=C/C\C=C/CC
InChI: InChI=1S/C46H75O10P/c1-3-5-7-9-11-13-15-17-19-20-21-22-24-26-28-30-32-34-36-38-46(50)56-44(42-55-57(51,52)54-40-43(48)39-47)41-53-45(49)37-35-33-31-29-27-25-23-18-16-14-12-10-8-6-4-2/h5,7,11-14,17-19,21-23,26,28,32,34,43-44,47-48H,3-4,6,8-10,15-16,20,24-25,27,29-31,33,35-42H2,1-2H3,(H,51,52)/b7-5-,13-11-,14-12-,19-17-,22-21-,23-18-,28-26-,34-32-
Instrument: AB Sciex TripleTOF 5600+ system (Q-TOF) equipped with a DuoSpray ion source
Instrument type: LC-ESI-QTOF
Ms type: MS2
Ion mode: NEGATIVE
Collision energy: 45V
Column name: Acquity UPLC Peptide BEH C18 column (50*2.1 mm; 1.7 um; 130A)(Waters Co.,Milford, MA, USA)
Retention time: 7.886111
Precursor type: [M-H]-
Precursor m/z: 817.5013
m/z	relative intensity
78.96	3
152.995	19
177.166	4
229.197	22
249.187	4
259.241	15
269.188	2
270.196	3
272.208	3
277.22	2
278.366	2
279.197	3
279.231	667
281.249	3
283.241	106
284.266	5
303.232	136
317.217	2
327.231	302
332.195	5
415.215	8
433.232	3
448.314	6
463.225	13
466.326	12
467.331	10
480.305	1
481.241	1
489.264	7
507.268	12
513.263	2
531.258	2
537.259	12
555.262	9
560.363	2
576.372	1
640.478	1
658.531	1
716.474	1
729.464	1
730.477	2
745.511	1
757.492	4
781.517	4
783.535	7
799.519	5
814.921	5
817.499	999
817.568	12
817.733	1
