Mass spectrum: SM d38:1; LC-ESI-QTOF; MS2
Name: SM d38:1
Class: SM
Formula: C43H87N2O6P
Exact mass: 759.153
SMILES: CCCCCCCCCCCCCCCCCCCC(=O)NC(COP([O-])(=O)OCC[N+](C)(C)C)C(O)\C=C\CCCCCCCCCCCCC
InChI: InChI=1S/C43H87N2O6P/c1-6-8-10-12-14-16-18-20-21-22-23-25-27-29-31-33-35-37-43(47)44-41(40-51-52(48,49)50-39-38-45(3,4)5)42(46)36-34-32-30-28-26-24-19-17-15-13-11-9-7-2/h34,36,41-42,46H,6-33,35,37-40H2,1-5H3,(H-,44,47,48,49)/b36-34+
Instrument: AB Sciex TripleTOF 5600+ system (Q-TOF) equipped with a DuoSpray ion source
Instrument type: LC-ESI-QTOF
Ms type: MS2
Ion mode: NEGATIVE
Collision energy: 45V
Column name: Acquity UPLC Peptide BEH C18 column (50*2.1 mm; 1.7 um; 130A)(Waters Co.,Milford, MA, USA)
Retention time: 10.80391
Precursor type: [M+CH3COOH-H]-
Precursor m/z: 817.6406
m/z	relative intensity
78.959	13
96.971	0
122.984	1
139.003	0
139.288	0
168.042	43
168.057	3
279.232	0
311.303	0
406.979	0
415.314	0
418.87	0
421.321	0
431.036	0
449.312	3
460.31	0
654.52	0
672.533	2
698.557	1
741.25	3
743.443	0
743.602	999
743.679	1
743.834	1
744.613	3
758.56	5
758.594	3
817.64	26
817.676	3
