Mass spectrum: PS(18:0/17,18-EpETE); LC-ESI-QTOF; MS2
Name: PS(18:0/17,18-EpETE)
Class: Oxidized Phospholipid
Formula: C44H76NO11P
Exact mass: 826.064
SMILES: CCCCCCCCCCCCCCCCCC(=O)OCC(COP(O)(=O)OCC(N)C(O)=O)OC(=O)CCC\C=C/C\C=C/C\C=C/C\C=C/CC1OC1CC
InChI: InChI=1S/C44H76NO11P/c1-3-5-6-7-8-9-10-11-12-15-18-21-24-27-30-33-42(46)52-35-38(36-53-57(50,51)54-37-39(45)44(48)49)55-43(47)34-31-28-25-22-19-16-13-14-17-20-23-26-29-32-41-40(4-2)56-41/h13,16-17,20,22,25-26,29,38-41H,3-12,14-15,18-19,21,23-24,27-28,30-37,45H2,1-2H3,(H,48,49)(H,50,51)/b16-13-,20-17-,25-22-,29-26-
Instrument: Acquity UPLC Peptide BEH C18 column (50 x 2.1 mm; 1.7 um), Sciex TripleTOF5600
Instrument type: LC-ESI-QTOF
Ms type: MS2
Ion mode: NEGATIVE
Collision energy: 30-50
Precursor m/z: 824.5083228
Precursor type: [M-H]-
m/z	relative intensity
78.95465	68
78.9559	68
78.95839	68
78.95964	135
78.96088	68
78.96337	68
152.9843	68
152.9861	68
152.9878	271
152.9895	135
152.9913	135
152.993	135
152.9948	135
152.9965	271
152.9982	135
153	68
153.0017	135
255.2053	68
255.23	68
255.239	68
259.1617	68
259.1707	68
273.2173	68
273.2196	68
273.2312	68
283.2533	68
283.2556	638
283.258	384
283.2603	446
283.2627	519
283.265	271
283.2674	587
283.2698	271
283.2721	339
283.2745	68
283.2769	135
283.2816	68
283.2863	68
299.1946	68
299.2018	68
299.2067	68
317.1838	68
317.1988	68
317.2013	135
317.2038	68
317.2063	203
317.2088	135
317.2138	135
317.2163	68
317.2188	271
317.2213	68
317.2288	68
419.2237	68
419.2294	68
419.2323	68
419.2352	135
419.238	68
419.2409	135
419.2438	373
419.2466	429
419.2495	440
419.2524	361
419.2552	423
419.2581	497
419.261	271
419.2639	418
419.2668	271
419.2696	68
419.2725	203
419.2811	68
437.2347	68
437.2464	68
437.2493	68
437.2581	68
437.261	135
437.264	203
437.2669	135
437.2728	271
437.2757	68
437.2816	68
437.2874	68
453.1848	68
453.1938	68
453.1998	68
453.2028	135
453.2057	203
453.2117	135
471.2093	68
471.2306	68
712.4673	68
712.516	68
737.4277	68
737.4315	135
737.4353	68
737.4391	68
737.4429	68
737.4506	203
737.4543	203
737.4581	395
737.462	491
737.4658	508
737.4696	706
737.4734	796
737.4772	993
737.481	480
737.4848	339
737.4886	339
737.4924	485
737.4962	356
737.5001	339
737.5038	203
737.5115	68
737.5153	68
737.5191	68
737.5229	68
737.5343	68
750.4724	68
750.48	135
750.4839	135
750.4877	68
750.4916	135
750.4954	68
750.4993	68
750.5031	135
750.507	135
750.5108	68
750.5185	68
750.5223	203
750.5262	68
750.5416	68
824.4598	68
824.4639	135
824.4719	68
824.476	135
824.48	203
824.484	339
824.488	452
824.4921	999
824.4961	564
824.5001	429
824.5042	542
824.5082	666
824.5122	999
824.5162	485
824.5203	339
824.5243	203
824.5283	468
824.5323	626
824.5364	271
824.5404	271
824.5444	271
824.5485	68
824.5525	135
824.5565	68
