Mass spectrum: PC(16:0e/14,15-EpETE); LC-ESI-QTOF; MS2
Name: PC(16:0e/14,15-EpETE)
Class: Oxidized Phospholipid
Formula: C44H80NO8P
Exact mass: 782.099
SMILES: CCCCCCCCCCCCCCCCOCC(COP([O-])(=O)OCC[N+](C)(C)C)OC(=O)CCC\C=C/C\C=C/C\C=C/CC1OC1C\C=C/CC
InChI: InChI=1S/C44H80NO8P/c1-6-8-10-11-12-13-14-15-16-19-22-25-28-32-37-49-39-41(40-51-54(47,48)50-38-36-45(3,4)5)52-44(46)35-31-27-24-21-18-17-20-23-26-30-34-43-42(53-43)33-29-9-7-2/h9,17,20-21,24,26,29-30,41-43H,6-8,10-16,18-19,22-23,25,27-28,31-40H2,1-5H3/b20-17-,24-21-,29-9-,30-26-
Instrument: Acquity UPLC Peptide BEH C18 column (50 x 2.1 mm; 1.7 um), Sciex TripleTOF5600
Instrument type: LC-ESI-QTOF
Ms type: MS2
Ion mode: NEGATIVE
Collision energy: 30-50
Precursor m/z: 840.576008
Precursor type: [M+CH3COOH-H]-
m/z	relative intensity
78.96176	9
111.0793	19
111.0852	9
121.0689	9
121.1	9
151.1101	9
163.1472	9
175.1485	14
175.1503	9
177.0921	9
189.1228	14
189.1247	9
189.1286	9
189.1364	9
201.1524	9
201.1564	14
201.1604	9
207.1214	9
207.1255	37
207.1275	23
207.1295	47
207.1316	61
207.1336	51
207.1356	65
207.1377	84
207.1397	47
207.1417	84
207.1438	79
207.1458	47
207.1478	32
207.1498	23
207.1559	14
207.158	14
207.1661	9
219.127	14
219.1291	19
219.1312	19
219.1333	28
219.1354	23
219.1375	32
219.1396	42
219.1417	14
219.1438	32
219.1458	37
219.1479	28
219.15	19
219.1542	9
219.1605	9
220.1412	9
220.1475	14
220.1496	9
220.1517	9
221.1514	9
235.1346	14
235.1368	9
235.1433	9
247.1295	14
247.1428	9
248.1286	19
248.1308	32
248.1331	28
248.1353	56
248.1375	51
248.1397	47
248.142	37
248.1442	56
248.1464	42
248.1486	23
248.1508	47
248.1553	9
255.1971	9
255.1994	42
255.2016	9
255.2039	23
255.2061	28
255.2084	28
255.2107	42
255.2129	47
255.2152	32
255.2174	23
255.2197	37
255.2219	19
255.2264	9
255.2309	14
255.2354	14
255.2377	9
273.2188	9
273.2211	9
273.2234	14
273.2258	9
273.2281	9
299.1778	9
299.1802	9
299.1876	19
299.19	32
299.1924	32
299.1949	32
299.1973	37
299.1998	56
299.2022	37
299.2047	42
299.2071	42
299.2095	37
299.212	47
299.2144	19
299.2168	14
299.2193	14
316.1715	10
316.2167	10
316.563	10
317.0804	10
317.113	10
317.1809	10
317.1859	33
317.1884	29
317.1909	19
317.1935	49
317.196	72
317.1985	122
317.201	190
317.2035	192
317.206	250
317.2085	294
317.2111	236
317.2136	246
317.2161	289
317.2186	295
317.2211	230
317.2236	172
317.2261	108
317.2286	127
317.2312	59
317.2337	34
317.2362	34
317.2412	25
317.2437	10
317.2462	5
317.3015	5
317.6635	5
318.1894	5
318.2196	9
318.2271	5
377.2289	9
377.2316	9
377.2371	9
377.2426	19
377.2508	19
377.2563	9
377.2617	19
448.3006	28
448.3036	37
448.3066	28
448.3096	14
448.3126	61
448.3156	28
448.3185	47
448.3215	37
448.3245	28
448.3275	28
448.3305	32
448.3335	32
448.3365	23
448.3394	14
448.3454	9
448.3514	14
460.9933	10
462.8553	10
466.1943	10
466.2918	19
466.2949	14
466.301	19
466.304	43
466.307	67
466.3101	24
466.3131	109
466.3162	115
466.3192	115
466.3223	130
466.3253	130
466.3284	160
466.3314	160
466.3345	170
466.3375	140
466.3405	136
466.3436	146
466.3466	120
466.3497	87
466.3528	43
466.3558	43
466.3588	38
466.3619	24
466.3649	10
466.368	5
466.3741	10
467.3283	9
467.3405	5
467.3558	9
764.1258	9
764.1297	19
766.4287	9
766.4404	9
766.46	9
766.4717	5
766.4756	5
766.4795	5
766.4834	36
766.4873	21
766.4912	21
766.4951	106
766.499	174
766.5029	161
766.5068	224
766.5107	386
766.5146	373
766.5186	443
766.5225	630
766.5264	593
766.5303	589
766.5342	822
766.5381	913
766.542	973
766.5459	989
766.5498	999
766.5537	959
766.5576	849
766.5615	734
766.5654	518
766.5693	439
766.5732	388
766.5771	341
766.5811	226
766.585	155
766.5889	146
766.5928	113
766.5967	68
766.6006	34
766.6045	58
766.6084	34
766.6123	22
766.6162	17
766.6201	6
766.6514	6
766.7139	5
767.0812	6
767.4876	9
767.4994	9
767.5072	9
767.5189	9
767.5228	19
767.5267	19
767.5306	9
767.5345	23
767.5385	19
767.5424	14
767.5463	19
767.5502	14
767.558	15
767.5619	19
767.5658	14
767.5697	14
767.5737	14
767.5815	9
767.5893	9
781.4703	9
781.4742	14
781.494	14
781.5058	9
781.5098	9
781.5334	14
781.5413	9
781.5689	9
793.5309	9
840.4948	9
840.4988	9
840.5193	10
840.5234	19
840.5275	28
840.5316	33
840.5356	47
840.5397	10
840.5439	52
840.548	37
840.5521	57
840.5562	71
840.5602	56
840.5643	80
840.5684	62
840.5725	24
840.5766	52
840.5807	42
840.5848	47
840.5889	70
840.593	61
840.597	74
840.6011	56
840.6052	65
840.6093	23
840.6134	23
840.6175	32
840.6216	9
840.6257	14
840.6339	19
840.6461	9
