Mass spectrum: PC 33:2; LC-ESI-QTOF; MS2
Name: PC 33:2
Class: PC
Formula: C41H78NO8P
Exact mass: 744.0499999999998
SMILES: CCCCCCCCCCCCCCC(=O)OCC(COP([O-])(=O)OCC[N+](C)(C)C)OC(=O)CCCCCCC\C=C/C\C=C/CCCCC
InChI: InChI=1S/C41H78NO8P/c1-6-8-10-12-14-16-18-20-21-22-24-26-28-30-32-34-41(44)50-39(38-49-51(45,46)48-36-35-42(3,4)5)37-47-40(43)33-31-29-27-25-23-19-17-15-13-11-9-7-2/h14,16,20-21,39H,6-13,15,17-19,22-38H2,1-5H3/b16-14-,21-20-
Instrument: AB Sciex TripleTOF 5600+ system (Q-TOF) equipped with a DuoSpray ion source
Instrument type: LC-ESI-QTOF
Ms type: MS2
Ion mode: NEGATIVE
Collision energy: 45V
Column name: Acquity UPLC Peptide BEH C18 column (50*2.1 mm; 1.7 um; 130A)(Waters Co.,Milford, MA, USA)
Retention time: 9.005995
Precursor type: [M+CH3COOH-H]-
Precursor m/z: 802.5588
m/z	relative intensity
168.038	16
224.067	12
225.221	16
241.215	278
255.23	24
265.221	53
279.23	951
280.245	37
283.265	16
321.244	8
404.655	8
466.289	41
466.308	24
479.264	8
486.291	8
504.312	16
534.503	12
552.502	40
720.466	25
726.235	12
728.517	999
741.527	12
742.421	8
742.508	56
743.48	20
770.479	8
802.508	21
802.557	49
802.585	28
