Mass spectrum: Cer[AP] t36:0; LC-ESI-QTOF; MS2
Name: Cer[AP] t36:0
Class: Cer_AP
Formula: C36H73NO5
Exact mass: 599.982
SMILES: CCCCCCCCCCCCCCCCC(O)C(=O)NC(CO)C(O)C(O)CCCCCCCCCCCCCC
InChI: InChI=1S/C36H73NO5/c1-3-5-7-9-11-13-15-17-18-20-22-24-26-28-30-34(40)36(42)37-32(31-38)35(41)33(39)29-27-25-23-21-19-16-14-12-10-8-6-4-2/h32-35,38-41H,3-31H2,1-2H3,(H,37,42)
Instrument: AB Sciex TripleTOF 5600+ system (Q-TOF) equipped with a DuoSpray ion source
Instrument type: LC-ESI-QTOF
Ms type: MS2
Ion mode: NEGATIVE
Collision energy: 45V
Column name: Acquity UPLC Peptide BEH C18 column (50*2.1 mm; 1.7 um; 130A)(Waters Co.,Milford, MA, USA)
Retention time: 9.853487
Precursor type: [M+CH3COOH-H]-
Precursor m/z: 658.5583
m/z	relative intensity
253.25	140
255.236	58
267.229	35
280.261	23
298.275	23
299.26	141
324.291	58
328.979	46
342.299	189
562.497	23
598.539	999
