Mass spectrum: PE(18:2e/17,18-EpETE); LC-ESI-QTOF; MS2
Name: PE(18:2e/17,18-EpETE)
Class: Oxidized Phospholipid
Formula: C43H74NO8P
Exact mass: 764.04
SMILES: CCCCCCCCCCCCC\C=C/C\C=C/OCC(COP(O)(=O)OCCN)OC(=O)CCC\C=C/C\C=C/C\C=C/C\C=C/CC1OC1CC
InChI: InChI=1S/C43H74NO8P/c1-3-5-6-7-8-9-10-11-12-13-17-20-23-26-29-32-36-48-38-40(39-50-53(46,47)49-37-35-44)51-43(45)34-31-28-25-22-19-16-14-15-18-21-24-27-30-33-42-41(4-2)52-42/h14,16,18,21-23,25-27,30,32,36,40-42H,3-13,15,17,19-20,24,28-29,31,33-35,37-39,44H2,1-2H3,(H,46,47)/b16-14-,21-18-,25-22-,26-23-,30-27-,36-32-
Instrument: Acquity UPLC Peptide BEH C18 column (50 x 2.1 mm; 1.7 um), Sciex TripleTOF5600
Instrument type: LC-ESI-QTOF
Ms type: MS2
Ion mode: NEGATIVE
Collision energy: 30-50
Precursor m/z: 762.5079288
Precursor type: [M-H]-
m/z	relative intensity
78.95912	41
78.96288	55
135.1227	27
140.0061	27
140.0095	41
140.0111	27
149.1287	27
161.1365	27
173.1373	27
181.1157	27
181.1176	27
189.1594	27
196.0321	55
196.0341	68
196.0361	68
196.038	55
196.04	95
196.042	27
196.0519	27
201.1581	41
201.1601	27
201.1661	55
201.1681	55
201.1741	27
215.1659	55
215.168	55
215.17	41
215.1721	109
215.1742	27
215.1763	123
215.1783	123
215.1804	95
215.1825	55
215.1845	68
215.1866	81
215.1887	41
215.1908	41
225.1812	27
225.1854	27
225.1875	41
225.196	27
226.1902	27
226.1923	27
226.1944	27
227.1971	27
229.1601	27
229.1665	27
233.148	27
247.1668	41
253.2081	55
253.2149	27
253.2171	41
253.2193	27
253.2261	27
254.2217	27
255.199	41
255.2013	95
255.2035	109
255.2058	68
255.208	123
255.2103	123
255.2126	81
255.2148	163
255.2171	68
255.2193	149
255.2216	81
255.2238	55
255.2283	27
255.2351	27
255.2419	27
259.1542	27
259.1565	55
259.1588	68
259.1611	81
259.1633	136
259.1656	27
259.1679	123
259.1701	204
259.1724	123
259.1747	81
259.177	81
259.1792	81
259.1838	41
259.186	41
259.1929	27
265.2383	27
265.2429	55
265.2452	41
265.2498	27
265.2567	109
265.259	41
265.2705	27
273.2067	27
273.209	55
273.2137	27
273.2161	55
273.2184	95
273.2207	81
273.2231	95
273.2254	95
273.2277	68
273.2347	27
273.2371	68
273.2394	27
273.2417	27
281.2268	27
281.241	27
281.2434	27
299.1774	27
299.1847	41
299.1871	41
299.1896	41
299.192	109
299.1945	163
299.1969	95
299.1993	95
299.2018	68
299.2042	149
299.2067	163
299.2091	177
299.2115	55
299.2213	28
299.2286	27
300.3842	28
315.1909	28
315.1984	41
317.0297	28
317.183	68
317.1855	69
317.188	28
317.1905	127
317.193	97
317.1955	184
317.1981	169
317.2006	379
317.2031	365
317.2056	481
317.2081	582
317.2106	834
317.2131	666
317.2156	412
317.2181	566
317.2207	340
317.2232	439
317.2257	281
317.2282	128
317.2307	141
317.2332	113
317.2357	100
317.2408	71
317.2433	41
317.9021	15
318.2065	27
343.2302	27
343.2407	28
401.2405	27
401.2546	27
419.2409	27
444.2612	27
444.2641	27
444.2671	41
444.2701	27
444.2731	68
444.276	81
444.279	149
444.282	163
444.285	177
444.2879	68
444.2909	81
444.2939	163
444.2968	163
444.2998	68
444.3028	41
444.3058	55
444.3087	68
444.3117	27
444.3236	56
450.2709	28
460.8322	28
462.2538	27
462.2629	41
462.2659	55
462.269	84
462.272	56
462.2751	180
462.2781	267
462.2811	140
462.2841	181
462.2872	253
462.2902	352
462.2932	383
462.2963	339
462.2993	281
462.3023	506
462.3054	253
462.3084	392
462.3115	209
462.3145	320
462.3175	139
462.3206	208
462.3236	84
462.3266	28
462.3297	15
462.3327	55
462.3357	41
462.3418	41
462.3448	27
462.36	15
688.4574	27
688.4648	27
688.4722	27
688.4796	27
688.4907	55
688.4981	68
688.5018	41
688.5055	97
688.5092	27
688.5166	41
688.5203	27
760.1128	28
760.1517	27
762.4252	28
762.437	28
762.4409	83
762.4447	139
762.4486	125
762.4525	167
762.4564	180
762.4603	100
762.4642	256
762.4681	260
762.472	233
762.4759	361
762.4798	261
762.4837	556
762.4876	602
762.4915	429
762.4954	587
762.4993	786
762.5032	726
762.5071	722
762.511	999
762.5148	711
762.5187	931
762.5226	819
762.5266	959
762.5305	662
762.5344	695
762.5382	440
762.5421	353
762.546	265
762.5499	324
762.5538	176
762.5577	147
762.5616	104
762.5655	73
762.5694	43
762.5733	15
762.5772	29
762.5811	29
762.585	31
763.4853	27
763.5282	71
