Mass spectrum: PE 34:0; LC-ESI-QTOF; MS2
Name: PE 34:0
Class: PE
Formula: C39H78NO8P
Exact mass: 720.0279999999999
SMILES: CCCCCCCCCCCCCCCCCC(=O)OC(COC(=O)CCCCCCCCCCCCCCC)COP(O)(=O)OCCN
InChI: InChI=1S/C39H78NO8P/c1-3-5-7-9-11-13-15-17-18-20-22-24-26-28-30-32-39(42)48-37(36-47-49(43,44)46-34-33-40)35-45-38(41)31-29-27-25-23-21-19-16-14-12-10-8-6-4-2/h37H,3-36,40H2,1-2H3,(H,43,44)
Instrument: AB Sciex TripleTOF 5600+ system (Q-TOF) equipped with a DuoSpray ion source
Instrument type: LC-ESI-QTOF
Ms type: MS2
Ion mode: NEGATIVE
Collision energy: 45V
Column name: Acquity UPLC Peptide BEH C18 column (50*2.1 mm; 1.7 um; 130A)(Waters Co.,Milford, MA, USA)
Retention time: 10.94608
Precursor type: [M-H]-
Precursor m/z: 718.5385
m/z	relative intensity
78.958	6
140.01	8
196.038	13
214.047	4
254.433	11
255.231	999
256.233	2
256.73	2
282.247	2
282.378	2
283.26	343
406.255	2
419.262	1
434.269	8
452.267	10
452.291	4
462.313	11
480.305	49
481.677	2
716.35	4
718.482	8
718.505	42
718.533	307
718.56	133
