Mass spectrum: PG 34:0; LC-ESI-QTOF; MS2
Name: PG 34:0
Class: PG
Formula: C40H79O10P
Exact mass: 751.0379999999999
SMILES: CCCCCCCCCCCCCCCCCC(=O)OC(COC(=O)CCCCCCCCCCCCCCC)COP(O)(=O)OCC(O)CO
InChI: InChI=1S/C40H79O10P/c1-3-5-7-9-11-13-15-17-18-20-22-24-26-28-30-32-40(44)50-38(36-49-51(45,46)48-34-37(42)33-41)35-47-39(43)31-29-27-25-23-21-19-16-14-12-10-8-6-4-2/h37-38,41-42H,3-36H2,1-2H3,(H,45,46)
Instrument: AB Sciex TripleTOF 5600+ system (Q-TOF) equipped with a DuoSpray ion source
Instrument type: LC-ESI-QTOF
Ms type: MS2
Ion mode: NEGATIVE
Collision energy: 45V
Column name: Acquity UPLC Peptide BEH C18 column (50*2.1 mm; 1.7 um; 130A)(Waters Co.,Milford, MA, USA)
Retention time: 9.110722
Precursor type: [M-H]-
Precursor m/z: 749.5291
m/z	relative intensity
152.997	39
170.999	11
227.034	17
255.232	451
279.19	8
281.251	7
282.349	8
283.262	999
303.226	9
391.202	13
391.231	36
465.254	20
483.269	55
493.29	7
511.297	13
688.529	31
717.499	11
749.492	166
749.512	600
749.544	546
