Mass spectrum: PE 39:7; LC-ESI-QTOF; MS2
Name: PE 39:7
Class: PE
Formula: C44H74NO8P
Exact mass: 776.0509999999998
SMILES: CCCCCCC\C=C/CCCCCCCC(=O)OCC(COP(O)(=O)OCCN)OC(=O)CC\C=C/C\C=C/C\C=C/C\C=C/C\C=C/C\C=C/CC
InChI: InChI=1S/C44H74NO8P/c1-3-5-7-9-11-13-15-17-19-20-21-22-23-25-27-29-31-33-35-37-44(47)53-42(41-52-54(48,49)51-39-38-45)40-50-43(46)36-34-32-30-28-26-24-18-16-14-12-10-8-6-4-2/h5,7,11,13,16-19,21-22,25,27,31,33,42H,3-4,6,8-10,12,14-15,20,23-24,26,28-30,32,34-41,45H2,1-2H3,(H,48,49)/b7-5-,13-11-,18-16-,19-17-,22-21-,27-25-,33-31-
Instrument: AB Sciex TripleTOF 5600+ system (Q-TOF) equipped with a DuoSpray ion source
Instrument type: LC-ESI-QTOF
Ms type: MS2
Ion mode: NEGATIVE
Collision energy: 45V
Column name: Acquity UPLC Peptide BEH C18 column (50*2.1 mm; 1.7 um; 130A)(Waters Co.,Milford, MA, USA)
Retention time: 9.078252
Precursor type: [M-H]-
Precursor m/z: 774.5045
m/z	relative intensity
140.013	45
229.192	45
254.834	33
255.185	36
255.444	45
267.23	860
279.235	45
283.239	263
283.249	90
326.209	22
327.229	999
364.956	22
446.27	51
460.952	22
464.274	227
506.275	22
687.507	22
702.501	22
713.543	81
714.55	112
774.44	47
774.481	572
774.501	941
775.494	22
