Mass spectrum: PE(18:2e/8,9-EpETE); LC-ESI-QTOF; MS2
Name: PE(18:2e/8,9-EpETE)
Class: Oxidized Phospholipid
Formula: C43H74NO8P
Exact mass: 764.04
SMILES: CCCCCCCCCCCCC\C=C/C\C=C/OCC(COP(O)(=O)OCCN)OC(=O)CCC\C=C/CC1OC1C\C=C/C\C=C/C\C=C/CC
InChI: InChI=1S/C43H74NO8P/c1-3-5-7-9-11-13-14-15-16-17-18-19-21-23-27-31-36-48-38-40(39-50-53(46,47)49-37-35-44)51-43(45)34-30-26-25-29-33-42-41(52-42)32-28-24-22-20-12-10-8-6-4-2/h6,8,12,20-21,23-25,28-29,31,36,40-42H,3-5,7,9-11,13-19,22,26-27,30,32-35,37-39,44H2,1-2H3,(H,46,47)/b8-6-,20-12-,23-21-,28-24-,29-25-,36-31-
Instrument: Acquity UPLC Peptide BEH C18 column (50 x 2.1 mm; 1.7 um), Sciex TripleTOF5600
Instrument type: LC-ESI-QTOF
Ms type: MS2
Ion mode: NEGATIVE
Collision energy: 30-50
Precursor m/z: 762.5079288
Precursor type: [M-H]-
m/z	relative intensity
78.9575	26
78.95876	17
78.96127	34
78.96252	34
93.06912	17
95.08772	17
109.0655	17
121.0575	17
121.0652	17
121.0683	17
121.0994	17
123.0778	26
123.0794	34
123.0809	34
123.0825	43
123.0841	51
123.0856	34
123.0872	17
123.0888	17
125.0943	17
127.0684	17
127.07	43
127.0715	60
127.0731	43
127.0747	60
127.0763	94
127.0779	69
127.0795	17
127.0811	43
127.0827	34
127.0843	17
127.0859	17
135.1142	17
135.1158	17
139.0741	26
139.0824	17
140.0008	17
140.0075	34
140.0108	34
140.0125	26
140.0141	69
140.0175	17
140.0191	17
149.1215	17
149.1301	26
149.1319	43
149.1336	34
149.1353	26
149.137	26
149.1405	34
149.1422	17
149.1439	17
149.1456	17
155.0619	26
155.0654	17
155.0672	26
155.0689	77
155.0707	43
155.0724	86
155.0742	34
155.0777	17
155.0812	26
161.1272	17
161.129	17
161.1308	26
161.1326	26
161.1344	34
161.1362	34
161.138	51
161.1398	17
161.1416	26
161.1434	17
163.0241	17
163.1448	17
163.1484	17
167.059	26
167.0645	69
167.0663	60
167.0681	43
167.0699	43
167.0718	155
167.0736	51
167.0754	34
167.0772	43
167.0791	17
167.0827	17
177.1272	17
177.1291	17
177.131	17
177.1328	26
177.1347	26
177.1366	26
179.0402	17
189.1261	17
189.1339	17
190.1345	43
190.1364	17
190.1384	26
190.1403	26
190.1442	17
196.0279	26
196.0298	26
196.0318	34
196.0338	43
196.0358	34
196.0378	17
196.0397	69
196.0417	60
196.0437	34
196.0457	17
196.0476	26
196.0496	26
196.0536	17
199.1696	17
201.1638	26
201.1698	17
201.1718	34
219.1724	17
219.1766	17
224.0771	17
225.1809	17
225.1852	17
227.182	17
227.1905	26
227.1926	60
227.1947	17
227.1969	17
227.199	51
227.2011	51
227.2032	26
227.2054	43
227.2203	17
228.2061	17
253.2012	26
253.2057	26
253.2079	26
253.2102	43
253.2124	51
253.2146	69
253.2169	60
253.2191	51
253.2214	34
253.2236	86
253.2259	69
253.2281	34
253.2326	26
253.2416	17
254.4218	17
255.1921	26
255.1966	43
255.1988	43
255.2011	69
255.2033	51
255.2056	137
255.2078	43
255.2101	145
255.2123	94
255.2146	145
255.2168	94
255.2191	51
255.2214	60
255.2236	103
255.2259	86
255.2281	43
255.2304	34
255.2326	60
255.2349	26
255.2371	26
255.2394	26
255.2417	17
265.2381	17
265.2427	17
265.245	17
265.2473	51
265.2496	34
265.2519	26
265.2542	26
265.2565	60
265.2611	17
265.2657	17
273.1996	17
273.2089	17
273.2112	51
273.2136	17
273.2159	17
273.2182	26
273.2206	34
273.2229	43
273.2252	34
273.2299	17
273.2322	34
273.2345	17
273.2369	17
273.2392	17
281.2172	17
281.229	17
281.2361	17
281.2432	43
281.2456	34
281.248	69
281.2503	60
281.2527	34
281.2621	26
281.2669	17
283.2652	26
289.2212	26
299.1846	43
299.187	26
299.1895	86
299.1919	26
299.1943	43
299.1968	112
299.1992	69
299.2017	69
299.2041	129
299.2065	94
299.209	112
299.2114	51
299.2138	34
301.2087	17
301.2137	17
301.2161	26
301.2185	18
301.221	26
301.2234	17
316.2036	18
316.5298	18
317.1804	18
317.1854	45
317.1879	63
317.1904	87
317.1929	150
317.1954	232
317.1979	281
317.2005	264
317.203	291
317.2055	489
317.208	527
317.2105	507
317.213	529
317.2155	645
317.218	563
317.2206	372
317.2231	326
317.2256	218
317.2281	199
317.2306	118
317.2331	71
317.2357	18
317.2382	18
317.2407	27
317.2432	18
317.2532	9
317.9598	9
318.1335	9
318.2241	9
319.1384	9
343.2119	17
343.2249	34
343.2433	17
401.2321	17
401.2378	26
401.2406	17
401.2434	17
401.2491	17
401.2547	17
419.2612	17
436.2797	17
436.2826	17
436.2914	34
436.2944	17
436.3003	17
444.2613	17
444.2643	26
444.2673	43
444.2702	60
444.2732	51
444.2762	137
444.2792	94
444.2821	69
444.2851	137
444.2881	112
444.291	94
444.294	163
444.297	94
444.3	51
444.3029	77
444.3059	86
444.3089	51
444.3178	17
444.3208	17
444.3357	17
462.1873	26
462.2419	26
462.2479	18
462.2509	18
462.2601	70
462.2631	34
462.2661	62
462.2692	107
462.2722	106
462.2752	214
462.2783	134
462.2813	225
462.2843	288
462.2874	317
462.2904	434
462.2934	373
462.2965	409
462.2995	535
462.3026	472
462.3056	407
462.3086	380
462.3116	317
462.3147	208
462.3177	198
462.3207	126
462.3238	163
462.3268	128
462.3298	27
462.3329	72
462.3359	35
462.3389	29
462.342	18
462.7941	9
464.3344	17
688.4618	17
688.4692	17
688.4729	17
688.4766	34
688.4803	60
688.484	26
688.4877	26
688.4915	43
688.4951	60
688.4988	43
688.5026	86
688.5062	43
688.5099	43
688.5136	69
688.5173	26
688.5211	60
688.5248	17
688.5284	26
688.5322	17
688.5359	60
688.5396	26
688.5433	26
688.5469	26
688.5507	43
688.5544	26
688.558	17
688.5655	34
688.5914	17
762.4378	17
762.4417	17
762.4456	17
762.4495	9
762.4534	9
762.4573	48
762.4612	77
762.4651	97
762.469	151
762.4729	219
762.4768	272
762.4807	399
762.4846	466
762.4885	594
762.4924	655
762.4963	724
762.5002	633
762.5041	912
762.5079	999
762.5118	895
762.5157	944
762.5197	975
762.5236	808
762.5275	828
762.5313	722
762.5352	595
762.5391	554
762.543	495
762.5469	340
762.5508	301
762.5547	222
762.5586	146
762.5625	98
762.5664	58
762.5703	68
762.5742	29
762.5781	10
762.582	10
762.5859	28
762.5898	29
762.5937	9
762.695	10
763.4784	26
763.5057	34
763.5252	26
763.5291	34
763.5369	26
