Mass spectrum: SM d34:1; LC-ESI-QTOF; MS2
Name: SM d34:1
Class: SM
Formula: C39H79N2O6P
Exact mass: 703.045
SMILES: CCCCCCCCCCCCCCCC(=O)NC(COP([O-])(=O)OCC[N+](C)(C)C)C(O)\C=C\CCCCCCCCCCCCC
InChI: InChI=1S/C39H79N2O6P/c1-6-8-10-12-14-16-18-20-22-24-26-28-30-32-38(42)37(36-47-48(44,45)46-35-34-41(3,4)5)40-39(43)33-31-29-27-25-23-21-19-17-15-13-11-9-7-2/h30,32,37-38,42H,6-29,31,33-36H2,1-5H3,(H-,40,43,44,45)/b32-30+
Instrument: AB Sciex TripleTOF 5600+ system (Q-TOF) equipped with a DuoSpray ion source
Instrument type: LC-ESI-QTOF
Ms type: MS2
Ion mode: NEGATIVE
Collision energy: 45V
Column name: Acquity UPLC Peptide BEH C18 column (50*2.1 mm; 1.7 um; 130A)(Waters Co.,Milford, MA, USA)
Retention time: 9.016301
Precursor type: [M+CH3COOH-H]-
Precursor m/z: 761.5773
m/z	relative intensity
78.714	0
78.959	30
96.969	0
122.986	3
124.996	0
167.52	0
168.042	94
255.233	0
256.232	0
279.224	0
280.263	0
281.239	0
303.223	0
303.242	0
325.221	0
326.213	0
334.992	0
376.208	0
384.685	0
388.446	0
398.565	0
410.651	0
431.29	0
431.313	0
447.29	0
449.311	6
505.283	0
534.466	0
598.412	0
598.439	0
598.461	0
598.486	0
616.446	2
616.475	4
616.527	0
642.447	0
642.479	0
642.51	0
660.526	0
669.517	0
674.489	0
685.33	0
685.353	3
685.383	2
685.429	0
687.101	0
687.153	0
687.322	0
687.386	0
687.536	999
688.195	0
688.282	0
688.515	0
688.553	2
688.587	0
689.004	0
689.55	0
701.576	0
702.46	0
702.483	3
702.507	5
715.567	0
729.493	0
761.465	0
761.521	2
761.573	27
762.498	0
764.593	0
