Mass spectrum: Cer[NS] d32:1; LC-ESI-QTOF; MS2
Name: Cer[NS] d32:1
Class: Cer_NS
Formula: C32H63NO3
Exact mass: 509.86
SMILES: CCCCCCCCCCCCCCCC(=O)NC(CO)C(O)\C=C\CCCCCCCCCCC
InChI: InChI=1S/C32H63NO3/c1-3-5-7-9-11-13-15-16-18-20-22-24-26-28-32(36)33-30(29-34)31(35)27-25-23-21-19-17-14-12-10-8-6-4-2/h25,27,30-31,34-35H,3-24,26,28-29H2,1-2H3,(H,33,36)/b27-25+
Instrument: AB Sciex TripleTOF 5600+ system (Q-TOF) equipped with a DuoSpray ion source
Instrument type: LC-ESI-QTOF
Ms type: MS2
Ion mode: NEGATIVE
Collision energy: 45V
Column name: Acquity UPLC Peptide BEH C18 column (50*2.1 mm; 1.7 um; 130A)(Waters Co.,Milford, MA, USA)
Retention time: 9.005289
Precursor type: [M+CH3COOH-H]-
Precursor m/z: 568.4919
m/z	relative intensity
209.183	83
209.197	120
237.21	83
237.239	59
252.225	110
252.235	206
252.248	108
254.246	108
255.232	59
263.238	95
268.226	87
280.26	279
280.274	120
332.994	23
460.45	107
476.429	71
476.466	71
478.463	205
490.46	23
508.434	159
508.475	999
508.505	47
