Mass spectrum: PI(16:1/11,12-EET); LC-ESI-QTOF; MS2
Name: PI(16:1/11,12-EET)
Class: Oxidized Phospholipid
Formula: C45H77O14P
Exact mass: 873.073
SMILES: CCCCCC\C=C/CCCCCCCC(=O)OCC(COP(O)(=O)OC1C(O)C(O)C(O)C(O)C1O)OC(=O)CCC\C=C/C\C=C/CC1OC1C\C=C/CCCCC
InChI: InChI=1S/C45H77O14P/c1-3-5-7-9-11-12-13-14-15-16-19-23-27-31-38(46)55-33-35(34-56-60(53,54)59-45-43(51)41(49)40(48)42(50)44(45)52)57-39(47)32-28-24-20-17-18-22-26-30-37-36(58-37)29-25-21-10-8-6-4-2/h12-13,17,20-22,25-26,35-37,40-45,48-52H,3-11,14-16,18-19,23-24,27-34H2,1-2H3,(H,53,54)/b13-12-,20-17-,25-21-,26-22-
Instrument: Acquity UPLC Peptide BEH C18 column (50 x 2.1 mm; 1.7 um), Sciex TripleTOF5600
Instrument type: LC-ESI-QTOF
Ms type: MS2
Ion mode: NEGATIVE
Collision energy: 30-50
Precursor m/z: 871.4978177
Precursor type: [M-H]-
m/z	relative intensity
152.994	44
167.1102	44
222.9992	44
223.0034	44
223.0055	44
241.0055	44
241.0077	158
241.0099	88
241.0143	66
241.0165	66
241.0187	66
241.0209	44
241.0231	44
241.0296	44
252.4362	44
253.208	44
253.2102	88
253.2125	44
253.2147	88
253.217	136
253.2192	66
253.2215	158
253.2237	110
319.2166	66
319.2191	66
319.2216	66
319.2241	44
319.2266	66
319.2292	88
319.2317	44
319.2342	44
389.2016	88
389.2072	66
389.21	66
389.2128	66
389.2155	44
389.2184	66
455.2186	44
455.2276	44
551.2423	44
551.2489	66
551.2556	44
551.2589	88
551.2655	110
551.2688	44
551.2721	88
551.2754	44
551.2787	44
551.282	44
551.292	44
797.6174	44
797.6414	66
797.6772	44
871.4409	88
871.4451	66
871.4492	114
871.4534	386
871.4576	386
871.4617	342
871.4659	609
871.47	592
871.4742	570
871.4784	819
871.4825	500
871.4867	797
871.4909	933
871.4951	780
871.4992	727
871.5034	754
871.5076	802
871.5117	596
871.5159	999
871.52	933
871.5242	679
871.5284	631
871.5325	587
871.5367	473
871.5409	359
871.545	245
871.5492	315
871.5533	267
871.5576	136
871.5617	88
871.5659	88
871.57	202
871.5742	66
871.5867	44
871.5909	44
871.595	44
871.5992	44
871.6075	44
872.4742	44
872.4783	44
872.5159	44
872.52	44
872.5367	44
