Mass spectrum: PI(18:1/20-HETE); LC-ESI-QTOF; MS2
Name: PI(18:1/20-HETE)
Class: Oxidized Phospholipid
Formula: C47H81O14P
Exact mass: 901.127
SMILES: CCCCCCCC\C=C/CCCCCCCC(=O)OCC(COP(O)(=O)OC1C(O)C(O)C(O)C(O)C1O)OC(=O)CCC\C=C/C\C=C/C\C=C/C\C=C/CCCCCO
InChI: InChI=1S/C47H81O14P/c1-2-3-4-5-6-7-8-9-13-16-19-22-25-28-31-34-40(49)58-37-39(38-59-62(56,57)61-47-45(54)43(52)42(51)44(53)46(47)55)60-41(50)35-32-29-26-23-20-17-14-11-10-12-15-18-21-24-27-30-33-36-48/h9-10,12-14,17-18,21,23,26,39,42-48,51-55H,2-8,11,15-16,19-20,22,24-25,27-38H2,1H3,(H,56,57)/b12-10-,13-9-,17-14-,21-18-,26-23-
Instrument: Acquity UPLC Peptide BEH C18 column (50 x 2.1 mm; 1.7 um), Sciex TripleTOF5600
Instrument type: LC-ESI-QTOF
Ms type: MS2
Ion mode: NEGATIVE
Collision energy: 30-50
Precursor m/z: 899.5291178
Precursor type: [M-H]-
m/z	relative intensity
78.95244	1
78.95494	1
78.9562	2
78.95745	5
78.95871	4
78.95996	5
78.96121	6
78.96247	5
78.96372	2
78.96498	2
78.96623	2
78.96748	2
78.96874	2
78.96999	2
96.96667	2
96.96806	1
96.96945	1
96.97223	2
96.97362	1
96.97501	1
121.1024	1
134.9797	1
149.1318	1
152.9833	1
152.985	1
152.9868	2
152.9885	6
152.9903	6
152.992	5
152.9938	7
152.9955	12
152.9973	14
152.999	7
153.0007	3
153.0025	4
153.0042	3
153.006	1
161.0448	1
170.9992	1
175.7552	1
177.0858	1
177.0934	1
177.1628	2
189.1319	1
191.1748	1
191.1806	2
191.1826	2
203.174	1
205.1214	1
219.1661	1
219.1786	1
219.2162	1
222.978	1
222.9843	1
222.9864	1
222.9885	6
222.9906	6
222.9927	6
222.9948	10
222.9969	10
222.999	14
223.0011	17
223.0032	10
223.0053	9
223.0074	6
223.0096	6
223.0117	4
223.0138	4
223.0159	1
223.1697	1
236.69	1
240.2612	2
240.2656	2
240.2787	1
240.2875	1
240.9813	1
240.9857	1
240.9879	1
240.9901	1
240.9922	3
240.9944	8
240.9966	14
240.9988	25
241.001	38
241.0032	53
241.0054	65
241.0076	78
241.0098	95
241.012	105
241.0141	78
241.0163	70
241.0185	59
241.0207	34
241.0229	22
241.0251	11
241.0273	9
241.0295	6
241.0317	8
241.0339	5
241.0361	5
241.0383	1
242.0184	1
245.2117	1
245.2161	1
245.2206	3
245.2228	5
245.225	3
245.2272	3
245.2294	1
245.2316	3
245.2338	3
245.236	2
245.2382	2
245.2426	1
247.2198	1
257.193	1
257.2156	1
257.2178	3
257.2201	1
257.2224	2
257.2246	3
257.2269	2
257.2292	2
257.2314	2
257.2337	1
257.2382	1
257.2405	1
259.0041	2
259.0064	2
259.0086	2
259.0109	1
259.0132	3
259.0155	4
259.0177	9
259.02	10
259.0223	7
259.0245	7
259.0268	5
259.0291	6
259.0314	3
259.0336	3
259.0382	2
273.2088	2
273.2112	1
273.2159	4
273.2182	2
273.2205	4
273.2228	3
273.2252	4
273.2275	1
273.2298	4
273.2345	1
275.2159	1
275.2206	1
275.2229	2
275.2252	2
275.2276	5
275.2299	7
275.2323	6
275.2346	7
275.2369	4
275.2393	6
275.2416	7
275.244	3
275.2463	2
275.2486	5
275.2533	3
275.2557	2
280.3825	1
280.3872	1
280.3943	1
280.4132	1
280.425	1
280.633	1
281.1959	1
281.2148	1
281.2195	1
281.2219	3
281.2242	5
281.2266	6
281.229	12
281.2314	19
281.2337	25
281.2361	39
281.2384	58
281.2408	74
281.2432	78
281.2455	87
281.2479	106
281.2503	105
281.2527	82
281.255	67
281.2574	59
281.2597	31
281.2621	28
281.2645	15
281.2668	13
281.2692	11
281.2716	7
281.2739	2
281.2763	5
281.2787	2
281.281	1
282.2521	2
282.2545	1
282.2568	1
282.2592	1
282.5058	1
289.1924	1
289.1996	2
289.2019	2
289.2043	1
289.2067	4
289.2091	4
289.2115	4
289.2139	6
289.2163	3
289.2188	3
289.2211	4
289.2235	3
289.2283	3
289.2307	2
289.2332	2
291.221	1
291.2234	1
291.2331	1
297.0139	1
297.0164	2
297.0188	2
297.0212	3
297.0237	5
297.0261	6
297.0285	10
297.0309	8
297.0334	10
297.0358	9
297.0383	8
297.0407	13
297.0431	9
297.0456	4
297.048	3
297.0504	3
297.0529	3
297.0553	1
297.0577	1
297.065	1
300.274	1
301.194	1
301.1965	2
301.1989	3
301.2014	7
301.2038	5
301.2063	8
301.2087	9
301.2112	10
301.2136	11
301.2161	8
301.2185	16
301.2209	16
301.2234	11
301.2259	8
301.2283	5
301.2307	4
301.2332	5
301.2356	4
301.2381	3
301.2405	1
301.243	1
301.2455	1
315.0254	1
315.0304	1
315.0329	2
315.0355	1
315.038	4
315.0405	7
315.043	7
315.0455	6
315.048	7
315.0505	7
315.053	6
315.0555	3
315.058	3
315.0605	3
315.0655	1
317.2205	1
318.219	1
318.2215	1
318.224	1
318.2316	2
318.2341	1
318.2391	1
318.2416	1
318.2592	2
318.4128	1
319.098	1
319.1888	2
319.1938	1
319.1963	2
319.1989	3
319.2014	5
319.2039	12
319.2064	28
319.2089	41
319.2115	50
319.214	90
319.2165	92
319.219	114
319.2215	151
319.2241	157
319.2266	182
319.2291	189
319.2316	156
319.2341	154
319.2367	121
319.2392	73
319.2417	68
319.2442	34
319.2467	20
319.2493	19
319.2518	10
319.2543	12
319.2568	6
319.2593	4
319.2619	3
319.2644	1
319.2972	1
320.2155	2
320.2181	2
320.2256	2
320.2282	3
320.2307	1
320.2332	2
320.2357	3
320.2383	2
320.2408	2
320.2433	1
320.2458	1
335.4871	1
415.9396	1
416.7342	1
417.0309	1
417.2038	1
417.2067	4
417.2096	4
417.2125	8
417.2153	8
417.2182	7
417.2211	14
417.224	24
417.2269	21
417.2297	16
417.2326	26
417.2355	37
417.2384	37
417.2413	37
417.2442	38
417.247	33
417.2499	29
417.2528	25
417.2557	24
417.2586	14
417.2614	10
417.2643	7
417.2672	5
417.2701	3
417.273	2
417.2758	2
418.242	2
418.2564	1
418.2593	1
435.2252	1
435.2281	1
435.2311	2
435.234	2
435.237	2
435.2399	4
435.2429	3
435.2458	2
435.2487	2
435.2517	4
435.2546	4
435.2576	5
435.2605	3
435.2635	2
435.2693	1
435.2723	2
435.2752	1
435.2782	2
455.1886	1
455.1917	2
455.1946	2
455.1977	3
455.2007	4
455.2037	5
455.2067	5
455.2097	6
455.2127	11
455.2157	11
455.2187	13
455.2217	11
455.2248	13
455.2278	10
455.2308	8
455.2338	7
455.2368	7
455.2398	9
455.2428	2
455.2488	3
455.2579	1
502.6047	1
510.9233	1
521.9792	1
523.2695	2
524.1122	1
527.6099	1
529.0401	1
579.2274	1
579.2307	1
579.2443	3
579.2477	3
579.2511	4
579.2545	3
579.2579	9
579.2613	9
579.2647	14
579.2681	14
579.2715	17
579.2749	18
579.2783	27
579.2817	33
579.2851	32
579.2885	31
579.2919	46
579.2953	36
579.2986	43
579.3021	39
579.3055	31
579.3088	23
579.3123	31
579.3156	22
579.319	17
579.3224	14
579.3258	8
579.3292	6
579.3326	3
579.336	3
579.3394	3
579.3428	2
579.3462	3
579.3496	1
579.353	1
580.2771	1
580.3043	2
580.3077	1
586.7222	1
597.227	1
597.2615	2
597.2649	1
597.2684	4
597.2718	5
597.2753	8
597.2787	9
597.2822	7
597.2856	9
597.2891	14
597.2925	12
597.296	13
597.2994	13
597.3029	16
597.3063	16
597.3098	13
597.3132	20
597.3167	17
597.3201	7
597.3235	7
597.327	6
597.3304	5
597.3339	7
597.3373	4
597.3408	2
597.3442	3
597.3477	2
597.3683	1
598.293	1
617.2255	1
617.2325	1
617.2395	2
617.243	5
617.2465	5
617.25	4
617.2535	8
617.257	5
617.2606	5
617.264	7
617.2676	13
617.2711	13
617.2745	13
617.2781	14
617.2816	10
617.2851	10
617.2886	11
617.2921	10
617.2956	12
617.2991	3
617.3026	5
617.3061	6
617.3131	2
617.3167	2
617.3237	1
618.2635	1
618.2706	2
635.2574	1
635.2681	2
635.2717	2
635.2753	2
635.2823	1
635.2895	3
635.2966	1
635.3002	1
635.3037	2
635.3073	1
635.3108	2
639.6999	1
737.4467	1
737.462	2
737.4697	1
737.4735	3
737.4774	3
737.4811	1
737.485	2
737.4888	4
737.4927	1
737.5042	2
737.508	1
737.5118	1
737.5156	2
817.4895	1
896.608	1
896.6249	1
896.6376	2
896.6503	4
896.6545	2
896.6587	2
896.6629	4
896.6671	1
896.6714	3
896.6756	1
896.6798	7
896.684	3
896.6883	4
896.6925	3
896.6967	3
896.7009	6
896.7052	2
896.7094	2
896.7136	3
896.7178	4
896.722	3
896.7263	5
896.7305	2
896.7347	2
896.739	5
896.7432	5
896.7474	2
896.7516	2
896.7559	5
896.7601	3
896.7643	2
896.7686	1
896.777	1
896.7897	2
896.8066	1
897.7322	1
898.0535	1
898.1888	1
898.3495	1
898.3876	1
898.4003	1
898.4087	1
898.4595	1
898.4849	1
898.5779	1
898.671	1
899.1151	1
899.2632	1
899.2717	1
899.2759	1
899.3098	1
899.3182	1
899.3394	1
899.3521	2
899.3563	1
899.3859	2
899.3986	1
899.4155	1
899.4198	2
899.4282	1
899.4367	1
899.4536	1
899.4579	6
899.4621	2
899.4663	23
899.4705	33
899.4748	48
899.479	84
899.4833	96
899.4875	149
899.4917	189
899.4959	266
899.5002	363
899.5044	414
899.5087	576
899.5129	646
899.5171	737
899.5213	849
899.5256	823
899.5298	935
899.5341	921
899.5383	927
899.5425	999
899.5467	979
899.551	973
899.5552	792
899.5594	662
899.5637	527
899.5679	371
899.5721	269
899.5764	191
899.5806	121
899.5848	80
899.5891	45
899.5933	44
899.5975	23
899.6017	12
899.606	5
899.6102	8
899.6144	4
899.6187	4
899.6313	2
899.644	1
899.6821	1
900.0546	1
900.1224	1
900.207	1
900.3425	1
900.3806	2
900.3848	1
900.4102	1
900.4399	2
900.4611	2
900.4653	3
900.4695	5
900.4738	3
900.478	7
900.4822	6
900.4865	7
900.4907	6
900.4949	10
900.4991	18
900.5034	17
900.5076	21
900.5118	23
900.5161	21
900.5203	21
900.5245	32
900.5288	37
900.533	28
900.5372	40
900.5415	42
900.5457	28
900.5499	28
900.5542	30
900.5584	29
900.5626	33
900.5669	21
900.5711	21
900.5754	15
900.5796	13
900.5838	11
900.5881	8
900.5923	7
900.5966	2
900.6008	2
900.605	3
900.6093	3
900.6177	2
900.6304	2
900.8379	1
900.8549	1
900.9056	1
901.1259	1
901.236	1
901.2742	1
901.4818	1
901.4944	1
901.5198	1
901.6851	1
902.1555	1
902.2911	1
902.3631	1
902.52	1
903.1559	1
906.0374	1
907.5372	1
908.6597	1
