Mass spectrum: PC(14:0/16,17-EpDPE); LC-ESI-QTOF; MS2
Name: PC(14:0/16,17-EpDPE)
Class: Oxidized Phospholipid
Formula: C44H76NO9P
Exact mass: 794.066
SMILES: CCCCCCCCCCCCCC(=O)OCC(COP([O-])(=O)OCC[N+](C)(C)C)OC(=O)CC\C=C/C\C=C/C\C=C/C\C=C/CC1OC1C\C=C/CC
InChI: InChI=1S/C44H76NO9P/c1-6-8-10-11-12-13-16-20-23-26-30-34-43(46)50-38-40(39-52-55(48,49)51-37-36-45(3,4)5)53-44(47)35-31-27-24-21-18-15-14-17-19-22-25-29-33-42-41(54-42)32-28-9-7-2/h9,15,17-19,24-25,27-29,40-42H,6-8,10-14,16,20-23,26,30-39H2,1-5H3/b18-15-,19-17-,27-24-,28-9-,29-25-
Instrument: Acquity UPLC Peptide BEH C18 column (50 x 2.1 mm; 1.7 um), Sciex TripleTOF5600
Instrument type: LC-ESI-QTOF
Ms type: MS2
Ion mode: NEGATIVE
Collision energy: 30-50
Precursor m/z: 852.5396225
Precursor type: [M+CH3COOH-H]-
m/z	relative intensity
133.0972	25
168.0315	25
168.0407	25
168.0443	36
175.1507	25
193.1277	25
201.1587	25
201.1607	25
201.1647	25
224.0589	25
224.0674	36
224.0716	25
226.5028	36
227.1829	50
227.185	61
227.1871	87
227.1893	148
227.1914	270
227.1935	317
227.1956	480
227.1978	404
227.1999	465
227.202	501
227.2041	490
227.2063	541
227.2084	393
227.2105	209
227.2126	234
227.2148	112
227.2169	133
227.219	50
227.2212	72
227.2233	50
227.2254	50
227.2297	25
233.1422	36
233.1486	36
233.1508	25
233.1529	50
233.1551	36
233.1594	25
233.1637	25
245.1419	25
245.153	25
245.164	25
253.2065	25
253.2133	25
253.2178	25
255.238	25
274.1458	25
274.1481	25
274.1574	25
274.1621	50
274.1644	25
281.2204	25
281.2228	36
281.2251	36
281.2275	36
281.2299	61
281.2346	87
281.2393	25
281.2488	25
281.2512	25
281.2535	36
282.2293	25
283.2614	25
283.2661	25
283.2685	36
299.2269	25
299.2318	25
299.2366	25
299.2391	25
317.2088	25
317.2113	25
317.2138	25
325.2097	36
325.2148	50
325.2199	25
325.2224	36
325.2351	25
343.2048	25
343.2074	50
343.21	25
343.2126	50
343.2152	133
343.2179	148
343.2205	195
343.2231	148
343.2257	97
343.2283	123
343.2309	50
343.2336	159
343.2361	87
343.2388	87
343.2414	87
343.244	36
343.2519	50
343.2545	36
378.2465	25
434.255	25
434.2697	25
434.2932	25
452.2589	36
452.2649	36
452.2679	36
452.2709	87
452.2739	97
452.2769	50
452.2829	50
452.2859	25
452.2889	25
452.2919	87
452.2949	36
478.2718	25
550.2794	36
550.2859	25
550.2892	25
550.3224	25
568.2808	25
568.301	25
568.3044	25
568.3077	50
568.3212	61
568.3246	36
568.3515	25
765.4912	36
765.5029	25
765.5225	25
776.0599	25
778.424	25
778.4319	36
778.4398	25
778.4476	87
778.4516	87
778.4555	198
778.4595	209
778.4634	361
778.4673	270
778.4713	411
778.4752	483
778.4791	472
778.4831	563
778.487	501
778.491	819
778.4949	804
778.4988	743
778.5027	869
778.5067	768
778.5106	790
778.5146	678
778.5185	999
778.5225	786
778.5264	646
778.5303	584
778.5342	400
778.5382	498
778.5421	346
778.5461	296
778.55	173
778.554	133
778.5579	133
778.5618	133
778.5657	87
778.5697	87
778.5736	61
778.5776	36
778.5854	36
778.5933	36
778.6051	25
779.4755	25
779.4873	36
779.4912	25
779.5109	25
779.5188	25
779.5267	25
779.5306	25
779.5424	25
793.4789	25
852.4772	36
852.4854	36
852.4896	25
852.4978	50
852.5019	25
852.506	25
852.5101	50
852.5143	61
852.5184	87
852.5225	87
852.5266	36
852.5308	87
852.5349	148
852.539	61
852.5431	61
852.5472	36
852.5513	72
852.5555	61
852.5596	61
852.5637	87
852.5678	50
852.572	25
852.576	25
852.5802	50
852.5843	50
852.5925	25
852.6172	25
853.5322	25
