Mass spectrum: PE(16:1/8-HETE); LC-ESI-QTOF; MS2
Name: PE(16:1/8-HETE)
Class: Oxidized Phospholipid
Formula: C41H72NO9P
Exact mass: 754.001
SMILES: CCCCCC\C=C/CCCCCCCC(=O)OCC(COP(O)(=O)OCCN)OC(=O)CCC\C=C/CC(O)\C=C/C=C\C\C=C/CCCCC
InChI: InChI=1S/C41H72NO9P/c1-3-5-7-9-11-13-15-16-17-19-21-23-28-32-40(44)48-36-39(37-50-52(46,47)49-35-34-42)51-41(45)33-29-25-24-27-31-38(43)30-26-22-20-18-14-12-10-8-6-4-2/h12-15,20,22,24,26-27,30,38-39,43H,3-11,16-19,21,23,25,28-29,31-37,42H2,1-2H3,(H,46,47)/b14-12-,15-13-,22-20-,27-24-,30-26-
Instrument: Acquity UPLC Peptide BEH C18 column (50 x 2.1 mm; 1.7 um), Sciex TripleTOF5600
Instrument type: LC-ESI-QTOF
Ms type: MS2
Ion mode: NEGATIVE
Collision energy: 30-50
Precursor m/z: 752.4871934
Precursor type: [M-H]-
m/z	relative intensity
140.0129	171
155.0661	86
155.0679	86
155.0696	171
155.0731	86
155.0748	86
196.0287	86
196.0326	86
196.0365	86
227.1926	86
227.1969	86
253.1866	86
253.1977	86
253.1999	86
253.2044	171
253.2066	343
253.2089	428
253.2111	628
253.2133	742
253.2156	785
253.2178	171
253.22	664
253.2223	428
253.2245	86
253.229	171
253.2446	86
279.2177	86
279.2271	171
279.2482	86
301.2098	171
301.2292	86
319.2211	171
319.2236	86
319.2286	86
319.2311	171
516.2535	171
516.2599	171
516.2631	86
516.2791	86
516.2822	86
516.2886	171
752.4403	86
752.4442	86
752.4518	343
752.4557	86
752.4595	257
752.4634	171
752.4672	542
752.4711	706
752.4749	585
752.4788	428
752.4826	999
752.4865	549
752.4903	428
752.4941	428
752.498	428
752.5018	343
752.5057	86
752.5095	428
752.5134	428
752.5288	86
752.5442	86
