Mass spectrum: PI 39:4; LC-ESI-QTOF; MS2
Name: PI 39:4
Class: PI
Formula: C48H85O13P
Exact mass: 901.171
SMILES: CCCCCCCCCCCCCCCCCCC(=O)OCC(COP(O)(=O)OC1C(O)C(O)C(O)C(O)C1O)OC(=O)CCCCCC\C=C/C\C=C/C\C=C/C\C=C/CC
InChI: InChI=1S/C48H85O13P/c1-3-5-7-9-11-13-15-17-19-21-23-25-27-29-31-33-35-37-42(50)60-40(39-59-62(56,57)61-48-46(54)44(52)43(51)45(53)47(48)55)38-58-41(49)36-34-32-30-28-26-24-22-20-18-16-14-12-10-8-6-4-2/h5,7,11,13,17,19,23,25,40,43-48,51-55H,3-4,6,8-10,12,14-16,18,20-22,24,26-39H2,1-2H3,(H,56,57)/b7-5-,13-11-,19-17-,25-23-
Instrument: AB Sciex TripleTOF 5600+ system (Q-TOF) equipped with a DuoSpray ion source
Instrument type: LC-ESI-QTOF
Ms type: MS2
Ion mode: NEGATIVE
Collision energy: 45V
Column name: Acquity UPLC Peptide BEH C18 column (50*2.1 mm; 1.7 um; 130A)(Waters Co.,Milford, MA, USA)
Retention time: 9.006672
Precursor type: [M-H]-
Precursor m/z: 899.5654
m/z	relative intensity
152.997	4
223.002	29
240.995	15
241.015	75
255.232	4
259.023	6
259.244	9
283.26	4
297.031	22
297.277	108
297.29	18
298.277	4
303.213	18
303.232	112
315.056	11
405.277	4
433.271	68
435.276	6
439.23	11
451.283	11
595.299	29
595.325	55
595.353	18
595.392	9
601.262	20
601.29	22
613.291	7
613.338	25
687.536	13
709.505	4
738.544	4
739.535	4
817.578	4
821.51	6
825.533	5
825.581	15
861.625	5
867.548	6
896.741	11
899.278	4
899.491	41
899.549	934
899.574	999
899.65	28
900.592	9
