Mass spectrum: PG 40:6; LC-ESI-QTOF; MS2
Name: PG 40:6
Class: PG
Formula: C46H79O10P
Exact mass: 823.1039999999999
SMILES: CCCCCCCC\C=C/CCCCCCCC(=O)OCC(COP(O)(=O)OCC(O)CO)OC(=O)CCCCC\C=C/C\C=C/C\C=C/C\C=C/C\C=C/CC
InChI: InChI=1S/C46H79O10P/c1-3-5-7-9-11-13-15-17-19-20-21-22-24-26-28-30-32-34-36-38-46(50)56-44(42-55-57(51,52)54-40-43(48)39-47)41-53-45(49)37-35-33-31-29-27-25-23-18-16-14-12-10-8-6-4-2/h5,7,11,13,17-19,21-23,26,28,43-44,47-48H,3-4,6,8-10,12,14-16,20,24-25,27,29-42H2,1-2H3,(H,51,52)/b7-5-,13-11-,19-17-,22-21-,23-18-,28-26-
Instrument: AB Sciex TripleTOF 5600+ system (Q-TOF) equipped with a DuoSpray ion source
Instrument type: LC-ESI-QTOF
Ms type: MS2
Ion mode: NEGATIVE
Collision energy: 45V
Column name: Acquity UPLC Peptide BEH C18 column (50*2.1 mm; 1.7 um; 130A)(Waters Co.,Milford, MA, USA)
Retention time: 8.196999
Precursor type: [M-H]-
Precursor m/z: 821.5374
m/z	relative intensity
152.995	13
227.037	2
231.211	10
251.198	3
255.236	2
273.184	2
279.235	14
280.373	11
281.181	3
281.247	964
282.249	2
283.273	2
285.26	44
303.229	2
307.264	4
327.236	3
328.224	7
329.147	1
329.247	750
330.255	3
331.255	7
331.272	8
435.247	2
464.321	2
465.244	3
465.318	3
489.262	2
491.278	11
509.274	15
509.297	6
539.26	3
539.285	6
541.27	2
557.275	6
557.303	3
627.526	1
629.554	2
743.427	1
761.625	3
803.487	1
818.905	2
818.995	3
820.294	2
821.456	7
821.535	999
821.611	10
822.523	2
