Mass spectrum: PG 42:10; LC-ESI-QTOF; MS2
Name: PG 42:10
Class: PG
Formula: C48H75O10P
Exact mass: 843.094
SMILES: CC\C=C/C\C=C/C\C=C/C\C=C/CCCCCCC(=O)OCC(COP(O)(=O)OCC(O)CO)OC(=O)CC\C=C/C\C=C/C\C=C/C\C=C/C\C=C/C\C=C/CC
InChI: InChI=1S/C48H75O10P/c1-3-5-7-9-11-13-15-17-19-21-22-24-26-28-30-32-34-36-38-40-48(52)58-46(44-57-59(53,54)56-42-45(50)41-49)43-55-47(51)39-37-35-33-31-29-27-25-23-20-18-16-14-12-10-8-6-4-2/h5-8,11-14,17-20,22,24-25,27-28,30,34,36,45-46,49-50H,3-4,9-10,15-16,21,23,26,29,31-33,35,37-44H2,1-2H3,(H,53,54)/b7-5-,8-6-,13-11-,14-12-,19-17-,20-18-,24-22-,27-25-,30-28-,36-34-
Instrument: AB Sciex TripleTOF 5600+ system (Q-TOF) equipped with a DuoSpray ion source
Instrument type: LC-ESI-QTOF
Ms type: MS2
Ion mode: NEGATIVE
Collision energy: 45V
Column name: Acquity UPLC Peptide BEH C18 column (50*2.1 mm; 1.7 um; 130A)(Waters Co.,Milford, MA, USA)
Retention time: 7.864452
Precursor type: [M-H]-
Precursor m/z: 841.5005
m/z	relative intensity
152.995	12
177.088	3
177.164	4
191.138	3
191.179	5
205.194	13
229.191	15
229.202	6
231.213	2
249.184	6
257.231	2
259.241	35
283.241	132
283.265	11
284.276	1
302.29	2
303.231	608
309.22	2
327.23	364
329.247	3
359.223	3
360.223	2
439.23	2
448.318	1
457.234	5
463.209	5
463.247	2
466.316	4
466.332	5
467.315	4
467.34	6
480.3	2
481.235	2
500.526	1
513.25	8
531.271	10
537.26	12
555.267	15
700.519	1
767.521	1
795.488	1
805.513	2
823.494	3
823.527	9
838.852	6
840.24	1
841.349	1
841.429	9
841.494	999
842.297	1
842.475	3
842.53	1
