Mass spectrum: PE(16:1/12-HETE); LC-ESI-QTOF; MS2
Name: PE(16:1/12-HETE)
Class: Oxidized Phospholipid
Formula: C41H72NO9P
Exact mass: 754.001
SMILES: CCCCCC\C=C/CCCCCCCC(=O)OCC(COP(O)(=O)OCCN)OC(=O)CCC\C=C/C\C=C/C=C/C(O)C\C=C/CCCCC
InChI: InChI=1S/C41H72NO9P/c1-3-5-7-9-11-12-13-14-15-16-20-24-28-32-40(44)48-36-39(37-50-52(46,47)49-35-34-42)51-41(45)33-29-25-21-18-17-19-23-27-31-38(43)30-26-22-10-8-6-4-2/h12-13,18-19,21-23,26-27,31,38-39,43H,3-11,14-17,20,24-25,28-30,32-37,42H2,1-2H3,(H,46,47)/b13-12-,21-18-,23-19-,26-22-,31-27+
Instrument: Acquity UPLC Peptide BEH C18 column (50 x 2.1 mm; 1.7 um), Sciex TripleTOF5600
Instrument type: LC-ESI-QTOF
Ms type: MS2
Ion mode: NEGATIVE
Collision energy: 30-50
Precursor m/z: 752.4871934
Precursor type: [M-H]-
m/z	relative intensity
140.001	48
140.0144	48
140.0161	48
163.1163	48
179.0952	48
179.099	48
179.1009	123
179.1028	48
179.1047	198
179.1066	172
179.1104	172
179.1122	99
179.1141	48
179.1179	48
179.1255	48
180.1145	48
196.0321	48
196.036	48
196.038	48
196.0479	48
203.1803	48
208.0969	48
208.099	48
208.101	48
208.1051	75
208.1071	48
208.1091	48
208.1112	48
208.1153	99
208.1173	48
252.4229	51
253.1947	75
253.1969	48
253.2014	75
253.2037	148
253.2059	198
253.2082	373
253.2104	445
253.2126	472
253.2149	997
253.2171	496
253.2194	520
253.2216	394
253.2239	743
253.2261	271
253.2284	198
253.2306	123
253.2329	126
253.2351	48
253.2396	51
254.2263	48
257.2181	48
257.2204	123
257.2249	148
257.2272	75
257.2295	75
257.234	123
257.2362	99
301.2016	48
301.2041	48
301.2065	99
301.209	75
301.2114	99
301.2139	123
301.2163	247
301.2188	75
301.2212	75
301.2237	174
301.2359	48
318.9647	51
319.2067	123
319.2092	75
319.2117	198
319.2142	300
319.2168	450
319.2193	399
319.2218	576
319.2243	624
319.2268	597
319.2294	726
319.2319	750
319.2344	423
319.2369	348
319.2394	445
319.242	150
319.2445	99
319.247	148
319.2495	99
319.2596	48
432.2457	75
450.2353	48
450.2563	123
450.2593	123
450.2623	75
450.2653	99
450.2712	75
450.2743	123
450.2802	99
450.2832	48
450.2862	48
450.2892	48
450.2922	48
498.2616	48
693.4986	51
708.4297	51
751.6183	51
752.4153	48
752.4193	48
752.4347	48
752.4386	99
752.4424	324
752.4464	503
752.4502	152
752.454	329
752.4579	230
752.4618	230
752.4657	692
752.4695	489
752.4734	489
752.4773	801
752.4811	900
752.485	496
752.4889	999
752.4927	697
752.4966	803
752.5005	900
752.5044	750
752.5082	721
752.5121	847
752.516	564
752.5198	414
752.5237	310
752.5276	411
752.5315	203
752.5353	232
752.5431	99
752.5469	51
752.5508	152
753.4374	48
753.48	99
753.4839	48
753.4955	48
753.5149	48
753.5266	48
753.5304	48
