Mass spectrum: SM d39:1; LC-ESI-QTOF; MS2
Name: SM d39:1
Class: SM
Formula: C44H89N2O6P
Exact mass: 773.18
SMILES: CCCCCCCCCCCCCCCCCCCCC(=O)NC(COP([O-])(=O)OCC[N+](C)(C)C)C(O)\C=C\CCCCCCCCCCCCC
InChI: InChI=1S/C44H89N2O6P/c1-6-8-10-12-14-16-18-20-21-22-23-24-26-28-30-32-34-36-38-44(48)45-42(41-52-53(49,50)51-40-39-46(3,4)5)43(47)37-35-33-31-29-27-25-19-17-15-13-11-9-7-2/h35,37,42-43,47H,6-34,36,38-41H2,1-5H3,(H-,45,48,49,50)/b37-35+
Instrument: AB Sciex TripleTOF 5600+ system (Q-TOF) equipped with a DuoSpray ion source
Instrument type: LC-ESI-QTOF
Ms type: MS2
Ion mode: NEGATIVE
Collision energy: 45V
Column name: Acquity UPLC Peptide BEH C18 column (50*2.1 mm; 1.7 um; 130A)(Waters Co.,Milford, MA, USA)
Retention time: 11.4574
Precursor type: [M+CH3COOH-H]-
Precursor m/z: 831.6547
m/z	relative intensity
78.959	11
122.985	2
141.015	1
168.043	48
256.229	0
280.952	0
281.246	0
410.242	0
438.236	1
449.313	2
463.131	0
617.992	0
656.035	1
668.529	0
686.505	1
686.547	5
712.567	2
755.213	5
757.387	1
757.614	999
757.697	2
757.81	1
757.947	1
758.61	3
758.631	2
771.588	1
772.573	8
831.606	3
831.646	27
