Mass spectrum: PE(16:0/9-HODE); LC-ESI-QTOF; MS2
Name: PE(16:0/9-HODE)
Class: Oxidized Phospholipid
Formula: C39H74NO9P
Exact mass: 731.995
SMILES: CCCCCCCCCCCCCCCC(=O)OCC(COP(O)(=O)OCCN)OC(=O)CCCCCCCC(O)\C=C\C=C/CCCCC
InChI: InChI=1S/C39H74NO9P/c1-3-5-7-9-11-12-13-14-15-16-18-22-26-30-38(42)46-34-37(35-48-50(44,45)47-33-32-40)49-39(43)31-27-23-19-21-25-29-36(41)28-24-20-17-10-8-6-4-2/h17,20,24,28,36-37,41H,3-16,18-19,21-23,25-27,29-35,40H2,1-2H3,(H,44,45)/b20-17-,28-24+
Instrument: Acquity UPLC Peptide BEH C18 column (50 x 2.1 mm; 1.7 um), Sciex TripleTOF5600
Instrument type: LC-ESI-QTOF
Ms type: MS2
Ion mode: NEGATIVE
Collision energy: 30-50
Precursor m/z: 730.5028435
Precursor type: [M-H]-
m/z	relative intensity
140.0123	52
171.0955	52
171.0973	69
171.0992	103
171.101	86
171.1028	86
171.1047	34
171.1065	34
171.1084	69
178.8877	34
196.0384	34
196.0423	34
253.2072	34
253.2117	34
253.2139	35
253.2207	52
254.5021	35
254.7858	35
255.2094	19
255.2117	71
255.2139	71
255.2162	160
255.2184	158
255.2207	303
255.2229	516
255.2252	463
255.2274	606
255.2297	947
255.232	839
255.2342	836
255.2365	999
255.2387	519
255.241	430
255.2432	285
255.2455	249
255.2477	320
255.25	195
255.2522	35
255.2568	19
255.259	19
255.5679	19
256.0374	19
256.1525	19
256.2451	19
277.2017	52
277.2041	86
277.2064	69
277.2088	103
277.2111	206
277.2135	155
277.2158	206
277.2182	155
277.2205	172
277.2229	189
277.2252	138
277.2276	155
277.2299	34
277.2323	69
277.2346	52
283.2507	34
283.2554	52
283.2578	103
283.2602	34
283.2626	69
283.265	86
283.2673	69
283.2697	86
283.2721	69
283.2744	52
283.2768	34
283.2816	34
284.2561	34
284.2632	52
284.2656	52
284.268	52
284.2727	34
284.2751	69
284.2799	34
293.2132	35
294.3014	35
295.2026	52
295.205	69
295.2098	71
295.2123	157
295.2147	209
295.2171	227
295.2195	349
295.222	332
295.2244	701
295.2268	490
295.2292	472
295.2317	246
295.2341	438
295.2365	350
295.239	211
295.2414	246
295.2438	123
295.2462	106
295.2486	54
295.2511	69
295.2535	35
308.8702	19
452.2666	52
452.2696	34
452.2726	34
452.2786	52
474.2402	52
474.2678	52
474.2709	34
492.2544	52
492.2701	34
492.2732	52
492.2795	69
492.2826	34
643.4044	34
643.4437	34
643.4652	34
704.8096	35
722.8592	35
730.4243	34
730.4358	52
730.4434	69
730.4472	71
730.451	121
730.4548	35
730.4587	142
730.4625	106
730.4663	142
730.4701	194
730.4739	249
730.4777	423
730.4816	409
730.4854	430
730.4891	468
730.493	628
730.4968	610
730.5006	467
730.5044	482
730.5082	558
730.512	662
730.5159	537
730.5197	573
730.5235	593
730.5273	339
730.5311	413
730.5349	142
730.5388	214
730.5425	160
730.5464	125
730.5502	89
730.554	125
730.5578	72
730.5616	35
730.5654	34
730.5731	34
730.5769	34
730.5921	52
730.6074	19
