Mass spectrum: PC 36:3; LC-ESI-QTOF; MS2
Name: PC 36:3
Class: PC
Formula: C44H82NO8P
Exact mass: 784.1149999999998
SMILES: CCCCCCCC\C=C/CCCCCCCC(=O)OCC(COP([O-])(=O)OCC[N+](C)(C)C)OC(=O)CCCCCCC\C=C/C\C=C/CCCCC
InChI: InChI=1S/C44H82NO8P/c1-6-8-10-12-14-16-18-20-22-24-26-28-30-32-34-36-43(46)50-40-42(41-52-54(48,49)51-39-38-45(3,4)5)53-44(47)37-35-33-31-29-27-25-23-21-19-17-15-13-11-9-7-2/h15,17,20-23,42H,6-14,16,18-19,24-41H2,1-5H3/b17-15-,22-20-,23-21-
Instrument: AB Sciex TripleTOF 5600+ system (Q-TOF) equipped with a DuoSpray ion source
Instrument type: LC-ESI-QTOF
Ms type: MS2
Ion mode: NEGATIVE
Collision energy: 45V
Column name: Acquity UPLC Peptide BEH C18 column (50*2.1 mm; 1.7 um; 130A)(Waters Co.,Milford, MA, USA)
Retention time: 9.448872
Precursor type: [M+CH3COOH-H]-
Precursor m/z: 842.5897
m/z	relative intensity
78.958	2
168.042	11
168.052	3
224.069	23
253.219	1
255.229	3
261.223	2
278.36	6
279.169	2
279.231	912
280.237	1
280.372	3
281.248	409
305.246	4
307.263	2
417.239	1
430.265	1
432.292	1
486.295	8
486.327	1
486.793	0
488.303	6
488.319	8
504.299	9
504.317	3
506.319	64
557.065	1
557.18	1
557.522	4
561.378	2
697.477	2
700.585	1
723.49	1
766.115	3
767.526	0
767.913	1
768.551	999
769.558	2
783.517	9
839.916	0
842.554	14
842.587	89
