Mass spectrum: Cer[NS] d41:1; LC-ESI-QTOF; MS2
Name: Cer[NS] d41:1
Class: Cer_NS
Formula: C41H81NO3
Exact mass: 636.1029999999998
SMILES: CCCCCCCCCCCCCCCCCCCCCCC(=O)NC(CO)C(O)\C=C\CCCCCCCCCCCCC
InChI: InChI=1S/C41H81NO3/c1-3-5-7-9-11-13-15-17-18-19-20-21-22-23-25-27-29-31-33-35-37-41(45)42-39(38-43)40(44)36-34-32-30-28-26-24-16-14-12-10-8-6-4-2/h34,36,39-40,43-44H,3-33,35,37-38H2,1-2H3,(H,42,45)/b36-34+
Instrument: AB Sciex TripleTOF 5600+ system (Q-TOF) equipped with a DuoSpray ion source
Instrument type: LC-ESI-QTOF
Ms type: MS2
Ion mode: NEGATIVE
Collision energy: 45V
Column name: Acquity UPLC Peptide BEH C18 column (50*2.1 mm; 1.7 um; 130A)(Waters Co.,Milford, MA, USA)
Retention time: 13.20415
Precursor type: [M+CH3COOH-H]-
Precursor m/z: 694.6314
m/z	relative intensity
203.023	2
217.002	6
223.202	11
223.214	5
225.22	3
235.209	3
237.22	64
239.237	2
249.222	7
250.252	5
252.234	2
254.248	2
263.238	47
266.248	12
268.265	15
281.253	1
298.266	4
299.001	2
322.989	2
335.329	114
349.339	11
349.353	8
351.366	9
352.355	67
352.375	8
353.338	52
364.356	2
366.366	18
366.39	8
366.992	2
367.353	10
377.182	2
378.372	343
392.34	2
392.388	71
394.354	15
394.37	29
396.374	2
406.396	2
408.364	3
408.387	5
584.582	2
586.572	24
586.591	34
586.61	10
602.546	5
602.586	66
602.643	3
604.552	5
604.592	100
604.626	15
606.601	1
616.581	2
616.605	4
632.594	2
634.61	999
635.61	2
694.447	0
694.635	3
