Mass spectrum: PE(18:0/19,20-EpDPE); LC-ESI-QTOF; MS2
Name: PE(18:0/19,20-EpDPE)
Class: Oxidized Phospholipid
Formula: C45H78NO9P
Exact mass: 808.093
SMILES: CCCCCCCCCCCCCCCCCC(=O)OCC(COP(O)(=O)OCCN)OC(=O)CC\C=C/C\C=C/C\C=C/C\C=C/C\C=C/CC1OC1CC
InChI: InChI=1S/C45H78NO9P/c1-3-5-6-7-8-9-10-11-13-17-20-23-26-29-32-35-44(47)51-39-41(40-53-56(49,50)52-38-37-46)54-45(48)36-33-30-27-24-21-18-15-12-14-16-19-22-25-28-31-34-43-42(4-2)55-43/h12,14,18-19,21-22,27-28,30-31,41-43H,3-11,13,15-17,20,23-26,29,32-40,46H2,1-2H3,(H,49,50)/b14-12-,21-18-,22-19-,30-27-,31-28-
Instrument: Acquity UPLC Peptide BEH C18 column (50 x 2.1 mm; 1.7 um), Sciex TripleTOF5600
Instrument type: LC-ESI-QTOF
Ms type: MS2
Ion mode: NEGATIVE
Collision energy: 30-50
Precursor m/z: 806.5341436
Precursor type: [M-H]-
m/z	relative intensity
71.04545	23
71.05373	23
71.05491	23
78.95728	23
78.96102	46
107.0854	23
107.0869	23
133.0731	23
133.0941	23
133.0974	23
135.1097	23
135.113	23
135.1146	23
140.0099	23
140.0132	23
140.0165	46
147.1144	46
149.0532	23
149.0669	23
152.9863	23
152.9916	46
152.9985	23
153.0072	23
177.0871	23
177.1226	23
187.146	23
187.1498	23
196.0289	23
196.0308	69
196.0328	46
196.0387	23
196.0406	23
227.1695	23
227.1779	23
227.1843	23
227.1885	23
227.1949	23
227.2033	23
229.197	23
229.2034	23
229.2055	46
241.1809	23
241.1874	23
241.1896	23
241.1918	46
241.1939	93
241.1961	23
241.1983	23
241.2005	23
241.2135	23
253.2022	23
253.2134	23
253.2156	23
253.2178	23
253.2223	23
255.1767	23
255.2215	46
255.226	23
255.2282	23
255.2305	46
255.2349	23
255.2372	23
259.1577	23
259.1848	23
281.2062	23
281.2133	46
281.2156	69
281.218	46
281.2203	23
281.2227	93
281.225	23
281.2274	93
281.2297	69
281.2321	46
281.2344	23
281.2368	46
281.2391	23
281.2556	23
282.3599	23
282.3669	23
282.3716	23
282.3858	23
283.1971	23
283.2443	46
283.2467	46
283.2491	122
283.2514	93
283.2538	154
283.2561	125
283.2585	338
283.2609	137
283.2632	338
283.2656	243
283.2679	272
283.2703	245
283.2726	69
283.275	46
283.2774	46
283.2845	23
283.2915	23
285.1761	46
285.1808	93
285.1832	69
285.1855	69
285.1879	93
285.195	23
285.2021	46
299.2097	23
299.2121	23
299.2194	46
299.2242	46
299.2291	23
299.2315	23
299.2339	116
299.2364	93
299.2388	116
299.2412	69
299.2437	23
299.2461	23
299.2485	23
303.2187	23
303.2334	23
325.2077	46
325.2102	46
325.2127	23
325.2153	69
325.2178	23
325.2203	23
325.2305	23
343.2002	23
343.2054	23
343.208	23
343.2106	69
343.2132	168
343.2158	197
343.2184	154
343.221	183
343.2236	247
343.2262	226
343.2288	262
343.2314	262
343.234	179
343.2366	93
343.2392	147
343.2418	46
343.2522	23
343.2652	23
391.1936	23
391.2019	23
391.2158	23
391.2186	93
391.2213	46
391.2241	69
391.2296	23
391.238	46
409.231	23
409.248	23
455.2512	46
455.2571	23
462.2776	23
462.2866	46
462.2987	23
463.2189	23
463.2219	23
463.231	23
463.243	23
476.149	23
476.1521	23
476.1613	23
480.2804	23
480.2865	46
480.2896	46
480.2927	23
480.2957	137
480.2988	46
480.3019	116
480.3049	152
480.3111	116
480.3142	69
480.3172	46
480.3203	170
480.3234	23
617.3878	23
617.4087	23
617.4227	23
643.4134	23
643.4205	46
643.4241	23
643.4312	46
643.4348	23
643.4383	23
643.449	23
643.4525	23
643.4561	23
702.5007	23
702.5118	23
702.5156	23
719.4263	23
719.4451	23
719.4489	46
719.4564	23
719.4601	23
719.4639	46
719.4714	46
719.4752	23
719.4789	69
719.4827	23
719.4902	46
719.5052	23
732.4861	23
732.5013	23
732.5126	23
732.5658	23
803.9594	23
803.9911	23
803.9991	23
804.019	23
806.4507	23
806.4667	23
806.4706	46
806.4746	91
806.4786	23
806.4866	46
806.4905	114
806.4946	91
806.4985	176
806.5025	289
806.5065	409
806.5105	201
806.5145	440
806.5184	685
806.5224	546
806.5264	523
806.5304	820
806.5344	999
806.5383	474
806.5424	530
806.5463	482
806.5503	444
806.5543	355
806.5583	218
806.5623	253
806.5662	251
806.5702	272
806.5742	91
806.5782	68
806.5822	46
806.5861	91
806.5901	23
806.5941	23
806.5981	46
