Mass spectrum: PE(16:0/12-HEPE); LC-ESI-QTOF; MS2
Name: PE(16:0/12-HEPE)
Class: Oxidized Phospholipid
Formula: C41H72NO9P
Exact mass: 754.001
SMILES: CCCCCCCCCCCCCCCC(=O)OCC(COP(O)(=O)OCCN)OC(=O)CCC\C=C/C\C=C/C=C/C(O)C\C=C/C\C=C/CC
InChI: InChI=1S/C41H72NO9P/c1-3-5-7-9-11-12-13-14-15-16-20-24-28-32-40(44)48-36-39(37-50-52(46,47)49-35-34-42)51-41(45)33-29-25-21-18-17-19-23-27-31-38(43)30-26-22-10-8-6-4-2/h6,8,18-19,21-23,26-27,31,38-39,43H,3-5,7,9-17,20,24-25,28-30,32-37,42H2,1-2H3,(H,46,47)/b8-6-,21-18-,23-19-,26-22-,31-27+
Instrument: Acquity UPLC Peptide BEH C18 column (50 x 2.1 mm; 1.7 um), Sciex TripleTOF5600
Instrument type: LC-ESI-QTOF
Ms type: MS2
Ion mode: NEGATIVE
Collision energy: 30-50
Precursor m/z: 752.4871934
Precursor type: [M-H]-
m/z	relative intensity
179.095	93
179.0988	93
179.1082	93
179.1101	289
196.0437	93
208.1129	140
208.117	93
255.1965	93
255.201	93
255.2033	93
255.2055	93
255.2078	140
255.2146	93
255.2168	93
255.2191	187
255.2213	140
255.2236	93
255.2258	233
255.2281	570
255.2303	383
255.2326	766
255.2348	523
255.2371	429
255.2393	383
255.2416	429
255.2439	187
255.2461	233
255.2484	93
255.2506	93
299.1967	93
299.1991	140
299.204	93
299.2211	93
317.1978	93
317.2003	233
317.2029	336
317.2054	140
317.2079	429
317.2104	336
317.2129	336
317.2155	187
317.218	476
317.2205	233
317.223	233
317.2255	187
317.228	233
452.2581	93
452.2731	140
452.2761	93
452.2821	93
452.2851	93
496.2727	93
670.4548	93
752.442	187
752.4459	187
752.4497	187
752.4536	233
752.4575	336
752.4613	429
752.4652	429
752.4691	429
752.473	233
752.4768	570
752.4807	570
752.4846	859
752.4884	140
752.4923	906
752.4962	383
752.5	999
752.5039	710
752.5078	710
752.5117	710
752.5155	476
752.5194	523
752.5233	383
752.5271	187
752.531	140
752.5349	140
752.5504	93
