Mass spectrum: PC(14:0/18-HETE); LC-ESI-QTOF; MS2
Name: PC(14:0/18-HETE)
Class: Oxidized Phospholipid
Formula: C42H76NO9P
Exact mass: 770.044
SMILES: CCCCCCCCCCCCCC(=O)OCC(COP([O-])(=O)OCC[N+](C)(C)C)OC(=O)CCC\C=C/C\C=C/C\C=C/C\C=C/CCC(O)CC
InChI: InChI=1S/C42H76NO9P/c1-6-8-9-10-11-12-17-21-24-27-30-33-41(45)49-37-40(38-51-53(47,48)50-36-35-43(3,4)5)52-42(46)34-31-28-25-22-19-16-14-13-15-18-20-23-26-29-32-39(44)7-2/h14-16,18,22-23,25-26,39-40,44H,6-13,17,19-21,24,27-38H2,1-5H3/b16-14-,18-15-,25-22-,26-23-
Instrument: Acquity UPLC Peptide BEH C18 column (50 x 2.1 mm; 1.7 um), Sciex TripleTOF5600
Instrument type: LC-ESI-QTOF
Ms type: MS2
Ion mode: NEGATIVE
Collision energy: 30-50
Precursor m/z: 828.5396225
Precursor type: [M+CH3COOH-H]-
m/z	relative intensity
168.0379	52
168.0397	107
217.1904	52
224.058	52
227.182	52
227.1862	52
227.1884	52
227.1905	81
227.1926	159
227.1947	159
227.1969	213
227.199	185
227.2011	265
227.2032	265
227.2054	185
227.2075	107
227.2096	133
227.2118	107
227.2139	133
227.216	52
227.2181	52
261.1773	52
261.1842	81
261.1865	81
261.1887	133
261.191	107
261.1933	81
301.204	159
301.2064	107
301.2089	52
301.2138	185
301.2162	52
301.2187	107
301.2236	52
301.2309	81
301.2334	52
318.2368	55
319.194	52
319.199	55
319.2041	55
319.2091	268
319.2116	190
319.2142	377
319.2167	354
319.2192	648
319.2217	567
319.2242	754
319.2268	695
319.2293	778
319.2318	804
319.2343	484
319.2368	190
319.2394	320
319.2419	185
319.2444	265
319.2495	185
319.252	55
319.2545	81
319.257	107
452.2587	52
452.2677	52
452.2707	81
452.2797	52
452.2827	81
452.2917	52
753.5005	55
754.3722	55
754.4265	52
754.4342	133
754.442	52
754.4497	107
754.4536	55
754.4575	133
754.4613	55
754.4652	187
754.4691	325
754.473	330
754.4768	382
754.4807	492
754.4846	518
754.4885	994
754.4923	549
754.4962	749
754.5001	692
754.504	770
754.5078	583
754.5117	830
754.5156	718
754.5195	996
754.5233	695
754.5272	999
754.5311	445
754.535	500
754.5388	637
754.5427	500
754.5466	304
754.5505	247
754.5543	135
754.5582	138
754.5621	161
754.566	52
754.5737	107
755.5159	55
828.4883	52
828.5005	52
828.5249	52
828.5289	52
828.5371	107
828.5493	52
828.5574	213
828.5655	81
828.5777	81
828.5817	81
