Mass spectrum: PE 44:9; LC-ESI-QTOF; MS2
Name: PE 44:9
Class: PE
Formula: C49H80NO8P
Exact mass: 842.1539999999999
SMILES: CCCCC\C=C/C\C=C/C\C=C/CCCCCCCCC(=O)OCC(COP(O)(=O)OCCN)OC(=O)CC\C=C/C\C=C/C\C=C/C\C=C/C\C=C/C\C=C/CC
InChI: InChI=1S/C49H80NO8P/c1-3-5-7-9-11-13-15-17-19-21-23-25-27-29-31-33-35-37-39-41-48(51)55-45-47(46-57-59(53,54)56-44-43-50)58-49(52)42-40-38-36-34-32-30-28-26-24-22-20-18-16-14-12-10-8-6-4-2/h6,8,11-14,17-20,23-26,30,32,36,38,47H,3-5,7,9-10,15-16,21-22,27-29,31,33-35,37,39-46,50H2,1-2H3,(H,53,54)/b8-6-,13-11-,14-12-,19-17-,20-18-,25-23-,26-24-,32-30-,38-36-
Instrument: AB Sciex TripleTOF 5600+ system (Q-TOF) equipped with a DuoSpray ion source
Instrument type: LC-ESI-QTOF
Ms type: MS2
Ion mode: NEGATIVE
Collision energy: 45V
Column name: Acquity UPLC Peptide BEH C18 column (50*2.1 mm; 1.7 um; 130A)(Waters Co.,Milford, MA, USA)
Retention time: 9.960825
Precursor type: [M-H]-
Precursor m/z: 840.5583
m/z	relative intensity
177.162	37
196.038	37
229.19	81
255.232	37
283.241	384
297.241	56
303.23	235
327.23	999
329.249	37
333.281	594
530.278	56
530.326	190
753.571	43
766.542	169
772.556	47
840.51	228
840.535	405
840.559	539
840.584	271
840.602	120
