Mass spectrum: PC 32:2; LC-ESI-QTOF; MS2
Name: PC 32:2
Class: PC
Formula: C40H76NO8P
Exact mass: 730.0229999999999
SMILES: CCCCCCCCCCCCCC(=O)OCC(COP([O-])(=O)OCC[N+](C)(C)C)OC(=O)CCCCCCC\C=C/C\C=C/CCCCC
InChI: InChI=1S/C40H76NO8P/c1-6-8-10-12-14-16-18-19-20-21-23-25-27-29-31-33-40(43)49-38(37-48-50(44,45)47-35-34-41(3,4)5)36-46-39(42)32-30-28-26-24-22-17-15-13-11-9-7-2/h14,16,19-20,38H,6-13,15,17-18,21-37H2,1-5H3/b16-14-,20-19-
Instrument: AB Sciex TripleTOF 5600+ system (Q-TOF) equipped with a DuoSpray ion source
Instrument type: LC-ESI-QTOF
Ms type: MS2
Ion mode: NEGATIVE
Collision energy: 45V
Column name: Acquity UPLC Peptide BEH C18 column (50*2.1 mm; 1.7 um; 130A)(Waters Co.,Milford, MA, USA)
Retention time: 8.706791
Precursor type: [M+CH3COOH-H]-
Precursor m/z: 788.5442
m/z	relative intensity
168.043	19
227.202	324
253.22	157
279.231	820
283.26	38
419.262	19
452.274	87
478.29	33
486.29	19
504.313	29
673.529	19
701.517	38
714.499	999
714.526	386
715.514	19
788.494	58
788.543	139
