Mass spectrum: PE(18:2e/7-HDoHE); LC-ESI-QTOF; MS2
Name: PE(18:2e/7-HDoHE)
Class: Oxidized Phospholipid
Formula: C45H76NO8P
Exact mass: 790.078
SMILES: CCCCCCCCCCCCC\C=C/C\C=C/OCC(COP(O)(=O)OCCN)OC(=O)CC\C=C/CC(O)\C=C\C=C/C\C=C/C\C=C/C\C=C/CC
InChI: InChI=1S/C45H76NO8P/c1-3-5-7-9-11-13-15-17-18-19-21-23-25-27-29-34-39-51-41-44(42-53-55(49,50)52-40-38-46)54-45(48)37-33-30-32-36-43(47)35-31-28-26-24-22-20-16-14-12-10-8-6-4-2/h6,8,12,14,20,22,25-28,30-32,34-35,39,43-44,47H,3-5,7,9-11,13,15-19,21,23-24,29,33,36-38,40-42,46H2,1-2H3,(H,49,50)/b8-6-,14-12-,22-20-,27-25-,28-26-,32-30-,35-31+,39-34-
Instrument: Acquity UPLC Peptide BEH C18 column (50 x 2.1 mm; 1.7 um), Sciex TripleTOF5600
Instrument type: LC-ESI-QTOF
Ms type: MS2
Ion mode: NEGATIVE
Collision energy: 30-50
Precursor m/z: 788.5235789
Precursor type: [M-H]-
m/z	relative intensity
109.1041	26
113.0581	26
113.0611	26
113.0627	26
113.0641	26
113.0702	26
140.0061	40
140.0094	40
140.0128	26
140.0161	26
141.0481	53
141.0515	40
141.0532	53
141.0548	66
141.0565	66
141.0582	106
141.0599	40
153.0046	26
163.156	26
175.1408	40
189.1614	26
189.1672	40
189.1691	26
196.0302	26
196.0322	40
196.0342	53
196.0362	26
196.0381	40
196.0421	40
196.0441	40
196.046	26
201.1522	26
201.1562	26
201.1582	40
201.1602	79
201.1622	92
201.1642	53
201.1662	53
201.1682	66
201.1702	79
201.1722	53
227.1696	26
227.1781	53
227.1824	26
227.1845	26
227.1888	26
227.1909	40
245.1879	26
251.1895	26
251.2096	26
252.2125	26
253.2083	26
253.2106	40
253.2128	40
253.2196	40
253.2241	40
253.2263	26
254.2242	26
265.2478	26
265.2592	40
281.2082	26
281.2106	26
281.2129	40
281.2153	66
281.2177	145
281.22	172
281.2224	211
281.2248	185
281.2271	238
281.2295	211
281.2318	224
281.2342	158
281.2366	145
281.239	119
281.2413	79
281.2437	53
281.2461	26
281.2484	106
281.2531	26
281.2555	53
282.2526	26
283.2586	66
283.2633	26
283.2657	26
283.2681	53
283.28	26
297.2334	26
299.2216	40
299.2363	26
299.2412	26
299.2461	26
325.2018	26
325.2069	79
325.2094	79
325.212	66
325.2145	40
325.2171	92
325.2196	66
325.2221	66
325.2247	66
325.2272	66
325.2298	26
325.2323	26
325.2349	40
325.24	26
341.2234	26
343.2046	40
343.2072	40
343.2124	53
343.215	79
343.2176	132
343.2202	158
343.2229	172
343.2255	251
343.2281	251
343.2307	198
343.2333	211
343.2359	158
343.2385	158
343.2411	211
343.2438	92
343.2464	26
343.249	26
343.2542	66
401.2383	26
417.2419	26
419.2531	26
419.2676	26
437.2622	26
444.256	26
444.2679	26
444.2708	53
444.2768	26
444.2798	92
444.2827	53
444.2857	92
444.2887	79
444.2917	79
444.2946	26
444.2976	119
444.3006	53
444.3036	40
444.3065	26
460.2879	26
462.2698	26
462.2728	79
462.2789	79
462.2819	79
462.285	211
462.288	145
462.291	211
462.2941	211
462.2971	224
462.3001	158
462.3032	238
462.3062	277
462.3092	145
462.3123	145
462.3153	119
462.3183	79
462.3214	92
462.3244	40
462.3275	66
462.3305	26
464.3289	26
485.1934	26
701.5223	40
701.5336	53
714.4785	26
714.5011	26
714.5049	40
714.5087	26
714.5162	40
714.52	66
714.5237	26
714.5275	26
714.5313	26
788.4326	26
788.4484	40
788.4524	26
788.4564	53
788.4603	26
788.4643	67
788.4683	41
788.4722	56
788.4761	171
788.4801	154
788.4841	270
788.488	231
788.492	342
788.496	448
788.4999	332
788.5039	679
788.5079	593
788.5118	798
788.5158	781
788.5197	807
788.5237	770
788.5276	999
788.5316	810
788.5356	779
788.5396	837
788.5435	705
788.5475	790
788.5515	474
788.5554	603
788.5594	460
788.5633	387
788.5673	271
788.5712	172
788.5752	143
788.5792	144
788.5831	145
788.5871	161
788.5911	43
788.595	73
788.599	14
788.603	27
789.463	26
789.4709	26
789.4947	26
789.4987	26
789.5185	26
789.5225	26
789.5304	66
789.5344	66
789.5383	40
789.5542	26
789.5582	26
789.582	40
