Mass spectrum: PC(16:0/18-HETE); LC-ESI-QTOF; MS2
Name: PC(16:0/18-HETE)
Class: Oxidized Phospholipid
Formula: C44H80NO9P
Exact mass: 798.098
SMILES: CCCCCCCCCCCCCCCC(=O)OCC(COP([O-])(=O)OCC[N+](C)(C)C)OC(=O)CCC\C=C/C\C=C/C\C=C/C\C=C/CCC(O)CC
InChI: InChI=1S/C44H80NO9P/c1-6-8-9-10-11-12-13-16-20-23-26-29-32-35-43(47)51-39-42(40-53-55(49,50)52-38-37-45(3,4)5)54-44(48)36-33-30-27-24-21-18-15-14-17-19-22-25-28-31-34-41(46)7-2/h15,17-19,24-25,27-28,41-42,46H,6-14,16,20-23,26,29-40H2,1-5H3/b18-15-,19-17-,27-24-,28-25-
Instrument: Acquity UPLC Peptide BEH C18 column (50 x 2.1 mm; 1.7 um), Sciex TripleTOF5600
Instrument type: LC-ESI-QTOF
Ms type: MS2
Ion mode: NEGATIVE
Collision energy: 30-50
Precursor m/z: 856.5709227
Precursor type: [M+CH3COOH-H]-
m/z	relative intensity
78.95875	10
78.96251	10
78.96377	10
168.0361	20
168.0397	25
168.0415	25
168.0434	25
168.0452	15
168.0543	10
217.1841	15
217.1862	15
217.1882	25
217.1903	15
217.1924	15
217.1945	25
217.1966	25
217.1986	20
224.058	15
224.0622	20
224.0643	20
224.0685	15
224.0706	15
224.0728	30
224.0749	10
224.0833	10
242.093	10
245.194	10
247.1732	10
254.4352	26
254.4397	10
255.2077	15
255.21	10
255.2122	21
255.2145	31
255.2168	20
255.219	52
255.2213	124
255.2235	151
255.2258	204
255.228	230
255.2303	309
255.2325	276
255.2348	288
255.237	215
255.2393	136
255.2415	104
255.2438	147
255.246	68
255.2483	63
255.2506	31
255.2528	31
255.2551	26
255.2573	16
255.2596	10
256.2253	10
256.2456	5
257.2223	15
257.2246	10
257.2268	10
257.2291	10
261.1681	10
261.1703	15
261.1726	30
261.1749	30
261.1772	70
261.1794	50
261.1817	50
261.184	95
261.1863	60
261.1886	85
261.1909	55
261.1931	55
261.1954	35
261.1977	30
261.2	15
273.2228	10
275.2135	10
275.2252	10
275.2345	10
275.2369	30
275.2415	10
275.2462	10
275.2486	10
281.2455	10
281.2502	10
282.2497	10
301.1964	10
301.1988	10
301.2013	25
301.2037	30
301.2062	40
301.2086	45
301.2111	60
301.2135	100
301.216	85
301.2184	35
301.2209	55
301.2233	60
301.2258	40
301.2282	35
301.2307	20
301.2331	10
301.2356	20
301.238	20
317.2154	15
318.2113	11
318.2415	16
318.2567	10
318.7401	10
319.0526	10
319.1937	10
319.1962	5
319.1988	21
319.2013	32
319.2038	32
319.2063	73
319.2088	95
319.2114	215
319.2139	274
319.2164	347
319.2189	474
319.2214	478
319.224	641
319.2265	676
319.229	591
319.2315	537
319.234	582
319.2366	439
319.2391	273
319.2416	196
319.2441	155
319.2466	149
319.2492	56
319.2517	51
319.2542	21
319.2567	11
319.2592	17
319.2643	17
319.2668	5
319.2744	5
320.2155	15
320.2231	15
320.2281	10
320.2332	15
320.2357	10
320.2382	10
320.2432	16
320.2458	10
419.2408	10
419.2437	15
462.275	10
462.2871	15
462.2962	10
462.3053	25
462.3114	20
462.3175	10
480.2634	10
480.2727	15
480.2758	10
480.282	15
480.2851	15
480.2881	20
480.2912	10
480.2943	35
480.2974	40
480.3005	45
480.3036	85
480.3067	50
480.3098	65
480.3129	75
480.316	55
480.3191	116
480.3222	50
480.3253	60
480.3283	20
480.3314	30
480.3345	15
480.3376	20
480.3407	10
480.3438	10
481.2905	10
526.2849	10
526.2979	10
526.3043	10
526.3302	10
544.3107	10
544.3173	10
544.3305	10
711.4557	10
711.4595	15
711.4708	10
711.4745	10
780.0623	10
780.086	10
780.0899	10
782.4641	5
782.472	5
782.476	16
782.4799	11
782.4839	45
782.4878	100
782.4918	68
782.4957	137
782.4996	285
782.5036	372
782.5076	355
782.5115	467
782.5154	471
782.5194	615
782.5233	657
782.5273	700
782.5313	873
782.5352	958
782.5391	999
782.5431	795
782.547	941
782.551	973
782.5549	751
782.5588	767
782.5628	791
782.5668	484
782.5707	416
782.5746	321
782.5786	260
782.5825	212
782.5865	149
782.5905	129
782.5944	70
782.5983	37
782.6023	51
782.6062	41
782.6102	12
782.6141	30
782.618	18
782.626	6
782.6339	13
783.1945	10
783.4985	10
783.5025	10
783.5104	20
783.5143	15
783.5183	10
783.5262	17
783.5302	10
783.5341	40
783.538	20
783.546	15
783.5499	20
783.5538	30
783.5578	20
783.5618	25
783.5657	15
783.5696	15
783.5736	15
783.5854	15
786.5782	10
797.4742	10
797.4782	15
797.4902	15
797.4941	10
797.5061	20
797.5101	10
797.5141	10
797.5181	25
797.522	25
797.5261	10
797.534	10
797.538	15
797.542	10
797.546	15
809.5288	15
809.5449	15
809.5489	25
809.5529	25
809.5609	10
809.5649	15
809.569	25
809.5729	15
809.577	30
809.585	10
809.6051	10
809.6091	10
824.4952	10
856.5151	10
856.5233	25
856.5275	10
856.5316	20
856.5357	30
856.5399	15
856.544	45
856.5481	50
856.5522	40
856.5564	30
856.5605	60
856.5646	45
856.5688	45
856.5729	55
856.577	40
856.5811	95
856.5853	95
856.5894	91
856.5935	95
856.5977	60
856.6018	65
856.6059	50
856.61	65
856.6142	20
856.6183	20
856.6224	40
856.6266	10
856.6348	20
856.6472	10
857.5849	10
