Mass spectrum: PC 32:0; LC-ESI-QTOF; MS2
Name: PC 32:0
Class: PC
Formula: C40H80NO8P
Exact mass: 734.0549999999998
SMILES: CCCCCCCCCCCCCCCC(=O)OCC(COP([O-])(=O)OCC[N+](C)(C)C)OC(=O)CCCCCCCCCCCCCCC
InChI: InChI=1S/C40H80NO8P/c1-6-8-10-12-14-16-18-20-22-24-26-28-30-32-39(42)46-36-38(37-48-50(44,45)47-35-34-41(3,4)5)49-40(43)33-31-29-27-25-23-21-19-17-15-13-11-9-7-2/h38H,6-37H2,1-5H3
Instrument: AB Sciex TripleTOF 5600+ system (Q-TOF) equipped with a DuoSpray ion source
Instrument type: LC-ESI-QTOF
Ms type: MS2
Ion mode: NEGATIVE
Collision energy: 45V
Column name: Acquity UPLC Peptide BEH C18 column (50*2.1 mm; 1.7 um; 130A)(Waters Co.,Milford, MA, USA)
Retention time: 9.791304
Precursor type: [M+CH3COOH-H]-
Precursor m/z: 792.5735
m/z	relative intensity
78.958	3
152.995	0
168.043	14
177.739	0
206.063	0
223.371	0
224.069	15
227.202	2
237.222	0
242.079	1
254.435	6
254.975	0
255.076	0
255.145	1
255.233	999
255.262	1
255.744	0
255.792	0
255.885	0
256.164	0
256.518	0
283.264	1
333.277	0
391.217	1
391.234	1
403.596	0
406.259	0
406.28	0
409.233	0
415.448	0
419.278	0
437.272	0
452.261	0
462.296	24
478.784	0
478.827	0
480.308	81
480.361	0
481.726	0
495.276	0
508.333	0
511.461	0
511.488	0
511.812	0
645.499	0
647.438	0
647.464	1
647.498	0
673.461	0
673.484	0
673.514	0
716.217	0
716.239	0
716.257	0
716.267	0
716.28	1
716.296	1
716.343	0
716.571	0
717.449	0
718.344	0
718.395	0
718.534	400
719.538	1
719.709	0
719.874	0
719.925	0
720.297	0
722.163	0
727.653	0
733.492	8
733.528	2
733.556	0
760.542	0
766.206	0
790.08	0
792.57	53
792.646	0
