Mass spectrum: SM d42:3; LC-ESI-QTOF; MS2
Name: SM d42:3
Class: SM
Formula: C47H91N2O6P
Exact mass: 811.2289999999999
SMILES: CCCCCCCCCCCCC\C=C\C(O)C(COP([O-])(=O)OCC[N+](C)(C)C)NC(=O)CCCCCCCCCCCCCCCC\C=C/C\C=C/CC
InChI: InChI=1S/C47H91N2O6P/c1-6-8-10-12-14-16-18-20-21-22-23-24-25-26-27-29-31-33-35-37-39-41-47(51)48-45(44-55-56(52,53)54-43-42-49(3,4)5)46(50)40-38-36-34-32-30-28-19-17-15-13-11-9-7-2/h8,10,14,16,38,40,45-46,50H,6-7,9,11-13,15,17-37,39,41-44H2,1-5H3,(H-,48,51,52,53)/b10-8-,16-14-,40-38+
Instrument: AB Sciex TripleTOF 5600+ system (Q-TOF) equipped with a DuoSpray ion source
Instrument type: LC-ESI-QTOF
Ms type: MS2
Ion mode: NEGATIVE
Collision energy: 45V
Column name: Acquity UPLC Peptide BEH C18 column (50*2.1 mm; 1.7 um; 130A)(Waters Co.,Milford, MA, USA)
Retention time: 11.11784
Precursor type: [M+CH3COOH-H]-
Precursor m/z: 869.6735
m/z	relative intensity
78.958	20
122.986	3
141.019	2
168.043	50
179.047	1
255.23	1
277.179	1
303.219	2
585.929	1
642.578	3
643.589	3
793.08	3
793.187	3
795.567	37
795.607	140
795.615	183
795.64	999
795.692	30
796.627	5
810.579	6
810.62	5
822.612	3
823.597	4
823.638	13
823.678	7
869.603	5
869.64	15
869.662	28
869.689	27
