Mass spectrum: PC(16:0e/15-HETE); LC-ESI-QTOF; MS2
Name: PC(16:0e/15-HETE)
Class: Oxidized Phospholipid
Formula: C44H82NO8P
Exact mass: 784.115
SMILES: CCCCCCCCCCCCCCCCOCC(COP([O-])(=O)OCC[N+](C)(C)C)OC(=O)CCC\C=C/C\C=C/C\C=C/C=C/C(O)CCCCC
InChI: InChI=1S/C44H82NO8P/c1-6-8-10-11-12-13-14-15-16-20-23-26-29-33-38-50-40-43(41-52-54(48,49)51-39-37-45(3,4)5)53-44(47)36-32-28-25-22-19-17-18-21-24-27-31-35-42(46)34-30-9-7-2/h17-18,22,24-25,27,31,35,42-43,46H,6-16,19-21,23,26,28-30,32-34,36-41H2,1-5H3/b18-17-,25-22-,27-24-,35-31+
Instrument: Acquity UPLC Peptide BEH C18 column (50 x 2.1 mm; 1.7 um), Sciex TripleTOF5600
Instrument type: LC-ESI-QTOF
Ms type: MS2
Ion mode: NEGATIVE
Collision energy: 30-50
Precursor m/z: 842.5916581
Precursor type: [M+CH3COOH-H]-
m/z	relative intensity
113.0983	12
121.093	12
121.0962	12
121.1008	12
121.1101	12
167.1079	12
168.0467	12
175.14	12
175.1419	25
175.1438	19
175.1456	37
175.1475	43
175.1494	19
175.1512	37
175.1531	37
175.155	12
175.1568	12
175.1606	12
175.1624	12
203.1775	12
203.1815	12
205.125	12
219.1154	12
219.1238	12
219.1259	19
219.128	37
219.1301	31
219.1322	43
219.1342	56
219.1363	104
219.1384	62
219.1405	129
219.1426	68
219.1447	31
219.1468	37
219.1489	37
219.151	31
219.153	25
219.1551	12
219.1572	12
224.0638	12
257.2103	19
257.2126	31
257.2149	37
257.2171	25
257.2194	50
257.2216	56
257.2239	68
257.2262	74
257.2285	68
257.2307	68
257.233	37
257.2352	56
257.2375	12
257.2397	25
257.2466	12
275.2385	19
275.2408	12
275.2455	25
275.2596	12
281.2471	12
301.1931	12
301.1955	43
301.198	12
301.2029	62
301.2053	68
301.2078	80
301.2102	68
301.2126	98
301.2151	111
301.2176	173
301.22	154
301.2225	104
301.2249	117
301.2274	98
301.2298	62
301.2323	50
301.2347	25
301.2445	13
305.247	12
305.2495	12
305.252	19
305.2667	13
311.6552	13
318.228	13
318.4697	13
319.2003	19
319.2029	63
319.2054	13
319.2079	134
319.2104	110
319.213	136
319.2155	135
319.218	187
319.2205	212
319.223	277
319.2255	252
319.2281	322
319.2306	353
319.2331	307
319.2356	179
319.2382	199
319.2407	77
319.2432	77
319.2457	64
319.2482	52
319.2508	45
319.2533	7
319.2558	7
319.2583	13
319.276	7
319.286	7
320.217	7
320.2297	13
320.2398	19
320.4216	7
327.2287	19
327.2338	19
327.2415	19
377.2297	19
377.2325	12
377.238	12
377.2407	19
377.2517	19
377.2571	19
377.2599	12
377.2626	19
377.2654	12
395.236	12
448.3014	12
448.3044	19
448.3074	19
448.3104	31
448.3134	31
448.3163	19
448.3193	37
448.3223	50
448.3253	37
448.3283	12
448.3313	12
448.3343	19
448.3402	12
448.3462	19
448.3492	12
464.8526	13
466.2896	12
466.2987	25
466.3048	37
466.3078	93
466.3109	31
466.3139	80
466.317	131
466.32	150
466.3231	130
466.3261	130
466.3292	118
466.3322	174
466.3352	75
466.3383	118
466.3413	68
466.3444	62
466.3474	56
466.3505	62
466.3535	37
466.3566	19
466.3596	31
466.3688	19
467.3321	12
697.4508	19
697.4545	12
697.462	25
697.4732	19
697.4769	19
697.4807	19
697.4844	12
697.4881	12
697.4918	25
697.4955	25
697.4993	31
697.503	19
723.4825	12
723.4863	12
723.4976	12
723.5052	19
723.509	19
724.4847	19
766.1244	12
768.4655	13
768.4733	13
768.485	13
768.489	27
768.4929	7
768.4968	46
768.5007	34
768.5046	33
768.5085	133
768.5125	119
768.5164	191
768.5203	344
768.5242	333
768.5281	410
768.532	413
768.5359	661
768.5398	695
768.5437	805
768.5477	939
768.5516	745
768.5555	999
768.5594	986
768.5633	965
768.5672	942
768.5711	889
768.575	864
768.5789	737
768.5828	687
768.5867	596
768.5906	446
768.5945	320
768.5985	228
768.6024	134
768.6063	177
768.6102	89
768.6141	147
768.618	37
768.6219	67
768.6259	51
768.6298	15
768.6337	15
768.6376	12
768.6415	28
768.6533	7
769.3419	8
769.5063	12
769.5219	12
769.5337	12
769.5376	12
769.5454	19
769.5532	19
769.5571	19
769.5611	25
769.565	19
769.5689	31
769.5728	37
769.5767	19
769.5806	25
769.5845	12
769.5884	19
769.5924	12
769.6002	12
782.5675	12
782.6188	12
783.5072	12
783.5112	12
783.5151	12
783.5269	12
783.5388	12
783.5665	12
842.4678	12
842.5169	12
842.5251	12
842.5292	19
842.5333	19
842.5374	19
842.5415	12
842.5497	25
842.5538	19
842.5579	19
842.562	12
842.566	37
842.5702	56
842.5743	43
842.5784	43
842.5825	56
842.5865	98
842.5906	62
842.5947	74
842.5988	56
842.6029	62
842.607	98
842.6111	80
842.6152	43
842.6193	62
842.6234	62
842.6275	31
842.6316	19
842.6357	25
842.6398	25
842.6439	19
842.6479	12
842.6562	25
842.6603	19
843.5083	12
843.5124	12
843.5206	12
843.537	12
843.5411	19
843.5493	12
843.5534	19
843.5616	12
843.5698	19
