Mass spectrum: PG 42:11; LC-ESI-QTOF; MS2
Name: PG 42:11
Class: PG
Formula: C48H73O10P
Exact mass: 841.0780000000001
SMILES: CC\C=C/C\C=C/C\C=C/C\C=C/C\C=C/CCCC(=O)OCC(COP(O)(=O)OCC(O)CO)OC(=O)CC\C=C/C\C=C/C\C=C/C\C=C/C\C=C/C\C=C/CC
InChI: InChI=1S/C48H73O10P/c1-3-5-7-9-11-13-15-17-19-21-22-24-26-28-30-32-34-36-38-40-48(52)58-46(44-57-59(53,54)56-42-45(50)41-49)43-55-47(51)39-37-35-33-31-29-27-25-23-20-18-16-14-12-10-8-6-4-2/h5-8,11-14,17-20,22,24-25,27-28,30-31,33-34,36,45-46,49-50H,3-4,9-10,15-16,21,23,26,29,32,35,37-44H2,1-2H3,(H,53,54)/b7-5-,8-6-,13-11-,14-12-,19-17-,20-18-,24-22-,27-25-,30-28-,33-31-,36-34-
Instrument: AB Sciex TripleTOF 5600+ system (Q-TOF) equipped with a DuoSpray ion source
Instrument type: LC-ESI-QTOF
Ms type: MS2
Ion mode: NEGATIVE
Collision energy: 45V
Column name: Acquity UPLC Peptide BEH C18 column (50*2.1 mm; 1.7 um; 130A)(Waters Co.,Milford, MA, USA)
Retention time: 7.664656
Precursor type: [M-H]-
Precursor m/z: 839.4861
m/z	relative intensity
93.072	1
100.934	1
107.088	1
121.103	2
133.101	2
135.12	2
140.011	1
147.114	1
152.994	13
161.134	2
163.078	1
163.15	1
167.107	1
171.112	1
175.108	1
175.149	2
177.165	6
189.164	1
191.182	3
193.119	1
196.038	1
203.18	15
215.186	1
217.123	1
217.192	1
221.08	1
223.167	3
223.176	2
227.034	1
229.195	27
241.16	1
245.154	1
249.185	6
255.208	1
257.226	87
271.193	1
281.222	1
281.251	1
282.361	1
283.201	1
283.242	147
284.268	5
295.222	1
300.277	2
301.216	551
302.216	1
309.218	2
315.183	1
326.178	1
327.231	390
328.237	1
329.244	1
330.213	1
339.198	1
353.18	2
354.182	2
355.185	1
357.208	5
358.215	4
371.185	3
372.187	1
373.192	1
375.22	1
405.278	2
437.209	3
447.314	1
455.213	1
463.222	6
464.314	3
465.32	2
466.327	6
467.338	5
480.3	1
481.231	2
481.301	1
495.368	0
511.241	4
529.193	0
529.255	11
529.288	1
537.242	1
537.257	5
537.28	2
555.254	3
555.269	8
555.29	2
671.417	1
672.427	0
680.496	1
698.497	1
734.441	1
757.503	2
767.479	0
779.483	0
793.502	2
803.468	1
803.518	2
821.516	19
836.795	1
836.832	2
836.87	2
838.537	1
839.484	999
839.62	2
840.482	3
840.535	1
840.732	0
