Mass spectrum: PC(16:0e/14,15-EET); LC-ESI-QTOF; MS2
Name: PC(16:0e/14,15-EET)
Class: Oxidized Phospholipid
Formula: C44H82NO8P
Exact mass: 784.115
SMILES: CCCCCCCCCCCCCCCCOCC(COP([O-])(=O)OCC[N+](C)(C)C)OC(=O)CCC\C=C/C\C=C/C\C=C/CC1OC1CCCCC
InChI: InChI=1S/C44H82NO8P/c1-6-8-10-11-12-13-14-15-16-19-22-25-28-32-37-49-39-41(40-51-54(47,48)50-38-36-45(3,4)5)52-44(46)35-31-27-24-21-18-17-20-23-26-30-34-43-42(53-43)33-29-9-7-2/h17,20-21,24,26,30,41-43H,6-16,18-19,22-23,25,27-29,31-40H2,1-5H3/b20-17-,24-21-,30-26-
Instrument: Acquity UPLC Peptide BEH C18 column (50 x 2.1 mm; 1.7 um), Sciex TripleTOF5600
Instrument type: LC-ESI-QTOF
Ms type: MS2
Ion mode: NEGATIVE
Collision energy: 30-50
Precursor m/z: 842.5916581
Precursor type: [M+CH3COOH-H]-
m/z	relative intensity
99.08566	12
113.095	12
113.0981	12
113.0995	12
113.1011	19
113.1071	12
121.1068	12
121.1083	12
121.1099	12
129.0943	12
168.0409	12
175.1416	19
175.1434	25
175.1472	56
175.149	19
175.1509	56
175.1528	25
175.1546	19
175.1565	25
193.1299	12
203.1751	12
203.1771	12
203.1812	12
203.1872	12
203.1892	12
205.1125	12
207.1382	12
207.1443	12
219.1275	37
219.1296	19
219.1317	50
219.1338	62
219.1359	68
219.138	43
219.1401	81
219.1422	62
219.1443	87
219.1463	43
219.1484	25
219.1505	19
219.1547	19
219.1568	25
221.1561	12
245.1973	12
257.2098	12
257.2144	31
257.2166	25
257.2189	43
257.2211	12
257.2234	25
257.2256	87
257.2279	99
257.2302	68
257.2325	68
257.2347	81
257.237	31
257.2415	19
257.2438	19
257.2483	25
257.2574	12
275.2192	12
275.2332	19
275.2356	25
275.2403	19
275.2426	31
275.252	19
281.2465	12
281.2513	12
281.2583	12
301.1949	12
301.1974	25
301.1998	25
301.2047	50
301.2072	99
301.2096	112
301.2121	68
301.2145	136
301.2169	99
301.2194	167
301.2219	81
301.2243	50
301.2267	56
301.2292	56
301.2317	19
301.2341	19
301.2365	19
301.239	12
301.2439	12
309.0173	13
317.2113	13
318.2224	13
318.2299	13
318.235	13
318.2601	13
319.1997	19
319.2022	32
319.2047	32
319.2072	64
319.2098	58
319.2123	85
319.2148	169
319.2173	209
319.2198	248
319.2224	412
319.2249	301
319.2274	372
319.2299	419
319.2325	282
319.235	302
319.2375	268
319.24	203
319.2426	190
319.2451	72
319.2476	79
319.2501	46
319.2526	19
319.2552	13
319.2577	26
319.2602	7
319.2753	7
319.2804	7
319.694	7
319.8933	7
320.2467	12
320.2492	12
323.0023	7
377.2262	19
377.2345	19
377.24	12
377.2454	19
377.2482	43
377.2509	19
377.2564	19
377.2591	12
377.2619	19
378.2409	12
448.3005	19
448.3035	19
448.3065	31
448.3095	31
448.3125	43
448.3155	37
448.3184	37
448.3214	31
448.3244	43
448.3274	25
448.3304	43
448.3334	37
448.3364	12
448.3394	25
448.3423	50
449.3318	13
455.0595	13
464.8699	13
466.2916	13
466.2947	12
466.2977	13
466.3008	63
466.3038	32
466.3069	63
466.3099	82
466.313	151
466.316	94
466.3191	195
466.3221	127
466.3252	145
466.3282	203
466.3312	172
466.3343	147
466.3373	178
466.3404	115
466.3434	89
466.3465	158
466.3495	62
466.3526	50
466.3556	25
466.3587	32
466.3617	25
466.3739	12
467.3312	19
467.3495	7
697.468	12
698.4745	12
760.5211	19
760.5249	12
760.5405	12
760.556	12
760.5599	19
760.5638	12
760.5716	12
760.5755	12
766.1228	12
766.158	19
766.1736	12
768.4796	26
768.4952	28
768.4991	47
768.5031	62
768.507	119
768.5109	145
768.5148	209
768.5187	245
768.5226	363
768.5265	426
768.5304	475
768.5343	596
768.5383	705
768.5422	790
768.5461	802
768.55	781
768.5539	948
768.5578	999
768.5617	994
768.5656	862
768.5695	959
768.5734	834
768.5773	803
768.5813	614
768.5852	555
768.5891	624
768.593	392
768.5969	292
768.6008	187
768.6047	201
768.6086	83
768.6125	99
768.6165	38
768.6204	52
768.6243	7
768.6282	50
768.6321	22
768.636	15
768.64	13
768.6439	12
769.5086	19
769.5203	21
769.536	12
769.5399	12
769.5438	12
769.5477	12
769.5556	25
769.5595	25
769.5634	25
769.5673	19
769.5751	12
769.583	25
769.5908	12
769.5947	19
769.6104	12
783.4661	12
783.4937	19
783.5095	12
783.5253	31
783.5372	12
783.549	19
842.4661	12
842.4865	12
842.4906	19
842.4947	12
842.5029	19
842.5111	31
842.5152	56
842.5193	50
842.5234	81
842.5275	43
842.5316	63
842.5356	56
842.5397	31
842.5439	25
842.548	75
842.5521	106
842.5562	125
842.5602	31
842.5643	106
842.5684	31
842.5725	88
842.5766	69
842.5807	94
842.5848	50
842.5889	43
842.593	62
842.5971	99
842.6012	62
842.6053	56
842.6094	93
842.6135	74
842.6176	43
842.6217	43
842.6258	43
842.6299	19
842.634	62
842.6422	12
842.6462	12
842.6586	19
843.5886	12
