Mass spectrum: PE(16:0/17,18-EpETE); LC-ESI-QTOF; MS2
Name: PE(16:0/17,18-EpETE)
Class: Oxidized Phospholipid
Formula: C41H72NO9P
Exact mass: 754.001
SMILES: CCCCCCCCCCCCCCCC(=O)OCC(COP(O)(=O)OCCN)OC(=O)CCC\C=C/C\C=C/C\C=C/C\C=C/CC1OC1CC
InChI: InChI=1S/C41H72NO9P/c1-3-5-6-7-8-9-10-12-16-19-22-25-28-31-40(43)47-35-37(36-49-52(45,46)48-34-33-42)50-41(44)32-29-26-23-20-17-14-11-13-15-18-21-24-27-30-39-38(4-2)51-39/h11,14-15,18,20,23-24,27,37-39H,3-10,12-13,16-17,19,21-22,25-26,28-36,42H2,1-2H3,(H,45,46)/b14-11-,18-15-,23-20-,27-24-
Instrument: Acquity UPLC Peptide BEH C18 column (50 x 2.1 mm; 1.7 um), Sciex TripleTOF5600
Instrument type: LC-ESI-QTOF
Ms type: MS2
Ion mode: NEGATIVE
Collision energy: 30-50
Precursor m/z: 752.4871934
Precursor type: [M-H]-
m/z	relative intensity
71.05021	23
71.05497	23
78.95597	23
78.95973	35
107.0892	23
122.0011	23
133.0956	23
140.0068	35
140.0101	23
140.0118	47
140.0135	47
140.0151	23
140.0168	23
140.0201	35
141.0237	23
147.1202	23
149.1294	23
149.1346	23
152.9896	23
161.1264	23
161.1336	35
179.1394	23
181.1201	23
185.1759	23
196.0308	69
196.0327	58
196.0387	47
196.0406	23
196.0466	23
196.0604	35
201.1587	23
201.1627	35
201.1667	23
201.1687	35
207.138	23
207.14	23
215.1686	23
215.1727	58
215.1748	23
215.1769	69
215.1789	58
215.181	81
215.1831	81
215.1851	69
215.1872	47
215.1913	23
215.21	23
245.1441	23
245.1463	23
253.2132	23
254.4338	23
254.4383	23
255.1951	47
255.1973	23
255.2018	97
255.2041	73
255.2063	49
255.2086	144
255.2108	216
255.2131	134
255.2154	207
255.2176	319
255.2199	317
255.2221	514
255.2244	519
255.2266	506
255.2289	630
255.2311	670
255.2334	999
255.2356	765
255.2379	754
255.2401	592
255.2424	358
255.2447	296
255.2469	99
255.2492	87
255.2514	110
255.2537	62
255.2559	49
255.2582	38
255.2604	38
255.2627	13
255.3551	13
255.6032	13
255.9665	13
256.2217	23
256.2352	23
256.2397	23
259.1571	35
259.1616	58
259.1639	58
259.1662	58
259.1684	35
259.1707	47
259.173	116
259.1752	23
259.1775	23
259.1798	69
259.1821	35
259.1843	23
259.1866	23
261.1848	23
261.1894	23
261.194	23
273.2003	23
273.2096	47
273.2143	23
273.2166	35
273.2213	81
273.2236	35
273.2259	23
273.2282	35
273.2306	47
273.2329	23
273.2399	35
299.1803	23
299.1827	23
299.1852	35
299.1876	81
299.1901	35
299.1925	58
299.1949	139
299.1974	128
299.1998	128
299.2023	163
299.2047	69
299.2072	105
299.2096	58
299.212	116
299.2145	58
299.2194	23
299.2242	35
299.2438	23
315.1938	24
316.2318	24
316.2368	24
317.0402	24
317.1859	23
317.1884	47
317.191	35
317.1935	107
317.196	108
317.1985	216
317.201	264
317.2036	360
317.2061	384
317.2086	505
317.2111	421
317.2136	337
317.2161	409
317.2186	531
317.2211	302
317.2236	145
317.2262	229
317.2287	145
317.2312	60
317.2337	48
317.2362	60
317.2387	13
317.2412	13
317.2437	13
317.2462	13
317.7466	13
317.8698	13
318.1894	23
318.207	23
318.2171	23
434.2604	35
434.2633	23
434.2662	23
434.2692	23
434.2721	35
434.2751	23
434.2868	35
434.2898	23
452.2314	23
452.2553	58
452.2583	69
452.2614	116
452.2643	35
452.2673	174
452.2704	93
452.2733	139
452.2763	69
452.2794	163
452.2823	139
452.2853	128
452.2884	139
452.2914	128
452.2943	35
452.2974	58
452.3033	23
452.3094	35
453.2911	23
453.2941	23
496.2383	23
496.2414	35
514.239	23
514.2549	23
514.2581	23
752.4062	24
752.4139	23
752.4255	58
752.4333	35
752.4372	83
752.441	147
752.4449	147
752.4488	196
752.4526	213
752.4565	237
752.4604	276
752.4643	337
752.4681	302
752.472	601
752.4759	565
752.4797	803
752.4836	669
752.4875	959
752.4913	644
752.4952	858
752.4991	615
752.503	895
752.5068	642
752.5107	488
752.5146	314
752.5184	361
752.5223	353
752.5262	89
752.5301	139
752.5339	76
752.5378	100
752.5417	25
752.5455	62
752.5494	91
752.5533	38
752.5572	51
752.561	23
752.5649	23
752.6268	13
753.4206	23
753.4593	23
753.498	47
753.5058	23
753.5096	35
753.5135	23
