Mass spectrum: PC 42:2; LC-ESI-QTOF; MS2
Name: PC 42:2
Class: PC
Formula: C50H96NO8P
Exact mass: 870.2929999999999
SMILES: CCCCCCCCCC\C=C/CCCCCCCCCCCC(=O)OC(COC(=O)CCCCCCC\C=C/CCCCCCCC)COP([O-])(=O)OCC[N+](C)(C)C
InChI: InChI=1S/C50H96NO8P/c1-6-8-10-12-14-16-18-20-22-23-24-25-26-27-29-31-33-35-37-39-41-43-50(53)59-48(47-58-60(54,55)57-45-44-51(3,4)5)46-56-49(52)42-40-38-36-34-32-30-28-21-19-17-15-13-11-9-7-2/h21,23-24,28,48H,6-20,22,25-27,29-47H2,1-5H3/b24-23-,28-21-
Instrument: AB Sciex TripleTOF 5600+ system (Q-TOF) equipped with a DuoSpray ion source
Instrument type: LC-ESI-QTOF
Ms type: MS2
Ion mode: NEGATIVE
Collision energy: 45V
Column name: Acquity UPLC Peptide BEH C18 column (50*2.1 mm; 1.7 um; 130A)(Waters Co.,Milford, MA, USA)
Retention time: 13.08623
Precursor type: [M+CH3COOH-H]-
Precursor m/z: 928.6982
m/z	relative intensity
111.011	7
116.926	20
116.971	73
117.018	7
117.056	5
208.485	4
224.073	6
253.219	17
255.23	5
279.227	7
280.368	9
281.248	517
283.252	7
307.27	4
309.276	4
337.304	12
339.335	8
363.304	9
363.323	20
365.336	217
365.356	43
365.385	4
366.374	3
369.33	3
383.353	4
393.364	3
464.843	4
474.139	3
488.328	3
506.321	10
511.007	3
572.404	14
590.416	34
590.45	7
618.456	3
644.602	3
646.61	3
648.599	10
648.626	26
648.654	6
650.629	4
664.615	18
666.626	4
676.661	3
718.645	8
790.669	7
810.658	17
810.695	26
812.65	11
812.7	17
846.694	7
851.984	6
854.618	69
854.66	999
855.661	6
868.618	26
868.647	45
868.669	14
868.701	7
869.567	6
928.598	6
928.643	25
928.673	57
928.699	67
928.718	20
928.741	26
