Mass spectrum: PE(18:1/8,9-EpETE); LC-ESI-QTOF; MS2
Name: PE(18:1/8,9-EpETE)
Class: Oxidized Phospholipid
Formula: C43H74NO9P
Exact mass: 780.039
SMILES: CCCCCCCC\C=C/CCCCCCCC(=O)OCC(COP(O)(=O)OCCN)OC(=O)CCC\C=C/CC1OC1C\C=C/C\C=C/C\C=C/CC
InChI: InChI=1S/C43H74NO9P/c1-3-5-7-9-11-13-14-15-16-17-18-20-22-24-29-33-42(45)49-37-39(38-51-54(47,48)50-36-35-44)52-43(46)34-30-26-25-28-32-41-40(53-41)31-27-23-21-19-12-10-8-6-4-2/h6,8,12,15-16,19,23,25,27-28,39-41H,3-5,7,9-11,13-14,17-18,20-22,24,26,29-38,44H2,1-2H3,(H,47,48)/b8-6-,16-15-,19-12-,27-23-,28-25-
Instrument: Acquity UPLC Peptide BEH C18 column (50 x 2.1 mm; 1.7 um), Sciex TripleTOF5600
Instrument type: LC-ESI-QTOF
Ms type: MS2
Ion mode: NEGATIVE
Collision energy: 30-50
Precursor m/z: 778.5028435
Precursor type: [M-H]-
m/z	relative intensity
78.95629	6
78.95754	9
78.9588	6
78.96005	13
78.9613	13
78.96256	4
78.96506	4
78.96632	4
78.96757	9
78.96883	6
95.05063	4
95.05201	4
95.08502	4
95.0864	4
96.95846	4
96.95984	6
96.96123	4
96.96262	4
96.9654	4
96.96818	6
96.97235	4
96.97513	4
107.0883	4
109.0656	6
109.1039	4
111.0833	4
111.0848	4
121.0638	11
121.0654	9
121.0669	4
121.0685	11
121.0964	4
121.0995	9
121.1011	4
121.1026	6
121.1042	4
121.1057	4
121.1088	6
121.994	4
121.9955	4
122.0017	6
122.0033	4
122.0064	4
123.0732	4
123.0779	17
123.0795	17
123.081	20
123.0826	21
123.0842	11
123.0857	13
123.0873	11
123.0889	6
123.0904	4
127.0685	9
127.0701	13
127.0717	15
127.0732	13
127.0748	34
127.0764	34
127.078	26
127.0796	26
127.0812	6
127.0828	9
127.0844	6
127.086	6
127.0876	4
127.0892	6
127.0908	4
135.1127	6
139.0692	4
139.0709	4
139.0742	4
139.0759	17
139.0775	4
139.0792	9
139.0809	4
139.0859	4
140.0009	4
140.0026	6
140.0043	15
140.0059	13
140.0076	23
140.0093	30
140.0109	26
140.0126	28
140.0143	9
140.0159	17
140.0176	9
140.0193	6
140.0243	6
147.1108	4
149.0975	4
149.1199	4
149.1251	6
149.1268	20
149.1286	15
149.1303	32
149.132	21
149.1337	23
149.1355	13
149.1372	17
149.1389	13
149.1406	4
149.1441	6
149.1458	4
155.0585	4
155.0621	9
155.0638	4
155.0656	15
155.0673	20
155.0691	32
155.0708	32
155.0726	32
155.0744	23
155.0761	28
155.0779	13
155.0796	11
155.0814	6
155.0831	6
161.1238	4
161.1256	6
161.1292	6
161.131	13
161.1328	15
161.1346	6
161.1364	17
161.1382	6
161.1399	6
161.1435	6
161.1489	6
163.1396	6
163.1432	4
163.1468	6
163.154	4
165.128	4
167.0592	6
167.061	11
167.0628	15
167.0647	15
167.0665	28
167.0683	34
167.0701	21
167.0719	41
167.0738	32
167.0756	39
167.0774	11
167.0792	13
167.0811	6
167.0829	6
167.0847	9
168.0399	4
168.071	4
168.0747	4
168.082	4
169.0804	6
169.086	6
173.1409	4
175.1425	4
177.1218	4
177.1237	13
177.1255	4
177.1274	9
177.1293	11
177.1349	4
177.1368	4
177.1387	4
177.1405	6
179.1481	4
181.0871	4
183.0959	4
183.0978	4
189.1283	6
189.1321	4
189.138	4
190.125	6
190.1289	4
190.1308	13
190.1328	9
190.1347	6
190.1367	15
190.1386	17
190.1406	15
190.1425	9
191.14	4
193.1506	4
193.1663	6
196.0261	11
196.0281	9
196.0301	23
196.0321	23
196.034	37
196.036	34
196.038	32
196.04	39
196.0419	28
196.0439	21
196.0459	13
196.0499	9
196.0558	6
201.158	9
201.16	11
201.162	15
201.164	17
201.166	9
201.17	15
201.172	13
201.1741	4
205.1581	4
214.0312	4
214.0477	4
214.0559	4
217.1865	6
217.1969	4
217.2032	6
219.1706	13
219.1727	6
219.1748	9
219.179	6
219.1811	4
219.1831	11
221.1553	4
227.1823	4
227.1844	4
227.1865	4
227.1887	4
227.1972	4
227.1993	6
227.2057	6
229.1943	4
240.9948	4
255.1902	6
255.1947	4
255.1969	20
255.1992	52
255.2014	26
255.2037	47
255.2059	63
255.2082	39
255.2104	69
255.2127	64
255.215	80
255.2172	66
255.2195	41
255.2217	47
255.224	13
255.2262	23
255.2285	11
255.2307	9
255.233	4
255.2375	11
255.2397	6
255.242	4
271.2142	4
271.2189	4
271.2282	4
271.2398	4
273.1743	4
273.193	4
273.1976	4
273.2046	9
273.2069	4
273.2093	17
273.2116	11
273.2139	23
273.2163	21
273.2186	28
273.2209	17
273.2233	20
273.2256	15
273.2279	30
273.2303	9
273.2326	13
273.2349	4
273.2373	6
278.1218	4
280.3593	4
280.3641	6
280.3664	4
280.3688	9
280.3806	6
280.3877	4
280.4539	7
280.9124	4
280.981	4
281.1868	6
281.2105	4
281.2129	4
281.2176	4
281.22	15
281.2223	13
281.2247	23
281.2271	50
281.2294	64
281.2318	88
281.2342	149
281.2365	254
281.2389	341
281.2413	455
281.2436	496
281.246	624
281.2484	667
281.2507	620
281.2531	553
281.2555	558
281.2578	403
281.2602	340
281.2626	195
281.2649	131
281.2673	93
281.2697	39
281.272	63
281.2744	37
281.2768	18
281.2791	4
281.2862	7
281.3383	3
281.7715	3
282.2431	4
282.2455	4
282.2502	9
282.2526	4
282.2549	11
282.2597	6
282.2668	4
284.9852	4
288.1979	4
289.2096	6
289.212	4
289.2168	4
289.2192	4
289.224	4
289.2264	4
289.2288	4
299.1801	4
299.1826	6
299.185	9
299.1874	11
299.1899	39
299.1923	34
299.1948	41
299.1972	28
299.1996	69
299.2021	58
299.2045	60
299.207	23
299.2094	32
299.2119	28
299.2143	26
299.2167	17
299.2192	11
299.2216	9
299.2241	9
299.2314	4
300.2109	4
300.2256	4
316.2191	4
316.2242	4
316.2267	4
316.2292	4
317.1482	4
317.1758	4
317.1833	11
317.1859	11
317.1884	15
317.1909	46
317.1934	49
317.1959	89
317.1984	130
317.2009	190
317.2035	226
317.206	319
317.2085	307
317.211	348
317.2135	319
317.216	321
317.2185	254
317.221	247
317.2236	173
317.2261	130
317.2286	90
317.2311	65
317.2336	47
317.2361	29
317.2386	23
317.2411	9
317.2437	20
317.2462	12
317.2487	4
317.2512	4
317.2537	6
318.2195	4
318.2245	4
440.2207	4
444.3453	4
460.2548	4
460.2639	6
460.2669	9
460.2699	4
460.2729	9
460.276	15
460.279	13
460.282	9
460.285	11
460.2881	28
460.2911	20
460.2941	17
460.2971	20
460.3002	17
460.3032	6
460.3062	15
460.3093	9
460.3123	4
460.3153	6
460.3214	4
478.2444	4
478.2505	4
478.2567	9
478.2598	11
478.2628	11
478.2659	20
478.269	20
478.2721	30
478.2752	47
478.2783	75
478.2814	69
478.2845	80
478.2875	69
478.2906	95
478.2937	114
478.2968	107
478.2999	131
478.3029	106
478.3061	118
478.3091	86
478.3122	66
478.3153	63
478.3184	23
478.3215	20
478.3246	30
478.3276	9
478.3307	6
478.3338	15
478.3462	4
494.33	4
496.2204	4
496.2267	4
496.233	6
496.2361	13
496.2393	9
496.2424	9
496.2455	4
496.2487	6
496.2518	11
496.255	9
496.2613	17
496.2644	4
496.2675	4
496.2707	4
506.4435	4
514.2337	4
514.2369	6
514.2433	6
514.2465	4
514.2497	9
514.2529	13
514.2593	11
514.2625	6
514.2657	4
514.2689	11
514.2721	6
514.2753	4
628.5374	4
693.485	6
693.4924	9
693.4961	6
693.5184	4
702.3153	4
703.5273	4
704.497	4
704.5045	4
704.5307	4
704.5344	13
704.5382	4
704.5419	13
704.5457	4
704.5494	9
704.5532	4
704.5569	9
704.5644	9
704.5682	15
704.5794	4
704.5869	4
704.5906	6
718.5807	4
776.0223	9
776.0302	4
776.0341	4
776.0459	4
776.0498	4
776.0538	4
776.0577	6
776.0695	6
776.0734	6
776.0773	9
776.0813	6
776.0891	6
776.0931	6
776.1088	4
776.1363	4
777.1154	4
778.41	9
778.4178	6
778.4218	4
778.4257	6
778.4297	9
778.4336	17
778.4376	4
778.4415	6
778.4454	23
778.4493	28
778.4533	37
778.4572	63
778.4612	61
778.4651	130
778.4691	166
778.473	245
778.4769	243
778.4808	345
778.4848	484
778.4888	619
778.4927	628
778.4966	739
778.5005	771
778.5045	865
778.5084	968
778.5124	830
778.5163	999
778.5202	978
778.5242	976
778.5281	871
778.532	825
778.5359	788
778.5399	566
778.5438	520
778.5478	419
778.5517	342
778.5557	258
778.5596	235
778.5635	174
778.5674	126
778.5714	60
778.5754	53
778.5793	45
778.5832	40
778.5872	18
778.5911	10
778.595	21
778.599	5
778.6029	15
778.6108	4
778.6187	9
779.1779	4
779.3511	3
779.4536	4
779.4654	6
779.4693	6
779.4733	6
779.4772	4
779.4811	11
779.485	6
779.489	17
779.4929	9
779.4969	9
779.5008	11
779.5048	9
779.5087	21
779.5126	17
779.5166	13
779.5205	21
779.5245	17
779.5284	13
779.5323	20
779.5363	21
779.5402	9
779.5442	9
779.5481	9
779.5521	6
779.5836	4
779.6702	4
779.8121	4
