Mass spectrum: PC(16:1e/19,20-EpDPE); LC-ESI-QTOF; MS2
Name: PC(16:1e/19,20-EpDPE)
Class: Oxidized Phospholipid
Formula: C46H80NO8P
Exact mass: 806.121
SMILES: CCCCCCCCCCCCCC\C=C/OCC(COP([O-])(=O)OCC[N+](C)(C)C)OC(=O)CC\C=C/C\C=C/C\C=C/C\C=C/C\C=C/CC1OC1CC
InChI: InChI=1S/C46H80NO8P/c1-6-8-9-10-11-12-13-14-20-23-26-29-32-35-39-51-41-43(42-53-56(49,50)52-40-38-47(3,4)5)54-46(48)37-34-31-28-25-22-19-17-15-16-18-21-24-27-30-33-36-45-44(7-2)55-45/h15-16,19,21-22,24,28,30-31,33,35,39,43-45H,6-14,17-18,20,23,25-27,29,32,34,36-38,40-42H2,1-5H3/b16-15-,22-19-,24-21-,31-28-,33-30-,39-35-
Instrument: Acquity UPLC Peptide BEH C18 column (50 x 2.1 mm; 1.7 um), Sciex TripleTOF5600
Instrument type: LC-ESI-QTOF
Ms type: MS2
Ion mode: NEGATIVE
Collision energy: 30-50
Precursor m/z: 864.576008
Precursor type: [M+CH3COOH-H]-
m/z	relative intensity
78.9604	82
173.1378	57
239.229	57
241.0021	57
241.0109	57
241.1905	82
241.1927	82
241.1971	57
241.1993	82
241.2081	57
262.0182	57
281.2184	82
281.2279	57
281.2303	57
281.2326	57
281.235	82
281.2373	82
281.2397	82
281.2421	57
281.2468	57
281.2516	57
281.2539	57
282.2439	57
282.2581	82
282.2747	57
285.1837	57
285.1885	82
299.2176	82
299.2298	82
299.2322	57
299.2371	115
299.2396	82
299.242	57
299.2493	82
299.2567	57
305.2469	57
325.2103	57
325.218	57
325.2231	57
325.2281	57
343.2055	82
343.2081	57
343.2108	115
343.2133	82
343.216	57
343.2186	197
343.2212	197
343.2238	254
343.2264	197
343.229	254
343.2317	278
343.2343	254
343.2369	115
343.2395	254
343.2421	164
343.2447	82
343.2473	82
343.2526	82
403.294	57
446.2759	57
446.2908	57
446.2968	82
446.2997	139
446.3057	82
446.3176	57
464.2968	57
464.2998	139
464.3029	82
464.309	82
464.312	139
464.315	139
464.3211	57
464.3242	197
464.3272	82
464.3333	115
464.3363	139
507.8461	57
779.5262	57
782.5112	57
790.4806	82
790.4846	82
790.4885	115
790.4925	115
790.4965	164
790.5004	221
790.5044	197
790.5084	164
790.5123	418
790.5163	336
790.5203	614
790.5242	614
790.5282	778
790.5322	860
790.5361	639
790.5401	917
790.5441	917
790.548	721
790.552	999
790.556	917
790.5599	999
790.5639	639
790.5679	614
790.5718	696
790.5758	500
790.5798	418
790.5837	139
790.5877	254
790.5917	278
790.5956	164
790.5996	82
790.6036	57
790.6075	139
790.6115	57
790.6155	82
790.6274	57
791.5362	57
791.5521	57
791.5679	57
791.5798	57
796.5339	82
805.487	57
807.5346	57
847.4626	57
864.4451	57
864.4742	57
864.4825	57
864.4866	57
864.4908	82
864.5074	57
864.5157	57
864.5198	57
864.524	57
864.5281	57
864.5323	164
864.5364	57
864.5447	164
864.5489	139
864.553	197
864.5572	57
864.5613	139
864.5654	57
864.5696	164
864.5737	475
864.5779	336
864.582	197
864.5862	164
864.5903	254
864.5945	221
864.5986	254
864.6028	254
864.6069	278
864.6194	115
865.4535	57
865.5075	57
865.5366	57
865.5573	57
865.5698	82
