Mass spectrum: PE 36:2; LC-ESI-QTOF; MS2
Name: PE 36:2
Class: PE
Formula: C41H78NO8P
Exact mass: 744.0499999999998
SMILES: CCCCCCCCCCCCCCCCCC(=O)OCC(COP(O)(=O)OCCN)OC(=O)CCCCCCC\C=C/C\C=C/CCCCC
InChI: InChI=1S/C41H78NO8P/c1-3-5-7-9-11-13-15-17-19-21-23-25-27-29-31-33-40(43)47-37-39(38-49-51(45,46)48-36-35-42)50-41(44)34-32-30-28-26-24-22-20-18-16-14-12-10-8-6-4-2/h12,14,18,20,39H,3-11,13,15-17,19,21-38,42H2,1-2H3,(H,45,46)/b14-12-,20-18-
Instrument: AB Sciex TripleTOF 5600+ system (Q-TOF) equipped with a DuoSpray ion source
Instrument type: LC-ESI-QTOF
Ms type: MS2
Ion mode: NEGATIVE
Collision energy: 45V
Column name: Acquity UPLC Peptide BEH C18 column (50*2.1 mm; 1.7 um; 130A)(Waters Co.,Milford, MA, USA)
Retention time: 10.40782
Precursor type: [M-H]-
Precursor m/z: 742.5366
m/z	relative intensity
78.959	2
122.0	1
140.011	9
196.037	16
214.05	2
255.231	0
261.218	1
261.228	0
278.346	1
278.366	4
279.232	999
280.236	1
281.253	3
282.378	2
282.559	0
282.759	0
283.263	354
307.264	1
458.267	4
462.279	1
462.299	10
462.339	1
476.281	3
479.362	0
480.309	43
558.881	0
740.213	1
741.337	0
741.774	0
742.534	327
742.685	0
743.552	0
