Mass spectrum: PG 38:6; LC-ESI-QTOF; MS2
Name: PG 38:6
Class: PG
Formula: C44H75O10P
Exact mass: 795.05
SMILES: CCCCC\C=C/C\C=C/CCCCCCCC(=O)OCC(COP(O)(=O)OCC(O)CO)OC(=O)CCCCCC\C=C/C\C=C/C\C=C/C\C=C/CC
InChI: InChI=1S/C44H75O10P/c1-3-5-7-9-11-13-15-17-19-20-22-24-26-28-30-32-34-36-44(48)54-42(40-53-55(49,50)52-38-41(46)37-45)39-51-43(47)35-33-31-29-27-25-23-21-18-16-14-12-10-8-6-4-2/h5,7,11-14,17-19,21-22,24,41-42,45-46H,3-4,6,8-10,15-16,20,23,25-40H2,1-2H3,(H,49,50)/b7-5-,13-11-,14-12-,19-17-,21-18-,24-22-
Instrument: AB Sciex TripleTOF 5600+ system (Q-TOF) equipped with a DuoSpray ion source
Instrument type: LC-ESI-QTOF
Ms type: MS2
Ion mode: NEGATIVE
Collision energy: 45V
Column name: Acquity UPLC Peptide BEH C18 column (50*2.1 mm; 1.7 um; 130A)(Waters Co.,Milford, MA, USA)
Retention time: 7.931372
Precursor type: [M-H]-
Precursor m/z: 793.5013
m/z	relative intensity
152.997	9
205.195	14
259.241	58
279.231	847
299.39	2
300.267	2
300.778	2
301.216	5
302.982	2
303.231	706
433.24	3
439.221	8
446.563	2
489.254	8
507.268	16
513.261	9
531.265	6
551.77	3
711.519	5
775.504	4
793.374	2
793.495	999
793.615	4
