Mass spectrum: PC(16:1/5,6-EET); LC-ESI-QTOF; MS2
Name: PC(16:1/5,6-EET)
Class: Oxidized Phospholipid
Formula: C44H78NO9P
Exact mass: 796.082
SMILES: CCCCCC\C=C/CCCCCCCC(=O)OCC(COP([O-])(=O)OCC[N+](C)(C)C)OC(=O)CCCC1OC1C\C=C/C\C=C/C\C=C/CCCCC
InChI: InChI=1S/C44H78NO9P/c1-6-8-10-12-14-16-18-20-22-24-26-28-30-34-43(46)50-38-40(39-52-55(48,49)51-37-36-45(3,4)5)53-44(47)35-31-33-42-41(54-42)32-29-27-25-23-21-19-17-15-13-11-9-7-2/h15-18,21,23,27,29,40-42H,6-14,19-20,22,24-26,28,30-39H2,1-5H3/b17-15-,18-16-,23-21-,29-27-
Instrument: Acquity UPLC Peptide BEH C18 column (50 x 2.1 mm; 1.7 um), Sciex TripleTOF5600
Instrument type: LC-ESI-QTOF
Ms type: MS2
Ion mode: NEGATIVE
Collision energy: 30-50
Precursor m/z: 854.5552726
Precursor type: [M+CH3COOH-H]-
m/z	relative intensity
191.1814	223
253.2042	109
253.2065	168
253.2087	223
253.211	223
253.2132	109
253.2155	608
253.2177	385
253.2199	168
253.2222	331
253.2244	168
253.2267	331
253.2289	331
253.2334	109
253.2401	109
279.2198	109
293.2118	109
293.2166	168
301.2194	109
319.2149	109
319.2174	109
319.2225	168
319.225	109
319.2275	223
319.2326	168
319.2376	109
319.2401	109
319.2477	109
460.2914	109
478.2817	109
478.2909	109
478.294	109
478.3156	109
526.2798	109
767.5242	109
780.4781	168
780.482	168
780.486	168
780.4899	168
780.4938	168
780.4978	445
780.5017	445
780.5057	168
780.5096	554
780.5135	500
780.5175	939
780.5214	331
780.5254	999
780.5293	776
780.5333	608
780.5372	445
780.5411	500
780.5451	662
780.549	331
780.553	331
780.5569	331
780.5609	109
780.5648	223
780.5766	109
854.4742	109
854.5114	109
854.532	223
854.5526	168
854.5568	109
854.5609	109
854.5856	223
854.6145	109
855.4686	109
855.4892	109
855.4933	109
855.4974	277
855.5016	109
855.5057	223
855.5181	109
855.5222	223
855.5263	223
855.5305	109
855.5345	223
855.5511	109
