Mass spectrum: PC(16:1/8-HETE); LC-ESI-QTOF; MS2
Name: PC(16:1/8-HETE)
Class: Oxidized Phospholipid
Formula: C44H78NO9P
Exact mass: 796.082
SMILES: CCCCCC\C=C/CCCCCCCC(=O)OCC(COP([O-])(=O)OCC[N+](C)(C)C)OC(=O)CCC\C=C/CC(O)\C=C/C=C\C\C=C/CCCCC
InChI: InChI=1S/C44H78NO9P/c1-6-8-10-12-14-16-18-19-20-22-24-26-31-35-43(47)51-39-42(40-53-55(49,50)52-38-37-45(3,4)5)54-44(48)36-32-28-27-30-34-41(46)33-29-25-23-21-17-15-13-11-9-7-2/h15-18,23,25,27,29-30,33,41-42,46H,6-14,19-22,24,26,28,31-32,34-40H2,1-5H3/b17-15-,18-16-,25-23-,30-27-,33-29-
Instrument: Acquity UPLC Peptide BEH C18 column (50 x 2.1 mm; 1.7 um), Sciex TripleTOF5600
Instrument type: LC-ESI-QTOF
Ms type: MS2
Ion mode: NEGATIVE
Collision energy: 30-50
Precursor m/z: 854.5552726
Precursor type: [M+CH3COOH-H]-
m/z	relative intensity
78.96608	16
127.0714	16
127.0809	24
137.1355	16
155.0564	16
155.0635	64
155.067	32
155.0687	55
155.0705	40
155.0723	55
155.074	40
155.0793	16
155.0828	16
163.1429	16
163.1447	16
163.1465	24
163.1483	16
163.1501	32
163.1519	16
163.1537	16
163.1591	16
168.0378	16
168.0414	32
203.1839	24
203.1879	16
203.19	16
224.0643	24
224.0664	32
224.0727	16
224.079	16
224.0938	16
231.2105	16
245.2558	16
252.4204	16
252.4316	16
253.1854	16
253.1988	16
253.2011	80
253.2033	56
253.2056	82
253.2078	145
253.2101	186
253.2123	220
253.2146	195
253.2168	252
253.219	342
253.2213	276
253.2235	234
253.2258	130
253.228	138
253.2303	138
253.2325	65
253.2348	57
253.237	16
253.2392	9
253.2415	9
253.2437	9
254.2237	16
255.228	16
255.2325	16
257.211	32
257.2155	16
257.2178	24
257.2201	47
257.2223	79
257.2246	64
257.2268	71
257.2291	64
257.2314	103
257.2336	40
257.2359	64
257.2382	32
257.2404	24
257.245	16
275.2369	16
275.2486	24
301.1989	16
301.2014	16
301.2038	32
301.2063	55
301.2087	32
301.2112	103
301.2136	71
301.2161	111
301.2185	111
301.2209	71
301.2234	79
301.2259	40
301.2283	40
301.2307	32
301.2332	47
301.2356	24
301.2381	24
301.2405	24
302.2234	24
317.2155	16
318.2266	16
319.1964	16
319.2014	24
319.2064	32
319.209	71
319.2115	48
319.214	72
319.2165	121
319.219	169
319.2216	217
319.2241	225
319.2266	185
319.2291	266
319.2316	113
319.2342	218
319.2367	144
319.2392	48
319.2417	47
319.2442	96
319.2468	88
319.2493	33
319.2518	24
319.2543	16
319.2568	16
333.2399	16
389.2129	16
460.2602	16
460.2723	16
478.2653	16
478.2684	16
478.2715	16
478.2746	32
478.2776	40
478.2807	55
478.2838	32
478.2869	55
478.29	47
478.2931	79
478.2962	24
478.2992	24
478.3023	47
478.3054	64
478.3085	16
478.3116	24
478.3147	32
478.3177	47
478.3208	24
478.3239	16
478.3363	16
526.2822	16
544.3047	16
544.308	24
544.3212	16
709.4221	16
709.4333	24
709.4371	16
709.4521	16
709.4559	32
709.4596	16
709.4672	16
709.4709	16
709.4747	32
709.5047	16
778.0903	24
779.5355	17
780.4457	24
780.4496	40
780.4655	60
780.4694	17
780.4733	60
780.4772	93
780.4812	61
780.4852	149
780.4891	230
780.493	300
780.4969	526
780.5009	503
780.5048	534
780.5088	619
780.5128	690
780.5167	612
780.5206	911
780.5245	780
780.5285	814
780.5325	989
780.5364	999
780.5403	677
780.5443	930
780.5482	601
780.5522	518
780.5561	581
780.5601	335
780.564	301
780.5679	182
780.5719	147
780.5758	100
780.5798	74
780.5837	126
780.5876	19
780.5916	54
780.5995	18
780.6034	33
780.6152	9
781.4788	9
781.5064	16
781.5104	16
781.5143	24
781.5261	16
781.5301	24
781.5341	24
781.5419	16
781.5458	16
781.5498	16
781.5538	40
781.5616	16
781.5656	24
794.5335	16
795.4485	16
795.4684	24
795.4803	24
795.4963	16
795.5082	16
854.4653	16
854.4735	16
854.4818	24
854.49	16
854.4941	24
854.4982	32
854.5024	16
854.5065	16
854.5106	16
854.5189	16
854.523	55
854.5271	40
854.5313	24
854.5353	95
854.5395	32
854.5436	95
854.5477	79
854.5519	71
854.556	24
854.5601	71
854.5643	32
854.5684	79
854.5725	79
854.5766	40
854.5807	47
854.5848	55
854.589	47
854.5931	40
854.5972	55
854.6014	55
854.6055	24
854.6096	32
854.6137	24
854.6385	16
