Mass spectrum: PC 35:1; LC-ESI-QTOF; MS2
Name: PC 35:1
Class: PC
Formula: C43H84NO8P
Exact mass: 774.1199999999999
SMILES: CCCCCCCCCCCCCCCCC(=O)OCC(COP([O-])(=O)OCC[N+](C)(C)C)OC(=O)CCCCCCC\C=C/CCCCCCCC
InChI: InChI=1S/C43H84NO8P/c1-6-8-10-12-14-16-18-20-22-24-26-28-30-32-34-36-43(46)52-41(40-51-53(47,48)50-38-37-44(3,4)5)39-49-42(45)35-33-31-29-27-25-23-21-19-17-15-13-11-9-7-2/h20,22,41H,6-19,21,23-40H2,1-5H3/b22-20-
Instrument: AB Sciex TripleTOF 5600+ system (Q-TOF) equipped with a DuoSpray ion source
Instrument type: LC-ESI-QTOF
Ms type: MS2
Ion mode: NEGATIVE
Collision energy: 45V
Column name: Acquity UPLC Peptide BEH C18 column (50*2.1 mm; 1.7 um; 130A)(Waters Co.,Milford, MA, USA)
Retention time: 10.41512
Precursor type: [M+CH3COOH-H]-
Precursor m/z: 832.6037
m/z	relative intensity
255.227	89
255.238	36
255.244	29
267.236	53
269.248	182
280.362	20
281.248	533
283.268	47
295.26	145
295.274	42
303.232	23
309.284	29
331.265	71
458.251	11
462.294	11
480.303	17
494.32	47
508.329	13
750.505	37
750.538	102
750.585	47
758.492	48
758.527	104
758.537	304
758.558	999
758.585	219
758.593	139
758.612	66
772.547	29
772.638	14
832.51	37
832.557	11
832.565	42
832.576	29
832.586	29
832.627	72
