Mass spectrum: PC 36:6; LC-ESI-QTOF; MS2
Name: PC 36:6
Class: PC
Formula: C44H76NO8P
Exact mass: 778.0669999999998
SMILES: CCCCCCCCCCCCCC(=O)OCC(COP([O-])(=O)OCC[N+](C)(C)C)OC(=O)CC\C=C/C\C=C/C\C=C/C\C=C/C\C=C/C\C=C/CC
InChI: InChI=1S/C44H76NO8P/c1-6-8-10-12-14-16-18-19-20-21-22-23-24-25-27-29-31-33-35-37-44(47)53-42(41-52-54(48,49)51-39-38-45(3,4)5)40-50-43(46)36-34-32-30-28-26-17-15-13-11-9-7-2/h8,10,14,16,19-20,22-23,25,27,31,33,42H,6-7,9,11-13,15,17-18,21,24,26,28-30,32,34-41H2,1-5H3/b10-8-,16-14-,20-19-,23-22-,27-25-,33-31-
Instrument: AB Sciex TripleTOF 5600+ system (Q-TOF) equipped with a DuoSpray ion source
Instrument type: LC-ESI-QTOF
Ms type: MS2
Ion mode: NEGATIVE
Collision energy: 45V
Column name: Acquity UPLC Peptide BEH C18 column (50*2.1 mm; 1.7 um; 130A)(Waters Co.,Milford, MA, USA)
Retention time: 8.602148
Precursor type: [M+CH3COOH-H]-
Precursor m/z: 836.5413
m/z	relative intensity
78.959	4
121.1	2
152.997	2
168.043	17
175.149	2
177.162	5
191.183	5
224.067	27
226.512	5
227.201	323
229.185	6
229.195	19
241.01	8
242.082	2
249.187	6
253.217	5
254.223	5
255.23	11
281.251	7
282.248	5
283.243	170
283.264	18
284.261	6
309.223	3
327.23	556
363.189	4
378.23	2
419.265	4
420.249	6
434.264	24
452.259	32
452.277	88
452.303	8
480.273	1
481.359	1
534.281	4
534.312	2
552.314	7
553.282	3
579.292	1
580.249	1
580.302	2
581.299	0
582.306	5
691.417	2
717.44	1
749.504	2
760.092	8
762.427	4
762.504	999
762.626	2
763.51	4
777.411	3
777.45	5
777.49	6
836.444	2
836.488	21
836.509	43
836.542	183
836.588	10
836.619	2
