Mass spectrum: PS 40:7; LC-ESI-QTOF; MS2
Name: PS 40:7
Class: PS
Formula: C46H76NO10P
Exact mass: 834.087
SMILES: CCCCCCCC\C=C/CCCCCCCC(=O)OCC(COP(O)(=O)OCC(N)C(O)=O)OC(=O)CC\C=C/C\C=C/C\C=C/C\C=C/C\C=C/C\C=C/CC
InChI: InChI=1S/C46H76NO10P/c1-3-5-7-9-11-13-15-17-19-20-21-22-24-26-28-30-32-34-36-38-45(49)57-42(40-55-58(52,53)56-41-43(47)46(50)51)39-54-44(48)37-35-33-31-29-27-25-23-18-16-14-12-10-8-6-4-2/h5,7,11,13,17-19,21-23,26,28,32,34,42-43H,3-4,6,8-10,12,14-16,20,24-25,27,29-31,33,35-41,47H2,1-2H3,(H,50,51)(H,52,53)/b7-5-,13-11-,19-17-,22-21-,23-18-,28-26-,34-32-
Instrument: AB Sciex TripleTOF 5600+ system (Q-TOF) equipped with a DuoSpray ion source
Instrument type: LC-ESI-QTOF
Ms type: MS2
Ion mode: NEGATIVE
Collision energy: 45V
Column name: Acquity UPLC Peptide BEH C18 column (50*2.1 mm; 1.7 um; 130A)(Waters Co.,Milford, MA, USA)
Retention time: 8.345592
Precursor type: [M-H]-
Precursor m/z: 832.5125
m/z	relative intensity
78.957	26
96.968	11
152.994	179
171.003	4
185.921	4
211.77	4
229.195	9
249.181	4
253.101	4
255.231	4
280.373	14
281.249	999
283.232	21
283.246	43
326.211	5
327.214	21
327.233	144
417.24	577
435.249	251
445.273	5
456.524	5
463.221	122
481.233	23
743.131	12
745.45	159
745.459	181
745.478	735
745.502	127
745.54	19
770.499	7
772.615	18
829.846	7
832.46	94
832.509	889
832.569	34
833.5	7
