Mass spectrum: PC 38:5; LC-ESI-QTOF; MS2
Name: PC 38:5
Class: PC
Formula: C46H82NO8P
Exact mass: 808.137
SMILES: CCCCCCCCCCCCCCCC(=O)OCC(COP([O-])(=O)OCC[N+](C)(C)C)OC(=O)CCCCC\C=C/C\C=C/C\C=C/C\C=C/C\C=C/CC
InChI: InChI=1S/C46H82NO8P/c1-6-8-10-12-14-16-18-20-21-22-23-24-25-27-29-31-33-35-37-39-46(49)55-44(43-54-56(50,51)53-41-40-47(3,4)5)42-52-45(48)38-36-34-32-30-28-26-19-17-15-13-11-9-7-2/h8,10,14,16,20-21,23-24,27,29,44H,6-7,9,11-13,15,17-19,22,25-26,28,30-43H2,1-5H3/b10-8-,16-14-,21-20-,24-23-,29-27-
Instrument: AB Sciex TripleTOF 5600+ system (Q-TOF) equipped with a DuoSpray ion source
Instrument type: LC-ESI-QTOF
Ms type: MS2
Ion mode: NEGATIVE
Collision energy: 45V
Column name: Acquity UPLC Peptide BEH C18 column (50*2.1 mm; 1.7 um; 130A)(Waters Co.,Milford, MA, USA)
Retention time: 9.405846
Precursor type: [M+CH3COOH-H]-
Precursor m/z: 866.5884
m/z	relative intensity
78.956	1
152.993	1
168.043	15
224.068	14
231.212	7
242.076	2
251.199	2
254.372	1
254.44	1
255.231	318
257.231	1
259.169	1
259.24	3
281.246	24
283.244	1
285.257	42
302.274	1
303.231	69
311.225	1
311.241	2
327.233	2
328.203	1
328.228	3
329.248	768
329.319	1
330.26	1
391.223	2
409.242	1
433.23	1
462.295	13
462.313	2
480.306	64
488.313	0
495.273	0
506.325	5
536.315	8
554.319	5
554.357	1
656.734	1
721.471	1
747.48	2
747.544	0
790.066	3
791.581	1
792.552	999
793.552	2
800.483	0
807.484	2
807.516	9
807.563	1
808.512	0
866.527	1
866.589	99
