Mass spectrum: PG 42:9; LC-ESI-QTOF; MS2
Name: PG 42:9
Class: PG
Formula: C48H77O10P
Exact mass: 845.11
SMILES: CC\C=C/C\C=C/C\C=C/C\C=C/CCCCCCC(=O)OCC(COP(O)(=O)OCC(O)CO)OC(=O)CCCCC\C=C/C\C=C/C\C=C/C\C=C/C\C=C/CC
InChI: InChI=1S/C48H77O10P/c1-3-5-7-9-11-13-15-17-19-21-22-24-26-28-30-32-34-36-38-40-48(52)58-46(44-57-59(53,54)56-42-45(50)41-49)43-55-47(51)39-37-35-33-31-29-27-25-23-20-18-16-14-12-10-8-6-4-2/h5-8,11-14,17-20,22,24-25,27-28,30,45-46,49-50H,3-4,9-10,15-16,21,23,26,29,31-44H2,1-2H3,(H,53,54)/b7-5-,8-6-,13-11-,14-12-,19-17-,20-18-,24-22-,27-25-,30-28-
Instrument: AB Sciex TripleTOF 5600+ system (Q-TOF) equipped with a DuoSpray ion source
Instrument type: LC-ESI-QTOF
Ms type: MS2
Ion mode: NEGATIVE
Collision energy: 45V
Column name: Acquity UPLC Peptide BEH C18 column (50*2.1 mm; 1.7 um; 130A)(Waters Co.,Milford, MA, USA)
Retention time: 8.027235
Precursor type: [M-H]-
Precursor m/z: 843.5143
m/z	relative intensity
133.103	3
152.994	7
205.196	8
231.21	19
255.236	4
259.24	33
283.263	17
285.256	98
302.278	6
303.23	596
303.26	6
305.248	18
311.243	5
327.233	19
329.171	9
329.245	365
330.182	6
343.227	5
360.218	6
433.308	6
464.313	10
465.321	7
466.334	7
494.363	9
495.357	10
513.261	11
531.266	15
539.278	6
557.286	11
673.414	2
684.51	3
702.541	5
705.477	3
783.536	6
807.548	11
809.587	5
825.522	17
825.55	11
825.609	5
840.874	6
843.512	999
843.641	9
