Mass spectrum: PI(17:0/18-HETE); LC-ESI-QTOF; MS2
Name: PI(17:0/18-HETE)
Class: Oxidized Phospholipid
Formula: C46H81O14P
Exact mass: 889.116
SMILES: CCCCCCCCCCCCCCCCC(=O)OCC(COP(O)(=O)OC1C(O)C(O)C(O)C(O)C1O)OC(=O)CCC\C=C/C\C=C/C\C=C/C\C=C/CCC(O)CC
InChI: InChI=1S/C46H81O14P/c1-3-5-6-7-8-9-10-11-15-18-21-24-27-30-33-39(48)57-35-38(36-58-61(55,56)60-46-44(53)42(51)41(50)43(52)45(46)54)59-40(49)34-31-28-25-22-19-16-13-12-14-17-20-23-26-29-32-37(47)4-2/h13-14,16-17,22-23,25-26,37-38,41-47,50-54H,3-12,15,18-21,24,27-36H2,1-2H3,(H,55,56)/b16-13-,17-14-,25-22-,26-23-
Instrument: Acquity UPLC Peptide BEH C18 column (50 x 2.1 mm; 1.7 um), Sciex TripleTOF5600
Instrument type: LC-ESI-QTOF
Ms type: MS2
Ion mode: NEGATIVE
Collision energy: 30-50
Precursor m/z: 887.5291178
Precursor type: [M-H]-
m/z	relative intensity
152.9902	36
217.1925	36
222.9991	36
241.0033	36
241.0055	36
241.0098	72
241.012	58
241.0142	94
241.0164	36
241.0186	58
259.0224	36
261.1773	36
261.1842	36
269.2378	36
269.2401	36
269.2424	130
269.2447	109
269.247	109
269.2493	72
269.254	58
269.2563	58
269.2632	36
297.0409	36
301.204	36
301.2113	58
319.2041	58
319.2091	36
319.2117	58
319.2142	58
319.2167	109
319.2192	72
319.2217	94
319.2243	109
319.2268	145
319.2293	130
319.2318	130
319.2343	130
319.2369	130
319.2394	94
319.2444	36
319.2469	58
405.2302	36
419.2471	36
567.2659	36
567.2961	36
567.2995	36
567.3029	36
567.3062	58
567.3096	58
567.3163	58
581.3388	36
585.2918	72
585.2986	36
585.302	36
617.2719	36
723.4413	36
723.4603	36
723.4716	58
780.5409	36
887.4395	36
887.4479	36
887.4563	36
887.4605	36
887.4647	36
887.4689	145
887.4731	109
887.4774	109
887.4815	224
887.4857	224
887.4899	311
887.4941	347
887.4984	239
887.5026	427
887.5068	514
887.5109	463
887.5151	666
887.5193	608
887.5236	717
887.5278	536
887.532	883
887.5362	905
887.5404	999
887.5446	905
887.5488	977
887.553	883
887.5572	919
887.5614	832
887.5656	644
887.5698	738
887.574	702
887.5782	442
887.5824	500
887.5866	203
887.5908	145
887.595	203
887.5992	94
887.6035	58
887.6077	72
887.6118	109
887.616	130
887.6202	72
887.6287	36
887.7842	36
888.5285	72
888.5327	36
888.5369	36
888.5411	58
888.5453	36
888.5537	36
888.5579	72
