Mass spectrum: PG 44:12; LC-ESI-QTOF; MS2
Name: PG 44:12
Class: PG
Formula: C50H75O10P
Exact mass: 867.116
SMILES: CC\C=C/C\C=C/C\C=C/C\C=C/C\C=C/C\C=C/CCC(=O)OCC(COP(O)(=O)OCC(O)CO)OC(=O)CC\C=C/C\C=C/C\C=C/C\C=C/C\C=C/C\C=C/CC
InChI: InChI=1S/C50H75O10P/c1-3-5-7-9-11-13-15-17-19-21-23-25-27-29-31-33-35-37-39-41-49(53)57-45-48(46-59-61(55,56)58-44-47(52)43-51)60-50(54)42-40-38-36-34-32-30-28-26-24-22-20-18-16-14-12-10-8-6-4-2/h5-8,11-14,17-20,23-26,29-32,35-38,47-48,51-52H,3-4,9-10,15-16,21-22,27-28,33-34,39-46H2,1-2H3,(H,55,56)/b7-5-,8-6-,13-11-,14-12-,19-17-,20-18-,25-23-,26-24-,31-29-,32-30-,37-35-,38-36-
Instrument: AB Sciex TripleTOF 5600+ system (Q-TOF) equipped with a DuoSpray ion source
Instrument type: LC-ESI-QTOF
Ms type: MS2
Ion mode: NEGATIVE
Collision energy: 45V
Column name: Acquity UPLC Peptide BEH C18 column (50*2.1 mm; 1.7 um; 130A)(Waters Co.,Milford, MA, USA)
Retention time: 7.82821
Precursor type: [M-H]-
Precursor m/z: 865.5
m/z	relative intensity
78.958	1
83.049	0
93.07	1
95.085	0
97.067	0
105.071	1
107.085	1
109.102	1
117.071	1
119.084	0
121.101	2
123.117	1
127.077	0
131.085	1
133.101	2
135.117	1
137.133	1
143.084	0
147.118	1
149.06	0
149.132	1
151.148	0
152.084	0
152.995	11
153.092	0
159.116	0
161.133	1
163.075	1
163.148	2
167.106	0
169.115	0
171.004	0
171.118	0
173.133	0
175.148	2
177.09	1
177.164	9
181.122	0
187.147	0
189.164	1
191.108	0
191.179	9
193.12	0
195.139	0
201.161	0
203.105	0
203.179	3
205.12	0
207.135	0
209.022	0
209.152	0
213.161	0
215.182	0
217.122	1
217.195	1
219.138	0
221.153	0
227.03	0
227.182	0
229.195	47
231.138	0
233.151	0
241.195	2
243.14	0
245.043	1
245.156	0
249.185	10
255.211	2
257.154	1
267.211	0
271.172	0
279.212	0
281.227	1
282.349	0
282.363	1
282.998	0
283.209	0
283.242	348
284.245	0
291.212	0
295.23	0
297.22	1
299.2	0
309.218	5
315.23	0
325.216	0
326.208	3
327.095	0
327.138	0
327.191	0
327.232	999
327.379	0
328.237	1
463.221	2
474.571	0
478.491	0
481.231	5
494.941	0
508.75	0
527.983	0
537.257	12
555.27	32
560.358	0
565.583	0
569.379	0
659.047	0
787.503	0
801.496	0
847.517	0
862.726	0
862.754	1
862.775	1
862.805	0
863.164	0
864.353	0
864.541	0
864.649	0
864.763	0
865.011	0
865.086	0
865.163	0
865.304	0
865.424	0
865.497	784
865.614	0
865.965	0
866.034	0
866.496	3
866.88	0
867.486	0
