Mass spectrum: PC 36:4; LC-ESI-QTOF; MS2
Name: PC 36:4
Class: PC
Formula: C44H80NO8P
Exact mass: 782.0989999999998
SMILES: CCCCC\C=C/C\C=C/CCCCCCCC(=O)OCC(COP([O-])(=O)OCC[N+](C)(C)C)OC(=O)CCCCCCC\C=C/C\C=C/CCCCC
InChI: InChI=1S/C44H80NO8P/c1-6-8-10-12-14-16-18-20-22-24-26-28-30-32-34-36-43(46)50-40-42(41-52-54(48,49)51-39-38-45(3,4)5)53-44(47)37-35-33-31-29-27-25-23-21-19-17-15-13-11-9-7-2/h14-17,20-23,42H,6-13,18-19,24-41H2,1-5H3/b16-14-,17-15-,22-20-,23-21-
Instrument: AB Sciex TripleTOF 5600+ system (Q-TOF) equipped with a DuoSpray ion source
Instrument type: LC-ESI-QTOF
Ms type: MS2
Ion mode: NEGATIVE
Collision energy: 45V
Column name: Acquity UPLC Peptide BEH C18 column (50*2.1 mm; 1.7 um; 130A)(Waters Co.,Milford, MA, USA)
Retention time: 8.960792
Precursor type: [M+CH3COOH-H]-
Precursor m/z: 840.5739
m/z	relative intensity
168.042	5
168.056	1
224.069	5
242.077	0
253.222	1
261.221	1
277.212	2
279.193	2
279.232	999
281.245	3
283.255	0
301.214	1
302.214	2
303.226	2
305.249	6
415.22	3
417.373	0
421.899	0
424.374	0
427.453	0
430.274	0
440.008	0
441.874	0
465.472	0
478.276	0
486.296	15
502.762	0
503.975	0
504.307	56
519.274	0
555.719	3
634.374	0
695.456	1
721.482	1
764.106	2
765.521	0
766.245	0
766.534	701
767.542	2
781.48	2
781.505	2
840.57	54
