Mass spectrum: SM d36:1; LC-ESI-QTOF; MS2
Name: SM d36:1
Class: SM
Formula: C41H83N2O6P
Exact mass: 731.099
SMILES: CCCCCCCCCCCCCCCCCC(=O)NC(COP([O-])(=O)OCC[N+](C)(C)C)C(O)\C=C\CCCCCCCCCCCCC
InChI: InChI=1S/C41H83N2O6P/c1-6-8-10-12-14-16-18-20-21-23-25-27-29-31-33-35-41(45)42-39(38-49-50(46,47)48-37-36-43(3,4)5)40(44)34-32-30-28-26-24-22-19-17-15-13-11-9-7-2/h32,34,39-40,44H,6-31,33,35-38H2,1-5H3,(H-,42,45,46,47)/b34-32+
Instrument: AB Sciex TripleTOF 5600+ system (Q-TOF) equipped with a DuoSpray ion source
Instrument type: LC-ESI-QTOF
Ms type: MS2
Ion mode: NEGATIVE
Collision energy: 45V
Column name: Acquity UPLC Peptide BEH C18 column (50*2.1 mm; 1.7 um; 130A)(Waters Co.,Milford, MA, USA)
Retention time: 9.795351
Precursor type: [M+CH3COOH-H]-
Precursor m/z: 789.6096
m/z	relative intensity
78.959	17
122.984	1
152.994	1
168.042	68
281.252	1
282.253	1
283.262	6
284.266	6
400.634	0
417.252	1
418.242	1
419.244	1
420.259	3
426.442	0
437.264	0
438.276	1
449.316	3
468.774	0
644.486	2
644.524	1
670.524	1
702.509	7
702.529	3
713.332	2
714.631	1
715.51	4
715.572	999
716.572	4
730.511	1
730.533	4
743.588	2
789.526	6
789.559	8
789.601	14
789.622	10
789.665	1
