Mass spectrum: PC(16:0e/14-HDoHE); LC-ESI-QTOF; MS2
Name: PC(16:0e/14-HDoHE)
Class: Oxidized Phospholipid
Formula: C46H82NO8P
Exact mass: 808.137
SMILES: CCCCCCCCCCCCCCCCOCC(COP([O-])(=O)OCC[N+](C)(C)C)OC(=O)CC\C=C/C\C=C/C\C=C/C=C/C(O)C\C=C/C\C=C/CC
InChI: InChI=1S/C46H82NO8P/c1-6-8-10-12-14-15-16-17-18-21-24-27-31-35-40-52-42-45(43-54-56(50,51)53-41-39-47(3,4)5)55-46(49)38-34-30-26-23-20-19-22-25-29-33-37-44(48)36-32-28-13-11-9-7-2/h9,11,19-20,25-26,28-30,32-33,37,44-45,48H,6-8,10,12-18,21-24,27,31,34-36,38-43H2,1-5H3/b11-9-,20-19-,29-25-,30-26-,32-28-,37-33+
Instrument: Acquity UPLC Peptide BEH C18 column (50 x 2.1 mm; 1.7 um), Sciex TripleTOF5600
Instrument type: LC-ESI-QTOF
Ms type: MS2
Ion mode: NEGATIVE
Collision energy: 30-50
Precursor m/z: 866.5916581
Precursor type: [M+CH3COOH-H]-
m/z	relative intensity
107.0914	71
109.1012	71
161.1363	71
205.1256	71
281.2265	110
281.2336	71
317.2128	71
325.2112	110
325.2188	71
325.229	71
343.2115	110
343.2168	145
343.2194	71
343.222	71
343.2246	110
343.2272	145
343.2299	110
343.2325	110
343.2351	181
343.2377	110
343.2455	71
377.2554	71
377.2581	110
448.3324	71
466.3029	71
466.3151	110
466.3211	110
466.3272	216
466.3303	71
466.3394	110
466.3425	71
466.3486	216
721.4551	71
721.4968	71
721.512	71
738.5106	74
791.5469	74
792.496	110
792.5039	110
792.5079	145
792.5118	145
792.5158	514
792.5198	514
792.5237	110
792.5277	517
792.5317	407
792.5357	517
792.5397	815
792.5436	701
792.5476	889
792.5516	956
792.5555	478
792.5595	701
792.5635	815
792.5674	854
792.5714	857
792.5754	889
792.5794	999
792.5834	145
792.5873	407
792.5913	436
792.5953	184
792.5992	290
792.6072	110
792.6111	145
792.6231	110
806.5673	71
807.5133	71
866.4568	110
866.5315	71
866.544	71
866.5565	71
866.5648	71
866.5814	71
866.5855	71
866.5897	71
866.5938	110
866.6021	71
866.6146	71
