Mass spectrum: PS 38:5; LC-ESI-QTOF; MS2
Name: PS 38:5
Class: PS
Formula: C44H76NO10P
Exact mass: 810.0649999999998
SMILES: CCCCCCCC\C=C/CCCCCCCC(=O)OCC(COP(O)(=O)OCC(N)C(O)=O)OC(=O)CCCCCC\C=C/C\C=C/C\C=C/C\C=C/CC
InChI: InChI=1S/C44H76NO10P/c1-3-5-7-9-11-13-15-17-19-20-22-24-26-28-30-32-34-36-43(47)55-40(38-53-56(50,51)54-39-41(45)44(48)49)37-52-42(46)35-33-31-29-27-25-23-21-18-16-14-12-10-8-6-4-2/h5,7,11,13,17-19,21-22,24,40-41H,3-4,6,8-10,12,14-16,20,23,25-39,45H2,1-2H3,(H,48,49)(H,50,51)/b7-5-,13-11-,19-17-,21-18-,24-22-
Instrument: AB Sciex TripleTOF 5600+ system (Q-TOF) equipped with a DuoSpray ion source
Instrument type: LC-ESI-QTOF
Ms type: MS2
Ion mode: NEGATIVE
Collision energy: 45V
Column name: Acquity UPLC Peptide BEH C18 column (50*2.1 mm; 1.7 um; 130A)(Waters Co.,Milford, MA, USA)
Retention time: 8.38092
Precursor type: [M-H]-
Precursor m/z: 808.5045
m/z	relative intensity
152.998	337
255.231	434
264.962	37
267.201	37
269.228	37
271.22	55
279.233	192
280.238	111
281.244	999
281.256	512
283.262	131
284.273	92
303.214	129
303.233	320
303.25	113
329.245	92
345.233	113
391.229	116
409.223	74
417.223	205
417.244	473
417.267	92
419.25	111
435.237	150
435.26	204
439.212	98
457.219	61
720.463	42
721.429	170
721.471	909
721.491	473
721.516	263
726.521	37
734.515	74
745.522	42
746.474	166
746.494	150
746.516	150
790.538	148
808.457	133
808.492	662
808.519	851
808.554	380
