Mass spectrum: PI(18:0/15-HEPE); LC-ESI-QTOF; MS2
Name: PI(18:0/15-HEPE)
Class: Oxidized Phospholipid
Formula: C47H81O14P
Exact mass: 901.127
SMILES: CCCCCCCCCCCCCCCCCC(=O)OCC(COP(O)(=O)OC1C(O)C(O)C(O)C(O)C1O)OC(=O)CCC\C=C/C\C=C/C\C=C/CC(O)\C=C\C=C/CC
InChI: InChI=1S/C47H81O14P/c1-3-5-7-9-10-11-12-13-14-15-16-20-23-26-30-34-40(49)58-36-39(37-59-62(56,57)61-47-45(54)43(52)42(51)44(53)46(47)55)60-41(50)35-31-27-24-21-18-17-19-22-25-29-33-38(48)32-28-8-6-4-2/h6,8,17,19,21,24-25,28-29,32,38-39,42-48,51-55H,3-5,7,9-16,18,20,22-23,26-27,30-31,33-37H2,1-2H3,(H,56,57)/b8-6-,19-17-,24-21-,29-25-,32-28+
Instrument: Acquity UPLC Peptide BEH C18 column (50 x 2.1 mm; 1.7 um), Sciex TripleTOF5600
Instrument type: LC-ESI-QTOF
Ms type: MS2
Ion mode: NEGATIVE
Collision energy: 30-50
Precursor m/z: 899.5291178
Precursor type: [M-H]-
m/z	relative intensity
78.95688	3
78.95813	7
78.95939	4
78.96064	8
78.9619	5
78.96315	9
78.9644	4
78.96566	4
78.96691	3
78.96816	3
78.96942	2
78.97067	1
78.97443	1
96.96738	1
96.97155	2
96.97294	2
96.97432	3
97.06605	2
97.07022	2
107.0831	1
107.0845	2
121.0659	1
121.1001	4
121.1016	2
121.1032	3
121.1063	1
121.1078	1
121.1156	1
131.091	1
134.987	1
134.9902	1
137.0934	1
141.0971	1
147.1148	3
147.1165	3
147.1182	2
147.1199	1
147.125	1
149.1273	1
149.1342	1
150.9836	1
152.984	2
152.9858	2
152.9875	3
152.9892	5
152.991	8
152.9927	8
152.9945	9
152.9962	8
152.998	9
152.9997	8
153.0015	9
153.0032	4
153.005	1
153.0067	1
153.0102	1
153.0119	2
158.9591	1
163.1527	2
175.1299	1
175.1373	1
175.1392	3
175.1411	3
175.1429	4
175.1448	4
175.1467	11
175.1485	6
175.1504	8
175.1523	8
175.1541	7
175.156	6
175.1579	4
175.1597	2
175.1616	1
177.0847	1
183.1192	1
191.1092	1
195.1425	1
201.1524	1
201.1584	2
201.1604	3
201.1624	4
201.1644	2
201.1684	2
201.1704	1
201.1725	4
203.1304	1
203.1364	1
203.1384	3
203.1425	3
203.1445	1
203.1465	1
203.1485	2
203.1505	2
203.1525	2
203.1545	1
205.1221	1
209.2632	1
215.4064	1
218.4592	2
218.4634	1
218.4717	1
218.6657	1
219.1083	1
219.1208	3
219.1229	2
219.125	8
219.1271	4
219.1292	14
219.1313	14
219.1334	21
219.1354	31
219.1375	30
219.1396	31
219.1417	24
219.1438	30
219.1459	17
219.148	12
219.1501	12
219.1521	5
219.1542	4
219.1584	3
219.1605	3
219.1668	1
219.1689	1
220.1371	1
220.1413	1
220.1434	1
220.1454	1
220.1496	2
221.1431	1
221.1452	2
221.1536	2
221.1557	1
221.1578	3
221.1599	1
222.9828	1
222.9849	1
222.987	3
222.9892	5
222.9913	7
222.9934	7
222.9955	4
222.9976	16
222.9997	12
223.0018	14
223.0039	15
223.006	9
223.0081	2
223.0102	5
223.0123	6
223.0144	2
223.0166	2
223.0187	1
223.0208	1
229.122	2
239.1849	1
240.2575	3
240.2663	1
240.2969	1
240.2991	1
240.9819	1
240.9863	1
240.9885	1
240.9929	5
240.9951	6
240.9973	16
240.9995	26
241.0017	44
241.0039	56
241.006	84
241.0082	88
241.0104	112
241.0126	105
241.0148	95
241.017	83
241.0192	64
241.0214	31
241.0236	30
241.0258	15
241.028	12
241.0301	3
241.0323	1
241.0345	2
241.0367	3
241.0389	2
241.0411	1
241.0433	1
241.1024	1
241.7294	1
241.8764	1
242.0059	1
242.0213	1
247.1184	1
247.1228	3
247.1273	3
247.1295	3
247.1317	3
247.1339	6
247.1362	3
247.1384	6
247.1406	3
247.1428	2
247.145	3
247.1472	1
247.1495	1
248.1242	1
248.1264	1
248.1286	1
248.1309	4
248.1331	3
248.1353	6
248.1375	4
248.1398	9
248.142	8
248.1442	11
248.1464	8
248.1486	9
248.1509	5
248.1531	3
249.5375	1
252.5802	1
253.1928	1
255.0281	1
255.1926	2
255.1949	4
255.1971	4
255.1994	8
255.2017	17
255.2039	17
255.2062	19
255.2084	23
255.2107	23
255.2129	31
255.2152	23
255.2174	23
255.2197	19
255.222	25
255.2242	9
255.2265	4
255.2287	6
255.231	2
255.2332	2
255.2355	1
255.24	2
256.2125	1
256.2215	1
259.0093	3
259.0115	6
259.0138	7
259.0161	6
259.0184	6
259.0206	11
259.0229	9
259.0252	8
259.0274	5
259.0297	11
259.032	5
259.0343	7
259.0365	1
259.0388	1
259.0433	1
273.2025	1
273.2071	1
273.2118	3
273.2141	2
273.2165	1
273.2188	1
273.2211	1
273.2234	1
273.2258	2
273.2281	2
273.2304	1
273.2328	1
280.1304	1
282.3736	2
282.3854	1
282.3949	3
282.9453	1
283.2373	1
283.2397	3
283.242	6
283.2444	7
283.2468	12
283.2492	24
283.2516	32
283.2539	40
283.2563	62
283.2587	72
283.261	97
283.2634	94
283.2658	86
283.2682	101
283.2705	75
283.2729	57
283.2753	38
283.2777	25
283.28	15
283.2824	14
283.2848	8
283.2872	6
283.2896	3
283.2919	2
283.2943	2
283.2967	1
283.299	1
283.3014	1
283.3394	1
283.5746	1
283.6364	1
284.2569	2
284.2593	1
284.2617	1
284.2641	4
284.2664	2
284.2712	2
284.2807	1
297.0218	3
297.0242	3
297.0267	6
297.0291	5
297.0316	8
297.034	8
297.0364	11
297.0388	11
297.0413	9
297.0437	11
297.0461	8
297.0486	6
297.051	4
297.0534	4
297.0558	4
298.0489	1
299.0363	1
299.0509	3
299.0533	1
299.0558	1
299.1729	1
299.1778	1
299.1802	6
299.1826	3
299.1851	7
299.1875	7
299.19	17
299.1924	16
299.1949	21
299.1973	27
299.1997	27
299.2022	31
299.2046	30
299.2071	23
299.2095	25
299.2119	10
299.2144	11
299.2168	8
299.2193	11
299.2217	3
299.2242	3
299.2314	1
299.2339	1
299.2388	1
300.1157	1
300.1988	1
300.343	1
315.021	1
315.0235	1
315.026	1
315.031	1
315.0335	2
315.036	3
315.0385	4
315.041	4
315.0435	5
315.046	8
315.0485	9
315.051	3
315.0535	6
315.056	6
315.0585	3
315.061	1
315.2113	1
315.527	1
316.0661	1
316.2242	1
316.2367	1
316.2568	1
316.4048	1
316.9949	1
317.1733	1
317.1783	1
317.1834	2
317.1859	2
317.1884	6
317.1909	15
317.1934	17
317.196	29
317.1985	39
317.201	43
317.2035	67
317.206	93
317.2085	86
317.211	121
317.2135	99
317.216	116
317.2185	96
317.2211	65
317.2236	49
317.2261	45
317.2286	24
317.2311	15
317.2336	13
317.2361	9
317.2386	9
317.2412	2
317.2437	3
317.2462	3
317.2512	1
317.2789	1
317.2889	1
318.212	1
318.2145	1
318.222	1
318.2245	1
321.791	1
332.4527	1
357.0568	1
357.0648	1
371.0608	1
371.0717	2
371.0771	1
371.088	1
417.9423	1
417.9711	1
419.1749	1
419.1835	1
419.2153	1
419.2211	3
419.224	4
419.2298	3
419.2326	11
419.2355	10
419.2384	13
419.2413	19
419.2442	25
419.2471	28
419.25	34
419.2529	35
419.2558	38
419.2586	30
419.2615	35
419.2644	32
419.2673	28
419.2702	20
419.2731	17
419.276	15
419.2789	5
419.2818	5
419.2846	2
419.2875	4
419.2904	2
419.2962	1
419.2991	3
420.2473	1
420.2617	1
420.2675	1
437.2442	1
437.2471	2
437.2501	3
437.256	3
437.2589	2
437.2619	4
437.2648	4
437.2678	3
437.2707	3
437.2737	2
437.2766	3
437.2796	4
437.2825	3
437.2855	5
437.2943	1
441.6513	1
453.1682	1
453.1712	3
453.1772	1
453.1832	7
453.1862	7
453.1892	10
453.1922	17
453.1952	13
453.1982	18
453.2012	17
453.2043	17
453.2072	13
453.2102	24
453.2133	10
453.2162	8
453.2193	10
453.2223	11
453.2253	6
453.2283	8
453.2313	4
453.2343	3
453.2373	2
453.2403	3
453.2673	1
463.1435	1
465.1528	1
471.2221	1
471.2252	1
479.2872	2
493.279	1
501.7795	1
504.5964	1
507.3068	1
507.31	1
519.1882	1
519.8378	1
525.2564	1
525.2791	2
525.2985	1
525.3082	1
547.2052	1
579.4379	1
579.4786	1
579.4888	2
580.7122	1
581.1884	1
581.2462	3
581.2563	2
581.2632	5
581.2665	3
581.27	4
581.2734	5
581.2768	6
581.2802	8
581.2836	14
581.287	11
581.2904	23
581.2938	24
581.2972	34
581.3006	28
581.304	37
581.3074	41
581.3108	47
581.3142	32
581.3176	30
581.321	40
581.3244	38
581.3278	33
581.3312	20
581.3346	14
581.338	15
581.3414	14
581.3448	7
581.3482	5
581.3516	3
581.355	4
581.3584	1
581.3618	1
581.3652	1
581.3686	1
581.9675	1
582.2875	1
582.3011	1
582.308	1
582.325	3
582.3455	1
587.3717	1
587.3956	1
592.5706	1
597.2924	3
598.3066	1
598.6276	1
599.27	1
599.2769	4
599.2803	1
599.2838	4
599.2872	8
599.2906	6
599.2941	13
599.2975	10
599.301	8
599.3044	6
599.3079	19
599.3114	15
599.3148	16
599.3183	21
599.3217	23
599.3252	20
599.3287	19
599.3321	16
599.3356	15
599.3391	13
599.3425	12
599.3459	9
599.3494	5
599.3528	4
599.3563	4
599.3597	3
599.3632	3
599.3666	2
599.3701	2
599.3735	1
599.377	2
599.3805	1
599.3943	1
600.3204	1
613.3789	1
615.2043	1
615.2114	1
615.2148	4
615.2184	1
615.2219	6
615.2253	6
615.2289	4
615.2324	7
615.2358	12
615.2394	8
615.2429	12
615.2463	12
615.2499	26
615.2534	13
615.2568	16
615.2604	13
615.2639	14
615.2673	8
615.2709	12
615.2744	8
615.2778	12
615.2814	9
615.2849	9
615.2883	4
615.2919	3
615.2989	4
615.3024	2
615.3163	1
616.3107	1
633.246	1
633.2496	1
633.2531	3
633.2567	3
633.2603	1
633.2638	1
633.2673	2
633.2709	2
633.2744	2
633.2816	1
633.2851	2
633.2922	1
633.2957	1
633.3099	1
641.3995	1
653.3072	1
653.3288	1
653.3396	1
653.3685	1
707.3594	2
707.3669	1
707.3745	3
707.3782	1
707.382	3
707.3857	2
707.3895	1
707.4007	3
707.4045	1
707.4082	1
707.4195	1
721.3616	1
721.3843	3
721.3957	1
721.3995	1
721.4222	3
722.3776	1
722.4193	1
737.4308	1
737.4347	1
737.4462	1
737.45	2
737.4539	1
737.4577	2
737.4615	3
737.4653	1
737.4692	4
737.473	6
737.4769	1
737.4807	4
737.4845	1
737.4883	3
737.4922	3
737.496	2
737.4998	1
737.5075	3
737.5114	1
737.519	3
737.5343	1
747.3649	3
747.3688	3
747.3726	2
747.3803	2
747.3842	2
747.388	3
747.3919	3
747.3958	8
747.3996	6
747.4034	6
747.4073	5
747.4112	9
747.415	7
747.4189	6
747.4227	7
747.4266	4
747.4305	7
747.4343	3
747.4382	3
747.442	4
747.4459	2
747.4498	3
747.4536	2
747.4691	1
748.4028	1
748.4144	2
748.4376	1
748.4415	2
750.3959	1
750.4153	1
760.5178	1
761.4013	1
761.4169	1
774.4606	1
776.4173	2
787.4092	1
787.4132	2
787.4172	1
787.433	1
787.4449	2
787.4528	3
787.4647	2
801.4116	1
801.4276	1
801.4356	3
801.4396	1
801.4436	1
801.4476	4
801.4595	3
801.4675	1
801.4716	3
801.4835	3
801.4955	1
801.4995	1
802.4905	1
829.4208	1
829.429	1
829.4452	1
829.4574	1
829.4614	1
829.4655	2
829.4777	1
830.4207	1
830.4532	2
830.4573	1
830.4614	2
830.4655	1
830.4695	3
830.4736	2
830.4777	1
830.4858	3
830.494	1
881.5247	1
896.6197	1
896.6281	1
896.6366	1
896.6408	2
896.6535	1
896.6577	1
896.6619	6
896.6662	3
896.6704	3
896.6746	2
896.6788	3
896.683	5
896.6873	5
896.6915	4
896.6957	7
896.7	5
896.7042	6
896.7084	5
896.7126	6
896.7169	6
896.7211	5
896.7253	6
896.7296	4
896.7338	4
896.738	2
896.7422	4
896.7465	3
896.7507	3
896.7549	2
896.7676	4
896.7718	1
896.7803	1
896.7845	2
896.8056	1
896.8478	1
896.8521	1
898.2344	1
898.5135	1
898.5219	1
899.148	1
899.2157	1
899.2284	1
899.2834	1
899.3342	1
899.3638	1
899.368	3
899.3807	3
899.4315	2
899.4695	18
899.4738	26
899.478	41
899.4822	47
899.4865	83
899.4907	116
899.4949	158
899.4992	243
899.5034	302
899.5076	431
899.5119	663
899.5161	788
899.5203	773
899.5246	923
899.5288	822
899.533	802
899.5373	879
899.5415	999
899.5457	903
899.55	950
899.5542	836
899.5584	618
899.5627	364
899.5669	296
899.5711	181
899.5754	85
899.5796	52
899.5838	40
899.5881	24
899.5923	19
899.5965	11
899.6008	6
899.605	2
899.6092	6
899.6219	2
899.6262	2
899.6389	2
899.8251	2
899.9901	3
899.9986	2
900.0494	1
900.0706	3
900.0917	1
900.1637	2
900.1933	1
900.4389	2
900.4473	1
900.46	1
900.4643	3
900.4685	1
900.4728	5
900.477	4
900.4812	4
900.4855	5
900.4897	4
900.4939	7
900.4982	11
900.5024	15
900.5066	16
900.5109	19
900.5151	26
900.5193	29
900.5236	34
900.5278	26
900.532	31
900.5363	41
900.5405	34
900.5447	38
900.549	35
900.5532	30
900.5574	28
900.5616	28
900.5659	25
900.5701	24
900.5743	17
900.5786	13
900.5828	7
900.5871	6
900.5913	4
900.5955	7
900.5998	1
900.604	2
900.6082	1
900.6125	2
900.6167	1
900.6337	1
900.6421	1
900.6633	1
900.8538	1
900.8962	1
901.0021	1
901.1292	1
901.4214	1
901.5062	1
901.6248	1
901.7391	1
902.4511	1
902.7648	1
902.9514	1
904.0116	1
904.9155	1
905.5438	1
905.9641	1
906.1935	1
908.1781	1
908.361	1
910.067	1
913.5053	1
920.7437	1
946.5592	1
