Mass spectrum: PE(16:0e/10-HDoHE); LC-ESI-QTOF; MS2
Name: PE(16:0e/10-HDoHE)
Class: Oxidized Phospholipid
Formula: C43H76NO8P
Exact mass: 766.056
SMILES: CCCCCCCCCCCCCCCCOCC(COP(O)(=O)OCCN)OC(=O)CC\C=C/C\C=C/CC(O)\C=C\C=C/C\C=C/C\C=C/CC
InChI: InChI=1S/C43H76NO8P/c1-3-5-7-9-11-13-15-16-17-18-20-24-28-32-37-49-39-42(40-51-53(47,48)50-38-36-44)52-43(46)35-31-27-23-22-26-30-34-41(45)33-29-25-21-19-14-12-10-8-6-4-2/h6,8,12,14,21,23,25-27,29-30,33,41-42,45H,3-5,7,9-11,13,15-20,22,24,28,31-32,34-40,44H2,1-2H3,(H,47,48)/b8-6-,14-12-,25-21-,27-23-,30-26-,33-29+
Instrument: Acquity UPLC Peptide BEH C18 column (50 x 2.1 mm; 1.7 um), Sciex TripleTOF5600
Instrument type: LC-ESI-QTOF
Ms type: MS2
Ion mode: NEGATIVE
Collision energy: 30-50
Precursor m/z: 764.5235789
Precursor type: [M-H]-
m/z	relative intensity
78.95913	11
78.96164	11
78.9654	16
81.07062	11
107.0871	11
121.0702	11
121.0997	11
135.0784	11
135.1211	11
137.0931	11
137.0947	16
137.0964	27
137.098	11
137.0997	11
137.1013	11
140.0044	11
140.0094	11
140.0144	11
140.0161	11
140.0178	11
149.139	11
152.6104	11
152.6261	11
152.9958	11
153.0779	11
153.0796	11
153.0814	28
153.0831	28
153.0849	62
153.0866	90
153.0884	146
153.0901	176
153.0918	187
153.0936	192
153.0953	214
153.0971	96
153.0988	79
153.1006	79
153.1023	29
153.1041	23
153.1058	45
153.1076	6
153.1111	17
153.1128	6
153.5758	6
154.0045	6
161.1239	27
161.1257	22
161.1275	37
161.1293	27
161.1311	32
161.1329	64
161.1347	54
161.1364	32
161.1382	16
161.14	22
161.1418	16
161.1436	11
161.1454	22
163.0784	11
163.1559	11
163.1577	11
173.1354	11
180.0349	11
181.0758	37
181.0777	22
181.0796	49
181.0815	43
181.0834	91
181.0853	81
181.0872	54
181.0891	76
181.091	108
181.0929	37
181.0948	32
181.0967	22
181.0986	11
187.1581	11
189.1224	16
189.1263	22
189.1302	22
189.1612	11
189.1632	27
189.1651	11
189.169	16
189.1709	11
190.1289	22
190.1328	27
190.1347	22
190.1366	11
190.1386	27
190.1405	16
190.1425	37
190.1444	11
190.1483	11
191.1458	11
194.034	11
227.1693	11
227.1736	22
227.1757	11
227.1779	27
227.18	27
227.1821	22
227.1842	32
227.1864	11
227.1885	27
227.1949	11
239.2302	11
247.1778	11
251.9141	11
255.2394	11
267.2457	11
270.2458	11
280.7229	11
281.1959	11
281.203	27
281.2054	16
281.2077	6
281.2101	43
281.2124	33
281.2148	60
281.2172	77
281.2195	143
281.2219	192
281.2243	131
281.2267	197
281.229	126
281.2314	138
281.2337	170
281.2361	115
281.2385	44
281.2408	27
281.2432	44
281.2456	72
281.2479	33
281.2503	22
281.2527	22
281.255	11
281.2574	11
281.2598	16
299.2235	11
299.2284	16
299.2309	16
299.2333	16
299.2357	32
299.2382	27
299.2406	11
299.2455	32
299.248	11
319.224	11
319.2366	11
325.1986	32
325.2011	37
325.2037	32
325.2062	22
325.2088	70
325.2113	59
325.2139	59
325.2164	81
325.219	91
325.2215	59
325.224	43
325.2266	76
325.2291	27
325.2317	27
325.2342	22
325.2368	27
325.2393	27
325.2419	11
326.2172	16
327.2195	11
327.2348	11
328.0009	11
329.2568	11
342.1669	11
342.2139	11
342.9895	11
343.196	11
343.2012	16
343.2038	27
343.2065	38
343.2091	67
343.2117	72
343.2143	155
343.2169	83
343.2195	212
343.2221	167
343.2248	218
343.2274	301
343.23	263
343.2326	200
343.2352	191
343.2378	129
343.2404	129
343.243	73
343.2457	67
343.2483	33
343.2509	40
343.2535	23
343.2561	6
343.2587	11
343.2614	11
344.2188	11
344.2214	11
344.224	11
345.2326	6
345.2352	16
345.2379	22
345.2405	22
345.2431	32
345.251	16
377.2253	11
377.2281	11
377.2336	11
377.2363	22
377.239	22
377.2418	11
377.25	11
377.2555	11
377.2664	11
393.2368	11
420.2437	11
420.2523	11
420.2552	22
420.2581	11
420.261	11
420.2639	16
420.2668	22
420.2697	43
420.2726	32
420.2755	49
420.2784	65
420.2813	120
420.2841	108
420.287	82
420.2899	146
420.2928	93
420.2957	54
420.2986	114
420.3015	54
420.3044	92
420.3073	22
420.3102	27
420.3131	11
420.316	22
420.3217	11
436.2733	22
436.2792	11
436.2821	11
436.2851	22
436.2968	11
436.9307	11
438.2442	11
438.2589	11
438.2619	16
438.2648	6
438.2678	28
438.2708	61
438.2737	39
438.2766	61
438.2796	62
438.2826	122
438.2855	158
438.2885	164
438.2914	230
438.2944	282
438.2973	266
438.3003	266
438.3032	276
438.3062	227
438.3091	204
438.3121	255
438.3151	153
438.318	125
438.321	45
438.3239	62
438.3269	34
438.3298	17
438.3328	12
438.3357	6
438.3387	12
439.2874	11
439.3052	6
440.8355	11
440.9036	6
492.3134	11
499.5119	11
573.3801	11
690.5129	11
690.5167	11
762.1401	11
762.144	16
764.4244	11
764.4478	11
764.4673	12
764.4713	18
764.4752	37
764.4791	102
764.4829	112
764.4868	104
764.4907	230
764.4946	340
764.4985	450
764.5024	523
764.5063	561
764.5103	683
764.5142	854
764.5181	921
764.522	972
764.5259	945
764.5298	757
764.5336	999
764.5375	857
764.5414	851
764.5453	765
764.5493	618
764.5532	568
764.5571	346
764.561	316
764.5649	262
764.5688	177
764.5727	146
764.5766	58
764.5804	96
764.5844	60
764.5883	79
764.5922	33
764.5961	26
764.6	26
764.6039	14
764.6078	26
764.6195	16
764.6234	12
765.4859	11
765.4976	22
765.5171	22
765.5288	16
765.5327	16
765.5366	11
765.5405	32
765.5444	11
765.5522	16
765.5601	11
