Mass spectrum: PG 42:9; LC-ESI-QTOF; MS2
Name: PG 42:9
Class: PG
Formula: C48H77O10P
Exact mass: 845.11
SMILES: CC\C=C/C\C=C/C\C=C/C\C=C/CCCCCCC(=O)OCC(COP(O)(=O)OCC(O)CO)OC(=O)CCCCC\C=C/C\C=C/C\C=C/C\C=C/C\C=C/CC
InChI: InChI=1S/C48H77O10P/c1-3-5-7-9-11-13-15-17-19-21-22-24-26-28-30-32-34-36-38-40-48(52)58-46(44-57-59(53,54)56-42-45(50)41-49)43-55-47(51)39-37-35-33-31-29-27-25-23-20-18-16-14-12-10-8-6-4-2/h5-8,11-14,17-20,22,24-25,27-28,30,45-46,49-50H,3-4,9-10,15-16,21,23,26,29,31-44H2,1-2H3,(H,53,54)/b7-5-,8-6-,13-11-,14-12-,19-17-,20-18-,24-22-,27-25-,30-28-
Instrument: AB Sciex TripleTOF 5600+ system (Q-TOF) equipped with a DuoSpray ion source
Instrument type: LC-ESI-QTOF
Ms type: MS2
Ion mode: NEGATIVE
Collision energy: 45V
Column name: Acquity UPLC Peptide BEH C18 column (50*2.1 mm; 1.7 um; 130A)(Waters Co.,Milford, MA, USA)
Retention time: 8.075613
Precursor type: [M-H]-
Precursor m/z: 843.5217
m/z	relative intensity
152.994	28
205.198	20
217.158	22
218.157	12
231.212	35
241.009	16
241.225	12
259.247	32
267.271	13
268.274	13
283.263	28
284.264	33
285.25	78
285.265	68
303.232	854
317.215	19
318.217	16
329.247	599
343.227	16
359.218	14
360.224	28
377.215	20
403.269	12
404.261	10
439.218	21
446.301	22
447.297	17
464.316	33
465.236	19
465.308	20
513.256	19
531.268	16
539.278	20
557.291	23
643.495	6
666.509	7
684.518	19
717.472	6
738.494	9
756.474	12
769.489	6
769.569	19
783.545	9
807.536	19
809.549	16
811.487	10
825.498	22
825.575	19
843.447	66
843.508	999
843.536	662
843.565	82
843.573	40
843.618	21
844.521	16
