Mass spectrum: PI(18:0/12-HEPE); LC-ESI-QTOF; MS2
Name: PI(18:0/12-HEPE)
Class: Oxidized Phospholipid
Formula: C47H81O14P
Exact mass: 901.127
SMILES: CCCCCCCCCCCCCCCCCC(=O)OCC(COP(O)(=O)OC1C(O)C(O)C(O)C(O)C1O)OC(=O)CCC\C=C/C\C=C/C=C/C(O)C\C=C/C\C=C/CC
InChI: InChI=1S/C47H81O14P/c1-3-5-7-9-11-12-13-14-15-16-17-18-22-26-30-34-40(49)58-36-39(37-59-62(56,57)61-47-45(54)43(52)42(51)44(53)46(47)55)60-41(50)35-31-27-23-20-19-21-25-29-33-38(48)32-28-24-10-8-6-4-2/h6,8,20-21,23-25,28-29,33,38-39,42-48,51-55H,3-5,7,9-19,22,26-27,30-32,34-37H2,1-2H3,(H,56,57)/b8-6-,23-20-,25-21-,28-24-,33-29+
Instrument: Acquity UPLC Peptide BEH C18 column (50 x 2.1 mm; 1.7 um), Sciex TripleTOF5600
Instrument type: LC-ESI-QTOF
Ms type: MS2
Ion mode: NEGATIVE
Collision energy: 30-50
Precursor m/z: 899.5291178
Precursor type: [M-H]-
m/z	relative intensity
78.96055	7
78.9618	7
78.96431	7
96.9756	7
135.1147	7
152.9838	7
152.9926	13
152.9943	11
152.996	7
153.0013	7
179.0992	7
179.1011	13
179.103	20
179.1049	7
179.1068	24
179.1087	13
179.1105	27
179.1181	11
179.12	7
208.1073	11
208.1134	13
222.9889	7
222.9931	7
222.9952	13
222.9973	13
222.9994	11
223.0015	11
223.0058	11
223.0079	7
223.01	7
223.0142	7
240.9948	7
240.997	20
240.9992	34
241.0014	38
241.0036	27
241.0058	27
241.008	65
241.0101	89
241.0123	93
241.0145	80
241.0167	58
241.0189	38
241.0211	34
241.0233	27
241.0255	11
241.0277	11
241.0299	7
241.0321	13
255.1924	7
255.2014	7
255.2036	11
255.2059	11
255.2081	7
255.2104	11
255.2149	24
259.0181	7
259.0226	7
259.0249	11
259.0272	7
259.0362	7
273.2231	7
283.2465	7
283.2488	18
283.2512	7
283.2536	34
283.256	73
283.2583	58
283.2607	42
283.2631	69
283.2655	62
283.2679	55
283.2702	51
283.2726	55
283.275	34
283.2773	18
283.2797	20
283.2821	13
283.2845	7
297.0215	7
297.0361	11
297.0409	11
297.0434	7
299.1896	7
299.1921	7
299.1945	7
299.197	13
299.2043	7
299.2067	11
299.2116	7
299.2165	11
315.0406	7
315.0457	13
315.0482	18
315.0557	7
315.0607	7
317.1855	7
317.1931	7
317.1956	11
317.1981	31
317.2006	24
317.2031	51
317.2056	55
317.2081	82
317.2107	42
317.2132	80
317.2157	73
317.2182	75
317.2207	73
317.2232	42
317.2257	31
317.2282	13
317.2307	18
317.2358	11
419.2379	24
419.2408	11
419.2437	18
419.2466	18
419.2495	24
419.2524	13
419.2553	20
419.2582	27
419.261	20
419.2639	18
419.2668	20
419.2697	24
419.2755	7
419.2784	7
419.2842	7
419.287	11
437.2614	7
453.1857	11
453.1917	7
453.1947	7
453.1977	18
453.2007	7
453.2067	11
453.2127	7
453.2188	7
453.2217	11
578.5307	7
581.2659	7
581.2727	11
581.2761	7
581.2829	7
581.2863	11
581.2897	7
581.2931	11
581.2965	11
581.2999	20
581.3033	24
581.3067	11
581.3101	13
581.3135	18
581.3169	49
581.3203	20
581.3237	24
581.3271	13
581.3305	13
581.3339	7
581.3373	11
581.3408	13
581.3441	7
581.3475	7
581.351	11
581.3748	7
599.2796	7
599.2831	7
599.2969	7
599.3004	13
599.3038	11
599.3073	13
599.3107	13
599.3141	7
599.3176	13
599.321	7
599.3245	27
599.3279	27
599.3314	7
599.3349	7
599.3383	13
599.3487	11
615.2421	11
615.2526	13
615.2562	11
615.2596	7
615.2631	13
615.2667	11
615.2701	18
615.2736	11
615.2772	7
707.3999	7
708.3534	7
737.4645	7
747.3949	7
761.4238	7
761.4316	7
762.4286	7
896.682	11
896.6863	11
896.7032	7
896.7116	7
896.72	11
896.7243	7
896.7327	11
899.4093	7
899.4177	7
899.4347	11
899.4389	7
899.4431	7
899.4516	18
899.4558	27
899.4601	31
899.4643	116
899.4685	94
899.4728	115
899.477	94
899.4812	154
899.4855	133
899.4897	214
899.4939	348
899.4982	368
899.5024	511
899.5066	608
899.5109	679
899.5151	693
899.5193	771
899.5236	822
899.5278	856
899.532	882
899.5363	973
899.5405	890
899.5447	999
899.549	774
899.5532	747
899.5574	658
899.5616	626
899.5659	493
899.5701	487
899.5743	384
899.5786	243
899.5828	217
899.587	187
899.5912	142
899.5955	100
899.5997	107
899.6039	39
899.6082	42
899.6124	26
899.6166	20
899.6208	15
899.6251	12
899.6293	24
899.6335	12
899.642	7
899.6462	7
900.476	7
900.4802	7
900.4886	18
900.4929	7
900.4971	11
900.5013	7
900.5056	20
900.5098	20
900.514	13
900.5182	11
900.5225	27
900.5267	24
900.531	13
900.5352	13
900.5394	13
900.5437	42
900.5479	24
900.5522	18
900.5564	7
900.5606	13
900.5649	20
900.5691	20
900.5733	13
900.5776	7
900.5818	18
904.2694	7
