Mass spectrum: PC(14:0/14,15-EpETE); LC-ESI-QTOF; MS2
Name: PC(14:0/14,15-EpETE)
Class: Oxidized Phospholipid
Formula: C42H74NO9P
Exact mass: 768.028
SMILES: CCCCCCCCCCCCCC(=O)OCC(COP([O-])(=O)OCC[N+](C)(C)C)OC(=O)CCC\C=C/C\C=C/C\C=C/CC1OC1C\C=C/CC
InChI: InChI=1S/C42H74NO9P/c1-6-8-10-11-12-13-14-18-21-24-28-32-41(44)48-36-38(37-50-53(46,47)49-35-34-43(3,4)5)51-42(45)33-29-25-22-19-16-15-17-20-23-27-31-40-39(52-40)30-26-9-7-2/h9,15,17,19,22-23,26-27,38-40H,6-8,10-14,16,18,20-21,24-25,28-37H2,1-5H3/b17-15-,22-19-,26-9-,27-23-
Instrument: Acquity UPLC Peptide BEH C18 column (50 x 2.1 mm; 1.7 um), Sciex TripleTOF5600
Instrument type: LC-ESI-QTOF
Ms type: MS2
Ion mode: NEGATIVE
Collision energy: 30-50
Precursor m/z: 826.5239725
Precursor type: [M+CH3COOH-H]-
m/z	relative intensity
163.1492	27
168.0552	27
175.145	27
175.1524	27
191.1055	27
207.1237	27
207.1258	27
207.1278	40
207.1298	27
207.1319	54
207.1339	67
207.138	54
207.14	97
207.142	124
207.1461	67
207.1481	54
207.1603	27
219.1273	40
219.1315	27
219.1357	40
219.1378	40
219.1399	124
219.142	54
219.1441	27
219.1524	27
221.158	27
224.0653	40
224.0716	40
224.0737	27
224.0801	27
227.1829	27
227.185	27
227.1871	110
227.1893	83
227.1914	151
227.1935	342
227.1956	221
227.1978	412
227.1999	385
227.202	479
227.2041	466
227.2063	288
227.2084	385
227.2105	315
227.2127	137
227.2148	67
227.2169	110
227.219	27
227.2212	40
227.2254	54
227.2318	27
248.129	27
248.1356	67
248.1379	40
248.1401	27
248.1423	67
248.1467	40
248.149	27
255.2043	27
255.2065	54
255.2088	27
255.211	27
255.2133	27
255.2155	54
255.2178	54
255.22	40
255.2268	27
255.2291	40
255.2313	27
255.2381	27
273.2215	27
282.2555	27
299.1904	40
299.1929	67
299.1953	83
299.1978	40
299.2051	40
299.2075	67
299.21	27
299.2124	54
303.2358	27
317.1814	27
317.1914	54
317.1939	40
317.1964	67
317.1989	124
317.2014	124
317.204	164
317.2065	151
317.209	205
317.2115	248
317.214	221
317.2166	302
317.2191	191
317.2216	124
317.2241	124
317.2266	137
317.2291	83
317.2316	54
317.2341	27
317.2417	27
349.2461	27
363.2535	27
434.276	27
434.2819	27
452.2564	27
452.2624	54
452.2654	83
452.2684	67
452.2714	83
452.2744	110
452.2774	54
452.2804	110
452.2834	67
452.2864	97
452.2894	54
452.2924	40
452.2984	67
452.3014	40
452.3194	27
542.2698	27
542.3027	27
752.4011	27
752.4243	40
752.4282	54
752.432	67
752.4359	83
752.4398	151
752.4437	210
752.4475	207
752.4514	167
752.4553	253
752.4591	326
752.463	552
752.4669	568
752.4707	425
752.4746	619
752.4785	740
752.4824	727
752.4862	924
752.4901	711
752.494	716
752.4978	999
752.5017	856
752.5056	797
752.5095	627
752.5133	584
752.5172	714
752.5211	514
752.5249	242
752.5288	253
752.5327	242
752.5366	226
752.5404	170
752.5443	97
752.5482	97
752.552	54
752.5559	40
752.5598	27
752.5753	27
753.4929	27
753.5006	40
753.5123	67
753.5161	27
767.4575	27
826.463	27
826.4955	27
826.5035	27
826.5076	67
826.5117	67
826.5157	67
826.5198	83
826.5239	40
826.5279	83
826.532	83
826.536	83
826.5401	40
826.5441	124
826.5482	27
826.5522	27
826.5563	67
826.5604	40
826.5685	40
826.5725	27
826.5969	27
826.7307	27
