Mass spectrum: PC(18:0e/18-HETE); LC-ESI-QTOF; MS2
Name: PC(18:0e/18-HETE)
Class: Oxidized Phospholipid
Formula: C46H86NO8P
Exact mass: 812.169
SMILES: CCCCCCCCCCCCCCCCCCOCC(COP([O-])(=O)OCC[N+](C)(C)C)OC(=O)CCC\C=C/C\C=C/C\C=C/C\C=C/CCC(O)CC
InChI: InChI=1S/C46H86NO8P/c1-6-8-9-10-11-12-13-14-15-18-21-24-27-30-33-36-40-52-42-45(43-54-56(50,51)53-41-39-47(3,4)5)55-46(49)38-35-32-29-26-23-20-17-16-19-22-25-28-31-34-37-44(48)7-2/h17,19-20,22,26,28-29,31,44-45,48H,6-16,18,21,23-25,27,30,32-43H2,1-5H3/b20-17-,22-19-,29-26-,31-28-
Instrument: Acquity UPLC Peptide BEH C18 column (50 x 2.1 mm; 1.7 um), Sciex TripleTOF5600
Instrument type: LC-ESI-QTOF
Ms type: MS2
Ion mode: NEGATIVE
Collision energy: 30-50
Precursor m/z: 870.6229582
Precursor type: [M+CH3COOH-H]-
m/z	relative intensity
217.1799	31
217.1862	20
241.0032	20
257.2246	20
257.2359	20
261.1749	51
261.1772	41
261.1795	20
261.1818	41
261.1841	20
261.1863	41
261.1886	51
261.1909	31
261.1932	41
261.1955	20
261.1978	20
269.2376	20
275.2416	20
301.2014	20
301.2087	20
301.2112	41
301.2136	62
301.2161	93
301.2185	72
301.2209	41
301.2234	62
301.2259	20
301.2283	51
301.2332	20
317.2029	42
318.2316	42
318.2391	21
319.0023	21
319.1989	21
319.2014	21
319.2039	32
319.2064	75
319.2089	137
319.2115	106
319.214	204
319.2165	254
319.219	268
319.2215	439
319.2241	417
319.2266	546
319.2291	546
319.2316	407
319.2341	267
319.2367	310
319.2392	225
319.2417	172
319.2442	118
319.2467	65
319.2493	53
319.2518	74
319.2543	21
319.2568	21
319.2593	21
320.0717	11
321.7449	11
405.2668	20
405.2753	41
405.2781	31
405.2895	20
423.304	20
476.3416	20
476.3477	31
476.3508	31
476.3539	51
476.357	20
476.3631	41
476.3662	20
476.3693	31
476.3723	41
476.3785	20
477.1364	20
494.3167	20
494.3323	20
494.3386	62
494.3417	31
494.3449	31
494.348	83
494.3543	83
494.3574	123
494.3606	83
494.3637	103
494.3669	103
494.37	41
494.3731	72
494.3763	51
494.3794	51
494.3825	31
494.3857	31
494.3888	20
494.3951	20
494.3982	20
725.5139	20
795.5593	22
795.9374	21
796.5187	63
796.5227	95
796.5267	21
796.5307	11
796.5347	21
796.5386	102
796.5426	143
796.5466	155
796.5506	290
796.5546	292
796.5585	353
796.5626	376
796.5665	673
796.5705	592
796.5745	583
796.5785	764
796.5825	838
796.5864	999
796.5904	828
796.5944	992
796.5984	899
796.6024	783
796.6063	725
796.6104	672
796.6143	514
796.6183	552
796.6223	559
796.6263	251
796.6302	252
796.6342	308
796.6382	195
796.6422	125
796.6462	150
796.6501	89
796.6541	58
796.6581	45
796.67	22
796.678	12
796.9369	11
797.5903	51
797.5943	32
797.5983	31
797.6062	31
797.6102	41
797.6182	31
797.6262	41
811.5258	20
811.566	20
811.5941	41
870.4799	20
870.4924	20
870.4965	31
870.5048	20
870.509	31
870.5132	20
870.5173	51
870.5215	20
870.5298	41
870.534	31
870.5381	20
870.5423	31
870.5464	62
870.5507	62
870.5548	20
870.559	41
870.5631	41
870.5673	62
870.5756	41
870.5798	62
870.5839	72
870.5881	31
870.5923	72
870.5964	72
870.6006	62
870.6047	72
870.6089	20
870.6172	62
870.6214	83
870.6255	123
870.6297	72
870.6339	83
870.6381	51
870.6422	62
870.6464	72
870.6506	51
870.6547	51
870.6589	41
870.6672	20
870.6755	31
871.55	20
