Mass spectrum: PE(16:0/11,12-EpETE); LC-ESI-QTOF; MS2
Name: PE(16:0/11,12-EpETE)
Class: Oxidized Phospholipid
Formula: C41H72NO9P
Exact mass: 754.001
SMILES: CCCCCCCCCCCCCCCC(=O)OCC(COP(O)(=O)OCCN)OC(=O)CCC\C=C/C\C=C/CC1OC1C\C=C/C\C=C/CC
InChI: InChI=1S/C41H72NO9P/c1-3-5-7-9-11-12-13-14-15-16-19-23-27-31-40(43)47-35-37(36-49-52(45,46)48-34-33-42)50-41(44)32-28-24-20-17-18-22-26-30-39-38(51-39)29-25-21-10-8-6-4-2/h6,8,17,20-22,25-26,37-39H,3-5,7,9-16,18-19,23-24,27-36,42H2,1-2H3,(H,45,46)/b8-6-,20-17-,25-21-,26-22-
Instrument: Acquity UPLC Peptide BEH C18 column (50 x 2.1 mm; 1.7 um), Sciex TripleTOF5600
Instrument type: LC-ESI-QTOF
Ms type: MS2
Ion mode: NEGATIVE
Collision energy: 30-50
Precursor m/z: 752.4871934
Precursor type: [M-H]-
m/z	relative intensity
135.1194	71
140.0111	110
166.5873	71
167.0976	110
167.0994	110
167.1031	71
167.1049	216
167.1067	71
167.1086	145
167.1122	110
167.114	71
179.0991	71
179.101	71
179.1029	71
179.1048	71
179.1066	181
179.1104	71
196.0401	110
201.1601	71
201.1661	71
208.1052	71
208.1093	71
227.1994	110
255.206	71
255.2082	71
255.2105	110
255.2127	71
255.215	145
255.2172	290
255.2195	181
255.2218	110
255.224	252
255.2263	723
255.2285	542
255.2308	542
255.233	613
255.2353	723
255.2375	794
255.2398	252
255.242	432
255.2443	216
255.2466	216
255.2488	110
255.2533	71
256.2394	71
299.1948	71
299.1996	71
299.2021	110
317.1984	290
317.2009	71
317.2034	216
317.2059	216
317.2084	290
317.2109	216
317.2135	290
317.216	216
317.2185	290
317.221	216
317.2235	290
317.226	145
317.2285	110
317.231	71
434.2637	71
434.2667	71
452.2468	71
452.2558	71
452.2648	145
452.2679	71
452.2738	71
452.2768	110
452.2798	71
452.2828	181
452.2858	145
452.2918	71
678.5396	74
750.1343	71
751.7234	74
752.4122	74
752.4316	71
752.4354	74
752.4432	110
752.447	110
752.4509	326
752.4548	255
752.4587	585
752.4625	475
752.4664	659
752.4703	592
752.4741	514
752.478	475
752.4819	439
752.4857	769
752.4896	659
752.4935	999
752.4974	808
752.5012	850
752.5051	733
752.509	659
752.5128	439
752.5167	439
752.5206	365
752.5245	181
752.5283	329
752.5322	145
752.5399	252
752.5438	71
752.5554	39
753.4847	71
