Mass spectrum: PC 34:5; LC-ESI-QTOF; MS2
Name: PC 34:5
Class: PC
Formula: C42H74NO8P
Exact mass: 752.0289999999999
SMILES: CCCCCCCCCCCCCC(=O)OCC(COP([O-])(=O)OCC[N+](C)(C)C)OC(=O)CCC\C=C/C\C=C/C\C=C/C\C=C/C\C=C/CC
InChI: InChI=1S/C42H74NO8P/c1-6-8-10-12-14-16-18-19-20-21-22-23-25-27-29-31-33-35-42(45)51-40(39-50-52(46,47)49-37-36-43(3,4)5)38-48-41(44)34-32-30-28-26-24-17-15-13-11-9-7-2/h8,10,14,16,19-20,22-23,27,29,40H,6-7,9,11-13,15,17-18,21,24-26,28,30-39H2,1-5H3/b10-8-,16-14-,20-19-,23-22-,29-27-
Instrument: AB Sciex TripleTOF 5600+ system (Q-TOF) equipped with a DuoSpray ion source
Instrument type: LC-ESI-QTOF
Ms type: MS2
Ion mode: NEGATIVE
Collision energy: 45V
Column name: Acquity UPLC Peptide BEH C18 column (50*2.1 mm; 1.7 um; 130A)(Waters Co.,Milford, MA, USA)
Retention time: 8.366549
Precursor type: [M+CH3COOH-H]-
Precursor m/z: 810.5284
m/z	relative intensity
168.044	16
196.037	8
203.182	16
224.067	34
227.201	450
247.167	37
249.19	23
255.232	17
256.239	9
257.23	102
279.228	16
281.239	26
281.261	17
283.209	11
284.261	18
285.264	7
295.239	8
300.275	6
301.216	608
328.228	10
434.261	15
436.275	13
452.25	9
452.275	49
452.301	13
482.975	4
506.34	4
508.276	7
516.07	4
520.957	4
526.303	14
564.996	4
601.489	18
602.941	4
646.859	4
722.474	4
723.489	4
736.448	124
736.493	999
737.496	4
751.462	10
809.57	4
810.479	30
810.519	98
810.548	78
810.564	33
