Mass spectrum: PC(16:0e/8,9-EET); LC-ESI-QTOF; MS2
Name: PC(16:0e/8,9-EET)
Class: Oxidized Phospholipid
Formula: C44H82NO8P
Exact mass: 784.115
SMILES: CCCCCCCCCCCCCCCCOCC(COP([O-])(=O)OCC[N+](C)(C)C)OC(=O)CCC\C=C/CC1OC1C\C=C/C\C=C/CCCCC
InChI: InChI=1S/C44H82NO8P/c1-6-8-10-12-14-16-17-18-19-20-22-24-28-32-37-49-39-41(40-51-54(47,48)50-38-36-45(3,4)5)52-44(46)35-31-27-26-30-34-43-42(53-43)33-29-25-23-21-15-13-11-9-7-2/h15,21,25-26,29-30,41-43H,6-14,16-20,22-24,27-28,31-40H2,1-5H3/b21-15-,29-25-,30-26-
Instrument: Acquity UPLC Peptide BEH C18 column (50 x 2.1 mm; 1.7 um), Sciex TripleTOF5600
Instrument type: LC-ESI-QTOF
Ms type: MS2
Ion mode: NEGATIVE
Collision energy: 30-50
Precursor m/z: 842.5916581
Precursor type: [M+CH3COOH-H]-
m/z	relative intensity
78.95779	30
127.0734	30
127.0782	19
127.0798	19
155.0674	19
155.0692	19
155.0709	30
155.0727	40
155.0744	19
163.1505	19
163.1541	19
167.0593	30
167.0665	30
167.0684	19
167.072	19
167.0757	30
179.1387	19
181.091	19
241.0144	19
257.2158	69
257.2181	19
257.2203	40
257.2226	30
257.2249	30
257.2271	40
257.2317	50
257.2339	30
257.243	19
257.2452	19
275.2325	19
275.2372	30
275.2418	19
281.2576	19
301.1893	19
301.1966	19
301.1991	19
301.204	19
301.2065	40
301.2089	30
301.2113	19
301.2138	30
301.2162	50
301.2187	30
301.2211	59
301.2236	19
303.2276	19
303.2301	19
303.235	30
303.2374	30
303.2423	19
303.2473	19
318.2116	20
318.4205	20
319.1965	30
319.199	19
319.2015	52
319.204	50
319.2066	40
319.2091	90
319.2116	173
319.2141	131
319.2166	225
319.2192	307
319.2217	286
319.2242	397
319.2267	314
319.2292	335
319.2318	253
319.2343	183
319.2368	183
319.2393	121
319.2419	131
319.2444	100
319.2469	91
319.2494	40
319.252	30
319.2545	11
319.2595	19
320.2359	19
377.2339	19
377.2421	11
377.2449	19
377.2476	19
377.2503	30
377.2531	19
377.2558	30
377.2585	30
448.2971	19
448.3031	19
448.3091	19
448.3151	19
448.3181	19
448.324	19
448.327	50
448.33	30
448.333	19
448.336	40
448.339	40
466.2974	19
466.3065	50
466.3096	50
466.3126	50
466.3157	109
466.3187	50
466.3218	89
466.3248	149
466.3279	158
466.3309	179
466.334	218
466.337	119
466.3401	189
466.3431	129
466.3462	89
466.3492	30
466.3522	50
466.3553	50
466.3583	19
466.3614	30
466.3644	19
539.3056	19
682.5248	19
697.4833	19
760.5294	21
766.1312	19
766.1351	19
766.1859	30
768.4802	19
768.488	30
768.4919	30
768.4958	52
768.4998	95
768.5037	31
768.5076	75
768.5115	151
768.5154	140
768.5193	172
768.5232	257
768.5271	261
768.531	371
768.5349	597
768.5389	382
768.5428	999
768.5467	786
768.5506	833
768.5545	701
768.5584	702
768.5623	720
768.5662	623
768.5701	819
768.574	742
768.5779	610
768.5819	489
768.5858	491
768.5897	250
768.5936	316
768.5975	208
768.6014	241
768.6053	142
768.6093	76
768.6132	98
768.6171	44
768.6249	65
768.6288	44
768.6328	19
768.6406	31
769.5092	19
769.5523	19
769.5601	30
769.5836	19
769.5914	19
769.6031	19
774.5745	19
782.4679	19
782.4797	19
782.5034	19
782.535	19
783.5339	40
842.512	19
842.5201	40
842.5283	30
842.5406	19
842.5447	19
842.5488	30
842.557	40
842.5611	30
842.5652	40
842.5693	89
842.5734	99
842.5775	40
842.5816	50
842.5857	59
842.5898	89
842.5939	50
842.598	59
842.6021	30
842.6061	30
842.6103	50
842.6144	69
842.6185	59
842.6226	40
842.6266	59
842.6389	30
842.643	19
842.6472	30
842.6676	19
843.487	30
843.5034	19
843.5074	19
843.5116	19
843.5157	19
843.5198	40
843.5239	59
843.528	59
843.532	40
843.5361	30
843.5402	89
843.5444	80
843.5485	40
843.5526	80
843.5566	69
843.5607	80
843.5648	80
843.569	89
843.5731	59
843.5771	40
843.5812	19
843.5853	40
843.5935	30
843.6017	19
