Mass spectrum: PC(18:1e/12-HETE); LC-ESI-QTOF; MS2
Name: PC(18:1e/12-HETE)
Class: Oxidized Phospholipid
Formula: C46H84NO8P
Exact mass: 810.153
SMILES: CCCCCCCCCCCCCCCC\C=C/OCC(COP([O-])(=O)OCC[N+](C)(C)C)OC(=O)CCC\C=C/C\C=C/C=C/C(O)C\C=C/CCCCC
InChI: InChI=1S/C46H84NO8P/c1-6-8-10-12-14-15-16-17-18-19-20-21-24-27-31-35-40-52-42-45(43-54-56(50,51)53-41-39-47(3,4)5)55-46(49)38-34-30-26-23-22-25-29-33-37-44(48)36-32-28-13-11-9-7-2/h23,25-26,28-29,32-33,35,37,40,44-45,48H,6-22,24,27,30-31,34,36,38-39,41-43H2,1-5H3/b26-23-,29-25-,32-28-,37-33+,40-35-
Instrument: Acquity UPLC Peptide BEH C18 column (50 x 2.1 mm; 1.7 um), Sciex TripleTOF5600
Instrument type: LC-ESI-QTOF
Ms type: MS2
Ion mode: NEGATIVE
Collision energy: 30-50
Precursor m/z: 868.6073082
Precursor type: [M+CH3COOH-H]-
m/z	relative intensity
163.1055	61
163.1163	61
179.0972	39
179.0991	61
179.101	39
179.1029	100
179.1048	39
179.1066	61
179.1085	61
179.1104	81
179.1123	61
179.1161	39
208.1052	39
208.1093	39
208.1113	61
257.2229	39
257.2274	39
257.2365	39
269.259	39
277.212	39
301.2019	39
301.2044	61
301.2068	39
301.2093	120
301.2142	39
301.2166	39
301.2191	100
301.2215	100
301.224	39
301.2264	61
301.2289	39
303.2231	39
319.207	81
319.2095	81
319.212	61
319.2146	61
319.2171	100
319.2196	140
319.2221	181
319.2246	340
319.2272	161
319.2297	181
319.2322	401
319.2347	321
319.2372	120
319.2398	81
319.2423	140
319.2448	100
319.2473	39
319.2498	61
403.2589	39
421.2751	39
474.3305	39
474.3336	39
474.3367	39
474.3459	39
474.349	39
492.3212	39
492.3243	39
492.3337	61
492.3369	100
492.34	61
492.3431	39
492.3463	61
492.3525	81
492.3557	61
492.3588	39
492.3619	81
492.365	81
492.3682	39
492.3713	61
492.3744	39
723.4794	39
746.8922	41
749.5283	39
793.5441	41
794.5023	39
794.5103	61
794.5142	100
794.5182	39
794.5222	41
794.5262	224
794.5302	144
794.5341	208
794.5381	291
794.5421	352
794.546	417
794.55	588
794.554	616
794.558	403
794.562	574
794.5659	869
794.5699	830
794.5739	911
794.5779	806
794.5818	852
794.5858	808
794.5898	741
794.5938	999
794.5978	553
794.6017	529
794.6057	214
794.6097	507
794.6136	232
794.6176	169
794.6216	169
794.6256	273
794.6296	147
794.6335	128
794.6375	41
794.6415	39
794.6495	22
795.5486	39
795.5566	61
795.5605	39
795.5645	22
795.5725	61
795.5804	61
795.5884	39
808.5874	61
808.5914	39
868.5049	61
868.5257	81
868.5298	39
868.5341	39
868.5382	81
868.5424	81
868.5465	120
868.5507	81
868.5548	120
868.559	39
868.5673	81
868.5715	39
868.5839	39
868.5881	81
868.5922	81
868.5964	100
868.6006	39
868.6047	61
868.6089	100
868.613	61
868.6172	81
868.6213	81
868.6255	39
868.6297	81
868.6339	81
868.638	61
868.6505	39
869.5198	39
869.524	61
869.5323	39
869.5406	39
869.5573	39
