Mass spectrum: Cer[AP] t38:0; LC-ESI-QTOF; MS2
Name: Cer[AP] t38:0
Class: Cer_AP
Formula: C38H77NO5
Exact mass: 628.036
SMILES: CCCCCCCCCCCCCCCCCCC(O)C(=O)NC(CO)C(O)C(O)CCCCCCCCCCCCCC
InChI: InChI=1S/C38H77NO5/c1-3-5-7-9-11-13-15-17-18-19-20-22-24-26-28-30-32-36(42)38(44)39-34(33-40)37(43)35(41)31-29-27-25-23-21-16-14-12-10-8-6-4-2/h34-37,40-43H,3-33H2,1-2H3,(H,39,44)
Instrument: AB Sciex TripleTOF 5600+ system (Q-TOF) equipped with a DuoSpray ion source
Instrument type: LC-ESI-QTOF
Ms type: MS2
Ion mode: NEGATIVE
Collision energy: 45V
Column name: Acquity UPLC Peptide BEH C18 column (50*2.1 mm; 1.7 um; 130A)(Waters Co.,Milford, MA, USA)
Retention time: 10.93989
Precursor type: [M+CH3COOH-H]-
Precursor m/z: 686.5913
m/z	relative intensity
225.215	11
250.258	9
253.222	11
255.233	41
266.243	9
267.23	49
279.227	9
280.261	34
281.284	140
284.26	21
306.274	11
309.282	34
323.302	9
326.304	29
327.287	140
338.301	9
352.32	14
368.311	9
370.319	34
370.34	59
382.326	85
579.183	10
608.562	34
626.565	999
626.594	157
