Mass spectrum: SM d42:2; LC-ESI-QTOF; MS2
Name: SM d42:2
Class: SM
Formula: C47H93N2O6P
Exact mass: 813.245
SMILES: CCCCCCCCCCCCC\C=C\C(O)C(COP([O-])(=O)OCC[N+](C)(C)C)NC(=O)CCCCCCCCC\C=C/CCCCCCCCCCCC
InChI: InChI=1S/C47H93N2O6P/c1-6-8-10-12-14-16-18-20-21-22-23-24-25-26-27-29-31-33-35-37-39-41-47(51)48-45(44-55-56(52,53)54-43-42-49(3,4)5)46(50)40-38-36-34-32-30-28-19-17-15-13-11-9-7-2/h24-25,38,40,45-46,50H,6-23,26-37,39,41-44H2,1-5H3,(H-,48,51,52,53)/b25-24-,40-38+
Instrument: AB Sciex TripleTOF 5600+ system (Q-TOF) equipped with a DuoSpray ion source
Instrument type: LC-ESI-QTOF
Ms type: MS2
Ion mode: NEGATIVE
Collision energy: 45V
Column name: Acquity UPLC Peptide BEH C18 column (50*2.1 mm; 1.7 um; 130A)(Waters Co.,Milford, MA, USA)
Retention time: 12.15254
Precursor type: [M+CH3COOH-H]-
Precursor m/z: 871.6889
m/z	relative intensity
78.958	8
96.973	0
122.985	1
125.002	0
167.522	0
167.634	0
168.042	31
247.226	0
278.18	0
365.336	0
431.304	0
436.167	0
441.824	0
449.304	1
449.323	1
452.466	0
458.729	0
478.767	0
489.475	0
493.51	0
494.1	0
495.969	0
496.027	0
500.17	0
506.102	0
514.366	0
516.574	0
550.33	0
557.398	0
612.747	0
708.56	0
726.557	0
726.574	0
726.606	0
752.591	1
771.627	1
795.126	1
795.153	1
795.191	0
796.718	0
797.472	1
797.653	999
798.355	0
798.666	1
798.7	0
812.615	8
812.653	1
871.62	1
871.664	10
871.698	26
