Mass spectrum: PS 44:12; LC-ESI-QTOF; MS2
Name: PS 44:12
Class: PS
Formula: C50H74NO10P
Exact mass: 880.1149999999999
SMILES: CC\C=C/C\C=C/C\C=C/C\C=C/C\C=C/C\C=C/CCC(=O)OCC(COP(O)(=O)OCC(N)C(O)=O)OC(=O)CC\C=C/C\C=C/C\C=C/C\C=C/C\C=C/C\C=C/CC
InChI: InChI=1S/C50H74NO10P/c1-3-5-7-9-11-13-15-17-19-21-23-25-27-29-31-33-35-37-39-41-48(52)58-43-46(44-59-62(56,57)60-45-47(51)50(54)55)61-49(53)42-40-38-36-34-32-30-28-26-24-22-20-18-16-14-12-10-8-6-4-2/h5-8,11-14,17-20,23-26,29-32,35-38,46-47H,3-4,9-10,15-16,21-22,27-28,33-34,39-45,51H2,1-2H3,(H,54,55)(H,56,57)/b7-5-,8-6-,13-11-,14-12-,19-17-,20-18-,25-23-,26-24-,31-29-,32-30-,37-35-,38-36-
Instrument: AB Sciex TripleTOF 5600+ system (Q-TOF) equipped with a DuoSpray ion source
Instrument type: LC-ESI-QTOF
Ms type: MS2
Ion mode: NEGATIVE
Collision energy: 45V
Column name: Acquity UPLC Peptide BEH C18 column (50*2.1 mm; 1.7 um; 130A)(Waters Co.,Milford, MA, USA)
Retention time: 8.038691
Precursor type: [M-H]-
Precursor m/z: 878.5001
m/z	relative intensity
78.954	12
78.964	20
96.972	9
152.995	182
171.002	6
229.199	16
249.181	6
255.236	6
283.239	234
285.27	6
312.317	6
327.22	128
327.225	179
327.235	477
327.245	100
437.269	6
445.275	6
449.223	6
461.819	6
463.206	127
463.221	659
463.234	195
481.222	56
481.235	234
481.247	56
481.253	46
490.025	6
791.414	49
791.422	70
791.442	194
791.465	999
791.489	143
791.509	70
791.517	36
878.444	80
878.477	375
878.492	238
878.507	493
878.521	143
878.593	264
878.613	85
878.635	115
878.668	16
