Mass spectrum: PC(14:0/9-HODE); LC-ESI-QTOF; MS2
Name: PC(14:0/9-HODE)
Class: Oxidized Phospholipid
Formula: C40H76NO9P
Exact mass: 746.022
SMILES: CCCCCCCCCCCCCC(=O)OCC(COP([O-])(=O)OCC[N+](C)(C)C)OC(=O)CCCCCCCC(O)\C=C\C=C/CCCCC
InChI: InChI=1S/C40H76NO9P/c1-6-8-10-12-14-15-16-17-19-23-27-31-39(43)47-35-38(36-49-51(45,46)48-34-33-41(3,4)5)50-40(44)32-28-24-20-22-26-30-37(42)29-25-21-18-13-11-9-7-2/h18,21,25,29,37-38,42H,6-17,19-20,22-24,26-28,30-36H2,1-5H3/b21-18-,29-25+
Instrument: Acquity UPLC Peptide BEH C18 column (50 x 2.1 mm; 1.7 um), Sciex TripleTOF5600
Instrument type: LC-ESI-QTOF
Ms type: MS2
Ion mode: NEGATIVE
Collision energy: 30-50
Precursor m/z: 804.5396225
Precursor type: [M+CH3COOH-H]-
m/z	relative intensity
168.0397	21
168.0416	21
168.0434	33
168.047	21
171.0971	43
171.1008	97
171.1026	86
171.1063	33
171.1082	33
171.11	21
175.6506	22
224.0589	43
224.0652	21
224.0673	21
224.0694	22
224.0716	43
226.4922	22
226.5028	22
227.1744	22
227.1871	65
227.1893	98
227.1914	78
227.1935	254
227.1956	299
227.1978	397
227.1999	453
227.202	462
227.2041	442
227.2063	397
227.2084	187
227.2105	166
227.2126	56
227.2148	99
227.2169	22
227.219	33
227.2211	33
227.2254	12
230.5577	12
255.234	21
277.2015	33
277.2039	54
277.2062	64
277.2086	86
277.2109	86
277.2132	64
277.2156	118
277.2179	128
277.2203	172
277.2226	118
277.225	75
277.2273	86
277.2297	54
277.2344	33
277.2367	21
283.2766	22
294.3061	22
294.3133	21
294.3181	22
294.3206	22
294.3351	22
295.2024	12
295.2048	22
295.2072	44
295.2096	100
295.2121	89
295.2145	276
295.2169	368
295.2193	315
295.2218	473
295.2242	559
295.2266	660
295.229	605
295.2314	391
295.2339	526
295.2363	291
295.2387	289
295.2411	168
295.2436	112
295.246	135
295.2484	34
295.2509	56
295.2533	33
295.2557	12
295.2581	12
295.263	36
337.2367	21
431.2212	21
434.2591	21
434.2679	21
434.2708	21
434.2738	21
452.2574	33
452.2724	54
452.2754	97
452.2814	75
452.2844	21
452.2874	54
452.2904	33
452.2934	21
452.2964	21
502.2977	21
502.3008	43
502.3072	21
520.3011	33
520.3075	21
520.314	54
520.3172	21
520.3301	21
659.415	21
659.4222	33
659.4368	21
717.5389	21
728.2979	23
729.4712	22
730.4319	22
730.4357	43
730.4434	87
730.4548	58
730.4586	138
730.4624	137
730.4662	139
730.47	235
730.4738	207
730.4777	318
730.4814	484
730.4853	558
730.4891	686
730.4929	773
730.4967	558
730.5005	941
730.5043	916
730.5082	999
730.512	847
730.5158	688
730.5196	734
730.5234	833
730.5272	746
730.5311	473
730.5349	434
730.5387	307
730.5425	297
730.5463	119
730.5501	140
730.5539	72
730.5577	24
730.5615	83
730.5654	58
730.5692	23
730.573	23
730.5768	21
730.5806	12
731.4886	23
736.0599	12
745.4685	21
804.5074	21
804.5154	33
804.5195	21
804.5235	33
804.5275	21
804.5315	33
804.5355	33
804.5395	54
804.5435	54
804.5475	43
804.5515	43
804.5555	86
804.5595	33
804.5635	33
804.5675	75
804.5715	21
804.5795	43
804.5955	21
