Mass spectrum: PE(18:0/8,9-EpETE); LC-ESI-QTOF; MS2
Name: PE(18:0/8,9-EpETE)
Class: Oxidized Phospholipid
Formula: C43H76NO9P
Exact mass: 782.055
SMILES: CCCCCCCCCCCCCCCCCC(=O)OCC(COP(O)(=O)OCCN)OC(=O)CCC\C=C/CC1OC1C\C=C/C\C=C/C\C=C/CC
InChI: InChI=1S/C43H76NO9P/c1-3-5-7-9-11-13-14-15-16-17-18-20-22-24-29-33-42(45)49-37-39(38-51-54(47,48)50-36-35-44)52-43(46)34-30-26-25-28-32-41-40(53-41)31-27-23-21-19-12-10-8-6-4-2/h6,8,12,19,23,25,27-28,39-41H,3-5,7,9-11,13-18,20-22,24,26,29-38,44H2,1-2H3,(H,47,48)/b8-6-,19-12-,27-23-,28-25-
Instrument: Acquity UPLC Peptide BEH C18 column (50 x 2.1 mm; 1.7 um), Sciex TripleTOF5600
Instrument type: LC-ESI-QTOF
Ms type: MS2
Ion mode: NEGATIVE
Collision energy: 30-50
Precursor m/z: 780.5184935
Precursor type: [M-H]-
m/z	relative intensity
127.0736	54
140.0112	83
149.1271	54
149.1288	54
149.1323	54
155.0641	54
155.0711	54
155.0728	54
155.0764	54
161.1276	83
167.0703	83
167.0722	54
167.0758	54
189.1381	54
196.0302	54
196.0361	54
196.0401	54
196.0559	54
255.2036	54
255.2081	164
255.2103	137
255.2126	83
255.2148	164
255.2171	54
255.2193	54
255.2216	54
255.2283	83
255.2351	54
273.2137	56
273.2161	56
273.2277	54
283.2393	54
283.244	54
283.2488	220
283.2512	250
283.2535	443
283.2559	830
283.2583	666
283.2607	747
283.263	556
283.2654	639
283.2678	717
283.2701	663
283.2725	577
283.2749	247
283.2773	250
283.2796	223
283.2868	56
299.1871	54
299.192	83
299.1969	83
299.1993	54
299.2018	54
299.2042	54
299.2066	54
299.2115	83
317.1905	54
317.1955	110
317.198	137
317.2005	220
317.203	438
317.2055	384
317.2081	494
317.2106	494
317.2131	384
317.2156	465
317.2181	494
317.2206	247
317.2231	164
317.2256	137
317.2282	137
317.2307	83
317.2332	54
462.29	54
462.3143	54
480.291	110
480.2941	110
480.2972	54
480.3003	137
480.3034	137
480.3065	220
480.3096	220
480.3127	164
480.3158	247
480.322	220
480.3282	83
480.3312	110
480.3374	54
514.2451	54
514.2579	54
706.5483	54
706.582	54
706.6308	56
778.0568	56
778.0883	56
778.1158	56
780.4554	83
780.4594	137
780.4633	137
780.4673	113
780.4712	303
780.4752	166
780.4791	282
780.483	338
780.487	642
780.4909	505
780.4949	338
780.4988	422
780.5027	741
780.5067	653
780.5106	655
780.5146	792
780.5185	682
780.5225	999
780.5264	822
780.5303	768
780.5343	626
780.5382	851
780.5422	626
780.5461	454
780.55	285
780.554	282
780.5579	338
780.5619	282
780.5698	220
780.5737	252
780.5776	83
780.5816	201
780.5855	83
