Mass spectrum: PC(18:2/18-HETE); LC-ESI-QTOF; MS2
Name: PC(18:2/18-HETE)
Class: Oxidized Phospholipid
Formula: C46H80NO9P
Exact mass: 822.12
SMILES: CCCCC\C=C/C\C=C/CCCCCCCC(=O)OCC(COP([O-])(=O)OCC[N+](C)(C)C)OC(=O)CCC\C=C/C\C=C/C\C=C/C\C=C/CCC(O)CC
InChI: InChI=1S/C46H80NO9P/c1-6-8-9-10-11-12-13-14-15-19-22-25-28-31-34-37-45(49)53-41-44(42-55-57(51,52)54-40-39-47(3,4)5)56-46(50)38-35-32-29-26-23-20-17-16-18-21-24-27-30-33-36-43(48)7-2/h11-12,14-15,17-18,20-21,26-27,29-30,43-44,48H,6-10,13,16,19,22-25,28,31-42H2,1-5H3/b12-11-,15-14-,20-17-,21-18-,29-26-,30-27-
Instrument: Acquity UPLC Peptide BEH C18 column (50 x 2.1 mm; 1.7 um), Sciex TripleTOF5600
Instrument type: LC-ESI-QTOF
Ms type: MS2
Ion mode: NEGATIVE
Collision energy: 30-50
Precursor m/z: 880.5709227
Precursor type: [M+CH3COOH-H]-
m/z	relative intensity
217.1944	36
224.0768	36
257.2199	36
261.1679	72
261.177	36
261.1816	72
261.1838	90
261.1861	36
261.1907	54
261.1975	54
275.239	36
279.2164	36
279.2187	111
279.2211	129
279.2234	147
279.2258	183
279.2281	273
279.2305	313
279.2328	367
279.2352	219
279.2376	273
279.2399	313
279.2423	255
279.2447	129
279.247	111
279.2494	54
301.2011	54
301.2084	36
301.2109	111
301.2133	72
301.2158	54
301.2182	72
301.2207	72
301.228	36
301.2305	36
301.2329	72
317.2177	36
319.2036	72
319.2061	90
319.2086	165
319.2112	201
319.2137	273
319.2162	367
319.2187	478
319.2212	367
319.2238	586
319.2263	679
319.2288	568
319.2313	349
319.2338	456
319.2364	456
319.2389	313
319.2414	237
319.2439	147
319.2464	183
319.249	54
319.2515	36
319.254	36
319.2565	54
319.259	36
320.2304	36
486.3178	36
504.2914	72
504.2946	54
504.2978	36
504.301	54
504.3041	54
504.3105	129
504.3136	54
504.3168	36
504.32	36
504.3232	36
504.3263	36
504.3295	36
504.3358	36
504.3422	36
806.4599	54
806.4679	36
806.4799	129
806.4839	129
806.488	111
806.4919	467
806.496	334
806.5	392
806.504	302
806.508	374
806.512	618
806.516	636
806.52	586
806.524	924
806.528	773
806.532	999
806.536	981
806.54	967
806.5441	909
806.548	927
806.5521	719
806.5561	683
806.5601	776
806.5641	715
806.5681	586
806.5721	564
806.5761	226
806.5801	323
806.5841	302
806.5881	356
806.5922	183
806.5961	129
806.6002	147
806.6042	36
806.6122	90
807.5181	54
807.5301	36
807.5502	36
807.5662	36
807.5742	36
821.4951	54
848.4933	36
880.5107	54
880.5191	36
880.5233	54
880.5317	54
880.5359	54
880.54	111
880.5443	54
880.5484	54
880.5526	36
880.5568	36
880.561	90
880.5652	90
880.5693	72
880.5735	147
880.5778	147
880.5819	72
880.5861	54
880.5903	273
880.5945	90
880.5987	111
880.6028	111
880.6071	72
880.6112	54
880.6154	72
880.6196	54
880.6238	36
880.628	54
880.6321	36
