Mass spectrum: PI(18:1/15-HEPE); LC-ESI-QTOF; MS2
Name: PI(18:1/15-HEPE)
Class: Oxidized Phospholipid
Formula: C47H79O14P
Exact mass: 899.111
SMILES: CCCCCCCC\C=C/CCCCCCCC(=O)OCC(COP(O)(=O)OC1C(O)C(O)C(O)C(O)C1O)OC(=O)CCC\C=C/C\C=C/C\C=C/CC(O)\C=C\C=C/CC
InChI: InChI=1S/C47H79O14P/c1-3-5-7-9-10-11-12-13-14-15-16-20-23-26-30-34-40(49)58-36-39(37-59-62(56,57)61-47-45(54)43(52)42(51)44(53)46(47)55)60-41(50)35-31-27-24-21-18-17-19-22-25-29-33-38(48)32-28-8-6-4-2/h6,8,13-14,17,19,21,24-25,28-29,32,38-39,42-48,51-55H,3-5,7,9-12,15-16,18,20,22-23,26-27,30-31,33-37H2,1-2H3,(H,56,57)/b8-6-,14-13-,19-17-,24-21-,29-25-,32-28+
Instrument: Acquity UPLC Peptide BEH C18 column (50 x 2.1 mm; 1.7 um), Sciex TripleTOF5600
Instrument type: LC-ESI-QTOF
Ms type: MS2
Ion mode: NEGATIVE
Collision energy: 30-50
Precursor m/z: 897.5134677
Precursor type: [M-H]-
m/z	relative intensity
78.95551	4
78.95676	2
78.95802	2
78.95927	4
78.96052	7
78.96178	6
78.96303	5
78.96428	6
78.96554	1
78.97055	2
83.05702	1
96.96726	3
96.96864	1
96.97004	3
96.9742	1
96.97698	1
107.0859	1
107.0917	1
121.058	1
121.1015	2
121.103	2
121.1061	2
147.1095	1
147.1215	1
149.1307	1
149.1324	1
152.9856	3
152.9891	3
152.9909	4
152.9926	4
152.9944	8
152.9961	4
152.9978	6
152.9996	6
153.0013	5
153.0031	1
153.0048	3
153.0066	4
153.0083	1
163.1508	1
163.1526	2
165.0867	1
175.1409	7
175.1428	4
175.1447	7
175.1465	4
175.1484	4
175.1503	6
175.1521	5
175.154	3
175.1559	4
175.1596	1
193.1254	1
201.1323	1
201.1563	1
201.1583	3
201.1603	3
201.1623	2
201.1643	4
201.1683	2
201.1703	2
201.1723	1
201.1743	1
203.1343	2
203.1363	3
203.1383	1
203.1403	1
203.1423	3
203.1464	4
219.1228	2
219.1249	4
219.127	7
219.1291	8
219.1311	18
219.1332	17
219.1353	20
219.1374	30
219.1395	24
219.1416	16
219.1437	13
219.1458	21
219.1479	9
219.1499	9
219.152	4
219.1562	2
219.1583	1
221.1555	1
221.1597	1
222.9869	1
222.989	2
222.9911	3
222.9933	5
222.9954	3
222.9975	4
222.9996	12
223.0017	12
223.0038	10
223.0059	8
223.008	3
223.0101	6
223.0122	2
223.0143	1
223.0164	1
223.0185	4
229.124	1
229.3334	1
232.9996	1
240.0038	1
240.253	1
240.2793	1
240.2924	1
240.9775	1
240.9884	4
240.9906	2
240.9928	6
240.995	8
240.9972	14
240.9994	20
241.0016	29
241.0038	41
241.0059	71
241.0081	68
241.0103	90
241.0125	77
241.0147	77
241.0169	63
241.0191	55
241.0213	32
241.0235	25
241.0257	13
241.0278	8
241.03	6
241.0322	2
241.0344	4
241.0366	4
241.0388	1
247.125	4
247.1272	3
247.1294	4
247.1316	4
247.1338	3
247.136	4
247.1405	5
247.1427	4
248.1308	4
248.133	4
248.1352	1
248.1374	7
248.1396	10
248.1419	6
248.1441	4
248.1463	4
248.1485	2
248.1508	3
248.153	2
255.1948	2
255.1971	7
255.1993	9
255.2016	13
255.2038	16
255.2061	17
255.2083	19
255.2106	21
255.2128	21
255.2151	21
255.2173	20
255.2196	14
255.2218	7
255.2241	2
255.2263	4
255.2286	1
255.2309	1
259.0023	1
259.0092	2
259.0114	4
259.0137	2
259.016	4
259.0182	8
259.0205	7
259.0228	5
259.0251	6
259.0273	5
259.0296	2
259.0319	2
259.0341	2
259.0364	2
259.0387	1
259.0455	1
273.2094	1
273.214	2
273.2187	4
273.2233	2
273.2303	1
280.3688	2
280.3948	1
280.8487	2
281.2011	1
281.22	2
281.2224	3
281.2247	2
281.2271	5
281.2295	10
281.2318	11
281.2342	21
281.2366	34
281.239	42
281.2413	71
281.2437	66
281.246	98
281.2484	73
281.2508	91
281.2531	76
281.2555	64
281.2579	39
281.2603	33
281.2626	19
281.265	16
281.2673	9
281.2697	5
281.2721	7
281.2768	2
281.2792	2
282.2502	1
282.2526	1
297.0217	4
297.0241	6
297.0266	5
297.029	8
297.0314	8
297.0339	7
297.0363	7
297.0387	11
297.0412	7
297.0436	7
297.046	4
297.0485	4
297.0509	2
297.0533	1
298.2607	1
299.0508	1
299.063	1
299.1777	1
299.1801	3
299.1826	5
299.185	4
299.1874	15
299.1899	11
299.1923	11
299.1948	15
299.1972	22
299.1996	17
299.2021	16
299.2045	25
299.207	18
299.2094	15
299.2119	10
299.2143	13
299.2167	5
299.2216	3
299.2241	1
299.2289	2
315.0334	2
315.0359	2
315.0384	4
315.0409	4
315.0434	5
315.0459	4
315.0484	6
315.0509	2
315.0534	4
315.0559	6
315.0609	6
316.2216	1
316.2316	1
316.3445	1
316.8818	1
317.0526	1
317.1783	2
317.1808	1
317.1833	1
317.1858	4
317.1883	5
317.1908	9
317.1933	12
317.1959	23
317.1984	28
317.2009	48
317.2034	47
317.2059	52
317.2084	65
317.2109	83
317.2134	79
317.2159	64
317.2184	52
317.221	46
317.2235	33
317.226	26
317.2285	24
317.231	9
317.2336	5
317.2361	7
317.2386	2
317.2411	2
317.2436	3
317.2461	3
317.2486	1
317.2737	1
318.2119	1
318.222	1
318.4334	1
357.0514	1
371.0689	1
376.8999	1
417.2099	1
417.2156	6
417.2185	7
417.2214	14
417.2243	12
417.2272	7
417.23	21
417.2329	23
417.2358	32
417.2387	18
417.2416	34
417.2444	20
417.2473	24
417.2502	22
417.2531	19
417.256	17
417.2589	10
417.2617	6
417.2646	5
417.2675	4
417.2704	1
417.2733	1
417.2819	2
418.2538	1
435.2314	1
435.2372	3
435.2402	2
435.2431	1
435.2461	3
435.249	4
435.2549	2
435.2578	4
435.2608	3
435.2667	1
435.2726	1
453.1712	1
453.1832	3
453.1862	5
453.1892	4
453.1922	6
453.1952	9
453.1982	7
453.2012	10
453.2042	7
453.2072	10
453.2102	15
453.2132	7
453.2162	7
453.2192	4
453.2222	4
453.2252	3
453.2282	4
453.2312	1
453.2372	2
477.2661	1
485.1525	1
489.3789	1
491.4162	1
513.4653	1
569.2396	1
570.9678	1
579.2409	2
579.2443	1
579.2545	1
579.2579	6
579.2613	16
579.2646	16
579.2681	19
579.2715	24
579.2748	28
579.2783	21
579.2817	29
579.285	26
579.2885	41
579.2919	31
579.2952	34
579.2986	31
579.302	32
579.3054	28
579.3088	31
579.3122	16
579.3156	19
579.319	16
579.3224	16
579.3258	10
579.3292	4
579.3326	7
579.336	2
579.3428	3
579.3495	1
580.3009	2
585.3934	1
597.2614	3
597.2648	1
597.2683	1
597.2717	3
597.2752	4
597.2786	9
597.2821	5
597.2855	8
597.289	8
597.2924	9
597.2959	11
597.2993	10
597.3028	10
597.3062	13
597.3097	21
597.3131	14
597.3166	11
597.32	12
597.3235	10
597.3269	7
597.3304	2
597.3338	7
597.3373	4
597.3407	4
597.3442	1
597.3476	3
597.358	1
597.3614	1
597.3718	1
615.2184	2
615.2254	5
615.2289	1
615.2324	1
615.2359	4
615.2394	10
615.2429	7
615.2464	7
615.2499	11
615.2534	8
615.2569	13
615.2604	11
615.2639	13
615.2674	11
615.2709	13
615.2744	9
615.2779	7
615.2814	6
615.2849	6
615.2884	4
615.2919	2
615.2954	1
615.2989	5
615.3059	1
615.3129	2
633.2496	1
633.2603	4
633.2639	3
633.2674	1
633.2709	1
633.2745	1
633.2816	2
633.2922	2
633.2958	1
651.3072	1
651.3612	1
665.3391	2
705.3308	1
705.3345	1
705.3495	1
705.3571	1
705.372	1
705.387	1
705.3983	2
707.397	1
719.3698	1
719.3962	1
735.4399	2
735.4552	3
735.459	3
735.4667	1
735.4705	1
735.4743	3
735.4781	3
735.4858	2
735.4896	2
735.5126	1
745.3605	1
745.3644	1
745.3682	4
745.3798	4
745.3837	2
745.3875	8
745.3914	6
745.3952	7
745.399	5
745.4029	14
745.4068	8
745.4106	5
745.4145	10
745.4183	2
745.426	3
745.4299	1
745.4415	1
745.4453	1
746.374	1
746.4164	1
746.4318	1
785.4073	3
785.4152	1
785.4271	2
785.4666	1
799.4238	2
799.4278	2
799.4318	1
799.4358	1
799.4398	4
799.4438	2
799.4478	2
799.4517	1
799.4557	4
799.4597	2
800.4414	1
800.4574	1
827.4756	1
828.4175	2
828.4297	1
828.442	1
828.4541	1
828.4582	1
828.4663	3
828.4744	1
885.1564	1
894.6099	1
894.6183	1
894.6437	1
894.6479	2
894.6521	1
894.6564	4
894.6606	3
894.6648	2
894.669	3
894.6732	3
894.6774	3
894.6817	4
894.6859	4
894.6901	4
894.6943	3
894.6985	4
894.7028	4
894.707	1
894.7112	2
894.7155	3
894.7197	4
894.7239	1
894.7281	4
894.7323	4
894.7365	2
894.7408	1
894.745	3
894.7618	1
894.7661	1
894.7914	1
894.8378	1
895.0447	1
895.2811	1
896.2903	1
897.1861	1
897.2453	1
897.2748	1
897.3214	1
897.4144	2
897.4524	21
897.4566	49
897.4608	58
897.4651	85
897.4693	144
897.4735	159
897.4777	209
897.482	308
897.4862	376
897.4904	463
897.4946	534
897.4989	634
897.5031	778
897.5073	825
897.5115	895
897.5158	930
897.52	975
897.5242	999
897.5284	924
897.5327	973
897.5369	779
897.5411	755
897.5454	592
897.5496	457
897.5538	341
897.558	258
897.5623	186
897.5665	118
897.5707	101
897.575	57
897.5792	50
897.5834	35
897.5876	35
897.5919	16
897.5961	8
897.6003	6
897.6046	6
897.6088	3
897.613	3
897.6172	1
897.6215	1
897.6257	1
897.985	1
897.9977	1
898.002	1
898.2388	1
898.3107	1
898.3403	1
898.4545	2
898.4587	3
898.4629	5
898.4671	6
898.4714	6
898.4756	11
898.4798	9
898.4841	8
898.4883	12
898.4925	11
898.4968	21
898.501	21
898.5052	23
898.5094	22
898.5137	21
898.5179	27
898.5221	26
898.5264	17
898.5306	19
898.5348	31
898.539	18
898.5433	18
898.5475	16
898.5517	10
898.556	15
898.5602	9
898.5644	8
898.5687	4
898.5729	7
898.5771	2
898.5813	4
898.5856	2
898.5898	2
898.5983	1
898.6109	1
898.7209	1
898.869	1
898.9747	1
900.4391	1
900.4475	1
