Mass spectrum: PC 34:2; LC-ESI-QTOF; MS2
Name: PC 34:2
Class: PC
Formula: C42H80NO8P
Exact mass: 758.0769999999999
SMILES: CCCCCCCCCCCCCCCC(=O)OCC(COP([O-])(=O)OCC[N+](C)(C)C)OC(=O)CCCCCCC\C=C/C\C=C/CCCCC
InChI: InChI=1S/C42H80NO8P/c1-6-8-10-12-14-16-18-20-21-23-25-27-29-31-33-35-42(45)51-40(39-50-52(46,47)49-37-36-43(3,4)5)38-48-41(44)34-32-30-28-26-24-22-19-17-15-13-11-9-7-2/h14,16,20-21,40H,6-13,15,17-19,22-39H2,1-5H3/b16-14-,21-20-
Instrument: AB Sciex TripleTOF 5600+ system (Q-TOF) equipped with a DuoSpray ion source
Instrument type: LC-ESI-QTOF
Ms type: MS2
Ion mode: NEGATIVE
Collision energy: 45V
Column name: Acquity UPLC Peptide BEH C18 column (50*2.1 mm; 1.7 um; 130A)(Waters Co.,Milford, MA, USA)
Retention time: 9.29863
Precursor type: [M+CH3COOH-H]-
Precursor m/z: 816.5753
m/z	relative intensity
152.99	3
168.045	16
224.066	13
224.077	5
253.218	63
254.441	4
255.232	507
278.364	12
279.232	757
279.264	8
281.234	12
281.247	53
303.226	5
309.282	3
310.282	3
327.231	2
331.262	2
391.219	2
415.224	3
438.11	2
446.276	3
452.264	3
462.281	8
462.312	6
478.301	4
480.299	9
480.313	37
486.286	6
486.309	9
504.29	9
504.313	22
506.321	6
728.52	2
729.538	10
740.229	7
740.32	2
742.458	5
742.536	999
743.552	2
757.5	13
766.533	10
767.695	2
816.528	11
816.565	76
816.605	14
816.645	2
