Mass spectrum: PE(16:1e/7-HDoHE); LC-ESI-QTOF; MS2
Name: PE(16:1e/7-HDoHE)
Class: Oxidized Phospholipid
Formula: C43H74NO8P
Exact mass: 764.04
SMILES: CCCCCCCCCCCCCC\C=C/OCC(COP(O)(=O)OCCN)OC(=O)CC\C=C/CC(O)\C=C\C=C/C\C=C/C\C=C/C\C=C/CC
InChI: InChI=1S/C43H74NO8P/c1-3-5-7-9-11-13-15-17-19-21-23-25-27-32-37-49-39-42(40-51-53(47,48)50-38-36-44)52-43(46)35-31-28-30-34-41(45)33-29-26-24-22-20-18-16-14-12-10-8-6-4-2/h6,8,12,14,18,20,24,26,28-30,32-33,37,41-42,45H,3-5,7,9-11,13,15-17,19,21-23,25,27,31,34-36,38-40,44H2,1-2H3,(H,47,48)/b8-6-,14-12-,20-18-,26-24-,30-28-,33-29+,37-32-
Instrument: Acquity UPLC Peptide BEH C18 column (50 x 2.1 mm; 1.7 um), Sciex TripleTOF5600
Instrument type: LC-ESI-QTOF
Ms type: MS2
Ion mode: NEGATIVE
Collision energy: 30-50
Precursor m/z: 762.5079288
Precursor type: [M-H]-
m/z	relative intensity
78.9576	26
78.95885	53
97.06412	26
97.06551	40
107.0884	26
113.0595	26
113.061	40
113.0625	40
113.07	40
135.1209	26
140.0076	40
140.0093	26
140.0109	40
140.0126	40
141.0463	40
141.048	40
141.0513	53
141.053	40
141.0547	92
141.0563	92
141.058	106
141.0597	26
141.0614	40
149.1389	26
149.1406	40
180.0405	26
180.0481	26
189.1573	26
189.167	53
196.0379	79
196.0399	40
196.0439	26
199.1717	26
201.154	40
201.156	106
201.158	119
201.16	106
201.162	66
201.164	92
201.166	40
201.17	106
201.172	92
201.174	26
201.178	26
227.18	40
227.1843	26
227.1886	26
227.1907	53
227.1928	92
227.1949	66
227.1971	185
227.1992	40
227.2013	106
227.2034	92
227.2056	40
227.2077	119
227.2098	79
227.2119	40
227.2183	26
239.2281	26
239.2303	26
239.2325	40
239.2368	26
239.239	26
239.2412	26
239.2456	40
239.2477	40
245.1788	26
245.1877	40
245.1899	26
245.1921	26
245.2009	26
253.1991	26
253.2014	26
253.2059	40
253.2081	66
253.2104	79
253.2126	106
253.2148	66
253.2171	158
253.2193	106
253.2216	132
253.2238	53
253.2261	53
253.2283	53
253.2306	26
253.2328	26
255.2171	26
255.2216	40
255.2261	66
255.2306	26
255.2328	40
255.2351	66
255.2373	26
255.2396	40
255.2464	26
279.2617	27
281.2008	26
281.2103	79
281.2127	132
281.215	106
281.2174	79
281.2198	238
281.2221	225
281.2245	172
281.2269	106
281.2292	201
281.2316	304
281.234	239
281.2363	145
281.2387	79
281.2411	53
281.2434	120
281.2458	106
281.2482	54
281.2505	92
281.2529	66
281.2553	40
281.2576	53
281.26	26
282.25	26
299.2165	26
299.2263	26
299.2287	26
299.2385	40
301.2163	79
301.2286	26
301.231	26
325.199	40
325.2066	53
325.2092	66
325.2117	53
325.2143	92
325.2168	145
325.2193	26
325.2219	79
325.227	40
325.2397	26
325.2473	26
343.1991	26
343.2043	26
343.2069	40
343.2095	26
343.2121	53
343.2148	185
343.2173	119
343.22	158
343.2226	264
343.2252	158
343.2278	290
343.2304	224
343.233	119
343.2357	224
343.2383	172
343.2409	132
343.2435	53
343.2487	40
343.2513	79
343.2592	26
375.2226	26
375.2362	26
418.2394	26
418.2423	26
418.2538	40
418.2567	66
418.2596	92
418.2625	79
418.2682	40
418.2711	79
418.274	92
418.2769	92
418.2798	79
418.2827	66
418.2856	40
418.2885	40
418.2914	40
418.2942	66
424.6466	27
436.2446	26
436.2505	53
436.2534	80
436.2564	66
436.2593	93
436.2623	173
436.2652	93
436.2682	186
436.2711	148
436.274	320
436.277	387
436.2799	241
436.2829	349
436.2859	415
436.2888	346
436.2917	212
436.2947	212
436.2976	119
436.3006	132
436.3035	79
436.3065	106
436.3094	26
436.3124	26
438.2981	26
462.312	26
522.2697	26
675.4922	26
688.4474	26
688.4511	26
688.4548	26
688.4586	26
688.4622	53
688.4659	53
688.4697	119
688.4733	66
688.4771	79
688.4807	40
688.4844	79
688.4882	66
688.4918	106
688.4955	79
688.4993	66
688.5029	145
688.5067	79
688.5104	66
688.514	79
688.5178	106
688.5215	119
688.5251	53
688.5289	66
688.5326	40
688.5363	40
688.54	26
688.5437	53
688.5622	26
688.5659	66
688.5696	26
688.6288	27
729.6437	27
762.4383	26
762.4422	40
762.4578	120
762.4617	41
762.4656	41
762.4695	69
762.4733	256
762.4772	258
762.4811	383
762.485	302
762.489	434
762.4929	578
762.4967	621
762.5006	707
762.5045	695
762.5084	754
762.5123	976
762.5162	956
762.5201	999
762.524	709
762.5279	969
762.5318	622
762.5357	635
762.5396	446
762.5435	505
762.5474	406
762.5513	285
762.5552	302
762.5591	159
762.563	115
762.5668	28
762.5707	101
762.5746	58
762.5786	27
762.5825	14
762.5864	49
762.598	27
763.4944	26
763.5101	26
763.5218	26
763.5295	40
763.5374	40
763.5413	26
