Mass spectrum: Cer[NS] d43:2; LC-ESI-QTOF; MS2
Name: Cer[NS] d43:2
Class: Cer_NS
Formula: C43H83NO3
Exact mass: 662.1409999999998
SMILES: CCCCCCCCCCCCCCCCCCCCCCCCC(=O)NC(CO)C(O)\C=C\CC\C=C\CCCCCCCCC
InChI: InChI=1S/C43H83NO3/c1-3-5-7-9-11-13-15-17-18-19-20-21-22-23-24-25-27-29-31-33-35-37-39-43(47)44-41(40-45)42(46)38-36-34-32-30-28-26-16-14-12-10-8-6-4-2/h28,30,36,38,41-42,45-46H,3-27,29,31-35,37,39-40H2,1-2H3,(H,44,47)/b30-28+,38-36+
Instrument: AB Sciex TripleTOF 5600+ system (Q-TOF) equipped with a DuoSpray ion source
Instrument type: LC-ESI-QTOF
Ms type: MS2
Ion mode: NEGATIVE
Collision energy: 45V
Column name: Acquity UPLC Peptide BEH C18 column (50*2.1 mm; 1.7 um; 130A)(Waters Co.,Milford, MA, USA)
Retention time: 13.23607
Precursor type: [M+CH3COOH-H]-
Precursor m/z: 720.6467
m/z	relative intensity
141.017	24
158.983	12
174.068	18
217.189	12
223.054	18
235.201	94
237.221	45
238.224	24
261.219	81
263.237	18
264.239	24
266.244	18
267.249	12
281.244	14
349.345	31
350.35	81
363.361	75
366.369	26
367.377	50
380.38	88
380.402	37
381.368	55
392.379	68
392.395	157
393.37	43
393.384	49
393.402	29
406.4	392
406.419	56
408.383	20
409.387	26
422.4	55
601.595	37
601.635	25
612.593	62
619.614	37
628.495	56
628.524	62
628.598	50
630.608	138
630.657	24
642.529	62
649.632	31
660.523	50
660.553	101
660.589	158
660.629	999
674.633	24
720.523	18
720.582	62
720.656	20
