Mass spectrum: PC(16:1/13-HODE); LC-ESI-QTOF; MS2
Name: PC(16:1/13-HODE)
Class: Oxidized Phospholipid
Formula: C42H78NO9P
Exact mass: 772.06
SMILES: CCCCCC\C=C/CCCCCCCC(=O)OCC(COP([O-])(=O)OCC[N+](C)(C)C)OC(=O)CCCCCCC\C=C/C=C/C(O)CCCCC
InChI: InChI=1S/C42H78NO9P/c1-6-8-10-11-12-13-14-15-16-19-22-25-29-33-41(45)49-37-40(38-51-53(47,48)50-36-35-43(3,4)5)52-42(46)34-30-26-23-20-17-18-21-24-28-32-39(44)31-27-9-7-2/h13-14,21,24,28,32,39-40,44H,6-12,15-20,22-23,25-27,29-31,33-38H2,1-5H3/b14-13-,24-21-,32-28+
Instrument: Acquity UPLC Peptide BEH C18 column (50 x 2.1 mm; 1.7 um), Sciex TripleTOF5600
Instrument type: LC-ESI-QTOF
Ms type: MS2
Ion mode: NEGATIVE
Collision energy: 30-50
Precursor m/z: 830.5552726
Precursor type: [M+CH3COOH-H]-
m/z	relative intensity
168.0343	7
168.038	15
168.0398	11
168.0416	7
168.0435	26
168.0471	15
168.0508	7
195.1266	11
195.1305	30
195.1325	19
195.1344	23
195.1364	30
195.1384	41
195.1404	34
195.1423	26
195.1443	7
195.1463	15
195.1482	11
195.1502	15
199.2935	7
224.0611	7
224.0632	11
224.0653	23
224.0695	7
224.0716	30
224.0737	11
224.0758	11
224.0822	11
224.1498	8
252.4285	12
252.4308	12
252.4397	8
252.4554	8
253.1262	8
253.1779	8
253.1913	4
253.1936	4
253.1958	21
253.198	30
253.2003	88
253.2025	97
253.2048	222
253.207	300
253.2093	402
253.2115	529
253.2138	707
253.216	839
253.2183	807
253.2205	606
253.2227	589
253.225	433
253.2272	255
253.2295	133
253.2317	113
253.234	65
253.2362	48
253.2385	22
253.2407	34
253.243	17
253.2475	13
253.2497	4
253.2699	4
253.3665	4
254.2162	8
254.2207	4
254.6933	4
258.6833	7
277.1992	7
277.2015	7
277.2039	11
277.2086	7
277.2109	30
277.2133	41
277.2156	49
277.218	23
277.2203	23
277.2227	26
277.225	34
277.2274	19
277.2297	7
294.231	8
294.3036	7
294.8849	8
295.0594	8
295.1078	8
295.1854	8
295.2	16
295.2024	16
295.2048	12
295.2072	37
295.2097	73
295.2121	107
295.2145	103
295.2169	211
295.2194	221
295.2218	338
295.2242	506
295.2266	485
295.2291	417
295.2315	421
295.2339	376
295.2363	252
295.2387	180
295.2412	140
295.2436	58
295.246	33
295.2484	33
295.2509	24
295.2533	13
295.2557	21
295.2654	4
295.2727	4
295.537	4
295.5492	4
295.9932	4
296.2336	8
301.3163	4
309.2346	7
378.3015	7
417.2341	7
431.2123	7
431.227	7
431.2416	7
449.2347	7
460.2712	7
460.2773	7
460.2803	7
460.2894	7
460.2924	11
478.2737	7
478.2768	19
478.2799	23
478.283	7
478.286	7
478.2892	7
478.2922	15
478.2953	15
478.2984	26
478.3015	19
478.3046	30
478.3076	30
478.3107	7
478.3138	11
479.7529	7
502.2596	7
502.2628	7
502.2754	7
502.2786	7
502.2849	7
502.2881	11
502.2944	7
502.2975	23
502.3007	11
502.3039	15
502.307	7
502.3165	7
502.3228	7
516.9688	7
520.2656	15
520.2752	7
520.2784	7
520.2817	7
520.2849	19
520.2881	11
520.2913	34
520.2945	30
520.2977	45
520.301	34
520.3042	34
520.3074	19
520.3106	41
520.3138	30
520.3171	26
520.3203	19
520.3235	23
520.3267	19
520.3299	15
685.4095	7
685.4169	7
685.4206	7
685.4243	15
685.4317	23
685.4354	19
685.4391	11
685.4428	26
685.4502	15
685.4539	11
685.4576	11
685.4612	15
685.465	15
685.4686	11
685.4724	7
685.476	7
685.4797	11
685.4834	15
685.4871	11
685.4945	7
754.1382	7
754.1459	7
754.1692	7
755.4834	7
756.4377	11
756.4493	7
756.4688	13
756.4727	34
756.4765	79
756.4804	101
756.4843	187
756.4882	213
756.4921	307
756.4959	416
756.4998	473
756.5037	568
756.5076	650
756.5115	775
756.5153	915
756.5192	825
756.5231	999
756.527	915
756.5309	813
756.5347	879
756.5386	702
756.5425	693
756.5464	499
756.5503	405
756.5541	272
756.558	285
756.5619	168
756.5658	131
756.5696	115
756.5735	57
756.5775	39
756.5813	34
756.5852	38
756.5891	14
756.593	23
756.5969	4
756.6007	10
757.1869	5
757.5092	7
757.5131	11
757.517	13
757.5364	9
757.5402	7
757.548	7
757.5558	7
770.5002	19
770.5041	7
770.5198	7
770.5276	11
770.5315	11
770.5511	11
770.5629	7
770.5668	7
771.464	15
771.4718	15
771.4757	7
771.4796	11
771.4836	19
771.4875	15
771.4914	11
771.4953	7
771.4993	7
771.5071	15
771.5149	7
771.5228	7
771.5267	7
830.4993	7
830.5074	11
830.5156	26
830.5197	26
830.5237	26
830.5278	38
830.5319	38
830.5359	15
830.54	49
830.5441	49
830.5482	42
830.5522	34
830.5563	53
830.5603	38
830.5644	42
830.5685	38
830.5725	68
830.5766	73
830.5807	30
830.5847	30
830.5888	26
830.5928	26
830.5969	7
830.601	15
830.605	11
830.6132	7
830.6295	7
830.6376	7
