Mass spectrum: PI(16:0/12-HETE); LC-ESI-QTOF; MS2
Name: PI(16:0/12-HETE)
Class: Oxidized Phospholipid
Formula: C45H79O14P
Exact mass: 875.089
SMILES: CCCCCCCCCCCCCCCC(=O)OCC(COP(O)(=O)OC1C(O)C(O)C(O)C(O)C1O)OC(=O)CCC\C=C/C\C=C/C=C/C(O)C\C=C/CCCCC
InChI: InChI=1S/C45H79O14P/c1-3-5-7-9-11-12-13-14-15-16-20-24-28-32-38(47)56-34-37(35-57-60(54,55)59-45-43(52)41(50)40(49)42(51)44(45)53)58-39(48)33-29-25-21-18-17-19-23-27-31-36(46)30-26-22-10-8-6-4-2/h18-19,21-23,26-27,31,36-37,40-46,49-53H,3-17,20,24-25,28-30,32-35H2,1-2H3,(H,54,55)/b21-18-,23-19-,26-22-,31-27+
Instrument: Acquity UPLC Peptide BEH C18 column (50 x 2.1 mm; 1.7 um), Sciex TripleTOF5600
Instrument type: LC-ESI-QTOF
Ms type: MS2
Ion mode: NEGATIVE
Collision energy: 30-50
Precursor m/z: 873.5134677
Precursor type: [M-H]-
m/z	relative intensity
76.11802	2
76.12047	2
78.95718	2
78.95843	5
110.904	2
110.9113	2
135.1178	2
135.1227	2
135.1259	2
139.1118	2
139.1134	5
152.9828	2
152.9845	2
152.9863	2
152.988	2
152.9915	5
152.9949	9
152.9967	5
152.9984	7
153.0001	5
153.0019	2
153.0053	2
163.1058	2
163.1112	5
163.1147	2
179.0878	2
179.0935	2
179.0954	2
179.0972	7
179.101	5
179.1029	5
179.1047	7
179.1066	12
179.1085	7
179.1104	7
179.1122	7
179.1141	5
179.116	2
181.1207	2
181.1225	2
203.1758	2
203.1778	2
203.1798	2
207.109	5
208.0972	2
208.1012	5
208.1053	2
208.1073	2
208.1093	7
208.1113	5
208.1134	2
208.1174	2
208.1235	2
208.1255	2
222.9864	2
222.9927	2
222.9948	5
222.9969	2
222.999	5
223.0011	11
223.0031	2
223.0052	9
223.0073	5
223.0094	7
223.0115	2
240.9935	5
240.9957	5
240.9979	5
241	9
241.0022	9
241.0044	18
241.0066	23
241.0088	36
241.0109	29
241.0131	24
241.0153	27
241.0175	16
241.0197	24
241.0218	11
241.024	2
241.0262	5
254.4221	2
254.44	2
255.2192	5
255.2214	11
255.2237	9
255.2259	21
255.2281	13
255.2304	18
255.2326	24
255.2349	16
255.2371	11
255.2393	2
255.2416	2
255.2506	2
256.2285	2
256.2352	2
256.2532	2
257.2127	2
257.2173	5
257.2217	5
257.224	5
257.2262	7
257.2285	2
257.233	2
257.2352	2
257.2375	2
257.251	2
257.2667	2
259.0041	2
259.0109	2
259.0176	2
259.0199	2
259.0222	2
259.0267	2
259.0312	2
273.2201	2
273.2433	2
275.2314	2
275.2593	2
297.0253	5
297.0277	5
297.0302	2
297.0326	9
297.035	7
297.0374	9
297.0398	9
297.0423	7
297.0447	2
297.0471	2
297.0495	2
297.0544	2
297.064	2
301.2023	2
301.2096	5
301.212	12
301.2145	14
301.2169	11
301.2193	5
301.2218	2
301.2242	5
301.2267	5
301.2291	2
301.2339	2
301.2461	2
315.0324	2
315.0399	2
315.0424	2
315.0448	2
315.0473	2
315.0548	2
315.0573	2
315.0673	2
319.1758	2
319.1959	2
319.2034	2
319.2059	7
319.2084	2
319.2109	5
319.2134	9
319.2159	13
319.2184	25
319.2209	44
319.2234	36
319.2259	47
319.2284	31
319.2309	26
319.2334	22
319.2359	13
319.2385	18
319.2409	12
319.2435	7
319.246	7
319.2485	2
335.2056	2
335.2108	5
335.2159	5
335.2185	2
335.221	5
335.2262	5
335.2287	2
336.2155	5
336.2233	2
336.2284	2
371.0027	2
371.0568	2
371.073	2
377.2421	2
377.2503	2
391.2075	2
391.2102	9
391.213	7
391.2158	14
391.2186	15
391.2213	16
391.2241	17
391.2269	33
391.2296	17
391.2325	15
391.2352	12
391.238	2
391.2408	7
391.2491	2
391.2519	2
409.2196	2
409.231	2
409.2338	2
409.2395	2
409.2423	2
455.1913	2
455.2003	2
455.2063	5
455.2093	5
455.2123	7
455.2153	12
455.2183	5
455.2213	9
455.2243	5
455.2273	7
455.2303	2
455.2332	2
455.2362	2
455.2422	2
455.2572	2
465.2588	2
465.2769	2
475.9961	2
476.0205	2
476.0328	2
480.2958	2
480.3112	2
480.3235	2
480.8246	2
480.8431	2
480.8461	2
480.9046	2
481.1753	2
481.2337	2
481.2553	2
481.2983	2
481.3076	2
482.3019	2
482.305	2
485.1337	2
485.1368	2
488.9749	2
488.9935	2
490.2349	2
490.2597	2
490.5983	2
490.6107	2
493.3172	2
493.3452	2
493.3951	2
493.5197	2
493.5446	2
494.4548	2
494.4579	2
495.0601	5
500.3824	2
500.3856	2
500.4201	2
501.6131	2
501.6256	2
502.5464	5
504.5103	2
504.5197	2
509.2499	2
509.2594	2
510.3551	5
510.6783	2
510.6847	2
516.1571	2
516.189	2
516.2209	2
528.4203	2
528.4301	2
531.381	5
546.9048	2
546.9113	2
549.8377	2
549.841	2
551.4833	2
551.4899	2
552.0466	2
552.0532	2
552.7751	2
552.8115	2
553.1841	2
553.2435	2
553.2468	2
553.2501	2
553.2534	2
553.2567	9
553.26	9
553.2633	12
553.2666	5
553.2699	7
553.2732	15
553.2765	18
553.2798	15
553.2831	13
553.2864	9
553.2897	5
553.293	9
553.2963	7
553.2996	5
553.3029	5
553.3161	2
557.2192	2
571.2647	2
571.2714	5
571.2748	9
571.2781	7
571.2815	5
571.2849	11
571.2882	13
571.2916	9
571.2949	7
571.2983	5
571.3016	7
571.3049	7
571.3116	2
571.315	2
571.3184	2
573.3248	2
573.355	2
577.3483	2
577.3517	2
577.3618	2
591.1935	2
591.1969	2
595.2415	2
595.2757	2
601.3411	2
601.3926	2
617.2451	5
617.2556	2
617.259	5
617.2625	7
617.266	5
617.2695	9
617.2729	20
617.2799	2
617.2834	11
617.2869	7
617.2904	5
617.2939	5
617.2974	5
617.3043	2
625.2784	2
625.2855	2
625.303	2
635.2712	2
635.2854	2
635.2924	2
657.8917	2
657.8989	5
679.3278	2
679.3461	5
679.3535	2
679.3571	2
679.3754	2
680.3262	2
680.3481	2
680.3555	2
680.3701	5
680.3737	2
680.381	2
680.3994	2
684.4222	2
684.4406	2
684.4442	2
711.4285	2
711.4323	2
711.4509	2
711.4547	2
711.4584	2
711.4622	2
711.4734	2
711.4771	2
711.4846	2
715.8121	2
715.8346	2
719.3625	2
719.3776	2
719.3813	2
719.4152	2
728.4568	2
728.4682	2
728.4758	2
728.4796	2
728.4871	2
733.3672	2
733.3748	2
733.4128	2
762.374	2
762.3817	2
762.3934	5
798.5048	2
798.5207	5
798.5247	2
798.5286	2
798.5485	2
799.4801	2
799.492	5
799.4999	5
799.5039	5
799.5079	2
799.5118	11
799.5158	11
799.5198	17
799.5237	11
799.5277	11
799.5317	12
799.5356	16
799.5396	7
799.5436	15
799.5475	17
799.5515	5
799.5594	9
799.5634	7
799.5713	5
799.5753	2
799.5792	2
799.5872	2
806.1642	2
806.1921	2
813.5362	2
813.5522	2
813.6002	2
814.4846	2
814.4885	2
832.0743	2
832.0784	2
870.7081	7
870.7247	2
870.7288	2
870.733	21
870.7412	5
870.7495	5
870.7537	2
870.7661	2
870.7702	5
870.7785	2
870.8199	2
870.8613	2
871.4822	2
871.5195	2
871.5319	2
871.5775	2
871.6478	2
871.6644	2
872.9609	2
873.0148	2
873.2262	2
873.2552	2
873.2842	2
873.3837	2
873.3961	2
873.421	2
873.4293	2
873.4334	5
873.45	4
873.4542	2
873.4583	11
873.4625	16
873.4666	27
873.4707	41
873.4749	59
873.479	109
873.4832	108
873.4873	203
873.4915	254
873.4956	361
873.4998	512
873.5039	726
873.5081	825
873.5122	955
873.5164	999
873.5204	839
873.5246	826
873.5287	699
873.5329	452
873.537	372
873.5412	230
873.5453	190
873.5495	112
873.5536	87
873.5578	53
873.562	43
873.566	37
873.5702	23
873.5743	20
873.5785	18
873.5826	2
873.5868	6
873.5951	2
873.5992	5
873.6199	2
873.6241	2
873.6282	2
873.6531	2
873.6697	2
873.6863	2
873.7029	2
873.7734	2
873.8231	2
873.8273	2
873.877	2
873.906	2
873.9475	2
873.9848	2
874.0097	2
874.0345	2
874.4368	2
874.4866	2
874.4949	2
874.5073	2
874.5115	2
874.5156	2
874.5281	5
874.5447	5
874.8599	2
874.8723	2
874.9512	2
875.0134	2
875.0881	2
875.1462	2
875.2167	2
875.2333	2
875.2997	2
875.3412	2
875.8848	2
875.9222	2
875.9596	2
876.026	2
876.0841	2
876.3	2
876.3747	2
876.7568	2
876.7858	2
877.7911	2
877.8036	2
877.9573	2
877.9698	2
877.974	2
878.0072	2
878.1028	2
878.1652	2
878.2275	2
879.7744	2
879.7868	2
880.0739	2
880.0989	2
880.3069	2
880.386	2
880.7314	2
880.7356	2
880.7897	2
881.0769	2
881.1436	2
881.2351	2
884.1144	2
884.1228	2
884.1562	2
884.373	2
884.4022	2
886.514	2
886.5599	2
887.3745	2
887.4496	2
