Mass spectrum: PC(18:1/18-HEPE); LC-ESI-QTOF; MS2
Name: PC(18:1/18-HEPE)
Class: Oxidized Phospholipid
Formula: C46H80NO9P
Exact mass: 822.12
SMILES: CCCCCCCC\C=C/CCCCCCCC(=O)OCC(COP([O-])(=O)OCC[N+](C)(C)C)OC(=O)CCC\C=C/C\C=C/C\C=C/C\C=C/C=C/C(O)CC
InChI: InChI=1S/C46H80NO9P/c1-6-8-9-10-11-12-13-14-15-19-22-25-28-31-34-37-45(49)53-41-44(42-55-57(51,52)54-40-39-47(3,4)5)56-46(50)38-35-32-29-26-23-20-17-16-18-21-24-27-30-33-36-43(48)7-2/h14-15,17-18,20-21,26-27,29-30,33,36,43-44,48H,6-13,16,19,22-25,28,31-32,34-35,37-42H2,1-5H3/b15-14-,20-17-,21-18-,29-26-,30-27-,36-33+
Instrument: Acquity UPLC Peptide BEH C18 column (50 x 2.1 mm; 1.7 um), Sciex TripleTOF5600
Instrument type: LC-ESI-QTOF
Ms type: MS2
Ion mode: NEGATIVE
Collision energy: 30-50
Precursor m/z: 880.5709227
Precursor type: [M+CH3COOH-H]-
m/z	relative intensity
168.0405	58
215.1727	58
215.1747	58
215.181	58
215.183	38
215.1851	38
224.0673	38
224.0694	58
224.0906	38
255.202	58
255.2042	38
255.2065	77
255.2087	58
255.2132	115
255.22	38
255.229	58
255.2313	38
259.1595	38
259.1686	58
259.1708	96
259.1731	38
259.1754	38
259.1777	38
259.1799	38
259.1845	38
259.189	38
281.2347	96
281.2371	58
281.2394	154
281.2418	134
281.2441	173
281.2465	134
281.2489	211
281.2513	134
281.2536	269
281.256	154
281.2584	115
281.2607	192
281.2631	38
281.2702	38
299.188	38
299.1904	38
299.1928	38
299.1953	115
299.1977	96
299.2002	115
299.2026	38
299.205	115
299.2075	58
299.2124	38
299.2221	38
317.1914	77
317.1939	58
317.1964	96
317.1989	96
317.2014	77
317.2039	115
317.2065	288
317.209	96
317.2115	134
317.214	192
317.2165	250
317.2191	192
317.2216	115
317.2241	77
317.2266	77
317.2291	77
317.2316	38
317.2341	38
317.2366	38
506.3042	38
506.3105	58
506.3169	77
506.3201	58
506.3233	38
506.3264	38
506.3296	38
506.3455	38
735.4379	38
780.766	40
804.0203	38
806.4667	40
806.4747	79
806.4787	154
806.4827	135
806.4867	135
806.4907	179
806.4947	179
806.4987	198
806.5027	139
806.5067	435
806.5107	403
806.5148	805
806.5187	523
806.5228	604
806.5268	626
806.5308	751
806.5348	709
806.5388	670
806.5428	894
806.5468	999
806.5508	914
806.5548	730
806.5588	850
806.5628	625
806.5668	344
806.5709	589
806.5748	222
806.5789	303
806.5829	102
806.5869	139
806.5909	83
806.5949	60
806.5989	102
806.6029	64
806.6109	38
806.7231	21
807.5369	38
807.5529	38
821.4696	38
880.5346	134
880.5472	115
880.5514	115
880.5555	58
880.5598	58
880.5639	77
880.5681	58
880.5765	58
880.5807	115
880.5849	58
880.5891	38
880.5933	96
880.5974	58
880.6016	115
880.6058	58
880.61	38
880.6142	58
880.6393	38
