Mass spectrum: Cer[NP] t42:1; LC-ESI-QTOF; MS2
Name: Cer[NP] t42:1
Class: Cer_NP
Formula: C42H83NO4
Exact mass: 666.1289999999999
SMILES: CCCCCCCCCCCCCCC(O)C(O)C(CO)NC(=O)CCCCCCCCC\C=C/CCCCCCCCCCCC
InChI: InChI=1S/C42H83NO4/c1-3-5-7-9-11-13-15-17-18-19-20-21-22-23-24-25-27-29-31-33-35-37-41(46)43-39(38-44)42(47)40(45)36-34-32-30-28-26-16-14-12-10-8-6-4-2/h21-22,39-40,42,44-45,47H,3-20,23-38H2,1-2H3,(H,43,46)/b22-21-
Instrument: AB Sciex TripleTOF 5600+ system (Q-TOF) equipped with a DuoSpray ion source
Instrument type: LC-ESI-QTOF
Ms type: MS2
Ion mode: NEGATIVE
Collision energy: 45V
Column name: Acquity UPLC Peptide BEH C18 column (50*2.1 mm; 1.7 um; 130A)(Waters Co.,Milford, MA, USA)
Retention time: 12.85404
Precursor type: [M+CH3COOH-H]-
Precursor m/z: 724.6445
m/z	relative intensity
223.207	3
225.22	16
232.967	3
237.225	3
246.984	3
250.257	2
253.216	5
255.232	42
263.23	3
266.244	2
266.403	3
267.232	202
279.223	4
279.237	7
280.262	11
284.258	7
297.25	3
316.284	6
347.332	17
349.35	4
363.355	2
364.357	101
365.341	150
378.37	12
379.357	11
388.357	3
390.372	57
402.375	10
406.369	108
408.383	304
419.068	5
420.346	4
420.383	270
598.583	8
598.603	9
600.599	3
610.588	3
614.588	3
616.61	4
628.585	19
628.604	69
632.586	12
632.603	17
632.62	6
634.616	3
646.58	4
646.614	26
646.64	6
662.513	2
662.55	3
664.622	999
665.627	5
724.617	1
