Mass spectrum: PS 40:6; LC-ESI-QTOF; MS2
Name: PS 40:6
Class: PS
Formula: C46H78NO10P
Exact mass: 836.103
SMILES: CCCCCCCCCCCCCCCCCC(=O)OCC(COP(O)(=O)OCC(N)C(O)=O)OC(=O)CC\C=C/C\C=C/C\C=C/C\C=C/C\C=C/C\C=C/CC
InChI: InChI=1S/C46H78NO10P/c1-3-5-7-9-11-13-15-17-19-20-21-22-24-26-28-30-32-34-36-38-45(49)57-42(40-55-58(52,53)56-41-43(47)46(50)51)39-54-44(48)37-35-33-31-29-27-25-23-18-16-14-12-10-8-6-4-2/h5,7,11,13,17,19,21-22,26,28,32,34,42-43H,3-4,6,8-10,12,14-16,18,20,23-25,27,29-31,33,35-41,47H2,1-2H3,(H,50,51)(H,52,53)/b7-5-,13-11-,19-17-,22-21-,28-26-,34-32-
Instrument: AB Sciex TripleTOF 5600+ system (Q-TOF) equipped with a DuoSpray ion source
Instrument type: LC-ESI-QTOF
Ms type: MS2
Ion mode: NEGATIVE
Collision energy: 45V
Column name: Acquity UPLC Peptide BEH C18 column (50*2.1 mm; 1.7 um; 130A)(Waters Co.,Milford, MA, USA)
Retention time: 8.68651
Precursor type: [M-H]-
Precursor m/z: 834.5288
m/z	relative intensity
78.72	0
78.958	42
96.969	10
134.981	2
149.132	1
152.527	1
152.995	194
165.989	0
171.006	5
177.161	2
189.167	0
191.179	0
229.194	7
249.176	1
249.196	0
255.21	0
281.236	1
282.349	1
282.382	4
283.263	999
284.243	1
284.271	1
309.222	0
327.232	168
417.937	2
417.973	1
419.114	0
419.255	746
420.245	0
435.901	1
437.265	325
437.337	0
453.035	0
461.785	0
463.224	98
478.136	0
481.235	21
481.273	0
494.17	0
506.304	0
518.098	0
524.278	1
524.296	0
524.309	1
531.023	0
550.269	0
566.877	0
571.151	0
651.41	0
745.09	1
745.152	2
746.495	0
747.309	0
747.494	766
747.569	1
748.478	2
748.532	1
773.509	0
831.826	0
831.892	1
831.932	0
834.43	0
834.529	467
834.586	5
835.508	3
835.536	1
835.552	2
839.526	1
