Mass spectrum: PE(18:0/8-HEPE); LC-ESI-QTOF; MS2
Name: PE(18:0/8-HEPE)
Class: Oxidized Phospholipid
Formula: C43H76NO9P
Exact mass: 782.055
SMILES: CCCCCCCCCCCCCCCCCC(=O)OCC(COP(O)(=O)OCCN)OC(=O)CCC\C=C/CC(O)\C=C\C=C/C\C=C/C\C=C/CC
InChI: InChI=1S/C43H76NO9P/c1-3-5-7-9-11-13-15-16-17-18-19-21-23-25-30-34-42(46)50-38-41(39-52-54(48,49)51-37-36-44)53-43(47)35-31-27-26-29-33-40(45)32-28-24-22-20-14-12-10-8-6-4-2/h6,8,12,14,22,24,26,28-29,32,40-41,45H,3-5,7,9-11,13,15-21,23,25,27,30-31,33-39,44H2,1-2H3,(H,48,49)/b8-6-,14-12-,24-22-,29-26-,32-28+
Instrument: Acquity UPLC Peptide BEH C18 column (50 x 2.1 mm; 1.7 um), Sciex TripleTOF5600
Instrument type: LC-ESI-QTOF
Ms type: MS2
Ion mode: NEGATIVE
Collision energy: 30-50
Precursor m/z: 780.5184935
Precursor type: [M-H]-
m/z	relative intensity
111.0865	33
127.0782	33
140.0094	33
140.0178	33
152.9906	33
155.0604	33
155.0639	52
155.0657	85
155.0675	33
155.0692	118
155.071	68
155.0727	118
155.0745	68
155.0762	68
155.078	33
155.0797	33
161.1275	85
161.1293	52
161.1311	33
161.1329	52
161.1347	52
161.1365	52
163.1523	33
196.0262	33
196.0341	33
196.038	33
196.04	33
201.1501	33
201.16	52
201.164	33
201.1721	33
253.2081	52
253.2126	52
253.2193	33
253.2238	33
253.2306	33
255.1968	33
255.199	33
255.2013	102
255.2035	68
255.2058	33
255.208	137
255.2103	153
255.2125	118
255.2148	102
255.217	68
255.2193	33
255.2216	33
255.2238	33
280.0143	33
281.2315	33
281.2339	33
281.2386	85
281.241	68
281.2434	33
281.2457	68
281.2481	33
281.2505	85
281.2528	85
281.2552	52
281.2576	52
281.2599	52
281.2647	52
283.2393	33
283.2416	33
283.2464	52
283.2488	155
283.2512	137
283.2535	293
283.2559	398
283.2583	534
283.2607	346
283.263	341
283.2654	534
283.2678	461
283.2701	310
283.2725	496
283.2749	310
283.2773	137
283.2796	120
283.282	52
283.2844	85
283.2868	33
299.1823	52
299.1847	52
299.1871	68
299.1896	52
299.192	137
299.1945	68
299.1969	85
299.1993	102
299.2018	33
299.2042	102
299.2067	85
299.2091	68
299.2115	33
299.214	52
299.2238	33
317.188	52
317.193	68
317.1955	102
317.1981	118
317.2006	186
317.2031	255
317.2056	221
317.2081	271
317.2106	170
317.2131	170
317.2156	238
317.2181	306
317.2207	186
317.2232	137
317.2257	170
317.2282	33
317.2307	52
317.2332	68
317.2357	52
317.2383	33
317.2433	52
417.2268	52
417.2326	52
417.2383	52
417.2412	33
417.2441	33
417.2499	33
417.2614	33
417.2701	33
418.2535	52
457.2318	33
462.2993	33
462.3024	52
462.3054	33
480.2882	33
480.2913	52
480.2944	33
480.2975	68
480.3006	52
480.3036	68
480.3068	68
480.3098	102
480.3129	118
480.316	153
480.3191	33
480.3222	68
480.3253	118
480.3315	52
480.3346	33
480.3439	33
496.257	52
496.2602	33
544.2581	68
544.2614	68
544.2646	33
544.2811	68
544.2844	52
544.2877	33
589.3735	33
706.5301	52
706.5526	52
780.4285	52
780.4324	52
780.4364	33
780.4403	33
780.4443	68
780.4482	52
780.4521	118
780.4561	103
780.46	68
780.464	138
780.4679	88
780.4719	175
780.4758	191
780.4797	178
780.4837	341
780.4876	478
780.4916	383
780.4955	716
780.4995	704
780.5034	704
780.5073	813
780.5113	761
780.5152	999
780.5192	976
780.5231	962
780.527	927
780.531	887
780.5349	791
780.5389	533
780.5428	589
780.5468	749
780.5507	604
780.5546	473
780.5586	163
780.5625	200
780.5665	256
780.5704	291
780.5743	127
780.5783	55
780.5822	95
780.5862	37
780.5901	18
780.5941	35
780.598	73
780.6019	40
781.4931	52
