Mass spectrum: PC 33:1; LC-ESI-QTOF; MS2
Name: PC 33:1
Class: PC
Formula: C41H80NO8P
Exact mass: 746.0659999999999
SMILES: CCCCCCCCCCCCCCCC(=O)OCC(COP([O-])(=O)OCC[N+](C)(C)C)OC(=O)CCCCCCC\C=C/CCCCCCC
InChI: InChI=1S/C41H80NO8P/c1-6-8-10-12-14-16-18-20-22-24-26-28-30-32-34-41(44)50-39(38-49-51(45,46)48-36-35-42(3,4)5)37-47-40(43)33-31-29-27-25-23-21-19-17-15-13-11-9-7-2/h18,20,39H,6-17,19,21-38H2,1-5H3/b20-18-
Instrument: AB Sciex TripleTOF 5600+ system (Q-TOF) equipped with a DuoSpray ion source
Instrument type: LC-ESI-QTOF
Ms type: MS2
Ion mode: NEGATIVE
Collision energy: 45V
Column name: Acquity UPLC Peptide BEH C18 column (50*2.1 mm; 1.7 um; 130A)(Waters Co.,Milford, MA, USA)
Retention time: 9.503921
Precursor type: [M+CH3COOH-H]-
Precursor m/z: 804.5749
m/z	relative intensity
168.04	21
224.071	26
241.214	78
241.233	13
253.205	15
253.229	22
254.439	19
255.231	807
266.399	13
267.231	853
267.259	16
269.251	26
281.245	103
281.257	26
303.243	7
327.23	5
329.241	13
357.245	5
407.632	5
411.632	5
462.291	13
466.275	7
474.297	18
478.292	13
480.289	29
480.322	29
480.34	10
492.001	5
492.294	15
492.314	18
494.314	5
500.277	7
506.343	7
659.468	8
722.516	5
728.175	11
728.217	14
730.512	485
730.54	999
731.541	13
744.533	19
745.472	6
804.554	51
804.575	75
804.605	35
