Mass spectrum: PC(16:1/9-HODE); LC-ESI-QTOF; MS2
Name: PC(16:1/9-HODE)
Class: Oxidized Phospholipid
Formula: C42H78NO9P
Exact mass: 772.06
SMILES: CCCCCC\C=C/CCCCCCCC(=O)OCC(COP([O-])(=O)OCC[N+](C)(C)C)OC(=O)CCCCCCCC(O)\C=C\C=C/CCCCC
InChI: InChI=1S/C42H78NO9P/c1-6-8-10-12-14-15-16-17-18-19-21-25-29-33-41(45)49-37-40(38-51-53(47,48)50-36-35-43(3,4)5)52-42(46)34-30-26-22-24-28-32-39(44)31-27-23-20-13-11-9-7-2/h15-16,20,23,27,31,39-40,44H,6-14,17-19,21-22,24-26,28-30,32-38H2,1-5H3/b16-15-,23-20-,31-27+
Instrument: Acquity UPLC Peptide BEH C18 column (50 x 2.1 mm; 1.7 um), Sciex TripleTOF5600
Instrument type: LC-ESI-QTOF
Ms type: MS2
Ion mode: NEGATIVE
Collision energy: 30-50
Precursor m/z: 830.5552726
Precursor type: [M+CH3COOH-H]-
m/z	relative intensity
168.0361	8
168.0379	13
168.0415	13
168.0452	13
168.047	8
171.0915	8
171.0952	8
171.0971	8
171.0989	21
171.1008	8
171.1026	17
171.1045	13
171.1082	8
171.11	13
171.1118	13
171.1137	8
224.061	17
224.0652	8
246.966	9
252.4196	8
252.4285	9
252.433	19
252.4509	9
253.1868	5
253.1891	5
253.1913	24
253.1936	19
253.1958	56
253.198	85
253.2003	85
253.2025	130
253.2048	236
253.207	340
253.2093	498
253.2115	662
253.2138	688
253.216	741
253.2183	768
253.2205	679
253.2227	492
253.225	405
253.2272	270
253.2295	147
253.2317	122
253.234	67
253.2362	35
253.2385	9
253.2407	29
253.243	19
253.2452	24
253.4496	5
253.5147	5
253.7125	5
254.2207	5
254.2251	5
254.6978	5
259.2169	8
277.1945	8
277.2039	47
277.2062	35
277.2086	39
277.2109	64
277.2133	47
277.2156	73
277.218	47
277.2203	39
277.2227	43
277.225	17
277.2274	30
277.2297	17
277.2344	17
277.2368	13
278.2197	13
281.2427	9
282.2398	9
283.2766	9
294.2989	9
295.1782	9
295.1976	5
295.2	9
295.2024	8
295.2049	27
295.2073	22
295.2097	44
295.2121	72
295.2145	98
295.217	203
295.2194	230
295.2218	212
295.2242	280
295.2267	193
295.2291	247
295.2315	248
295.2339	180
295.2364	131
295.2388	77
295.2412	40
295.2437	32
295.2461	13
295.2485	27
295.2509	18
295.2533	9
295.2558	9
295.2582	5
296.2215	5
297.7193	5
431.192	8
431.1949	8
431.2037	8
431.2301	13
431.233	8
449.2319	8
460.2654	8
460.2745	8
460.3018	13
478.2863	8
478.2894	8
478.2925	21
478.3079	17
478.3141	8
478.3203	8
502.2726	13
502.2884	13
502.2915	8
502.2947	13
502.2979	8
502.301	17
502.3042	8
502.3073	30
502.3137	13
520.2626	13
520.2691	8
520.2723	8
520.2787	8
520.2852	43
520.2884	47
520.2916	35
520.2949	21
520.298	30
520.3013	43
520.3045	51
520.3077	26
520.3109	30
520.3141	30
520.3174	17
520.3206	26
520.3238	21
520.327	17
520.3303	17
520.3335	8
520.3367	17
520.3399	13
684.295	8
685.4027	8
685.4175	8
685.4286	8
685.4323	13
685.436	21
685.4434	13
685.447	21
685.4507	13
685.4544	8
685.4655	17
685.4692	8
754.1118	8
754.1466	8
754.166	13
754.1699	8
755.6431	9
756.4306	8
756.4345	8
756.4656	11
756.4694	51
756.4733	56
756.4772	112
756.4811	153
756.485	241
756.4888	247
756.4927	432
756.4966	495
756.5005	466
756.5043	745
756.5082	774
756.5121	851
756.516	878
756.5199	999
756.5237	890
756.5276	860
756.5316	777
756.5354	770
756.5393	648
756.5432	514
756.5471	459
756.5509	284
756.5548	235
756.5587	161
756.5626	117
756.5665	85
756.5703	96
756.5742	48
756.5781	21
756.582	32
756.5859	16
756.5897	5
756.5936	11
756.5975	5
756.6014	19
756.613	5
756.7178	5
757.5021	13
757.506	8
757.5137	10
757.5176	17
757.5215	21
757.5409	17
771.4608	13
771.4647	17
771.4803	13
771.4882	13
771.4921	17
771.4999	8
771.5038	13
771.5078	8
830.492	8
830.5082	8
830.5123	17
830.5164	8
830.5204	17
830.5245	17
830.5286	39
830.5327	21
830.5367	26
830.5408	51
830.5449	39
830.5489	35
830.553	64
830.5571	99
830.5611	64
830.5652	60
830.5692	69
830.5733	56
830.5774	47
830.5814	39
830.5855	43
830.5896	30
830.5936	30
830.5977	17
830.6017	13
830.6058	26
830.6099	8
830.614	17
830.6221	8
