Mass spectrum: PE 37:4; LC-ESI-QTOF; MS2
Name: PE 37:4
Class: PE
Formula: C42H76NO8P
Exact mass: 754.0449999999998
SMILES: CCCCCCCCCCCCCCCCC(=O)OCC(COP(O)(=O)OCCN)OC(=O)CCCCCC\C=C/C\C=C/C\C=C/C\C=C/CC
InChI: InChI=1S/C42H76NO8P/c1-3-5-7-9-11-13-15-17-19-20-21-23-25-27-29-31-33-35-42(45)51-40(39-50-52(46,47)49-37-36-43)38-48-41(44)34-32-30-28-26-24-22-18-16-14-12-10-8-6-4-2/h5,7,11,13,17,19,21,23,40H,3-4,6,8-10,12,14-16,18,20,22,24-39,43H2,1-2H3,(H,46,47)/b7-5-,13-11-,19-17-,23-21-
Instrument: AB Sciex TripleTOF 5600+ system (Q-TOF) equipped with a DuoSpray ion source
Instrument type: LC-ESI-QTOF
Ms type: MS2
Ion mode: NEGATIVE
Collision energy: 45V
Column name: Acquity UPLC Peptide BEH C18 column (50*2.1 mm; 1.7 um; 130A)(Waters Co.,Milford, MA, USA)
Retention time: 9.851647
Precursor type: [M-H]-
Precursor m/z: 752.5183
m/z	relative intensity
140.0	6
140.013	12
196.036	32
205.194	21
231.211	7
259.236	52
259.249	38
268.395	4
269.248	512
279.235	8
285.222	11
301.222	6
302.275	9
303.2	36
303.232	999
303.267	13
305.224	3
305.557	1
330.252	3
426.226	6
436.292	8
448.276	13
448.311	6
466.248	4
466.291	106
482.268	9
750.092	3
752.448	12
752.512	488
752.557	30
