Mass spectrum: PC(18:2/11,12-EpETE); LC-ESI-QTOF; MS2
Name: PC(18:2/11,12-EpETE)
Class: Oxidized Phospholipid
Formula: C46H78NO9P
Exact mass: 820.104
SMILES: CCCCC\C=C/C\C=C/CCCCCCCC(=O)OCC(COP([O-])(=O)OCC[N+](C)(C)C)OC(=O)CCC\C=C/C\C=C/CC1OC1C\C=C/C\C=C/CC
InChI: InChI=1S/C46H78NO9P/c1-6-8-10-12-14-15-16-17-18-19-20-21-24-28-32-36-45(48)52-40-42(41-54-57(50,51)53-39-38-47(3,4)5)55-46(49)37-33-29-25-22-23-27-31-35-44-43(56-44)34-30-26-13-11-9-7-2/h9,11,14-15,17-18,22,25-27,30-31,42-44H,6-8,10,12-13,16,19-21,23-24,28-29,32-41H2,1-5H3/b11-9-,15-14-,18-17-,25-22-,30-26-,31-27-
Instrument: Acquity UPLC Peptide BEH C18 column (50 x 2.1 mm; 1.7 um), Sciex TripleTOF5600
Instrument type: LC-ESI-QTOF
Ms type: MS2
Ion mode: NEGATIVE
Collision energy: 30-50
Precursor m/z: 878.5552726
Precursor type: [M+CH3COOH-H]-
m/z	relative intensity
167.1013	51
167.1031	77
167.1049	77
167.1068	51
167.1086	77
167.1104	77
167.1122	51
168.0383	51
179.1048	51
179.1067	51
179.1086	77
195.0969	51
207.0968	51
208.101	77
208.1051	51
208.1153	51
224.0625	51
224.0668	51
255.2013	51
255.2216	51
279.2144	77
279.2168	159
279.2191	102
279.2215	128
279.2239	236
279.2262	420
279.2286	184
279.2309	261
279.2333	313
279.2357	261
279.238	313
279.2404	159
279.2427	210
279.2451	159
279.2474	102
279.2498	77
279.2569	51
317.193	51
317.198	77
317.2005	77
317.203	159
317.2055	159
317.2081	184
317.2106	287
317.2131	236
317.2156	420
317.2181	102
317.2206	210
317.2231	51
317.2256	128
317.2307	51
486.2994	51
504.2885	77
504.2948	51
504.3012	77
504.3043	51
504.3075	77
504.3107	51
504.317	77
504.3202	210
504.3234	77
504.3297	51
504.3329	51
524.2668	51
542.278	51
793.4779	51
804.4495	102
804.4534	51
804.4575	128
804.4655	102
804.4695	77
804.4734	236
804.4775	287
804.4815	77
804.4855	394
804.4895	446
804.4935	394
804.4975	446
804.5015	446
804.5055	789
804.5095	999
804.5135	789
804.5175	630
804.5215	712
804.5255	789
804.5295	789
804.5335	681
804.5375	528
804.5415	553
804.5455	630
804.5495	553
804.5535	420
804.5575	313
804.5615	261
804.5655	261
804.5695	159
804.5735	159
804.5775	102
804.5815	51
804.5855	77
804.6016	77
805.5344	51
805.5464	77
805.5704	51
878.481	51
878.4893	77
878.4977	51
878.5018	51
878.5186	51
878.5228	102
878.527	102
878.5353	128
878.5395	51
878.5437	128
878.5479	128
878.5521	128
878.5562	210
878.5604	128
878.5688	51
878.5729	159
878.5813	159
878.5855	210
878.5897	128
878.5939	128
878.598	51
