Mass spectrum: PE(16:0/19,20-EpDPE); LC-ESI-QTOF; MS2
Name: PE(16:0/19,20-EpDPE)
Class: Oxidized Phospholipid
Formula: C43H74NO9P
Exact mass: 780.039
SMILES: CCCCCCCCCCCCCCCC(=O)OCC(COP(O)(=O)OCCN)OC(=O)CC\C=C/C\C=C/C\C=C/C\C=C/C\C=C/CC1OC1CC
InChI: InChI=1S/C43H74NO9P/c1-3-5-6-7-8-9-10-14-18-21-24-27-30-33-42(45)49-37-39(38-51-54(47,48)50-36-35-44)52-43(46)34-31-28-25-22-19-16-13-11-12-15-17-20-23-26-29-32-41-40(4-2)53-41/h11-12,16-17,19-20,25-26,28-29,39-41H,3-10,13-15,18,21-24,27,30-38,44H2,1-2H3,(H,47,48)/b12-11-,19-16-,20-17-,28-25-,29-26-
Instrument: Acquity UPLC Peptide BEH C18 column (50 x 2.1 mm; 1.7 um), Sciex TripleTOF5600
Instrument type: LC-ESI-QTOF
Ms type: MS2
Ion mode: NEGATIVE
Collision energy: 30-50
Precursor m/z: 778.5028435
Precursor type: [M-H]-
m/z	relative intensity
78.96172	12
96.96031	19
96.9617	12
96.96309	12
96.96587	12
161.1316	12
227.1808	12
241.1905	12
241.1927	12
241.2015	19
255.2157	38
255.2179	12
255.2202	19
255.2224	38
255.2247	63
255.2269	44
255.2292	70
255.2315	89
255.2337	95
255.236	115
255.2382	70
255.2405	32
255.2427	32
255.245	26
255.2472	12
255.2495	19
265.1772	12
281.2231	19
281.2255	12
281.2278	12
281.2325	12
281.2373	12
285.1861	12
285.1884	12
299.2224	12
299.2248	19
299.2321	12
299.2346	19
299.237	19
299.2419	26
299.2444	19
299.2468	19
299.2517	19
325.2102	19
325.2153	19
325.2179	12
343.2211	44
343.2237	19
343.2263	26
343.2289	44
343.2315	12
343.2342	32
343.2368	32
343.2394	26
343.242	12
343.2472	12
452.275	32
452.278	19
452.281	19
452.29	12
452.293	19
452.296	19
452.302	12
704.5468	12
704.5655	12
778.4269	12
778.4308	12
778.4387	19
778.4545	16
778.4584	13
778.4623	73
778.4662	104
778.4702	102
778.4741	252
778.4781	291
778.482	236
778.486	385
778.4899	347
778.4938	546
778.4977	704
778.5017	742
778.5056	750
778.5096	859
778.5135	999
778.5175	898
778.5214	816
778.5253	966
778.5292	748
778.5332	871
778.5372	740
778.5411	743
778.545	532
778.549	553
778.5529	394
778.5568	274
778.5607	278
778.5647	167
778.5686	135
778.5726	111
778.5765	113
778.5804	75
778.5844	46
778.5883	15
778.5923	7
778.5962	22
778.6002	14
778.6119	12
778.7025	7
779.0057	8
779.4587	12
779.4902	12
779.4941	12
779.5178	26
779.5217	19
779.5335	26
779.5493	12
779.5571	12
