Mass spectrum: Cer[NS] d38:1; LC-ESI-QTOF; MS2
Name: Cer[NS] d38:1
Class: Cer_NS
Formula: C38H75NO3
Exact mass: 594.0219999999998
SMILES: CCCCCCCCCCCCCCCCCC(=O)NC(CO)C(O)\C=C\CCCCCCCCCCCCCCC
InChI: InChI=1S/C38H75NO3/c1-3-5-7-9-11-13-15-17-19-21-23-25-27-29-31-33-37(41)36(35-40)39-38(42)34-32-30-28-26-24-22-20-18-16-14-12-10-8-6-4-2/h31,33,36-37,40-41H,3-30,32,34-35H2,1-2H3,(H,39,42)/b33-31+
Instrument: AB Sciex TripleTOF 5600+ system (Q-TOF) equipped with a DuoSpray ion source
Instrument type: LC-ESI-QTOF
Ms type: MS2
Ion mode: NEGATIVE
Collision energy: 45V
Column name: Acquity UPLC Peptide BEH C18 column (50*2.1 mm; 1.7 um; 130A)(Waters Co.,Milford, MA, USA)
Retention time: 12.1937
Precursor type: [M+CH3COOH-H]-
Precursor m/z: 652.588
m/z	relative intensity
235.22	1
237.224	20
239.233	1
250.247	2
263.238	30
265.252	172
266.243	3
267.265	4
268.269	6
278.291	3
281.281	11
282.279	61
283.265	47
291.27	67
293.273	12
293.288	22
294.282	11
296.289	10
298.275	2
306.279	3
307.339	4
308.295	370
309.281	3
309.316	3
310.298	5
310.314	15
311.293	16
324.288	65
326.305	4
336.306	17
336.326	112
352.299	3
352.317	11
352.335	4
517.521	2
544.543	66
544.564	17
556.56	2
560.505	7
560.531	47
560.557	28
562.557	125
564.593	2
574.56	9
590.697	7
592.426	1
592.503	5
592.565	999
593.57	4
