Mass spectrum: PI 40:8; LC-ESI-QTOF; MS2
Name: PI 40:8
Class: PI
Formula: C49H79O13P
Exact mass: 907.134
SMILES: CC\C=C/C\C=C/C\C=C/C\C=C/CCCCCCC(=O)OCC(COP(O)(=O)OC1C(O)C(O)C(O)C(O)C1O)OC(=O)CCCCCC\C=C/C\C=C/C\C=C/C\C=C/CC
InChI: InChI=1S/C49H79O13P/c1-3-5-7-9-11-13-15-17-19-21-23-25-27-29-31-33-35-37-42(50)59-39-41(40-60-63(57,58)62-49-47(55)45(53)44(52)46(54)48(49)56)61-43(51)38-36-34-32-30-28-26-24-22-20-18-16-14-12-10-8-6-4-2/h5-8,11-14,17-20,23-26,41,44-49,52-56H,3-4,9-10,15-16,21-22,27-40H2,1-2H3,(H,57,58)/b7-5-,8-6-,13-11-,14-12-,19-17-,20-18-,25-23-,26-24-
Instrument: AB Sciex TripleTOF 5600+ system (Q-TOF) equipped with a DuoSpray ion source
Instrument type: LC-ESI-QTOF
Ms type: MS2
Ion mode: NEGATIVE
Collision energy: 45V
Column name: Acquity UPLC Peptide BEH C18 column (50*2.1 mm; 1.7 um; 130A)(Waters Co.,Milford, MA, USA)
Retention time: 8.071504
Precursor type: [M-H]-
Precursor m/z: 905.5188
m/z	relative intensity
241.009	176
279.226	165
283.252	35
303.231	88
327.227	65
415.227	43
439.218	21
577.278	54
595.301	35
601.275	32
625.28	32
843.394	21
875.444	21
904.973	21
905.427	43
905.516	999
905.54	444
905.573	143
