Mass spectrum: PE(18:0/20-HETE); LC-ESI-QTOF; MS2
Name: PE(18:0/20-HETE)
Class: Oxidized Phospholipid
Formula: C43H78NO9P
Exact mass: 784.071
SMILES: CCCCCCCCCCCCCCCCCC(=O)OCC(COP(O)(=O)OCCN)OC(=O)CCC\C=C/C\C=C/C\C=C/C\C=C/CCCCCO
InChI: InChI=1S/C43H78NO9P/c1-2-3-4-5-6-7-8-9-13-16-19-22-25-28-31-34-42(46)50-39-41(40-52-54(48,49)51-38-36-44)53-43(47)35-32-29-26-23-20-17-14-11-10-12-15-18-21-24-27-30-33-37-45/h10,12,14,17-18,21,23,26,41,45H,2-9,11,13,15-16,19-20,22,24-25,27-40,44H2,1H3,(H,48,49)/b12-10-,17-14-,21-18-,26-23-
Instrument: Acquity UPLC Peptide BEH C18 column (50 x 2.1 mm; 1.7 um), Sciex TripleTOF5600
Instrument type: LC-ESI-QTOF
Ms type: MS2
Ion mode: NEGATIVE
Collision energy: 30-50
Precursor m/z: 782.5341436
Precursor type: [M-H]-
m/z	relative intensity
140.0079	15
140.0096	15
140.0113	39
140.0146	15
140.018	15
149.1393	15
196.0285	24
196.0304	15
196.0344	39
196.0364	15
196.0383	24
196.0403	15
196.0423	47
196.0462	15
214.048	15
222.9997	15
227.1954	15
227.1975	32
227.1996	32
227.2039	15
227.2081	15
227.2166	15
228.2025	15
228.2046	24
228.211	15
228.2131	15
241.0061	15
241.0105	15
241.0127	15
245.2235	24
245.2257	15
245.2279	32
245.2301	15
255.2175	15
255.2243	15
255.2311	15
255.2333	39
255.2356	15
255.2378	15
255.2446	15
256.2261	15
256.2284	15
256.2397	15
256.2419	15
257.2254	32
257.2276	15
257.2299	24
257.2321	32
257.2344	24
257.2412	15
257.2435	15
259.0253	15
273.2143	15
273.2166	32
273.2306	15
273.2399	24
275.2284	32
275.2307	15
275.233	32
275.2354	32
275.2377	39
275.2401	39
275.2424	15
275.2447	32
275.2471	24
275.2494	15
275.2517	24
281.251	15
282.26	16
282.3857	15
282.388	24
282.3928	16
283.1971	16
283.209	16
283.2114	33
283.2399	33
283.2422	24
283.2446	50
283.247	106
283.2494	173
283.2517	187
283.2541	247
283.2565	305
283.2589	316
283.2612	420
283.2636	455
283.266	472
283.2684	466
283.2707	439
283.2731	324
283.2755	265
283.2779	192
283.2802	116
283.2826	33
283.285	33
283.2874	50
283.2897	16
283.2921	16
283.2945	25
283.3016	9
283.6722	9
283.6817	9
284.2595	15
289.2051	15
289.2075	24
289.2123	55
289.2147	24
289.2171	24
289.2195	32
289.2243	15
289.2267	24
289.2291	39
289.2315	15
290.2162	15
301.1997	15
301.2022	15
301.2046	32
301.2071	39
301.2095	64
301.212	71
301.2144	64
301.2169	64
301.2193	47
301.2218	24
301.2242	103
301.2267	39
301.2291	24
301.2316	15
301.234	15
301.2389	15
301.2414	15
301.2462	15
305.2439	24
317.2163	25
317.2239	16
318.2274	16
319.1845	15
319.1921	24
319.1946	16
319.1972	9
319.1997	50
319.2022	26
319.2047	68
319.2072	87
319.2097	111
319.2123	207
319.2148	438
319.2173	548
319.2198	630
319.2224	668
319.2249	907
319.2274	999
319.2299	894
319.2325	782
319.235	758
319.2375	661
319.24	554
319.2426	348
319.2451	208
319.2476	130
319.2501	87
319.2526	70
319.2551	79
319.2577	18
319.2602	53
319.2627	17
319.2703	17
319.2728	9
319.2804	9
319.5729	9
320.0447	9
320.224	24
320.2265	24
320.2366	15
320.2391	24
320.2416	15
320.2492	24
392.2371	15
410.2423	15
462.2853	15
462.2884	15
462.2975	24
462.3035	15
462.3126	15
462.3157	24
480.277	15
480.2801	15
480.2863	15
480.2894	32
480.2925	87
480.2956	47
480.2987	71
480.3018	79
480.3049	87
480.308	15
480.311	118
480.3141	79
480.3172	126
480.3203	79
480.3234	71
480.3265	64
480.3296	64
480.3327	24
480.3358	32
480.3389	24
480.3451	15
480.3482	15
480.3574	15
490.8417	15
516.2869	15
516.29	15
516.2964	15
526.2538	15
554.2724	15
554.2857	15
554.3123	15
780.0484	15
780.0681	15
780.0917	15
782.4147	15
782.4462	15
782.4502	32
782.4541	24
782.4581	16
782.462	24
782.4659	82
782.4699	41
782.4739	65
782.4778	33
782.4818	129
782.4857	134
782.4896	269
782.4936	121
782.4976	150
782.5015	249
782.5054	394
782.5094	418
782.5133	262
782.5173	454
782.5212	675
782.5251	573
782.5291	605
782.5331	733
782.537	787
782.541	925
782.5449	681
782.5488	647
782.5528	516
782.5568	622
782.5607	540
782.5646	457
782.5686	469
782.5725	290
782.5765	250
782.5804	208
782.5844	126
782.5883	118
782.5923	71
782.5962	54
782.6002	36
782.6041	18
782.612	18
782.616	18
782.6199	40
782.6238	22
782.7067	9
783.4965	15
783.5043	15
783.5122	15
783.5162	9
783.5201	32
783.524	15
783.532	24
783.5359	39
783.5399	32
783.5478	15
783.5517	32
783.5557	24
783.5636	32
783.5675	24
783.5793	15
783.5873	24
