Mass spectrum: PS 36:3; LC-ESI-QTOF; MS2
Name: PS 36:3
Class: PS
Formula: C42H76NO10P
Exact mass: 786.0429999999999
SMILES: CCCCCCCC\C=C/CCCCCCCC(=O)OCC(COP(O)(=O)OCC(N)C(O)=O)OC(=O)CCCCCCC\C=C/C\C=C/CCCCC
InChI: InChI=1S/C42H76NO10P/c1-3-5-7-9-11-13-15-17-19-21-23-25-27-29-31-33-40(44)50-35-38(36-51-54(48,49)52-37-39(43)42(46)47)53-41(45)34-32-30-28-26-24-22-20-18-16-14-12-10-8-6-4-2/h12,14,17-20,38-39H,3-11,13,15-16,21-37,43H2,1-2H3,(H,46,47)(H,48,49)/b14-12-,19-17-,20-18-
Instrument: AB Sciex TripleTOF 5600+ system (Q-TOF) equipped with a DuoSpray ion source
Instrument type: LC-ESI-QTOF
Ms type: MS2
Ion mode: NEGATIVE
Collision energy: 45V
Column name: Acquity UPLC Peptide BEH C18 column (50*2.1 mm; 1.7 um; 130A)(Waters Co.,Milford, MA, USA)
Retention time: 8.441325
Precursor type: [M-H]-
Precursor m/z: 784.5134
m/z	relative intensity
152.995	145
203.174	148
247.172	666
255.222	199
255.227	223
255.235	720
279.22	299
279.227	819
279.237	771
281.237	199
281.242	347
281.249	717
281.256	345
283.246	111
327.223	97
345.248	48
391.23	80
415.224	194
417.221	72
417.242	318
435.252	97
472.262	48
480.289	170
483.286	80
696.457	48
697.426	48
697.437	72
697.448	172
697.455	172
697.463	223
697.487	999
710.404	48
710.412	99
710.445	148
710.455	323
710.476	693
710.494	148
710.513	72
745.502	80
784.457	226
784.47	372
784.485	272
784.504	868
784.546	345
