Mass spectrum: PC 40:1; LC-ESI-QTOF; MS2
Name: PC 40:1
Class: PC
Formula: C48H94NO8P
Exact mass: 844.2549999999999
SMILES: CCCCCCCCCCCCCCCC(=O)OCC(COP([O-])(=O)OCC[N+](C)(C)C)OC(=O)CCCCCCCCCCC\C=C/CCCCCCCCCC
InChI: InChI=1S/C48H94NO8P/c1-6-8-10-12-14-16-18-20-21-22-23-24-25-26-27-29-31-33-35-37-39-41-48(51)57-46(45-56-58(52,53)55-43-42-49(3,4)5)44-54-47(50)40-38-36-34-32-30-28-19-17-15-13-11-9-7-2/h22-23,46H,6-21,24-45H2,1-5H3/b23-22-
Instrument: AB Sciex TripleTOF 5600+ system (Q-TOF) equipped with a DuoSpray ion source
Instrument type: LC-ESI-QTOF
Ms type: MS2
Ion mode: NEGATIVE
Collision energy: 45V
Column name: Acquity UPLC Peptide BEH C18 column (50*2.1 mm; 1.7 um; 130A)(Waters Co.,Milford, MA, USA)
Retention time: 13.07663
Precursor type: [M+CH3COOH-H]-
Precursor m/z: 902.6884
m/z	relative intensity
141.017	12
168.042	23
224.072	7
227.203	7
253.125	3
253.212	7
254.443	5
255.113	10
255.229	409
255.242	82
267.232	3
281.244	105
283.264	31
309.276	8
311.292	7
337.303	57
337.32	32
339.319	8
339.327	21
339.334	8
339.347	8
365.336	161
365.346	57
365.351	60
365.357	33
365.368	17
365.379	7
449.311	7
462.301	7
480.316	20
488.333	3
508.341	3
564.392	3
572.406	10
590.411	23
628.532	10
646.614	41
728.598	7
755.602	5
760.621	10
799.6	21
799.622	27
799.66	186
799.687	87
799.72	19
800.663	8
826.123	10
826.681	10
828.604	65
828.612	105
828.628	189
828.652	999
828.707	62
828.718	26
842.706	28
843.62	16
902.63	8
902.638	7
902.647	14
902.655	21
902.664	23
902.672	32
902.681	48
902.689	37
902.698	39
902.706	23
902.715	23
902.723	17
902.74	12
