Mass spectrum: PE(18:2e/10-HDoHE); LC-ESI-QTOF; MS2
Name: PE(18:2e/10-HDoHE)
Class: Oxidized Phospholipid
Formula: C45H76NO8P
Exact mass: 790.078
SMILES: CCCCCCCCCCCCC\C=C/C\C=C/OCC(COP(O)(=O)OCCN)OC(=O)CC\C=C/C\C=C/CC(O)\C=C\C=C/C\C=C/C\C=C/CC
InChI: InChI=1S/C45H76NO8P/c1-3-5-7-9-11-13-15-16-17-18-19-20-22-26-30-34-39-51-41-44(42-53-55(49,50)52-40-38-46)54-45(48)37-33-29-25-24-28-32-36-43(47)35-31-27-23-21-14-12-10-8-6-4-2/h6,8,12,14,22-23,25-29,31-32,34-35,39,43-44,47H,3-5,7,9-11,13,15-21,24,30,33,36-38,40-42,46H2,1-2H3,(H,49,50)/b8-6-,14-12-,26-22-,27-23-,29-25-,32-28-,35-31+,39-34-
Instrument: Acquity UPLC Peptide BEH C18 column (50 x 2.1 mm; 1.7 um), Sciex TripleTOF5600
Instrument type: LC-ESI-QTOF
Ms type: MS2
Ion mode: NEGATIVE
Collision energy: 30-50
Precursor m/z: 788.5235789
Precursor type: [M-H]-
m/z	relative intensity
78.95788	34
78.96289	22
78.96414	34
121.0997	22
123.122	22
137.0947	34
140.0094	22
140.0111	22
152.9993	23
153.0814	34
153.0849	67
153.0866	136
153.0884	136
153.0901	148
153.0918	136
153.0936	217
153.0953	159
153.0971	159
153.0988	68
153.1006	68
153.1041	23
161.1185	22
161.1203	22
161.1257	22
161.1293	34
161.1311	67
161.1329	45
161.14	34
161.1472	22
179.91	22
181.0796	56
181.0815	34
181.0834	90
181.0853	56
181.0872	90
181.0891	45
181.091	67
181.0929	22
181.0967	45
181.0986	22
189.167	22
190.1269	22
190.1328	22
190.1347	22
190.1366	22
190.1386	45
190.1464	22
196.03	22
196.034	34
196.036	45
196.0379	22
196.0399	22
196.0419	34
196.0439	22
226.19	22
253.2035	22
265.2427	34
265.2496	22
265.2542	22
265.2634	34
281.2101	22
281.2124	45
281.2148	56
281.2172	78
281.2195	158
281.2219	112
281.2243	147
281.2267	147
281.229	123
281.2314	112
281.2337	158
281.2361	101
281.2385	67
281.2408	67
281.2432	22
281.2456	45
281.2479	45
281.2503	45
281.2527	45
281.255	45
281.2574	22
281.2598	22
281.2621	22
281.2668	22
283.2438	22
283.251	34
283.2534	45
283.2652	34
283.2676	22
283.27	34
299.2284	34
299.2309	34
299.2357	45
299.2382	34
299.2455	45
299.2504	34
299.2528	34
299.2553	22
325.196	22
325.2011	22
325.2037	90
325.2062	56
325.2088	45
325.2113	78
325.2139	123
325.2164	78
325.219	78
325.2215	90
325.224	56
325.2266	34
325.2291	56
325.2317	45
325.2368	22
343.2012	34
343.2065	34
343.2091	101
343.2117	112
343.2143	158
343.2169	135
343.2195	180
343.2221	180
343.2248	191
343.2274	147
343.23	214
343.2326	169
343.2352	191
343.2378	180
343.2404	90
343.243	101
343.2457	67
343.2483	22
343.2509	34
343.2535	34
401.243	22
401.26	22
417.2236	22
419.2521	22
419.255	34
419.2579	34
437.2611	34
444.2608	22
444.2727	67
444.2757	34
444.2786	56
444.2816	45
444.2846	56
444.2876	45
444.2905	45
444.2935	45
444.2965	135
444.2995	34
444.3024	34
444.3054	45
444.3084	34
444.3143	22
444.3173	22
462.2625	34
462.2656	56
462.2686	34
462.2716	34
462.2747	90
462.2777	90
462.2807	45
462.2838	90
462.2868	159
462.2898	170
462.2928	125
462.2959	283
462.2989	226
462.302	318
462.305	203
462.308	217
462.3111	204
462.3141	148
462.3171	193
462.3202	114
462.3232	68
462.3262	22
462.3293	23
462.3323	22
462.3353	34
515.1667	22
701.4752	22
701.4977	22
701.5014	45
701.5164	22
701.5313	22
701.535	22
714.4799	22
714.5327	22
720.4437	22
786.0427	34
788.4379	22
788.4537	34
788.4576	22
788.4616	45
788.4695	71
788.4735	97
788.4775	118
788.4814	171
788.4854	147
788.4894	234
788.4933	406
788.4973	464
788.5012	504
788.5052	494
788.5092	518
788.5131	648
788.5171	771
788.5211	860
788.525	999
788.529	899
788.533	996
788.5369	751
788.5409	772
788.5448	859
788.5488	657
788.5527	572
788.5567	472
788.5607	459
788.5646	297
788.5686	226
788.5726	161
788.5765	136
788.5805	110
788.5845	171
788.5884	49
788.5924	24
788.5963	12
788.6003	50
788.6042	25
788.6201	23
788.957	13
789.4841	22
789.4921	45
789.5119	22
789.5317	34
789.5357	22
789.5436	78
789.5475	22
789.5515	22
789.5634	34
