Mass spectrum: Cer[NS] d42:3; LC-ESI-QTOF; MS2
Name: Cer[NS] d42:3
Class: Cer_NS
Formula: C42H79NO3
Exact mass: 646.098
SMILES: CCCCCCCCCCCCC\C=C\C(O)C(CO)NC(=O)CCCCCCCCCCCCCCCC\C=C/C\C=C/CC
InChI: InChI=1S/C42H79NO3/c1-3-5-7-9-11-13-15-17-18-19-20-21-22-23-24-26-28-30-32-34-36-38-42(46)43-40(39-44)41(45)37-35-33-31-29-27-25-16-14-12-10-8-6-4-2/h5,7,11,13,35,37,40-41,44-45H,3-4,6,8-10,12,14-34,36,38-39H2,1-2H3,(H,43,46)/b7-5-,13-11-,37-35+
Instrument: AB Sciex TripleTOF 5600+ system (Q-TOF) equipped with a DuoSpray ion source
Instrument type: LC-ESI-QTOF
Ms type: MS2
Ion mode: NEGATIVE
Collision energy: 45V
Column name: Acquity UPLC Peptide BEH C18 column (50*2.1 mm; 1.7 um; 130A)(Waters Co.,Milford, MA, USA)
Retention time: 12.64276
Precursor type: [M+CH3COOH-H]-
Precursor m/z: 704.6184
m/z	relative intensity
235.203	16
237.222	78
237.243	4
239.234	3
250.248	3
255.237	2
261.218	9
263.227	19
263.239	48
263.262	3
266.25	12
268.264	10
298.254	2
298.28	3
345.315	57
347.329	12
361.354	3
362.338	65
363.323	54
363.361	4
364.356	10
365.327	4
365.35	5
387.149	4
388.313	3
388.356	435
390.346	6
390.372	42
402.336	2
404.349	48
404.367	12
406.369	9
569.567	2
596.565	48
596.584	34
612.554	16
612.576	53
612.636	1
614.543	8
614.563	22
614.586	99
614.618	19
626.58	4
642.52	1
642.583	5
644.491	2
644.596	999
644.667	5
645.596	3
704.602	1
