Mass spectrum: PC(16:0/5-HEPE); LC-ESI-QTOF; MS2
Name: PC(16:0/5-HEPE)
Class: Oxidized Phospholipid
Formula: C44H78NO9P
Exact mass: 796.082
SMILES: CCCCCCCCCCCCCCCC(=O)OCC(COP([O-])(=O)OCC[N+](C)(C)C)OC(=O)CCCC(O)\C=C\C=C/C\C=C/C\C=C/C\C=C/CC
InChI: InChI=1S/C44H78NO9P/c1-6-8-10-12-14-16-18-20-22-24-26-28-30-33-41(46)34-32-36-44(48)54-42(40-53-55(49,50)52-38-37-45(3,4)5)39-51-43(47)35-31-29-27-25-23-21-19-17-15-13-11-9-7-2/h8,10,14,16,20,22,26,28,30,33,41-42,46H,6-7,9,11-13,15,17-19,21,23-25,27,29,31-32,34-40H2,1-5H3/b10-8-,16-14-,22-20-,28-26-,33-30+
Instrument: Acquity UPLC Peptide BEH C18 column (50 x 2.1 mm; 1.7 um), Sciex TripleTOF5600
Instrument type: LC-ESI-QTOF
Ms type: MS2
Ion mode: NEGATIVE
Collision energy: 30-50
Precursor m/z: 854.5552726
Precursor type: [M+CH3COOH-H]-
m/z	relative intensity
115.0354	35
115.0384	58
115.0399	35
115.0414	47
115.0429	23
115.046	23
163.1508	23
168.0385	23
168.0513	23
201.1583	23
201.1603	35
201.1623	23
201.1643	35
224.0543	23
224.0648	23
224.0669	23
224.0733	23
253.2105	23
254.4312	24
255.2014	82
255.2037	47
255.206	153
255.2082	71
255.2105	35
255.2127	35
255.215	82
255.2172	84
255.2195	225
255.2217	156
255.224	252
255.2262	356
255.2285	322
255.2307	286
255.233	309
255.2353	438
255.2375	262
255.2398	200
255.242	213
255.2443	117
255.2465	70
255.2488	71
255.251	23
255.2533	35
279.2382	23
281.2388	23
281.2412	23
299.1824	23
299.1848	23
299.1897	70
299.1922	58
299.1946	70
299.1971	94
299.1995	70
299.2019	128
299.2044	94
299.2068	94
299.2117	47
299.2141	58
299.2166	23
317.1856	23
317.1931	35
317.1957	35
317.1982	81
317.2007	94
317.2032	81
317.2057	164
317.2083	152
317.2108	222
317.2133	117
317.2158	222
317.2183	152
317.2208	105
317.2233	94
317.2283	35
317.2308	81
317.2334	23
391.2197	23
462.2872	47
480.282	23
480.2881	23
480.2913	35
480.2943	47
480.2975	58
480.3005	58
480.3036	81
480.3067	58
480.3098	105
480.3129	140
480.316	70
480.3191	47
480.3222	70
480.3253	58
480.3284	58
480.3315	23
480.3346	23
480.3376	23
524.2831	23
524.2928	23
542.3011	23
735.4813	23
780.432	23
780.4399	23
780.4517	120
780.4557	58
780.4636	119
780.4675	37
780.4714	24
780.4754	175
780.4793	216
780.4833	114
780.4872	267
780.4911	390
780.4951	441
780.499	436
780.503	499
780.5069	550
780.5109	898
780.5148	724
780.5187	999
780.5227	834
780.5266	721
780.5306	729
780.5345	731
780.5385	703
780.5424	513
780.5463	523
780.5503	497
780.5542	341
780.5582	216
780.5621	205
780.566	156
780.57	166
780.5739	39
780.5779	25
780.5818	90
780.5897	26
780.5976	25
781.3625	13
781.4966	23
781.5006	23
781.5242	23
781.54	23
794.5395	23
794.5515	23
795.4784	23
795.4824	35
795.5023	23
807.5179	35
854.4713	35
854.4753	35
854.4795	23
854.4918	35
854.496	23
854.5042	23
854.5125	47
854.5166	47
854.529	23
854.5331	47
854.5372	35
854.5413	47
854.5455	117
854.5496	35
854.5537	81
854.5579	58
854.562	35
854.5661	81
854.5702	47
854.5743	35
854.5785	23
854.5826	47
854.5867	35
854.5908	23
854.5991	70
854.6032	23
854.6156	23
855.4903	23
855.4944	23
855.5026	35
855.5109	23
855.5233	23
855.5274	23
855.5356	35
855.5398	35
