Mass spectrum: PC(18:1e/14,15-EET); LC-ESI-QTOF; MS2
Name: PC(18:1e/14,15-EET)
Class: Oxidized Phospholipid
Formula: C46H84NO8P
Exact mass: 810.153
SMILES: CCCCCCCCCCCCCCCC\C=C/OCC(COP([O-])(=O)OCC[N+](C)(C)C)OC(=O)CCC\C=C/C\C=C/C\C=C/CC1OC1CCCCC
InChI: InChI=1S/C46H84NO8P/c1-6-8-10-11-12-13-14-15-16-17-18-21-24-27-30-34-39-51-41-43(42-53-56(49,50)52-40-38-47(3,4)5)54-46(48)37-33-29-26-23-20-19-22-25-28-32-36-45-44(55-45)35-31-9-7-2/h19,22-23,26,28,32,34,39,43-45H,6-18,20-21,24-25,27,29-31,33,35-38,40-42H2,1-5H3/b22-19-,26-23-,32-28-,39-34-
Instrument: Acquity UPLC Peptide BEH C18 column (50 x 2.1 mm; 1.7 um), Sciex TripleTOF5600
Instrument type: LC-ESI-QTOF
Ms type: MS2
Ion mode: NEGATIVE
Collision energy: 30-50
Precursor m/z: 868.6073082
Precursor type: [M+CH3COOH-H]-
m/z	relative intensity
113.0987	24
113.1002	24
151.1497	24
175.1425	24
175.1443	38
175.1462	24
175.1481	38
175.1574	38
203.1782	38
203.1963	24
207.1352	38
219.1308	50
219.1329	74
219.1349	24
219.137	38
219.1391	112
219.1412	86
219.1433	86
219.1454	38
219.1496	24
219.1537	24
221.151	24
221.1594	24
257.2112	24
257.2134	24
257.2157	38
257.2179	38
257.2202	50
257.2225	38
257.2247	62
257.2292	50
257.2315	24
257.2338	74
257.2361	38
257.2428	24
275.2323	24
275.2393	24
275.2417	24
301.1989	24
301.2014	38
301.2038	38
301.2063	50
301.2087	62
301.2112	112
301.2136	112
301.2161	86
301.2185	74
301.2209	86
301.2234	136
301.2259	38
301.2307	38
301.2332	50
301.2405	26
302.2258	38
319.1988	24
319.2013	38
319.2038	125
319.2064	62
319.2089	77
319.2114	89
319.2139	242
319.2165	243
319.219	203
319.2215	215
319.224	370
319.2265	329
319.2291	291
319.2316	316
319.2341	265
319.2366	341
319.2391	175
319.2417	88
319.2442	101
319.2467	38
319.2492	24
319.2517	38
319.2543	50
403.2551	24
403.2665	24
403.2721	24
421.2654	24
474.3262	38
474.3323	74
474.3354	24
474.3416	50
474.3446	62
474.3477	38
474.3508	50
492.3136	24
492.323	62
492.3261	74
492.3293	74
492.3324	74
492.3355	112
492.3387	148
492.3418	112
492.3449	198
492.348	124
492.3512	112
492.3543	74
492.3574	112
492.3606	100
492.3637	62
492.3668	38
492.37	50
492.3731	38
492.3793	24
786.5219	26
794.4956	24
794.4996	26
794.5036	63
794.5076	38
794.5115	105
794.5155	66
794.5195	94
794.5234	118
794.5275	161
794.5314	293
794.5354	321
794.5394	391
794.5433	538
794.5473	392
794.5513	486
794.5553	636
794.5593	790
794.5632	846
794.5672	616
794.5712	915
794.5752	999
794.5792	919
794.5831	818
794.5871	697
794.5911	816
794.595	786
794.5991	612
794.603	656
794.607	460
794.611	431
794.6149	189
794.6189	136
794.6229	176
794.6269	123
794.6309	94
794.6348	122
794.6388	54
794.6428	27
794.6468	13
794.6547	26
794.6587	39
794.7502	13
795.53	24
795.538	24
795.5658	38
795.5738	24
795.5817	24
795.5937	38
795.5977	50
795.6096	38
795.6176	24
809.5358	24
868.4977	24
868.506	100
868.5143	38
868.5226	24
868.5269	100
868.531	86
868.5352	112
868.5393	100
868.5435	112
868.5476	74
868.5518	86
868.556	100
868.5601	74
868.5643	38
868.5684	112
868.5726	38
868.5767	100
868.5809	86
868.585	100
868.5892	148
868.5934	100
868.5975	86
868.6017	100
868.6058	162
868.61	38
868.6141	50
868.6183	62
868.6225	50
868.6266	62
868.6308	112
868.6349	62
868.6391	74
868.6432	50
868.6474	38
868.6516	38
868.6558	38
868.6724	24
869.5376	24
869.5583	38
869.5917	24
