Mass spectrum: PC(18:1e/9-HODE); LC-ESI-QTOF; MS2
Name: PC(18:1e/9-HODE)
Class: Oxidized Phospholipid
Formula: C44H84NO8P
Exact mass: 786.131
SMILES: CCCCCCCCCCCCCCCC\C=C/OCC(COP([O-])(=O)OCC[N+](C)(C)C)OC(=O)CCCCCCCC(O)\C=C\C=C/CCCCC
InChI: InChI=1S/C44H84NO8P/c1-6-8-10-12-14-15-16-17-18-19-20-21-22-24-29-33-38-50-40-43(41-52-54(48,49)51-39-37-45(3,4)5)53-44(47)36-32-28-25-27-31-35-42(46)34-30-26-23-13-11-9-7-2/h23,26,30,33-34,38,42-43,46H,6-22,24-25,27-29,31-32,35-37,39-41H2,1-5H3/b26-23-,34-30+,38-33-
Instrument: Acquity UPLC Peptide BEH C18 column (50 x 2.1 mm; 1.7 um), Sciex TripleTOF5600
Instrument type: LC-ESI-QTOF
Ms type: MS2
Ion mode: NEGATIVE
Collision energy: 30-50
Precursor m/z: 844.6073082
Precursor type: [M+CH3COOH-H]-
m/z	relative intensity
171.0952	44
171.097	68
171.1007	68
171.1026	44
171.1044	68
171.1063	44
171.1081	44
277.2016	44
277.2062	44
277.2086	44
277.2133	179
277.2156	89
277.218	133
277.2203	111
277.2227	68
277.2274	44
277.2344	44
277.2415	44
281.2404	44
281.2427	44
295.2097	89
295.2121	133
295.2146	201
295.217	179
295.2194	334
295.2218	334
295.2243	513
295.2267	556
295.2291	377
295.2315	445
295.2339	556
295.2364	133
295.2388	201
295.2412	155
295.2437	44
295.2461	89
295.2509	44
295.2534	44
359.0114	44
374.9965	44
403.2682	68
474.3386	44
474.3417	44
492.3172	44
492.3266	44
492.336	68
492.3391	44
492.3423	68
492.3454	68
492.3517	111
492.3548	68
492.3611	44
492.3673	68
699.5121	44
767.8285	46
768.1726	46
770.509	68
770.513	44
770.5208	155
770.5247	44
770.5286	157
770.5325	181
770.5365	183
770.5404	318
770.5443	92
770.5482	255
770.5521	369
770.556	552
770.56	528
770.5639	626
770.5678	811
770.5717	696
770.5756	999
770.5796	768
770.5835	650
770.5874	652
770.5913	606
770.5952	628
770.5991	515
770.6031	373
770.607	373
770.6109	231
770.6148	161
770.6187	92
770.6226	24
770.6266	70
770.6383	44
771.614	24
784.5668	44
833.5367	44
844.5186	68
844.5515	44
844.5555	44
844.5678	68
844.576	44
844.5801	68
844.5925	44
844.5966	68
844.6006	44
844.6171	89
844.6212	89
844.6293	68
844.6334	68
