Mass spectrum: Cer[AP] t42:1; LC-ESI-QTOF; MS2
Name: Cer[AP] t42:1
Class: Cer_AP
Formula: C42H83NO5
Exact mass: 682.1279999999999
SMILES: CCCCCCCCCCCCCCC(O)C(O)C(CO)NC(=O)C(O)CCCCCCCC\C=C/CCCCCCCCCCCC
InChI: InChI=1S/C42H83NO5/c1-3-5-7-9-11-13-15-17-18-19-20-21-22-23-24-26-28-30-32-34-36-40(46)42(48)43-38(37-44)41(47)39(45)35-33-31-29-27-25-16-14-12-10-8-6-4-2/h21-22,38-41,44-47H,3-20,23-37H2,1-2H3,(H,43,48)/b22-21-
Instrument: AB Sciex TripleTOF 5600+ system (Q-TOF) equipped with a DuoSpray ion source
Instrument type: LC-ESI-QTOF
Ms type: MS2
Ion mode: NEGATIVE
Collision energy: 45V
Column name: Acquity UPLC Peptide BEH C18 column (50*2.1 mm; 1.7 um; 130A)(Waters Co.,Milford, MA, USA)
Retention time: 12.4224
Precursor type: [M+CH3COOH-H]-
Precursor m/z: 740.6387
m/z	relative intensity
88.042	2
169.673	1
204.968	1
225.226	4
246.983	3
250.256	1
253.215	9
254.432	1
255.232	23
267.23	31
268.251	2
278.242	2
279.232	3
284.259	14
286.972	4
308.262	4
316.282	6
328.987	3
335.331	75
363.33	12
365.35	4
376.356	14
380.352	28
381.335	115
388.351	4
388.369	4
406.363	10
406.376	8
410.99	4
418.373	5
422.361	10
424.377	69
436.377	60
485.573	1
516.95	2
532.981	4
560.997	1
614.582	5
626.597	1
644.597	9
648.591	6
650.603	4
655.613	1
662.587	6
662.613	12
678.458	8
680.615	999
740.542	1
