Mass spectrum: Cer[NS] d37:1; LC-ESI-QTOF; MS2
Name: Cer[NS] d37:1
Class: Cer_NS
Formula: C37H73NO3
Exact mass: 579.9949999999999
SMILES: CCCCCCCCCCCCCCCCCCC(=O)NC(CO)C(O)\C=C\CCCCCCCCCCCCC
InChI: InChI=1S/C37H73NO3/c1-3-5-7-9-11-13-15-17-18-19-21-23-25-27-29-31-33-37(41)38-35(34-39)36(40)32-30-28-26-24-22-20-16-14-12-10-8-6-4-2/h30,32,35-36,39-40H,3-29,31,33-34H2,1-2H3,(H,38,41)/b32-30+
Instrument: AB Sciex TripleTOF 5600+ system (Q-TOF) equipped with a DuoSpray ion source
Instrument type: LC-ESI-QTOF
Ms type: MS2
Ion mode: NEGATIVE
Collision energy: 45V
Column name: Acquity UPLC Peptide BEH C18 column (50*2.1 mm; 1.7 um; 130A)(Waters Co.,Milford, MA, USA)
Retention time: 11.51428
Precursor type: [M+CH3COOH-H]-
Precursor m/z: 638.5715
m/z	relative intensity
141.014	4
235.207	2
237.222	74
242.952	2
250.253	7
251.233	3
255.231	2
263.235	47
263.251	9
265.253	2
266.243	13
266.259	2
266.947	2
268.264	11
270.951	3
277.252	2
279.237	2
279.268	112
280.955	2
281.26	2
293.287	2
295.297	12
296.295	64
297.261	5
297.281	50
297.309	2
305.097	2
308.294	6
310.925	2
320.296	2
321.311	2
322.31	394
324.29	2
324.922	3
324.978	2
336.286	5
336.333	2
338.276	3
338.3	34
338.315	18
348.936	2
362.956	2
370.959	2
406.959	2
420.928	2
430.94	2
452.975	2
474.939	3
488.968	2
519.509	3
530.509	8
530.53	48
542.532	1
546.5	8
546.52	44
548.499	5
548.536	64
548.554	16
560.518	2
560.545	2
576.716	3
576.86	1
578.546	999
578.628	1
578.907	2
579.532	1
