Mass spectrum: Cer[NS] d41:1; LC-ESI-QTOF; MS2
Name: Cer[NS] d41:1
Class: Cer_NS
Formula: C41H81NO3
Exact mass: 636.1029999999998
SMILES: CCCCCCCCCCCCCCCCCCCCCCC(=O)NC(CO)C(O)\C=C\CCCCCCCCCCCCC
InChI: InChI=1S/C41H81NO3/c1-3-5-7-9-11-13-15-17-18-19-20-21-22-23-25-27-29-31-33-35-37-41(45)42-39(38-43)40(44)36-34-32-30-28-26-24-16-14-12-10-8-6-4-2/h34,36,39-40,43-44H,3-33,35,37-38H2,1-2H3,(H,42,45)/b36-34+
Instrument: AB Sciex TripleTOF 5600+ system (Q-TOF) equipped with a DuoSpray ion source
Instrument type: LC-ESI-QTOF
Ms type: MS2
Ion mode: NEGATIVE
Collision energy: 45V
Column name: Acquity UPLC Peptide BEH C18 column (50*2.1 mm; 1.7 um; 130A)(Waters Co.,Milford, MA, USA)
Retention time: 13.20255
Precursor type: [M+CH3COOH-H]-
Precursor m/z: 694.6306
m/z	relative intensity
141.013	1
202.987	1
217.002	7
235.209	3
236.498	2
237.222	95
239.238	5
249.226	4
250.249	3
251.235	1
252.246	1
255.238	2
263.237	59
266.24	4
266.251	8
268.26	13
268.272	4
281.248	2
285.003	1
298.266	2
298.281	4
299.0	4
335.33	118
336.337	1
337.353	2
349.344	8
351.345	2
351.366	9
352.355	100
353.315	5
353.343	58
364.351	3
366.369	5
366.383	4
367.345	3
367.37	0
376.352	2
377.191	2
378.371	467
381.01	2
392.349	2
392.388	24
393.359	3
394.365	65
394.395	3
396.38	1
408.39	2
445.381	1
445.41	2
487.008	1
559.587	1
575.579	2
586.564	24
586.592	63
588.602	1
598.583	2
600.672	1
602.549	7
602.584	72
604.598	130
616.564	1
616.603	4
632.59	2
632.623	3
634.608	999
634.715	1
635.593	1
635.633	2
648.632	1
694.632	2
