Mass spectrum: PE(16:1/5-HEPE); LC-ESI-QTOF; MS2
Name: PE(16:1/5-HEPE)
Class: Oxidized Phospholipid
Formula: C41H70NO9P
Exact mass: 751.985
SMILES: CCCCCC\C=C/CCCCCCCC(=O)OCC(COP(O)(=O)OCCN)OC(=O)CCCC(O)\C=C\C=C/C\C=C/C\C=C/C\C=C/CC
InChI: InChI=1S/C41H70NO9P/c1-3-5-7-9-11-13-15-17-19-21-23-25-27-30-38(43)31-29-33-41(45)51-39(37-50-52(46,47)49-35-34-42)36-48-40(44)32-28-26-24-22-20-18-16-14-12-10-8-6-4-2/h5,7,11,13-14,16-17,19,23,25,27,30,38-39,43H,3-4,6,8-10,12,15,18,20-22,24,26,28-29,31-37,42H2,1-2H3,(H,46,47)/b7-5-,13-11-,16-14-,19-17-,25-23-,30-27+
Instrument: Acquity UPLC Peptide BEH C18 column (50 x 2.1 mm; 1.7 um), Sciex TripleTOF5600
Instrument type: LC-ESI-QTOF
Ms type: MS2
Ion mode: NEGATIVE
Collision energy: 30-50
Precursor m/z: 750.4715433
Precursor type: [M-H]-
m/z	relative intensity
96.96034	56
115.0339	56
115.0354	79
115.0384	56
115.0414	135
115.0429	79
140.0047	56
196.0246	56
196.0305	56
196.0325	56
196.0385	56
201.1545	56
201.1625	79
201.1665	111
253.1929	56
253.1997	56
253.2019	79
253.2042	79
253.2064	79
253.2087	270
253.2109	246
253.2132	270
253.2154	381
253.2176	753
253.2199	293
253.2221	349
253.2244	428
253.2266	111
253.2289	159
253.2311	56
253.2356	56
255.1996	56
255.2018	56
255.2041	79
255.2063	79
255.2086	56
255.2108	79
255.2131	135
255.2153	246
255.2176	79
255.2221	79
255.2244	111
255.2289	56
255.2334	56
255.2401	56
255.2424	79
255.2469	56
299.1853	111
299.1902	79
299.1927	79
299.2	111
299.2024	56
299.2049	135
299.2073	56
299.2097	56
299.2122	56
299.222	56
317.1912	56
317.1937	79
317.1962	56
317.1987	56
317.2012	111
317.2038	214
317.2063	159
317.2088	111
317.2113	325
317.2138	214
317.2163	135
317.2188	56
317.2238	79
317.2314	56
432.2434	56
450.242	79
450.248	56
450.2509	111
450.2539	79
450.2599	56
450.2629	111
450.2659	56
450.2689	111
450.2719	56
450.2749	79
450.2779	79
450.2809	56
750.4088	56
750.4243	135
750.4281	79
750.432	190
750.4359	214
750.4398	246
750.4436	404
750.4474	270
750.4513	293
750.4552	650
750.459	595
750.4629	563
750.4668	729
750.4706	944
750.4745	809
750.4784	888
750.4822	698
750.4861	785
750.49	785
750.4938	753
750.4977	999
750.5016	753
750.5054	618
750.5093	484
750.5132	563
750.517	293
750.5209	381
750.5248	404
750.5286	111
750.5325	159
750.5364	135
750.548	56
750.5518	111
750.5866	56
751.4605	56
751.476	56
751.4915	56
