Mass spectrum: PC 38:3; LC-ESI-QTOF; MS2
Name: PC 38:3
Class: PC
Formula: C46H86NO8P
Exact mass: 812.1689999999999
SMILES: CCCCCCCCCCCCCCCCCC(=O)OCC(COP([O-])(=O)OCC[N+](C)(C)C)OC(=O)CCCCCCCCC\C=C/C\C=C/C\C=C/CC
InChI: InChI=1S/C46H86NO8P/c1-6-8-10-12-14-16-18-20-22-23-25-27-29-31-33-35-37-39-46(49)55-44(43-54-56(50,51)53-41-40-47(3,4)5)42-52-45(48)38-36-34-32-30-28-26-24-21-19-17-15-13-11-9-7-2/h8,10,14,16,20,22,44H,6-7,9,11-13,15,17-19,21,23-43H2,1-5H3/b10-8-,16-14-,22-20-
Instrument: AB Sciex TripleTOF 5600+ system (Q-TOF) equipped with a DuoSpray ion source
Instrument type: LC-ESI-QTOF
Ms type: MS2
Ion mode: NEGATIVE
Collision energy: 45V
Column name: Acquity UPLC Peptide BEH C18 column (50*2.1 mm; 1.7 um; 130A)(Waters Co.,Milford, MA, USA)
Retention time: 10.56657
Precursor type: [M+CH3COOH-H]-
Precursor m/z: 870.621
m/z	relative intensity
153.001	1
168.042	12
191.957	2
224.068	16
242.083	3
255.232	3
261.257	3
282.371	2
283.236	8
283.263	329
287.239	1
289.285	1
304.301	8
304.415	2
304.979	1
305.247	896
306.25	1
309.278	1
311.523	1
333.277	12
419.257	6
430.491	1
456.282	1
468.171	1
490.328	23
508.336	59
512.306	8
530.329	7
610.578	2
725.508	3
732.544	1
794.071	3
796.504	2
796.579	999
810.514	1
810.57	1
811.541	10
852.64	1
870.621	72
870.655	9
870.718	1
