Mass spectrum: PE 40:5; LC-ESI-QTOF; MS2
Name: PE 40:5
Class: PE
Formula: C45H80NO8P
Exact mass: 794.1099999999999
SMILES: CCCCCCCCCCCCCCCCCC(=O)OCC(COP(O)(=O)OCCN)OC(=O)CCCCC\C=C/C\C=C/C\C=C/C\C=C/C\C=C/CC
InChI: InChI=1S/C45H80NO8P/c1-3-5-7-9-11-13-15-17-19-20-21-22-24-26-28-30-32-34-36-38-45(48)54-43(42-53-55(49,50)52-40-39-46)41-51-44(47)37-35-33-31-29-27-25-23-18-16-14-12-10-8-6-4-2/h5,7,11,13,17,19,21-22,26,28,43H,3-4,6,8-10,12,14-16,18,20,23-25,27,29-42,46H2,1-2H3,(H,49,50)/b7-5-,13-11-,19-17-,22-21-,28-26-
Instrument: AB Sciex TripleTOF 5600+ system (Q-TOF) equipped with a DuoSpray ion source
Instrument type: LC-ESI-QTOF
Ms type: MS2
Ion mode: NEGATIVE
Collision energy: 45V
Column name: Acquity UPLC Peptide BEH C18 column (50*2.1 mm; 1.7 um; 130A)(Waters Co.,Milford, MA, USA)
Retention time: 10.43208
Precursor type: [M-H]-
Precursor m/z: 792.5544
m/z	relative intensity
78.959	4
122.001	2
140.009	16
169.125	1
178.026	1
191.11	1
195.129	1
196.038	21
205.122	1
205.189	0
214.051	2
221.151	1
231.13	0
231.21	10
245.151	1
251.188	0
251.205	4
255.231	7
257.225	2
259.236	1
282.381	3
283.264	532
284.266	1
285.257	61
297.263	0
303.232	17
309.266	3
309.28	6
311.226	3
311.238	1
311.249	1
327.231	1
328.206	2
328.229	3
329.247	999
330.235	1
330.255	1
331.253	1
357.271	0
406.271	1
452.24	0
462.266	1
462.302	19
480.282	19
480.307	76
481.31	0
488.31	0
506.304	1
506.338	1
508.256	1
508.277	9
526.267	1
526.296	6
527.357	0
642.539	0
718.509	0
718.536	1
718.557	1
731.572	0
732.593	1
790.038	1
790.078	1
790.107	0
792.294	0
792.353	0
792.465	1
792.553	729
792.662	1
793.546	2
793.575	2
