Mass spectrum: PE(18:2e/19,20-EpDPE); LC-ESI-QTOF; MS2
Name: PE(18:2e/19,20-EpDPE)
Class: Oxidized Phospholipid
Formula: C45H76NO8P
Exact mass: 790.078
SMILES: CCCCCCCCCCCCC\C=C/C\C=C/OCC(COP(O)(=O)OCCN)OC(=O)CC\C=C/C\C=C/C\C=C/C\C=C/C\C=C/CC1OC1CC
InChI: InChI=1S/C45H76NO8P/c1-3-5-6-7-8-9-10-11-12-16-19-22-25-28-31-34-38-50-40-42(41-52-55(48,49)51-39-37-46)53-45(47)36-33-30-27-24-21-18-15-13-14-17-20-23-26-29-32-35-44-43(4-2)54-44/h13-14,18,20-21,23,25,27-30,32,34,38,42-44H,3-12,15-17,19,22,24,26,31,33,35-37,39-41,46H2,1-2H3,(H,48,49)/b14-13-,21-18-,23-20-,28-25-,30-27-,32-29-,38-34-
Instrument: Acquity UPLC Peptide BEH C18 column (50 x 2.1 mm; 1.7 um), Sciex TripleTOF5600
Instrument type: LC-ESI-QTOF
Ms type: MS2
Ion mode: NEGATIVE
Collision energy: 30-50
Precursor m/z: 788.5235789
Precursor type: [M-H]-
m/z	relative intensity
78.96395	28
107.0855	44
107.087	28
117.0718	28
121.1043	28
133.0965	28
133.0998	28
140.0077	28
140.0094	28
149.1304	28
161.1311	28
161.1365	28
173.1298	28
173.1317	44
187.1388	44
187.1446	28
187.1485	28
187.1504	28
187.1523	28
189.1652	28
196.0282	44
196.0341	28
196.0361	44
196.0381	58
196.04	72
196.042	44
196.044	72
217.1575	28
227.1611	28
227.1781	58
227.1802	28
241.1811	28
241.1855	44
241.1876	72
241.1898	86
241.192	58
241.1942	144
241.1964	44
241.1986	58
241.2008	86
241.203	28
241.2052	86
241.2074	44
241.2096	28
241.2139	58
241.2183	28
245.179	28
245.1834	28
245.19	28
245.1922	28
245.1944	28
253.1948	28
253.2218	28
259.1772	28
265.2385	28
265.2431	28
265.2523	58
265.2569	44
265.2592	44
265.2638	28
273.186	44
281.2129	58
281.2152	72
281.2176	58
281.22	86
281.2223	172
281.2247	100
281.2271	144
281.2294	116
281.2318	116
281.2342	100
281.2365	58
281.2389	72
281.2412	100
281.2436	72
281.246	28
281.2484	28
283.2585	28
285.1686	28
285.171	28
285.1734	28
285.1758	100
285.1782	86
285.1829	86
285.1853	58
285.1877	100
285.1901	58
285.1924	44
285.1948	44
285.1996	44
285.2067	28
299.2167	44
299.2191	44
299.2216	72
299.224	44
299.2265	72
299.2289	116
299.2314	100
299.2338	130
299.2362	130
299.2387	144
299.2411	130
299.2436	100
299.246	86
299.2484	72
299.2509	72
299.2533	58
299.2558	44
299.2631	44
325.189	28
325.1992	44
325.2043	28
325.2094	72
325.2119	86
325.2144	187
325.217	58
325.2195	58
325.2221	44
325.2246	58
325.2272	86
325.2297	28
325.2323	28
341.1921	30
342.7786	30
343.1967	30
343.2019	58
343.2045	73
343.2071	87
343.2097	131
343.2123	263
343.2149	73
343.2176	294
343.2202	221
343.2228	427
343.2254	354
343.228	348
343.2306	497
343.2332	352
343.2359	407
343.2385	248
343.2411	190
343.2437	130
343.2463	58
343.2489	28
343.2515	30
343.2568	28
345.152	15
437.2562	28
444.25	28
444.2648	44
444.2678	28
444.2708	86
444.2738	44
444.2767	44
444.2797	44
444.2827	44
444.2856	100
444.2916	116
444.2946	100
444.2975	172
444.3005	86
444.3035	86
444.3065	58
444.3094	28
444.3184	28
444.958	30
449.2812	30
460.8117	30
462.2606	44
462.2667	44
462.2697	130
462.2728	145
462.2758	73
462.2788	159
462.2819	218
462.2849	276
462.2879	290
462.291	175
462.294	321
462.297	438
462.3001	278
462.3031	366
462.3061	321
462.3092	397
462.3122	306
462.3152	147
462.3183	117
462.3213	72
462.3243	72
462.3274	44
462.3304	87
462.3365	44
463.2714	28
463.32	28
714.486	44
714.4973	28
714.501	28
714.5124	28
714.5199	44
786.0216	28
788.4523	73
788.4563	44
788.4603	58
788.4682	103
788.4722	162
788.4761	61
788.48	123
788.484	214
788.488	155
788.4919	323
788.4959	385
788.4999	511
788.5038	469
788.5078	590
788.5118	674
788.5157	838
788.5197	941
788.5236	840
788.5276	736
788.5316	999
788.5355	982
788.5395	876
788.5435	781
788.5474	861
788.5514	750
788.5554	527
788.5593	547
788.5633	297
788.5672	468
788.5712	216
788.5751	108
788.5791	125
788.5831	93
788.587	62
788.591	77
788.595	62
788.5989	46
788.6029	28
788.6187	15
788.6266	15
788.7535	15
789.5065	28
789.5184	28
789.5224	28
789.5264	58
789.5343	28
789.5502	28
789.5581	28
