Mass spectrum: Cer[NS] d37:1; LC-ESI-QTOF; MS2
Name: Cer[NS] d37:1
Class: Cer_NS
Formula: C37H73NO3
Exact mass: 579.9949999999999
SMILES: CCCCCCCCCCCCCCCCCCC(=O)NC(CO)C(O)\C=C\CCCCCCCCCCCCC
InChI: InChI=1S/C37H73NO3/c1-3-5-7-9-11-13-15-17-18-19-21-23-25-27-29-31-33-37(41)38-35(34-39)36(40)32-30-28-26-24-22-20-16-14-12-10-8-6-4-2/h30,32,35-36,39-40H,3-29,31,33-34H2,1-2H3,(H,38,41)/b32-30+
Instrument: AB Sciex TripleTOF 5600+ system (Q-TOF) equipped with a DuoSpray ion source
Instrument type: LC-ESI-QTOF
Ms type: MS2
Ion mode: NEGATIVE
Collision energy: 45V
Column name: Acquity UPLC Peptide BEH C18 column (50*2.1 mm; 1.7 um; 130A)(Waters Co.,Milford, MA, USA)
Retention time: 11.42172
Precursor type: [M+CH3COOH-H]-
Precursor m/z: 638.5731
m/z	relative intensity
237.219	73
251.235	29
263.243	40
265.252	43
266.249	15
268.262	17
277.255	23
279.266	97
282.28	35
283.267	14
295.298	17
296.296	58
297.28	47
308.293	120
310.271	5
310.322	5
322.272	11
322.311	277
322.851	5
324.29	17
336.326	17
338.302	29
338.316	32
350.345	11
506.315	11
519.485	5
530.507	35
530.534	52
546.522	49
548.529	91
548.572	23
560.549	5
576.724	8
578.503	20
578.546	999
