Mass spectrum: PC 39:4; LC-ESI-QTOF; MS2
Name: PC 39:4
Class: PC
Formula: C47H86NO8P
Exact mass: 824.1799999999998
SMILES: CCCCCCCCCCCCCCCCCCC(=O)OCC(COP([O-])(=O)OCC[N+](C)(C)C)OC(=O)CCCCCC\C=C/C\C=C/C\C=C/C\C=C/CC
InChI: InChI=1S/C47H86NO8P/c1-6-8-10-12-14-16-18-20-22-24-26-28-30-32-34-36-38-40-47(50)56-45(44-55-57(51,52)54-42-41-48(3,4)5)43-53-46(49)39-37-35-33-31-29-27-25-23-21-19-17-15-13-11-9-7-2/h8,10,14,16,20,22,26,28,45H,6-7,9,11-13,15,17-19,21,23-25,27,29-44H2,1-5H3/b10-8-,16-14-,22-20-,28-26-
Instrument: AB Sciex TripleTOF 5600+ system (Q-TOF) equipped with a DuoSpray ion source
Instrument type: LC-ESI-QTOF
Ms type: MS2
Ion mode: NEGATIVE
Collision energy: 45V
Column name: Acquity UPLC Peptide BEH C18 column (50*2.1 mm; 1.7 um; 130A)(Waters Co.,Milford, MA, USA)
Retention time: 10.7053
Precursor type: [M+CH3COOH-H]-
Precursor m/z: 882.616
m/z	relative intensity
168.046	21
196.038	8
224.067	17
259.237	65
259.253	17
283.253	9
284.278	8
297.277	377
303.23	782
327.224	30
329.243	21
330.247	13
331.261	13
457.014	8
464.31	43
486.294	13
486.991	8
487.292	17
490.325	8
504.343	28
510.301	8
522.337	30
522.352	74
774.527	9
800.537	26
800.569	30
808.574	999
813.498	8
820.593	8
821.574	76
823.522	8
838.539	8
882.503	21
882.564	17
882.621	91
