Mass spectrum: PS 38:4; LC-ESI-QTOF; MS2
Name: PS 38:4
Class: PS
Formula: C44H78NO10P
Exact mass: 812.0809999999999
SMILES: CCCCCCCCCCCCCCCCCC(=O)OCC(COP(O)(=O)OCC(N)C(O)=O)OC(=O)CCCCCC\C=C/C\C=C/C\C=C/C\C=C/CC
InChI: InChI=1S/C44H78NO10P/c1-3-5-7-9-11-13-15-17-19-20-22-24-26-28-30-32-34-36-43(47)55-40(38-53-56(50,51)54-39-41(45)44(48)49)37-52-42(46)35-33-31-29-27-25-23-21-18-16-14-12-10-8-6-4-2/h5,7,11,13,17,19,22,24,40-41H,3-4,6,8-10,12,14-16,18,20-21,23,25-39,45H2,1-2H3,(H,48,49)(H,50,51)/b7-5-,13-11-,19-17-,24-22-
Instrument: AB Sciex TripleTOF 5600+ system (Q-TOF) equipped with a DuoSpray ion source
Instrument type: LC-ESI-QTOF
Ms type: MS2
Ion mode: NEGATIVE
Collision energy: 45V
Column name: Acquity UPLC Peptide BEH C18 column (50*2.1 mm; 1.7 um; 130A)(Waters Co.,Milford, MA, USA)
Retention time: 8.778674
Precursor type: [M-H]-
Precursor m/z: 810.5303
m/z	relative intensity
78.959	36
96.968	7
113.099	2
134.983	2
140.009	2
152.995	168
170.998	3
196.039	3
205.199	2
219.142	2
247.17	4
255.231	14
259.245	13
267.264	3
275.165	2
282.371	4
283.264	999
301.243	3
301.257	8
303.233	273
327.233	8
329.234	4
329.253	3
331.264	4
345.224	8
345.243	51
347.255	10
373.278	5
391.225	3
409.235	3
417.938	2
419.257	586
420.262	4
435.89	2
437.265	265
439.225	86
446.291	5
457.217	7
457.234	10
457.259	5
464.304	13
464.325	9
480.307	2
482.299	1
492.334	0
506.279	0
523.336	0
524.264	1
524.325	1
544.239	1
547.305	0
548.269	1
567.508	6
721.239	2
722.478	5
723.344	2
723.496	918
724.515	1
736.525	1
749.52	1
765.521	2
792.501	4
792.538	8
792.56	12
792.586	7
808.007	3
810.456	4
810.529	710
810.61	3
810.649	1
811.514	3
811.557	2
