Mass spectrum: PE 38:4; LC-ESI-QTOF; MS2
Name: PE 38:4
Class: PE
Formula: C43H78NO8P
Exact mass: 768.0719999999999
SMILES: CCCCCCCCCCCCCCCC(=O)OCC(COP(O)(=O)OCCN)OC(=O)CCCCCCCC\C=C/C\C=C/C\C=C/C\C=C/CC
InChI: InChI=1S/C43H78NO8P/c1-3-5-7-9-11-13-15-17-18-19-20-21-22-24-26-28-30-32-34-36-43(46)52-41(40-51-53(47,48)50-38-37-44)39-49-42(45)35-33-31-29-27-25-23-16-14-12-10-8-6-4-2/h5,7,11,13,17-18,20-21,41H,3-4,6,8-10,12,14-16,19,22-40,44H2,1-2H3,(H,47,48)/b7-5-,13-11-,18-17-,21-20-
Instrument: AB Sciex TripleTOF 5600+ system (Q-TOF) equipped with a DuoSpray ion source
Instrument type: LC-ESI-QTOF
Ms type: MS2
Ion mode: NEGATIVE
Collision energy: 45V
Column name: Acquity UPLC Peptide BEH C18 column (50*2.1 mm; 1.7 um; 130A)(Waters Co.,Milford, MA, USA)
Retention time: 10.04527
Precursor type: [M-H]-
Precursor m/z: 766.5412
m/z	relative intensity
78.957	3
122.003	1
140.01	13
177.089	0
178.025	1
191.112	0
196.04	17
205.123	1
214.048	2
233.226	4
253.22	1
254.437	2
255.233	373
259.241	1
281.238	1
281.254	1
283.259	4
287.259	4
287.277	25
303.231	8
305.233	1
313.255	7
329.248	3
330.234	5
331.263	999
331.327	1
331.431	1
434.251	3
434.265	6
434.281	6
452.239	4
452.274	52
452.293	20
480.324	1
510.295	6
510.311	1
528.292	2
528.318	2
614.513	0
663.531	2
764.12	2
764.811	0
766.393	0
766.539	469
766.63	2
766.768	0
767.542	0
