Mass spectrum: PC 38:8; LC-ESI-QTOF; MS2
Name: PC 38:8
Class: PC
Formula: C46H76NO8P
Exact mass: 802.0889999999999
SMILES: CCC\C=C/C\C=C/CCCCCCCC(=O)OCC(COP([O-])(=O)OCC[N+](C)(C)C)OC(=O)CC\C=C/C\C=C/C\C=C/C\C=C/C\C=C/C\C=C/CC
InChI: InChI=1S/C46H76NO8P/c1-6-8-10-12-14-16-18-20-21-22-23-24-25-27-29-31-33-35-37-39-46(49)55-44(43-54-56(50,51)53-41-40-47(3,4)5)42-52-45(48)38-36-34-32-30-28-26-19-17-15-13-11-9-7-2/h8,10-11,13-14,16-17,19-21,23-24,27,29,33,35,44H,6-7,9,12,15,18,22,25-26,28,30-32,34,36-43H2,1-5H3/b10-8-,13-11-,16-14-,19-17-,21-20-,24-23-,29-27-,35-33-
Instrument: AB Sciex TripleTOF 5600+ system (Q-TOF) equipped with a DuoSpray ion source
Instrument type: LC-ESI-QTOF
Ms type: MS2
Ion mode: NEGATIVE
Collision energy: 45V
Column name: Acquity UPLC Peptide BEH C18 column (50*2.1 mm; 1.7 um; 130A)(Waters Co.,Milford, MA, USA)
Retention time: 8.393863
Precursor type: [M+CH3COOH-H]-
Precursor m/z: 860.5447
m/z	relative intensity
78.956	9
96.969	4
168.038	14
168.046	8
191.176	4
203.18	5
223.0	6
224.067	39
229.19	38
229.208	8
241.01	63
251.174	8
251.2	493
255.221	9
255.235	6
259.021	4
279.221	6
279.234	29
280.233	33
281.24	25
281.253	46
282.251	37
283.241	208
297.025	6
306.243	6
326.197	6
327.233	660
387.178	6
415.226	12
417.229	16
417.254	8
418.242	10
436.272	10
458.248	16
458.266	18
458.281	17
476.267	92
476.289	73
476.313	7
480.33	2
485.612	2
491.228	2
508.342	2
534.29	6
546.9	3
552.285	6
552.308	13
553.268	2
577.273	11
578.285	12
579.29	13
580.287	10
580.319	7
598.312	6
698.478	3
778.496	15
782.525	3
784.027	8
786.413	4
786.448	64
786.475	279
786.485	310
786.505	999
786.533	204
787.49	14
801.435	7
801.473	26
857.811	11
860.498	297
860.535	849
861.527	4
