Mass spectrum: PS(16:0/11,12-EET); LC-ESI-QTOF; MS2
Name: PS(16:0/11,12-EET)
Class: Oxidized Phospholipid
Formula: C42H74NO11P
Exact mass: 800.026
SMILES: CCCCCCCCCCCCCCCC(=O)OCC(COP(O)(=O)OCC(N)C(O)=O)OC(=O)CCC\C=C/C\C=C/CC1OC1C\C=C/CCCCC
InChI: InChI=1S/C42H74NO11P/c1-3-5-7-9-11-12-13-14-15-16-19-23-27-31-40(44)50-33-36(34-51-55(48,49)52-35-37(43)42(46)47)53-41(45)32-28-24-20-17-18-22-26-30-39-38(54-39)29-25-21-10-8-6-4-2/h17,20-22,25-26,36-39H,3-16,18-19,23-24,27-35,43H2,1-2H3,(H,46,47)(H,48,49)/b20-17-,25-21-,26-22-
Instrument: Acquity UPLC Peptide BEH C18 column (50 x 2.1 mm; 1.7 um), Sciex TripleTOF5600
Instrument type: LC-ESI-QTOF
Ms type: MS2
Ion mode: NEGATIVE
Collision energy: 30-50
Precursor m/z: 798.4926727
Precursor type: [M-H]-
m/z	relative intensity
78.95465	75
78.95714	75
78.95839	75
78.95963	150
78.96212	75
78.96337	75
149.0889	75
149.0958	75
152.9895	225
152.9913	225
152.993	375
152.9948	150
152.9965	75
153.0017	150
153.0138	75
167.0954	75
167.1009	75
167.1027	75
167.1045	225
167.1063	75
167.1081	150
167.1099	150
167.1118	75
197.1041	75
197.1159	75
197.1218	75
208.109	75
208.111	75
255.2143	75
255.2165	75
255.2188	150
255.221	300
255.2233	75
255.2255	150
255.2277	568
255.23	681
255.2322	225
255.2345	500
255.2367	375
255.2412	75
255.2546	75
281.2339	75
281.2363	75
281.2386	225
281.241	75
281.2433	150
281.248	75
281.2504	375
281.2551	150
281.2574	75
319.2203	150
319.2254	75
319.2279	300
319.2304	150
319.2379	75
319.2404	75
337.2213	75
337.2238	300
337.2264	75
337.229	225
337.2341	150
337.2367	468
337.2393	225
337.2419	462
337.2444	75
337.247	150
337.2496	75
337.2521	150
337.2547	75
391.1956	75
391.2067	75
391.2123	75
391.2151	225
391.2178	225
391.2206	493
391.2234	300
391.2262	393
391.2289	75
391.2317	75
391.2345	75
391.2373	225
391.24	75
409.216	75
409.2217	75
409.2245	75
409.2274	150
409.2302	225
409.2331	225
409.2359	75
409.2387	375
409.2416	75
409.2444	75
409.2586	75
455.1845	75
455.2054	75
455.2084	150
455.2174	300
455.2204	75
459.3262	75
459.3322	75
460.2706	75
460.2796	75
464.6591	75
464.6651	75
471.6478	75
471.6538	75
473.2299	150
478.2806	75
478.2898	75
478.2928	75
709.2066	75
709.2141	75
709.2253	75
711.3821	75
711.412	150
711.4195	150
711.427	225
711.4344	300
711.4382	225
711.442	431
711.4457	400
711.4494	375
711.4532	712
711.4569	437
711.4606	506
711.4644	418
711.4681	999
711.4719	375
711.4756	225
711.4794	300
711.4831	300
711.4868	75
711.4906	75
711.4943	150
711.498	75
798.4437	75
798.4634	75
798.4674	225
798.4714	225
798.4753	524
798.4833	468
798.4872	481
798.4912	456
798.4952	375
798.4991	437
798.5031	225
798.5071	880
798.511	562
798.515	693
798.519	506
798.5229	587
798.5269	687
798.5308	624
798.5348	612
798.5388	225
798.5427	225
798.5467	375
798.5507	300
798.5546	150
798.5586	150
798.5665	75
798.5705	75
798.5745	75
798.5784	75
