Mass spectrum: PI(17:0/20-HETE); LC-ESI-QTOF; MS2
Name: PI(17:0/20-HETE)
Class: Oxidized Phospholipid
Formula: C46H81O14P
Exact mass: 889.116
SMILES: CCCCCCCCCCCCCCCCC(=O)OCC(COP(O)(=O)OC1C(O)C(O)C(O)C(O)C1O)OC(=O)CCC\C=C/C\C=C/C\C=C/C\C=C/CCCCCO
InChI: InChI=1S/C46H81O14P/c1-2-3-4-5-6-7-8-9-15-18-21-24-27-30-33-39(48)57-36-38(37-58-61(55,56)60-46-44(53)42(51)41(50)43(52)45(46)54)59-40(49)34-31-28-25-22-19-16-13-11-10-12-14-17-20-23-26-29-32-35-47/h10,12-13,16-17,20,22,25,38,41-47,50-54H,2-9,11,14-15,18-19,21,23-24,26-37H2,1H3,(H,55,56)/b12-10-,16-13-,20-17-,25-22-
Instrument: Acquity UPLC Peptide BEH C18 column (50 x 2.1 mm; 1.7 um), Sciex TripleTOF5600
Instrument type: LC-ESI-QTOF
Ms type: MS2
Ion mode: NEGATIVE
Collision energy: 30-50
Precursor m/z: 887.5291178
Precursor type: [M-H]-
m/z	relative intensity
78.95681	94
78.95806	281
78.9593	187
117.0147	94
117.0193	94
152.9911	375
152.9929	281
152.9946	94
152.9964	94
152.9998	94
222.9904	94
222.9946	94
223.0009	94
223.0071	187
240.9868	94
240.9912	94
241.0021	281
241.0043	375
241.0064	94
241.0086	531
241.0108	281
241.013	281
241.0151	187
241.0195	187
241.0238	187
245.2139	94
245.227	187
259.0198	94
259.022	94
269.2287	94
269.2333	187
269.2379	281
269.2402	187
269.2425	375
269.2448	187
269.2471	546
269.2494	468
269.2517	468
269.254	187
275.2104	94
275.2337	94
275.2383	94
275.2407	94
289.2142	94
289.2214	187
289.2238	94
301.2047	94
301.2096	187
301.2144	94
301.2169	94
301.2193	94
301.2218	94
301.2412	94
315.0548	94
315.0623	94
317.2069	94
317.2119	94
319.1909	94
319.1984	94
319.2084	281
319.2109	94
319.2134	187
319.2159	500
319.2184	578
319.2209	640
319.2234	890
319.226	905
319.2285	515
319.231	656
319.2335	281
319.236	375
319.241	94
319.246	94
319.2485	94
319.2786	94
405.2179	94
405.2235	94
405.2264	94
405.2292	281
405.232	94
405.2348	734
405.2377	281
405.2405	94
405.28	94
455.2157	94
455.2187	94
455.2277	94
484.5597	94
484.5782	94
546.066	94
546.0693	94
567.2532	94
567.2766	94
567.2833	187
567.2866	94
567.29	94
567.2933	94
567.2966	94
567.3	281
567.3066	94
567.3134	94
567.32	94
585.2822	187
585.2958	94
585.2992	187
585.3127	187
585.3196	94
585.3365	94
586.2972	94
586.3176	94
617.2529	94
617.2564	94
617.2668	187
617.2842	94
884.7168	187
887.4807	94
887.489	281
887.4932	187
887.5015	468
887.5057	375
887.5099	671
887.5141	702
887.5182	999
887.5224	515
887.5266	687
887.5308	640
887.535	734
887.5391	375
887.5433	718
887.5475	187
887.5517	187
887.5558	187
887.5601	187
887.5642	94
887.5684	468
887.5726	94
887.5767	187
