Mass spectrum: Cer[NS] d37:1; LC-ESI-QTOF; MS2
Name: Cer[NS] d37:1
Class: Cer_NS
Formula: C37H73NO3
Exact mass: 579.9949999999999
SMILES: CCCCCCCCCCCCCCCCCCC(=O)NC(CO)C(O)\C=C\CCCCCCCCCCCCC
InChI: InChI=1S/C37H73NO3/c1-3-5-7-9-11-13-15-17-18-19-21-23-25-27-29-31-33-37(41)38-35(34-39)36(40)32-30-28-26-24-22-20-16-14-12-10-8-6-4-2/h30,32,35-36,39-40H,3-29,31,33-34H2,1-2H3,(H,38,41)/b32-30+
Instrument: AB Sciex TripleTOF 5600+ system (Q-TOF) equipped with a DuoSpray ion source
Instrument type: LC-ESI-QTOF
Ms type: MS2
Ion mode: NEGATIVE
Collision energy: 45V
Column name: Acquity UPLC Peptide BEH C18 column (50*2.1 mm; 1.7 um; 130A)(Waters Co.,Milford, MA, USA)
Retention time: 11.49755
Precursor type: [M+CH3COOH-H]-
Precursor m/z: 638.5695
m/z	relative intensity
141.015	11
223.204	38
237.22	77
246.982	14
249.225	11
263.235	74
266.253	14
268.268	11
270.95	14
279.27	103
293.283	20
295.296	26
296.291	77
297.277	74
310.309	41
310.939	11
311.296	17
322.31	409
336.322	91
338.306	44
350.343	14
352.322	20
352.939	14
368.976	8
392.944	10
430.942	14
434.948	14
474.933	14
501.498	5
506.319	8
530.525	68
532.97	5
546.506	32
546.522	44
546.542	23
548.525	71
548.546	74
560.539	5
574.421	5
576.728	8
578.497	11
578.547	999
578.598	17
579.549	5
