Mass spectrum: SM d41:1; LC-ESI-QTOF; MS2
Name: SM d41:1
Class: SM
Formula: C46H93N2O6P
Exact mass: 801.234
SMILES: CCCCCCCCCCCCCCCCCCCCCCC(=O)NC(COP([O-])(=O)OCC[N+](C)(C)C)C(O)\C=C\CCCCCCCCCCCCC
InChI: InChI=1S/C46H93N2O6P/c1-6-8-10-12-14-16-18-20-21-22-23-24-25-26-28-30-32-34-36-38-40-46(50)47-44(43-54-55(51,52)53-42-41-48(3,4)5)45(49)39-37-35-33-31-29-27-19-17-15-13-11-9-7-2/h37,39,44-45,49H,6-36,38,40-43H2,1-5H3,(H-,47,50,51,52)/b39-37+
Instrument: AB Sciex TripleTOF 5600+ system (Q-TOF) equipped with a DuoSpray ion source
Instrument type: LC-ESI-QTOF
Ms type: MS2
Ion mode: NEGATIVE
Collision energy: 45V
Column name: Acquity UPLC Peptide BEH C18 column (50*2.1 mm; 1.7 um; 130A)(Waters Co.,Milford, MA, USA)
Retention time: 12.88201
Precursor type: [M+CH3COOH-H]-
Precursor m/z: 859.6852
m/z	relative intensity
78.957	8
122.983	1
125.002	0
141.011	0
154.992	0
168.042	44
255.233	0
353.334	0
425.069	0
435.297	0
444.038	0
449.319	1
453.107	0
464.254	0
483.539	0
488.133	0
506.326	0
513.356	0
567.841	0
627.523	0
635.626	0
714.549	1
714.594	2
740.586	1
783.145	0
783.169	2
783.221	1
785.457	1
785.65	999
785.836	0
786.599	0
786.643	2
786.673	1
799.652	0
800.597	1
800.628	3
859.606	1
859.635	3
859.678	27
859.712	8
859.735	2
