Mass spectrum: PC 38:6; LC-ESI-QTOF; MS2
Name: PC 38:6
Class: PC
Formula: C46H80NO8P
Exact mass: 806.1209999999999
SMILES: CCCCC\C=C/C\C=C/CCCCCCCC(=O)OCC(COP([O-])(=O)OCC[N+](C)(C)C)OC(=O)CCCCCC\C=C/C\C=C/C\C=C/C\C=C/CC
InChI: InChI=1S/C46H80NO8P/c1-6-8-10-12-14-16-18-20-22-23-25-27-29-31-33-35-37-39-46(49)55-44(43-54-56(50,51)53-41-40-47(3,4)5)42-52-45(48)38-36-34-32-30-28-26-24-21-19-17-15-13-11-9-7-2/h8,10,14-17,20-22,24-25,27,44H,6-7,9,11-13,18-19,23,26,28-43H2,1-5H3/b10-8-,16-14-,17-15-,22-20-,24-21-,27-25-
Instrument: AB Sciex TripleTOF 5600+ system (Q-TOF) equipped with a DuoSpray ion source
Instrument type: LC-ESI-QTOF
Ms type: MS2
Ion mode: NEGATIVE
Collision energy: 45V
Column name: Acquity UPLC Peptide BEH C18 column (50*2.1 mm; 1.7 um; 130A)(Waters Co.,Milford, MA, USA)
Retention time: 8.93198
Precursor type: [M+CH3COOH-H]-
Precursor m/z: 864.571
m/z	relative intensity
78.957	3
152.995	2
163.079	1
168.039	10
205.123	1
205.193	5
205.205	1
220.035	1
224.069	16
242.081	2
255.231	2
257.231	1
259.241	55
278.372	2
279.198	4
279.232	300
281.237	2
283.259	7
285.218	2
301.212	4
302.277	3
303.231	783
303.32	1
319.234	3
327.224	3
329.249	1
415.226	2
430.263	1
464.309	1
480.298	2
481.332	0
486.263	2
486.296	12
491.836	1
502.726	1
504.285	31
504.31	78
506.299	0
510.279	3
510.303	2
519.267	1
528.287	3
528.312	3
528.332	1
606.233	0
719.466	1
745.482	2
782.499	7
782.524	9
782.551	3
788.03	4
789.557	1
790.431	2
790.53	999
791.544	2
804.477	1
805.478	5
805.499	3
805.522	3
864.51	11
864.559	97
864.606	16
