Mass spectrum: PC(16:1e/9-HODE); LC-ESI-QTOF; MS2
Name: PC(16:1e/9-HODE)
Class: Oxidized Phospholipid
Formula: C42H80NO8P
Exact mass: 758.077
SMILES: CCCCCCCCCCCCCC\C=C/OCC(COP([O-])(=O)OCC[N+](C)(C)C)OC(=O)CCCCCCCC(O)\C=C\C=C/CCCCC
InChI: InChI=1S/C42H80NO8P/c1-6-8-10-12-14-15-16-17-18-19-20-22-27-31-36-48-38-41(39-50-52(46,47)49-37-35-43(3,4)5)51-42(45)34-30-26-23-25-29-33-40(44)32-28-24-21-13-11-9-7-2/h21,24,28,31-32,36,40-41,44H,6-20,22-23,25-27,29-30,33-35,37-39H2,1-5H3/b24-21-,32-28+,36-31-
Instrument: Acquity UPLC Peptide BEH C18 column (50 x 2.1 mm; 1.7 um), Sciex TripleTOF5600
Instrument type: LC-ESI-QTOF
Ms type: MS2
Ion mode: NEGATIVE
Collision energy: 30-50
Precursor m/z: 816.576008
Precursor type: [M+CH3COOH-H]-
m/z	relative intensity
93.21754	33
93.21889	33
141.0053	33
141.0119	33
141.0136	33
141.0169	99
141.0186	66
141.0219	33
141.0253	33
171.0947	33
171.0984	33
171.1002	33
255.2296	33
255.2385	33
255.2408	33
267.1424	33
267.1859	33
267.1882	33
267.1951	99
277.1978	33
277.2049	66
277.2072	66
277.2095	66
277.2119	33
277.2142	99
277.2165	66
277.2189	66
277.2212	99
277.2282	33
291.1892	33
291.206	33
293.2079	33
293.2103	33
293.2127	66
293.2151	66
293.2175	33
293.2247	33
295.1974	33
295.2046	33
295.207	33
295.2094	33
295.2118	99
295.2142	99
295.2166	181
295.2191	225
295.2215	302
295.2239	360
295.2263	349
295.2287	390
295.2311	132
295.2335	195
295.2359	33
295.2383	33
295.2408	33
295.2432	66
295.2456	33
295.2745	33
296.2321	66
446.2837	66
446.2956	33
446.3074	33
446.3133	33
446.3193	33
464.2835	33
464.2925	33
464.3016	132
464.3046	33
464.3076	33
464.3107	33
464.3137	33
464.3197	33
464.3228	99
464.3258	33
464.3379	33
466.3256	66
492.3346	33
492.347	33
569.3602	33
569.3635	33
587.3781	33
587.4223	33
587.4597	33
613.4505	33
613.4609	33
660.4531	33
660.4603	33
671.4668	66
671.4777	33
672.4775	33
672.5103	33
697.4666	33
697.4814	33
729.4614	33
729.4803	33
729.4954	66
729.4992	33
731.4514	33
731.4704	33
742.4892	33
742.493	33
742.4968	66
742.5007	162
742.5045	129
742.5083	129
742.5121	203
742.5159	206
742.5198	667
742.5236	360
742.5274	414
742.5313	749
742.535	974
742.5389	999
742.5427	722
742.5465	722
742.5504	412
742.5541	302
742.558	349
742.5618	233
742.5656	225
742.5695	129
742.5732	66
742.5771	99
742.5809	99
742.5886	33
742.6191	33
754.4839	33
754.4877	66
754.4916	33
756.5039	33
756.5155	33
756.5232	33
756.5386	33
756.5425	33
816.476	33
816.48	33
816.5	33
816.512	33
816.524	33
816.5281	33
816.5361	33
816.5481	33
816.5521	33
816.5562	33
816.5641	132
816.5682	99
816.5721	66
816.5762	33
816.5882	99
816.5922	99
816.6002	33
816.6122	33
816.6363	33
816.7084	33
