Mass spectrum: PC 37:6; LC-ESI-QTOF; MS2
Name: PC 37:6
Class: PC
Formula: C45H78NO8P
Exact mass: 792.0939999999999
SMILES: CCCCCCCCCCCCCCC(=O)OCC(COP([O-])(=O)OCC[N+](C)(C)C)OC(=O)CC\C=C/C\C=C/C\C=C/C\C=C/C\C=C/C\C=C/CC
InChI: InChI=1S/C45H78NO8P/c1-6-8-10-12-14-16-18-20-21-22-23-24-25-26-28-30-32-34-36-38-45(48)54-43(42-53-55(49,50)52-40-39-46(3,4)5)41-51-44(47)37-35-33-31-29-27-19-17-15-13-11-9-7-2/h8,10,14,16,20-21,23-24,26,28,32,34,43H,6-7,9,11-13,15,17-19,22,25,27,29-31,33,35-42H2,1-5H3/b10-8-,16-14-,21-20-,24-23-,28-26-,34-32-
Instrument: AB Sciex TripleTOF 5600+ system (Q-TOF) equipped with a DuoSpray ion source
Instrument type: LC-ESI-QTOF
Ms type: MS2
Ion mode: NEGATIVE
Collision energy: 45V
Column name: Acquity UPLC Peptide BEH C18 column (50*2.1 mm; 1.7 um; 130A)(Waters Co.,Milford, MA, USA)
Retention time: 8.886827
Precursor type: [M+CH3COOH-H]-
Precursor m/z: 850.5575
m/z	relative intensity
168.04	6
175.145	9
177.164	6
191.181	12
215.179	9
224.069	15
229.191	41
241.214	231
249.19	9
255.226	20
279.218	7
283.24	151
283.255	32
283.265	41
301.216	6
303.235	6
309.227	6
313.21	19
327.23	523
448.283	18
466.285	76
466.297	25
479.288	9
480.299	15
552.297	6
758.557	6
763.508	16
768.491	6
776.433	9
776.476	52
776.5	208
776.521	999
789.51	6
790.477	35
790.492	47
790.502	38
790.517	67
850.515	15
850.532	22
850.565	164
