Mass spectrum: PC(18:1/17,18-EpETE); LC-ESI-QTOF; MS2
Name: PC(18:1/17,18-EpETE)
Class: Oxidized Phospholipid
Formula: C46H80NO9P
Exact mass: 822.12
SMILES: CCCCCCCC\C=C/CCCCCCCC(=O)OCC(COP([O-])(=O)OCC[N+](C)(C)C)OC(=O)CCC\C=C/C\C=C/C\C=C/C\C=C/CC1OC1CC
InChI: InChI=1S/C46H80NO9P/c1-6-8-9-10-11-12-13-14-15-18-21-24-27-30-33-36-45(48)52-40-42(41-54-57(50,51)53-39-38-47(3,4)5)55-46(49)37-34-31-28-25-22-19-16-17-20-23-26-29-32-35-44-43(7-2)56-44/h14-16,19-20,23,25,28-29,32,42-44H,6-13,17-18,21-22,24,26-27,30-31,33-41H2,1-5H3/b15-14-,19-16-,23-20-,28-25-,32-29-
Instrument: Acquity UPLC Peptide BEH C18 column (50 x 2.1 mm; 1.7 um), Sciex TripleTOF5600
Instrument type: LC-ESI-QTOF
Ms type: MS2
Ion mode: NEGATIVE
Collision energy: 30-50
Precursor m/z: 880.5709227
Precursor type: [M+CH3COOH-H]-
m/z	relative intensity
148.4044	26
215.1723	41
215.1744	26
215.1764	54
215.1785	80
215.1806	41
215.1847	26
219.1854	26
224.069	26
255.1992	26
255.2037	41
255.2059	54
255.2082	41
255.2104	41
255.2127	54
255.215	54
255.2195	26
255.2217	54
259.1589	41
259.1612	41
259.1635	54
259.1658	41
259.168	26
259.1703	54
259.1726	80
259.1771	41
259.1794	41
259.1839	26
261.189	26
273.2092	26
273.2139	26
273.2279	26
279.2382	28
281.2222	26
281.227	26
281.2341	67
281.2364	108
281.2388	175
281.2411	121
281.2435	310
281.2459	284
281.2483	308
281.2506	310
281.253	349
281.2554	202
281.2577	201
281.2601	175
281.2625	189
281.2648	54
299.1873	54
299.1897	26
299.1921	41
299.1946	26
299.1971	80
299.1995	41
299.2043	26
299.2068	93
299.2092	80
317.1831	26
317.1856	54
317.1881	26
317.1931	80
317.1957	80
317.1982	93
317.2007	147
317.2032	108
317.2057	201
317.2082	281
317.2108	335
317.2133	294
317.2158	348
317.2183	322
317.2208	214
317.2233	121
317.2258	26
317.2283	93
317.2308	54
317.2359	26
318.2142	26
417.2384	26
488.2992	26
488.3054	26
488.3148	41
506.2932	26
506.2995	41
506.3027	26
506.3058	67
506.309	41
506.3122	54
506.3154	26
506.3185	41
506.3217	80
506.3249	41
506.3281	93
506.3312	41
506.3344	80
506.3376	80
506.3408	41
506.344	41
506.3471	26
506.3503	26
782.491	26
783.4821	28
804.0375	28
806.4638	41
806.4678	41
806.4719	55
806.4758	81
806.4799	81
806.4839	55
806.4879	56
806.4919	129
806.4959	171
806.4999	143
806.5039	348
806.5079	307
806.5119	613
806.5159	748
806.52	528
806.5239	656
806.528	811
806.5319	869
806.5359	820
806.54	851
806.5439	999
806.548	996
806.552	937
806.556	645
806.56	630
806.564	511
806.568	456
806.572	319
806.576	411
806.58	221
806.584	88
806.5881	146
806.592	101
806.5961	101
806.6001	28
806.6041	58
806.6081	14
806.6121	29
806.6321	33
807.522	41
807.526	14
807.5421	41
807.5581	26
821.4869	26
821.5193	26
821.5273	26
880.4728	26
880.4771	26
880.5063	54
880.5106	26
880.5189	67
880.5231	26
880.5273	41
880.5356	26
880.5399	41
880.5482	108
880.5524	67
880.5566	54
880.5608	67
880.5649	108
880.5692	93
880.5733	147
880.5775	54
880.5817	54
880.5859	54
880.5901	80
880.5943	121
880.5984	54
880.6027	67
880.6068	26
880.611	67
880.6152	26
880.6194	41
880.6277	26
