Mass spectrum: PS 38:6; LC-ESI-QTOF; MS2
Name: PS 38:6
Class: PS
Formula: C44H74NO10P
Exact mass: 808.0489999999999
SMILES: CCCCCCCCCCCCCCCC(=O)OCC(COP(O)(=O)OCC(N)C(O)=O)OC(=O)CC\C=C/C\C=C/C\C=C/C\C=C/C\C=C/C\C=C/CC
InChI: InChI=1S/C44H74NO10P/c1-3-5-7-9-11-13-15-17-18-19-20-21-22-24-26-28-30-32-34-36-43(47)55-40(38-53-56(50,51)54-39-41(45)44(48)49)37-52-42(46)35-33-31-29-27-25-23-16-14-12-10-8-6-4-2/h5,7,11,13,17-18,20-21,24,26,30,32,40-41H,3-4,6,8-10,12,14-16,19,22-23,25,27-29,31,33-39,45H2,1-2H3,(H,48,49)(H,50,51)/b7-5-,13-11-,18-17-,21-20-,26-24-,32-30-
Instrument: AB Sciex TripleTOF 5600+ system (Q-TOF) equipped with a DuoSpray ion source
Instrument type: LC-ESI-QTOF
Ms type: MS2
Ion mode: NEGATIVE
Collision energy: 45V
Column name: Acquity UPLC Peptide BEH C18 column (50*2.1 mm; 1.7 um; 130A)(Waters Co.,Milford, MA, USA)
Retention time: 8.299236
Precursor type: [M-H]-
Precursor m/z: 806.5011
m/z	relative intensity
78.96	38
96.969	10
136.968	3
152.996	181
171.005	5
229.196	8
241.192	3
254.44	12
255.233	999
256.241	3
279.234	6
281.238	10
283.24	49
283.257	20
283.269	53
284.252	7
284.266	27
303.232	6
325.217	6
327.234	164
328.239	7
343.234	17
389.986	7
391.226	483
409.236	263
417.243	5
419.247	17
419.262	28
420.249	15
420.269	5
437.271	13
463.224	86
464.233	7
480.317	3
481.228	14
481.247	9
481.299	1
492.368	1
496.298	1
517.33	3
628.523	1
717.217	3
719.47	858
719.532	10
720.468	3
747.496	2
748.464	4
748.483	8
748.507	22
788.536	3
803.962	3
805.398	2
806.426	3
806.502	850
806.605	5
806.748	2
807.503	4
