Mass spectrum: PS 32:0; LC-ESI-QTOF; MS2
Name: PS 32:0
Class: PS
Formula: C38H74NO10P
Exact mass: 735.983
SMILES: CCCCCCCCCCCCCCCC(=O)OCC(COP(O)(=O)OCC(N)C(O)=O)OC(=O)CCCCCCCCCCCCCCC
InChI: InChI=1S/C38H74NO10P/c1-3-5-7-9-11-13-15-17-19-21-23-25-27-29-36(40)46-31-34(32-47-50(44,45)48-33-35(39)38(42)43)49-37(41)30-28-26-24-22-20-18-16-14-12-10-8-6-4-2/h34-35H,3-33,39H2,1-2H3,(H,42,43)(H,44,45)
Instrument: AB Sciex TripleTOF 5600+ system (Q-TOF) equipped with a DuoSpray ion source
Instrument type: LC-ESI-QTOF
Ms type: MS2
Ion mode: NEGATIVE
Collision energy: 45V
Column name: Acquity UPLC Peptide BEH C18 column (50*2.1 mm; 1.7 um; 130A)(Waters Co.,Milford, MA, USA)
Retention time: 8.56761
Precursor type: [M-H]-
Precursor m/z: 734.4984
m/z	relative intensity
227.202	35
255.219	120
255.231	999
283.247	82
301.211	86
327.239	70
391.206	83
391.227	371
409.224	107
647.436	180
647.45	132
647.466	361
647.512	41
660.485	35
734.431	35
734.46	47
734.471	155
734.49	96
734.504	157
734.515	94
