Mass spectrum: Cer[NP] t42:0; LC-ESI-QTOF; MS2
Name: Cer[NP] t42:0
Class: Cer_NP
Formula: C42H85NO4
Exact mass: 668.145
SMILES: CCCCCCCCCCCCCCCCCCCCCCCC(=O)NC(CO)C(O)C(O)CCCCCCCCCCCCCC
InChI: InChI=1S/C42H85NO4/c1-3-5-7-9-11-13-15-17-18-19-20-21-22-23-24-25-27-29-31-33-35-37-41(46)43-39(38-44)42(47)40(45)36-34-32-30-28-26-16-14-12-10-8-6-4-2/h39-40,42,44-45,47H,3-38H2,1-2H3,(H,43,46)
Instrument: AB Sciex TripleTOF 5600+ system (Q-TOF) equipped with a DuoSpray ion source
Instrument type: LC-ESI-QTOF
Ms type: MS2
Ion mode: NEGATIVE
Collision energy: 45V
Column name: Acquity UPLC Peptide BEH C18 column (50*2.1 mm; 1.7 um; 130A)(Waters Co.,Milford, MA, USA)
Retention time: 13.17503
Precursor type: [M+CH3COOH-H]-
Precursor m/z: 726.659
m/z	relative intensity
223.207	1
225.22	15
237.221	3
239.236	2
241.22	1
248.238	1
250.253	2
251.238	0
253.216	5
255.231	45
263.238	2
266.393	1
267.092	0
267.232	233
268.275	0
278.248	1
279.232	10
280.262	19
283.263	1
284.26	9
295.261	2
297.242	4
316.285	7
339.327	2
349.347	22
351.359	8
362.372	1
365.375	2
366.373	106
367.357	199
378.373	1
379.355	1
380.389	16
381.371	14
390.378	2
392.353	1
392.388	77
394.364	2
396.389	1
404.388	11
406.364	1
407.382	3
408.348	1
408.383	123
409.104	1
410.398	359
422.398	321
505.509	1
531.496	1
588.614	1
600.607	16
602.617	2
612.603	2
616.58	0
616.607	2
618.615	6
630.618	101
634.585	3
634.614	27
636.591	0
636.617	4
636.646	1
646.61	1
648.589	3
648.626	38
664.503	1
664.541	4
664.591	1
666.315	1
666.638	999
667.046	0
667.306	0
667.635	2
674.868	0
676.727	0
693.894	0
726.592	0
726.666	1
