Mass spectrum: PC(18:0/20-HETE); LC-ESI-QTOF; MS2
Name: PC(18:0/20-HETE)
Class: Oxidized Phospholipid
Formula: C46H84NO9P
Exact mass: 826.152
SMILES: CCCCCCCCCCCCCCCCCC(=O)OCC(COP([O-])(=O)OCC[N+](C)(C)C)OC(=O)CCC\C=C/C\C=C/C\C=C/C\C=C/CCCCCO
InChI: InChI=1S/C46H84NO9P/c1-5-6-7-8-9-10-11-12-16-19-22-25-28-31-34-37-45(49)53-42-44(43-55-57(51,52)54-41-39-47(2,3)4)56-46(50)38-35-32-29-26-23-20-17-14-13-15-18-21-24-27-30-33-36-40-48/h13,15,17,20-21,24,26,29,44,48H,5-12,14,16,18-19,22-23,25,27-28,30-43H2,1-4H3/b15-13-,20-17-,24-21-,29-26-
Instrument: Acquity UPLC Peptide BEH C18 column (50 x 2.1 mm; 1.7 um), Sciex TripleTOF5600
Instrument type: LC-ESI-QTOF
Ms type: MS2
Ion mode: NEGATIVE
Collision energy: 30-50
Precursor m/z: 884.6022228
Precursor type: [M+CH3COOH-H]-
m/z	relative intensity
151.1514	5
151.1583	5
168.04	15
168.0418	5
168.0563	5
177.0835	5
177.091	5
177.0966	5
182.5298	5
182.5336	5
185.7443	5
185.7462	5
189.1372	5
189.1662	5
189.17	5
208.5144	5
208.5205	5
208.5266	5
214.1765	5
214.1785	5
224.0602	5
224.0623	5
224.0665	5
224.0707	5
224.0728	5
224.0749	10
224.0875	5
245.212	5
245.2186	5
245.2252	5
245.2274	5
257.2242	5
257.2287	5
257.2355	5
257.2377	5
257.2444	5
275.2293	5
275.234	15
275.2363	5
275.2456	5
275.2503	5
281.2252	5
281.2299	5
281.237	5
282.2469	5
282.2799	5
282.3671	5
282.393	5
283.202	5
283.2374	5
283.2398	5
283.2422	5
283.2469	5
283.2492	32
283.2516	31
283.2539	65
283.2563	51
283.2587	96
283.261	113
283.2634	107
283.2657	107
283.2681	71
283.2705	48
283.2728	67
283.2752	41
283.2776	10
283.2799	15
283.287	5
287.1003	5
287.1075	5
287.3832	5
287.4189	5
289.2121	5
289.2145	5
289.2169	5
289.2193	10
289.2216	5
289.2264	5
301.2001	5
301.2025	10
301.205	20
301.2074	5
301.2098	15
301.2122	20
301.2147	15
301.2171	10
301.2196	10
301.222	5
301.2244	10
301.2269	5
301.2293	5
318.2196	10
318.2246	5
318.2271	5
318.2296	5
318.2471	5
319.2011	5
319.2061	27
319.2086	29
319.2111	66
319.2136	86
319.2161	144
319.2186	170
319.2211	208
319.2236	302
319.2261	301
319.2286	454
319.2311	225
319.2336	232
319.2361	118
319.2387	83
319.2412	40
319.2437	105
319.2462	15
319.2487	31
319.2512	10
319.2612	5
319.2637	5
319.2863	5
319.6673	5
319.6748	5
320.2243	10
321.234	5
321.244	5
321.9609	5
324.6871	10
329.1909	5
331.2451	5
331.2681	5
347.2527	5
347.2552	5
347.2631	5
419.2332	5
419.2476	5
419.2591	5
419.262	5
455.2095	5
455.2274	5
455.2304	5
458.2338	5
458.2428	5
463.6056	5
463.6086	5
466.2851	5
466.2881	5
490.3096	5
490.3158	10
490.3189	5
490.322	5
490.3251	5
490.3313	10
490.3344	5
490.3406	5
490.3438	10
490.3469	5
496.2718	5
496.3186	5
508.2915	5
508.3042	5
508.3073	5
508.3168	5
508.32	15
508.3232	10
508.3263	26
508.3295	38
508.3326	46
508.3358	61
508.339	30
508.3421	39
508.3453	26
508.3484	20
508.3516	26
508.3548	26
508.3579	27
508.3643	10
508.3706	5
508.3737	5
512.22	5
512.2708	5
514.3967	10
514.8898	5
514.8962	5
526.2787	5
526.2883	5
526.2916	10
526.2948	10
526.298	10
526.3077	5
526.3141	5
544.2841	5
544.2906	5
544.2972	5
544.3037	5
544.3135	5
544.3201	5
551.5394	5
551.5757	5
551.579	10
554.3724	5
554.4352	5
719.4717	5
719.4792	5
719.4868	5
720.4652	10
720.4689	5
720.4727	10
720.4765	5
720.4802	5
720.484	15
720.4878	10
720.4916	15
720.4953	20
720.4991	5
720.5104	5
720.5179	5
720.5443	5
724.7745	5
724.7821	5
737.5016	5
737.5245	5
739.4645	5
739.4798	15
739.4836	10
739.4874	10
739.4988	10
739.5027	5
739.5103	5
739.5179	5
765.483	5
765.5101	10
765.5334	5
770.4268	5
770.5008	5
802.4492	5
802.5009	5
802.5286	5
807.9732	5
807.9812	5
807.9932	10
807.9971	5
808.0011	5
808.0171	5
808.025	5
808.045	5
808.0609	5
808.0729	5
809.4689	5
809.5048	5
809.5208	5
809.5487	5
809.5607	5
809.5726	5
809.6046	5
809.6245	5
810.4468	5
810.4828	5
810.4868	5
810.4908	5
810.4948	5
810.4987	10
810.5067	20
810.5107	5
810.5147	5
810.5187	15
810.5227	59
810.5267	37
810.5307	68
810.5347	136
810.5387	191
810.5427	258
810.5466	513
810.5507	639
810.5546	633
810.5587	801
810.5626	914
810.5667	999
810.5706	801
810.5746	688
810.5786	705
810.5826	438
810.5866	340
810.5906	303
810.5945	199
810.5986	150
810.6025	110
810.6066	82
810.6105	47
810.6146	30
810.6185	36
810.6226	15
810.6265	15
810.6305	20
810.6345	10
810.6385	10
810.6425	10
810.6465	5
810.6545	5
810.6625	5
810.7224	5
810.7543	5
810.9899	5
811.0019	5
811.5772	5
811.6212	5
811.6451	5
815.5817	5
815.5857	5
822.3849	5
822.4573	5
822.574	5
822.6223	5
824.1516	5
824.1959	5
824.4899	5
824.5059	5
825.4808	5
825.4849	5
825.4929	5
825.505	5
825.509	10
825.5131	10
825.5171	10
825.5211	15
825.5251	15
825.5292	28
825.5372	15
825.5413	26
825.5453	5
825.5493	5
825.5614	5
837.5612	5
837.5856	5
837.5978	5
854.9911	5
855.0198	5
884.423	5
884.4523	5
884.5065	5
884.5231	5
884.5273	20
884.5315	5
884.5356	15
884.5399	10
884.544	10
884.5482	20
884.5524	15
884.5565	26
884.5607	15
884.5649	37
884.569	29
884.5732	35
884.5774	55
884.5815	59
884.5857	95
884.5899	80
884.5941	124
884.5983	67
884.6024	78
884.6066	83
884.6108	74
884.6149	99
884.6191	73
884.6233	67
884.6274	54
884.6316	32
884.6358	62
884.64	26
884.6441	20
884.6483	10
884.6525	20
884.6566	10
884.6608	5
884.665	5
884.6733	5
884.6775	5
884.6816	5
884.7067	5
