Mass spectrum: PI 36:5; LC-ESI-QTOF; MS2
Name: PI 36:5
Class: PI
Formula: C45H77O13P
Exact mass: 857.074
SMILES: CCCCCCCCCCCCCCCC(=O)OCC(COP(O)(=O)OC1C(O)C(O)C(O)C(O)C1O)OC(=O)CCC\C=C/C\C=C/C\C=C/C\C=C/C\C=C/CC
InChI: InChI=1S/C45H77O13P/c1-3-5-7-9-11-13-15-17-18-19-20-22-24-26-28-30-32-34-39(47)57-37(36-56-59(53,54)58-45-43(51)41(49)40(48)42(50)44(45)52)35-55-38(46)33-31-29-27-25-23-21-16-14-12-10-8-6-4-2/h5,7,11,13,17-18,20,22,26,28,37,40-45,48-52H,3-4,6,8-10,12,14-16,19,21,23-25,27,29-36H2,1-2H3,(H,53,54)/b7-5-,13-11-,18-17-,22-20-,28-26-
Instrument: AB Sciex TripleTOF 5600+ system (Q-TOF) equipped with a DuoSpray ion source
Instrument type: LC-ESI-QTOF
Ms type: MS2
Ion mode: NEGATIVE
Collision energy: 45V
Column name: Acquity UPLC Peptide BEH C18 column (50*2.1 mm; 1.7 um; 130A)(Waters Co.,Milford, MA, USA)
Retention time: 8.082557
Precursor type: [M-H]-
Precursor m/z: 855.503
m/z	relative intensity
152.995	13
196.037	4
203.183	3
223.0	17
241.01	105
255.233	138
257.224	17
257.237	6
259.021	10
283.264	13
284.266	13
293.2	1
297.037	11
301.217	79
315.047	7
391.221	57
405.27	1
409.236	2
437.212	8
471.961	1
479.177	1
480.305	6
481.305	7
553.255	17
553.276	48
571.288	23
599.246	8
599.274	5
599.305	2
617.264	2
693.426	3
693.474	2
705.459	3
763.437	1
781.518	3
823.482	5
837.507	1
852.774	3
854.221	1
854.563	1
855.211	1
855.372	1
855.5	999
855.566	9
855.713	2
856.506	3
