Mass spectrum: PE(16:0/8,9-EET); LC-ESI-QTOF; MS2
Name: PE(16:0/8,9-EET)
Class: Oxidized Phospholipid
Formula: C41H74NO9P
Exact mass: 756.017
SMILES: CCCCCCCCCCCCCCCC(=O)OCC(COP(O)(=O)OCCN)OC(=O)CCC\C=C/CC1OC1C\C=C/C\C=C/CCCCC
InChI: InChI=1S/C41H74NO9P/c1-3-5-7-9-11-13-14-15-16-18-20-22-27-31-40(43)47-35-37(36-49-52(45,46)48-34-33-42)50-41(44)32-28-24-23-26-30-39-38(51-39)29-25-21-19-17-12-10-8-6-4-2/h12,17,21,23,25-26,37-39H,3-11,13-16,18-20,22,24,27-36,42H2,1-2H3,(H,45,46)/b17-12-,25-21-,26-23-
Instrument: Acquity UPLC Peptide BEH C18 column (50 x 2.1 mm; 1.7 um), Sciex TripleTOF5600
Instrument type: LC-ESI-QTOF
Ms type: MS2
Ion mode: NEGATIVE
Collision energy: 30-50
Precursor m/z: 754.5028435
Precursor type: [M-H]-
m/z	relative intensity
78.96036	53
123.0798	34
127.0736	34
127.0752	53
139.0746	34
140.003	53
140.008	53
140.0097	34
140.0147	34
140.0163	53
151.1431	34
151.1483	34
155.0695	34
155.0712	34
155.073	34
155.0748	34
163.14	34
163.1454	53
163.149	53
163.1508	34
167.0706	53
167.0724	34
167.0742	53
179.1447	34
179.1485	34
196.0365	53
196.0404	34
196.0424	34
196.0444	53
196.0483	34
203.1868	34
219.215	34
227.1913	34
227.204	34
227.2083	34
234.1946	36
243.1929	36
254.4361	36
254.4541	36
254.4564	36
254.4812	36
255.2087	34
255.211	53
255.2132	53
255.2155	106
255.2177	197
255.22	252
255.2222	377
255.2245	505
255.2267	634
255.229	709
255.2312	927
255.2335	601
255.2357	691
255.238	708
255.2402	418
255.2425	399
255.2448	307
255.247	146
255.2493	254
255.2515	163
255.2538	72
255.256	36
255.2583	19
255.2605	34
255.2763	19
256.2398	34
257.2142	70
257.2165	70
257.2188	53
257.221	34
257.2255	87
257.2278	53
257.2301	105
257.2346	34
275.2332	34
275.2356	53
275.2379	34
275.2426	34
275.2449	34
281.2347	53
281.2371	34
281.2394	34
281.2441	87
281.2489	53
281.2513	53
281.2536	53
281.2583	70
281.2607	53
283.2519	34
291.2244	34
301.1975	53
301.2	34
301.2024	53
301.2048	34
301.2073	53
301.2097	34
301.2122	87
301.2146	53
301.2171	87
301.2195	34
301.222	34
301.2244	70
301.2269	34
301.2293	87
301.2318	53
301.2367	36
309.2829	36
312.0982	36
319.1974	53
319.2025	123
319.205	106
319.2075	55
319.21	142
319.2125	195
319.215	267
319.2176	339
319.2201	411
319.2226	485
319.2251	593
319.2277	430
319.2302	430
319.2327	375
319.2352	557
319.2377	394
319.2403	216
319.2428	233
319.2453	108
319.2478	127
319.2503	19
319.2529	53
319.2554	36
391.2264	53
434.2645	53
434.2792	34
452.2537	34
452.2567	87
452.2597	87
452.2627	122
452.2657	87
452.2687	158
452.2717	105
452.2747	228
452.2777	105
452.2807	122
452.2837	158
452.2867	158
452.2897	141
452.2927	105
452.2957	53
452.2987	141
452.3047	34
452.3077	53
498.2535	34
498.2661	34
662.4944	34
752.1234	53
754.4391	34
754.4431	106
754.4469	142
754.4508	70
754.4547	123
754.4586	106
754.4624	212
754.4663	288
754.4702	382
754.4741	461
754.4779	370
754.4818	368
754.4857	699
754.4896	701
754.4934	591
754.4973	591
754.5012	648
754.5051	999
754.5089	680
754.5128	723
754.5167	759
754.5206	574
754.5244	629
754.5283	442
754.5322	389
754.5361	500
754.5399	389
754.5438	276
754.5477	331
754.5516	260
754.5554	187
754.5593	55
754.5632	91
754.5671	96
754.5826	19
755.0129	19
755.4859	34
755.4937	53
755.5014	34
755.5053	34
755.5092	53
755.5363	19
755.5596	53
