Mass spectrum: PC 30:1; LC-ESI-QTOF; MS2
Name: PC 30:1
Class: PC
Formula: C38H74NO8P
Exact mass: 703.9849999999999
SMILES: CCCCCCCCCCCCCC(=O)OCC(COP([O-])(=O)OCC[N+](C)(C)C)OC(=O)CCCCCCC\C=C/CCCCCC
InChI: InChI=1S/C38H74NO8P/c1-6-8-10-12-14-16-18-19-21-23-25-27-29-31-38(41)47-36(35-46-48(42,43)45-33-32-39(3,4)5)34-44-37(40)30-28-26-24-22-20-17-15-13-11-9-7-2/h16,18,36H,6-15,17,19-35H2,1-5H3/b18-16-
Instrument: AB Sciex TripleTOF 5600+ system (Q-TOF) equipped with a DuoSpray ion source
Instrument type: LC-ESI-QTOF
Ms type: MS2
Ion mode: NEGATIVE
Collision energy: 45V
Column name: Acquity UPLC Peptide BEH C18 column (50*2.1 mm; 1.7 um; 130A)(Waters Co.,Milford, MA, USA)
Retention time: 8.588853
Precursor type: [M+CH3COOH-H]-
Precursor m/z: 762.5246
m/z	relative intensity
152.995	21
168.043	24
224.066	16
225.176	74
225.187	148
225.197	46
227.201	486
252.425	16
253.217	879
255.227	181
255.241	146
281.249	186
283.256	18
284.253	21
284.273	18
285.263	17
303.228	10
329.238	10
391.229	16
392.23	10
393.222	10
420.26	10
421.258	21
437.266	11
438.263	13
452.282	68
460.272	10
462.29	16
478.281	32
480.302	16
491.267	5
673.474	8
674.483	8
675.437	13
675.484	73
675.533	19
686.281	5
686.419	5
687.516	5
688.426	36
688.482	999
688.508	247
688.547	45
689.47	5
702.293	6
702.495	5
703.457	10
712.492	10
747.528	11
762.491	52
762.522	124
762.548	60
