Mass spectrum: PE 42:7; LC-ESI-QTOF; MS2
Name: PE 42:7
Class: PE
Formula: C47H80NO8P
Exact mass: 818.1319999999998
SMILES: CCCCCCCC\C=C/CCCCCCCCCC(=O)OCC(COP(O)(=O)OCCN)OC(=O)CC\C=C/C\C=C/C\C=C/C\C=C/C\C=C/C\C=C/CC
InChI: InChI=1S/C47H80NO8P/c1-3-5-7-9-11-13-15-17-19-21-22-24-26-28-30-32-34-36-38-40-47(50)56-45(44-55-57(51,52)54-42-41-48)43-53-46(49)39-37-35-33-31-29-27-25-23-20-18-16-14-12-10-8-6-4-2/h5,7,11,13,17-20,22,24,28,30,34,36,45H,3-4,6,8-10,12,14-16,21,23,25-27,29,31-33,35,37-44,48H2,1-2H3,(H,51,52)/b7-5-,13-11-,19-17-,20-18-,24-22-,30-28-,36-34-
Instrument: AB Sciex TripleTOF 5600+ system (Q-TOF) equipped with a DuoSpray ion source
Instrument type: LC-ESI-QTOF
Ms type: MS2
Ion mode: NEGATIVE
Collision energy: 45V
Column name: Acquity UPLC Peptide BEH C18 column (50*2.1 mm; 1.7 um; 130A)(Waters Co.,Milford, MA, USA)
Retention time: 10.25158
Precursor type: [M-H]-
Precursor m/z: 816.5525
m/z	relative intensity
78.958	5
93.066	5
140.011	12
163.072	5
177.162	7
187.156	5
191.18	5
196.037	32
215.184	5
229.197	47
249.182	10
255.21	5
283.241	239
308.322	5
309.219	5
309.278	536
327.231	697
432.288	5
488.309	32
506.283	10
506.316	79
506.335	53
742.57	18
748.508	5
813.981	10
816.551	999
