Mass spectrum: PC(16:0/20-HETE); LC-ESI-QTOF; MS2
Name: PC(16:0/20-HETE)
Class: Oxidized Phospholipid
Formula: C44H80NO9P
Exact mass: 798.098
SMILES: CCCCCCCCCCCCCCCC(=O)OCC(COP([O-])(=O)OCC[N+](C)(C)C)OC(=O)CCC\C=C/C\C=C/C\C=C/C\C=C/CCCCCO
InChI: InChI=1S/C44H80NO9P/c1-5-6-7-8-9-10-11-17-20-23-26-29-32-35-43(47)51-40-42(41-53-55(49,50)52-39-37-45(2,3)4)54-44(48)36-33-30-27-24-21-18-15-13-12-14-16-19-22-25-28-31-34-38-46/h12,14-15,18-19,22,24,27,42,46H,5-11,13,16-17,20-21,23,25-26,28-41H2,1-4H3/b14-12-,18-15-,22-19-,27-24-
Instrument: Acquity UPLC Peptide BEH C18 column (50 x 2.1 mm; 1.7 um), Sciex TripleTOF5600
Instrument type: LC-ESI-QTOF
Ms type: MS2
Ion mode: NEGATIVE
Collision energy: 30-50
Precursor m/z: 856.5709227
Precursor type: [M+CH3COOH-H]-
m/z	relative intensity
78.96255	16
168.0362	16
168.038	16
168.0398	16
168.0417	16
168.0472	25
224.0582	16
224.0624	25
224.0645	25
224.0666	25
224.073	16
224.0814	16
224.0835	16
245.2185	16
245.2251	25
245.2274	25
245.234	16
245.2384	17
251.1355	17
254.4782	17
255.1336	17
255.2125	25
255.2147	17
255.217	41
255.2193	58
255.2215	150
255.2238	201
255.226	244
255.2283	354
255.2305	263
255.2328	288
255.235	229
255.2373	221
255.2395	187
255.2418	128
255.244	76
255.2463	68
255.2486	59
255.2508	33
255.2531	9
255.2553	25
256.2369	17
256.2437	16
257.2226	25
273.2184	16
273.2254	33
273.2324	16
275.2254	16
275.2278	16
275.2348	25
275.2372	16
275.2395	25
275.2442	16
281.2458	25
281.2481	16
281.2505	16
281.2528	25
289.2141	33
289.219	16
301.1991	25
301.2016	25
301.204	16
301.2089	41
301.2114	67
301.2138	50
301.2163	58
301.2187	33
301.2212	33
301.2236	33
301.2261	33
301.2285	25
301.231	16
314.0872	17
317.2157	25
317.2283	25
318.6901	17
318.8437	17
319.1108	17
319.1688	17
319.1865	17
319.1915	16
319.194	26
319.1966	9
319.1991	26
319.2016	52
319.2041	36
319.2066	88
319.2092	205
319.2117	231
319.2142	347
319.2167	395
319.2192	511
319.2218	555
319.2243	671
319.2268	590
319.2293	640
319.2318	667
319.2344	551
319.2369	549
319.2394	274
319.2419	319
319.2444	152
319.247	133
319.2495	142
319.252	88
319.2545	80
319.257	45
319.2596	45
319.2646	9
319.2697	9
319.2747	9
319.4462	9
320.2259	16
320.2284	16
320.2309	16
320.2335	16
320.236	83
320.2385	25
320.2587	9
391.2422	16
442.9124	16
462.2907	25
480.2701	33
480.2794	25
480.2825	16
480.2856	33
480.2887	16
480.2918	25
480.2949	58
480.298	67
480.3011	50
480.3041	99
480.3073	58
480.3103	50
480.3134	58
480.3165	83
480.3196	50
480.3227	58
480.3258	33
480.3289	67
480.332	25
480.3351	25
480.3382	33
544.2982	16
711.4566	16
780.0791	16
780.1539	16
782.4414	16
782.4454	16
782.4612	17
782.473	52
782.4769	61
782.4809	35
782.4849	100
782.4888	45
782.4927	102
782.4967	110
782.5006	308
782.5046	213
782.5085	403
782.5125	445
782.5164	439
782.5204	761
782.5243	750
782.5283	690
782.5322	699
782.5361	999
782.5401	947
782.5441	889
782.548	875
782.5519	853
782.5559	774
782.5598	652
782.5638	670
782.5677	557
782.5717	368
782.5756	349
782.5796	255
782.5835	244
782.5875	151
782.5914	103
782.5953	93
782.5993	28
782.6033	37
782.6072	47
782.6111	19
782.6151	10
782.619	10
782.702	10
783.2942	9
783.4916	16
783.5035	25
783.5153	16
783.5232	16
783.5311	25
783.539	25
783.543	41
783.5548	16
783.5588	33
783.5627	18
783.5785	33
797.4832	16
797.5111	25
797.519	16
809.5137	16
809.5218	16
809.5298	16
809.5338	16
809.5378	16
809.5419	41
809.5459	33
809.5499	25
809.5579	25
809.566	33
809.574	16
809.578	25
809.582	16
809.586	16
809.59	16
809.5941	25
809.6021	25
856.5079	16
856.512	25
856.5244	25
856.5327	16
856.5368	41
856.541	16
856.545	41
856.5492	25
856.5533	33
856.5574	67
856.5616	75
856.5657	116
856.5698	83
856.574	83
856.5781	41
856.5822	58
856.5864	50
856.5905	33
856.5946	83
856.5988	41
856.6029	75
856.607	50
856.6111	67
856.6194	41
856.6277	16
