Mass spectrum: Cer[AS] d41:1; LC-ESI-QTOF; MS2
Name: Cer[AS] d41:1
Class: Cer_AS
Formula: C41H81NO4
Exact mass: 652.1019999999999
SMILES: CCCCCCCCCCCCCCCCCCCCCC(O)C(=O)NC(CO)C(O)\C=C\CCCCCCCCCCCCC
InChI: InChI=1S/C41H81NO4/c1-3-5-7-9-11-13-15-17-18-19-20-21-22-24-26-28-30-32-34-36-40(45)41(46)42-38(37-43)39(44)35-33-31-29-27-25-23-16-14-12-10-8-6-4-2/h33,35,38-40,43-45H,3-32,34,36-37H2,1-2H3,(H,42,46)/b35-33+
Instrument: AB Sciex TripleTOF 5600+ system (Q-TOF) equipped with a DuoSpray ion source
Instrument type: LC-ESI-QTOF
Ms type: MS2
Ion mode: NEGATIVE
Collision energy: 45V
Column name: Acquity UPLC Peptide BEH C18 column (50*2.1 mm; 1.7 um; 130A)(Waters Co.,Milford, MA, USA)
Retention time: 13.08026
Precursor type: [M+CH3COOH-H]-
Precursor m/z: 710.6307
m/z	relative intensity
89.023	2
235.205	1
237.22	17
239.239	8
250.251	10
263.232	6
263.247	4
266.231	3
266.251	9
268.265	22
280.261	13
298.273	10
323.322	30
323.337	55
337.356	3
351.311	10
351.325	24
364.358	8
368.352	16
369.314	8
369.333	30
376.353	16
380.348	5
392.351	3
394.368	64
408.368	2
409.368	3
410.335	3
410.364	29
412.368	6
412.397	3
574.594	3
584.573	2
590.566	3
602.549	5
602.59	49
614.591	5
618.566	8
618.588	8
620.593	10
622.617	15
632.571	3
632.598	16
632.623	4
648.566	4
649.625	3
650.539	4
650.606	999
650.671	12
664.619	3
