Mass spectrum: PC(16:0/8-HETE); LC-ESI-QTOF; MS2
Name: PC(16:0/8-HETE)
Class: Oxidized Phospholipid
Formula: C44H80NO9P
Exact mass: 798.098
SMILES: CCCCCCCCCCCCCCCC(=O)OCC(COP([O-])(=O)OCC[N+](C)(C)C)OC(=O)CCC\C=C/CC(O)\C=C/C=C\C\C=C/CCCCC
InChI: InChI=1S/C44H80NO9P/c1-6-8-10-12-14-16-18-19-20-22-24-26-31-35-43(47)51-39-42(40-53-55(49,50)52-38-37-45(3,4)5)54-44(48)36-32-28-27-30-34-41(46)33-29-25-23-21-17-15-13-11-9-7-2/h15,17,23,25,27,29-30,33,41-42,46H,6-14,16,18-22,24,26,28,31-32,34-40H2,1-5H3/b17-15-,25-23-,30-27-,33-29-
Instrument: Acquity UPLC Peptide BEH C18 column (50 x 2.1 mm; 1.7 um), Sciex TripleTOF5600
Instrument type: LC-ESI-QTOF
Ms type: MS2
Ion mode: NEGATIVE
Collision energy: 30-50
Precursor m/z: 856.5709227
Precursor type: [M+CH3COOH-H]-
m/z	relative intensity
78.95868	9
78.95993	9
78.96119	6
78.96369	9
78.9662	6
78.96996	6
111.0787	12
111.0876	6
117.0746	6
127.0731	6
127.0747	9
127.0762	9
127.0794	6
127.0826	12
152.9903	6
152.992	6
152.999	6
154.6001	6
155.0583	9
155.0601	6
155.0618	27
155.0636	27
155.0654	27
155.0671	52
155.0689	73
155.0706	30
155.0724	70
155.0741	67
155.0759	51
155.0777	15
155.0794	30
155.0812	3
155.0829	3
155.0864	15
155.0882	3
155.09	6
155.938	3
163.1394	6
163.1412	12
163.143	9
163.1448	9
163.1466	9
163.1484	9
163.1502	9
163.152	24
163.1538	6
163.1556	9
163.1592	6
168.0361	6
168.0397	12
168.0434	6
168.0452	9
168.047	15
168.0489	15
168.0507	6
172.0784	6
177.1647	6
192.1476	6
203.17	12
203.172	6
203.176	6
203.178	12
203.18	6
203.182	27
203.184	6
203.1861	6
208.0722	6
222.9927	6
223.0054	6
224.0559	6
224.0602	15
224.0623	6
224.0644	18
224.0665	9
224.0686	21
224.0707	18
224.0728	27
224.0749	12
224.0792	9
224.0813	12
229.0125	6
231.2171	6
240.9989	6
241.0054	12
241.0076	6
241.0098	18
241.012	6
241.0142	6
241.0164	24
241.0186	9
241.023	9
242.0097	6
242.0229	6
254.433	9
254.4353	6
254.4443	6
254.4465	6
254.9757	6
255.138	6
255.1853	6
255.1988	6
255.2011	6
255.2056	6
255.2079	9
255.2101	16
255.2124	19
255.2146	22
255.2169	69
255.2191	92
255.2214	151
255.2236	176
255.2259	205
255.2281	215
255.2304	314
255.2327	305
255.2349	346
255.2372	267
255.2394	292
255.2417	206
255.2439	132
255.2462	90
255.2484	67
255.2507	23
255.2529	23
255.2552	19
255.2574	13
255.2597	6
255.2619	6
256.0967	3
256.1351	3
256.2232	9
256.2277	9
256.2299	18
256.2322	15
256.2345	6
256.239	6
256.2412	3
256.2458	6
256.248	12
257.2089	9
257.2111	12
257.2134	21
257.2156	30
257.2179	48
257.2202	54
257.2224	65
257.2247	77
257.227	89
257.2292	83
257.2315	77
257.2338	53
257.236	53
257.2383	27
257.2405	15
257.2428	12
257.2451	15
257.2473	6
257.2496	12
258.2372	6
258.2395	6
275.2043	6
275.223	9
275.23	6
275.2347	6
275.237	6
275.2393	6
275.2417	6
275.244	12
275.2487	6
281.2338	6
281.2433	9
281.248	15
281.2503	15
281.2551	6
281.2574	6
282.2474	6
282.2593	6
291.2356	6
293.2086	6
297.0262	6
297.0359	9
298.046	6
300.2203	6
300.2692	6
300.2986	6
300.8465	6
301.1917	9
301.1941	3
301.199	21
301.2014	46
301.2039	52
301.2064	76
301.2088	108
301.2112	133
301.2137	133
301.2162	147
301.2186	194
301.221	166
301.2235	96
301.226	108
301.2284	92
301.2308	68
301.2333	62
301.2357	49
301.2382	16
301.2406	6
301.2431	6
301.2455	9
301.248	3
301.2529	3
301.7993	3
302.2014	3
302.2112	3
302.2185	9
302.221	9
302.2234	9
302.2284	12
302.2333	6
317.2106	6
318.2317	6
318.2342	6
318.2392	6
318.2417	6
318.2518	6
318.4003	6
319.2015	12
319.204	35
319.2065	22
319.209	79
319.2115	79
319.2141	82
319.2166	159
319.2191	169
319.2216	214
319.2242	217
319.2267	276
319.2292	241
319.2317	280
319.2343	225
319.2368	190
319.2393	143
319.2418	111
319.2443	79
319.2469	44
319.2494	26
319.2519	22
319.2544	3
319.2569	16
319.2595	3
319.262	3
319.2645	6
319.2796	3
319.494	3
319.837	3
320.2333	6
321.0899	3
333.258	6
391.2226	15
391.2281	6
391.2309	6
391.2337	6
391.2365	12
391.2421	6
391.2449	6
391.2505	6
392.2167	6
392.2251	9
392.2335	6
419.2556	6
419.2614	6
455.2099	6
462.2815	9
462.2845	9
462.2875	12
462.2906	12
462.2936	9
462.2967	6
462.2997	15
462.3027	12
462.3058	12
462.3088	12
462.3118	12
462.3148	6
462.3209	6
475.2553	6
480.2669	6
480.2731	18
480.2762	6
480.2793	6
480.2824	27
480.2855	27
480.2886	27
480.2917	42
480.2948	42
480.2979	66
480.301	54
480.304	51
480.3071	48
480.3102	82
480.3133	84
480.3164	48
480.3195	93
480.3226	39
480.3257	54
480.3288	33
480.3319	33
480.335	21
480.3381	12
480.3412	9
480.3474	6
526.2725	6
526.2757	6
526.2822	12
526.2854	9
526.2886	12
526.2983	6
526.3016	6
526.3048	9
526.308	6
526.3113	9
544.2883	6
544.2949	6
544.2982	9
544.3047	9
544.3113	12
544.3146	12
544.3212	6
544.3278	6
546.3443	6
553.2688	9
553.2787	9
553.2821	6
553.2854	6
554.2815	6
554.2915	6
554.3048	9
570.2806	6
572.3108	6
572.3141	6
589.3536	9
589.364	6
589.3708	9
589.3776	6
600.269	6
711.4189	9
711.4302	9
711.434	6
711.4453	9
711.449	15
711.4528	9
711.4565	12
711.4603	9
711.4641	12
711.4678	9
711.4716	29
711.4753	18
711.4829	9
711.4866	15
711.4904	12
711.4941	12
711.4979	18
711.5017	6
711.5054	9
711.5205	6
737.4432	6
737.4739	9
737.4816	6
737.4893	9
737.4931	9
737.4969	9
737.5007	9
738.5012	6
764.5046	6
780.02	6
780.0475	6
780.0869	12
780.0909	6
780.0948	6
780.1027	6
780.1263	12
782.4335	6
782.4453	6
782.4848	51
782.4888	88
782.4927	105
782.4966	147
782.5006	131
782.5045	228
782.5085	260
782.5125	376
782.5164	480
782.5203	519
782.5243	651
782.5282	743
782.5322	834
782.5361	918
782.54	989
782.544	965
782.548	999
782.5519	979
782.5558	879
782.5598	743
782.5637	707
782.5677	619
782.5717	441
782.5756	406
782.5795	304
782.5835	177
782.5874	206
782.5914	101
782.5953	79
782.5992	45
782.6032	33
782.6072	34
782.6111	20
782.6151	5
782.619	16
782.6229	4
782.6269	4
782.6309	4
782.8045	6
783.0256	4
783.2862	7
783.4837	6
783.4876	10
783.4916	8
783.5074	12
783.5114	6
783.5153	24
783.5192	18
783.5232	18
783.5271	18
783.5311	24
783.535	12
783.539	41
783.5429	12
783.5469	18
783.5508	32
783.5547	35
783.5587	32
783.5627	38
783.5667	27
783.5706	12
783.5745	15
783.5785	15
783.5903	6
783.618	6
796.5232	6
796.567	6
796.571	6
796.5909	6
797.4553	6
797.4672	9
797.4752	6
797.4792	9
797.4832	6
797.4911	9
797.4951	15
797.4991	9
797.5031	12
797.5071	24
797.511	6
797.515	15
797.519	9
797.523	21
797.527	9
797.531	6
797.535	6
797.5389	6
797.5469	6
797.5509	9
797.5589	6
809.5579	15
809.5659	6
809.5739	6
809.5779	9
809.582	12
809.59	9
809.598	6
809.6141	9
855.4098	6
856.4377	6
856.4418	6
856.4459	24
856.4501	12
856.4542	18
856.4583	12
856.4625	24
856.4666	21
856.4707	25
856.4749	50
856.4789	43
856.4831	69
856.4872	60
856.4913	72
856.4955	117
856.4996	86
856.5037	139
856.5079	114
856.512	138
856.5161	148
856.5203	152
856.5244	136
856.5285	105
856.5327	136
856.5368	104
856.5409	108
856.545	96
856.5492	130
856.5533	82
856.5574	67
856.5616	108
856.5657	73
856.5698	92
856.574	107
856.5781	47
856.5822	76
856.5864	60
856.5905	69
856.5946	76
856.5987	55
856.6028	54
856.607	32
856.6111	51
856.6152	39
856.6194	22
856.6235	6
856.6276	10
856.6318	10
856.6359	12
856.6442	12
856.6483	10
856.6524	10
857.4992	6
857.5075	6
857.5116	12
857.5157	6
857.5199	12
857.524	9
857.5323	9
857.5405	6
857.5488	12
857.5612	9
857.5818	6
857.5984	6
857.6149	6
