Mass spectrum: PE 39:6; LC-ESI-QTOF; MS2
Name: PE 39:6
Class: PE
Formula: C44H76NO8P
Exact mass: 778.0669999999998
SMILES: CCCCCCCCCCCCCCCCC(=O)OCC(COP(O)(=O)OCCN)OC(=O)CC\C=C/C\C=C/C\C=C/C\C=C/C\C=C/C\C=C/CC
InChI: InChI=1S/C44H76NO8P/c1-3-5-7-9-11-13-15-17-19-20-21-22-23-25-27-29-31-33-35-37-44(47)53-42(41-52-54(48,49)51-39-38-45)40-50-43(46)36-34-32-30-28-26-24-18-16-14-12-10-8-6-4-2/h5,7,11,13,17,19,21-22,25,27,31,33,42H,3-4,6,8-10,12,14-16,18,20,23-24,26,28-30,32,34-41,45H2,1-2H3,(H,48,49)/b7-5-,13-11-,19-17-,22-21-,27-25-,33-31-
Instrument: AB Sciex TripleTOF 5600+ system (Q-TOF) equipped with a DuoSpray ion source
Instrument type: LC-ESI-QTOF
Ms type: MS2
Ion mode: NEGATIVE
Collision energy: 45V
Column name: Acquity UPLC Peptide BEH C18 column (50*2.1 mm; 1.7 um; 130A)(Waters Co.,Milford, MA, USA)
Retention time: 9.718303
Precursor type: [M-H]-
Precursor m/z: 776.5203
m/z	relative intensity
140.011	29
177.162	13
191.181	9
196.035	41
214.046	13
229.198	31
249.195	10
255.224	10
269.246	482
283.241	252
284.246	9
309.222	4
327.229	648
327.585	4
418.277	5
437.287	3
448.283	25
466.291	114
506.263	9
524.281	13
702.544	5
715.569	10
716.564	9
774.071	12
776.474	60
776.515	999
