Mass spectrum: PC 36:3; LC-ESI-QTOF; MS2
Name: PC 36:3
Class: PC
Formula: C44H82NO8P
Exact mass: 784.1149999999998
SMILES: CCCCCCCCCCCCCCCC(=O)OCC(COP([O-])(=O)OCC[N+](C)(C)C)OC(=O)CCCCCCCCC\C=C/C\C=C/C\C=C/CC
InChI: InChI=1S/C44H82NO8P/c1-6-8-10-12-14-16-18-20-21-22-23-25-27-29-31-33-35-37-44(47)53-42(41-52-54(48,49)51-39-38-45(3,4)5)40-50-43(46)36-34-32-30-28-26-24-19-17-15-13-11-9-7-2/h8,10,14,16,20-21,42H,6-7,9,11-13,15,17-19,22-41H2,1-5H3/b10-8-,16-14-,21-20-
Instrument: AB Sciex TripleTOF 5600+ system (Q-TOF) equipped with a DuoSpray ion source
Instrument type: LC-ESI-QTOF
Ms type: MS2
Ion mode: NEGATIVE
Collision energy: 45V
Column name: Acquity UPLC Peptide BEH C18 column (50*2.1 mm; 1.7 um; 130A)(Waters Co.,Milford, MA, USA)
Retention time: 9.597166
Precursor type: [M+CH3COOH-H]-
Precursor m/z: 842.5931
m/z	relative intensity
152.993	0
168.042	11
207.213	0
224.066	10
233.232	0
242.076	1
254.443	3
255.19	1
255.232	308
256.237	0
261.256	3
279.231	14
281.246	7
283.247	0
287.225	1
287.244	1
303.232	1
304.232	0
304.274	1
304.296	2
305.125	1
305.247	999
306.248	1
329.241	0
391.22	2
406.271	1
418.249	1
441.249	1
456.287	1
462.283	5
462.303	13
480.253	1
480.307	65
480.369	0
495.252	0
495.292	0
504.302	0
506.315	0
512.299	6
512.327	3
530.286	1
530.311	7
530.335	2
611.054	0
697.475	3
723.486	1
746.516	1
766.086	1
766.124	1
766.15	1
768.438	1
768.551	904
769.543	2
769.588	1
782.568	0
783.497	5
783.516	4
783.54	1
842.586	80
842.612	16
842.641	4
