Mass spectrum: PC(14:0/15-HEPE); LC-ESI-QTOF; MS2
Name: PC(14:0/15-HEPE)
Class: Oxidized Phospholipid
Formula: C42H74NO9P
Exact mass: 768.028
SMILES: CCCCCCCCCCCCCC(=O)OCC(COP([O-])(=O)OCC[N+](C)(C)C)OC(=O)CCC\C=C/C\C=C/C\C=C/CC(O)\C=C\C=C/CC
InChI: InChI=1S/C42H74NO9P/c1-6-8-10-12-13-14-15-19-22-25-29-33-41(45)49-37-40(38-51-53(47,48)50-36-35-43(3,4)5)52-42(46)34-30-26-23-20-17-16-18-21-24-28-32-39(44)31-27-11-9-7-2/h9,11,16,18,20,23-24,27-28,31,39-40,44H,6-8,10,12-15,17,19,21-22,25-26,29-30,32-38H2,1-5H3/b11-9-,18-16-,23-20-,28-24-,31-27+
Instrument: Acquity UPLC Peptide BEH C18 column (50 x 2.1 mm; 1.7 um), Sciex TripleTOF5600
Instrument type: LC-ESI-QTOF
Ms type: MS2
Ion mode: NEGATIVE
Collision energy: 30-50
Precursor m/z: 826.5239725
Precursor type: [M+CH3COOH-H]-
m/z	relative intensity
168.044	30
175.1409	30
175.1465	30
175.1521	30
175.154	30
201.1703	30
219.127	45
219.1332	45
219.1353	74
219.1374	74
219.1395	74
219.1416	92
219.1437	45
219.1458	45
219.1499	45
219.152	30
219.1562	30
224.0607	30
224.067	30
224.0755	30
224.0776	59
227.1867	30
227.1889	74
227.191	122
227.1931	152
227.1953	166
227.1974	318
227.1995	274
227.2016	259
227.2038	196
227.2059	152
227.208	166
227.2101	152
227.2123	74
227.2144	45
227.2165	45
247.1272	30
247.1338	30
248.133	45
248.1352	30
248.1374	45
248.1441	45
248.1485	30
255.1971	30
255.1993	30
255.2038	45
255.2061	92
255.2106	30
255.2128	74
255.2151	30
255.2173	59
255.2218	59
255.2263	30
299.1826	45
299.185	45
299.1874	30
299.1899	30
299.1923	30
299.1948	74
299.1972	30
299.1996	30
299.2021	92
299.2045	107
299.207	59
299.2094	92
299.2119	45
317.1933	59
317.1959	122
317.1984	74
317.2009	196
317.2034	152
317.2059	288
317.2084	363
317.2109	333
317.2134	181
317.2159	259
317.2184	196
317.221	181
317.2235	211
317.226	74
317.2285	59
317.231	59
317.2336	45
317.2361	30
317.2386	30
317.2411	92
317.2436	30
363.1937	30
363.2125	45
434.2693	30
434.2722	30
452.2615	59
452.2675	59
452.2735	30
452.2765	45
452.2795	59
452.2825	74
452.2885	74
452.2915	30
452.2945	30
452.2975	30
452.3005	45
452.3185	30
681.4159	30
681.4269	30
681.4307	59
751.9158	30
752.4227	30
752.4266	30
752.4305	77
752.4343	30
752.4382	62
752.4421	122
752.4459	306
752.4498	184
752.4537	217
752.4576	342
752.4614	327
752.4653	681
752.4692	571
752.473	562
752.4769	687
752.4808	639
752.4847	767
752.4885	999
752.4924	610
752.4963	871
752.5001	669
752.504	892
752.5079	717
752.5118	705
752.5156	467
752.5195	514
752.5234	375
752.5272	265
752.5311	122
752.535	202
752.5388	122
752.5427	184
752.5466	92
752.5505	92
752.5543	30
752.5582	30
752.5737	30
753.4719	30
753.4952	30
753.4991	30
753.5107	30
766.4634	30
766.5063	30
766.522	30
766.5532	30
767.4363	45
826.4856	30
826.4937	30
826.5018	59
826.5099	30
826.514	74
826.5181	30
826.5221	45
826.5262	30
826.5302	30
826.5343	74
826.5383	59
826.5424	59
826.5464	30
826.5627	45
