Mass spectrum: PE 38:7; LC-ESI-QTOF; MS2
Name: PE 38:7
Class: PE
Formula: C43H72NO8P
Exact mass: 762.0239999999999
SMILES: CCCCCC\C=C/CCCCCCCC(=O)OCC(COP(O)(=O)OCCN)OC(=O)CC\C=C/C\C=C/C\C=C/C\C=C/C\C=C/C\C=C/CC
InChI: InChI=1S/C43H72NO8P/c1-3-5-7-9-11-13-15-17-18-19-20-21-22-24-26-28-30-32-34-36-43(46)52-41(40-51-53(47,48)50-38-37-44)39-49-42(45)35-33-31-29-27-25-23-16-14-12-10-8-6-4-2/h5,7,11,13-14,16-18,20-21,24,26,30,32,41H,3-4,6,8-10,12,15,19,22-23,25,27-29,31,33-40,44H2,1-2H3,(H,47,48)/b7-5-,13-11-,16-14-,18-17-,21-20-,26-24-,32-30-
Instrument: AB Sciex TripleTOF 5600+ system (Q-TOF) equipped with a DuoSpray ion source
Instrument type: LC-ESI-QTOF
Ms type: MS2
Ion mode: NEGATIVE
Collision energy: 45V
Column name: Acquity UPLC Peptide BEH C18 column (50*2.1 mm; 1.7 um; 130A)(Waters Co.,Milford, MA, USA)
Retention time: 8.781098
Precursor type: [M-H]-
Precursor m/z: 760.4916
m/z	relative intensity
140.014	41
175.152	9
177.169	15
189.161	11
191.189	15
196.039	69
203.179	11
229.195	55
241.192	9
249.183	29
253.217	811
283.244	292
295.228	17
303.233	6
308.262	4
309.219	18
326.2	7
327.233	947
327.269	14
432.249	39
446.297	6
450.24	25
450.259	111
450.278	32
464.294	11
506.273	14
524.279	18
700.454	4
742.542	7
758.081	7
760.431	42
760.449	108
760.489	999
