Mass spectrum: PE 40:7; LC-ESI-QTOF; MS2
Name: PE 40:7
Class: PE
Formula: C45H76NO8P
Exact mass: 790.078
SMILES: CCCCC\C=C/C\C=C/CCCCCCCC(=O)OCC(COP(O)(=O)OCCN)OC(=O)CCCCC\C=C/C\C=C/C\C=C/C\C=C/C\C=C/CC
InChI: InChI=1S/C45H76NO8P/c1-3-5-7-9-11-13-15-17-19-20-21-22-24-26-28-30-32-34-36-38-45(48)54-43(42-53-55(49,50)52-40-39-46)41-51-44(47)37-35-33-31-29-27-25-23-18-16-14-12-10-8-6-4-2/h5,7,11-14,17-19,21-23,26,28,43H,3-4,6,8-10,15-16,20,24-25,27,29-42,46H2,1-2H3,(H,49,50)/b7-5-,13-11-,14-12-,19-17-,22-21-,23-18-,28-26-
Instrument: AB Sciex TripleTOF 5600+ system (Q-TOF) equipped with a DuoSpray ion source
Instrument type: LC-ESI-QTOF
Ms type: MS2
Ion mode: NEGATIVE
Collision energy: 45V
Column name: Acquity UPLC Peptide BEH C18 column (50*2.1 mm; 1.7 um; 130A)(Waters Co.,Milford, MA, USA)
Retention time: 9.106498
Precursor type: [M-H]-
Precursor m/z: 788.5227
m/z	relative intensity
78.958	10
96.968	5
140.013	23
152.992	16
168.043	16
178.027	3
196.039	29
209.15	5
231.212	12
237.184	3
245.156	5
251.203	3
278.802	3
279.232	469
281.247	41
283.264	108
285.26	61
311.237	5
327.233	9
328.22	10
329.247	963
417.237	21
419.252	43
419.274	12
435.246	5
437.262	23
458.262	23
476.272	65
506.29	7
508.281	3
526.289	10
642.484	3
701.51	107
713.555	23
714.557	350
770.534	3
786.033	5
788.521	999
789.523	3
