Mass spectrum: PC(18:1e/20-HDoHE); LC-ESI-QTOF; MS2
Name: PC(18:1e/20-HDoHE)
Class: Oxidized Phospholipid
Formula: C48H84NO8P
Exact mass: 834.175
SMILES: CCCCCCCCCCCCCCCC\C=C/OCC(COP([O-])(=O)OCC[N+](C)(C)C)OC(=O)CC\C=C/C\C=C/C\C=C/C\C=C/C\C=C/C=C/C(O)CC
InChI: InChI=1S/C48H84NO8P/c1-6-8-9-10-11-12-13-14-15-20-23-26-29-32-35-38-42-54-44-47(45-56-58(52,53)55-43-41-49(3,4)5)57-48(51)40-37-34-31-28-25-22-19-17-16-18-21-24-27-30-33-36-39-46(50)7-2/h16-17,21-22,24-25,30-31,33-34,36,38-39,42,46-47,50H,6-15,18-20,23,26-29,32,35,37,40-41,43-45H2,1-5H3/b17-16-,24-21-,25-22-,33-30-,34-31-,39-36+,42-38-
Instrument: Acquity UPLC Peptide BEH C18 column (50 x 2.1 mm; 1.7 um), Sciex TripleTOF5600
Instrument type: LC-ESI-QTOF
Ms type: MS2
Ion mode: NEGATIVE
Collision energy: 30-50
Precursor m/z: 892.6073082
Precursor type: [M+CH3COOH-H]-
m/z	relative intensity
81.07159	24
187.1464	24
201.162	24
241.1831	24
241.1919	111
241.1941	50
241.1985	86
241.2028	24
241.205	24
241.2072	38
281.2151	24
281.2198	24
281.2222	74
281.2245	74
281.2269	50
281.2293	38
281.2316	38
281.234	50
281.2364	24
281.2411	62
281.2435	24
285.1804	38
285.1828	74
285.1852	62
285.1875	24
285.1899	50
285.1947	62
285.1995	62
299.2141	24
299.2288	24
299.2312	38
299.2336	24
299.2361	62
299.2385	62
299.241	74
299.2434	24
299.2458	38
299.2483	24
299.2532	38
299.2581	38
325.1965	24
325.2067	50
325.2092	50
325.2118	38
325.2143	99
325.2168	74
325.2194	38
325.2219	86
325.2245	74
325.2321	38
325.2372	24
343.2043	24
343.207	38
343.2096	24
343.2122	74
343.2148	111
343.2174	185
343.22	86
343.2227	197
343.2253	197
343.2279	209
343.2305	136
343.2331	124
343.2357	185
343.2383	209
343.2409	99
343.2436	50
343.2462	99
343.2488	38
343.2514	24
343.254	24
474.321	24
474.324	38
474.3271	24
474.3302	50
474.3333	24
474.3363	38
474.3394	62
474.3425	50
474.3517	24
474.3578	24
492.2989	24
492.3115	38
492.3146	24
492.3208	38
492.324	24
492.3271	38
492.3302	62
492.3365	148
492.3396	111
492.3427	111
492.3459	74
492.349	99
492.3521	86
492.3553	99
492.3584	99
492.3615	50
492.3647	50
492.3678	74
492.3709	74
492.3741	38
492.3929	24
747.4702	24
747.4857	38
747.4895	24
747.4972	50
747.5011	38
747.5126	24
747.5165	24
747.5204	24
747.5281	24
816.0224	24
818.5031	51
818.5071	38
818.5112	88
818.5153	128
818.5193	25
818.5233	39
818.5273	107
818.5314	173
818.5354	320
818.5394	189
818.5435	276
818.5475	338
818.5516	660
818.5556	625
818.5596	631
818.5637	654
818.5677	886
818.5718	999
818.5758	737
818.5798	736
818.5839	670
818.5879	970
818.5919	846
818.5959	747
818.6	666
818.6041	582
818.6081	718
818.6121	584
818.6161	366
818.6202	299
818.6242	351
818.6282	80
818.6323	67
818.6364	68
818.6404	40
818.6444	68
818.6484	54
818.6525	27
818.6565	13
819.5409	24
819.549	24
819.5692	24
819.5773	24
819.5813	24
819.5894	38
819.5934	38
819.6015	24
819.6055	24
819.6096	24
819.6216	24
832.5949	24
833.5112	24
833.5234	24
833.5316	24
892.511	24
892.549	24
892.5532	24
892.5616	38
892.5659	24
892.5743	24
892.5785	62
892.5827	74
892.5869	86
892.5911	111
892.5953	62
892.5995	50
892.6038	62
892.608	50
892.6122	74
892.6164	50
892.6207	99
892.6249	62
892.6291	62
892.6333	86
892.6375	24
892.6417	86
892.6459	124
892.6501	50
892.6544	86
892.6586	50
892.6712	24
892.6796	24
