Mass spectrum: PE(18:0/5-HEPE); LC-ESI-QTOF; MS2
Name: PE(18:0/5-HEPE)
Class: Oxidized Phospholipid
Formula: C43H76NO9P
Exact mass: 782.055
SMILES: CCCCCCCCCCCCCCCCCC(=O)OCC(COP(O)(=O)OCCN)OC(=O)CCCC(O)\C=C\C=C/C\C=C/C\C=C/C\C=C/CC
InChI: InChI=1S/C43H76NO9P/c1-3-5-7-9-11-13-15-17-18-20-22-24-26-28-30-34-42(46)50-38-41(39-52-54(48,49)51-37-36-44)53-43(47)35-31-33-40(45)32-29-27-25-23-21-19-16-14-12-10-8-6-4-2/h6,8,12,14,19,21,25,27,29,32,40-41,45H,3-5,7,9-11,13,15-18,20,22-24,26,28,30-31,33-39,44H2,1-2H3,(H,48,49)/b8-6-,14-12-,21-19-,27-25-,32-29+
Instrument: Acquity UPLC Peptide BEH C18 column (50 x 2.1 mm; 1.7 um), Sciex TripleTOF5600
Instrument type: LC-ESI-QTOF
Ms type: MS2
Ion mode: NEGATIVE
Collision energy: 30-50
Precursor m/z: 780.5184935
Precursor type: [M-H]-
m/z	relative intensity
115.0342	44
115.0357	58
115.0372	44
115.0387	174
115.0402	87
115.0417	58
115.0433	44
115.0448	29
115.0463	44
115.0478	29
115.0508	29
115.0539	29
121.1019	29
129.0604	29
140.0168	29
196.0269	29
196.0348	29
196.0368	73
196.0408	58
196.0428	44
196.0447	44
196.0467	29
201.1548	29
201.1568	29
201.1588	44
201.1608	58
201.1628	58
201.1648	29
201.1669	87
201.1689	29
201.1709	29
214.0547	29
227.1958	29
253.2135	29
253.2202	29
253.2247	29
255.1931	73
255.1954	29
255.1999	73
255.2022	117
255.2044	117
255.2067	131
255.2089	174
255.2112	190
255.2134	174
255.2157	131
255.2179	73
255.2202	44
255.2224	44
255.2247	44
255.2292	44
255.2315	44
255.236	29
280.001	30
280.2632	30
281.2467	29
282.3884	58
282.4192	30
282.4311	30
283.2379	30
283.2426	44
283.245	29
283.2473	118
283.2497	180
283.2521	356
283.2545	463
283.2568	329
283.2592	556
283.2616	677
283.264	617
283.2663	678
283.2687	738
283.2711	406
283.2735	318
283.2758	346
283.2782	74
283.2806	76
283.283	61
283.2853	105
283.2877	44
283.2901	16
283.2924	30
283.2948	16
283.5157	16
299.1832	44
299.1881	58
299.1906	29
299.193	87
299.1954	232
299.1979	87
299.2003	101
299.2028	131
299.2052	174
299.2076	117
299.2101	44
299.2125	117
299.2149	117
299.2174	87
299.2198	44
299.2223	44
299.2272	29
317.194	44
317.1965	29
317.1991	190
317.2016	131
317.2041	174
317.2066	232
317.2091	232
317.2116	363
317.2141	190
317.2166	204
317.2191	262
317.2217	218
317.2242	87
317.2267	73
317.2292	58
317.2317	58
317.2343	44
317.2368	44
419.2594	29
462.3066	29
462.3097	58
462.3127	29
480.2802	29
480.2833	44
480.2863	73
480.2895	29
480.2925	117
480.2957	73
480.2987	204
480.3018	160
480.3049	131
480.308	174
480.3111	160
480.3142	174
480.3173	87
480.3204	160
480.3235	44
480.3266	87
480.3297	73
480.3327	73
480.342	29
480.3451	29
496.2426	29
514.2466	29
688.4627	29
698.4986	29
706.5691	29
706.5766	29
706.5879	44
780.4262	44
780.438	29
780.4498	60
780.4538	58
780.4577	29
780.4656	105
780.4695	198
780.4735	135
780.4774	214
780.4814	218
780.4853	231
780.4893	309
780.4932	389
780.4971	433
780.5011	483
780.505	827
780.509	577
780.5129	798
780.5168	953
780.5208	797
780.5247	721
780.5287	999
780.5327	892
780.5366	691
780.5405	581
780.5444	674
780.5484	657
780.5524	438
780.5563	422
780.5602	265
780.5641	187
780.5681	202
780.572	170
780.576	93
780.58	31
780.5839	31
780.5878	16
780.5917	30
780.5957	16
780.5997	29
780.6115	16
781.5184	29
781.55	29
