Mass spectrum: PC(18:0/10-HDoHE); LC-ESI-QTOF; MS2
Name: PC(18:0/10-HDoHE)
Class: Oxidized Phospholipid
Formula: C48H84NO9P
Exact mass: 850.174
SMILES: CCCCCCCCCCCCCCCCCC(=O)OCC(COP([O-])(=O)OCC[N+](C)(C)C)OC(=O)CC\C=C/C\C=C/CC(O)\C=C\C=C/C\C=C/C\C=C/CC
InChI: InChI=1S/C48H84NO9P/c1-6-8-10-12-14-16-18-19-20-21-22-24-26-31-35-39-47(51)55-43-46(44-57-59(53,54)56-42-41-49(3,4)5)58-48(52)40-36-32-28-27-30-34-38-45(50)37-33-29-25-23-17-15-13-11-9-7-2/h9,11,15,17,25,28-30,32-34,37,45-46,50H,6-8,10,12-14,16,18-24,26-27,31,35-36,38-44H2,1-5H3/b11-9-,17-15-,29-25-,32-28-,34-30-,37-33+
Instrument: Acquity UPLC Peptide BEH C18 column (50 x 2.1 mm; 1.7 um), Sciex TripleTOF5600
Instrument type: LC-ESI-QTOF
Ms type: MS2
Ion mode: NEGATIVE
Collision energy: 30-50
Precursor m/z: 908.6022228
Precursor type: [M+CH3COOH-H]-
m/z	relative intensity
153.0882	122
153.0934	59
281.2193	59
281.2216	59
281.224	122
281.2263	122
281.2358	59
281.2429	59
281.2477	92
283.2459	59
283.2483	59
283.2507	122
283.2531	59
283.2578	122
283.2602	92
283.2626	303
283.265	181
283.2697	303
283.2744	92
283.2768	59
283.2792	122
283.2816	59
283.2839	59
325.2059	92
325.211	59
325.2136	59
343.2009	59
343.214	59
343.2166	92
343.2192	122
343.2218	59
343.2244	122
343.2271	122
343.2296	59
343.2323	59
343.2349	122
343.2427	59
345.2297	59
508.3421	92
508.3484	59
508.3676	59
763.4996	59
763.5035	122
832.0013	62
834.4777	62
834.494	59
834.5021	92
834.5143	122
834.5184	306
834.5225	214
834.5266	214
834.5306	282
834.5347	437
834.5388	375
834.5428	342
834.5469	467
834.551	657
834.5551	657
834.5591	910
834.5632	999
834.5673	877
834.5714	874
834.5754	630
834.5795	752
834.5836	720
834.5877	785
834.5918	690
834.5958	627
834.5999	440
834.604	253
834.6081	187
834.6121	184
834.6162	184
834.6203	155
834.6244	122
834.6285	122
835.399	59
836.0109	33
849.5526	92
908.4738	59
908.4994	92
908.5079	59
908.5206	122
908.5249	122
908.5291	181
908.5334	274
908.5377	59
908.5419	181
908.5461	122
908.5504	211
908.5546	211
908.5589	92
908.5632	122
908.5674	211
908.5717	181
908.5759	152
908.5801	92
908.5844	59
908.5887	92
908.5929	92
908.5972	59
908.6014	122
908.6057	59
908.6099	59
908.6142	92
908.627	59
908.6312	92
908.644	59
909.4863	59
909.5033	92
909.5076	92
909.5161	92
909.5246	92
909.5289	92
909.5331	152
909.5374	92
909.5416	59
909.5458	59
909.5501	181
909.5544	92
909.5586	152
909.5629	181
909.5671	59
909.5714	92
909.5756	59
909.5884	92
909.5969	92
909.6182	92
