Mass spectrum: PC(18:1/20-HETE); LC-ESI-QTOF; MS2
Name: PC(18:1/20-HETE)
Class: Oxidized Phospholipid
Formula: C46H82NO9P
Exact mass: 824.136
SMILES: CCCCCCCC\C=C/CCCCCCCC(=O)OCC(COP([O-])(=O)OCC[N+](C)(C)C)OC(=O)CCC\C=C/C\C=C/C\C=C/C\C=C/CCCCCO
InChI: InChI=1S/C46H82NO9P/c1-5-6-7-8-9-10-11-12-16-19-22-25-28-31-34-37-45(49)53-42-44(43-55-57(51,52)54-41-39-47(2,3)4)56-46(50)38-35-32-29-26-23-20-17-14-13-15-18-21-24-27-30-33-36-40-48/h12-13,15-17,20-21,24,26,29,44,48H,5-11,14,18-19,22-23,25,27-28,30-43H2,1-4H3/b15-13-,16-12-,20-17-,24-21-,29-26-
Instrument: Acquity UPLC Peptide BEH C18 column (50 x 2.1 mm; 1.7 um), Sciex TripleTOF5600
Instrument type: LC-ESI-QTOF
Ms type: MS2
Ion mode: NEGATIVE
Collision energy: 30-50
Precursor m/z: 882.5865727
Precursor type: [M+CH3COOH-H]-
m/z	relative intensity
78.95634	4
78.96762	4
121.1041	4
152.9956	4
168.0343	6
168.0362	7
168.038	15
168.0398	9
168.0417	6
168.0435	13
168.0453	9
168.049	11
168.0508	15
168.0526	4
177.0991	6
191.1086	4
191.1808	4
203.1741	4
214.5845	4
224.056	4
224.0581	6
224.0602	7
224.0644	18
224.0665	15
224.0708	13
224.0729	11
224.075	11
224.0771	15
224.0792	7
231.1463	4
242.0778	4
245.1985	4
245.214	6
245.2184	4
245.2206	6
245.2228	13
245.2251	18
245.2273	7
245.2295	11
245.2317	9
245.2339	9
245.2361	4
245.2383	9
245.2427	4
257.2247	4
257.227	6
257.2338	7
257.236	4
271.1999	4
273.1972	4
273.2112	6
273.2136	4
273.2159	7
273.2182	9
273.2206	9
273.2229	7
273.2299	9
273.2322	4
273.2346	7
273.2369	6
275.2253	7
275.2276	7
275.23	11
275.2323	30
275.2346	28
275.237	20
275.2393	24
275.2417	15
275.244	17
275.2464	13
275.2487	4
275.251	6
275.2534	9
279.1129	4
280.3613	4
280.3731	4
280.3755	4
280.5385	4
280.983	4
281.2054	4
281.2101	4
281.222	2
281.2243	8
281.2267	18
281.229	22
281.2314	41
281.2338	91
281.2361	104
281.2385	154
281.2409	213
281.2432	251
281.2456	305
281.248	260
281.2503	311
281.2527	304
281.2551	259
281.2574	202
281.2598	158
281.2621	116
281.2645	59
281.2669	34
281.2693	19
281.2716	13
281.274	9
281.2764	9
281.2787	4
281.2811	9
281.2834	2
281.2882	2
281.2953	2
281.6456	2
282.2379	2
282.245	4
282.2521	2
282.2592	4
283.213	4
289.2044	6
289.2068	4
289.2092	13
289.2116	9
289.214	11
289.2164	17
289.2188	11
289.2236	6
289.226	7
289.2308	6
289.2332	7
289.238	7
291.2307	4
298.1336	4
301.1941	4
301.1965	7
301.199	11
301.2014	9
301.2039	15
301.2063	28
301.2087	20
301.2112	32
301.2137	43
301.2161	50
301.2185	41
301.221	43
301.2234	41
301.2259	58
301.2283	32
301.2308	7
301.2332	9
301.2357	11
301.2381	4
301.2406	6
301.243	4
301.2479	6
317.2206	4
318.2115	4
318.2165	4
318.2215	6
318.2291	4
318.2316	9
318.2341	4
318.2391	6
318.2492	6
318.287	4
318.8032	5
318.8335	5
318.9998	4
319.1686	4
319.1938	3
319.1989	11
319.2014	23
319.2039	39
319.2065	78
319.209	111
319.2115	161
319.214	258
319.2165	344
319.2191	462
319.2216	497
319.2241	704
319.2266	694
319.2291	705
319.2317	692
319.2342	574
319.2367	511
319.2392	375
319.2417	273
319.2443	205
319.2468	129
319.2493	86
319.2518	57
319.2543	46
319.2569	22
319.2594	12
319.2619	5
319.2644	12
319.2669	10
319.2695	3
319.3275	3
319.335	2
319.3426	3
319.3754	2
320.0288	4
320.1399	3
320.2156	4
320.2181	9
320.2206	6
320.2257	7
320.2282	7
320.2307	6
320.2333	13
320.2358	6
320.2383	4
320.2408	15
320.2484	4
432.2865	4
435.2546	4
435.2663	4
455.2277	4
470.282	4
473.3867	4
488.2931	7
488.2962	9
488.2993	15
488.3024	7
488.3087	6
488.3118	15
488.3149	7
488.318	7
488.3211	13
488.3242	11
488.3274	17
488.3305	4
488.3336	9
488.3367	4
488.3429	4
504.7896	4
505.1986	4
505.2176	4
506.2774	6
506.2869	7
506.2901	19
506.2933	11
506.2965	19
506.2997	21
506.3028	23
506.306	47
506.3092	44
506.3123	65
506.3155	59
506.3187	100
506.3219	62
506.325	75
506.3282	66
506.3314	82
506.3346	67
506.3377	40
506.3409	60
506.3441	31
506.3473	33
506.3504	19
506.3536	23
506.3568	13
506.36	15
506.3631	4
506.3663	4
506.3759	2
506.3822	4
507.3065	2
507.3129	4
511.6793	2
526.272	7
526.2785	6
526.2818	6
526.285	4
526.2915	6
526.2947	6
526.298	9
526.3012	4
526.3044	6
526.3109	7
526.3141	6
526.3368	4
544.2747	6
544.2813	6
544.2845	4
544.2878	7
544.2911	4
544.2944	6
544.2977	6
544.301	7
544.3043	6
544.3076	4
544.3109	9
544.3174	4
544.3207	6
544.3273	4
544.3306	4
737.4464	4
737.4655	6
737.4693	6
737.4731	6
737.477	11
737.4808	9
737.4847	4
737.5	9
737.5076	7
737.5192	4
737.5229	4
763.4859	6
763.5132	4
763.521	6
763.5248	6
805.9639	4
805.9679	4
805.9719	7
805.9799	4
805.9839	6
805.9919	4
805.9999	6
806.004	4
806.012	6
806.016	9
806.024	7
806.04	4
806.048	6
806.0881	6
808.4573	4
808.4734	4
808.4855	8
808.4935	8
808.4975	39
808.5015	48
808.5055	85
808.5095	105
808.5135	167
808.5175	189
808.5215	292
808.5256	355
808.5296	381
808.5336	513
808.5376	582
808.5416	729
808.5457	867
808.5496	839
808.5536	785
808.5577	828
808.5617	999
808.5657	810
808.5697	791
808.5737	743
808.5777	665
808.5817	555
808.5858	382
808.5898	291
808.5938	240
808.5978	172
808.6018	85
808.6058	88
808.6098	46
808.6138	50
808.6179	33
808.6219	24
808.6259	23
808.6299	18
808.6339	14
808.6419	5
808.6459	3
808.65	3
808.7823	3
809.1475	3
809.3041	4
809.5008	4
809.5048	7
809.5088	11
809.5128	9
809.5168	4
809.5209	17
809.5248	11
809.5289	13
809.5329	6
809.5369	30
809.541	20
809.5449	36
809.549	30
809.553	37
809.557	36
809.561	35
809.565	30
809.569	34
809.5731	17
809.5771	20
809.5811	24
809.5851	17
809.5891	15
809.5931	17
809.5971	13
809.6011	7
809.6052	6
809.6092	7
809.6132	4
809.6212	6
815.1429	4
823.4828	9
823.4868	6
823.4908	4
823.4949	4
823.503	7
823.5071	9
823.5111	9
823.5151	9
823.5192	20
823.5233	15
823.5314	18
823.5354	11
823.5394	13
823.5435	11
823.5475	6
823.5516	7
823.5557	6
823.5597	7
823.5637	4
823.5678	4
879.8083	4
882.4805	4
882.4973	4
882.5182	11
882.5224	9
882.5266	6
882.5308	15
882.535	8
882.5392	27
882.5434	29
882.5475	24
882.5518	20
882.556	32
882.5601	49
882.5643	49
882.5685	79
882.5727	63
882.5769	99
882.5811	76
882.5853	89
882.5895	73
882.5937	117
882.5978	103
882.6021	95
882.6063	87
882.6104	97
882.6146	87
882.6188	75
882.623	55
882.6272	39
882.6314	55
882.6356	18
882.6398	30
882.644	17
882.6481	22
882.6523	17
882.6566	6
882.6608	12
882.6649	10
882.6691	17
882.6985	4
883.5077	2
883.5329	2
883.5455	4
883.5496	4
883.558	4
883.5916	6
883.5958	4
883.6084	4
883.6125	4
883.6168	4
883.6419	4
