Mass spectrum: SM d33:1; LC-ESI-QTOF; MS2
Name: SM d33:1
Class: SM
Formula: C38H77N2O6P
Exact mass: 689.018
SMILES: CCCCCCCCCCCCCCCC(=O)NC(COP([O-])(=O)OCC[N+](C)(C)C)C(O)\C=C\CCCCCCCCCCCC
InChI: InChI=1S/C38H77N2O6P/c1-6-8-10-12-14-16-18-20-22-24-26-28-30-32-38(42)39-36(35-46-47(43,44)45-34-33-40(3,4)5)37(41)31-29-27-25-23-21-19-17-15-13-11-9-7-2/h29,31,36-37,41H,6-28,30,32-35H2,1-5H3,(H-,39,42,43,44)/b31-29+
Instrument: AB Sciex TripleTOF 5600+ system (Q-TOF) equipped with a DuoSpray ion source
Instrument type: LC-ESI-QTOF
Ms type: MS2
Ion mode: NEGATIVE
Collision energy: 45V
Column name: Acquity UPLC Peptide BEH C18 column (50*2.1 mm; 1.7 um; 130A)(Waters Co.,Milford, MA, USA)
Retention time: 8.712486
Precursor type: [M+CH3COOH-H]-
Precursor m/z: 747.5618
m/z	relative intensity
78.958	25
122.984	3
168.043	91
223.073	1
255.23	8
255.251	3
281.241	9
281.26	5
435.29	4
539.931	3
602.448	6
627.53	3
628.449	1
671.389	5
672.899	1
673.486	84
673.529	999
673.716	1
674.497	1
687.515	1
687.582	1
688.442	2
688.508	5
747.478	6
747.519	12
747.542	9
747.581	12
