Mass spectrum: PC(18:1/9-HODE); LC-ESI-QTOF; MS2
Name: PC(18:1/9-HODE)
Class: Oxidized Phospholipid
Formula: C44H82NO9P
Exact mass: 800.114
SMILES: CCCCCCCC\C=C/CCCCCCCC(=O)OCC(COP([O-])(=O)OCC[N+](C)(C)C)OC(=O)CCCCCCCC(O)\C=C\C=C/CCCCC
InChI: InChI=1S/C44H82NO9P/c1-6-8-10-12-14-15-16-17-18-19-20-21-23-27-31-35-43(47)51-39-42(40-53-55(49,50)52-38-37-45(3,4)5)54-44(48)36-32-28-24-26-30-34-41(46)33-29-25-22-13-11-9-7-2/h17-18,22,25,29,33,41-42,46H,6-16,19-21,23-24,26-28,30-32,34-40H2,1-5H3/b18-17-,25-22-,33-29+
Instrument: Acquity UPLC Peptide BEH C18 column (50 x 2.1 mm; 1.7 um), Sciex TripleTOF5600
Instrument type: LC-ESI-QTOF
Ms type: MS2
Ion mode: NEGATIVE
Collision energy: 30-50
Precursor m/z: 858.5865727
Precursor type: [M+CH3COOH-H]-
m/z	relative intensity
78.96038	8
78.96163	3
168.0344	3
168.0362	7
168.0399	7
168.0417	10
168.0435	15
168.0454	11
168.0472	7
168.049	16
168.0509	3
171.0862	3
171.088	3
171.0917	5
171.0935	7
171.0954	15
171.0972	5
171.0991	21
171.1009	16
171.1028	19
171.1046	16
171.1065	16
171.1083	8
171.1102	7
171.112	3
184.0346	3
224.059	7
224.0611	5
224.0632	7
224.0653	18
224.0674	11
224.0695	18
224.0717	15
224.0738	7
224.0759	5
224.078	5
224.0801	5
224.0843	5
233.2285	3
242.0724	3
242.0746	3
242.0834	3
255.216	3
255.2251	5
255.2273	3
255.2341	7
255.2408	7
276.3588	3
277.1828	3
277.1968	7
277.1992	5
277.2015	10
277.2039	10
277.2062	23
277.2086	38
277.2109	25
277.2133	51
277.2156	61
277.218	51
277.2203	58
277.2227	35
277.225	35
277.2274	26
277.2297	10
277.2321	10
277.2344	5
277.2368	7
277.2438	3
280.3632	5
280.3655	7
280.3679	5
280.3702	5
280.375	3
280.3773	3
280.382	7
280.3891	3
280.3986	4
280.4033	5
281.0629	4
281.1126	4
281.2049	4
281.2143	2
281.2191	4
281.2214	16
281.2238	14
281.2261	26
281.2285	60
281.2309	80
281.2332	139
281.2356	215
281.238	356
281.2404	533
281.2427	644
281.2451	749
281.2474	814
281.2498	813
281.2522	747
281.2545	594
281.2569	354
281.2593	254
281.2617	153
281.264	95
281.2664	47
281.2687	52
281.2711	16
281.2735	27
281.2758	6
281.2782	4
281.2806	7
281.2829	2
281.2853	4
281.3042	4
281.4676	2
281.6949	2
281.8559	2
281.863	3
281.8891	2
281.9862	4
282.2516	3
282.2611	3
282.2777	3
282.4271	5
282.5006	3
282.6809	3
283.2505	3
283.2529	5
283.2576	5
283.26	5
283.2672	3
283.2695	7
283.2719	3
284.2607	3
284.2702	7
284.2797	3
291.3194	4
294.294	5
294.3012	4
294.3037	4
294.6281	4
294.7468	3
295.1903	3
295.1951	3
295.1975	5
295.2	2
295.2024	2
295.2048	11
295.2072	32
295.2097	46
295.2121	45
295.2145	96
295.2169	173
295.2194	158
295.2218	234
295.2242	250
295.2267	270
295.2291	257
295.2315	250
295.2339	159
295.2363	134
295.2388	86
295.2412	75
295.2436	29
295.246	31
295.2485	20
295.2509	15
295.2533	15
295.2557	4
295.2606	2
295.2897	2
295.6899	2
296.0515	2
296.2288	3
296.2312	3
297.2496	2
303.215	2
417.2427	3
431.2064	3
431.2093	5
431.2122	7
431.2152	7
431.2181	7
431.221	8
431.224	3
431.2269	7
431.2298	3
431.2328	7
488.3019	7
488.3081	3
488.3112	10
488.3144	7
488.3175	7
488.3237	5
488.3331	3
488.3362	5
502.2658	7
502.269	8
502.2722	3
502.2785	11
502.2816	7
502.2848	7
502.288	8
502.2911	15
502.2943	7
502.2975	10
502.3006	7
502.3038	8
502.3069	5
502.3101	10
502.3133	5
502.3196	3
502.3259	3
506.2962	5
506.3026	3
506.3089	8
506.3121	8
506.3152	10
506.3184	8
506.3216	13
506.3248	19
506.328	10
506.3311	21
506.3343	10
506.3375	7
506.3407	8
506.3438	8
506.347	5
511.0314	3
520.2654	7
520.2687	5
520.2719	18
520.2751	8
520.2783	21
520.2816	21
520.2848	16
520.288	23
520.2912	58
520.2944	32
520.2976	46
520.3008	29
520.3041	42
520.3073	40
520.3105	51
520.3137	35
520.317	35
520.3202	22
520.3234	26
520.3266	15
520.3298	10
520.3331	3
520.3362	10
520.3459	8
520.3524	3
608.1739	3
713.4321	3
713.4359	3
713.4396	3
713.4434	3
713.4472	5
713.4509	7
713.4547	7
713.4585	3
713.4623	8
713.466	11
713.4698	21
713.4736	21
713.4774	13
713.4811	18
713.4849	11
713.4886	16
713.4924	19
713.4962	15
713.4999	15
713.5037	15
713.5075	3
713.5112	5
713.515	7
713.5188	7
713.5226	3
713.5263	3
739.4702	3
739.4741	5
739.4779	3
739.4856	5
739.4894	3
739.5009	7
739.5086	3
740.5066	3
740.5258	3
758.5384	3
782.0183	3
782.0262	3
782.042	3
782.0459	3
782.0617	3
782.0657	3
782.0735	7
782.0775	8
782.0814	7
782.0854	8
782.0894	5
782.0933	5
782.1011	3
782.1051	5
782.1091	3
782.1169	3
782.1328	3
782.1367	3
782.1446	3
782.6813	3
783.4987	3
784.4705	4
784.4943	13
784.4982	45
784.5021	44
784.5061	73
784.5101	128
784.514	171
784.5179	212
784.5219	266
784.5259	371
784.5298	452
784.5338	558
784.5377	744
784.5417	802
784.5457	782
784.5496	867
784.5535	862
784.5575	990
784.5615	999
784.5654	691
784.5693	650
784.5733	558
784.5773	357
784.5812	303
784.5851	251
784.5891	150
784.5931	93
784.597	54
784.601	44
784.6049	34
784.6089	29
784.6128	14
784.6168	13
784.6207	11
784.6247	5
784.6286	7
784.6326	8
784.6365	3
785.4905	5
785.5221	7
785.5261	3
785.53	8
785.534	8
785.538	8
785.5419	4
785.5458	8
785.5498	8
785.5538	16
785.5577	5
785.5616	13
785.5656	8
785.5696	8
785.5735	3
785.5775	8
785.5814	7
785.5894	3
785.5973	3
785.6012	3
785.6526	3
798.5308	5
798.5428	3
798.5468	3
798.5508	3
798.5707	5
799.4601	7
799.4641	3
799.4761	8
799.488	11
799.492	10
799.496	16
799.5	11
799.504	11
799.508	11
799.512	16
799.5159	13
799.52	7
799.5239	13
799.528	21
799.5319	10
799.5359	11
799.5399	8
799.5439	8
799.5479	7
799.5638	5
808.4457	3
858.4457	3
858.5037	7
858.5161	7
858.5202	8
858.5284	13
858.5326	7
858.5367	7
858.5408	17
858.545	17
858.5491	20
858.5533	43
858.5574	21
858.5615	50
858.5657	55
858.5698	56
858.5739	69
858.5781	62
858.5822	101
858.5863	50
858.5905	99
858.5946	80
858.5988	75
858.6028	97
858.607	80
858.6111	61
858.6153	36
858.6194	36
858.6235	35
858.6277	38
858.6318	31
858.6359	17
858.6401	16
858.6442	12
858.6484	9
858.6525	5
858.6566	3
858.669	3
858.8303	2
859.5623	3
859.5748	3
