Mass spectrum: PE(18:1/20-HETE); LC-ESI-QTOF; MS2
Name: PE(18:1/20-HETE)
Class: Oxidized Phospholipid
Formula: C43H76NO9P
Exact mass: 782.055
SMILES: CCCCCCCC\C=C/CCCCCCCC(=O)OCC(COP(O)(=O)OCCN)OC(=O)CCC\C=C/C\C=C/C\C=C/C\C=C/CCCCCO
InChI: InChI=1S/C43H76NO9P/c1-2-3-4-5-6-7-8-9-13-16-19-22-25-28-31-34-42(46)50-39-41(40-52-54(48,49)51-38-36-44)53-43(47)35-32-29-26-23-20-17-14-11-10-12-15-18-21-24-27-30-33-37-45/h9-10,12-14,17-18,21,23,26,41,45H,2-8,11,15-16,19-20,22,24-25,27-40,44H2,1H3,(H,48,49)/b12-10-,13-9-,17-14-,21-18-,26-23-
Instrument: Acquity UPLC Peptide BEH C18 column (50 x 2.1 mm; 1.7 um), Sciex TripleTOF5600
Instrument type: LC-ESI-QTOF
Ms type: MS2
Ion mode: NEGATIVE
Collision energy: 30-50
Precursor m/z: 780.5184935
Precursor type: [M-H]-
m/z	relative intensity
140.0076	25
140.011	12
140.0127	12
140.0143	32
140.0193	19
174.1096	12
177.0899	12
177.1688	12
196.0242	12
196.0301	19
196.0321	32
196.0341	19
196.0361	38
196.038	19
196.04	44
196.042	32
196.044	25
196.0459	19
196.0519	19
199.6022	12
217.1928	19
225.1813	12
227.21	12
228.2128	12
241.0124	12
241.0168	12
243.1946	12
243.199	12
245.2055	12
245.2121	12
245.2188	12
245.221	12
245.2254	12
245.2276	19
245.2298	32
245.232	19
245.2364	19
245.2386	12
245.2453	19
253.2105	12
255.2217	12
255.224	12
255.2263	12
255.2308	12
255.233	19
255.2353	12
257.2228	19
257.2296	12
257.2341	12
257.2364	12
257.2386	19
257.2409	12
263.2156	12
268.2389	12
273.2116	12
273.214	12
273.2163	19
273.2186	12
273.2209	12
273.2233	12
273.2256	32
273.228	19
273.2326	19
273.2373	19
275.2234	12
275.2257	32
275.228	25
275.2304	12
275.2327	39
275.235	25
275.2374	19
275.2397	51
275.2421	64
275.2444	38
275.2468	19
275.2515	40
278.8305	13
280.3759	13
280.3995	13
281.2176	13
281.2224	39
281.2247	21
281.2271	20
281.2295	27
281.2318	146
281.2342	115
281.2365	223
281.2389	313
281.2413	287
281.2437	457
281.246	457
281.2484	441
281.2507	442
281.2531	447
281.2555	378
281.2578	209
281.2602	222
281.2626	142
281.265	135
281.2673	21
281.2697	55
281.272	14
281.2744	20
281.2768	14
281.2791	7
281.2815	7
281.2839	12
281.4472	7
282.2597	12
282.4138	7
283.2491	7
289.2024	12
289.2048	12
289.2072	12
289.2096	12
289.2144	25
289.2168	12
289.2192	19
289.2216	12
289.224	25
289.2264	12
289.2312	12
289.236	12
291.2143	12
301.1921	12
301.2019	38
301.2043	19
301.2068	51
301.2092	32
301.2117	89
301.2141	101
301.2166	51
301.219	76
301.2215	133
301.2239	76
301.2263	63
301.2288	51
301.2313	19
301.2337	32
301.2361	19
301.2386	12
315.066	14
317.211	12
317.216	12
318.2245	12
318.2648	14
318.285	13
319.0507	14
319.1767	13
319.1893	27
319.1969	15
319.1994	27
319.2019	27
319.2044	50
319.2069	72
319.2095	181
319.212	290
319.2145	321
319.217	491
319.2195	810
319.2221	665
319.2246	679
319.2271	729
319.2296	999
319.2321	788
319.2347	687
319.2372	608
319.2397	452
319.2422	341
319.2448	219
319.2473	114
319.2498	121
319.2523	107
319.2549	29
319.2574	22
319.2599	14
319.2624	21
319.2649	7
319.2675	14
319.27	13
320.2237	14
320.2287	19
320.2312	12
320.2338	25
320.2388	19
320.9285	12
460.2608	12
460.2668	12
460.2729	19
460.2759	25
460.288	25
460.291	25
460.2941	12
460.2971	12
460.3032	19
478.269	25
478.2721	12
478.2751	51
478.2782	57
478.2813	89
478.2844	89
478.2875	51
478.2906	83
478.2936	121
478.2968	121
478.2998	63
478.3029	44
478.306	44
478.3091	44
478.3122	51
478.3152	44
478.3183	25
478.3214	12
478.3245	12
478.3276	19
478.3307	12
479.2971	12
498.2686	12
498.2717	12
516.277	12
706.4719	19
706.4981	12
706.5056	25
706.5131	32
706.5244	19
706.5281	19
706.5319	12
706.5469	19
778.0516	12
778.0831	12
780.4306	12
780.4346	19
780.4385	12
780.4424	13
780.4503	25
780.4582	20
780.4622	40
780.4661	55
780.47	34
780.4739	75
780.4779	103
780.4819	129
780.4858	182
780.4897	252
780.4937	196
780.4976	290
780.5016	253
780.5055	447
780.5095	514
780.5134	576
780.5173	525
780.5212	660
780.5252	606
780.5292	512
780.5331	486
780.537	506
780.541	607
780.5449	544
780.5489	467
780.5528	409
780.5568	266
780.5607	252
780.5646	129
780.5685	157
780.5725	86
780.5765	109
780.5804	51
780.5844	36
780.5883	42
780.5922	22
780.5962	28
780.6001	13
780.7144	7
781.4597	12
781.4755	19
781.4834	19
781.4913	25
781.4952	12
781.5031	38
781.511	19
781.515	19
781.5189	12
781.5268	12
781.5386	25
781.5505	25
781.5662	19
