Mass spectrum: PI(16:0/18-HETE); LC-ESI-QTOF; MS2
Name: PI(16:0/18-HETE)
Class: Oxidized Phospholipid
Formula: C45H79O14P
Exact mass: 875.089
SMILES: CCCCCCCCCCCCCCCC(=O)OCC(COP(O)(=O)OC1C(O)C(O)C(O)C(O)C1O)OC(=O)CCC\C=C/C\C=C/C\C=C/C\C=C/CCC(O)CC
InChI: InChI=1S/C45H79O14P/c1-3-5-6-7-8-9-10-13-17-20-23-26-29-32-38(47)56-34-37(35-57-60(54,55)59-45-43(52)41(50)40(49)42(51)44(45)53)58-39(48)33-30-27-24-21-18-15-12-11-14-16-19-22-25-28-31-36(46)4-2/h12,14-16,21-22,24-25,36-37,40-46,49-53H,3-11,13,17-20,23,26-35H2,1-2H3,(H,54,55)/b15-12-,16-14-,24-21-,25-22-
Instrument: Acquity UPLC Peptide BEH C18 column (50 x 2.1 mm; 1.7 um), Sciex TripleTOF5600
Instrument type: LC-ESI-QTOF
Ms type: MS2
Ion mode: NEGATIVE
Collision energy: 30-50
Precursor m/z: 873.5134677
Precursor type: [M-H]-
m/z	relative intensity
78.95487	2
78.95612	1
78.95738	2
78.95863	4
78.95988	4
78.96114	4
78.96239	3
78.96365	4
78.9649	2
78.96615	2
78.96741	1
78.96866	1
96.96661	2
96.968	1
96.96939	1
96.97912	1
107.0881	1
121.0931	1
134.9813	1
135.1157	1
152.5281	1
152.985	1
152.9868	4
152.9885	5
152.9903	5
152.992	10
152.9937	7
152.9955	10
152.9972	5
152.999	9
153.0007	6
153.0025	2
153.0042	5
153.006	3
153.0095	2
153.013	1
159.3661	1
163.1484	1
163.1502	1
171.0066	1
177.0934	1
177.1046	1
189.1591	1
200.3302	1
203.174	1
203.1841	1
217.1572	1
217.1592	1
217.1821	2
217.1842	2
217.1863	4
217.1883	6
217.1904	9
217.1925	4
217.1946	11
217.1967	5
217.1987	10
217.2008	5
217.2029	3
217.207	1
217.2091	1
217.2133	1
222.9801	1
222.9843	1
222.9865	1
222.9886	1
222.9907	7
222.9928	9
222.9949	13
222.997	12
222.9991	14
223.0012	15
223.0033	16
223.0054	13
223.0075	6
223.0096	3
223.0117	2
223.0138	5
223.0159	2
223.0181	2
223.1677	1
223.1782	1
235.173	1
240.2547	1
240.2635	1
240.2657	1
240.2744	2
240.537	1
240.9551	1
240.9858	2
240.988	1
240.9902	2
240.9924	5
240.9945	10
240.9967	13
240.9989	28
241.0011	29
241.0033	46
241.0055	71
241.0077	75
241.0099	92
241.0121	98
241.0143	94
241.0164	73
241.0186	54
241.0208	42
241.023	27
241.0252	14
241.0274	9
241.0296	11
241.0318	6
241.034	4
241.0362	3
241.0383	1
241.0427	1
241.5205	1
241.8079	1
243.1745	1
243.1789	1
245.1499	1
245.1787	1
254.1113	1
254.4376	1
254.4398	1
254.4466	2
254.9014	1
255.2011	2
255.2034	1
255.2079	1
255.2102	1
255.2124	3
255.2147	5
255.2169	15
255.2192	21
255.2214	32
255.2237	44
255.2259	62
255.2282	64
255.2304	89
255.2327	95
255.235	79
255.2372	84
255.2395	67
255.2417	50
255.244	27
255.2462	21
255.2485	14
255.2507	7
255.253	5
255.2552	5
255.2575	3
255.2598	3
255.262	1
255.2665	1
255.271	1
256.239	2
257.2066	1
257.2157	1
257.218	1
257.2202	2
257.2225	2
257.2248	2
257.227	4
257.2293	1
257.2315	4
257.2338	1
257.2361	2
257.2406	1
259.0065	1
259.0088	2
259.011	1
259.0133	7
259.0156	7
259.0179	10
259.0201	7
259.0224	7
259.0247	6
259.0269	8
259.0292	11
259.0315	6
259.0338	2
259.036	2
259.0383	2
259.0497	1
260.3821	1
261.1614	1
261.1637	2
261.166	1
261.1682	3
261.1705	2
261.1728	10
261.1751	12
261.1773	18
261.1796	21
261.1819	21
261.1842	28
261.1865	26
261.1888	24
261.191	22
261.1933	20
261.1956	14
261.1979	11
261.2002	7
261.2024	4
261.2047	2
261.207	4
261.2093	2
261.2115	1
273.2067	1
273.216	1
273.2183	1
273.2253	1
273.2276	1
273.23	2
273.2323	1
275.1388	1
275.2277	1
275.2301	1
275.2324	2
275.2347	2
275.2371	3
275.2394	1
275.2418	2
275.2441	4
275.2464	2
275.2488	1
275.2535	2
283.2107	1
283.2131	1
297.0044	1
297.0165	1
297.019	2
297.0214	2
297.0238	5
297.0263	5
297.0287	10
297.0311	7
297.0336	6
297.036	10
297.0384	10
297.0409	12
297.0433	11
297.0457	6
297.0482	4
297.0506	4
297.053	5
297.0555	1
297.0579	1
297.0627	1
301.1917	1
301.1942	1
301.1966	2
301.1991	4
301.2015	7
301.204	7
301.2065	12
301.2089	20
301.2113	18
301.2138	20
301.2162	25
301.2187	24
301.2211	22
301.2236	20
301.226	14
301.2285	14
301.2309	5
301.2334	6
301.2358	5
301.2383	2
301.2407	3
301.2432	1
302.2162	1
315.0231	1
315.0306	3
315.0331	1
315.0356	3
315.0381	1
315.0406	4
315.0432	7
315.0457	5
315.0482	4
315.0507	5
315.0532	4
315.0557	5
315.0582	2
315.0607	3
315.0632	1
315.0732	1
315.0757	1
317.2057	1
317.2132	1
317.2207	1
317.2232	1
318.2242	1
318.2267	1
318.2292	1
318.2343	1
318.2368	1
318.2393	1
318.2419	1
318.2444	1
318.2469	1
318.2871	1
318.2922	1
319.1638	1
319.1663	1
319.189	3
319.194	3
319.1965	3
319.199	4
319.2016	6
319.2041	11
319.2066	22
319.2091	27
319.2116	45
319.2142	81
319.2167	99
319.2192	111
319.2217	136
319.2243	174
319.2268	189
319.2293	165
319.2318	161
319.2343	155
319.2368	126
319.2394	93
319.2419	64
319.2444	48
319.2469	31
319.2495	18
319.252	13
319.2545	9
319.257	9
319.2596	3
319.2621	5
319.2646	2
319.2671	1
319.3528	1
319.4285	1
320.2233	2
320.2309	1
320.2334	2
320.236	1
320.2385	2
326.3322	1
391.192	2
391.1948	2
391.1976	3
391.2004	5
391.2032	9
391.206	7
391.2088	12
391.2115	15
391.2143	15
391.2171	21
391.2199	29
391.2227	23
391.2255	32
391.2283	32
391.2311	30
391.2339	25
391.2367	22
391.2395	22
391.2422	12
391.245	9
391.2478	9
391.2506	5
391.2534	4
391.2562	4
391.259	1
391.2646	1
392.2253	1
392.2336	1
392.2392	1
409.2193	2
409.2221	2
409.225	1
409.2278	2
409.2307	1
409.2336	3
409.2364	4
409.2393	2
409.2421	4
409.245	1
409.2478	3
409.2507	1
409.2592	1
409.2621	1
409.2707	1
409.2735	1
455.192	4
455.195	4
455.1981	5
455.2011	2
455.2041	3
455.2071	8
455.2101	14
455.2131	7
455.2161	11
455.2191	10
455.2221	15
455.2252	15
455.2282	10
455.2312	9
455.2342	9
455.2372	5
455.2402	5
455.2432	2
455.2462	6
455.2492	4
455.2523	2
455.2552	1
473.2399	1
474.9419	1
477.106	1
480.5857	1
482.7534	1
489.1108	1
490.2567	1
490.563	1
494.3171	1
497.2483	1
497.2578	1
511.1248	1
522.8633	1
552.4364	1
553.1927	1
553.2359	3
553.2393	2
553.2426	5
553.2458	8
553.2492	9
553.2525	11
553.2559	18
553.2592	14
553.2625	18
553.2658	25
553.2691	24
553.2724	32
553.2758	36
553.2791	43
553.2824	45
553.2857	35
553.289	37
553.2924	40
553.2957	26
553.299	25
553.3023	22
553.3056	14
553.309	15
553.3123	7
553.3156	5
553.3189	5
553.3222	1
553.3255	1
553.3289	1
554.2719	1
554.2885	1
571.2382	1
571.2517	1
571.2551	3
571.2584	6
571.2618	5
571.2652	5
571.2686	10
571.2719	7
571.2753	13
571.2787	15
571.282	19
571.2854	14
571.2888	19
571.2922	20
571.2955	14
571.2989	16
571.3022	17
571.3057	15
571.309	12
571.3124	11
571.3157	10
571.3192	5
571.3225	2
571.3259	2
571.3292	3
571.3326	2
571.3394	2
571.3427	1
593.097	1
617.2261	1
617.2297	2
617.2332	1
617.2366	1
617.2402	5
617.2437	5
617.2472	3
617.2507	6
617.2542	7
617.2577	8
617.2612	11
617.2647	12
617.2682	10
617.2717	10
617.2752	15
617.2787	15
617.2822	10
617.2858	10
617.2892	14
617.2927	7
617.2963	9
617.2997	7
617.3033	2
617.3068	6
617.3103	3
617.3138	2
617.3208	1
617.3243	1
618.2747	1
618.2888	1
635.2795	1
635.2866	1
635.2937	1
635.2973	1
635.3008	1
711.4269	1
711.4457	1
711.4532	1
711.457	1
711.4608	2
711.4683	1
711.4796	1
711.4833	3
711.4871	1
711.4908	1
711.4984	1
711.5059	1
870.6641	1
870.7016	1
870.7057	2
870.7141	1
870.7224	1
870.7266	4
870.7308	2
870.7349	2
870.7391	2
870.7432	2
870.7474	2
870.7516	1
870.7557	2
870.7599	4
870.764	4
870.7682	4
870.7724	6
870.7766	2
870.7807	5
870.7849	5
870.7891	4
870.7932	3
870.7974	4
870.8015	5
870.8057	4
870.8099	3
870.814	6
870.8182	1
870.8223	1
870.8265	2
870.8307	1
870.8348	1
870.8431	1
870.8474	1
870.8557	2
870.8598	1
871.8636	1
872.1636	1
872.4553	1
872.497	2
872.5178	1
872.5345	1
872.5762	1
872.5928	1
872.8513	1
872.968	1
873.0931	1
873.1389	1
873.1473	1
873.1765	1
873.1848	1
873.264	1
873.2766	1
873.2974	1
873.3265	1
873.3349	1
873.3391	1
873.3641	1
873.3682	1
873.3766	1
873.4016	1
873.4058	2
873.41	1
873.4141	2
873.4183	1
873.4225	1
873.4266	2
873.4308	2
873.4433	1
873.4517	12
873.4558	32
873.46	37
873.4642	57
873.4683	91
873.4725	108
873.4767	151
873.4808	195
873.485	275
873.4892	353
873.4933	465
873.4975	583
873.5017	675
873.5059	713
873.51	867
873.5142	901
873.5184	936
873.5225	979
873.5267	999
873.5309	985
873.535	949
873.5392	855
873.5434	771
873.5475	637
873.5518	465
873.5559	404
873.5601	284
873.5643	214
873.5684	158
873.5726	112
873.5767	54
873.5809	42
873.5851	29
873.5892	22
873.5934	12
873.5976	7
873.6018	8
873.606	11
873.6101	5
873.6143	10
873.6185	3
873.6602	1
873.8228	1
873.9563	2
874.0731	1
874.0981	1
874.2483	1
874.2942	1
874.3568	1
874.361	1
874.3985	1
874.411	1
874.4402	1
874.4444	2
874.4485	2
874.4528	1
874.4611	1
874.4653	3
874.4694	4
874.4736	4
874.4778	5
874.4819	9
874.4861	6
874.4903	9
874.4944	10
874.4987	10
874.5028	14
874.507	14
874.5112	20
874.5153	20
874.5195	24
874.5237	22
874.5278	17
874.532	17
874.5362	15
874.5403	17
874.5446	20
874.5487	20
874.5529	12
874.5571	14
874.5612	10
874.5654	6
874.5696	5
874.5737	4
874.5779	5
874.5821	4
874.5862	1
874.5905	2
874.5946	1
874.603	2
874.8033	1
874.916	1
875.0996	1
875.3584	1
875.7175	1
875.897	1
875.9387	1
875.9972	1
876.11	1
876.5444	1
876.8368	1
877.2254	1
877.3299	1
877.8691	1
879.9523	1
881.3005	1
881.4764	1
882.2097	1
887.8638	1
