Mass spectrum: Cer[NS] d42:3; LC-ESI-QTOF; MS2
Name: Cer[NS] d42:3
Class: Cer_NS
Formula: C42H79NO3
Exact mass: 646.098
SMILES: CCCCCCCCCCCCC\C=C\C(O)C(CO)NC(=O)CCCCCCCCCCCCCCCC\C=C/C\C=C/CC
InChI: InChI=1S/C42H79NO3/c1-3-5-7-9-11-13-15-17-18-19-20-21-22-23-24-26-28-30-32-34-36-38-42(46)43-40(39-44)41(45)37-35-33-31-29-27-25-16-14-12-10-8-6-4-2/h5,7,11,13,35,37,40-41,44-45H,3-4,6,8-10,12,14-34,36,38-39H2,1-2H3,(H,43,46)/b7-5-,13-11-,37-35+
Instrument: AB Sciex TripleTOF 5600+ system (Q-TOF) equipped with a DuoSpray ion source
Instrument type: LC-ESI-QTOF
Ms type: MS2
Ion mode: NEGATIVE
Collision energy: 45V
Column name: Acquity UPLC Peptide BEH C18 column (50*2.1 mm; 1.7 um; 130A)(Waters Co.,Milford, MA, USA)
Retention time: 12.6844
Precursor type: [M+CH3COOH-H]-
Precursor m/z: 704.6182
m/z	relative intensity
233.231	5
235.206	8
237.221	58
246.986	4
250.26	5
261.222	16
263.237	46
266.25	20
268.264	13
281.248	4
286.969	3
294.969	4
322.965	4
345.315	68
347.331	13
362.34	62
363.322	43
364.354	13
364.372	5
365.338	8
388.358	376
390.371	54
404.349	59
406.364	10
458.897	3
540.928	2
569.591	2
586.588	2
596.57	33
596.598	12
612.567	79
612.597	13
614.584	100
622.903	2
626.58	3
642.55	5
644.595	999
645.616	2
668.895	2
704.598	4
