Mass spectrum: PE(16:0e/4-HDoHE); LC-ESI-QTOF; MS2
Name: PE(16:0e/4-HDoHE)
Class: Oxidized Phospholipid
Formula: C43H76NO8P
Exact mass: 766.056
SMILES: CCCCCCCCCCCCCCCCOCC(COP(O)(=O)OCCN)OC(=O)CCC(O)\C=C\C=C/C\C=C/C\C=C/C\C=C/C\C=C/CC
InChI: InChI=1S/C43H76NO8P/c1-3-5-7-9-11-13-15-17-19-20-21-23-25-27-29-31-33-41(45)34-35-43(46)52-42(40-51-53(47,48)50-38-36-44)39-49-37-32-30-28-26-24-22-18-16-14-12-10-8-6-4-2/h5,7,11,13,17,19,21,23,27,29,31,33,41-42,45H,3-4,6,8-10,12,14-16,18,20,22,24-26,28,30,32,34-40,44H2,1-2H3,(H,47,48)/b7-5-,13-11-,19-17-,23-21-,29-27-,33-31+
Instrument: Acquity UPLC Peptide BEH C18 column (50 x 2.1 mm; 1.7 um), Sciex TripleTOF5600
Instrument type: LC-ESI-QTOF
Ms type: MS2
Ion mode: NEGATIVE
Collision energy: 30-50
Precursor m/z: 764.5235789
Precursor type: [M-H]-
m/z	relative intensity
101.0196	76
101.021	95
101.0224	58
101.0238	189
101.0252	95
101.0267	58
101.0281	76
101.0295	76
101.0366	37
115.041	37
133.1013	37
135.1111	37
135.1226	37
140.0126	58
168.04	37
168.0436	37
173.1279	37
173.1297	58
227.1822	76
227.1865	76
227.1886	37
227.1929	95
227.195	113
227.1971	58
227.1992	95
227.2014	152
227.2035	76
227.2056	132
227.2078	95
227.212	37
241.1854	58
241.1985	76
241.2007	37
241.2073	37
241.2139	37
241.2182	37
241.2204	58
241.227	58
253.2104	76
253.2172	58
253.2284	37
254.2218	37
255.2171	37
255.2194	37
255.2216	76
255.2239	152
255.2262	247
255.2284	227
255.2307	152
255.2329	95
255.2352	95
255.2374	58
255.2397	152
255.2419	113
255.2442	58
255.2487	37
277.2165	37
281.2104	58
281.2128	37
281.2151	95
281.2175	58
281.2198	132
281.2222	76
281.2246	152
281.227	132
281.2293	152
281.2317	152
281.2341	132
281.2364	95
281.2388	113
281.2411	37
281.2435	113
281.2483	37
284.2519	37
284.2709	58
299.2337	76
299.2435	58
303.2278	37
303.2327	37
303.2401	37
303.2426	37
303.245	37
303.2475	37
325.2016	37
325.2067	37
325.2143	37
325.2194	58
325.2296	37
325.2321	37
343.1939	37
343.2018	37
343.207	58
343.2096	189
343.2122	132
343.2148	132
343.2175	189
343.2201	303
343.2227	416
343.2253	284
343.2279	531
343.2305	342
343.2332	303
343.2357	227
343.2384	189
343.241	152
343.2436	95
343.2462	37
343.2488	37
343.2541	76
345.2279	37
345.2332	37
345.2358	37
345.2384	37
345.241	58
345.2437	37
345.2463	152
345.2489	58
345.2515	58
345.2542	37
377.237	58
377.2397	37
377.2425	95
377.2452	37
377.248	58
377.2507	58
377.2534	58
377.2589	58
377.2617	58
420.2734	37
420.2763	37
420.2792	37
420.2821	95
420.285	58
420.2879	76
420.2908	76
420.2937	152
420.2966	58
420.3024	37
420.3053	37
436.2742	58
436.2771	37
436.2801	95
436.283	58
436.2889	76
436.3007	97
436.3066	78
436.9081	39
437.2709	39
438.2628	37
438.2658	58
438.2687	95
438.2717	95
438.2746	115
438.2776	193
438.2805	332
438.2835	488
438.2864	488
438.2894	371
438.2924	433
438.2953	531
438.2982	726
438.3012	568
438.3042	789
438.3071	531
438.3101	490
438.313	472
438.316	316
438.3189	176
438.3219	234
438.3248	178
438.3278	58
438.3307	39
438.3337	39
438.3367	39
438.3455	37
439.312	37
452.2708	20
480.2981	37
677.5035	37
690.4742	37
690.4816	37
690.4853	113
690.489	58
690.4927	37
690.4965	113
690.5001	132
690.5038	76
690.5076	76
690.5113	208
690.515	189
690.5187	95
690.5224	132
690.5261	152
690.5298	152
690.5335	113
690.5372	58
690.541	95
690.5446	113
690.5521	95
690.5558	37
690.5743	37
762.1152	37
764.4463	39
764.4658	39
764.4697	78
764.4736	76
764.4814	254
764.4853	271
764.4892	232
764.4931	446
764.497	254
764.5009	498
764.5048	540
764.5087	418
764.5126	633
764.5165	396
764.5204	698
764.5243	739
764.5282	862
764.5321	715
764.536	999
764.5399	700
764.5438	696
764.5477	538
764.5516	436
764.5555	520
764.5594	442
764.5634	280
764.5672	299
764.5711	217
764.575	217
764.5789	98
764.5828	41
764.5867	78
764.5984	37
764.6063	20
764.6141	58
764.657	37
765.539	37
