Mass spectrum: PG 32:1; LC-ESI-QTOF; MS2
Name: PG 32:1
Class: PG
Formula: C38H73O10P
Exact mass: 720.968
SMILES: CCCCCCCCCCCCCCCC(=O)OCC(COP(O)(=O)OCC(O)CO)OC(=O)CCCCCCC\C=C/CCCCCC
InChI: InChI=1S/C38H73O10P/c1-3-5-7-9-11-13-15-17-19-21-23-25-27-29-37(41)45-33-36(34-47-49(43,44)46-32-35(40)31-39)48-38(42)30-28-26-24-22-20-18-16-14-12-10-8-6-4-2/h14,16,35-36,39-40H,3-13,15,17-34H2,1-2H3,(H,43,44)/b16-14-
Instrument: AB Sciex TripleTOF 5600+ system (Q-TOF) equipped with a DuoSpray ion source
Instrument type: LC-ESI-QTOF
Ms type: MS2
Ion mode: NEGATIVE
Collision energy: 45V
Column name: Acquity UPLC Peptide BEH C18 column (50*2.1 mm; 1.7 um; 130A)(Waters Co.,Milford, MA, USA)
Retention time: 8.253181
Precursor type: [M-H]-
Precursor m/z: 719.4861
m/z	relative intensity
152.996	44
171.0	31
223.081	8
227.2	294
253.218	647
255.232	561
280.368	8
281.237	83
281.251	166
283.263	8
308.96	8
389.211	27
391.221	22
417.237	22
437.225	8
455.236	12
463.243	38
465.256	25
481.256	30
483.272	34
491.3	8
509.284	22
627.51	12
641.535	8
645.485	8
659.54	21
673.667	9
711.837	9
719.437	89
719.479	999
719.512	151
