Mass spectrum: PI(16:0/15-HEPE); LC-ESI-QTOF; MS2
Name: PI(16:0/15-HEPE)
Class: Oxidized Phospholipid
Formula: C45H77O14P
Exact mass: 873.073
SMILES: CCCCCCCCCCCCCCCC(=O)OCC(COP(O)(=O)OC1C(O)C(O)C(O)C(O)C1O)OC(=O)CCC\C=C/C\C=C/C\C=C/CC(O)\C=C\C=C/CC
InChI: InChI=1S/C45H77O14P/c1-3-5-7-9-10-11-12-13-14-18-21-24-28-32-38(47)56-34-37(35-57-60(54,55)59-45-43(52)41(50)40(49)42(51)44(45)53)58-39(48)33-29-25-22-19-16-15-17-20-23-27-31-36(46)30-26-8-6-4-2/h6,8,15,17,19,22-23,26-27,30,36-37,40-46,49-53H,3-5,7,9-14,16,18,20-21,24-25,28-29,31-35H2,1-2H3,(H,54,55)/b8-6-,17-15-,22-19-,27-23-,30-26+
Instrument: Acquity UPLC Peptide BEH C18 column (50 x 2.1 mm; 1.7 um), Sciex TripleTOF5600
Instrument type: LC-ESI-QTOF
Ms type: MS2
Ion mode: NEGATIVE
Collision energy: 30-50
Precursor m/z: 871.4978177
Precursor type: [M-H]-
m/z	relative intensity
78.95821	5
78.96072	5
78.96198	5
78.96323	7
78.96448	10
78.97075	7
121.0971	5
121.1017	5
134.9821	5
152.9859	5
152.9876	5
152.9894	7
152.9911	10
152.9928	7
152.9963	10
152.9981	5
153.0016	5
163.1474	5
175.1468	12
175.1487	5
175.1505	5
175.1524	10
175.1543	15
201.1586	5
201.1666	5
203.1446	5
219.1272	10
219.1293	17
219.1335	17
219.1356	37
219.1377	20
219.1398	22
219.1418	41
219.1439	32
219.146	20
219.1481	15
219.1565	5
219.1606	5
222.9893	7
222.9914	5
222.9935	10
222.9956	5
222.9977	5
222.9998	15
223.0019	20
223.004	7
223.0061	5
223.0083	12
223.0209	5
223.0272	5
227.1998	5
234.0758	5
240.5486	5
240.9908	5
240.993	8
240.9952	15
240.9974	18
240.9996	45
241.0018	30
241.004	48
241.0062	83
241.0084	118
241.0106	108
241.0128	105
241.015	98
241.0171	81
241.0193	55
241.0215	40
241.0237	20
241.0259	10
241.0281	10
241.0303	10
241.0325	8
241.0347	5
241.039	3
241.0478	3
247.1252	5
247.1319	5
247.1341	7
247.1363	7
248.1288	3
248.1332	7
248.1355	10
248.1421	7
248.1443	12
248.1488	5
248.151	5
255.195	5
255.1996	10
255.2018	10
255.2041	22
255.2063	37
255.2086	30
255.2108	39
255.2131	27
255.2153	25
255.2176	50
255.2198	33
255.2221	42
255.2243	37
255.2266	50
255.2289	86
255.2311	78
255.2334	68
255.2356	91
255.2379	76
255.2401	68
255.2424	37
255.2446	30
255.2469	25
255.2491	18
255.2514	12
255.2536	3
255.2559	3
255.2897	3
256.2397	3
259.014	7
259.0162	7
259.0185	12
259.0208	10
259.023	15
259.0253	5
259.0276	10
259.0389	5
297.0244	5
297.0268	5
297.0293	12
297.0317	10
297.0366	5
297.039	10
297.0414	5
297.0439	15
297.0463	7
297.0487	7
297.0511	7
299.1828	5
299.1852	7
299.1901	17
299.1926	22
299.195	24
299.1974	17
299.1999	37
299.2023	17
299.2048	22
299.2072	20
299.2097	12
299.2121	10
299.2145	10
299.217	5
299.2194	10
299.2341	5
315.0412	5
315.0462	5
315.0537	15
315.0587	7
315.0637	7
316.2293	7
316.877	5
317.181	5
317.186	5
317.1885	12
317.1911	17
317.1936	10
317.1961	42
317.1986	23
317.2011	48
317.2036	68
317.2061	93
317.2086	83
317.2112	80
317.2137	80
317.2162	107
317.2187	82
317.2212	50
317.2237	35
317.2263	43
317.2288	25
317.2313	10
317.2338	15
317.2363	5
317.2388	10
317.2438	5
317.2539	3
371.08	5
391.2007	5
391.2034	10
391.209	7
391.2118	22
391.2146	15
391.2174	27
391.2202	39
391.223	37
391.2258	34
391.2285	20
391.2314	44
391.2341	22
391.2369	22
391.2397	7
391.2425	15
391.2509	5
391.2565	5
409.2223	5
409.2423	5
409.248	7
453.1864	7
453.1894	7
453.1924	15
453.1954	10
453.1984	17
453.2014	15
453.2044	5
453.2074	7
453.2104	10
453.2134	15
453.2164	15
453.2195	10
453.2224	7
453.2255	5
453.2285	5
453.2314	5
497.2356	5
553.2356	5
553.2389	5
553.2455	5
553.2488	10
553.2522	12
553.2555	5
553.2588	29
553.2621	42
553.2654	29
553.2687	32
553.2721	54
553.2754	56
553.2787	32
553.282	34
553.2853	27
553.2887	20
553.292	24
553.2953	20
553.2986	20
553.3019	17
553.3053	20
553.3086	10
553.3119	10
553.3152	5
553.3219	5
553.3252	5
553.3318	5
571.2546	5
571.258	5
571.2648	10
571.2681	12
571.2715	12
571.2748	12
571.2783	24
571.2816	22
571.285	17
571.2883	17
571.2917	22
571.2951	7
571.2985	22
571.3019	7
571.3052	15
571.312	12
571.3187	5
571.3254	7
615.2221	7
615.2291	7
615.2326	5
615.2361	10
615.2396	7
615.2466	7
615.2501	10
615.2536	5
615.2571	7
615.2606	10
615.2641	12
615.2676	5
615.2711	10
615.2746	10
615.2781	7
615.2886	5
615.2956	7
615.3061	5
633.2817	5
633.296	5
709.4514	5
709.4589	10
709.4702	5
719.3812	7
719.385	5
719.3964	10
719.4039	7
719.4077	5
719.4115	5
719.4191	7
722.3816	5
759.4289	5
773.4089	5
773.4167	5
773.4285	5
773.4599	5
801.4239	5
802.4227	5
802.4348	5
868.7109	5
868.7234	5
868.74	5
868.7441	5
868.7483	7
868.7608	5
868.7691	7
868.7816	20
868.7858	5
868.7899	7
868.8065	5
868.819	7
871.3995	10
871.4286	15
871.4328	42
871.437	55
871.4411	74
871.4453	73
871.4495	66
871.4536	132
871.4578	154
871.462	211
871.4661	281
871.4703	438
871.4744	472
871.4786	599
871.4828	640
871.4869	686
871.4911	843
871.4953	854
871.4995	814
871.5036	858
871.5078	999
871.5119	938
871.5161	954
871.5203	814
871.5244	766
871.5286	582
871.5328	642
871.5369	442
871.5411	355
871.5452	226
871.5494	162
871.5536	120
871.5577	122
871.5619	76
871.5661	52
871.5703	41
871.5744	17
871.5786	14
871.5828	11
871.5869	11
871.5911	11
871.6119	4
871.6161	4
871.741	6
872.3452	4
872.4119	4
872.441	8
872.4452	5
872.4577	5
872.4619	7
872.4661	7
872.4702	10
872.4744	20
872.4786	10
872.4827	10
872.4869	27
872.4911	15
872.4952	20
872.4994	29
872.5035	22
872.5078	24
872.5119	20
872.5161	44
872.5203	27
872.5244	20
872.5286	12
872.5327	20
872.5369	17
872.5411	10
872.5494	12
872.5536	10
873.9379	5
