Mass spectrum: PC(18:1e/8,9-EpETE); LC-ESI-QTOF; MS2
Name: PC(18:1e/8,9-EpETE)
Class: Oxidized Phospholipid
Formula: C46H82NO8P
Exact mass: 808.137
SMILES: CCCCCCCCCCCCCCCC\C=C/OCC(COP([O-])(=O)OCC[N+](C)(C)C)OC(=O)CCC\C=C/CC1OC1C\C=C/C\C=C/C\C=C/CC
InChI: InChI=1S/C46H82NO8P/c1-6-8-10-12-14-16-17-18-19-20-21-22-24-26-30-34-39-51-41-43(42-53-56(49,50)52-40-38-47(3,4)5)54-46(48)37-33-29-28-32-36-45-44(55-45)35-31-27-25-23-15-13-11-9-7-2/h9,11,15,23,27-28,31-32,34,39,43-45H,6-8,10,12-14,16-22,24-26,29-30,33,35-38,40-42H2,1-5H3/b11-9-,23-15-,31-27-,32-28-,39-34-
Instrument: Acquity UPLC Peptide BEH C18 column (50 x 2.1 mm; 1.7 um), Sciex TripleTOF5600
Instrument type: LC-ESI-QTOF
Ms type: MS2
Ion mode: NEGATIVE
Collision energy: 30-50
Precursor m/z: 866.5916581
Precursor type: [M+CH3COOH-H]-
m/z	relative intensity
78.96112	11
121.1024	11
121.1039	11
123.0761	11
123.0808	11
123.0824	29
123.0839	17
123.0855	11
127.073	23
127.0762	17
127.0778	34
149.13	11
149.1317	17
149.1335	23
149.1352	11
149.1369	11
149.1386	17
149.1404	11
149.1438	11
155.067	11
155.0688	11
155.0706	29
155.0723	34
155.0741	23
155.0758	11
155.0776	11
155.0829	11
161.1271	11
161.1289	11
161.1343	17
163.1537	11
167.0644	11
167.0662	40
167.068	17
167.0698	46
167.0717	11
167.0735	23
167.0771	11
167.0808	11
168.047	11
168.0781	11
168.0817	11
177.1196	11
177.1328	11
177.1384	11
190.1403	11
201.1657	11
201.1697	11
201.1717	11
219.1724	11
219.1765	11
219.1828	11
255.1966	17
255.2033	29
255.2056	23
255.2078	52
255.2101	40
255.2123	34
255.2146	29
255.2168	29
255.2191	34
255.2214	29
255.2259	11
255.2281	11
255.2326	11
255.2371	23
273.2159	17
273.2182	29
273.2206	11
273.2252	17
273.2322	11
273.2369	11
273.2439	11
289.2092	11
299.1846	11
299.1895	11
299.1919	23
299.1944	17
299.1968	34
299.1992	69
299.2017	40
299.2041	40
299.2066	34
299.209	34
299.2115	52
299.2139	17
299.2163	11
299.2188	17
299.2212	11
301.2162	17
305.2628	12
314.6425	12
316.2112	12
316.2238	12
316.7584	12
317.1804	12
317.183	6
317.1855	11
317.188	24
317.1905	24
317.193	29
317.1955	112
317.198	124
317.2005	179
317.2031	198
317.2056	143
317.2081	300
317.2106	251
317.2131	318
317.2156	264
317.2181	179
317.2206	180
317.2231	167
317.2257	144
317.2282	53
317.2307	36
317.2332	36
317.2357	30
317.2382	36
317.2408	18
317.2458	6
317.4669	6
318.3299	6
403.2386	11
403.2443	11
403.2471	11
403.2585	17
403.2641	17
403.2669	23
403.2698	11
474.3085	11
474.3116	11
474.3239	23
474.327	40
474.33	86
474.3331	46
474.3362	29
474.3393	17
474.3423	57
474.3454	63
474.3485	23
474.3515	34
474.3546	23
474.3577	17
474.3607	11
475.3231	11
476.3758	12
490.8035	12
490.8066	12
492.3082	17
492.3145	23
492.3176	17
492.3207	47
492.3239	82
492.327	71
492.3301	76
492.3332	65
492.3364	77
492.3395	71
492.3426	153
492.3458	130
492.3489	148
492.352	160
492.3551	177
492.3583	148
492.3614	124
492.3645	100
492.3677	53
492.3708	59
492.3739	53
492.3771	41
492.3802	17
492.3833	17
492.6996	6
519.9764	6
721.4839	11
790.0616	11
792.4708	11
792.4748	11
792.4827	11
792.4867	12
792.4907	6
792.4947	12
792.4987	32
792.5026	32
792.5066	44
792.5106	44
792.5145	63
792.5185	123
792.5225	251
792.5264	400
792.5304	355
792.5344	373
792.5383	520
792.5424	543
792.5463	770
792.5503	720
792.5543	788
792.5582	868
792.5622	863
792.5662	961
792.5701	999
792.5741	831
792.5781	704
792.582	810
792.586	572
792.59	539
792.594	447
792.598	389
792.6019	243
792.6059	202
792.6099	118
792.6138	117
792.6178	78
792.6218	26
792.6257	53
792.6297	7
792.6337	12
792.6376	13
792.6417	13
792.6456	7
792.6536	15
792.6655	11
792.7489	7
793.4761	11
793.5158	17
793.5277	11
793.5397	11
793.5476	11
793.5516	11
793.5555	17
793.5596	23
793.5635	23
793.5675	19
793.5715	40
793.5754	17
793.5794	23
793.5873	23
793.5953	23
807.492	11
807.5	11
807.504	11
807.512	11
807.5281	11
807.5762	11
866.5388	23
866.5471	11
866.5595	29
866.5637	11
866.5678	52
866.572	57
866.5761	34
866.5803	46
866.5844	63
866.5886	34
866.5928	75
866.5969	75
866.6011	109
866.6052	63
866.6094	17
866.6135	109
866.6177	63
866.6218	63
866.626	17
866.6301	40
866.6343	46
866.6384	23
866.6426	29
866.6592	11
866.6633	11
866.6675	11
867.4943	17
867.5109	11
867.5733	17
867.5816	11
