Mass spectrum: PC 36:4; LC-ESI-QTOF; MS2
Name: PC 36:4
Class: PC
Formula: C44H80NO8P
Exact mass: 782.0989999999998
SMILES: CCCCCCCCCCCCCCCC(=O)OCC(COP([O-])(=O)OCC[N+](C)(C)C)OC(=O)CCCCCC\C=C/C\C=C/C\C=C/C\C=C/CC
InChI: InChI=1S/C44H80NO8P/c1-6-8-10-12-14-16-18-20-21-22-23-25-27-29-31-33-35-37-44(47)53-42(41-52-54(48,49)51-39-38-45(3,4)5)40-50-43(46)36-34-32-30-28-26-24-19-17-15-13-11-9-7-2/h8,10,14,16,20-21,23,25,42H,6-7,9,11-13,15,17-19,22,24,26-41H2,1-5H3/b10-8-,16-14-,21-20-,25-23-
Instrument: AB Sciex TripleTOF 5600+ system (Q-TOF) equipped with a DuoSpray ion source
Instrument type: LC-ESI-QTOF
Ms type: MS2
Ion mode: NEGATIVE
Collision energy: 45V
Column name: Acquity UPLC Peptide BEH C18 column (50*2.1 mm; 1.7 um; 130A)(Waters Co.,Milford, MA, USA)
Retention time: 9.304044
Precursor type: [M+CH3COOH-H]-
Precursor m/z: 840.5738
m/z	relative intensity
78.959	1
152.996	0
163.076	0
168.042	13
177.092	1
191.108	0
205.122	0
205.195	11
217.195	0
224.067	20
224.09	0
231.209	1
242.08	1
254.43	1
254.453	0
255.233	350
258.433	0
259.242	57
267.21	0
283.206	0
285.22	3
301.217	0
302.282	2
303.15	1
303.232	999
303.683	0
304.236	1
306.237	0
391.221	2
406.271	0
409.236	1
421.895	0
439.229	0
454.271	1
460.072	0
462.292	21
478.772	0
480.307	97
480.374	0
487.875	0
495.266	0
510.294	5
510.333	0
528.276	0
528.306	7
695.433	0
695.466	2
721.462	0
721.48	1
764.056	0
764.086	1
764.105	1
764.124	1
764.146	1
765.601	0
766.532	660
766.693	0
767.523	2
767.554	1
767.697	0
781.485	7
781.506	3
781.534	1
837.927	0
840.568	84
