Mass spectrum: PI(18:0/16,17-EpDPE); LC-ESI-QTOF; MS2
Name: PI(18:0/16,17-EpDPE)
Class: Oxidized Phospholipid
Formula: C49H83O14P
Exact mass: 927.165
SMILES: CCCCCCCCCCCCCCCCCC(=O)OCC(COP(O)(=O)OC1C(O)C(O)C(O)C(O)C1O)OC(=O)CC\C=C/C\C=C/C\C=C/C\C=C/CC1OC1C\C=C/CC
InChI: InChI=1S/C49H83O14P/c1-3-5-7-8-9-10-11-12-13-14-18-21-24-27-31-35-42(50)59-37-39(38-60-64(57,58)63-49-47(55)45(53)44(52)46(54)48(49)56)61-43(51)36-32-28-25-22-19-16-15-17-20-23-26-30-34-41-40(62-41)33-29-6-4-2/h6,16-17,19-20,25-26,28-30,39-41,44-49,52-56H,3-5,7-15,18,21-24,27,31-38H2,1-2H3,(H,57,58)/b19-16-,20-17-,28-25-,29-6-,30-26-
Instrument: Acquity UPLC Peptide BEH C18 column (50 x 2.1 mm; 1.7 um), Sciex TripleTOF5600
Instrument type: LC-ESI-QTOF
Ms type: MS2
Ion mode: NEGATIVE
Collision energy: 30-50
Precursor m/z: 925.5447679
Precursor type: [M-H]-
m/z	relative intensity
78.95101	0
78.95226	0
78.95475	1
78.956	2
78.95724	3
78.95849	1
78.95973	1
78.96098	1
78.96223	1
78.96347	0
78.96472	0
78.96596	0
93.06078	0
93.06349	0
94.73923	0
94.75425	0
95.08219	0
95.08629	0
96.96366	0
96.96504	0
96.96643	1
96.97195	0
97.06727	0
97.07833	0
106.043	0
106.0444	0
107.0796	0
107.0825	0
107.0854	0
111.0739	0
111.0784	0
113.7446	1
114.5507	0
114.5522	0
114.5567	0
120.774	0
120.7787	0
121.0624	1
121.064	0
121.0717	0
125.0938	0
125.097	0
125.1033	0
127.0766	0
127.0782	0
133.0666	0
133.0957	0
133.1006	0
133.1038	0
133.1103	0
134.9809	1
134.9858	0
135.0852	0
135.1129	0
135.1146	0
135.1178	0
137.6895	0
137.701	0
145.0615	0
145.075	0
145.0986	0
147.0854	0
147.1092	0
147.116	0
147.1178	0
147.1194	0
147.1228	0
149.0909	0
149.0943	0
152.9845	1
152.9863	0
152.988	2
152.9898	2
152.9915	3
152.9932	3
152.995	3
152.9967	4
152.9984	3
153.0002	3
153.0019	1
153.0054	0
153.0071	1
153.8132	0
153.8445	0
154.2814	0
154.2936	0
155.1065	0
155.1135	0
155.1275	0
155.9583	1
163.07	1
163.0754	0
163.0986	0
163.1148	0
163.1166	0
163.1488	0
166.2935	0
166.2989	0
170.9962	0
170.998	0
171.0016	0
171.0127	0
172.6379	0
172.6452	0
173.1302	0
173.1339	0
173.1358	0
173.1395	0
173.1432	0
175.1439	0
175.1495	0
175.1532	0
187.1421	0
187.144	0
187.1478	0
187.1498	0
189.1544	1
189.1582	1
189.1602	1
189.1621	1
189.164	0
189.166	1
189.1679	0
189.1698	1
189.1717	1
189.1737	0
189.1775	0
198.1395	0
198.1474	0
201.1318	0
201.1477	0
201.1517	1
201.1537	0
201.1557	0
201.1577	0
201.1616	3
201.1636	1
201.1656	1
201.1676	1
201.1696	1
201.1716	1
201.1736	1
203.1758	0
203.1778	1
205.1176	0
205.1196	0
205.1296	0
215.1358	0
215.1379	0
215.1585	0
217.0967	0
217.1173	0
217.1235	0
219.139	0
219.1411	1
219.1806	0
221.1159	0
221.1242	0
221.1534	0
222.9864	0
222.9885	1
222.9906	1
222.9927	2
222.9948	2
222.9969	2
222.9989	3
223.001	2
223.0031	4
223.0052	1
223.0073	2
223.0094	1
223.0115	1
223.0136	1
223.0199	0
227.0299	0
227.0341	0
227.144	0
227.1461	1
227.1673	0
227.18	0
227.1821	0
227.1842	0
227.1863	0
227.1884	0
229.1502	0
229.1545	0
229.1587	0
229.1608	1
229.1693	0
229.2012	0
230.1258	0
230.1598	0
231.129	0
231.1311	0
231.1332	1
231.1375	0
233.1376	0
233.1398	1
233.1419	1
233.144	0
233.1462	1
233.1483	2
233.1505	2
233.1526	2
233.1548	2
233.1569	2
233.159	0
233.1612	1
233.1633	1
233.1655	1
233.1676	0
233.1719	0
240.2429	0
240.2516	0
240.2581	0
240.2625	0
240.3016	0
240.9913	1
240.9935	1
240.9957	2
240.9978	3
241	3
241.0022	6
241.0044	8
241.0066	13
241.0087	17
241.0109	14
241.0131	17
241.0153	12
241.0175	10
241.0196	6
241.0218	3
241.024	2
241.0262	2
241.0283	1
241.0305	0
241.0545	0
245.1415	0
245.1459	2
245.1481	2
245.1503	1
245.1525	1
245.1547	2
245.1569	1
245.1591	1
245.1613	1
245.1656	0
245.1678	0
245.1766	0
246.1505	0
246.1549	0
246.1615	0
246.1703	0
246.1725	0
246.1747	0
247.1593	0
247.1637	1
247.1659	1
247.1681	0
247.1703	0
247.177	0
247.1858	0
248.3647	0
248.3669	0
248.9773	0
248.9795	0
255.1407	0
255.1497	0
259.0018	0
259.0086	0
259.0108	1
259.0131	0
259.0154	1
259.0176	2
259.0199	2
259.0221	2
259.0244	1
259.0266	0
259.0289	2
259.0311	1
259.0357	0
261.1392	0
261.1415	0
261.1437	0
261.1483	0
261.1505	0
261.1551	1
261.1619	0
272.5042	0
272.5134	0
273.1459	1
273.1528	0
273.1551	1
274.1389	0
274.1435	0
274.1458	0
274.1482	1
274.1505	2
274.1528	2
274.1551	3
274.1574	2
274.1598	2
274.1621	1
274.1644	1
274.1667	0
274.169	1
274.3943	0
274.4106	0
279.0301	0
279.0442	0
281.2085	1
281.2108	1
281.2132	0
281.2155	0
281.2179	1
281.2202	2
281.2226	2
281.2249	2
281.2273	2
281.2296	1
281.232	1
281.2367	1
281.2391	2
281.2438	0
281.2461	1
281.2649	0
282.355	0
282.3668	0
282.3739	0
282.3763	1
282.3951	0
283.2301	0
283.2395	0
283.2419	0
283.2442	0
283.2466	2
283.249	2
283.2513	2
283.2537	6
283.256	9
283.2584	13
283.2607	15
283.2631	15
283.2655	12
283.2678	9
283.2702	8
283.2726	5
283.2749	3
283.2773	2
283.2796	1
283.282	1
283.2844	0
283.2867	1
283.2891	0
286.0743	0
286.0838	0
286.6819	1
286.6843	0
287.0858	0
287.1024	0
290.9197	0
290.9437	0
297.0204	1
297.0229	2
297.0253	1
297.0277	2
297.0301	3
297.0325	3
297.0349	3
297.0374	2
297.0398	1
297.0422	1
297.0446	1
297.047	1
297.0494	0
297.0518	0
297.0543	0
297.0567	0
299.2217	0
299.2241	0
299.2266	1
299.229	1
299.2314	1
299.2338	1
299.2363	1
299.2387	1
299.2411	1
299.2435	1
299.246	0
299.2484	1
304.5119	0
304.5217	0
304.5266	0
307.1904	0
307.215	0
307.2617	0
315.0074	0
315.0323	0
315.0348	0
315.0373	1
315.0398	1
315.0423	1
315.0448	1
315.0473	0
315.0497	1
315.0522	0
315.0547	0
315.0572	1
315.0597	1
315.0622	0
315.0746	0
315.234	0
315.239	0
318.0717	0
318.0767	0
322.968	0
322.9806	0
324.894	0
324.9117	0
325.1975	0
325.2	0
325.2025	0
325.205	0
325.2076	2
325.2101	2
325.2126	1
325.2152	2
325.2177	1
325.2202	2
325.2227	1
325.2253	2
325.2278	0
325.2303	0
325.2329	0
325.2455	0
325.7516	0
325.7946	0
327.4752	0
327.4955	0
327.498	0
328.4023	0
328.448	0
329.239	0
329.2466	0
329.2619	0
334.3792	0
334.4305	0
334.4792	0
342.1642	0
342.1797	0
343.2027	1
343.2053	1
343.2079	1
343.2105	3
343.2131	3
343.2157	3
343.2183	7
343.2209	7
343.2235	10
343.2261	8
343.2287	7
343.2313	8
343.2339	5
343.2365	4
343.2391	5
343.2417	2
343.2443	2
343.2495	1
343.2521	1
343.2703	0
344.2298	1
346.393	0
346.44	0
347.498	1
356.1636	0
356.2059	1
366.9749	0
366.9857	0
388.2364	0
388.2558	0
409.8411	0
409.8496	0
415.2108	0
415.2279	0
415.2307	0
417.9216	0
417.933	1
419.2243	0
419.2272	0
419.23	1
419.2329	1
419.2358	2
419.2386	2
419.2415	6
419.2444	8
419.2473	7
419.2502	12
419.253	12
419.2559	15
419.2588	12
419.2616	7
419.2645	6
419.2674	3
419.2703	4
419.2731	3
419.276	2
419.2789	1
419.2817	1
419.2875	0
419.2903	0
419.2961	1
419.3018	1
424.4006	0
424.4497	0
425.5774	0
425.586	0
435.217	0
435.2492	0
437.2441	0
437.25	0
437.2529	1
437.2559	1
437.2588	1
437.2617	1
437.2646	2
437.2676	1
437.2705	1
437.2735	1
437.2764	0
437.2793	0
437.2852	0
437.2881	0
437.291	0
441.6749	0
441.7162	0
446.2199	0
446.2347	0
479.1897	1
479.1958	1
479.1989	0
479.2019	2
479.205	1
479.2081	1
479.2112	2
479.2142	3
479.2173	3
479.2204	2
479.2234	2
479.2265	1
479.2296	1
479.2327	2
479.2357	1
479.2388	1
479.2449	0
479.2511	0
497.1779	0
497.2123	0
497.2404	0
497.2436	0
502.1407	1
503.0368	0
503.062	0
503.1878	0
503.2413	0
503.2759	0
504.1289	0
504.1415	1
505.629	0
505.6353	0
506.7776	0
506.8187	0
507.2766	0
507.3082	0
507.4662	0
507.5041	0
507.542	0
507.5704	0
507.5768	0
507.6178	0
507.6621	0
508.0256	1
508.035	0
508.1078	0
508.1204	0
508.1678	0
508.987	1
509.2813	0
509.3351	1
509.3383	0
509.4111	1
509.4143	0
509.6232	0
509.6834	0
509.7499	0
509.7721	0
510.2852	0
510.2915	0
510.3105	0
510.3232	0
510.5355	0
510.5482	1
510.751	0
510.7574	0
511.0648	0
511.0807	0
511.1029	0
511.198	0
511.2202	0
511.2456	0
511.252	0
511.5438	0
511.5469	0
512.0831	0
512.788	1
512.8102	0
513.951	0
513.967	0
514.3995	0
514.4599	0
514.8768	0
514.8926	0
514.9213	0
514.9818	0
515.5516	0
515.6026	0
516.6732	0
516.7019	0
516.7083	0
516.7593	0
516.8517	0
516.8837	0
517.0654	0
517.0686	0
517.0973	0
517.1005	0
517.11	0
517.378	0
517.394	0
517.4642	0
517.5152	0
518.4824	0
518.5016	0
518.559	0
518.5654	0
518.6198	0
518.7571	0
518.7635	0
519.4825	0
519.4857	0
519.5112	0
519.9141	0
519.9301	0
519.9685	0
520.2212	0
520.2339	0
520.5443	0
520.5859	0
520.8868	0
520.9316	0
520.9412	0
520.9476	0
521.0917	0
521.1365	0
521.3062	0
521.319	0
521.3254	0
521.7034	0
521.7065	0
521.7674	1
521.8187	0
522.0878	0
522.1071	0
522.1199	0
522.1391	0
522.1455	0
522.3346	0
522.341	0
522.3859	0
522.418	0
522.543	0
522.6007	0
522.8893	0
522.915	0
522.9214	0
522.9503	0
522.9727	0
523.1202	0
523.1235	1
523.1716	0
523.3577	0
523.3673	0
523.3801	0
523.4122	1
525.0242	0
525.0306	0
525.1913	0
525.2524	0
525.2685	0
525.3038	0
525.3424	0
525.4485	0
525.455	0
525.5096	0
525.6382	0
525.6447	0
525.7057	0
525.8826	0
525.8923	0
526.1979	0
526.2011	0
526.6774	0
526.7224	0
526.7288	0
526.7353	0
527.0894	0
527.1152	0
527.1538	0
527.244	0
527.2633	0
527.376	0
527.3793	0
527.6595	0
527.666	0
527.6692	0
528.2719	0
528.275	0
528.2847	0
528.2944	0
528.3105	0
528.3267	0
528.3943	0
528.4556	0
528.6974	0
528.7006	0
528.7168	0
528.7619	0
528.9103	0
528.9167	0
529.0812	0
529.0845	0
529.2361	0
529.2523	0
529.2555	0
529.5879	0
529.604	0
529.7073	0
529.717	0
529.7622	0
529.7654	0
530.3983	0
530.4468	0
530.4758	0
530.6083	0
530.6277	0
530.7666	0
530.828	0
531.4001	0
531.4163	0
532.5129	0
532.5291	0
533.264	0
533.3094	0
533.3191	0
533.3709	0
533.5394	0
533.5815	0
533.5912	0
534.4112	0
534.4241	0
534.4695	0
536.0076	0
536.053	1
536.0725	0
536.0823	0
536.3876	0
536.4135	0
536.7092	0
536.7676	0
536.8132	0
536.8326	1
536.8456	0
537.2617	0
537.3104	0
538.1105	0
538.1756	0
538.2374	0
538.5205	0
538.5238	0
538.6507	0
539.0316	0
539.0381	0
540.0905	0
540.1459	0
540.1524	0
540.436	0
540.449	0
540.7914	0
540.8273	0
540.8535	0
541.1242	1
541.1862	0
541.2808	0
541.2841	0
541.3983	0
541.4407	0
542.025	0
542.0283	0
542.5836	0
542.6227	0
542.6783	0
542.7012	0
542.8678	0
542.8809	0
544.1724	0
544.2183	0
544.2444	0
544.3197	0
544.3262	0
544.696	0
544.7386	0
544.7484	0
544.7517	0
545.03	0
545.0398	0
545.4066	0
545.4197	0
545.4688	0
545.9898	0
546.0193	0
546.2979	0
546.3044	0
546.3143	0
546.7339	0
546.7635	0
547.7971	0
547.8036	0
548.0104	0
548.0203	0
548.0826	0
548.0892	0
549.6171	0
549.627	0
549.7585	0
549.8079	0
550.5579	0
550.5875	0
551.0615	0
551.0714	0
552.0563	1
553.2136	0
553.2432	0
553.2532	0
553.2828	0
553.7448	0
553.758	0
553.8735	0
553.8867	0
553.9131	0
553.9263	0
554.4943	1
556.1435	0
556.1567	0
556.3949	0
556.4048	0
557.0005	0
557.0336	0
557.2753	0
557.2852	0
557.7753	0
557.7852	0
558.7993	1
558.8093	0
558.8126	0
561.0361	1
561.2023	1
562.3192	0
562.3524	0
563.7169	0
563.7402	0
568.1879	0
568.2013	0
568.2314	0
568.6226	0
569.9177	0
569.9445	0
570.0952	0
570.0984	0
570.4736	0
570.5037	0
570.8354	0
570.8388	0
570.8422	0
571.7607	0
571.7674	0
573.9796	0
573.9863	0
574.7662	0
574.8132	0
576.5934	0
576.6136	0
576.7652	0
576.8056	0
577.0381	1
579.2739	0
579.2908	0
579.8918	0
579.8986	0
579.9121	0
581.2402	0
581.2537	0
581.2673	0
581.2706	1
581.274	0
581.2774	3
581.2808	3
581.2842	2
581.2875	3
581.291	6
581.2943	6
581.2977	10
581.3011	13
581.3044	12
581.3079	13
581.3112	14
581.3146	11
581.318	7
581.3214	7
581.3248	3
581.3281	5
581.3315	4
581.3349	1
581.3383	1
581.3417	1
581.345	1
581.3484	1
581.3586	0
581.4059	0
583.0947	0
583.0981	0
583.1963	0
583.2098	0
585.0945	0
585.1319	0
585.1692	0
585.2336	0
585.2642	0
587.5466	0
587.5499	0
587.9478	0
587.9648	0
592.5922	0
592.6093	0
592.6298	0
592.92	0
592.9473	0
593.9108	0
593.9484	0
594.2219	0
594.2288	0
599.1793	0
599.2205	0
599.2823	0
599.2858	1
599.2892	1
599.2927	1
599.2961	1
599.2995	3
599.3029	2
599.3064	5
599.3098	4
599.3132	3
599.3167	3
599.3201	4
599.3235	3
599.327	1
599.3304	2
599.3339	2
599.3373	2
599.3407	2
599.3442	1
599.3476	1
599.351	0
599.3544	0
599.3647	0
599.3716	0
601.5643	0
601.5746	0
601.7879	0
601.8189	0
603.9402	1
607.4403	0
607.4921	0
608.1595	0
608.1802	0
613.6679	0
613.6818	0
616.8127	0
616.8232	1
616.8754	0
616.966	0
616.9765	0
619.229	0
619.2779	0
619.6095	0
619.613	0
623.7604	0
623.764	0
625.0958	0
625.1098	0
632.2662	0
632.2803	0
634.2214	0
634.2673	0
641.2378	0
641.2449	2
641.2485	2
641.252	2
641.2556	2
641.2591	2
641.2627	4
641.2662	3
641.2698	4
641.2733	2
641.2769	3
641.2805	2
641.284	2
641.2875	1
641.2911	2
641.2946	1
641.2982	0
641.3018	1
641.3053	0
641.3124	0
641.3195	0
641.3266	0
649.3753	0
649.3824	0
649.386	0
650.9417	0
650.9631	0
652.2233	0
652.2305	0
652.9865	0
653.0367	0
656.676	0
656.6796	0
656.7479	0
659.1259	0
659.1979	0
659.2663	0
659.2735	0
659.2807	0
659.2843	0
659.2879	1
659.2951	0
659.3023	1
659.3131	0
672.1197	0
672.1342	0
679.1447	1
679.1556	0
689.5131	0
689.5721	0
692.8575	1
697.4688	0
697.4874	1
714.9714	0
714.9752	0
736.4541	0
736.4998	0
757.0774	0
757.0812	0
757.089	0
763.4583	0
763.4738	0
763.4893	0
763.497	0
763.5048	1
763.5125	1
763.5203	0
763.5319	0
765.89	0
765.9521	0
789.4109	0
789.4149	0
803.816	0
803.8756	0
807.4785	0
807.5262	0
841.5555	0
841.5758	0
843.1756	0
843.2448	0
843.2937	0
843.4892	0
843.5055	0
851.5369	0
851.541	0
851.5574	0
851.5656	0
851.5696	0
851.5942	0
851.6024	0
922.1982	0
922.2535	0
922.2621	0
922.458	0
922.4836	0
922.5091	0
922.5262	0
922.5432	0
922.5475	0
922.556	1
922.5602	1
922.5645	1
922.5688	1
922.573	1
922.5773	1
922.5815	2
922.5858	2
922.5901	2
922.5943	1
922.5986	2
922.6028	2
922.6071	2
922.6114	2
922.6156	2
922.6199	1
922.6241	2
922.6284	2
922.6327	2
922.6369	0
922.6412	1
922.6454	2
922.6497	2
922.6539	1
922.6582	1
922.6625	1
922.6667	0
922.671	1
922.6752	0
922.6838	1
922.688	1
922.6923	1
922.7008	0
922.7179	0
922.7349	0
922.9905	0
923.0374	0
923.1866	0
923.2462	0
923.7875	0
923.8344	0
923.8813	0
923.8856	0
923.9495	0
923.9623	0
923.9751	0
924.0092	0
924.0135	0
924.0476	0
924.0902	0
924.1371	0
924.1669	0
924.2523	0
924.2864	0
924.3034	0
924.3588	0
924.4142	0
924.4228	0
924.4313	0
924.4356	0
924.4655	1
924.4697	0
924.4825	0
924.491	0
924.4996	0
924.5209	0
924.538	0
924.5422	1
924.5464	0
924.555	0
924.5635	1
924.5763	0
924.6147	0
924.619	1
924.636	0
924.6616	0
924.8279	1
924.8706	0
924.9815	0
924.9858	0
925.0455	0
925.0626	0
925.0754	0
925.0796	0
925.0924	0
925.1265	1
925.1479	0
925.182	0
925.199	0
925.2204	0
925.2247	0
925.2588	0
925.2673	0
925.2759	0
925.2844	0
925.3015	0
925.327	0
925.3398	0
925.3441	0
925.3484	0
925.3527	0
925.3953	0
925.4039	0
925.4294	1
925.4337	1
925.438	0
925.4465	0
925.4551	1
925.4593	1
925.4636	1
925.4678	1
925.4721	1
925.4764	1
925.4807	1
925.4849	1
925.4892	2
925.4935	4
925.4977	8
925.502	8
925.5062	24
925.5105	22
925.5148	47
925.519	73
925.5233	147
925.5276	214
925.5319	425
925.5361	679
925.5404	807
925.5447	999
925.549	966
925.5532	816
925.5574	598
925.5617	470
925.566	273
925.5703	133
925.5745	86
925.5788	56
925.5831	24
925.5873	20
925.5916	16
925.5958	6
925.6001	3
925.6044	3
925.6086	3
925.6129	1
925.6172	1
925.6215	1
925.6257	1
925.6428	0
925.647	1
925.6513	0
925.6556	0
925.7111	0
925.8135	0
925.822	0
925.8348	0
925.8732	0
925.886	0
925.9031	0
925.9116	0
925.9202	0
925.9244	0
925.9415	0
925.9927	0
926.0056	0
926.0952	0
926.1165	0
926.1378	0
926.1805	0
926.1891	0
926.2189	0
926.2446	0
926.3342	0
926.3427	0
926.3641	0
926.4366	0
926.4537	0
926.475	0
926.5178	0
926.5263	1
926.5306	1
926.5349	0
926.5391	1
926.5434	1
926.5477	0
926.5519	0
926.5562	1
926.5647	1
926.569	1
926.5732	1
926.5818	1
926.5946	0
926.6757	0
926.68	0
926.6885	0
926.7397	0
926.7996	0
926.8337	0
926.9149	0
927.1155	0
927.1753	1
927.2009	0
927.2351	1
927.2821	0
927.3889	0
927.4102	0
927.4273	0
927.4401	0
927.4615	0
927.4786	0
927.4828	0
927.4957	0
927.5042	0
927.5085	0
927.5212	0
927.5255	0
927.5469	0
927.5511	0
927.5554	0
927.5939	1
927.5981	0
927.6409	0
927.705	0
927.7605	0
927.7947	0
927.8289	0
927.8972	0
927.9058	0
927.91	0
927.9143	0
927.9656	0
927.9912	0
928.0297	0
928.051	0
928.0553	0
928.0596	0
928.0638	0
928.1578	0
928.2134	1
928.2518	0
928.3202	0
928.333	0
928.3501	0
928.4271	0
928.4612	0
928.551	0
928.5552	0
928.5638	0
928.6151	0
928.6237	0
928.6322	0
928.6749	0
928.7903	0
928.8245	1
928.91	0
928.9656	0
929.0554	0
929.0596	0
929.1024	0
929.1879	0
929.1921	0
929.2007	0
929.2435	0
929.2819	0
929.5385	0
929.5471	0
929.5556	0
929.6539	0
929.6625	0
929.6667	0
929.6796	0
929.6924	0
929.6967	0
929.7352	0
929.7694	0
929.8506	0
929.9319	0
929.9961	0
930.0004	0
930.0217	0
930.0303	0
930.0389	0
930.0432	0
930.0517	0
930.0602	0
930.0645	0
930.0688	0
930.0816	0
930.1073	0
930.1629	0
930.2057	0
930.2271	1
930.2527	0
930.2656	1
930.2784	0
930.3254	0
930.3383	0
930.364	0
930.4495	0
930.4581	0
930.5436	0
930.5693	0
930.6078	1
930.6292	0
930.7148	0
930.7961	1
930.8046	0
930.8474	0
930.8945	0
931.0956	0
931.1256	1
931.1727	0
931.2069	0
931.3267	0
931.3353	0
931.3481	0
931.3524	0
931.3653	0
931.4252	0
931.4551	0
931.498	0
931.5493	0
931.5793	0
931.5878	0
931.6307	0
931.7034	0
931.819	0
931.8362	0
931.8447	0
931.8575	0
931.8619	0
931.9047	0
931.9175	0
931.9261	0
931.9389	0
932.0074	0
932.046	0
932.0588	0
932.1658	0
932.1915	0
932.2258	0
932.2301	0
932.2472	0
932.2643	0
932.2986	0
932.3072	0
932.3157	0
932.3928	0
932.41	0
932.4399	0
932.4871	0
932.4999	0
932.5513	0
932.5641	0
932.577	0
932.6455	0
933.4424	0
933.4467	0
933.6909	0
933.7209	0
933.7295	0
933.7338	0
933.8452	0
933.8538	1
934.0724	0
934.0809	0
934.1453	0
934.1881	0
934.2653	0
934.351	0
934.3768	0
934.3982	0
934.5182	0
934.5225	0
934.5354	0
934.5568	0
934.6083	0
934.6597	0
934.7026	0
934.7112	0
934.7669	0
934.8098	0
934.9299	0
934.9642	0
934.9942	0
935.0242	0
935.273	0
935.3373	0
935.5303	0
935.5518	0
935.6505	0
935.6548	0
935.9551	0
936.0409	0
936.0881	0
936.1653	0
936.4315	0
936.4744	0
937.3458	0
937.3544	0
937.6207	0
937.6937	0
937.7495	0
937.7925	0
937.96	0
938.0072	0
938.0717	0
938.1275	0
938.2048	1
938.265	0
938.8708	0
938.8966	0
939.3135	0
939.3436	0
939.3952	0
939.4425	0
939.5629	0
939.6187	0
939.6746	0
939.9498	0
939.967	0
940.41	0
940.4831	0
940.5218	0
941.0681	0
941.0897	0
941.1327	0
941.4339	0
941.5027	0
942.2258	0
942.2302	0
942.4842	0
942.5272	0
942.777	0
942.7856	0
944.7547	0
944.8064	0
945.7249	0
945.7292	0
945.8715	0
945.8802	0
946.4712	0
946.4971	0
947.4509	0
947.4553	0
947.6668	0
947.6797	0
948.1591	0
948.2152	0
949.0317	0
949.049	0
949.4854	0
949.52	0
949.6669	0
949.6928	0
949.8484	0
949.9089	0
950.0646	0
950.1121	0
950.1337	0
952.8074	0
952.816	0
952.842	0
953.5218	0
953.5955	0
979.6667	0
979.6798	0
979.7194	0
991.0429	0
991.1136	0
1082.515	0
1082.584	0
1144.479	0
1144.493	0
