Mass spectrum: PE 40:4; LC-ESI-QTOF; MS2
Name: PE 40:4
Class: PE
Formula: C45H82NO8P
Exact mass: 796.126
SMILES: CCCCCCCCCCCCCCCCCC(=O)OCC(COP(O)(=O)OCCN)OC(=O)CCCCCCCC\C=C/C\C=C/C\C=C/C\C=C/CC
InChI: InChI=1S/C45H82NO8P/c1-3-5-7-9-11-13-15-17-19-20-21-22-24-26-28-30-32-34-36-38-45(48)54-43(42-53-55(49,50)52-40-39-46)41-51-44(47)37-35-33-31-29-27-25-23-18-16-14-12-10-8-6-4-2/h5,7,11,13,17,19,21-22,43H,3-4,6,8-10,12,14-16,18,20,23-42,46H2,1-2H3,(H,49,50)/b7-5-,13-11-,19-17-,22-21-
Instrument: AB Sciex TripleTOF 5600+ system (Q-TOF) equipped with a DuoSpray ion source
Instrument type: LC-ESI-QTOF
Ms type: MS2
Ion mode: NEGATIVE
Collision energy: 45V
Column name: Acquity UPLC Peptide BEH C18 column (50*2.1 mm; 1.7 um; 130A)(Waters Co.,Milford, MA, USA)
Retention time: 11.15535
Precursor type: [M-H]-
Precursor m/z: 794.5693
m/z	relative intensity
78.96	1
140.01	10
152.994	1
178.024	0
181.122	1
191.107	1
196.037	15
205.121	1
214.049	2
219.139	0
233.218	1
233.227	3
259.248	0
265.257	0
282.385	2
283.265	403
287.274	25
295.246	0
313.251	3
313.261	1
329.243	1
330.212	2
330.236	3
331.013	0
331.264	999
332.26	0
454.282	0
455.538	0
462.268	2
462.302	16
462.34	0
467.257	0
478.806	0
480.309	72
481.33	0
508.232	0
510.273	1
510.287	2
510.301	4
510.321	2
528.302	3
528.319	3
660.765	1
792.069	2
792.145	1
793.6	0
794.485	0
794.57	520
794.702	0
795.072	0
795.573	2
798.109	0
798.672	0
