Mass spectrum: PE(18:1e/18-HETE); LC-ESI-QTOF; MS2
Name: PE(18:1e/18-HETE)
Class: Oxidized Phospholipid
Formula: C43H78NO8P
Exact mass: 768.072
SMILES: CCCCCCCCCCCCCCCC\C=C/OCC(COP(O)(=O)OCCN)OC(=O)CCC\C=C/C\C=C/C\C=C/C\C=C/CCC(O)CC
InChI: InChI=1S/C43H78NO8P/c1-3-5-6-7-8-9-10-11-12-15-18-21-24-27-30-33-37-49-39-42(40-51-53(47,48)50-38-36-44)52-43(46)35-32-29-26-23-20-17-14-13-16-19-22-25-28-31-34-41(45)4-2/h14,16-17,19,23,25-26,28,33,37,41-42,45H,3-13,15,18,20-22,24,27,29-32,34-36,38-40,44H2,1-2H3,(H,47,48)/b17-14-,19-16-,26-23-,28-25-,37-33-
Instrument: Acquity UPLC Peptide BEH C18 column (50 x 2.1 mm; 1.7 um), Sciex TripleTOF5600
Instrument type: LC-ESI-QTOF
Ms type: MS2
Ion mode: NEGATIVE
Collision energy: 30-50
Precursor m/z: 766.539229
Precursor type: [M-H]-
m/z	relative intensity
78.95416	11
78.95541	7
78.95917	7
78.96168	18
78.96293	11
78.96544	7
78.96669	7
107.0843	7
135.113	7
135.1179	7
135.1195	11
140.0062	7
140.0079	18
140.0095	11
140.0112	25
140.0129	14
140.0146	11
140.0162	11
140.0229	7
163.1434	7
163.1506	11
163.1542	7
169.1192	7
177.0825	7
177.0882	7
177.0919	7
177.0938	7
179.0368	11
191.1752	7
196.0263	11
196.0282	11
196.0302	7
196.0322	22
196.0342	11
196.0361	29
196.0381	22
196.0401	36
196.0421	14
196.0441	14
196.046	22
196.048	11
196.05	7
207.1395	11
217.1804	11
217.1824	7
217.1845	14
217.1866	40
217.1887	33
217.1908	11
217.1928	29
217.1949	22
217.197	51
217.1991	29
217.2012	47
217.2032	36
217.2053	11
217.2074	7
217.2095	14
231.1466	7
235.182	7
243.1748	7
243.1814	7
245.1878	7
253.2217	7
257.2159	11
257.2182	11
257.2227	29
257.225	14
257.2272	29
257.2295	33
257.2318	18
257.234	14
257.2386	18
257.2431	15
257.2521	7
259.1657	7
259.6293	7
260.3755	7
260.5623	7
261.0066	7
261.1616	15
261.1662	14
261.1685	26
261.1707	63
261.173	74
261.1753	85
261.1776	78
261.1798	104
261.1821	153
261.1844	157
261.1867	135
261.189	90
261.1913	89
261.1935	105
261.1958	90
261.1981	60
261.2004	48
261.2026	37
261.2049	11
261.2072	14
261.2118	4
261.2141	7
261.2232	4
263.1972	4
266.4416	4
267.2575	11
267.2598	14
267.2621	22
267.2644	14
267.2668	11
267.2691	18
267.2714	25
267.2737	18
267.276	11
267.2783	11
267.2806	14
267.2829	22
267.2852	7
267.2875	7
273.2138	7
273.2208	11
273.2302	7
275.2279	11
275.2303	18
275.2326	11
275.2349	14
275.2373	7
275.2396	33
275.2419	22
275.2443	14
275.2466	18
275.249	14
275.2537	7
276.0431	7
283.199	7
283.2513	7
289.2094	7
296.0788	7
297.2356	7
300.2767	7
300.2914	7
301.1943	7
301.1967	26
301.1992	15
301.2016	33
301.2041	67
301.2065	60
301.209	81
301.2114	100
301.2139	119
301.2163	153
301.2188	160
301.2212	97
301.2237	116
301.2261	104
301.2286	86
301.231	48
301.2335	37
301.2359	26
301.2384	15
301.2408	11
301.2433	4
301.2506	7
301.2653	7
302.204	7
302.2114	7
302.2187	4
303.2425	7
305.2458	7
317.2057	11
317.2132	7
317.2183	7
317.2233	7
318.2067	7
318.2192	7
318.2243	11
318.2343	7
318.2368	8
318.2394	22
318.2419	11
318.262	7
319.0479	8
319.1159	8
319.184	16
319.1941	9
319.1966	16
319.1991	29
319.2016	25
319.2041	90
319.2067	103
319.2092	160
319.2117	278
319.2142	405
319.2167	465
319.2193	640
319.2218	775
319.2243	961
319.2268	869
319.2293	999
319.2319	846
319.2344	677
319.2369	592
319.2394	475
319.2419	324
319.2445	219
319.247	128
319.2495	85
319.252	94
319.2545	32
319.2571	35
319.2596	36
319.2621	23
319.2646	17
319.2672	5
319.2697	5
319.2798	4
319.31	5
319.3655	5
320.2082	4
320.2234	14
320.2259	11
320.2284	8
320.231	11
320.236	7
320.2385	7
320.2411	7
320.2461	7
320.2613	7
320.2638	7
321.2417	7
321.4668	7
329.2495	7
347.2651	7
377.234	7
377.2477	7
403.264	7
403.2697	7
403.2753	7
403.281	7
446.274	11
446.2769	25
446.2799	29
446.2829	36
446.2859	22
446.2889	29
446.2919	36
446.2948	61
446.2978	72
446.3008	58
446.3038	76
446.3068	33
446.3098	43
446.3127	58
446.3157	40
446.3187	47
446.3217	47
446.3246	33
446.3276	14
446.3306	18
446.3336	7
446.3366	11
447.3029	7
453.5254	7
458.929	7
462.8548	11
462.8669	7
464.2491	7
464.2613	15
464.2704	14
464.2765	22
464.2796	7
464.2826	30
464.2856	45
464.2887	22
464.2917	109
464.2948	101
464.2978	83
464.3008	107
464.3039	133
464.3069	203
464.31	203
464.313	168
464.316	210
464.3191	195
464.3221	191
464.3252	160
464.3282	118
464.3312	141
464.3343	103
464.3373	72
464.3404	65
464.3434	42
464.3464	11
464.3495	11
464.3525	8
464.3556	8
464.386	4
465.3199	4
465.3473	4
497.8583	4
498.2582	7
659.4885	7
659.4993	7
659.5102	7
659.5175	7
659.5211	7
659.5283	7
659.5537	7
660.5215	7
679.465	7
679.498	7
679.5128	7
692.5137	7
692.5397	7
765.116	7
766.467	11
766.4709	12
766.4748	8
766.4787	26
766.4826	16
766.4865	37
766.4904	46
766.4943	74
766.4982	105
766.5021	146
766.506	136
766.5099	203
766.5139	306
766.5178	216
766.5217	538
766.5256	421
766.5295	565
766.5334	624
766.5373	696
766.5412	679
766.5451	655
766.549	612
766.5529	559
766.5568	577
766.5607	551
766.5646	415
766.5685	347
766.5724	292
766.5764	228
766.5803	155
766.5842	97
766.5881	97
766.592	88
766.5959	44
766.5998	36
766.6037	26
766.6076	13
766.6115	18
766.6154	34
766.6193	8
766.6349	4
767.4556	4
767.4986	11
767.5025	7
767.5064	7
767.5103	11
767.5142	11
767.5181	22
767.522	18
767.5259	11
767.5298	14
767.5377	22
767.5416	7
767.5455	15
767.5494	25
767.5533	14
767.5573	18
767.5612	14
767.5651	7
767.569	18
767.5768	11
767.5885	7
768.9965	7
