Mass spectrum: PC 38:6; LC-ESI-QTOF; MS2
Name: PC 38:6
Class: PC
Formula: C46H80NO8P
Exact mass: 806.1209999999999
SMILES: CCCCC\C=C/C\C=C/CCCCCCCC(=O)OCC(COP([O-])(=O)OCC[N+](C)(C)C)OC(=O)CCCCCC\C=C/C\C=C/C\C=C/C\C=C/CC
InChI: InChI=1S/C46H80NO8P/c1-6-8-10-12-14-16-18-20-22-23-25-27-29-31-33-35-37-39-46(49)55-44(43-54-56(50,51)53-41-40-47(3,4)5)42-52-45(48)38-36-34-32-30-28-26-24-21-19-17-15-13-11-9-7-2/h8,10,14-17,20-22,24-25,27,44H,6-7,9,11-13,18-19,23,26,28-43H2,1-5H3/b10-8-,16-14-,17-15-,22-20-,24-21-,27-25-
Instrument: AB Sciex TripleTOF 5600+ system (Q-TOF) equipped with a DuoSpray ion source
Instrument type: LC-ESI-QTOF
Ms type: MS2
Ion mode: NEGATIVE
Collision energy: 45V
Column name: Acquity UPLC Peptide BEH C18 column (50*2.1 mm; 1.7 um; 130A)(Waters Co.,Milford, MA, USA)
Retention time: 8.922783
Precursor type: [M+CH3COOH-H]-
Precursor m/z: 864.572
m/z	relative intensity
78.958	2
168.043	11
191.105	1
205.195	6
206.059	1
217.196	1
224.067	14
231.21	0
242.076	1
242.089	1
253.216	1
259.242	50
261.215	0
278.359	2
279.232	357
281.242	1
283.241	1
283.271	1
285.222	4
302.287	3
302.334	1
303.166	0
303.232	840
303.274	1
304.226	1
327.236	1
329.247	2
415.227	2
430.269	0
454.268	1
475.678	0
478.295	1
480.306	0
486.295	17
502.716	0
504.306	86
504.459	0
504.897	0
510.278	1
510.295	5
519.282	1
528.302	8
528.328	1
719.457	2
745.482	2
782.537	2
788.025	2
788.071	1
790.092	0
790.293	0
790.536	999
790.619	2
790.934	0
791.531	3
805.468	2
805.499	10
805.56	0
864.573	94
