Mass spectrum: SM d36:1; LC-ESI-QTOF; MS2
Name: SM d36:1
Class: SM
Formula: C41H83N2O6P
Exact mass: 731.099
SMILES: CCCCCCCCCCCCCCCCCC(=O)NC(COP([O-])(=O)OCC[N+](C)(C)C)C(O)\C=C\CCCCCCCCCCCCC
InChI: InChI=1S/C41H83N2O6P/c1-6-8-10-12-14-16-18-20-21-23-25-27-29-31-33-35-41(45)42-39(38-49-50(46,47)48-37-36-43(3,4)5)40(44)34-32-30-28-26-24-22-19-17-15-13-11-9-7-2/h32,34,39-40,44H,6-31,33,35-38H2,1-5H3,(H-,42,45,46,47)/b34-32+
Instrument: AB Sciex TripleTOF 5600+ system (Q-TOF) equipped with a DuoSpray ion source
Instrument type: LC-ESI-QTOF
Ms type: MS2
Ion mode: NEGATIVE
Collision energy: 45V
Column name: Acquity UPLC Peptide BEH C18 column (50*2.1 mm; 1.7 um; 130A)(Waters Co.,Milford, MA, USA)
Retention time: 9.730309
Precursor type: [M+CH3COOH-H]-
Precursor m/z: 789.6108
m/z	relative intensity
78.954	5
78.96	11
89.026	0
119.034	0
122.985	1
152.99	0
167.529	0
168.042	69
179.054	0
255.233	0
281.24	0
281.268	0
282.248	0
283.26	3
283.271	1
284.263	2
324.288	0
417.249	0
418.242	0
419.255	1
420.24	0
420.263	0
437.272	0
438.273	0
449.285	0
449.316	3
480.328	0
491.623	0
533.904	0
545.506	0
559.514	0
562.491	0
562.522	0
563.498	0
563.524	1
563.549	0
580.542	0
581.528	0
626.489	0
644.487	1
644.509	2
670.512	1
701.505	0
702.506	1
702.525	3
713.301	0
713.321	1
713.34	1
713.377	0
715.457	0
715.575	999
716.568	2
716.603	0
730.492	0
730.522	2
730.547	3
730.582	0
742.558	1
742.598	1
743.521	0
743.563	4
743.593	8
743.646	0
789.477	0
789.536	4
789.608	23
789.651	1
789.676	0
