Mass spectrum: PG 34:1; LC-ESI-QTOF; MS2
Name: PG 34:1
Class: PG
Formula: C40H77O10P
Exact mass: 749.0219999999999
SMILES: CCCCCCCCCCCCCCCC(=O)OCC(COP(O)(=O)OCC(O)CO)OC(=O)CCCCCCC\C=C/CCCCCCCC
InChI: InChI=1S/C40H77O10P/c1-3-5-7-9-11-13-15-17-18-20-22-24-26-28-30-32-40(44)50-38(36-49-51(45,46)48-34-37(42)33-41)35-47-39(43)31-29-27-25-23-21-19-16-14-12-10-8-6-4-2/h17-18,37-38,41-42H,3-16,19-36H2,1-2H3,(H,45,46)/b18-17-
Instrument: AB Sciex TripleTOF 5600+ system (Q-TOF) equipped with a DuoSpray ion source
Instrument type: LC-ESI-QTOF
Ms type: MS2
Ion mode: NEGATIVE
Collision energy: 45V
Column name: Acquity UPLC Peptide BEH C18 column (50*2.1 mm; 1.7 um; 130A)(Waters Co.,Milford, MA, USA)
Retention time: 8.64695
Precursor type: [M-H]-
Precursor m/z: 747.5143
m/z	relative intensity
78.96	7
96.971	1
152.522	0
152.996	39
171.007	15
207.344	0
209.021	5
227.032	10
237.221	0
245.041	0
253.207	2
253.224	1
254.421	1
254.438	1
255.232	454
280.362	2
280.377	1
281.044	1
281.109	0
281.157	1
281.247	999
282.005	0
283.265	1
389.979	0
391.219	40
409.228	1
417.206	0
417.227	3
417.241	3
435.24	1
464.445	0
465.212	0
465.255	30
483.203	0
483.231	2
483.267	46
483.347	0
488.539	0
491.231	0
491.271	11
509.269	4
509.285	2
509.297	2
511.296	0
511.524	0
561.843	0
562.239	0
563.49	1
563.677	0
673.441	0
673.465	0
673.485	1
673.52	0
745.086	0
745.119	0
745.132	0
745.155	1
745.245	0
746.434	0
746.513	0
747.045	0
747.167	0
747.502	537
748.129	0
748.49	1
748.527	0
748.921	0
749.651	0
