Mass spectrum: PG 34:3; LC-ESI-QTOF; MS2
Name: PG 34:3
Class: PG
Formula: C40H73O10P
Exact mass: 744.9899999999999
SMILES: CCCCCC\C=C/CCCCCCCC(=O)OCC(COP(O)(=O)OCC(O)CO)OC(=O)CCCCCCC\C=C/C\C=C/CCCCC
InChI: InChI=1S/C40H73O10P/c1-3-5-7-9-11-13-15-17-18-20-22-24-26-28-30-32-40(44)50-38(36-49-51(45,46)48-34-37(42)33-41)35-47-39(43)31-29-27-25-23-21-19-16-14-12-10-8-6-4-2/h11,13-14,16-18,37-38,41-42H,3-10,12,15,19-36H2,1-2H3,(H,45,46)/b13-11-,16-14-,18-17-
Instrument: AB Sciex TripleTOF 5600+ system (Q-TOF) equipped with a DuoSpray ion source
Instrument type: LC-ESI-QTOF
Ms type: MS2
Ion mode: NEGATIVE
Collision energy: 45V
Column name: Acquity UPLC Peptide BEH C18 column (50*2.1 mm; 1.7 um; 130A)(Waters Co.,Milford, MA, USA)
Retention time: 7.859131
Precursor type: [M-H]-
Precursor m/z: 743.4879
m/z	relative intensity
152.997	12
204.681	8
251.2	31
253.217	999
277.18	7
279.23	979
279.258	24
281.251	32
283.263	18
297.247	7
303.2	7
369.015	7
415.23	7
431.157	13
433.264	7
460.257	8
463.234	10
475.134	7
481.247	13
489.265	20
507.266	21
574.423	7
681.412	7
743.451	139
743.487	911
743.532	49
743.559	20
743.633	14
744.483	7
