Mass spectrum: SM d39:1; LC-ESI-QTOF; MS2
Name: SM d39:1
Class: SM
Formula: C44H89N2O6P
Exact mass: 773.18
SMILES: CCCCCCCCCCCCCCCCCCCCC(=O)NC(COP([O-])(=O)OCC[N+](C)(C)C)C(O)\C=C\CCCCCCCCCCCCC
InChI: InChI=1S/C44H89N2O6P/c1-6-8-10-12-14-16-18-20-21-22-23-24-26-28-30-32-34-36-38-44(48)45-42(41-52-53(49,50)51-40-39-46(3,4)5)43(47)37-35-33-31-29-27-25-19-17-15-13-11-9-7-2/h35,37,42-43,47H,6-34,36,38-41H2,1-5H3,(H-,45,48,49,50)/b37-35+
Instrument: AB Sciex TripleTOF 5600+ system (Q-TOF) equipped with a DuoSpray ion source
Instrument type: LC-ESI-QTOF
Ms type: MS2
Ion mode: NEGATIVE
Collision energy: 45V
Column name: Acquity UPLC Peptide BEH C18 column (50*2.1 mm; 1.7 um; 130A)(Waters Co.,Milford, MA, USA)
Retention time: 11.45142
Precursor type: [M+CH3COOH-H]-
Precursor m/z: 831.6542
m/z	relative intensity
78.96	12
122.979	1
141.016	2
168.041	45
255.232	2
281.263	1
309.284	1
601.547	1
623.583	1
668.523	1
677.574	1
686.547	4
709.583	5
753.589	5
755.25	3
757.558	30
757.614	999
757.696	4
758.609	3
771.583	4
771.636	3
772.567	4
785.608	3
785.645	9
831.642	26
831.686	7
