Mass spectrum: PC(16:0e/8,9-EpETE); LC-ESI-QTOF; MS2
Name: PC(16:0e/8,9-EpETE)
Class: Oxidized Phospholipid
Formula: C44H80NO8P
Exact mass: 782.099
SMILES: CCCCCCCCCCCCCCCCOCC(COP([O-])(=O)OCC[N+](C)(C)C)OC(=O)CCC\C=C/CC1OC1C\C=C/C\C=C/C\C=C/CC
InChI: InChI=1S/C44H80NO8P/c1-6-8-10-12-14-16-17-18-19-20-22-24-28-32-37-49-39-41(40-51-54(47,48)50-38-36-45(3,4)5)52-44(46)35-31-27-26-30-34-43-42(53-43)33-29-25-23-21-15-13-11-9-7-2/h9,11,15,21,25-26,29-30,41-43H,6-8,10,12-14,16-20,22-24,27-28,31-40H2,1-5H3/b11-9-,21-15-,29-25-,30-26-
Instrument: Acquity UPLC Peptide BEH C18 column (50 x 2.1 mm; 1.7 um), Sciex TripleTOF5600
Instrument type: LC-ESI-QTOF
Ms type: MS2
Ion mode: NEGATIVE
Collision energy: 30-50
Precursor m/z: 840.576008
Precursor type: [M+CH3COOH-H]-
m/z	relative intensity
78.9553	8
78.95906	8
78.96157	5
78.96282	5
95.08804	5
95.0963	5
109.0674	8
111.0925	5
121.0967	8
121.0982	5
121.0998	5
121.1044	5
121.1137	5
123.0735	5
123.075	5
123.0766	15
123.0782	8
123.0797	15
123.0813	28
123.0829	5
123.0844	21
123.086	10
123.0876	5
123.0938	5
125.0994	5
127.0656	5
127.0687	5
127.0703	10
127.0719	13
127.0735	36
127.0751	23
127.0767	18
127.0783	13
127.0799	13
127.0815	13
127.0831	13
127.0846	5
131.0826	5
133.0966	5
135.1129	5
135.1146	13
135.1211	8
135.1244	5
139.0678	10
139.0745	5
139.0778	5
139.0795	8
149.0565	5
149.1236	5
149.1271	15
149.1288	18
149.1305	18
149.1322	15
149.1357	33
149.1374	18
149.1391	10
149.1409	5
155.0588	5
155.0623	5
155.0641	10
155.0658	18
155.0676	21
155.0693	18
155.0711	36
155.0728	31
155.0746	13
155.0764	23
155.0799	13
161.1241	10
161.1276	8
161.1294	10
161.1312	21
161.133	18
161.1348	13
161.1366	5
161.1384	18
161.1402	10
161.142	5
163.1525	8
167.0594	8
167.0612	15
167.0631	15
167.0649	28
167.0667	33
167.0685	23
167.0704	38
167.0722	26
167.074	31
167.0758	18
167.0777	13
167.0795	5
167.0813	5
168.0365	5
168.0402	8
168.0457	5
168.0493	5
168.0768	5
168.0822	5
175.1502	8
177.1239	10
177.1258	13
177.1276	5
177.1295	5
177.1333	8
177.1351	8
177.1408	5
177.1427	5
177.1445	5
183.1018	8
189.1227	5
189.1304	8
190.1272	5
190.1291	10
190.133	13
190.1349	5
190.1369	26
190.1388	5
190.1408	15
190.1427	5
190.1447	13
194.0087	5
201.1543	5
201.1602	15
201.1622	10
201.1642	10
201.1703	5
201.1723	5
205.1603	8
217.1888	5
217.195	5
217.1992	5
219.1708	10
219.1729	8
219.1771	10
219.1812	5
227.1803	5
227.1825	5
231.1725	5
243.1815	5
255.1835	8
255.1926	10
255.1948	16
255.1971	47
255.1993	41
255.2016	44
255.2038	47
255.2061	77
255.2083	80
255.2106	67
255.2128	54
255.2151	59
255.2173	54
255.2196	31
255.2219	33
255.2241	5
255.2264	8
255.2286	15
255.2309	8
255.2331	5
255.2354	5
256.2033	5
273.1837	5
273.1954	5
273.2047	5
273.2117	8
273.2141	15
273.2164	28
273.2187	21
273.2211	23
273.2234	13
273.2257	21
273.2281	18
273.2304	13
273.2327	8
273.235	5
273.242	5
289.2001	5
289.2049	5
289.2169	5
289.2217	8
299.1753	5
299.1778	5
299.1826	13
299.1851	10
299.1875	18
299.19	26
299.1924	26
299.1949	36
299.1973	33
299.1997	36
299.2022	43
299.2046	46
299.2071	33
299.2095	41
299.2119	41
299.2144	21
299.2168	8
299.2193	13
299.2242	5
299.2266	6
301.2117	5
301.6355	5
316.2067	6
316.2117	8
316.2242	6
316.2318	5
317.1784	3
317.1809	3
317.1834	3
317.1859	14
317.1884	42
317.1909	43
317.1935	107
317.196	140
317.1985	149
317.201	180
317.2035	277
317.206	312
317.2085	367
317.2111	345
317.2136	394
317.2161	368
317.2186	272
317.2211	239
317.2236	151
317.2261	154
317.2286	85
317.2312	58
317.2337	20
317.2362	23
317.2387	21
317.2412	9
317.2437	9
317.2462	6
317.2487	9
317.6082	3
317.6158	3
318.2019	8
318.2145	5
318.2221	5
318.2372	5
326.0828	3
377.2235	5
377.2262	8
377.229	13
377.2317	5
377.2344	10
377.2372	10
377.2399	13
377.2426	18
377.2454	15
377.2481	23
377.2509	8
377.2536	8
377.2564	8
377.2591	10
377.2646	8
377.2728	8
377.2783	8
395.2465	5
395.2521	8
448.2769	5
448.2918	15
448.2948	8
448.2978	23
448.3008	21
448.3038	26
448.3068	33
448.3098	36
448.3127	49
448.3157	49
448.3187	49
448.3217	31
448.3247	57
448.3277	44
448.3307	41
448.3336	28
448.3366	28
448.3396	21
448.3426	10
448.3456	10
448.3486	15
448.3516	5
448.3546	8
449.3111	5
452.9824	5
464.3228	5
466.0179	5
466.1153	5
466.2737	11
466.2829	11
466.2859	5
466.289	13
466.292	21
466.2951	14
466.2981	17
466.3011	30
466.3042	41
466.3073	57
466.3103	105
466.3134	108
466.3164	156
466.3194	167
466.3225	147
466.3255	145
466.3286	222
466.3316	181
466.3347	217
466.3377	209
466.3408	164
466.3438	142
466.3469	131
466.3499	80
466.353	78
466.356	64
466.359	25
466.3621	22
466.3651	17
466.3682	8
466.3712	6
466.3865	3
466.5266	3
467.2431	3
467.3255	3
467.3346	5
695.4365	5
695.4514	5
695.4551	5
695.4774	8
695.4886	5
721.4916	5
764.1069	8
764.1226	5
764.1265	5
764.1304	8
764.1343	10
764.1421	10
764.1459	5
764.1498	8
764.1537	10
764.1694	5
765.5624	8
766.4411	5
766.4489	8
766.4841	14
766.488	65
766.4919	73
766.4958	83
766.4997	156
766.5036	233
766.5075	260
766.5114	282
766.5153	431
766.5192	537
766.5231	649
766.527	746
766.5309	738
766.5349	842
766.5388	888
766.5427	921
766.5466	999
766.5505	950
766.5544	934
766.5583	929
766.5622	719
766.5661	593
766.57	570
766.5739	337
766.5778	259
766.5817	186
766.5856	127
766.5895	132
766.5934	64
766.5974	37
766.6013	41
766.6052	23
766.6091	22
766.613	11
766.6169	8
766.6208	30
766.6481	4
767.1405	4
767.1913	4
767.3203	4
767.3711	5
767.4883	5
767.504	5
767.5079	5
767.5118	10
767.5157	15
767.5196	18
767.5235	8
767.5274	26
767.5313	10
767.5352	13
767.5391	43
767.543	15
767.5469	18
767.5508	33
767.5548	10
767.5587	8
767.5626	28
767.5665	18
767.5704	8
767.5743	8
767.5822	8
767.59	5
767.5939	5
767.6017	5
767.6095	5
780.4774	5
780.4852	5
781.471	5
781.4789	8
781.4828	10
781.4868	15
781.4907	5
781.4947	10
781.4986	5
781.5026	18
781.5065	13
781.5104	8
781.5144	13
781.5183	18
781.5223	13
781.5262	15
781.5302	8
781.5381	8
781.542	8
781.5499	5
793.5793	5
840.4792	5
840.4874	5
840.4956	8
840.5079	5
840.5161	10
840.5201	8
840.5242	16
840.5283	29
840.5324	24
840.5365	24
840.5406	24
840.5447	55
840.5488	42
840.5529	53
840.5569	37
840.561	54
840.5651	66
840.5692	69
840.5733	85
840.5774	77
840.5815	80
840.5856	91
840.5897	72
840.5938	66
840.5978	77
840.6019	69
840.606	51
840.6101	51
840.6142	34
840.6183	34
840.6224	32
840.6265	29
840.6306	13
840.6346	13
840.6387	8
840.6469	5
840.6551	5
841.1502	3
841.494	3
841.5063	5
841.5226	8
841.5267	8
841.5308	10
841.5349	15
841.539	5
841.5431	8
841.5472	10
841.5513	5
841.5554	5
841.5594	5
841.5677	5
