Mass spectrum: PC 44:12; LC-ESI-QTOF; MS2
Name: PC 44:12
Class: PC
Formula: C52H80NO8P
Exact mass: 878.1869999999999
SMILES: CC\C=C/C\C=C/C\C=C/C\C=C/C\C=C/C\C=C/CCC(=O)OCC(COP([O-])(=O)OCC[N+](C)(C)C)OC(=O)CC\C=C/C\C=C/C\C=C/C\C=C/C\C=C/C\C=C/CC
InChI: InChI=1S/C52H80NO8P/c1-6-8-10-12-14-16-18-20-22-24-26-28-30-32-34-36-38-40-42-44-51(54)58-48-50(49-60-62(56,57)59-47-46-53(3,4)5)61-52(55)45-43-41-39-37-35-33-31-29-27-25-23-21-19-17-15-13-11-9-7-2/h8-11,14-17,20-23,26-29,32-35,38-41,50H,6-7,12-13,18-19,24-25,30-31,36-37,42-49H2,1-5H3/b10-8-,11-9-,16-14-,17-15-,22-20-,23-21-,28-26-,29-27-,34-32-,35-33-,40-38-,41-39-
Instrument: AB Sciex TripleTOF 5600+ system (Q-TOF) equipped with a DuoSpray ion source
Instrument type: LC-ESI-QTOF
Ms type: MS2
Ion mode: NEGATIVE
Collision energy: 45V
Column name: Acquity UPLC Peptide BEH C18 column (50*2.1 mm; 1.7 um; 130A)(Waters Co.,Milford, MA, USA)
Retention time: 8.68426
Precursor type: [M+CH3COOH-H]-
Precursor m/z: 936.5752
m/z	relative intensity
78.96	1
93.068	0
105.071	0
107.086	1
109.102	0
119.089	0
121.102	1
133.1	0
135.119	0
137.132	1
147.114	0
149.134	0
151.147	0
152.995	0
163.078	0
163.147	0
168.042	8
175.147	0
177.165	4
189.168	0
191.18	4
203.179	1
217.195	1
224.068	11
229.195	20
241.193	0
242.08	1
243.141	0
249.186	5
255.212	1
281.232	1
282.36	0
283.242	156
284.265	1
297.221	0
309.223	2
309.281	0
325.215	0
326.198	0
326.211	1
326.263	0
327.231	480
328.237	0
419.253	3
437.263	0
438.27	0
463.216	2
463.234	1
471.898	0
478.269	1
478.932	0
481.233	0
493.669	0
534.296	13
549.258	0
552.305	74
552.352	1
567.271	0
608.33	0
747.488	4
747.526	1
789.497	0
791.43	0
791.475	1
817.475	1
818.504	0
844.511	0
854.502	0
859.808	3
859.841	1
861.52	0
862.378	0
862.534	999
862.664	0
862.957	0
863.512	1
863.546	3
864.05	0
876.508	0
876.549	2
877.479	4
877.506	4
890.529	1
890.571	0
904.523	0
905.492	0
908.556	0
918.531	0
933.637	0
936.57	103
936.864	0
937.539	1
937.588	0
