Mass spectrum: PG 38:4; LC-ESI-QTOF; MS2
Name: PG 38:4
Class: PG
Formula: C44H79O10P
Exact mass: 799.082
SMILES: CCCCCCCC\C=C/CCCCCCCC(=O)OCC(COP(O)(=O)OCC(O)CO)OC(=O)CCCCCCCCC\C=C/C\C=C/C\C=C/CC
InChI: InChI=1S/C44H79O10P/c1-3-5-7-9-11-13-15-17-19-20-22-24-26-28-30-32-34-36-44(48)54-42(40-53-55(49,50)52-38-41(46)37-45)39-51-43(47)35-33-31-29-27-25-23-21-18-16-14-12-10-8-6-4-2/h5,7,11,13,17-19,21,41-42,45-46H,3-4,6,8-10,12,14-16,20,22-40H2,1-2H3,(H,49,50)/b7-5-,13-11-,19-17-,21-18-
Instrument: AB Sciex TripleTOF 5600+ system (Q-TOF) equipped with a DuoSpray ion source
Instrument type: LC-ESI-QTOF
Ms type: MS2
Ion mode: NEGATIVE
Collision energy: 45V
Column name: Acquity UPLC Peptide BEH C18 column (50*2.1 mm; 1.7 um; 130A)(Waters Co.,Milford, MA, USA)
Retention time: 8.293467
Precursor type: [M-H]-
Precursor m/z: 797.5323
m/z	relative intensity
152.992	9
171.007	2
261.251	5
277.214	5
279.232	144
280.366	2
281.248	810
282.261	3
283.258	8
303.234	2
304.293	6
305.247	811
307.262	167
309.28	3
331.263	3
333.285	2
415.231	2
435.249	5
479.273	2
482.707	1
489.257	1
491.28	8
507.277	3
509.292	9
515.27	8
517.288	2
533.245	1
533.285	8
535.294	3
709.458	1
723.534	1
767.419	4
779.486	4
795.008	2
795.074	3
796.554	1
797.292	1
797.535	999
797.619	9
798.524	5
