Mass spectrum: PE(16:0/10-HDoHE); LC-ESI-QTOF; MS2
Name: PE(16:0/10-HDoHE)
Class: Oxidized Phospholipid
Formula: C43H74NO9P
Exact mass: 780.039
SMILES: CCCCCCCCCCCCCCCC(=O)OCC(COP(O)(=O)OCCN)OC(=O)CC\C=C/C\C=C/CC(O)\C=C\C=C/C\C=C/C\C=C/CC
InChI: InChI=1S/C43H74NO9P/c1-3-5-7-9-11-13-15-16-17-19-21-26-30-34-42(46)50-38-41(39-52-54(48,49)51-37-36-44)53-43(47)35-31-27-23-22-25-29-33-40(45)32-28-24-20-18-14-12-10-8-6-4-2/h6,8,12,14,20,23-25,27-29,32,40-41,45H,3-5,7,9-11,13,15-19,21-22,26,30-31,33-39,44H2,1-2H3,(H,48,49)/b8-6-,14-12-,24-20-,27-23-,29-25-,32-28+
Instrument: Acquity UPLC Peptide BEH C18 column (50 x 2.1 mm; 1.7 um), Sciex TripleTOF5600
Instrument type: LC-ESI-QTOF
Ms type: MS2
Ion mode: NEGATIVE
Collision energy: 30-50
Precursor m/z: 778.5028435
Precursor type: [M-H]-
m/z	relative intensity
78.96145	24
78.96898	24
119.1018	24
121.0639	24
121.0654	24
137.0995	24
140.0059	24
140.0076	24
140.0093	24
153.0777	24
153.083	24
153.0847	61
153.0865	133
153.0882	85
153.09	145
153.0917	121
153.0934	182
153.0952	85
153.0969	98
153.0987	37
153.1022	49
153.1039	24
153.1057	24
153.1074	24
153.1161	24
161.1184	24
161.1238	24
161.1292	37
161.1309	49
161.1363	37
161.1381	37
161.1417	24
161.1435	24
181.0737	37
181.0757	24
181.0775	24
181.0813	61
181.0833	73
181.0851	85
181.087	61
181.0889	73
181.0908	49
181.0927	37
181.0946	37
181.0965	37
184.1167	24
190.1346	24
190.1404	37
196.0299	37
196.0339	49
196.0359	49
196.0378	49
196.0398	37
196.0418	73
196.0477	24
196.0536	24
227.1714	24
227.1778	24
227.1842	24
243.2097	24
246.9825	25
247.1711	25
247.1755	25
253.1967	25
254.442	25
255.2079	25
255.2124	25
255.2146	100
255.2169	74
255.2191	150
255.2214	176
255.2236	462
255.2259	339
255.2281	568
255.2304	556
255.2326	467
255.2349	657
255.2372	429
255.2394	441
255.2417	301
255.2439	113
255.2462	139
255.2484	88
255.2507	63
255.2529	50
255.2552	25
255.2574	13
255.2642	13
255.704	13
256.2367	24
257.2383	13
258.5752	13
271.2394	13
281.2077	24
281.2101	24
281.2148	73
281.2172	98
281.2195	158
281.2219	110
281.2243	85
281.2266	182
281.229	145
281.2314	110
281.2337	98
281.2361	110
281.2385	73
281.2408	37
281.2432	24
281.2456	49
281.2527	49
299.1943	24
299.2162	24
299.2211	49
299.2285	24
299.2431	49
325.2037	24
325.2063	37
325.2088	49
325.2114	61
325.2139	49
325.2165	61
325.219	61
325.2215	73
325.2241	110
325.2292	49
325.2317	49
343.2065	49
343.2091	49
343.2118	49
343.2144	37
343.217	121
343.2196	145
343.2222	255
343.2248	280
343.2274	158
343.23	145
343.2327	280
343.2353	194
343.2379	110
343.2405	73
343.2431	85
343.2457	98
343.2484	49
343.2509	37
343.2536	37
434.2512	24
434.26	24
434.2659	24
434.2717	24
434.2805	24
452.252	37
452.255	61
452.258	24
452.261	85
452.264	37
452.267	61
452.27	37
452.273	133
452.276	133
452.279	98
452.282	73
452.285	158
452.288	98
452.291	49
452.294	133
452.297	24
452.3	37
452.306	24
522.2496	24
522.2593	24
540.2855	24
704.5211	37
776.0671	24
776.1929	25
778.4312	61
778.4351	62
778.4391	99
778.443	50
778.447	25
778.4509	90
778.4548	115
778.4587	64
778.4627	114
778.4666	183
778.4706	186
778.4745	564
778.4785	500
778.4824	357
778.4863	554
778.4903	543
778.4942	680
778.4982	626
778.5021	748
778.506	935
778.5099	678
778.5139	999
778.5178	637
778.5218	861
778.5257	743
778.5296	676
778.5336	622
778.5375	317
778.5414	424
778.5454	237
778.5493	238
778.5533	186
778.5572	90
778.5612	79
778.5651	80
778.569	38
778.5729	13
778.5769	25
778.5808	13
778.5887	26
778.6399	13
779.4866	24
779.4984	37
779.5063	37
779.5103	37
779.522	24
779.526	24
779.5378	24
779.5417	24
