Mass spectrum: Cer[NS] d34:2; LC-ESI-QTOF; MS2
Name: Cer[NS] d34:2
Class: Cer_NS
Formula: C34H65NO3
Exact mass: 535.8979999999999
SMILES: CCCCCCCCCCCCCCCC(=O)NC(CO)C(O)\C=C\CC\C=C\CCCCCCCCC
InChI: InChI=1S/C34H65NO3/c1-3-5-7-9-11-13-15-17-19-21-23-25-27-29-33(37)32(31-36)35-34(38)30-28-26-24-22-20-18-16-14-12-10-8-6-4-2/h19,21,27,29,32-33,36-37H,3-18,20,22-26,28,30-31H2,1-2H3,(H,35,38)/b21-19+,29-27+
Instrument: AB Sciex TripleTOF 5600+ system (Q-TOF) equipped with a DuoSpray ion source
Instrument type: LC-ESI-QTOF
Ms type: MS2
Ion mode: NEGATIVE
Collision energy: 45V
Column name: Acquity UPLC Peptide BEH C18 column (50*2.1 mm; 1.7 um; 130A)(Waters Co.,Milford, MA, USA)
Retention time: 9.130492
Precursor type: [M+CH3COOH-H]-
Precursor m/z: 594.5065
m/z	relative intensity
233.191	3
234.476	1
235.205	182
237.221	290
248.229	5
248.241	7
249.22	2
253.208	2
253.254	40
254.247	172
255.232	116
260.24	2
260.407	2
261.221	147
264.229	35
266.249	37
268.267	5
278.251	9
279.226	2
279.378	1
279.413	2
280.264	973
294.238	5
294.25	3
295.254	4
295.333	1
296.259	153
296.292	1
298.277	3
310.28	2
319.284	1
447.467	1
459.454	3
475.459	2
476.49	1
477.461	2
484.443	2
486.465	137
488.491	1
498.466	4
502.416	3
502.457	139
502.887	2
504.477	222
506.5	2
516.464	4
516.487	4
532.783	3
532.805	4
534.383	1
534.485	999
535.478	2
557.777	3
561.515	1
