Mass spectrum: PE(16:1e/12-HETE); LC-ESI-QTOF; MS2
Name: PE(16:1e/12-HETE)
Class: Oxidized Phospholipid
Formula: C41H74NO8P
Exact mass: 740.018
SMILES: CCCCCCCCCCCCCC\C=C/OCC(COP(O)(=O)OCCN)OC(=O)CCC\C=C/C\C=C/C=C/C(O)C\C=C/CCCCC
InChI: InChI=1S/C41H74NO8P/c1-3-5-7-9-11-12-13-14-15-16-19-22-26-30-35-47-37-40(38-49-51(45,46)48-36-34-42)50-41(44)33-29-25-21-18-17-20-24-28-32-39(43)31-27-23-10-8-6-4-2/h18,20-21,23-24,27-28,30,32,35,39-40,43H,3-17,19,22,25-26,29,31,33-34,36-38,42H2,1-2H3,(H,45,46)/b21-18-,24-20-,27-23-,32-28+,35-30-
Instrument: Acquity UPLC Peptide BEH C18 column (50 x 2.1 mm; 1.7 um), Sciex TripleTOF5600
Instrument type: LC-ESI-QTOF
Ms type: MS2
Ion mode: NEGATIVE
Collision energy: 30-50
Precursor m/z: 738.5079288
Precursor type: [M-H]-
m/z	relative intensity
78.95648	12
78.95899	12
78.96025	23
78.9615	19
78.96275	12
78.96401	12
78.96526	12
78.96652	7
78.96777	15
78.96902	7
81.0781	7
107.0826	12
107.087	12
107.0885	15
107.0899	15
107.0914	12
108.0587	7
121.9988	7
127.075	7
135.1095	12
135.1111	7
135.1128	12
135.1144	7
135.116	23
135.1177	19
135.1193	19
135.121	12
135.1226	12
135.1243	19
139.1076	12
139.1093	15
139.1109	7
139.1126	23
139.1142	26
139.1176	12
140.0027	7
140.0043	7
140.006	23
140.0077	19
140.0094	34
140.011	23
140.0127	23
140.0144	26
140.016	38
140.0177	19
140.0194	15
151.1462	7
151.1479	12
151.1497	7
151.1514	7
151.1531	12
152.9958	7
153.125	7
153.1302	7
153.1319	7
163.1054	19
163.1072	12
163.109	15
163.1108	19
163.1126	26
163.1144	12
163.1162	26
163.1198	15
163.1216	7
163.1378	7
163.1432	12
165.09	7
165.3457	8
177.0861	7
177.088	7
177.0936	12
178.5593	7
179.0348	12
179.0367	12
179.0404	16
179.0461	8
179.0612	8
179.0895	8
179.0914	8
179.0933	24
179.0952	36
179.0971	52
179.099	103
179.1009	192
179.1028	192
179.1046	207
179.1065	209
179.1084	231
179.1103	220
179.1122	167
179.1141	128
179.116	88
179.1178	88
179.1197	64
179.1216	36
179.1235	16
179.1254	8
179.1273	16
179.1292	4
179.1311	4
179.1349	4
179.1443	4
179.7472	4
180.0368	7
180.0406	12
180.0576	4
180.1106	7
180.1163	12
180.1201	12
181.1213	4
181.1251	7
181.1327	12
181.1555	7
196.0221	7
196.0261	19
196.0281	23
196.03	31
196.032	26
196.034	69
196.036	46
196.0379	72
196.0399	61
196.0419	23
196.0439	38
196.0459	12
196.0478	7
196.0498	12
196.0518	7
203.1682	7
203.1722	15
203.1742	19
203.1762	23
203.1782	15
203.1802	34
203.1822	15
203.1842	26
203.1863	7
203.1883	12
207.0987	15
207.1048	7
207.1088	12
208.0948	7
208.0969	12
208.0989	23
208.1009	15
208.103	34
208.105	53
208.107	69
208.1091	53
208.1111	110
208.1131	72
208.1152	65
208.1172	42
208.1193	23
208.1213	15
208.1233	7
208.1254	15
208.1274	12
215.172	7
215.1824	7
229.1985	7
239.2215	7
239.2237	15
239.2259	7
239.2281	15
239.2302	19
239.2324	12
239.2346	34
239.2368	34
239.239	15
239.2412	19
239.2433	23
239.2477	23
239.2499	19
239.2521	7
240.2396	7
255.235	7
256.2233	8
256.4198	8
256.4334	8
256.7227	8
257.2022	15
257.2067	8
257.209	8
257.2112	23
257.2135	47
257.2158	47
257.218	90
257.2203	86
257.2226	109
257.2248	147
257.2271	125
257.2293	128
257.2316	152
257.2339	81
257.2361	77
257.2384	35
257.2407	19
257.2429	39
257.2452	12
257.2474	19
257.2497	12
257.2542	7
257.2678	8
273.0948	7
273.2673	4
275.2301	15
275.2324	15
275.2348	12
275.2371	15
275.2394	31
275.2418	7
275.2441	15
275.2465	12
275.2488	7
275.2512	7
275.2535	12
283.2108	7
283.2131	7
291.0936	7
291.096	7
291.2212	8
291.2404	12
291.2477	16
300.4918	8
301.1844	8
301.1893	16
301.1917	8
301.1942	23
301.1966	16
301.199	28
301.2015	70
301.2039	59
301.2064	95
301.2089	166
301.2113	155
301.2137	183
301.2162	187
301.2186	135
301.2211	175
301.2235	163
301.226	147
301.2285	83
301.2309	83
301.2333	56
301.2358	48
301.2382	4
301.2407	32
301.2431	20
301.2456	8
301.2505	12
302.2161	4
302.2284	7
302.2357	4
318.2292	7
318.2392	12
318.2468	21
318.2795	9
318.8058	9
319.1864	12
319.1889	8
319.1914	4
319.1939	4
319.1964	5
319.199	31
319.2015	22
319.204	58
319.2065	123
319.209	171
319.2116	288
319.2141	412
319.2166	574
319.2191	685
319.2216	665
319.2242	822
319.2267	973
319.2292	999
319.2318	823
319.2343	830
319.2368	735
319.2393	560
319.2418	361
319.2444	249
319.2469	172
319.2494	103
319.2519	79
319.2544	55
319.257	29
319.2595	24
319.262	18
319.2645	5
319.2721	5
319.4107	5
320.0591	4
320.2207	5
320.2232	7
320.2258	24
320.2308	15
320.2333	7
320.2359	20
320.2384	12
320.2409	7
320.2561	7
375.2059	12
375.2251	19
375.2278	12
375.2305	26
375.2332	12
375.2415	7
393.2372	7
408.2263	8
416.979	8
417.273	12
418.141	8
418.2391	12
418.2448	19
418.2477	27
418.2506	35
418.2535	59
418.2564	78
418.2593	109
418.2621	82
418.265	114
418.2679	94
418.2708	125
418.2737	129
418.2766	181
418.2795	94
418.2823	75
418.2852	82
418.2881	55
418.291	43
418.2939	16
418.2968	24
418.2997	24
418.3026	32
418.3055	12
418.343	4
426.2673	8
426.4975	12
434.9161	8
435.8082	8
436.2354	16
436.2413	8
436.2442	15
436.2472	21
436.2501	24
436.2531	53
436.256	36
436.259	79
436.2619	94
436.2649	128
436.2678	175
436.2708	155
436.2737	346
436.2766	293
436.2796	325
436.2825	332
436.2855	282
436.2884	423
436.2914	310
436.2943	207
436.2973	191
436.3002	201
436.3032	126
436.3061	118
436.3091	51
436.312	55
436.3149	46
436.3179	17
436.3209	25
436.3238	8
436.3268	9
436.3356	4
436.6628	4
436.7011	4
437.0019	4
437.1258	4
437.2763	7
437.2792	7
437.2822	4
462.7364	7
490.2968	7
498.2802	12
545.3351	12
545.3384	15
545.3417	7
545.345	7
545.3483	7
545.3549	31
545.3582	7
545.3615	12
545.3647	19
545.3713	12
599.3975	7
599.4114	7
627.3903	7
627.3974	7
627.4009	12
627.4221	7
720.4788	7
720.5167	7
736.1516	7
736.1746	7
736.1823	23
736.1861	7
736.2014	7
736.2052	12
736.209	12
736.2244	7
736.2358	12
738.4465	17
738.4504	13
738.4542	31
738.4581	36
738.4619	102
738.4657	107
738.4695	167
738.4734	163
738.4772	280
738.481	284
738.4849	542
738.4887	538
738.4926	627
738.4964	724
738.5002	863
738.504	859
738.5079	832
738.5117	883
738.5156	921
738.5194	892
738.5232	936
738.527	768
738.5309	818
738.5347	661
738.5386	451
738.5424	322
738.5462	231
738.55	195
738.5539	145
738.5577	136
738.5616	25
738.5654	45
738.5692	29
738.5731	5
738.5769	29
738.5807	10
738.5961	5
738.5999	5
738.7802	4
739.4054	5
739.4706	12
739.4745	12
739.4783	12
739.4821	15
739.486	19
739.4898	15
739.4937	12
739.4975	19
739.5013	34
739.5052	42
739.509	31
739.5128	26
739.5167	40
739.5205	19
739.5244	26
739.5282	42
739.532	31
739.5358	31
739.5397	26
739.5435	12
739.5474	7
739.5589	12
739.5665	7
