Mass spectrum: PC(16:1/8-HEPE); LC-ESI-QTOF; MS2
Name: PC(16:1/8-HEPE)
Class: Oxidized Phospholipid
Formula: C44H76NO9P
Exact mass: 794.066
SMILES: CCCCCC\C=C/CCCCCCCC(=O)OCC(COP([O-])(=O)OCC[N+](C)(C)C)OC(=O)CCC\C=C/CC(O)\C=C\C=C/C\C=C/C\C=C/CC
InChI: InChI=1S/C44H76NO9P/c1-6-8-10-12-14-16-18-19-20-22-24-26-31-35-43(47)51-39-42(40-53-55(49,50)52-38-37-45(3,4)5)54-44(48)36-32-28-27-30-34-41(46)33-29-25-23-21-17-15-13-11-9-7-2/h9,11,15-18,23,25,27,29-30,33,41-42,46H,6-8,10,12-14,19-22,24,26,28,31-32,34-40H2,1-5H3/b11-9-,17-15-,18-16-,25-23-,30-27-,33-29+
Instrument: Acquity UPLC Peptide BEH C18 column (50 x 2.1 mm; 1.7 um), Sciex TripleTOF5600
Instrument type: LC-ESI-QTOF
Ms type: MS2
Ion mode: NEGATIVE
Collision energy: 30-50
Precursor m/z: 852.5396225
Precursor type: [M+CH3COOH-H]-
m/z	relative intensity
78.96155	16
127.075	16
155.0674	16
155.071	24
155.0727	24
155.078	16
155.0833	16
161.1311	39
161.1365	16
168.0364	16
168.0419	32
168.0437	24
168.0492	16
224.0646	16
224.0689	16
224.071	16
252.4409	16
253.1924	16
253.1947	32
253.1969	63
253.1992	55
253.2014	122
253.2036	193
253.2059	308
253.2081	426
253.2104	612
253.2126	837
253.2149	837
253.2171	892
253.2194	798
253.2216	774
253.2239	691
253.2261	474
253.2283	324
253.2306	170
253.2328	146
253.2351	95
253.2373	47
253.2396	63
253.2418	39
253.2441	24
254.2285	16
255.1968	32
255.2058	24
255.2081	24
255.2126	32
255.2148	32
255.2193	16
281.2505	16
299.1774	16
299.1799	16
299.1872	16
299.1896	16
299.1921	39
299.1945	63
299.1994	24
299.2067	24
299.2092	32
299.2116	16
299.2141	16
317.1906	16
317.1981	55
317.2007	55
317.2032	39
317.2057	47
317.2082	95
317.2107	32
317.2132	79
317.2157	32
317.2182	63
317.2232	16
317.2258	47
317.2433	16
453.207	24
460.2843	16
460.2903	16
478.296	16
478.2991	24
524.2607	24
524.264	16
524.2737	16
524.2802	16
524.2834	16
542.2653	16
542.2686	16
542.2719	24
542.2752	16
542.2785	39
542.2818	55
542.2883	24
542.2916	39
542.2949	47
542.2982	95
542.3015	24
542.308	39
542.3113	24
542.3179	16
626.7297	16
707.3932	16
707.4158	16
707.4233	16
707.4346	32
707.4383	47
707.4458	32
707.4833	16
720.7138	16
733.4706	16
776.0715	24
778.2546	16
778.4278	16
778.4357	24
778.4396	47
778.4435	32
778.4474	63
778.4514	95
778.4553	122
778.4593	162
778.4632	253
778.4672	229
778.4711	367
778.475	501
778.4789	616
778.4829	754
778.4868	892
778.4908	652
778.4947	904
778.4987	999
778.5026	908
778.5065	892
778.5104	869
778.5144	908
778.5183	928
778.5223	766
778.5262	849
778.5302	596
778.5341	525
778.538	533
778.5419	355
778.5459	324
778.5498	284
778.5538	138
778.5577	122
778.5616	95
778.5656	95
778.5695	87
778.5734	71
778.5774	24
778.5814	24
778.5853	16
778.5892	16
779.4634	16
779.4674	24
779.4792	16
779.495	16
779.4989	24
779.5147	24
779.5186	32
779.5422	16
792.4934	16
792.5252	24
792.5371	24
792.5569	24
793.447	24
793.4629	16
793.4748	24
793.4907	24
793.5026	16
852.4771	16
852.4813	16
852.4936	16
852.5018	24
852.506	32
852.5101	24
852.5142	24
852.5183	71
852.5225	32
852.5266	47
852.5307	47
852.5348	87
852.5389	107
852.543	39
852.5472	47
852.5513	95
852.5554	71
852.5595	47
852.5637	79
852.5677	47
852.5719	63
852.576	55
852.5801	32
852.5842	16
852.6007	16
853.5486	16
