Mass spectrum: PC(16:1/8,9-EpETE); LC-ESI-QTOF; MS2
Name: PC(16:1/8,9-EpETE)
Class: Oxidized Phospholipid
Formula: C44H76NO9P
Exact mass: 794.066
SMILES: CCCCCC\C=C/CCCCCCCC(=O)OCC(COP([O-])(=O)OCC[N+](C)(C)C)OC(=O)CCC\C=C/CC1OC1C\C=C/C\C=C/C\C=C/CC
InChI: InChI=1S/C44H76NO9P/c1-6-8-10-12-14-16-17-18-19-21-23-25-30-34-43(46)50-38-40(39-52-55(48,49)51-37-36-45(3,4)5)53-44(47)35-31-27-26-29-33-42-41(54-42)32-28-24-22-20-15-13-11-9-7-2/h9,11,15-17,20,24,26,28-29,40-42H,6-8,10,12-14,18-19,21-23,25,27,30-39H2,1-5H3/b11-9-,17-16-,20-15-,28-24-,29-26-
Instrument: Acquity UPLC Peptide BEH C18 column (50 x 2.1 mm; 1.7 um), Sciex TripleTOF5600
Instrument type: LC-ESI-QTOF
Ms type: MS2
Ion mode: NEGATIVE
Collision energy: 30-50
Precursor m/z: 852.5396225
Precursor type: [M+CH3COOH-H]-
m/z	relative intensity
127.0717	8
127.0764	8
149.1372	8
149.1389	8
155.0673	8
155.0743	16
155.0761	8
161.1292	8
161.131	8
161.1381	8
161.1417	8
167.061	8
167.0665	19
167.0701	16
167.0719	23
167.0737	8
168.0363	19
168.0381	12
168.0399	19
168.0417	16
168.0436	12
168.0472	12
168.0491	8
168.0546	8
168.0564	12
190.1425	8
196.0419	8
201.166	8
201.17	8
224.054	12
224.0604	16
224.0625	23
224.0646	19
224.0667	23
224.0688	8
224.0709	12
224.073	12
224.0773	16
224.0878	8
242.0802	8
252.2661	8
252.4252	12
252.4274	12
252.4319	8
252.4409	8
253.042	8
253.1094	8
253.1139	8
253.1835	8
253.1879	8
253.1902	12
253.1924	53
253.1947	53
253.1969	68
253.1992	127
253.2014	175
253.2037	282
253.2059	405
253.2082	617
253.2104	697
253.2126	878
253.2149	917
253.2171	970
253.2194	946
253.2216	999
253.2239	748
253.2261	604
253.2284	446
253.2306	290
253.2329	136
253.2351	150
253.2374	70
253.2396	49
253.2418	33
253.2441	16
253.2463	16
253.2486	8
253.2508	12
254.2105	12
254.2128	8
254.2218	8
254.2263	8
255.2013	8
255.2036	19
255.2058	27
255.2081	19
255.2103	12
255.2126	31
255.2148	12
255.2171	8
255.2194	16
255.2216	8
255.2284	8
255.2351	8
255.2374	8
273.2115	8
273.2208	8
273.2278	8
279.2263	8
279.2287	8
279.2334	16
279.2358	12
279.2381	8
279.2405	12
281.2411	8
281.2482	12
283.2655	8
299.1824	8
299.1922	8
299.1946	12
299.1995	16
299.2019	8
299.2044	8
299.2068	12
299.2093	16
299.2117	8
299.2141	8
317.1832	8
317.1857	16
317.1907	12
317.1932	23
317.1957	23
317.1983	23
317.2008	68
317.2033	60
317.2058	76
317.2083	95
317.2108	95
317.2133	80
317.2159	111
317.2184	53
317.2209	56
317.2234	39
317.2259	47
317.2284	43
317.2309	23
317.2335	19
317.236	8
317.241	12
344.2324	8
453.2195	8
460.2635	8
460.2787	12
460.2908	8
460.2968	8
460.2999	8
478.2749	8
478.281	19
478.2934	19
478.2965	12
478.2996	16
478.3088	12
478.315	8
478.3181	12
479.2813	8
524.2678	16
524.2711	8
524.2775	16
524.2872	8
542.2496	12
542.2627	8
542.266	8
542.2693	39
542.2726	12
542.2759	35
542.2791	35
542.2824	35
542.2857	23
542.289	31
542.2923	35
542.2956	72
542.2989	53
542.3021	35
542.3054	23
542.3087	35
542.312	19
542.3153	8
542.3218	8
542.3251	12
542.3317	8
542.3383	8
770.4777	16
770.4816	8
770.4894	8
770.5012	8
770.5051	8
770.513	8
770.5169	8
770.5286	8
776.0492	8
776.0531	8
776.0806	8
776.1042	8
776.116	8
778.4251	16
778.429	12
778.433	19
778.4369	27
778.4409	27
778.4448	68
778.4487	80
778.4526	101
778.4566	117
778.4605	167
778.4645	179
778.4684	253
778.4724	298
778.4763	310
778.4802	458
778.4841	428
778.4881	549
778.492	662
778.496	654
778.4999	732
778.5038	726
778.5078	761
778.5117	744
778.5156	759
778.5196	615
778.5236	722
778.5275	643
778.5314	532
778.5353	497
778.5393	460
778.5432	304
778.5472	261
778.5511	201
778.555	130
778.559	113
778.5629	80
778.5668	55
778.5707	35
778.5747	31
778.5786	37
778.5826	12
778.5865	12
778.5905	12
778.5944	12
778.5983	8
778.937	8
779.4254	8
779.4687	8
779.4805	12
779.4844	8
779.4923	8
779.4962	8
779.5002	27
779.5042	12
779.5081	19
779.512	8
779.5199	12
779.5238	23
779.5278	12
779.5317	12
779.5356	8
779.5475	16
779.5554	16
793.4363	12
793.4483	16
793.4562	12
793.4602	8
793.4642	8
793.4722	19
793.4761	12
793.4801	19
793.4841	8
793.488	12
852.4621	8
852.4868	8
852.4909	12
852.4951	12
852.4991	12
852.5033	19
852.5074	12
852.5115	19
852.5156	19
852.5198	23
852.5239	27
852.528	60
852.5321	56
852.5363	47
852.5403	35
852.5445	39
852.5486	31
852.5527	60
852.5568	64
852.561	47
852.5651	47
852.5692	72
852.5733	60
852.5775	27
852.5815	31
852.5857	60
852.5898	43
852.5939	16
852.598	12
852.6022	8
852.6104	12
