Mass spectrum: Cer[NS] d42:2; LC-ESI-QTOF; MS2
Name: Cer[NS] d42:2
Class: Cer_NS
Formula: C42H81NO3
Exact mass: 648.1139999999999
SMILES: CCCCCCCCCCCCC\C=C\C(O)C(CO)NC(=O)CCCCCCCCC\C=C/CCCCCCCCCCCC
InChI: InChI=1S/C42H81NO3/c1-3-5-7-9-11-13-15-17-18-19-20-21-22-23-24-26-28-30-32-34-36-38-42(46)43-40(39-44)41(45)37-35-33-31-29-27-25-16-14-12-10-8-6-4-2/h21-22,35,37,40-41,44-45H,3-20,23-34,36,38-39H2,1-2H3,(H,43,46)/b22-21-,37-35+
Instrument: AB Sciex TripleTOF 5600+ system (Q-TOF) equipped with a DuoSpray ion source
Instrument type: LC-ESI-QTOF
Ms type: MS2
Ion mode: NEGATIVE
Collision energy: 45V
Column name: Acquity UPLC Peptide BEH C18 column (50*2.1 mm; 1.7 um; 130A)(Waters Co.,Milford, MA, USA)
Retention time: 13.07228
Precursor type: [M+CH3COOH-H]-
Precursor m/z: 706.6343
m/z	relative intensity
235.202	2
237.221	84
239.24	2
250.252	3
255.233	2
263.234	64
266.249	18
268.263	13
281.255	2
298.273	7
336.319	1
344.05	1
347.329	106
347.366	1
363.364	5
364.356	81
365.341	58
366.371	1
367.362	1
378.374	2
388.363	2
389.15	5
390.374	374
392.39	7
404.353	3
405.359	1
406.367	50
408.379	3
408.405	1
571.584	1
598.545	3
598.586	52
614.552	12
614.588	44
616.576	30
616.606	77
616.649	3
628.51	10
628.553	3
628.595	4
644.589	3
646.521	14
646.542	4
646.612	999
647.601	2
706.635	5
