Mass spectrum: PC(18:1/8-HEPE); LC-ESI-QTOF; MS2
Name: PC(18:1/8-HEPE)
Class: Oxidized Phospholipid
Formula: C46H80NO9P
Exact mass: 822.12
SMILES: CCCCCCCC\C=C/CCCCCCCC(=O)OCC(COP([O-])(=O)OCC[N+](C)(C)C)OC(=O)CCC\C=C/CC(O)\C=C\C=C/C\C=C/C\C=C/CC
InChI: InChI=1S/C46H80NO9P/c1-6-8-10-12-14-16-18-19-20-21-22-24-26-28-33-37-45(49)53-41-44(42-55-57(51,52)54-40-39-47(3,4)5)56-46(50)38-34-30-29-32-36-43(48)35-31-27-25-23-17-15-13-11-9-7-2/h9,11,15,17,19-20,25,27,29,31-32,35,43-44,48H,6-8,10,12-14,16,18,21-24,26,28,30,33-34,36-42H2,1-5H3/b11-9-,17-15-,20-19-,27-25-,32-29-,35-31+
Instrument: Acquity UPLC Peptide BEH C18 column (50 x 2.1 mm; 1.7 um), Sciex TripleTOF5600
Instrument type: LC-ESI-QTOF
Ms type: MS2
Ion mode: NEGATIVE
Collision energy: 30-50
Precursor m/z: 880.5709227
Precursor type: [M+CH3COOH-H]-
m/z	relative intensity
127.072	29
155.0588	19
155.064	39
155.0658	19
155.0675	39
155.0693	51
155.0711	60
155.0728	39
155.0746	19
155.0763	19
163.147	19
168.0383	19
168.042	19
168.0438	29
168.0456	19
201.1701	19
224.0689	19
255.1901	19
255.1991	19
255.2013	29
255.2059	80
255.2081	90
255.2104	29
255.2126	80
255.2149	39
255.2171	90
255.2194	51
255.2216	51
255.2307	29
273.2184	19
280.3828	19
281.1725	19
281.2221	29
281.2269	19
281.2292	70
281.2316	111
281.234	230
281.2364	351
281.2387	752
281.2411	592
281.2434	795
281.2458	685
281.2482	613
281.2505	647
281.2529	553
281.2553	463
281.2577	181
281.26	201
281.2624	169
281.2647	150
281.2671	90
281.2695	29
281.2719	29
281.2742	29
281.279	19
281.2813	29
299.1823	29
299.1848	29
299.1872	60
299.1896	19
299.1921	51
299.1945	51
299.197	39
299.1994	80
299.2018	119
299.2043	60
299.2067	90
299.2092	129
299.2116	51
299.2141	51
299.2165	19
300.196	19
317.1931	29
317.1956	39
317.1981	51
317.2006	60
317.2032	129
317.2057	99
317.2082	129
317.2107	129
317.2132	129
317.2157	179
317.2182	138
317.2207	90
317.2232	109
317.2258	70
317.2283	19
317.2308	51
317.2333	19
455.0531	19
488.3242	19
506.3027	29
506.3059	51
506.3091	39
506.3123	19
506.3154	39
506.3186	60
506.3218	60
506.325	19
506.3281	29
506.3313	70
506.3345	51
506.3377	70
506.3409	29
506.3535	39
524.2573	19
524.2896	19
542.2783	19
542.2881	19
542.2914	29
542.2947	29
542.298	19
542.3046	19
542.3145	19
735.4357	19
735.4548	29
735.4586	39
735.4662	19
735.4701	19
735.4816	19
735.5045	19
735.5237	19
804.0178	19
804.0698	19
806.4561	19
806.4601	80
806.4641	51
806.4681	80
806.4722	101
806.4761	140
806.4802	70
806.4841	103
806.4882	255
806.4922	187
806.4962	269
806.5002	284
806.5042	499
806.5082	613
806.5122	573
806.5162	876
806.5202	742
806.5242	773
806.5283	849
806.5322	839
806.5363	935
806.5403	890
806.5443	999
806.5483	773
806.5523	913
806.5563	719
806.5603	701
806.5643	742
806.5683	530
806.5723	573
806.5763	347
806.5803	337
806.5844	265
806.5884	158
806.5923	103
806.5964	74
806.6003	64
806.6044	45
806.6084	39
806.6164	19
806.6525	19
807.5143	29
807.5183	19
807.5223	19
807.5303	29
807.5343	29
807.5383	19
807.5424	29
807.5464	51
807.5544	19
807.5583	29
807.5664	19
807.5704	19
809.974	19
820.5372	19
820.5452	19
820.5533	19
821.4832	19
821.4953	19
821.4994	19
821.5074	29
821.5115	19
821.5277	19
821.5358	19
880.4313	19
880.4983	19
880.5067	19
880.5193	19
880.5234	19
880.5318	39
880.536	90
880.5402	70
880.5444	39
880.5486	39
880.5527	70
880.5569	80
880.5612	99
880.5695	129
880.5737	109
880.5779	90
880.582	80
880.5862	129
880.5905	90
880.5946	80
880.5988	90
880.603	109
880.6072	39
880.6155	19
880.6198	51
880.6239	19
880.6323	19
880.6365	19
880.6449	19
