Mass spectrum: PE 42:10; LC-ESI-QTOF; MS2
Name: PE 42:10
Class: PE
Formula: C47H74NO8P
Exact mass: 812.0839999999998
SMILES: CC\C=C/C\C=C/C\C=C/C\C=C/CCCCCCC(=O)OCC(COP(O)(=O)OCCN)OC(=O)CC\C=C/C\C=C/C\C=C/C\C=C/C\C=C/C\C=C/CC
InChI: InChI=1S/C47H74NO8P/c1-3-5-7-9-11-13-15-17-19-21-22-24-26-28-30-32-34-36-38-40-47(50)56-45(44-55-57(51,52)54-42-41-48)43-53-46(49)39-37-35-33-31-29-27-25-23-20-18-16-14-12-10-8-6-4-2/h5-8,11-14,17-20,22,24-25,27-28,30,34,36,45H,3-4,9-10,15-16,21,23,26,29,31-33,35,37-44,48H2,1-2H3,(H,51,52)/b7-5-,8-6-,13-11-,14-12-,19-17-,20-18-,24-22-,27-25-,30-28-,36-34-
Instrument: AB Sciex TripleTOF 5600+ system (Q-TOF) equipped with a DuoSpray ion source
Instrument type: LC-ESI-QTOF
Ms type: MS2
Ion mode: NEGATIVE
Collision energy: 45V
Column name: Acquity UPLC Peptide BEH C18 column (50*2.1 mm; 1.7 um; 130A)(Waters Co.,Milford, MA, USA)
Retention time: 8.866551
Precursor type: [M-H]-
Precursor m/z: 810.5032
m/z	relative intensity
152.994	29
196.034	11
229.194	23
259.241	46
281.239	13
283.232	59
283.242	214
283.261	203
283.27	37
303.233	448
327.23	514
419.246	46
419.27	53
437.274	11
450.298	11
500.278	59
723.497	118
736.546	11
792.55	23
807.968	12
810.484	242
810.5	999
810.516	345
810.542	151
810.582	41
