Mass spectrum: PE 34:2; LC-ESI-QTOF; MS2
Name: PE 34:2
Class: PE
Formula: C39H74NO8P
Exact mass: 715.9959999999999
SMILES: CCCCCCCCCCCCCCCC(=O)OCC(COP(O)(=O)OCCN)OC(=O)CCCCCCC\C=C/C\C=C/CCCCC
InChI: InChI=1S/C39H74NO8P/c1-3-5-7-9-11-13-15-17-18-20-22-24-26-28-30-32-39(42)48-37(36-47-49(43,44)46-34-33-40)35-45-38(41)31-29-27-25-23-21-19-16-14-12-10-8-6-4-2/h11,13,17-18,37H,3-10,12,14-16,19-36,40H2,1-2H3,(H,43,44)/b13-11-,18-17-
Instrument: AB Sciex TripleTOF 5600+ system (Q-TOF) equipped with a DuoSpray ion source
Instrument type: LC-ESI-QTOF
Ms type: MS2
Ion mode: NEGATIVE
Collision energy: 45V
Column name: Acquity UPLC Peptide BEH C18 column (50*2.1 mm; 1.7 um; 130A)(Waters Co.,Milford, MA, USA)
Retention time: 9.478446
Precursor type: [M-H]-
Precursor m/z: 714.5043
m/z	relative intensity
78.958	4
122.002	1
140.009	11
152.995	0
178.023	1
196.028	3
196.039	12
214.044	1
253.218	0
254.427	1
254.443	1
255.231	280
261.221	2
278.349	2
278.361	3
278.391	0
279.131	0
279.191	1
279.231	999
280.706	0
378.233	0
391.227	0
434.262	10
434.291	1
452.272	45
452.323	0
458.262	4
458.289	0
476.266	3
476.293	1
550.243	0
657.572	0
712.254	1
713.547	0
714.258	0
714.331	0
714.499	258
714.574	1
714.807	0
715.524	0
