Mass spectrum: PE(18:0/14,15-EET); LC-ESI-QTOF; MS2
Name: PE(18:0/14,15-EET)
Class: Oxidized Phospholipid
Formula: C43H78NO9P
Exact mass: 784.071
SMILES: CCCCCCCCCCCCCCCCCC(=O)OCC(COP(O)(=O)OCCN)OC(=O)CCC\C=C/C\C=C/C\C=C/CC1OC1CCCCC
InChI: InChI=1S/C43H78NO9P/c1-3-5-7-8-9-10-11-12-13-14-15-19-22-25-29-33-42(45)49-37-39(38-51-54(47,48)50-36-35-44)52-43(46)34-30-26-23-20-17-16-18-21-24-28-32-41-40(53-41)31-27-6-4-2/h16,18,20,23-24,28,39-41H,3-15,17,19,21-22,25-27,29-38,44H2,1-2H3,(H,47,48)/b18-16-,23-20-,28-24-
Instrument: Acquity UPLC Peptide BEH C18 column (50 x 2.1 mm; 1.7 um), Sciex TripleTOF5600
Instrument type: LC-ESI-QTOF
Ms type: MS2
Ion mode: NEGATIVE
Collision energy: 30-50
Precursor m/z: 782.5341436
Precursor type: [M-H]-
m/z	relative intensity
78.96058	28
78.96183	43
113.0945	28
121.1078	43
140.0097	28
140.0114	28
140.0164	43
149.1324	28
152.9927	43
152.9944	28
152.9962	43
152.9979	84
152.9996	43
153.0014	43
153.0031	43
153.0049	28
153.0084	28
174.9767	28
175.1429	43
175.1447	56
175.1466	28
175.1485	28
175.1522	28
175.1541	43
196.0344	28
196.0364	28
196.0383	56
196.0403	28
196.0443	70
196.0462	28
203.1726	28
203.1766	28
205.9757	28
205.9879	28
219.1333	43
219.1354	98
219.1375	70
219.1396	70
219.1416	43
219.1479	56
219.15	43
219.1542	28
221.1451	28
223.7229	28
253.2107	28
253.2174	28
253.2242	28
255.2151	28
255.2196	43
255.2219	43
255.2242	84
255.2287	168
255.2309	84
255.2332	140
255.2354	127
255.2377	113
255.2399	127
255.2422	70
255.2444	56
255.2467	28
255.2489	28
255.2557	28
257.2139	28
257.2207	43
257.223	56
257.2252	28
257.2275	70
257.2297	28
257.232	43
257.2343	43
257.2365	28
257.2388	43
262.0039	56
262.0062	56
262.0108	28
262.0153	43
262.0176	28
262.0199	28
262.0222	28
275.2281	28
275.2305	28
275.2352	28
280.0123	28
280.0241	43
280.0264	28
280.0312	28
281.2343	43
281.2366	28
281.2414	70
281.2437	28
281.2461	56
281.2485	43
281.2532	43
281.2556	56
281.2579	43
281.2627	28
282.3712	29
282.3878	29
282.6154	29
283.1209	29
283.2183	29
283.242	29
283.2444	85
283.2468	84
283.2491	184
283.2515	230
283.2539	244
283.2563	314
283.2586	417
283.261	373
283.2634	694
283.2657	534
283.2681	464
283.2705	550
283.2729	260
283.2752	217
283.2776	129
283.28	43
283.2824	100
283.2848	58
283.2871	29
283.2895	15
283.2919	15
286.02	15
301.1994	28
301.2019	28
301.2043	70
301.2068	43
301.2092	56
301.2117	84
301.2141	56
301.2166	113
301.219	154
301.2215	98
301.2239	28
301.2264	84
301.2288	70
301.2313	43
301.2362	28
301.2386	43
317.221	29
318.2195	29
319.2044	85
319.2069	28
319.2094	114
319.2119	114
319.2145	186
319.217	213
319.2195	329
319.222	213
319.2245	329
319.2271	327
319.2296	282
319.2321	282
319.2346	255
319.2372	197
319.2397	171
319.2422	198
319.2447	85
319.2473	70
319.2498	43
391.2061	28
391.2116	28
391.2144	84
391.2172	28
391.22	43
391.2228	56
391.2284	84
391.2312	70
391.2339	28
391.2367	43
391.2395	84
391.2423	43
391.2479	28
417.2387	28
417.2416	28
419.2355	43
419.2529	43
419.2644	28
419.276	28
431.2051	56
431.2139	28
431.2168	28
431.249	28
457.2171	28
459.2498	28
462.2664	28
462.2937	28
462.3058	28
462.321	28
480.2824	28
480.2855	28
480.2917	43
480.2948	56
480.2979	28
480.3009	70
480.304	43
480.3071	56
480.3102	70
480.3133	113
480.3164	70
480.3195	28
480.3226	70
480.3257	127
480.3288	70
480.3319	43
480.335	28
480.3411	28
480.3442	28
516.2282	28
516.2314	28
516.2346	28
516.2474	28
518.2209	28
518.2241	28
518.2274	28
518.2305	28
518.2338	43
518.237	28
518.2402	84
518.2434	98
518.2466	98
518.2498	70
518.2531	98
518.2563	127
518.2595	56
518.2627	127
518.2659	43
518.2691	127
518.2755	56
518.2787	43
518.282	28
544.2551	43
544.2584	56
544.2617	43
544.265	43
544.2683	28
544.2749	28
544.2782	28
544.2848	28
546.2584	28
546.2617	28
546.265	28
546.2748	28
546.2781	28
546.2847	28
546.288	43
546.2913	28
546.2946	70
546.2979	56
546.3111	28
546.3177	28
695.4393	28
695.4429	28
695.4467	43
695.4541	28
695.4578	28
695.4615	28
695.4653	43
695.469	43
695.4727	28
695.4764	43
695.4802	70
695.4876	56
695.4913	43
695.4951	43
780.0702	28
780.1017	28
782.4286	28
782.4365	43
782.4404	100
782.4444	99
782.4483	70
782.4562	143
782.4601	43
782.4641	72
782.4681	106
782.472	193
782.476	361
782.4799	348
782.4838	458
782.4878	523
782.4918	538
782.4957	724
782.4996	568
782.5035	716
782.5075	910
782.5115	970
782.5154	999
782.5193	755
782.5233	816
782.5272	904
782.5312	705
782.5352	707
782.5391	612
782.543	579
782.547	570
782.551	579
782.5549	534
782.5588	443
782.5628	366
782.5667	337
782.5707	227
782.5746	164
782.5786	122
782.5825	59
782.5865	76
782.5904	105
782.5944	30
782.5983	61
782.6022	15
782.622	28
782.6339	15
783.4985	43
783.5024	28
783.5064	28
783.5104	43
783.5182	43
783.5538	28
