Mass spectrum: PC(18:2/13-HODE); LC-ESI-QTOF; MS2
Name: PC(18:2/13-HODE)
Class: Oxidized Phospholipid
Formula: C44H80NO9P
Exact mass: 798.098
SMILES: CCCCC\C=C/C\C=C/CCCCCCCC(=O)OCC(COP([O-])(=O)OCC[N+](C)(C)C)OC(=O)CCCCCCC\C=C/C=C/C(O)CCCCC
InChI: InChI=1S/C44H80NO9P/c1-6-8-10-11-12-13-14-15-16-17-18-21-24-27-31-35-43(47)51-39-42(40-53-55(49,50)52-38-37-45(3,4)5)54-44(48)36-32-28-25-22-19-20-23-26-30-34-41(46)33-29-9-7-2/h12-13,15-16,23,26,30,34,41-42,46H,6-11,14,17-22,24-25,27-29,31-33,35-40H2,1-5H3/b13-12-,16-15-,26-23-,34-30+
Instrument: Acquity UPLC Peptide BEH C18 column (50 x 2.1 mm; 1.7 um), Sciex TripleTOF5600
Instrument type: LC-ESI-QTOF
Ms type: MS2
Ion mode: NEGATIVE
Collision energy: 30-50
Precursor m/z: 856.5709227
Precursor type: [M+CH3COOH-H]-
m/z	relative intensity
141.0185	54
195.1319	54
195.1338	54
195.1358	54
195.1417	54
277.2126	54
277.2173	54
279.2155	54
279.2178	84
279.2202	138
279.2225	111
279.2249	221
279.2272	248
279.2296	359
279.232	302
279.2343	248
279.2367	359
279.239	359
279.2414	165
279.2437	221
279.2508	84
279.2532	54
279.2555	54
281.2397	54
281.242	54
281.2444	111
281.2491	84
293.2172	57
295.2066	84
295.2114	54
295.2138	248
295.2163	332
295.2187	470
295.2211	332
295.2235	500
295.226	526
295.2284	556
295.2308	667
295.2332	359
295.2357	221
295.2381	248
295.2405	167
295.243	57
295.2454	138
466.0828	54
502.2969	54
504.307	54
504.3197	54
506.5719	54
711.4357	54
711.447	138
711.4621	84
711.4847	84
780.0662	84
780.1135	57
780.1174	57
782.4719	84
782.4798	138
782.4838	138
782.4877	165
782.4916	140
782.4956	364
782.4996	281
782.5035	254
782.5074	537
782.5114	454
782.5153	454
782.5193	737
782.5233	767
782.5272	764
782.5311	659
782.5351	745
782.539	888
782.543	999
782.5469	972
782.5508	656
782.5548	915
782.5588	284
782.5627	429
782.5667	340
782.5706	313
782.5745	200
782.5785	86
782.5825	224
782.5864	194
782.5903	111
782.5943	84
782.6022	57
797.5062	54
856.5327	54
856.545	54
856.5574	111
856.5739	54
856.5781	84
856.5822	84
856.6028	54
856.607	84
