Mass spectrum: PC 38:5; LC-ESI-QTOF; MS2
Name: PC 38:5
Class: PC
Formula: C46H82NO8P
Exact mass: 808.137
SMILES: CCCCCCCC\C=C/CCCCCCCC(=O)OCC(COP([O-])(=O)OCC[N+](C)(C)C)OC(=O)CCCCCC\C=C/C\C=C/C\C=C/C\C=C/CC
InChI: InChI=1S/C46H82NO8P/c1-6-8-10-12-14-16-18-20-22-23-25-27-29-31-33-35-37-39-46(49)55-44(43-54-56(50,51)53-41-40-47(3,4)5)42-52-45(48)38-36-34-32-30-28-26-24-21-19-17-15-13-11-9-7-2/h8,10,14,16,20-22,24-25,27,44H,6-7,9,11-13,15,17-19,23,26,28-43H2,1-5H3/b10-8-,16-14-,22-20-,24-21-,27-25-
Instrument: AB Sciex TripleTOF 5600+ system (Q-TOF) equipped with a DuoSpray ion source
Instrument type: LC-ESI-QTOF
Ms type: MS2
Ion mode: NEGATIVE
Collision energy: 45V
Column name: Acquity UPLC Peptide BEH C18 column (50*2.1 mm; 1.7 um; 130A)(Waters Co.,Milford, MA, USA)
Retention time: 9.39641
Precursor type: [M+CH3COOH-H]-
Precursor m/z: 866.5858
m/z	relative intensity
168.044	15
205.197	2
224.061	5
224.072	11
231.205	5
231.218	3
242.075	2
245.163	2
251.196	1
254.433	4
255.232	241
259.241	6
281.247	54
283.263	2
285.258	31
285.299	1
301.217	2
303.203	5
303.23	123
311.239	3
327.232	1
328.217	6
329.246	561
391.225	1
462.295	14
474.277	1
480.301	55
480.32	27
488.304	2
495.275	1
506.316	15
510.289	1
528.311	1
536.305	3
536.329	5
537.244	0
554.308	3
554.332	3
580.956	0
716.523	1
721.472	3
738.515	1
790.036	3
790.101	1
791.549	1
792.458	2
792.549	999
793.517	3
793.561	2
807.471	1
807.503	2
807.53	6
866.495	2
866.545	19
866.586	74
866.622	14
