Mass spectrum: Cer[AP] t42:0; LC-ESI-QTOF; MS2
Name: Cer[AP] t42:0
Class: Cer_AP
Formula: C42H85NO5
Exact mass: 684.144
SMILES: CCCCCCCCCCCCCCCCCCCCCCC(O)C(=O)NC(CO)C(O)C(O)CCCCCCCCCCCCCC
InChI: InChI=1S/C42H85NO5/c1-3-5-7-9-11-13-15-17-18-19-20-21-22-23-24-26-28-30-32-34-36-40(46)42(48)43-38(37-44)41(47)39(45)35-33-31-29-27-25-16-14-12-10-8-6-4-2/h38-41,44-47H,3-37H2,1-2H3,(H,43,48)
Instrument: AB Sciex TripleTOF 5600+ system (Q-TOF) equipped with a DuoSpray ion source
Instrument type: LC-ESI-QTOF
Ms type: MS2
Ion mode: NEGATIVE
Collision energy: 45V
Column name: Acquity UPLC Peptide BEH C18 column (50*2.1 mm; 1.7 um; 130A)(Waters Co.,Milford, MA, USA)
Retention time: 13.1006
Precursor type: [M+CH3COOH-H]-
Precursor m/z: 742.6535
m/z	relative intensity
88.037	1
225.219	1
239.24	1
251.229	0
253.222	3
255.232	23
267.231	22
268.263	1
269.238	0
279.234	2
280.264	3
281.253	1
284.258	9
298.272	1
308.255	2
316.284	4
335.35	1
337.345	65
351.363	2
365.324	1
365.342	9
378.367	4
379.356	2
382.367	23
383.35	125
390.366	5
398.356	1
408.383	16
424.377	5
426.391	72
438.392	55
588.594	0
616.603	3
618.604	0
628.59	0
632.598	0
634.596	0
646.59	4
646.614	5
646.645	1
650.608	6
652.625	3
664.621	15
664.65	1
680.487	3
680.543	1
681.671	1
682.362	0
682.632	999
682.84	0
