Mass spectrum: PE(16:1e/17-HDoHE); LC-ESI-QTOF; MS2
Name: PE(16:1e/17-HDoHE)
Class: Oxidized Phospholipid
Formula: C43H74NO8P
Exact mass: 764.04
SMILES: CCCCCCCCCCCCCC\C=C/OCC(COP(O)(=O)OCCN)OC(=O)CC\C=C/C\C=C/C\C=C/C\C=C/C=C\C(O)C\C=C/CC
InChI: InChI=1S/C43H74NO8P/c1-3-5-7-8-9-10-11-12-16-19-22-25-28-32-37-49-39-42(40-51-53(47,48)50-38-36-44)52-43(46)35-31-27-24-21-18-15-13-14-17-20-23-26-30-34-41(45)33-29-6-4-2/h6,14-15,17-18,23-24,26-27,29-30,32,34,37,41-42,45H,3-5,7-13,16,19-22,25,28,31,33,35-36,38-40,44H2,1-2H3,(H,47,48)/b17-14-,18-15-,26-23-,27-24-,29-6-,34-30-,37-32-
Instrument: Acquity UPLC Peptide BEH C18 column (50 x 2.1 mm; 1.7 um), Sciex TripleTOF5600
Instrument type: LC-ESI-QTOF
Ms type: MS2
Ion mode: NEGATIVE
Collision energy: 30-50
Precursor m/z: 762.5079288
Precursor type: [M-H]-
m/z	relative intensity
78.9553	7
78.9578	11
78.95906	15
78.96031	11
78.96282	11
78.96407	15
78.96533	11
78.96658	7
93.06941	7
93.07077	7
95.08525	18
95.08937	7
95.09213	11
97.06707	7
97.06846	7
107.0856	7
107.0885	15
107.09	11
107.0929	7
111.082	15
111.0835	15
117.0718	7
119.048	7
119.0803	7
119.088	7
119.0895	11
121.0655	7
121.067	18
121.095	11
121.0996	18
121.1012	7
121.1043	7
121.1059	11
133.0965	15
133.0997	11
133.103	7
133.1046	11
133.1128	7
135.1128	7
135.1177	11
135.1193	7
137.1293	7
140.0027	15
140.0043	7
140.006	11
140.0077	18
140.0093	37
140.011	30
140.0127	44
140.0143	30
140.016	18
140.0177	22
140.021	7
140.0277	7
147.1092	11
147.1109	7
147.1126	11
147.116	41
147.1177	15
147.1194	15
147.1212	15
147.1229	11
147.1246	15
147.128	7
149.1303	7
149.132	7
149.1355	7
151.082	7
152.9992	7
159.1134	7
159.1152	11
161.1346	7
163.0729	7
163.0783	11
166.0285	7
167.1102	11
173.126	7
173.1278	15
173.1297	15
173.1315	18
173.1334	26
173.1353	11
173.1371	11
173.139	18
173.1408	7
173.1427	11
173.1464	7
175.1424	7
175.1443	15
175.1461	7
175.148	7
175.1555	7
179.0347	7
179.0366	15
179.0385	7
179.0441	7
180.0424	15
180.0481	7
181.1269	7
185.1232	7
185.1328	7
187.1541	7
189.1534	11
189.1592	11
189.1611	11
189.1631	11
189.165	11
189.1669	22
189.1708	7
189.1728	7
189.1786	7
191.0989	7
191.1047	11
191.1125	7
196.028	11
196.0299	37
196.0319	59
196.0339	52
196.0359	41
196.0378	55
196.0398	41
196.0418	33
196.0438	33
196.0457	7
196.0477	11
196.0497	11
196.0517	7
196.0556	7
199.1477	8
200.554	8
200.556	8
201.1219	8
201.1439	4
201.1479	19
201.1499	26
201.1519	42
201.1539	42
201.1559	84
201.1579	84
201.1599	137
201.1619	172
201.1639	202
201.1659	171
201.1679	152
201.1699	102
201.1719	72
201.1739	46
201.1759	15
201.1779	11
201.1799	19
201.1819	11
201.7266	4
201.7446	4
203.1097	8
203.5383	4
207.1331	7
219.139	18
227.165	11
227.1714	7
227.1735	30
227.1756	30
227.1777	26
227.1799	22
227.182	37
227.1841	30
227.1862	22
227.1884	15
227.1905	15
227.2011	11
229.1449	11
229.1492	11
229.1513	22
229.1534	18
229.1556	11
229.1577	41
229.1598	26
229.162	33
229.1641	26
229.1662	22
229.1684	26
229.1705	18
229.1748	7
229.1769	11
231.1377	11
231.1398	7
231.142	7
231.1484	7
239.2191	7
239.2235	11
239.2257	15
239.2279	22
239.2301	22
239.2322	22
239.2344	33
239.2366	30
239.2388	26
239.241	22
239.2431	22
239.2453	18
239.2497	11
239.2519	7
241.161	8
243.2096	7
243.2118	11
243.2228	8
244.3971	8
244.4015	8
244.9996	8
245.1322	19
245.1344	11
245.1366	19
245.1388	38
245.141	38
245.1432	56
245.1454	56
245.1476	86
245.1499	129
245.1521	118
245.1543	102
245.1565	148
245.1587	148
245.1609	99
245.1631	84
245.1653	53
245.1675	53
245.1697	26
245.1742	11
245.1786	15
245.1852	7
245.1896	8
245.194	7
245.1985	4
246.1472	7
246.1516	7
246.1671	11
247.1599	7
247.1621	11
247.1643	11
247.1665	22
247.1688	15
247.171	15
247.1732	7
247.1754	18
247.1821	11
254.2214	7
255.1401	7
265.1783	7
273.1341	7
273.1388	15
273.1411	22
273.1458	11
273.1481	7
273.1505	26
273.1528	18
273.1551	11
273.1575	15
274.1448	11
274.1471	11
274.1494	37
274.1518	33
274.1541	48
274.1565	41
274.1588	37
274.1611	67
274.1635	52
274.1658	15
274.1681	7
274.1728	11
274.1798	16
274.1822	7
280.3564	8
281.1248	8
281.1934	8
281.2005	7
281.2029	11
281.2052	16
281.2076	19
281.2099	27
281.2123	62
281.2147	109
281.217	109
281.2194	216
281.2218	239
281.2242	248
281.2265	232
281.2289	229
281.2312	156
281.2336	200
281.236	121
281.2383	86
281.2407	63
281.2431	39
281.2455	31
281.2478	31
281.2502	24
281.2525	12
281.2549	8
281.2573	12
281.2596	4
281.3401	4
282.2212	4
282.2449	8
282.2496	7
282.252	7
283.3696	7
297.2108	7
299.2185	11
299.221	15
299.2259	18
299.2283	18
299.2307	18
299.2332	52
299.2356	18
299.238	15
299.2405	44
299.243	30
299.2454	37
299.2478	18
299.2503	26
299.2527	11
299.2551	7
299.2576	11
299.26	7
307.2083	8
315.2356	8
315.2481	8
324.2425	8
325.1832	15
325.1908	8
325.1934	15
325.1959	30
325.1985	30
325.201	49
325.2036	61
325.2061	83
325.2086	137
325.2112	122
325.2137	95
325.2162	133
325.2188	156
325.2213	114
325.2239	141
325.2264	92
325.229	54
325.2315	46
325.2341	30
325.2366	19
325.2392	8
325.2443	8
325.2468	8
325.2493	11
325.3918	4
342.1459	11
342.1667	7
342.2451	8
342.4174	8
343.0547	8
343.1514	8
343.1697	8
343.1776	8
343.1932	20
343.1959	12
343.1985	28
343.2011	29
343.2037	44
343.2063	69
343.2089	90
343.2115	176
343.2141	247
343.2168	318
343.2194	375
343.222	410
343.2246	526
343.2272	406
343.2298	550
343.2325	520
343.235	410
343.2377	335
343.2403	248
343.2429	191
343.2455	96
343.2481	112
343.2508	80
343.2534	51
343.256	12
343.2586	13
343.2612	29
343.2638	4
343.269	4
343.2717	4
343.3187	4
343.5985	4
343.7581	4
344.2318	7
344.4438	7
375.2109	11
375.2246	7
375.2273	18
375.2301	11
375.2328	7
375.2355	26
375.2465	7
409.2441	8
416.99	8
417.2667	8
418.1779	8
418.2443	41
418.2472	15
418.2501	30
418.253	30
418.2558	60
418.2587	98
418.2616	83
418.2645	76
418.2674	95
418.2703	110
418.2732	98
418.276	87
418.2789	137
418.2818	118
418.2847	110
418.2876	38
418.2905	42
418.2933	30
418.2962	11
418.302	15
418.3049	7
418.3078	8
418.3135	11
428.3931	8
434.2714	7
434.9156	7
434.9303	12
435.6073	8
435.8901	8
436.0433	8
436.2318	8
436.2348	15
436.2377	8
436.2407	11
436.2437	12
436.2466	8
436.2495	31
436.2525	39
436.2554	67
436.2584	92
436.2613	100
436.2643	162
436.2672	191
436.2702	245
436.2731	319
436.2761	327
436.279	341
436.282	346
436.2849	339
436.2878	352
436.2908	314
436.2937	302
436.2967	245
436.2996	228
436.3026	126
436.3055	130
436.3085	73
436.3114	69
436.3144	24
436.3173	25
436.3203	4
436.3232	4
436.3262	16
436.3291	12
436.4794	4
436.8981	4
437.022	4
437.2019	4
437.2787	7
437.2993	7
437.8896	4
570.3466	7
610.3622	7
610.3867	7
610.3936	7
610.411	7
630.5174	7
664.4318	7
664.4391	7
664.4609	7
675.4756	7
688.475	11
688.5046	11
688.5195	11
688.5306	11
688.538	7
688.5417	11
688.5491	22
688.5528	15
688.5565	26
688.5602	11
688.5676	7
688.5713	11
688.575	22
693.4375	7
693.4487	7
760.0885	11
760.0924	11
760.0963	7
760.1079	18
760.1157	11
760.1274	7
760.1429	11
760.5009	7
761.7621	7
762.3035	7
762.4243	7
762.4438	8
762.4476	13
762.4515	40
762.4554	31
762.4594	31
762.4633	131
762.4671	114
762.471	182
762.4749	220
762.4788	295
762.4827	382
762.4866	440
762.4905	526
762.4944	703
762.4983	732
762.5022	788
762.5061	861
762.51	999
762.5139	917
762.5178	876
762.5217	971
762.5256	971
762.5295	664
762.5334	550
762.5372	449
762.5411	432
762.545	294
762.549	183
762.5529	139
762.5568	72
762.5607	47
762.5645	52
762.5684	34
762.5723	14
762.5762	14
762.5801	10
762.584	15
762.5918	8
762.5996	7
762.6269	5
762.8295	5
763.3713	9
763.4376	4
763.4727	7
763.4882	7
763.4921	18
763.496	18
763.4999	18
763.5038	15
763.5078	11
763.5117	11
763.5156	15
763.5195	15
763.5233	26
763.5272	11
763.5311	18
763.535	15
763.5389	15
763.5428	15
763.5468	22
763.5507	11
763.5701	7
764.0225	7
