Mass spectrum: Cer[AS] d38:1; LC-ESI-QTOF; MS2
Name: Cer[AS] d38:1
Class: Cer_AS
Formula: C38H75NO4
Exact mass: 610.0209999999998
SMILES: CCCCCCCCCCCCCCCCCCC(O)C(=O)NC(CO)C(O)\C=C\CCCCCCCCCCCCC
InChI: InChI=1S/C38H75NO4/c1-3-5-7-9-11-13-15-17-18-19-21-23-25-27-29-31-33-37(42)38(43)39-35(34-40)36(41)32-30-28-26-24-22-20-16-14-12-10-8-6-4-2/h30,32,35-37,40-42H,3-29,31,33-34H2,1-2H3,(H,39,43)/b32-30+
Instrument: AB Sciex TripleTOF 5600+ system (Q-TOF) equipped with a DuoSpray ion source
Instrument type: LC-ESI-QTOF
Ms type: MS2
Ion mode: NEGATIVE
Collision energy: 45V
Column name: Acquity UPLC Peptide BEH C18 column (50*2.1 mm; 1.7 um; 130A)(Waters Co.,Milford, MA, USA)
Retention time: 11.49298
Precursor type: [M+CH3COOH-H]-
Precursor m/z: 668.582
m/z	relative intensity
176.986	11
237.22	19
239.242	17
250.252	22
266.254	29
268.262	60
281.254	11
281.284	134
290.246	11
309.271	11
309.285	48
326.308	45
327.278	11
327.295	41
352.31	19
352.323	70
368.316	31
370.337	11
542.539	7
560.519	19
560.527	32
560.538	23
560.554	20
560.565	15
564.557	24
576.526	29
578.534	9
590.553	61
608.521	85
608.555	999
608.57	360
608.581	193
