Mass spectrum: PE(18:1e/11,12-EET); LC-ESI-QTOF; MS2
Name: PE(18:1e/11,12-EET)
Class: Oxidized Phospholipid
Formula: C43H78NO8P
Exact mass: 768.072
SMILES: CCCCCCCCCCCCCCCC\C=C/OCC(COP(O)(=O)OCCN)OC(=O)CCC\C=C/C\C=C/CC1OC1C\C=C/CCCCC
InChI: InChI=1S/C43H78NO8P/c1-3-5-7-9-11-12-13-14-15-16-17-18-19-23-27-31-36-48-38-40(39-50-53(46,47)49-37-35-44)51-43(45)34-30-26-22-20-21-25-29-33-42-41(52-42)32-28-24-10-8-6-4-2/h20,22,24-25,28-29,31,36,40-42H,3-19,21,23,26-27,30,32-35,37-39,44H2,1-2H3,(H,46,47)/b22-20-,28-24-,29-25-,36-31-
Instrument: Acquity UPLC Peptide BEH C18 column (50 x 2.1 mm; 1.7 um), Sciex TripleTOF5600
Instrument type: LC-ESI-QTOF
Ms type: MS2
Ion mode: NEGATIVE
Collision energy: 30-50
Precursor m/z: 766.539229
Precursor type: [M-H]-
m/z	relative intensity
78.95746	9
78.95872	14
78.95997	18
78.96122	18
78.96248	18
78.96373	14
78.96624	9
107.0838	14
107.0897	14
107.0926	9
108.054	9
133.1011	9
134.0698	9
135.1092	9
135.1108	9
135.1125	18
135.1141	9
135.1174	23
135.119	9
135.1207	18
139.1073	9
139.1156	9
140.004	9
140.0057	14
140.0074	32
140.009	18
140.0107	18
140.0124	23
140.0157	14
140.0174	27
140.0191	14
140.0207	9
145.11	9
149.0887	9
149.0904	18
149.0921	18
149.0939	14
149.099	18
149.1008	14
149.1025	23
149.1042	9
151.1129	9
151.1546	9
157.3207	9
163.1033	18
163.1051	9
163.1069	14
163.1087	9
163.1105	32
163.1123	27
163.1141	18
163.1159	18
163.1177	23
163.1195	14
163.1231	9
165.0933	9
165.1277	14
165.1604	9
166.0265	9
166.1228	9
166.5905	9
166.6106	9
167.0881	18
167.0954	62
167.0972	86
167.099	105
167.1009	105
167.1027	234
167.1045	236
167.1063	257
167.1082	272
167.11	277
167.1118	177
167.1136	148
167.1154	67
167.1173	67
167.1191	38
167.1209	28
167.1227	19
167.1246	5
167.1282	14
167.1355	5
167.5115	5
167.8605	5
169.1224	14
177.0914	9
179.0326	14
179.0401	9
179.042	14
179.0892	14
179.0911	14
179.0949	46
179.0968	27
179.0987	37
179.1006	50
179.1024	92
179.1043	106
179.1062	97
179.1081	120
179.11	128
179.1119	110
179.1138	82
179.1157	14
179.1176	28
179.1194	14
179.1213	14
179.1232	9
179.1308	9
180.1084	9
180.1103	9
180.1141	9
180.1198	9
180.1217	14
180.1236	9
195.0945	14
195.0964	14
195.0984	9
196.0258	18
196.0278	27
196.0298	23
196.0317	41
196.0337	32
196.0357	37
196.0376	50
196.0396	41
196.0416	45
196.0436	27
196.0455	23
196.0475	14
196.0515	14
196.0535	9
203.1679	9
203.1719	9
203.1739	9
203.1799	27
203.1819	9
203.184	9
203.186	18
203.19	9
203.2021	9
207.0923	14
207.0964	14
207.0984	18
207.1004	23
207.1024	14
207.1065	9
207.1085	18
208.0966	9
208.1006	32
208.1027	32
208.1047	68
208.1068	77
208.1088	118
208.1108	59
208.1129	73
208.1149	68
208.1169	37
208.119	27
208.121	14
208.123	14
227.1946	9
227.201	9
229.196	9
229.1982	9
253.201	23
253.2033	14
253.2055	14
253.2078	9
253.21	23
253.2123	27
253.2145	54
253.2168	23
253.219	27
253.2213	18
253.2235	23
253.2257	18
253.228	23
253.2325	9
254.2236	9
254.2281	14
255.2167	14
255.2235	27
255.2257	23
255.228	27
255.2302	18
255.2325	14
255.2348	37
255.237	41
255.2393	23
255.2438	9
255.246	9
255.2528	9
255.5798	9
257.2087	14
257.211	14
257.2132	23
257.2155	59
257.2177	59
257.22	41
257.2223	77
257.2245	54
257.2268	73
257.2291	82
257.2313	64
257.2336	37
257.2359	73
257.2381	23
257.2404	14
257.2426	14
257.2449	9
257.2472	18
259.2311	9
267.2502	9
267.2525	9
267.2571	18
267.2594	18
267.2617	27
267.264	32
267.2663	23
267.2686	18
267.2709	54
267.2733	37
267.2755	27
267.2779	23
267.2802	23
267.2825	9
267.2848	9
267.2871	9
275.2041	9
275.2087	9
275.2251	9
275.2275	9
275.2298	14
275.2321	14
275.2345	23
275.2368	45
275.2392	14
275.2415	14
275.2439	23
275.2462	37
275.2509	14
277.2137	9
277.2184	27
277.2208	14
277.2255	14
277.2278	9
279.2212	9
281.2336	14
281.236	9
281.2407	9
281.2431	27
281.2455	27
281.2478	41
281.2502	18
281.2525	23
281.2549	18
281.2573	37
281.262	9
282.252	9
283.1938	14
283.2224	9
283.2485	9
283.2532	18
283.258	9
283.2603	18
283.2627	14
283.2651	23
283.2675	14
283.2698	14
283.2722	9
283.2793	9
283.2817	9
284.2586	9
291.2185	9
291.2257	9
291.2281	14
291.2329	14
291.2378	9
291.2402	14
291.2426	14
299.1917	9
300.9833	9
301.1939	9
301.1964	18
301.1988	18
301.2012	51
301.2037	60
301.2061	79
301.2086	134
301.211	102
301.2135	115
301.2159	121
301.2184	153
301.2208	148
301.2233	120
301.2257	65
301.2282	64
301.2306	55
301.2331	23
301.2355	19
301.2404	18
301.2429	23
302.1938	5
302.2085	9
302.2159	9
302.2184	9
303.2175	18
303.2199	14
303.2224	23
303.2249	27
303.2273	18
303.2298	27
303.2322	37
303.2347	27
303.2372	37
303.2396	32
303.2421	32
303.2445	9
303.2494	9
304.2281	9
305.2355	9
305.2429	23
305.2454	9
305.2503	14
305.2528	37
305.2552	18
305.2577	9
311.7632	10
318.2113	9
318.2289	10
318.2314	9
318.2642	10
318.9744	10
319.1861	10
319.1962	5
319.1987	5
319.2012	51
319.2038	52
319.2063	71
319.2088	107
319.2113	221
319.2138	304
319.2164	376
319.2189	509
319.2214	543
319.2239	746
319.2264	709
319.229	735
319.2315	688
319.234	603
319.2365	465
319.239	328
319.2416	317
319.2441	210
319.2466	145
319.2491	120
319.2516	42
319.2542	31
319.2567	26
319.2592	5
319.2617	30
319.2643	15
319.2668	10
319.4887	5
319.799	5
320.2255	10
320.2331	9
320.2382	9
320.2432	14
320.2483	9
320.9784	9
398.7064	9
403.2269	14
403.2411	9
403.2495	27
403.2524	9
403.2609	18
403.2637	32
403.2665	14
403.2694	37
430.0158	9
432.2923	9
444.9215	9
446.2708	23
446.2738	14
446.2767	28
446.2797	64
446.2827	97
446.2857	73
446.2887	60
446.2916	69
446.2946	79
446.2976	98
446.3006	148
446.3036	79
446.3065	130
446.3095	93
446.3125	121
446.3155	121
446.3185	102
446.3214	79
446.3244	61
446.3274	28
446.3304	14
446.3334	14
446.3364	14
446.3423	14
448.6406	9
462.2993	9
462.8607	9
463.9785	9
464.097	10
464.1365	9
464.2672	19
464.2703	19
464.2763	24
464.2794	34
464.2824	34
464.2855	39
464.2885	72
464.2915	98
464.2946	122
464.2976	182
464.3007	271
464.3037	329
464.3067	268
464.3098	328
464.3128	440
464.3159	437
464.3189	393
464.3219	359
464.325	349
464.328	243
464.3311	220
464.3341	199
464.3371	175
464.3402	114
464.3432	70
464.3463	40
464.3493	20
464.3524	19
464.3554	15
464.3584	20
464.3676	5
464.3736	5
464.5044	5
465.3045	9
465.3167	9
470.2268	5
692.525	9
692.5324	14
692.5361	14
692.5399	9
692.5473	9
692.5584	9
698.5458	9
716.4813	9
716.4851	18
716.4889	14
716.4927	23
716.4965	9
716.5002	23
716.504	9
716.5078	37
716.5115	23
716.5153	45
716.5191	18
716.5229	27
716.5267	14
716.5305	9
716.5342	27
716.538	18
716.5417	18
716.5455	27
716.5493	14
716.5531	18
716.5569	18
716.5607	27
716.5682	23
716.5757	9
764.1097	9
764.1176	9
764.1331	14
764.137	14
764.1409	9
764.1566	9
764.1877	9
764.1917	9
766.2642	10
766.4634	9
766.4752	9
766.4829	21
766.4869	6
766.4907	37
766.4947	82
766.4986	155
766.5024	192
766.5064	221
766.5103	260
766.5142	272
766.5181	440
766.522	598
766.5259	785
766.5298	777
766.5337	897
766.5377	920
766.5416	916
766.5454	843
766.5494	990
766.5533	999
766.5572	857
766.5611	869
766.565	801
766.5689	468
766.5728	449
766.5767	346
766.5806	230
766.5845	194
766.5884	133
766.5923	98
766.5963	52
766.6002	23
766.6041	46
766.608	17
766.6119	23
766.6158	12
766.6197	11
766.6236	11
766.6314	11
766.6978	6
766.9244	6
766.9635	6
767.5028	9
767.5224	14
767.5263	23
767.5302	18
767.5341	14
767.538	18
767.5419	18
767.5458	32
767.5497	18
767.5536	9
767.5576	27
767.5654	9
767.5693	9
767.5771	9
