Mass spectrum: PC(16:1/5-HETE); LC-ESI-QTOF; MS2
Name: PC(16:1/5-HETE)
Class: Oxidized Phospholipid
Formula: C44H78NO9P
Exact mass: 796.082
SMILES: CCCCCC\C=C/CCCCCCCC(=O)OCC(COP([O-])(=O)OCC[N+](C)(C)C)OC(=O)CCCC(O)\C=C\C=C/C\C=C/C\C=C/CCCCC
InChI: InChI=1S/C44H78NO9P/c1-6-8-10-12-14-16-18-20-22-24-26-28-30-33-41(46)34-32-36-44(48)54-42(40-53-55(49,50)52-38-37-45(3,4)5)39-51-43(47)35-31-29-27-25-23-21-19-17-15-13-11-9-7-2/h14,16-17,19-20,22,26,28,30,33,41-42,46H,6-13,15,18,21,23-25,27,29,31-32,34-40H2,1-5H3/b16-14-,19-17-,22-20-,28-26-,33-30+
Instrument: Acquity UPLC Peptide BEH C18 column (50 x 2.1 mm; 1.7 um), Sciex TripleTOF5600
Instrument type: LC-ESI-QTOF
Ms type: MS2
Ion mode: NEGATIVE
Collision energy: 30-50
Precursor m/z: 854.5552726
Precursor type: [M+CH3COOH-H]-
m/z	relative intensity
105.7263	54
115.0367	54
115.0397	54
115.0458	54
203.1743	54
224.0689	54
253.2014	54
253.2036	83
253.2081	164
253.2104	494
253.2126	274
253.2149	411
253.2171	438
253.2193	411
253.2216	220
253.2238	164
253.2261	110
253.2283	110
253.2306	110
253.2328	83
253.2351	83
253.2373	54
257.2226	110
257.2271	137
257.2294	110
257.2317	54
257.2339	54
257.2362	83
267.2297	54
283.263	83
283.2701	83
301.1966	54
301.2015	54
301.204	110
301.2064	83
301.2089	137
301.2113	110
301.2138	191
301.2162	137
301.2187	137
301.2211	110
301.2236	83
301.226	54
301.2285	83
319.209	110
319.2116	54
319.2141	164
319.2166	110
319.2191	191
319.2216	137
319.2242	191
319.2267	164
319.2292	301
319.2318	110
319.2343	164
319.2444	137
319.2494	54
478.271	54
478.2741	54
478.2802	137
478.2833	191
478.2864	110
478.2895	110
478.2957	110
478.2988	191
478.3018	110
478.3049	110
478.3111	137
478.3142	54
478.3173	54
478.3389	83
480.3097	54
544.3303	54
769.5283	54
772.7451	56
780.4597	83
780.4676	191
780.4715	166
780.4755	169
780.4794	113
780.4833	250
780.4872	422
780.4912	363
780.4952	424
780.4991	739
780.5031	371
780.507	935
780.5109	857
780.5148	999
780.5188	685
780.5228	884
780.5267	800
780.5306	999
780.5346	969
780.5385	771
780.5425	540
780.5464	798
780.5504	341
780.5543	457
780.5582	172
780.5622	199
780.5661	368
780.5701	252
780.574	86
780.5819	54
780.5858	83
780.5977	110
781.4928	54
781.5361	54
854.426	54
854.4713	54
854.4961	54
854.5126	54
854.5208	164
854.5332	110
854.5373	54
854.5456	83
854.5538	164
854.5579	83
854.5662	83
854.5745	137
854.5786	110
854.5868	54
854.5909	83
854.5951	83
854.6116	54
