Mass spectrum: PC(18:0e/20-HDoHE); LC-ESI-QTOF; MS2
Name: PC(18:0e/20-HDoHE)
Class: Oxidized Phospholipid
Formula: C48H86NO8P
Exact mass: 836.191
SMILES: CCCCCCCCCCCCCCCCCCOCC(COP([O-])(=O)OCC[N+](C)(C)C)OC(=O)CC\C=C/C\C=C/C\C=C/C\C=C/C\C=C/C=C/C(O)CC
InChI: InChI=1S/C48H86NO8P/c1-6-8-9-10-11-12-13-14-15-20-23-26-29-32-35-38-42-54-44-47(45-56-58(52,53)55-43-41-49(3,4)5)57-48(51)40-37-34-31-28-25-22-19-17-16-18-21-24-27-30-33-36-39-46(50)7-2/h16-17,21-22,24-25,30-31,33-34,36,39,46-47,50H,6-15,18-20,23,26-29,32,35,37-38,40-45H2,1-5H3/b17-16-,24-21-,25-22-,33-30-,34-31-,39-36+
Instrument: Acquity UPLC Peptide BEH C18 column (50 x 2.1 mm; 1.7 um), Sciex TripleTOF5600
Instrument type: LC-ESI-QTOF
Ms type: MS2
Ion mode: NEGATIVE
Collision energy: 30-50
Precursor m/z: 894.6229582
Precursor type: [M+CH3COOH-H]-
m/z	relative intensity
216.9875	40
216.9896	40
216.9999	40
217.0061	40
241.1877	40
241.1964	40
241.1986	40
241.203	40
281.2113	40
281.2137	40
281.216	40
281.2184	40
281.2207	80
281.2231	40
281.2254	40
281.2278	80
281.2301	80
285.1741	40
285.1836	40
285.1859	40
285.1931	40
287.2003	40
287.2051	40
299.2343	80
299.244	40
325.2005	40
325.2081	40
325.2106	161
325.2132	80
325.2233	40
325.2258	40
325.2309	80
343.2058	40
343.211	40
343.2137	121
343.2188	121
343.2214	80
343.224	161
343.2266	80
343.2292	121
343.2318	40
343.2344	235
343.2396	40
453.93	40
453.9359	40
464.7723	80
469.2277	40
469.2368	40
476.324	40
476.3485	80
494.3088	40
494.3555	40
494.3587	80
494.3618	80
494.368	40
494.3711	121
494.3774	40
749.5066	40
749.5104	40
749.5181	80
749.5258	40
749.5335	40
749.5374	40
749.5412	80
775.4848	40
775.5004	40
775.5043	40
775.5161	40
817.9712	40
817.9792	40
817.9913	40
818.0193	40
820.5203	40
820.5404	80
820.5444	121
820.5485	121
820.5525	161
820.5565	121
820.5605	282
820.5645	208
820.5685	409
820.5726	365
820.5766	597
820.5806	999
820.5846	925
820.5886	965
820.5927	694
820.5967	858
820.6007	556
820.6047	694
820.6087	198
820.6127	312
820.6168	225
820.6208	40
820.6248	80
820.6288	218
820.6328	40
820.6368	40
820.6409	80
820.6449	40
820.6931	40
833.5765	40
833.613	40
834.577	40
834.5811	121
834.5851	40
834.5892	40
834.6094	40
834.6135	40
834.6176	40
835.5335	40
835.5376	40
835.5497	40
835.5538	40
835.5741	40
835.5903	40
881.5022	40
881.5063	40
881.523	40
894.4457	40
894.5086	80
894.5128	80
894.5505	40
894.5799	40
894.5841	40
894.5883	80
894.5925	40
894.5967	40
894.6009	40
894.605	121
894.6093	161
894.6135	121
894.6177	121
894.6218	292
894.626	201
894.6302	40
894.6345	268
894.6386	121
894.6428	201
894.6512	40
894.668	40
894.689	40
