Mass spectrum: PC(16:0e/15-HEPE); LC-ESI-QTOF; MS2
Name: PC(16:0e/15-HEPE)
Class: Oxidized Phospholipid
Formula: C44H80NO8P
Exact mass: 782.099
SMILES: CCCCCCCCCCCCCCCCOCC(COP([O-])(=O)OCC[N+](C)(C)C)OC(=O)CCC\C=C/C\C=C/C\C=C/CC(O)\C=C\C=C/CC
InChI: InChI=1S/C44H80NO8P/c1-6-8-10-12-13-14-15-16-17-20-23-26-29-33-38-50-40-43(41-52-54(48,49)51-39-37-45(3,4)5)53-44(47)36-32-28-25-22-19-18-21-24-27-31-35-42(46)34-30-11-9-7-2/h9,11,18,21-22,25,27,30-31,34,42-43,46H,6-8,10,12-17,19-20,23-24,26,28-29,32-33,35-41H2,1-5H3/b11-9-,21-18-,25-22-,31-27-,34-30+
Instrument: Acquity UPLC Peptide BEH C18 column (50 x 2.1 mm; 1.7 um), Sciex TripleTOF5600
Instrument type: LC-ESI-QTOF
Ms type: MS2
Ion mode: NEGATIVE
Collision energy: 30-50
Precursor m/z: 840.576008
Precursor type: [M+CH3COOH-H]-
m/z	relative intensity
121.1033	17
121.1126	17
149.1292	17
175.1449	17
175.1467	44
175.1486	44
175.1505	71
175.1542	17
201.1605	17
203.1445	17
219.1251	27
219.1272	17
219.1292	27
219.1313	27
219.1334	71
219.1355	61
219.1376	71
219.1397	61
219.1418	71
219.1439	61
219.146	17
219.148	61
219.1522	17
247.1273	17
247.1318	35
247.1362	17
248.1354	17
248.1376	27
248.1443	17
248.1465	17
255.1949	17
255.1972	27
255.1995	17
255.2017	35
255.204	27
255.2062	17
255.2085	71
255.2107	61
255.213	88
255.2152	80
255.2175	44
255.2197	35
255.222	17
255.2265	17
273.2328	27
299.1851	17
299.19	17
299.1924	61
299.1949	61
299.1973	53
299.1998	105
299.2022	71
299.2047	105
299.2071	97
299.2095	35
299.212	17
299.2144	44
299.2193	44
299.2315	18
301.2264	18
317.1784	18
317.1834	18
317.1859	36
317.1884	45
317.1909	18
317.1935	100
317.196	90
317.1985	63
317.201	154
317.2035	309
317.206	183
317.2085	210
317.211	315
317.2135	208
317.2161	261
317.2186	280
317.2211	135
317.2236	171
317.2261	71
317.2286	72
317.2311	73
317.2336	45
317.2361	17
317.2387	17
317.2412	10
377.2315	17
377.237	17
377.2397	17
377.2425	17
377.2452	17
377.248	17
377.2562	17
448.2944	17
448.3034	17
448.3064	17
448.3153	17
448.3183	17
448.3213	17
448.3243	27
448.3273	35
448.3333	27
448.3392	17
448.3422	17
464.3102	17
466.3037	35
466.3068	17
466.3129	61
466.3159	97
466.319	27
466.322	53
466.3251	132
466.3281	80
466.3311	71
466.3342	124
466.3372	115
466.3403	61
466.3434	53
466.3464	35
466.3494	44
466.3525	35
466.3555	27
466.3586	17
466.3616	17
466.3647	44
695.4315	17
695.4464	17
695.4612	35
695.4687	27
695.4724	17
695.4761	27
695.4799	17
695.4836	35
695.491	27
696.4775	17
721.4751	17
764.1522	17
766.4552	17
766.4591	17
766.463	18
766.4708	45
766.4747	18
766.4786	38
766.4825	75
766.4865	107
766.4904	143
766.4943	59
766.4982	217
766.5021	145
766.506	226
766.5099	321
766.5138	382
766.5177	455
766.5216	416
766.5255	557
766.5294	999
766.5333	827
766.5372	763
766.5411	991
766.545	938
766.549	790
766.5529	925
766.5568	806
766.5607	793
766.5646	744
766.5685	524
766.5724	371
766.5763	208
766.5802	246
766.5841	176
766.588	166
766.5919	147
766.5958	127
766.5997	48
766.6036	29
766.6075	48
766.6115	39
766.6154	20
766.6193	28
766.6232	10
766.6388	10
766.6505	17
766.7052	10
767.5298	17
767.5337	17
767.5415	17
767.5493	27
767.5532	17
767.5572	36
767.5767	27
780.5388	27
780.5507	17
780.5585	27
780.5625	17
780.5861	17
780.5901	27
781.4694	17
781.4971	17
781.5049	17
781.5286	17
840.5183	17
840.5306	27
840.5347	27
840.5428	17
840.5469	17
840.551	27
840.5551	17
840.5592	35
840.5633	61
840.5674	71
840.5715	35
840.5756	53
840.5797	61
840.5837	53
840.5878	44
840.592	35
840.5961	44
840.6002	44
840.6042	61
840.6083	17
840.6124	35
840.6165	44
840.6288	27
840.6451	17
840.6697	17
840.9438	17
