Mass spectrum: SM d40:1; LC-ESI-QTOF; MS2
Name: SM d40:1
Class: SM
Formula: C45H91N2O6P
Exact mass: 787.207
SMILES: CCCCCCCCCCCCCCCCCCCCCC(=O)NC(COP([O-])(=O)OCC[N+](C)(C)C)C(O)\C=C\CCCCCCCCCCCCC
InChI: InChI=1S/C45H91N2O6P/c1-6-8-10-12-14-16-18-20-21-22-23-24-25-27-29-31-33-35-37-39-45(49)46-43(42-53-54(50,51)52-41-40-47(3,4)5)44(48)38-36-34-32-30-28-26-19-17-15-13-11-9-7-2/h36,38,43-44,48H,6-35,37,39-42H2,1-5H3,(H-,46,49,50,51)/b38-36+
Instrument: AB Sciex TripleTOF 5600+ system (Q-TOF) equipped with a DuoSpray ion source
Instrument type: LC-ESI-QTOF
Ms type: MS2
Ion mode: NEGATIVE
Collision energy: 45V
Column name: Acquity UPLC Peptide BEH C18 column (50*2.1 mm; 1.7 um; 130A)(Waters Co.,Milford, MA, USA)
Retention time: 12.20563
Precursor type: [M+CH3COOH-H]-
Precursor m/z: 845.6702
m/z	relative intensity
78.959	11
89.027	0
96.97	0
113.025	0
119.04	0
122.702	0
122.986	1
130.001	0
161.047	0
167.525	0
167.678	0
168.043	37
339.333	0
381.361	0
431.299	0
449.293	1
449.315	1
500.502	0
504.875	0
512.14	0
618.565	0
619.564	1
636.573	0
637.592	0
682.532	0
700.539	2
700.572	1
726.56	1
769.119	0
769.19	2
769.228	0
771.378	0
771.621	999
772.603	1
772.643	1
786.571	6
786.602	2
798.642	1
799.591	1
799.627	5
799.666	1
845.622	3
845.633	6
845.66	23
845.694	4
845.725	1
