Mass spectrum: PC(18:0e/8-HETE); LC-ESI-QTOF; MS2
Name: PC(18:0e/8-HETE)
Class: Oxidized Phospholipid
Formula: C46H86NO8P
Exact mass: 812.169
SMILES: CCCCCCCCCCCCCCCCCCOCC(COP([O-])(=O)OCC[N+](C)(C)C)OC(=O)CCC\C=C/CC(O)\C=C/C=C\C\C=C/CCCCC
InChI: InChI=1S/C46H86NO8P/c1-6-8-10-12-14-16-18-19-20-21-22-23-25-27-31-35-40-52-42-45(43-54-56(50,51)53-41-39-47(3,4)5)55-46(49)38-34-30-29-33-37-44(48)36-32-28-26-24-17-15-13-11-9-7-2/h15,17,26,28-29,32-33,36,44-45,48H,6-14,16,18-25,27,30-31,34-35,37-43H2,1-5H3/b17-15-,28-26-,33-29-,36-32-
Instrument: Acquity UPLC Peptide BEH C18 column (50 x 2.1 mm; 1.7 um), Sciex TripleTOF5600
Instrument type: LC-ESI-QTOF
Ms type: MS2
Ion mode: NEGATIVE
Collision energy: 30-50
Precursor m/z: 870.6229582
Precursor type: [M+CH3COOH-H]-
m/z	relative intensity
155.0612	45
155.0665	45
155.0682	29
155.07	45
155.0717	59
155.0752	73
163.1568	29
203.1754	29
241.0048	29
257.2151	29
257.2218	29
257.2263	88
257.2309	59
275.2411	29
301.1985	29
301.2009	45
301.2034	29
301.2058	102
301.2083	45
301.2107	59
301.2132	118
301.2156	132
301.218	118
301.2205	191
301.223	59
301.2254	88
301.2278	45
301.2303	45
301.2328	45
319.2035	29
319.206	29
319.2085	45
319.211	45
319.2136	88
319.2161	118
319.2186	118
319.2211	249
319.2236	235
319.2262	118
319.2287	147
319.2312	308
319.2337	279
319.2362	161
319.2388	88
319.2413	88
319.2438	29
319.2463	45
405.2751	29
405.2779	29
476.3415	59
476.3477	29
476.3508	45
476.3539	29
476.36	73
476.3631	29
494.3386	59
494.3449	45
494.348	45
494.3512	73
494.3543	118
494.3606	88
494.3637	191
494.3669	132
494.37	132
494.3731	147
494.3763	118
494.3794	45
494.3825	73
494.3857	73
725.4841	29
725.4955	45
725.5183	45
725.5297	29
795.9742	30
796.4998	45
796.5117	45
796.5197	30
796.5236	118
796.5316	164
796.5356	119
796.5396	137
796.5436	138
796.5475	199
796.5515	344
796.5555	269
796.5595	330
796.5635	250
796.5674	380
796.5714	698
796.5754	571
796.5794	888
796.5834	554
796.5873	999
796.5914	908
796.5953	920
796.5993	810
796.6033	567
796.6073	711
796.6113	900
796.6152	613
796.6192	595
796.6232	648
796.6272	426
796.6312	301
796.6351	269
796.6392	268
796.6431	95
796.6471	78
796.6511	79
796.6551	78
796.6591	30
796.663	36
796.667	16
796.671	16
797.4438	16
797.5793	29
797.5912	45
797.5992	29
797.6191	29
810.5704	29
811.5428	29
811.5549	29
811.5629	45
811.567	29
870.5143	45
870.5269	29
870.531	88
870.5352	59
870.5393	59
870.5435	29
870.5477	73
870.5518	73
870.556	73
870.5601	88
870.5643	59
870.5685	59
870.5726	73
870.5768	147
870.5809	73
870.5851	73
870.5893	29
870.5934	73
870.5976	59
870.6017	88
870.606	88
870.6101	118
870.6143	102
870.6226	59
870.6268	102
870.6309	73
870.6351	73
870.6392	73
870.6434	118
870.6476	45
870.6517	59
870.6559	29
870.66	59
870.6642	29
870.6684	73
870.6767	45
870.6808	29
871.5262	29
871.5388	59
871.5471	29
871.5554	29
871.5637	73
871.5679	88
871.5721	29
871.5762	147
871.5804	118
871.5845	29
871.5887	29
871.5929	102
871.597	29
871.6012	88
871.6054	59
871.6096	88
871.6137	59
871.6179	29
871.6304	29
