Mass spectrum: Cer[AS] d36:1; LC-ESI-QTOF; MS2
Name: Cer[AS] d36:1
Class: Cer_AS
Formula: C36H71NO4
Exact mass: 581.9669999999999
SMILES: CCCCCCCCCCCCCCC\C=C\C(O)C(CO)NC(=O)C(O)CCCCCCCCCCCCCC
InChI: InChI=1S/C36H71NO4/c1-3-5-7-9-11-13-15-17-18-19-21-22-24-26-28-30-34(39)33(32-38)37-36(41)35(40)31-29-27-25-23-20-16-14-12-10-8-6-4-2/h28,30,33-35,38-40H,3-27,29,31-32H2,1-2H3,(H,37,41)/b30-28+
Instrument: AB Sciex TripleTOF 5600+ system (Q-TOF) equipped with a DuoSpray ion source
Instrument type: LC-ESI-QTOF
Ms type: MS2
Ion mode: NEGATIVE
Collision energy: 45V
Column name: Acquity UPLC Peptide BEH C18 column (50*2.1 mm; 1.7 um; 130A)(Waters Co.,Milford, MA, USA)
Retention time: 10.33018
Precursor type: [M+CH3COOH-H]-
Precursor m/z: 640.5468
m/z	relative intensity
225.218	110
225.234	55
253.212	77
265.255	69
271.225	81
278.247	44
296.249	144
296.294	80
308.293	55
312.259	55
324.289	69
342.315	22
532.478	69
532.521	77
544.488	25
548.5	121
550.517	22
562.509	102
580.494	246
580.523	999
580.539	753
