Mass spectrum: PC(14:0/8-HETE); LC-ESI-QTOF; MS2
Name: PC(14:0/8-HETE)
Class: Oxidized Phospholipid
Formula: C42H76NO9P
Exact mass: 770.044
SMILES: CCCCCCCCCCCCCC(=O)OCC(COP([O-])(=O)OCC[N+](C)(C)C)OC(=O)CCC\C=C/CC(O)\C=C/C=C\C\C=C/CCCCC
InChI: InChI=1S/C42H76NO9P/c1-6-8-10-12-14-16-18-20-22-24-29-33-41(45)49-37-40(38-51-53(47,48)50-36-35-43(3,4)5)52-42(46)34-30-26-25-28-32-39(44)31-27-23-21-19-17-15-13-11-9-7-2/h15,17,21,23,25,27-28,31,39-40,44H,6-14,16,18-20,22,24,26,29-30,32-38H2,1-5H3/b17-15-,23-21-,28-25-,31-27-
Instrument: Acquity UPLC Peptide BEH C18 column (50 x 2.1 mm; 1.7 um), Sciex TripleTOF5600
Instrument type: LC-ESI-QTOF
Ms type: MS2
Ion mode: NEGATIVE
Collision energy: 30-50
Precursor m/z: 828.5396225
Precursor type: [M+CH3COOH-H]-
m/z	relative intensity
78.95741	8
78.96744	8
111.0757	8
127.0699	8
127.0747	12
127.0779	12
127.0795	12
127.081	8
129.0482	8
129.0514	12
129.053	16
129.0546	12
129.0562	12
129.0578	8
129.061	8
152.9903	8
155.0566	8
155.0584	8
155.0601	12
155.0619	8
155.0636	16
155.0654	53
155.0672	32
155.0689	49
155.0707	53
155.0724	32
155.0742	69
155.0759	49
155.0777	41
155.0795	16
155.083	8
163.1394	12
163.143	8
163.1466	24
163.1484	16
163.1502	20
163.152	24
163.1557	8
163.1575	8
163.1611	8
168.0343	8
168.0361	8
168.0416	20
168.0434	28
168.0453	12
168.0471	32
168.0489	8
168.0507	8
196.0279	8
203.1721	12
203.1801	8
203.1821	8
203.1841	12
203.1861	12
215.1533	8
224.0603	16
224.0624	12
224.0645	8
224.0687	12
224.0708	28
224.0729	20
224.075	8
224.0814	8
227.1736	8
227.1842	8
227.1863	49
227.1885	81
227.1906	122
227.1927	142
227.1948	142
227.197	199
227.1991	171
227.2012	236
227.2034	244
227.2055	223
227.2076	187
227.2097	81
227.2119	45
227.214	73
227.2161	24
227.2182	24
227.2204	8
227.2225	12
227.2246	12
227.2267	16
227.231	12
228.204	8
231.2107	8
241.0056	8
241.0099	12
241.0121	8
241.2093	8
252.4296	8
253.1968	12
253.1991	8
253.2013	8
253.2036	28
253.2058	32
253.2081	81
253.2103	102
253.2126	150
253.2148	114
253.217	150
253.2193	146
253.2215	134
253.2238	81
253.226	73
253.2283	32
253.2305	20
253.2328	12
253.235	37
253.2372	20
253.2395	8
253.244	12
253.2462	8
254.2194	16
254.2307	8
255.2305	8
255.2395	8
257.2022	8
257.2067	8
257.209	12
257.2135	8
257.2158	24
257.218	37
257.2203	53
257.2226	61
257.2248	73
257.2271	69
257.2294	65
257.2316	57
257.2339	28
257.2361	37
257.2384	45
257.243	8
258.2306	8
265.1855	8
265.19	8
267.1882	20
267.1928	12
267.1951	12
267.1974	20
267.1997	8
267.209	8
269.2402	8
269.2448	8
269.2564	12
270.2459	8
270.2575	8
273.2301	8
275.1857	8
275.188	8
275.1904	8
275.1927	8
275.195	32
275.1974	32
275.1997	28
275.2021	12
275.2044	45
275.2067	24
275.2091	16
275.2114	28
275.2161	12
275.2184	8
275.2208	12
275.2372	8
275.2629	12
279.2239	8
279.2263	12
279.2286	16
279.2333	24
279.2357	8
279.2381	24
279.2404	16
280.2339	8
281.2339	12
281.2363	8
281.2387	8
281.2434	8
281.2505	20
281.2529	8
281.2552	8
282.2547	8
283.2465	8
283.2512	12
283.2536	8
283.2631	12
283.2702	8
283.2726	8
283.2773	8
291.2309	8
291.2333	8
292.2069	8
293.1894	12
293.1918	8
293.1942	8
293.1967	8
293.1991	16
293.2015	32
293.2039	16
293.2063	28
293.2087	69
293.2112	41
293.2136	49
293.216	49
293.2184	32
293.2208	28
293.2232	24
293.2281	24
293.2305	8
299.2531	8
299.2556	16
299.258	8
299.2604	8
299.2629	12
299.2678	16
301.1845	8
301.1967	20
301.1992	20
301.2016	24
301.2041	41
301.2065	77
301.209	89
301.2114	93
301.2139	134
301.2163	114
301.2188	89
301.2212	118
301.2237	122
301.2261	97
301.2286	41
301.231	49
301.2335	45
301.2359	41
301.2384	16
301.2408	8
301.2433	16
301.2482	8
301.2506	8
302.2335	8
304.2433	8
309.1085	8
319.1966	8
319.2017	16
319.2042	20
319.2067	16
319.2092	49
319.2118	77
319.2143	102
319.2168	126
319.2193	166
319.2218	158
319.2244	179
319.2269	171
319.2294	203
319.2319	171
319.2344	154
319.237	191
319.2395	134
319.242	69
319.2445	57
319.247	53
319.2496	24
319.2521	37
319.2546	12
319.2571	8
320.2285	8
320.2336	8
329.1779	8
333.2376	8
333.2454	8
347.2574	16
347.2732	8
348.2573	8
363.2152	8
391.2089	8
434.2578	8
434.2607	16
434.2637	8
434.2666	16
434.2755	8
434.2784	12
434.2813	12
434.2931	8
435.2522	8
435.2551	16
435.2581	8
435.261	12
436.2566	8
437.2001	8
452.2438	8
452.2498	12
452.2528	12
452.2558	16
452.2588	12
452.2618	28
452.2648	32
452.2678	32
452.2708	24
452.2738	28
452.2768	45
452.2798	28
452.2828	45
452.2858	61
452.2888	49
452.2918	45
452.2948	32
452.2979	24
452.3008	24
452.3038	16
452.3069	12
452.3128	8
452.3158	12
455.2253	8
459.2471	8
460.2848	8
460.2909	8
464.3136	8
478.278	24
478.2811	12
478.2842	12
478.2873	8
478.2904	20
478.2935	12
478.3027	8
478.3089	8
478.312	16
478.3151	8
478.3243	8
480.2951	8
518.2632	8
518.2986	12
526.2858	8
526.2923	20
526.2955	12
526.2988	12
526.302	12
544.2854	8
544.2953	12
544.3052	12
544.3085	8
544.3217	8
561.34	12
561.3535	8
561.3668	8
683.3928	8
683.4075	8
683.4113	16
683.4186	12
683.4223	12
683.426	16
683.4297	16
683.4333	12
683.4407	32
683.4445	8
683.4481	16
683.4555	16
683.4666	8
692.4447	8
709.4301	8
709.4451	8
709.4489	8
741.4764	8
741.4803	12
741.4841	8
741.4957	12
741.4995	16
741.5034	8
741.5072	12
741.5149	16
741.5187	8
741.5226	16
741.5264	24
741.5303	12
741.5341	8
741.538	8
741.5418	16
741.6071	8
746.3909	8
746.4603	8
750.4826	8
752.1263	8
752.1302	8
752.1379	8
752.1456	12
752.1495	12
754.4033	8
754.415	8
754.4227	8
754.4304	8
754.4343	12
754.4382	24
754.4421	24
754.4459	53
754.4498	77
754.4537	69
754.4576	130
754.4615	219
754.4653	260
754.4692	386
754.4731	459
754.477	361
754.4808	495
754.4847	520
754.4886	739
754.4924	820
754.4963	796
754.5002	796
754.5041	816
754.5079	930
754.5118	914
754.5157	999
754.5196	967
754.5235	723
754.5273	768
754.5313	662
754.5351	605
754.5389	435
754.5428	382
754.5467	329
754.5506	280
754.5544	183
754.5583	134
754.5622	110
754.5661	41
754.57	37
754.5739	45
754.5778	28
754.5816	16
754.5855	28
754.5894	16
754.5932	16
755.4501	12
755.4772	8
755.4811	8
755.485	8
755.4888	8
755.4927	12
755.5005	16
755.5043	16
755.5082	28
755.5121	12
755.516	24
755.5237	37
755.5276	8
755.5315	16
755.5354	12
755.5432	20
755.547	8
755.5547	8
755.5587	8
755.5664	12
755.5742	8
767.0237	8
768.4898	12
768.4937	8
768.5015	12
768.5054	16
768.5172	8
768.5289	8
768.5328	12
768.5367	12
768.5485	8
768.5563	12
769.4445	8
769.4719	8
769.4797	20
769.4836	16
769.4875	16
769.4915	16
769.4954	12
769.511	8
769.5424	8
781.4952	12
781.4991	12
781.5031	20
781.507	8
781.5189	16
781.5228	20
781.5267	8
781.5306	16
781.5346	28
781.5386	20
781.5425	8
781.5464	20
781.5504	12
781.5543	16
781.5583	28
781.5662	8
781.574	8
782.5052	8
784.4642	8
810.4702	8
810.4984	8
810.5144	8
825.9075	8
828.4073	8
828.4113	12
828.4194	16
828.4316	12
828.4398	8
828.4438	8
828.4479	16
828.452	24
828.456	20
828.4601	32
828.4641	37
828.4682	28
828.4722	28
828.4763	28
828.4803	53
828.4844	69
828.4885	41
828.4926	45
828.4966	73
828.5007	77
828.5048	53
828.5088	93
828.5129	69
828.5169	102
828.521	69
828.525	61
828.5291	69
828.5331	57
828.5372	77
828.5413	114
828.5453	118
828.5494	102
828.5535	97
828.5576	61
828.5616	73
828.5657	69
828.5697	110
828.5738	65
828.5778	49
828.5819	32
828.5859	32
828.59	37
828.5941	28
828.5981	12
828.6022	16
828.6063	24
828.6104	16
828.6185	12
828.6266	8
828.6306	12
829.4351	8
829.4432	8
829.4513	8
829.4635	8
829.4919	8
829.5001	8
829.5569	8
