Mass spectrum: PE(18:0/18-HEPE); LC-ESI-QTOF; MS2
Name: PE(18:0/18-HEPE)
Class: Oxidized Phospholipid
Formula: C43H76NO9P
Exact mass: 782.055
SMILES: CCCCCCCCCCCCCCCCCC(=O)OCC(COP(O)(=O)OCCN)OC(=O)CCC\C=C/C\C=C/C\C=C/C\C=C/C=C/C(O)CC
InChI: InChI=1S/C43H76NO9P/c1-3-5-6-7-8-9-10-11-12-16-19-22-25-28-31-34-42(46)50-38-41(39-52-54(48,49)51-37-36-44)53-43(47)35-32-29-26-23-20-17-14-13-15-18-21-24-27-30-33-40(45)4-2/h14-15,17-18,23-24,26-27,30,33,40-41,45H,3-13,16,19-22,25,28-29,31-32,34-39,44H2,1-2H3,(H,48,49)/b17-14-,18-15-,26-23-,27-24-,33-30+
Instrument: Acquity UPLC Peptide BEH C18 column (50 x 2.1 mm; 1.7 um), Sciex TripleTOF5600
Instrument type: LC-ESI-QTOF
Ms type: MS2
Ion mode: NEGATIVE
Collision energy: 30-50
Precursor m/z: 780.5184935
Precursor type: [M-H]-
m/z	relative intensity
215.187	109
243.1971	109
255.213	168
255.231	109
259.1683	109
259.1797	109
281.2534	109
283.2493	109
283.2564	168
283.2588	277
283.2612	385
283.2635	223
283.2659	385
283.2683	223
283.2707	277
299.1877	109
299.1926	109
299.1999	109
299.2023	109
299.2048	109
299.2097	109
303.2478	109
303.2601	109
317.1886	109
317.1936	109
317.2062	223
317.2087	331
317.2112	109
317.2137	223
317.2162	223
317.2188	277
480.3139	109
480.3355	109
693.4473	109
693.4547	109
693.4584	168
780.4616	168
780.4656	109
780.4813	223
780.4853	331
780.4892	277
780.4932	331
780.4971	223
780.501	385
780.505	331
780.5089	385
780.5129	999
780.5168	331
780.5208	385
780.5247	331
780.5286	662
780.5326	385
780.5365	385
780.5405	554
780.5444	385
780.5483	277
780.5523	277
780.5562	109
780.5602	277
780.5641	109
780.5759	223
780.5799	109
