Mass spectrum: PI(16:0/15-HETE); LC-ESI-QTOF; MS2
Name: PI(16:0/15-HETE)
Class: Oxidized Phospholipid
Formula: C45H79O14P
Exact mass: 875.089
SMILES: CCCCCCCCCCCCCCCC(=O)OCC(COP(O)(=O)OC1C(O)C(O)C(O)C(O)C1O)OC(=O)CCC\C=C/C\C=C/C\C=C/C=C/C(O)CCCCC
InChI: InChI=1S/C45H79O14P/c1-3-5-7-8-9-10-11-12-15-18-21-24-28-32-38(47)56-34-37(35-57-60(54,55)59-45-43(52)41(50)40(49)42(51)44(45)53)58-39(48)33-29-25-22-19-16-13-14-17-20-23-27-31-36(46)30-26-6-4-2/h13-14,19-20,22-23,27,31,36-37,40-46,49-53H,3-12,15-18,21,24-26,28-30,32-35H2,1-2H3,(H,54,55)/b14-13-,22-19-,23-20-,31-27+
Instrument: Acquity UPLC Peptide BEH C18 column (50 x 2.1 mm; 1.7 um), Sciex TripleTOF5600
Instrument type: LC-ESI-QTOF
Ms type: MS2
Ion mode: NEGATIVE
Collision energy: 30-50
Precursor m/z: 873.5134677
Precursor type: [M-H]-
m/z	relative intensity
78.9563	2
78.95756	4
78.95881	5
78.96006	4
78.96132	2
78.96257	8
78.96382	6
78.96508	2
78.96759	1
78.9726	1
96.9654	1
96.96818	2
96.96957	1
96.97096	1
96.97235	2
99.08036	1
113.097	5
113.0985	1
113.1	2
121.0979	4
121.0995	3
121.101	4
121.1026	2
121.1041	2
121.1057	1
149.1389	1
151.1496	1
151.1565	1
152.9869	4
152.9904	3
152.9922	9
152.9939	7
152.9957	8
152.9974	8
152.9992	9
153.0009	5
153.0027	5
153.0044	3
153.0061	2
165.1642	1
175.1387	3
175.1405	5
175.1424	5
175.1443	9
175.1461	17
175.148	17
175.1499	8
175.1517	12
175.1536	8
175.1555	8
175.1573	3
175.1592	4
175.1611	2
175.1629	1
175.1648	1
189.1631	1
193.1269	1
201.1259	1
201.1339	3
203.1681	1
203.1701	1
203.1721	4
203.1742	1
203.1762	5
203.1782	5
203.1802	4
203.1822	5
203.1842	4
203.1862	2
204.9963	1
205.1196	1
205.1257	1
219.1183	2
219.1225	2
219.1245	4
219.1266	8
219.1287	15
219.1308	18
219.1329	21
219.135	21
219.1371	21
219.1392	30
219.1412	30
219.1433	23
219.1454	14
219.1475	13
219.1496	6
219.1517	5
219.1538	2
219.1559	4
219.1579	2
219.1726	1
220.1408	3
222.9866	3
222.9887	1
222.9908	4
222.9929	5
222.995	13
222.9971	9
222.9992	14
223.0013	11
223.0034	11
223.0056	13
223.0077	9
223.0098	5
223.0119	7
223.014	1
223.0182	1
229.2113	1
240.2549	1
240.2593	2
240.2702	1
240.2724	1
240.9706	1
240.9925	5
240.9947	11
240.9969	12
240.9991	24
241.0012	46
241.0034	50
241.0056	69
241.0078	77
241.01	96
241.0122	84
241.0144	78
241.0166	79
241.0188	66
241.021	43
241.0231	29
241.0253	18
241.0275	12
241.0297	11
241.0319	5
241.0341	3
241.0407	2
243.0031	1
245.1921	2
254.4355	2
254.4422	1
254.458	1
254.494	1
254.9466	1
255.2058	1
255.208	1
255.2103	3
255.2125	4
255.2148	2
255.217	12
255.2193	17
255.2216	22
255.2238	46
255.2261	61
255.2283	52
255.2306	78
255.2328	71
255.2351	91
255.2373	76
255.2396	62
255.2418	53
255.2441	36
255.2464	27
255.2486	13
255.2509	6
255.2531	6
255.2554	6
255.2576	4
255.2599	6
256.2392	1
257.209	3
257.2113	6
257.2136	6
257.2158	5
257.2181	6
257.2203	15
257.2226	19
257.2249	21
257.2271	17
257.2294	23
257.2317	19
257.2339	15
257.2362	14
257.2385	9
257.2407	2
257.243	2
257.2452	4
257.2498	1
259.0066	5
259.0089	6
259.0134	8
259.0157	8
259.018	9
259.0203	10
259.0225	8
259.0248	11
259.0271	4
259.0293	8
259.0316	7
259.0339	4
259.0361	1
273.2278	1
275.2278	1
275.2349	2
275.2372	3
275.2395	1
275.2419	4
275.2442	1
275.2466	1
283.1919	1
283.218	2
297.0142	2
297.0215	3
297.0239	3
297.0264	4
297.0288	6
297.0312	7
297.0337	16
297.0361	4
297.0385	11
297.041	5
297.0434	7
297.0458	7
297.0482	2
297.0507	2
297.0531	5
297.0555	4
297.0653	1
301.1894	3
301.1918	6
301.1943	2
301.1967	8
301.1992	8
301.2016	15
301.2041	18
301.2065	21
301.209	37
301.2114	35
301.2139	40
301.2163	37
301.2188	44
301.2212	52
301.2237	28
301.2261	27
301.2286	22
301.231	24
301.2335	9
301.2359	8
301.2384	5
301.2433	1
315.0307	2
315.0357	1
315.0382	4
315.0407	4
315.0432	4
315.0457	6
315.0482	3
315.0508	7
315.0533	5
315.0558	5
315.0583	5
315.0608	2
315.0708	1
318.2293	1
318.2318	1
318.2344	1
318.2469	2
318.3074	2
318.9521	2
319.1411	1
319.1966	1
319.1991	2
319.2017	2
319.2042	8
319.2067	11
319.2092	27
319.2117	26
319.2143	42
319.2168	74
319.2193	64
319.2218	81
319.2243	96
319.2269	97
319.2294	109
319.2319	101
319.2344	92
319.2369	66
319.2395	56
319.242	39
319.2445	28
319.247	20
319.2495	13
319.2521	7
319.2546	6
319.2571	3
319.2596	2
320.231	1
320.2335	3
320.2512	1
323.9204	1
391.1892	2
391.1948	1
391.1976	2
391.2004	5
391.2032	5
391.206	8
391.2088	11
391.2116	13
391.2144	20
391.2172	23
391.2199	24
391.2227	24
391.2255	21
391.2283	25
391.2311	26
391.2339	20
391.2367	22
391.2395	14
391.2423	14
391.2451	11
391.2479	5
391.2506	8
391.2562	1
409.2221	3
409.2278	1
409.2307	4
409.2336	2
409.2364	3
409.2393	3
409.2421	1
409.245	3
409.2478	1
409.2507	3
409.2535	2
409.2564	2
409.2592	1
455.192	3
455.195	3
455.198	1
455.201	10
455.204	6
455.2071	9
455.2101	12
455.2131	11
455.2161	10
455.2191	11
455.2221	17
455.2251	10
455.2281	15
455.2311	12
455.2342	4
455.2372	8
455.2402	6
455.2432	4
455.2462	2
455.2492	3
473.2214	1
480.0352	1
492.1893	1
497.2483	1
497.2671	1
504.3622	1
520.7908	1
551.5479	1
553.2292	1
553.2391	7
553.2424	4
553.2457	3
553.2491	5
553.2524	12
553.2557	23
553.259	20
553.2623	25
553.2657	30
553.269	32
553.2723	24
553.2756	25
553.2789	30
553.2823	33
553.2856	36
553.2889	44
553.2922	34
553.2955	23
553.2988	27
553.3022	25
553.3055	15
553.3088	5
553.3121	8
553.3154	3
553.3188	4
553.3287	2
553.332	1
553.342	1
571.238	1
571.2448	1
571.2482	4
571.2549	3
571.2583	3
571.2617	5
571.265	6
571.2684	5
571.2718	9
571.2751	10
571.2785	16
571.2819	13
571.2853	17
571.2886	21
571.292	11
571.2954	14
571.2988	14
571.3021	15
571.3055	14
571.3089	12
571.3123	10
571.3156	8
571.319	5
571.3224	4
571.3257	1
571.3291	3
571.3392	2
571.3459	1
571.3527	1
572.2941	1
617.2365	3
617.24	5
617.2435	5
617.247	4
617.2505	2
617.254	5
617.2575	8
617.261	10
617.2645	10
617.268	11
617.2715	11
617.275	17
617.2786	13
617.282	9
617.2856	12
617.2891	11
617.2925	13
617.2961	14
617.2996	7
617.3031	4
617.3066	5
617.3101	1
617.3136	5
617.3171	2
617.3206	3
617.3241	1
617.3311	1
618.2675	1
635.2615	1
635.2651	1
635.2793	1
635.29	3
635.2935	3
635.3113	3
711.4417	4
711.4529	2
711.4567	1
711.4604	2
711.468	1
711.4755	3
711.4792	2
711.483	2
711.4868	1
711.4905	2
711.4981	3
711.5018	1
854.8942	1
870.7095	1
870.7178	3
870.7303	1
870.7344	1
870.7428	2
870.7511	4
870.7552	3
870.7595	3
870.7636	5
870.7678	7
870.7719	4
870.7761	4
870.7803	8
870.7844	8
870.7886	3
870.7927	5
870.7969	4
870.8052	3
870.8135	1
870.8177	5
870.8219	1
870.8302	3
870.8344	1
870.8386	1
870.8427	3
870.9135	1
871.8048	2
872.359	2
872.509	1
872.5424	1
872.5465	1
873.2094	1
873.2761	1
873.3428	1
873.3762	1
873.4053	2
873.4136	1
873.4178	2
873.422	1
873.4387	1
873.4512	22
873.4554	24
873.4595	32
873.4637	66
873.4679	101
873.472	119
873.4762	160
873.4804	216
873.4846	316
873.4887	374
873.4929	496
873.4971	587
873.5012	641
873.5054	764
873.5096	805
873.5137	906
873.5179	899
873.5221	999
873.5262	972
873.5304	959
873.5346	934
873.5388	855
873.5429	769
873.5471	658
873.5513	539
873.5554	387
873.5596	247
873.5638	180
873.5679	131
873.5721	105
873.5763	71
873.5804	47
873.5847	29
873.5888	27
873.593	10
873.5972	10
873.6013	8
873.6055	10
873.6097	4
873.6138	1
873.618	1
873.6263	1
873.6305	1
873.6389	3
874.0685	1
874.4564	2
874.4606	2
874.4648	2
874.469	5
874.4731	2
874.4773	7
874.4815	5
874.4857	9
874.4898	7
874.494	5
874.4982	10
874.5024	15
874.5065	13
874.5107	16
874.5148	24
874.519	18
874.5232	19
874.5274	25
874.5316	18
874.5357	18
874.5399	20
874.5441	17
874.5483	21
874.5524	14
874.5566	12
874.5607	8
874.5649	10
874.5691	4
874.5733	3
874.5775	6
874.5858	2
874.59	2
874.5942	4
874.6609	1
874.9071	1
875.504	1
876.4896	1
876.6483	1
877.3754	1
878.9434	1
883.6556	1
