Mass spectrum: PE 40:8; LC-ESI-QTOF; MS2
Name: PE 40:8
Class: PE
Formula: C45H74NO8P
Exact mass: 788.0619999999999
SMILES: CCCCC\C=C/C\C=C/CCCCCCCC(=O)OCC(COP(O)(=O)OCCN)OC(=O)CC\C=C/C\C=C/C\C=C/C\C=C/C\C=C/C\C=C/CC
InChI: InChI=1S/C45H74NO8P/c1-3-5-7-9-11-13-15-17-19-20-21-22-24-26-28-30-32-34-36-38-45(48)54-43(42-53-55(49,50)52-40-39-46)41-51-44(47)37-35-33-31-29-27-25-23-18-16-14-12-10-8-6-4-2/h5,7,11-14,17-19,21-23,26,28,32,34,43H,3-4,6,8-10,15-16,20,24-25,27,29-31,33,35-42,46H2,1-2H3,(H,49,50)/b7-5-,13-11-,14-12-,19-17-,22-21-,23-18-,28-26-,34-32-
Instrument: AB Sciex TripleTOF 5600+ system (Q-TOF) equipped with a DuoSpray ion source
Instrument type: LC-ESI-QTOF
Ms type: MS2
Ion mode: NEGATIVE
Collision energy: 45V
Column name: Acquity UPLC Peptide BEH C18 column (50*2.1 mm; 1.7 um; 130A)(Waters Co.,Milford, MA, USA)
Retention time: 8.939324
Precursor type: [M-H]-
Precursor m/z: 786.5043
m/z	relative intensity
78.958	13
117.073	3
122.0	3
133.101	3
135.118	5
140.004	6
140.013	22
149.136	4
152.995	15
161.129	3
163.152	4
175.147	3
177.166	11
191.181	10
196.037	59
201.162	3
214.045	3
229.194	50
249.168	3
249.185	16
255.214	4
261.219	4
278.359	5
279.188	3
279.231	991
281.248	9
282.368	6
283.241	386
283.265	59
283.286	4
303.22	9
303.24	9
309.226	6
326.206	10
327.231	917
415.226	7
417.229	3
419.249	36
419.27	13
433.233	3
437.238	4
437.264	19
437.282	5
458.241	5
458.264	21
458.282	7
476.251	40
476.274	153
485.917	1
492.349	1
500.271	2
506.263	10
524.265	7
524.287	9
541.325	3
699.437	4
699.458	13
699.479	24
699.499	52
699.54	5
712.491	1
768.525	1
784.007	5
784.525	1
786.503	999
786.592	2
787.476	3
787.547	2
