Mass spectrum: SM d42:3; LC-ESI-QTOF; MS2
Name: SM d42:3
Class: SM
Formula: C47H91N2O6P
Exact mass: 811.2289999999999
SMILES: CCCCCCCCCCCC\C=C/CCCCCCCCCC(=O)NC(COP([O-])(=O)OCC[N+](C)(C)C)C(O)\C=C\CC\C=C\CCCCCCCCC
InChI: InChI=1S/C47H91N2O6P/c1-6-8-10-12-14-16-18-20-21-22-23-24-25-26-27-29-31-33-35-37-39-41-47(51)48-45(44-55-56(52,53)54-43-42-49(3,4)5)46(50)40-38-36-34-32-30-28-19-17-15-13-11-9-7-2/h24-25,30,32,38,40,45-46,50H,6-23,26-29,31,33-37,39,41-44H2,1-5H3,(H-,48,51,52,53)/b25-24-,32-30+,40-38+
Instrument: AB Sciex TripleTOF 5600+ system (Q-TOF) equipped with a DuoSpray ion source
Instrument type: LC-ESI-QTOF
Ms type: MS2
Ion mode: NEGATIVE
Collision energy: 45V
Column name: Acquity UPLC Peptide BEH C18 column (50*2.1 mm; 1.7 um; 130A)(Waters Co.,Milford, MA, USA)
Retention time: 11.08174
Precursor type: [M+CH3COOH-H]-
Precursor m/z: 869.6705
m/z	relative intensity
78.958	10
122.982	1
141.011	0
168.041	27
221.015	0
430.217	1
447.284	2
447.321	1
449.306	1
453.749	0
480.563	1
496.802	0
724.54	2
724.57	2
750.586	2
793.116	1
795.635	999
795.9	2
796.152	1
796.642	5
810.567	2
810.606	7
869.616	3
869.668	23
869.705	8
869.757	1
