Mass spectrum: PE 38:4; LC-ESI-QTOF; MS2
Name: PE 38:4
Class: PE
Formula: C43H78NO8P
Exact mass: 768.0719999999999
SMILES: CCCCCCCCCCCCCCCCCC(=O)OCC(COP(O)(=O)OCCN)OC(=O)CCCCCC\C=C/C\C=C/C\C=C/C\C=C/CC
InChI: InChI=1S/C43H78NO8P/c1-3-5-7-9-11-13-15-17-19-20-22-24-26-28-30-32-34-36-43(46)52-41(40-51-53(47,48)50-38-37-44)39-49-42(45)35-33-31-29-27-25-23-21-18-16-14-12-10-8-6-4-2/h5,7,11,13,17,19,22,24,41H,3-4,6,8-10,12,14-16,18,20-21,23,25-40,44H2,1-2H3,(H,47,48)/b7-5-,13-11-,19-17-,24-22-
Instrument: AB Sciex TripleTOF 5600+ system (Q-TOF) equipped with a DuoSpray ion source
Instrument type: LC-ESI-QTOF
Ms type: MS2
Ion mode: NEGATIVE
Collision energy: 45V
Column name: Acquity UPLC Peptide BEH C18 column (50*2.1 mm; 1.7 um; 130A)(Waters Co.,Milford, MA, USA)
Retention time: 10.33506
Precursor type: [M-H]-
Precursor m/z: 766.5347
m/z	relative intensity
78.958	5
83.051	0
93.067	0
96.967	1
107.086	0
121.999	1
139.585	0
140.011	21
141.089	0
151.151	0
152.994	1
163.075	1
169.119	0
177.094	2
178.024	0
179.188	0
183.132	0
189.161	0
191.106	1
195.424	0
196.037	30
203.179	0
205.195	17
211.168	0
214.046	3
217.196	1
219.14	0
225.186	0
229.199	0
231.21	3
245.153	0
247.163	0
257.228	0
258.437	0
259.241	89
265.252	0
267.217	0
273.228	0
282.358	0
282.375	1
282.398	0
282.748	0
283.262	641
283.555	0
284.587	0
285.009	0
285.22	7
287.201	0
301.213	1
301.23	0
302.284	5
302.906	0
303.099	0
303.144	0
303.23	999
303.56	0
304.969	0
307.018	0
353.324	0
357.343	0
381.35	0
406.265	0
409.237	0
419.254	0
426.235	0
462.249	0
462.295	25
477.969	0
478.776	0
478.804	0
479.356	0
479.663	0
480.303	125
480.395	0
481.306	0
482.224	0
482.262	10
488.038	0
500.237	0
500.271	7
565.4	0
567.52	0
581.506	0
606.866	0
609.945	0
610.757	0
614.927	0
618.784	0
764.028	0
764.082	0
764.109	1
764.136	0
764.175	0
765.584	0
766.046	0
766.279	0
766.401	0
766.529	248
767.484	0
767.539	1
