Mass spectrum: PC 31:0; LC-ESI-QTOF; MS2
Name: PC 31:0
Class: PC
Formula: C39H78NO8P
Exact mass: 720.0279999999999
SMILES: CCCCCCCCCCCCCCCC(=O)OC(COC(=O)CCCCCCCCCCCCCC)COP([O-])(=O)OCC[N+](C)(C)C
InChI: InChI=1S/C39H78NO8P/c1-6-8-10-12-14-16-18-20-22-24-26-28-30-32-39(42)48-37(36-47-49(43,44)46-34-33-40(3,4)5)35-45-38(41)31-29-27-25-23-21-19-17-15-13-11-9-7-2/h37H,6-36H2,1-5H3
Instrument: AB Sciex TripleTOF 5600+ system (Q-TOF) equipped with a DuoSpray ion source
Instrument type: LC-ESI-QTOF
Ms type: MS2
Ion mode: NEGATIVE
Collision energy: 45V
Column name: Acquity UPLC Peptide BEH C18 column (50*2.1 mm; 1.7 um; 130A)(Waters Co.,Milford, MA, USA)
Retention time: 9.385274
Precursor type: [M+CH3COOH-H]-
Precursor m/z: 778.5575
m/z	relative intensity
168.041	24
224.065	23
227.202	13
240.463	12
241.216	999
242.087	5
254.437	6
255.198	7
255.233	813
256.237	3
269.249	8
281.254	2
282.247	1
283.257	4
284.262	3
303.234	4
377.205	2
391.077	1
391.229	4
406.289	3
448.277	11
448.3	5
462.289	17
462.307	6
462.318	12
466.283	31
466.304	11
480.308	56
480.351	1
494.3	2
522.47	1
628.527	5
633.449	2
659.464	1
702.332	2
702.567	2
704.494	146
704.519	995
705.514	3
718.54	2
719.453	4
719.492	11
746.535	3
778.51	9
778.546	34
778.575	31
778.605	6
