Mass spectrum: PE 37:5; LC-ESI-QTOF; MS2
Name: PE 37:5
Class: PE
Formula: C42H74NO8P
Exact mass: 752.0289999999999
SMILES: CCCCCCCCCCCCCCCCC(=O)OCC(COP(O)(=O)OCCN)OC(=O)CCC\C=C/C\C=C/C\C=C/C\C=C/C\C=C/CC
InChI: InChI=1S/C42H74NO8P/c1-3-5-7-9-11-13-15-17-19-20-21-23-25-27-29-31-33-35-42(45)51-40(39-50-52(46,47)49-37-36-43)38-48-41(44)34-32-30-28-26-24-22-18-16-14-12-10-8-6-4-2/h5,7,11,13,17,19,21,23,27,29,40H,3-4,6,8-10,12,14-16,18,20,22,24-26,28,30-39,43H2,1-2H3,(H,46,47)/b7-5-,13-11-,19-17-,23-21-,29-27-
Instrument: AB Sciex TripleTOF 5600+ system (Q-TOF) equipped with a DuoSpray ion source
Instrument type: LC-ESI-QTOF
Ms type: MS2
Ion mode: NEGATIVE
Collision energy: 45V
Column name: Acquity UPLC Peptide BEH C18 column (50*2.1 mm; 1.7 um; 130A)(Waters Co.,Milford, MA, USA)
Retention time: 9.362026
Precursor type: [M-H]-
Precursor m/z: 750.5046
m/z	relative intensity
140.012	13
196.038	74
203.179	47
214.045	18
229.187	9
239.231	9
255.224	9
257.217	66
257.23	117
269.178	9
269.247	491
269.262	104
287.203	9
301.213	999
301.242	23
418.257	13
436.281	18
448.279	23
466.288	145
466.314	28
480.262	18
498.253	13
676.515	9
748.142	9
750.377	18
750.426	23
750.479	279
750.509	484
750.529	99
750.537	61
750.609	19
751.473	9
