Mass spectrum: PC 34:4; LC-ESI-QTOF; MS2
Name: PC 34:4
Class: PC
Formula: C42H76NO8P
Exact mass: 754.0449999999998
SMILES: CCCCCCCCCCCCCC(=O)OCC(COP([O-])(=O)OCC[N+](C)(C)C)OC(=O)CCCCCC\C=C/C\C=C/C\C=C/C\C=C/CC
InChI: InChI=1S/C42H76NO8P/c1-6-8-10-12-14-16-18-19-20-21-22-23-25-27-29-31-33-35-42(45)51-40(39-50-52(46,47)49-37-36-43(3,4)5)38-48-41(44)34-32-30-28-26-24-17-15-13-11-9-7-2/h8,10,14,16,19-20,22-23,40H,6-7,9,11-13,15,17-18,21,24-39H2,1-5H3/b10-8-,16-14-,20-19-,23-22-
Instrument: AB Sciex TripleTOF 5600+ system (Q-TOF) equipped with a DuoSpray ion source
Instrument type: LC-ESI-QTOF
Ms type: MS2
Ion mode: NEGATIVE
Collision energy: 45V
Column name: Acquity UPLC Peptide BEH C18 column (50*2.1 mm; 1.7 um; 130A)(Waters Co.,Milford, MA, USA)
Retention time: 8.676142
Precursor type: [M+CH3COOH-H]-
Precursor m/z: 812.5445
m/z	relative intensity
78.96	2
168.04	18
205.194	11
224.059	7
224.07	11
226.489	6
227.202	316
249.187	54
255.223	2
259.239	50
281.248	29
301.223	4
302.289	3
303.233	832
363.198	3
434.266	19
452.26	31
452.274	49
452.298	19
474.262	2
506.301	8
510.306	7
528.302	12
736.172	3
738.438	11
738.507	999
739.491	3
753.469	12
812.505	14
812.533	31
812.555	25
812.582	12
