Mass spectrum: PC 30:1; LC-ESI-QTOF; MS2
Name: PC 30:1
Class: PC
Formula: C38H74NO8P
Exact mass: 703.9849999999999
SMILES: CCCCCCCCCCCCCC(=O)OCC(COP([O-])(=O)OCC[N+](C)(C)C)OC(=O)CCCCCCC\C=C/CCCCCC
InChI: InChI=1S/C38H74NO8P/c1-6-8-10-12-14-16-18-19-21-23-25-27-29-31-38(41)47-36(35-46-48(42,43)45-33-32-39(3,4)5)34-44-37(40)30-28-26-24-22-20-17-15-13-11-9-7-2/h16,18,36H,6-15,17,19-35H2,1-5H3/b18-16-
Instrument: AB Sciex TripleTOF 5600+ system (Q-TOF) equipped with a DuoSpray ion source
Instrument type: LC-ESI-QTOF
Ms type: MS2
Ion mode: NEGATIVE
Collision energy: 45V
Column name: Acquity UPLC Peptide BEH C18 column (50*2.1 mm; 1.7 um; 130A)(Waters Co.,Milford, MA, USA)
Retention time: 8.556919
Precursor type: [M+CH3COOH-H]-
Precursor m/z: 762.5262
m/z	relative intensity
78.959	5
152.991	3
153.092	3
168.043	18
199.167	6
224.071	18
225.186	52
226.492	3
227.201	998
228.207	2
241.217	2
242.079	3
252.424	5
253.216	631
255.231	66
279.222	1
279.236	3
281.217	2
281.235	3
281.249	9
283.24	8
283.261	1
305.233	3
305.254	5
307.266	1
327.224	10
327.246	6
329.251	5
331.254	2
343.218	6
343.243	1
389.207	2
418.269	3
432.259	1
434.241	2
434.266	10
436.267	2
436.282	9
438.268	1
450.249	2
452.261	11
452.284	20
460.271	7
460.291	7
478.291	70
480.307	4
516.98	1
554.905	1
598.874	1
615.449	1
617.415	2
643.433	1
686.28	1
686.321	3
686.351	2
687.515	2
688.45	129
688.486	999
688.582	3
689.476	2
689.518	1
703.423	1
703.455	7
712.468	1
762.446	3
762.479	18
762.505	81
762.535	35
