Mass spectrum: PC 28:0; LC-ESI-QTOF; MS2
Name: PC 28:0
Class: PC
Formula: C36H72NO8P
Exact mass: 677.9469999999999
SMILES: CCCCCCCCCCCCCC(=O)OCC(COP([O-])(=O)OCC[N+](C)(C)C)OC(=O)CCCCCCCCCCCCC
InChI: InChI=1S/C36H72NO8P/c1-6-8-10-12-14-16-18-20-22-24-26-28-35(38)42-32-34(33-44-46(40,41)43-31-30-37(3,4)5)45-36(39)29-27-25-23-21-19-17-15-13-11-9-7-2/h34H,6-33H2,1-5H3
Instrument: AB Sciex TripleTOF 5600+ system (Q-TOF) equipped with a DuoSpray ion source
Instrument type: LC-ESI-QTOF
Ms type: MS2
Ion mode: NEGATIVE
Collision energy: 45V
Column name: Acquity UPLC Peptide BEH C18 column (50*2.1 mm; 1.7 um; 130A)(Waters Co.,Milford, MA, USA)
Retention time: 8.466309
Precursor type: [M+CH3COOH-H]-
Precursor m/z: 736.5105
m/z	relative intensity
168.042	10
199.168	181
206.195	10
224.073	31
227.201	999
228.2	12
252.967	10
255.231	181
255.247	25
257.241	15
279.228	16
281.25	71
282.255	25
283.263	25
284.271	10
303.237	45
304.237	61
404.339	10
406.214	10
434.262	41
449.262	21
452.268	61
480.268	10
480.317	11
628.564	15
658.549	37
662.427	67
662.45	303
662.478	950
677.442	10
686.534	10
736.458	26
736.482	62
736.5	67
736.524	52
736.558	20
