Mass spectrum: PE(16:0/8,9-EpETE); LC-ESI-QTOF; MS2
Name: PE(16:0/8,9-EpETE)
Class: Oxidized Phospholipid
Formula: C41H72NO9P
Exact mass: 754.001
SMILES: CCCCCCCCCCCCCCCC(=O)OCC(COP(O)(=O)OCCN)OC(=O)CCC\C=C/CC1OC1C\C=C/C\C=C/C\C=C/CC
InChI: InChI=1S/C41H72NO9P/c1-3-5-7-9-11-13-14-15-16-18-20-22-27-31-40(43)47-35-37(36-49-52(45,46)48-34-33-42)50-41(44)32-28-24-23-26-30-39-38(51-39)29-25-21-19-17-12-10-8-6-4-2/h6,8,12,17,21,23,25-26,37-39H,3-5,7,9-11,13-16,18-20,22,24,27-36,42H2,1-2H3,(H,45,46)/b8-6-,17-12-,25-21-,26-23-
Instrument: Acquity UPLC Peptide BEH C18 column (50 x 2.1 mm; 1.7 um), Sciex TripleTOF5600
Instrument type: LC-ESI-QTOF
Ms type: MS2
Ion mode: NEGATIVE
Collision energy: 30-50
Precursor m/z: 752.4871934
Precursor type: [M-H]-
m/z	relative intensity
123.0827	40
123.0858	40
127.067	40
127.0701	40
127.0765	40
127.0781	82
127.0829	62
127.0876	40
127.0924	40
140.0076	82
140.0093	82
140.0127	40
140.0143	40
140.016	40
140.0177	40
155.0691	62
155.0709	40
155.0726	40
155.0761	40
161.1346	40
167.0683	40
167.0701	82
167.072	62
167.0738	40
167.0756	62
196.0301	82
196.032	40
196.036	40
196.038	82
196.0399	40
196.0419	123
196.0459	40
196.0478	82
201.154	40
201.16	40
214.0456	40
219.1893	42
254.4377	42
255.2013	103
255.2036	145
255.2058	105
255.2081	187
255.2103	103
255.2126	211
255.2148	207
255.2171	253
255.2193	293
255.2216	314
255.2238	609
255.2261	573
255.2283	637
255.2306	806
255.2328	999
255.2351	766
255.2374	724
255.2396	915
255.2419	575
255.2441	277
255.2464	277
255.2486	171
255.2509	64
255.2531	42
255.2554	22
255.2576	84
255.4222	22
255.8509	22
273.2115	40
273.2138	62
273.2208	82
273.2231	40
273.2254	40
273.2301	40
299.1848	40
299.1897	40
299.1921	40
299.1945	40
299.197	40
299.2019	40
299.2043	40
299.2068	62
299.2141	82
299.2165	123
317.1806	40
317.1831	40
317.1856	62
317.1906	62
317.1931	62
317.1957	165
317.1982	207
317.2007	207
317.2032	432
317.2057	392
317.2082	267
317.2108	432
317.2133	289
317.2158	474
317.2183	452
317.2208	269
317.2233	249
317.2258	187
317.2283	143
317.2308	123
317.2334	82
317.2359	62
317.2384	82
434.2546	40
434.2664	40
434.2693	40
434.2781	40
452.2556	62
452.2585	62
452.2615	40
452.2646	40
452.2675	185
452.2705	103
452.2736	123
452.2766	143
452.2795	103
452.2826	185
452.2856	103
452.2885	82
452.2916	82
452.2946	165
452.2975	103
452.3005	62
452.3036	62
452.3096	40
496.2386	40
514.2234	40
514.2426	40
750.1339	40
752.4272	105
752.4311	227
752.4349	82
752.4388	82
752.4427	249
752.4465	209
752.4504	149
752.4543	211
752.4582	171
752.462	382
752.4659	297
752.4698	577
752.4736	537
752.4775	621
752.4814	559
752.4852	689
752.4891	643
752.493	579
752.4969	945
752.5007	623
752.5046	728
752.5085	856
752.5123	601
752.5162	515
752.5201	494
752.524	213
752.5278	279
752.5317	171
752.5356	171
752.5394	107
752.5433	127
752.5472	44
752.5511	62
752.5549	40
752.7601	22
753.4842	40
753.488	40
753.5384	40
