Mass spectrum: PE(16:1e/18-HETE); LC-ESI-QTOF; MS2
Name: PE(16:1e/18-HETE)
Class: Oxidized Phospholipid
Formula: C41H74NO8P
Exact mass: 740.018
SMILES: CCCCCCCCCCCCCC\C=C/OCC(COP(O)(=O)OCCN)OC(=O)CCC\C=C/C\C=C/C\C=C/C\C=C/CCC(O)CC
InChI: InChI=1S/C41H74NO8P/c1-3-5-6-7-8-9-10-11-16-19-22-25-28-31-35-47-37-40(38-49-51(45,46)48-36-34-42)50-41(44)33-30-27-24-21-18-15-13-12-14-17-20-23-26-29-32-39(43)4-2/h13-15,17,21,23-24,26,31,35,39-40,43H,3-12,16,18-20,22,25,27-30,32-34,36-38,42H2,1-2H3,(H,45,46)/b15-13-,17-14-,24-21-,26-23-,35-31-
Instrument: Acquity UPLC Peptide BEH C18 column (50 x 2.1 mm; 1.7 um), Sciex TripleTOF5600
Instrument type: LC-ESI-QTOF
Ms type: MS2
Ion mode: NEGATIVE
Collision energy: 30-50
Precursor m/z: 738.5079288
Precursor type: [M-H]-
m/z	relative intensity
71.02036	1
71.05247	1
71.05366	1
71.05604	1
78.95585	1
78.9571	8
78.95835	12
78.95961	13
78.96086	16
78.96212	10
78.96337	8
78.96462	4
78.96588	7
78.96713	8
78.96838	7
78.96964	2
78.97089	2
78.97215	2
78.9734	2
78.97465	1
78.97591	1
83.0535	2
85.06766	1
95.08583	1
97.06627	1
97.07044	1
107.0833	3
107.0847	1
107.0862	2
107.0877	2
107.0891	1
107.0906	2
107.092	3
109.0944	1
109.0988	1
109.1062	1
121.0972	1
121.0987	3
121.1018	2
121.1034	3
121.1049	1
121.1065	1
121.108	4
122.001	1
123.0834	1
133.0988	1
135.1085	1
135.1134	2
135.1151	1
135.1167	2
135.12	3
135.1216	2
135.1232	3
135.9972	1
137.0028	1
137.1349	1
137.1366	1
137.1382	1
139.1132	2
140.0016	3
140.0033	5
140.005	7
140.0067	10
140.0083	15
140.01	14
140.0117	22
140.0133	18
140.015	21
140.0167	12
140.0183	6
140.02	6
140.0217	3
140.0233	3
140.0284	2
140.03	1
141.0923	1
147.1098	1
147.1184	1
147.1201	1
149.131	4
149.1327	1
149.1396	1
151.1451	1
151.1503	1
151.152	3
152.9964	2
152.9999	1
153.1308	1
161.1317	1
161.137	1
161.1388	1
163.0123	1
163.0159	1
163.0177	4
163.0213	2
163.0249	1
163.0718	2
163.0736	2
163.0754	2
163.0808	2
163.0862	1
163.1421	3
163.1439	1
163.1457	4
163.1475	5
163.1493	2
163.1511	4
163.1529	6
163.1547	4
163.1565	1
163.1583	4
163.1619	1
166.0201	1
166.0238	1
166.0274	1
166.0419	1
167.1127	1
167.1182	1
169.1215	1
169.1233	1
174.1046	1
175.1468	1
175.1487	3
175.1524	1
177.0792	1
177.0867	2
177.0886	4
177.0905	3
177.0923	4
177.0942	3
177.0961	4
177.0999	2
177.1017	1
177.1637	1
177.1693	1
178.0249	1
178.0268	1
178.0324	1
179.0241	4
179.0297	3
179.0316	2
179.0335	4
179.0354	2
179.0392	3
179.0429	2
179.0467	1
179.4869	1
180.045	2
181.1238	1
181.1276	1
189.1541	1
189.156	1
189.1579	1
189.1599	2
189.1618	6
189.1638	6
189.1657	2
189.1676	2
189.1696	3
189.1715	1
189.1735	1
189.1754	1
189.1812	1
190.1664	1
191.0976	1
191.0996	2
191.1035	2
191.1054	1
191.1093	4
191.1132	1
191.1191	1
191.1698	1
191.1718	1
191.1737	3
191.1796	3
191.1815	2
191.1835	4
191.1854	1
191.1893	1
192.3519	1
195.1781	1
196.0247	4
196.0267	4
196.0287	12
196.0306	13
196.0326	19
196.0346	19
196.0366	32
196.0385	39
196.0405	38
196.0425	23
196.0445	21
196.0464	13
196.0484	11
196.0504	7
196.0524	2
196.0544	4
196.0563	3
203.1466	1
203.1728	1
203.1748	3
203.1768	5
203.1788	6
203.1808	2
203.1828	5
203.1848	6
205.1202	2
205.1222	1
205.1263	1
205.1344	1
205.1424	1
207.1399	2
207.1419	1
209.149	1
209.1531	1
209.1633	1
215.1809	1
215.185	1
216.5262	1
217.1496	1
217.1537	1
217.1579	2
217.16	1
217.162	2
217.1641	1
217.1683	1
217.1745	3
217.1766	1
217.1787	2
217.1808	4
217.1828	14
217.1849	19
217.187	24
217.1891	35
217.1911	41
217.1932	50
217.1953	46
217.1974	45
217.1995	39
217.2016	42
217.2036	28
217.2057	19
217.2078	12
217.2099	6
217.2119	8
217.214	2
218.1987	2
219.1376	1
221.7605	1
223.1579	2
223.1621	1
223.1642	1
223.1663	3
223.1684	1
223.1705	2
223.1726	4
223.1747	3
223.1768	1
229.1883	1
229.2054	1
231.1813	1
233.1506	1
233.1872	1
233.1894	1
235.1629	3
235.1672	4
235.1694	2
235.1737	4
235.1759	2
235.178	2
237.2099	1
237.2272	1
238.326	1
238.4937	1
239.2199	2
239.2221	4
239.2242	4
239.2264	9
239.2286	14
239.2308	15
239.233	23
239.2352	32
239.2373	21
239.2395	15
239.2417	19
239.2439	23
239.2461	13
239.2482	10
239.2504	7
239.2526	4
239.2548	4
239.2592	1
243.1597	1
243.1641	2
243.1707	3
243.1729	2
243.1752	6
243.1774	1
243.1796	5
243.1817	1
243.1839	3
243.1927	1
245.1462	1
245.1616	1
245.1815	1
245.1881	2
245.1904	1
245.1926	3
245.1948	4
245.197	1
245.2014	1
245.2058	1
247.1562	1
247.1673	1
247.1717	2
247.1806	1
247.1828	1
247.1939	1
256.0545	1
257.2072	2
257.2095	3
257.2118	7
257.214	6
257.2163	11
257.2185	17
257.2208	23
257.2231	23
257.2253	20
257.2276	20
257.2299	36
257.2321	26
257.2344	20
257.2367	13
257.2389	8
257.2412	6
257.2434	3
257.2457	3
257.248	1
257.2502	1
257.2525	1
259.166	3
259.1751	1
260.3645	2
260.3668	1
260.3713	2
260.3759	2
260.3782	1
260.3804	2
260.5239	1
260.6651	1
261.1574	4
261.1597	4
261.162	4
261.1642	6
261.1665	12
261.1688	21
261.1711	34
261.1734	60
261.1756	93
261.1779	117
261.1802	133
261.1825	151
261.1848	175
261.187	186
261.1893	173
261.1916	152
261.1939	128
261.1962	88
261.1984	78
261.2007	52
261.203	30
261.2053	20
261.2076	18
261.2098	8
261.2121	6
261.2144	4
261.2167	1
261.2213	1
261.2235	2
261.2258	1
261.7871	1
262.1662	1
262.1799	1
262.1822	1
262.1845	2
262.1868	4
262.1891	3
262.1936	1
262.1959	2
262.2028	1
263.193	1
263.1953	1
263.1976	1
263.1999	1
263.2067	2
273.2048	2
273.2072	1
273.2095	2
273.2118	4
273.2142	4
273.2165	6
273.2188	6
273.2212	12
273.2235	6
273.2258	4
273.2281	10
273.2305	8
273.2328	6
273.2352	2
273.2375	4
273.2398	2
273.2422	1
273.2585	1
274.2296	3
275.2189	6
275.2212	2
275.2235	6
275.2259	8
275.2282	15
275.2306	11
275.2329	13
275.2353	21
275.2376	20
275.2399	13
275.2423	24
275.2446	10
275.2469	11
275.2493	13
275.2516	9
275.254	3
275.2563	1
275.2587	2
275.2633	1
275.2657	1
281.1941	1
281.1989	1
281.2556	1
283.1946	1
283.197	6
283.1993	1
283.2017	3
283.2041	5
283.2065	7
283.2088	4
283.2112	1
283.2136	1
283.216	6
283.2184	2
283.2207	5
283.2302	1
300.2746	3
300.2844	2
300.2917	1
300.3039	1
301.1113	1
301.1775	1
301.1823	1
301.1873	2
301.1897	2
301.1921	9
301.1946	13
301.1971	20
301.1995	36
301.2019	63
301.2044	65
301.2068	98
301.2093	120
301.2117	142
301.2142	141
301.2166	138
301.2191	141
301.2215	137
301.224	124
301.2264	113
301.2289	81
301.2313	63
301.2338	33
301.2362	27
301.2387	12
301.2411	12
301.2436	11
301.246	5
301.2485	3
301.2534	1
301.2558	1
301.3489	1
302.2092	2
302.2117	1
302.2141	2
302.2166	3
302.219	1
302.2215	2
302.2239	3
302.2264	3
302.2289	2
302.2386	1
303.2157	1
305.2387	1
317.1833	1
317.1884	3
317.1909	2
317.1934	3
317.1959	1
317.1984	2
317.201	4
317.2035	6
317.206	6
317.2085	11
317.211	10
317.2135	8
317.216	10
317.2185	11
317.221	9
317.2236	5
317.2261	3
317.2286	6
317.2311	2
318.1994	2
318.2019	2
318.2044	6
318.2069	4
318.2094	3
318.212	10
318.2145	6
318.217	12
318.2195	7
318.222	12
318.2245	9
318.2271	9
318.2296	7
318.2321	9
318.2346	4
318.2371	1
318.2397	9
318.2422	4
318.2447	1
318.2472	6
318.2497	3
318.2522	2
318.2573	1
318.2648	1
318.2849	1
319.159	2
319.1868	1
319.1893	2
319.1968	21
319.1994	21
319.2019	48
319.2044	57
319.2069	108
319.2094	185
319.212	248
319.2145	415
319.217	533
319.2195	695
319.222	857
319.2246	905
319.2271	952
319.2296	910
319.2321	999
319.2346	854
319.2372	657
319.2397	520
319.2422	398
319.2448	238
319.2473	139
319.2498	110
319.2523	78
319.2548	48
319.2574	29
319.2599	16
319.2624	22
319.2649	9
319.2674	4
319.27	2
319.2725	2
319.275	7
319.2901	1
319.6154	1
320.2085	1
320.2136	4
320.2161	1
320.2186	7
320.2211	7
320.2237	6
320.2262	15
320.2287	8
320.2312	12
320.2338	10
320.2363	8
320.2388	9
320.2413	6
320.2438	8
320.2464	5
320.2514	3
320.2539	1
320.259	1
320.4105	1
320.5899	1
320.7844	1
320.7996	1
321.0144	1
323.5601	1
324.2864	2
375.209	1
375.2144	6
375.2172	5
375.2199	6
375.2226	7
375.2253	6
375.2281	9
375.2308	10
375.2336	6
375.2363	8
375.239	6
375.2417	10
375.2445	5
375.2472	2
375.2499	4
375.2527	1
375.2554	2
375.2581	2
381.3312	1
403.2556	2
403.2698	1
404.2763	1
416.9562	2
416.9619	2
417.0224	1
418.2335	1
418.2364	3
418.2393	5
418.2421	3
418.245	11
418.2479	15
418.2508	17
418.2537	23
418.2566	39
418.2595	37
418.2623	48
418.2652	57
418.2681	81
418.271	68
418.2739	61
418.2768	76
418.2797	75
418.2825	53
418.2854	42
418.2883	29
418.2912	28
418.2941	21
418.297	18
418.2999	13
418.3027	6
418.3056	6
418.3085	4
418.3114	4
418.3143	3
418.3172	2
419.2585	3
419.2614	1
419.2643	2
419.2701	3
419.2729	1
419.2758	2
419.2787	2
419.2816	4
419.2903	1
419.2932	1
420.2674	1
434.8957	1
434.9045	1
434.9104	2
434.9133	1
434.9192	3
434.9221	2
434.9369	1
434.9398	1
436.0381	1
436.2061	1
436.2414	2
436.2444	11
436.2473	13
436.2503	20
436.2532	36
436.2562	29
436.2591	44
436.2621	65
436.265	72
436.2679	106
436.2709	145
436.2738	165
436.2768	183
436.2797	208
436.2827	199
436.2856	205
436.2886	213
436.2915	203
436.2945	172
436.2974	153
436.3004	108
436.3033	86
436.3063	68
436.3092	42
436.3122	39
436.3151	25
436.3181	14
436.321	11
436.3239	8
436.3269	3
436.3298	8
436.3357	1
436.3387	4
436.7603	1
437.2617	1
437.2646	1
437.2676	2
437.2705	2
437.2735	2
437.2764	4
437.2794	2
437.2823	4
437.2853	9
437.2882	4
437.2912	6
437.2941	6
437.2971	3
437.3	3
437.303	3
437.3059	3
437.3089	3
437.3207	1
438.2831	2
438.289	1
438.292	1
438.295	1
438.2979	2
440.1993	1
442.6599	1
498.2582	1
498.2613	2
498.2645	3
498.2739	1
498.2771	2
498.2802	3
706.3721	1
736.1279	1
736.1356	1
736.1471	1
736.1548	2
736.1586	1
736.1624	3
736.1663	1
736.17	1
736.1739	4
736.1777	4
736.1854	4
736.1892	3
736.1931	4
736.1969	4
736.2007	3
736.2045	4
736.2084	4
736.2122	1
736.216	2
736.2198	2
736.2237	1
736.2313	1
736.2352	1
736.239	1
736.2505	1
736.2581	1
736.3347	1
737.4417	1
737.5681	1
737.5719	2
737.6255	1
737.9551	1
738.2234	1
738.3385	1
738.3538	1
738.3615	1
738.4075	1
738.4113	1
738.4152	1
738.4266	5
738.4305	4
738.4343	5
738.4382	1
738.4496	8
738.4535	8
738.4573	29
738.4612	38
738.465	62
738.4688	98
738.4727	129
738.4765	155
738.4803	209
738.4842	271
738.488	351
738.4918	373
738.4957	452
738.4995	521
738.5034	549
738.5072	596
738.511	625
738.5148	668
738.5187	581
738.5225	583
738.5264	538
738.5302	482
738.5341	454
738.5378	355
738.5417	299
738.5455	201
738.5494	139
738.5532	119
738.557	82
738.5609	40
738.5647	37
738.5685	25
738.5724	22
738.5762	15
738.58	5
738.5839	6
738.5877	4
738.5916	6
738.5992	4
738.6146	1
738.6989	1
738.7258	1
739.0249	3
739.4239	1
739.4277	1
739.4316	1
739.4392	1
739.4507	2
739.4623	4
739.4661	2
739.4699	4
739.4738	3
739.4776	4
739.4814	4
739.4853	4
739.4891	11
739.4929	6
739.4968	17
739.5006	13
739.5045	17
739.5083	15
739.5121	14
739.516	19
739.5198	21
739.5236	18
739.5275	22
739.5313	13
739.5352	13
739.539	15
739.5428	6
739.5466	10
739.5505	10
739.5543	6
739.5582	4
739.562	4
739.5659	2
739.5735	2
739.5773	1
739.6656	1
739.9957	1
740.1876	1
740.5178	1
740.5984	1
742.2889	1
743.0117	1
757.3685	1
