Mass spectrum: Cer[NS] d44:3; LC-ESI-QTOF; MS2
Name: Cer[NS] d44:3
Class: Cer_NS
Formula: C44H83NO3
Exact mass: 674.1519999999998
SMILES: CCCCCCCCCCCCCC\C=C/CCCCCCCCCC(=O)NC(CO)C(O)\C=C\CC\C=C\CCCCCCCCC
InChI: InChI=1S/C44H83NO3/c1-3-5-7-9-11-13-15-17-18-19-20-21-22-23-24-25-26-28-30-32-34-36-38-40-44(48)45-42(41-46)43(47)39-37-35-33-31-29-27-16-14-12-10-8-6-4-2/h23-24,29,31,37,39,42-43,46-47H,3-22,25-28,30,32-36,38,40-41H2,1-2H3,(H,45,48)/b24-23-,31-29+,39-37+
Instrument: AB Sciex TripleTOF 5600+ system (Q-TOF) equipped with a DuoSpray ion source
Instrument type: LC-ESI-QTOF
Ms type: MS2
Ion mode: NEGATIVE
Collision energy: 45V
Column name: Acquity UPLC Peptide BEH C18 column (50*2.1 mm; 1.7 um; 130A)(Waters Co.,Milford, MA, USA)
Retention time: 13.12883
Precursor type: [M+CH3COOH-H]-
Precursor m/z: 732.6412
m/z	relative intensity
84.008	44
141.018	19
235.198	51
235.211	51
240.958	45
246.985	32
261.224	35
263.241	19
279.229	109
281.25	103
293.214	35
322.947	45
322.963	117
322.978	72
328.993	25
375.358	70
390.378	54
392.383	102
393.36	32
393.385	51
404.968	117
416.389	32
418.393	241
418.415	136
418.436	25
434.382	32
434.407	64
486.97	64
492.986	12
568.945	19
617.618	12
624.599	76
640.612	64
642.593	38
642.612	58
642.634	44
646.619	44
647.594	57
647.633	71
654.609	12
672.622	999
672.648	144
732.495	27
732.558	12
