Mass spectrum: PE(17:1e/20-HETE); LC-ESI-QTOF; MS2
Name: PE(17:1e/20-HETE)
Class: Oxidized Phospholipid
Formula: C42H76NO8P
Exact mass: 754.045
SMILES: CCCCCCCCCCCCCCC\C=C/OCC(COP(O)(=O)OCCN)OC(=O)CCC\C=C/C\C=C/C\C=C/C\C=C/CCCCCO
InChI: InChI=1S/C42H76NO8P/c1-2-3-4-5-6-7-8-9-15-18-21-24-27-30-33-37-48-39-41(40-50-52(46,47)49-38-35-43)51-42(45)34-31-28-25-22-19-16-13-11-10-12-14-17-20-23-26-29-32-36-44/h10,12-13,16-17,20,22,25,33,37,41,44H,2-9,11,14-15,18-19,21,23-24,26-32,34-36,38-40,43H2,1H3,(H,46,47)/b12-10-,16-13-,20-17-,25-22-,37-33-
Instrument: Acquity UPLC Peptide BEH C18 column (50 x 2.1 mm; 1.7 um), Sciex TripleTOF5600
Instrument type: LC-ESI-QTOF
Ms type: MS2
Ion mode: NEGATIVE
Collision energy: 30-50
Precursor m/z: 752.5235789
Precursor type: [M-H]-
m/z	relative intensity
177.0894	53
196.0316	53
196.0336	53
196.0474	53
275.2273	53
275.232	53
275.2343	53
275.2437	134
275.2461	53
289.2161	108
301.1986	53
301.2036	53
301.2084	53
301.2109	108
301.2133	53
301.2158	82
301.2182	82
301.2207	53
301.2231	108
301.2256	108
301.228	53
301.2329	55
301.2427	55
317.2127	55
318.2288	108
318.2489	55
319.196	111
319.1986	53
319.2011	192
319.2036	82
319.2061	221
319.2086	300
319.2112	221
319.2137	474
319.2162	641
319.2188	833
319.2213	920
319.2238	999
319.2263	975
319.2288	920
319.2314	809
319.2339	949
319.2364	920
319.2389	530
319.2414	279
319.244	387
319.2465	192
319.249	111
319.2515	140
319.254	55
319.2591	55
319.2616	55
320.2153	53
320.238	53
432.2657	53
432.2716	53
432.2745	53
432.2804	82
432.2833	53
432.2921	82
432.2951	53
432.298	108
432.3009	108
432.3039	53
450.2647	53
450.2767	53
450.2797	134
450.2827	134
450.2857	134
450.2887	243
450.2917	269
450.2947	243
450.2977	108
450.3007	322
450.3036	216
450.3067	134
450.3097	134
450.3127	161
450.3156	53
450.3186	108
450.3216	134
450.3246	53
450.3276	53
752.4575	82
752.4653	55
752.4691	82
752.473	111
752.4769	82
752.4808	219
752.4846	55
752.4885	409
752.4924	356
752.4962	327
752.5001	300
752.504	140
752.5078	577
752.5117	414
752.5156	743
752.5195	612
752.5233	749
752.5272	638
752.5311	583
752.5349	696
752.5388	556
752.5427	830
752.5466	778
752.5504	554
752.5543	498
752.5582	498
752.562	192
752.5659	192
752.5698	111
752.5737	248
752.5775	84
752.5814	55
752.5853	55
752.6782	29
753.5106	53
753.5184	53
