Mass spectrum: PE 41:6; LC-ESI-QTOF; MS2
Name: PE 41:6
Class: PE
Formula: C46H80NO8P
Exact mass: 806.1209999999999
SMILES: CCCCCCCCCCCCCCCCCCC(=O)OCC(COP(O)(=O)OCCN)OC(=O)CC\C=C/C\C=C/C\C=C/C\C=C/C\C=C/C\C=C/CC
InChI: InChI=1S/C46H80NO8P/c1-3-5-7-9-11-13-15-17-19-21-22-23-25-27-29-31-33-35-37-39-46(49)55-44(43-54-56(50,51)53-41-40-47)42-52-45(48)38-36-34-32-30-28-26-24-20-18-16-14-12-10-8-6-4-2/h5,7,11,13,17,19,22-23,27,29,33,35,44H,3-4,6,8-10,12,14-16,18,20-21,24-26,28,30-32,34,36-43,47H2,1-2H3,(H,50,51)/b7-5-,13-11-,19-17-,23-22-,29-27-,35-33-
Instrument: AB Sciex TripleTOF 5600+ system (Q-TOF) equipped with a DuoSpray ion source
Instrument type: LC-ESI-QTOF
Ms type: MS2
Ion mode: NEGATIVE
Collision energy: 45V
Column name: Acquity UPLC Peptide BEH C18 column (50*2.1 mm; 1.7 um; 130A)(Waters Co.,Milford, MA, USA)
Retention time: 10.72561
Precursor type: [M-H]-
Precursor m/z: 804.5521
m/z	relative intensity
78.959	5
121.999	3
140.011	18
177.163	6
191.187	5
196.037	21
229.198	38
231.134	3
249.187	15
255.232	5
281.247	8
282.364	3
283.242	212
296.35	2
297.222	3
297.278	497
309.226	4
325.221	2
327.232	569
450.23	2
464.307	13
466.965	2
476.321	19
491.341	2
494.32	93
494.347	15
506.259	13
524.267	7
730.579	12
731.611	2
736.577	2
743.599	6
744.614	21
802.018	3
804.545	999
804.651	2
