Mass spectrum: PE(16:1e/11,12-EET); LC-ESI-QTOF; MS2
Name: PE(16:1e/11,12-EET)
Class: Oxidized Phospholipid
Formula: C41H74NO8P
Exact mass: 740.018
SMILES: CCCCCCCCCCCCCC\C=C/OCC(COP(O)(=O)OCCN)OC(=O)CCC\C=C/C\C=C/CC1OC1C\C=C/CCCCC
InChI: InChI=1S/C41H74NO8P/c1-3-5-7-9-11-12-13-14-15-16-17-21-25-29-34-46-36-38(37-48-51(44,45)47-35-33-42)49-41(43)32-28-24-20-18-19-23-27-31-40-39(50-40)30-26-22-10-8-6-4-2/h18,20,22-23,26-27,29,34,38-40H,3-17,19,21,24-25,28,30-33,35-37,42H2,1-2H3,(H,44,45)/b20-18-,26-22-,27-23-,34-29-
Instrument: Acquity UPLC Peptide BEH C18 column (50 x 2.1 mm; 1.7 um), Sciex TripleTOF5600
Instrument type: LC-ESI-QTOF
Ms type: MS2
Ion mode: NEGATIVE
Collision energy: 30-50
Precursor m/z: 738.5079288
Precursor type: [M-H]-
m/z	relative intensity
78.95607	10
78.95732	35
78.95983	20
78.96108	41
78.96234	41
78.96359	25
78.96484	15
93.07438	10
97.06243	10
105.0739	10
107.0808	10
107.0851	15
107.0997	10
135.1074	10
135.1091	10
135.1124	10
135.114	20
135.1173	10
135.1189	25
135.1205	25
135.1222	10
139.1105	15
139.1155	30
139.1238	15
140.0023	20
140.0039	10
140.0056	15
140.0073	35
140.0089	25
140.0106	50
140.0123	35
140.0139	30
140.0156	30
140.0173	15
140.019	10
140.0206	10
149.0886	20
149.0903	25
149.092	41
149.0938	30
149.0955	41
149.0972	25
149.0989	25
149.1006	45
149.1024	10
149.1041	20
151.1094	10
153.0827	10
161.0912	10
161.093	10
161.0984	15
163.0816	10
163.1014	10
163.105	25
163.1068	20
163.1086	25
163.1104	25
163.1122	25
163.114	10
163.1158	45
163.1176	25
163.1194	25
163.1212	15
165.0932	10
165.173	10
166.0155	10
166.0282	10
167.088	10
167.0916	36
167.0935	21
167.0953	57
167.0971	75
167.0989	121
167.1008	204
167.1026	211
167.1044	268
167.1062	299
167.108	360
167.1099	283
167.1117	280
167.1135	144
167.1154	134
167.1172	63
167.119	81
167.1208	38
167.1226	32
167.1245	27
167.1263	16
167.1281	11
167.1318	10
167.1445	10
167.4767	5
169.1223	15
169.1241	10
169.1278	10
179.0268	10
179.0306	10
179.0344	10
179.0419	10
179.0457	10
179.0929	10
179.0948	41
179.0967	30
179.0986	45
179.1005	96
179.1024	66
179.1042	102
179.1061	174
179.108	164
179.1099	148
179.1118	118
179.1137	66
179.1156	41
179.1175	61
179.1194	10
179.1231	10
179.1307	5
180.1083	10
180.1102	15
180.1121	20
180.114	15
180.1159	20
180.1178	15
180.1197	10
180.1216	15
181.1247	10
181.1513	10
193.16	10
195.1003	10
196.0218	10
196.0237	10
196.0277	15
196.0297	35
196.0316	25
196.0336	66
196.0356	76
196.0376	66
196.0396	55
196.0415	55
196.0435	25
196.0455	15
196.0475	15
196.0494	10
203.1215	10
203.1698	10
203.1718	10
203.1738	15
203.1758	10
203.1779	15
203.1799	15
203.1819	15
203.1839	15
203.1859	25
203.1899	10
207.0902	10
207.0922	10
207.0983	15
207.1004	41
207.1024	10
207.1064	10
207.1085	10
207.1694	10
208.0945	10
208.0965	10
208.0985	45
208.1006	25
208.1026	66
208.1046	50
208.1067	60
208.1087	71
208.1108	101
208.1128	76
208.1148	60
208.1169	55
208.1189	10
208.1209	30
208.123	20
208.125	10
211.1321	15
215.1862	10
225.1892	10
227.1946	10
227.2009	10
227.2052	10
227.2073	20
229.1981	10
229.2003	15
239.2256	15
239.2277	15
239.2299	20
239.2321	50
239.2343	55
239.2365	50
239.2386	35
239.2408	45
239.243	45
239.2452	10
239.2496	10
239.2539	10
239.2561	10
253.2033	10
253.21	10
253.2122	15
253.219	35
253.2212	15
255.2325	10
257.2087	10
257.2109	25
257.2132	35
257.2155	30
257.2177	66
257.22	76
257.2223	91
257.2245	121
257.2268	81
257.2291	101
257.2313	86
257.2336	96
257.2358	45
257.2381	10
257.2404	15
257.2426	20
257.2472	10
257.2539	10
257.2698	10
273.2227	10
275.1924	10
275.2181	10
275.2228	20
275.2251	10
275.2275	10
275.2298	10
275.2321	15
275.2345	25
275.2368	25
275.2392	45
275.2415	15
275.2439	25
275.2462	10
275.2485	15
275.2509	10
291.2161	10
291.2306	10
291.233	20
291.2378	10
291.2402	15
291.2522	15
301.189	10
301.1915	26
301.1939	5
301.1988	31
301.2013	36
301.2037	98
301.2062	103
301.2086	109
301.2111	145
301.2135	150
301.216	197
301.2184	191
301.2209	176
301.2233	103
301.2258	104
301.2282	78
301.2307	46
301.2331	36
301.2356	26
301.238	21
301.2429	15
302.2159	5
303.2396	10
309.669	10
318.234	10
318.2516	10
318.2793	15
318.3221	10
318.3246	11
318.6898	10
319.0677	11
319.0778	11
319.1963	5
319.1988	32
319.2013	50
319.2038	67
319.2063	89
319.2089	137
319.2114	226
319.2139	313
319.2164	456
319.2189	502
319.2215	638
319.224	706
319.2265	704
319.229	796
319.2315	613
319.2341	706
319.2366	595
319.2391	440
319.2416	246
319.2441	216
319.2467	132
319.2492	52
319.2517	41
319.2542	41
319.2567	23
319.2593	17
319.2618	17
319.2643	11
319.2668	11
319.2769	11
319.2845	5
319.3299	6
319.4912	5
320.2155	10
320.2231	10
320.2256	15
320.2281	16
320.2332	21
375.1949	10
375.2113	10
375.2222	10
375.2249	35
375.2277	10
375.2304	15
375.2332	15
375.2359	20
375.2386	10
375.2414	25
375.2441	20
375.2496	20
416.956	10
417.3594	10
417.541	10
418.1987	10
418.2419	10
418.2477	21
418.2506	46
418.2535	87
418.2564	72
418.2592	72
418.2621	92
418.265	176
418.2679	140
418.2708	156
418.2737	129
418.2766	161
418.2794	160
418.2823	171
418.2852	134
418.2881	77
418.291	51
418.2939	36
418.2968	26
418.2997	16
418.3026	16
418.3054	5
423.2083	5
431.3923	10
435.5932	10
436.1765	10
436.2354	10
436.2413	11
436.2502	28
436.2531	60
436.256	93
436.259	55
436.2619	153
436.2649	192
436.2678	182
436.2708	258
436.2737	371
436.2767	389
436.2796	377
436.2826	649
436.2855	467
436.2885	439
436.2914	512
436.2943	421
436.2973	344
436.3002	340
436.3032	167
436.3061	150
436.3091	122
436.312	72
436.315	45
436.3179	16
436.3209	16
436.3268	11
436.3327	5
436.3356	16
436.3415	5
437.2793	15
437.2852	10
439.1016	5
498.2678	15
688.4694	10
688.4731	10
688.499	10
688.5064	20
688.5138	15
736.1485	10
736.183	10
736.1945	10
736.1982	10
738.4127	10
738.4281	10
738.4587	6
738.4626	47
738.4664	93
738.4703	82
738.4741	164
738.4779	222
738.4818	322
738.4856	432
738.4894	599
738.4933	562
738.4971	614
738.5009	745
738.5048	735
738.5086	762
738.5125	999
738.5162	826
738.5201	932
738.5239	926
738.5278	837
738.5316	801
738.5355	511
738.5392	418
738.5431	393
738.5469	319
738.5508	203
738.5546	147
738.5584	105
738.5623	66
738.5661	37
738.5699	38
738.5738	17
738.5814	12
738.5891	11
739.4752	11
739.4828	20
739.4867	10
739.4905	20
739.4944	10
739.4982	15
739.502	35
739.5059	35
739.5097	20
739.5135	30
739.5174	20
739.5212	20
739.5251	10
739.5289	25
739.5327	15
739.5366	15
739.5634	10
739.5673	10
739.5941	10
