Mass spectrum: PG 36:2; LC-ESI-QTOF; MS2
Name: PG 36:2
Class: PG
Formula: C42H79O10P
Exact mass: 775.0600000000001
SMILES: CCCCCCCCCCCCCCCCCC(=O)OCC(COP(O)(=O)OCC(O)CO)OC(=O)CCCCCCC\C=C/C\C=C/CCCCC
InChI: InChI=1S/C42H79O10P/c1-3-5-7-9-11-13-15-17-19-21-23-25-27-29-31-33-41(45)49-37-40(38-51-53(47,48)50-36-39(44)35-43)52-42(46)34-32-30-28-26-24-22-20-18-16-14-12-10-8-6-4-2/h12,14,18,20,39-40,43-44H,3-11,13,15-17,19,21-38H2,1-2H3,(H,47,48)/b14-12-,20-18-
Instrument: AB Sciex TripleTOF 5600+ system (Q-TOF) equipped with a DuoSpray ion source
Instrument type: LC-ESI-QTOF
Ms type: MS2
Ion mode: NEGATIVE
Collision energy: 45V
Column name: Acquity UPLC Peptide BEH C18 column (50*2.1 mm; 1.7 um; 130A)(Waters Co.,Milford, MA, USA)
Retention time: 8.798505
Precursor type: [M-H]-
Precursor m/z: 773.5283
m/z	relative intensity
78.961	9
152.996	30
171.004	9
171.014	4
195.009	2
209.017	4
227.032	12
253.201	3
255.224	16
255.236	9
278.362	4
279.231	976
280.238	5
281.245	107
281.264	12
283.264	347
307.265	39
309.273	5
415.228	7
419.255	22
437.267	4
457.235	2
459.251	4
461.268	6
465.279	3
477.264	2
479.267	10
483.26	1
489.27	13
493.26	4
493.291	22
493.326	5
507.264	2
511.285	16
511.307	19
699.533	9
713.513	2
741.465	53
741.502	153
741.539	18
741.57	4
771.02	1
771.098	7
772.606	3
773.448	8
773.531	999
774.499	2
