Mass spectrum: PE 36:5; LC-ESI-QTOF; MS2
Name: PE 36:5
Class: PE
Formula: C41H72NO8P
Exact mass: 738.0019999999998
SMILES: CCCCCCCCCCCCCCCC(=O)OCC(COP(O)(=O)OCCN)OC(=O)CCC\C=C/C\C=C/C\C=C/C\C=C/C\C=C/CC
InChI: InChI=1S/C41H72NO8P/c1-3-5-7-9-11-13-15-17-18-19-20-22-24-26-28-30-32-34-41(44)50-39(38-49-51(45,46)48-36-35-42)37-47-40(43)33-31-29-27-25-23-21-16-14-12-10-8-6-4-2/h5,7,11,13,17-18,20,22,26,28,39H,3-4,6,8-10,12,14-16,19,21,23-25,27,29-38,42H2,1-2H3,(H,45,46)/b7-5-,13-11-,18-17-,22-20-,28-26-
Instrument: AB Sciex TripleTOF 5600+ system (Q-TOF) equipped with a DuoSpray ion source
Instrument type: LC-ESI-QTOF
Ms type: MS2
Ion mode: NEGATIVE
Collision energy: 45V
Column name: Acquity UPLC Peptide BEH C18 column (50*2.1 mm; 1.7 um; 130A)(Waters Co.,Milford, MA, USA)
Retention time: 9.01695
Precursor type: [M-H]-
Precursor m/z: 736.4889
m/z	relative intensity
78.959	9
93.069	1
96.967	1
117.072	1
121.102	2
121.999	3
137.132	1
140.011	25
149.134	1
151.146	2
163.073	2
163.149	1
177.09	3
177.166	1
178.025	2
191.105	1
191.178	1
196.036	43
203.181	33
205.125	1
214.045	3
215.178	2
217.123	2
223.165	6
223.177	2
229.194	3
231.141	3
245.154	1
254.428	3
255.233	755
256.425	1
257.227	193
271.21	1
283.202	7
283.218	1
299.195	1
299.215	0
300.251	1
300.273	3
301.216	999
301.595	0
302.222	2
378.223	0
378.249	1
391.222	1
424.229	1
434.233	1
434.262	24
450.848	1
452.23	2
452.275	136
480.219	1
480.246	11
498.208	0
498.26	9
507.88	1
511.46	1
561.955	0
601.184	1
734.098	0
734.151	1
734.189	1
735.637	0
736.483	459
737.101	0
737.455	1
737.505	0
738.081	0
740.166	0
