Mass spectrum: PC(18:0e/14,15-EET); LC-ESI-QTOF; MS2
Name: PC(18:0e/14,15-EET)
Class: Oxidized Phospholipid
Formula: C46H86NO8P
Exact mass: 812.169
SMILES: CCCCCCCCCCCCCCCCCCOCC(COP([O-])(=O)OCC[N+](C)(C)C)OC(=O)CCC\C=C/C\C=C/C\C=C/CC1OC1CCCCC
InChI: InChI=1S/C46H86NO8P/c1-6-8-10-11-12-13-14-15-16-17-18-21-24-27-30-34-39-51-41-43(42-53-56(49,50)52-40-38-47(3,4)5)54-46(48)37-33-29-26-23-20-19-22-25-28-32-36-45-44(55-45)35-31-9-7-2/h19,22-23,26,28,32,43-45H,6-18,20-21,24-25,27,29-31,33-42H2,1-5H3/b22-19-,26-23-,32-28-
Instrument: Acquity UPLC Peptide BEH C18 column (50 x 2.1 mm; 1.7 um), Sciex TripleTOF5600
Instrument type: LC-ESI-QTOF
Ms type: MS2
Ion mode: NEGATIVE
Collision energy: 30-50
Precursor m/z: 870.6229582
Precursor type: [M+CH3COOH-H]-
m/z	relative intensity
141.0155	63
141.0172	63
219.1339	63
219.136	63
219.138	129
219.1401	98
219.1422	129
219.1485	63
241.0065	63
241.0087	63
257.2212	98
257.2235	63
257.2348	98
283.2734	63
301.1999	63
301.2048	63
301.2072	63
301.2097	192
301.2146	63
301.2195	129
301.2244	63
301.2268	63
301.2318	63
301.2366	63
305.2416	63
319.2124	161
319.2149	129
319.2174	224
319.22	321
319.2225	161
319.225	419
319.2275	258
319.23	353
319.2326	353
319.2351	192
319.2376	224
319.2401	98
319.2426	129
319.2452	63
403.2561	98
403.2731	63
476.3512	129
494.3326	63
494.3452	129
494.3515	129
494.3546	63
494.3578	63
494.3609	192
494.364	98
494.3672	161
494.3703	161
494.3734	161
494.3766	129
494.3797	98
557.3083	66
712.4984	66
741.5475	66
763.5399	66
796.5375	63
796.5415	258
796.5455	325
796.5495	262
796.5535	460
796.5574	429
796.5615	759
796.5654	564
796.5694	627
796.5734	797
796.5774	895
796.5814	898
796.5853	933
796.5893	867
796.5933	766
796.5973	999
796.6013	602
796.6052	867
796.6093	734
796.6132	769
796.6172	734
796.6212	400
796.6252	331
796.6292	328
796.6331	400
796.6371	164
796.6411	132
796.6451	98
796.657	98
797.5892	63
797.629	63
870.5242	63
870.5283	63
870.5325	98
870.5408	161
870.5491	63
870.5533	63
870.5575	98
870.5616	98
870.5658	98
870.5699	63
870.5742	129
870.5783	63
870.5825	63
870.5866	98
870.5908	98
870.5991	63
870.6033	98
870.6116	98
870.6199	161
870.6241	63
870.6282	161
870.6324	63
870.6366	192
870.6407	63
870.6449	98
870.6699	98
870.674	129
870.6824	63
871.5236	63
871.5319	63
871.5361	98
871.5486	98
871.5527	98
871.5569	192
871.5611	63
871.5652	63
871.5694	161
871.5735	161
871.5778	63
871.5819	63
871.5861	192
871.5902	192
871.5944	63
871.5986	129
871.6027	63
871.611	63
871.6152	63
