Mass spectrum: SM d41:2; LC-ESI-QTOF; MS2
Name: SM d41:2
Class: SM
Formula: C46H91N2O6P
Exact mass: 799.218
SMILES: CCCCCCCCCCCCC\C=C\C(O)C(COP([O-])(=O)OCC[N+](C)(C)C)NC(=O)CCCCCCCCC\C=C/CCCCCCCCCCC
InChI: InChI=1S/C46H91N2O6P/c1-6-8-10-12-14-16-18-20-21-22-23-24-25-26-28-30-32-34-36-38-40-46(50)47-44(43-54-55(51,52)53-42-41-48(3,4)5)45(49)39-37-35-33-31-29-27-19-17-15-13-11-9-7-2/h23-24,37,39,44-45,49H,6-22,25-36,38,40-43H2,1-5H3,(H-,47,50,51,52)/b24-23-,39-37+
Instrument: AB Sciex TripleTOF 5600+ system (Q-TOF) equipped with a DuoSpray ion source
Instrument type: LC-ESI-QTOF
Ms type: MS2
Ion mode: NEGATIVE
Collision energy: 45V
Column name: Acquity UPLC Peptide BEH C18 column (50*2.1 mm; 1.7 um; 130A)(Waters Co.,Milford, MA, USA)
Retention time: 11.40931
Precursor type: [M+CH3COOH-H]-
Precursor m/z: 857.6783
m/z	relative intensity
78.957	11
78.966	2
122.984	4
168.04	40
283.259	2
305.241	4
306.25	3
327.225	0
333.283	0
334.29	0
419.252	0
420.253	1
421.942	0
435.012	0
449.314	2
449.724	1
459.609	0
494.346	2
495.359	0
712.573	2
770.468	1
781.182	1
783.634	999
783.794	2
784.124	2
784.627	6
784.674	1
797.644	1
798.579	5
798.606	4
857.456	1
857.514	6
857.624	9
857.656	13
857.679	21
857.719	2
