Mass spectrum: PE(18:1e/7-HDoHE); LC-ESI-QTOF; MS2
Name: PE(18:1e/7-HDoHE)
Class: Oxidized Phospholipid
Formula: C45H78NO8P
Exact mass: 792.094
SMILES: CCCCCCCCCCCCCCCC\C=C/OCC(COP(O)(=O)OCCN)OC(=O)CC\C=C/CC(O)\C=C\C=C/C\C=C/C\C=C/C\C=C/CC
InChI: InChI=1S/C45H78NO8P/c1-3-5-7-9-11-13-15-17-18-19-21-23-25-27-29-34-39-51-41-44(42-53-55(49,50)52-40-38-46)54-45(48)37-33-30-32-36-43(47)35-31-28-26-24-22-20-16-14-12-10-8-6-4-2/h6,8,12,14,20,22,26,28,30-32,34-35,39,43-44,47H,3-5,7,9-11,13,15-19,21,23-25,27,29,33,36-38,40-42,46H2,1-2H3,(H,49,50)/b8-6-,14-12-,22-20-,28-26-,32-30-,35-31+,39-34-
Instrument: Acquity UPLC Peptide BEH C18 column (50 x 2.1 mm; 1.7 um), Sciex TripleTOF5600
Instrument type: LC-ESI-QTOF
Ms type: MS2
Ion mode: NEGATIVE
Collision energy: 30-50
Precursor m/z: 790.539229
Precursor type: [M-H]-
m/z	relative intensity
78.95546	24
78.96173	16
97.06728	24
97.07145	16
113.0569	24
113.0584	16
113.0599	24
113.0689	32
131.0892	16
133.1066	16
140.0113	32
140.0147	24
140.0163	24
141.0517	40
141.0534	32
141.0551	16
141.0567	56
141.0584	56
141.0601	24
141.0618	16
141.0651	16
147.1061	16
152.9891	16
168.0403	16
168.0458	16
168.0476	24
173.1301	16
173.1357	16
181.0856	16
189.1558	16
189.1674	16
189.1693	16
196.0265	32
196.0304	16
196.0324	32
196.0344	48
196.0363	16
196.0383	88
196.0403	24
196.0423	24
196.0443	16
201.1484	16
201.1544	32
201.1564	32
201.1584	73
201.1604	40
201.1624	16
201.1644	65
201.1664	40
201.1684	40
201.1704	40
201.1724	16
224.0671	16
224.0734	16
227.1804	16
227.1826	16
227.1868	16
227.1889	24
227.1911	32
227.1932	56
227.1953	65
227.1974	32
227.1996	40
227.2017	32
227.2038	48
227.2059	56
227.2081	40
227.2102	32
227.2123	16
227.2166	16
227.2208	16
241.2164	16
241.2185	16
241.2251	16
245.1814	16
245.1924	16
251.1941	16
251.1963	16
251.2008	40
251.203	48
251.212	16
252.1991	16
252.2014	40
252.2059	16
252.2081	32
252.2104	24
252.2126	32
253.195	24
253.1973	16
253.1995	16
253.2018	65
253.204	96
253.2062	73
253.2085	105
253.2107	153
253.213	193
253.2152	153
253.2175	217
253.2197	177
253.222	137
253.2242	105
253.2265	88
253.2287	65
253.2309	16
253.2332	32
253.2354	40
253.2422	24
254.2153	16
254.2243	24
255.2107	16
255.2152	24
255.2174	32
255.2197	16
255.2219	40
255.2242	56
255.2264	137
255.2287	96
255.231	113
255.2332	88
255.2355	56
255.2377	96
255.24	80
255.2422	40
255.2445	48
255.2467	24
255.2535	16
255.2558	16
255.3053	16
256.226	24
256.2328	16
256.235	16
256.2373	16
256.2463	16
257.2298	16
257.2366	24
257.2411	24
257.2502	16
267.2186	16
267.2232	16
267.2278	16
267.2325	16
267.2417	24
267.244	16
267.2578	16
267.267	24
267.2717	16
267.274	16
267.2763	24
267.2786	16
269.2522	17
279.229	17
281.1349	17
281.1965	16
281.2036	49
281.2083	32
281.2107	65
281.213	57
281.2154	65
281.2178	221
281.2201	155
281.2225	221
281.2249	189
281.2272	264
281.2296	223
281.232	238
281.2343	165
281.2367	247
281.2391	205
281.2414	132
281.2438	190
281.2462	131
281.2485	99
281.2509	107
281.2533	114
281.2556	80
281.258	73
281.2627	24
281.2675	24
281.2698	16
282.2338	16
282.2456	16
283.2492	16
283.2611	24
283.2682	16
283.2729	16
283.2753	16
283.3988	16
284.2593	16
284.2641	16
284.2688	16
284.2736	24
299.2315	16
299.2339	16
299.2486	16
299.251	24
299.2535	16
301.202	24
301.2069	32
301.2093	32
301.2118	24
301.2142	113
301.2167	73
301.2191	73
301.2216	32
301.224	73
301.2265	16
301.2289	16
301.2314	40
301.2338	24
301.2999	16
325.1917	16
325.2018	16
325.2044	24
325.2069	40
325.2095	32
325.212	40
325.2146	32
325.2171	48
325.2197	80
325.2222	56
325.2248	40
325.2273	73
325.2298	24
325.2324	32
327.2253	16
327.2304	16
327.2329	16
327.2355	40
327.238	24
327.2432	16
329.2652	17
342.165	17
343.1942	17
343.202	32
343.2046	49
343.2072	49
343.2098	49
343.2124	148
343.2151	122
343.2177	179
343.2203	229
343.2229	236
343.2255	253
343.2281	278
343.2307	156
343.2333	170
343.236	204
343.2386	122
343.2412	65
343.2438	57
343.2464	17
343.249	49
343.2516	40
343.2543	49
345.2334	16
345.236	16
345.2386	16
345.2412	16
345.2439	40
345.2491	16
345.2544	32
403.2701	16
403.273	16
446.2775	16
446.2805	16
446.2834	16
446.2894	32
446.2924	16
446.2954	56
446.2983	40
446.3013	48
446.3043	56
446.3073	40
446.3103	40
446.3133	65
446.3163	48
446.3192	32
446.3222	40
446.3282	24
462.2909	16
462.2939	16
462.3061	16
462.3091	24
462.3121	16
462.3152	24
463.3138	17
463.3169	17
464.2801	49
464.2862	16
464.2892	65
464.2923	32
464.2953	154
464.2984	187
464.3014	252
464.3044	197
464.3075	236
464.3105	206
464.3136	157
464.3166	221
464.3196	239
464.3227	198
464.3257	125
464.3288	149
464.3318	166
464.3348	116
464.3379	65
464.3409	24
464.344	32
464.347	17
464.35	41
464.3561	32
465.3144	24
465.3266	16
469.8788	16
480.292	16
480.3105	16
480.3136	16
506.3034	16
506.3193	16
506.3257	16
506.3288	16
506.3415	16
559.3658	16
689.4991	24
703.5039	24
703.5077	24
703.5151	24
703.5226	16
714.263	17
715.4891	16
715.5004	33
715.5419	32
716.3914	17
716.4631	16
716.4669	24
716.4707	16
716.4745	24
716.482	40
716.4858	66
716.4896	65
716.4933	132
716.4971	132
716.5009	174
716.5047	174
716.5084	216
716.5122	241
716.516	192
716.5198	284
716.5236	268
716.5273	250
716.5311	216
716.5349	292
716.5386	167
716.5424	142
716.5462	142
716.55	76
716.5538	125
716.5576	67
716.5613	84
716.5651	58
716.5726	16
716.5802	33
716.584	24
716.5953	16
717.4946	9
717.5172	16
717.5248	16
788.0358	16
788.0675	16
788.1071	16
790.4181	25
790.4578	24
790.4617	24
790.4657	16
790.4697	16
790.4776	16
790.4855	61
790.4895	97
790.4935	118
790.4974	170
790.5014	179
790.5054	365
790.5093	392
790.5133	365
790.5173	430
790.5212	549
790.5252	638
790.5292	904
790.5331	735
790.5371	664
790.5411	806
790.545	999
790.549	877
790.553	758
790.5569	752
790.5609	736
790.5649	664
790.5688	514
790.5728	462
790.5768	351
790.5807	295
790.5847	333
790.5887	158
790.5927	156
790.5966	65
790.6006	65
790.6046	46
790.6085	28
790.6125	26
790.6165	33
790.6204	19
790.6244	9
791.4974	16
791.5133	16
791.5212	32
791.5252	16
791.5292	24
791.5331	24
791.5371	32
791.5411	40
791.545	56
791.549	16
791.553	40
791.5569	24
791.5609	32
791.5649	24
791.5689	24
791.5729	24
792.0374	16
