Mass spectrum: PE(18:0e/10-HDoHE); LC-ESI-QTOF; MS2
Name: PE(18:0e/10-HDoHE)
Class: Oxidized Phospholipid
Formula: C45H80NO8P
Exact mass: 794.11
SMILES: CCCCCCCCCCCCCCCCCCOCC(COP(O)(=O)OCCN)OC(=O)CC\C=C/C\C=C/CC(O)\C=C\C=C/C\C=C/C\C=C/CC
InChI: InChI=1S/C45H80NO8P/c1-3-5-7-9-11-13-15-16-17-18-19-20-22-26-30-34-39-51-41-44(42-53-55(49,50)52-40-38-46)54-45(48)37-33-29-25-24-28-32-36-43(47)35-31-27-23-21-14-12-10-8-6-4-2/h6,8,12,14,23,25,27-29,31-32,35,43-44,47H,3-5,7,9-11,13,15-22,24,26,30,33-34,36-42,46H2,1-2H3,(H,49,50)/b8-6-,14-12-,27-23-,29-25-,32-28-,35-31+
Instrument: Acquity UPLC Peptide BEH C18 column (50 x 2.1 mm; 1.7 um), Sciex TripleTOF5600
Instrument type: LC-ESI-QTOF
Ms type: MS2
Ion mode: NEGATIVE
Collision energy: 30-50
Precursor m/z: 792.554879
Precursor type: [M-H]-
m/z	relative intensity
153.0851	67
153.0868	201
153.0885	134
153.0903	67
153.092	67
153.0938	67
153.1024	67
161.1253	67
161.1289	134
181.079	67
181.0809	134
181.0847	268
181.0884	67
181.0979	67
212.7417	67
212.7437	134
255.2234	67
255.2301	67
281.2059	67
281.2153	67
281.2223	67
281.227	67
281.2294	67
281.2317	67
281.2341	67
281.2364	134
281.2388	67
281.2435	67
281.2458	67
281.2505	134
281.2529	67
322.9248	67
322.945	67
325.2047	134
325.2072	67
325.2174	134
325.2224	67
343.1738	67
343.205	67
343.2153	67
343.2206	134
343.2231	419
343.2257	201
343.2283	67
343.2309	67
343.2335	67
343.2361	134
343.2387	67
343.2439	67
375.2203	67
375.2231	134
375.2312	67
375.2366	134
375.2529	67
377.2362	134
377.2416	67
377.2444	67
377.2471	67
377.2498	67
377.258	67
401.2516	134
405.2481	67
405.2764	67
405.2961	67
448.2928	67
448.3106	134
448.3135	134
448.3165	67
448.3343	134
466.3114	67
466.3175	201
466.3205	67
466.3235	67
466.3265	67
466.3296	268
466.3356	67
466.3387	67
466.3477	67
629.4542	134
657.4374	67
657.4518	67
705.4767	67
705.4804	67
705.4916	134
705.4953	67
716.5014	67
716.5202	67
716.5389	134
716.5765	67
718.5038	67
718.5076	67
718.5114	201
718.5151	134
718.5226	67
718.5264	67
718.5301	134
718.5339	67
718.5414	201
718.5452	201
718.5527	134
718.5565	134
718.5602	67
718.5715	67
792.4788	67
792.5024	134
792.5063	67
792.5182	368
792.5222	335
792.5261	201
792.5301	396
792.534	469
792.538	586
792.5419	793
792.5458	726
792.5498	625
792.5538	999
792.5577	675
792.5616	859
792.5656	597
792.5695	363
792.5735	380
792.5775	474
792.5814	352
792.5853	335
792.5893	134
792.5933	134
792.5972	67
792.6051	67
792.609	67
792.6327	67
792.6683	67
