Mass spectrum: PE 40:6; LC-ESI-QTOF; MS2
Name: PE 40:6
Class: PE
Formula: C45H78NO8P
Exact mass: 792.0939999999999
SMILES: CCCCCCCC\C=C/CCCCCCCC(=O)OCC(COP(O)(=O)OCCN)OC(=O)CCCCC\C=C/C\C=C/C\C=C/C\C=C/C\C=C/CC
InChI: InChI=1S/C45H78NO8P/c1-3-5-7-9-11-13-15-17-19-20-21-22-24-26-28-30-32-34-36-38-45(48)54-43(42-53-55(49,50)52-40-39-46)41-51-44(47)37-35-33-31-29-27-25-23-18-16-14-12-10-8-6-4-2/h5,7,11,13,17-19,21-23,26,28,43H,3-4,6,8-10,12,14-16,20,24-25,27,29-42,46H2,1-2H3,(H,49,50)/b7-5-,13-11-,19-17-,22-21-,23-18-,28-26-
Instrument: AB Sciex TripleTOF 5600+ system (Q-TOF) equipped with a DuoSpray ion source
Instrument type: LC-ESI-QTOF
Ms type: MS2
Ion mode: NEGATIVE
Collision energy: 45V
Column name: Acquity UPLC Peptide BEH C18 column (50*2.1 mm; 1.7 um; 130A)(Waters Co.,Milford, MA, USA)
Retention time: 9.715544
Precursor type: [M-H]-
Precursor m/z: 790.5324
m/z	relative intensity
140.011	26
196.036	53
229.192	26
259.245	58
281.244	334
281.261	85
283.238	139
283.256	80
285.259	63
303.227	407
307.253	143
307.271	122
327.228	428
328.21	15
329.228	69
329.245	423
329.257	171
341.249	21
420.247	22
460.29	21
462.287	58
478.276	74
478.301	26
480.295	150
480.319	53
486.287	31
504.29	47
703.504	26
716.574	31
790.349	10
790.492	577
790.523	999
790.551	185
790.603	21
