Mass spectrum: PC(16:0e/20-HETE); LC-ESI-QTOF; MS2
Name: PC(16:0e/20-HETE)
Class: Oxidized Phospholipid
Formula: C44H82NO8P
Exact mass: 784.115
SMILES: CCCCCCCCCCCCCCCCOCC(COP([O-])(=O)OCC[N+](C)(C)C)OC(=O)CCC\C=C/C\C=C/C\C=C/C\C=C/CCCCCO
InChI: InChI=1S/C44H82NO8P/c1-5-6-7-8-9-10-11-12-20-23-26-29-32-35-39-50-41-43(42-52-54(48,49)51-40-37-45(2,3)4)53-44(47)36-33-30-27-24-21-18-16-14-13-15-17-19-22-25-28-31-34-38-46/h13,15-16,18-19,22,24,27,43,46H,5-12,14,17,20-21,23,25-26,28-42H2,1-4H3/b15-13-,18-16-,22-19-,27-24-
Instrument: Acquity UPLC Peptide BEH C18 column (50 x 2.1 mm; 1.7 um), Sciex TripleTOF5600
Instrument type: LC-ESI-QTOF
Ms type: MS2
Ion mode: NEGATIVE
Collision energy: 30-50
Precursor m/z: 842.5916581
Precursor type: [M+CH3COOH-H]-
m/z	relative intensity
78.95883	4
78.96384	9
135.1176	4
149.063	4
149.1302	4
168.038	9
168.0472	4
168.049	4
177.0879	4
177.0916	4
177.163	4
177.1686	4
189.1631	4
191.1847	4
192.046	4
219.2101	4
229.1963	4
245.2097	6
245.2141	7
245.2163	6
245.2185	9
245.2207	13
245.2229	15
245.2251	22
245.2273	15
245.2296	9
245.2318	18
245.234	15
245.2362	13
245.2384	4
245.2406	6
245.2428	4
257.218	4
257.2203	7
257.2225	7
257.2271	7
257.2293	4
257.2316	6
257.2338	4
257.2361	11
257.2384	7
271.2024	4
273.2067	11
273.209	4
273.2113	6
273.2137	13
273.216	6
273.2183	9
273.2207	13
273.223	11
273.2253	15
273.2277	18
273.23	7
273.2323	13
273.2346	6
273.237	4
273.2393	4
275.2207	7
275.2231	11
275.2254	7
275.2278	15
275.2301	24
275.2324	25
275.2348	34
275.2371	18
275.2394	40
275.2418	18
275.2441	38
275.2465	34
275.2488	9
275.2512	9
275.2535	4
275.2558	4
275.2582	7
275.2605	6
283.206	4
283.2108	4
283.2179	4
283.2297	4
283.2345	4
283.2487	4
289.1997	4
289.2045	4
289.2069	13
289.2093	13
289.2117	24
289.2141	22
289.2165	15
289.2189	29
289.2213	22
289.2237	7
289.2261	15
289.2285	4
289.2429	4
291.2236	4
291.226	6
291.2308	4
291.2332	4
291.238	6
291.2404	6
296.7321	4
298.7431	4
300.2766	4
300.2815	4
301.1868	4
301.1942	9
301.1991	15
301.2015	4
301.204	22
301.2064	35
301.2089	56
301.2113	50
301.2138	80
301.2162	60
301.2187	60
301.2211	67
301.2236	58
301.226	46
301.2285	41
301.2309	26
301.2334	11
301.2358	13
301.2383	20
301.2407	4
301.2432	4
301.2456	2
303.2251	9
303.2276	4
303.2301	16
303.2325	7
303.235	4
303.2374	9
303.2399	7
303.2448	7
303.2473	4
304.2161	4
304.2309	4
304.2333	7
304.2358	7
304.2383	6
304.2407	11
304.2432	9
304.258	4
305.2432	4
317.2157	6
317.2207	4
318.2166	4
318.2217	7
318.2267	6
318.2318	6
318.2343	4
318.2368	9
318.2393	9
318.2418	4
318.2443	10
318.7782	5
319.1335	9
319.1864	4
319.1914	2
319.199	23
319.2015	31
319.204	35
319.2066	73
319.2091	132
319.2116	182
319.2141	302
319.2167	423
319.2192	531
319.2217	699
319.2242	845
319.2267	848
319.2292	909
319.2318	801
319.2343	768
319.2368	634
319.2393	447
319.2419	326
319.2444	173
319.2469	146
319.2494	89
319.252	61
319.2545	57
319.257	23
319.2595	11
319.2621	5
319.2646	6
319.2721	3
319.5747	2
319.6479	3
319.7968	2
320.1349	2
320.188	3
320.2233	9
320.2258	9
320.2284	6
320.2309	15
320.2334	13
320.2359	15
320.2385	7
320.241	6
320.2435	6
320.246	4
321.2391	4
321.2695	4
327.2172	6
327.2223	4
327.2249	6
327.2274	6
327.2325	4
327.235	6
327.2376	4
327.2478	4
328.2159	4
328.2287	7
328.2312	4
328.2338	6
328.2542	4
377.2285	4
377.2313	4
377.234	4
377.2367	7
377.2395	13
377.2422	6
377.245	9
377.2477	11
377.2504	13
377.2532	9
377.2559	11
377.2587	6
377.2614	6
377.2641	6
378.2624	4
395.2516	4
395.2601	4
395.2657	4
395.2685	6
420.5682	4
448.2854	4
448.2914	6
448.2943	15
448.3003	16
448.3033	18
448.3063	22
448.3093	29
448.3123	36
448.3152	33
448.3182	27
448.3212	51
448.3242	36
448.3272	35
448.3302	42
448.3332	26
448.3362	24
448.3392	15
448.3422	6
448.3452	9
448.3481	4
448.3511	6
448.3541	4
448.3571	4
448.3631	4
462.5576	4
463.2315	6
464.8911	4
465.0188	4
466.2794	9
466.2855	7
466.2885	4
466.2915	17
466.2946	4
466.2976	8
466.3007	31
466.3037	27
466.3068	23
466.3098	48
466.3129	81
466.3159	92
466.319	91
466.322	114
466.3251	180
466.3281	182
466.3311	153
466.3342	149
466.3372	182
466.3403	131
466.3434	125
466.3464	118
466.3494	89
466.3525	50
466.3555	46
466.3586	40
466.3616	20
466.3647	12
466.3677	18
466.3708	6
466.3738	4
466.3799	2
466.3921	4
466.8157	2
467.2518	2
467.3219	2
467.328	4
467.3372	4
467.3433	4
486.107	4
505.7508	4
535.7925	4
697.4579	4
697.4616	4
697.4728	4
697.4765	6
697.4802	7
697.4839	6
697.4877	11
697.4914	7
697.4988	6
697.5026	9
697.51	6
697.5249	4
697.5287	6
697.5361	4
723.467	4
723.4897	6
723.5125	4
723.5201	4
766.093	4
766.0969	4
766.1085	4
766.1242	7
766.1281	9
766.132	7
766.1359	9
766.1398	9
766.1437	6
766.1515	4
766.1554	6
766.1593	6
766.1632	9
766.171	9
766.1866	4
767.5777	4
768.4262	4
768.434	5
768.4653	6
768.5005	18
768.5044	38
768.5083	49
768.5123	83
768.5162	114
768.5201	153
768.524	217
768.5279	248
768.5318	402
768.5357	465
768.5396	653
768.5435	685
768.5474	749
768.5513	889
768.5553	944
768.5592	932
768.5631	999
768.567	996
768.5709	880
768.5748	938
768.5787	756
768.5826	635
768.5865	548
768.5905	368
768.5944	237
768.5983	233
768.6022	123
768.6061	88
768.61	41
768.614	45
768.6179	58
768.6218	11
768.6257	18
768.6296	6
768.6335	6
768.6374	6
768.6414	6
768.876	3
769.0952	3
769.1656	3
769.1813	6
769.2047	3
769.4239	4
769.5022	6
769.5178	6
769.5217	6
769.5256	4
769.5295	16
769.5335	11
769.5374	9
769.5413	15
769.5452	18
769.5491	18
769.553	18
769.5569	20
769.5609	24
769.5648	20
769.5687	22
769.5726	29
769.5765	29
769.5804	25
769.5844	24
769.5883	18
769.5922	18
769.5961	16
769.6	18
769.6039	7
769.6078	6
769.6118	6
769.6157	4
769.6235	4
769.6274	7
769.6509	4
770.0854	4
776.5989	4
782.5713	6
783.4794	4
783.4833	6
783.4873	4
783.4952	13
783.4991	7
783.5031	11
783.5071	9
783.511	6
783.515	7
783.5189	9
783.5228	13
783.5268	11
783.5308	25
783.5347	16
783.5386	7
783.5426	11
783.5466	6
783.5505	6
783.5544	11
783.5584	6
783.5703	4
792.5933	4
795.5913	6
795.6072	4
839.9838	4
842.4556	4
842.4637	4
842.476	4
842.4801	4
842.4842	13
842.4883	7
842.4924	13
842.4965	4
842.5006	20
842.5047	13
842.5088	18
842.5129	9
842.517	13
842.5211	22
842.5251	11
842.5292	18
842.5334	13
842.5375	24
842.5416	20
842.5457	35
842.5497	26
842.5538	8
842.5579	37
842.562	17
842.5661	35
842.5702	60
842.5743	71
842.5784	57
842.5825	51
842.5866	68
842.5907	80
842.5948	73
842.5989	79
842.603	67
842.6071	90
842.6112	92
842.6153	73
842.6194	70
842.6235	81
842.6276	53
842.6317	47
842.6357	49
842.6398	33
842.6439	16
842.648	16
842.6521	4
842.6563	20
842.6603	10
842.6644	4
842.6685	4
842.6726	6
842.6931	6
842.6972	4
842.7422	2
843.4879	4
843.4961	4
843.5576	4
843.5698	4
843.5944	7
843.619	4
843.6354	4
843.6395	4
