Mass spectrum: PI(16:0e/15-HETE); LC-ESI-QTOF; MS2
Name: PI(16:0e/15-HETE)
Class: Oxidized Phospholipid
Formula: C45H81O13P
Exact mass: 861.106
SMILES: CCCCCCCCCCCCCCCCOCC(COP(O)(=O)OC1C(O)C(O)C(O)C(O)C1O)OC(=O)CCC\C=C/C\C=C/C\C=C/C=C/C(O)CCCCC
InChI: InChI=1S/C45H81O13P/c1-3-5-7-8-9-10-11-12-13-17-20-23-26-30-34-55-35-38(36-56-59(53,54)58-45-43(51)41(49)40(48)42(50)44(45)52)57-39(47)33-29-25-22-19-16-14-15-18-21-24-28-32-37(46)31-27-6-4-2/h14-15,19,21-22,24,28,32,37-38,40-46,48-52H,3-13,16-18,20,23,25-27,29-31,33-36H2,1-2H3,(H,53,54)/b15-14-,22-19-,24-21-,32-28+
Instrument: Acquity UPLC Peptide BEH C18 column (50 x 2.1 mm; 1.7 um), Sciex TripleTOF5600
Instrument type: LC-ESI-QTOF
Ms type: MS2
Ion mode: NEGATIVE
Collision energy: 30-50
Precursor m/z: 859.5342032
Precursor type: [M-H]-
m/z	relative intensity
153.8793	10
153.8863	10
175.1384	10
175.1421	19
175.1458	10
175.1477	10
175.1495	19
175.1755	10
181.0792	10
181.1	10
219.1225	10
219.1246	10
219.1308	10
219.1329	19
219.1349	38
219.137	10
219.1391	29
219.1412	10
219.1432	10
219.1453	29
240.9979	10
241.0001	10
241.0023	19
241.0044	10
241.0066	53
241.0088	19
241.011	48
241.0132	53
241.0153	29
241.0175	19
241.0197	10
241.0219	29
257.215	10
257.2173	10
257.224	19
257.2263	10
257.2285	10
257.2308	29
301.2023	19
301.2047	10
301.2072	10
301.212	38
301.2144	48
301.2169	48
301.2193	29
301.2217	29
301.2242	19
301.2315	10
319.2033	10
319.2058	10
319.2108	19
319.2133	19
319.2159	29
319.2209	48
319.2234	70
319.2259	75
319.2284	53
319.2309	65
319.2334	29
319.2359	38
319.2384	29
319.2409	19
319.2434	19
319.2484	10
319.2509	10
343.9774	10
343.9801	19
343.9827	10
343.9879	10
343.9957	10
343.9983	10
377.2257	10
377.2311	29
377.2339	19
377.2366	38
377.2393	38
377.242	38
377.2448	48
377.2475	38
377.2502	29
377.2529	10
377.2556	10
377.2584	10
377.2611	10
377.2747	10
377.2774	10
390.9993	19
395.2568	10
395.2708	10
395.2847	10
473.5022	19
484.3892	10
484.3923	10
484.3985	10
484.5374	10
484.5498	10
501.013	10
501.0161	10
522.0397	10
522.0429	10
539.2758	10
539.2823	29
539.2856	10
539.2889	10
539.2921	19
539.2986	10
539.3019	10
539.3084	19
539.3116	10
543.7864	10
543.7962	10
543.806	10
557.3017	29
557.305	10
557.3083	10
557.3116	19
557.3182	10
557.3215	10
557.3348	10
697.4427	10
697.4576	10
697.4687	10
697.4909	10
697.502	10
777.426	10
777.4377	10
777.4572	19
785.5183	19
785.5302	10
785.5341	19
785.5419	10
785.5537	19
785.5577	19
785.5616	19
785.5695	10
785.5773	19
785.5812	10
785.5891	10
799.4398	10
799.4556	10
856.7958	10
856.8122	19
856.8245	10
856.8286	10
856.8409	10
856.882	10
856.9107	10
858.4264	10
858.4305	10
858.4592	10
858.5784	19
859.4252	10
859.4705	10
859.4745	10
859.4786	19
859.4828	38
859.4869	54
859.491	38
859.4951	124
859.4992	102
859.5034	185
859.5074	219
859.5115	356
859.5157	313
859.5198	587
859.5239	769
859.528	945
859.5321	728
859.5363	999
859.5403	745
859.5444	646
859.5486	575
859.5527	515
859.5568	357
859.5609	286
859.565	223
859.5692	182
859.5732	86
859.5773	120
859.5815	118
859.5856	38
859.5897	38
859.5938	38
859.602	19
859.6144	19
859.6267	10
859.6843	10
860.0503	10
860.1079	10
860.7044	10
860.7538	10
864.3416	10
864.3828	10
