Mass spectrum: PG 40:6; LC-ESI-QTOF; MS2
Name: PG 40:6
Class: PG
Formula: C46H79O10P
Exact mass: 823.1039999999999
SMILES: CCCCCCCC\C=C/CCCCCCCC(=O)OCC(COP(O)(=O)OCC(O)CO)OC(=O)CCCCC\C=C/C\C=C/C\C=C/C\C=C/C\C=C/CC
InChI: InChI=1S/C46H79O10P/c1-3-5-7-9-11-13-15-17-19-20-21-22-24-26-28-30-32-34-36-38-46(50)56-44(42-55-57(51,52)54-40-43(48)39-47)41-53-45(49)37-35-33-31-29-27-25-23-18-16-14-12-10-8-6-4-2/h5,7,11,13,17-19,21-23,26,28,43-44,47-48H,3-4,6,8-10,12,14-16,20,24-25,27,29-42H2,1-2H3,(H,51,52)/b7-5-,13-11-,19-17-,22-21-,23-18-,28-26-
Instrument: AB Sciex TripleTOF 5600+ system (Q-TOF) equipped with a DuoSpray ion source
Instrument type: LC-ESI-QTOF
Ms type: MS2
Ion mode: NEGATIVE
Collision energy: 45V
Column name: Acquity UPLC Peptide BEH C18 column (50*2.1 mm; 1.7 um; 130A)(Waters Co.,Milford, MA, USA)
Retention time: 8.180153
Precursor type: [M-H]-
Precursor m/z: 821.5315
m/z	relative intensity
152.997	23
231.2	7
255.229	10
279.23	23
281.246	999
283.266	36
285.25	18
285.27	33
297.266	7
301.218	14
328.22	8
328.977	10
329.246	576
329.263	148
331.27	26
417.243	9
419.258	10
435.252	7
437.265	10
438.273	8
464.3	8
465.237	21
465.313	7
491.272	7
509.257	5
509.308	5
539.272	10
557.285	18
629.494	5
629.54	5
683.461	7
716.483	5
719.484	5
734.516	5
738.519	5
760.625	5
761.643	5
803.468	10
821.513	879
821.543	692
821.571	133
821.599	44
821.727	5
822.548	5
