Mass spectrum: PC(18:1/15-HETE); LC-ESI-QTOF; MS2
Name: PC(18:1/15-HETE)
Class: Oxidized Phospholipid
Formula: C46H82NO9P
Exact mass: 824.136
SMILES: CCCCCCCC\C=C/CCCCCCCC(=O)OCC(COP([O-])(=O)OCC[N+](C)(C)C)OC(=O)CCC\C=C/C\C=C/C\C=C/C=C/C(O)CCCCC
InChI: InChI=1S/C46H82NO9P/c1-6-8-10-11-12-13-14-15-16-17-20-23-26-29-33-37-45(49)53-41-44(42-55-57(51,52)54-40-39-47(3,4)5)56-46(50)38-34-30-27-24-21-18-19-22-25-28-32-36-43(48)35-31-9-7-2/h15-16,18-19,24-25,27-28,32,36,43-44,48H,6-14,17,20-23,26,29-31,33-35,37-42H2,1-5H3/b16-15-,19-18-,27-24-,28-25-,36-32+
Instrument: Acquity UPLC Peptide BEH C18 column (50 x 2.1 mm; 1.7 um), Sciex TripleTOF5600
Instrument type: LC-ESI-QTOF
Ms type: MS2
Ion mode: NEGATIVE
Collision energy: 30-50
Precursor m/z: 882.5865727
Precursor type: [M+CH3COOH-H]-
m/z	relative intensity
168.0385	24
175.1447	47
175.1466	35
175.1485	24
175.1503	73
175.1522	47
198.5712	24
219.1292	24
219.1334	73
219.1355	85
219.1375	61
219.1396	61
219.1438	47
219.1459	24
219.148	61
253.2153	35
257.2186	35
257.2231	47
257.2254	85
257.2276	24
257.2299	97
257.2321	24
257.2412	24
275.24	24
281.225	35
281.2274	24
281.2297	35
281.2321	61
281.2345	120
281.2368	97
281.2392	61
281.2415	253
281.2439	217
281.2463	241
281.2487	350
281.251	276
281.2534	229
281.2557	194
281.2581	182
281.2605	120
281.2628	132
281.2652	97
281.2676	35
281.27	47
281.2747	24
301.1972	35
301.2021	47
301.2046	47
301.207	85
301.2095	85
301.2119	61
301.2144	61
301.2168	61
301.2193	120
301.2217	61
301.2242	24
301.2266	85
301.2291	24
301.2339	47
319.2072	61
319.2097	109
319.2122	35
319.2148	97
319.2173	61
319.2198	182
319.2223	217
319.2249	265
319.2274	229
319.2299	302
319.2324	182
319.2349	132
319.2374	288
319.24	132
319.2425	120
319.245	61
319.2627	24
320.2214	24
347.2684	24
506.307	47
506.3102	61
506.3134	24
506.3165	24
506.3261	85
506.3293	35
506.3324	35
506.3388	61
506.3419	47
737.4669	35
737.4745	35
737.4783	35
737.4822	35
737.486	24
737.4898	24
737.4937	24
805.9894	24
808.4788	47
808.4828	73
808.4869	85
808.4909	50
808.4949	85
808.4989	135
808.5029	184
808.507	111
808.5109	135
808.515	406
808.519	286
808.523	309
808.527	501
808.531	574
808.535	463
808.539	730
808.543	853
808.5471	831
808.5511	784
808.5551	742
808.5591	871
808.5631	999
808.5671	772
808.5711	784
808.5751	668
808.5792	543
808.5832	531
808.5872	505
808.5912	418
808.5952	354
808.5992	253
808.6032	177
808.6072	139
808.6113	149
808.6152	61
808.6193	40
808.6233	76
808.6273	26
808.6393	24
809.5263	24
809.5303	24
809.5624	24
809.5665	47
809.5745	24
809.5825	47
809.5986	24
823.4963	24
823.5409	24
882.5239	24
882.5365	24
882.5449	35
882.5491	24
882.5616	73
882.5659	35
882.5701	109
882.5742	24
882.5784	61
882.5826	73
882.5868	109
882.591	73
882.5952	61
882.5994	73
882.6036	73
882.6078	85
882.6119	73
882.6204	73
882.6245	35
882.6287	61
882.6329	35
882.6371	24
882.6413	35
882.6455	35
