Mass spectrum: PI 38:6; LC-ESI-QTOF; MS2
Name: PI 38:6
Class: PI
Formula: C47H79O13P
Exact mass: 883.1119999999999
SMILES: CCCCCCCCCCCCCCCC(=O)OCC(COP(O)(=O)OC1C(O)C(O)C(O)C(O)C1O)OC(=O)CC\C=C/C\C=C/C\C=C/C\C=C/C\C=C/C\C=C/CC
InChI: InChI=1S/C47H79O13P/c1-3-5-7-9-11-13-15-17-18-19-20-21-22-24-26-28-30-32-34-36-41(49)59-39(38-58-61(55,56)60-47-45(53)43(51)42(50)44(52)46(47)54)37-57-40(48)35-33-31-29-27-25-23-16-14-12-10-8-6-4-2/h5,7,11,13,17-18,20-21,24,26,30,32,39,42-47,50-54H,3-4,6,8-10,12,14-16,19,22-23,25,27-29,31,33-38H2,1-2H3,(H,55,56)/b7-5-,13-11-,18-17-,21-20-,26-24-,32-30-
Instrument: AB Sciex TripleTOF 5600+ system (Q-TOF) equipped with a DuoSpray ion source
Instrument type: LC-ESI-QTOF
Ms type: MS2
Ion mode: NEGATIVE
Collision energy: 45V
Column name: Acquity UPLC Peptide BEH C18 column (50*2.1 mm; 1.7 um; 130A)(Waters Co.,Milford, MA, USA)
Retention time: 8.246706
Precursor type: [M-H]-
Precursor m/z: 881.514
m/z	relative intensity
78.958	7
95.084	0
96.97	2
121.099	0
134.988	0
152.995	15
163.146	0
175.148	0
177.091	0
177.166	1
189.162	0
191.173	0
191.184	0
203.182	0
223.0	21
229.193	5
240.257	1
241.011	102
249.187	1
254.442	1
255.231	134
256.235	0
257.238	0
259.021	10
279.235	0
281.236	0
282.342	0
283.243	46
297.034	19
309.209	0
309.237	0
315.048	7
326.212	0
327.231	93
328.232	0
333.066	0
390.002	0
391.176	0
391.223	83
392.223	1
393.218	0
409.232	7
410.245	0
437.248	0
463.221	10
479.251	0
480.304	0
481.235	0
491.984	0
497.244	0
551.266	0
551.549	0
553.2	0
553.275	89
570.276	0
571.284	30
625.238	2
625.269	11
625.295	3
625.305	1
625.331	0
643.257	0
643.284	1
643.305	0
719.407	0
719.455	2
719.486	1
721.412	0
721.466	0
721.51	0
761.482	0
807.516	1
807.546	0
821.554	0
831.492	0
849.475	0
863.528	0
878.669	1
878.687	1
878.716	2
878.76	1
878.835	0
880.063	0
880.46	0
880.551	0
881.278	0
881.376	0
881.513	999
882.084	0
882.182	0
882.494	1
882.515	1
882.539	0
882.567	0
883.924	0
