Mass spectrum: PE 38:5; LC-ESI-QTOF; MS2
Name: PE 38:5
Class: PE
Formula: C43H76NO8P
Exact mass: 766.0559999999998
SMILES: CCCCCCCCCCCCCCCC(=O)OCC(COP(O)(=O)OCCN)OC(=O)CCCCC\C=C/C\C=C/C\C=C/C\C=C/C\C=C/CC
InChI: InChI=1S/C43H76NO8P/c1-3-5-7-9-11-13-15-17-18-19-20-21-22-24-26-28-30-32-34-36-43(46)52-41(40-51-53(47,48)50-38-37-44)39-49-42(45)35-33-31-29-27-25-23-16-14-12-10-8-6-4-2/h5,7,11,13,17-18,20-21,24,26,41H,3-4,6,8-10,12,14-16,19,22-23,25,27-40,44H2,1-2H3,(H,47,48)/b7-5-,13-11-,18-17-,21-20-,26-24-
Instrument: AB Sciex TripleTOF 5600+ system (Q-TOF) equipped with a DuoSpray ion source
Instrument type: LC-ESI-QTOF
Ms type: MS2
Ion mode: NEGATIVE
Collision energy: 45V
Column name: Acquity UPLC Peptide BEH C18 column (50*2.1 mm; 1.7 um; 130A)(Waters Co.,Milford, MA, USA)
Retention time: 9.534964
Precursor type: [M-H]-
Precursor m/z: 764.5225
m/z	relative intensity
78.959	5
122.0	3
140.012	19
177.093	2
191.104	2
196.035	23
209.149	2
214.042	4
217.115	2
231.211	10
251.203	6
254.434	4
255.231	410
259.243	8
281.231	9
281.248	46
285.258	62
285.276	6
301.212	2
302.281	2
303.232	90
311.219	2
311.245	5
327.228	4
328.226	3
329.248	999
434.26	10
434.289	3
452.245	8
452.274	56
460.275	2
478.29	8
508.283	9
526.293	6
526.314	2
718.561	1
762.122	4
763.562	1
764.453	6
764.522	613
765.373	1
765.534	2
