Mass spectrum: PI(18:1/14,15-EpETE); LC-ESI-QTOF; MS2
Name: PI(18:1/14,15-EpETE)
Class: Oxidized Phospholipid
Formula: C47H79O14P
Exact mass: 899.111
SMILES: CCCCCCCC\C=C/CCCCCCCC(=O)OCC(COP(O)(=O)OC1C(O)C(O)C(O)C(O)C1O)OC(=O)CCC\C=C/C\C=C/C\C=C/CC1OC1C\C=C/CC
InChI: InChI=1S/C47H79O14P/c1-3-5-7-8-9-10-11-12-13-14-15-19-22-25-29-33-40(48)57-35-37(36-58-62(55,56)61-47-45(53)43(51)42(50)44(52)46(47)54)59-41(49)34-30-26-23-20-17-16-18-21-24-28-32-39-38(60-39)31-27-6-4-2/h6,12-13,16,18,20,23-24,27-28,37-39,42-47,50-54H,3-5,7-11,14-15,17,19,21-22,25-26,29-36H2,1-2H3,(H,55,56)/b13-12-,18-16-,23-20-,27-6-,28-24-
Instrument: Acquity UPLC Peptide BEH C18 column (50 x 2.1 mm; 1.7 um), Sciex TripleTOF5600
Instrument type: LC-ESI-QTOF
Ms type: MS2
Ion mode: NEGATIVE
Collision energy: 30-50
Precursor m/z: 897.5134677
Precursor type: [M-H]-
m/z	relative intensity
78.95428	1
78.95553	1
78.95679	4
78.95804	3
78.95929	7
78.96055	6
78.9618	6
78.96306	4
78.96431	6
78.96556	1
78.96682	4
78.96807	2
78.96932	1
78.97058	1
78.97183	1
95.08827	1
96.9659	1
96.96729	1
96.96868	2
96.97006	1
96.97145	1
96.97284	3
96.97423	1
96.97562	1
96.97701	1
96.9784	1
96.97979	1
97.01036	1
107.0859	1
111.0823	1
111.0853	1
119.0498	1
121.0627	1
121.0643	1
121.0658	1
121.0674	1
121.0705	1
121.0953	1
121.1015	1
121.1046	1
121.1062	1
125.0949	1
125.0965	1
125.0981	1
134.9803	1
134.982	1
134.9836	1
135.1181	1
135.1213	1
135.123	1
147.1147	1
147.1164	1
147.1181	1
147.1216	1
149.1307	1
149.1342	1
149.1359	1
149.1376	1
152.5253	1
152.9822	1
152.9839	1
152.9857	3
152.9874	3
152.9892	6
152.9909	8
152.9927	9
152.9944	12
152.9962	17
152.9979	17
152.9996	10
153.0014	10
153.0031	4
153.0049	2
153.0066	3
153.0084	1
153.0119	1
153.0171	1
161.0472	1
161.1296	1
161.1386	1
163.14	1
163.1436	1
163.1472	1
163.149	1
163.1508	1
163.1526	1
167.1088	1
171.0072	1
171.0109	1
175.141	3
175.1429	1
175.1447	2
175.1466	2
175.1485	1
175.1503	5
175.1522	2
175.1541	2
175.1559	1
175.1578	1
175.1597	1
175.1615	1
177.0884	1
177.0902	1
177.0921	1
179.1031	1
179.1107	1
181.1312	1
182.3409	1
187.114	1
189.115	1
189.1247	1
189.1267	1
189.1286	1
189.1325	1
191.1052	1
193.1294	1
201.1504	1
201.1564	1
201.1584	1
201.1624	1
201.1644	2
201.1664	1
201.1684	1
201.1724	1
201.1764	1
201.1804	1
203.1344	1
203.1384	1
203.1404	1
203.1424	1
203.1444	1
203.1464	1
203.1505	1
203.1525	1
203.1565	1
204.9948	1
204.9968	1
205.118	1
205.1221	1
205.1261	1
205.1281	1
207.1174	1
207.1214	1
207.1235	2
207.1255	2
207.1275	6
207.1295	8
207.1316	12
207.1336	16
207.1356	18
207.1377	17
207.1397	19
207.1417	18
207.1438	14
207.1458	13
207.1478	7
207.1499	6
207.1519	2
207.1539	4
207.1559	2
207.162	1
207.1641	1
207.1661	1
208.136	1
217.1993	1
219.1208	1
219.1229	1
219.125	1
219.127	3
219.1291	1
219.1312	4
219.1333	3
219.1354	9
219.1375	7
219.1396	9
219.1417	7
219.1438	8
219.1458	5
219.1479	2
219.15	1
219.1521	1
219.1542	2
219.1563	1
219.1605	1
219.1751	1
220.137	1
220.1391	1
220.1412	1
220.1454	1
220.1475	1
220.1496	1
220.1517	1
220.1538	1
220.1559	2
220.158	1
221.1514	1
221.1535	2
221.1556	1
221.1577	1
221.1598	1
221.1619	1
221.164	1
222.3091	1
222.3133	1
222.9744	1
222.9786	1
222.9828	1
222.9849	2
222.987	3
222.9891	3
222.9912	10
222.9933	9
222.9954	13
222.9975	23
222.9996	25
223.0018	21
223.0039	15
223.006	18
223.0081	14
223.0102	7
223.0123	7
223.0144	3
223.0165	2
223.0186	2
223.0207	1
223.0228	1
229.122	1
229.1241	1
229.1284	1
235.1259	1
235.1281	1
235.1303	1
235.1324	2
235.1346	1
235.1389	1
235.1411	1
238.9994	1
240.2553	1
240.2597	1
240.264	1
240.2684	1
240.2706	1
240.2728	1
240.66	1
240.8505	1
240.9841	2
240.9863	2
240.9907	5
240.9929	8
240.9951	15
240.9973	19
240.9995	32
241.0016	64
241.0038	56
241.006	74
241.0082	97
241.0104	95
241.0126	107
241.0148	97
241.017	82
241.0192	65
241.0213	51
241.0235	30
241.0257	21
241.0279	16
241.0301	7
241.0323	7
241.0345	7
241.0367	3
241.0389	1
241.0411	1
243.1772	1
247.1162	1
247.1206	1
247.1228	1
247.125	1
247.1272	1
247.1295	1
247.1317	1
247.1339	2
247.1361	1
247.1383	1
247.1406	1
247.1428	1
248.1175	1
248.1264	2
248.1286	3
248.1308	2
248.1331	5
248.1353	7
248.1375	6
248.1397	7
248.142	8
248.1442	7
248.1464	9
248.1486	4
248.1508	4
248.1531	2
248.1553	2
248.1575	1
248.1597	1
248.162	1
248.1709	1
255.1881	1
255.1904	1
255.1926	1
255.1949	1
255.1971	1
255.1994	3
255.2016	4
255.2039	6
255.2061	8
255.2084	8
255.2107	8
255.2129	9
255.2152	8
255.2174	9
255.2197	3
255.2219	4
255.2242	1
255.2264	3
255.2287	2
255.2309	2
255.24	1
259.0002	1
259.0047	1
259.007	3
259.0092	2
259.0115	6
259.0138	4
259.0161	8
259.0183	7
259.0206	7
259.0229	8
259.0251	9
259.0274	8
259.0297	10
259.032	6
259.0342	4
259.0365	3
259.0388	1
259.041	1
259.0433	1
273.2094	1
273.2118	2
273.2141	2
273.2188	1
273.2211	1
273.2234	2
273.2258	1
273.2281	2
273.2304	2
273.2328	1
273.2351	1
280.3571	1
280.3689	1
280.3737	1
280.376	1
280.3784	1
280.3807	1
280.3855	1
280.3902	1
281.1894	1
281.1964	1
281.2059	1
281.213	1
281.2177	1
281.2201	3
281.2225	7
281.2249	8
281.2272	8
281.2296	15
281.2319	23
281.2343	29
281.2367	55
281.239	80
281.2414	88
281.2438	102
281.2461	118
281.2485	124
281.2509	128
281.2532	109
281.2556	95
281.258	69
281.2603	70
281.2627	38
281.265	25
281.2674	15
281.2698	8
281.2722	7
281.2745	6
281.2769	5
281.2793	2
281.2816	2
282.2361	1
282.2408	1
282.2456	2
282.248	2
282.2503	1
282.2527	1
282.2551	1
282.2574	1
282.2598	2
282.2622	1
282.2645	1
282.2693	1
289.2145	1
296.113	1
296.1155	1
297.0169	1
297.0194	1
297.0218	3
297.0243	6
297.0267	6
297.0291	8
297.0316	10
297.034	14
297.0364	15
297.0388	15
297.0413	17
297.0437	14
297.0461	10
297.0486	9
297.051	7
297.0534	5
297.0558	4
297.0583	1
297.0607	2
297.0632	1
297.0656	1
298.0367	1
299.1778	1
299.1826	1
299.1851	2
299.1875	2
299.19	5
299.1924	5
299.1949	7
299.1973	9
299.1997	7
299.2022	8
299.2046	8
299.2071	8
299.2095	6
299.2119	4
299.2144	3
299.2168	1
299.2193	3
299.2217	1
315.0235	1
315.026	1
315.031	1
315.0335	3
315.036	3
315.0385	6
315.041	6
315.0435	8
315.046	6
315.0485	6
315.051	6
315.0535	6
315.056	6
315.0586	6
315.061	4
315.0636	2
315.0661	1
315.0686	2
315.0711	1
315.2088	1
316.2167	1
316.2242	1
316.2267	1
316.2367	1
316.2418	1
317.1733	1
317.1834	1
317.1859	4
317.1884	3
317.1909	9
317.1935	11
317.196	18
317.1985	27
317.201	22
317.2035	36
317.206	34
317.2085	40
317.211	36
317.2136	42
317.2161	45
317.2186	31
317.2211	30
317.2236	21
317.2261	17
317.2286	12
317.2311	8
317.2336	4
317.2361	3
317.2387	3
317.2412	3
317.2437	1
317.2462	1
318.2095	1
318.2145	1
318.2195	1
318.2271	1
318.2321	1
318.3454	1
318.9423	1
333.0473	1
333.0705	1
415.9371	1
415.9515	1
416.533	1
417.1985	1
417.2014	1
417.2043	2
417.2071	2
417.21	6
417.2129	9
417.2158	8
417.2187	17
417.2215	20
417.2244	21
417.2273	24
417.2302	31
417.2331	43
417.236	44
417.2388	53
417.2417	58
417.2446	57
417.2475	56
417.2504	43
417.2532	36
417.2561	33
417.259	22
417.2619	19
417.2648	17
417.2676	11
417.2705	5
417.2734	4
417.2763	2
417.2792	1
417.2821	1
417.2849	2
417.2878	1
417.2936	1
418.2222	1
418.2366	1
418.2395	1
418.2482	1
435.2285	1
435.2315	1
435.2344	3
435.2374	6
435.2403	4
435.2433	3
435.2462	6
435.2491	4
435.2521	5
435.255	4
435.258	3
435.2609	4
435.2639	3
435.2668	4
435.2697	3
435.2727	1
435.2756	1
435.2786	2
435.2815	1
435.2845	1
437.259	1
453.1743	1
453.1803	2
453.1833	3
453.1863	4
453.1893	4
453.1924	6
453.1953	6
453.1984	7
453.2014	8
453.2043	9
453.2074	10
453.2104	6
453.2134	9
453.2164	13
453.2194	8
453.2224	6
453.2254	5
453.2284	2
453.2314	2
453.2344	1
453.2374	1
453.2404	1
453.2464	1
453.2554	1
471.2008	1
471.2039	1
471.2161	1
471.2223	1
471.2253	1
471.2314	1
491.9388	1
493.8622	1
498.0571	1
498.5736	1
499.6296	1
499.9356	1
502.1274	1
508.1336	1
508.9354	1
516.6837	1
521.1255	1
523.2762	1
523.2794	1
528.8943	1
534.0142	1
541.2115	1
541.2213	1
541.2476	1
551.4118	1
555.192	1
555.804	1
559.2188	1
559.2254	1
565.3079	1
577.4766	1
577.48	1
577.4834	1
577.4902	1
577.4969	1
579.2377	1
579.2411	1
579.2445	3
579.2479	3
579.2513	4
579.2547	7
579.2581	7
579.2615	12
579.2649	12
579.2682	19
579.2717	23
579.2751	29
579.2784	43
579.2819	50
579.2853	47
579.2886	49
579.2921	49
579.2954	57
579.2988	62
579.3022	64
579.3056	55
579.309	49
579.3124	42
579.3158	34
579.3192	29
579.3226	25
579.326	17
579.3294	14
579.3328	7
579.3362	7
579.3396	6
579.343	3
579.3464	1
579.3498	2
579.3531	1
579.3566	1
579.36	1
579.6011	1
580.2535	1
580.2671	1
580.2773	1
580.2875	1
580.2909	1
580.2943	1
580.2977	1
580.3011	1
580.3045	1
580.3079	1
580.3147	1
580.3181	1
597.2513	1
597.2582	1
597.2616	2
597.2651	1
597.2685	3
597.272	3
597.2754	3
597.2789	6
597.2823	7
597.2858	6
597.2892	10
597.2927	15
597.2961	14
597.2996	13
597.303	17
597.3065	15
597.3099	15
597.3134	18
597.3168	15
597.3203	13
597.3237	12
597.3271	10
597.3306	10
597.334	8
597.3375	5
597.3409	1
597.3444	3
597.3478	3
597.3513	1
597.3547	1
597.3582	1
597.3616	1
597.3685	1
597.3754	1
598.3034	2
598.3138	1
598.3276	1
613.3267	1
615.2116	1
615.2151	1
615.2186	1
615.2221	2
615.2256	2
615.2291	6
615.2326	5
615.2361	7
615.2396	8
615.2431	9
615.2466	9
615.2501	8
615.2536	13
615.2571	15
615.2606	14
615.2641	15
615.2676	15
615.2711	13
615.2746	13
615.2781	5
615.2816	6
615.2851	5
615.2886	10
615.2921	5
615.2956	3
615.2991	3
615.3026	1
615.3061	1
615.3131	1
615.3167	1
615.3201	1
615.3271	1
616.248	1
616.262	1
633.2321	1
633.2357	1
633.2499	2
633.2534	1
633.257	1
633.2605	1
633.264	1
633.2676	2
633.2712	1
633.2747	1
633.2783	2
633.2818	1
633.2853	1
633.2889	1
633.2996	1
633.3031	1
735.4286	1
735.4401	1
735.444	1
735.4478	1
735.4517	1
735.4554	1
735.4593	1
735.4631	1
735.4669	3
735.4708	1
735.4746	1
735.4899	1
735.4976	1
736.4468	1
736.4622	1
838.5894	1
894.5849	1
894.5934	1
894.6018	1
894.6102	1
894.6187	1
894.6313	1
894.6356	1
894.6398	1
894.644	1
894.6483	2
894.6525	1
894.6567	4
894.6609	1
894.6651	3
894.6693	4
894.6736	4
894.6778	4
894.682	4
894.6862	2
894.6904	5
894.6946	3
894.6989	4
894.7031	4
894.7073	6
894.7115	4
894.7158	5
894.72	3
894.7242	5
894.7284	3
894.7327	3
894.7369	2
894.7411	3
894.7453	1
894.7495	1
894.7537	2
894.758	1
894.7622	1
894.7664	1
894.7706	1
894.7748	1
894.7791	1
894.7833	1
894.796	1
894.8002	1
895.1421	1
895.3531	1
895.3616	1
895.4925	1
895.5094	1
895.6065	1
895.6318	1
895.7078	1
896.1555	1
896.1597	1
896.1682	1
896.2991	1
896.3076	1
896.3414	1
896.3498	1
896.3541	1
896.3836	1
896.4005	1
896.4639	1
896.5526	1
896.5779	1
896.692	1
896.8737	1
896.9456	1
896.9921	1
897.0892	1
897.1273	1
897.14	1
897.1484	1
897.1696	1
897.178	1
897.2456	1
897.2583	1
897.3005	1
897.3047	1
897.3301	1
897.3428	1
897.347	1
897.3513	1
897.3555	1
897.3597	1
897.364	1
897.3682	1
897.3809	1
897.3893	1
897.3936	1
897.3978	1
897.402	1
897.4062	1
897.4105	2
897.4147	1
897.4231	1
897.4274	1
897.4316	1
897.4527	32
897.457	52
897.4612	48
897.4654	111
897.4696	136
897.4738	164
897.4781	236
897.4823	313
897.4865	401
897.4907	484
897.495	596
897.4992	696
897.5034	764
897.5077	903
897.5119	916
897.5161	928
897.5203	964
897.5246	990
897.5288	976
897.533	999
897.5372	933
897.5415	875
897.5457	677
897.5499	548
897.5541	432
897.5584	305
897.5626	209
897.5668	158
897.571	104
897.5753	83
897.5795	47
897.5837	38
897.588	32
897.5922	21
897.5964	24
897.6006	13
897.6049	5
897.6091	4
897.6133	2
897.6176	2
897.6218	1
897.626	3
897.6852	1
897.6895	1
897.6979	4
897.7698	1
897.905	1
897.9557	1
897.9642	1
897.998	1
898.0319	1
898.0657	1
898.1122	1
898.1503	1
898.1545	1
898.1672	1
898.1757	1
898.1968	1
898.201	1
898.256	1
898.2603	1
898.2899	1
898.2983	1
898.3321	1
898.3702	1
898.4083	1
898.4167	1
898.4294	1
898.4336	1
898.4421	1
898.4463	2
898.4506	2
898.4548	2
898.459	6
898.4633	3
898.4675	8
898.4717	9
898.4759	10
898.4802	10
898.4844	15
898.4886	22
898.4929	22
898.4971	18
898.5013	25
898.5055	32
898.5098	25
898.514	30
898.5182	27
898.5225	31
898.5267	28
898.5309	27
898.5351	30
898.5394	28
898.5436	25
898.5478	26
898.5521	17
898.5563	13
898.5605	16
898.5648	15
898.569	9
898.5732	5
898.5774	6
898.5817	5
898.5859	2
898.5901	3
898.5944	1
898.5986	2
898.6028	3
898.6071	1
898.6113	1
898.6282	1
898.6409	1
898.6493	1
898.7255	1
898.772	1
898.7762	1
898.7889	1
898.8101	1
898.9877	1
898.9962	1
899.0131	1
899.0512	1
899.1062	1
899.1316	1
899.2078	1
899.2501	1
899.2712	1
899.3262	1
899.3939	1
899.4023	1
899.4066	1
899.5166	1
899.5251	1
899.559	1
899.5674	1
899.669	1
899.8721	1
900.0372	1
900.0837	1
900.1134	1
900.2234	1
900.3336	1
900.4055	1
900.4097	1
900.4691	1
900.6977	1
900.9391	1
901.0026	1
901.0449	1
901.1551	1
901.3923	1
901.4516	1
901.7354	1
901.9897	1
902.1804	1
902.2016	1
902.8586	1
903.1172	1
903.2529	1
903.7407	1
904.0333	1
904.2794	1
906.4574	1
907.0225	1
909.1144	1
911.4855	1
912.636	1
913.4547	1
1157.791	1
