Mass spectrum: PS 34:2; LC-ESI-QTOF; MS2
Name: PS 34:2
Class: PS
Formula: C40H74NO10P
Exact mass: 760.0049999999999
SMILES: CCCCCCCCCCCCCCCC(=O)OCC(COP(O)(=O)OCC(N)C(O)=O)OC(=O)CCCCCCC\C=C/C\C=C/CCCCC
InChI: InChI=1S/C40H74NO10P/c1-3-5-7-9-11-13-15-17-18-20-22-24-26-28-30-32-39(43)51-36(34-49-52(46,47)50-35-37(41)40(44)45)33-48-38(42)31-29-27-25-23-21-19-16-14-12-10-8-6-4-2/h11,13,17-18,36-37H,3-10,12,14-16,19-35,41H2,1-2H3,(H,44,45)(H,46,47)/b13-11-,18-17-
Instrument: AB Sciex TripleTOF 5600+ system (Q-TOF) equipped with a DuoSpray ion source
Instrument type: LC-ESI-QTOF
Ms type: MS2
Ion mode: NEGATIVE
Collision energy: 45V
Column name: Acquity UPLC Peptide BEH C18 column (50*2.1 mm; 1.7 um; 130A)(Waters Co.,Milford, MA, USA)
Retention time: 8.341066
Precursor type: [M-H]-
Precursor m/z: 758.495
m/z	relative intensity
152.996	141
196.04	43
253.22	65
255.215	88
255.235	433
279.229	172
280.238	76
281.248	532
283.264	210
284.265	131
293.227	32
295.225	322
321.243	163
327.237	76
389.213	35
391.228	154
409.233	87
415.221	135
417.218	76
417.244	76
420.254	98
435.25	87
436.272	68
438.257	43
444.251	43
458.256	54
462.296	79
670.441	54
671.42	100
671.447	334
671.473	445
700.491	125
740.497	130
740.545	35
758.471	444
758.509	999
758.544	132
