Mass spectrum: PC(18:2/8-HEPE); LC-ESI-QTOF; MS2
Name: PC(18:2/8-HEPE)
Class: Oxidized Phospholipid
Formula: C46H78NO9P
Exact mass: 820.104
SMILES: CCCCC\C=C/C\C=C/CCCCCCCC(=O)OCC(COP([O-])(=O)OCC[N+](C)(C)C)OC(=O)CCC\C=C/CC(O)\C=C\C=C/C\C=C/C\C=C/CC
InChI: InChI=1S/C46H78NO9P/c1-6-8-10-12-14-16-18-19-20-21-22-24-26-28-33-37-45(49)53-41-44(42-55-57(51,52)54-40-39-47(3,4)5)56-46(50)38-34-30-29-32-36-43(48)35-31-27-25-23-17-15-13-11-9-7-2/h9,11,14-17,19-20,25,27,29,31-32,35,43-44,48H,6-8,10,12-13,18,21-24,26,28,30,33-34,36-42H2,1-5H3/b11-9-,16-14-,17-15-,20-19-,27-25-,32-29-,35-31+
Instrument: Acquity UPLC Peptide BEH C18 column (50 x 2.1 mm; 1.7 um), Sciex TripleTOF5600
Instrument type: LC-ESI-QTOF
Ms type: MS2
Ion mode: NEGATIVE
Collision energy: 30-50
Precursor m/z: 878.5552726
Precursor type: [M+CH3COOH-H]-
m/z	relative intensity
152.9944	68
155.0659	68
155.0677	68
155.0747	108
196.0382	68
255.206	135
255.2105	68
255.2127	68
255.2172	108
255.2218	68
279.2123	68
279.217	108
279.2194	243
279.2241	135
279.2264	135
279.2288	68
279.2311	270
279.2335	310
279.2359	418
279.2382	351
279.2406	176
279.2429	135
279.2453	108
281.2388	68
281.2412	108
281.2436	68
281.2459	108
281.2483	108
281.253	108
281.2554	108
281.2578	135
281.2601	108
299.1922	108
299.1971	68
299.1995	108
299.2019	68
299.2044	108
299.2117	108
299.2142	68
317.1957	108
317.1982	108
317.2007	68
317.2032	176
317.2057	68
317.2083	202
317.2108	108
317.2133	270
317.2183	108
317.2208	108
317.2234	135
373.2708	68
504.3077	68
504.3204	68
504.3236	68
506.3123	68
506.3218	68
506.3281	68
506.3313	135
506.3409	108
506.3567	68
733.47	108
752.8364	68
791.5239	108
791.5676	68
801.9785	68
804.4457	68
804.4617	135
804.4658	135
804.4697	135
804.4738	202
804.4777	243
804.4818	310
804.4857	202
804.4897	310
804.4937	270
804.4977	310
804.5018	513
804.5057	729
804.5098	756
804.5137	864
804.5178	513
804.5217	796
804.5258	864
804.5298	796
804.5338	999
804.5378	648
804.5417	418
804.5458	378
804.5497	446
804.5538	351
804.5578	351
804.5618	446
804.5698	243
804.5738	351
804.5778	108
804.5818	68
804.5858	135
804.6018	68
805.5306	68
818.5254	68
818.5456	68
878.4854	68
878.5189	68
878.5314	135
878.5397	243
878.5439	135
878.5481	135
878.5523	202
878.5565	108
878.5607	135
878.5648	202
878.569	108
878.5774	176
878.5858	108
878.59	68
878.5941	135
878.6067	108
878.866	68
