Mass spectrum: PI(17:0/15-HEPE); LC-ESI-QTOF; MS2
Name: PI(17:0/15-HEPE)
Class: Oxidized Phospholipid
Formula: C46H79O14P
Exact mass: 887.1
SMILES: CCCCCCCCCCCCCCCCC(=O)OCC(COP(O)(=O)OC1C(O)C(O)C(O)C(O)C1O)OC(=O)CCC\C=C/C\C=C/C\C=C/CC(O)\C=C\C=C/CC
InChI: InChI=1S/C46H79O14P/c1-3-5-7-9-10-11-12-13-14-15-19-22-25-29-33-39(48)57-35-38(36-58-61(55,56)60-46-44(53)42(51)41(50)43(52)45(46)54)59-40(49)34-30-26-23-20-17-16-18-21-24-28-32-37(47)31-27-8-6-4-2/h6,8,16,18,20,23-24,27-28,31,37-38,41-47,50-54H,3-5,7,9-15,17,19,21-22,25-26,29-30,32-36H2,1-2H3,(H,55,56)/b8-6-,18-16-,23-20-,28-24-,31-27+
Instrument: Acquity UPLC Peptide BEH C18 column (50 x 2.1 mm; 1.7 um), Sciex TripleTOF5600
Instrument type: LC-ESI-QTOF
Ms type: MS2
Ion mode: NEGATIVE
Collision energy: 30-50
Precursor m/z: 885.5134677
Precursor type: [M-H]-
m/z	relative intensity
163.1473	26
219.1334	26
219.1355	26
219.1376	26
219.1396	26
219.1417	53
219.1459	26
219.1522	26
222.9976	26
223.0018	26
223.006	26
240.9995	53
241.0017	26
241.0039	26
241.0061	40
241.0083	108
241.0105	26
241.0127	82
241.0149	82
241.017	53
241.0192	95
241.0214	26
241.0258	26
247.134	26
247.1362	26
255.2085	26
255.2107	26
255.213	26
255.2152	26
255.2198	53
259.0184	26
259.0252	40
269.2267	26
269.2337	26
269.236	26
269.2407	95
269.243	53
269.2453	108
269.2476	26
269.2522	40
269.2545	53
269.2569	53
269.2615	26
269.2638	40
297.0438	26
299.1925	26
299.1949	26
299.1974	53
299.1998	40
299.2023	40
299.2047	26
299.2096	26
299.2218	26
315.0561	26
317.1935	26
317.196	26
317.1985	82
317.2011	26
317.2036	26
317.2061	95
317.2086	66
317.2111	53
317.2136	40
317.2161	134
317.2187	95
317.2212	40
317.2237	40
317.2262	26
319.2272	26
405.2361	53
405.2389	40
405.2418	26
405.2446	40
405.2474	40
423.232	26
567.2756	26
567.2891	26
567.2958	40
567.2991	66
567.3058	26
567.3226	40
585.2777	26
585.2879	53
585.3016	40
585.3118	26
615.2607	26
615.2712	26
615.2747	26
733.364	26
733.3945	40
885.434	26
885.4424	53
885.4466	53
885.4507	40
885.455	95
885.4592	66
885.4634	203
885.4676	274
885.4717	153
885.476	356
885.4802	319
885.4844	406
885.4885	345
885.4927	432
885.4969	575
885.5012	738
885.5054	949
885.5095	930
885.5137	938
885.5179	944
885.5222	999
885.5264	986
885.5305	833
885.5347	693
885.5389	791
885.5432	817
885.5473	590
885.5515	590
885.5557	493
885.5599	490
885.5641	237
885.5684	250
885.5725	127
885.5767	182
885.5809	142
885.5851	140
885.5893	84
885.5935	45
885.5977	58
885.6019	66
885.6145	40
886.5175	40
886.5217	40
