Mass spectrum: PC(14:0/5-HETE); LC-ESI-QTOF; MS2
Name: PC(14:0/5-HETE)
Class: Oxidized Phospholipid
Formula: C42H76NO9P
Exact mass: 770.044
SMILES: CCCCCCCCCCCCCC(=O)OCC(COP([O-])(=O)OCC[N+](C)(C)C)OC(=O)CCCC(O)\C=C\C=C/C\C=C/C\C=C/CCCCC
InChI: InChI=1S/C42H76NO9P/c1-6-8-10-12-14-16-18-19-21-22-24-26-28-31-39(44)32-30-34-42(46)52-40(38-51-53(47,48)50-36-35-43(3,4)5)37-49-41(45)33-29-27-25-23-20-17-15-13-11-9-7-2/h14,16,19,21,24,26,28,31,39-40,44H,6-13,15,17-18,20,22-23,25,27,29-30,32-38H2,1-5H3/b16-14-,21-19-,26-24-,31-28+
Instrument: Acquity UPLC Peptide BEH C18 column (50 x 2.1 mm; 1.7 um), Sciex TripleTOF5600
Instrument type: LC-ESI-QTOF
Ms type: MS2
Ion mode: NEGATIVE
Collision energy: 30-50
Precursor m/z: 828.5396225
Precursor type: [M+CH3COOH-H]-
m/z	relative intensity
115.0363	67
115.0379	67
115.0424	67
168.047	43
224.0643	43
224.0727	43
227.184	43
227.1882	132
227.1904	89
227.1925	154
227.1946	111
227.1967	199
227.1989	132
227.201	221
227.2031	288
227.2052	154
227.2074	221
227.2095	43
227.2116	89
227.2138	132
227.218	43
253.2145	43
253.2167	43
257.2177	111
257.22	67
257.2222	89
257.2245	67
257.229	43
257.2313	43
257.2336	67
257.2358	111
279.2282	43
301.1987	43
301.2061	132
301.2085	111
301.2109	154
301.2134	67
301.2159	111
301.2183	154
301.2207	43
301.2232	67
301.2256	43
301.2281	67
301.2354	43
319.2087	43
319.2112	67
319.2137	132
319.2213	89
319.2238	111
319.2263	132
319.2289	199
319.2314	178
319.2339	67
319.2364	67
319.2389	67
319.249	67
319.2515	43
381.201	43
434.2774	43
452.2518	43
452.2548	43
452.2608	43
452.2638	43
452.2668	43
452.2697	43
452.2758	89
452.2787	43
452.2818	67
452.2848	67
452.2878	43
452.2938	43
452.2968	43
452.2998	89
743.5118	46
754.4281	89
754.4474	67
754.4514	89
754.4552	67
754.4591	111
754.463	199
754.4669	178
754.4707	267
754.4746	425
754.4785	381
754.4824	204
754.4862	249
754.4901	657
754.494	548
754.4979	635
754.5017	572
754.5056	572
754.5095	999
754.5134	849
754.5172	503
754.5211	620
754.525	414
754.5289	548
754.5327	436
754.5366	321
754.5405	158
754.5444	228
754.5482	113
754.5521	202
754.556	91
754.5599	43
754.5676	111
755.4904	43
755.5291	43
768.3935	43
776.4874	43
776.5267	43
828.4208	43
828.498	43
828.5021	43
828.5102	111
828.5183	67
828.5223	43
828.5345	67
828.5386	89
828.5427	67
828.5508	43
828.5589	89
828.563	43
828.5833	111
829.473	43
829.4811	43
