Mass spectrum: Cer[NS] d35:1; LC-ESI-QTOF; MS2
Name: Cer[NS] d35:1
Class: Cer_NS
Formula: C35H69NO3
Exact mass: 551.941
SMILES: CCCCCCCCCCCCCCCCC(=O)NC(CO)C(O)\C=C\CCCCCCCCCCCCC
InChI: InChI=1S/C35H69NO3/c1-3-5-7-9-11-13-15-17-19-21-23-25-27-29-31-35(39)36-33(32-37)34(38)30-28-26-24-22-20-18-16-14-12-10-8-6-4-2/h28,30,33-34,37-38H,3-27,29,31-32H2,1-2H3,(H,36,39)/b30-28+
Instrument: AB Sciex TripleTOF 5600+ system (Q-TOF) equipped with a DuoSpray ion source
Instrument type: LC-ESI-QTOF
Ms type: MS2
Ion mode: NEGATIVE
Collision energy: 45V
Column name: Acquity UPLC Peptide BEH C18 column (50*2.1 mm; 1.7 um; 130A)(Waters Co.,Milford, MA, USA)
Retention time: 10.21148
Precursor type: [M+CH3COOH-H]-
Precursor m/z: 610.5379
m/z	relative intensity
223.207	94
237.22	83
249.218	47
251.237	89
263.232	65
265.249	59
265.26	23
268.263	89
269.248	47
282.28	106
283.26	56
294.274	249
294.286	89
294.294	29
308.275	41
308.291	267
308.322	17
310.268	47
324.291	59
502.507	83
518.47	29
518.495	124
520.491	35
520.514	160
550.495	139
550.515	999
550.538	154
