Mass spectrum: PC(16:0/13-HODE); LC-ESI-QTOF; MS2
Name: PC(16:0/13-HODE)
Class: Oxidized Phospholipid
Formula: C42H80NO9P
Exact mass: 774.076
SMILES: CCCCCCCCCCCCCCCC(=O)OCC(COP([O-])(=O)OCC[N+](C)(C)C)OC(=O)CCCCCCC\C=C/C=C/C(O)CCCCC
InChI: InChI=1S/C42H80NO9P/c1-6-8-10-11-12-13-14-15-16-19-22-25-29-33-41(45)49-37-40(38-51-53(47,48)50-36-35-43(3,4)5)52-42(46)34-30-26-23-20-17-18-21-24-28-32-39(44)31-27-9-7-2/h21,24,28,32,39-40,44H,6-20,22-23,25-27,29-31,33-38H2,1-5H3/b24-21-,32-28+
Instrument: Acquity UPLC Peptide BEH C18 column (50 x 2.1 mm; 1.7 um), Sciex TripleTOF5600
Instrument type: LC-ESI-QTOF
Ms type: MS2
Ion mode: NEGATIVE
Collision energy: 30-50
Precursor m/z: 832.5709227
Precursor type: [M+CH3COOH-H]-
m/z	relative intensity
78.95776	4
78.95902	7
78.96153	5
78.96278	4
78.96403	4
78.96529	3
78.96779	4
78.96905	3
113.0932	3
141.0189	3
152.99	4
152.997	3
168.0341	3
168.036	3
168.0378	8
168.0396	15
168.0415	19
168.0433	15
168.0451	20
168.047	9
168.0488	13
168.0506	4
168.0524	5
168.0543	5
179.1366	3
179.1403	4
185.9188	3
189.8254	3
189.9032	3
192.1146	3
192.6782	3
193.1192	3
193.3663	3
194.5296	3
195.1204	1
195.1244	8
195.1263	8
195.1283	16
195.1303	29
195.1322	34
195.1342	48
195.1362	55
195.1382	73
195.1401	64
195.1421	42
195.1441	39
195.146	38
195.148	17
195.15	15
195.152	13
195.1539	1
195.1559	3
195.1598	3
195.1618	1
195.1638	1
195.1697	1
195.2683	1
201.012	3
224.0544	7
224.0587	7
224.0608	4
224.0629	19
224.065	18
224.0671	15
224.0692	20
224.0713	11
224.0734	11
224.0756	11
224.0777	11
224.0798	5
233.2433	3
242.0786	5
251.2392	4
251.2415	3
251.2437	3
254.4273	4
254.4296	6
254.4341	4
254.4363	3
254.4386	4
254.4498	4
254.4521	4
255.0894	3
255.1999	2
255.2044	3
255.2066	3
255.2089	1
255.2112	9
255.2134	28
255.2157	50
255.2179	75
255.2202	106
255.2224	184
255.2247	242
255.2269	377
255.2292	457
255.2314	510
255.2337	445
255.2359	444
255.2382	352
255.2404	232
255.2427	182
255.245	109
255.2472	68
255.2495	49
255.2517	24
255.254	15
255.2562	12
255.2585	7
255.2607	10
255.263	7
255.2652	2
255.3058	2
255.4885	2
255.7208	2
255.7682	2
256.0143	3
256.222	3
256.231	9
256.2333	7
256.2355	3
256.2378	3
256.2423	3
256.2965	2
258.4969	3
275.1377	3
275.1985	4
275.2079	3
276.3584	3
277.1894	5
277.1917	1
277.1941	10
277.1964	3
277.1988	8
277.2011	17
277.2035	33
277.2058	25
277.2082	39
277.2105	50
277.2129	57
277.2152	83
277.2176	67
277.2199	63
277.2223	63
277.2246	47
277.227	38
277.2293	24
277.2317	19
277.234	8
277.2364	7
277.2387	4
277.2434	1
277.2481	1
277.2505	3
277.3562	1
277.9322	1
278.2099	3
281.2494	3
293.2053	3
293.215	4
294.2911	4
294.2935	3
294.2984	4
294.3032	4
294.3057	9
294.3081	7
294.3105	7
294.3129	5
294.3202	5
294.325	4
294.3275	3
294.3299	5
294.7512	4
295.0008	4
295.1559	4
295.1826	3
295.1874	4
295.1971	7
295.1995	4
295.2019	13
295.2044	20
295.2068	52
295.2092	74
295.2116	124
295.2141	234
295.2165	377
295.2189	612
295.2213	793
295.2238	874
295.2262	929
295.2286	992
295.231	855
295.2335	674
295.2359	477
295.2383	334
295.2408	208
295.2432	103
295.2456	99
295.248	46
295.2504	29
295.2529	24
295.2553	17
295.2577	6
295.2601	5
295.2626	4
295.265	4
295.2722	2
295.3935	2
295.476	2
295.4857	2
295.5609	2
295.9345	2
296.2162	3
296.221	5
296.2234	5
296.2283	8
296.2332	3
296.238	5
296.2404	3
296.2477	3
296.2963	3
296.7531	3
296.8139	3
297.6507	3
297.7043	3
298.6398	3
300.3174	3
309.2143	3
309.2218	3
309.2317	4
309.2342	11
309.2367	5
309.2416	7
309.2441	5
309.2466	8
309.2491	8
309.2515	3
309.254	3
309.259	7
391.2145	4
391.2173	3
391.2201	4
391.2256	3
391.2284	3
391.2312	3
391.234	4
391.2368	3
391.2396	3
391.2424	5
406.2736	3
409.2282	3
409.231	4
409.2367	3
409.2396	4
409.2424	3
419.2591	3
431.1911	3
431.1999	3
431.2086	3
431.2145	4
431.2174	4
431.2204	8
431.235	3
446.2513	3
459.3204	3
459.3235	5
459.3326	4
459.3446	4
460.331	3
462.2675	3
462.2705	4
462.2736	3
462.2796	4
462.2827	4
462.2857	8
462.2887	13
462.2918	12
462.2948	11
462.2979	15
462.3009	19
462.3039	13
462.3069	11
462.31	7
462.313	9
462.316	5
462.3191	3
462.3221	3
462.3251	4
470.9447	3
478.7914	3
478.8038	3
478.8347	3
480.0921	3
480.2591	3
480.2653	4
480.2684	3
480.2715	5
480.2745	4
480.2776	15
480.2807	15
480.2838	14
480.2869	18
480.29	28
480.2931	31
480.2962	32
480.2993	41
480.3024	63
480.3055	61
480.3086	69
480.3116	68
480.3148	62
480.3178	49
480.3209	49
480.324	38
480.3271	34
480.3302	18
480.3333	20
480.3364	13
480.3395	16
480.3426	3
480.3457	6
480.3519	1
480.7663	1
481.3079	1
481.4039	1
484.1569	3
495.2726	3
500.742	3
502.2556	3
502.265	3
502.2714	4
502.2745	7
502.2777	7
502.2809	7
502.284	12
502.2872	8
502.2903	8
502.2935	18
502.2967	4
502.2998	15
502.303	15
502.3062	11
502.3093	9
502.3125	4
502.3156	5
502.3188	3
502.322	3
520.2679	3
520.2743	3
520.2807	5
520.2839	7
520.2872	8
520.2904	8
520.2936	8
520.2968	4
520.3	12
520.3033	11
520.3065	12
520.3097	12
520.3129	18
520.3162	8
520.3193	5
520.3226	11
520.3258	3
520.329	3
520.3387	4
613.3861	3
613.4036	3
615.3936	3
663.4815	3
687.4156	3
687.4193	5
687.423	9
687.4266	9
687.4304	8
687.4341	14
687.4377	27
687.4415	27
687.4452	31
687.4489	26
687.4526	29
687.4562	34
687.46	23
687.4637	26
687.4673	35
687.4711	31
687.4747	19
687.4785	16
687.4822	15
687.4858	15
687.4896	15
687.4933	9
687.4969	8
687.5007	3
687.5043	7
687.5118	3
687.5377	3
688.4518	3
713.4385	3
713.4498	3
713.4536	3
713.4574	5
713.4649	9
713.4687	3
713.4724	7
713.4762	3
713.48	4
713.4838	8
713.4875	5
713.4951	3
713.5101	3
714.4451	3
714.4866	4
714.4941	3
714.4979	3
742.5149	3
756.1142	4
756.1181	3
756.1219	3
756.1297	3
756.1336	3
756.1375	3
756.1414	4
756.1453	4
756.1491	8
756.153	3
756.1569	8
756.1608	7
756.1647	5
756.1724	3
756.1763	11
756.184	7
756.1996	3
756.2267	3
757.5233	3
757.7175	3
758.2419	3
758.2924	3
758.4128	5
758.4517	4
758.4711	10
758.475	6
758.4789	15
758.4828	26
758.4867	43
758.4905	93
758.4944	93
758.4983	151
758.5022	199
758.5061	286
758.51	374
758.5139	510
758.5178	658
758.5217	772
758.5255	836
758.5294	855
758.5333	999
758.5372	923
758.5411	894
758.545	855
758.5488	828
758.5527	673
758.5566	532
758.5605	385
758.5644	301
758.5683	203
758.5721	137
758.576	59
758.58	53
758.5838	33
758.5877	30
758.5916	19
758.5955	13
758.5994	15
758.6033	9
758.6071	2
758.611	2
758.6149	5
758.8093	3
759.0386	2
759.2719	3
759.3262	3
759.4896	3
759.4935	9
759.4974	3
759.5012	3
759.5051	9
759.509	9
759.5129	9
759.5168	12
759.5207	9
759.5246	12
759.5284	15
759.5323	11
759.5363	13
759.5401	23
759.544	12
759.5479	18
759.5518	15
759.5557	12
759.5596	13
759.5635	9
759.5673	15
759.5712	5
759.5751	11
759.579	7
759.5829	3
759.5907	3
760.0185	3
765.1033	4
771.0706	3
771.0784	3
772.521	3
772.5288	4
772.5328	4
772.5406	8
772.5445	7
772.5485	11
772.5524	9
772.5563	8
772.5602	9
772.5641	5
772.5681	15
772.572	3
772.5759	3
772.5798	3
772.5837	5
772.5876	3
772.5916	3
773.435	3
773.4507	5
773.4586	5
773.4664	9
773.4703	5
773.4742	8
773.4782	9
773.4821	11
773.486	7
773.49	13
773.4939	15
773.4978	8
773.5018	13
773.5057	16
773.5096	15
773.5135	12
773.5175	16
773.5214	15
773.5253	12
773.5292	7
773.5331	3
773.537	5
773.541	7
773.5449	3
773.5527	3
829.957	3
832.4873	4
832.5036	3
832.5076	4
832.5117	4
832.5158	8
832.5198	5
832.5239	10
832.528	24
832.532	19
832.5361	27
832.5402	39
832.5443	35
832.5483	43
832.5524	36
832.5565	56
832.5605	56
832.5646	87
832.5687	84
832.5728	84
832.5768	80
832.5809	73
832.585	89
832.5891	90
832.5931	41
832.5972	51
832.6013	45
832.6053	36
832.6094	27
832.6135	27
832.6176	17
832.6216	20
832.6257	7
832.6298	7
832.6339	6
832.6379	7
832.642	3
832.6501	3
833.5461	3
833.5543	3
833.5869	3
833.5991	3
877.4788	1
