Mass spectrum: PI 38:6; LC-ESI-QTOF; MS2
Name: PI 38:6
Class: PI
Formula: C47H79O13P
Exact mass: 883.1119999999999
SMILES: CCCCC\C=C/C\C=C/CCCCCCCC(=O)OCC(COP(O)(=O)OC1C(O)C(O)C(O)C(O)C1O)OC(=O)CCCCCC\C=C/C\C=C/C\C=C/C\C=C/CC
InChI: InChI=1S/C47H79O13P/c1-3-5-7-9-11-13-15-17-19-20-22-24-26-28-30-32-34-36-41(49)59-39(38-58-61(55,56)60-47-45(53)43(51)42(50)44(52)46(47)54)37-57-40(48)35-33-31-29-27-25-23-21-18-16-14-12-10-8-6-4-2/h5,7,11-14,17-19,21-22,24,39,42-47,50-54H,3-4,6,8-10,15-16,20,23,25-38H2,1-2H3,(H,55,56)/b7-5-,13-11-,14-12-,19-17-,21-18-,24-22-
Instrument: AB Sciex TripleTOF 5600+ system (Q-TOF) equipped with a DuoSpray ion source
Instrument type: LC-ESI-QTOF
Ms type: MS2
Ion mode: NEGATIVE
Collision energy: 45V
Column name: Acquity UPLC Peptide BEH C18 column (50*2.1 mm; 1.7 um; 130A)(Waters Co.,Milford, MA, USA)
Retention time: 8.108304
Precursor type: [M-H]-
Precursor m/z: 881.5164
m/z	relative intensity
78.956	5
96.972	2
153.0	12
222.998	17
241.013	57
253.217	2
255.233	10
259.025	13
259.247	8
279.23	97
297.037	13
303.212	14
303.234	74
309.28	5
310.289	6
329.248	12
330.245	10
415.187	4
415.225	35
433.24	6
439.223	5
465.241	12
466.25	10
481.306	2
483.249	6
484.263	4
507.321	2
577.255	21
577.278	29
595.271	9
601.271	13
601.291	10
629.034	2
642.516	4
643.486	2
719.453	2
794.449	8
794.504	16
806.557	8
807.484	5
807.527	6
807.539	9
807.556	12
821.593	4
878.695	2
881.516	999
881.579	18
882.519	6
