Mass spectrum: PE(18:0/18-HETE); LC-ESI-QTOF; MS2
Name: PE(18:0/18-HETE)
Class: Oxidized Phospholipid
Formula: C43H78NO9P
Exact mass: 784.071
SMILES: CCCCCCCCCCCCCCCCCC(=O)OCC(COP(O)(=O)OCCN)OC(=O)CCC\C=C/C\C=C/C\C=C/C\C=C/CCC(O)CC
InChI: InChI=1S/C43H78NO9P/c1-3-5-6-7-8-9-10-11-12-16-19-22-25-28-31-34-42(46)50-38-41(39-52-54(48,49)51-37-36-44)53-43(47)35-32-29-26-23-20-17-14-13-15-18-21-24-27-30-33-40(45)4-2/h14-15,17-18,23-24,26-27,40-41,45H,3-13,16,19-22,25,28-39,44H2,1-2H3,(H,48,49)/b17-14-,18-15-,26-23-,27-24-
Instrument: Acquity UPLC Peptide BEH C18 column (50 x 2.1 mm; 1.7 um), Sciex TripleTOF5600
Instrument type: LC-ESI-QTOF
Ms type: MS2
Ion mode: NEGATIVE
Collision energy: 30-50
Precursor m/z: 782.5341436
Precursor type: [M-H]-
m/z	relative intensity
78.96061	18
140.0097	36
140.0114	18
140.0147	36
140.0181	28
152.9979	18
188.8047	18
196.0284	28
196.0324	45
196.0383	45
196.0403	36
196.0423	45
196.0462	28
196.0502	18
214.0479	28
217.1597	18
217.1868	36
217.1888	28
217.1909	36
217.193	18
217.1951	28
217.1972	36
217.1992	18
217.2013	36
217.2034	28
227.2059	18
228.0489	18
243.1793	18
255.2263	28
255.2331	18
255.2421	18
255.2444	28
256.2372	28
257.2229	28
257.2251	18
257.2274	18
257.2296	18
257.2319	28
257.2342	18
261.1686	28
261.1709	18
261.1732	63
261.1754	54
261.1777	73
261.18	127
261.1823	82
261.1846	163
261.1868	136
261.1891	145
261.1914	82
261.1937	82
261.196	108
261.1982	108
261.2005	18
261.2028	28
275.2327	28
275.2351	18
275.2397	28
277.226	28
279.2218	18
279.2312	18
279.2359	18
281.2389	18
281.2484	45
281.2507	18
281.2531	28
282.3806	18
283.1398	19
283.2015	46
283.2134	19
283.2182	19
283.2419	28
283.2443	55
283.2466	36
283.249	75
283.2514	216
283.2538	236
283.2562	284
283.2585	388
283.2609	407
283.2633	380
283.2657	473
283.268	462
283.2704	462
283.2728	332
283.2751	303
283.2775	236
283.2799	94
283.2823	85
283.2846	85
283.287	47
283.2894	19
283.2918	10
283.2942	19
283.2965	38
283.4366	18
284.2568	10
301.1944	18
301.1969	36
301.1993	18
301.2018	18
301.2042	28
301.2067	82
301.2091	127
301.2116	118
301.214	181
301.2165	63
301.2189	190
301.2214	108
301.2238	63
301.2263	108
301.2287	108
301.2312	36
301.2361	36
301.2508	18
305.241	18
305.2484	18
305.2558	18
317.2133	18
318.2194	19
318.237	19
318.2521	19
318.2646	19
318.6953	19
318.8892	19
319.1841	37
319.2043	77
319.2068	98
319.2093	163
319.2118	235
319.2143	468
319.2169	412
319.2194	537
319.2219	722
319.2244	460
319.227	853
319.2295	692
319.232	740
319.2345	716
319.237	537
319.2396	456
319.2421	283
319.2446	176
319.2471	215
319.2496	69
319.2522	68
319.2547	59
319.2572	28
319.2597	39
319.2622	29
319.2648	10
319.2723	10
319.2748	19
319.6784	10
319.9307	10
320.2513	18
363.2447	18
363.2527	18
435.2635	18
462.2874	18
462.2995	18
462.3086	28
478.3051	18
480.2759	28
480.2821	18
480.2883	28
480.2914	36
480.2945	63
480.2976	36
480.3007	45
480.3038	36
480.3069	145
480.3099	136
480.313	45
480.3161	54
480.3192	54
480.3223	45
480.3254	28
480.3285	36
480.3316	36
480.3347	28
480.3409	18
480.344	18
498.2645	18
498.2708	18
498.2771	18
554.2843	18
695.4686	18
695.4983	18
695.502	18
695.5132	18
778.4784	18
778.4823	18
778.4863	18
778.4902	28
778.4941	28
778.498	18
778.502	45
778.5059	36
778.5099	63
778.5138	28
778.5178	28
778.5217	36
778.5256	82
778.5295	54
778.5335	36
778.5374	63
778.5414	63
778.5493	18
778.5571	18
778.561	28
779.5141	18
780.0106	18
782.4438	18
782.4517	28
782.4596	18
782.4636	36
782.4675	83
782.4714	46
782.4754	10
782.4794	30
782.4833	98
782.4872	154
782.4911	151
782.4951	153
782.4991	303
782.503	243
782.507	334
782.5109	418
782.5148	512
782.5188	658
782.5228	717
782.5267	729
782.5306	971
782.5346	999
782.5385	799
782.5425	814
782.5464	740
782.5504	780
782.5543	710
782.5583	627
782.5622	624
782.5662	513
782.5701	349
782.5741	248
782.578	339
782.582	216
782.5859	114
782.5898	134
782.5938	118
782.5978	31
782.6017	31
782.6057	59
782.6096	48
782.6135	40
782.6175	18
782.6215	11
782.6846	10
783.4782	18
783.4901	28
783.5177	18
783.5256	18
783.5375	73
783.5414	18
783.5453	45
783.5493	18
783.5533	28
783.5572	28
783.5651	28
783.569	28
783.573	36
783.577	28
783.5888	18
