Mass spectrum: PI(18:1/15-HETE); LC-ESI-QTOF; MS2
Name: PI(18:1/15-HETE)
Class: Oxidized Phospholipid
Formula: C47H81O14P
Exact mass: 901.127
SMILES: CCCCCCCC\C=C/CCCCCCCC(=O)OCC(COP(O)(=O)OC1C(O)C(O)C(O)C(O)C1O)OC(=O)CCC\C=C/C\C=C/C\C=C/C=C/C(O)CCCCC
InChI: InChI=1S/C47H81O14P/c1-3-5-7-8-9-10-11-12-13-14-17-20-23-26-30-34-40(49)58-36-39(37-59-62(56,57)61-47-45(54)43(52)42(51)44(53)46(47)55)60-41(50)35-31-27-24-21-18-15-16-19-22-25-29-33-38(48)32-28-6-4-2/h12-13,15-16,21-22,24-25,29,33,38-39,42-48,51-55H,3-11,14,17-20,23,26-28,30-32,34-37H2,1-2H3,(H,56,57)/b13-12-,16-15-,24-21-,25-22-,33-29+
Instrument: Acquity UPLC Peptide BEH C18 column (50 x 2.1 mm; 1.7 um), Sciex TripleTOF5600
Instrument type: LC-ESI-QTOF
Ms type: MS2
Ion mode: NEGATIVE
Collision energy: 30-50
Precursor m/z: 899.5291178
Precursor type: [M-H]-
m/z	relative intensity
78.95539	1
78.95664	3
78.95789	4
78.95915	7
78.9604	5
78.96165	3
78.96291	2
78.96416	3
78.96542	2
78.96667	2
78.96918	1
78.97294	1
93.06547	1
96.96716	2
96.97411	1
96.98245	1
121.0952	1
121.0984	2
121.0999	2
121.103	3
121.1061	2
151.1518	2
152.9804	1
152.9857	2
152.9874	5
152.9892	8
152.9909	8
152.9926	6
152.9944	11
152.9961	8
152.9979	6
152.9996	5
153.0014	7
153.0031	5
153.0049	1
153.0084	1
163.149	1
165.1665	1
175.1336	1
175.1373	4
175.1392	4
175.141	3
175.1429	5
175.1448	7
175.1466	11
175.1485	12
175.1504	11
175.1522	11
175.1541	8
175.156	7
175.1578	4
175.1597	1
175.1616	1
175.1635	2
175.1653	1
175.1672	1
175.1691	1
193.1177	1
201.1205	1
203.1687	1
203.1707	2
203.1727	1
203.1767	2
203.1787	4
203.1807	5
203.1828	3
203.1848	3
203.1888	1
204.1876	1
219.1209	1
219.123	2
219.1251	7
219.1272	8
219.1293	6
219.1314	16
219.1335	22
219.1355	21
219.1376	23
219.1397	21
219.1418	22
219.1439	17
219.146	11
219.1481	11
219.1502	8
219.1523	4
219.1543	4
219.1564	2
219.1585	1
222.983	1
222.9872	1
222.9893	2
222.9914	5
222.9935	10
222.9956	9
222.9977	9
222.9998	13
223.0019	15
223.004	8
223.0061	8
223.0082	8
223.0103	7
223.0124	2
223.0146	2
223.0167	2
240.2511	1
240.2642	4
240.2752	2
240.2817	1
240.3823	1
240.4086	1
240.7566	1
240.9821	1
240.9843	1
240.9909	3
240.9931	4
240.9953	9
240.9975	13
240.9996	23
241.0018	33
241.004	51
241.0062	73
241.0084	70
241.0106	82
241.0128	79
241.015	71
241.0172	68
241.0194	58
241.0215	31
241.0237	29
241.0259	17
241.0281	7
241.0303	8
241.0325	6
241.0347	2
241.0369	3
241.0413	1
245.1794	1
257.2051	1
257.2074	1
257.2096	2
257.2119	2
257.2142	7
257.2164	7
257.2187	8
257.2209	13
257.2232	12
257.2255	9
257.2278	11
257.23	26
257.2323	18
257.2345	11
257.2368	12
257.2391	5
257.2413	8
257.2436	2
257.2458	2
257.2481	2
257.2504	2
258.2403	1
259.0004	1
259.0027	1
259.005	2
259.0095	2
259.0118	3
259.014	5
259.0163	6
259.0186	10
259.0209	8
259.0231	5
259.0254	4
259.0277	6
259.0299	5
259.0322	2
259.0345	2
259.0368	3
259.039	1
259.0413	1
275.2214	1
275.2238	1
275.2308	2
275.2355	1
275.2378	2
275.2402	1
275.2425	2
275.2448	2
275.2472	2
275.2495	1
280.3669	2
280.3692	1
280.3716	1
280.3787	1
280.3811	2
280.3834	1
280.3858	1
280.511	1
280.7261	1
281.2204	1
281.2228	2
281.2251	4
281.2275	4
281.2299	9
281.2322	16
281.2346	24
281.237	40
281.2393	50
281.2417	46
281.2441	63
281.2464	83
281.2488	82
281.2512	73
281.2535	72
281.2559	64
281.2583	45
281.2607	33
281.263	21
281.2654	18
281.2677	13
281.2701	9
281.2725	4
281.2748	8
281.2819	2
281.2843	1
281.289	1
282.2411	1
282.2435	2
282.2483	1
282.2506	2
282.253	1
283.1901	1
283.1996	1
286.2948	1
296.1061	1
297.0173	1
297.0197	2
297.0222	1
297.0246	4
297.027	6
297.0294	5
297.0319	2
297.0343	5
297.0368	8
297.0392	8
297.0416	6
297.044	7
297.0465	5
297.0489	5
297.0514	4
297.0538	2
297.0562	3
297.0684	1
297.2532	1
300.2749	1
301.1607	1
301.1778	1
301.1901	2
301.1925	2
301.1949	1
301.1974	3
301.1999	10
301.2023	14
301.2047	23
301.2072	30
301.2097	30
301.2121	36
301.2145	33
301.217	41
301.2195	40
301.2219	32
301.2243	27
301.2268	21
301.2292	22
301.2317	14
301.2341	11
301.2366	8
301.239	4
301.2415	2
301.2464	2
301.2488	2
302.2145	2
302.2194	1
302.2267	2
315.0289	1
315.0314	2
315.0339	1
315.0364	5
315.0389	1
315.0414	2
315.0439	3
315.0464	5
315.0489	7
315.0515	5
315.054	6
315.0564	5
315.059	2
315.0615	1
315.064	1
315.0665	1
315.069	1
315.0715	1
317.84	1
318.5573	1
318.7412	1
319.0234	1
319.1923	2
319.1948	2
319.1973	1
319.1998	4
319.2023	4
319.2049	9
319.2074	22
319.2099	18
319.2124	21
319.2149	36
319.2175	51
319.22	68
319.2225	68
319.225	74
319.2275	73
319.2301	68
319.2326	83
319.2351	84
319.2376	45
319.2401	44
319.2427	23
319.2452	20
319.2477	10
319.2502	6
319.2527	7
319.2553	4
319.2578	2
319.2603	3
319.2654	1
319.9641	1
320.2241	3
320.2266	1
320.2292	1
320.2443	1
320.2544	1
407.2273	1
417.1934	1
417.205	1
417.2078	2
417.2107	6
417.2136	5
417.2165	7
417.2194	8
417.2222	12
417.2251	15
417.228	14
417.2309	24
417.2338	20
417.2367	33
417.2395	28
417.2424	30
417.2453	40
417.2482	28
417.2511	24
417.2539	15
417.2568	14
417.2597	17
417.2626	8
417.2655	6
417.2683	5
417.2712	1
417.2741	2
417.277	1
417.2856	1
418.2287	1
435.2175	1
435.2234	1
435.2352	1
435.2411	4
435.244	1
435.2469	1
435.2499	2
435.2528	4
435.2558	1
435.2587	2
435.2646	4
435.2676	2
435.2793	2
435.2823	1
455.1838	1
455.1868	2
455.1928	2
455.1958	2
455.1989	2
455.2019	5
455.2049	5
455.2079	7
455.2109	11
455.2139	10
455.2169	14
455.2199	10
455.2229	10
455.226	10
455.229	8
455.232	7
455.235	4
455.238	7
455.241	6
455.244	3
455.247	6
455.25	3
455.2531	1
455.256	2
473.2314	1
509.844	1
518.2799	1
523.2449	1
523.2579	1
523.2708	1
539.5431	1
561.4042	1
577.4269	1
578.4548	1
579.2321	1
579.2457	2
579.2525	1
579.2559	5
579.2593	5
579.2627	5
579.2661	12
579.2695	15
579.2729	28
579.2763	18
579.2797	17
579.2831	18
579.2864	27
579.2899	28
579.2933	33
579.2966	31
579.3	29
579.3035	29
579.3068	31
579.3102	29
579.3137	23
579.317	20
579.3204	13
579.3238	11
579.3272	10
579.3306	7
579.334	4
579.3374	2
579.3442	1
579.351	1
580.2819	1
580.2853	1
580.2921	1
580.2989	1
580.3057	2
580.3227	1
597.2595	1
597.2629	2
597.2663	2
597.2698	3
597.2732	3
597.2767	4
597.2801	6
597.2836	8
597.287	10
597.2905	10
597.2939	12
597.2974	10
597.3008	16
597.3043	12
597.3077	18
597.3112	14
597.3146	14
597.3181	11
597.3215	13
597.325	7
597.3284	8
597.3318	5
597.3353	3
597.3387	3
597.3422	4
597.3456	2
597.3491	1
597.356	1
597.3594	2
598.3323	2
602.256	1
617.2269	1
617.2304	1
617.2339	1
617.2374	4
617.241	3
617.2444	3
617.248	2
617.2515	6
617.2549	7
617.2585	8
617.262	6
617.2655	7
617.269	9
617.2725	9
617.276	10
617.2795	14
617.283	12
617.2865	7
617.29	13
617.2935	11
617.2971	5
617.3005	4
617.3041	9
617.311	2
617.3181	1
617.3216	2
618.2755	2
618.2895	2
618.2966	1
635.2589	2
635.2661	2
635.2731	1
635.291	3
635.298	1
635.3052	1
635.3123	1
635.3194	1
737.4445	2
737.4559	2
737.4598	1
737.4636	1
737.4675	2
737.4751	2
737.4789	1
737.4828	2
737.4866	2
737.4943	5
737.4981	2
737.5057	2
737.5096	1
896.6309	1
896.6394	3
896.6436	1
896.652	1
896.6563	1
896.6605	2
896.6647	3
896.6689	3
896.6732	4
896.6774	2
896.6816	3
896.6859	1
896.6901	2
896.6943	5
896.6985	4
896.7028	4
896.707	6
896.7112	2
896.7155	4
896.7197	4
896.7239	5
896.7324	4
896.7366	3
896.7408	3
896.7535	2
896.7577	2
896.7661	4
896.7746	2
896.7873	1
896.7999	1
897.7467	1
898.5163	1
898.5459	1
898.5501	1
898.5755	1
898.7827	1
898.8377	1
899.155	1
899.2015	1
899.2185	2
899.2777	1
899.3201	2
899.3285	1
899.3624	1
899.3751	1
899.3878	1
899.4301	2
899.4343	1
899.4639	15
899.4681	16
899.4724	47
899.4766	42
899.4808	82
899.485	94
899.4893	156
899.4935	172
899.4977	275
899.502	291
899.5062	375
899.5104	540
899.5147	654
899.5189	710
899.5231	815
899.5274	856
899.5316	829
899.5358	940
899.5401	982
899.5443	968
899.5485	999
899.5528	904
899.557	797
899.5612	623
899.5655	527
899.5697	358
899.5739	281
899.5782	200
899.5824	126
899.5866	105
899.5909	76
899.5951	39
899.5993	32
899.6036	26
899.6078	11
899.612	15
899.6163	7
899.6247	6
899.629	1
899.6332	4
899.6374	5
899.9591	1
899.9802	1
900.0649	2
900.0861	1
900.3104	1
900.3358	2
900.3443	1
900.3867	1
900.3994	1
900.4586	1
900.4628	1
900.4671	1
900.4713	2
900.4756	2
900.4798	7
900.484	13
900.4883	12
900.4925	10
900.4967	8
900.501	11
900.5052	12
900.5095	14
900.5137	19
900.5179	36
900.5222	32
900.5264	27
900.5306	32
900.5349	38
900.5391	34
900.5433	29
900.5475	41
900.5518	26
900.556	33
900.5602	27
900.5645	23
900.5687	21
900.5729	20
900.5772	19
900.5814	6
900.5856	11
900.5899	4
900.5941	4
900.5983	8
900.6026	3
900.6068	3
900.6153	5
900.628	1
900.645	1
900.6534	1
900.7635	1
900.8101	1
900.8312	1
900.9668	1
901.0091	2
901.0472	1
901.3056	1
901.5005	1
901.5217	1
901.5302	1
901.5471	1
901.5555	1
901.8267	1
901.8649	1
903.9678	1
906.7358	1
