Mass spectrum: PC(18:2e/12-HETE); LC-ESI-QTOF; MS2
Name: PC(18:2e/12-HETE)
Class: Oxidized Phospholipid
Formula: C46H82NO8P
Exact mass: 808.137
SMILES: CCCCCCCCCCCCC\C=C/C\C=C/OCC(COP([O-])(=O)OCC[N+](C)(C)C)OC(=O)CCC\C=C/C\C=C/C=C/C(O)C\C=C/CCCCC
InChI: InChI=1S/C46H82NO8P/c1-6-8-10-12-14-15-16-17-18-19-20-21-24-27-31-35-40-52-42-45(43-54-56(50,51)53-41-39-47(3,4)5)55-46(49)38-34-30-26-23-22-25-29-33-37-44(48)36-32-28-13-11-9-7-2/h23-29,32-33,35,37,40,44-45,48H,6-22,30-31,34,36,38-39,41-43H2,1-5H3/b26-23-,27-24-,29-25-,32-28-,37-33+,40-35-
Instrument: Acquity UPLC Peptide BEH C18 column (50 x 2.1 mm; 1.7 um), Sciex TripleTOF5600
Instrument type: LC-ESI-QTOF
Ms type: MS2
Ion mode: NEGATIVE
Collision energy: 30-50
Precursor m/z: 866.5916581
Precursor type: [M+CH3COOH-H]-
m/z	relative intensity
163.1093	37
163.1237	37
168.0342	37
168.0488	37
179.0953	37
179.1028	37
179.1047	74
179.1084	37
207.0968	37
207.1049	37
229.1926	37
229.2075	37
257.2216	37
257.2261	37
281.232	37
281.2343	37
281.239	37
281.2414	236
281.2437	110
281.2461	147
281.2484	270
281.2508	110
281.2531	74
281.2555	147
281.2578	37
281.2602	37
281.2766	37
283.2371	37
283.2395	74
283.2489	37
283.256	37
301.2046	37
301.2095	74
301.2119	37
301.2144	74
301.2168	37
301.2217	37
319.2057	37
319.2108	37
319.2133	74
319.2158	110
319.2183	184
319.2208	184
319.2233	184
319.2258	202
319.2283	285
319.2308	202
319.2333	257
319.2358	184
319.2383	37
319.2408	74
319.2433	74
319.2458	74
319.2484	37
319.2809	37
327.2189	37
327.224	37
327.2265	37
327.229	37
327.2316	37
327.2341	37
327.2366	37
327.2417	37
327.2443	110
327.2493	37
343.2339	74
343.2365	37
417.2337	74
417.2395	37
436.9773	37
436.9861	37
472.3097	37
472.3158	37
472.3188	74
472.328	37
472.3341	37
490.3062	37
490.3123	74
490.3217	37
490.3248	74
490.3279	37
490.331	37
490.3341	74
490.3372	147
490.3465	74
490.3496	37
490.3528	37
490.3621	37
492.3393	37
492.3518	37
680.4064	37
680.4174	37
719.4526	37
719.4601	37
720.4611	37
720.5289	37
721.4628	37
721.4704	37
721.4741	37
721.4779	37
721.4892	37
721.493	37
721.5005	37
779.5434	37
779.559	37
784.5323	37
784.5795	37
792.4879	37
792.4957	37
792.4997	37
792.5036	37
792.5115	74
792.5154	110
792.5194	205
792.5234	202
792.5273	303
792.5313	429
792.5352	325
792.5392	527
792.5431	490
792.5471	867
792.551	739
792.5549	999
792.5589	723
792.5629	539
792.5668	454
792.5707	423
792.5747	469
792.5787	303
792.5826	193
792.5865	233
792.5905	147
792.5944	110
792.5984	110
792.6024	37
792.6063	37
792.6221	37
793.9099	37
793.9691	37
799.9121	37
799.9637	37
806.5383	37
806.5503	37
806.5543	37
806.5623	74
806.5662	37
806.5861	37
807.5065	37
807.5106	37
807.5225	37
807.5305	37
819.4792	37
819.5475	37
866.4627	37
866.4875	37
866.4999	37
866.504	37
866.5081	37
866.5205	37
866.5287	74
866.5329	37
866.5411	37
866.5453	37
866.5494	110
866.5535	74
866.5577	37
866.5618	37
866.5659	74
866.5701	37
866.5742	147
866.5783	74
866.5825	110
866.5865	147
866.5907	110
866.5948	184
866.5989	37
866.6031	110
866.6072	74
866.6113	74
866.6237	37
866.6361	74
866.6403	37
