Mass spectrum: PI(16:0/9-HODE); LC-ESI-QTOF; MS2
Name: PI(16:0/9-HODE)
Class: Oxidized Phospholipid
Formula: C43H79O14P
Exact mass: 851.067
SMILES: CCCCCCCCCCCCCCCC(=O)OCC(COP(O)(=O)OC1C(O)C(O)C(O)C(O)C1O)OC(=O)CCCCCCCC(O)\C=C\C=C/CCCCC
InChI: InChI=1S/C43H79O14P/c1-3-5-7-9-11-12-13-14-15-16-18-22-26-30-36(45)54-32-35(33-55-58(52,53)57-43-41(50)39(48)38(47)40(49)42(43)51)56-37(46)31-27-23-19-21-25-29-34(44)28-24-20-17-10-8-6-4-2/h17,20,24,28,34-35,38-44,47-51H,3-16,18-19,21-23,25-27,29-33H2,1-2H3,(H,52,53)/b20-17-,28-24+
Instrument: Acquity UPLC Peptide BEH C18 column (50 x 2.1 mm; 1.7 um), Sciex TripleTOF5600
Instrument type: LC-ESI-QTOF
Ms type: MS2
Ion mode: NEGATIVE
Collision energy: 30-50
Precursor m/z: 849.5134677
Precursor type: [M-H]-
m/z	relative intensity
152.9899	11
152.9934	11
152.9951	11
152.9986	11
171.0914	11
171.095	11
171.0987	17
171.1024	17
171.1043	17
171.1061	11
222.9934	11
222.9955	17
222.9976	23
223.0018	17
223.0081	23
223.0145	11
240.9954	28
240.9998	45
241.002	67
241.0042	39
241.0064	45
241.0086	107
241.0108	95
241.013	90
241.0152	51
241.0173	51
241.0195	39
241.0217	28
241.0239	34
241.0261	17
241.0305	11
255.218	11
255.2203	17
255.2226	45
255.2248	90
255.2271	56
255.2293	84
255.2316	140
255.2338	79
255.2361	95
255.2383	79
255.2406	45
255.2428	28
255.2451	11
255.2519	11
259.0145	11
259.0258	17
259.0281	11
277.2108	34
277.2131	28
277.2155	67
277.2178	51
277.2202	34
277.2225	56
277.2249	34
277.2272	11
277.2319	11
295.1998	11
295.2022	11
295.2095	51
295.2119	39
295.2143	11
295.2168	45
295.2192	84
295.2216	62
295.224	107
295.2265	95
295.2289	79
295.2313	34
295.2337	90
295.2361	23
295.2386	34
295.241	34
295.2458	17
295.2483	11
295.2507	11
297.0305	17
297.033	11
297.0378	11
297.0403	17
297.0427	17
365.2728	11
391.2095	17
391.2123	17
391.2151	39
391.2179	28
391.2206	17
391.2234	23
391.2262	23
391.229	23
391.2318	23
391.2346	23
391.243	17
391.2458	11
431.1859	11
431.2006	17
431.2035	11
431.2094	23
431.2123	28
431.2152	34
431.2182	11
431.2211	28
431.224	23
431.227	28
431.2299	23
431.2328	23
431.2357	28
431.2387	28
464.3092	17
553.2525	17
553.2559	17
553.2625	17
553.2658	11
553.2724	28
553.2758	39
553.2791	23
553.2824	17
553.2857	28
553.289	34
553.2924	28
553.2957	11
553.299	11
553.3023	17
553.3056	23
553.3123	11
553.3255	11
571.2823	23
571.2958	11
593.2419	11
593.2453	17
593.2488	17
593.2522	51
593.2556	34
593.259	23
593.2659	28
593.2694	51
593.2728	39
593.2762	28
593.2797	39
593.2866	11
593.29	23
593.2935	17
593.2969	39
593.3003	23
593.3037	17
611.2787	11
687.4764	11
687.4875	11
849.4376	17
849.4499	6
849.454	24
849.4581	30
849.4622	62
849.4664	134
849.4705	123
849.4746	183
849.4787	261
849.4828	288
849.4869	306
849.491	463
849.4951	651
849.4993	631
849.5034	696
849.5075	800
849.5116	908
849.5157	997
849.5198	999
849.5239	861
849.528	864
849.5322	796
849.5363	719
849.5404	722
849.5445	484
849.5486	430
849.5527	361
849.5568	312
849.5609	192
849.5651	210
849.5692	87
849.5733	93
849.5774	99
849.5815	27
849.5856	14
849.5897	34
849.5938	34
849.598	13
849.6021	20
849.6103	7
849.6226	12
849.8406	6
849.9311	7
850.4907	23
850.503	11
850.5112	11
850.5153	23
850.5236	17
850.5277	17
