Mass spectrum: PE(16:0/14-HDoHE); LC-ESI-QTOF; MS2
Name: PE(16:0/14-HDoHE)
Class: Oxidized Phospholipid
Formula: C43H74NO9P
Exact mass: 780.039
SMILES: CCCCCCCCCCCCCCCC(=O)OCC(COP(O)(=O)OCCN)OC(=O)CC\C=C/C\C=C/C\C=C/C=C/C(O)C\C=C/C\C=C/CC
InChI: InChI=1S/C43H74NO9P/c1-3-5-7-9-11-12-13-14-15-19-22-26-30-34-42(46)50-38-41(39-52-54(48,49)51-37-36-44)53-43(47)35-31-27-23-20-17-16-18-21-25-29-33-40(45)32-28-24-10-8-6-4-2/h6,8,16-17,21,23-25,27-29,33,40-41,45H,3-5,7,9-15,18-20,22,26,30-32,34-39,44H2,1-2H3,(H,48,49)/b8-6-,17-16-,25-21-,27-23-,28-24-,33-29+
Instrument: Acquity UPLC Peptide BEH C18 column (50 x 2.1 mm; 1.7 um), Sciex TripleTOF5600
Instrument type: LC-ESI-QTOF
Ms type: MS2
Ion mode: NEGATIVE
Collision energy: 30-50
Precursor m/z: 778.5028435
Precursor type: [M-H]-
m/z	relative intensity
107.0898	71
161.1273	101
161.1362	71
179.1007	71
179.1045	71
179.1083	71
196.0299	172
196.0338	71
196.0398	71
205.1154	71
205.1235	71
205.1255	71
205.1275	71
207.1127	71
227.1969	71
227.2011	71
228.2125	71
234.1269	71
255.2101	71
255.2123	71
255.2146	202
255.2168	101
255.2191	101
255.2213	373
255.2236	172
255.2258	484
255.2281	414
255.2303	484
255.2326	343
255.2349	545
255.2371	202
255.2394	444
255.2416	272
255.2439	313
255.2461	101
255.2484	71
255.2506	71
256.2344	71
281.2171	71
281.2219	71
281.2242	101
281.2266	101
281.229	71
281.2314	202
281.2337	172
281.2361	71
281.2384	141
281.2408	71
281.2432	313
281.2455	272
281.2479	343
281.2503	272
281.2526	272
281.255	71
281.2574	141
281.2645	101
299.1943	71
317.1978	71
317.2004	101
317.2029	202
317.2054	141
317.2079	71
317.2104	172
317.213	202
317.2155	172
317.218	242
317.2205	101
317.223	71
317.2255	71
317.228	71
325.1986	71
325.2165	71
325.219	71
343.2039	101
343.2065	71
343.2118	141
343.2144	71
343.217	172
343.2196	172
343.2222	101
343.2248	71
343.2274	141
343.23	172
343.2327	141
343.2353	242
343.2379	172
343.2405	101
343.2457	71
343.2484	141
363.169	71
363.1905	71
434.2865	71
452.255	71
452.2761	101
452.2791	71
452.2821	172
452.2881	71
452.3	71
540.2725	71
628.5393	71
691.441	71
704.5251	71
778.4354	71
778.4472	172
778.4551	313
778.459	101
778.463	141
778.4669	414
778.4708	545
778.4747	545
778.4787	515
778.4826	616
778.4866	656
778.4905	757
778.4944	616
778.4984	827
778.5023	999
778.5062	959
778.5102	858
778.5141	888
778.5181	827
778.522	827
778.5259	757
778.5298	484
778.5338	928
778.5377	757
778.5417	373
778.5456	414
778.5496	71
778.5535	373
778.5574	202
778.5613	272
778.5653	101
778.5692	71
779.4632	101
779.4868	101
