Mass spectrum: PC 38:2; LC-ESI-QTOF; MS2
Name: PC 38:2
Class: PC
Formula: C46H88NO8P
Exact mass: 814.185
SMILES: CCCCCCCCCCCCCCCCCC(=O)OCC(COP([O-])(=O)OCC[N+](C)(C)C)OC(=O)CCCCCCCCC\C=C/C\C=C/CCCCC
InChI: InChI=1S/C46H88NO8P/c1-6-8-10-12-14-16-18-20-22-23-25-27-29-31-33-35-37-39-46(49)55-44(43-54-56(50,51)53-41-40-47(3,4)5)42-52-45(48)38-36-34-32-30-28-26-24-21-19-17-15-13-11-9-7-2/h14,16,20,22,44H,6-13,15,17-19,21,23-43H2,1-5H3/b16-14-,22-20-
Instrument: AB Sciex TripleTOF 5600+ system (Q-TOF) equipped with a DuoSpray ion source
Instrument type: LC-ESI-QTOF
Ms type: MS2
Ion mode: NEGATIVE
Collision energy: 45V
Column name: Acquity UPLC Peptide BEH C18 column (50*2.1 mm; 1.7 um; 130A)(Waters Co.,Milford, MA, USA)
Retention time: 11.26525
Precursor type: [M+CH3COOH-H]-
Precursor m/z: 872.6367
m/z	relative intensity
168.04	20
168.054	5
217.002	4
224.072	12
253.216	4
255.22	7
255.235	30
279.233	12
281.245	22
281.276	5
283.263	259
283.297	4
306.301	10
307.261	999
309.281	18
311.295	5
331.266	3
335.29	52
335.321	6
337.317	6
367.346	4
368.368	3
419.238	3
490.329	27
500.307	8
501.311	1
508.302	8
508.328	18
508.344	34
514.332	12
532.345	8
650.615	4
724.568	7
725.569	9
727.524	6
751.588	10
785.571	12
796.101	5
796.654	12
797.601	13
797.63	12
797.665	17
798.526	13
798.558	213
798.596	902
798.631	331
798.697	15
799.591	9
810.659	6
812.663	14
813.537	6
813.586	7
826.651	8
826.698	8
872.572	9
872.601	50
872.631	63
872.666	43
872.716	8
