Mass spectrum: PC(16:1/18-HEPE); LC-ESI-QTOF; MS2
Name: PC(16:1/18-HEPE)
Class: Oxidized Phospholipid
Formula: C44H76NO9P
Exact mass: 794.066
SMILES: CCCCCC\C=C/CCCCCCCC(=O)OCC(COP([O-])(=O)OCC[N+](C)(C)C)OC(=O)CCC\C=C/C\C=C/C\C=C/C\C=C/C=C/C(O)CC
InChI: InChI=1S/C44H76NO9P/c1-6-8-9-10-11-12-13-16-20-23-26-29-32-35-43(47)51-39-42(40-53-55(49,50)52-38-37-45(3,4)5)54-44(48)36-33-30-27-24-21-18-15-14-17-19-22-25-28-31-34-41(46)7-2/h12-13,15,17-19,24-25,27-28,31,34,41-42,46H,6-11,14,16,20-23,26,29-30,32-33,35-40H2,1-5H3/b13-12-,18-15-,19-17-,27-24-,28-25-,34-31+
Instrument: Acquity UPLC Peptide BEH C18 column (50 x 2.1 mm; 1.7 um), Sciex TripleTOF5600
Instrument type: LC-ESI-QTOF
Ms type: MS2
Ion mode: NEGATIVE
Collision energy: 30-50
Precursor m/z: 852.5396225
Precursor type: [M+CH3COOH-H]-
m/z	relative intensity
78.95796	17
109.1044	17
161.1316	17
161.1369	17
168.0387	34
168.0497	17
201.1567	17
215.1707	27
215.1749	61
215.1769	27
215.179	61
215.1811	34
215.1831	27
215.1852	27
224.0653	17
224.0675	17
224.0696	34
224.0717	17
224.0738	17
253.1955	17
253.2	17
253.2022	68
253.2045	85
253.2067	129
253.209	156
253.2112	200
253.2135	301
253.2157	257
253.218	257
253.2202	173
253.2224	257
253.2247	95
253.2269	146
253.2292	44
253.2314	34
253.2359	27
253.2426	17
254.2181	17
255.1976	17
255.1999	27
255.2021	34
255.2044	61
255.2066	27
255.2089	68
255.2112	34
255.2134	78
255.2157	27
255.2179	51
255.2224	27
255.2269	17
259.1529	27
259.1597	34
259.1619	17
259.1642	34
259.1665	61
259.1688	34
259.171	34
259.1733	78
259.1756	27
259.1778	17
259.1801	17
259.1824	51
259.196	17
273.203	17
273.2147	27
273.217	17
273.224	27
281.2444	17
299.1809	17
299.1833	17
299.1858	17
299.1906	17
299.1931	78
299.1955	51
299.198	95
299.2004	68
299.2029	44
299.2053	105
299.2077	85
299.2102	34
299.2126	44
299.2151	44
299.2175	17
299.2199	27
317.1791	17
317.1841	34
317.1866	27
317.1891	17
317.1917	44
317.1942	68
317.1967	78
317.1992	112
317.2017	224
317.2042	112
317.2067	129
317.2093	190
317.2118	190
317.2143	183
317.2168	217
317.2193	173
317.2218	190
317.2243	122
317.2268	51
317.2294	51
317.2319	44
317.2344	27
317.2369	17
317.2394	44
460.2859	17
460.289	17
478.2576	17
478.2638	17
478.2668	27
478.273	27
478.2761	27
478.2792	17
478.2823	17
478.2885	61
478.2915	78
478.2946	17
478.2977	51
478.3008	44
478.3039	44
478.3069	44
478.31	51
478.3131	34
478.3162	34
478.3193	17
524.2595	17
524.2691	17
542.2838	17
542.2969	17
542.3134	17
707.4297	17
707.4447	27
720.7393	17
759.4861	17
765.533	17
776.0627	17
778.4347	44
778.4387	27
778.4426	27
778.4465	34
778.4504	27
778.4544	95
778.4583	139
778.4623	200
778.4662	200
778.4702	261
778.4741	210
778.478	562
778.4819	430
778.4859	626
778.4898	610
778.4938	731
778.4977	830
778.5016	786
778.5056	796
778.5095	877
778.5134	999
778.5174	769
778.5213	586
778.5253	637
778.5292	589
778.5331	660
778.537	386
778.541	433
778.5449	210
778.5489	156
778.5528	122
778.5568	105
778.5607	139
778.5646	78
778.5685	34
778.5725	78
778.5764	27
778.5804	17
778.5843	44
778.5883	27
779.498	27
779.5019	27
779.5059	17
779.5098	17
779.5176	27
779.5255	27
779.5374	17
779.5413	17
793.4699	27
793.4858	17
808.7653	17
852.4763	27
852.4928	17
852.501	27
852.5051	51
852.5093	34
852.5134	51
852.5175	44
852.5216	51
852.5258	61
852.5298	95
852.534	34
852.5381	44
852.5422	44
852.5463	44
852.5505	129
852.5546	129
852.5587	68
852.5628	78
852.567	68
852.571	51
852.5752	61
852.5793	44
852.5834	44
852.5875	17
852.5999	27
852.9913	17
