Mass spectrum: PC 38:2; LC-ESI-QTOF; MS2
Name: PC 38:2
Class: PC
Formula: C46H88NO8P
Exact mass: 814.185
SMILES: CCCCCCCC\C=C/CCCCCCCCCC(=O)OC(COC(=O)CCCCCCC\C=C/CCCCCCCC)COP([O-])(=O)OCC[N+](C)(C)C
InChI: InChI=1S/C46H88NO8P/c1-6-8-10-12-14-16-18-20-22-23-25-27-29-31-33-35-37-39-46(49)55-44(43-54-56(50,51)53-41-40-47(3,4)5)42-52-45(48)38-36-34-32-30-28-26-24-21-19-17-15-13-11-9-7-2/h20-22,24,44H,6-19,23,25-43H2,1-5H3/b22-20-,24-21-
Instrument: AB Sciex TripleTOF 5600+ system (Q-TOF) equipped with a DuoSpray ion source
Instrument type: LC-ESI-QTOF
Ms type: MS2
Ion mode: NEGATIVE
Collision energy: 45V
Column name: Acquity UPLC Peptide BEH C18 column (50*2.1 mm; 1.7 um; 130A)(Waters Co.,Milford, MA, USA)
Retention time: 10.98681
Precursor type: [M+CH3COOH-H]-
Precursor m/z: 872.6387
m/z	relative intensity
89.024	9
113.025	3
119.032	5
168.038	5
203.885	3
224.065	10
239.245	3
253.216	28
255.234	3
280.269	3
281.248	752
281.276	11
283.252	3
306.246	5
308.319	4
309.278	353
335.287	3
337.317	3
366.341	3
435.248	5
445.266	6
467.666	3
488.316	9
506.32	25
516.349	10
534.347	29
534.369	27
618.576	3
632.593	14
727.543	5
785.597	12
790.544	7
798.531	15
798.601	999
798.641	103
799.583	8
812.587	6
812.664	57
812.698	14
813.557	12
826.648	9
826.705	9
872.571	11
872.621	94
872.663	48
