Mass spectrum: PC 40:6; LC-ESI-QTOF; MS2
Name: PC 40:6
Class: PC
Formula: C48H84NO8P
Exact mass: 834.175
SMILES: CCCCCCCCCCCCCCCCCC(=O)OCC(COP([O-])(=O)OCC[N+](C)(C)C)OC(=O)CC\C=C/C\C=C/C\C=C/C\C=C/C\C=C/C\C=C/CC
InChI: InChI=1S/C48H84NO8P/c1-6-8-10-12-14-16-18-20-22-23-24-25-27-29-31-33-35-37-39-41-48(51)57-46(45-56-58(52,53)55-43-42-49(3,4)5)44-54-47(50)40-38-36-34-32-30-28-26-21-19-17-15-13-11-9-7-2/h8,10,14,16,20,22,24-25,29,31,35,37,46H,6-7,9,11-13,15,17-19,21,23,26-28,30,32-34,36,38-45H2,1-5H3/b10-8-,16-14-,22-20-,25-24-,31-29-,37-35-
Instrument: AB Sciex TripleTOF 5600+ system (Q-TOF) equipped with a DuoSpray ion source
Instrument type: LC-ESI-QTOF
Ms type: MS2
Ion mode: NEGATIVE
Collision energy: 45V
Column name: Acquity UPLC Peptide BEH C18 column (50*2.1 mm; 1.7 um; 130A)(Waters Co.,Milford, MA, USA)
Retention time: 10.02012
Precursor type: [M+CH3COOH-H]-
Precursor m/z: 892.6033
m/z	relative intensity
78.959	3
107.087	1
117.073	1
121.103	2
123.118	1
131.085	1
133.102	2
135.115	2
137.132	1
147.116	0
149.136	2
152.996	1
161.135	1
163.149	1
168.042	17
175.147	1
177.164	7
191.177	4
191.186	2
203.175	1
203.186	0
224.069	22
229.195	33
231.137	1
241.195	1
242.079	3
249.185	10
255.212	1
281.225	1
282.378	1
283.243	200
283.262	475
284.008	0
297.217	1
309.221	2
326.215	2
327.232	779
419.255	4
434.3	1
437.273	0
463.219	0
469.87	0
478.276	1
490.328	21
505.644	0
506.741	0
508.336	154
509.34	0
523.303	0
534.261	0
534.294	10
552.297	4
552.317	5
563.701	1
700.569	0
747.481	1
747.52	1
773.508	1
815.979	3
816.016	1
817.612	1
818.236	1
818.453	0
818.562	999
819.564	4
833.504	2
833.522	11
833.544	5
889.792	0
891.986	0
892.602	112
892.667	1
