Mass spectrum: PE 40:6; LC-ESI-QTOF; MS2
Name: PE 40:6
Class: PE
Formula: C45H78NO8P
Exact mass: 792.0939999999999
SMILES: CCCCCCCCCCCCCCCCCC(=O)OCC(COP(O)(=O)OCCN)OC(=O)CC\C=C/C\C=C/C\C=C/C\C=C/C\C=C/C\C=C/CC
InChI: InChI=1S/C45H78NO8P/c1-3-5-7-9-11-13-15-17-19-20-21-22-24-26-28-30-32-34-36-38-45(48)54-43(42-53-55(49,50)52-40-39-46)41-51-44(47)37-35-33-31-29-27-25-23-18-16-14-12-10-8-6-4-2/h5,7,11,13,17,19,21-22,26,28,32,34,43H,3-4,6,8-10,12,14-16,18,20,23-25,27,29-31,33,35-42,46H2,1-2H3,(H,49,50)/b7-5-,13-11-,19-17-,22-21-,28-26-,34-32-
Instrument: AB Sciex TripleTOF 5600+ system (Q-TOF) equipped with a DuoSpray ion source
Instrument type: LC-ESI-QTOF
Ms type: MS2
Ion mode: NEGATIVE
Collision energy: 45V
Column name: Acquity UPLC Peptide BEH C18 column (50*2.1 mm; 1.7 um; 130A)(Waters Co.,Milford, MA, USA)
Retention time: 10.13184
Precursor type: [M-H]-
Precursor m/z: 790.538
m/z	relative intensity
78.959	6
81.069	0
93.069	1
95.087	0
96.967	1
96.974	0
105.071	1
107.087	2
109.101	1
117.07	1
119.085	0
121.1	4
121.997	2
123.117	1
131.086	1
133.102	2
135.117	2
137.134	1
140.011	19
147.118	1
149.13	1
149.14	0
151.152	0
152.996	1
153.092	0
157.1	0
159.117	0
161.13	1
163.075	2
163.148	3
167.109	0
173.141	0
175.149	2
177.092	1
177.165	9
178.023	1
178.033	0
181.122	0
187.15	1
189.163	1
191.105	0
191.179	8
193.126	0
195.433	0
196.037	37
201.168	0
203.102	0
203.18	2
207.134	0
214.049	3
215.178	0
217.121	0
217.198	1
219.14	0
229.126	0
229.194	41
231.136	0
241.195	1
243.143	0
249.172	1
249.187	9
255.194	0
255.211	2
257.158	1
271.171	1
281.218	1
281.244	1
282.349	0
282.365	1
282.383	2
283.19	0
283.258	999
283.507	0
283.976	0
284.262	1
285.26	0
291.209	0
297.218	0
297.237	0
309.221	3
310.282	0
325.214	0
326.191	0
326.202	1
326.216	2
327.051	0
327.233	704
328.231	1
406.268	0
406.286	0
419.235	0
419.257	0
450.236	1
462.279	5
462.302	23
478.331	0
478.805	0
480.309	175
480.364	0
481.3	0
482.959	0
506.263	12
506.33	0
524.248	1
524.275	7
524.318	0
655.082	0
703.532	0
716.593	0
772.518	0
787.995	0
788.019	0
788.049	2
788.079	1
788.105	0
789.497	0
790.322	0
790.534	399
791.502	0
791.532	1
791.566	1
