Mass spectrum: PI 36:5; LC-ESI-QTOF; MS2
Name: PI 36:5
Class: PI
Formula: C45H77O13P
Exact mass: 857.074
SMILES: CCCCCCCCCCCCCCCC(=O)OCC(COP(O)(=O)OC1C(O)C(O)C(O)C(O)C1O)OC(=O)CCC\C=C/C\C=C/C\C=C/C\C=C/C\C=C/CC
InChI: InChI=1S/C45H77O13P/c1-3-5-7-9-11-13-15-17-18-19-20-22-24-26-28-30-32-34-39(47)57-37(36-56-59(53,54)58-45-43(51)41(49)40(48)42(50)44(45)52)35-55-38(46)33-31-29-27-25-23-21-16-14-12-10-8-6-4-2/h5,7,11,13,17-18,20,22,26,28,37,40-45,48-52H,3-4,6,8-10,12,14-16,19,21,23-25,27,29-36H2,1-2H3,(H,53,54)/b7-5-,13-11-,18-17-,22-20-,28-26-
Instrument: AB Sciex TripleTOF 5600+ system (Q-TOF) equipped with a DuoSpray ion source
Instrument type: LC-ESI-QTOF
Ms type: MS2
Ion mode: NEGATIVE
Collision energy: 45V
Column name: Acquity UPLC Peptide BEH C18 column (50*2.1 mm; 1.7 um; 130A)(Waters Co.,Milford, MA, USA)
Retention time: 8.086141
Precursor type: [M-H]-
Precursor m/z: 855.5017
m/z	relative intensity
78.957	3
96.97	2
121.066	0
135.12	0
152.995	12
196.04	2
203.179	1
214.051	1
222.998	15
225.188	1
241.01	83
254.433	0
255.17	1
255.231	109
257.213	3
257.227	13
259.021	6
283.263	19
284.265	17
297.035	12
301.214	97
311.201	1
312.202	1
315.043	4
315.065	0
356.194	0
373.19	0
374.2	0
391.222	62
409.223	4
409.249	2
437.194	4
437.218	4
470.547	0
480.282	3
480.309	7
481.285	0
481.306	7
517.544	0
541.234	0
551.477	0
553.268	85
553.297	7
571.284	24
599.243	3
599.258	9
599.278	3
617.258	1
693.444	1
705.45	1
705.488	1
781.52	1
821.513	1
823.465	1
837.494	3
837.526	4
852.755	1
852.791	2
852.813	1
855.027	1
855.324	0
855.401	2
855.493	999
855.761	0
856.091	0
856.48	2
856.513	1
