Mass spectrum: Cer[NS] d40:1; LC-ESI-QTOF; MS2
Name: Cer[NS] d40:1
Class: Cer_NS
Formula: C40H79NO3
Exact mass: 622.0759999999998
SMILES: CCCCCCCCCCCCCCCCCCCCCC(=O)NC(CO)C(O)\C=C\CCCCCCCCCCCCC
InChI: InChI=1S/C40H79NO3/c1-3-5-7-9-11-13-15-17-18-19-20-21-22-24-26-28-30-32-34-36-40(44)41-38(37-42)39(43)35-33-31-29-27-25-23-16-14-12-10-8-6-4-2/h33,35,38-39,42-43H,3-32,34,36-37H2,1-2H3,(H,41,44)/b35-33+
Instrument: AB Sciex TripleTOF 5600+ system (Q-TOF) equipped with a DuoSpray ion source
Instrument type: LC-ESI-QTOF
Ms type: MS2
Ion mode: NEGATIVE
Collision energy: 45V
Column name: Acquity UPLC Peptide BEH C18 column (50*2.1 mm; 1.7 um; 130A)(Waters Co.,Milford, MA, USA)
Retention time: 13.07334
Precursor type: [M+CH3COOH-H]-
Precursor m/z: 680.6198
m/z	relative intensity
97.932	2
237.218	55
239.235	2
250.248	7
263.236	52
265.254	24
266.247	8
268.264	11
281.242	2
291.271	20
293.283	17
293.301	6
296.291	5
298.271	5
310.295	7
310.317	10
311.29	13
321.293	16
321.319	61
336.327	66
338.323	8
338.344	46
339.326	29
352.323	11
363.234	4
364.334	43
364.356	225
380.35	37
572.548	11
572.572	49
572.607	6
584.57	3
588.569	44
588.607	8
590.54	7
590.57	40
590.586	40
590.605	10
618.629	6
618.692	3
620.594	999
647.623	5
