Mass spectrum: PC(14:0/5-HEPE); LC-ESI-QTOF; MS2
Name: PC(14:0/5-HEPE)
Class: Oxidized Phospholipid
Formula: C42H74NO9P
Exact mass: 768.028
SMILES: CCCCCCCCCCCCCC(=O)OCC(COP([O-])(=O)OCC[N+](C)(C)C)OC(=O)CCCC(O)\C=C\C=C/C\C=C/C\C=C/C\C=C/CC
InChI: InChI=1S/C42H74NO9P/c1-6-8-10-12-14-16-18-19-21-22-24-26-28-31-39(44)32-30-34-42(46)52-40(38-51-53(47,48)50-36-35-43(3,4)5)37-49-41(45)33-29-27-25-23-20-17-15-13-11-9-7-2/h8,10,14,16,19,21,24,26,28,31,39-40,44H,6-7,9,11-13,15,17-18,20,22-23,25,27,29-30,32-38H2,1-5H3/b10-8-,16-14-,21-19-,26-24-,31-28+
Instrument: Acquity UPLC Peptide BEH C18 column (50 x 2.1 mm; 1.7 um), Sciex TripleTOF5600
Instrument type: LC-ESI-QTOF
Ms type: MS2
Ion mode: NEGATIVE
Collision energy: 30-50
Precursor m/z: 826.5239725
Precursor type: [M+CH3COOH-H]-
m/z	relative intensity
115.0337	52
115.0382	52
115.0412	52
227.1801	78
227.1844	52
227.1887	214
227.1908	398
227.1929	481
227.195	533
227.1972	989
227.1993	826
227.2014	962
227.2035	931
227.2057	455
227.2078	586
227.2099	507
227.2121	267
227.2142	319
227.2163	52
227.2206	105
227.2248	78
255.2036	78
255.2081	78
255.2126	52
255.2149	78
255.2216	78
299.1945	52
299.2043	52
299.2189	52
317.1981	105
317.2031	78
317.2082	52
317.2132	78
317.2232	78
317.2258	105
317.2308	52
370.892	52
436.2442	52
452.2672	52
452.2852	52
492.364	52
542.275	52
542.2849	52
542.2914	52
542.2947	52
542.321	78
661.4283	52
661.4611	52
739.4666	52
752.4301	52
752.434	105
752.4379	136
752.4456	267
752.4495	162
752.4533	319
752.4572	350
752.4611	513
752.4649	539
752.4688	941
752.4727	837
752.4766	999
752.4804	863
752.4843	994
752.4882	701
752.492	863
752.4959	785
752.4998	910
752.5037	753
752.5075	460
752.5114	617
752.5153	377
752.5191	539
752.523	586
752.5269	398
752.5307	371
752.5346	105
752.5385	131
752.5424	131
752.5462	78
752.5501	52
752.554	52
753.4639	52
767.4673	52
826.4609	52
826.469	52
826.4731	78
826.4893	52
826.4933	78
826.4974	78
826.5015	52
826.5055	78
826.5136	52
826.5217	105
826.5258	78
826.5298	131
826.538	188
826.542	52
826.5461	52
826.5501	52
826.5623	52
826.5786	78
826.688	52
