Mass spectrum: SM d38:1; LC-ESI-QTOF; MS2
Name: SM d38:1
Class: SM
Formula: C43H87N2O6P
Exact mass: 759.153
SMILES: CCCCCCCCCCCCCCCCCC(=O)NC(COP([O-])(=O)OCC[N+](C)(C)C)C(O)\C=C\CCCCCCCCCCCCCCC
InChI: InChI=1S/C43H87N2O6P/c1-6-8-10-12-14-16-18-20-22-24-26-28-30-32-34-36-42(46)41(40-51-52(48,49)50-39-38-45(3,4)5)44-43(47)37-35-33-31-29-27-25-23-21-19-17-15-13-11-9-7-2/h34,36,41-42,46H,6-33,35,37-40H2,1-5H3,(H-,44,47,48,49)/b36-34+
Instrument: AB Sciex TripleTOF 5600+ system (Q-TOF) equipped with a DuoSpray ion source
Instrument type: LC-ESI-QTOF
Ms type: MS2
Ion mode: NEGATIVE
Collision energy: 45V
Column name: Acquity UPLC Peptide BEH C18 column (50*2.1 mm; 1.7 um; 130A)(Waters Co.,Milford, MA, USA)
Retention time: 10.75175
Precursor type: [M+CH3COOH-H]-
Precursor m/z: 817.6396
m/z	relative intensity
78.958	15
89.023	8
101.02	3
113.022	1
119.031	6
122.98	4
143.032	1
149.043	2
161.042	1
168.043	50
179.054	2
180.053	1
239.224	1
280.267	2
281.262	3
282.269	2
283.267	7
309.285	2
327.294	1
328.298	1
352.321	3
353.321	2
402.855	1
419.447	1
436.259	1
448.291	2
477.347	2
590.523	5
590.559	9
591.5	2
591.548	15
591.574	12
609.572	5
672.526	4
730.539	4
743.61	999
743.653	44
743.703	2
744.612	3
758.557	7
770.597	16
770.638	7
771.586	33
771.62	105
771.683	4
817.567	4
817.605	7
817.632	16
817.659	13
817.691	5
