Mass spectrum: PC 34:2; LC-ESI-QTOF; MS2
Name: PC 34:2
Class: PC
Formula: C42H80NO8P
Exact mass: 758.0769999999999
SMILES: CCCCCCCCCCCCCCCC(=O)OCC(COP([O-])(=O)OCC[N+](C)(C)C)OC(=O)CCCCCCC\C=C/C\C=C/CCCCC
InChI: InChI=1S/C42H80NO8P/c1-6-8-10-12-14-16-18-20-21-23-25-27-29-31-33-35-42(45)51-40(39-50-52(46,47)49-37-36-43(3,4)5)38-48-41(44)34-32-30-28-26-24-22-19-17-15-13-11-9-7-2/h14,16,20-21,40H,6-13,15,17-19,22-39H2,1-5H3/b16-14-,21-20-
Instrument: AB Sciex TripleTOF 5600+ system (Q-TOF) equipped with a DuoSpray ion source
Instrument type: LC-ESI-QTOF
Ms type: MS2
Ion mode: NEGATIVE
Collision energy: 45V
Column name: Acquity UPLC Peptide BEH C18 column (50*2.1 mm; 1.7 um; 130A)(Waters Co.,Milford, MA, USA)
Retention time: 9.353429
Precursor type: [M+CH3COOH-H]-
Precursor m/z: 816.5748
m/z	relative intensity
78.959	2
152.994	1
168.041	13
206.058	1
224.069	16
242.078	2
253.218	0
254.434	1
255.154	0
255.232	367
255.268	0
255.341	0
261.22	2
278.348	1
278.363	4
279.004	0
279.073	0
279.148	0
279.231	999
280.232	2
281.253	1
391.225	2
406.272	1
409.236	0
415.221	0
430.27	1
461.4	0
462.294	13
478.792	0
479.7	0
480.305	61
480.358	0
480.411	0
481.304	0
486.296	9
486.325	0
495.26	0
495.388	0
504.296	4
504.314	5
511.458	0
518.401	0
559.036	0
559.206	0
671.456	1
697.471	0
697.49	0
740.171	1
740.19	1
740.242	0
741.5	0
741.861	0
741.982	0
742.278	0
742.412	0
742.533	541
742.821	0
743.252	0
743.533	1
757.461	0
757.487	4
757.507	3
757.532	0
816.571	68
