Mass spectrum: PE(16:1/14,15-EpETE); LC-ESI-QTOF; MS2
Name: PE(16:1/14,15-EpETE)
Class: Oxidized Phospholipid
Formula: C41H70NO9P
Exact mass: 751.985
SMILES: CCCCCC\C=C/CCCCCCCC(=O)OCC(COP(O)(=O)OCCN)OC(=O)CCC\C=C/C\C=C/C\C=C/CC1OC1C\C=C/CC
InChI: InChI=1S/C41H70NO9P/c1-3-5-7-8-9-10-11-12-13-17-20-23-27-31-40(43)47-35-37(36-49-52(45,46)48-34-33-42)50-41(44)32-28-24-21-18-15-14-16-19-22-26-30-39-38(51-39)29-25-6-4-2/h6,10-11,14,16,18,21-22,25-26,37-39H,3-5,7-9,12-13,15,17,19-20,23-24,27-36,42H2,1-2H3,(H,45,46)/b11-10-,16-14-,21-18-,25-6-,26-22-
Instrument: Acquity UPLC Peptide BEH C18 column (50 x 2.1 mm; 1.7 um), Sciex TripleTOF5600
Instrument type: LC-ESI-QTOF
Ms type: MS2
Ion mode: NEGATIVE
Collision energy: 30-50
Precursor m/z: 750.4715433
Precursor type: [M-H]-
m/z	relative intensity
78.96077	43
140.0116	43
140.015	43
140.0166	43
175.1468	43
175.1505	43
196.0346	43
196.0385	64
196.0425	64
196.0544	43
201.1586	43
207.1257	43
207.1318	106
207.1338	43
207.1358	106
207.1379	43
207.1399	85
207.1419	106
207.144	85
207.146	85
207.1501	43
207.1521	43
219.1272	43
219.1335	43
219.1356	43
219.1398	43
219.1419	43
219.144	43
219.1481	43
247.1385	43
248.1355	43
248.1443	85
248.1488	85
253.1997	106
253.2042	323
253.2064	391
253.2086	412
253.2109	434
253.2131	608
253.2154	714
253.2176	999
253.2199	782
253.2221	714
253.2244	672
253.2266	455
253.2289	434
253.2311	238
253.2333	64
253.2356	43
253.2378	64
253.2491	85
255.2041	43
255.2063	64
255.2108	64
255.2153	43
255.2176	43
255.2198	64
255.2221	43
273.2236	43
299.1901	43
299.1925	43
299.2047	43
299.2096	43
317.1936	106
317.1986	106
317.2011	106
317.2036	132
317.2061	259
317.2086	259
317.2112	174
317.2137	302
317.2162	476
317.2187	153
317.2212	85
317.2237	196
317.2262	106
317.2338	85
317.2438	43
432.2577	64
432.2723	43
450.2415	85
450.2505	43
450.2565	64
450.2595	64
450.2625	43
450.2654	43
450.2684	43
450.2774	43
450.2924	43
748.1211	43
750.4114	64
750.423	43
750.4269	43
750.4307	132
750.4346	132
750.4385	132
750.4423	85
750.4462	281
750.4501	349
750.4539	370
750.4578	238
750.4617	565
750.4655	281
750.4694	349
750.4733	434
750.4771	650
750.481	497
750.4849	476
750.4887	391
750.4926	302
750.4965	412
750.5003	174
750.5042	196
750.5081	238
750.5119	153
750.5157	106
750.5196	85
750.5235	106
750.5273	43
750.5389	85
750.5699	43
