Mass spectrum: SM d34:1; LC-ESI-QTOF; MS2
Name: SM d34:1
Class: SM
Formula: C39H79N2O6P
Exact mass: 703.045
SMILES: CCCCCCCCCCCCCCCC(=O)NC(COP([O-])(=O)OCC[N+](C)(C)C)C(O)\C=C\CCCCCCCCCCCCC
InChI: InChI=1S/C39H79N2O6P/c1-6-8-10-12-14-16-18-20-22-24-26-28-30-32-38(42)37(36-47-48(44,45)46-35-34-41(3,4)5)40-39(43)33-31-29-27-25-23-21-19-17-15-13-11-9-7-2/h30,32,37-38,42H,6-29,31,33-36H2,1-5H3,(H-,40,43,44,45)/b32-30+
Instrument: AB Sciex TripleTOF 5600+ system (Q-TOF) equipped with a DuoSpray ion source
Instrument type: LC-ESI-QTOF
Ms type: MS2
Ion mode: NEGATIVE
Collision energy: 45V
Column name: Acquity UPLC Peptide BEH C18 column (50*2.1 mm; 1.7 um; 130A)(Waters Co.,Milford, MA, USA)
Retention time: 9.016038
Precursor type: [M+CH3COOH-H]-
Precursor m/z: 761.5801
m/z	relative intensity
78.957	22
122.986	3
168.041	75
255.233	3
256.231	2
267.221	0
269.24	1
281.244	2
282.228	1
283.264	0
295.265	2
326.216	1
327.228	1
395.567	0
404.263	0
449.312	5
451.239	0
452.268	1
598.454	2
616.456	3
616.488	1
627.513	0
642.471	0
685.367	3
685.427	0
685.55	0
687.541	999
687.653	1
688.549	3
702.478	3
702.519	2
702.574	0
715.586	1
729.501	1
761.493	8
761.573	10
761.602	2
