Mass spectrum: PE(18:1/9-HODE); LC-ESI-QTOF; MS2
Name: PE(18:1/9-HODE)
Class: Oxidized Phospholipid
Formula: C41H76NO9P
Exact mass: 758.033
SMILES: CCCCCCCC\C=C/CCCCCCCC(=O)OCC(COP(O)(=O)OCCN)OC(=O)CCCCCCCC(O)\C=C\C=C/CCCCC
InChI: InChI=1S/C41H76NO9P/c1-3-5-7-9-11-12-13-14-15-16-17-18-20-24-28-32-40(44)48-36-39(37-50-52(46,47)49-35-34-42)51-41(45)33-29-25-21-23-27-31-38(43)30-26-22-19-10-8-6-4-2/h14-15,19,22,26,30,38-39,43H,3-13,16-18,20-21,23-25,27-29,31-37,42H2,1-2H3,(H,46,47)/b15-14-,22-19-,30-26+
Instrument: Acquity UPLC Peptide BEH C18 column (50 x 2.1 mm; 1.7 um), Sciex TripleTOF5600
Instrument type: LC-ESI-QTOF
Ms type: MS2
Ion mode: NEGATIVE
Collision energy: 30-50
Precursor m/z: 756.5184935
Precursor type: [M-H]-
m/z	relative intensity
78.95675	8
78.958	8
78.95926	8
78.96051	8
123.1198	13
140.0058	8
140.0108	30
140.0125	17
140.0141	8
140.0158	21
171.092	17
171.0957	25
171.0975	47
171.0994	72
171.1012	98
171.103	111
171.1049	68
171.1067	43
171.1086	30
171.1104	13
171.1123	8
171.1141	21
188.1888	8
196.0267	8
196.0287	13
196.0307	21
196.0327	21
196.0366	17
196.0386	34
196.0406	25
196.0426	17
233.2311	9
253.2097	8
276.3593	9
277.0211	9
277.1879	8
277.195	30
277.1973	17
277.1997	30
277.202	39
277.2044	35
277.2067	83
277.209	131
277.2114	136
277.2137	136
277.2161	87
277.2184	144
277.2208	149
277.2232	148
277.2255	96
277.2279	65
277.2302	30
277.2326	18
277.2349	22
277.2373	18
277.2396	9
277.2513	9
278.2178	5
278.2225	9
279.2284	9
280.3731	9
280.392	9
280.8293	9
281.0019	10
281.1817	9
281.2077	9
281.2195	5
281.2219	14
281.2243	24
281.2266	40
281.229	68
281.2314	126
281.2337	231
281.2361	344
281.2385	497
281.2408	653
281.2432	690
281.2456	844
281.2479	999
281.2503	943
281.2527	797
281.255	573
281.2574	484
281.2598	316
281.2621	204
281.2645	175
281.2668	124
281.2692	56
281.2716	36
281.274	33
281.2763	29
281.281	5
281.2834	5
281.2929	14
281.3544	5
282.0104	5
282.1573	5
282.245	13
282.2545	8
282.2616	13
293.2111	13
293.2232	8
294.0767	9
294.3114	22
294.3163	13
294.7546	9
294.9969	9
295.0599	9
295.1884	9
295.1981	18
295.2005	5
295.2029	14
295.2053	28
295.2077	45
295.2102	78
295.2126	88
295.215	184
295.2174	249
295.2199	279
295.2223	348
295.2247	462
295.2271	508
295.2296	482
295.232	425
295.2344	259
295.2368	221
295.2393	198
295.2417	129
295.2441	69
295.2465	28
295.249	46
295.2514	37
295.2538	19
295.2562	14
295.2587	14
295.2611	5
295.2926	5
295.6321	5
295.984	5
296.2341	8
296.2438	8
299.0091	5
415.2226	8
460.2598	8
460.281	13
460.2841	17
460.2871	8
460.2932	13
460.2962	8
474.256	13
474.2591	8
474.2621	13
474.2652	13
474.2683	13
474.2714	13
474.2744	13
474.2775	8
474.2806	8
474.2836	8
478.2652	8
478.2682	8
478.2744	17
478.2806	13
478.2837	17
478.2868	8
478.2899	47
478.2929	17
478.296	13
478.2991	21
478.3022	38
478.3084	17
478.3145	8
478.3176	8
492.2393	13
492.2424	13
492.2455	13
492.2518	13
492.2549	13
492.258	8
492.2612	17
492.2643	34
492.2674	30
492.2705	25
492.2737	21
492.2768	34
492.2799	38
492.2831	13
492.2862	13
492.2893	17
492.2925	13
492.2956	17
492.2987	13
492.305	8
754.1354	8
754.147	8
754.1702	9
756.4504	13
756.4659	23
756.4698	29
756.4736	100
756.4775	43
756.4814	150
756.4853	106
756.4892	117
756.493	212
756.4969	294
756.5009	371
756.5047	436
756.5086	345
756.5125	416
756.5164	551
756.5202	501
756.5241	626
756.528	565
756.5319	624
756.5358	545
756.5396	429
756.5435	302
756.5474	345
756.5513	251
756.5552	217
756.559	144
756.5629	55
756.5668	114
756.5707	35
756.5746	25
756.5784	10
756.5823	35
756.5862	24
756.5901	17
756.5978	5
756.7181	5
756.7842	5
757.351	5
757.4946	13
757.4985	8
757.5102	9
757.5141	8
757.5219	13
757.5257	8
757.5296	13
757.5568	13
761.6089	8
