Mass spectrum: PG 32:2; LC-ESI-QTOF; MS2
Name: PG 32:2
Class: PG
Formula: C38H71O10P
Exact mass: 718.952
SMILES: CCCCCC\C=C/CCCCCCCC(=O)OCC(COP(O)(=O)OCC(O)CO)OC(=O)CCCCCCC\C=C/CCCCCC
InChI: InChI=1S/C38H71O10P/c1-3-5-7-9-11-13-15-17-19-21-23-25-27-29-37(41)45-33-36(34-47-49(43,44)46-32-35(40)31-39)48-38(42)30-28-26-24-22-20-18-16-14-12-10-8-6-4-2/h13-16,35-36,39-40H,3-12,17-34H2,1-2H3,(H,43,44)/b15-13-,16-14-
Instrument: AB Sciex TripleTOF 5600+ system (Q-TOF) equipped with a DuoSpray ion source
Instrument type: LC-ESI-QTOF
Ms type: MS2
Ion mode: NEGATIVE
Collision energy: 45V
Column name: Acquity UPLC Peptide BEH C18 column (50*2.1 mm; 1.7 um; 130A)(Waters Co.,Milford, MA, USA)
Retention time: 8.000359
Precursor type: [M-H]-
Precursor m/z: 717.4675
m/z	relative intensity
152.995	57
171.006	21
223.093	21
227.032	17
227.2	193
246.997	7
249.063	9
251.2	14
253.216	999
255.229	28
279.232	547
283.265	12
328.97	10
329.022	5
331.265	4
363.188	10
364.247	4
389.216	25
407.216	5
410.975	14
437.216	7
455.234	24
460.306	4
463.246	42
473.158	12
481.25	33
481.269	26
487.034	5
489.258	11
507.266	7
618.469	7
627.521	14
647.841	4
657.515	14
659.459	7
699.526	4
715.204	9
717.434	201
717.461	580
717.482	422
717.5	137
717.567	12
718.455	4
