Mass spectrum: PI(18:1/8,9-EpETE); LC-ESI-QTOF; MS2
Name: PI(18:1/8,9-EpETE)
Class: Oxidized Phospholipid
Formula: C47H79O14P
Exact mass: 899.111
SMILES: CCCCCCCC\C=C/CCCCCCCC(=O)OCC(COP(O)(=O)OC1C(O)C(O)C(O)C(O)C1O)OC(=O)CCC\C=C/CC1OC1C\C=C/C\C=C/C\C=C/CC
InChI: InChI=1S/C47H79O14P/c1-3-5-7-9-11-13-14-15-16-17-18-20-22-24-29-33-40(48)57-35-37(36-58-62(55,56)61-47-45(53)43(51)42(50)44(52)46(47)54)59-41(49)34-30-26-25-28-32-39-38(60-39)31-27-23-21-19-12-10-8-6-4-2/h6,8,12,15-16,19,23,25,27-28,37-39,42-47,50-54H,3-5,7,9-11,13-14,17-18,20-22,24,26,29-36H2,1-2H3,(H,55,56)/b8-6-,16-15-,19-12-,27-23-,28-25-
Instrument: Acquity UPLC Peptide BEH C18 column (50 x 2.1 mm; 1.7 um), Sciex TripleTOF5600
Instrument type: LC-ESI-QTOF
Ms type: MS2
Ion mode: NEGATIVE
Collision energy: 30-50
Precursor m/z: 897.5134677
Precursor type: [M-H]-
m/z	relative intensity
73.56748	2
73.57109	2
78.95202	2
78.95451	2
78.95825	4
78.96199	2
95.08053	4
95.08737	2
123.0718	2
123.0734	2
127.0746	2
127.0762	2
127.0778	2
127.0794	4
139.0733	2
139.075	2
149.1263	2
149.1281	2
149.1298	4
152.9875	4
152.9893	9
152.991	2
152.9927	6
152.9945	7
152.9962	7
152.998	12
152.9997	7
155.0624	2
155.0641	2
155.0659	4
155.0676	2
155.0694	4
155.0711	2
155.0763	2
167.0625	4
167.0643	4
167.0661	2
167.0716	4
167.0734	2
177.1201	2
177.1294	2
189.1229	2
189.1287	2
189.1345	2
190.1311	2
190.133	2
190.1369	2
201.155	2
201.157	2
201.161	4
201.167	2
219.1674	2
219.1695	2
219.1715	2
219.1798	2
222.9794	2
222.9899	2
222.9919	2
222.994	6
222.9961	7
222.9982	9
223.0003	4
223.0024	7
223.0045	2
223.0066	4
223.0087	2
223.0108	4
223.0129	2
240.9884	2
240.9949	2
240.9971	6
240.9993	6
241.0014	4
241.0036	22
241.0058	18
241.008	28
241.0101	29
241.0123	14
241.0145	15
241.0167	19
241.0188	15
241.021	7
241.0232	2
241.0254	4
241.0276	2
241.0319	2
253.1834	2
253.1991	2
253.2058	2
253.2102	4
253.2147	2
253.2169	2
253.2191	4
253.2214	2
253.2303	2
255.2049	4
255.2071	2
255.2094	4
255.2116	2
255.2139	2
259.0145	6
259.0168	6
259.019	7
259.0213	2
259.0258	2
259.0303	2
259.0326	2
273.2099	2
273.2215	2
273.2238	2
281.2264	4
281.2311	4
281.2334	4
281.2358	10
281.2381	24
281.2405	18
281.2428	21
281.2452	18
281.2476	18
281.2499	16
281.2523	13
281.2546	9
281.257	7
281.2593	2
281.2617	4
281.264	4
281.2687	2
281.2734	2
289.2109	4
297.0195	2
297.0219	2
297.0267	4
297.0291	4
297.034	2
297.0388	6
297.0412	4
297.0461	4
297.0509	2
297.0533	2
299.1916	6
299.194	2
299.1965	6
299.1989	2
299.2013	4
299.2037	4
299.211	2
299.2134	2
312.8221	2
312.8593	2
315.0413	2
315.0437	4
315.0462	4
315.0487	2
315.0587	2
317.1933	2
317.1958	2
317.1983	6
317.2008	10
317.2032	10
317.2057	16
317.2083	20
317.2108	29
317.2133	12
317.2158	12
317.2182	12
317.2207	9
317.2232	7
317.2282	4
317.2307	6
317.2332	2
317.2357	2
318.9567	2
318.9968	2
320.9838	2
321.0165	2
337.2902	2
337.3031	2
384.7224	2
384.7252	2
417.2123	4
417.2151	2
417.218	7
417.2209	6
417.2238	2
417.2266	10
417.2295	27
417.2324	16
417.2352	21
417.2381	27
417.2409	11
417.2438	13
417.2467	14
417.2495	11
417.2524	6
417.2553	7
417.2581	4
417.261	2
435.2361	2
435.2419	2
435.2448	2
435.2478	2
435.2507	2
435.2536	2
435.2595	2
435.2624	2
435.2653	4
435.2682	2
453.1841	2
453.187	2
453.19	2
453.193	6
453.196	6
453.199	6
453.2019	9
453.2049	4
453.2228	4
481.9552	2
481.9676	2
494.2784	2
494.2846	2
494.6432	2
494.6557	2
494.6588	2
496.4854	2
496.5009	2
496.5166	2
497.0355	2
497.0386	2
497.5422	2
497.5453	2
497.5484	2
498.55	2
498.5563	2
503.3372	2
503.3434	2
503.3623	2
503.3655	2
503.655	2
503.6802	4
505.2805	2
505.3309	2
505.9428	2
505.9491	2
506.4729	4
507.85	2
507.9101	2
510.2296	2
510.2486	2
519.1292	2
519.1388	2
519.1484	2
521.9996	2
522.0027	2
523.6479	2
523.6511	2
532.7636	2
532.7733	2
539.9876	2
540.0039	2
550.9708	2
550.9839	2
555.1531	2
555.163	2
579.2518	2
579.2585	2
579.2619	4
579.2653	4
579.2686	7
579.272	10
579.2754	13
579.2787	14
579.2821	17
579.2855	30
579.2889	14
579.2922	16
579.2957	21
579.299	11
579.3024	15
579.3058	11
579.3091	11
579.3125	14
579.3159	4
579.3193	2
579.326	2
580.329	2
580.3899	2
584.4516	2
584.4584	2
597.2666	2
597.27	2
597.2769	2
597.2838	4
597.2872	2
597.2906	2
597.2941	7
597.2975	7
597.3009	10
597.3043	13
597.3077	7
597.3112	10
597.3146	4
597.3181	6
599.325	2
599.3284	2
599.3353	2
615.2094	2
615.2303	4
615.2338	2
615.2372	2
615.2477	4
615.2512	6
615.2546	6
615.2581	6
615.2616	7
615.2651	4
615.2686	4
615.272	2
615.2755	2
615.279	2
633.2484	2
633.2695	2
666.8229	2
666.8627	2
668.2034	4
668.2143	2
708.4324	2
708.4436	2
708.4473	2
734.4396	2
734.4548	4
734.4738	2
735.4434	2
735.4814	2
823.5002	2
823.5042	2
823.5244	2
894.6387	6
894.6428	4
894.6512	2
894.6555	2
894.6596	2
894.6638	6
894.668	4
894.6722	6
894.6764	4
894.6806	7
894.6848	2
894.6932	2
894.7016	2
894.7142	2
894.7267	2
894.7897	2
894.924	2
894.9617	2
896.3846	2
896.4141	2
896.4771	2
896.582	4
896.603	2
896.7038	2
896.7164	2
897.1658	2
897.212	2
897.3381	2
897.3591	2
897.3759	2
897.3885	2
897.4053	2
897.4095	2
897.4431	2
897.4473	2
897.4515	5
897.4557	10
897.46	7
897.4641	14
897.4683	14
897.4725	16
897.4767	62
897.481	84
897.4852	117
897.4894	262
897.4935	369
897.4977	466
897.502	645
897.5062	917
897.5104	999
897.5146	885
897.5187	660
897.5229	706
897.5272	502
897.5314	354
897.5356	210
897.5398	122
897.544	89
897.5482	71
897.5524	39
897.5566	25
897.5608	15
897.565	11
897.5692	11
897.5734	9
897.5776	10
897.5818	2
897.586	7
897.5902	2
897.5986	2
897.607	2
897.628	2
897.6995	2
897.7457	4
897.8466	2
897.876	2
898.25	2
898.3005	2
898.3803	2
898.4056	2
898.4686	2
898.5148	2
898.519	2
898.5233	2
898.5275	2
898.5443	2
898.5569	2
898.6284	2
898.9648	2
899.0363	2
899.4989	2
899.5662	2
900.1552	2
900.2015	2
900.3151	2
900.3362	2
901.0307	2
901.0643	2
901.1359	2
901.2033	2
901.296	2
901.317	2
901.3422	2
901.3506	2
901.8939	2
901.9192	2
901.9782	2
901.9951	2
903.7524	2
903.8325	2
904.5663	2
904.5916	2
906.1784	2
906.2544	2
906.6682	2
906.7104	2
911.3281	2
911.3959	2
911.4213	2
998.1387	2
998.1698	2
