Mass spectrum: PI(18:1/11,12-EpETE); LC-ESI-QTOF; MS2
Name: PI(18:1/11,12-EpETE)
Class: Oxidized Phospholipid
Formula: C47H79O14P
Exact mass: 899.111
SMILES: CCCCCCCC\C=C/CCCCCCCC(=O)OCC(COP(O)(=O)OC1C(O)C(O)C(O)C(O)C1O)OC(=O)CCC\C=C/C\C=C/CC1OC1C\C=C/C\C=C/CC
InChI: InChI=1S/C47H79O14P/c1-3-5-7-9-11-12-13-14-15-16-17-18-21-25-29-33-40(48)57-35-37(36-58-62(55,56)61-47-45(53)43(51)42(50)44(52)46(47)54)59-41(49)34-30-26-22-19-20-24-28-32-39-38(60-39)31-27-23-10-8-6-4-2/h6,8,14-15,19,22-24,27-28,37-39,42-47,50-54H,3-5,7,9-13,16-18,20-21,25-26,29-36H2,1-2H3,(H,55,56)/b8-6-,15-14-,22-19-,27-23-,28-24-
Instrument: Acquity UPLC Peptide BEH C18 column (50 x 2.1 mm; 1.7 um), Sciex TripleTOF5600
Instrument type: LC-ESI-QTOF
Ms type: MS2
Ion mode: NEGATIVE
Collision energy: 30-50
Precursor m/z: 897.5134677
Precursor type: [M-H]-
m/z	relative intensity
78.95676	2
78.95802	4
78.95927	7
78.96052	8
78.96178	2
78.96303	3
78.96428	4
78.96554	3
78.96679	2
78.96805	2
96.96723	3
96.96862	3
96.97001	4
109.1043	2
121.0999	2
121.1014	2
121.103	2
134.9851	2
135.0835	2
135.1163	2
135.1229	2
141.0165	2
148.035	2
149.0927	2
149.0944	2
149.0978	2
149.1013	2
151.11	2
152.9855	3
152.9873	2
152.989	4
152.9908	7
152.9925	8
152.9943	9
152.996	12
152.9978	11
152.9995	12
153.0012	6
153.003	6
153.0047	2
153.01	2
163.111	2
167.0941	2
167.0959	5
167.0977	8
167.0995	5
167.1014	7
167.1032	10
167.105	12
167.1068	22
167.1087	18
167.1105	19
167.1123	10
167.1141	5
167.116	6
167.1196	3
167.1214	2
167.1232	3
171.0015	3
179.0954	2
179.0992	3
179.1011	4
179.1029	7
179.1048	4
179.1067	14
179.1086	5
179.1105	7
179.1124	5
179.1143	4
195.095	2
195.0969	4
195.1009	4
195.1028	3
195.1048	3
195.1068	3
195.1087	4
201.1642	2
201.1682	2
201.1722	2
207.0948	2
207.0968	2
207.1009	3
207.1049	2
207.107	2
208.097	2
208.1052	2
208.1072	4
208.1092	4
208.1113	6
208.1133	2
208.1153	6
208.1174	3
222.9846	2
222.9867	2
222.9888	8
222.9909	5
222.9931	12
222.9952	9
222.9973	12
222.9994	11
223.0015	18
223.0036	16
223.0057	12
223.0078	8
223.0099	9
223.012	5
223.0141	5
223.0162	4
223.0204	2
240.986	2
240.9904	3
240.9926	5
240.9948	9
240.9969	12
240.9991	34
241.0013	40
241.0035	61
241.0057	52
241.0079	88
241.0101	86
241.0123	85
241.0145	87
241.0167	76
241.0188	52
241.021	46
241.0232	30
241.0254	22
241.0276	11
241.0298	10
241.032	5
241.0342	6
241.0364	4
241.0386	2
241.0408	2
255.1945	2
255.1968	2
255.199	2
255.2013	3
255.2036	2
255.2058	6
255.2081	6
255.2103	8
255.2126	2
255.2148	5
255.2171	6
255.2193	6
255.2216	2
255.2238	2
259.0089	2
259.0112	4
259.0135	4
259.0157	5
259.018	6
259.0203	11
259.0226	7
259.0248	9
259.0271	6
259.0294	7
259.0316	4
259.0339	3
259.0362	2
259.0385	2
273.2137	2
273.2161	2
273.2207	2
273.2277	2
273.2347	2
280.3827	2
281.1937	2
281.215	2
281.2173	4
281.2197	2
281.2244	9
281.2268	6
281.2292	19
281.2315	34
281.2339	44
281.2363	53
281.2386	80
281.241	94
281.2434	104
281.2457	112
281.2481	122
281.2505	111
281.2528	100
281.2552	92
281.2576	72
281.2599	48
281.2623	40
281.2647	30
281.267	18
281.2694	7
281.2718	8
281.2741	8
281.2789	3
281.2812	2
282.2452	2
282.2499	3
282.257	2
290.1002	2
297.0214	2
297.0238	5
297.0262	6
297.0287	3
297.0311	13
297.0335	14
297.036	6
297.0384	11
297.0409	12
297.0433	8
297.0457	11
297.0481	10
297.0506	6
297.053	2
297.0555	2
299.1871	2
299.1895	2
299.1944	8
299.1969	5
299.1993	6
299.2018	9
299.2042	6
299.2066	8
299.2091	4
299.2115	3
299.214	2
315.028	2
315.0305	2
315.0331	2
315.0356	4
315.0381	5
315.0406	6
315.0431	6
315.0456	5
315.0481	6
315.0506	3
315.0531	6
315.0556	6
315.0581	2
315.0606	7
315.0631	2
315.0681	2
317.188	5
317.1905	2
317.193	4
317.1955	6
317.198	13
317.2005	15
317.203	20
317.2055	26
317.208	23
317.2106	25
317.2131	34
317.2156	27
317.2181	28
317.2206	20
317.2231	23
317.2256	10
317.2281	5
317.2307	6
317.2332	3
317.2357	2
317.2382	3
335.2133	2
335.2159	3
335.2262	2
335.2339	2
335.2365	2
335.2417	2
349.2292	2
417.1978	2
417.2036	3
417.2065	6
417.2094	2
417.2122	5
417.2151	6
417.218	10
417.2209	21
417.2238	17
417.2266	18
417.2295	29
417.2324	43
417.2353	42
417.2382	41
417.241	46
417.2439	43
417.2468	47
417.2497	38
417.2526	35
417.2555	33
417.2583	15
417.2612	16
417.2641	7
417.267	12
417.2699	6
417.2727	2
417.2756	4
417.2785	2
417.2871	3
417.2929	2
418.2533	2
435.2249	2
435.2367	4
435.2426	2
435.2455	3
435.2484	2
435.2514	6
435.2543	10
435.2573	2
435.2602	2
435.2632	2
435.2661	3
435.269	2
435.272	2
435.2779	2
435.2808	2
435.2838	2
453.1736	2
453.1796	3
453.1856	4
453.1886	7
453.1916	3
453.1946	2
453.1976	10
453.2006	10
453.2036	13
453.2066	9
453.2096	8
453.2126	10
453.2156	7
453.2186	2
453.2216	6
453.2246	2
453.2276	2
453.2307	2
486.041	2
486.3024	2
490.0309	2
579.2367	2
579.2401	2
579.2469	5
579.2537	8
579.2571	6
579.2604	7
579.2639	16
579.2673	20
579.2706	17
579.274	32
579.2774	28
579.2808	38
579.2842	47
579.2876	50
579.291	50
579.2944	61
579.2978	44
579.3012	52
579.3046	50
579.308	53
579.3114	35
579.3148	43
579.3182	28
579.3216	20
579.325	20
579.3284	9
579.3318	8
579.3351	4
579.3386	5
579.342	2
579.3453	2
579.3488	2
579.3555	2
580.2797	2
580.3	3
580.3102	2
597.2606	2
597.264	2
597.2709	2
597.2744	7
597.2778	2
597.2813	6
597.2847	8
597.2881	11
597.2916	12
597.295	14
597.2985	15
597.3019	16
597.3054	20
597.3088	18
597.3123	16
597.3157	7
597.3192	13
597.3226	16
597.326	9
597.3295	9
597.3329	4
597.3364	5
597.3398	3
597.3467	2
597.3502	2
597.3571	2
598.3472	2
613.8464	2
615.207	2
615.2105	2
615.2141	3
615.2175	3
615.221	2
615.228	2
615.2315	3
615.235	3
615.2385	6
615.242	10
615.2455	10
615.249	10
615.2525	13
615.256	12
615.2595	12
615.263	9
615.2665	8
615.27	6
615.2735	13
615.277	7
615.2805	6
615.284	6
615.2875	3
615.291	2
615.2945	3
615.298	3
615.3015	2
615.326	2
633.2132	2
633.2416	2
633.2452	2
633.2523	2
633.2558	2
633.2629	3
633.2736	2
633.2771	2
633.2878	2
633.2949	2
735.4349	2
735.4426	2
735.4579	2
735.4617	3
735.4694	2
735.4732	2
735.4771	3
735.4809	2
735.4924	3
753.4515	2
753.4631	2
753.4669	2
753.4708	2
753.4824	2
753.4902	2
753.4941	2
753.4979	3
753.5173	2
779.5214	2
824.4979	2
824.5101	2
824.5142	3
824.5182	3
824.5222	4
824.5263	2
824.5303	3
824.5344	6
824.5385	6
824.5425	3
824.5466	7
824.5506	3
824.5546	7
824.5587	6
824.5627	5
824.5668	5
824.5709	3
824.5749	4
824.579	5
824.5992	2
824.6114	2
824.6195	2
824.6438	2
838.5306	2
838.551	2
838.5551	2
838.5592	2
838.5715	2
838.5756	2
838.5797	3
838.5837	2
838.6042	2
838.6123	2
838.6164	2
894.5959	2
894.6339	2
894.6423	2
894.6465	2
894.6507	4
894.655	2
894.6592	5
894.6634	2
894.6676	3
894.6718	2
894.676	3
894.6802	4
894.6845	7
894.6887	4
894.6929	6
894.6971	2
894.7014	4
894.7056	6
894.7098	3
894.7141	4
894.7183	4
894.7225	3
894.7267	4
894.7309	3
894.7351	2
894.7436	3
894.752	2
894.7731	2
896.1622	2
896.2889	2
897.3199	2
897.3622	2
897.3665	2
897.3918	2
897.396	2
897.4045	2
897.4129	4
897.4172	6
897.4214	7
897.4256	3
897.4298	6
897.4383	2
897.4467	2
897.451	2
897.4594	43
897.4636	130
897.4679	172
897.4721	206
897.4763	289
897.4805	308
897.4848	400
897.489	533
897.4932	622
897.4975	673
897.5017	767
897.5059	838
897.5101	872
897.5143	938
897.5186	999
897.5228	943
897.527	944
897.5313	912
897.5355	868
897.5397	831
897.5439	676
897.5482	642
897.5524	458
897.5566	394
897.5609	329
897.5651	248
897.5693	176
897.5735	129
897.5778	99
897.582	71
897.5862	46
897.5905	45
897.5947	39
897.5989	16
897.6031	12
897.6074	11
897.6116	15
897.6158	7
897.6201	5
897.6243	4
897.6285	8
897.6328	2
897.6539	4
897.9329	2
897.9498	2
897.9667	2
897.9794	2
898.2585	2
898.2754	2
898.3177	2
898.3685	2
898.4107	2
898.4234	2
898.4488	4
898.453	2
898.4573	3
898.4615	5
898.4657	6
898.4699	7
898.4742	2
898.4784	5
898.4826	7
898.4869	12
898.4911	16
898.4953	12
898.4996	19
898.5038	20
898.508	19
898.5123	24
898.5165	27
898.5207	28
898.5249	20
898.5292	28
898.5334	26
898.5376	19
898.5419	25
898.5461	15
898.5503	17
898.5545	20
898.5588	20
898.563	8
898.5672	9
898.5715	2
898.5757	4
898.5799	2
898.5842	5
898.5884	3
898.5926	2
898.6053	2
898.6222	2
898.673	2
899.1044	2
899.7307	2
899.8873	2
901.166	2
