Mass spectrum: PC(16:1e/17-HDoHE); LC-ESI-QTOF; MS2
Name: PC(16:1e/17-HDoHE)
Class: Oxidized Phospholipid
Formula: C46H80NO8P
Exact mass: 806.121
SMILES: CCCCCCCCCCCCCC\C=C/OCC(COP([O-])(=O)OCC[N+](C)(C)C)OC(=O)CC\C=C/C\C=C/C\C=C/C\C=C/C=C\C(O)C\C=C/CC
InChI: InChI=1S/C46H80NO8P/c1-6-8-10-11-12-13-14-15-19-22-25-28-31-35-40-52-42-45(43-54-56(50,51)53-41-39-47(3,4)5)55-46(49)38-34-30-27-24-21-18-16-17-20-23-26-29-33-37-44(48)36-32-9-7-2/h9,17-18,20-21,26-27,29-30,32-33,35,37,40,44-45,48H,6-8,10-16,19,22-25,28,31,34,36,38-39,41-43H2,1-5H3/b20-17-,21-18-,29-26-,30-27-,32-9-,37-33-,40-35-
Instrument: Acquity UPLC Peptide BEH C18 column (50 x 2.1 mm; 1.7 um), Sciex TripleTOF5600
Instrument type: LC-ESI-QTOF
Ms type: MS2
Ion mode: NEGATIVE
Collision energy: 30-50
Precursor m/z: 864.576008
Precursor type: [M+CH3COOH-H]-
m/z	relative intensity
117.0131	22
117.0253	22
119.0871	22
119.0886	22
201.1507	22
201.1586	43
201.1606	65
201.1646	22
201.1666	43
201.1726	22
201.1805	22
229.1533	22
229.1618	43
245.1402	43
245.1446	22
245.1468	22
245.149	22
245.1534	65
245.1556	22
245.1578	22
245.1688	22
274.1513	43
281.2164	22
281.2188	43
281.2211	65
281.2234	86
281.2258	22
281.2305	22
281.2328	65
281.2352	43
299.2371	22
299.2468	22
305.2474	22
305.2499	22
305.2572	22
325.2033	22
325.2058	22
325.2083	22
325.2109	22
325.2134	43
325.2159	22
325.2184	22
325.221	43
325.226	22
325.2336	22
343.206	43
343.2086	65
343.2112	22
343.2138	22
343.2164	108
343.219	86
343.2216	122
343.2242	142
343.2268	111
343.2294	119
343.232	158
343.2346	43
343.2372	86
343.2398	43
343.2424	43
343.245	22
343.2476	22
357.2344	22
357.2423	22
375.2159	43
375.2241	22
436.9162	22
436.9191	22
444.1134	22
444.1311	22
446.2914	43
446.2944	43
446.3063	22
446.3092	86
446.3152	22
464.2792	22
464.2853	22
464.2944	22
464.2974	22
464.3004	126
464.3065	126
464.3095	86
464.3125	86
464.3155	86
464.3185	86
464.3216	65
464.3246	22
464.3276	22
464.3306	22
464.3336	22
464.3367	22
464.3397	22
466.3062	22
466.3274	22
466.3335	22
677.3727	22
677.3873	22
719.4481	22
719.4556	43
719.4594	22
719.4706	22
719.4781	22
719.4819	22
728.4672	22
728.4709	22
746.4823	22
746.5014	22
746.5206	22
761.049	22
761.0566	22
763.4768	22
763.4923	22
777.4604	22
777.4839	22
782.5056	22
782.5173	22
782.5291	22
782.5448	22
782.5526	22
782.5684	22
788.0039	22
788.0118	22
788.0354	22
788.0433	22
790.4665	22
790.4862	43
790.4902	22
790.4941	63
790.498	106
790.502	106
790.5059	313
790.5099	262
790.5139	278
790.5178	223
790.5217	632
790.5256	455
790.5296	562
790.5336	623
790.5375	999
790.5414	521
790.5454	794
790.5493	668
790.5533	395
790.5572	498
790.5612	300
790.5651	289
790.569	234
790.573	156
790.5769	140
790.5809	63
790.5848	84
790.5887	43
790.6006	43
790.6203	22
792.5381	22
792.5578	22
796.5151	22
796.5389	22
802.5431	43
804.527	22
804.5309	22
804.5349	43
804.5389	22
804.5429	22
804.5469	43
804.5508	22
804.5548	22
804.5588	22
804.5627	22
805.486	43
805.494	22
805.4979	22
805.5019	22
805.5059	22
805.5099	22
805.5218	22
805.5298	22
805.5338	22
864.4601	22
864.4931	22
864.4973	43
864.5013	22
864.5178	65
864.522	22
864.5261	22
864.5302	22
864.5344	65
864.5385	43
864.5467	43
864.5508	86
864.5549	43
864.5591	43
864.5632	43
864.5673	22
864.5715	108
864.5756	43
864.5797	122
864.5838	86
864.588	86
864.5921	86
864.5962	65
864.6003	22
864.6044	22
864.6086	22
864.6127	43
864.6168	22
