Mass spectrum: PC(14:0/12-HEPE); LC-ESI-QTOF; MS2
Name: PC(14:0/12-HEPE)
Class: Oxidized Phospholipid
Formula: C42H74NO9P
Exact mass: 768.028
SMILES: CCCCCCCCCCCCCC(=O)OCC(COP([O-])(=O)OCC[N+](C)(C)C)OC(=O)CCC\C=C/C\C=C/C=C/C(O)C\C=C/C\C=C/CC
InChI: InChI=1S/C42H74NO9P/c1-6-8-10-12-14-15-16-17-21-25-29-33-41(45)49-37-40(38-51-53(47,48)50-36-35-43(3,4)5)52-42(46)34-30-26-22-19-18-20-24-28-32-39(44)31-27-23-13-11-9-7-2/h9,11,19-20,22-24,27-28,32,39-40,44H,6-8,10,12-18,21,25-26,29-31,33-38H2,1-5H3/b11-9-,22-19-,24-20-,27-23-,32-28+
Instrument: Acquity UPLC Peptide BEH C18 column (50 x 2.1 mm; 1.7 um), Sciex TripleTOF5600
Instrument type: LC-ESI-QTOF
Ms type: MS2
Ion mode: NEGATIVE
Collision energy: 30-50
Precursor m/z: 826.5239725
Precursor type: [M+CH3COOH-H]-
m/z	relative intensity
179.0995	37
181.0934	37
208.1076	37
224.0672	37
227.1827	56
227.1869	56
227.189	92
227.1912	207
227.1933	396
227.1954	659
227.1976	511
227.1997	451
227.2018	640
227.2039	681
227.2061	451
227.2082	396
227.2103	244
227.2124	152
227.2146	115
227.2167	152
227.2209	56
227.2231	37
253.2041	37
253.2063	37
253.2086	56
253.2108	74
253.2131	92
253.2153	189
253.2198	92
253.222	92
253.2265	37
255.2017	37
291.1831	37
291.188	74
291.1904	56
291.1952	92
291.1976	133
291.2	56
291.2024	56
291.2048	56
291.2072	37
291.2096	37
317.1884	37
317.1985	92
317.201	74
317.2036	56
317.2061	56
317.2086	56
317.2111	37
317.2136	92
317.2161	56
317.2211	74
317.2237	56
317.2262	74
317.2287	56
452.2916	37
478.2993	37
478.3055	37
542.2721	37
542.2787	37
542.2886	37
542.2919	37
542.2984	37
542.3017	115
681.3865	37
681.4012	37
681.416	37
681.4196	37
681.4233	56
681.4343	74
744.5287	37
750.1796	37
752.415	37
752.4227	37
752.4266	56
752.4343	115
752.4382	78
752.4421	248
752.4459	344
752.4498	207
752.4537	363
752.4575	440
752.4614	440
752.4653	555
752.4691	574
752.473	999
752.4769	903
752.4808	751
752.4846	618
752.4885	810
752.4924	788
752.4962	788
752.5001	673
752.504	696
752.5079	673
752.5117	522
752.5156	692
752.5195	551
752.5233	344
752.5272	226
752.5311	115
752.5349	170
752.5388	226
752.5427	115
752.5466	152
752.5504	56
752.5737	37
753.4758	56
753.499	37
753.5106	37
826.4855	37
826.4937	92
826.4977	37
826.5059	37
826.5099	92
826.5139	37
826.518	37
826.522	92
826.5302	92
826.5342	37
826.5424	74
826.5464	92
826.5545	37
826.5626	37
826.5667	37
826.7006	37
