Mass spectrum: PE(18:2e/12-HEPE); LC-ESI-QTOF; MS2
Name: PE(18:2e/12-HEPE)
Class: Oxidized Phospholipid
Formula: C43H74NO8P
Exact mass: 764.04
SMILES: CCCCCCCCCCCCC\C=C/C\C=C/OCC(COP(O)(=O)OCCN)OC(=O)CCC\C=C/C\C=C/C=C/C(O)C\C=C/C\C=C/CC
InChI: InChI=1S/C43H74NO8P/c1-3-5-7-9-11-12-13-14-15-16-17-18-21-24-28-32-37-49-39-42(40-51-53(47,48)50-38-36-44)52-43(46)35-31-27-23-20-19-22-26-30-34-41(45)33-29-25-10-8-6-4-2/h6,8,20-26,29-30,32,34,37,41-42,45H,3-5,7,9-19,27-28,31,33,35-36,38-40,44H2,1-2H3,(H,47,48)/b8-6-,23-20-,24-21-,26-22-,29-25-,34-30+,37-32-
Instrument: Acquity UPLC Peptide BEH C18 column (50 x 2.1 mm; 1.7 um), Sciex TripleTOF5600
Instrument type: LC-ESI-QTOF
Ms type: MS2
Ion mode: NEGATIVE
Collision energy: 30-50
Precursor m/z: 762.5079288
Precursor type: [M-H]-
m/z	relative intensity
78.96327	44
109.0988	44
135.1199	69
163.1132	44
179.0958	69
179.0977	91
179.0996	91
179.1015	44
179.1034	69
179.1053	113
179.1071	91
179.109	69
179.1109	158
179.1128	91
179.1166	44
179.1185	44
196.0327	69
196.0366	69
196.0386	44
196.0445	44
207.1054	44
208.0955	44
208.0995	44
208.1016	44
208.1077	136
208.1097	44
208.1138	91
255.1996	44
255.2041	69
255.2064	158
255.2086	69
255.2109	136
255.2176	69
255.2221	44
255.2334	44
265.2481	69
272.2287	44
281.2463	44
281.2534	44
282.2552	69
283.2375	44
299.1926	44
299.195	44
299.1975	113
299.2	69
299.2048	91
299.2072	69
299.2097	44
317.1836	44
317.1886	91
317.1911	69
317.1936	91
317.1961	69
317.1986	205
317.2012	296
317.2037	385
317.2062	523
317.2087	385
317.2112	612
317.2137	523
317.2162	363
317.2188	271
317.2213	318
317.2238	227
317.2263	136
317.2288	113
317.2313	136
317.2338	44
317.2389	44
327.2331	44
444.2707	44
444.2737	44
444.2826	69
444.2856	44
444.2886	44
444.2915	91
444.2975	44
444.3183	44
462.2696	69
462.2757	136
462.2787	91
462.2817	113
462.2848	182
462.2878	91
462.2909	205
462.2939	340
462.2969	271
462.3	158
462.303	249
462.306	227
462.3091	227
462.3121	69
462.3151	113
462.3181	69
462.3212	91
462.3333	44
688.5654	44
761.8377	47
762.4415	91
762.4454	69
762.4492	47
762.4531	44
762.4609	69
762.4648	69
762.4688	207
762.4726	258
762.4765	211
762.4804	427
762.4843	421
762.4882	400
762.4921	398
762.496	550
762.4999	903
762.5038	685
762.5077	923
762.5116	570
762.5155	926
762.5193	999
762.5233	663
762.5272	616
762.5311	494
762.535	734
762.5389	378
762.5427	378
762.5466	307
762.5505	283
762.5544	169
762.5583	118
762.5623	71
762.5661	44
762.57	44
762.5739	69
