Mass spectrum: Cer[NS] d40:2; LC-ESI-QTOF; MS2
Name: Cer[NS] d40:2
Class: Cer_NS
Formula: C40H77NO3
Exact mass: 620.0599999999998
SMILES: CCCCCCCCCCCCCCCCCCCCCC(=O)NC(CO)C(O)\C=C\CC\C=C\CCCCCCCCC
InChI: InChI=1S/C40H77NO3/c1-3-5-7-9-11-13-15-17-18-19-20-21-22-24-26-28-30-32-34-36-40(44)41-38(37-42)39(43)35-33-31-29-27-25-23-16-14-12-10-8-6-4-2/h25,27,33,35,38-39,42-43H,3-24,26,28-32,34,36-37H2,1-2H3,(H,41,44)/b27-25+,35-33+
Instrument: AB Sciex TripleTOF 5600+ system (Q-TOF) equipped with a DuoSpray ion source
Instrument type: LC-ESI-QTOF
Ms type: MS2
Ion mode: NEGATIVE
Collision energy: 45V
Column name: Acquity UPLC Peptide BEH C18 column (50*2.1 mm; 1.7 um; 130A)(Waters Co.,Milford, MA, USA)
Retention time: 12.56107
Precursor type: [M+CH3COOH-H]-
Precursor m/z: 678.6006
m/z	relative intensity
183.877	0
235.206	86
237.222	3
248.24	3
249.217	0
260.405	0
261.218	59
264.233	12
266.246	11
279.232	3
296.257	6
319.309	2
321.312	127
337.332	4
337.344	7
337.356	4
338.264	1
338.338	100
338.377	1
339.322	62
339.346	4
352.353	2
362.321	1
362.341	2
363.213	2
364.356	475
378.331	5
379.152	1
380.339	15
380.353	53
382.362	3
382.379	1
411.012	1
505.433	0
543.547	1
559.536	1
570.521	5
570.553	57
570.593	5
582.561	1
586.531	38
586.555	60
588.536	16
588.567	120
588.641	1
590.575	2
600.53	1
600.554	2
600.572	3
616.581	1
616.63	3
618.499	2
618.578	999
618.651	2
618.702	1
619.582	1
645.603	1
678.601	2
