Mass spectrum: PC(16:1/15-HEPE); LC-ESI-QTOF; MS2
Name: PC(16:1/15-HEPE)
Class: Oxidized Phospholipid
Formula: C44H76NO9P
Exact mass: 794.066
SMILES: CCCCCC\C=C/CCCCCCCC(=O)OCC(COP([O-])(=O)OCC[N+](C)(C)C)OC(=O)CCC\C=C/C\C=C/C\C=C/CC(O)\C=C\C=C/CC
InChI: InChI=1S/C44H76NO9P/c1-6-8-10-12-13-14-15-16-17-21-24-27-31-35-43(47)51-39-42(40-53-55(49,50)52-38-37-45(3,4)5)54-44(48)36-32-28-25-22-19-18-20-23-26-30-34-41(46)33-29-11-9-7-2/h9,11,14-15,18,20,22,25-26,29-30,33,41-42,46H,6-8,10,12-13,16-17,19,21,23-24,27-28,31-32,34-40H2,1-5H3/b11-9-,15-14-,20-18-,25-22-,30-26-,33-29+
Instrument: Acquity UPLC Peptide BEH C18 column (50 x 2.1 mm; 1.7 um), Sciex TripleTOF5600
Instrument type: LC-ESI-QTOF
Ms type: MS2
Ion mode: NEGATIVE
Collision energy: 30-50
Precursor m/z: 852.5396225
Precursor type: [M+CH3COOH-H]-
m/z	relative intensity
78.96315	7
111.0824	22
163.0788	7
163.1527	7
168.0331	12
168.0368	12
168.0404	7
168.0423	15
168.0441	22
168.0459	15
168.0477	7
168.0532	15
175.1429	7
175.1448	15
175.1467	22
175.1485	22
175.1504	15
175.1523	12
175.1541	12
175.1579	7
175.1597	15
201.1584	7
201.1604	7
201.1624	12
201.1644	12
201.1664	15
201.1745	7
201.1825	7
203.1405	12
203.1425	12
203.1525	12
203.1545	7
205.1221	7
219.125	15
219.1271	34
219.1292	34
219.1313	34
219.1334	54
219.1355	61
219.1375	57
219.1396	46
219.1417	57
219.1438	54
219.1459	22
219.148	27
219.1501	15
219.1522	22
219.1543	7
220.1496	7
221.1452	7
221.1536	7
221.1578	7
224.0608	7
224.0629	19
224.065	15
224.0671	30
224.0692	7
224.0714	7
224.0735	15
224.0777	15
242.0762	7
247.1273	7
247.1295	12
247.1317	7
247.1339	19
247.1362	7
247.1406	7
247.1428	19
247.1472	7
247.1561	7
248.1331	12
248.1353	12
248.1375	19
248.1398	30
248.142	30
248.1442	22
248.1464	19
248.1487	7
248.1509	12
248.1553	7
252.4345	7
253.1906	7
253.1928	12
253.195	12
253.1973	15
253.1995	27
253.2018	61
253.204	118
253.2063	214
253.2085	148
253.2108	278
253.213	297
253.2152	324
253.2175	411
253.2197	297
253.222	248
253.2242	199
253.2265	199
253.2287	145
253.231	88
253.2332	61
253.2354	49
253.2377	19
253.2399	7
253.2422	12
253.2444	7
253.2467	7
254.2131	7
254.4156	7
255.1972	19
255.2017	46
255.2039	84
255.2062	37
255.2084	49
255.2107	91
255.2129	72
255.2152	54
255.2174	34
255.2197	42
255.222	34
255.2242	30
255.2265	15
255.2287	12
255.231	22
255.2355	7
255.2377	12
273.2095	7
273.2211	15
273.2258	7
273.2328	7
283.2587	7
299.1826	12
299.1875	30
299.19	42
299.1924	69
299.1949	69
299.1973	72
299.1997	96
299.2022	103
299.2046	54
299.2071	57
299.2095	61
299.2119	34
299.2144	42
299.2168	34
299.2193	15
299.2217	12
299.2242	15
299.229	12
317.1834	7
317.1859	19
317.1884	37
317.1909	30
317.1934	88
317.196	61
317.1985	106
317.201	160
317.2035	236
317.206	172
317.2085	255
317.211	312
317.2135	190
317.2161	270
317.2186	221
317.2211	167
317.2236	122
317.2261	103
317.2286	84
317.2311	27
317.2336	34
317.2361	12
317.2387	12
317.2437	12
317.2563	7
318.212	7
318.217	7
318.222	7
318.2271	12
331.2318	7
331.2344	7
389.2021	7
389.216	12
389.2216	7
453.2013	7
453.2043	7
460.2754	12
460.2784	7
460.2815	7
460.2845	7
460.2875	19
460.2906	7
460.2936	30
460.3027	19
478.2592	7
478.2653	15
478.2684	15
478.2715	15
478.2746	37
478.2777	30
478.2808	30
478.2838	72
478.2869	46
478.29	88
478.2931	84
478.2962	72
478.2993	64
478.3024	69
478.3055	49
478.3085	57
478.3116	37
478.3147	46
478.3178	12
478.3209	12
478.324	15
478.3301	12
478.3487	7
479.3243	7
524.2674	7
524.2706	12
524.2803	7
524.2835	7
524.2932	7
524.2964	7
524.3029	7
542.2655	12
542.2786	7
542.2819	7
542.2885	12
542.295	7
542.2983	7
542.3016	7
542.3049	15
542.3181	7
626.3766	12
626.3907	15
626.3943	7
627.4152	7
665.379	7
666.4131	7
702.9907	7
707.397	7
707.4008	7
707.4045	7
707.4083	15
707.412	7
707.4158	15
707.4195	30
707.4233	15
707.427	19
707.4308	27
707.4345	27
707.4383	15
707.442	15
707.4458	7
707.4495	27
707.4533	12
707.457	22
707.4608	7
707.472	7
707.4796	7
708.4106	7
708.4219	15
708.4257	7
708.4332	12
708.4407	7
708.4594	7
709.4287	7
709.4437	7
710.7221	7
723.4626	7
733.4515	7
733.4591	7
733.4705	12
734.4491	7
776.0439	15
776.0557	12
776.0675	7
776.1265	15
777.5068	7
778.4041	7
778.4198	12
778.4277	15
778.4316	15
778.4355	39
778.4395	39
778.4434	119
778.4474	73
778.4513	125
778.4553	134
778.4592	136
778.4631	188
778.467	215
778.471	382
778.4749	375
778.4789	475
778.4828	512
778.4868	633
778.4907	699
778.4946	739
778.4985	995
778.5025	815
778.5064	995
778.5104	999
778.5143	915
778.5182	947
778.5222	844
778.5261	918
778.53	596
778.534	533
778.5379	444
778.5419	363
778.5458	305
778.5497	231
778.5536	161
778.5576	99
778.5615	113
778.5655	87
778.5694	43
778.5734	40
778.5773	22
778.5812	16
778.5851	12
778.597	7
778.6166	7
778.6403	7
779.4673	7
779.4713	7
779.4752	12
779.4791	19
779.4831	12
779.491	15
779.4988	15
779.5027	19
779.5067	30
779.5106	12
779.5146	27
779.5185	15
779.5225	34
779.5264	27
779.5303	19
779.5382	22
779.5461	12
779.55	7
779.5815	7
784.9802	7
792.4734	7
792.4814	7
792.4854	7
792.4933	15
792.5052	12
792.5092	15
792.5132	12
792.5172	12
792.5211	7
792.5251	12
792.5291	7
792.533	12
792.537	15
792.5449	7
792.5489	7
792.5529	7
792.5609	12
792.5728	7
793.4469	15
793.4667	12
793.4707	15
793.4787	7
793.4827	7
793.4866	15
793.4906	12
793.5065	7
849.8753	7
852.4357	7
852.4728	7
852.4769	12
852.4852	7
852.4893	15
852.4934	12
852.4976	12
852.5016	15
852.5058	22
852.5099	34
852.514	22
852.5181	61
852.5223	30
852.5264	46
852.5305	72
852.5346	27
852.5388	61
852.5428	69
852.547	72
852.5511	76
852.5552	96
852.5593	54
852.5635	57
852.5676	54
852.5717	49
852.5758	42
852.58	27
852.584	19
852.5882	30
852.5923	12
852.5964	7
852.6005	7
852.6047	12
852.9796	7
852.9837	12
