Mass spectrum: SM d40:1; LC-ESI-QTOF; MS2
Name: SM d40:1
Class: SM
Formula: C45H91N2O6P
Exact mass: 787.207
SMILES: CCCCCCCCCCCCCCCCCCCCCC(=O)NC(COP([O-])(=O)OCC[N+](C)(C)C)C(O)\C=C\CCCCCCCCCCCCC
InChI: InChI=1S/C45H91N2O6P/c1-6-8-10-12-14-16-18-20-21-22-23-24-25-27-29-31-33-35-37-39-45(49)46-43(42-53-54(50,51)52-41-40-47(3,4)5)44(48)38-36-34-32-30-28-26-19-17-15-13-11-9-7-2/h36,38,43-44,48H,6-35,37,39-42H2,1-5H3,(H-,46,49,50,51)/b38-36+
Instrument: AB Sciex TripleTOF 5600+ system (Q-TOF) equipped with a DuoSpray ion source
Instrument type: LC-ESI-QTOF
Ms type: MS2
Ion mode: NEGATIVE
Collision energy: 45V
Column name: Acquity UPLC Peptide BEH C18 column (50*2.1 mm; 1.7 um; 130A)(Waters Co.,Milford, MA, USA)
Retention time: 12.21681
Precursor type: [M+CH3COOH-H]-
Precursor m/z: 845.6727
m/z	relative intensity
122.983	1
168.042	43
355.324	1
356.321	2
425.544	1
439.397	1
449.305	1
618.597	3
619.583	5
637.591	3
655.603	1
700.545	4
726.549	1
769.18	4
770.681	2
771.629	999
771.698	4
772.621	1
786.592	6
798.63	2
799.628	6
799.665	6
845.602	3
845.661	22
845.701	5
