Mass spectrum: PG 38:6; LC-ESI-QTOF; MS2
Name: PG 38:6
Class: PG
Formula: C44H75O10P
Exact mass: 795.05
SMILES: CCCCC\C=C/C\C=C/CCCCCCCC(=O)OCC(COP(O)(=O)OCC(O)CO)OC(=O)CCCCCC\C=C/C\C=C/C\C=C/C\C=C/CC
InChI: InChI=1S/C44H75O10P/c1-3-5-7-9-11-13-15-17-19-20-22-24-26-28-30-32-34-36-44(48)54-42(40-53-55(49,50)52-38-41(46)37-45)39-51-43(47)35-33-31-29-27-25-23-21-18-16-14-12-10-8-6-4-2/h5,7,11-14,17-19,21-22,24,41-42,45-46H,3-4,6,8-10,15-16,20,23,25-40H2,1-2H3,(H,49,50)/b7-5-,13-11-,14-12-,19-17-,21-18-,24-22-
Instrument: AB Sciex TripleTOF 5600+ system (Q-TOF) equipped with a DuoSpray ion source
Instrument type: LC-ESI-QTOF
Ms type: MS2
Ion mode: NEGATIVE
Collision energy: 45V
Column name: Acquity UPLC Peptide BEH C18 column (50*2.1 mm; 1.7 um; 130A)(Waters Co.,Milford, MA, USA)
Retention time: 7.95359
Precursor type: [M-H]-
Precursor m/z: 793.5032
m/z	relative intensity
78.958	1
150.976	0
152.994	15
171.007	0
177.092	1
179.183	0
191.108	0
205.194	11
227.034	1
231.215	2
253.212	2
253.228	2
257.216	0
257.236	1
259.232	9
259.244	37
261.223	1
267.209	0
277.214	0
278.357	3
278.372	1
279.232	999
280.228	2
281.248	8
283.259	1
285.22	2
301.216	5
301.229	2
302.278	1
302.295	2
303.232	757
304.235	2
329.252	3
415.223	2
415.239	2
433.236	2
436.279	1
437.287	1
439.224	14
457.24	2
489.227	0
489.256	7
489.283	2
507.27	12
513.241	2
513.255	6
513.271	7
513.295	1
531.254	3
531.274	7
551.106	0
557.671	0
719.532	1
790.945	0
791.009	4
792.565	1
793.299	1
793.369	0
793.428	5
793.503	984
793.586	4
793.613	1
793.917	0
794.304	0
794.502	2
794.533	1
