Mass spectrum: PE 42:4; LC-ESI-QTOF; MS2
Name: PE 42:4
Class: PE
Formula: C47H86NO8P
Exact mass: 824.1799999999998
SMILES: CCCCCCCCCCCCCCCCCC(=O)OCC(COP(O)(=O)OCCN)OC(=O)CCCCCCCCCC\C=C/C\C=C/C\C=C/C\C=C/CC
InChI: InChI=1S/C47H86NO8P/c1-3-5-7-9-11-13-15-17-19-20-21-22-23-24-26-28-30-32-34-36-38-40-47(50)56-45(44-55-57(51,52)54-42-41-48)43-53-46(49)39-37-35-33-31-29-27-25-18-16-14-12-10-8-6-4-2/h5,7,11,13,17,19,21-22,45H,3-4,6,8-10,12,14-16,18,20,23-44,48H2,1-2H3,(H,51,52)/b7-5-,13-11-,19-17-,22-21-
Instrument: AB Sciex TripleTOF 5600+ system (Q-TOF) equipped with a DuoSpray ion source
Instrument type: LC-ESI-QTOF
Ms type: MS2
Ion mode: NEGATIVE
Collision energy: 45V
Column name: Acquity UPLC Peptide BEH C18 column (50*2.1 mm; 1.7 um; 130A)(Waters Co.,Milford, MA, USA)
Retention time: 12.32646
Precursor type: [M-H]-
Precursor m/z: 822.6027
m/z	relative intensity
140.011	11
158.975	2
196.038	11
246.982	4
248.81	2
254.663	2
279.758	2
283.262	322
284.262	2
286.975	5
314.959	2
315.307	8
328.987	4
331.265	7
341.289	3
357.277	2
358.165	4
359.293	999
359.338	6
368.963	3
383.018	4
406.267	2
462.306	5
480.297	26
480.318	23
513.299	2
538.323	9
556.34	5
615.059	2
629.523	2
630.505	4
719.588	9
740.575	4
762.642	4
772.642	2
772.695	2
822.51	6
822.534	22
822.574	350
822.611	666
822.653	47
823.639	2
