Mass spectrum: PC 34:3; LC-ESI-QTOF; MS2
Name: PC 34:3
Class: PC
Formula: C42H78NO8P
Exact mass: 756.0609999999999
SMILES: CCCCCC\C=C/CCCCCCCC(=O)OCC(COP([O-])(=O)OCC[N+](C)(C)C)OC(=O)CCCCCCC\C=C/C\C=C/CCCCC
InChI: InChI=1S/C42H78NO8P/c1-6-8-10-12-14-16-18-20-21-23-25-27-29-31-33-35-42(45)51-40(39-50-52(46,47)49-37-36-43(3,4)5)38-48-41(44)34-32-30-28-26-24-22-19-17-15-13-11-9-7-2/h14,16-17,19-21,40H,6-13,15,18,22-39H2,1-5H3/b16-14-,19-17-,21-20-
Instrument: AB Sciex TripleTOF 5600+ system (Q-TOF) equipped with a DuoSpray ion source
Instrument type: LC-ESI-QTOF
Ms type: MS2
Ion mode: NEGATIVE
Collision energy: 45V
Column name: Acquity UPLC Peptide BEH C18 column (50*2.1 mm; 1.7 um; 130A)(Waters Co.,Milford, MA, USA)
Retention time: 8.864018
Precursor type: [M+CH3COOH-H]-
Precursor m/z: 814.5577
m/z	relative intensity
168.04	26
176.651	17
253.215	392
255.232	26
279.231	991
279.254	53
281.246	26
283.246	61
305.243	20
327.233	52
415.219	17
466.246	17
478.291	97
504.294	34
504.317	70
740.517	999
814.524	133
814.553	97
814.596	34
