Mass spectrum: PG 34:3; LC-ESI-QTOF; MS2
Name: PG 34:3
Class: PG
Formula: C40H73O10P
Exact mass: 744.9899999999999
SMILES: CCCCCC\C=C/CCCCCCCC(=O)OCC(COP(O)(=O)OCC(O)CO)OC(=O)CCCCCCC\C=C/C\C=C/CCCCC
InChI: InChI=1S/C40H73O10P/c1-3-5-7-9-11-13-15-17-18-20-22-24-26-28-30-32-40(44)50-38(36-49-51(45,46)48-34-37(42)33-41)35-47-39(43)31-29-27-25-23-21-19-16-14-12-10-8-6-4-2/h11,13-14,16-18,37-38,41-42H,3-10,12,15,19-36H2,1-2H3,(H,45,46)/b13-11-,16-14-,18-17-
Instrument: AB Sciex TripleTOF 5600+ system (Q-TOF) equipped with a DuoSpray ion source
Instrument type: LC-ESI-QTOF
Ms type: MS2
Ion mode: NEGATIVE
Collision energy: 45V
Column name: Acquity UPLC Peptide BEH C18 column (50*2.1 mm; 1.7 um; 130A)(Waters Co.,Milford, MA, USA)
Retention time: 8.143406
Precursor type: [M-H]-
Precursor m/z: 743.483
m/z	relative intensity
152.996	25
171.007	21
209.019	5
227.031	14
227.203	3
251.203	4
253.217	371
261.222	2
277.203	2
278.36	12
279.231	974
281.244	9
283.268	2
297.245	3
339.318	4
368.98	1
389.203	27
407.233	1
415.213	6
437.276	1
463.236	14
463.257	13
465.245	2
481.231	5
481.258	36
489.264	13
507.268	8
669.434	1
741.058	1
741.163	2
743.438	104
743.479	999
743.755	1
744.494	2
