Mass spectrum: PI(16:0/18-HEPE); LC-ESI-QTOF; MS2
Name: PI(16:0/18-HEPE)
Class: Oxidized Phospholipid
Formula: C45H77O14P
Exact mass: 873.073
SMILES: CCCCCCCCCCCCCCCC(=O)OCC(COP(O)(=O)OC1C(O)C(O)C(O)C(O)C1O)OC(=O)CCC\C=C/C\C=C/C\C=C/C\C=C/C=C/C(O)CC
InChI: InChI=1S/C45H77O14P/c1-3-5-6-7-8-9-10-13-17-20-23-26-29-32-38(47)56-34-37(35-57-60(54,55)59-45-43(52)41(50)40(49)42(51)44(45)53)58-39(48)33-30-27-24-21-18-15-12-11-14-16-19-22-25-28-31-36(46)4-2/h12,14-16,21-22,24-25,28,31,36-37,40-46,49-53H,3-11,13,17-20,23,26-27,29-30,32-35H2,1-2H3,(H,54,55)/b15-12-,16-14-,24-21-,25-22-,31-28+
Instrument: Acquity UPLC Peptide BEH C18 column (50 x 2.1 mm; 1.7 um), Sciex TripleTOF5600
Instrument type: LC-ESI-QTOF
Ms type: MS2
Ion mode: NEGATIVE
Collision energy: 30-50
Precursor m/z: 871.4978177
Precursor type: [M-H]-
m/z	relative intensity
78.96052	9
78.96177	6
78.96428	6
78.96553	12
152.9839	6
152.9944	12
152.9961	9
152.9996	6
153.0014	6
153.0118	6
201.1644	6
215.1641	6
215.1724	6
215.1745	12
215.1766	12
215.1786	27
215.1807	30
215.1828	9
215.1848	18
215.1869	12
215.189	6
222.9849	6
222.9933	6
222.9954	6
222.9975	9
222.9996	9
223.0017	18
223.006	9
223.0081	6
223.0102	9
223.0144	6
229.1604	6
233.1548	6
239.1717	6
240.2618	6
240.2881	6
240.9907	9
240.9929	6
240.9951	10
240.9972	18
240.9994	43
241.0016	46
241.0038	65
241.006	72
241.0082	88
241.0104	100
241.0126	84
241.0148	66
241.017	109
241.0191	56
241.0213	52
241.0235	43
241.0257	18
241.0279	12
241.0301	6
241.0323	6
241.0345	6
245.1505	6
255.1971	9
255.2039	37
255.2061	18
255.2084	31
255.2106	37
255.2129	49
255.2151	55
255.2174	43
255.2197	61
255.2219	46
255.2242	43
255.2264	72
255.2287	50
255.2309	74
255.2332	86
255.2354	127
255.2377	74
255.2399	37
255.2422	43
255.2444	13
255.2467	24
255.2535	9
255.2602	6
259.0138	12
259.0206	12
259.0251	15
259.1523	6
259.1591	9
259.1614	12
259.1637	15
259.166	18
259.1682	12
259.1705	24
259.1728	27
259.175	18
259.1773	15
259.1796	12
259.1819	12
259.1841	6
259.1909	9
273.2118	9
273.2188	9
273.2234	6
273.2258	6
273.2281	12
297.0218	6
297.0315	6
297.034	6
297.0364	18
297.0388	6
297.0413	15
297.0437	15
297.0461	12
297.0534	12
299.1851	6
299.1875	15
299.19	33
299.1924	18
299.1949	27
299.1973	43
299.1997	36
299.2022	21
299.2046	40
299.2071	36
299.2095	18
299.2119	12
299.2144	9
299.2193	9
299.2656	6
315.036	6
315.0385	21
315.0435	6
315.046	12
315.0485	9
315.061	6
316.907	6
317.1884	9
317.1935	28
317.196	31
317.1985	31
317.201	52
317.2035	74
317.206	86
317.2085	77
317.211	89
317.2135	71
317.2161	61
317.2186	71
317.2211	61
317.2236	49
317.2261	31
317.2286	12
317.2311	9
317.2336	6
317.2361	9
317.2412	6
317.2462	6
391.2033	15
391.2061	6
391.2089	9
391.2117	12
391.2145	43
391.2173	33
391.2201	15
391.2229	40
391.2257	33
391.2285	30
391.2313	21
391.234	18
391.2368	21
391.2396	24
391.2424	12
391.2452	12
391.248	6
391.2536	6
409.2422	6
453.1833	9
453.1863	6
453.1924	12
453.1954	15
453.1984	12
453.2014	18
453.2044	9
453.2074	12
453.2104	15
453.2134	6
453.2194	15
453.2224	6
453.2344	6
553.2224	6
553.239	12
553.2422	6
553.2555	15
553.2589	15
553.2621	21
553.2655	21
553.2688	15
553.2721	27
553.2755	40
553.2787	27
553.282	43
553.2854	27
553.2887	30
553.2921	24
553.2953	18
553.2986	30
553.302	18
553.3053	6
553.3086	12
571.2479	6
571.2547	6
571.2648	12
571.2682	15
571.2715	6
571.2783	6
571.2817	12
571.285	27
571.2884	18
571.2918	18
571.2952	12
571.2985	24
571.3019	21
571.3053	21
571.3087	12
571.312	9
571.3188	6
571.3221	6
571.3255	6
615.2327	6
615.2361	18
615.2397	6
615.2466	15
615.2502	12
615.2537	12
615.2571	12
615.2607	12
615.2642	12
615.2676	9
615.2712	6
615.2747	21
615.2781	9
615.2991	6
633.2676	6
709.4403	6
797.6698	6
868.7611	9
868.7736	6
868.7778	9
868.7819	6
868.7985	6
868.811	6
868.8235	7
870.3255	6
871.2915	6
871.3956	15
871.4039	6
871.4081	12
871.4373	4
871.4415	35
871.4456	25
871.4498	108
871.454	204
871.4581	170
871.4623	215
871.4664	299
871.4706	403
871.4748	503
871.4789	507
871.4831	657
871.4872	787
871.4915	906
871.4956	845
871.4998	925
871.5039	978
871.5081	999
871.5123	965
871.5164	988
871.5206	908
871.5248	860
871.5289	719
871.5331	605
871.5372	358
871.5414	310
871.5456	237
871.5497	174
871.5539	155
871.5581	92
871.5623	83
871.5664	51
871.5706	30
871.5748	29
871.5789	31
871.5831	4
871.5872	13
871.5914	4
871.5997	4
871.6039	4
871.6164	7
871.6331	4
871.9413	6
872.0289	4
872.4539	12
872.4581	6
872.4622	9
872.4664	6
872.4706	9
872.4747	6
872.4789	27
872.483	18
872.4872	18
872.4914	21
872.4955	18
872.4998	43
872.5039	6
872.5081	30
872.5123	33
872.5164	18
872.5206	9
872.5247	6
872.5289	24
872.5331	12
872.5372	9
872.5414	12
872.5456	12
872.5497	9
872.5706	6
872.5914	6
873.7338	6
884.3594	6
