Mass spectrum: PI(16:0/8,9-EpETE); LC-ESI-QTOF; MS2
Name: PI(16:0/8,9-EpETE)
Class: Oxidized Phospholipid
Formula: C45H77O14P
Exact mass: 873.073
SMILES: CCCCCCCCCCCCCCCC(=O)OCC(COP(O)(=O)OC1C(O)C(O)C(O)C(O)C1O)OC(=O)CCC\C=C/CC1OC1C\C=C/C\C=C/C\C=C/CC
InChI: InChI=1S/C45H77O14P/c1-3-5-7-9-11-13-14-15-16-18-20-22-27-31-38(46)55-33-35(34-56-60(53,54)59-45-43(51)41(49)40(48)42(50)44(45)52)57-39(47)32-28-24-23-26-30-37-36(58-37)29-25-21-19-17-12-10-8-6-4-2/h6,8,12,17,21,23,25-26,35-37,40-45,48-52H,3-5,7,9-11,13-16,18-20,22,24,27-34H2,1-2H3,(H,53,54)/b8-6-,17-12-,25-21-,26-23-
Instrument: Acquity UPLC Peptide BEH C18 column (50 x 2.1 mm; 1.7 um), Sciex TripleTOF5600
Instrument type: LC-ESI-QTOF
Ms type: MS2
Ion mode: NEGATIVE
Collision energy: 30-50
Precursor m/z: 871.4978177
Precursor type: [M-H]-
m/z	relative intensity
78.9534	4
78.95465	1
78.9559	1
78.95714	3
78.95839	4
78.96088	6
78.96587	1
83.46255	1
83.46383	1
96.67649	1
96.68063	1
96.96768	1
96.97044	3
101.8179	1
101.8349	1
123.0752	1
123.0798	1
123.0814	3
127.0685	1
127.0733	1
127.0748	3
127.0764	1
127.078	1
127.0812	1
127.0843	1
148.668	1
148.6919	1
148.7039	1
149.1249	1
149.1283	3
149.1335	4
149.1352	1
149.1369	1
149.1386	1
152.9826	1
152.9843	1
152.9878	4
152.9895	8
152.9913	8
152.993	9
152.9948	12
152.9965	7
152.9982	6
153	7
153.0017	6
153.0034	7
155.0626	3
155.0661	1
155.0679	4
155.0696	1
155.0714	1
155.0731	1
155.0749	4
155.0766	3
161.0932	1
161.0985	1
161.1234	1
161.1252	3
161.1288	1
161.1305	1
161.1323	3
161.1341	3
161.1359	1
163.1432	1
163.1522	1
167.0592	1
167.0646	1
167.0664	3
167.0682	4
167.0701	3
177.1223	1
177.1279	3
177.1316	1
177.1335	1
178.45	1
178.4519	3
188.809	1
188.8109	1
190.1217	1
190.1295	1
190.1314	1
190.143	1
219.1657	1
219.1719	1
222.9902	6
222.9923	6
222.9944	3
222.9965	13
222.9986	3
223.0007	9
223.0028	15
223.0049	6
223.0091	6
223.0112	1
223.0133	1
223.0175	1
223.0238	1
229.1987	3
229.2008	1
229.2327	1
236.3067	3
240.991	1
240.9931	3
240.9953	1
240.9975	3
240.9997	12
241.0019	16
241.004	17
241.0062	25
241.0084	41
241.0106	38
241.0127	26
241.0149	23
241.0171	14
241.0193	17
241.0215	11
241.0236	9
241.0258	3
241.0302	1
253.2107	1
253.2151	1
253.2196	1
255.2009	1
255.2031	3
255.2053	3
255.2076	6
255.2098	4
255.2121	8
255.2143	8
255.2166	4
255.2188	9
255.221	7
255.2233	10
255.2255	17
255.2278	24
255.23	23
255.2322	27
255.2345	34
255.2367	16
255.239	12
255.2412	6
255.2434	3
255.2502	6
255.2546	1
255.2658	1
259.0104	1
259.0127	1
259.015	1
259.0172	4
259.0195	4
259.0217	1
259.024	3
259.0262	4
259.0285	1
259.0308	1
261.1909	1
261.1955	1
273.171	1
273.1802	1
273.2127	1
273.2243	1
273.2336	3
289.2162	1
289.2186	1
297.0128	1
297.0224	1
297.0297	4
297.0321	8
297.0345	8
297.0369	7
297.0393	6
297.0417	4
297.0442	3
297.0466	1
297.049	1
299.1849	1
299.1873	3
299.1897	1
299.1921	1
299.1994	3
299.2018	4
299.2043	4
299.2067	4
299.2091	3
299.2115	1
299.214	1
300.1269	3
315.0368	3
315.0393	1
315.0443	4
315.0468	1
315.0493	1
315.0518	6
315.0592	1
317.1938	3
317.1963	7
317.1988	9
317.2013	9
317.2038	12
317.2063	28
317.2088	23
317.2113	24
317.2138	23
317.2163	15
317.2188	14
317.2213	8
317.2238	11
317.2263	6
317.2288	1
317.2338	3
317.2388	1
317.2438	1
389.2203	3
391.1956	1
391.2012	1
391.2068	1
391.2095	1
391.2123	1
391.2151	1
391.2179	3
391.2206	3
391.2234	3
391.2289	4
391.2317	1
391.2456	1
417.2274	1
417.2388	1
417.2503	1
417.2531	1
453.1669	1
453.1699	3
453.1759	4
453.1789	4
453.1819	1
453.1848	6
453.1878	10
453.1908	18
453.1938	18
453.1968	28
453.1998	32
453.2028	21
453.2057	22
453.2087	25
453.2117	14
453.2147	17
453.2177	13
453.2207	3
453.2237	7
453.2267	6
453.2326	4
453.2505	1
471.191	1
471.1971	1
471.2001	3
471.2062	7
471.2153	4
471.2184	3
471.2214	3
471.2245	1
471.2275	3
471.2306	1
471.2336	1
471.2367	1
471.2397	1
479.3394	1
479.3763	1
479.6281	1
479.6434	1
479.9537	3
479.9722	1
480.1811	1
480.2272	1
481.9345	1
481.9438	1
481.9684	1
481.9715	1
481.9777	1
482.4058	1
482.4088	1
482.5228	1
485.3274	1
485.3397	1
485.3892	1
489.4858	1
489.492	1
491.4489	1
491.4831	1
493.8958	1
493.9456	1
493.9893	1
494.2543	1
494.2636	1
494.8313	1
494.8376	1
495.5054	1
495.5273	1
496.1675	1
496.1769	1
496.1988	1
496.2206	3
496.4456	1
496.4956	1
496.5112	1
496.5144	1
500.5948	1
501.7754	1
501.7817	1
501.7849	1
506.0257	3
507.2822	1
507.2917	1
511.1307	1
511.1846	1
511.1909	1
511.4193	1
511.4288	1
514.5291	1
514.5609	1
517.2528	1
517.2656	1
517.2687	1
517.5432	1
517.6038	1
518.1431	1
518.1559	1
543.5338	1
543.5829	1
553.1929	1
553.2556	4
553.2589	4
553.2622	1
553.2655	9
553.2688	6
553.2721	8
553.2754	3
553.2787	4
553.282	3
553.2853	4
553.2886	6
553.2919	7
553.3018	3
559.2063	1
559.2097	1
559.2262	1
559.2361	1
559.2395	1
560.2316	3
562.2485	1
562.2551	1
563.8293	3
571.2334	1
571.2401	1
571.2703	4
571.2736	1
571.277	1
571.287	6
571.2904	1
571.2971	1
571.3038	1
571.3138	1
579.2866	1
579.2899	1
589.2467	1
589.2773	1
590.6093	3
605.2256	1
605.2601	1
615.2141	1
615.2175	1
615.2314	6
615.2349	12
615.2383	13
615.2418	16
615.2453	26
615.2488	20
615.2523	28
615.2557	27
615.2592	31
615.2627	22
615.2662	13
615.2697	15
615.2731	9
615.2766	9
615.2801	12
615.2836	7
615.287	4
615.2905	3
615.294	3
615.3044	1
615.3079	1
615.3149	1
615.3358	1
630.9716	1
631.0244	1
631.0632	1
633.2177	1
633.2354	3
633.2424	1
633.2495	1
633.253	3
633.2565	1
633.2601	6
633.2636	6
633.2672	8
633.2707	3
633.2742	6
633.2777	9
633.2813	1
633.2848	1
633.2954	1
633.2989	3
643.4443	1
643.4692	1
690.0278	1
690.0388	1
691.0413	1
691.045	3
709.4233	1
709.4345	3
709.4494	3
709.4569	1
779.4911	1
779.5028	1
779.5224	1
784.472	3
797.5047	1
797.5087	1
797.5522	1
811.5235	1
811.5435	1
824.5283	1
824.5404	1
833.1531	3
868.6837	1
868.6877	1
868.7002	1
868.7043	1
868.7084	4
868.7126	3
868.7208	3
868.725	1
868.7291	1
868.7332	1
868.7374	3
868.7415	1
868.7457	4
868.7498	1
868.7539	1
868.7704	4
868.7746	1
868.7787	1
868.7828	3
868.787	1
868.8077	1
868.8159	1
868.8242	1
868.8408	1
868.8655	1
868.8862	1
869.4858	1
869.4982	1
870.1517	1
870.222	3
870.28	1
870.3669	1
870.4	1
870.4455	4
870.4827	1
870.5407	1
870.5655	1
871.0414	1
871.0539	1
871.2112	1
871.2319	1
871.2402	1
871.2443	1
871.2981	1
871.3064	1
871.3312	1
871.3395	1
871.3519	1
871.3726	3
871.3768	1
871.4141	3
871.4265	3
871.4306	1
871.4348	1
871.4389	1
871.4431	5
871.4471	15
871.4513	24
871.4554	27
871.4596	64
871.4637	52
871.4679	102
871.472	141
871.4761	262
871.4803	369
871.4844	599
871.4886	748
871.4927	941
871.4968	999
871.501	929
871.5051	961
871.5093	728
871.5134	642
871.5176	411
871.5217	296
871.5258	256
871.53	114
871.5341	88
871.5383	84
871.5424	39
871.5466	35
871.5507	20
871.5548	9
871.559	5
871.5631	5
871.5673	4
871.5714	1
871.5755	1
871.5797	1
871.5838	1
871.5963	1
871.6003	1
871.6086	3
871.6625	1
871.679	1
871.7122	1
871.8778	1
871.882	1
871.8985	1
872.0269	1
872.0393	1
872.0435	1
872.0766	1
872.1139	1
872.1263	1
872.1677	1
872.3541	1
872.3914	1
872.4577	1
872.466	1
872.4784	1
872.4908	3
872.4991	3
872.5033	3
872.5074	1
872.5115	1
872.5157	1
872.5198	1
872.524	1
872.5323	1
872.5447	1
872.5488	1
872.553	3
872.8306	1
872.9093	1
872.9135	1
872.9218	1
873.0005	1
873.2119	1
873.2616	1
873.3237	1
873.7424	1
873.7922	1
873.9746	1
873.9911	1
874.0824	1
874.1363	1
874.1902	1
874.7335	1
874.7875	1
875.8207	1
875.8248	1
875.8663	1
875.8705	1
875.9286	1
875.941	1
875.9784	1
876.0697	1
876.0988	1
876.5762	1
876.5845	1
876.6469	1
876.7175	1
876.9459	1
877.0248	1
877.0663	1
877.0746	1
877.0829	1
877.2532	1
877.299	1
877.6563	1
877.6895	1
878.5414	1
878.5789	1
878.687	1
878.7618	1
878.9281	1
878.9988	1
879.1277	1
879.1859	1
879.6601	1
879.7059	1
879.7183	1
880.0345	1
880.0844	1
880.126	1
880.2009	1
881.2623	1
881.2748	1
881.7412	1
881.7662	1
881.8079	1
881.837	1
881.9036	1
881.9703	1
882.0203	1
884.4753	1
884.5087	1
886.3993	1
886.4327	1
888.6138	1
888.6263	1
888.6765	1
888.6849	1
902.3337	1
902.4137	1
1152.843	1
1152.857	1
