Mass spectrum: PC(14:0/11,12-EpETE); LC-ESI-QTOF; MS2
Name: PC(14:0/11,12-EpETE)
Class: Oxidized Phospholipid
Formula: C42H74NO9P
Exact mass: 768.028
SMILES: CCCCCCCCCCCCCC(=O)OCC(COP([O-])(=O)OCC[N+](C)(C)C)OC(=O)CCC\C=C/C\C=C/CC1OC1C\C=C/C\C=C/CC
InChI: InChI=1S/C42H74NO9P/c1-6-8-10-12-14-15-16-17-20-24-28-32-41(44)48-36-38(37-50-53(46,47)49-35-34-43(3,4)5)51-42(45)33-29-25-21-18-19-23-27-31-40-39(52-40)30-26-22-13-11-9-7-2/h9,11,18,21-23,26-27,38-40H,6-8,10,12-17,19-20,24-25,28-37H2,1-5H3/b11-9-,21-18-,26-22-,27-23-
Instrument: Acquity UPLC Peptide BEH C18 column (50 x 2.1 mm; 1.7 um), Sciex TripleTOF5600
Instrument type: LC-ESI-QTOF
Ms type: MS2
Ion mode: NEGATIVE
Collision energy: 30-50
Precursor m/z: 826.5239725
Precursor type: [M+CH3COOH-H]-
m/z	relative intensity
149.0942	33
167.0975	33
167.0994	33
167.1012	80
167.103	66
167.1048	66
167.1067	127
167.1085	146
167.1103	47
167.1121	66
167.1158	33
167.1194	47
168.0437	33
177.0899	33
179.1085	47
179.1104	33
179.1123	47
179.1198	33
195.0949	33
195.1008	33
195.1047	33
207.1049	33
207.1069	47
208.1072	33
208.1092	33
208.1113	47
208.1153	33
227.1866	66
227.1887	113
227.1909	66
227.193	174
227.1951	160
227.1972	287
227.1994	226
227.2015	335
227.2036	146
227.2057	174
227.2079	207
227.21	193
227.2121	146
227.2142	66
227.2164	33
227.2185	33
253.2218	33
255.1992	33
255.2037	33
255.206	47
255.2128	47
255.2173	33
255.2263	47
273.2187	33
299.1973	80
299.1997	66
299.2021	33
299.2046	47
299.207	47
317.1935	80
317.196	80
317.1985	80
317.201	80
317.2035	113
317.206	94
317.2085	146
317.211	226
317.2136	207
317.2161	240
317.2186	174
317.2211	174
317.2236	113
317.2261	94
317.2286	47
317.2311	80
317.2387	33
363.2477	33
434.2639	33
452.2591	47
452.2621	80
452.2651	47
452.2681	94
452.2711	33
452.2741	127
452.2771	113
452.2801	80
452.2831	80
452.2861	127
452.2891	33
452.2921	47
452.2951	66
452.2981	66
452.3101	33
492.3275	33
739.4916	33
750.1311	33
752.4167	33
752.4244	33
752.4283	47
752.4322	33
752.4361	47
752.4399	66
752.4438	94
752.4477	47
752.4515	207
752.4554	254
752.4593	320
752.4631	339
752.467	419
752.4709	594
752.4748	594
752.4786	740
752.4825	594
752.4864	999
752.4902	886
752.4941	872
752.498	966
752.5019	839
752.5057	627
752.5096	660
752.5135	627
752.5173	448
752.5212	386
752.5251	434
752.5289	207
752.5328	335
752.5367	160
752.5406	160
752.5444	66
752.5483	94
752.5522	33
752.556	66
752.5599	47
826.4836	47
826.4877	33
826.4917	33
826.4998	94
826.5039	47
826.5079	66
826.512	33
826.5161	127
826.5201	80
826.5242	127
826.5282	94
826.5323	47
826.5363	80
826.5404	80
826.5444	33
826.5485	94
826.5526	94
826.5566	113
826.5607	47
826.5647	80
826.5688	66
826.5728	80
826.5769	47
826.585	47
826.5972	47
