Mass spectrum: PG 38:5; LC-ESI-QTOF; MS2
Name: PG 38:5
Class: PG
Formula: C44H77O10P
Exact mass: 797.0659999999999
SMILES: CCCCCCCCCCCCCCCC(=O)OCC(COP(O)(=O)OCC(O)CO)OC(=O)CCCCC\C=C/C\C=C/C\C=C/C\C=C/C\C=C/CC
InChI: InChI=1S/C44H77O10P/c1-3-5-7-9-11-13-15-17-18-19-20-21-22-24-26-28-30-32-34-36-44(48)54-42(40-53-55(49,50)52-38-41(46)37-45)39-51-43(47)35-33-31-29-27-25-23-16-14-12-10-8-6-4-2/h5,7,11,13,17-18,20-21,24,26,41-42,45-46H,3-4,6,8-10,12,14-16,19,22-23,25,27-40H2,1-2H3,(H,49,50)/b7-5-,13-11-,18-17-,21-20-,26-24-
Instrument: AB Sciex TripleTOF 5600+ system (Q-TOF) equipped with a DuoSpray ion source
Instrument type: LC-ESI-QTOF
Ms type: MS2
Ion mode: NEGATIVE
Collision energy: 45V
Column name: Acquity UPLC Peptide BEH C18 column (50*2.1 mm; 1.7 um; 130A)(Waters Co.,Milford, MA, USA)
Retention time: 8.398577
Precursor type: [M-H]-
Precursor m/z: 795.516
m/z	relative intensity
78.959	4
96.971	1
152.996	22
171.008	13
205.198	1
209.021	3
227.03	11
231.217	3
243.209	1
245.042	1
251.203	6
254.437	2
255.231	310
259.244	1
281.245	4
283.26	1
285.259	50
301.215	1
303.22	5
303.235	7
303.251	2
311.233	3
327.231	3
328.219	3
329.248	628
330.256	1
391.2	3
391.225	10
391.253	1
409.231	2
433.234	1
465.239	6
465.263	18
483.251	11
483.273	39
522.057	0
539.237	1
539.281	7
557.283	3
721.473	2
763.436	2
763.476	8
763.502	6
763.529	5
792.995	2
793.048	1
795.371	1
795.513	999
795.674	0
795.761	1
795.914	1
796.499	2
796.554	1
