Mass spectrum: PC 36:1; LC-ESI-QTOF; MS2
Name: PC 36:1
Class: PC
Formula: C44H86NO8P
Exact mass: 788.1469999999998
SMILES: CCCCCCCCCCCCCCCCCC(=O)OCC(COP([O-])(=O)OCC[N+](C)(C)C)OC(=O)CCCCCCC\C=C/CCCCCCCC
InChI: InChI=1S/C44H86NO8P/c1-6-8-10-12-14-16-18-20-22-24-26-28-30-32-34-36-43(46)50-40-42(41-52-54(48,49)51-39-38-45(3,4)5)53-44(47)37-35-33-31-29-27-25-23-21-19-17-15-13-11-9-7-2/h21,23,42H,6-20,22,24-41H2,1-5H3/b23-21-
Instrument: AB Sciex TripleTOF 5600+ system (Q-TOF) equipped with a DuoSpray ion source
Instrument type: LC-ESI-QTOF
Ms type: MS2
Ion mode: NEGATIVE
Collision energy: 45V
Column name: Acquity UPLC Peptide BEH C18 column (50*2.1 mm; 1.7 um; 130A)(Waters Co.,Milford, MA, USA)
Retention time: 10.91542
Precursor type: [M+CH3COOH-H]-
Precursor m/z: 846.6244
m/z	relative intensity
78.96	2
152.996	1
168.042	12
206.06	0
224.067	13
242.075	1
253.219	1
255.231	33
255.244	5
280.354	2
280.374	4
281.056	0
281.099	0
281.249	999
281.509	0
282.25	1
282.377	1
282.406	0
283.112	0
283.23	2
283.264	353
303.233	1
309.278	34
417.23	1
419.252	3
432.283	0
434.298	1
437.248	0
476.331	0
477.328	0
480.309	1
488.296	4
488.324	4
490.319	6
490.336	10
506.296	1
506.326	7
506.735	0
508.322	12
508.34	66
516.346	0
534.332	0
534.362	1
567.053	0
567.539	1
608.55	0
701.506	2
727.542	1
750.537	1
759.569	2
770.11	1
770.136	1
770.165	2
770.217	0
771.56	0
772.586	890
773.598	3
773.731	0
787.521	2
787.53	2
787.544	6
787.566	2
787.584	1
787.606	1
800.654	1
843.955	0
846.564	4
846.6	29
846.629	87
