Mass spectrum: PG 36:3; LC-ESI-QTOF; MS2
Name: PG 36:3
Class: PG
Formula: C42H77O10P
Exact mass: 773.044
SMILES: CCCCCCCCCCCCCCCC(=O)OCC(COP(O)(=O)OCC(O)CO)OC(=O)CCCCCCCCC\C=C/C\C=C/C\C=C/CC
InChI: InChI=1S/C42H77O10P/c1-3-5-7-9-11-13-15-17-18-19-20-22-24-26-28-30-32-34-42(46)52-40(38-51-53(47,48)50-36-39(44)35-43)37-49-41(45)33-31-29-27-25-23-21-16-14-12-10-8-6-4-2/h5,7,11,13,17-18,39-40,43-44H,3-4,6,8-10,12,14-16,19-38H2,1-2H3,(H,47,48)/b7-5-,13-11-,18-17-
Instrument: AB Sciex TripleTOF 5600+ system (Q-TOF) equipped with a DuoSpray ion source
Instrument type: LC-ESI-QTOF
Ms type: MS2
Ion mode: NEGATIVE
Collision energy: 45V
Column name: Acquity UPLC Peptide BEH C18 column (50*2.1 mm; 1.7 um; 130A)(Waters Co.,Milford, MA, USA)
Retention time: 8.485966
Precursor type: [M-H]-
Precursor m/z: 771.5146
m/z	relative intensity
246.98	38
253.211	38
255.237	208
256.23	90
257.243	55
279.232	575
281.247	736
281.275	78
293.215	38
303.236	105
304.238	155
305.242	288
307.258	90
391.222	25
415.217	51
437.263	29
507.27	68
738.442	25
739.469	240
739.509	90
753.468	27
771.452	91
771.482	579
771.499	673
771.525	999
771.576	77
