Mass spectrum: PE(18:1/5-HETE); LC-ESI-QTOF; MS2
Name: PE(18:1/5-HETE)
Class: Oxidized Phospholipid
Formula: C43H76NO9P
Exact mass: 782.055
SMILES: CCCCCCCC\C=C/CCCCCCCC(=O)OCC(COP(O)(=O)OCCN)OC(=O)CCCC(O)\C=C\C=C/C\C=C/C\C=C/CCCCC
InChI: InChI=1S/C43H76NO9P/c1-3-5-7-9-11-13-15-17-18-20-22-24-26-28-30-34-42(46)50-38-41(39-52-54(48,49)51-37-36-44)53-43(47)35-31-33-40(45)32-29-27-25-23-21-19-16-14-12-10-8-6-4-2/h12,14,17-19,21,25,27,29,32,40-41,45H,3-11,13,15-16,20,22-24,26,28,30-31,33-39,44H2,1-2H3,(H,48,49)/b14-12-,18-17-,21-19-,27-25-,32-29+
Instrument: Acquity UPLC Peptide BEH C18 column (50 x 2.1 mm; 1.7 um), Sciex TripleTOF5600
Instrument type: LC-ESI-QTOF
Ms type: MS2
Ion mode: NEGATIVE
Collision energy: 30-50
Precursor m/z: 780.5184935
Precursor type: [M-H]-
m/z	relative intensity
115.0335	75
115.035	75
115.0365	150
115.038	75
115.0396	150
115.0411	112
115.0426	57
115.0441	112
115.0456	112
140.0094	37
140.0127	57
152.9871	37
196.0341	37
196.042	57
196.0479	37
203.1663	37
203.1743	57
203.1763	57
203.1804	93
203.1824	93
203.1864	37
214.0477	37
214.0519	37
227.1887	37
227.1908	37
253.2038	37
253.2128	57
253.2195	37
253.224	37
253.2285	37
257.2092	37
257.2137	57
257.216	75
257.2183	37
257.2205	130
257.2228	169
257.225	244
257.2273	244
257.2296	130
257.2318	150
257.2341	93
257.2364	112
257.2386	37
257.259	38
271.2282	75
279.3538	38
280.3806	38
281.2199	77
281.2223	37
281.2271	20
281.2294	229
281.2318	269
281.2342	361
281.2365	346
281.2389	521
281.2412	812
281.2436	427
281.246	579
281.2484	733
281.2507	715
281.2531	735
281.2554	500
281.2578	269
281.2602	326
281.2625	97
281.2649	251
281.2673	57
281.2697	59
281.272	38
281.2744	20
281.2767	37
281.2791	38
283.2015	20
301.1969	37
301.1994	169
301.2018	37
301.2043	112
301.2067	169
301.2092	169
301.2116	224
301.2141	205
301.2165	244
301.219	317
301.2214	299
301.2238	280
301.2263	112
301.2288	75
301.2312	130
301.2336	37
301.2484	57
318.2144	37
319.1993	37
319.2043	37
319.2069	75
319.2094	170
319.2119	93
319.2144	132
319.2169	357
319.2195	339
319.222	357
319.2245	357
319.2271	374
319.2296	319
319.2321	319
319.2346	412
319.2371	130
319.2397	169
319.2422	57
319.2447	37
319.2472	37
319.2497	93
319.2523	37
460.2666	37
478.2657	75
478.2688	93
478.2719	75
478.2749	93
478.278	112
478.2811	112
478.2842	57
478.2873	112
478.2904	112
478.2935	262
478.2965	150
478.2996	169
478.3027	187
478.3058	112
478.3089	37
478.312	75
478.3151	93
478.3181	37
498.2495	37
498.2715	37
516.2672	37
518.2503	37
544.2623	37
687.5373	37
688.4921	37
688.5143	37
688.5181	57
688.5255	37
706.5127	37
780.434	57
780.4537	37
780.4577	75
780.4616	225
780.4656	57
780.4695	75
780.4734	137
780.4774	213
780.4813	348
780.4853	290
780.4892	339
780.4932	434
780.4971	477
780.501	576
780.505	519
780.5089	557
780.5129	678
780.5168	999
780.5208	660
780.5247	940
780.5286	731
780.5326	898
780.5365	775
780.5405	475
780.5444	596
780.5483	455
780.5523	359
780.5562	477
780.5602	319
780.5641	258
780.5681	218
780.572	196
780.5759	117
780.5799	59
780.5838	38
780.5878	57
780.5917	57
780.6154	20
781.5145	37
