Mass spectrum: PE 37:6; LC-ESI-QTOF; MS2
Name: PE 37:6
Class: PE
Formula: C42H72NO8P
Exact mass: 750.0129999999999
SMILES: CCCCCCCCCCCCCCC(=O)OCC(COP(O)(=O)OCCN)OC(=O)CC\C=C/C\C=C/C\C=C/C\C=C/C\C=C/C\C=C/CC
InChI: InChI=1S/C42H72NO8P/c1-3-5-7-9-11-13-15-17-18-19-20-21-22-23-25-27-29-31-33-35-42(45)51-40(39-50-52(46,47)49-37-36-43)38-48-41(44)34-32-30-28-26-24-16-14-12-10-8-6-4-2/h5,7,11,13,17-18,20-21,23,25,29,31,40H,3-4,6,8-10,12,14-16,19,22,24,26-28,30,32-39,43H2,1-2H3,(H,46,47)/b7-5-,13-11-,18-17-,21-20-,25-23-,31-29-
Instrument: AB Sciex TripleTOF 5600+ system (Q-TOF) equipped with a DuoSpray ion source
Instrument type: LC-ESI-QTOF
Ms type: MS2
Ion mode: NEGATIVE
Collision energy: 45V
Column name: Acquity UPLC Peptide BEH C18 column (50*2.1 mm; 1.7 um; 130A)(Waters Co.,Milford, MA, USA)
Retention time: 8.987217
Precursor type: [M-H]-
Precursor m/z: 748.491
m/z	relative intensity
140.011	98
168.046	171
196.038	122
241.215	999
241.231	223
249.186	49
255.219	98
283.222	98
283.243	446
327.215	102
327.232	975
420.241	80
438.26	321
687.511	247
687.555	399
688.546	624
748.477	774
748.522	321
