Mass spectrum: PI 37:4; LC-ESI-QTOF; MS2
Name: PI 37:4
Class: PI
Formula: C46H81O13P
Exact mass: 873.117
SMILES: CCCCCCCCCCCCCCCCC(=O)OCC(COP(O)(=O)OC1C(O)C(O)C(O)C(O)C1O)OC(=O)CCCCCC\C=C/C\C=C/C\C=C/C\C=C/CC
InChI: InChI=1S/C46H81O13P/c1-3-5-7-9-11-13-15-17-19-20-21-23-25-27-29-31-33-35-40(48)58-38(37-57-60(54,55)59-46-44(52)42(50)41(49)43(51)45(46)53)36-56-39(47)34-32-30-28-26-24-22-18-16-14-12-10-8-6-4-2/h5,7,11,13,17,19,21,23,38,41-46,49-53H,3-4,6,8-10,12,14-16,18,20,22,24-37H2,1-2H3,(H,54,55)/b7-5-,13-11-,19-17-,23-21-
Instrument: AB Sciex TripleTOF 5600+ system (Q-TOF) equipped with a DuoSpray ion source
Instrument type: LC-ESI-QTOF
Ms type: MS2
Ion mode: NEGATIVE
Collision energy: 45V
Column name: Acquity UPLC Peptide BEH C18 column (50*2.1 mm; 1.7 um; 130A)(Waters Co.,Milford, MA, USA)
Retention time: 8.491574
Precursor type: [M-H]-
Precursor m/z: 871.5298
m/z	relative intensity
96.97	0
141.016	1
152.994	7
205.202	1
222.999	16
223.021	3
241.01	62
243.022	1
259.023	8
259.243	6
268.417	1
269.248	108
283.267	2
297.022	3
297.039	14
303.231	109
304.233	5
305.241	2
315.046	6
377.242	8
405.233	32
405.253	22
423.253	6
439.226	5
453.294	1
462.294	1
489.728	0
511.251	0
566.312	1
567.258	5
567.285	52
567.312	7
585.284	13
585.314	5
585.342	1
601.25	4
601.272	7
681.468	3
709.476	2
784.468	1
789.516	6
793.488	2
797.528	2
797.631	3
825.511	3
839.461	2
839.536	1
853.504	2
868.734	1
868.775	3
870.573	2
871.516	999
871.556	129
872.526	4
