Mass spectrum: PG 36:4; LC-ESI-QTOF; MS2
Name: PG 36:4
Class: PG
Formula: C42H75O10P
Exact mass: 771.028
SMILES: CCCCCCCCCCCCCCCC(=O)OCC(COP(O)(=O)OCC(O)CO)OC(=O)CCCCCC\C=C/C\C=C/C\C=C/C\C=C/CC
InChI: InChI=1S/C42H75O10P/c1-3-5-7-9-11-13-15-17-18-19-20-22-24-26-28-30-32-34-42(46)52-40(38-51-53(47,48)50-36-39(44)35-43)37-49-41(45)33-31-29-27-25-23-21-16-14-12-10-8-6-4-2/h5,7,11,13,17-18,20,22,39-40,43-44H,3-4,6,8-10,12,14-16,19,21,23-38H2,1-2H3,(H,47,48)/b7-5-,13-11-,18-17-,22-20-
Instrument: AB Sciex TripleTOF 5600+ system (Q-TOF) equipped with a DuoSpray ion source
Instrument type: LC-ESI-QTOF
Ms type: MS2
Ion mode: NEGATIVE
Collision energy: 45V
Column name: Acquity UPLC Peptide BEH C18 column (50*2.1 mm; 1.7 um; 130A)(Waters Co.,Milford, MA, USA)
Retention time: 8.341711
Precursor type: [M-H]-
Precursor m/z: 769.4979
m/z	relative intensity
78.958	6
96.969	0
152.995	34
163.072	1
171.006	16
177.095	2
191.106	1
205.122	1
205.196	19
209.018	3
209.038	0
217.197	0
225.186	0
227.031	17
231.202	1
231.215	2
245.043	2
254.436	2
255.232	467
259.243	78
267.212	0
279.216	1
279.232	6
284.259	0
285.204	0
285.223	6
301.212	1
301.23	0
302.274	2
302.29	2
302.302	0
303.232	999
303.68	0
304.234	0
391.222	19
409.217	0
409.237	1
439.209	1
439.228	4
457.241	0
465.233	3
465.259	27
480.089	0
481.776	0
483.206	0
483.27	74
513.222	1
513.256	8
513.276	4
513.313	0
513.451	1
531.238	0
531.272	4
531.311	0
695.443	1
695.469	1
695.498	0
737.448	0
737.486	1
766.612	0
767.005	0
767.042	1
767.072	1
767.113	0
767.156	0
768.503	0
768.579	0
769.165	0
769.495	600
769.568	0
770.202	0
770.485	1
770.519	1
