Mass spectrum: SM d42:1; LC-ESI-QTOF; MS2
Name: SM d42:1
Class: SM
Formula: C47H95N2O6P
Exact mass: 815.261
SMILES: CCCCCCCCCCCCCCCCCCCCCCCC(=O)NC(COP([O-])(=O)OCC[N+](C)(C)C)C(O)\C=C\CCCCCCCCCCCCC
InChI: InChI=1S/C47H95N2O6P/c1-6-8-10-12-14-16-18-20-21-22-23-24-25-26-27-29-31-33-35-37-39-41-47(51)48-45(44-55-56(52,53)54-43-42-49(3,4)5)46(50)40-38-36-34-32-30-28-19-17-15-13-11-9-7-2/h38,40,45-46,50H,6-37,39,41-44H2,1-5H3,(H-,48,51,52,53)/b40-38+
Instrument: AB Sciex TripleTOF 5600+ system (Q-TOF) equipped with a DuoSpray ion source
Instrument type: LC-ESI-QTOF
Ms type: MS2
Ion mode: NEGATIVE
Collision energy: 45V
Column name: Acquity UPLC Peptide BEH C18 column (50*2.1 mm; 1.7 um; 130A)(Waters Co.,Milford, MA, USA)
Retention time: 13.07366
Precursor type: [M+CH3COOH-H]-
Precursor m/z: 873.7018
m/z	relative intensity
78.958	8
96.97	0
122.986	1
149.046	0
168.043	36
179.055	0
367.362	0
383.356	0
431.313	0
441.359	0
449.301	0
449.324	1
450.116	0
464.021	0
493.224	0
648.622	0
649.638	0
650.604	0
650.641	0
651.608	0
651.658	0
665.64	0
710.598	0
728.553	0
728.609	1
754.606	1
797.099	1
797.134	0
797.156	1
797.211	0
799.494	0
799.663	999
800.095	0
800.657	2
800.699	0
801.253	0
811.674	1
812.684	0
813.641	1
813.668	5
813.692	4
813.737	1
814.572	0
814.622	7
827.678	0
873.643	1
873.7	38
873.789	0
