Mass spectrum: PE(16:1e/8,9-EpETE); LC-ESI-QTOF; MS2
Name: PE(16:1e/8,9-EpETE)
Class: Oxidized Phospholipid
Formula: C41H72NO8P
Exact mass: 738.002
SMILES: CCCCCCCCCCCCCC\C=C/OCC(COP(O)(=O)OCCN)OC(=O)CCC\C=C/CC1OC1C\C=C/C\C=C/C\C=C/CC
InChI: InChI=1S/C41H72NO8P/c1-3-5-7-9-11-13-14-15-16-17-19-21-25-29-34-46-36-38(37-48-51(44,45)47-35-33-42)49-41(43)32-28-24-23-27-31-40-39(50-40)30-26-22-20-18-12-10-8-6-4-2/h6,8,12,18,22-23,26-27,29,34,38-40H,3-5,7,9-11,13-17,19-21,24-25,28,30-33,35-37,42H2,1-2H3,(H,44,45)/b8-6-,18-12-,26-22-,27-23-,34-29-
Instrument: Acquity UPLC Peptide BEH C18 column (50 x 2.1 mm; 1.7 um), Sciex TripleTOF5600
Instrument type: LC-ESI-QTOF
Ms type: MS2
Ion mode: NEGATIVE
Collision energy: 30-50
Precursor m/z: 736.4922788
Precursor type: [M-H]-
m/z	relative intensity
78.95405	7
78.9553	15
78.95656	7
78.95781	52
78.95906	30
78.96032	34
78.96157	45
78.96282	26
78.96408	22
78.96533	22
78.96659	19
78.96784	11
78.97286	7
83.05039	7
95.04815	7
95.08392	19
95.08529	19
95.08667	11
95.08804	19
95.08942	19
95.0908	19
95.09217	11
95.09355	7
95.09768	7
107.0886	7
109.0629	7
109.0644	7
109.0659	11
109.0674	15
109.0688	15
109.0703	11
109.0968	7
109.1027	7
111.0776	7
111.0806	7
111.0821	11
111.0851	7
119.0481	7
121.0594	22
121.0625	11
121.0641	7
121.0656	22
121.0672	15
121.0687	11
121.0703	7
121.0734	7
121.0749	7
121.0967	11
121.0982	11
121.1013	11
121.1044	15
121.106	7
121.1075	11
121.1091	11
121.9989	7
122.0067	7
123.0703	7
123.0735	22
123.075	15
123.0766	22
123.0782	56
123.0797	49
123.0813	60
123.0829	79
123.0844	37
123.086	45
123.0876	11
123.0891	7
123.0907	7
125.0978	7
125.0994	15
125.7267	8
125.9705	8
126.6809	8
127.0671	15
127.0687	11
127.0703	31
127.0719	65
127.0735	113
127.0751	85
127.0767	121
127.0783	120
127.0799	86
127.0815	58
127.0831	43
127.0846	31
127.0862	16
127.0878	4
127.0894	16
127.0974	4
127.1005	4
128.1622	4
131.0858	7
133.0983	15
133.0999	7
133.1015	15
133.1031	7
135.1129	11
135.1146	11
135.1178	11
135.1195	11
135.1211	7
137.004	7
137.0601	7
137.1311	7
139.0711	11
139.0728	26
139.0745	19
139.0761	37
139.0778	15
139.0795	19
139.0811	11
139.0828	15
139.0845	7
139.6458	8
140.0028	26
140.0045	38
140.0062	11
140.0078	65
140.0095	72
140.0112	42
140.0129	49
140.0145	64
140.0162	11
140.0179	7
140.0195	15
140.0212	11
140.078	7
143.3871	7
147.1179	7
149.0599	8
149.1012	8
149.1219	11
149.1236	19
149.1254	23
149.1271	30
149.1288	38
149.1305	53
149.1322	72
149.134	76
149.1357	84
149.1374	62
149.1391	61
149.1409	8
149.1426	15
149.1443	4
149.146	23
149.1512	4
153.0256	8
154.5883	11
154.597	8
155.0588	8
155.0605	23
155.0623	50
155.0641	23
155.0658	73
155.0676	70
155.0693	86
155.0711	113
155.0728	81
155.0746	116
155.0764	62
155.0781	50
155.0799	12
155.0816	19
155.0834	15
155.0851	8
155.0869	8
155.0887	4
155.0939	4
156.9657	4
161.0918	7
161.1241	19
161.1259	19
161.1276	30
161.1294	34
161.1312	37
161.133	45
161.1348	45
161.1366	34
161.1384	41
161.1402	19
161.142	15
161.1438	7
161.1474	11
163.0155	7
163.0191	11
163.0227	7
163.1434	11
163.147	11
163.1507	11
165.1246	7
165.1264	7
166.0197	7
166.0252	15
166.0288	11
166.551	8
166.5565	8
167.0558	15
167.0576	11
167.0594	19
167.0612	30
167.0631	42
167.0649	73
167.0667	100
167.0685	96
167.0704	134
167.0722	111
167.074	145
167.0758	85
167.0777	34
167.0795	42
167.0813	15
167.0831	12
167.0849	4
167.0886	8
167.0904	4
167.0959	4
168.0749	11
168.0768	15
168.0786	11
168.0822	11
168.0859	11
169.0825	7
171.0938	7
171.1049	11
175.152	11
177.1182	11
177.1201	7
177.122	22
177.1239	11
177.1258	15
177.1276	34
177.1295	22
177.1314	11
177.1333	22
177.1351	22
177.137	11
177.1389	7
177.1408	7
179.0331	7
179.0369	7
179.0407	7
179.0444	11
179.1105	7
180.0465	7
183.0942	7
183.0961	15
183.098	7
183.1056	15
183.1075	15
189.1168	7
189.1285	11
189.1304	11
189.1324	7
189.1343	7
190.1233	7
190.1252	11
190.1272	11
190.1291	45
190.131	41
190.133	49
190.1349	34
190.1369	63
190.1388	37
190.1408	11
190.1427	26
190.1447	7
190.1466	15
191.1343	7
191.148	7
191.1519	7
193.1469	7
195.097	11
195.099	7
195.1009	11
196.0125	8
196.0264	26
196.0283	45
196.0303	60
196.0323	68
196.0343	117
196.0362	98
196.0382	113
196.0402	90
196.0421	57
196.0441	49
196.0461	49
196.0481	41
196.0501	19
196.052	15
196.054	11
201.1522	19
201.1543	11
201.1563	22
201.1582	49
201.1602	22
201.1622	49
201.1642	15
201.1662	34
201.1682	34
201.1703	30
201.1723	34
201.1743	15
201.1763	7
205.1664	11
217.1867	7
217.1971	15
217.2034	7
217.2054	7
219.1666	11
219.1687	11
219.1708	7
219.1729	19
219.175	22
219.1771	15
219.1792	15
219.1812	19
219.1833	15
219.1854	11
221.1156	7
221.145	7
221.1492	11
221.1555	11
221.1576	7
221.166	7
227.1718	7
227.174	11
227.1761	7
227.1803	11
227.1846	7
227.1867	15
227.1888	19
227.191	7
227.1931	34
227.1952	26
227.1973	45
227.1995	41
227.2016	41
227.2037	15
227.2059	22
227.208	19
227.2101	26
227.2122	15
227.2165	7
227.2229	7
229.1945	15
233.1224	7
239.2175	7
239.2218	7
239.224	19
239.2262	34
239.2284	30
239.2306	49
239.2328	63
239.2349	86
239.2371	97
239.2393	68
239.2415	79
239.2437	68
239.2458	56
239.248	37
239.2502	11
239.2524	34
239.2568	7
239.2611	11
239.2655	7
240.2399	7
253.186	8
253.2151	7
254.438	8
254.4448	8
254.6564	8
255.0213	8
255.1813	8
255.188	4
255.1903	16
255.1926	19
255.1948	27
255.1971	39
255.1993	67
255.2016	98
255.2038	129
255.2061	211
255.2083	235
255.2106	235
255.2128	207
255.2151	196
255.2173	169
255.2196	172
255.2219	98
255.2241	63
255.2264	47
255.2286	43
255.2309	15
255.2331	19
255.2354	8
255.2376	8
256.2011	4
256.2101	8
256.2282	4
256.2395	7
257.1935	4
263.9511	7
271.2051	7
271.2097	7
273.1651	7
273.1768	11
273.1814	11
273.2001	7
273.2024	7
273.2071	11
273.2094	30
273.2117	34
273.2141	30
273.2164	60
273.2187	68
273.2211	68
273.2234	63
273.2257	71
273.2281	49
273.2304	41
273.2327	34
273.235	30
273.2374	19
273.2397	19
273.242	11
273.2444	7
273.2467	11
281.1941	7
281.1964	7
289.2073	11
289.2097	7
289.2121	7
289.2145	11
289.2169	15
289.2217	19
289.2241	7
289.2457	8
291.9275	8
297.1337	8
297.5449	8
299.0777	8
299.1753	19
299.1802	27
299.1826	23
299.1851	46
299.1875	73
299.19	93
299.1924	144
299.1949	97
299.1973	128
299.1997	167
299.2022	136
299.2046	174
299.2071	81
299.2095	81
299.2119	105
299.2144	58
299.2168	62
299.2193	27
299.2217	19
299.2242	12
299.2266	8
299.229	4
299.2315	8
299.2339	4
301.2166	7
301.2191	8
303.909	7
316.2192	7
316.2292	7
316.2318	7
316.2343	7
316.2393	17
316.2468	8
317.0653	8
317.1784	4
317.1809	21
317.1834	12
317.1859	38
317.1884	35
317.1909	75
317.1935	120
317.196	284
317.1985	308
317.201	444
317.2035	639
317.206	798
317.2085	916
317.2111	879
317.2136	850
317.2161	810
317.2186	729
317.2211	618
317.2236	400
317.2261	287
317.2286	213
317.2312	135
317.2337	95
317.2362	68
317.2387	32
317.2412	22
317.2437	18
317.2462	8
317.2487	5
317.2814	4
317.3216	5
317.4146	4
317.6057	5
317.6359	5
318.0585	5
318.1994	7
318.2095	19
318.2145	11
318.2196	7
318.2221	11
318.2246	7
318.2296	7
375.1983	7
375.212	15
375.2147	11
375.2174	30
375.2202	26
375.2229	22
375.2256	19
375.2284	37
375.2311	41
375.2338	26
375.2393	15
375.242	41
375.2448	15
375.2475	7
375.2502	7
375.2584	7
393.2266	7
408.7231	8
416.9422	8
416.9854	8
418.231	15
418.2339	8
418.2368	15
418.2397	19
418.2426	39
418.2455	35
418.2484	78
418.2513	43
418.2542	95
418.257	79
418.2599	158
418.2628	163
418.2657	247
418.2686	222
418.2715	222
418.2744	226
418.2772	203
418.2801	158
418.283	194
418.2859	174
418.2888	99
418.2917	75
418.2945	68
418.2974	47
418.3003	28
418.3032	16
418.3119	4
418.3147	8
418.3176	8
418.3234	8
419.2849	4
434.3608	8
434.9315	8
434.9374	7
434.9462	11
435.267	8
435.7853	8
436.2361	19
436.239	8
436.2419	17
436.2449	9
436.2478	30
436.2508	51
436.2538	47
436.2567	102
436.2596	122
436.2626	268
436.2655	261
436.2685	412
436.2714	433
436.2744	505
436.2773	601
436.2803	670
436.2832	673
436.2862	722
436.2891	831
436.2921	745
436.295	626
436.2979	458
436.3009	433
436.3038	262
436.3068	186
436.3097	144
436.3127	91
436.3156	63
436.3186	50
436.3215	32
436.3245	8
436.3274	14
436.3333	5
436.6193	4
436.6871	5
437.1619	4
437.2415	5
437.2711	8
437.2799	8
437.2858	8
437.2917	15
437.2947	11
437.2976	15
437.3006	11
437.3212	7
438.2896	7
438.2925	11
438.2984	7
438.3073	7
452.2769	7
452.2829	7
496.217	11
496.2296	7
496.2328	7
496.239	7
496.2453	11
496.2579	7
662.4424	7
662.446	11
662.4497	7
662.4533	7
662.4606	19
662.4642	11
662.4678	7
662.4715	11
662.4751	11
662.4788	19
662.4824	19
662.486	22
662.4896	7
662.4969	15
662.5005	7
662.5042	19
662.5114	11
662.5151	7
734.1482	7
734.1558	7
734.1597	7
734.1711	19
734.1826	11
734.1864	11
734.1979	7
734.2208	11
734.2438	7
736.3787	9
736.394	9
736.4017	9
736.4132	7
736.4362	23
736.44	36
736.4438	41
736.4476	62
736.4515	121
736.4553	160
736.4592	238
736.463	262
736.4668	314
736.4706	502
736.4744	630
736.4783	773
736.4821	723
736.486	893
736.4897	851
736.4936	969
736.4974	999
736.5013	936
736.5051	831
736.5089	879
736.5128	807
736.5165	789
736.5204	595
736.5242	453
736.5281	217
736.5319	192
736.5357	148
736.5396	103
736.5434	89
736.5472	30
736.551	49
736.5549	5
736.5587	25
736.5663	5
736.5702	8
736.6008	5
736.6161	5
736.8153	5
737.3018	5
737.4474	7
737.4512	19
737.4589	7
737.4665	7
737.4703	7
737.4742	26
737.478	15
737.4819	26
737.4857	45
737.4895	37
737.4933	19
737.4972	15
737.501	19
737.5048	26
737.5087	30
737.5125	19
737.5164	11
737.5201	19
737.524	15
737.5278	15
737.5317	19
737.5393	7
737.547	7
737.5585	7
738.674	7
