Mass spectrum: PS 39:6; LC-ESI-QTOF; MS2
Name: PS 39:6
Class: PS
Formula: C45H76NO10P
Exact mass: 822.076
SMILES: CCCCCCCCCCCCCCCCC(=O)OCC(COP(O)(=O)OCC(N)C(O)=O)OC(=O)CC\C=C/C\C=C/C\C=C/C\C=C/C\C=C/C\C=C/CC
InChI: InChI=1S/C45H76NO10P/c1-3-5-7-9-11-13-15-17-19-20-21-22-23-25-27-29-31-33-35-37-44(48)56-41(39-54-57(51,52)55-40-42(46)45(49)50)38-53-43(47)36-34-32-30-28-26-24-18-16-14-12-10-8-6-4-2/h5,7,11,13,17,19,21-22,25,27,31,33,41-42H,3-4,6,8-10,12,14-16,18,20,23-24,26,28-30,32,34-40,46H2,1-2H3,(H,49,50)(H,51,52)/b7-5-,13-11-,19-17-,22-21-,27-25-,33-31-
Instrument: AB Sciex TripleTOF 5600+ system (Q-TOF) equipped with a DuoSpray ion source
Instrument type: LC-ESI-QTOF
Ms type: MS2
Ion mode: NEGATIVE
Collision energy: 45V
Column name: Acquity UPLC Peptide BEH C18 column (50*2.1 mm; 1.7 um; 130A)(Waters Co.,Milford, MA, USA)
Retention time: 8.489819
Precursor type: [M-H]-
Precursor m/z: 820.5176
m/z	relative intensity
78.958	49
152.997	122
171.014	12
241.011	16
255.232	33
269.231	122
269.25	999
279.232	38
281.25	200
283.238	77
283.265	94
297.234	38
297.28	27
327.221	49
327.237	127
377.242	55
391.224	27
405.21	49
405.235	337
405.249	179
423.228	60
423.256	206
463.215	60
463.231	44
478.286	44
478.31	49
480.304	39
481.191	11
481.231	17
539.308	11
540.318	11
558.302	11
626.55	11
627.528	110
628.515	121
628.545	23
658.587	55
673.42	17
715.486	17
732.507	12
733.446	122
733.473	607
733.498	332
746.503	66
760.616	71
788.496	39
802.508	22
820.458	77
820.481	111
820.521	956
820.552	225
820.576	89
820.613	66
820.635	38
821.528	17
