Mass spectrum: PE(18:1/18-HEPE); LC-ESI-QTOF; MS2
Name: PE(18:1/18-HEPE)
Class: Oxidized Phospholipid
Formula: C43H74NO9P
Exact mass: 780.039
SMILES: CCCCCCCC\C=C/CCCCCCCC(=O)OCC(COP(O)(=O)OCCN)OC(=O)CCC\C=C/C\C=C/C\C=C/C\C=C/C=C/C(O)CC
InChI: InChI=1S/C43H74NO9P/c1-3-5-6-7-8-9-10-11-12-16-19-22-25-28-31-34-42(46)50-38-41(39-52-54(48,49)51-37-36-44)53-43(47)35-32-29-26-23-20-17-14-13-15-18-21-24-27-30-33-40(45)4-2/h11-12,14-15,17-18,23-24,26-27,30,33,40-41,45H,3-10,13,16,19-22,25,28-29,31-32,34-39,44H2,1-2H3,(H,48,49)/b12-11-,17-14-,18-15-,26-23-,27-24-,33-30+
Instrument: Acquity UPLC Peptide BEH C18 column (50 x 2.1 mm; 1.7 um), Sciex TripleTOF5600
Instrument type: LC-ESI-QTOF
Ms type: MS2
Ion mode: NEGATIVE
Collision energy: 30-50
Precursor m/z: 778.5028435
Precursor type: [M-H]-
m/z	relative intensity
255.2104	286
255.2127	140
259.1658	140
259.1726	140
273.2209	140
281.2412	217
281.2436	496
281.246	140
281.2484	573
281.2507	426
281.2531	286
281.2554	426
281.2578	356
281.2602	356
299.1972	140
299.2143	140
317.1984	140
317.2009	140
317.2034	356
317.2059	496
317.2084	356
317.2109	140
317.2135	217
317.216	217
317.2185	217
317.221	140
317.2235	140
317.226	356
478.2874	140
504.2009	140
778.4528	140
778.4647	286
778.4686	356
778.4725	217
778.4764	356
778.4804	140
778.4843	140
778.4883	496
778.4922	426
778.4962	573
778.5001	782
778.504	573
778.5079	999
778.5119	643
778.5158	643
778.5198	426
778.5237	713
778.5276	356
778.5316	356
778.5355	496
778.5434	217
778.5473	286
778.5513	356
778.5591	140
778.563	140
