Mass spectrum: PE 42:2; LC-ESI-QTOF; MS2
Name: PE 42:2
Class: PE
Formula: C47H90NO8P
Exact mass: 828.2119999999999
SMILES: CCCCCCCCCC\C=C/CCCCCCCCCCCC(=O)OC(COC(=O)CCCCCCC\C=C/CCCCCCCC)COP(O)(=O)OCCN
InChI: InChI=1S/C47H90NO8P/c1-3-5-7-9-11-13-15-17-19-20-21-22-23-24-26-28-30-32-34-36-38-40-47(50)56-45(44-55-57(51,52)54-42-41-48)43-53-46(49)39-37-35-33-31-29-27-25-18-16-14-12-10-8-6-4-2/h18,20-21,25,45H,3-17,19,22-24,26-44,48H2,1-2H3,(H,51,52)/b21-20-,25-18-
Instrument: AB Sciex TripleTOF 5600+ system (Q-TOF) equipped with a DuoSpray ion source
Instrument type: LC-ESI-QTOF
Ms type: MS2
Ion mode: NEGATIVE
Collision energy: 45V
Column name: Acquity UPLC Peptide BEH C18 column (50*2.1 mm; 1.7 um; 130A)(Waters Co.,Milford, MA, USA)
Retention time: 13.16316
Precursor type: [M-H]-
Precursor m/z: 826.6211
m/z	relative intensity
99.922	10
100.932	147
115.918	15
127.001	11
141.017	10
158.973	157
255.233	10
279.23	36
280.362	20
281.221	42
281.247	999
291.01	27
325.321	17
363.304	20
363.325	41
365.338	273
365.358	84
367.353	56
387.023	15
544.377	10
562.383	73
648.635	10
666.624	20
744.603	32
826.579	163
826.611	350
826.64	449
826.677	62
826.685	36
