Mass spectrum: PC(14:0/8,9-EET); LC-ESI-QTOF; MS2
Name: PC(14:0/8,9-EET)
Class: Oxidized Phospholipid
Formula: C42H76NO9P
Exact mass: 770.044
SMILES: CCCCCCCCCCCCCC(=O)OCC(COP([O-])(=O)OCC[N+](C)(C)C)OC(=O)CCC\C=C/CC1OC1C\C=C/C\C=C/CCCCC
InChI: InChI=1S/C42H76NO9P/c1-6-8-10-12-14-16-17-19-21-23-28-32-41(44)48-36-38(37-50-53(46,47)49-35-34-43(3,4)5)51-42(45)33-29-25-24-27-31-40-39(52-40)30-26-22-20-18-15-13-11-9-7-2/h15,18,22,24,26-27,38-40H,6-14,16-17,19-21,23,25,28-37H2,1-5H3/b18-15-,26-22-,27-24-
Instrument: Acquity UPLC Peptide BEH C18 column (50 x 2.1 mm; 1.7 um), Sciex TripleTOF5600
Instrument type: LC-ESI-QTOF
Ms type: MS2
Ion mode: NEGATIVE
Collision energy: 30-50
Precursor m/z: 828.5396225
Precursor type: [M+CH3COOH-H]-
m/z	relative intensity
155.0711	39
168.0439	58
224.0712	39
227.1803	58
227.1824	39
227.1845	77
227.1867	159
227.1888	197
227.1909	356
227.1931	573
227.1952	554
227.1973	651
227.1994	573
227.2016	790
227.2037	751
227.2058	670
227.2079	434
227.2101	337
227.2122	256
227.2143	77
227.2164	58
227.2186	120
227.2207	58
253.2151	39
253.2173	58
293.1992	39
293.2137	58
301.2165	58
301.2238	39
319.2043	39
319.2169	97
319.2195	39
319.2245	97
319.227	120
319.2295	178
319.2321	58
319.2346	58
319.2371	39
319.2396	77
319.2421	58
319.2447	39
319.2522	39
452.2676	58
452.2856	58
452.2886	77
526.3016	39
544.2882	39
544.2915	58
544.2981	39
544.3047	58
544.3079	97
544.3112	39
544.3178	39
743.4899	39
754.437	39
754.4486	120
754.4525	58
754.4564	97
754.4603	97
754.4641	97
754.468	279
754.4719	279
754.4758	298
754.4796	457
754.4835	538
754.4874	658
754.4913	616
754.4951	697
754.499	418
754.5029	914
754.5068	639
754.5106	999
754.5145	379
754.5184	616
754.5223	616
754.5261	596
754.53	577
754.5339	356
754.5378	294
754.5416	236
754.5455	236
754.5494	139
754.5533	178
754.5571	58
754.561	39
754.5649	39
754.5688	39
754.5726	58
754.5765	39
755.476	39
755.5109	39
755.5225	39
755.5342	39
828.4749	39
828.4992	77
828.5154	58
828.5236	120
828.5276	97
828.5317	77
828.5358	39
828.5439	58
828.5479	97
828.552	58
828.5561	120
828.5601	39
828.5642	39
828.5682	58
828.5723	39
828.5804	58
828.5886	39
828.5967	39
829.4864	39
