Mass spectrum: PE(16:0/14,15-EpETE); LC-ESI-QTOF; MS2
Name: PE(16:0/14,15-EpETE)
Class: Oxidized Phospholipid
Formula: C41H72NO9P
Exact mass: 754.001
SMILES: CCCCCCCCCCCCCCCC(=O)OCC(COP(O)(=O)OCCN)OC(=O)CCC\C=C/C\C=C/C\C=C/CC1OC1C\C=C/CC
InChI: InChI=1S/C41H72NO9P/c1-3-5-7-8-9-10-11-12-13-17-20-23-27-31-40(43)47-35-37(36-49-52(45,46)48-34-33-42)50-41(44)32-28-24-21-18-15-14-16-19-22-26-30-39-38(51-39)29-25-6-4-2/h6,14,16,18,21-22,25-26,37-39H,3-5,7-13,15,17,19-20,23-24,27-36,42H2,1-2H3,(H,45,46)/b16-14-,21-18-,25-6-,26-22-
Instrument: Acquity UPLC Peptide BEH C18 column (50 x 2.1 mm; 1.7 um), Sciex TripleTOF5600
Instrument type: LC-ESI-QTOF
Ms type: MS2
Ion mode: NEGATIVE
Collision energy: 30-50
Precursor m/z: 752.4871934
Precursor type: [M-H]-
m/z	relative intensity
93.06996	38
121.0972	38
140.0016	38
140.005	38
140.0083	38
140.01	38
140.015	38
175.1506	38
175.1525	38
175.1543	38
177.083	38
189.123	38
189.1288	38
196.0307	59
196.0346	38
196.0386	38
196.0405	38
196.0425	97
196.0445	38
201.1566	38
201.1666	59
201.1686	38
201.1746	38
203.1386	38
205.1223	59
207.1277	59
207.1298	78
207.1338	97
207.1359	116
207.1379	253
207.1399	213
207.142	116
207.144	232
207.146	38
207.148	97
207.1501	59
207.1521	38
219.1293	78
219.1314	59
219.1356	97
219.1377	97
219.1398	38
219.1419	116
219.144	97
219.1461	38
219.1523	78
220.1477	38
247.1319	97
248.1132	38
248.131	38
248.1377	78
248.1399	38
248.1421	38
248.1443	97
248.1466	97
248.1488	59
248.151	38
248.1532	38
255.1951	78
255.1973	59
255.2041	78
255.2063	139
255.2086	158
255.2108	177
255.2131	277
255.2153	158
255.2176	258
255.2198	439
255.2221	520
255.2243	277
255.2266	720
255.2289	600
255.2311	520
255.2334	923
255.2356	763
255.2379	726
255.2401	585
255.2424	384
255.2446	222
255.2469	180
255.2491	120
255.2514	141
255.2536	80
255.2559	99
257.187	21
261.1871	21
273.2072	38
273.2166	38
273.2236	116
299.1877	59
299.1901	97
299.195	97
299.1974	97
299.1999	116
299.2023	78
299.2047	97
299.2072	97
299.2243	40
299.2291	40
317.1785	38
317.181	59
317.186	40
317.1885	40
317.1935	139
317.196	315
317.1985	179
317.2011	416
317.2036	296
317.2061	479
317.2086	437
317.2111	450
317.2137	574
317.2162	452
317.2187	551
317.2212	370
317.2237	198
317.2262	254
317.2287	198
317.2312	59
317.2337	118
317.2388	38
318.2146	38
434.2606	38
434.2723	78
434.2782	59
434.2812	38
452.2526	59
452.2556	38
452.2585	116
452.2616	156
452.2646	38
452.2676	116
452.2706	253
452.2736	135
452.2766	116
452.2796	175
452.2826	194
452.2856	213
452.2886	59
452.2916	78
452.2946	97
452.2976	38
452.3006	59
452.3036	38
496.2605	38
514.2297	38
514.2584	38
514.2841	40
752.4262	38
752.4301	78
752.434	97
752.4379	40
752.4417	220
752.4456	161
752.4495	42
752.4533	222
752.4572	444
752.4611	346
752.465	406
752.4688	429
752.4727	486
752.4766	714
752.4804	427
752.4843	999
752.4882	777
752.492	735
752.4959	836
752.4998	572
752.5037	777
752.5075	528
752.5114	587
752.5153	509
752.5191	486
752.523	264
752.5269	264
752.5307	264
752.5346	101
752.5385	82
752.5424	42
752.5462	59
752.5578	40
752.5772	38
753.4639	38
753.4871	59
753.491	38
753.4948	38
753.5297	38
