Mass spectrum: SM d34:2; LC-ESI-QTOF; MS2
Name: SM d34:2
Class: SM
Formula: C39H77N2O6P
Exact mass: 701.029
SMILES: CCCCCCCCCCCCCCCC(=O)NC(COP([O-])(=O)OCC[N+](C)(C)C)C(O)\C=C\CC\C=C\CCCCCCCCC
InChI: InChI=1S/C39H77N2O6P/c1-6-8-10-12-14-16-18-20-22-24-26-28-30-32-38(42)37(36-47-48(44,45)46-35-34-41(3,4)5)40-39(43)33-31-29-27-25-23-21-19-17-15-13-11-9-7-2/h22,24,30,32,37-38,42H,6-21,23,25-29,31,33-36H2,1-5H3,(H-,40,43,44,45)/b24-22+,32-30+
Instrument: AB Sciex TripleTOF 5600+ system (Q-TOF) equipped with a DuoSpray ion source
Instrument type: LC-ESI-QTOF
Ms type: MS2
Ion mode: NEGATIVE
Collision energy: 45V
Column name: Acquity UPLC Peptide BEH C18 column (50*2.1 mm; 1.7 um; 130A)(Waters Co.,Milford, MA, USA)
Retention time: 8.541677
Precursor type: [M+CH3COOH-H]-
Precursor m/z: 759.5616
m/z	relative intensity
78.958	27
122.982	2
152.996	5
168.043	89
255.231	14
269.251	22
279.232	70
281.25	7
283.26	9
293.214	12
293.247	20
294.214	6
307.261	4
327.233	3
370.977	2
404.251	2
405.239	3
425.962	2
447.283	5
447.316	3
464.313	4
479.283	1
497.282	3
505.258	1
596.449	4
614.448	2
627.512	8
627.538	4
640.466	1
683.367	3
683.426	3
685.445	3
685.522	999
685.588	4
685.687	3
700.466	2
700.497	6
701.528	2
727.473	2
741.527	4
759.476	14
759.492	25
759.519	83
759.586	9
