Mass spectrum: PC 38:7; LC-ESI-QTOF; MS2
Name: PC 38:7
Class: PC
Formula: C46H78NO8P
Exact mass: 804.1049999999999
SMILES: CCCCCC\C=C/CCCCCCCC(=O)OCC(COP([O-])(=O)OCC[N+](C)(C)C)OC(=O)CC\C=C/C\C=C/C\C=C/C\C=C/C\C=C/C\C=C/CC
InChI: InChI=1S/C46H78NO8P/c1-6-8-10-12-14-16-18-20-21-22-23-24-25-27-29-31-33-35-37-39-46(49)55-44(43-54-56(50,51)53-41-40-47(3,4)5)42-52-45(48)38-36-34-32-30-28-26-19-17-15-13-11-9-7-2/h8,10,14,16-17,19-21,23-24,27,29,33,35,44H,6-7,9,11-13,15,18,22,25-26,28,30-32,34,36-43H2,1-5H3/b10-8-,16-14-,19-17-,21-20-,24-23-,29-27-,35-33-
Instrument: AB Sciex TripleTOF 5600+ system (Q-TOF) equipped with a DuoSpray ion source
Instrument type: LC-ESI-QTOF
Ms type: MS2
Ion mode: NEGATIVE
Collision energy: 45V
Column name: Acquity UPLC Peptide BEH C18 column (50*2.1 mm; 1.7 um; 130A)(Waters Co.,Milford, MA, USA)
Retention time: 8.69875
Precursor type: [M+CH3COOH-H]-
Precursor m/z: 862.5601
m/z	relative intensity
121.104	3
152.997	2
168.028	2
168.043	16
177.163	3
189.162	2
191.176	5
203.18	1
223.004	2
224.07	12
229.195	26
241.01	8
241.198	2
242.071	3
249.186	7
252.441	2
253.216	350
279.22	3
279.235	6
280.242	6
281.242	3
282.252	3
282.352	3
283.24	172
283.275	4
284.262	4
297.215	1
309.215	4
327.23	498
328.232	1
389.197	3
407.212	1
419.263	2
420.254	2
460.275	10
460.296	5
460.311	3
478.248	3
478.276	45
478.295	67
488.989	0
493.268	1
534.272	1
534.299	6
552.284	2
552.313	4
581.297	3
582.303	3
717.432	2
743.437	2
786.013	2
786.07	3
788.52	999
788.655	1
789.492	2
789.538	1
803.44	2
803.477	6
803.53	3
862.45	1
862.53	52
862.557	108
862.601	14
