Mass spectrum: PE 40:9; LC-ESI-QTOF; MS2
Name: PE 40:9
Class: PE
Formula: C45H72NO8P
Exact mass: 786.0459999999999
SMILES: CC\C=C/C\C=C/C\C=C/CCCCCCCC(=O)OCC(COP(O)(=O)OCCN)OC(=O)CC\C=C/C\C=C/C\C=C/C\C=C/C\C=C/C\C=C/CC
InChI: InChI=1S/C45H72NO8P/c1-3-5-7-9-11-13-15-17-19-20-21-22-24-26-28-30-32-34-36-38-45(48)54-43(42-53-55(49,50)52-40-39-46)41-51-44(47)37-35-33-31-29-27-25-23-18-16-14-12-10-8-6-4-2/h5-8,11-14,17-19,21-23,26,28,32,34,43H,3-4,9-10,15-16,20,24-25,27,29-31,33,35-42,46H2,1-2H3,(H,49,50)/b7-5-,8-6-,13-11-,14-12-,19-17-,22-21-,23-18-,28-26-,34-32-
Instrument: AB Sciex TripleTOF 5600+ system (Q-TOF) equipped with a DuoSpray ion source
Instrument type: LC-ESI-QTOF
Ms type: MS2
Ion mode: NEGATIVE
Collision energy: 45V
Column name: Acquity UPLC Peptide BEH C18 column (50*2.1 mm; 1.7 um; 130A)(Waters Co.,Milford, MA, USA)
Retention time: 8.596491
Precursor type: [M-H]-
Precursor m/z: 784.4932
m/z	relative intensity
140.013	42
177.165	17
182.058	42
196.035	29
196.051	21
219.068	38
220.071	17
229.197	55
234.086	38
249.186	22
255.222	36
269.109	17
277.217	774
279.233	29
281.242	22
283.242	308
283.255	116
287.132	42
288.13	17
301.222	12
320.226	9
327.235	913
456.246	42
474.223	15
474.254	141
474.276	80
480.325	8
506.268	17
524.273	25
676.541	8
720.493	29
720.535	17
736.503	12
737.505	31
752.478	29
752.52	85
752.551	85
752.572	29
769.518	111
769.561	68
782.111	13
784.392	17
784.427	38
784.481	999
784.504	747
784.526	227
784.565	404
784.608	69
