Mass spectrum: PG 36:5; LC-ESI-QTOF; MS2
Name: PG 36:5
Class: PG
Formula: C42H73O10P
Exact mass: 769.0120000000001
SMILES: CCCCCCCCCCCCCCCC(=O)OCC(COP(O)(=O)OCC(O)CO)OC(=O)CCC\C=C/C\C=C/C\C=C/C\C=C/C\C=C/CC
InChI: InChI=1S/C42H73O10P/c1-3-5-7-9-11-13-15-17-18-19-20-22-24-26-28-30-32-34-42(46)52-40(38-51-53(47,48)50-36-39(44)35-43)37-49-41(45)33-31-29-27-25-23-21-16-14-12-10-8-6-4-2/h5,7,11,13,17-18,20,22,26,28,39-40,43-44H,3-4,6,8-10,12,14-16,19,21,23-25,27,29-38H2,1-2H3,(H,47,48)/b7-5-,13-11-,18-17-,22-20-,28-26-
Instrument: AB Sciex TripleTOF 5600+ system (Q-TOF) equipped with a DuoSpray ion source
Instrument type: LC-ESI-QTOF
Ms type: MS2
Ion mode: NEGATIVE
Collision energy: 45V
Column name: Acquity UPLC Peptide BEH C18 column (50*2.1 mm; 1.7 um; 130A)(Waters Co.,Milford, MA, USA)
Retention time: 8.135416
Precursor type: [M-H]-
Precursor m/z: 767.481
m/z	relative intensity
78.958	4
152.991	13
171.007	16
203.182	11
209.021	6
223.164	5
227.031	9
231.11	3
233.159	2
255.203	7
255.232	338
255.276	3
257.224	109
257.252	5
279.238	4
283.199	5
283.251	10
283.271	8
285.182	3
300.277	4
300.32	1
301.216	522
302.22	1
307.616	2
387.221	2
391.221	16
425.466	1
433.237	1
437.202	4
465.226	3
465.252	16
465.281	5
483.247	10
483.267	37
483.284	15
489.231	2
497.054	1
511.24	11
529.256	4
603.378	1
671.467	1
693.476	1
695.47	3
735.452	7
765.038	5
765.092	5
767.412	11
767.449	231
767.479	999
767.557	16
768.466	3
