Mass spectrum: PC(16:0/17,18-EpETE); LC-ESI-QTOF; MS2
Name: PC(16:0/17,18-EpETE)
Class: Oxidized Phospholipid
Formula: C44H78NO9P
Exact mass: 796.082
SMILES: CCCCCCCCCCCCCCCC(=O)OCC(COP([O-])(=O)OCC[N+](C)(C)C)OC(=O)CCC\C=C/C\C=C/C\C=C/C\C=C/CC1OC1CC
InChI: InChI=1S/C44H78NO9P/c1-6-8-9-10-11-12-13-15-19-22-25-28-31-34-43(46)50-38-40(39-52-55(48,49)51-37-36-45(3,4)5)53-44(47)35-32-29-26-23-20-17-14-16-18-21-24-27-30-33-42-41(7-2)54-42/h14,17-18,21,23,26-27,30,40-42H,6-13,15-16,19-20,22,24-25,28-29,31-39H2,1-5H3/b17-14-,21-18-,26-23-,30-27-
Instrument: Acquity UPLC Peptide BEH C18 column (50 x 2.1 mm; 1.7 um), Sciex TripleTOF5600
Instrument type: LC-ESI-QTOF
Ms type: MS2
Ion mode: NEGATIVE
Collision energy: 30-50
Precursor m/z: 854.5552726
Precursor type: [M+CH3COOH-H]-
m/z	relative intensity
135.1149	10
149.1326	10
149.1378	10
161.128	10
168.035	10
168.0368	16
168.0387	16
168.0423	10
168.0441	10
168.0478	21
168.0496	16
189.1675	16
201.1505	10
201.1685	21
201.1705	10
201.1725	10
215.1642	21
215.1684	10
215.1725	37
215.1746	16
215.1767	43
215.1787	21
215.1808	27
215.1829	48
215.1849	58
215.187	21
215.1911	16
215.1953	10
219.171	10
224.065	37
224.0672	43
224.0693	37
224.0714	21
224.0735	10
224.0756	21
224.0883	10
229.1562	10
229.1605	10
245.1461	10
245.1483	10
255.1926	21
255.1949	21
255.1994	37
255.2017	10
255.2039	61
255.2062	55
255.2084	33
255.2107	74
255.2129	78
255.2152	114
255.2174	137
255.2197	249
255.2219	228
255.2242	253
255.2265	444
255.2287	381
255.231	466
255.2332	496
255.2355	420
255.2377	386
255.24	235
255.2422	315
255.2445	166
255.2467	120
255.249	46
255.2513	45
255.2535	29
255.2558	18
255.258	17
255.2603	11
255.2693	6
255.9889	6
256.165	6
256.2373	11
259.1523	10
259.1546	10
259.1569	21
259.1592	43
259.1614	37
259.1637	27
259.166	80
259.1682	58
259.1705	58
259.1728	69
259.1751	48
259.1773	27
259.1796	43
259.1819	27
259.1955	10
261.1892	10
261.1938	10
273.2071	10
273.2094	21
273.2141	16
273.2164	27
273.2188	27
273.2211	21
273.2234	53
273.2258	48
273.2281	27
273.2328	16
273.2374	10
281.2414	10
281.2461	10
299.1826	32
299.185	16
299.1875	37
299.1899	63
299.1924	32
299.1948	32
299.1972	101
299.1997	80
299.2021	63
299.2046	69
299.207	58
299.2094	53
299.2119	32
299.2143	37
299.2168	27
299.2192	10
299.2216	16
299.229	10
306.722	11
315.1987	10
315.2062	11
316.046	11
316.2392	11
316.2442	11
317.118	11
317.1808	11
317.1833	11
317.1858	39
317.1883	39
317.1908	40
317.1934	56
317.1959	107
317.1984	135
317.2009	204
317.2034	279
317.2059	418
317.2084	403
317.2109	382
317.2135	324
317.216	380
317.2185	337
317.221	249
317.2235	198
317.226	203
317.2285	119
317.231	96
317.2336	45
317.2361	40
317.2386	45
317.2436	17
317.2461	6
317.2537	6
317.6836	6
317.9753	6
461.9689	10
462.2783	10
462.2813	10
462.2843	21
462.2904	16
462.2934	10
462.2964	10
462.2995	32
462.3025	21
462.3055	27
462.3116	21
462.3146	10
480.2512	11
480.2759	10
480.279	16
480.2821	10
480.2852	32
480.2883	43
480.2914	59
480.2945	54
480.2976	97
480.3007	97
480.3038	86
480.3069	129
480.3099	113
480.313	70
480.3161	134
480.3192	75
480.3223	112
480.3254	86
480.3285	32
480.3316	21
480.3347	32
480.3378	11
480.3409	10
480.344	10
480.347	10
524.2897	16
524.2961	10
524.3026	10
542.2816	10
542.2881	10
542.2914	16
542.2947	16
542.298	10
542.3013	10
735.4545	10
735.4851	10
778.053	10
778.057	10
778.0609	10
778.0649	21
778.0806	10
778.0963	10
780.432	10
780.4438	10
780.4478	10
780.4517	11
780.4557	18
780.4596	42
780.4636	80
780.4675	69
780.4714	95
780.4754	122
780.4793	132
780.4833	274
780.4872	317
780.4911	535
780.4951	580
780.499	604
780.503	848
780.5069	692
780.5109	999
780.5148	890
780.5187	979
780.5227	927
780.5266	862
780.5306	849
780.5345	883
780.5385	837
780.5424	950
780.5463	655
780.5503	511
780.5542	465
780.5582	403
780.5621	252
780.566	256
780.57	151
780.5739	65
780.5779	98
780.5818	52
780.5858	46
780.5897	30
780.5936	13
780.5976	13
780.6055	7
780.6094	10
780.6488	7
781.4611	10
781.4888	10
781.5006	10
781.5045	16
781.5203	12
781.5242	16
781.5282	17
781.5361	10
781.54	10
781.544	16
781.5479	16
781.5519	16
781.5598	10
781.5637	10
795.4426	10
795.4585	10
795.4625	16
795.4824	27
795.4903	16
795.5023	10
795.5062	10
795.5102	10
795.5341	10
807.562	10
807.566	10
854.4918	10
854.5042	37
854.5124	53
854.5165	27
854.5207	54
854.5248	54
854.5289	65
854.533	86
854.5372	54
854.5413	59
854.5454	81
854.5496	65
854.5536	65
854.5578	81
854.5619	92
854.566	104
854.5702	92
854.5743	76
854.5784	130
854.5825	48
854.5867	80
854.5908	32
854.5949	27
854.5991	21
854.6073	10
854.6115	16
854.6155	21
854.6238	10
854.6279	16
