Mass spectrum: PE(16:0/20-HETE); LC-ESI-QTOF; MS2
Name: PE(16:0/20-HETE)
Class: Oxidized Phospholipid
Formula: C41H74NO9P
Exact mass: 756.017
SMILES: CCCCCCCCCCCCCCCC(=O)OCC(COP(O)(=O)OCCN)OC(=O)CCC\C=C/C\C=C/C\C=C/C\C=C/CCCCCO
InChI: InChI=1S/C41H74NO9P/c1-2-3-4-5-6-7-8-14-17-20-23-26-29-32-40(44)48-37-39(38-50-52(46,47)49-36-34-42)51-41(45)33-30-27-24-21-18-15-12-10-9-11-13-16-19-22-25-28-31-35-43/h9,11-12,15-16,19,21,24,39,43H,2-8,10,13-14,17-18,20,22-23,25-38,42H2,1H3,(H,46,47)/b11-9-,15-12-,19-16-,24-21-
Instrument: Acquity UPLC Peptide BEH C18 column (50 x 2.1 mm; 1.7 um), Sciex TripleTOF5600
Instrument type: LC-ESI-QTOF
Ms type: MS2
Ion mode: NEGATIVE
Collision energy: 30-50
Precursor m/z: 754.5028435
Precursor type: [M-H]-
m/z	relative intensity
78.96022	11
78.96775	16
95.05216	11
135.121	11
140.0043	16
140.0077	22
140.0127	40
140.0144	16
140.016	16
140.0194	16
177.0955	11
191.179	11
196.0281	11
196.032	22
196.034	40
196.036	40
196.038	16
196.0399	40
196.0419	22
196.0439	16
196.0459	16
245.2075	11
245.2186	11
245.2252	22
245.2296	11
245.2318	11
245.2363	16
245.2385	23
245.2429	11
246.2449	11
251.2429	11
254.4467	11
254.467	11
255.0255	11
255.208	11
255.2103	16
255.2125	23
255.2148	98
255.217	57
255.2193	132
255.2215	121
255.2238	316
255.226	277
255.2283	420
255.2306	370
255.2328	386
255.2351	446
255.2373	427
255.2396	347
255.2418	271
255.2441	133
255.2463	133
255.2486	58
255.2509	52
255.2531	41
255.2554	34
255.2576	11
255.2599	16
255.2621	11
256.2369	16
256.2392	11
257.2249	16
257.2294	11
257.2317	11
273.2161	22
273.2231	27
273.2254	16
273.2277	11
275.2161	11
275.2278	11
275.2301	11
275.2325	27
275.2348	50
275.2372	22
275.2395	34
275.2419	16
275.2442	11
275.2465	16
275.2489	22
275.2512	22
289.1974	11
289.2021	22
289.2069	16
289.2094	22
289.2118	27
289.2141	27
289.2166	40
289.219	16
289.2213	11
289.2238	27
289.2261	22
289.2453	11
301.1967	11
301.1991	16
301.2016	27
301.204	34
301.2065	22
301.2089	34
301.2114	78
301.2138	90
301.2162	67
301.2187	72
301.2212	72
301.2236	22
301.226	45
301.2285	34
301.231	56
301.2334	22
301.2383	11
301.2408	11
318.2292	22
318.2318	12
318.2343	11
319.0932	11
319.1688	12
319.1864	12
319.1965	16
319.199	29
319.2016	63
319.2041	76
319.2066	116
319.2091	270
319.2116	235
319.2142	433
319.2167	526
319.2192	582
319.2217	677
319.2242	863
319.2267	999
319.2293	873
319.2318	776
319.2343	620
319.2368	550
319.2394	417
319.2419	290
319.2444	226
319.2469	96
319.2495	78
319.252	78
319.2545	54
319.257	23
319.2596	12
319.2646	19
319.2721	11
320.2208	11
320.2259	11
320.236	16
320.241	11
320.2435	11
321.0849	11
434.2544	11
434.2603	11
434.2662	16
434.2691	11
434.2721	11
434.2838	11
434.2956	11
445.3207	11
452.2494	11
452.2523	22
452.2554	27
452.2584	27
452.2614	34
452.2644	50
452.2674	83
452.2704	50
452.2733	112
452.2764	56
452.2794	40
452.2823	67
452.2854	61
452.2884	50
452.2914	61
452.2944	22
452.2974	34
452.3004	27
452.3034	11
452.3064	16
452.3094	16
452.3154	11
498.2489	16
498.2584	16
498.2804	11
516.2537	11
516.2634	11
516.2762	16
516.2826	11
516.2954	11
754.4252	16
754.4329	11
754.4368	11
754.4407	22
754.4446	34
754.4484	45
754.4523	86
754.4562	98
754.4601	116
754.4639	76
754.4678	134
754.4717	195
754.4756	228
754.4794	260
754.4833	319
754.4872	374
754.4911	426
754.4949	516
754.4988	406
754.5027	513
754.5066	530
754.5104	474
754.5143	474
754.5182	551
754.5221	362
754.5259	420
754.5298	416
754.5337	361
754.5376	267
754.5414	206
754.5453	136
754.5492	155
754.5531	108
754.5569	65
754.5609	59
754.5647	58
754.5686	23
754.5724	18
754.5764	23
754.5802	11
754.588	11
755.4681	16
755.4719	11
755.4836	11
755.4874	11
755.4952	16
755.5146	16
755.5185	22
755.5223	16
755.5262	16
755.5301	22
755.534	16
755.5378	22
755.5417	11
755.5533	11
