Mass spectrum: PC(16:1/18-HETE); LC-ESI-QTOF; MS2
Name: PC(16:1/18-HETE)
Class: Oxidized Phospholipid
Formula: C44H78NO9P
Exact mass: 796.082
SMILES: CCCCCC\C=C/CCCCCCCC(=O)OCC(COP([O-])(=O)OCC[N+](C)(C)C)OC(=O)CCC\C=C/C\C=C/C\C=C/C\C=C/CCC(O)CC
InChI: InChI=1S/C44H78NO9P/c1-6-8-9-10-11-12-13-16-20-23-26-29-32-35-43(47)51-39-42(40-53-55(49,50)52-38-37-45(3,4)5)54-44(48)36-33-30-27-24-21-18-15-14-17-19-22-25-28-31-34-41(46)7-2/h12-13,15,17-19,24-25,27-28,41-42,46H,6-11,14,16,20-23,26,29-40H2,1-5H3/b13-12-,18-15-,19-17-,27-24-,28-25-
Instrument: Acquity UPLC Peptide BEH C18 column (50 x 2.1 mm; 1.7 um), Sciex TripleTOF5600
Instrument type: LC-ESI-QTOF
Ms type: MS2
Ion mode: NEGATIVE
Collision energy: 30-50
Precursor m/z: 854.5552726
Precursor type: [M+CH3COOH-H]-
m/z	relative intensity
78.95748	3
78.96124	7
78.96249	5
81.07276	3
83.05648	3
163.08	3
163.1485	5
163.1503	3
168.0325	3
168.0343	4
168.0361	8
168.038	4
168.0398	5
168.0416	8
168.0435	22
168.0453	8
168.0471	11
168.049	11
168.0508	8
168.0526	3
168.0618	3
177.0897	3
177.0991	3
189.1611	3
203.1781	3
203.1821	3
206.0562	3
217.1822	9
217.1843	9
217.1863	9
217.1884	12
217.1905	14
217.1926	12
217.1947	23
217.1967	18
217.1988	16
217.2009	19
217.203	12
217.2051	9
217.2071	9
217.2092	5
224.0476	3
224.0539	4
224.0582	7
224.0603	13
224.0624	8
224.0645	19
224.0666	19
224.0687	16
224.0708	27
224.0729	9
224.075	18
224.0772	12
224.0793	3
224.0814	14
231.14	3
242.0757	3
242.0779	3
242.0801	3
242.0823	9
242.0889	5
243.168	3
245.2008	3
250.253	3
252.4251	3
252.4296	3
252.4677	3
253.1856	3
253.1901	5
253.1923	11
253.1946	14
253.1968	22
253.1991	29
253.2013	50
253.2036	90
253.2058	113
253.2081	171
253.2103	195
253.2125	251
253.2148	299
253.217	278
253.2193	309
253.2215	281
253.2238	255
253.226	174
253.2283	104
253.2305	91
253.2328	57
253.235	38
253.2372	33
253.2395	22
253.2417	13
253.244	7
253.2462	4
253.2485	8
253.3271	3
254.1272	3
254.2149	3
254.2171	4
254.2216	3
254.2284	4
257.2067	3
257.209	3
257.2135	5
257.2158	5
257.218	3
257.2203	5
257.2226	4
257.2248	14
257.2271	9
257.2293	13
257.2316	16
257.2339	5
257.2361	12
257.2384	3
257.2407	4
257.2429	3
260.3686	3
261.1592	4
261.166	5
261.1683	8
261.1706	22
261.1729	20
261.1751	32
261.1774	54
261.1797	57
261.182	64
261.1843	67
261.1866	79
261.1888	68
261.1911	59
261.1934	57
261.1956	39
261.1979	43
261.2002	23
261.2025	16
261.2048	7
261.2071	9
261.2094	8
261.2116	3
261.2139	3
262.1908	3
273.2184	3
273.2277	3
273.2324	3
275.2184	4
275.2231	5
275.2254	4
275.2278	4
275.2301	7
275.2325	4
275.2348	7
275.2372	7
275.2395	5
275.2418	7
275.2442	9
275.2465	9
275.2488	3
283.1847	3
283.1989	3
283.2013	4
283.263	3
283.2726	3
294.946	3
300.2962	3
301.1918	5
301.1942	7
301.1967	8
301.1992	5
301.2016	26
301.204	22
301.2065	35
301.209	48
301.2114	53
301.2138	71
301.2163	70
301.2188	58
301.2212	83
301.2236	58
301.2261	41
301.2285	49
301.231	31
301.2334	19
301.2359	11
301.2383	7
301.2408	13
301.2432	4
301.2457	4
301.2481	3
301.253	3
317.2007	4
317.2057	4
317.2082	4
317.2107	4
317.2132	3
317.2158	5
317.2183	3
317.2208	3
317.2283	3
318.2067	3
318.2217	5
318.2243	3
318.2268	4
318.2318	4
318.2394	4
318.2419	3
318.2444	3
318.2469	3
318.2645	3
319.0277	3
319.0781	3
319.189	7
319.1915	3
319.1941	7
319.1966	5
319.1991	22
319.2016	28
319.2041	51
319.2067	93
319.2092	140
319.2117	203
319.2142	267
319.2167	355
319.2193	423
319.2218	521
319.2243	617
319.2268	637
319.2293	637
319.2319	613
319.2344	575
319.2369	492
319.2394	301
319.242	259
319.2445	174
319.247	144
319.2495	71
319.252	64
319.2545	47
319.2571	32
319.2596	23
319.2621	14
319.2646	3
319.2672	3
319.2747	3
320.2108	3
320.2133	3
320.2184	3
320.2209	7
320.2259	3
320.2285	7
320.231	7
320.2335	8
320.236	8
320.2385	5
320.2411	3
320.2436	5
320.2537	3
320.577	3
321.4643	3
389.202	4
389.2076	4
389.2131	4
389.2159	3
407.2209	3
433.9019	3
455.2161	3
460.2483	3
460.2574	3
460.2604	5
460.2635	4
460.2665	3
460.2695	5
460.2726	9
460.2756	12
460.2786	9
460.2816	18
460.2846	16
460.2877	11
460.2907	5
460.2937	14
460.2968	7
460.2998	9
460.3028	5
460.3058	3
460.3089	4
460.3119	4
470.2641	4
478.2408	3
478.247	3
478.2501	3
478.2594	7
478.2625	7
478.2655	7
478.2686	18
478.2717	13
478.2748	12
478.2779	30
478.2809	45
478.284	55
478.2871	58
478.2902	64
478.2933	74
478.2964	99
478.2995	78
478.3026	63
478.3056	64
478.3087	51
478.3118	39
478.3149	38
478.318	35
478.3211	16
478.3242	11
478.3272	14
478.3303	8
478.3334	4
478.3365	7
478.4414	3
479.3091	3
491.5072	3
526.25	3
526.2759	3
526.2792	4
526.2824	7
526.2856	8
526.2889	5
526.2921	7
526.2953	5
526.3018	3
526.3051	7
526.3083	5
526.3115	9
526.3148	3
526.318	3
526.3212	3
526.3406	3
533.0302	3
544.2852	3
544.2885	5
544.2918	3
544.2951	8
544.2983	8
544.3016	8
544.3049	4
544.3082	9
544.3115	7
544.3148	7
544.3181	4
544.3214	7
544.3247	5
544.3313	3
709.4109	3
709.426	3
709.4297	8
709.4335	4
709.4373	8
709.441	5
709.4448	3
709.4485	8
709.4523	5
709.4561	7
709.4598	3
709.4636	7
709.4673	3
709.4711	4
709.4749	7
709.4861	5
709.4899	4
735.4525	4
735.4563	4
735.4716	3
735.4754	3
736.4936	3
778.0157	3
778.0433	4
778.059	4
778.0629	4
778.0669	7
778.0708	4
778.0748	3
778.0787	8
778.0826	3
778.0865	3
778.0905	7
778.0944	7
778.0984	11
778.1023	3
778.1063	4
779.4726	3
779.5317	3
779.5947	4
780.3276	3
780.4222	4
780.4301	3
780.4341	4
780.438	9
780.442	9
780.4459	9
780.4498	19
780.4538	5
780.4656	18
780.4695	50
780.4734	86
780.4774	148
780.4814	152
780.4853	217
780.4893	275
780.4932	412
780.4971	473
780.5011	552
780.505	684
780.509	786
780.5129	877
780.5168	865
780.5208	986
780.5247	999
780.5287	939
780.5326	944
780.5366	892
780.5405	956
780.5444	841
780.5484	691
780.5523	604
780.5563	493
780.5602	380
780.5641	313
780.5681	227
780.572	155
780.576	121
780.5799	116
780.5839	49
780.5878	44
780.5917	39
780.5957	26
780.5996	20
780.6036	16
780.6075	11
780.6115	6
780.6154	3
780.6193	3
780.6312	4
780.6469	3
780.9899	3
781.0215	3
781.1279	3
781.1359	3
781.1793	3
781.4672	3
781.4789	5
781.4829	7
781.4908	11
781.4948	12
781.4987	8
781.5026	9
781.5066	12
781.5106	20
781.5145	13
781.5184	24
781.5223	32
781.5263	20
781.5303	23
781.5342	18
781.5381	18
781.5421	22
781.546	23
781.55	8
781.5539	4
781.5579	13
781.5618	5
781.5657	8
781.5697	4
781.5737	3
781.5776	5
781.5815	4
781.5934	3
781.8972	3
783.4642	3
794.5576	3
795.4049	3
795.4487	4
795.4526	4
795.4567	7
795.4606	8
795.4646	3
795.4686	11
795.4725	13
795.4766	14
795.4805	7
795.4845	14
795.4885	14
795.4924	9
795.4965	14
795.5004	18
795.5044	7
795.5084	8
795.5123	11
795.5164	8
795.5203	3
795.5322	8
795.5363	12
795.5402	3
818.5113	3
836.4591	3
854.4654	5
854.4778	4
854.4819	3
854.486	7
854.4901	5
854.4943	11
854.4984	7
854.5025	4
854.5067	22
854.5107	12
854.5149	16
854.519	23
854.5231	28
854.5273	35
854.5314	24
854.5355	47
854.5396	48
854.5438	47
854.5479	44
854.552	58
854.5562	64
854.5602	67
854.5644	70
854.5685	80
854.5726	54
854.5768	91
854.5809	74
854.585	68
854.5891	49
854.5933	41
854.5974	44
854.6015	35
854.6057	30
854.6097	22
854.6139	23
854.618	13
854.6221	5
854.6262	3
854.6304	3
854.6428	5
855.5298	4
855.567	4
855.5711	3
855.5835	5
855.6	5
