Mass spectrum: PC(14:0/13-HODE); LC-ESI-QTOF; MS2
Name: PC(14:0/13-HODE)
Class: Oxidized Phospholipid
Formula: C40H76NO9P
Exact mass: 746.022
SMILES: CCCCCCCCCCCCCC(=O)OCC(COP([O-])(=O)OCC[N+](C)(C)C)OC(=O)CCCCCCC\C=C/C=C/C(O)CCCCC
InChI: InChI=1S/C40H76NO9P/c1-6-8-10-11-12-13-14-17-20-23-27-31-39(43)47-35-38(36-49-51(45,46)48-34-33-41(3,4)5)50-40(44)32-28-24-21-18-15-16-19-22-26-30-37(42)29-25-9-7-2/h19,22,26,30,37-38,42H,6-18,20-21,23-25,27-29,31-36H2,1-5H3/b22-19-,30-26+
Instrument: Acquity UPLC Peptide BEH C18 column (50 x 2.1 mm; 1.7 um), Sciex TripleTOF5600
Instrument type: LC-ESI-QTOF
Ms type: MS2
Ion mode: NEGATIVE
Collision energy: 30-50
Precursor m/z: 804.5396225
Precursor type: [M+CH3COOH-H]-
m/z	relative intensity
168.0304	16
168.0322	16
168.0359	16
168.0377	16
168.0414	33
169.4747	16
195.1243	16
195.1263	25
195.1282	25
195.1322	25
195.1342	41
195.1361	41
195.1381	33
195.1401	33
195.142	25
195.144	41
195.1479	25
224.0607	33
224.0629	16
224.065	33
224.0671	33
224.0713	25
224.0734	16
224.0776	17
225.9953	17
226.4856	17
226.5004	17
227.1762	17
227.1805	25
227.1826	92
227.1847	126
227.1869	109
227.189	150
227.1911	179
227.1933	221
227.1954	469
227.1975	462
227.1996	572
227.2018	563
227.2039	359
227.206	391
227.2081	213
227.2103	213
227.2124	135
227.2145	102
227.2166	69
227.2188	84
227.2209	9
227.223	60
227.2251	26
227.2273	16
230.2897	9
230.6495	9
255.2224	16
255.2315	16
277.2012	16
277.2036	16
277.2059	16
277.2083	49
277.2106	57
277.213	66
277.2153	66
277.2177	49
277.22	33
277.2224	41
277.2271	33
277.2318	16
277.2435	17
294.3057	17
294.3106	17
294.313	17
294.3178	25
294.9912	17
295.202	9
295.2045	26
295.2069	34
295.2093	111
295.2117	172
295.2142	135
295.2166	215
295.219	405
295.2214	440
295.2238	572
295.2263	633
295.2287	691
295.2311	495
295.2336	425
295.236	408
295.2384	295
295.2408	208
295.2433	121
295.2457	86
295.2481	52
295.2505	43
295.253	26
295.2554	26
295.2578	18
295.3863	9
296.226	16
296.5393	9
296.8699	9
297.3782	9
309.2318	16
309.2368	16
363.1936	33
434.2557	33
434.2616	25
434.2704	16
452.2419	25
452.2449	16
452.2479	16
452.2539	16
452.2569	16
452.2659	16
452.2689	33
452.2719	57
452.2749	57
452.2779	25
452.2809	16
452.2839	25
452.2869	33
452.2899	33
452.2929	25
452.2959	16
452.3109	16
502.2782	16
502.2971	25
502.3066	16
502.3193	16
520.2845	25
520.2877	16
520.2909	16
520.2941	25
520.3006	25
520.3038	16
520.307	16
520.3102	16
659.4216	33
659.4252	16
659.4289	16
659.4325	16
659.4398	16
659.4434	16
659.447	25
659.4579	16
659.4615	16
728.4838	16
729.703	18
730.4083	16
730.4312	17
730.435	42
730.4388	41
730.4426	42
730.4503	26
730.454	72
730.4579	145
730.4617	90
730.4655	127
730.4694	275
730.4731	191
730.477	256
730.4808	445
730.4846	496
730.4884	580
730.4922	722
730.496	709
730.4998	865
730.5037	757
730.5074	999
730.5113	902
730.5151	808
730.5189	730
730.5227	811
730.5266	574
730.5303	406
730.5342	324
730.538	247
730.5418	165
730.5456	147
730.5494	100
730.5532	65
730.5571	54
730.5609	64
730.5647	35
730.5685	18
730.5761	9
730.5799	30
730.5837	26
731.5261	16
731.5413	16
745.4601	16
745.464	25
745.4987	16
804.4987	16
804.5027	25
804.5107	33
804.5147	25
804.5187	16
804.5227	41
804.5267	82
804.5307	33
804.5347	49
804.5388	33
804.5427	49
804.5468	66
804.5507	25
804.5547	33
804.5587	16
804.5627	25
804.5667	25
