Mass spectrum: PC(17:1/13-HODE); LC-ESI-QTOF; MS2
Name: PC(17:1/13-HODE)
Class: Oxidized Phospholipid
Formula: C43H80NO9P
Exact mass: 786.087
SMILES: CCCCCCC\C=C/CCCCCCCC(=O)OCC(COP([O-])(=O)OCC[N+](C)(C)C)OC(=O)CCCCCCC\C=C/C=C/C(O)CCCCC
InChI: InChI=1S/C43H80NO9P/c1-6-8-10-11-12-13-14-15-16-17-20-23-26-30-34-42(46)50-38-41(39-52-54(48,49)51-37-36-44(3,4)5)53-43(47)35-31-27-24-21-18-19-22-25-29-33-40(45)32-28-9-7-2/h14-15,22,25,29,33,40-41,45H,6-13,16-21,23-24,26-28,30-32,34-39H2,1-5H3/b15-14-,25-22-,33-29+
Instrument: Acquity UPLC Peptide BEH C18 column (50 x 2.1 mm; 1.7 um), Sciex TripleTOF5600
Instrument type: LC-ESI-QTOF
Ms type: MS2
Ion mode: NEGATIVE
Collision energy: 30-50
Precursor m/z: 844.5709227
Precursor type: [M+CH3COOH-H]-
m/z	relative intensity
141.0169	32
195.1339	32
195.1379	32
195.1418	32
195.1438	48
224.0626	32
224.0711	48
265.1449	32
267.2122	32
267.2191	147
267.2214	211
267.2237	243
267.226	440
267.2283	373
267.2306	405
267.2329	488
267.2352	488
267.2375	373
267.2398	243
267.2422	227
267.2444	195
267.2468	80
267.2491	99
267.2514	32
267.2537	48
267.256	48
277.201	32
277.2033	64
277.2104	64
277.2127	32
277.2151	48
277.2174	80
277.2198	32
277.2221	32
277.2245	48
277.2268	32
279.2297	48
283.2594	48
283.269	32
293.1714	32
295.2043	48
295.2115	115
295.214	131
295.2164	211
295.2188	389
295.2212	373
295.2236	472
295.2261	472
295.2285	440
295.2309	472
295.2333	373
295.2358	227
295.2382	80
295.2406	163
295.243	115
295.2455	48
295.2479	48
295.2503	48
295.2527	64
295.2576	32
295.2697	32
374.9903	32
457.0102	32
492.3006	32
492.3037	32
492.31	64
492.3131	64
492.3162	48
492.3319	32
492.3381	32
517.0131	32
520.2972	32
520.3004	32
520.3068	32
520.3101	32
520.3133	32
520.3165	64
699.4398	32
768.1594	32
770.4723	67
770.4762	48
770.4801	67
770.4841	131
770.488	198
770.4919	166
770.4958	265
770.4997	348
770.5036	348
770.5076	399
770.5115	450
770.5154	718
770.5193	718
770.5232	705
770.5271	887
770.5311	654
770.535	788
770.5389	999
770.5428	785
770.5467	855
770.5507	852
770.5546	753
770.5585	603
770.5624	520
770.5663	469
770.5702	236
770.5742	217
770.5781	246
770.582	198
770.5859	147
770.5898	64
770.5938	64
770.5977	48
770.6016	32
770.6055	48
770.6133	32
771.5576	32
771.5732	32
785.5259	32
844.5498	48
844.5539	48
844.558	48
844.5621	32
844.5662	99
844.5703	115
844.5744	64
844.5785	64
844.5826	64
844.5867	48
844.5908	48
844.5949	48
844.6031	48
844.6072	115
844.6113	32
844.6195	64
844.6277	32
844.6318	48
