Mass spectrum: PE(16:1/8,9-EpETE); LC-ESI-QTOF; MS2
Name: PE(16:1/8,9-EpETE)
Class: Oxidized Phospholipid
Formula: C41H70NO9P
Exact mass: 751.985
SMILES: CCCCCC\C=C/CCCCCCCC(=O)OCC(COP(O)(=O)OCCN)OC(=O)CCC\C=C/CC1OC1C\C=C/C\C=C/C\C=C/CC
InChI: InChI=1S/C41H70NO9P/c1-3-5-7-9-11-13-14-15-16-18-20-22-27-31-40(43)47-35-37(36-49-52(45,46)48-34-33-42)50-41(44)32-28-24-23-26-30-39-38(51-39)29-25-21-19-17-12-10-8-6-4-2/h6,8,12-14,17,21,23,25-26,37-39H,3-5,7,9-11,15-16,18-20,22,24,27-36,42H2,1-2H3,(H,45,46)/b8-6-,14-13-,17-12-,25-21-,26-23-
Instrument: Acquity UPLC Peptide BEH C18 column (50 x 2.1 mm; 1.7 um), Sciex TripleTOF5600
Instrument type: LC-ESI-QTOF
Ms type: MS2
Ion mode: NEGATIVE
Collision energy: 30-50
Precursor m/z: 750.4715433
Precursor type: [M-H]-
m/z	relative intensity
78.96021	31
96.9586	31
123.0796	46
123.0843	62
123.0874	31
123.0952	31
127.075	77
127.0781	46
127.0797	46
127.0845	31
140.0044	31
140.0094	31
149.139	46
149.1424	31
155.0674	31
155.0727	46
161.1328	31
161.14	31
163.1126	31
167.0665	46
167.072	31
196.038	31
196.04	46
227.1908	31
253.1947	31
253.2015	62
253.2037	142
253.2059	188
253.2082	392
253.2104	268
253.2127	456
253.2149	487
253.2172	660
253.2194	518
253.2217	441
253.2239	299
253.2262	204
253.2284	219
253.2306	157
253.2329	62
253.2351	31
253.2396	31
255.2014	31
255.2081	62
255.2104	77
255.2149	111
255.2171	31
255.2262	62
255.2284	46
255.2442	46
271.2257	31
273.2208	46
273.2348	31
278.9906	31
283.2584	31
299.1922	31
299.1946	62
299.1995	31
299.2044	46
299.2068	46
299.2117	46
299.2141	46
317.1832	31
317.1857	31
317.1882	31
317.1907	31
317.1932	46
317.1957	46
317.1982	96
317.2007	126
317.2032	157
317.2058	173
317.2083	219
317.2108	234
317.2133	157
317.2158	204
317.2184	253
317.2209	204
317.2234	142
317.2259	111
317.2284	46
317.2309	31
317.2334	31
409.2335	31
432.237	31
432.2488	31
432.2546	31
432.2664	31
450.2295	31
450.2385	46
450.2444	46
450.2474	62
450.2534	77
450.2564	62
450.2594	46
450.2624	96
450.2654	111
450.2684	96
450.2714	31
450.2744	111
450.2774	111
450.2804	62
450.2834	31
450.2863	31
496.2544	46
514.2363	31
514.2427	31
750.416	96
750.4199	62
750.4238	77
750.4276	77
750.4315	96
750.4354	160
750.4392	290
750.4431	388
750.447	515
750.4508	530
750.4547	632
750.4586	555
750.4624	536
750.4662	786
750.4702	836
750.474	931
750.4778	718
750.4818	980
750.4856	900
750.4894	931
750.4933	866
750.4972	718
750.501	999
750.5049	820
750.5088	669
750.5126	407
750.5165	392
750.5204	339
750.5242	148
750.5281	194
750.532	111
750.5358	62
750.5397	46
750.5436	31
750.5474	46
750.5513	31
751.4639	31
751.4793	62
751.4832	31
751.4909	46
751.4987	31
