Mass spectrum: Cer[NS] d40:2; LC-ESI-QTOF; MS2
Name: Cer[NS] d40:2
Class: Cer_NS
Formula: C40H77NO3
Exact mass: 620.0599999999998
SMILES: CCCCCCCCCCCCC\C=C\C(O)C(CO)NC(=O)CCCCCCCCC\C=C/CCCCCCCCCC
InChI: InChI=1S/C40H77NO3/c1-3-5-7-9-11-13-15-17-18-19-20-21-22-24-26-28-30-32-34-36-40(44)41-38(37-42)39(43)35-33-31-29-27-25-23-16-14-12-10-8-6-4-2/h19-20,33,35,38-39,42-43H,3-18,21-32,34,36-37H2,1-2H3,(H,41,44)/b20-19-,35-33+
Instrument: AB Sciex TripleTOF 5600+ system (Q-TOF) equipped with a DuoSpray ion source
Instrument type: LC-ESI-QTOF
Ms type: MS2
Ion mode: NEGATIVE
Collision energy: 45V
Column name: Acquity UPLC Peptide BEH C18 column (50*2.1 mm; 1.7 um; 130A)(Waters Co.,Milford, MA, USA)
Retention time: 12.25477
Precursor type: [M+CH3COOH-H]-
Precursor m/z: 678.6033
m/z	relative intensity
237.211	33
237.223	133
263.236	120
319.282	52
319.302	66
319.319	13
329.016	13
336.322	128
336.336	60
337.311	100
362.325	81
362.343	545
376.343	13
378.328	88
390.371	33
570.552	86
586.536	33
586.564	73
588.538	20
588.56	40
588.571	60
588.581	33
588.607	26
600.563	34
602.577	13
618.548	197
618.559	314
618.569	399
618.586	999
