Mass spectrum: Cer[AS] d42:2; LC-ESI-QTOF; MS2
Name: Cer[AS] d42:2
Class: Cer_AS
Formula: C42H81NO4
Exact mass: 664.1129999999999
SMILES: CCCCCCCCCCCCC\C=C\C(O)C(CO)NC(=O)C(O)CCCCCCCC\C=C/CCCCCCCCCCCC
InChI: InChI=1S/C42H81NO4/c1-3-5-7-9-11-13-15-17-18-19-20-21-22-23-25-27-29-31-33-35-37-41(46)42(47)43-39(38-44)40(45)36-34-32-30-28-26-24-16-14-12-10-8-6-4-2/h21-22,34,36,39-41,44-46H,3-20,23-33,35,37-38H2,1-2H3,(H,43,47)/b22-21-,36-34+
Instrument: AB Sciex TripleTOF 5600+ system (Q-TOF) equipped with a DuoSpray ion source
Instrument type: LC-ESI-QTOF
Ms type: MS2
Ion mode: NEGATIVE
Collision energy: 45V
Column name: Acquity UPLC Peptide BEH C18 column (50*2.1 mm; 1.7 um; 130A)(Waters Co.,Milford, MA, USA)
Retention time: 12.9035
Precursor type: [M+CH3COOH-H]-
Precursor m/z: 722.6282
m/z	relative intensity
237.222	17
239.229	4
239.243	7
250.255	9
255.233	2
262.256	2
263.235	10
266.251	13
268.25	9
268.271	21
271.216	3
278.249	2
280.262	6
290.246	3
298.274	10
298.286	3
308.257	2
335.332	61
363.32	21
363.339	9
365.336	3
376.355	2
380.335	3
380.353	15
381.335	42
388.354	9
392.353	2
406.364	58
422.352	5
422.363	21
424.368	7
424.39	4
596.585	4
614.54	5
614.585	40
626.598	4
630.555	5
630.592	9
632.595	6
637.589	5
644.556	3
644.596	25
644.643	2
662.098	1
662.527	2
662.606	999
662.68	2
663.637	2
722.57	1
