Mass spectrum: PC(18:2/14,15-EpETE); LC-ESI-QTOF; MS2
Name: PC(18:2/14,15-EpETE)
Class: Oxidized Phospholipid
Formula: C46H78NO9P
Exact mass: 820.104
SMILES: CCCCC\C=C/C\C=C/CCCCCCCC(=O)OCC(COP([O-])(=O)OCC[N+](C)(C)C)OC(=O)CCC\C=C/C\C=C/C\C=C/CC1OC1C\C=C/CC
InChI: InChI=1S/C46H78NO9P/c1-6-8-10-11-12-13-14-15-16-17-18-22-25-28-32-36-45(48)52-40-42(41-54-57(50,51)53-39-38-47(3,4)5)55-46(49)37-33-29-26-23-20-19-21-24-27-31-35-44-43(56-44)34-30-9-7-2/h9,12-13,15-16,19,21,23,26-27,30-31,42-44H,6-8,10-11,14,17-18,20,22,24-25,28-29,32-41H2,1-5H3/b13-12-,16-15-,21-19-,26-23-,30-9-,31-27-
Instrument: Acquity UPLC Peptide BEH C18 column (50 x 2.1 mm; 1.7 um), Sciex TripleTOF5600
Instrument type: LC-ESI-QTOF
Ms type: MS2
Ion mode: NEGATIVE
Collision energy: 30-50
Precursor m/z: 878.5552726
Precursor type: [M+CH3COOH-H]-
m/z	relative intensity
151.1081	13
151.1133	13
163.147	13
163.1505	13
168.0361	26
168.0397	13
168.0415	38
168.0452	13
175.1067	13
175.1401	13
175.1494	13
175.1568	13
177.087	13
177.0889	13
191.1076	26
207.123	13
207.1271	13
207.1291	13
207.1331	26
207.1352	26
207.1372	158
207.1392	13
207.1412	38
207.1432	13
207.1452	13
207.1473	13
209.0978	13
209.112	13
217.1648	13
217.1999	13
219.1244	13
219.1327	13
219.1348	51
219.1369	26
219.1389	13
219.1514	13
219.1722	13
220.145	13
220.1471	13
224.0578	13
224.062	13
224.0662	13
224.0704	13
224.0725	13
224.0767	13
235.1355	26
235.1463	13
247.135	13
247.1394	13
247.146	13
248.1281	13
248.1326	26
248.1348	13
248.137	26
248.1392	13
248.1414	26
248.1436	13
248.1458	13
248.148	13
248.1569	13
249.0525	13
249.0547	13
251.1997	13
251.2086	26
251.2108	13
251.2174	13
255.2034	26
255.2056	79
255.2101	13
255.2123	38
255.2146	26
255.2168	13
255.2325	13
279.2104	13
279.2128	13
279.2151	13
279.2175	102
279.2198	96
279.2222	117
279.2245	149
279.2268	283
279.2292	241
279.2315	271
279.2339	283
279.2362	239
279.2386	181
279.2409	158
279.2433	64
279.2456	26
279.2479	26
279.2503	13
279.255	26
289.2165	13
289.2213	13
299.1876	13
299.1925	13
299.1949	38
299.1973	13
299.1998	38
299.2022	38
299.2046	51
299.207	26
299.2095	13
299.2119	13
299.2167	13
317.1817	13
317.1867	13
317.1892	13
317.1917	13
317.1942	13
317.1967	70
317.1992	51
317.2017	51
317.2042	111
317.2067	149
317.2092	166
317.2117	151
317.2142	141
317.2167	81
317.2191	83
317.2216	64
317.2242	64
317.2267	38
317.2292	26
317.2367	13
342.1122	13
342.1251	13
390.9021	26
452.9435	13
452.9674	13
462.4854	13
462.4884	13
486.2708	13
486.2893	13
486.2955	13
504.2799	13
504.2831	13
504.2894	13
504.2925	38
504.2957	70
504.2988	51
504.3019	13
504.3051	26
504.3083	38
504.3114	68
504.3145	51
504.3177	26
504.3209	38
504.324	13
504.3271	13
504.3303	13
506.225	13
506.2566	13
524.2723	13
524.2787	26
524.2947	13
524.298	13
542.2665	13
542.2697	13
542.2762	13
542.2828	38
542.2861	26
542.2926	26
542.2958	26
542.2991	26
542.3057	26
590.9883	13
590.9918	13
636.689	13
636.696	13
722.6005	13
722.6269	13
733.4272	13
733.4842	13
801.9597	13
801.9915	13
803.5015	13
803.5333	13
804.4599	26
804.4639	13
804.4679	13
804.4719	26
804.4758	64
804.4798	70
804.4838	153
804.4878	181
804.4918	445
804.4957	266
804.4997	494
804.5037	552
804.5077	635
804.5117	999
804.5156	812
804.5196	809
804.5236	711
804.5275	703
804.5316	562
804.5355	454
804.5395	339
804.5435	300
804.5474	130
804.5514	187
804.5554	111
804.5594	87
804.5634	64
804.5673	72
804.5713	13
804.5793	26
804.6867	13
804.7106	13
805.5303	13
805.5702	13
810.5059	13
810.5698	13
817.5165	13
817.5727	13
818.4471	26
819.4586	13
819.4626	13
819.4706	13
819.4747	13
819.4827	51
819.4867	13
819.4907	13
819.4988	13
819.5068	13
875.7552	13
875.7802	13
878.4344	13
878.4551	13
878.505	13
878.5092	13
878.5134	13
878.5175	26
878.5217	26
878.5258	26
878.53	26
878.5341	38
878.5383	102
878.5425	158
878.5466	128
878.5508	98
878.5549	170
878.5591	158
878.5632	68
878.5674	68
878.5715	109
878.5757	51
878.5798	26
878.584	64
878.5882	13
878.5923	26
878.5965	38
878.6006	26
878.6173	13
878.6215	13
878.7004	13
