Mass spectrum: Cer[NS] d30:1; LC-ESI-QTOF; MS2
Name: Cer[NS] d30:1
Class: Cer_NS
Formula: C30H59NO3
Exact mass: 481.806
SMILES: CCCCCCCCCCCCC\C=C\C(O)C(CO)NC(=O)CCCCCCCCCCC
InChI: InChI=1S/C30H59NO3/c1-3-5-7-9-11-13-14-15-16-18-19-21-23-25-29(33)28(27-32)31-30(34)26-24-22-20-17-12-10-8-6-4-2/h23,25,28-29,32-33H,3-22,24,26-27H2,1-2H3,(H,31,34)/b25-23+
Instrument: AB Sciex TripleTOF 5600+ system (Q-TOF) equipped with a DuoSpray ion source
Instrument type: LC-ESI-QTOF
Ms type: MS2
Ion mode: NEGATIVE
Collision energy: 45V
Column name: Acquity UPLC Peptide BEH C18 column (50*2.1 mm; 1.7 um; 130A)(Waters Co.,Milford, MA, USA)
Retention time: 8.445436
Precursor type: [M+CH3COOH-H]-
Precursor m/z: 540.4617
m/z	relative intensity
179.144	7
180.176	5
181.158	243
183.175	5
197.19	55
197.205	5
198.185	190
199.169	102
212.201	5
222.184	8
223.507	4
224.201	999
225.223	5
235.206	13
237.221	283
238.184	6
239.191	3
239.236	11
240.196	142
242.211	3
250.252	18
251.243	1
254.212	3
255.23	5
263.237	164
266.247	48
268.263	43
281.25	5
294.244	1
298.274	13
405.411	6
421.404	3
422.435	1
430.405	4
431.083	1
432.42	175
444.418	5
447.008	3
447.333	4
448.384	5
448.414	143
449.008	1
450.428	199
452.445	2
462.431	7
478.887	0
478.928	6
480.018	1
480.185	1
480.44	963
481.438	2
