Mass spectrum: PC 38:1; LC-ESI-QTOF; MS2
Name: PC 38:1
Class: PC
Formula: C46H90NO8P
Exact mass: 816.2009999999999
SMILES: CCCCCCCCCCCCCCCCCC(=O)OCC(COP([O-])(=O)OCC[N+](C)(C)C)OC(=O)CCCCCCCCC\C=C/CCCCCCCC
InChI: InChI=1S/C46H90NO8P/c1-6-8-10-12-14-16-18-20-22-23-25-27-29-31-33-35-37-39-46(49)55-44(43-54-56(50,51)53-41-40-47(3,4)5)42-52-45(48)38-36-34-32-30-28-26-24-21-19-17-15-13-11-9-7-2/h20,22,44H,6-19,21,23-43H2,1-5H3/b22-20-
Instrument: AB Sciex TripleTOF 5600+ system (Q-TOF) equipped with a DuoSpray ion source
Instrument type: LC-ESI-QTOF
Ms type: MS2
Ion mode: NEGATIVE
Collision energy: 45V
Column name: Acquity UPLC Peptide BEH C18 column (50*2.1 mm; 1.7 um; 130A)(Waters Co.,Milford, MA, USA)
Retention time: 12.27922
Precursor type: [M+CH3COOH-H]-
Precursor m/z: 874.6551
m/z	relative intensity
168.04	7
224.07	10
253.211	12
253.229	6
255.222	10
255.234	22
280.368	5
281.247	381
283.263	136
308.237	2
308.321	5
309.277	352
311.295	156
337.31	20
339.327	10
341.383	2
355.328	7
356.324	6
357.338	3
367.353	4
369.355	4
396.352	4
418.238	3
440.726	2
480.311	2
488.299	2
490.324	8
503.355	5
504.353	5
505.354	6
506.325	7
508.337	25
518.357	6
536.366	26
588.571	5
618.586	9
633.614	6
634.604	13
636.567	43
636.597	59
636.622	18
727.597	6
748.592	6
787.594	16
796.632	16
798.633	9
799.662	15
800.563	32
800.613	999
800.639	174
800.669	53
801.605	9
814.647	25
814.674	40
814.712	6
815.569	14
828.646	6
874.612	12
874.625	25
874.644	75
874.658	33
874.672	28
874.683	14
