Mass spectrum: PC(18:1/11,12-EET); LC-ESI-QTOF; MS2
Name: PC(18:1/11,12-EET)
Class: Oxidized Phospholipid
Formula: C46H82NO9P
Exact mass: 824.136
SMILES: CCCCCCCC\C=C/CCCCCCCC(=O)OCC(COP([O-])(=O)OCC[N+](C)(C)C)OC(=O)CCC\C=C/C\C=C/CC1OC1C\C=C/CCCCC
InChI: InChI=1S/C46H82NO9P/c1-6-8-10-12-14-15-16-17-18-19-20-21-24-28-32-36-45(48)52-40-42(41-54-57(50,51)53-39-38-47(3,4)5)55-46(49)37-33-29-25-22-23-27-31-35-44-43(56-44)34-30-26-13-11-9-7-2/h17-18,22,25-27,30-31,42-44H,6-16,19-21,23-24,28-29,32-41H2,1-5H3/b18-17-,25-22-,30-26-,31-27-
Instrument: Acquity UPLC Peptide BEH C18 column (50 x 2.1 mm; 1.7 um), Sciex TripleTOF5600
Instrument type: LC-ESI-QTOF
Ms type: MS2
Ion mode: NEGATIVE
Collision energy: 30-50
Precursor m/z: 882.5865727
Precursor type: [M+CH3COOH-H]-
m/z	relative intensity
78.95637	13
78.96013	13
149.0992	13
152.994	26
152.9957	20
152.9974	13
163.1161	13
167.0956	13
167.0974	20
167.0993	32
167.1011	52
167.1029	64
167.1047	58
167.1066	84
167.1084	70
167.1102	70
167.112	45
167.1138	58
167.1157	13
167.1175	13
167.1212	13
168.0344	13
168.0362	13
168.0381	13
168.0399	13
168.0417	32
169.1336	13
179.0914	13
179.0932	13
179.097	13
179.0989	26
179.1008	26
179.1027	26
179.1046	32
179.1065	20
179.1084	45
179.1102	38
179.1121	20
179.114	32
179.1159	20
179.1216	13
203.1862	13
207.0966	13
207.0986	13
207.1047	20
207.7469	13
208.1029	32
208.105	13
208.107	13
208.109	32
208.1111	38
208.1131	26
208.1172	26
208.1192	13
208.1212	13
222.9929	20
222.995	20
222.9992	20
223.014	13
224.0603	26
224.0624	13
224.0645	26
224.0666	32
224.0688	20
240.9968	13
240.999	13
241.0012	26
241.0034	13
241.0056	32
241.0078	58
241.01	45
241.0122	26
241.0143	45
241.0165	38
241.0187	32
241.0209	13
241.0231	13
241.0253	20
242.0011	13
242.0252	13
242.0757	13
255.2238	38
255.226	26
255.2283	45
255.2305	20
255.2328	20
255.235	13
255.2373	45
255.2395	58
255.2418	38
255.244	13
256.2233	13
256.2256	13
256.2278	13
256.2301	20
256.2324	13
256.2414	38
256.2437	13
256.2459	20
257.218	20
257.2203	45
257.2226	32
257.2248	38
257.2271	13
257.2293	32
257.2316	13
257.2361	45
257.2384	20
257.2429	20
259.0225	13
275.2254	20
275.2278	13
275.2301	13
275.2325	13
275.2372	26
275.2442	32
279.238	13
279.2427	13
279.7286	13
281.2197	13
281.2268	33
281.2292	47
281.2315	53
281.2339	47
281.2363	220
281.2386	147
281.241	221
281.2434	302
281.2457	337
281.2481	433
281.2505	418
281.2528	345
281.2552	311
281.2576	284
281.2599	162
281.2623	108
281.2646	61
281.267	67
281.2694	47
281.2718	34
281.2741	26
281.2765	13
281.2812	7
281.6837	7
282.2452	7
282.2499	13
283.2298	20
283.2321	20
283.2345	13
283.2369	13
283.244	13
283.2488	7
284.2351	13
291.226	13
291.2308	13
297.0287	26
297.0385	20
301.1967	13
301.1991	26
301.2016	13
301.204	13
301.2065	20
301.2089	45
301.2114	26
301.2138	32
301.2162	20
301.2187	58
301.2211	32
301.2236	45
301.226	45
301.2285	26
301.2334	13
315.5367	13
316.5978	13
318.2242	20
318.2418	13
318.3098	13
319.1789	13
319.1965	13
319.199	20
319.2016	79
319.2041	52
319.2066	60
319.2091	74
319.2116	74
319.2142	108
319.2167	207
319.2192	207
319.2217	260
319.2242	274
319.2268	389
319.2293	376
319.2318	313
319.2343	328
319.2368	174
319.2394	173
319.2419	94
319.2444	60
319.2469	47
319.2495	47
319.252	27
319.2545	27
319.2596	7
319.2621	20
319.2822	7
319.2848	7
320.2183	13
320.241	7
321.6338	13
327.2172	13
327.2223	20
327.2249	13
327.2274	13
327.23	20
327.2351	26
327.2376	26
327.2402	13
328.2236	20
328.2287	20
328.2313	13
328.2338	20
328.2364	20
328.2389	13
391.2254	13
391.231	20
391.2338	20
391.2365	32
391.2477	13
392.2167	20
392.2195	20
392.2279	13
409.2362	13
409.2448	13
416.2304	13
458.5968	20
463.2497	13
488.2996	13
488.3027	13
488.3058	26
488.3089	13
488.312	26
488.3214	20
488.3245	13
488.3339	20
488.337	13
506.2904	13
506.2935	13
506.2999	38
506.3031	26
506.3063	38
506.3094	26
506.3126	52
506.3158	58
506.319	77
506.3221	77
506.3253	109
506.3285	77
506.3317	77
506.3348	70
506.338	64
506.3412	64
506.3444	38
506.3507	13
506.3539	32
506.3571	13
526.2917	20
526.3144	13
544.3079	13
544.3145	13
544.321	13
544.3243	13
553.2554	13
553.2587	13
553.272	13
553.2753	20
553.2786	13
553.2819	26
553.2886	20
554.2548	13
554.2714	13
554.2781	20
554.2814	26
554.2847	13
554.3013	13
554.3046	26
554.308	13
554.3212	13
571.2748	13
571.2883	13
571.2984	13
572.2971	13
579.3226	13
625.2685	13
626.2709	13
626.2886	20
763.4707	13
797.5345	13
805.9604	13
805.9964	13
806.0445	13
808.4658	26
808.4779	13
808.4859	13
808.4899	42
808.494	14
808.4979	71
808.502	131
808.506	50
808.51	145
808.514	172
808.518	260
808.522	251
808.526	400
808.53	610
808.5341	695
808.5381	685
808.5421	801
808.5461	902
808.5501	868
808.5541	940
808.5581	999
808.5621	951
808.5662	919
808.5702	902
808.5742	768
808.5782	888
808.5822	604
808.5862	612
808.5902	381
808.5942	286
808.5983	238
808.6022	155
808.6063	138
808.6103	99
808.6143	93
808.6183	79
808.6223	45
808.6263	47
808.6303	14
808.6343	8
808.6424	16
808.6624	8
809.5294	32
809.5334	26
809.5374	20
809.5454	20
809.5494	33
809.5574	26
809.5615	26
809.5655	38
809.5695	13
809.5775	13
809.5815	13
809.5856	26
809.5895	38
809.5976	13
811.6022	13
823.4873	13
823.4913	13
823.5035	13
823.5075	20
823.5318	13
823.5439	20
823.5561	13
865.4749	13
879.7921	13
882.4139	13
882.4182	13
882.4223	20
882.4391	20
882.4559	45
882.46	26
882.4642	13
882.4684	39
882.4726	55
882.4768	62
882.481	82
882.4852	118
882.4894	160
882.4936	162
882.4977	173
882.502	259
882.5062	238
882.5103	219
882.5145	384
882.5187	285
882.5229	399
882.5271	414
882.5313	406
882.5355	555
882.5397	490
882.5439	561
882.5481	435
882.5522	290
882.5565	383
882.5607	334
882.5648	262
882.569	274
882.5732	192
882.5774	176
882.5816	176
882.5858	191
882.59	112
882.5942	121
882.5984	101
882.6025	65
882.6068	72
882.611	48
882.6151	72
882.6193	82
882.6235	46
882.6277	59
882.6319	40
882.6361	36
882.6403	36
882.6445	36
882.6528	13
883.4621	13
883.483	20
883.4872	13
883.4915	13
883.4957	26
883.4998	32
883.504	20
883.5082	26
883.5124	13
883.5166	45
883.5208	52
883.525	52
883.5292	84
883.5334	52
883.5376	45
883.5417	45
883.546	45
883.5502	52
883.5543	64
883.5585	45
883.5627	26
883.567	20
883.5711	32
883.5753	52
883.5795	45
883.5837	20
883.5879	20
883.5921	13
883.6005	26
