Mass spectrum: PI(16:0/12-HEPE); LC-ESI-QTOF; MS2
Name: PI(16:0/12-HEPE)
Class: Oxidized Phospholipid
Formula: C45H77O14P
Exact mass: 873.073
SMILES: CCCCCCCCCCCCCCCC(=O)OCC(COP(O)(=O)OC1C(O)C(O)C(O)C(O)C1O)OC(=O)CCC\C=C/C\C=C/C=C/C(O)C\C=C/C\C=C/CC
InChI: InChI=1S/C45H77O14P/c1-3-5-7-9-11-12-13-14-15-16-20-24-28-32-38(47)56-34-37(35-57-60(54,55)59-45-43(52)41(50)40(49)42(51)44(45)53)58-39(48)33-29-25-21-18-17-19-23-27-31-36(46)30-26-22-10-8-6-4-2/h6,8,18-19,21-23,26-27,31,36-37,40-46,49-53H,3-5,7,9-17,20,24-25,28-30,32-35H2,1-2H3,(H,54,55)/b8-6-,21-18-,23-19-,26-22-,31-27+
Instrument: Acquity UPLC Peptide BEH C18 column (50 x 2.1 mm; 1.7 um), Sciex TripleTOF5600
Instrument type: LC-ESI-QTOF
Ms type: MS2
Ion mode: NEGATIVE
Collision energy: 30-50
Precursor m/z: 871.4978177
Precursor type: [M-H]-
m/z	relative intensity
78.95943	19
179.1051	19
179.107	28
179.1089	28
179.1127	28
201.1705	19
208.0954	19
208.1035	19
208.1116	19
208.1177	19
223.004	19
223.0103	28
240.9973	19
241.0017	38
241.0039	59
241.0061	106
241.0083	78
241.0105	68
241.0127	87
241.0149	87
241.0171	68
241.0193	59
241.0258	19
241.0302	19
255.2062	19
255.213	38
255.2153	28
255.2198	59
255.222	28
255.2243	47
255.2265	68
255.2288	38
255.231	78
255.2333	106
255.2355	106
255.2378	28
255.24	19
255.2423	38
255.2446	28
255.2468	19
273.2119	19
297.0243	28
297.0365	19
297.0413	28
297.0681	19
299.1998	19
315.0536	19
317.196	19
317.1985	68
317.201	38
317.2036	59
317.2061	78
317.2086	47
317.2111	47
317.2136	116
317.2161	68
317.2186	38
317.2211	68
317.2237	38
317.2262	38
317.2287	38
317.2312	19
317.2362	28
391.2089	28
391.2117	28
391.2145	28
391.2173	38
391.2229	28
391.2285	28
391.234	19
391.2368	59
453.2043	19
453.2133	19
453.2283	28
553.252	19
553.262	19
553.2653	59
553.2686	28
553.272	19
553.2753	19
553.2786	28
553.2819	28
553.2852	28
553.2886	19
553.2952	38
553.3018	19
553.3051	19
553.3118	19
571.2747	19
571.2916	28
571.295	19
571.3118	19
615.2394	19
615.2534	28
615.257	28
615.2604	47
615.278	19
615.2849	19
719.3811	19
868.7482	19
868.7648	19
868.7772	19
871.3951	19
871.4076	19
871.4118	19
871.4201	28
871.4285	49
871.4326	59
871.4368	110
871.4409	197
871.4451	100
871.4493	286
871.4534	341
871.4576	364
871.4617	292
871.4659	466
871.4701	461
871.4742	459
871.4784	637
871.4826	586
871.4868	823
871.4909	855
871.4951	741
871.4993	955
871.5034	969
871.5076	811
871.5118	999
871.5159	916
871.5201	701
871.5242	669
871.5284	588
871.5326	453
871.5367	402
871.5409	451
871.545	440
871.5493	290
871.5534	167
871.5576	155
871.5617	112
871.5659	102
871.5701	104
871.5742	23
871.5784	19
871.5826	32
871.5867	23
871.595	19
871.5992	32
872.4867	28
872.4909	19
872.4951	19
872.5034	28
872.5076	28
872.5117	47
872.5242	38
872.5325	19
872.5367	28
874.7387	19
