Mass spectrum: PE 44:10; LC-ESI-QTOF; MS2
Name: PE 44:10
Class: PE
Formula: C49H78NO8P
Exact mass: 840.1379999999999
SMILES: CC\C=C/C\C=C/C\C=C/C\C=C/CCCCCCCCC(=O)OCC(COP(O)(=O)OCCN)OC(=O)CC\C=C/C\C=C/C\C=C/C\C=C/C\C=C/C\C=C/CC
InChI: InChI=1S/C49H78NO8P/c1-3-5-7-9-11-13-15-17-19-21-23-25-27-29-31-33-35-37-39-41-48(51)55-45-47(46-57-59(53,54)56-44-43-50)58-49(52)42-40-38-36-34-32-30-28-26-24-22-20-18-16-14-12-10-8-6-4-2/h5-8,11-14,17-20,23-26,30,32,36,38,47H,3-4,9-10,15-16,21-22,27-29,31,33-35,37,39-46,50H2,1-2H3,(H,53,54)/b7-5-,8-6-,13-11-,14-12-,19-17-,20-18-,25-23-,26-24-,32-30-,38-36-
Instrument: AB Sciex TripleTOF 5600+ system (Q-TOF) equipped with a DuoSpray ion source
Instrument type: LC-ESI-QTOF
Ms type: MS2
Ion mode: NEGATIVE
Collision energy: 45V
Column name: Acquity UPLC Peptide BEH C18 column (50*2.1 mm; 1.7 um; 130A)(Waters Co.,Milford, MA, USA)
Retention time: 9.373588
Precursor type: [M-H]-
Precursor m/z: 838.5397
m/z	relative intensity
78.958	7
122.002	3
140.011	17
140.022	4
149.136	4
163.143	4
177.162	7
191.181	6
196.039	23
229.195	26
249.185	13
255.227	5
282.347	2
283.243	209
283.265	16
287.274	13
303.236	4
309.218	2
313.254	2
325.227	3
326.204	5
327.23	551
328.241	2
329.243	10
329.277	3
331.261	394
419.257	6
450.231	2
506.249	9
506.289	5
510.288	14
510.315	7
512.712	1
524.273	12
528.279	20
528.308	78
528.333	15
528.355	4
751.495	3
751.54	9
764.536	1
766.534	2
835.868	2
835.936	3
838.294	1
838.461	8
838.54	999
838.615	10
838.771	1
839.546	4
