Mass spectrum: PE(18:0/9-HODE); LC-ESI-QTOF; MS2
Name: PE(18:0/9-HODE)
Class: Oxidized Phospholipid
Formula: C41H78NO9P
Exact mass: 760.049
SMILES: CCCCCCCCCCCCCCCCCC(=O)OCC(COP(O)(=O)OCCN)OC(=O)CCCCCCCC(O)\C=C\C=C/CCCCC
InChI: InChI=1S/C41H78NO9P/c1-3-5-7-9-11-12-13-14-15-16-17-18-20-24-28-32-40(44)48-36-39(37-50-52(46,47)49-35-34-42)51-41(45)33-29-25-21-23-27-31-38(43)30-26-22-19-10-8-6-4-2/h19,22,26,30,38-39,43H,3-18,20-21,23-25,27-29,31-37,42H2,1-2H3,(H,46,47)/b22-19-,30-26+
Instrument: Acquity UPLC Peptide BEH C18 column (50 x 2.1 mm; 1.7 um), Sciex TripleTOF5600
Instrument type: LC-ESI-QTOF
Ms type: MS2
Ion mode: NEGATIVE
Collision energy: 30-50
Precursor m/z: 758.5341436
Precursor type: [M-H]-
m/z	relative intensity
171.0951	123
171.0988	123
171.1006	190
171.1024	190
171.1061	123
255.2294	313
255.2316	123
255.2339	190
277.2108	251
277.2132	123
277.2155	374
277.2179	313
277.2202	190
277.2226	251
277.2249	123
277.2273	313
277.2296	123
279.2466	123
281.245	123
281.2473	123
281.2521	190
283.248	123
283.2504	123
283.2528	190
283.2552	313
283.2575	503
283.2623	625
283.2646	435
283.267	374
283.2694	503
283.2718	503
283.2741	190
283.2765	123
283.2789	251
283.2813	123
283.2837	123
283.286	123
295.212	313
295.2144	190
295.2169	374
295.2193	313
295.2217	564
295.2241	748
295.2266	999
295.229	625
295.2314	876
295.2338	435
295.2362	564
295.2387	503
295.2411	251
295.2459	251
480.3127	251
480.3189	123
480.322	190
671.4412	123
671.4594	190
671.4631	190
671.4667	123
671.4704	123
671.485	123
671.4886	123
758.4734	123
758.489	123
758.4968	190
758.5006	374
758.5045	313
758.5084	503
758.5162	564
758.5201	564
758.5239	435
758.5278	876
758.5317	686
758.5356	686
758.5395	748
758.5434	503
758.5472	815
758.5511	374
758.5551	564
758.5589	564
758.5628	503
758.5667	251
758.5745	251
758.5784	123
758.5822	123
758.6017	123
