Mass spectrum: PE(18:2e/20-HDoHE); LC-ESI-QTOF; MS2
Name: PE(18:2e/20-HDoHE)
Class: Oxidized Phospholipid
Formula: C45H76NO8P
Exact mass: 790.078
SMILES: CCCCCCCCCCCCC\C=C/C\C=C/OCC(COP(O)(=O)OCCN)OC(=O)CC\C=C/C\C=C/C\C=C/C\C=C/C\C=C/C=C/C(O)CC
InChI: InChI=1S/C45H76NO8P/c1-3-5-6-7-8-9-10-11-12-17-20-23-26-29-32-35-39-51-41-44(42-53-55(49,50)52-40-38-46)54-45(48)37-34-31-28-25-22-19-16-14-13-15-18-21-24-27-30-33-36-43(47)4-2/h13-14,18-19,21-22,26-31,33,35-36,39,43-44,47H,3-12,15-17,20,23-25,32,34,37-38,40-42,46H2,1-2H3,(H,49,50)/b14-13-,21-18-,22-19-,29-26-,30-27-,31-28-,36-33+,39-35-
Instrument: Acquity UPLC Peptide BEH C18 column (50 x 2.1 mm; 1.7 um), Sciex TripleTOF5600
Instrument type: LC-ESI-QTOF
Ms type: MS2
Ion mode: NEGATIVE
Collision energy: 30-50
Precursor m/z: 788.5235789
Precursor type: [M-H]-
m/z	relative intensity
78.96134	26
107.0869	54
121.1026	26
133.0996	26
135.1159	26
152.9957	26
187.1445	26
187.1464	26
187.1522	26
187.1541	26
187.158	26
196.0339	26
196.0359	54
196.0379	54
196.0399	40
196.0438	26
207.1393	26
227.1715	26
227.1779	26
227.1821	26
227.1864	26
227.1928	26
241.1787	40
241.1809	26
241.1831	26
241.1853	107
241.1896	133
241.1918	93
241.194	120
241.1962	93
241.1984	120
241.2006	93
241.2028	80
241.205	54
241.2072	40
265.174	26
265.2521	26
265.2567	26
281.2079	26
281.2103	54
281.2126	67
281.215	107
281.2174	80
281.2197	67
281.2221	159
281.2245	146
281.2268	159
281.2292	107
281.2316	93
281.2339	120
281.2363	159
281.2387	26
281.241	26
281.2434	54
281.2458	54
281.2529	54
281.26	26
283.244	26
283.2464	26
283.2536	26
283.2631	40
283.2678	26
283.2773	26
285.1708	26
285.1732	54
285.1755	54
285.1803	40
285.1827	159
285.1851	26
285.1875	40
285.1922	80
285.1946	26
285.197	26
285.2137	26
299.2165	26
299.2189	26
299.2214	26
299.2238	54
299.2263	26
299.2287	40
299.2311	54
299.2336	107
299.236	67
299.2385	40
299.2409	133
299.2433	107
299.2458	93
299.2482	80
299.2507	54
299.2531	26
299.258	26
299.2604	26
325.1938	40
325.1964	54
325.1989	54
325.2015	26
325.204	67
325.2066	67
325.2091	146
325.2117	40
325.2142	67
325.2167	174
325.2193	159
325.2218	120
325.2244	107
325.2269	93
325.2295	67
325.232	54
325.2422	40
326.2124	27
326.215	27
341.1971	27
343.2016	26
343.2068	68
343.2095	162
343.2121	175
343.2147	202
343.2173	121
343.2199	380
343.2226	337
343.2252	259
343.2278	230
343.2304	366
343.233	350
343.2356	432
343.2382	255
343.2408	189
343.2435	95
343.2487	54
343.2513	26
343.2565	26
343.2591	54
419.2441	40
419.2615	26
444.2646	54
444.2675	40
444.2764	40
444.2794	67
444.2824	159
444.2854	40
444.2883	80
444.2913	93
444.2943	80
444.2973	54
444.3002	40
444.3032	40
444.3062	54
444.3092	80
444.3121	26
444.3151	26
444.9578	27
462.2694	54
462.2725	26
462.2755	40
462.2785	148
462.2816	107
462.2846	135
462.2876	146
462.2907	269
462.2937	242
462.2968	336
462.2998	375
462.3028	376
462.3058	349
462.3089	255
462.3119	256
462.3149	161
462.318	107
462.321	40
462.324	107
462.3271	26
462.3301	40
462.3331	26
462.3362	54
462.3483	26
701.4733	26
701.4995	26
701.507	26
701.5144	40
701.5256	40
701.5294	26
701.5443	26
788.4321	27
788.4559	42
788.4638	110
788.4678	82
788.4717	121
788.4797	124
788.4836	125
788.4876	273
788.4915	240
788.4955	212
788.4995	357
788.5034	559
788.5074	490
788.5114	637
788.5153	881
788.5193	710
788.5233	824
788.5272	697
788.5312	827
788.5351	855
788.5391	868
788.543	999
788.547	861
788.551	697
788.5549	522
788.5589	554
788.5629	565
788.5668	248
788.5708	260
788.5748	234
788.5787	131
788.5826	131
788.5866	43
788.5906	87
788.5945	43
788.5985	27
788.6025	43
788.6064	30
788.6144	14
788.6223	27
788.6302	33
788.6936	14
789.4943	54
789.5101	40
789.5141	40
789.522	26
789.5259	26
789.5339	40
789.5418	26
789.5458	40
789.5497	40
789.5616	26
