Mass spectrum: PI(18:0/14-HDoHE); LC-ESI-QTOF; MS2
Name: PI(18:0/14-HDoHE)
Class: Oxidized Phospholipid
Formula: C49H83O14P
Exact mass: 927.165
SMILES: CCCCCCCCCCCCCCCCCC(=O)OCC(COP(O)(=O)OC1C(O)C(O)C(O)C(O)C1O)OC(=O)CC\C=C/C\C=C/C\C=C/C=C/C(O)C\C=C/C\C=C/CC
InChI: InChI=1S/C49H83O14P/c1-3-5-7-9-11-12-13-14-15-16-17-21-24-28-32-36-42(51)60-38-41(39-61-64(58,59)63-49-47(56)45(54)44(53)46(55)48(49)57)62-43(52)37-33-29-25-22-19-18-20-23-27-31-35-40(50)34-30-26-10-8-6-4-2/h6,8,18-19,23,25-27,29-31,35,40-41,44-50,53-57H,3-5,7,9-17,20-22,24,28,32-34,36-39H2,1-2H3,(H,58,59)/b8-6-,19-18-,27-23-,29-25-,30-26-,35-31+
Instrument: Acquity UPLC Peptide BEH C18 column (50 x 2.1 mm; 1.7 um), Sciex TripleTOF5600
Instrument type: LC-ESI-QTOF
Ms type: MS2
Ion mode: NEGATIVE
Collision energy: 30-50
Precursor m/z: 925.5447679
Precursor type: [M-H]-
m/z	relative intensity
78.96406	22
78.96656	22
161.1311	22
170.0451	22
179.0537	22
205.1156	33
205.1237	22
205.1277	22
205.1297	22
205.1358	22
223.0013	22
240.9968	22
241.0012	43
241.0034	33
241.0056	22
241.01	119
241.0122	33
241.0144	43
241.0166	98
241.0187	43
241.0209	22
241.0231	43
241.0253	33
281.2362	22
283.2345	22
283.2463	22
283.2487	22
283.2511	22
283.2534	54
283.2558	22
283.2582	22
283.2606	87
283.263	33
283.2654	33
283.2677	33
283.2701	22
283.2725	43
283.2772	22
290.0761	22
290.0858	33
290.093	22
297.0408	22
299.2359	22
312.0674	22
325.214	22
325.2267	22
330.087	22
343.2067	22
343.2119	22
343.2145	33
343.2171	43
343.2197	54
343.2223	54
343.2249	54
343.2276	43
343.2302	33
343.2328	54
343.2354	22
343.238	54
343.2406	22
419.2409	22
419.264	22
419.2697	22
419.2784	43
470.135	22
470.1381	22
470.1411	22
470.1442	22
470.1472	22
470.1503	33
470.1564	22
470.1625	22
470.1687	54
470.1717	33
479.2157	22
479.2374	22
519.1331	22
536.4944	22
581.3036	22
581.307	22
581.3104	22
581.3172	22
581.3274	22
581.3308	33
581.3342	22
599.3041	22
599.3076	43
599.3145	22
599.3179	54
599.3282	22
599.3317	22
599.3386	22
599.3421	22
599.3455	22
641.2598	22
655.2305	22
659.2746	22
733.3938	22
787.4209	22
788.4506	22
851.5541	22
860.6033	22
860.6199	22
875.4939	22
881.8051	22
925.4204	33
925.4247	22
925.429	22
925.4333	33
925.4376	22
925.4462	65
925.4505	54
925.4548	54
925.459	109
925.4634	87
925.4677	54
925.4719	119
925.4763	109
925.4805	157
925.4848	179
925.4891	223
925.4934	157
925.4977	255
925.502	434
925.5063	347
925.5106	527
925.5149	592
925.5192	559
925.5234	728
925.5278	646
925.532	928
925.5363	717
925.5406	912
925.5449	831
925.5492	809
925.5535	831
925.5578	842
925.5621	999
925.5664	907
925.5707	836
925.575	711
925.5793	711
925.5836	592
925.5878	559
925.5922	342
925.5964	331
925.6007	212
925.605	157
925.6093	87
925.6136	109
925.6179	65
925.6222	54
925.6265	22
925.6308	33
925.6351	33
925.6437	22
925.6737	22
925.9099	22
925.9184	33
925.9227	22
925.927	22
925.9356	22
925.9399	54
925.9442	33
925.9528	33
925.957	22
925.9614	43
925.9656	22
925.9742	33
925.9828	22
926.0043	22
926.5196	22
926.5239	33
926.5582	22
926.5626	33
926.5711	22
926.5797	22
926.6012	22
990.2848	22
990.2937	22
1196.668	22
