Mass spectrum: SM d41:2; LC-ESI-QTOF; MS2
Name: SM d41:2
Class: SM
Formula: C46H91N2O6P
Exact mass: 799.218
SMILES: CCCCCCCCCCCCCCCCCCCCCCC(=O)NC(COP([O-])(=O)OCC[N+](C)(C)C)C(O)\C=C\CC\C=C\CCCCCCCCC
InChI: InChI=1S/C46H91N2O6P/c1-6-8-10-12-14-16-18-20-21-22-23-24-25-26-28-30-32-34-36-38-40-46(50)47-44(43-54-55(51,52)53-42-41-48(3,4)5)45(49)39-37-35-33-31-29-27-19-17-15-13-11-9-7-2/h29,31,37,39,44-45,49H,6-28,30,32-36,38,40-43H2,1-5H3,(H-,47,50,51,52)/b31-29+,39-37+
Instrument: AB Sciex TripleTOF 5600+ system (Q-TOF) equipped with a DuoSpray ion source
Instrument type: LC-ESI-QTOF
Ms type: MS2
Ion mode: NEGATIVE
Collision energy: 45V
Column name: Acquity UPLC Peptide BEH C18 column (50*2.1 mm; 1.7 um; 130A)(Waters Co.,Milford, MA, USA)
Retention time: 11.71031
Precursor type: [M+CH3COOH-H]-
Precursor m/z: 857.6688
m/z	relative intensity
78.959	10
78.972	0
96.969	0
122.987	1
141.017	1
168.042	37
183.014	0
281.245	0
283.267	0
309.278	0
447.282	1
447.302	1
482.733	0
485.95	0
498.238	0
513.98	0
558.376	0
630.577	0
636.586	0
649.575	0
653.949	0
654.59	0
694.55	0
712.54	1
712.577	0
738.554	1
781.134	2
781.183	0
783.485	0
783.536	2
783.621	999
783.7	6
783.76	0
783.83	1
784.574	1
784.626	2
784.66	0
797.642	1
798.543	1
798.572	3
798.598	1
811.568	0
811.614	0
811.652	1
857.607	3
857.655	32
857.707	1
