Mass spectrum: PE 32:1; LC-ESI-QTOF; MS2
Name: PE 32:1
Class: PE
Formula: C37H72NO8P
Exact mass: 689.9579999999999
SMILES: CCCCCCCCCCCCCCCC(=O)OCC(COP(O)(=O)OCCN)OC(=O)CCCCCCC\C=C/CCCCCC
InChI: InChI=1S/C37H72NO8P/c1-3-5-7-9-11-13-15-17-19-21-23-25-27-29-36(39)43-33-35(34-45-47(41,42)44-32-31-38)46-37(40)30-28-26-24-22-20-18-16-14-12-10-8-6-4-2/h14,16,35H,3-13,15,17-34,38H2,1-2H3,(H,41,42)/b16-14-
Instrument: AB Sciex TripleTOF 5600+ system (Q-TOF) equipped with a DuoSpray ion source
Instrument type: LC-ESI-QTOF
Ms type: MS2
Ion mode: NEGATIVE
Collision energy: 45V
Column name: Acquity UPLC Peptide BEH C18 column (50*2.1 mm; 1.7 um; 130A)(Waters Co.,Milford, MA, USA)
Retention time: 9.26572
Precursor type: [M-H]-
Precursor m/z: 688.4856
m/z	relative intensity
122.001	3
140.013	10
196.04	15
214.049	3
227.191	12
227.201	15
227.219	4
252.401	3
253.215	999
254.44	5
255.232	450
281.251	51
424.242	5
432.217	4
432.247	4
434.259	9
450.228	1
450.27	4
452.261	32
452.286	35
460.278	1
550.492	2
688.417	13
688.441	53
688.476	379
688.506	45
688.529	16
