Mass spectrum: PS 38:5; LC-ESI-QTOF; MS2
Name: PS 38:5
Class: PS
Formula: C44H76NO10P
Exact mass: 810.0649999999998
SMILES: CCCCCCCCCCCCCCCCCC(=O)OCC(COP(O)(=O)OCC(N)C(O)=O)OC(=O)CCC\C=C/C\C=C/C\C=C/C\C=C/C\C=C/CC
InChI: InChI=1S/C44H76NO10P/c1-3-5-7-9-11-13-15-17-19-20-22-24-26-28-30-32-34-36-43(47)55-40(38-53-56(50,51)54-39-41(45)44(48)49)37-52-42(46)35-33-31-29-27-25-23-21-18-16-14-12-10-8-6-4-2/h5,7,11,13,17,19,22,24,28,30,40-41H,3-4,6,8-10,12,14-16,18,20-21,23,25-27,29,31-39,45H2,1-2H3,(H,48,49)(H,50,51)/b7-5-,13-11-,19-17-,24-22-,30-28-
Instrument: AB Sciex TripleTOF 5600+ system (Q-TOF) equipped with a DuoSpray ion source
Instrument type: LC-ESI-QTOF
Ms type: MS2
Ion mode: NEGATIVE
Collision energy: 45V
Column name: Acquity UPLC Peptide BEH C18 column (50*2.1 mm; 1.7 um; 130A)(Waters Co.,Milford, MA, USA)
Retention time: 8.495248
Precursor type: [M-H]-
Precursor m/z: 808.5079
m/z	relative intensity
78.959	43
96.969	7
140.011	7
152.994	151
171.004	7
196.041	3
203.184	7
229.196	6
255.227	31
255.237	14
256.235	19
257.226	33
281.249	10
282.376	7
283.23	13
283.262	999
283.312	6
301.213	280
327.229	45
329.238	7
343.212	6
343.239	12
391.235	13
392.221	9
409.231	7
417.24	6
419.252	480
437.203	45
437.218	28
437.263	164
437.281	39
455.208	14
498.258	6
524.276	6
647.466	5
648.455	15
721.421	25
721.472	918
740.504	3
790.473	5
790.515	8
790.541	13
805.922	3
808.432	22
808.502	899
808.548	64
808.59	11
809.471	7
809.515	10
