Mass spectrum: PS(18:0/12-HETE); LC-ESI-QTOF; MS2
Name: PS(18:0/12-HETE)
Class: Oxidized Phospholipid
Formula: C44H78NO11P
Exact mass: 828.08
SMILES: CCCCCCCCCCCCCCCCCC(=O)OCC(COP(O)(=O)OCC(N)C(O)=O)OC(=O)CCC\C=C/C\C=C/C=C/C(O)C\C=C/CCCCC
InChI: InChI=1S/C44H78NO11P/c1-3-5-7-9-11-12-13-14-15-16-17-18-22-26-30-34-42(47)53-36-40(37-54-57(51,52)55-38-41(45)44(49)50)56-43(48)35-31-27-23-20-19-21-25-29-33-39(46)32-28-24-10-8-6-4-2/h20-21,23-25,28-29,33,39-41,46H,3-19,22,26-27,30-32,34-38,45H2,1-2H3,(H,49,50)(H,51,52)/b23-20-,25-21-,28-24-,33-29+
Instrument: Acquity UPLC Peptide BEH C18 column (50 x 2.1 mm; 1.7 um), Sciex TripleTOF5600
Instrument type: LC-ESI-QTOF
Ms type: MS2
Ion mode: NEGATIVE
Collision energy: 30-50
Precursor m/z: 826.5239728
Precursor type: [M-H]-
m/z	relative intensity
78.95898	65
78.96149	65
78.96651	42
96.96836	42
152.9854	42
152.9871	65
152.9889	65
152.9906	172
152.9924	86
152.9941	86
152.9959	236
152.9976	215
152.9993	193
153.0011	42
153.0028	86
179.101	42
179.1048	42
179.1066	42
257.2183	44
280.2483	44
282.3711	44
282.3734	44
282.3877	65
283.2419	109
283.2443	217
283.2466	44
283.249	154
283.2514	263
283.2538	353
283.2561	400
283.2585	885
283.2609	509
283.2632	999
283.2656	909
283.268	909
283.2704	753
283.2727	486
283.2751	355
283.2775	288
283.2799	265
283.2822	200
283.2846	111
283.287	44
283.2894	67
283.2941	42
284.271	42
284.2758	23
288.5357	23
301.2189	42
319.2119	42
319.2144	42
319.2169	42
319.2195	65
319.222	86
319.2245	107
319.227	86
319.2295	149
319.2321	65
319.2346	65
319.2371	86
319.2396	42
319.2421	42
319.2447	86
319.2472	42
320.221	42
419.2299	65
419.2328	86
419.2357	149
419.2385	149
419.2414	193
419.2443	257
419.2472	280
419.2501	364
419.253	322
419.2559	408
419.2588	387
419.2617	301
419.2646	387
419.2674	257
419.2703	172
419.2732	128
419.2761	128
419.279	128
419.2819	65
437.2384	42
437.2444	65
437.2473	42
437.2502	65
437.2532	128
437.2561	128
437.2591	172
437.2621	86
437.265	65
437.2679	107
437.2709	128
437.2738	128
437.2768	65
437.2798	107
437.2827	107
437.2856	65
437.2945	65
438.2687	42
455.1951	42
455.2011	65
455.2072	86
455.2102	42
455.2132	65
455.2162	65
455.2192	149
455.2252	65
455.2282	42
455.2312	128
455.2343	128
455.2403	107
455.2463	65
473.2368	65
572.9491	44
737.2057	42
737.2134	88
739.4256	42
739.4371	86
739.4409	42
739.4448	65
739.4486	128
739.4525	177
739.4563	172
739.4601	179
739.464	309
739.4678	446
739.4716	362
739.4755	334
739.4793	494
739.4832	538
739.487	921
739.4908	854
739.4947	696
739.4985	789
739.5023	745
739.5062	742
739.51	763
739.5139	738
739.5177	585
739.5215	583
739.5253	269
739.5292	269
739.533	381
739.5369	156
739.5407	225
739.5446	179
739.5484	88
739.5522	109
739.556	23
739.5676	42
739.5753	42
740.4811	42
740.5003	42
740.5042	42
740.531	42
744.4988	42
744.5026	42
764.5007	44
825.1891	44
826.3934	44
826.4623	65
826.4664	107
826.4705	86
826.4745	128
826.4786	238
826.4826	238
826.4867	130
826.4907	109
826.4948	328
826.4988	307
826.5029	330
826.507	353
826.511	484
826.5151	353
826.5192	667
826.5232	444
826.5272	620
826.5313	578
826.5354	715
826.5394	623
826.5435	490
826.5475	715
826.5516	423
826.5557	646
826.5597	423
826.5638	395
826.5678	177
826.5719	311
826.5759	111
826.58	42
826.584	130
826.5881	107
826.5922	44
826.5962	107
826.6003	42
827.5214	42
827.5336	42
827.5376	42
