Mass spectrum: Cer[NP] t38:0; LC-ESI-QTOF; MS2
Name: Cer[NP] t38:0
Class: Cer_NP
Formula: C38H77NO4
Exact mass: 612.0369999999999
SMILES: CCCCCCCCCCCCCCCCCCCC(=O)NC(CO)C(O)C(O)CCCCCCCCCCCCCC
InChI: InChI=1S/C38H77NO4/c1-3-5-7-9-11-13-15-17-18-19-20-21-23-25-27-29-31-33-37(42)39-35(34-40)38(43)36(41)32-30-28-26-24-22-16-14-12-10-8-6-4-2/h35-36,38,40-41,43H,3-34H2,1-2H3,(H,39,42)
Instrument: AB Sciex TripleTOF 5600+ system (Q-TOF) equipped with a DuoSpray ion source
Instrument type: LC-ESI-QTOF
Ms type: MS2
Ion mode: NEGATIVE
Collision energy: 45V
Column name: Acquity UPLC Peptide BEH C18 column (50*2.1 mm; 1.7 um; 130A)(Waters Co.,Milford, MA, USA)
Retention time: 11.36355
Precursor type: [M+CH3COOH-H]-
Precursor m/z: 670.5963
m/z	relative intensity
225.225	7
237.221	10
255.231	38
267.23	129
279.233	7
280.261	10
284.255	7
293.283	12
295.298	12
306.315	9
310.311	75
311.293	153
325.306	5
326.306	5
328.297	5
334.314	5
336.314	12
336.324	40
341.052	5
348.319	7
351.317	7
352.318	122
354.335	278
366.335	207
389.079	7
544.538	19
562.547	7
566.544	7
574.55	53
578.544	25
592.571	30
608.643	10
610.572	999
610.766	5
647.644	15
