Mass spectrum: PE 34:1; LC-ESI-QTOF; MS2
Name: PE 34:1
Class: PE
Formula: C39H76NO8P
Exact mass: 718.012
SMILES: CCCCCCCCCCCCCCCC(=O)OCC(COP(O)(=O)OCCN)OC(=O)CCCCCCC\C=C/CCCCCCCC
InChI: InChI=1S/C39H76NO8P/c1-3-5-7-9-11-13-15-17-18-20-22-24-26-28-30-32-39(42)48-37(36-47-49(43,44)46-34-33-40)35-45-38(41)31-29-27-25-23-21-19-16-14-12-10-8-6-4-2/h17-18,37H,3-16,19-36,40H2,1-2H3,(H,43,44)/b18-17-
Instrument: AB Sciex TripleTOF 5600+ system (Q-TOF) equipped with a DuoSpray ion source
Instrument type: LC-ESI-QTOF
Ms type: MS2
Ion mode: NEGATIVE
Collision energy: 45V
Column name: Acquity UPLC Peptide BEH C18 column (50*2.1 mm; 1.7 um; 130A)(Waters Co.,Milford, MA, USA)
Retention time: 10.02496
Precursor type: [M-H]-
Precursor m/z: 716.5241
m/z	relative intensity
78.957	3
96.968	0
122.0	1
140.01	13
178.022	0
196.038	14
214.052	1
252.432	0
253.218	31
254.423	0
254.449	2
255.233	380
280.352	1
280.366	1
280.383	2
280.408	0
281.154	0
281.249	999
281.307	0
282.248	1
283.252	4
283.266	10
378.251	0
434.263	12
452.26	16
452.282	33
460.271	3
460.293	2
462.306	0
478.269	1
478.294	5
479.523	0
480.287	1
480.317	1
558.574	0
714.241	1
714.297	0
716.523	295
716.59	2
717.528	0
