Mass spectrum: PC(15:0/8,9-EpETE); LC-ESI-QTOF; MS2
Name: PC(15:0/8,9-EpETE)
Class: Oxidized Phospholipid
Formula: C43H76NO9P
Exact mass: 782.055
SMILES: CCCCCCCCCCCCCCC(=O)OCC(COP([O-])(=O)OCC[N+](C)(C)C)OC(=O)CCC\C=C/CC1OC1C\C=C/C\C=C/C\C=C/CC
InChI: InChI=1S/C43H76NO9P/c1-6-8-10-12-14-16-17-18-20-22-24-29-33-42(45)49-37-39(38-51-54(47,48)50-36-35-44(3,4)5)52-43(46)34-30-26-25-28-32-41-40(53-41)31-27-23-21-19-15-13-11-9-7-2/h9,11,15,19,23,25,27-28,39-41H,6-8,10,12-14,16-18,20-22,24,26,29-38H2,1-5H3/b11-9-,19-15-,27-23-,28-25-
Instrument: Acquity UPLC Peptide BEH C18 column (50 x 2.1 mm; 1.7 um), Sciex TripleTOF5600
Instrument type: LC-ESI-QTOF
Ms type: MS2
Ion mode: NEGATIVE
Collision energy: 30-50
Precursor m/z: 840.5396225
Precursor type: [M+CH3COOH-H]-
m/z	relative intensity
127.0716	44
127.078	44
127.0795	44
149.1266	44
149.1369	44
155.0626	44
155.0643	44
155.0713	44
155.0766	44
167.0646	88
167.07	44
167.0809	44
168.034	44
168.0376	44
168.0504	44
168.0595	44
201.1613	44
201.1633	44
241.2043	44
241.2065	176
241.2087	132
241.2108	282
241.213	578
241.2152	457
241.2174	242
241.2196	220
241.2217	176
241.2239	176
241.2326	44
255.1985	44
255.203	44
255.2053	44
255.2075	44
255.212	88
255.2142	88
255.2165	44
255.2187	44
255.2232	44
255.2254	44
255.2299	44
255.2366	44
255.2389	44
273.1801	44
273.2103	44
273.2242	44
273.2358	44
299.1872	88
299.1993	44
299.2042	44
299.2066	44
299.209	88
317.1862	44
317.1962	44
317.1987	132
317.2012	44
317.2037	307
317.2062	220
317.2087	278
317.2112	176
317.2137	242
317.2162	132
317.2187	44
317.2212	132
317.2237	88
317.2262	44
448.3667	44
448.3726	44
466.2778	88
466.2838	44
466.2899	88
466.2929	88
466.296	44
466.299	44
466.302	44
542.2722	44
542.2787	44
542.282	44
542.2853	44
542.2918	44
695.4392	44
695.4429	44
766.3816	44
766.4553	88
766.4592	44
766.4631	44
766.467	88
766.4709	88
766.4747	88
766.4786	260
766.4825	414
766.4864	487
766.4903	545
766.4942	373
766.498	761
766.502	984
766.5059	787
766.5097	465
766.5136	999
766.5175	432
766.5214	227
766.5253	216
766.5291	249
766.533	227
766.5369	132
766.5408	176
766.5447	44
766.5485	132
766.5524	44
766.5679	44
766.5718	44
766.5796	44
766.5835	44
766.5873	44
779.4752	44
779.5026	44
780.4857	44
780.4975	44
780.5014	44
780.5053	44
780.5093	44
780.5132	44
780.5249	44
780.5289	44
780.5328	44
780.572	44
781.4421	44
781.4617	44
781.4656	44
781.4852	44
781.5009	44
822.4794	44
822.5116	44
840.4801	44
840.4882	44
840.4923	44
840.5086	44
840.5167	44
840.5208	88
840.5289	44
840.533	44
840.537	44
840.5411	132
840.5452	220
840.5493	132
840.5574	44
840.5615	88
840.5737	44
840.5777	44
840.5858	44
840.5899	44
