Mass spectrum: PE 38:1; LC-ESI-QTOF; MS2
Name: PE 38:1
Class: PE
Formula: C43H84NO8P
Exact mass: 774.1199999999999
SMILES: CCCCCCCCCCCCCCCCCC(=O)OCC(COP(O)(=O)OCCN)OC(=O)CCCCCCCCC\C=C/CCCCCCCC
InChI: InChI=1S/C43H84NO8P/c1-3-5-7-9-11-13-15-17-19-20-22-24-26-28-30-32-34-36-43(46)52-41(40-51-53(47,48)50-38-37-44)39-49-42(45)35-33-31-29-27-25-23-21-18-16-14-12-10-8-6-4-2/h17,19,41H,3-16,18,20-40,44H2,1-2H3,(H,47,48)/b19-17-
Instrument: AB Sciex TripleTOF 5600+ system (Q-TOF) equipped with a DuoSpray ion source
Instrument type: LC-ESI-QTOF
Ms type: MS2
Ion mode: NEGATIVE
Collision energy: 45V
Column name: Acquity UPLC Peptide BEH C18 column (50*2.1 mm; 1.7 um; 130A)(Waters Co.,Milford, MA, USA)
Retention time: 12.51665
Precursor type: [M-H]-
Precursor m/z: 772.5845
m/z	relative intensity
140.011	25
182.225	5
196.037	16
255.232	8
281.25	62
283.25	74
283.264	283
308.316	19
309.111	5
309.278	999
309.304	32
311.29	80
337.303	9
447.869	5
462.299	20
480.292	14
480.318	37
488.308	5
506.325	5
508.333	5
772.534	31
772.581	574
