Mass spectrum: PE(16:0/8-HEPE); LC-ESI-QTOF; MS2
Name: PE(16:0/8-HEPE)
Class: Oxidized Phospholipid
Formula: C41H72NO9P
Exact mass: 754.001
SMILES: CCCCCCCCCCCCCCCC(=O)OCC(COP(O)(=O)OCCN)OC(=O)CCC\C=C/CC(O)\C=C\C=C/C\C=C/C\C=C/CC
InChI: InChI=1S/C41H72NO9P/c1-3-5-7-9-11-13-15-16-17-19-21-23-28-32-40(44)48-36-39(37-50-52(46,47)49-35-34-42)51-41(45)33-29-25-24-27-31-38(43)30-26-22-20-18-14-12-10-8-6-4-2/h6,8,12,14,20,22,24,26-27,30,38-39,43H,3-5,7,9-11,13,15-19,21,23,25,28-29,31-37,42H2,1-2H3,(H,46,47)/b8-6-,14-12-,22-20-,27-24-,30-26+
Instrument: Acquity UPLC Peptide BEH C18 column (50 x 2.1 mm; 1.7 um), Sciex TripleTOF5600
Instrument type: LC-ESI-QTOF
Ms type: MS2
Ion mode: NEGATIVE
Collision energy: 30-50
Precursor m/z: 752.4871934
Precursor type: [M-H]-
m/z	relative intensity
78.96184	88
131.086	88
155.0607	88
155.073	225
255.2083	137
255.2105	270
255.2128	137
255.215	137
255.2195	225
255.2218	362
255.224	362
255.2263	314
255.2286	225
255.2308	495
255.2331	588
255.2353	407
255.2376	314
255.2398	181
255.2421	362
255.2443	314
255.2466	137
255.2489	181
255.2534	137
281.2484	137
281.2531	88
299.1947	137
299.1971	137
299.1996	181
299.202	137
299.2044	88
299.2069	137
299.2118	88
299.2142	88
317.1907	88
317.1957	88
317.2058	270
317.2083	314
317.2108	362
317.2133	88
317.2159	225
317.2184	225
317.2209	88
317.2284	137
434.2721	137
452.2463	88
452.2793	88
452.2823	137
452.2853	88
452.2883	88
452.2943	88
514.2454	88
752.4299	137
752.4338	88
752.4377	88
752.4415	137
752.4454	181
752.4493	88
752.4532	270
752.457	500
752.4609	500
752.4648	362
752.4686	362
752.4725	500
752.4764	676
752.4803	367
752.4841	818
752.488	588
752.4919	725
752.4957	999
752.4996	500
752.5035	681
752.5073	455
752.5112	729
752.5151	407
752.519	367
752.5228	270
752.5267	314
752.5306	88
752.5344	181
752.5383	270
752.5499	137
752.5538	88
753.545	88
