Mass spectrum: PC(15:0/20-HETE); LC-ESI-QTOF; MS2
Name: PC(15:0/20-HETE)
Class: Oxidized Phospholipid
Formula: C43H78NO9P
Exact mass: 784.071
SMILES: CCCCCCCCCCCCCCC(=O)OCC(COP([O-])(=O)OCC[N+](C)(C)C)OC(=O)CCC\C=C/C\C=C/C\C=C/C\C=C/CCCCCO
InChI: InChI=1S/C43H78NO9P/c1-5-6-7-8-9-10-11-19-22-25-28-31-34-42(46)50-39-41(40-52-54(48,49)51-38-36-44(2,3)4)53-43(47)35-32-29-26-23-20-17-15-13-12-14-16-18-21-24-27-30-33-37-45/h12,14-15,17-18,21,23,26,41,45H,5-11,13,16,19-20,22,24-25,27-40H2,1-4H3/b14-12-,17-15-,21-18-,26-23-
Instrument: Acquity UPLC Peptide BEH C18 column (50 x 2.1 mm; 1.7 um), Sciex TripleTOF5600
Instrument type: LC-ESI-QTOF
Ms type: MS2
Ion mode: NEGATIVE
Collision energy: 30-50
Precursor m/z: 842.5552726
Precursor type: [M+CH3COOH-H]-
m/z	relative intensity
165.0281	61
165.0299	61
165.0353	61
168.0307	61
168.0398	61
168.0435	121
199.2191	61
199.2231	61
223.0202	61
223.0307	61
224.0645	61
224.0666	61
240.4586	61
240.4738	61
241.1987	61
241.2052	303
241.2074	303
241.2095	363
241.2117	303
241.2139	394
241.2161	303
241.2182	399
241.2204	414
241.2226	242
241.2248	121
241.227	61
241.2291	121
241.2335	61
241.2422	61
242.0751	61
242.0882	61
245.2188	61
245.2232	61
245.2276	121
245.232	61
245.2364	61
257.1997	61
257.22	61
273.223	61
273.2346	61
273.2369	61
275.225	61
275.2343	61
275.239	61
275.2483	61
289.2101	61
289.2364	61
295.2279	61
295.2689	61
301.203	242
301.2054	61
301.2079	61
301.2103	61
301.2152	121
301.2176	61
301.22	121
301.2346	61
319.2067	61
319.2092	182
319.2117	182
319.2142	182
319.2167	600
319.2192	505
319.2217	616
319.2242	999
319.2267	605
319.2292	822
319.2317	489
319.2342	303
319.2367	182
319.2392	348
319.2417	303
319.2543	61
466.2773	121
466.2803	182
466.2834	61
466.2894	242
466.2924	61
466.2955	61
466.3015	61
768.4886	61
768.4925	61
768.4964	242
768.5042	61
768.5081	61
768.512	303
768.5159	61
768.5197	61
768.5236	61
768.5275	61
768.5469	61
