Mass spectrum: PC(16:1e/18-HEPE); LC-ESI-QTOF; MS2
Name: PC(16:1e/18-HEPE)
Class: Oxidized Phospholipid
Formula: C44H78NO8P
Exact mass: 780.083
SMILES: CCCCCCCCCCCCCC\C=C/OCC(COP([O-])(=O)OCC[N+](C)(C)C)OC(=O)CCC\C=C/C\C=C/C\C=C/C\C=C/C=C/C(O)CC
InChI: InChI=1S/C44H78NO8P/c1-6-8-9-10-11-12-13-14-19-22-25-28-31-34-38-50-40-43(41-52-54(48,49)51-39-37-45(3,4)5)53-44(47)36-33-30-27-24-21-18-16-15-17-20-23-26-29-32-35-42(46)7-2/h16-18,20,24,26-27,29,32,34-35,38,42-43,46H,6-15,19,21-23,25,28,30-31,33,36-37,39-41H2,1-5H3/b18-16-,20-17-,27-24-,29-26-,35-32+,38-34-
Instrument: Acquity UPLC Peptide BEH C18 column (50 x 2.1 mm; 1.7 um), Sciex TripleTOF5600
Instrument type: LC-ESI-QTOF
Ms type: MS2
Ion mode: NEGATIVE
Collision energy: 30-50
Precursor m/z: 838.560358
Precursor type: [M+CH3COOH-H]-
m/z	relative intensity
78.96304	90
215.1748	90
215.1789	58
224.0652	58
255.1998	58
255.2065	58
255.2088	58
255.211	58
255.2133	58
255.2155	147
255.22	90
259.1641	58
259.1686	58
259.1709	90
259.18	58
273.2308	58
273.2332	58
299.188	90
299.1905	58
299.1929	147
299.1953	176
299.1978	118
299.2002	147
299.2026	58
299.2051	58
299.2075	90
299.21	90
299.2124	118
299.2148	58
315.1918	58
317.1889	90
317.1939	90
317.1965	90
317.199	118
317.2015	176
317.204	90
317.2065	237
317.209	384
317.2115	147
317.2141	266
317.2166	266
317.2191	176
317.2216	176
317.2241	90
317.2266	176
317.2291	118
329.2068	58
375.2344	58
375.2426	58
446.311	90
446.314	58
446.3169	58
450.5298	58
464.29	90
464.2961	58
464.2991	90
464.3022	58
464.3052	176
464.3082	118
464.3112	205
464.3143	118
464.3174	90
464.3204	176
464.3234	147
464.3264	176
464.3295	58
464.3326	90
464.3447	58
464.3477	58
466.3414	58
693.4183	58
693.4629	61
764.4667	58
764.4745	147
764.4784	90
764.4823	118
764.4861	269
764.4901	358
764.494	422
764.4979	453
764.5018	482
764.5057	667
764.5096	606
764.5135	756
764.5174	999
764.5213	852
764.5252	606
764.5291	852
764.533	886
764.5369	915
764.5408	915
764.5447	702
764.5486	580
764.5525	488
764.5564	459
764.5603	335
764.5642	274
764.5681	118
764.572	176
764.5759	179
764.5798	61
764.5876	58
765.5242	58
765.532	58
778.5164	58
778.5439	118
778.5479	118
778.5518	118
778.5637	90
778.5676	58
838.5259	58
838.5341	90
838.5709	58
838.575	58
838.5791	205
838.5954	58
838.5995	58
