Mass spectrum: PC(14:0/7-HDoHE); LC-ESI-QTOF; MS2
Name: PC(14:0/7-HDoHE)
Class: Oxidized Phospholipid
Formula: C44H76NO9P
Exact mass: 794.066
SMILES: CCCCCCCCCCCCCC(=O)OCC(COP([O-])(=O)OCC[N+](C)(C)C)OC(=O)CC\C=C/CC(O)\C=C\C=C/C\C=C/C\C=C/C\C=C/CC
InChI: InChI=1S/C44H76NO9P/c1-6-8-10-12-14-16-18-19-21-22-24-26-29-33-41(46)34-30-28-32-36-44(48)54-42(40-53-55(49,50)52-38-37-45(3,4)5)39-51-43(47)35-31-27-25-23-20-17-15-13-11-9-7-2/h8,10,14,16,19,21,24,26,28-30,33,41-42,46H,6-7,9,11-13,15,17-18,20,22-23,25,27,31-32,34-40H2,1-5H3/b10-8-,16-14-,21-19-,26-24-,30-28-,33-29+
Instrument: Acquity UPLC Peptide BEH C18 column (50 x 2.1 mm; 1.7 um), Sciex TripleTOF5600
Instrument type: LC-ESI-QTOF
Ms type: MS2
Ion mode: NEGATIVE
Collision energy: 30-50
Precursor m/z: 852.5396225
Precursor type: [M+CH3COOH-H]-
m/z	relative intensity
78.96348	20
141.0521	20
152.993	20
168.0443	30
168.059	20
201.1546	20
201.1706	20
224.0525	20
226.4857	20
227.1657	20
227.1806	30
227.1827	50
227.1849	81
227.187	177
227.1891	207
227.1913	358
227.1934	424
227.1955	585
227.1976	555
227.1998	661
227.2019	802
227.204	742
227.2061	378
227.2083	414
227.2104	434
227.2125	177
227.2146	177
227.2168	71
227.2189	61
227.221	61
227.2231	61
227.2274	30
227.2317	20
227.2763	20
253.2063	20
253.2108	20
253.2131	20
253.2153	20
253.2176	30
253.2198	40
253.2221	50
253.2243	40
281.213	30
281.2178	30
281.2202	20
281.2225	40
281.2249	30
281.2272	20
281.2296	20
281.232	30
281.2367	40
281.2391	30
281.2438	20
325.2043	30
325.2144	40
325.2271	30
325.2322	30
343.2044	30
343.2096	30
343.2122	30
343.2148	30
343.2174	30
343.2201	81
343.2227	71
343.2253	40
343.2279	20
343.2305	61
343.2331	50
343.2357	71
343.241	20
343.2436	40
452.2612	20
452.3062	20
550.2916	30
567.2309	20
568.2866	40
568.2899	20
568.2933	61
568.2966	50
568.3	40
568.3033	20
568.3101	30
568.3135	20
568.3168	30
568.3235	30
707.3958	30
707.4146	20
707.4371	20
707.4409	20
707.4446	20
707.4597	20
712.7159	20
733.4311	20
733.454	20
778.4185	30
778.4302	40
778.4342	61
778.4381	20
778.4421	30
778.446	81
778.45	81
778.4539	71
778.4578	227
778.4617	267
778.4657	333
778.4696	424
778.4736	373
778.4775	631
778.4814	540
778.4854	580
778.4893	863
778.4932	701
778.4972	817
778.5011	959
778.5051	979
778.509	848
778.5129	999
778.5168	656
778.5208	656
778.5247	716
778.5287	560
778.5326	404
778.5366	494
778.5405	454
778.5444	247
778.5483	237
778.5523	136
778.5562	136
778.5602	111
778.5641	71
778.5681	30
778.572	30
778.5759	40
778.5798	50
779.4502	20
779.4817	20
779.4896	20
779.4974	30
779.5053	30
779.5093	50
779.5132	20
779.525	20
779.5329	20
779.5369	20
779.5486	20
784.7179	20
793.4375	20
793.4494	20
793.4614	30
793.4693	20
793.4852	20
793.521	20
852.4836	20
852.4877	50
852.4918	30
852.4959	20
852.5001	30
852.5082	50
852.5124	40
852.5165	30
852.5206	20
852.5248	40
852.5289	71
852.533	30
852.5371	91
852.5413	61
852.5453	50
852.5495	61
852.5536	101
852.5577	40
852.5618	20
852.566	50
852.5701	40
852.5742	40
852.5783	30
852.5825	40
