Mass spectrum: Cer[NS] d38:2; LC-ESI-QTOF; MS2
Name: Cer[NS] d38:2
Class: Cer_NS
Formula: C38H73NO3
Exact mass: 592.0059999999999
SMILES: CCCCCCCCCCCCCCCCCCCC(=O)NC(CO)C(O)\C=C\CC\C=C\CCCCCCCCC
InChI: InChI=1S/C38H73NO3/c1-3-5-7-9-11-13-15-17-18-19-20-22-24-26-28-30-32-34-38(42)39-36(35-40)37(41)33-31-29-27-25-23-21-16-14-12-10-8-6-4-2/h23,25,31,33,36-37,40-41H,3-22,24,26-30,32,34-35H2,1-2H3,(H,39,42)/b25-23+,33-31+
Instrument: AB Sciex TripleTOF 5600+ system (Q-TOF) equipped with a DuoSpray ion source
Instrument type: LC-ESI-QTOF
Ms type: MS2
Ion mode: NEGATIVE
Collision energy: 45V
Column name: Acquity UPLC Peptide BEH C18 column (50*2.1 mm; 1.7 um; 130A)(Waters Co.,Milford, MA, USA)
Retention time: 11.05863
Precursor type: [M+CH3COOH-H]-
Precursor m/z: 650.569
m/z	relative intensity
235.204	123
240.963	9
248.238	9
261.221	77
264.235	25
266.251	16
293.282	132
296.258	10
309.31	18
310.308	130
310.329	10
311.292	73
322.967	16
324.31	3
328.994	3
334.317	3
336.125	3
336.324	665
350.311	5
352.318	94
354.331	3
404.971	7
531.518	5
542.504	27
542.53	63
544.531	3
558.502	10
558.522	49
560.537	161
562.558	3
572.538	7
579.884	3
590.544	999
590.602	12
590.686	4
