Mass spectrum: PC(18:1/11,12-EpETE); LC-ESI-QTOF; MS2
Name: PC(18:1/11,12-EpETE)
Class: Oxidized Phospholipid
Formula: C46H80NO9P
Exact mass: 822.12
SMILES: CCCCCCCC\C=C/CCCCCCCC(=O)OCC(COP([O-])(=O)OCC[N+](C)(C)C)OC(=O)CCC\C=C/C\C=C/CC1OC1C\C=C/C\C=C/CC
InChI: InChI=1S/C46H80NO9P/c1-6-8-10-12-14-15-16-17-18-19-20-21-24-28-32-36-45(48)52-40-42(41-54-57(50,51)53-39-38-47(3,4)5)55-46(49)37-33-29-25-22-23-27-31-35-44-43(56-44)34-30-26-13-11-9-7-2/h9,11,17-18,22,25-27,30-31,42-44H,6-8,10,12-16,19-21,23-24,28-29,32-41H2,1-5H3/b11-9-,18-17-,25-22-,30-26-,31-27-
Instrument: Acquity UPLC Peptide BEH C18 column (50 x 2.1 mm; 1.7 um), Sciex TripleTOF5600
Instrument type: LC-ESI-QTOF
Ms type: MS2
Ion mode: NEGATIVE
Collision energy: 30-50
Precursor m/z: 880.5709227
Precursor type: [M+CH3COOH-H]-
m/z	relative intensity
109.1029	9
109.1043	9
121.0952	9
121.103	13
121.1139	9
145.1072	9
149.0944	9
149.0961	9
149.0978	9
149.0996	9
149.103	13
150.104	9
150.1057	9
163.1056	9
163.1164	9
163.1182	9
163.12	9
165.0993	9
165.1283	9
165.1319	9
167.0959	18
167.0977	22
167.0995	40
167.1014	72
167.1032	76
167.105	85
167.1068	81
167.1087	108
167.1105	86
167.1123	63
167.1141	50
167.116	63
167.1178	27
167.1196	18
167.1214	14
167.1251	9
167.1269	18
168.0383	18
168.042	13
168.0438	9
168.0475	13
168.0493	9
168.0548	18
168.0566	9
177.0788	9
179.0935	9
179.0954	13
179.0973	22
179.0992	13
179.1011	13
179.103	26
179.1048	31
179.1067	22
179.1086	31
179.1105	9
179.1124	13
179.1143	31
179.1162	18
179.1199	22
179.1218	9
195.091	9
195.093	9
195.095	9
195.0969	13
195.0989	13
195.1009	9
195.1028	13
195.1048	13
195.1068	9
195.1087	9
201.1622	9
201.1682	9
207.0928	9
207.0948	13
207.0968	13
207.0989	18
207.1009	22
207.1029	22
207.1049	22
207.109	9
207.1131	18
208.0991	9
208.1011	9
208.1031	9
208.1052	13
208.1072	31
208.1093	31
208.1113	18
208.1133	22
208.1154	18
208.1174	18
208.1194	9
208.1215	9
224.0563	9
224.0605	13
224.0626	9
224.0647	22
224.0668	22
224.0689	13
224.071	13
224.0732	13
224.0753	9
224.0774	9
224.0795	13
242.0758	9
255.1923	9
255.1946	9
255.1991	9
255.2013	22
255.2036	31
255.2058	40
255.2081	31
255.2103	57
255.2126	35
255.2148	44
255.2171	44
255.2194	35
255.2216	9
255.2239	26
255.2284	9
255.2306	9
273.2161	9
273.2184	18
273.2208	18
273.2231	9
273.2278	13
273.2301	9
273.2441	9
280.3615	9
280.3898	9
280.3922	9
281.1275	9
281.189	9
281.2197	9
281.2221	9
281.2245	36
281.2268	50
281.2292	56
281.2316	83
281.2339	66
281.2363	173
281.2387	194
281.241	247
281.2434	370
281.2458	341
281.2481	351
281.2505	373
281.2529	412
281.2552	294
281.2576	237
281.26	157
281.2623	151
281.2647	51
281.2671	66
281.2694	52
281.2718	19
281.2742	14
281.2765	14
281.2789	5
281.2813	5
281.2907	5
281.3428	5
281.6648	5
282.2334	9
282.2499	27
282.2547	9
299.1774	9
299.1823	9
299.1847	9
299.192	26
299.1945	13
299.1969	40
299.1993	40
299.2018	44
299.2042	57
299.2067	26
299.2091	13
299.2115	23
299.214	13
299.2164	9
299.2213	9
299.2286	9
301.2113	9
305.2506	9
316.2137	9
317.1779	13
317.183	22
317.1855	13
317.188	14
317.1905	37
317.193	50
317.1955	79
317.198	106
317.2006	209
317.2031	154
317.2056	206
317.2081	229
317.2106	244
317.2131	291
317.2156	282
317.2181	285
317.2207	211
317.2232	163
317.2257	126
317.2282	33
317.2307	28
317.2332	19
317.2357	52
317.2383	42
317.2408	24
317.2433	19
317.2458	5
318.7151	5
320.2561	5
327.2452	5
417.2469	13
445.2847	9
488.2865	9
488.2959	9
488.299	9
488.3021	35
488.3052	40
488.3083	18
488.3115	18
488.3146	26
488.3177	35
488.3208	9
488.3239	18
488.3271	9
488.3333	13
488.3364	9
494.9564	9
504.7416	9
506.2739	9
506.2834	13
506.2866	9
506.2898	18
506.2961	13
506.2993	59
506.3025	75
506.3056	59
506.3088	67
506.312	126
506.3152	45
506.3183	100
506.3215	76
506.3247	67
506.3279	112
506.3311	130
506.3342	85
506.3374	89
506.3405	88
506.3438	62
506.3469	26
506.3501	13
506.3533	35
506.3596	9
524.257	9
524.2764	9
524.2829	22
524.2861	9
524.2894	22
542.2681	18
542.2714	9
542.278	13
542.2813	13
542.2845	9
542.2878	13
542.2977	13
542.3043	18
542.3076	9
542.3141	13
735.4658	9
803.9851	9
803.9971	13
804.0092	13
804.0291	9
806.4074	10
806.4515	18
806.4635	9
806.4715	35
806.4755	63
806.4796	95
806.4835	121
806.4875	116
806.4916	131
806.4955	197
806.4996	310
806.5035	367
806.5076	401
806.5116	596
806.5156	625
806.5196	773
806.5236	730
806.5276	900
806.5316	968
806.5356	898
806.5396	999
806.5436	986
806.5477	977
806.5516	871
806.5557	882
806.5597	735
806.5637	597
806.5677	458
806.5717	314
806.5757	353
806.5797	267
806.5837	148
806.5877	81
806.5917	120
806.5957	35
806.5997	34
806.6038	50
806.6077	11
806.6118	6
806.6198	6
806.6238	12
806.6358	10
806.8001	6
807.4655	9
807.5016	18
807.5056	9
807.5096	26
807.5137	26
807.5176	13
807.5217	18
807.5257	13
807.5297	26
807.5337	13
807.5377	18
807.5417	40
807.5457	13
807.5497	26
807.5537	13
807.5577	22
807.5658	18
807.5698	9
807.5738	26
807.5778	13
807.5858	9
807.5898	9
821.4664	9
821.4785	9
821.4825	18
821.4947	31
821.4987	18
821.5109	9
821.5149	9
821.523	40
821.527	13
821.5311	9
821.5432	9
880.4725	9
880.4767	9
880.4808	9
880.4976	18
880.5018	9
880.5101	9
880.5143	27
880.5186	22
880.5227	63
880.5269	22
880.5311	36
880.5353	45
880.5395	107
880.5436	40
880.5479	113
880.552	45
880.5562	90
880.5604	68
880.5646	68
880.5688	72
880.573	86
880.5771	104
880.5814	95
880.5855	123
880.5897	72
880.5939	113
880.5981	68
880.6023	59
880.6064	36
880.6107	49
880.6149	31
880.619	18
880.6232	13
880.6274	22
880.6316	13
880.6357	9
880.64	9
880.6442	9
881.5739	9
