Mass spectrum: PG 36:2; LC-ESI-QTOF; MS2
Name: PG 36:2
Class: PG
Formula: C42H79O10P
Exact mass: 775.0600000000001
SMILES: CCCCCCCCCCCCCCCC(=O)OCC(COP(O)(=O)OCC(O)CO)OC(=O)CCCCCCCCC\C=C/C\C=C/CCCCC
InChI: InChI=1S/C42H79O10P/c1-3-5-7-9-11-13-15-17-18-19-20-22-24-26-28-30-32-34-42(46)52-40(38-51-53(47,48)50-36-39(44)35-43)37-49-41(45)33-31-29-27-25-23-21-16-14-12-10-8-6-4-2/h11,13,17-18,39-40,43-44H,3-10,12,14-16,19-38H2,1-2H3,(H,47,48)/b13-11-,18-17-
Instrument: AB Sciex TripleTOF 5600+ system (Q-TOF) equipped with a DuoSpray ion source
Instrument type: LC-ESI-QTOF
Ms type: MS2
Ion mode: NEGATIVE
Collision energy: 45V
Column name: Acquity UPLC Peptide BEH C18 column (50*2.1 mm; 1.7 um; 130A)(Waters Co.,Milford, MA, USA)
Retention time: 8.788082
Precursor type: [M-H]-
Precursor m/z: 773.5375
m/z	relative intensity
152.995	13
160.555	1
170.997	4
171.009	10
195.006	1
209.021	3
227.032	10
254.433	3
255.233	210
279.232	100
281.246	50
283.253	11
283.267	17
283.283	4
306.307	3
307.265	686
391.223	21
419.249	3
443.253	2
465.251	13
465.284	2
479.279	1
483.268	26
483.283	5
489.273	1
493.294	1
507.275	1
511.303	5
517.288	5
535.306	4
699.491	3
699.539	4
741.506	20
741.546	4
771.067	1
771.13	3
773.532	999
773.616	9
773.743	1
773.858	1
774.513	5
774.647	1
