Mass spectrum: PC(16:0e/20-HDoHE); LC-ESI-QTOF; MS2
Name: PC(16:0e/20-HDoHE)
Class: Oxidized Phospholipid
Formula: C46H82NO8P
Exact mass: 808.137
SMILES: CCCCCCCCCCCCCCCCOCC(COP([O-])(=O)OCC[N+](C)(C)C)OC(=O)CC\C=C/C\C=C/C\C=C/C\C=C/C\C=C/C=C/C(O)CC
InChI: InChI=1S/C46H82NO8P/c1-6-8-9-10-11-12-13-14-21-24-27-30-33-36-40-52-42-45(43-54-56(50,51)53-41-39-47(3,4)5)55-46(49)38-35-32-29-26-23-20-18-16-15-17-19-22-25-28-31-34-37-44(48)7-2/h15-16,19-20,22-23,28-29,31-32,34,37,44-45,48H,6-14,17-18,21,24-27,30,33,35-36,38-43H2,1-5H3/b16-15-,22-19-,23-20-,31-28-,32-29-,37-34+
Instrument: Acquity UPLC Peptide BEH C18 column (50 x 2.1 mm; 1.7 um), Sciex TripleTOF5600
Instrument type: LC-ESI-QTOF
Ms type: MS2
Ion mode: NEGATIVE
Collision energy: 30-50
Precursor m/z: 866.5916581
Precursor type: [M+CH3COOH-H]-
m/z	relative intensity
109.1023	14
131.087	14
149.1284	14
161.1272	14
187.1482	22
187.1501	14
187.1521	14
187.1636	22
189.1591	14
189.161	14
189.163	14
207.1412	14
227.1756	14
227.1841	14
227.1863	14
227.1884	14
241.172	14
241.1785	14
241.1807	14
241.1829	22
241.1851	29
241.1873	22
241.1917	29
241.1939	22
241.1961	50
241.2005	22
241.2027	36
241.2048	14
241.207	43
241.2092	14
247.1711	14
265.183	14
281.2101	14
281.2125	36
281.2149	29
281.2173	43
281.2196	22
281.222	50
281.2243	87
281.2267	138
281.2291	72
281.2314	80
281.2338	65
281.2362	43
281.2385	29
281.2409	43
281.2433	22
281.2456	14
283.2629	14
285.1707	14
285.173	14
285.1754	14
285.1778	22
285.1802	65
285.1826	14
285.1849	22
285.1873	50
285.1897	29
285.1921	36
285.1945	29
285.1992	50
285.204	22
299.2212	22
299.2261	29
299.2285	50
299.231	36
299.2334	50
299.2359	43
299.2383	36
299.2408	50
299.2432	50
299.2456	58
299.2481	14
299.2505	22
299.2627	14
317.2206	22
317.2307	14
325.2014	50
325.2039	29
325.2065	36
325.209	58
325.2115	29
325.2141	43
325.2166	58
325.2192	29
325.2217	58
325.2243	72
325.2268	50
325.2293	50
325.2319	36
325.2344	22
325.237	14
325.2421	14
327.2478	22
329.2647	14
341.588	15
342.8252	15
343.1884	15
343.2015	29
343.2041	22
343.2067	29
343.2094	74
343.212	111
343.2146	169
343.2172	147
343.2198	133
343.2224	155
343.225	184
343.2277	264
343.2303	214
343.2329	161
343.2355	124
343.2381	161
343.2407	43
343.2433	88
343.2459	36
343.2486	44
343.2512	15
343.2616	22
345.2382	22
377.2367	29
377.2449	22
377.2477	14
377.2668	14
395.2628	22
448.2973	14
448.3033	14
448.3093	29
448.3123	14
448.3153	29
448.3183	50
448.3212	29
448.3242	22
448.3272	36
448.3302	14
448.3362	29
448.3392	14
448.3422	14
448.3452	22
448.3481	29
448.3571	14
466.2976	14
466.3007	22
466.3037	29
466.3068	51
466.3098	50
466.3129	80
466.3159	36
466.319	124
466.322	102
466.3251	103
466.3281	72
466.3311	139
466.3342	155
466.3372	131
466.3403	80
466.3434	102
466.3464	109
466.3494	29
466.3525	43
466.3555	22
466.3647	14
466.3708	14
474.3299	14
721.4609	29
721.4647	14
721.4799	29
721.4836	29
721.4874	22
721.4912	14
721.495	29
721.4988	14
721.5063	22
721.5139	14
721.5215	14
747.493	14
747.5084	22
790.0692	14
790.089	14
791.7477	16
792.4783	14
792.4823	22
792.4902	22
792.4943	15
792.5022	48
792.5062	39
792.5101	73
792.5141	141
792.5181	173
792.522	235
792.526	281
792.53	345
792.5339	442
792.5379	567
792.5419	644
792.5459	771
792.5499	724
792.5538	848
792.5578	952
792.5618	902
792.5657	927
792.5697	999
792.5737	720
792.5776	791
792.5816	644
792.5856	681
792.5896	575
792.5936	522
792.5975	279
792.6015	228
792.6055	227
792.6094	254
792.6134	167
792.6174	91
792.6213	24
792.6253	43
792.6293	75
792.6332	58
792.6373	9
792.6412	42
792.6531	9
792.7087	8
792.7485	9
792.9789	14
793.5313	14
793.5392	22
793.5432	29
793.5472	16
793.5511	36
793.5551	22
793.5591	50
793.5631	36
793.5671	50
793.571	14
793.575	29
793.579	36
793.5829	36
793.5949	43
793.5989	29
793.6028	22
793.6068	22
793.6108	14
806.6017	22
807.5035	22
807.5316	22
807.5517	14
807.5677	14
866.5133	14
866.5175	14
866.53	14
866.5383	14
866.5424	22
866.5466	14
866.5507	14
866.5549	36
866.5632	22
866.5673	58
866.5715	58
866.5756	36
866.5798	36
866.5839	50
866.5881	43
866.5922	102
866.5964	50
866.6005	94
866.6047	72
866.6089	80
866.613	94
866.6172	87
866.6213	58
866.6255	58
866.6296	50
866.6338	43
866.6379	29
866.6421	50
866.6462	22
866.6504	29
866.6545	14
866.6587	14
867.4938	14
867.5229	14
867.5354	14
867.5395	14
867.552	14
867.5562	22
