Mass spectrum: PC 39:6; LC-ESI-QTOF; MS2
Name: PC 39:6
Class: PC
Formula: C47H82NO8P
Exact mass: 820.1479999999999
SMILES: CCCCCCCCCCCCCCCCC(=O)OCC(COP([O-])(=O)OCC[N+](C)(C)C)OC(=O)CC\C=C/C\C=C/C\C=C/C\C=C/C\C=C/C\C=C/CC
InChI: InChI=1S/C47H82NO8P/c1-6-8-10-12-14-16-18-20-22-23-24-25-26-28-30-32-34-36-38-40-47(50)56-45(44-55-57(51,52)54-42-41-48(3,4)5)43-53-46(49)39-37-35-33-31-29-27-21-19-17-15-13-11-9-7-2/h8,10,14,16,20,22,24-25,28,30,34,36,45H,6-7,9,11-13,15,17-19,21,23,26-27,29,31-33,35,37-44H2,1-5H3/b10-8-,16-14-,22-20-,25-24-,30-28-,36-34-
Instrument: AB Sciex TripleTOF 5600+ system (Q-TOF) equipped with a DuoSpray ion source
Instrument type: LC-ESI-QTOF
Ms type: MS2
Ion mode: NEGATIVE
Collision energy: 45V
Column name: Acquity UPLC Peptide BEH C18 column (50*2.1 mm; 1.7 um; 130A)(Waters Co.,Milford, MA, USA)
Retention time: 9.578217
Precursor type: [M+CH3COOH-H]-
Precursor m/z: 878.5879
m/z	relative intensity
168.04	8
168.05	8
177.165	4
224.07	13
229.195	16
249.184	11
255.217	3
269.247	295
279.23	9
283.241	124
297.221	4
309.219	6
326.218	4
326.817	2
327.23	474
405.235	3
464.311	2
476.313	19
494.32	104
494.348	17
509.286	2
534.306	7
552.292	5
733.479	2
740.507	8
759.486	4
774.59	2
796.499	2
802.013	8
802.797	2
803.485	2
804.549	999
804.675	2
805.559	4
819.501	11
819.551	3
878.592	78
