Mass spectrum: PE 36:4; LC-ESI-QTOF; MS2
Name: PE 36:4
Class: PE
Formula: C41H74NO8P
Exact mass: 740.0179999999999
SMILES: CCCCCCCCCCCCCCCC(=O)OCC(COP(O)(=O)OCCN)OC(=O)CCCCCC\C=C/C\C=C/C\C=C/C\C=C/CC
InChI: InChI=1S/C41H74NO8P/c1-3-5-7-9-11-13-15-17-18-19-20-22-24-26-28-30-32-34-41(44)50-39(38-49-51(45,46)48-36-35-42)37-47-40(43)33-31-29-27-25-23-21-16-14-12-10-8-6-4-2/h5,7,11,13,17-18,20,22,39H,3-4,6,8-10,12,14-16,19,21,23-38,42H2,1-2H3,(H,45,46)/b7-5-,13-11-,18-17-,22-20-
Instrument: AB Sciex TripleTOF 5600+ system (Q-TOF) equipped with a DuoSpray ion source
Instrument type: LC-ESI-QTOF
Ms type: MS2
Ion mode: NEGATIVE
Collision energy: 45V
Column name: Acquity UPLC Peptide BEH C18 column (50*2.1 mm; 1.7 um; 130A)(Waters Co.,Milford, MA, USA)
Retention time: 9.435002
Precursor type: [M-H]-
Precursor m/z: 738.5031
m/z	relative intensity
78.959	8
96.968	1
121.998	1
140.012	18
141.093	0
152.996	1
163.076	1
177.093	2
178.034	0
179.18	0
191.116	0
191.18	0
196.037	33
205.124	0
205.195	17
214.047	3
217.191	0
217.207	0
219.136	0
225.187	0
231.213	3
254.432	2
255.233	560
257.226	0
258.431	0
259.21	1
259.242	92
267.212	1
283.21	0
285.218	5
285.232	2
301.211	2
302.28	4
302.308	0
303.105	0
303.148	1
303.231	999
303.662	0
303.73	0
304.238	0
353.32	0
377.312	0
378.235	0
391.217	1
392.389	0
426.241	0
432.904	0
434.259	12
434.275	8
450.861	0
452.214	0
452.275	104
482.237	0
482.258	3
482.276	3
500.26	1
500.277	5
500.316	0
511.46	0
519.62	0
541.579	0
601.46	0
607.19	0
648.017	0
660.587	0
695.448	0
736.14	1
736.175	0
736.212	0
737.356	0
737.579	0
737.995	0
738.499	276
739.106	0
739.388	0
739.458	0
739.524	0
739.934	0
740.369	0
741.171	0
