Mass spectrum: PC(16:1e/8,9-EpETE); LC-ESI-QTOF; MS2
Name: PC(16:1e/8,9-EpETE)
Class: Oxidized Phospholipid
Formula: C44H78NO8P
Exact mass: 780.083
SMILES: CCCCCCCCCCCCCC\C=C/OCC(COP([O-])(=O)OCC[N+](C)(C)C)OC(=O)CCC\C=C/CC1OC1C\C=C/C\C=C/C\C=C/CC
InChI: InChI=1S/C44H78NO8P/c1-6-8-10-12-14-16-17-18-19-20-22-24-28-32-37-49-39-41(40-51-54(47,48)50-38-36-45(3,4)5)52-44(46)35-31-27-26-30-34-43-42(53-43)33-29-25-23-21-15-13-11-9-7-2/h9,11,15,21,25-26,29-30,32,37,41-43H,6-8,10,12-14,16-20,22-24,27-28,31,33-36,38-40H2,1-5H3/b11-9-,21-15-,29-25-,30-26-,37-32-
Instrument: Acquity UPLC Peptide BEH C18 column (50 x 2.1 mm; 1.7 um), Sciex TripleTOF5600
Instrument type: LC-ESI-QTOF
Ms type: MS2
Ion mode: NEGATIVE
Collision energy: 30-50
Precursor m/z: 838.560358
Precursor type: [M+CH3COOH-H]-
m/z	relative intensity
111.0367	11
111.0441	11
111.0707	11
123.0766	23
123.0797	23
123.0812	23
123.0828	11
123.089	11
127.0668	11
127.0715	11
127.0731	11
127.0747	23
127.0762	11
127.0778	11
135.1158	11
135.1223	11
139.0701	11
139.075	23
139.0767	11
149.0528	11
149.0545	11
149.1247	23
149.1264	11
149.1298	46
149.1333	23
149.135	23
149.1401	11
155.0624	11
155.0677	23
155.0694	23
155.0712	34
155.0729	23
155.0746	11
155.0764	11
155.0799	11
161.125	23
161.1268	11
161.1303	23
167.0444	11
167.0608	11
167.0662	34
167.068	46
167.0698	34
167.0716	34
167.0735	46
167.0753	34
167.0825	11
168.032	11
168.0411	11
168.0447	11
168.0466	11
177.122	11
177.1276	11
190.1273	11
190.135	23
190.1389	11
201.1531	11
201.1591	11
201.1631	23
201.167	11
207.1528	11
207.177	11
219.1696	11
219.1716	11
219.1758	11
224.0636	11
224.0741	11
224.0804	11
227.1793	11
227.1962	11
229.1835	11
229.2027	11
239.2346	11
239.2411	11
239.2476	11
239.2498	11
253.2148	23
253.217	11
253.2215	11
253.2237	34
255.1983	11
255.2005	23
255.205	11
255.2072	83
255.2095	57
255.2117	11
255.214	46
255.2162	11
255.2184	23
255.2207	34
255.2229	11
255.2274	11
255.2296	11
255.2319	34
255.2341	11
255.2364	11
265.8625	11
265.8717	11
273.1729	11
273.1752	11
273.2054	11
273.21	23
273.2123	23
273.2146	23
273.2169	23
273.2193	11
273.2239	11
279.0621	11
279.0668	11
279.0715	11
281.1889	11
281.2336	11
281.2477	23
289.2134	11
289.223	11
299.1893	11
299.1917	46
299.1942	23
299.1966	11
299.199	57
299.2014	46
299.2039	57
299.2063	46
299.2112	11
299.216	11
317.1909	23
317.1934	34
317.1959	23
317.1984	63
317.2009	73
317.2034	164
317.2059	187
317.2084	340
317.2109	278
317.2134	250
317.2159	136
317.2184	98
317.2209	83
317.2234	57
317.2259	80
317.2284	23
317.2309	11
317.2334	11
317.2359	11
375.2115	11
375.2197	11
375.2251	11
375.2332	23
375.2441	11
393.2283	11
393.2645	11
422.8492	11
422.8607	11
433.2488	11
433.2839	11
440.0187	23
446.2779	11
446.2868	23
446.2898	34
446.2927	23
446.2957	34
446.2986	34
446.3016	57
446.3046	23
446.3075	57
446.3105	11
446.3134	34
446.3164	11
446.3224	11
446.3253	11
451.4303	11
451.4393	11
464.2836	11
464.2957	117
464.2987	62
464.3017	46
464.3047	71
464.3078	149
464.3108	124
464.3138	142
464.3169	118
464.3199	63
464.3229	70
464.3259	97
464.3289	46
464.332	11
464.335	23
464.338	34
464.341	11
464.3441	11
466.2954	11
466.3136	11
466.3167	11
466.3227	11
466.3288	11
466.3318	11
466.3348	11
524.2742	11
524.2902	11
553.2548	11
553.2714	11
553.2845	11
640.0503	23
693.4279	11
693.4537	11
762.0848	11
762.0964	11
762.1002	11
762.1119	11
762.1196	11
762.1622	11
764.3903	11
764.4562	22
764.46	11
764.4678	11
764.4717	22
764.4794	33
764.4833	33
764.4872	82
764.491	151
764.4949	107
764.4988	320
764.5027	381
764.5065	504
764.5104	568
764.5143	891
764.5182	958
764.5221	956
764.5259	999
764.5298	905
764.5337	737
764.5376	624
764.5414	412
764.5453	287
764.5492	311
764.5531	158
764.557	129
764.5609	73
764.5648	75
764.5725	22
764.5803	33
764.5841	22
764.5919	11
764.6035	11
778.4409	11
778.4487	11
778.4644	23
778.4722	23
778.48	11
779.4587	11
779.4704	11
779.4782	11
779.4861	23
779.49	23
779.4939	11
779.4978	23
779.5213	11
807.48	23
807.488	23
807.492	46
807.496	34
807.5	11
807.504	11
807.512	34
807.5199	11
807.5358	11
838.5002	23
838.5205	11
838.5246	34
838.5327	46
838.5367	11
838.5408	46
838.5449	73
838.549	93
838.553	103
838.5571	57
838.5612	62
838.5652	82
838.5693	46
838.5733	34
838.5774	57
838.5814	23
838.5895	23
838.5936	11
838.5977	11
838.6058	11
838.6099	11
838.6261	11
838.6302	11
838.7114	11
838.7236	11
