Mass spectrum: SM d40:0; LC-ESI-QTOF; MS2
Name: SM d40:0
Class: SM
Formula: C45H93N2O6P
Exact mass: 789.2230000000001
SMILES: CCCCCCCCCCCCCCCCCCCCCC(=O)NC(COP([O-])(=O)OCC[N+](C)(C)C)C(O)CCCCCCCCCCCCCCC
InChI: InChI=1S/C45H93N2O6P/c1-6-8-10-12-14-16-18-20-21-22-23-24-25-27-29-31-33-35-37-39-45(49)46-43(42-53-54(50,51)52-41-40-47(3,4)5)44(48)38-36-34-32-30-28-26-19-17-15-13-11-9-7-2/h43-44,48H,6-42H2,1-5H3,(H-,46,49,50,51)
Instrument: AB Sciex TripleTOF 5600+ system (Q-TOF) equipped with a DuoSpray ion source
Instrument type: LC-ESI-QTOF
Ms type: MS2
Ion mode: NEGATIVE
Collision energy: 45V
Column name: Acquity UPLC Peptide BEH C18 column (50*2.1 mm; 1.7 um; 130A)(Waters Co.,Milford, MA, USA)
Retention time: 12.78022
Precursor type: [M+CH3COOH-H]-
Precursor m/z: 847.6848
m/z	relative intensity
78.959	17
122.99	1
168.043	44
228.224	1
281.256	1
284.255	2
328.238	2
340.352	1
393.041	1
428.25	1
445.998	1
525.971	1
655.547	2
771.214	7
773.577	23
773.62	266
773.65	999
774.652	3
786.675	6
787.67	1
788.623	9
797.654	4
801.658	8
847.58	6
847.613	6
847.658	18
847.688	26
847.724	8
847.75	3
