Mass spectrum: Cer[NS] d43:1; LC-ESI-QTOF; MS2
Name: Cer[NS] d43:1
Class: Cer_NS
Formula: C43H85NO3
Exact mass: 664.1569999999999
SMILES: CCCCCCCCCCCCCCCCCCCCCCCCC(=O)NC(CO)C(O)\C=C\CCCCCCCCCCCCC
InChI: InChI=1S/C43H85NO3/c1-3-5-7-9-11-13-15-17-18-19-20-21-22-23-24-25-27-29-31-33-35-37-39-43(47)44-41(40-45)42(46)38-36-34-32-30-28-26-16-14-12-10-8-6-4-2/h36,38,41-42,45-46H,3-35,37,39-40H2,1-2H3,(H,44,47)/b38-36+
Instrument: AB Sciex TripleTOF 5600+ system (Q-TOF) equipped with a DuoSpray ion source
Instrument type: LC-ESI-QTOF
Ms type: MS2
Ion mode: NEGATIVE
Collision energy: 45V
Column name: Acquity UPLC Peptide BEH C18 column (50*2.1 mm; 1.7 um; 130A)(Waters Co.,Milford, MA, USA)
Retention time: 13.41847
Precursor type: [M+CH3COOH-H]-
Precursor m/z: 722.6628
m/z	relative intensity
80.029	0
95.049	0
219.214	0
221.226	0
225.22	0
235.207	3
236.488	0
237.221	149
239.236	5
249.228	0
250.252	7
251.233	1
255.229	1
262.255	1
262.416	1
263.237	132
266.216	0
266.248	20
268.262	22
278.248	0
279.229	1
280.269	0
281.248	4
298.273	8
361.347	2
362.222	0
363.361	199
365.379	0
365.398	0
377.378	0
379.197	0
379.391	15
380.343	0
380.388	168
381.336	0
381.371	111
394.404	1
395.387	0
404.383	2
405.126	2
406.302	0
406.403	726
406.453	1
407.345	1
407.403	0
420.369	0
420.385	4
421.075	0
421.38	0
422.397	124
424.376	0
424.409	2
434.4	0
436.413	1
585.588	0
587.601	1
588.617	0
596.618	0
603.608	4
612.604	0
614.621	99
616.623	0
626.604	0
626.624	1
630.614	119
631.618	0
632.63	213
634.647	1
644.625	7
644.644	5
660.557	6
660.588	1
662.353	0
662.434	0
662.5	1
662.64	999
663.618	0
663.643	2
673.838	0
674.977	0
678.418	0
684.602	0
722.664	7
722.718	0
725.4	0
725.815	0
