Mass spectrum: PC(18:1e/17,18-EpETE); LC-ESI-QTOF; MS2
Name: PC(18:1e/17,18-EpETE)
Class: Oxidized Phospholipid
Formula: C46H82NO8P
Exact mass: 808.137
SMILES: CCCCCCCCCCCCCCCC\C=C/OCC(COP([O-])(=O)OCC[N+](C)(C)C)OC(=O)CCC\C=C/C\C=C/C\C=C/C\C=C/CC1OC1CC
InChI: InChI=1S/C46H82NO8P/c1-6-8-9-10-11-12-13-14-15-16-20-23-26-29-32-35-39-51-41-43(42-53-56(49,50)52-40-38-47(3,4)5)54-46(48)37-34-31-28-25-22-19-17-18-21-24-27-30-33-36-45-44(7-2)55-45/h17,19,21,24-25,28,30,33,35,39,43-45H,6-16,18,20,22-23,26-27,29,31-32,34,36-38,40-42H2,1-5H3/b19-17-,24-21-,28-25-,33-30-,39-35-
Instrument: Acquity UPLC Peptide BEH C18 column (50 x 2.1 mm; 1.7 um), Sciex TripleTOF5600
Instrument type: LC-ESI-QTOF
Ms type: MS2
Ion mode: NEGATIVE
Collision energy: 30-50
Precursor m/z: 866.5916581
Precursor type: [M+CH3COOH-H]-
m/z	relative intensity
78.95946	12
97.07031	12
109.1076	12
161.128	12
161.1298	12
168.0387	12
177.098	12
181.12	12
201.1606	12
207.1379	12
215.1644	18
215.1665	12
215.1685	24
215.1706	12
215.1768	30
215.1789	12
215.181	12
215.183	12
215.1851	18
215.1872	18
215.1892	12
215.1913	12
255.1996	36
255.2019	36
255.2041	30
255.2064	48
255.2086	48
255.2109	42
255.2132	60
255.2154	60
255.2177	42
255.2199	30
255.2222	24
255.2244	30
255.2267	12
259.1594	30
259.1617	24
259.1639	48
259.1662	54
259.1685	42
259.1708	48
259.173	60
259.1753	30
259.1776	24
259.1798	42
259.1821	18
259.1889	12
259.1912	12
261.1781	12
261.1872	12
273.2144	12
273.2167	24
273.219	18
273.2214	24
273.226	30
273.2284	12
273.2307	12
273.233	36
281.1872	12
281.2369	18
281.244	18
281.2487	18
281.2511	18
299.1829	12
299.1878	12
299.1902	60
299.1927	30
299.1951	36
299.1976	36
299.2	60
299.2025	60
299.2049	60
299.2073	36
299.2098	36
299.2122	54
299.2147	36
299.2171	12
299.2195	12
299.222	12
304.756	12
316.227	12
316.2345	12
316.247	12
317.0455	12
317.1887	38
317.1912	25
317.1937	56
317.1962	86
317.1987	107
317.2013	169
317.2038	271
317.2063	233
317.2088	224
317.2113	276
317.2138	363
317.2163	226
317.2188	212
317.2213	194
317.2238	137
317.2264	62
317.2289	100
317.2314	44
317.2339	50
317.2364	37
317.239	19
317.2415	12
317.244	6
317.249	12
318.2249	6
403.2561	12
403.259	12
403.2646	18
432.9329	12
474.3119	12
474.315	12
474.3211	36
474.3242	12
474.3273	36
474.3304	24
474.3334	54
474.3365	24
474.3396	42
474.3427	30
474.3457	30
474.3488	36
474.3519	36
474.358	24
474.5209	12
490.8038	12
492.3053	12
492.3085	12
492.3116	24
492.3147	30
492.3179	48
492.321	55
492.3241	79
492.3272	55
492.3304	55
492.3335	151
492.3366	195
492.3398	163
492.3429	170
492.346	133
492.3492	73
492.3523	91
492.3554	121
492.3586	115
492.3617	91
492.3648	72
492.368	42
492.3711	12
492.3742	24
492.3773	24
492.3805	36
492.3867	12
492.393	12
495.262	12
721.4418	12
790.0332	24
790.0689	18
790.0887	12
792.4741	18
792.4821	24
792.4979	52
792.502	46
792.5059	73
792.5099	53
792.5139	141
792.5178	116
792.5218	201
792.5258	293
792.5297	366
792.5337	396
792.5377	586
792.5416	610
792.5456	585
792.5496	651
792.5536	999
792.5576	778
792.5615	889
792.5655	764
792.5695	863
792.5734	741
792.5774	672
792.5814	639
792.5853	522
792.5893	490
792.5933	357
792.5973	291
792.6013	241
792.6052	113
792.6092	155
792.6132	63
792.6171	29
792.6211	58
792.6251	14
792.629	28
792.633	29
792.637	7
792.6688	7
792.6767	12
793.217	7
793.539	12
793.543	24
793.5509	12
793.5588	18
793.5668	18
793.5787	12
793.5827	18
793.5906	24
807.4792	12
807.4913	18
807.5073	18
807.5153	12
807.5353	12
807.5514	12
807.5594	12
866.517	12
866.5253	24
866.5295	18
866.5378	18
866.5419	18
866.5461	36
866.5502	36
866.5544	18
866.5586	48
866.5627	30
866.5669	36
866.571	36
866.5752	72
866.5793	42
866.5835	30
866.5876	54
866.5918	78
866.5959	78
866.6001	84
866.6042	42
866.6084	78
866.6125	72
866.6167	54
866.6208	30
866.625	42
866.6292	90
866.6334	60
866.6375	36
866.6417	42
866.6458	12
866.65	12
866.6583	12
866.6666	12
