Mass spectrum: PC(18:1e/8-HEPE); LC-ESI-QTOF; MS2
Name: PC(18:1e/8-HEPE)
Class: Oxidized Phospholipid
Formula: C46H82NO8P
Exact mass: 808.137
SMILES: CCCCCCCCCCCCCCCC\C=C/OCC(COP([O-])(=O)OCC[N+](C)(C)C)OC(=O)CCC\C=C/CC(O)\C=C\C=C/C\C=C/C\C=C/CC
InChI: InChI=1S/C46H82NO8P/c1-6-8-10-12-14-16-18-19-20-21-22-23-25-27-31-35-40-52-42-45(43-54-56(50,51)53-41-39-47(3,4)5)55-46(49)38-34-30-29-33-37-44(48)36-32-28-26-24-17-15-13-11-9-7-2/h9,11,15,17,26,28-29,32-33,35-36,40,44-45,48H,6-8,10,12-14,16,18-25,27,30-31,34,37-39,41-43H2,1-5H3/b11-9-,17-15-,28-26-,33-29-,36-32+,40-35-
Instrument: Acquity UPLC Peptide BEH C18 column (50 x 2.1 mm; 1.7 um), Sciex TripleTOF5600
Instrument type: LC-ESI-QTOF
Ms type: MS2
Ion mode: NEGATIVE
Collision energy: 30-50
Precursor m/z: 866.5916581
Precursor type: [M+CH3COOH-H]-
m/z	relative intensity
155.0693	164
255.2171	164
255.2261	164
299.1945	164
299.2042	254
299.2067	164
317.2056	254
317.2106	254
317.2181	336
317.2206	254
492.3325	164
492.3544	254
792.5004	164
792.5043	164
792.5083	164
792.5162	164
792.5242	753
792.5281	418
792.5321	581
792.5361	835
792.5401	753
792.5441	336
792.548	753
792.552	671
792.556	418
792.5599	753
792.5639	753
792.5679	671
792.5718	671
792.5758	500
792.5798	999
792.5837	581
792.5878	336
792.5917	336
792.5957	418
792.5997	500
792.6076	336
807.5297	164
866.5195	164
866.5236	164
866.5278	254
866.5361	164
866.5486	164
866.5693	164
866.5776	164
866.5818	164
866.5859	164
866.5942	254
