Mass spectrum: SM d34:2; LC-ESI-QTOF; MS2
Name: SM d34:2
Class: SM
Formula: C39H77N2O6P
Exact mass: 701.029
SMILES: CCCCCCCCCCCCCCCC(=O)NC(COP([O-])(=O)OCC[N+](C)(C)C)C(O)\C=C\CC\C=C\CCCCCCCCC
InChI: InChI=1S/C39H77N2O6P/c1-6-8-10-12-14-16-18-20-22-24-26-28-30-32-38(42)37(36-47-48(44,45)46-35-34-41(3,4)5)40-39(43)33-31-29-27-25-23-21-19-17-15-13-11-9-7-2/h22,24,30,32,37-38,42H,6-21,23,25-29,31,33-36H2,1-5H3,(H-,40,43,44,45)/b24-22+,32-30+
Instrument: AB Sciex TripleTOF 5600+ system (Q-TOF) equipped with a DuoSpray ion source
Instrument type: LC-ESI-QTOF
Ms type: MS2
Ion mode: NEGATIVE
Collision energy: 45V
Column name: Acquity UPLC Peptide BEH C18 column (50*2.1 mm; 1.7 um; 130A)(Waters Co.,Milford, MA, USA)
Retention time: 8.547995
Precursor type: [M+CH3COOH-H]-
Precursor m/z: 759.5603
m/z	relative intensity
78.959	24
136.966	2
152.994	3
167.521	1
168.044	79
171.007	2
255.229	21
255.253	3
267.234	2
269.234	4
269.249	11
269.262	3
279.231	30
279.252	3
281.25	6
283.261	8
293.236	4
294.222	2
405.235	1
417.234	1
419.25	6
437.275	1
447.285	4
447.305	4
465.261	1
479.264	1
483.281	1
489.226	1
497.298	2
614.452	6
640.473	1
669.483	0
672.451	0
683.345	3
683.383	4
685.525	999
686.531	2
699.481	3
700.494	5
701.526	6
759.462	7
759.492	15
759.522	50
759.556	12
759.603	2
