Mass spectrum: PG 38:4; LC-ESI-QTOF; MS2
Name: PG 38:4
Class: PG
Formula: C44H79O10P
Exact mass: 799.082
SMILES: CCCCCCCCCCCCCCCCCC(=O)OCC(COP(O)(=O)OCC(O)CO)OC(=O)CCCCCC\C=C/C\C=C/C\C=C/C\C=C/CC
InChI: InChI=1S/C44H79O10P/c1-3-5-7-9-11-13-15-17-19-20-22-24-26-28-30-32-34-36-44(48)54-42(40-53-55(49,50)52-38-41(46)37-45)39-51-43(47)35-33-31-29-27-25-23-21-18-16-14-12-10-8-6-4-2/h5,7,11,13,17,19,22,24,41-42,45-46H,3-4,6,8-10,12,14-16,18,20-21,23,25-40H2,1-2H3,(H,49,50)/b7-5-,13-11-,19-17-,24-22-
Instrument: AB Sciex TripleTOF 5600+ system (Q-TOF) equipped with a DuoSpray ion source
Instrument type: LC-ESI-QTOF
Ms type: MS2
Ion mode: NEGATIVE
Collision energy: 45V
Column name: Acquity UPLC Peptide BEH C18 column (50*2.1 mm; 1.7 um; 130A)(Waters Co.,Milford, MA, USA)
Retention time: 8.798367
Precursor type: [M-H]-
Precursor m/z: 797.5328
m/z	relative intensity
78.959	12
120.969	3
138.983	4
152.994	30
163.073	1
171.006	11
177.093	2
191.112	2
194.998	2
195.01	5
205.121	1
205.177	2
205.198	17
209.019	3
217.193	2
227.03	14
231.212	4
253.214	2
255.238	3
259.243	86
282.376	4
282.419	1
283.262	496
283.366	1
285.206	2
285.226	6
301.214	2
302.274	3
302.293	5
302.888	1
303.23	999
304.231	4
331.261	4
419.225	3
419.254	12
419.274	4
437.257	3
439.216	2
461.245	6
461.272	8
479.265	24
479.295	5
481.234	5
493.28	13
493.314	4
499.231	3
511.258	2
511.287	35
511.316	21
511.345	1
511.646	0
513.254	7
513.283	2
531.27	3
723.479	1
763.039	1
765.44	8
765.483	130
765.514	227
766.507	1
794.965	1
795.008	3
796.387	1
797.007	1
797.504	182
797.53	791
797.612	3
798.513	2
798.547	3
