Mass spectrum: PG 36:2; LC-ESI-QTOF; MS2
Name: PG 36:2
Class: PG
Formula: C42H79O10P
Exact mass: 775.0600000000001
SMILES: CCCCCCCCCCCCCCCC(=O)OCC(COP(O)(=O)OCC(O)CO)OC(=O)CCCCCCCCC\C=C/C\C=C/CCCCC
InChI: InChI=1S/C42H79O10P/c1-3-5-7-9-11-13-15-17-18-19-20-22-24-26-28-30-32-34-42(46)52-40(38-51-53(47,48)50-36-39(44)35-43)37-49-41(45)33-31-29-27-25-23-21-16-14-12-10-8-6-4-2/h11,13,17-18,39-40,43-44H,3-10,12,14-16,19-38H2,1-2H3,(H,47,48)/b13-11-,18-17-
Instrument: AB Sciex TripleTOF 5600+ system (Q-TOF) equipped with a DuoSpray ion source
Instrument type: LC-ESI-QTOF
Ms type: MS2
Ion mode: NEGATIVE
Collision energy: 45V
Column name: Acquity UPLC Peptide BEH C18 column (50*2.1 mm; 1.7 um; 130A)(Waters Co.,Milford, MA, USA)
Retention time: 8.782153
Precursor type: [M-H]-
Precursor m/z: 773.5335
m/z	relative intensity
152.996	32
171.009	14
227.031	3
253.214	5
255.236	82
279.232	456
281.245	76
281.262	13
283.264	195
306.299	3
307.241	17
307.265	241
391.225	12
415.227	7
417.228	4
419.253	7
459.253	3
465.261	11
477.264	5
483.275	13
489.259	9
493.286	13
511.267	7
511.31	27
517.297	7
535.288	3
699.514	3
700.468	3
741.466	17
741.503	44
741.524	25
771.102	5
773.528	999
773.605	18
