Mass spectrum: PI 36:1; LC-ESI-QTOF; MS2
Name: PI 36:1
Class: PI
Formula: C45H85O13P
Exact mass: 865.1379999999999
SMILES: CCCCCCCCCCCCCCCCCC(=O)OCC(COP(O)(=O)OC1C(O)C(O)C(O)C(O)C1O)OC(=O)CCCCCCC\C=C/CCCCCCCC
InChI: InChI=1S/C45H85O13P/c1-3-5-7-9-11-13-15-17-19-21-23-25-27-29-31-33-38(46)55-35-37(36-56-59(53,54)58-45-43(51)41(49)40(48)42(50)44(45)52)57-39(47)34-32-30-28-26-24-22-20-18-16-14-12-10-8-6-4-2/h18,20,37,40-45,48-52H,3-17,19,21-36H2,1-2H3,(H,53,54)/b20-18-
Instrument: AB Sciex TripleTOF 5600+ system (Q-TOF) equipped with a DuoSpray ion source
Instrument type: LC-ESI-QTOF
Ms type: MS2
Ion mode: NEGATIVE
Collision energy: 45V
Column name: Acquity UPLC Peptide BEH C18 column (50*2.1 mm; 1.7 um; 130A)(Waters Co.,Milford, MA, USA)
Retention time: 9.13166
Precursor type: [M-H]-
Precursor m/z: 863.5657
m/z	relative intensity
78.956	1
96.964	0
134.981	0
152.992	6
153.005	2
171.008	0
223.003	15
241.012	54
255.231	14
259.027	4
281.248	86
282.37	1
283.261	110
284.269	2
297.038	12
309.278	6
315.039	3
315.058	2
327.214	1
327.228	4
355.268	1
356.253	2
417.232	2
417.249	4
419.255	41
420.278	1
437.268	4
552.316	1
553.244	0
553.303	1
579.269	3
579.289	2
579.307	3
581.277	10
581.308	56
583.346	0
597.3	1
599.3	3
599.33	8
607.328	1
701.5	2
776.551	3
790.512	4
790.553	10
860.812	2
860.912	1
863.482	3
863.564	999
863.67	2
864.565	5
