Mass spectrum: PS(18:0/20-HETE); LC-ESI-QTOF; MS2
Name: PS(18:0/20-HETE)
Class: Oxidized Phospholipid
Formula: C44H78NO11P
Exact mass: 828.08
SMILES: CCCCCCCCCCCCCCCCCC(=O)OCC(COP(O)(=O)OCC(N)C(O)=O)OC(=O)CCC\C=C/C\C=C/C\C=C/C\C=C/CCCCCO
InChI: InChI=1S/C44H78NO11P/c1-2-3-4-5-6-7-8-9-13-16-19-22-25-28-31-34-42(47)53-37-40(38-54-57(51,52)55-39-41(45)44(49)50)56-43(48)35-32-29-26-23-20-17-14-11-10-12-15-18-21-24-27-30-33-36-46/h10,12,14,17-18,21,23,26,40-41,46H,2-9,11,13,15-16,19-20,22,24-25,27-39,45H2,1H3,(H,49,50)(H,51,52)/b12-10-,17-14-,21-18-,26-23-
Instrument: Acquity UPLC Peptide BEH C18 column (50 x 2.1 mm; 1.7 um), Sciex TripleTOF5600
Instrument type: LC-ESI-QTOF
Ms type: MS2
Ion mode: NEGATIVE
Collision energy: 30-50
Precursor m/z: 826.5239728
Precursor type: [M-H]-
m/z	relative intensity
78.95195	19
78.95319	9
78.95444	47
78.95568	54
78.95693	98
78.95818	102
78.95942	89
78.96067	73
78.96192	28
78.96316	28
78.96441	9
96.96339	9
96.96615	28
96.96754	19
96.9703	38
96.97858	9
99.24019	9
100.7971	9
100.807	9
134.9791	9
134.9807	19
134.984	9
134.9938	9
139.0008	9
139.0025	9
141.0555	9
141.0888	9
141.1021	9
152.5199	9
152.5216	9
152.5337	9
152.981	9
152.9827	9
152.9845	19
152.9862	38
152.9879	89
152.9897	194
152.9914	184
152.9931	224
152.9949	242
152.9966	138
152.9983	198
153.0001	125
153.0018	94
153.0035	47
153.0053	28
153.007	28
153.0122	19
153.7696	9
153.8009	9
153.9975	9
154.0236	9
155.5994	9
155.6309	9
169.2236	9
169.229	9
170.9906	9
170.9998	9
171.0016	38
171.0034	9
171.0053	9
171.0089	9
171.0108	9
173.1247	9
173.1579	9
174.4077	9
174.4115	9
174.4133	9
245.2252	19
248.5905	9
248.5971	9
248.5993	9
249.2477	9
249.2521	19
257.2153	9
257.222	9
262.3694	9
262.3762	9
273.1833	9
273.2135	9
275.2248	9
275.2294	9
275.2318	9
275.2341	19
275.2364	9
275.2387	9
275.2411	9
275.2434	9
275.2504	9
275.255	9
282.3837	9
282.4167	9
283.1927	9
283.2376	18
283.2399	37
283.2423	9
283.2447	37
283.247	69
283.2494	70
283.2517	165
283.2541	276
283.2564	369
283.2588	942
283.2612	999
283.2635	919
283.2659	541
283.2682	628
283.2706	288
283.273	225
283.2753	154
283.2777	61
283.2801	61
283.2824	54
283.2848	28
283.2871	18
283.2919	9
283.2942	9
283.3414	9
283.3863	9
283.5138	9
283.5303	9
283.5516	9
284.0265	9
284.062	9
284.2747	9
284.2889	9
286.0439	9
286.0487	9
286.0771	9
286.4307	9
286.4592	9
287.0981	9
287.1314	9
289.1741	9
289.1765	9
289.2099	9
289.2147	9
289.2171	28
289.2195	9
289.2242	9
289.26	9
290.7552	9
290.791	9
299.2465	9
299.2562	9
299.2683	9
299.2731	9
301.2003	9
301.2052	9
301.2076	9
301.2101	47
301.2125	38
301.2149	19
301.2173	19
301.2198	19
301.2222	9
301.2295	9
319.2039	9
319.2064	19
319.2089	38
319.2114	47
319.2139	47
319.2164	70
319.2189	112
319.2214	106
319.2239	166
319.2264	166
319.2289	162
319.2314	105
319.2339	94
319.2365	91
319.239	28
319.2415	50
319.244	19
319.2465	19
319.249	9
319.2565	9
321.8832	9
321.9033	9
323.1173	9
323.14	9
419.2254	9
419.2311	19
419.234	28
419.2368	9
419.2397	47
419.2426	76
419.2455	127
419.2484	139
419.2512	146
419.2541	120
419.257	128
419.2598	92
419.2627	61
419.2656	63
419.2685	91
419.2713	47
419.2771	38
419.2799	19
419.2857	9
419.2943	9
423.9279	9
423.9626	9
437.2189	9
437.2394	9
437.2453	47
437.2482	19
437.2512	47
437.2541	52
437.257	57
437.2599	54
437.2629	87
437.2658	58
437.2687	60
437.2717	38
437.2746	38
437.2776	19
437.2805	19
437.2834	19
437.2863	9
437.2893	9
437.2951	9
437.2981	9
443.0951	9
443.098	9
443.1039	9
455.1984	9
455.2014	9
455.2044	9
455.2104	9
455.2134	9
455.2164	19
455.2194	28
455.2283	28
455.2313	19
455.2493	9
473.2228	9
473.2259	19
473.2289	9
739.444	9
739.4478	9
739.4554	9
739.463	28
739.4669	19
739.4706	50
739.4745	28
739.4783	56
739.4821	53
739.4859	138
739.4897	68
739.4935	50
739.4974	55
739.5012	61
739.505	47
739.5088	28
739.5126	19
739.5164	28
739.5203	38
739.524	9
739.5279	9
739.5355	19
739.5393	19
826.4913	9
826.4994	9
826.5115	9
826.5155	9
826.5276	9
826.5397	9
826.5478	9
890.7859	9
890.8319	9
