Mass spectrum: Cer[NP] t41:0; LC-ESI-QTOF; MS2
Name: Cer[NP] t41:0
Class: Cer_NP
Formula: C41H83NO4
Exact mass: 654.1179999999999
SMILES: CCCCCCCCCCCCCCCCCCCCCCC(=O)NC(CO)C(O)C(O)CCCCCCCCCCCCCC
InChI: InChI=1S/C41H83NO4/c1-3-5-7-9-11-13-15-17-18-19-20-21-22-23-24-26-28-30-32-34-36-40(45)42-38(37-43)41(46)39(44)35-33-31-29-27-25-16-14-12-10-8-6-4-2/h38-39,41,43-44,46H,3-37H2,1-2H3,(H,42,45)
Instrument: AB Sciex TripleTOF 5600+ system (Q-TOF) equipped with a DuoSpray ion source
Instrument type: LC-ESI-QTOF
Ms type: MS2
Ion mode: NEGATIVE
Collision energy: 45V
Column name: Acquity UPLC Peptide BEH C18 column (50*2.1 mm; 1.7 um; 130A)(Waters Co.,Milford, MA, USA)
Retention time: 13.05444
Precursor type: [M+CH3COOH-H]-
Precursor m/z: 712.6428
m/z	relative intensity
223.209	1
225.221	8
237.219	3
241.218	2
250.249	1
253.219	4
255.231	39
263.236	4
266.243	1
266.385	1
267.231	175
279.23	6
280.26	16
280.274	4
284.259	8
316.277	6
316.289	4
335.327	15
337.343	10
338.346	1
339.335	2
351.365	2
352.227	2
352.356	51
353.34	142
364.353	1
365.34	3
366.37	11
367.348	6
367.359	9
376.355	3
378.345	2
378.369	48
380.358	2
382.37	3
390.37	8
393.351	2
394.366	107
396.381	299
396.43	2
408.381	238
410.393	4
410.415	1
422.397	3
535.528	1
586.575	5
586.594	10
588.604	3
598.591	1
602.587	5
604.598	3
616.596	59
616.616	14
620.557	1
620.588	12
620.609	12
622.613	5
634.581	2
634.611	24
650.558	3
650.608	3
652.62	999
684.647	0
712.663	1
