Mass spectrum: PE 38:3; LC-ESI-QTOF; MS2
Name: PE 38:3
Class: PE
Formula: C43H80NO8P
Exact mass: 770.0879999999999
SMILES: CCCCCCCCCCCCCCCCCC(=O)OCC(COP(O)(=O)OCCN)OC(=O)CCCCCCCCC\C=C/C\C=C/C\C=C/CC
InChI: InChI=1S/C43H80NO8P/c1-3-5-7-9-11-13-15-17-19-20-22-24-26-28-30-32-34-36-43(46)52-41(40-51-53(47,48)50-38-37-44)39-49-42(45)35-33-31-29-27-25-23-21-18-16-14-12-10-8-6-4-2/h5,7,11,13,17,19,41H,3-4,6,8-10,12,14-16,18,20-40,44H2,1-2H3,(H,47,48)/b7-5-,13-11-,19-17-
Instrument: AB Sciex TripleTOF 5600+ system (Q-TOF) equipped with a DuoSpray ion source
Instrument type: LC-ESI-QTOF
Ms type: MS2
Ion mode: NEGATIVE
Collision energy: 45V
Column name: Acquity UPLC Peptide BEH C18 column (50*2.1 mm; 1.7 um; 130A)(Waters Co.,Milford, MA, USA)
Retention time: 10.76308
Precursor type: [M-H]-
Precursor m/z: 768.5525
m/z	relative intensity
140.013	13
196.036	20
255.234	2
261.262	5
281.242	2
283.263	376
287.233	2
303.234	5
304.295	4
305.246	999
333.283	4
462.283	8
462.308	9
480.305	63
484.277	3
502.287	6
608.562	1
762.815	1
766.128	3
768.488	11
768.549	588
769.546	1
