Mass spectrum: PE(18:1e/20-HETE); LC-ESI-QTOF; MS2
Name: PE(18:1e/20-HETE)
Class: Oxidized Phospholipid
Formula: C43H78NO8P
Exact mass: 768.072
SMILES: CCCCCCCCCCCCCCCC\C=C/OCC(COP(O)(=O)OCCN)OC(=O)CCC\C=C/C\C=C/C\C=C/C\C=C/CCCCCO
InChI: InChI=1S/C43H78NO8P/c1-2-3-4-5-6-7-8-9-10-16-19-22-25-28-31-34-38-49-40-42(41-51-53(47,48)50-39-36-44)52-43(46)35-32-29-26-23-20-17-14-12-11-13-15-18-21-24-27-30-33-37-45/h11,13-14,17-18,21,23,26,34,38,42,45H,2-10,12,15-16,19-20,22,24-25,27-33,35-37,39-41,44H2,1H3,(H,47,48)/b13-11-,17-14-,21-18-,26-23-,38-34-
Instrument: Acquity UPLC Peptide BEH C18 column (50 x 2.1 mm; 1.7 um), Sciex TripleTOF5600
Instrument type: LC-ESI-QTOF
Ms type: MS2
Ion mode: NEGATIVE
Collision energy: 30-50
Precursor m/z: 766.539229
Precursor type: [M-H]-
m/z	relative intensity
78.95778	24
78.96029	24
78.96154	10
140.0094	10
140.0111	15
140.0128	10
140.0144	15
177.0937	10
177.165	10
179.0537	10
191.0951	10
191.179	10
196.0301	20
196.0321	15
196.0341	15
196.036	10
196.038	10
196.04	20
196.042	10
196.0439	10
196.0479	10
196.0499	10
201.1721	10
245.2186	10
245.223	34
245.2252	24
245.2275	15
245.2341	20
245.2363	10
245.2385	24
245.2407	15
245.2606	10
257.2181	10
257.2204	15
257.2249	10
257.2294	10
257.2317	20
257.2339	10
257.2453	10
267.2621	15
267.2644	29
267.2667	20
267.269	10
267.2759	10
267.2782	10
267.2805	10
267.2828	10
273.2091	10
273.2114	10
273.2184	10
273.2208	15
273.2231	24
273.2254	10
273.2278	10
273.2301	10
273.2324	20
275.2091	10
275.2184	10
275.2278	24
275.2302	15
275.2325	39
275.2349	54
275.2372	20
275.2395	20
275.2419	24
275.2442	29
275.2489	10
275.2513	10
275.2536	15
289.1998	10
289.2022	10
289.2046	10
289.207	34
289.2094	10
289.2118	15
289.2142	10
289.2166	24
289.219	10
289.2214	34
289.2262	20
289.2286	10
289.231	20
289.2454	10
291.2309	10
301.1991	20
301.2016	20
301.204	24
301.2065	20
301.2089	54
301.2114	58
301.2138	68
301.2163	54
301.2187	64
301.2212	64
301.2236	73
301.2261	34
301.2285	15
301.231	34
301.2334	10
301.2359	10
301.2432	10
302.7979	10
317.2182	11
317.2232	10
318.2192	10
318.2318	10
318.476	11
319.1738	10
319.1915	5
319.194	16
319.1965	11
319.199	32
319.2016	77
319.2041	45
319.2066	126
319.2091	166
319.2117	216
319.2142	362
319.2167	400
319.2192	584
319.2217	751
319.2243	678
319.2268	745
319.2293	999
319.2318	837
319.2343	810
319.2369	777
319.2394	488
319.2419	293
319.2444	243
319.2469	130
319.2495	124
319.252	57
319.2545	68
319.257	57
319.2596	17
319.2621	11
319.2646	6
319.2671	17
319.2697	6
319.2747	5
319.6101	6
319.6429	6
319.6454	6
319.9381	6
320.2183	10
320.2309	20
320.2334	10
320.236	15
320.2435	10
320.2486	10
320.2511	10
377.2586	10
403.247	10
403.2527	15
403.2697	10
403.2725	24
426.1713	10
428.4025	10
446.271	10
446.28	20
446.283	10
446.2859	15
446.2889	24
446.2919	39
446.2949	58
446.2979	49
446.3008	54
446.3038	39
446.3068	58
446.3098	78
446.3128	59
446.3157	39
446.3187	20
446.3217	10
446.3247	20
446.3336	15
446.3396	15
447.3089	10
462.8852	10
464.2736	15
464.2796	24
464.2827	15
464.2857	25
464.2888	34
464.2918	40
464.2948	80
464.2979	112
464.3009	111
464.304	112
464.307	122
464.31	157
464.3131	164
464.3161	224
464.3192	168
464.3222	220
464.3252	112
464.3283	113
464.3313	87
464.3344	87
464.3374	51
464.3405	36
464.3435	20
464.3495	10
464.3526	25
464.3557	10
464.8544	5
764.1956	11
766.4713	10
766.4791	26
766.483	33
766.4869	61
766.4908	91
766.4947	66
766.4986	103
766.5025	88
766.5064	121
766.5103	188
766.5142	189
766.5181	342
766.522	385
766.5259	346
766.5298	403
766.5338	416
766.5377	405
766.5416	610
766.5455	605
766.5494	536
766.5533	519
766.5572	533
766.5611	504
766.565	420
766.5689	318
766.5728	322
766.5767	217
766.5806	191
766.5845	145
766.5884	124
766.5923	111
766.5963	33
766.6002	67
766.6041	33
766.608	17
766.6119	28
766.6158	6
766.6197	11
766.6236	14
766.6275	10
766.647	5
766.7291	10
767.4833	6
767.5146	10
767.5185	24
767.5263	44
767.5302	29
767.5341	20
767.5419	15
767.5458	10
767.5536	15
767.5576	24
767.5615	20
767.5654	15
767.5693	20
767.5771	10
767.5927	10
768.6994	10
