Mass spectrum: PI 34:2; LC-ESI-QTOF; MS2
Name: PI 34:2
Class: PI
Formula: C43H79O13P
Exact mass: 835.068
SMILES: CCCCCCCCCCCCCCCC(=O)OCC(COP(O)(=O)OC1C(O)C(O)C(O)C(O)C1O)OC(=O)CCCCCCC\C=C/C\C=C/CCCCC
InChI: InChI=1S/C43H79O13P/c1-3-5-7-9-11-13-15-17-18-20-22-24-26-28-30-32-37(45)55-35(34-54-57(51,52)56-43-41(49)39(47)38(46)40(48)42(43)50)33-53-36(44)31-29-27-25-23-21-19-16-14-12-10-8-6-4-2/h11,13,17-18,35,38-43,46-50H,3-10,12,14-16,19-34H2,1-2H3,(H,51,52)/b13-11-,18-17-
Instrument: AB Sciex TripleTOF 5600+ system (Q-TOF) equipped with a DuoSpray ion source
Instrument type: LC-ESI-QTOF
Ms type: MS2
Ion mode: NEGATIVE
Collision energy: 45V
Column name: Acquity UPLC Peptide BEH C18 column (50*2.1 mm; 1.7 um; 130A)(Waters Co.,Milford, MA, USA)
Retention time: 8.299026
Precursor type: [M-H]-
Precursor m/z: 833.5173
m/z	relative intensity
78.958	6
96.97	1
134.981	0
152.993	20
223.0	21
240.249	0
241.01	86
253.216	0
254.43	1
255.231	162
259.02	9
278.354	1
278.375	0
279.232	165
279.268	1
280.232	0
295.223	0
297.037	19
315.047	5
389.995	0
391.189	1
391.223	67
392.221	1
409.229	5
409.258	0
415.222	12
497.25	0
551.541	0
553.272	79
571.283	15
571.308	1
577.237	0
577.272	13
595.272	1
595.296	1
671.47	2
673.462	0
759.529	1
830.888	4
831.596	0
832.493	0
833.201	0
833.374	0
833.512	999
833.586	1
834.346	0
834.513	2
