Mass spectrum: PS(18:0/18-HETE); LC-ESI-QTOF; MS2
Name: PS(18:0/18-HETE)
Class: Oxidized Phospholipid
Formula: C44H78NO11P
Exact mass: 828.08
SMILES: CCCCCCCCCCCCCCCCCC(=O)OCC(COP(O)(=O)OCC(N)C(O)=O)OC(=O)CCC\C=C/C\C=C/C\C=C/C\C=C/CCC(O)CC
InChI: InChI=1S/C44H78NO11P/c1-3-5-6-7-8-9-10-11-12-16-19-22-25-28-31-34-42(47)53-36-40(37-54-57(51,52)55-38-41(45)44(49)50)56-43(48)35-32-29-26-23-20-17-14-13-15-18-21-24-27-30-33-39(46)4-2/h14-15,17-18,23-24,26-27,39-41,46H,3-13,16,19-22,25,28-38,45H2,1-2H3,(H,49,50)(H,51,52)/b17-14-,18-15-,26-23-,27-24-
Instrument: Acquity UPLC Peptide BEH C18 column (50 x 2.1 mm; 1.7 um), Sciex TripleTOF5600
Instrument type: LC-ESI-QTOF
Ms type: MS2
Ion mode: NEGATIVE
Collision energy: 30-50
Precursor m/z: 826.5239728
Precursor type: [M-H]-
m/z	relative intensity
78.95059	23
78.95184	45
78.95308	45
78.95433	113
78.95557	113
78.95682	136
78.95807	45
78.95931	147
78.96056	68
78.9618	130
78.96305	45
78.96554	23
96.96036	23
96.96588	23
96.96864	68
96.9714	23
150.9814	45
150.9831	23
152.9819	68
152.9836	45
152.9853	45
152.9871	113
152.9888	151
152.9905	230
152.9923	239
152.994	209
152.9957	307
152.9975	330
152.9992	158
153.0009	236
153.0027	113
153.0044	68
153.0062	45
153.0079	23
153.0096	45
153.0131	23
170.9987	23
171.0024	23
171.0061	23
177.6968	23
177.7061	23
195.38	23
195.384	23
217.1862	23
217.1903	23
217.2006	23
217.213	23
255.2062	23
255.2309	23
261.1692	23
261.176	23
261.1851	45
261.1873	23
261.1896	23
261.1919	45
282.3696	23
282.3814	23
283.2447	111
283.247	166
283.2494	198
283.2517	198
283.2541	292
283.2565	490
283.2588	675
283.2612	650
283.2635	999
283.2659	890
283.2683	701
283.2706	492
283.273	332
283.2754	530
283.2777	126
283.2801	181
283.2824	89
283.2872	45
283.2943	23
288.1947	23
288.2399	23
301.205	23
301.2099	45
301.2123	23
301.2148	23
301.2172	113
301.2196	23
301.2221	45
301.2245	23
301.2343	23
319.2061	23
319.2086	23
319.2111	45
319.2136	45
319.2161	45
319.2186	68
319.2211	177
319.2236	143
319.2261	145
319.2286	190
319.2312	126
319.2337	126
319.2362	68
319.2387	45
319.2412	23
319.2437	23
319.2462	23
319.2537	23
419.2242	23
419.2357	68
419.2414	130
419.2443	138
419.2472	126
419.2501	141
419.2529	68
419.2558	160
419.2587	132
419.2615	45
419.2644	190
419.2673	45
419.2701	68
419.273	45
419.2788	23
419.2816	23
419.2931	23
437.244	23
437.2469	23
437.2498	45
437.2527	90
437.2557	68
437.2586	113
437.2615	45
437.2645	68
437.2674	90
437.2704	45
437.2733	68
437.2762	68
437.2909	23
455.2089	68
455.2149	45
455.2179	68
455.2208	45
455.2238	68
455.2328	45
455.2448	45
455.2597	23
473.2242	23
473.2273	23
473.2334	45
473.2395	23
539.9464	45
739.4471	23
739.4509	23
739.4586	23
739.4662	23
739.47	45
739.4738	23
739.4777	23
739.4814	23
739.4853	113
739.4891	90
739.4929	132
739.4967	90
739.5005	124
739.5043	68
739.5082	68
739.5158	45
739.5196	23
739.5234	23
739.5349	23
739.5539	23
826.502	23
826.506	23
826.5181	23
826.5222	23
826.5303	23
826.5544	23
