Mass spectrum: PG 40:6; LC-ESI-QTOF; MS2
Name: PG 40:6
Class: PG
Formula: C46H79O10P
Exact mass: 823.1039999999999
SMILES: CCCCCCCCCCCCCCCCCC(=O)OCC(COP(O)(=O)OCC(O)CO)OC(=O)CC\C=C/C\C=C/C\C=C/C\C=C/C\C=C/C\C=C/CC
InChI: InChI=1S/C46H79O10P/c1-3-5-7-9-11-13-15-17-19-20-21-22-24-26-28-30-32-34-36-38-46(50)56-44(42-55-57(51,52)54-40-43(48)39-47)41-53-45(49)37-35-33-31-29-27-25-23-18-16-14-12-10-8-6-4-2/h5,7,11,13,17,19,21-22,26,28,32,34,43-44,47-48H,3-4,6,8-10,12,14-16,18,20,23-25,27,29-31,33,35-42H2,1-2H3,(H,51,52)/b7-5-,13-11-,19-17-,22-21-,28-26-,34-32-
Instrument: AB Sciex TripleTOF 5600+ system (Q-TOF) equipped with a DuoSpray ion source
Instrument type: LC-ESI-QTOF
Ms type: MS2
Ion mode: NEGATIVE
Collision energy: 45V
Column name: Acquity UPLC Peptide BEH C18 column (50*2.1 mm; 1.7 um; 130A)(Waters Co.,Milford, MA, USA)
Retention time: 8.78411
Precursor type: [M-H]-
Precursor m/z: 821.5299
m/z	relative intensity
152.999	24
195.003	24
229.201	40
249.187	16
279.226	40
281.243	16
283.24	237
283.262	484
284.26	24
327.231	516
328.231	41
427.738	16
461.266	48
479.277	150
493.291	18
629.522	34
739.515	16
747.514	16
787.007	16
789.487	999
789.52	386
821.52	517
821.541	435
821.573	65
821.614	16
