Mass spectrum: PS(18:1/8,9-EET); LC-ESI-QTOF; MS2
Name: PS(18:1/8,9-EET)
Class: Oxidized Phospholipid
Formula: C44H76NO11P
Exact mass: 826.064
SMILES: CCCCCCCC\C=C/CCCCCCCC(=O)OCC(COP(O)(=O)OCC(N)C(O)=O)OC(=O)CCC\C=C/CC1OC1C\C=C/C\C=C/CCCCC
InChI: InChI=1S/C44H76NO11P/c1-3-5-7-9-11-13-14-15-16-17-18-20-22-24-29-33-42(46)52-35-38(36-53-57(50,51)54-37-39(45)44(48)49)55-43(47)34-30-26-25-28-32-41-40(56-41)31-27-23-21-19-12-10-8-6-4-2/h12,15-16,19,23,25,27-28,38-41H,3-11,13-14,17-18,20-22,24,26,29-37,45H2,1-2H3,(H,48,49)(H,50,51)/b16-15-,19-12-,27-23-,28-25-
Instrument: Acquity UPLC Peptide BEH C18 column (50 x 2.1 mm; 1.7 um), Sciex TripleTOF5600
Instrument type: LC-ESI-QTOF
Ms type: MS2
Ion mode: NEGATIVE
Collision energy: 30-50
Precursor m/z: 824.5083228
Precursor type: [M-H]-
m/z	relative intensity
78.95754	78
78.95879	48
78.96005	29
78.9613	68
78.96255	29
78.96381	39
78.96631	19
78.96757	39
96.96821	19
96.9696	19
152.9854	107
152.9871	29
152.9889	58
152.9906	131
152.9924	107
152.9941	170
152.9959	141
152.9976	209
152.9993	160
153.0011	107
153.0028	29
153.0046	48
153.0063	19
155.0657	19
167.0703	19
179.1369	19
257.2186	29
257.2254	29
275.2355	19
281.2204	39
281.2251	39
281.2275	107
281.2299	160
281.2322	199
281.2346	335
281.237	325
281.2393	752
281.2417	829
281.2441	664
281.2464	858
281.2488	999
281.2512	941
281.2535	820
281.2559	553
281.2583	664
281.2606	475
281.263	209
281.2654	267
281.2677	78
281.2701	87
281.2725	78
281.2748	48
281.2772	58
281.2796	29
282.2411	19
282.2506	29
282.2577	19
301.2097	19
301.2195	39
301.2268	19
319.205	19
319.21	58
319.2125	48
319.215	48
319.2176	107
319.2201	68
319.2226	131
319.2251	179
319.2276	87
319.2302	150
319.2327	199
319.2352	87
319.2377	68
319.2402	58
319.2428	29
319.2453	29
338.2411	19
417.2082	39
417.2111	48
417.214	78
417.2168	107
417.2197	141
417.2226	160
417.2255	296
417.2284	267
417.2313	267
417.2341	407
417.237	407
417.2399	388
417.2428	364
417.2457	456
417.2485	592
417.2514	417
417.2543	296
417.2572	238
417.2601	199
417.263	87
417.2658	116
417.2687	78
417.2716	29
417.2745	29
417.286	39
435.2121	48
435.215	19
435.218	19
435.2268	58
435.2297	68
435.2327	150
435.2356	58
435.2386	131
435.2415	87
435.2444	218
435.2474	209
435.2503	209
435.2533	218
435.2562	306
435.2592	306
435.2621	141
435.265	189
435.268	160
435.2709	97
435.2739	78
435.2768	29
435.2798	39
435.2827	29
435.2856	29
435.2886	19
455.1933	19
455.1993	48
455.2023	48
455.2054	78
455.2084	39
455.2114	19
455.2144	97
455.2174	39
455.2204	68
455.2234	150
455.2264	116
455.2294	68
455.2325	29
455.2355	48
455.2385	48
455.2415	19
455.2445	19
464.2996	19
473.2351	19
473.2412	39
473.2443	39
473.2473	19
473.2566	19
735.1716	19
735.1793	19
735.2252	19
737.4114	19
737.4191	19
737.4267	150
737.4305	58
737.4344	131
737.4382	150
737.442	179
737.4459	238
737.4497	315
737.4535	344
737.4573	504
737.4612	475
737.465	563
737.4689	553
737.4727	635
737.4765	543
737.4803	592
737.4842	829
737.488	713
737.4918	703
737.4957	626
737.4995	563
737.5034	582
737.5071	344
737.511	427
737.5148	238
737.5187	228
737.5225	247
737.5263	97
737.5302	150
737.534	107
737.5378	39
737.5417	29
737.5455	58
738.4424	19
738.4655	19
738.4922	19
738.4961	19
738.5038	29
738.5191	19
824.4222	39
824.4384	19
824.4424	19
824.4465	19
824.4506	19
824.4547	78
824.4587	78
824.4627	107
824.4668	160
824.4708	150
824.4749	189
824.4789	218
824.483	286
824.4871	456
824.4911	335
824.4951	388
824.4992	553
824.5032	407
824.5073	582
824.5114	664
824.5154	684
824.5195	752
824.5235	611
824.5275	655
824.5316	533
824.5356	664
824.5397	485
824.5438	407
824.5478	354
824.5519	364
824.5559	247
824.5599	150
824.564	116
824.5681	78
824.5721	87
824.5762	39
824.5802	58
824.5843	58
824.5883	48
825.484	19
825.4962	19
825.5124	19
825.5327	29
