Mass spectrum: PC(16:0e/13-HODE); LC-ESI-QTOF; MS2
Name: PC(16:0e/13-HODE)
Class: Oxidized Phospholipid
Formula: C42H82NO8P
Exact mass: 760.093
SMILES: CCCCCCCCCCCCCCCCOCC(COP([O-])(=O)OCC[N+](C)(C)C)OC(=O)CCCCCCC\C=C/C=C/C(O)CCCCC
InChI: InChI=1S/C42H82NO8P/c1-6-8-10-11-12-13-14-15-16-17-21-24-27-31-36-48-38-41(39-50-52(46,47)49-37-35-43(3,4)5)51-42(45)34-30-26-23-20-18-19-22-25-29-33-40(44)32-28-9-7-2/h22,25,29,33,40-41,44H,6-21,23-24,26-28,30-32,34-39H2,1-5H3/b25-22-,33-29+
Instrument: Acquity UPLC Peptide BEH C18 column (50 x 2.1 mm; 1.7 um), Sciex TripleTOF5600
Instrument type: LC-ESI-QTOF
Ms type: MS2
Ion mode: NEGATIVE
Collision energy: 30-50
Precursor m/z: 818.5916581
Precursor type: [M+CH3COOH-H]-
m/z	relative intensity
195.1284	22
195.1304	22
195.1323	29
195.1343	73
195.1363	29
195.1383	44
195.1402	22
195.1422	36
195.1442	22
195.1461	22
195.1481	14
195.154	14
195.156	14
255.2271	14
255.2294	14
267.2287	14
277.2037	22
277.2061	14
277.2084	36
277.2108	44
277.2131	22
277.2155	73
277.2178	80
277.2201	59
277.2225	36
277.2272	22
277.2295	29
281.2378	14
281.2401	36
281.2425	22
281.2449	22
281.2473	36
281.2496	22
281.252	22
281.2543	29
281.2567	22
281.2614	14
281.2638	15
283.2432	14
286.3673	15
293.1403	15
293.2079	15
294.3252	15
295.1925	15
295.1973	15
295.1998	30
295.2046	31
295.207	31
295.2095	108
295.2119	133
295.2143	291
295.2167	338
295.2191	505
295.2216	492
295.224	688
295.2264	808
295.2289	851
295.2313	671
295.2337	560
295.2361	419
295.2386	346
295.241	150
295.2434	110
295.2458	79
295.2482	63
295.2507	31
295.2531	47
295.2555	64
295.2579	16
295.8838	8
295.9008	8
295.9226	8
297.264	8
309.2493	14
327.2271	14
327.2297	14
327.2348	22
327.2373	29
377.2344	14
377.2372	14
377.2454	14
377.2481	29
377.2536	22
377.2591	14
377.2618	14
448.3018	29
448.3078	14
448.3108	22
448.3138	51
448.3167	36
448.3197	29
448.3227	22
448.3257	22
448.3317	59
448.3376	14
448.3466	14
466.2903	14
466.2994	29
466.3055	22
466.3085	22
466.3116	29
466.3146	44
466.3177	51
466.3207	87
466.3238	87
466.3268	80
466.3299	66
466.3329	73
466.3359	95
466.339	66
466.342	102
466.3451	44
466.3481	22
466.3512	36
466.3542	36
466.3573	14
466.3603	22
466.3634	14
610.978	14
673.4487	14
673.4561	22
673.4597	22
673.467	14
673.478	22
673.4817	36
673.4854	14
673.4927	29
673.4963	22
673.5	14
673.5037	14
673.511	22
673.5183	22
743.8159	16
744.3778	16
744.4856	14
744.4933	74
744.501	22
744.5049	8
744.5087	56
744.5126	82
744.5164	131
744.5203	208
744.5241	192
744.528	210
744.5318	379
744.5357	583
744.5395	679
744.5434	751
744.5472	686
744.5511	920
744.5549	999
744.5588	765
744.5626	827
744.5665	849
744.5703	907
744.5742	745
744.578	671
744.5819	483
744.5858	418
744.5896	321
744.5934	212
744.5973	218
744.6011	170
744.605	169
744.6088	117
744.6127	84
744.6165	33
744.6204	49
744.6281	9
744.6358	17
744.6396	14
744.6435	9
744.6473	16
745.5101	14
745.564	14
745.5794	8
745.5871	14
758.5497	14
758.577	14
758.5808	22
759.5099	22
759.5333	14
759.5372	14
759.5643	14
818.5022	14
818.5386	14
818.5547	22
818.5587	51
818.5627	22
818.5668	51
818.5709	44
818.5749	59
818.5789	44
818.5829	22
818.587	51
818.591	59
818.595	80
818.5991	29
818.6031	66
818.6072	66
818.6112	59
818.6152	36
818.6193	36
818.6233	80
818.6274	29
818.6314	22
818.6395	14
818.6435	14
819.4875	14
819.4955	14
819.4996	14
819.5037	14
819.5077	59
819.5157	36
819.5198	29
819.5279	22
819.5319	36
819.54	29
819.5481	22
819.5521	14
819.5642	14
