Mass spectrum: PE 22:0; LC-ESI-QTOF; MS2
Name: PE 22:0
Class: PE
Formula: C27H54NO8P
Exact mass: 551.704
SMILES: CCCCCCCCCCCCCCCCCC(=O)OC(COC(=O)CCC)COP(O)(=O)OCCN
InChI: InChI=1S/C27H54NO8P/c1-3-5-6-7-8-9-10-11-12-13-14-15-16-17-18-20-27(30)36-25(23-33-26(29)19-4-2)24-35-37(31,32)34-22-21-28/h25H,3-24,28H2,1-2H3,(H,31,32)
Instrument: AB Sciex TripleTOF 5600+ system (Q-TOF) equipped with a DuoSpray ion source
Instrument type: LC-ESI-QTOF
Ms type: MS2
Ion mode: NEGATIVE
Collision energy: 45V
Column name: Acquity UPLC Peptide BEH C18 column (50*2.1 mm; 1.7 um; 130A)(Waters Co.,Milford, MA, USA)
Retention time: 7.450601
Precursor type: [M-H]-
Precursor m/z: 550.3483
m/z	relative intensity
87.041	131
87.045	131
87.048	170
196.038	51
266.078	38
283.264	999
462.296	42
480.309	68
550.332	65
550.343	64
550.354	103
