Mass spectrum: PC 37:4; LC-ESI-QTOF; MS2
Name: PC 37:4
Class: PC
Formula: C45H82NO8P
Exact mass: 796.126
SMILES: CCCCCCCCCCCCCCCCC(=O)OCC(COP([O-])(=O)OCC[N+](C)(C)C)OC(=O)CCCCCC\C=C/C\C=C/C\C=C/C\C=C/CC
InChI: InChI=1S/C45H82NO8P/c1-6-8-10-12-14-16-18-20-22-23-24-26-28-30-32-34-36-38-45(48)54-43(42-53-55(49,50)52-40-39-46(3,4)5)41-51-44(47)37-35-33-31-29-27-25-21-19-17-15-13-11-9-7-2/h8,10,14,16,20,22,24,26,43H,6-7,9,11-13,15,17-19,21,23,25,27-42H2,1-5H3/b10-8-,16-14-,22-20-,26-24-
Instrument: AB Sciex TripleTOF 5600+ system (Q-TOF) equipped with a DuoSpray ion source
Instrument type: LC-ESI-QTOF
Ms type: MS2
Ion mode: NEGATIVE
Collision energy: 45V
Column name: Acquity UPLC Peptide BEH C18 column (50*2.1 mm; 1.7 um; 130A)(Waters Co.,Milford, MA, USA)
Retention time: 9.706861
Precursor type: [M+CH3COOH-H]-
Precursor m/z: 854.5894
m/z	relative intensity
168.039	9
205.193	8
224.066	14
255.23	3
259.229	13
259.245	34
269.246	272
289.203	6
301.219	8
302.283	3
303.113	3
303.232	660
305.248	4
408.381	3
462.028	3
476.312	16
494.317	65
504.935	3
510.282	8
528.304	8
722.969	3
772.517	13
777.683	3
778.092	11
780.367	3
780.493	16
780.548	999
780.815	3
794.545	5
795.49	7
854.583	82
854.637	9
