Mass spectrum: PI(18:1/17-HDoHE); LC-ESI-QTOF; MS2
Name: PI(18:1/17-HDoHE)
Class: Oxidized Phospholipid
Formula: C49H81O14P
Exact mass: 925.149
SMILES: CCCCCCCC\C=C/CCCCCCCC(=O)OCC(COP(O)(=O)OC1C(O)C(O)C(O)C(O)C1O)OC(=O)CC\C=C/C\C=C/C\C=C/C\C=C/C=C\C(O)C\C=C/CC
InChI: InChI=1S/C49H81O14P/c1-3-5-7-8-9-10-11-12-13-16-19-22-25-28-32-36-42(51)60-38-41(39-61-64(58,59)63-49-47(56)45(54)44(53)46(55)48(49)57)62-43(52)37-33-29-26-23-20-17-14-15-18-21-24-27-31-35-40(50)34-30-6-4-2/h6,12-13,15,17-18,20,24,26-27,29-31,35,40-41,44-50,53-57H,3-5,7-11,14,16,19,21-23,25,28,32-34,36-39H2,1-2H3,(H,58,59)/b13-12-,18-15-,20-17-,27-24-,29-26-,30-6-,35-31-
Instrument: Acquity UPLC Peptide BEH C18 column (50 x 2.1 mm; 1.7 um), Sciex TripleTOF5600
Instrument type: LC-ESI-QTOF
Ms type: MS2
Ion mode: NEGATIVE
Collision energy: 30-50
Precursor m/z: 923.5291178
Precursor type: [M-H]-
m/z	relative intensity
152.9974	26
201.1557	39
201.1637	26
201.1677	26
201.1697	26
241.0052	39
241.0074	80
241.0096	65
241.0118	106
241.014	119
241.0162	65
241.0184	93
241.0206	39
241.0228	26
241.0249	39
245.1585	26
259.0266	26
281.231	26
281.2334	39
281.2357	80
281.2405	52
281.2428	52
281.2452	26
281.2476	80
281.2523	39
281.257	26
281.2617	39
281.2665	26
297.0354	26
297.0427	26
325.1982	26
325.2109	52
325.216	26
325.2236	26
325.2261	26
325.2287	26
343.1982	26
343.2086	26
343.2112	39
343.2138	26
343.2165	39
343.2191	52
343.2217	39
343.2243	80
343.2269	39
343.2295	39
343.2321	93
343.2347	39
343.24	52
343.2426	26
417.2201	26
417.2288	39
417.2374	52
417.2605	26
435.2477	26
474.6266	26
479.2332	39
579.2765	26
579.2798	39
579.2833	39
579.2867	52
579.29	39
579.2935	26
579.2969	39
579.3036	52
579.307	26
579.3104	26
579.3138	26
579.3206	39
597.294	39
597.2975	26
597.3044	26
597.3078	26
597.3147	26
597.3216	65
641.2689	26
641.2725	26
641.2796	26
641.2975	26
771.3986	26
923.4446	26
923.4489	26
923.4531	119
923.4575	80
923.4617	158
923.466	65
923.4703	200
923.4746	148
923.4789	189
923.4832	298
923.4874	215
923.4918	327
923.496	439
923.5003	470
923.5046	535
923.5089	506
923.5132	828
923.5175	900
923.5217	999
923.526	856
923.5303	755
923.5346	973
923.5389	807
923.5432	919
923.5475	957
923.5518	903
923.556	638
923.5604	708
923.5646	540
923.5689	374
923.5732	400
923.5775	304
923.5818	267
923.5861	265
923.5903	112
923.5947	99
923.5989	26
923.6032	52
923.6075	86
923.6118	57
923.6161	39
923.6204	26
923.6461	26
924.4739	26
924.4954	39
924.4996	39
924.5082	26
924.5125	52
924.5168	52
924.5254	26
924.5297	39
924.5339	65
924.5383	39
924.5425	26
924.5468	26
924.5511	26
924.5597	52
924.564	26
924.5726	39
924.5768	26
