Mass spectrum: PI 36:2; LC-ESI-QTOF; MS2
Name: PI 36:2
Class: PI
Formula: C45H83O13P
Exact mass: 863.122
SMILES: CCCCCCCCCCCCCCCCCC(=O)OCC(COP(O)(=O)OC1C(O)C(O)C(O)C(O)C1O)OC(=O)CCCCCCC\C=C/C\C=C/CCCCC
InChI: InChI=1S/C45H83O13P/c1-3-5-7-9-11-13-15-17-19-21-23-25-27-29-31-33-38(46)55-35-37(36-56-59(53,54)58-45-43(51)41(49)40(48)42(50)44(45)52)57-39(47)34-32-30-28-26-24-22-20-18-16-14-12-10-8-6-4-2/h12,14,18,20,37,40-45,48-52H,3-11,13,15-17,19,21-36H2,1-2H3,(H,53,54)/b14-12-,20-18-
Instrument: AB Sciex TripleTOF 5600+ system (Q-TOF) equipped with a DuoSpray ion source
Instrument type: LC-ESI-QTOF
Ms type: MS2
Ion mode: NEGATIVE
Collision energy: 45V
Column name: Acquity UPLC Peptide BEH C18 column (50*2.1 mm; 1.7 um; 130A)(Waters Co.,Milford, MA, USA)
Retention time: 8.773114
Precursor type: [M-H]-
Precursor m/z: 861.5504
m/z	relative intensity
78.958	5
96.968	1
134.988	0
150.979	0
152.994	12
223.0	16
238.983	0
240.256	0
241.011	79
253.219	1
255.234	0
259.02	7
278.357	0
279.132	0
279.198	0
279.232	112
281.25	2
282.368	0
283.264	129
284.258	0
297.037	15
307.264	0
315.047	6
415.221	9
417.232	0
417.94	0
419.257	57
420.26	0
433.223	0
437.269	4
504.568	0
525.265	0
553.284	0
559.456	0
577.226	0
577.258	5
577.281	9
579.322	0
579.457	0
581.28	14
581.311	61
581.365	1
595.291	1
595.324	0
599.288	2
599.326	9
599.367	0
699.448	0
699.498	6
700.518	0
701.482	1
701.53	1
741.499	0
769.482	0
769.53	0
774.522	0
811.497	1
829.513	4
858.787	0
858.82	2
858.862	0
860.635	0
861.336	1
861.547	999
861.994	0
862.104	0
862.547	6
862.576	1
