Mass spectrum: PI(16:1/13-HODE); LC-ESI-QTOF; MS2
Name: PI(16:1/13-HODE)
Class: Oxidized Phospholipid
Formula: C43H77O14P
Exact mass: 849.051
SMILES: CCCCCC\C=C/CCCCCCCC(=O)OCC(COP(O)(=O)OC1C(O)C(O)C(O)C(O)C1O)OC(=O)CCCCCCC\C=C/C=C/C(O)CCCCC
InChI: InChI=1S/C43H77O14P/c1-3-5-7-8-9-10-11-12-13-16-19-22-26-30-36(45)54-32-35(33-55-58(52,53)57-43-41(50)39(48)38(47)40(49)42(43)51)56-37(46)31-27-23-20-17-14-15-18-21-25-29-34(44)28-24-6-4-2/h10-11,18,21,25,29,34-35,38-44,47-51H,3-9,12-17,19-20,22-24,26-28,30-33H2,1-2H3,(H,52,53)/b11-10-,21-18-,29-25+
Instrument: Acquity UPLC Peptide BEH C18 column (50 x 2.1 mm; 1.7 um), Sciex TripleTOF5600
Instrument type: LC-ESI-QTOF
Ms type: MS2
Ion mode: NEGATIVE
Collision energy: 30-50
Precursor m/z: 847.4978177
Precursor type: [M-H]-
m/z	relative intensity
78.96161	21
78.96412	14
141.0157	14
141.0173	21
141.0207	14
152.9884	14
152.9989	14
153.0006	14
195.1343	14
195.1363	14
195.1383	14
195.1402	28
195.1461	14
222.9892	21
222.9935	14
222.9956	21
222.9977	21
222.9998	43
223.0019	28
223.004	14
223.0103	34
223.0124	14
240.9976	14
240.9998	21
241.002	21
241.0042	63
241.0064	34
241.0086	134
241.0108	105
241.013	84
241.0152	70
241.0174	84
241.0195	50
241.0217	34
241.0261	21
253.2001	14
253.2046	21
253.2068	50
253.209	43
253.2113	70
253.2135	77
253.2158	70
253.218	113
253.2203	63
253.2225	50
253.2248	77
253.227	21
253.2293	34
253.236	14
259.0213	21
259.0281	28
277.2153	57
295.2045	21
295.2069	14
295.2118	34
295.2142	57
295.2166	28
295.2191	120
295.2215	175
295.2239	120
295.2263	84
295.2287	148
295.2312	141
295.2336	120
295.236	70
295.2384	77
295.2408	70
295.2433	34
295.2457	14
295.2505	14
297.0304	14
297.0352	21
297.0377	14
297.045	14
301.757	14
315.0451	14
369.2825	14
389.2161	21
431.1941	21
431.1971	28
431.2	14
431.2029	34
431.2058	34
431.2088	34
431.2117	57
431.2146	43
431.2176	21
431.2205	63
431.2234	77
431.2263	57
431.2293	50
431.2322	14
431.2351	34
431.2381	28
431.241	14
431.2439	21
551.2387	14
551.242	14
551.2619	14
551.2686	34
551.2719	21
593.2269	14
593.2338	14
593.2406	21
593.2441	34
593.2475	14
593.2509	43
593.2544	28
593.2578	28
593.2612	34
593.2647	43
593.2681	28
593.2715	57
593.275	63
593.2784	28
593.2819	70
593.2853	57
593.2888	14
593.2922	50
593.2956	34
593.2991	14
593.3025	28
611.2564	21
611.2668	14
611.2739	14
611.2808	14
611.2983	14
611.3018	14
611.3122	14
683.2195	14
844.8234	14
844.8356	14
844.8398	14
847.405	14
847.4214	21
847.4255	34
847.4296	57
847.4337	99
847.4378	87
847.4419	94
847.446	131
847.4501	138
847.4542	161
847.4584	233
847.4625	246
847.4666	334
847.4707	395
847.4748	415
847.4789	540
847.483	563
847.4871	838
847.4912	849
847.4953	686
847.4995	999
847.5035	922
847.5076	684
847.5118	661
847.5159	622
847.52	753
847.5241	624
847.5282	523
847.5323	378
847.5364	356
847.5405	309
847.5446	160
847.5487	167
847.5529	152
847.5569	86
847.561	68
847.5651	86
847.5693	37
847.5734	23
847.5775	22
847.5816	23
847.6104	14
848.4774	21
848.4979	14
848.502	21
848.5061	14
848.5143	14
