Mass spectrum: PC 42:11; LC-ESI-QTOF; MS2
Name: PC 42:11
Class: PC
Formula: C50H78NO8P
Exact mass: 852.1489999999999
SMILES: CC\C=C/C\C=C/C\C=C/C\C=C/C\C=C/CCCC(=O)OCC(COP([O-])(=O)OCC[N+](C)(C)C)OC(=O)CC\C=C/C\C=C/C\C=C/C\C=C/C\C=C/C\C=C/CC
InChI: InChI=1S/C50H78NO8P/c1-6-8-10-12-14-16-18-20-22-24-25-27-29-31-33-35-37-39-41-43-50(53)59-48(47-58-60(54,55)57-45-44-51(3,4)5)46-56-49(52)42-40-38-36-34-32-30-28-26-23-21-19-17-15-13-11-9-7-2/h8-11,14-17,20-23,25,27-28,30-31,33-34,36-37,39,48H,6-7,12-13,18-19,24,26,29,32,35,38,40-47H2,1-5H3/b10-8-,11-9-,16-14-,17-15-,22-20-,23-21-,27-25-,30-28-,33-31-,36-34-,39-37-
Instrument: AB Sciex TripleTOF 5600+ system (Q-TOF) equipped with a DuoSpray ion source
Instrument type: LC-ESI-QTOF
Ms type: MS2
Ion mode: NEGATIVE
Collision energy: 45V
Column name: Acquity UPLC Peptide BEH C18 column (50*2.1 mm; 1.7 um; 130A)(Waters Co.,Milford, MA, USA)
Retention time: 8.467885
Precursor type: [M+CH3COOH-H]-
Precursor m/z: 910.5597
m/z	relative intensity
177.17	10
224.068	19
229.197	21
249.191	8
253.214	6
255.23	8
257.222	8
257.227	6
257.236	19
281.242	10
283.242	167
301.204	37
301.215	207
301.227	57
302.474	6
309.218	4
310.281	4
327.218	88
327.233	527
327.249	51
329.26	9
417.24	6
437.199	6
508.265	8
526.268	17
526.275	22
526.286	50
526.297	19
526.304	15
526.314	15
526.323	13
534.294	4
552.283	6
552.312	19
833.964	4
836.464	40
836.472	66
836.497	194
836.505	252
836.527	999
836.594	11
836.615	12
851.489	6
910.48	15
910.505	24
910.514	30
910.522	33
910.531	35
910.544	55
910.552	55
910.565	116
910.578	50
910.612	12
