Mass spectrum: PC(14:0/8,9-EpETE); LC-ESI-QTOF; MS2
Name: PC(14:0/8,9-EpETE)
Class: Oxidized Phospholipid
Formula: C42H74NO9P
Exact mass: 768.028
SMILES: CCCCCCCCCCCCCC(=O)OCC(COP([O-])(=O)OCC[N+](C)(C)C)OC(=O)CCC\C=C/CC1OC1C\C=C/C\C=C/C\C=C/CC
InChI: InChI=1S/C42H74NO9P/c1-6-8-10-12-14-16-17-19-21-23-28-32-41(44)48-36-38(37-50-53(46,47)49-35-34-43(3,4)5)51-42(45)33-29-25-24-27-31-40-39(52-40)30-26-22-20-18-15-13-11-9-7-2/h9,11,15,18,22,24,26-27,38-40H,6-8,10,12-14,16-17,19-21,23,25,28-37H2,1-5H3/b11-9-,18-15-,26-22-,27-24-
Instrument: Acquity UPLC Peptide BEH C18 column (50 x 2.1 mm; 1.7 um), Sciex TripleTOF5600
Instrument type: LC-ESI-QTOF
Ms type: MS2
Ion mode: NEGATIVE
Collision energy: 30-50
Precursor m/z: 826.5239725
Precursor type: [M+CH3COOH-H]-
m/z	relative intensity
95.09184	23
123.0825	46
123.0841	23
127.0747	23
127.0779	23
149.1284	23
149.1318	23
149.1387	37
152.9921	23
155.0671	37
155.0689	23
155.0742	23
161.1308	23
167.0663	23
167.0681	46
167.0699	37
167.0736	69
168.0379	37
168.0452	46
190.1422	23
201.1618	23
201.1678	37
201.1718	37
224.0622	23
224.0665	23
224.0686	37
224.0707	23
224.0728	60
224.0749	23
224.077	23
227.1777	23
227.1798	37
227.1819	46
227.1841	60
227.1862	46
227.1883	175
227.1904	152
227.1926	249
227.1947	350
227.1968	350
227.1989	433
227.2011	562
227.2032	401
227.2053	433
227.2075	447
227.2096	295
227.2117	189
227.2138	83
227.216	92
227.2181	46
227.2202	60
227.2224	23
227.2309	23
253.2146	46
253.2236	37
255.201	37
255.2033	37
255.2055	83
255.2078	60
255.2123	60
255.2145	69
255.2168	60
255.2213	60
255.2281	37
255.2416	23
273.1762	23
273.2112	23
273.2228	37
273.2252	23
281.2479	23
299.1796	23
299.1918	23
299.1967	46
299.1991	60
299.2016	23
299.204	92
299.2065	37
299.2089	46
299.2138	37
317.1903	46
317.1928	60
317.1954	92
317.1979	115
317.2004	152
317.2029	272
317.2054	198
317.2079	281
317.2104	249
317.213	327
317.2155	304
317.218	327
317.2205	143
317.223	249
317.2255	92
317.228	37
317.2305	46
317.2331	23
317.2356	46
317.2381	23
317.2406	23
434.2484	23
434.2542	23
434.2572	37
434.269	37
452.2552	37
452.2642	60
452.2672	23
452.2702	60
452.2732	60
452.2762	92
452.2792	106
452.2822	106
452.2852	115
452.2882	92
452.2912	60
452.2942	46
452.2972	23
452.3002	37
452.3032	46
524.2703	23
542.2686	23
542.2751	37
542.285	23
542.2916	23
681.4196	23
750.1488	23
752.4073	23
752.4151	23
752.4267	92
752.4306	46
752.4344	115
752.4384	106
752.4422	92
752.446	239
752.45	212
752.4538	451
752.4577	631
752.4615	819
752.4654	594
752.4693	990
752.4731	930
752.4771	981
752.4809	833
752.4848	999
752.4886	755
752.4925	925
752.4964	921
752.5002	861
752.5042	939
752.508	810
752.5118	746
752.5157	760
752.5196	557
752.5235	387
752.5273	308
752.5313	272
752.5351	143
752.5389	92
752.5428	152
752.5467	143
752.5506	60
752.5544	60
752.5583	46
752.5622	23
752.5699	23
753.4682	23
753.4837	23
753.4915	23
753.4953	23
753.5031	37
753.5341	23
826.4656	23
826.4737	23
826.4818	37
826.4858	23
826.4899	60
826.494	23
826.498	23
826.5021	23
826.5062	83
826.5102	60
826.5143	106
826.5183	60
826.5224	83
826.5264	129
826.5345	129
826.5386	37
826.5427	46
826.5467	46
826.5508	69
826.5548	46
826.5589	69
826.5629	37
826.567	69
826.571	46
826.5751	37
