Mass spectrum: PC(16:1e/14,15-EET); LC-ESI-QTOF; MS2
Name: PC(16:1e/14,15-EET)
Class: Oxidized Phospholipid
Formula: C44H80NO8P
Exact mass: 782.099
SMILES: CCCCCCCCCCCCCC\C=C/OCC(COP([O-])(=O)OCC[N+](C)(C)C)OC(=O)CCC\C=C/C\C=C/C\C=C/CC1OC1CCCCC
InChI: InChI=1S/C44H80NO8P/c1-6-8-10-11-12-13-14-15-16-19-22-25-28-32-37-49-39-41(40-51-54(47,48)50-38-36-45(3,4)5)52-44(46)35-31-27-24-21-18-17-20-23-26-30-34-43-42(53-43)33-29-9-7-2/h17,20-21,24,26,30,32,37,41-43H,6-16,18-19,22-23,25,27-29,31,33-36,38-40H2,1-5H3/b20-17-,24-21-,30-26-,37-32-
Instrument: Acquity UPLC Peptide BEH C18 column (50 x 2.1 mm; 1.7 um), Sciex TripleTOF5600
Instrument type: LC-ESI-QTOF
Ms type: MS2
Ion mode: NEGATIVE
Collision energy: 30-50
Precursor m/z: 840.576008
Precursor type: [M+CH3COOH-H]-
m/z	relative intensity
175.1409	64
175.1502	64
219.1373	64
219.1394	64
219.1456	64
257.2091	99
257.2159	64
257.2181	64
257.2272	64
257.2317	99
275.2325	64
301.204	64
301.2089	130
301.2137	99
301.2162	64
301.2187	162
301.2211	64
301.226	64
319.204	64
319.2065	130
319.209	64
319.2115	64
319.2141	99
319.2166	194
319.2191	261
319.2216	388
319.2242	194
319.2267	356
319.2292	388
319.2317	130
319.2342	130
319.2368	261
319.2393	99
319.2443	162
319.2468	99
319.2519	64
319.2544	64
446.2914	64
446.3004	64
446.3123	99
446.3212	64
464.2852	64
464.3065	130
464.3095	261
464.3125	64
464.3156	99
464.3186	99
464.3247	64
464.3277	99
464.3369	99
464.3399	64
498.223	67
665.2359	67
766.4697	64
766.4736	64
766.4775	64
766.4814	264
766.4854	130
766.4893	99
766.4932	197
766.4971	67
766.501	102
766.5049	267
766.5088	531
766.5127	729
766.5166	334
766.5205	668
766.5244	534
766.5283	872
766.5322	732
766.5361	900
766.54	999
766.5439	802
766.5479	869
766.5518	996
766.5557	735
766.5596	601
766.5635	633
766.5674	436
766.5713	401
766.5752	369
766.5791	299
766.583	331
766.5869	229
766.5908	134
766.5947	67
766.6025	64
766.6064	99
772.5129	64
780.4707	64
780.4904	64
840.5171	64
840.5253	64
840.5375	64
840.5457	99
840.5866	130
840.5907	99
840.5948	64
840.5989	64
840.6111	99
840.6152	64
840.6194	64
841.5196	162
841.5237	99
841.54	64
841.5441	99
841.5482	64
841.5769	64
