Mass spectrum: PG 36:2; LC-ESI-QTOF; MS2
Name: PG 36:2
Class: PG
Formula: C42H79O10P
Exact mass: 775.0600000000001
SMILES: CCCCCCCCCCCCCCCCCC(=O)OCC(COP(O)(=O)OCC(O)CO)OC(=O)CCCCCCC\C=C/C\C=C/CCCCC
InChI: InChI=1S/C42H79O10P/c1-3-5-7-9-11-13-15-17-19-21-23-25-27-29-31-33-41(45)49-37-40(38-51-53(47,48)50-36-39(44)35-43)52-42(46)34-32-30-28-26-24-22-20-18-16-14-12-10-8-6-4-2/h12,14,18,20,39-40,43-44H,3-11,13,15-17,19,21-38H2,1-2H3,(H,47,48)/b14-12-,20-18-
Instrument: AB Sciex TripleTOF 5600+ system (Q-TOF) equipped with a DuoSpray ion source
Instrument type: LC-ESI-QTOF
Ms type: MS2
Ion mode: NEGATIVE
Collision energy: 45V
Column name: Acquity UPLC Peptide BEH C18 column (50*2.1 mm; 1.7 um; 130A)(Waters Co.,Milford, MA, USA)
Retention time: 8.796352
Precursor type: [M-H]-
Precursor m/z: 773.5282
m/z	relative intensity
152.996	20
171.007	8
209.02	2
227.03	9
255.232	35
261.217	4
269.249	6
278.359	7
279.231	752
281.245	10
283.262	322
307.262	91
309.274	2
415.218	2
419.25	30
441.908	2
461.59	2
483.262	3
489.253	8
493.29	23
507.261	2
511.297	33
699.478	2
699.54	4
741.494	22
741.526	10
771.088	7
773.428	4
773.472	14
773.525	999
774.533	5
