Mass spectrum: PG 38:6; LC-ESI-QTOF; MS2
Name: PG 38:6
Class: PG
Formula: C44H75O10P
Exact mass: 795.05
SMILES: CCCCCCCCCCCCCCCC(=O)OCC(COP(O)(=O)OCC(O)CO)OC(=O)CC\C=C/C\C=C/C\C=C/C\C=C/C\C=C/C\C=C/CC
InChI: InChI=1S/C44H75O10P/c1-3-5-7-9-11-13-15-17-18-19-20-21-22-24-26-28-30-32-34-36-44(48)54-42(40-53-55(49,50)52-38-41(46)37-45)39-51-43(47)35-33-31-29-27-25-23-16-14-12-10-8-6-4-2/h5,7,11,13,17-18,20-21,24,26,30,32,41-42,45-46H,3-4,6,8-10,12,14-16,19,22-23,25,27-29,31,33-40H2,1-2H3,(H,49,50)/b7-5-,13-11-,18-17-,21-20-,26-24-,32-30-
Instrument: AB Sciex TripleTOF 5600+ system (Q-TOF) equipped with a DuoSpray ion source
Instrument type: LC-ESI-QTOF
Ms type: MS2
Ion mode: NEGATIVE
Collision energy: 45V
Column name: Acquity UPLC Peptide BEH C18 column (50*2.1 mm; 1.7 um; 130A)(Waters Co.,Milford, MA, USA)
Retention time: 8.297842
Precursor type: [M-H]-
Precursor m/z: 793.4993
m/z	relative intensity
78.959	9
93.071	1
96.971	1
107.088	3
109.103	1
117.069	1
119.085	1
121.096	1
121.103	1
123.116	1
131.088	1
133.1	2
135.116	1
137.132	1
147.12	2
149.136	2
151.147	1
152.995	48
161.132	1
163.073	1
163.147	2
171.007	31
175.147	1
175.155	1
177.094	1
177.154	1
177.164	7
181.122	1
185.124	1
189.164	3
191.18	9
191.191	1
201.168	1
203.106	1
203.181	2
205.198	1
209.013	2
209.028	3
217.122	2
217.197	1
227.031	20
229.195	47
231.139	1
241.195	2
245.042	2
249.183	11
254.437	4
255.233	644
281.232	1
282.351	1
283.243	367
291.214	0
297.223	3
309.22	4
309.234	2
315.226	0
326.191	1
326.203	1
326.214	2
327.232	829
328.234	0
391.205	4
391.21	5
391.227	26
409.22	1
409.241	2
436.799	0
463.209	2
463.222	3
463.237	3
465.257	55
481.224	1
481.75	1
483.217	1
483.27	141
492.373	0
501.739	0
537.227	2
537.26	14
537.292	1
555.236	2
555.273	8
555.304	0
719.463	2
761.472	0
790.92	0
790.974	3
790.998	3
791.02	1
791.05	1
792.608	0
793.075	0
793.297	0
793.497	999
793.935	0
794.471	1
794.496	2
794.777	0
