Mass spectrum: PC 35:4; LC-ESI-QTOF; MS2
Name: PC 35:4
Class: PC
Formula: C43H78NO8P
Exact mass: 768.0719999999999
SMILES: CCCCCCCCCCCCCCC(=O)OCC(COP([O-])(=O)OCC[N+](C)(C)C)OC(=O)CCCCCC\C=C/C\C=C/C\C=C/C\C=C/CC
InChI: InChI=1S/C43H78NO8P/c1-6-8-10-12-14-16-18-20-21-22-23-24-26-28-30-32-34-36-43(46)52-41(40-51-53(47,48)50-38-37-44(3,4)5)39-49-42(45)35-33-31-29-27-25-19-17-15-13-11-9-7-2/h8,10,14,16,20-21,23-24,41H,6-7,9,11-13,15,17-19,22,25-40H2,1-5H3/b10-8-,16-14-,21-20-,24-23-
Instrument: AB Sciex TripleTOF 5600+ system (Q-TOF) equipped with a DuoSpray ion source
Instrument type: LC-ESI-QTOF
Ms type: MS2
Ion mode: NEGATIVE
Collision energy: 45V
Column name: Acquity UPLC Peptide BEH C18 column (50*2.1 mm; 1.7 um; 130A)(Waters Co.,Milford, MA, USA)
Retention time: 8.968454
Precursor type: [M+CH3COOH-H]-
Precursor m/z: 826.5599
m/z	relative intensity
205.196	15
224.068	32
241.215	284
259.243	47
279.235	37
283.263	26
289.214	26
303.232	687
304.234	26
448.29	10
466.286	74
486.296	10
714.569	10
744.547	16
752.516	999
766.5	54
766.551	38
826.552	187
