Mass spectrum: PI(18:1/16,17-EpDPE); LC-ESI-QTOF; MS2
Name: PI(18:1/16,17-EpDPE)
Class: Oxidized Phospholipid
Formula: C49H81O14P
Exact mass: 925.149
SMILES: CCCCCCCC\C=C/CCCCCCCC(=O)OCC(COP(O)(=O)OC1C(O)C(O)C(O)C(O)C1O)OC(=O)CC\C=C/C\C=C/C\C=C/C\C=C/CC1OC1C\C=C/CC
InChI: InChI=1S/C49H81O14P/c1-3-5-7-8-9-10-11-12-13-14-18-21-24-27-31-35-42(50)59-37-39(38-60-64(57,58)63-49-47(55)45(53)44(52)46(54)48(49)56)61-43(51)36-32-28-25-22-19-16-15-17-20-23-26-30-34-41-40(62-41)33-29-6-4-2/h6,12-13,16-17,19-20,25-26,28-30,39-41,44-49,52-56H,3-5,7-11,14-15,18,21-24,27,31-38H2,1-2H3,(H,57,58)/b13-12-,19-16-,20-17-,28-25-,29-6-,30-26-
Instrument: Acquity UPLC Peptide BEH C18 column (50 x 2.1 mm; 1.7 um), Sciex TripleTOF5600
Instrument type: LC-ESI-QTOF
Ms type: MS2
Ion mode: NEGATIVE
Collision energy: 30-50
Precursor m/z: 923.5291178
Precursor type: [M-H]-
m/z	relative intensity
78.95671	1
78.95796	4
78.95922	6
78.96047	5
78.96173	4
78.96298	3
78.96423	2
78.96674	2
78.968	1
78.9705	2
78.97301	1
95.09232	1
96.96721	1
96.9686	2
96.97138	1
96.97277	2
96.97416	2
109.069	1
111.0822	1
119.0575	1
121.0658	1
121.0688	3
121.0968	1
121.1139	1
133.1	1
135.118	1
135.1196	1
147.0821	1
147.1146	1
147.1181	2
147.1198	1
149.1341	1
151.1084	1
152.9856	1
152.9874	3
152.9891	6
152.9908	11
152.9926	10
152.9943	10
152.9961	11
152.9978	8
152.9996	8
153.0013	3
153.0031	4
153.0066	1
153.0101	2
153.0118	1
161.1331	1
163.1075	1
171.0035	2
171.0053	1
173.1356	2
175.1484	1
179.1087	1
189.1538	1
189.1557	1
189.1596	1
189.1615	2
189.1654	5
189.1674	3
189.1693	3
189.1732	2
189.1751	1
201.1563	2
201.1583	3
201.1603	2
201.1623	4
201.1643	6
201.1663	4
201.1683	5
201.1703	1
201.1723	3
201.1763	2
203.1786	1
207.1417	1
215.1434	1
215.1455	1
217.1223	1
222.9848	1
222.987	6
222.9891	6
222.9912	11
222.9933	13
222.9954	10
222.9975	18
222.9996	13
223.0017	21
223.0038	12
223.0059	10
223.008	7
223.0101	4
223.0122	5
223.0143	1
223.0186	1
227.174	1
227.1761	1
227.1783	1
227.1804	3
227.1825	2
227.1846	3
229.154	1
229.1604	3
231.1296	1
231.1361	1
231.1468	1
233.1375	1
233.1396	1
233.1418	2
233.144	5
233.1461	7
233.1483	6
233.1504	7
233.1526	4
233.1547	9
233.1569	7
233.159	5
233.1612	4
233.1633	4
233.1655	2
233.1677	1
233.172	3
240.2531	1
240.9841	1
240.9863	1
240.9906	3
240.9928	2
240.995	14
240.9972	12
240.9994	30
241.0016	34
241.0038	51
241.006	54
241.0082	75
241.0103	75
241.0125	72
241.0147	92
241.0169	51
241.0191	48
241.0213	26
241.0235	26
241.0257	17
241.0279	6
241.0301	7
241.0323	5
241.0345	5
241.0366	1
241.0388	1
241.041	1
242.0146	1
243.1816	1
245.1372	1
245.1438	1
245.146	2
245.1482	2
245.1504	6
245.1526	5
245.1548	3
245.1571	7
245.1593	4
245.1659	2
246.1655	1
247.1694	2
247.1716	1
247.176	2
259.007	1
259.0115	3
259.0138	4
259.0161	5
259.0183	9
259.0206	8
259.0229	4
259.0251	6
259.0274	3
259.0297	3
259.0319	3
259.0342	2
259.0365	1
259.0433	1
261.1367	1
261.1459	1
261.1505	2
261.155	2
273.1371	1
273.1488	2
273.1581	1
273.1674	1
274.1431	3
274.1454	2
274.1478	2
274.1501	3
274.1524	5
274.1548	6
274.1571	6
274.1595	7
274.1618	6
274.1641	3
274.1664	4
274.1688	3
274.1711	1
274.1735	2
280.376	1
281.2083	1
281.213	1
281.2153	6
281.2177	4
281.2201	7
281.2224	9
281.2248	15
281.2272	15
281.2296	14
281.2319	25
281.2343	36
281.2366	52
281.239	65
281.2414	68
281.2437	85
281.2461	87
281.2485	87
281.2509	92
281.2532	77
281.2556	68
281.2579	56
281.2603	33
281.2627	19
281.265	16
281.2674	11
281.2697	10
281.2721	6
281.2745	2
281.3005	1
282.2242	1
282.2408	2
282.2455	1
282.2503	1
282.2527	1
282.255	1
282.2574	2
297.0145	1
297.0193	1
297.0218	2
297.0242	9
297.0267	6
297.0291	10
297.0315	7
297.0339	11
297.0364	11
297.0388	10
297.0413	12
297.0437	10
297.0461	10
297.0486	4
297.051	3
297.0534	1
297.0558	3
297.0583	2
299.2168	2
299.2266	1
299.229	3
299.2314	3
299.2339	1
299.2363	3
299.2388	3
299.2412	3
299.2437	2
299.2461	3
299.2485	1
299.251	1
299.2559	1
299.2583	1
315.031	1
315.0335	3
315.036	4
315.0385	2
315.041	4
315.0435	3
315.046	8
315.0485	5
315.051	3
315.0535	3
315.056	4
315.0585	3
315.061	3
315.0635	1
315.066	2
315.0735	2
325.1891	1
325.1942	1
325.1967	3
325.1992	1
325.2018	2
325.2043	4
325.2069	3
325.2094	3
325.212	3
325.2145	6
325.217	6
325.2196	3
325.2221	2
325.2247	3
325.2272	5
325.2298	1
325.2323	2
325.2349	1
325.2425	1
341.213	1
342.1493	1
343.1914	1
343.1941	1
343.1967	2
343.2019	3
343.2045	6
343.2072	10
343.2097	10
343.2124	11
343.215	23
343.2176	26
343.2202	26
343.2228	26
343.2254	24
343.2281	36
343.2307	26
343.2333	20
343.2359	23
343.2385	13
343.2411	13
343.2437	9
343.2463	4
343.249	6
343.2516	4
343.262	1
344.2195	1
383.2128	1
383.2267	1
415.917	1
415.9458	2
417.2014	2
417.2043	3
417.2072	3
417.2101	2
417.2129	6
417.2158	9
417.2187	10
417.2216	14
417.2244	20
417.2273	22
417.2302	26
417.2331	30
417.236	34
417.2389	41
417.2417	43
417.2446	45
417.2475	36
417.2504	36
417.2533	31
417.2562	21
417.259	18
417.2619	10
417.2648	10
417.2677	8
417.2706	2
417.2734	3
417.2763	1
417.2792	1
417.2821	1
417.285	1
418.2453	1
435.2256	1
435.2286	2
435.2345	4
435.2374	3
435.2404	1
435.2433	4
435.2462	6
435.2492	3
435.2521	3
435.2551	3
435.258	4
435.261	1
435.2639	3
435.2668	1
435.2698	1
479.1855	1
479.1947	3
479.2009	3
479.204	3
479.2071	5
479.2102	7
479.2133	6
479.2164	8
479.2195	6
479.2225	8
479.2256	7
479.2287	8
479.2318	9
479.2349	3
479.238	5
479.2411	3
479.2442	4
479.2473	3
479.2503	3
505.5956	1
506.3287	1
511.2618	1
523.2601	1
523.2634	1
548.7776	1
566.3182	1
567.2319	1
579.2412	3
579.2446	4
579.248	1
579.2514	5
579.2548	6
579.2582	6
579.2616	11
579.265	10
579.2684	14
579.2718	20
579.2751	30
579.2786	26
579.282	37
579.2853	32
579.2888	51
579.2921	44
579.2955	45
579.299	50
579.3023	38
579.3057	36
579.3091	36
579.3125	35
579.3159	29
579.3193	20
579.3227	18
579.3261	12
579.3295	8
579.3329	7
579.3363	4
579.3397	4
579.3431	5
579.3465	3
579.3567	1
580.2808	1
580.2842	1
580.2978	1
580.3012	3
580.3046	1
580.3148	1
580.3182	1
597.2513	1
597.2548	1
597.2582	2
597.2651	3
597.2686	2
597.272	3
597.2755	4
597.2789	9
597.2824	11
597.2858	9
597.2893	13
597.2927	15
597.2962	14
597.2996	13
597.3031	16
597.3065	15
597.31	20
597.3134	15
597.3169	13
597.3203	11
597.3238	12
597.3272	15
597.3307	8
597.3341	8
597.3376	5
597.341	4
597.3479	1
597.3514	1
597.3583	1
598.2966	1
598.307	1
598.3104	1
641.2248	1
641.2283	1
641.2319	1
641.2391	4
641.2427	3
641.2462	4
641.2498	6
641.2534	6
641.257	4
641.2605	9
641.2641	4
641.2676	5
641.2712	10
641.2748	11
641.2784	13
641.2819	11
641.2855	12
641.2891	6
641.2927	10
641.2963	8
641.2998	5
641.3034	3
641.3069	3
641.3105	4
641.3177	3
641.3212	1
659.2427	1
659.2609	2
659.2681	2
659.2717	2
659.2753	2
659.2899	3
659.2935	2
761.4486	1
761.472	2
761.4759	2
761.4798	2
761.4915	2
761.4954	3
761.4993	1
850.5507	1
850.559	1
850.5795	1
891.5071	1
920.539	2
920.5604	1
920.5732	1
920.5818	4
920.5861	3
920.5904	2
920.5947	3
920.5989	1
920.6032	4
920.6075	2
920.6118	3
920.6161	4
920.6204	2
920.6246	3
920.6289	4
920.6332	5
920.6375	3
920.6418	4
920.6461	4
920.6503	3
920.6546	4
920.6589	7
920.6631	1
920.6675	3
920.6846	1
920.6888	3
920.6974	3
920.7017	2
920.706	1
920.7145	1
922.6122	2
922.8822	1
923.0708	2
923.1651	2
923.2809	2
923.3752	1
923.3795	1
923.3966	2
923.4009	3
923.4052	1
923.4095	2
923.4138	4
923.418	1
923.4224	4
923.4266	4
923.4309	4
923.4352	5
923.4395	11
923.4438	20
923.4481	21
923.4523	6
923.4567	1
923.4609	17
923.4652	34
923.4695	83
923.4738	117
923.4781	139
923.4824	183
923.4866	239
923.491	274
923.4952	330
923.4995	424
923.5038	479
923.5081	591
923.5124	701
923.5167	786
923.5209	748
923.5253	851
923.5295	900
923.5338	924
923.5381	940
923.5424	999
923.5467	919
923.551	831
923.5553	844
923.5596	716
923.5638	593
923.5681	515
923.5724	484
923.5767	353
923.581	279
923.5853	202
923.5896	152
923.5939	110
923.5981	101
923.6024	63
923.6068	70
923.611	37
923.6153	30
923.6196	29
923.6239	19
923.6282	15
923.6324	12
923.6367	10
923.6411	7
923.6453	9
923.6496	6
923.6539	4
923.6582	1
923.6667	3
923.671	3
923.6754	3
923.8083	1
923.8555	1
923.9112	2
923.9455	1
923.9841	2
924.0485	1
924.0527	1
924.0613	1
924.0914	2
924.1171	1
924.1213	1
924.1257	1
924.1471	1
924.1857	1
924.2372	1
924.2543	1
924.323	1
924.4431	2
924.4474	1
924.4645	2
924.4688	5
924.4731	1
924.4774	9
924.4817	4
924.486	10
924.4903	11
924.4946	13
924.4988	20
924.5031	22
924.5074	20
924.5117	20
924.516	28
924.5203	28
924.5246	31
924.5289	31
924.5332	35
924.5375	35
924.5417	40
924.546	33
924.5504	25
924.5546	34
924.5589	26
924.5632	26
924.5675	24
924.5718	25
924.576	14
924.5804	14
924.5847	11
924.5889	12
924.5933	10
924.5975	6
924.6018	4
924.6061	3
924.6104	3
924.6147	3
924.6318	1
924.6447	1
925.1082	1
925.5287	1
925.5889	1
925.9882	1
926.0182	1
926.1985	1
926.9029	1
926.9931	1
927.122	1
927.7622	1
929.4305	1
934.4485	1
