Mass spectrum: PC 34:3; LC-ESI-QTOF; MS2
Name: PC 34:3
Class: PC
Formula: C42H78NO8P
Exact mass: 756.0609999999999
SMILES: CCCCCCCCCCCCCCCC(=O)OCC(COP([O-])(=O)OCC[N+](C)(C)C)OC(=O)CCCCCCC\C=C/C\C=C/C\C=C/CC
InChI: InChI=1S/C42H78NO8P/c1-6-8-10-12-14-16-18-20-21-23-25-27-29-31-33-35-42(45)51-40(39-50-52(46,47)49-37-36-43(3,4)5)38-48-41(44)34-32-30-28-26-24-22-19-17-15-13-11-9-7-2/h8,10,14,16,20-21,40H,6-7,9,11-13,15,17-19,22-39H2,1-5H3/b10-8-,16-14-,21-20-
Instrument: AB Sciex TripleTOF 5600+ system (Q-TOF) equipped with a DuoSpray ion source
Instrument type: LC-ESI-QTOF
Ms type: MS2
Ion mode: NEGATIVE
Collision energy: 45V
Column name: Acquity UPLC Peptide BEH C18 column (50*2.1 mm; 1.7 um; 130A)(Waters Co.,Milford, MA, USA)
Retention time: 8.912923
Precursor type: [M+CH3COOH-H]-
Precursor m/z: 814.5613
m/z	relative intensity
168.042	10
224.068	19
227.2	11
242.084	2
251.2	7
253.22	37
254.438	7
255.232	999
259.211	3
276.346	3
277.217	358
279.231	81
281.247	5
301.216	1
305.245	39
305.271	2
327.24	1
406.263	1
412.296	1
413.207	2
419.211	1
434.27	1
452.268	2
462.251	1
462.295	8
478.299	4
480.311	14
484.272	7
484.299	4
502.256	2
502.287	50
502.311	17
504.307	1
695.467	1
727.505	1
736.57	1
737.871	1
738.181	7
740.434	3
740.521	962
740.666	1
755.461	8
755.489	6
764.477	2
814.499	6
814.54	39
814.56	35
814.589	20
