Mass spectrum: PI(18:0/20-HDoHE); LC-ESI-QTOF; MS2
Name: PI(18:0/20-HDoHE)
Class: Oxidized Phospholipid
Formula: C49H83O14P
Exact mass: 927.165
SMILES: CCCCCCCCCCCCCCCCCC(=O)OCC(COP(O)(=O)OC1C(O)C(O)C(O)C(O)C1O)OC(=O)CC\C=C/C\C=C/C\C=C/C\C=C/C\C=C/C=C/C(O)CC
InChI: InChI=1S/C49H83O14P/c1-3-5-6-7-8-9-10-11-14-18-21-24-27-30-33-36-42(51)60-38-41(39-61-64(58,59)63-49-47(56)45(54)44(53)46(55)48(49)57)62-43(52)37-34-31-28-25-22-19-16-13-12-15-17-20-23-26-29-32-35-40(50)4-2/h12-13,17,19-20,22,26,28-29,31-32,35,40-41,44-50,53-57H,3-11,14-16,18,21,23-25,27,30,33-34,36-39H2,1-2H3,(H,58,59)/b13-12-,20-17-,22-19-,29-26-,31-28-,35-32+
Instrument: Acquity UPLC Peptide BEH C18 column (50 x 2.1 mm; 1.7 um), Sciex TripleTOF5600
Instrument type: LC-ESI-QTOF
Ms type: MS2
Ion mode: NEGATIVE
Collision energy: 30-50
Precursor m/z: 925.5447679
Precursor type: [M-H]-
m/z	relative intensity
78.95384	1
78.95509	2
78.95635	1
78.9576	1
78.95886	4
78.96011	4
78.96136	6
78.96262	5
78.96387	2
78.96512	5
78.96763	2
78.96889	1
93.07058	1
93.07331	1
96.96961	1
96.971	1
96.97239	2
96.97517	1
107.084	1
107.0854	2
107.0913	1
119.0956	1
121.0995	2
121.1011	1
121.1042	1
121.1057	1
121.1073	1
133.1013	2
133.1045	1
133.1094	1
135.111	1
135.1143	2
135.1159	1
135.1176	1
135.1209	1
135.1225	1
142.3665	1
143.0879	1
147.1245	1
152.9852	1
152.987	1
152.9887	3
152.9904	4
152.9922	6
152.9939	8
152.9957	6
152.9974	6
152.9992	7
153.0009	6
153.0027	4
153.0044	2
153.0061	2
153.0114	1
159.1116	1
159.1152	1
159.7066	1
161.1309	1
171.0012	1
171.0086	1
171.112	1
173.1297	1
173.1334	2
175.1461	1
187.1367	1
187.1406	2
187.1425	2
187.1444	3
187.1464	4
187.1483	2
187.1502	3
187.1522	5
187.1541	2
187.1579	1
187.1599	1
187.1637	1
188.3063	1
189.1592	1
189.1611	4
189.1689	1
207.1372	1
215.1761	1
215.1844	1
222.9866	2
222.9887	4
222.9908	4
222.9929	6
222.995	8
222.9971	7
222.9992	10
223.0013	6
223.0034	9
223.0055	5
223.0076	4
223.0097	4
223.0118	4
223.0139	1
223.0161	3
227.1693	2
227.1715	2
227.1736	2
227.1757	4
227.1779	3
227.1821	1
227.1842	3
227.1864	2
231.1421	1
240.2505	1
240.2592	2
240.2614	1
240.4692	1
240.5764	1
240.7472	1
240.9859	1
240.9924	6
240.9946	13
240.9968	13
240.999	22
241.0012	34
241.0034	40
241.0056	57
241.0078	58
241.0099	62
241.0121	86
241.0143	73
241.0165	63
241.0187	55
241.0209	33
241.0231	18
241.0253	9
241.0275	11
241.0297	4
241.0318	3
241.034	4
241.1743	2
241.1765	2
241.1786	1
241.1808	3
241.183	9
241.1852	5
241.1874	15
241.1896	6
241.1918	9
241.194	16
241.1962	11
241.1984	12
241.2006	12
241.2027	14
241.2049	4
241.2071	4
241.2093	3
241.2137	2
241.9901	1
242.2008	2
245.1832	1
245.1898	1
245.1942	2
245.2008	2
247.1667	1
258.9997	2
259.0066	2
259.0088	1
259.0111	3
259.0134	2
259.0156	6
259.0179	7
259.0202	6
259.0225	4
259.0247	4
259.027	7
259.0293	5
259.0315	3
259.0338	2
259.0361	2
259.052	1
259.0588	2
259.1633	1
265.1923	1
271.1791	1
271.1931	2
271.214	1
281.2055	1
281.2079	1
281.2102	4
281.2126	5
281.2149	8
281.2173	12
281.2197	19
281.222	17
281.2244	21
281.2268	23
281.2291	26
281.2315	18
281.2339	18
281.2362	12
281.2386	12
281.241	7
281.2433	5
281.2457	4
281.2481	4
281.2504	2
281.2552	1
281.2623	1
282.3755	1
282.3779	1
282.385	1
282.3874	2
282.7787	1
282.8049	1
283.0185	1
283.1656	1
283.2345	1
283.2393	3
283.2416	4
283.244	11
283.2464	14
283.2487	13
283.2511	21
283.2535	32
283.2559	42
283.2582	54
283.2606	62
283.263	54
283.2654	54
283.2677	55
283.2701	53
283.2725	41
283.2749	30
283.2773	20
283.2796	17
283.282	7
283.2844	9
283.2867	3
283.2891	4
283.2915	1
283.2939	3
284.2541	1
284.266	2
284.2684	3
284.2732	2
285.166	3
285.1683	3
285.1707	5
285.1731	3
285.1755	7
285.1779	11
285.1802	8
285.1826	9
285.185	11
285.1874	12
285.1898	11
285.1922	12
285.1945	10
285.1969	6
285.1993	3
285.2017	3
285.2065	2
285.2089	1
287.1996	1
297.019	2
297.0214	2
297.0238	2
297.0263	2
297.0287	3
297.0311	4
297.0336	7
297.036	8
297.0384	5
297.0409	8
297.0433	8
297.0457	4
297.0482	3
297.0506	3
297.053	2
298.3214	1
299.2115	1
299.2189	3
299.2213	6
299.2238	6
299.2262	5
299.2286	16
299.231	17
299.2335	15
299.2359	20
299.2384	16
299.2408	18
299.2433	10
299.2457	9
299.2481	8
299.2506	6
299.253	6
299.2555	3
299.2579	3
299.2603	1
299.2628	1
299.275	1
315.0306	1
315.0356	2
315.0381	2
315.0406	4
315.0431	7
315.0456	4
315.0481	3
315.0506	2
315.0531	5
315.0557	4
315.0581	2
315.0607	3
315.0632	2
315.0707	1
317.2106	2
325.1887	1
325.1912	1
325.1938	1
325.1963	4
325.1989	5
325.2014	6
325.2039	12
325.2065	10
325.209	19
325.2116	14
325.2141	18
325.2167	12
325.2192	22
325.2218	18
325.2243	16
325.2268	12
325.2294	7
325.2319	5
325.2345	6
325.237	4
325.2396	2
325.2447	2
326.61	1
338.7151	1
342.1672	1
342.1776	1
342.9611	1
343.1911	1
343.1937	2
343.1963	2
343.1989	3
343.2042	8
343.2068	12
343.2094	18
343.212	22
343.2146	24
343.2172	34
343.2198	52
343.2225	50
343.2251	50
343.2277	50
343.2303	55
343.2329	48
343.2355	49
343.2381	37
343.2408	31
343.2434	18
343.246	16
343.2486	9
343.2512	5
343.2538	5
343.2564	3
343.2591	1
343.2617	3
343.2643	1
344.2165	1
344.2217	1
344.2348	2
344.2374	1
357.0591	1
419.1689	1
419.2267	3
419.2296	9
419.2325	4
419.2354	4
419.2382	10
419.2411	17
419.244	16
419.2469	24
419.2498	22
419.2527	26
419.2556	22
419.2585	28
419.2614	23
419.2642	30
419.2671	21
419.27	20
419.2729	9
419.2758	10
419.2787	5
419.2816	4
419.2845	3
419.2874	3
419.2902	2
420.2674	1
420.2731	2
420.2905	1
422.7238	1
437.244	1
437.2558	1
437.2588	3
437.2617	3
437.2647	2
437.2676	4
437.2706	3
437.2735	4
437.2794	1
437.2824	1
437.2853	2
477.7161	1
479.1821	3
479.1852	1
479.1914	1
479.1945	2
479.1976	2
479.2007	7
479.2037	6
479.2068	7
479.2099	6
479.213	6
479.2161	5
479.2192	7
479.2223	9
479.2254	7
479.2285	7
479.2315	10
479.2346	6
479.2377	3
479.2408	5
479.2439	3
479.247	3
479.2501	1
479.2532	2
479.2563	2
507.2909	1
510.6013	1
516.0551	1
523.8636	1
525.2758	1
537.43	1
542.9788	1
543.5905	1
547.0105	1
551.4315	1
578.8845	1
579.472	1
579.4957	1
580.335	1
580.7906	1
581.2633	2
581.2667	2
581.2735	8
581.2769	8
581.2803	12
581.2838	11
581.2871	9
581.2905	14
581.2939	16
581.2973	29
581.3007	29
581.3041	26
581.3076	33
581.3109	31
581.3143	28
581.3177	26
581.3212	23
581.3245	17
581.3279	18
581.3314	18
581.3348	12
581.3381	8
581.3416	8
581.345	5
581.3484	3
581.3517	5
581.3552	3
581.3586	3
582.2911	1
582.3115	1
582.3218	1
582.332	1
582.3354	1
599.2667	1
599.2701	2
599.277	2
599.2805	2
599.2839	2
599.2874	4
599.2908	4
599.2943	3
599.2977	7
599.3012	9
599.3047	10
599.3081	8
599.3116	11
599.315	12
599.3185	17
599.322	17
599.3254	16
599.3289	11
599.3323	13
599.3358	17
599.3392	12
599.3427	8
599.3461	8
599.3495	8
599.353	4
599.3565	3
599.3599	3
599.3634	3
599.3703	2
603.4984	1
639.2718	1
641.2104	1
641.2247	1
641.2318	2
641.2354	2
641.239	1
641.2426	3
641.2461	6
641.2497	3
641.2532	5
641.2568	8
641.2604	4
641.264	6
641.2675	11
641.2711	14
641.2747	8
641.2783	12
641.2819	9
641.2854	10
641.289	9
641.2925	9
641.2961	6
641.2997	8
641.3033	3
641.3068	4
641.3104	3
641.314	1
641.3176	3
641.3212	2
641.3247	1
642.272	2
642.2934	1
642.297	2
659.2608	1
659.2644	2
659.268	2
659.2717	1
659.2825	1
659.2861	1
659.2897	2
659.2934	1
659.297	3
659.3007	2
659.3043	1
659.3079	1
659.3224	1
693.1642	2
763.4785	1
763.4863	3
763.4902	3
763.4941	2
763.498	3
763.5058	1
763.5097	2
763.5135	2
763.5175	1
763.5214	1
763.5331	2
763.537	2
763.5409	1
922.5438	1
922.5652	1
922.5738	2
922.5781	2
922.5823	2
922.5952	4
922.6038	1
922.6081	4
922.6124	1
922.6166	5
922.6209	2
922.6252	3
922.6295	2
922.6338	4
922.6381	5
922.6423	5
922.6467	5
922.6509	4
922.6552	6
922.6595	4
922.6638	2
922.6681	6
922.6724	6
922.6766	2
922.6938	1
922.6981	1
922.7067	1
922.7109	2
922.7152	1
922.7324	1
922.741	1
922.7452	1
922.8352	1
923.6884	1
923.9929	1
924.3661	1
924.4776	1
924.5848	1
924.6449	1
924.7136	1
924.9152	1
925.1856	1
925.2843	1
925.3444	2
925.3616	1
925.3658	2
925.3873	4
925.4045	1
925.426	2
925.4346	1
925.4388	2
925.4517	2
925.456	1
925.4775	13
925.4818	26
925.486	32
925.4904	43
925.4946	56
925.4989	81
925.5032	133
925.5075	150
925.5118	240
925.5161	321
925.5204	428
925.5247	523
925.529	609
925.5333	682
925.5375	830
925.5419	879
925.5461	934
925.5504	917
925.5547	910
925.559	997
925.5633	999
925.5676	909
925.5719	857
925.5762	729
925.5805	544
925.5848	437
925.5891	277
925.5934	217
925.5977	159
925.6019	94
925.6063	63
925.6105	40
925.6148	23
925.6191	14
925.6234	10
925.6277	6
925.632	5
925.6363	2
925.6406	5
925.6449	2
925.6492	1
925.9926	1
926.0441	1
926.0656	1
926.0956	1
926.1	1
926.1171	1
926.1386	1
926.2073	1
926.4564	2
926.465	1
926.4778	2
926.4822	2
926.4865	2
926.4907	1
926.4951	6
926.4993	16
926.5036	8
926.5079	12
926.5122	15
926.5165	14
926.5208	15
926.5251	17
926.5294	15
926.5337	24
926.538	27
926.5423	31
926.5466	34
926.5509	34
926.5552	39
926.5594	31
926.5638	29
926.5681	33
926.5723	31
926.5767	30
926.5809	25
926.5853	24
926.5895	22
926.5938	14
926.5981	17
926.6024	7
926.6067	8
926.611	5
926.6153	3
926.6196	6
926.6239	4
926.6282	1
926.6325	2
926.6368	1
926.6411	2
926.6539	2
927.0234	2
927.032	1
927.2339	1
927.5648	1
927.5734	1
927.9301	1
928.2137	1
929.4006	1
929.5339	1
929.7706	1
930.6441	1
930.7259	1
931.6559	1
931.8627	1
932.4011	1
937.181	1
938.3995	1
938.9917	1
950.4103	1
