Mass spectrum: PC(16:0e/12-HETE); LC-ESI-QTOF; MS2
Name: PC(16:0e/12-HETE)
Class: Oxidized Phospholipid
Formula: C44H82NO8P
Exact mass: 784.115
SMILES: CCCCCCCCCCCCCCCCOCC(COP([O-])(=O)OCC[N+](C)(C)C)OC(=O)CCC\C=C/C\C=C/C=C/C(O)C\C=C/CCCCC
InChI: InChI=1S/C44H82NO8P/c1-6-8-10-12-14-15-16-17-18-19-22-25-29-33-38-50-40-43(41-52-54(48,49)51-39-37-45(3,4)5)53-44(47)36-32-28-24-21-20-23-27-31-35-42(46)34-30-26-13-11-9-7-2/h21,23-24,26-27,30-31,35,42-43,46H,6-20,22,25,28-29,32-34,36-41H2,1-5H3/b24-21-,27-23-,30-26-,35-31+
Instrument: Acquity UPLC Peptide BEH C18 column (50 x 2.1 mm; 1.7 um), Sciex TripleTOF5600
Instrument type: LC-ESI-QTOF
Ms type: MS2
Ion mode: NEGATIVE
Collision energy: 30-50
Precursor m/z: 842.5916581
Precursor type: [M+CH3COOH-H]-
m/z	relative intensity
78.9615	17
107.0841	11
107.0856	11
107.0899	11
135.116	11
135.121	11
135.1259	11
163.1018	11
163.109	11
163.1126	11
163.118	11
168.04	11
179.099	34
179.1009	23
179.1028	62
179.1046	62
179.1065	67
179.1084	90
179.1103	56
179.1122	67
179.1141	39
179.116	11
179.1235	11
180.1201	11
208.1009	17
208.103	11
208.105	11
208.107	28
208.1091	39
208.1111	23
208.1131	11
208.1172	23
257.2135	11
257.2158	23
257.218	28
257.2203	28
257.2226	39
257.2248	45
257.2271	34
257.2293	39
257.2316	39
257.2339	17
257.2361	23
257.2452	11
275.4619	11
281.2433	11
281.2481	11
301.1893	11
301.199	34
301.2015	23
301.2039	17
301.2064	45
301.2089	28
301.2113	45
301.2137	62
301.2162	67
301.2186	84
301.2211	39
301.2235	45
301.226	28
301.2285	39
301.2309	28
301.2333	17
301.2358	11
301.2382	17
303.9553	12
307.9212	12
318.2292	23
318.2367	12
318.282	12
319.199	17
319.2015	12
319.204	36
319.2065	82
319.209	29
319.2116	71
319.2141	147
319.2166	266
319.2191	284
319.2216	327
319.2242	392
319.2267	339
319.2292	337
319.2318	286
319.2343	266
319.2368	296
319.2393	172
319.2418	131
319.2444	78
319.2469	60
319.2494	36
319.2519	23
319.2544	12
319.257	12
319.2595	13
319.2721	6
319.2796	6
319.32	6
319.8648	6
320.2283	6
333.2451	17
375.2278	11
377.2256	11
377.2339	11
377.2366	11
377.2421	23
377.2448	23
377.2476	28
377.2503	11
377.2531	23
448.2941	17
448.2971	11
448.3001	11
448.3031	23
448.3091	28
448.312	34
448.315	28
448.318	39
448.321	23
448.324	17
448.327	23
448.33	34
448.333	34
448.3359	11
448.3389	11
448.3479	23
466.2761	11
466.2974	11
466.3035	17
466.3065	34
466.3096	28
466.3126	45
466.3157	73
466.3187	84
466.3217	90
466.3248	73
466.3279	95
466.3309	79
466.334	84
466.337	79
466.34	130
466.3431	84
466.3461	95
466.3492	56
466.3522	51
466.3553	34
466.3583	23
466.3614	11
466.3644	11
466.3857	11
476.2398	11
492.3484	11
575.386	11
575.3996	11
575.4063	11
575.4097	11
656.4086	11
656.4376	11
656.452	11
656.4556	11
657.4429	11
657.4501	11
671.438	11
697.4498	11
697.4573	11
697.461	17
697.4647	28
697.4684	23
697.4722	17
697.4759	11
697.4796	28
697.4833	23
697.4908	17
697.4945	17
697.4982	11
697.502	28
723.4815	11
723.5156	11
723.5195	11
750.5698	11
766.1274	17
766.1664	17
766.1743	11
768.2455	12
768.4802	35
768.4919	24
768.4958	30
768.4998	71
768.5037	57
768.5076	63
768.5115	130
768.5154	237
768.5193	338
768.5233	184
768.5272	308
768.5311	396
768.535	352
768.5389	637
768.5428	572
768.5467	641
768.5507	807
768.5546	999
768.5585	756
768.5624	881
768.5663	910
768.5702	946
768.5741	777
768.578	783
768.5819	602
768.5858	480
768.5897	336
768.5937	359
768.5976	184
768.6015	163
768.6054	168
768.6093	125
768.6132	96
768.6171	76
768.621	49
768.6249	20
768.6288	14
768.6328	7
768.6406	7
768.6523	7
769.1062	13
769.5054	11
769.5328	17
769.5367	29
769.5406	17
769.5445	23
769.5523	28
769.5562	39
769.5602	17
769.5641	23
769.568	23
769.5719	17
769.5758	17
769.5797	23
769.5836	17
769.5876	23
769.5954	11
769.5993	11
769.6032	17
769.6071	11
782.5272	11
782.5469	11
782.5587	23
782.5667	17
782.5784	17
782.5903	11
782.5982	17
782.6061	11
782.61	11
782.6258	11
783.4944	11
783.5142	17
783.5221	11
783.53	11
783.5339	17
783.5379	17
783.5419	11
783.5537	11
795.5308	11
795.5428	11
795.5786	11
795.5826	11
795.5865	17
795.5985	11
795.6064	11
842.4752	17
842.4792	17
842.4875	11
842.4916	17
842.4957	28
842.4998	11
842.5038	39
842.512	23
842.5161	17
842.5202	17
842.5243	56
842.5284	28
842.5325	39
842.5366	73
842.5407	23
842.5448	34
842.5489	23
842.553	39
842.5571	73
842.5612	23
842.5653	39
842.5694	28
842.5735	56
842.5776	39
842.5817	84
842.5858	45
842.5898	73
842.5939	51
842.598	28
842.6021	51
842.6062	79
842.6104	79
842.6144	34
842.6185	23
842.6226	28
842.6267	51
842.6308	45
842.6349	17
842.639	45
842.6431	11
842.6472	11
843.5526	11
843.5813	11
