Mass spectrum: PE 36:5; LC-ESI-QTOF; MS2
Name: PE 36:5
Class: PE
Formula: C41H72NO8P
Exact mass: 738.0019999999998
SMILES: CCCCCC\C=C/CCCCCCCC(=O)OCC(COP(O)(=O)OCCN)OC(=O)CCCCCC\C=C/C\C=C/C\C=C/C\C=C/CC
InChI: InChI=1S/C41H72NO8P/c1-3-5-7-9-11-13-15-17-18-19-20-22-24-26-28-30-32-34-41(44)50-39(38-49-51(45,46)48-36-35-42)37-47-40(43)33-31-29-27-25-23-21-16-14-12-10-8-6-4-2/h5,7,11,13-14,16-18,20,22,39H,3-4,6,8-10,12,15,19,21,23-38,42H2,1-2H3,(H,45,46)/b7-5-,13-11-,16-14-,18-17-,22-20-
Instrument: AB Sciex TripleTOF 5600+ system (Q-TOF) equipped with a DuoSpray ion source
Instrument type: LC-ESI-QTOF
Ms type: MS2
Ion mode: NEGATIVE
Collision energy: 45V
Column name: Acquity UPLC Peptide BEH C18 column (50*2.1 mm; 1.7 um; 130A)(Waters Co.,Milford, MA, USA)
Retention time: 8.820026
Precursor type: [M-H]-
Precursor m/z: 736.4922
m/z	relative intensity
140.014	41
196.036	20
205.198	27
253.217	662
255.226	44
259.228	33
259.251	61
269.244	13
290.089	20
292.1	14
303.229	999
432.252	33
450.241	33
450.255	75
450.269	96
482.273	20
676.585	20
734.217	15
736.479	517
736.496	296
736.511	324
736.566	29
