Mass spectrum: PC 32:3; LC-ESI-QTOF; MS2
Name: PC 32:3
Class: PC
Formula: C40H74NO8P
Exact mass: 728.0069999999998
SMILES: CCCCCCCCCCCCCC(=O)OCC(COP([O-])(=O)OCC[N+](C)(C)C)OC(=O)CCCCCCC\C=C/C\C=C/C\C=C/CC
InChI: InChI=1S/C40H74NO8P/c1-6-8-10-12-14-16-18-19-20-21-23-25-27-29-31-33-40(43)49-38(37-48-50(44,45)47-35-34-41(3,4)5)36-46-39(42)32-30-28-26-24-22-17-15-13-11-9-7-2/h8,10,14,16,19-20,38H,6-7,9,11-13,15,17-18,21-37H2,1-5H3/b10-8-,16-14-,20-19-
Instrument: AB Sciex TripleTOF 5600+ system (Q-TOF) equipped with a DuoSpray ion source
Instrument type: LC-ESI-QTOF
Ms type: MS2
Ion mode: NEGATIVE
Collision energy: 45V
Column name: Acquity UPLC Peptide BEH C18 column (50*2.1 mm; 1.7 um; 130A)(Waters Co.,Milford, MA, USA)
Retention time: 8.382978
Precursor type: [M+CH3COOH-H]-
Precursor m/z: 786.5283
m/z	relative intensity
168.046	27
224.072	25
225.182	36
227.2	741
251.195	103
251.206	130
253.203	41
253.214	129
277.218	257
279.225	50
281.249	41
282.246	41
283.252	23
305.091	14
305.21	19
327.23	39
328.237	32
329.243	18
458.911	13
460.268	13
464.305	9
476.263	9
478.289	18
484.283	23
502.289	64
562.424	10
578.858	9
699.502	10
710.261	9
712.485	999
727.443	23
786.449	46
786.484	150
786.513	70
786.528	101
786.554	36
