Mass spectrum: PC(14:0/10-HDoHE); LC-ESI-QTOF; MS2
Name: PC(14:0/10-HDoHE)
Class: Oxidized Phospholipid
Formula: C44H76NO9P
Exact mass: 794.066
SMILES: CCCCCCCCCCCCCC(=O)OCC(COP([O-])(=O)OCC[N+](C)(C)C)OC(=O)CC\C=C/C\C=C/CC(O)\C=C\C=C/C\C=C/C\C=C/CC
InChI: InChI=1S/C44H76NO9P/c1-6-8-10-12-14-16-18-20-22-27-31-35-43(47)51-39-42(40-53-55(49,50)52-38-37-45(3,4)5)54-44(48)36-32-28-24-23-26-30-34-41(46)33-29-25-21-19-17-15-13-11-9-7-2/h9,11,15,17,21,24-26,28-30,33,41-42,46H,6-8,10,12-14,16,18-20,22-23,27,31-32,34-40H2,1-5H3/b11-9-,17-15-,25-21-,28-24-,30-26-,33-29+
Instrument: Acquity UPLC Peptide BEH C18 column (50 x 2.1 mm; 1.7 um), Sciex TripleTOF5600
Instrument type: LC-ESI-QTOF
Ms type: MS2
Ion mode: NEGATIVE
Collision energy: 30-50
Precursor m/z: 852.5396225
Precursor type: [M+CH3COOH-H]-
m/z	relative intensity
78.95756	15
147.1209	15
153.081	15
153.0845	22
153.0863	15
153.088	30
153.0898	15
153.0915	30
153.0933	30
153.095	30
153.0968	15
153.1037	15
161.1272	15
161.1307	15
161.1397	15
168.0433	15
168.0543	15
181.0811	22
181.0849	22
181.0868	15
181.0906	15
189.1667	15
190.1285	15
224.0579	15
224.0684	22
224.0705	22
224.0727	22
224.0769	22
224.079	15
226.4848	15
226.4869	15
226.4954	15
226.5081	15
226.5273	15
227.169	15
227.1775	24
227.1797	24
227.1818	16
227.1839	79
227.1861	171
227.1882	148
227.1903	330
227.1924	416
227.1946	488
227.1967	662
227.1988	868
227.2009	765
227.2031	781
227.2052	678
227.2073	443
227.2094	410
227.2116	212
227.2137	118
227.2158	127
227.218	31
227.2201	72
227.2222	16
227.2243	63
227.2265	46
227.2286	22
229.2836	15
253.2099	15
253.2122	30
253.2144	15
253.2167	22
253.2189	22
253.2211	22
255.2076	15
281.2169	30
281.2193	46
281.2216	30
281.224	22
281.2264	37
281.2287	54
281.2311	37
281.2335	22
281.2382	30
281.2477	15
299.1964	22
299.2038	15
299.2062	22
299.2184	15
299.2355	22
299.2379	15
299.2477	15
299.2574	15
317.1222	15
317.1976	15
325.1958	15
325.2009	15
325.206	22
325.2085	22
325.2111	37
325.2136	30
325.2162	30
325.2238	22
325.2263	15
343.2089	30
343.2115	15
343.2141	61
343.2167	37
343.2193	37
343.2219	37
343.2245	91
343.2271	113
343.2298	46
343.2324	46
343.235	61
343.2376	54
343.2402	54
343.2428	37
343.2455	22
343.248	15
434.2567	15
434.2655	22
434.2744	15
452.2577	15
452.2667	15
452.2757	15
452.2787	15
452.2847	15
452.2907	15
478.2922	15
479.2307	15
479.2369	15
480.3155	15
544.3201	15
550.2848	22
550.2914	37
550.2947	15
550.3179	15
568.2763	15
568.2797	22
568.283	15
568.2897	22
568.2931	22
568.2965	22
568.2999	46
568.3032	69
568.3066	37
568.3099	30
568.3133	30
568.3167	15
568.32	54
568.3234	30
568.3267	37
568.3301	30
568.3335	15
568.3369	22
707.4036	22
707.4149	15
707.4224	15
707.4299	37
707.4337	30
707.4374	37
707.4412	22
707.4449	22
707.4487	15
707.4524	37
707.4562	22
707.4637	15
720.7053	22
733.4162	15
765.494	22
765.5096	15
778.4229	22
778.4308	15
778.4347	37
778.4387	54
778.4426	48
778.4465	140
778.4504	55
778.4544	128
778.4583	161
778.4623	179
778.4662	294
778.4702	312
778.4741	333
778.478	435
778.4819	601
778.4859	732
778.4898	822
778.4938	866
778.4977	890
778.5016	817
778.5056	808
778.5095	950
778.5134	948
778.5174	999
778.5213	880
778.5253	811
778.5292	766
778.5331	559
778.537	517
778.541	404
778.5449	289
778.5489	279
778.5528	180
778.5568	180
778.5607	157
778.5646	42
778.5725	40
778.5764	24
778.5843	25
778.5922	15
778.5961	19
779.4822	22
779.4901	22
779.494	30
779.498	37
779.5019	22
779.5059	15
779.5098	46
779.5137	22
779.5216	37
779.5256	15
779.5334	15
779.5374	15
779.5413	15
779.5452	15
792.5004	15
792.5084	15
792.5163	22
792.5322	15
792.5361	15
793.4421	22
793.45	15
793.4579	22
793.4699	15
793.4818	15
802.3378	15
852.4637	15
852.4761	15
852.4967	61
852.5049	22
852.5091	54
852.5132	46
852.5173	69
852.5214	61
852.5256	76
852.5297	61
852.5338	54
852.5379	113
852.5421	61
852.5461	83
852.5503	69
852.5544	83
852.5585	22
852.5626	83
852.5709	30
852.575	69
852.5791	30
852.5833	61
852.5873	37
852.5956	22
852.608	15
