Mass spectrum: PS 40:2; LC-ESI-QTOF; MS2
Name: PS 40:2
Class: PS
Formula: C46H86NO10P
Exact mass: 844.1669999999999
SMILES: CCCCCCCC\C=C/CCCCCCCCCCCC(=O)OC(COC(=O)CCCCCCC\C=C/CCCCCCCC)COP(O)(=O)OCC(N)C(O)=O
InChI: InChI=1S/C46H86NO10P/c1-3-5-7-9-11-13-15-17-19-20-21-22-24-26-28-30-32-34-36-38-45(49)57-42(40-55-58(52,53)56-41-43(47)46(50)51)39-54-44(48)37-35-33-31-29-27-25-23-18-16-14-12-10-8-6-4-2/h17-19,23,42-43H,3-16,20-22,24-41,47H2,1-2H3,(H,50,51)(H,52,53)/b19-17-,23-18-
Instrument: AB Sciex TripleTOF 5600+ system (Q-TOF) equipped with a DuoSpray ion source
Instrument type: LC-ESI-QTOF
Ms type: MS2
Ion mode: NEGATIVE
Collision energy: 45V
Column name: Acquity UPLC Peptide BEH C18 column (50*2.1 mm; 1.7 um; 130A)(Waters Co.,Milford, MA, USA)
Retention time: 9.905784
Precursor type: [M-H]-
Precursor m/z: 842.5976
m/z	relative intensity
152.997	143
168.05	57
224.066	57
253.232	86
255.215	201
255.238	229
256.234	172
281.229	201
281.247	758
281.263	264
282.248	577
305.25	86
331.258	143
337.303	350
337.32	468
417.245	152
447.287	57
473.3	580
491.305	287
501.332	86
745.545	66
755.549	468
755.587	212
760.518	86
767.627	172
768.49	86
768.548	175
768.585	999
768.618	675
798.602	66
842.546	497
842.583	761
842.615	557
