Mass spectrum: PC(16:0/19,20-EpDPE); LC-ESI-QTOF; MS2
Name: PC(16:0/19,20-EpDPE)
Class: Oxidized Phospholipid
Formula: C46H80NO9P
Exact mass: 822.12
SMILES: CCCCCCCCCCCCCCCC(=O)OCC(COP([O-])(=O)OCC[N+](C)(C)C)OC(=O)CC\C=C/C\C=C/C\C=C/C\C=C/C\C=C/CC1OC1CC
InChI: InChI=1S/C46H80NO9P/c1-6-8-9-10-11-12-13-17-21-24-27-30-33-36-45(48)52-40-42(41-54-57(50,51)53-39-38-47(3,4)5)55-46(49)37-34-31-28-25-22-19-16-14-15-18-20-23-26-29-32-35-44-43(7-2)56-44/h14-15,19-20,22-23,28-29,31-32,42-44H,6-13,16-18,21,24-27,30,33-41H2,1-5H3/b15-14-,22-19-,23-20-,31-28-,32-29-
Instrument: Acquity UPLC Peptide BEH C18 column (50 x 2.1 mm; 1.7 um), Sciex TripleTOF5600
Instrument type: LC-ESI-QTOF
Ms type: MS2
Ion mode: NEGATIVE
Collision energy: 30-50
Precursor m/z: 880.5709227
Precursor type: [M+CH3COOH-H]-
m/z	relative intensity
78.96179	12
78.96304	12
133.1019	12
149.1343	12
168.0351	24
168.0369	18
168.0406	12
168.0424	12
168.0442	12
168.0461	24
168.0479	18
168.0534	12
187.1587	12
189.1677	12
199.1505	12
224.0632	12
224.0654	12
224.0675	31
224.0696	18
224.0738	18
224.0759	18
227.1766	18
227.1808	12
241.1861	18
241.1883	31
241.1905	24
241.1927	38
241.1949	38
241.1971	18
241.1993	38
241.2014	18
241.2036	24
241.2058	24
255.2021	12
255.2066	12
255.2089	18
255.2111	26
255.2134	44
255.2157	20
255.2179	196
255.2202	265
255.2224	322
255.2247	359
255.2269	549
255.2292	373
255.2314	273
255.2337	438
255.2359	396
255.2382	308
255.2404	214
255.2427	194
255.245	82
255.2472	75
255.2495	31
255.2517	38
255.254	18
255.2585	38
281.2089	24
281.2112	18
281.2136	12
281.2159	18
281.2183	18
281.2207	50
281.2231	75
281.2254	50
281.2278	50
281.2301	56
281.2325	68
281.2349	31
281.2372	50
281.2396	18
281.242	12
281.2444	18
281.2467	18
281.2491	12
281.2585	12
285.1741	12
285.1765	31
285.1789	12
285.1813	12
285.1837	62
285.186	68
285.1884	31
285.1908	38
285.1932	24
285.1956	31
285.1979	31
285.2027	18
287.2006	18
299.2199	18
299.2224	31
299.2248	31
299.2272	31
299.2296	62
299.2321	56
299.2345	56
299.237	44
299.2394	62
299.2419	112
299.2443	50
299.2468	31
299.2492	38
299.2516	38
299.2541	12
317.2092	12
325.1949	12
325.2	18
325.2025	12
325.205	18
325.2076	18
325.2101	44
325.2127	50
325.2152	50
325.2178	18
325.2203	24
325.2229	24
325.2254	24
325.228	12
325.2305	18
325.233	18
343.1949	12
343.2027	38
343.2053	50
343.2079	38
343.2105	68
343.2131	81
343.2158	131
343.2184	112
343.221	169
343.2236	193
343.2262	225
343.2288	155
343.2314	175
343.2341	218
343.2367	163
343.2393	137
343.2419	106
343.2445	62
343.2471	44
343.2498	18
343.2523	12
343.255	12
343.2576	12
343.2628	12
344.2412	12
462.2889	18
462.2919	12
462.295	12
462.298	18
462.3041	24
462.3102	24
462.3192	18
480.2807	18
480.2838	18
480.2869	24
480.2899	31
480.2931	44
480.2961	38
480.2992	75
480.3023	87
480.3054	93
480.3085	100
480.3116	75
480.3147	93
480.3178	75
480.3209	62
480.324	68
480.3271	38
480.3302	12
480.3333	18
480.3364	18
480.3394	31
480.3425	24
550.2741	12
550.2906	18
550.2939	12
568.3058	12
568.3126	12
568.3193	18
700.9893	12
803.9889	12
804.0049	12
806.4312	12
806.4393	12
806.4553	12
806.4593	12
806.4673	50
806.4713	38
806.4753	82
806.4793	51
806.4833	116
806.4873	115
806.4913	133
806.4954	154
806.4993	323
806.5034	302
806.5074	418
806.5114	408
806.5154	565
806.5194	583
806.5234	649
806.5274	831
806.5314	834
806.5354	876
806.5394	972
806.5435	999
806.5474	888
806.5515	717
806.5554	739
806.5594	861
806.5635	632
806.5674	504
806.5715	482
806.5755	416
806.5795	340
806.5835	182
806.5875	185
806.5915	119
806.5955	94
806.5995	72
806.6035	27
806.6075	33
806.6116	20
806.6155	34
806.6196	22
806.6236	12
806.6316	12
806.7278	12
806.8721	7
807.4894	18
807.5175	12
807.5215	18
807.5295	12
807.5335	12
807.5415	18
807.5455	24
807.5495	24
807.5535	31
807.5576	31
807.5616	18
807.5656	18
807.5696	12
807.5736	18
807.5776	12
807.5816	18
821.4905	12
821.4985	12
821.5067	18
821.5269	12
821.5309	12
821.539	12
833.5372	12
880.4851	12
880.4893	18
880.506	24
880.5102	12
880.5144	24
880.5186	12
880.5228	18
880.527	38
880.5311	24
880.5353	38
880.5395	31
880.5437	56
880.5479	44
880.5521	56
880.5563	68
880.5604	50
880.5646	50
880.5688	81
880.573	100
880.5772	62
880.5814	87
880.5856	62
880.5897	81
880.5939	56
880.5981	87
880.6023	87
880.6065	56
880.6107	44
880.6149	50
880.6232	24
880.6274	18
880.6316	24
880.6358	18
880.64	24
880.6442	12
880.6526	12
881.5488	12
