Mass spectrum: PE(18:0e/12-HEPE); LC-ESI-QTOF; MS2
Name: PE(18:0e/12-HEPE)
Class: Oxidized Phospholipid
Formula: C43H78NO8P
Exact mass: 768.072
SMILES: CCCCCCCCCCCCCCCCCCOCC(COP(O)(=O)OCCN)OC(=O)CCC\C=C/C\C=C/C=C/C(O)C\C=C/C\C=C/CC
InChI: InChI=1S/C43H78NO8P/c1-3-5-7-9-11-12-13-14-15-16-17-18-21-24-28-32-37-49-39-42(40-51-53(47,48)50-38-36-44)52-43(46)35-31-27-23-20-19-22-26-30-34-41(45)33-29-25-10-8-6-4-2/h6,8,20,22-23,25-26,29-30,34,41-42,45H,3-5,7,9-19,21,24,27-28,31-33,35-40,44H2,1-2H3,(H,47,48)/b8-6-,23-20-,26-22-,29-25-,34-30+
Instrument: Acquity UPLC Peptide BEH C18 column (50 x 2.1 mm; 1.7 um), Sciex TripleTOF5600
Instrument type: LC-ESI-QTOF
Ms type: MS2
Ion mode: NEGATIVE
Collision energy: 30-50
Precursor m/z: 766.539229
Precursor type: [M-H]-
m/z	relative intensity
78.95867	77
78.96116	77
135.1149	77
135.1214	77
179.0978	77
179.1015	77
179.1071	154
179.109	77
179.1109	154
179.1128	77
180.0864	77
180.1146	77
180.1165	77
181.1118	77
181.1306	77
208.1039	77
208.1119	77
208.118	77
224.067	77
224.069	77
224.0711	77
225.1789	77
225.1831	231
225.1873	77
225.1936	77
227.1891	77
227.1912	231
227.1933	77
227.1954	435
227.1976	154
227.1997	384
227.2018	467
227.2039	154
227.206	154
227.2081	77
227.2103	231
227.2124	77
228.1965	154
228.1986	77
228.2007	77
228.205	77
228.2092	77
228.2113	77
228.2156	77
253.2007	154
253.2029	154
253.2051	77
253.2096	77
253.2118	307
253.214	756
253.2163	384
253.2185	231
253.2207	384
253.223	307
253.2252	154
253.2274	77
254.2104	77
254.2149	77
254.2171	231
254.2193	307
254.2216	154
254.2238	154
254.2305	77
254.2328	154
254.235	77
255.2065	154
255.2087	77
255.211	77
255.2132	77
255.2177	154
255.2267	77
255.2289	154
255.2311	77
255.2334	77
255.2446	77
256.2135	77
256.218	77
256.2337	77
256.2359	77
299.1887	77
299.1984	77
299.2008	77
299.2032	77
317.1978	77
317.2003	77
317.2028	154
317.2053	423
317.2078	77
317.2103	474
317.2128	307
317.2153	423
317.2178	154
317.2203	154
317.2228	154
317.2253	154
317.2278	77
319.2168	77
319.2193	77
319.2218	154
319.2293	77
347.2586	77
347.2691	77
347.2743	77
392.2301	77
392.2329	77
400.352	77
400.3548	77
405.2583	77
405.2697	77
419.2314	77
419.2572	77
448.3125	154
448.3185	77
448.3244	77
466.2983	77
466.3134	154
466.3195	77
466.3225	77
466.3256	307
466.3286	77
466.3347	154
466.3377	77
466.3407	77
482.2971	77
482.3126	77
619.4126	77
619.4161	77
619.4231	77
619.437	77
619.444	77
645.4234	77
645.4448	154
645.4484	77
645.459	77
645.4769	77
674.4584	77
674.4693	77
674.4838	77
679.4467	77
679.4943	77
688.4626	77
688.492	77
688.4957	77
688.4994	77
689.486	77
689.5007	77
689.5081	77
689.5118	77
690.4733	77
690.4771	77
690.4807	77
690.4918	154
690.4955	77
690.5028	77
690.5065	77
690.5102	77
690.525	77
691.4725	77
691.502	77
691.5057	154
691.5093	77
691.5167	77
691.5204	77
691.5352	77
691.5388	77
692.4686	154
692.4723	77
692.476	77
692.4833	77
692.4871	154
692.4907	77
692.4981	423
692.5018	154
692.5055	384
692.5092	307
692.5129	307
692.5166	435
692.5203	154
692.524	384
692.5276	77
692.535	77
692.5424	77
692.5461	77
692.5498	77
692.5535	77
704.5341	77
704.5415	77
766.4205	77
766.4788	77
766.4904	77
766.4943	77
766.5021	231
766.5099	77
766.5137	410
766.5176	307
766.5215	717
766.5254	557
766.5293	858
766.5331	832
766.537	672
766.5409	961
766.5448	999
766.5487	154
766.5526	384
766.5565	403
766.5604	551
766.5642	231
766.5681	384
766.572	154
766.5759	154
766.5798	154
