Mass spectrum: PE(16:0/7-HDoHE); LC-ESI-QTOF; MS2
Name: PE(16:0/7-HDoHE)
Class: Oxidized Phospholipid
Formula: C43H74NO9P
Exact mass: 780.039
SMILES: CCCCCCCCCCCCCCCC(=O)OCC(COP(O)(=O)OCCN)OC(=O)CC\C=C/CC(O)\C=C\C=C/C\C=C/C\C=C/C\C=C/CC
InChI: InChI=1S/C43H74NO9P/c1-3-5-7-9-11-13-15-17-19-21-23-25-28-32-40(45)33-29-27-31-35-43(47)53-41(39-52-54(48,49)51-37-36-44)38-50-42(46)34-30-26-24-22-20-18-16-14-12-10-8-6-4-2/h5,7,11,13,17,19,23,25,27-29,32,40-41,45H,3-4,6,8-10,12,14-16,18,20-22,24,26,30-31,33-39,44H2,1-2H3,(H,48,49)/b7-5-,13-11-,19-17-,25-23-,29-27-,32-28+
Instrument: Acquity UPLC Peptide BEH C18 column (50 x 2.1 mm; 1.7 um), Sciex TripleTOF5600
Instrument type: LC-ESI-QTOF
Ms type: MS2
Ion mode: NEGATIVE
Collision energy: 30-50
Precursor m/z: 778.5028435
Precursor type: [M-H]-
m/z	relative intensity
78.95731	11
78.95982	11
78.96483	11
96.95818	11
96.96096	11
96.96374	11
96.96791	11
115.0346	11
115.0376	16
115.0391	11
115.0406	22
115.0421	16
115.0436	16
135.1156	11
140.0056	16
140.0106	11
140.0122	11
140.0139	11
140.0172	11
141.0526	22
141.056	11
141.0576	11
141.061	11
141.0627	11
141.066	11
149.1299	11
168.034	11
168.0468	16
175.1514	11
196.0276	11
196.0296	22
196.0316	27
196.0336	16
196.0355	38
196.0375	11
196.0395	22
196.0434	11
196.0454	11
196.0494	11
201.1535	11
201.1575	11
201.1595	11
201.1615	11
201.1635	11
201.1655	27
201.1696	11
201.1716	27
201.1736	11
201.1756	16
227.1775	11
227.1796	11
227.1966	16
227.1987	16
227.2009	16
241.2133	11
245.1828	11
253.2166	11
255.1941	16
255.2031	38
255.2053	16
255.2076	38
255.2098	22
255.2121	38
255.2143	65
255.2166	54
255.2189	32
255.2211	59
255.2234	76
255.2256	103
255.2279	123
255.2301	103
255.2324	150
255.2346	150
255.2369	119
255.2391	97
255.2414	54
255.2437	32
255.2459	49
255.2482	27
255.2504	22
255.2549	16
255.2572	11
255.2594	11
271.2136	16
271.2159	11
271.2206	11
281.2146	22
281.2169	38
281.2193	22
281.2217	27
281.224	76
281.2264	32
281.2288	92
281.2311	16
281.2335	59
281.2359	70
281.2382	38
281.2406	85
281.243	59
281.2453	76
281.2477	119
281.2501	85
281.2524	92
281.2548	38
281.2572	70
281.2595	32
281.2619	16
281.2643	11
281.2666	16
281.269	16
281.2714	11
299.1916	16
299.1941	22
299.1965	11
299.1989	11
299.2014	22
299.2038	32
299.2063	16
299.2087	11
299.2258	11
299.2429	11
317.1977	16
317.2027	38
317.2052	49
317.2078	54
317.2103	27
317.2128	43
317.2153	49
317.2178	27
317.2203	16
317.2228	22
317.2253	16
317.2354	11
325.2036	11
325.2061	16
325.2086	22
325.2137	32
325.2188	16
325.2214	22
325.2239	22
325.2265	11
325.229	11
325.2367	16
343.209	16
343.2116	16
343.2142	16
343.2169	27
343.2195	38
343.2221	70
343.2247	32
343.2273	32
343.2299	65
343.2325	54
343.2351	16
343.2378	27
343.2404	27
343.243	22
343.2456	16
343.2482	11
434.2629	11
434.2776	16
436.2735	16
436.2853	11
452.2491	11
452.2581	32
452.2611	11
452.2641	27
452.2671	16
452.2701	16
452.2731	32
452.2761	27
452.2791	38
452.2821	22
452.2851	16
452.2881	22
452.2911	38
452.2941	32
452.2971	11
452.3001	11
478.2741	16
478.2803	16
478.2834	16
478.2865	27
478.2896	16
478.2927	11
478.2957	22
478.2988	32
478.3019	16
478.305	11
478.3081	16
478.3112	16
478.3143	27
493.357	11
522.2563	11
628.5289	11
693.4946	11
704.4918	16
704.5067	16
704.5217	11
704.5255	22
704.5292	32
704.533	32
704.5367	43
704.5405	22
704.5442	38
704.5479	54
704.5517	16
704.5554	32
704.5592	11
704.5629	27
704.5667	16
704.5704	59
704.5742	11
704.5779	16
704.5891	16
704.6003	11
718.5451	11
776.0521	11
776.06	11
776.0836	11
778.432	16
778.4359	38
778.4399	22
778.4438	32
778.4478	98
778.4517	125
778.4556	82
778.4595	158
778.4635	71
778.4674	55
778.4714	193
778.4753	252
778.4792	288
778.4832	382
778.4871	518
778.491	541
778.495	562
778.4989	747
778.5029	679
778.5068	882
778.5107	842
778.5146	879
778.5186	888
778.5225	999
778.5265	782
778.5304	697
778.5344	817
778.5383	673
778.5422	418
778.5461	508
778.5501	412
778.554	427
778.558	231
778.5619	196
778.5659	196
778.5698	81
778.5737	70
778.5776	70
778.5816	68
778.5855	30
778.5895	11
778.5934	16
778.6013	11
778.7903	11
779.4913	11
779.4952	11
779.4992	27
779.515	32
779.5189	16
779.5228	16
779.5268	22
779.5307	11
779.5425	11
