Mass spectrum: Cer[NS] d36:1; LC-ESI-QTOF; MS2
Name: Cer[NS] d36:1
Class: Cer_NS
Formula: C36H71NO3
Exact mass: 565.9679999999998
SMILES: CCCCCCCCCCCCCCCCCC(=O)NC(CO)C(O)\C=C\CCCCCCCCCCCCC
InChI: InChI=1S/C36H71NO3/c1-3-5-7-9-11-13-15-17-18-20-22-24-26-28-30-32-36(40)37-34(33-38)35(39)31-29-27-25-23-21-19-16-14-12-10-8-6-4-2/h29,31,34-35,38-39H,3-28,30,32-33H2,1-2H3,(H,37,40)/b31-29+
Instrument: AB Sciex TripleTOF 5600+ system (Q-TOF) equipped with a DuoSpray ion source
Instrument type: LC-ESI-QTOF
Ms type: MS2
Ion mode: NEGATIVE
Collision energy: 45V
Column name: Acquity UPLC Peptide BEH C18 column (50*2.1 mm; 1.7 um; 130A)(Waters Co.,Milford, MA, USA)
Retention time: 10.76745
Precursor type: [M+CH3COOH-H]-
Precursor m/z: 624.5551
m/z	relative intensity
80.025	1
95.048	1
209.19	1
219.206	0
225.22	1
235.205	6
236.465	0
237.22	219
239.227	4
239.239	4
248.237	0
250.249	9
250.26	3
251.237	1
255.229	3
261.217	1
262.403	0
263.235	174
264.433	1
265.251	287
268.262	31
280.26	2
281.245	3
281.284	25
281.413	1
282.279	202
282.382	0
283.251	36
283.263	127
296.286	2
296.305	2
298.273	12
306.27	1
306.286	2
307.324	2
307.34	2
308.294	999
322.273	10
323.274	1
323.293	1
324.29	127
326.301	4
326.313	1
338.302	1
471.976	1
477.512	0
489.491	3
489.517	1
505.497	2
514.5	1
516.51	155
518.514	1
528.485	0
528.526	1
530.846	0
532.465	4
532.504	123
532.861	1
534.521	234
536.529	1
536.55	1
546.497	3
546.522	8
546.547	1
562.726	1
562.758	6
562.787	1
563.978	1
564.413	1
564.532	785
565.537	2
615.352	0
617.599	0
624.551	1
