Mass spectrum: PE 38:5; LC-ESI-QTOF; MS2
Name: PE 38:5
Class: PE
Formula: C43H76NO8P
Exact mass: 766.0559999999998
SMILES: CCCCCCCCCCCCCCCC(=O)OCC(COP(O)(=O)OCCN)OC(=O)CCCCC\C=C/C\C=C/C\C=C/C\C=C/C\C=C/CC
InChI: InChI=1S/C43H76NO8P/c1-3-5-7-9-11-13-15-17-18-19-20-21-22-24-26-28-30-32-34-36-43(46)52-41(40-51-53(47,48)50-38-37-44)39-49-42(45)35-33-31-29-27-25-23-16-14-12-10-8-6-4-2/h5,7,11,13,17-18,20-21,24,26,41H,3-4,6,8-10,12,14-16,19,22-23,25,27-40,44H2,1-2H3,(H,47,48)/b7-5-,13-11-,18-17-,21-20-,26-24-
Instrument: AB Sciex TripleTOF 5600+ system (Q-TOF) equipped with a DuoSpray ion source
Instrument type: LC-ESI-QTOF
Ms type: MS2
Ion mode: NEGATIVE
Collision energy: 45V
Column name: Acquity UPLC Peptide BEH C18 column (50*2.1 mm; 1.7 um; 130A)(Waters Co.,Milford, MA, USA)
Retention time: 9.796544
Precursor type: [M-H]-
Precursor m/z: 764.5211
m/z	relative intensity
78.959	7
140.007	9
140.014	13
177.162	4
179.178	3
196.039	34
231.212	47
251.202	8
255.231	577
257.232	3
283.229	5
285.259	231
301.214	2
311.235	9
327.22	1
328.213	8
329.247	999
391.243	1
434.26	15
434.277	15
452.244	10
452.276	150
452.31	12
508.275	16
526.288	11
616.615	3
756.513	1
762.103	3
764.458	10
764.486	75
764.522	701
764.59	11
764.986	2
765.514	2
