Mass spectrum: PI(18:0/18-HETE); LC-ESI-QTOF; MS2
Name: PI(18:0/18-HETE)
Class: Oxidized Phospholipid
Formula: C47H83O14P
Exact mass: 903.143
SMILES: CCCCCCCCCCCCCCCCCC(=O)OCC(COP(O)(=O)OC1C(O)C(O)C(O)C(O)C1O)OC(=O)CCC\C=C/C\C=C/C\C=C/C\C=C/CCC(O)CC
InChI: InChI=1S/C47H83O14P/c1-3-5-6-7-8-9-10-11-12-16-19-22-25-28-31-34-40(49)58-36-39(37-59-62(56,57)61-47-45(54)43(52)42(51)44(53)46(47)55)60-41(50)35-32-29-26-23-20-17-14-13-15-18-21-24-27-30-33-38(48)4-2/h14-15,17-18,23-24,26-27,38-39,42-48,51-55H,3-13,16,19-22,25,28-37H2,1-2H3,(H,56,57)/b17-14-,18-15-,26-23-,27-24-
Instrument: Acquity UPLC Peptide BEH C18 column (50 x 2.1 mm; 1.7 um), Sciex TripleTOF5600
Instrument type: LC-ESI-QTOF
Ms type: MS2
Ion mode: NEGATIVE
Collision energy: 30-50
Precursor m/z: 901.5447679
Precursor type: [M-H]-
m/z	relative intensity
71.05764	1
77.78715	1
78.72452	1
78.95379	1
78.95504	0
78.9563	3
78.95755	4
78.9588	11
78.96006	2
78.96131	12
78.96257	9
78.96382	6
78.96507	5
78.96633	3
78.96758	3
78.96884	3
78.97134	1
78.97385	1
95.085	1
96.96398	1
96.96537	1
96.96676	2
96.96815	2
96.96954	3
96.97093	3
96.97232	2
96.97371	2
96.9751	1
96.97649	2
96.97788	1
96.97927	1
107.0824	1
107.0883	1
109.1024	1
109.1053	1
109.1068	1
111.2424	1
121.1041	1
121.1056	1
134.983	1
134.9846	1
134.9879	1
135.1142	1
135.1158	1
135.1207	1
149.1491	1
151.1494	1
152.5264	1
152.9816	0
152.9833	1
152.9851	1
152.9868	3
152.9886	7
152.9903	7
152.9921	16
152.9938	18
152.9955	16
152.9973	16
152.999	12
153.0008	13
153.0025	7
153.0043	4
153.006	3
153.0078	1
153.0095	3
153.0113	0
153.0165	1
154.006	0
155.0953	0
159.4944	1
163.1466	1
163.1484	1
163.152	2
163.1556	1
163.1592	1
171.0048	1
171.0085	1
171.0121	1
177.0915	1
177.0934	2
177.0971	1
187.1443	1
189.161	1
189.1629	1
189.1668	1
189.1687	2
189.1726	1
191.1026	1
191.1046	1
191.1065	1
203.182	1
203.186	1
203.188	1
205.1254	1
209.1503	1
209.1543	1
217.1571	1
217.1612	1
217.1633	1
217.1654	1
217.1674	1
217.1758	1
217.1779	1
217.182	3
217.1841	3
217.1862	5
217.1882	8
217.1903	8
217.1924	9
217.1945	12
217.1966	12
217.1986	12
217.2007	10
217.2028	11
217.2049	6
217.207	4
217.209	2
217.2111	1
217.2132	0
217.2174	1
217.2236	1
217.5606	1
219.1723	1
219.1744	1
221.1969	1
221.7891	1
222.4557	1
222.6073	1
222.98	0
222.9821	0
222.9863	1
222.9884	5
222.9906	8
222.9927	10
222.9948	16
222.9969	21
222.999	23
223.0011	21
223.0032	24
223.0053	17
223.0074	16
223.0095	13
223.0116	11
223.0137	5
223.0158	4
223.0179	3
223.0201	2
223.0222	1
223.1697	1
223.1718	1
223.176	0
225.7953	1
229.4995	0
229.6192	0
229.8181	1
235.1621	1
235.1664	1
235.1707	1
240.2546	1
240.259	1
240.2612	1
240.2634	1
240.2655	2
240.2677	2
240.3049	1
240.3137	1
240.5171	1
240.8871	1
240.9834	1
240.9856	0
240.9878	2
240.99	5
240.9922	3
240.9944	8
240.9966	18
240.9988	23
241.001	45
241.0031	72
241.0053	95
241.0075	122
241.0097	151
241.0119	161
241.0141	150
241.0163	153
241.0185	104
241.0207	82
241.0229	49
241.0251	29
241.0273	20
241.0294	8
241.0316	6
241.0338	4
241.036	2
241.0382	1
241.0404	1
241.0426	1
241.0513	0
241.0689	1
241.2705	1
241.2858	1
241.3055	1
241.6519	0
242.0096	1
242.0118	1
242.0184	1
242.0228	2
242.0272	1
242.5719	1
243.1611	1
243.1678	1
243.1788	1
245.1675	1
245.1763	1
245.1851	1
245.1873	2
245.1962	1
247.0578	1
247.1687	1
247.1709	1
247.202	1
257.2087	1
257.2132	1
257.2155	1
257.2178	2
257.22	3
257.2223	3
257.2245	3
257.2268	5
257.2291	7
257.2314	5
257.2336	3
257.2359	5
257.2381	2
257.2404	2
257.2426	1
258.2688	1
258.6408	1
258.7271	1
258.9995	1
259.004	1
259.0063	3
259.0086	3
259.0109	5
259.0131	9
259.0154	9
259.0177	18
259.0199	12
259.0222	14
259.0245	14
259.0267	14
259.029	11
259.0313	8
259.0336	5
259.0358	4
259.0381	2
259.0404	1
259.0426	1
259.0449	0
259.0472	1
259.1698	0
260.3615	1
260.3751	1
260.3933	1
261.0267	1
261.0928	1
261.1019	1
261.1156	1
261.1612	0
261.1635	1
261.1657	3
261.168	3
261.1703	9
261.1726	9
261.1749	16
261.1772	30
261.1794	29
261.1817	40
261.184	32
261.1863	40
261.1885	41
261.1908	42
261.1931	40
261.1954	22
261.1977	22
261.2	15
261.2022	6
261.2045	3
261.2068	3
261.2091	1
261.2114	2
261.2137	1
261.2182	0
261.2205	1
261.2456	0
261.9051	0
262.0946	0
262.1243	0
262.1723	1
262.1746	1
262.1883	0
262.1928	1
263.0526	1
273.2111	1
273.2134	3
273.2181	2
273.2204	2
273.2251	1
273.2297	2
273.2321	1
273.2344	1
273.2391	1
273.4	1
275.2205	1
275.2228	1
275.2251	2
275.2275	4
275.2298	2
275.2321	3
275.2345	3
275.2368	8
275.2392	6
275.2415	5
275.2439	3
275.2462	4
275.2485	3
282.3611	1
282.3753	2
282.3777	1
282.3824	1
282.3871	1
283.1915	1
283.1986	2
283.201	1
283.2034	1
283.2057	1
283.2081	1
283.2152	1
283.2224	1
283.2271	1
283.2295	1
283.2342	0
283.2366	1
283.239	1
283.2414	6
283.2437	9
283.2461	14
283.2485	29
283.2509	39
283.2532	47
283.2556	76
283.258	103
283.2603	133
283.2627	131
283.2651	142
283.2675	150
283.2698	137
283.2722	113
283.2746	70
283.277	54
283.2793	33
283.2817	17
283.2841	15
283.2865	5
283.2888	6
283.2912	3
283.2936	4
283.2983	1
283.3055	1
283.3102	1
283.6737	1
283.7925	1
283.8781	1
284.0017	1
284.2538	1
284.2562	2
284.2586	2
284.261	3
284.2681	1
284.2705	2
284.2729	1
284.2752	3
284.2776	2
284.28	1
284.2824	2
285.261	1
289.0171	1
291.1992	1
295.462	1
297.0065	1
297.0162	2
297.0187	1
297.0211	3
297.0236	7
297.026	6
297.0284	7
297.0309	13
297.0333	15
297.0357	15
297.0381	19
297.0406	19
297.043	11
297.0454	8
297.0479	10
297.0503	7
297.0527	3
297.0551	3
297.0576	4
297.06	2
297.0625	1
297.0649	1
297.0673	1
297.2814	1
298.0336	0
299.2722	1
300.2714	1
300.2837	1
300.79	1
300.905	1
301.1792	2
301.1816	1
301.189	1
301.1914	1
301.1939	4
301.1964	4
301.1988	6
301.2012	9
301.2037	14
301.2061	17
301.2086	21
301.211	35
301.2135	35
301.2159	35
301.2184	48
301.2208	36
301.2233	41
301.2257	33
301.2282	17
301.2306	15
301.2331	13
301.2355	6
301.238	5
301.2404	2
301.2429	2
301.2453	1
301.2478	1
301.2502	2
301.2576	0
301.4437	0
301.6152	0
302.2159	2
302.2183	1
302.2208	1
302.2257	1
303.5886	1
315.0228	2
315.0253	1
315.0278	1
315.0303	2
315.0328	6
315.0353	3
315.0378	5
315.0403	7
315.0428	9
315.0453	11
315.0478	8
315.0503	10
315.0528	14
315.0553	11
315.0578	4
315.0604	6
315.0628	5
315.0654	3
315.0679	2
315.0704	2
317.2003	2
317.2053	1
317.2078	1
317.2103	1
317.2154	2
317.2179	2
317.2229	1
317.2254	1
317.2355	1
318.2062	1
318.2113	2
318.2163	1
318.2188	2
318.2213	1
318.2239	1
318.2264	1
318.2289	2
318.2314	2
318.2339	3
318.2365	2
318.239	1
318.2415	2
318.244	2
318.2465	2
318.2491	1
318.2541	1
318.3799	1
318.9971	1
319.0878	1
319.1306	1
319.1584	1
319.1937	2
319.1962	2
319.1987	6
319.2012	4
319.2037	12
319.2063	17
319.2088	31
319.2113	50
319.2138	73
319.2163	126
319.2189	159
319.2214	182
319.2239	226
319.2264	277
319.2289	289
319.2315	240
319.234	237
319.2365	198
319.239	135
319.2415	84
319.2441	40
319.2466	35
319.2491	23
319.2516	10
319.2542	6
319.2567	4
319.2592	2
319.2617	1
319.2643	1
319.2693	1
319.35	1
319.4105	1
319.5769	1
319.6955	1
319.7359	1
319.8191	1
320.2104	1
320.2129	2
320.2179	1
320.2205	2
320.223	2
320.2255	5
320.228	4
320.2306	4
320.2331	7
320.2356	3
320.2381	6
320.2407	4
320.2432	3
320.2457	3
320.2508	2
320.2558	1
320.9127	1
322.1245	1
417.9561	1
418.7584	1
419.1223	1
419.206	1
419.2089	1
419.2118	2
419.2147	0
419.2176	1
419.2205	1
419.2234	2
419.2262	4
419.2291	7
419.232	11
419.2349	10
419.2378	18
419.2407	26
419.2436	35
419.2465	40
419.2494	48
419.2522	45
419.2551	59
419.258	69
419.2609	69
419.2638	52
419.2667	46
419.2696	47
419.2725	33
419.2754	20
419.2783	19
419.2811	13
419.284	5
419.2869	3
419.2898	3
419.2927	1
419.2956	1
419.2985	0
419.3014	0
419.3043	1
419.5296	0
419.547	0
420.2409	1
420.2524	1
420.2553	1
420.2611	1
420.264	1
420.2698	1
437.2229	1
437.2436	2
437.2465	2
437.2495	1
437.2524	3
437.2554	2
437.2583	4
437.2613	5
437.2642	5
437.2672	5
437.2701	4
437.2731	4
437.276	3
437.279	5
437.2819	3
437.2849	2
437.2878	1
437.2908	2
437.2967	1
437.2996	1
437.3026	1
439.0215	1
443.8298	1
450.166	1
455.0378	1
455.101	1
455.1793	3
455.1883	1
455.1913	3
455.1943	3
455.1973	4
455.2003	9
455.2033	8
455.2064	13
455.2094	11
455.2124	16
455.2154	24
455.2184	18
455.2214	23
455.2244	25
455.2274	21
455.2304	23
455.2334	14
455.2365	10
455.2395	9
455.2425	6
455.2455	5
455.2485	4
455.2515	2
455.2545	3
455.2575	2
455.2635	0
455.2666	0
455.5104	0
456.2214	1
456.2244	0
456.2305	1
456.2335	1
473.2268	1
473.2299	1
481.631	1
490.2496	1
493.9524	1
495.2484	1
495.3771	1
498.0721	1
498.9416	1
500.7934	1
502.0255	1
502.1805	1
502.9713	1
503.2149	1
503.9432	1
506.8265	1
507.729	1
508.8742	1
511.1079	1
511.6056	1
512.0908	1
512.7552	1
512.9693	1
515.513	1
517.5814	1
519.1008	1
519.6089	1
524.1215	1
525.2591	1
525.2656	1
525.2785	2
525.2817	1
525.285	1
525.2947	1
525.6149	1
525.699	1
526.0387	1
530.3646	1
531.9287	1
532.5406	1
538.7157	1
544.8835	1
552.1933	1
554.5499	1
561.2419	1
561.2586	1
573.2521	1
579.4781	1
579.4883	1
581.2457	1
581.2491	1
581.2525	1
581.2559	1
581.2593	1
581.2627	1
581.2661	3
581.2695	1
581.2729	3
581.2763	5
581.2797	10
581.2831	14
581.2865	23
581.2899	31
581.2933	34
581.2967	42
581.3001	57
581.3035	56
581.3069	64
581.3103	65
581.3137	71
581.3171	71
581.3205	70
581.3239	65
581.3273	52
581.3307	43
581.3341	39
581.3375	24
581.3409	21
581.3444	15
581.3477	12
581.3511	10
581.3546	3
581.3579	5
581.3613	2
581.3647	1
581.3682	2
582.076	1
582.2837	1
582.2905	1
582.2939	1
582.3007	2
582.3041	1
582.3109	1
582.3143	1
582.3177	1
582.3211	1
582.3245	1
582.3279	1
582.3314	2
582.3381	2
584.8127	1
594.8186	1
597.4333	1
597.454	1
597.4609	1
598.3407	1
599.2729	3
599.2764	2
599.2798	3
599.2833	4
599.2867	6
599.2902	4
599.2936	7
599.2971	12
599.3006	8
599.304	17
599.3075	16
599.3109	20
599.3144	25
599.3178	28
599.3213	27
599.3248	33
599.3282	32
599.3317	24
599.3351	24
599.3386	29
599.342	20
599.3455	20
599.3489	11
599.3524	8
599.3558	6
599.3593	3
599.3627	4
599.3662	4
599.3696	1
599.3731	1
599.3766	0
599.38	1
599.3869	1
599.3939	1
600.3027	1
600.3234	1
600.3269	1
600.3303	1
600.3338	1
600.3373	2
600.3407	1
600.358	1
602.486	1
616.5871	1
617.1863	1
617.2144	1
617.2249	2
617.2284	2
617.2319	3
617.2354	1
617.2389	4
617.2424	6
617.2459	9
617.2495	8
617.2529	13
617.2565	12
617.2599	15
617.2635	18
617.267	21
617.2704	21
617.274	22
617.2775	26
617.281	26
617.2845	24
617.288	22
617.2915	17
617.295	18
617.2985	11
617.302	13
617.3055	9
617.309	5
617.3126	5
617.316	4
617.3196	1
617.3231	1
617.3265	1
617.3301	1
617.3371	1
617.3967	0
617.6491	0
617.6982	0
618.2489	1
618.291	1
618.298	1
619.9868	1
622.3182	1
635.2498	1
635.2568	2
635.264	1
635.2711	2
635.2747	1
635.2782	2
635.2817	2
635.2853	2
635.2889	3
635.2924	3
635.296	2
635.2996	3
635.3031	4
635.3066	1
635.3102	2
635.3138	3
635.3209	1
635.328	1
635.3315	1
739.4474	1
739.4512	1
739.455	1
739.4589	1
739.4666	3
739.4704	1
739.4742	3
739.4781	2
739.4819	3
739.4857	5
739.4896	3
739.4934	6
739.4973	6
739.5011	5
739.5049	4
739.5088	1
739.5126	2
739.5164	1
739.5203	1
739.5241	2
739.528	3
739.5318	1
739.5356	1
739.5395	1
739.5471	2
740.499	1
741.5053	1
884.2875	1
897.2408	1
898.6191	1
898.6276	1
898.6318	1
898.636	1
898.6403	2
898.6487	2
898.653	1
898.6572	1
898.6614	2
898.6657	3
898.6699	4
898.6741	4
898.6783	5
898.6826	10
898.6868	4
898.691	7
898.6953	3
898.6995	10
898.7037	12
898.7079	7
898.7122	7
898.7164	17
898.7206	13
898.7249	9
898.7291	9
898.7333	10
898.7376	6
898.7418	7
898.746	10
898.7502	3
898.7545	4
898.7587	3
898.7629	6
898.7672	3
898.7714	4
898.7756	3
898.7799	1
898.7841	2
898.7883	2
898.7925	1
898.7968	3
898.801	2
898.8052	1
898.8095	1
898.8179	1
898.8264	1
898.8433	1
898.8475	1
899.4822	1
899.5118	1
899.6219	1
899.6303	1
899.6473	1
899.6769	1
899.6896	1
899.7023	1
899.715	1
899.7234	1
899.7404	1
899.7911	1
899.8207	1
900.0578	1
900.1848	1
900.2441	2
900.3287	1
900.333	2
900.3838	1
900.3923	1
900.3965	1
900.4177	1
900.4261	1
900.4346	1
900.4388	1
900.4431	1
900.4515	1
900.4557	1
900.4642	2
900.4811	2
900.4854	1
900.4896	1
900.5108	1
900.5235	1
900.5277	1
900.5489	1
900.5532	2
900.5616	2
900.5912	1
900.5997	1
900.6039	1
900.6082	1
900.6378	1
900.659	1
900.6844	1
900.6887	1
900.7394	1
900.8792	1
900.8877	1
900.9216	1
900.9385	1
900.9766	1
900.9893	1
900.9935	1
901.0232	1
901.0275	1
901.0402	1
901.0444	1
901.0571	1
901.0782	1
901.0825	1
901.0994	1
901.1588	1
901.1714	1
901.1926	1
901.2138	1
901.2223	1
901.235	1
901.2392	1
901.2435	1
901.2562	1
901.2773	1
901.2858	1
901.2985	1
901.3027	2
901.3324	2
901.3367	1
901.3409	1
901.3451	2
901.3494	1
901.3705	2
901.3748	1
901.379	3
901.3832	1
901.3917	6
901.4002	1
901.4171	3
901.4298	2
901.4807	1
901.4849	2
901.4891	8
901.4934	19
901.4976	33
901.5018	46
901.5061	78
901.5103	151
901.5146	223
901.5188	355
901.523	448
901.5273	565
901.5315	805
901.5358	983
901.54	943
901.5443	736
901.5485	563
901.5527	698
901.5569	873
901.5612	999
901.5654	852
901.5696	997
901.5739	870
901.5781	530
901.5823	266
901.5866	112
901.5908	63
901.595	22
901.5993	12
901.6035	5
901.6078	3
901.612	1
901.6247	1
901.6332	1
901.6501	1
901.9637	2
901.9722	3
902.0696	1
902.0908	2
902.1671	3
902.3281	1
902.3578	1
902.468	1
902.4723	2
902.485	0
902.4892	1
902.4935	4
902.4977	5
902.502	3
902.5062	10
902.5104	12
902.5146	23
902.5189	29
902.5231	34
902.5273	50
902.5316	62
902.5358	61
902.5401	96
902.5443	96
902.5486	114
902.5528	125
902.5571	154
902.5613	159
902.5655	157
902.5698	118
902.574	111
902.5782	99
902.5825	98
902.5867	59
902.5909	45
902.5952	31
902.5994	22
902.6037	28
902.6079	19
902.6121	12
902.6164	10
902.6206	4
902.6249	6
902.6291	5
902.6334	1
902.6376	1
902.6418	2
902.6461	1
902.6715	1
902.7605	1
902.7648	1
902.7902	1
902.7944	2
902.8114	1
902.8241	1
902.8284	2
902.8326	1
902.858	2
902.892	1
902.9386	1
902.9471	1
902.9894	1
903.0107	1
903.0276	1
903.0319	1
903.0361	1
903.0403	1
903.0488	1
903.053	3
903.0573	3
903.0615	1
903.07	2
903.0785	2
903.0828	1
903.0912	1
903.0955	1
903.0997	2
903.1039	1
903.1506	1
903.2227	1
903.2269	1
903.2439	1
903.2481	1
903.2566	1
903.2608	1
903.2863	1
903.2905	1
903.3075	1
903.3117	1
903.3287	1
903.3414	1
903.3753	1
903.4008	1
903.4177	1
903.4729	1
903.4983	1
903.5068	1
903.5195	1
903.5322	1
903.5365	1
903.5407	1
903.545	2
903.5577	1
903.5746	1
903.5874	1
903.6765	1
903.7401	1
903.7528	1
903.7783	1
903.7825	1
903.7995	1
903.8079	1
903.8164	1
903.8249	1
903.8461	1
903.931	1
903.9437	1
903.9479	1
904.0116	1
904.211	1
904.2237	1
904.228	1
904.4104	1
904.4783	1
904.4825	1
904.5801	1
904.5844	1
904.665	1
904.6905	1
904.7202	1
904.7287	1
904.7329	1
904.8178	1
904.8433	1
904.8645	1
905.0173	1
905.0258	1
905.0342	1
905.1828	1
905.2507	1
905.2678	1
905.4885	1
905.5522	1
905.5777	1
905.6371	1
905.688	1
905.7772	1
906.1977	1
906.2444	1
906.3506	1
906.699	1
906.7584	1
906.8604	1
906.9454	1
907.2004	1
907.4724	1
907.7572	1
907.957	1
908.0378	1
908.0421	1
908.395	1
908.4077	1
908.514	1
908.8543	1
908.9861	1
909.1776	1
909.284	1
909.3903	1
909.5946	1
909.7137	1
909.9904	1
910.0883	1
910.1649	1
910.2245	1
910.6503	1
910.6801	1
910.7609	1
910.8035	1
910.8845	1
910.9568	1
911.2081	1
911.6596	1
911.8343	1
912.3585	1
913.4967	1
916.0615	1
917.7321	1
919.4811	1
924.4122	1
926.8333	1
927.0739	1
937.4348	1
939.168	1
