Mass spectrum: PS 40:5; LC-ESI-QTOF; MS2
Name: PS 40:5
Class: PS
Formula: C46H80NO10P
Exact mass: 838.1189999999999
SMILES: CCCCCCCCCCCCCCCCCC(=O)OCC(COP(O)(=O)OCC(N)C(O)=O)OC(=O)CCCCC\C=C/C\C=C/C\C=C/C\C=C/C\C=C/CC
InChI: InChI=1S/C46H80NO10P/c1-3-5-7-9-11-13-15-17-19-20-21-22-24-26-28-30-32-34-36-38-45(49)57-42(40-55-58(52,53)56-41-43(47)46(50)51)39-54-44(48)37-35-33-31-29-27-25-23-18-16-14-12-10-8-6-4-2/h5,7,11,13,17,19,21-22,26,28,42-43H,3-4,6,8-10,12,14-16,18,20,23-25,27,29-41,47H2,1-2H3,(H,50,51)(H,52,53)/b7-5-,13-11-,19-17-,22-21-,28-26-
Instrument: AB Sciex TripleTOF 5600+ system (Q-TOF) equipped with a DuoSpray ion source
Instrument type: LC-ESI-QTOF
Ms type: MS2
Ion mode: NEGATIVE
Collision energy: 45V
Column name: Acquity UPLC Peptide BEH C18 column (50*2.1 mm; 1.7 um; 130A)(Waters Co.,Milford, MA, USA)
Retention time: 8.863055
Precursor type: [M-H]-
Precursor m/z: 836.5433
m/z	relative intensity
78.959	41
96.967	5
134.979	2
134.991	1
152.994	132
154.998	0
171.005	4
231.21	3
281.246	1
282.245	1
282.38	3
283.264	977
283.308	2
284.262	7
284.279	2
285.253	11
285.265	13
327.234	2
328.21	1
328.241	2
329.247	269
417.925	1
417.961	2
419.218	10
419.255	562
420.255	9
420.274	4
437.264	239
438.255	2
438.274	3
439.273	3
465.24	114
480.315	0
483.242	14
483.261	14
500.138	0
501.815	0
506.28	0
523.331	0
524.307	1
524.537	0
552.283	0
570.251	0
747.111	2
747.144	2
748.459	1
748.489	2
748.515	3
749.434	4
749.509	999
749.634	1
750.484	2
750.546	4
762.557	1
833.905	3
836.448	1
836.541	977
837.1	1
837.54	2
