Mass spectrum: PC 30:0; LC-ESI-QTOF; MS2
Name: PC 30:0
Class: PC
Formula: C38H76NO8P
Exact mass: 706.0009999999999
SMILES: CCCCCCCCCCCCCCCC(=O)OC(COC(=O)CCCCCCCCCCCCC)COP([O-])(=O)OCC[N+](C)(C)C
InChI: InChI=1S/C38H76NO8P/c1-6-8-10-12-14-16-18-19-21-23-25-27-29-31-38(41)47-36(35-46-48(42,43)45-33-32-39(3,4)5)34-44-37(40)30-28-26-24-22-20-17-15-13-11-9-7-2/h36H,6-35H2,1-5H3
Instrument: AB Sciex TripleTOF 5600+ system (Q-TOF) equipped with a DuoSpray ion source
Instrument type: LC-ESI-QTOF
Ms type: MS2
Ion mode: NEGATIVE
Collision energy: 45V
Column name: Acquity UPLC Peptide BEH C18 column (50*2.1 mm; 1.7 um; 130A)(Waters Co.,Milford, MA, USA)
Retention time: 9.031368
Precursor type: [M+CH3COOH-H]-
Precursor m/z: 764.5406
m/z	relative intensity
78.959	6
152.994	1
168.032	3
168.045	14
224.068	14
226.489	4
226.515	2
227.2	816
227.24	3
242.079	2
254.428	2
255.23	641
279.224	2
282.249	2
283.246	10
283.266	13
303.214	3
303.234	3
305.22	4
305.239	25
305.251	22
363.193	2
434.247	5
434.263	8
437.266	1
452.24	3
452.266	22
452.282	13
458.286	2
462.285	12
462.308	6
479.295	1
480.25	3
480.299	38
480.317	8
507.414	2
512.594	1
616.433	0
617.464	6
619.412	1
628.529	1
643.478	2
645.431	1
676.497	0
677.481	1
688.312	4
688.54	5
689.515	3
689.545	6
690.493	999
690.595	2
691.504	1
705.418	3
705.456	5
705.491	3
717.494	1
764.492	46
764.525	68
764.586	2
