Mass spectrum: PI(18:1/9-HODE); LC-ESI-QTOF; MS2
Name: PI(18:1/9-HODE)
Class: Oxidized Phospholipid
Formula: C45H81O14P
Exact mass: 877.105
SMILES: CCCCCCCC\C=C/CCCCCCCC(=O)OCC(COP(O)(=O)OC1C(O)C(O)C(O)C(O)C1O)OC(=O)CCCCCCCC(O)\C=C\C=C/CCCCC
InChI: InChI=1S/C45H81O14P/c1-3-5-7-9-11-12-13-14-15-16-17-18-20-24-28-32-38(47)56-34-37(35-57-60(54,55)59-45-43(52)41(50)40(49)42(51)44(45)53)58-39(48)33-29-25-21-23-27-31-36(46)30-26-22-19-10-8-6-4-2/h14-15,19,22,26,30,36-37,40-46,49-53H,3-13,16-18,20-21,23-25,27-29,31-35H2,1-2H3,(H,54,55)/b15-14-,22-19-,30-26+
Instrument: Acquity UPLC Peptide BEH C18 column (50 x 2.1 mm; 1.7 um), Sciex TripleTOF5600
Instrument type: LC-ESI-QTOF
Ms type: MS2
Ion mode: NEGATIVE
Collision energy: 30-50
Precursor m/z: 875.5291178
Precursor type: [M-H]-
m/z	relative intensity
78.95889	12
78.9639	8
152.9935	16
152.9953	12
152.997	16
152.9988	8
171.1007	8
171.1026	24
171.1044	8
171.1063	20
171.11	16
222.9957	16
222.9978	16
222.9999	28
223.002	12
223.0041	16
223.0062	16
240.9934	8
240.9956	8
240.9978	8
241	48
241.0022	32
241.0044	24
241.0066	52
241.0087	108
241.0109	120
241.0131	84
241.0153	68
241.0175	44
241.0197	40
241.0219	12
241.0241	12
241.0307	8
259.0215	8
259.0237	8
259.026	8
259.0283	8
259.0305	12
259.0328	8
277.2062	24
277.2086	24
277.2109	16
277.2133	16
277.2156	20
277.218	44
277.2203	12
277.2227	16
277.225	28
277.2274	12
278.2267	8
280.4127	8
281.2238	8
281.2261	8
281.2285	20
281.2332	20
281.2356	36
281.2379	40
281.2403	80
281.2427	48
281.245	113
281.2474	121
281.2498	72
281.2521	113
281.2545	68
281.2569	44
281.2592	28
281.2616	36
281.264	16
281.2663	12
283.2552	8
283.2647	12
283.2671	8
293.2106	8
294.2165	8
295.2	8
295.2024	8
295.2048	16
295.2097	24
295.2121	40
295.2145	28
295.2169	49
295.2194	57
295.2218	101
295.2242	60
295.2266	84
295.2291	89
295.2315	80
295.2339	84
295.2363	40
295.2387	28
295.2412	32
295.2436	24
295.246	12
297.0258	8
297.0307	16
297.038	12
297.0404	8
297.0428	8
297.0453	8
297.0501	8
297.0526	8
297.055	8
417.2141	8
417.2198	12
417.2227	8
417.2256	16
417.2285	16
417.2342	36
417.2371	40
417.24	44
417.2429	28
417.2458	24
417.2486	32
417.2515	16
417.2544	20
417.2573	8
417.2602	16
417.2631	12
417.2746	8
431.192	8
431.2066	8
431.2095	12
431.2125	8
431.2183	16
431.2242	20
431.2271	28
431.23	16
431.233	16
431.2388	8
435.2506	8
579.2657	12
579.2692	24
579.2726	8
579.2759	12
579.2794	28
579.2828	24
579.2861	24
579.2896	28
579.293	48
579.2963	32
579.2997	24
579.3031	20
579.3065	24
579.3099	12
579.3167	24
579.3201	12
579.3235	8
579.3269	12
593.2454	8
593.2523	20
593.2557	12
593.2592	16
593.2695	8
593.2729	12
593.2764	16
593.2798	8
593.2832	8
593.2866	12
593.3038	12
597.2766	8
597.2801	8
597.2904	8
597.2938	8
597.2973	12
597.3111	8
597.3145	20
597.318	8
597.3214	8
597.3284	12
611.2857	8
611.2962	12
713.5045	8
872.7687	8
872.777	8
872.7937	8
872.8229	8
875.3968	8
875.4344	8
875.4469	8
875.4594	8
875.4678	4
875.472	4
875.4761	4
875.4803	92
875.4845	78
875.4886	119
875.4929	150
875.497	215
875.5012	320
875.5054	318
875.5095	492
875.5137	556
875.5179	696
875.522	780
875.5262	643
875.5304	758
875.5346	847
875.5388	811
875.5429	999
875.5471	887
875.5513	793
875.5554	689
875.5596	578
875.5638	447
875.568	410
875.5721	345
875.5764	214
875.5805	146
875.5847	146
875.5889	138
875.593	57
875.5972	38
875.6014	41
875.6055	26
875.6097	26
875.6139	30
875.6181	9
875.6223	5
875.6264	11
875.6306	8
875.7851	5
876.5076	8
876.516	8
876.5327	16
876.5369	5
876.5411	8
876.5452	8
876.5494	12
876.5536	8
876.562	8
876.5787	8
884.4962	8
