Mass spectrum: SM d43:2; LC-ESI-QTOF; MS2
Name: SM d43:2
Class: SM
Formula: C48H95N2O6P
Exact mass: 827.272
SMILES: CCCCCCCCCCCCC\C=C/CCCCCCCCCC(=O)NC(COP([O-])(=O)OCC[N+](C)(C)C)C(O)\C=C\CCCCCCCCCCCCC
InChI: InChI=1S/C48H95N2O6P/c1-6-8-10-12-14-16-18-20-21-22-23-24-25-26-27-28-30-32-34-36-38-40-42-48(52)49-46(45-56-57(53,54)55-44-43-50(3,4)5)47(51)41-39-37-35-33-31-29-19-17-15-13-11-9-7-2/h25-26,39,41,46-47,51H,6-24,27-38,40,42-45H2,1-5H3,(H-,49,52,53,54)/b26-25-,41-39+
Instrument: AB Sciex TripleTOF 5600+ system (Q-TOF) equipped with a DuoSpray ion source
Instrument type: LC-ESI-QTOF
Ms type: MS2
Ion mode: NEGATIVE
Collision energy: 45V
Column name: Acquity UPLC Peptide BEH C18 column (50*2.1 mm; 1.7 um; 130A)(Waters Co.,Milford, MA, USA)
Retention time: 12.85254
Precursor type: [M+CH3COOH-H]-
Precursor m/z: 885.7028
m/z	relative intensity
78.958	11
141.018	3
168.043	35
255.234	2
256.242	1
281.249	2
283.252	1
303.234	3
304.236	1
329.242	2
379.373	1
419.252	2
447.717	2
449.318	2
475.689	1
541.712	1
544.192	2
601.272	1
646.603	2
647.625	4
663.658	1
740.588	2
797.651	2
804.578	5
809.123	3
811.623	113
811.641	163
811.672	999
811.808	2
812.113	3
812.682	2
825.674	3
826.62	6
826.652	8
885.448	1
885.507	6
885.541	4
885.56	8
885.665	10
885.683	11
885.703	24
885.724	18
885.786	2
