Mass spectrum: PC(18:1/15-HEPE); LC-ESI-QTOF; MS2
Name: PC(18:1/15-HEPE)
Class: Oxidized Phospholipid
Formula: C46H80NO9P
Exact mass: 822.12
SMILES: CCCCCCCC\C=C/CCCCCCCC(=O)OCC(COP([O-])(=O)OCC[N+](C)(C)C)OC(=O)CCC\C=C/C\C=C/C\C=C/CC(O)\C=C\C=C/CC
InChI: InChI=1S/C46H80NO9P/c1-6-8-10-12-13-14-15-16-17-18-19-23-26-29-33-37-45(49)53-41-44(42-55-57(51,52)54-40-39-47(3,4)5)56-46(50)38-34-30-27-24-21-20-22-25-28-32-36-43(48)35-31-11-9-7-2/h9,11,16-17,20,22,24,27-28,31-32,35,43-44,48H,6-8,10,12-15,18-19,21,23,25-26,29-30,33-34,36-42H2,1-5H3/b11-9-,17-16-,22-20-,27-24-,32-28-,35-31+
Instrument: Acquity UPLC Peptide BEH C18 column (50 x 2.1 mm; 1.7 um), Sciex TripleTOF5600
Instrument type: LC-ESI-QTOF
Ms type: MS2
Ion mode: NEGATIVE
Collision energy: 30-50
Precursor m/z: 880.5709227
Precursor type: [M+CH3COOH-H]-
m/z	relative intensity
175.143	44
219.1293	69
219.1335	91
219.1355	69
219.1376	69
219.1397	91
219.1418	136
219.1439	44
224.0651	69
248.1354	44
248.1398	44
255.1927	44
255.2085	113
255.2108	44
255.2153	91
255.2175	44
255.2198	44
281.2368	158
281.2391	136
281.2415	158
281.2439	205
281.2462	249
281.2486	182
281.2509	271
281.2533	227
281.2557	227
281.2581	136
281.2604	91
281.2628	69
281.2699	69
299.1876	44
299.1949	44
299.1974	136
299.212	44
317.1985	69
317.201	158
317.2036	91
317.2061	205
317.2086	158
317.2111	205
317.2136	271
317.2161	271
317.2186	227
317.2212	113
317.2237	113
317.2262	158
317.2362	44
317.2463	44
435.2491	44
506.2904	44
506.3222	69
506.3254	91
506.3286	113
506.3349	44
506.3381	136
506.3412	69
506.3571	44
597.2718	44
700.9608	44
700.9869	44
735.4551	69
735.501	44
773.0164	44
773.0399	44
785.7631	47
806.4644	44
806.4764	44
806.4805	113
806.4845	91
806.4885	138
806.4925	300
806.4965	116
806.5005	93
806.5045	352
806.5085	256
806.5125	518
806.5165	354
806.5205	710
806.5245	452
806.5286	832
806.5325	810
806.5366	999
806.5406	763
806.5446	979
806.5486	814
806.5526	790
806.5566	645
806.5606	670
806.5646	645
806.5686	572
806.5726	383
806.5767	238
806.5806	380
806.5847	96
806.5886	49
806.5927	96
806.5967	116
806.6006	145
806.6047	116
806.6167	44
806.7089	24
806.8452	44
821.4997	44
880.5153	44
880.5279	69
880.5363	44
880.5405	69
880.5447	136
880.5488	91
880.553	158
880.5572	44
880.5614	44
880.5656	113
880.574	91
880.5781	136
880.5823	69
880.5865	158
880.5907	44
880.5991	91
880.6033	91
880.6116	44
880.62	44
880.6284	44
880.6368	44
