Mass spectrum: SM d40:0; LC-ESI-QTOF; MS2
Name: SM d40:0
Class: SM
Formula: C45H93N2O6P
Exact mass: 789.2230000000001
SMILES: CCCCCCCCCCCCCCCCCCCCCC(=O)NC(COP([O-])(=O)OCC[N+](C)(C)C)C(O)CCCCCCCCCCCCCCC
InChI: InChI=1S/C45H93N2O6P/c1-6-8-10-12-14-16-18-20-21-22-23-24-25-27-29-31-33-35-37-39-45(49)46-43(42-53-54(50,51)52-41-40-47(3,4)5)44(48)38-36-34-32-30-28-26-19-17-15-13-11-9-7-2/h43-44,48H,6-42H2,1-5H3,(H-,46,49,50,51)
Instrument: AB Sciex TripleTOF 5600+ system (Q-TOF) equipped with a DuoSpray ion source
Instrument type: LC-ESI-QTOF
Ms type: MS2
Ion mode: NEGATIVE
Collision energy: 45V
Column name: Acquity UPLC Peptide BEH C18 column (50*2.1 mm; 1.7 um; 130A)(Waters Co.,Milford, MA, USA)
Retention time: 12.76448
Precursor type: [M+CH3COOH-H]-
Precursor m/z: 847.6871
m/z	relative intensity
78.959	11
89.023	0
96.973	0
122.984	1
141.016	0
168.042	41
220.141	0
255.23	1
281.243	2
284.269	0
430.985	0
440.322	0
451.314	1
451.346	0
501.531	0
539.435	0
604.926	0
639.585	0
655.541	1
655.656	0
668.49	0
684.555	1
702.554	1
702.573	2
728.568	0
728.609	1
771.145	1
771.193	1
771.221	1
773.574	7
773.643	999
773.894	1
774.647	2
787.66	2
788.566	1
788.588	3
788.621	5
797.629	2
797.65	3
797.68	1
801.658	1
801.688	1
847.596	1
847.635	4
847.658	14
847.681	17
847.705	7
847.747	1
