Mass spectrum: PI(18:0/11,12-EpETE); LC-ESI-QTOF; MS2
Name: PI(18:0/11,12-EpETE)
Class: Oxidized Phospholipid
Formula: C47H81O14P
Exact mass: 901.127
SMILES: CCCCCCCCCCCCCCCCCC(=O)OCC(COP(O)(=O)OC1C(O)C(O)C(O)C(O)C1O)OC(=O)CCC\C=C/C\C=C/CC1OC1C\C=C/C\C=C/CC
InChI: InChI=1S/C47H81O14P/c1-3-5-7-9-11-12-13-14-15-16-17-18-21-25-29-33-40(48)57-35-37(36-58-62(55,56)61-47-45(53)43(51)42(50)44(52)46(47)54)59-41(49)34-30-26-22-19-20-24-28-32-39-38(60-39)31-27-23-10-8-6-4-2/h6,8,19,22-24,27-28,37-39,42-47,50-54H,3-5,7,9-18,20-21,25-26,29-36H2,1-2H3,(H,55,56)/b8-6-,22-19-,27-23-,28-24-
Instrument: Acquity UPLC Peptide BEH C18 column (50 x 2.1 mm; 1.7 um), Sciex TripleTOF5600
Instrument type: LC-ESI-QTOF
Ms type: MS2
Ion mode: NEGATIVE
Collision energy: 30-50
Precursor m/z: 899.5291178
Precursor type: [M-H]-
m/z	relative intensity
78.96422	18
152.9908	18
152.9925	18
152.996	18
153.0048	18
167.1014	18
167.1069	18
167.1105	18
222.9932	18
222.9953	18
222.9995	18
223.0016	18
240.9971	36
240.9993	18
241.0015	28
241.0037	54
241.0059	28
241.0081	54
241.0103	36
241.0124	63
241.0146	45
241.0168	54
241.019	127
241.0212	36
241.0234	28
283.2466	18
283.249	18
283.2514	73
283.2538	54
283.2561	36
283.2585	36
283.2609	82
283.2632	99
283.2656	82
283.268	127
283.2704	36
283.2727	45
283.2751	91
283.2775	28
283.2799	28
283.2823	28
283.287	18
297.0289	18
297.0314	18
297.0484	18
317.2008	28
317.2033	18
317.2083	28
317.2134	28
317.2184	36
317.2209	28
317.2234	18
419.2354	18
419.247	18
419.2528	28
419.2556	73
419.2585	73
419.2614	28
419.2672	28
419.2701	36
419.2845	18
453.2132	18
453.2192	18
581.2836	28
581.287	28
581.2904	36
581.2938	18
581.2972	18
581.3006	45
581.304	36
581.3074	36
581.3108	28
581.3142	54
581.3176	63
581.321	45
581.3278	18
581.3312	36
581.338	18
581.3414	18
599.301	36
599.3114	28
599.3321	45
599.3356	18
599.3391	18
615.2289	18
615.2639	18
826.583	18
867.4762	19
899.4487	36
899.4529	28
899.4571	28
899.4614	75
899.4656	56
899.4698	48
899.4741	69
899.4783	89
899.4825	40
899.4868	212
899.491	257
899.4952	188
899.4995	407
899.5037	345
899.5079	399
899.5121	492
899.5164	605
899.5206	721
899.5248	712
899.5291	970
899.5333	822
899.5375	748
899.5417	999
899.546	752
899.5502	657
899.5544	659
899.5587	605
899.5629	585
899.5671	645
899.5714	308
899.5756	289
899.5798	246
899.584	186
899.5883	123
899.5925	112
899.5967	83
899.601	83
899.6052	52
899.6094	62
899.6137	45
899.6179	29
899.7576	11
899.8126	11
900.473	18
900.4984	18
900.5026	18
900.5069	20
900.5111	45
900.5153	28
900.5196	18
900.5238	28
900.528	18
900.5323	36
900.5365	28
900.5407	37
900.545	18
900.5492	28
900.5535	36
900.5577	18
900.5704	18
