Mass spectrum: PI 34:0; LC-ESI-QTOF; MS2
Name: PI 34:0
Class: PI
Formula: C43H83O13P
Exact mass: 839.0999999999999
SMILES: CCCCCCCCCCCCCCCCCC(=O)OC(COC(=O)CCCCCCCCCCCCCCC)COP(O)(=O)OC1C(O)C(O)C(O)C(O)C1O
InChI: InChI=1S/C43H83O13P/c1-3-5-7-9-11-13-15-17-18-20-22-24-26-28-30-32-37(45)55-35(34-54-57(51,52)56-43-41(49)39(47)38(46)40(48)42(43)50)33-53-36(44)31-29-27-25-23-21-19-16-14-12-10-8-6-4-2/h35,38-43,46-50H,3-34H2,1-2H3,(H,51,52)
Instrument: AB Sciex TripleTOF 5600+ system (Q-TOF) equipped with a DuoSpray ion source
Instrument type: LC-ESI-QTOF
Ms type: MS2
Ion mode: NEGATIVE
Collision energy: 45V
Column name: Acquity UPLC Peptide BEH C18 column (50*2.1 mm; 1.7 um; 130A)(Waters Co.,Milford, MA, USA)
Retention time: 9.02943
Precursor type: [M-H]-
Precursor m/z: 837.5479
m/z	relative intensity
78.961	5
96.967	2
134.989	1
152.997	14
155.004	0
223.003	9
241.012	51
255.234	54
259.021	5
259.037	1
281.239	2
283.262	114
285.272	2
286.266	1
297.032	5
297.043	2
315.047	2
328.239	2
329.245	4
330.245	2
391.223	5
391.248	1
419.255	39
420.233	2
421.253	4
422.264	3
437.259	2
437.274	9
482.922	0
484.236	0
499.954	0
553.244	1
553.277	7
571.252	0
571.296	1
581.277	9
581.305	34
581.349	2
599.298	2
599.32	7
611.955	0
673.472	2
695.456	2
749.489	3
749.522	1
750.489	8
750.517	22
750.551	2
834.887	2
834.942	3
836.549	1
836.638	1
837.452	2
837.551	999
837.621	16
838.559	2
