Mass spectrum: PC(16:0/14,15-EET); LC-ESI-QTOF; MS2
Name: PC(16:0/14,15-EET)
Class: Oxidized Phospholipid
Formula: C44H80NO9P
Exact mass: 798.098
SMILES: CCCCCCCCCCCCCCCC(=O)OCC(COP([O-])(=O)OCC[N+](C)(C)C)OC(=O)CCC\C=C/C\C=C/C\C=C/CC1OC1CCCCC
InChI: InChI=1S/C44H80NO9P/c1-6-8-10-11-12-13-14-15-16-20-23-26-30-34-43(46)50-38-40(39-52-55(48,49)51-37-36-45(3,4)5)53-44(47)35-31-27-24-21-18-17-19-22-25-29-33-42-41(54-42)32-28-9-7-2/h17,19,21,24-25,29,40-42H,6-16,18,20,22-23,26-28,30-39H2,1-5H3/b19-17-,24-21-,29-25-
Instrument: Acquity UPLC Peptide BEH C18 column (50 x 2.1 mm; 1.7 um), Sciex TripleTOF5600
Instrument type: LC-ESI-QTOF
Ms type: MS2
Ion mode: NEGATIVE
Collision energy: 30-50
Precursor m/z: 856.5709227
Precursor type: [M+CH3COOH-H]-
m/z	relative intensity
78.95815	7
78.96066	7
78.97445	7
99.07955	7
113.096	22
113.0991	15
113.1036	7
121.1047	7
127.1072	7
152.9945	7
165.1648	7
168.0349	11
168.0368	15
168.0386	7
168.0404	18
168.0422	15
168.0441	15
168.0459	18
168.0477	22
168.0514	15
168.0551	7
175.1392	7
175.1411	7
175.1429	29
175.1448	40
175.1467	29
175.1485	22
175.1504	29
175.1523	43
175.1541	25
175.156	15
175.1597	7
181.1199	7
189.1267	7
189.1345	7
191.1833	7
193.1157	7
193.1235	7
203.1646	7
203.1666	7
203.1746	7
203.1766	7
203.1787	15
203.1807	11
203.1827	15
203.1847	7
203.1867	7
205.1281	7
207.1296	7
207.1377	11
207.1397	7
207.1479	11
219.1125	7
219.125	18
219.1271	44
219.1292	33
219.1312	91
219.1333	80
219.1354	58
219.1375	62
219.1396	65
219.1417	91
219.1438	47
219.1459	33
219.148	40
219.15	15
219.1521	18
219.1542	33
222.9955	7
222.9976	7
223.0039	7
224.0523	7
224.0565	11
224.0587	7
224.0629	22
224.065	18
224.0671	22
224.0692	7
224.0713	25
224.0734	18
224.0755	18
224.0777	22
224.0798	11
240.9951	7
241.006	15
241.0104	15
241.0126	22
241.0148	15
241.0192	15
241.0213	11
241.0235	7
242.0191	7
242.0805	7
242.0849	7
247.2071	7
253.2152	7
253.2175	7
253.2197	7
253.2354	7
254.4381	18
254.4448	7
254.4538	7
254.7127	7
255.2016	7
255.2084	15
255.2106	19
255.2129	19
255.2151	31
255.2174	61
255.2197	77
255.2219	194
255.2242	191
255.2264	202
255.2287	259
255.2309	333
255.2332	471
255.2354	373
255.2377	353
255.2399	306
255.2422	196
255.2445	126
255.2467	59
255.249	63
255.2512	75
255.2535	35
255.2557	28
255.258	15
255.2602	8
255.2625	4
255.2647	4
255.2805	4
255.8941	4
256.2215	11
256.226	22
256.2305	18
256.235	15
256.2373	7
256.2418	11
256.244	15
256.2644	4
257.2116	7
257.2139	25
257.2162	18
257.2184	25
257.2207	40
257.223	76
257.2252	69
257.2275	80
257.2298	51
257.232	83
257.2343	43
257.2365	18
257.2388	25
257.2411	18
257.2433	7
257.2479	15
257.2501	15
275.2281	11
275.2305	7
275.2328	18
275.2352	18
275.2375	11
275.2398	18
275.2445	7
275.2492	7
277.212	7
281.2461	7
281.2508	11
282.2455	7
283.2112	7
297.0339	7
300.2721	7
300.2745	7
301.0134	7
301.17	7
301.1896	7
301.1945	7
301.197	29
301.1994	22
301.2019	26
301.2043	33
301.2068	48
301.2092	119
301.2117	104
301.2141	115
301.2166	101
301.219	100
301.2215	126
301.2239	89
301.2264	81
301.2288	67
301.2313	37
301.2337	15
301.2362	15
301.2386	18
301.2411	7
301.2435	15
301.246	11
301.2509	7
302.2067	7
302.2116	4
302.2141	7
302.219	7
302.2214	11
302.2263	11
318.2396	8
318.2522	11
318.5518	8
318.7029	7
319.1943	8
319.1993	7
319.2018	23
319.2044	39
319.2069	38
319.2094	118
319.2119	150
319.2144	230
319.217	207
319.2195	286
319.222	317
319.2245	350
319.2271	397
319.2296	357
319.2321	355
319.2346	365
319.2372	279
319.2397	195
319.2422	131
319.2447	80
319.2472	56
319.2498	48
319.2523	8
319.2548	28
319.2573	20
319.2598	4
319.2624	12
319.2649	8
319.8299	4
319.9485	4
319.9737	4
320.2261	7
320.2287	7
391.2088	7
391.2115	7
391.2227	15
391.2255	7
391.2339	15
391.2506	11
392.2365	11
392.242	7
392.2476	7
462.2723	7
462.2814	11
462.2875	11
462.2935	7
462.2966	15
462.3027	15
462.3057	22
462.3087	15
462.3118	11
462.3178	7
478.8054	7
478.8239	7
480.2668	15
480.2761	7
480.2792	7
480.2823	29
480.2854	22
480.2885	48
480.2916	52
480.2946	37
480.2977	86
480.3008	55
480.3039	74
480.307	89
480.3101	138
480.3132	108
480.3163	96
480.3194	77
480.3225	66
480.3256	59
480.3287	37
480.3318	37
480.3348	26
480.3379	15
480.341	11
480.3441	15
480.4091	4
481.3125	7
481.3156	7
526.2689	7
526.2754	11
526.2819	11
526.2883	7
526.2948	11
526.298	7
526.3013	15
526.3077	7
526.311	7
526.3174	7
544.2846	7
544.3044	7
544.3176	7
553.2717	7
553.285	7
554.2678	11
554.2811	7
554.2977	11
554.3011	7
554.311	11
572.3137	7
599.2802	7
711.4367	7
737.4958	7
780.0383	7
780.0502	7
780.0778	7
780.0896	7
780.0975	7
780.129	7
782.3099	8
782.4717	21
782.4756	31
782.4796	43
782.4835	102
782.4874	91
782.4914	110
782.4954	181
782.4993	170
782.5032	351
782.5072	372
782.5111	446
782.5151	504
782.519	546
782.5229	768
782.5269	741
782.5309	783
782.5348	905
782.5388	975
782.5427	852
782.5466	875
782.5506	999
782.5546	856
782.5585	778
782.5624	531
782.5664	453
782.5703	371
782.5743	337
782.5782	205
782.5822	139
782.5861	53
782.5901	68
782.594	44
782.598	23
782.6019	19
782.6058	5
782.6138	24
782.6216	5
782.6572	5
782.7085	4
783.1862	5
783.4824	4
783.4982	7
783.5021	7
783.5061	7
783.51	11
783.514	15
783.5179	15
783.5219	23
783.5258	29
783.5298	11
783.5337	29
783.5377	18
783.5416	18
783.5456	22
783.5495	25
783.5535	15
783.5574	25
783.5613	11
783.5693	22
783.5732	11
783.5771	7
783.5811	11
783.5891	7
783.593	11
783.6206	7
797.4659	7
797.4738	11
797.4778	7
797.4818	11
797.4858	15
797.4977	18
797.5017	15
797.5177	22
797.5217	15
797.5256	11
797.5336	7
809.5485	7
853.9109	7
856.4278	11
856.4443	15
856.4484	7
856.4526	11
856.4567	22
856.4608	11
856.465	37
856.4691	18
856.4774	60
856.4815	56
856.4856	109
856.4897	87
856.4939	69
856.498	106
856.5021	117
856.5063	107
856.5104	125
856.5145	69
856.5187	138
856.5228	122
856.5269	68
856.5311	76
856.5352	103
856.5393	110
856.5435	124
856.5475	108
856.5517	88
856.5558	96
856.5599	85
856.5641	77
856.5682	66
856.5723	91
856.5765	123
856.5806	53
856.5847	72
856.5889	54
856.593	73
856.5971	60
856.6013	76
856.6053	38
856.6095	23
856.6136	32
856.6177	45
856.6219	31
856.626	12
856.6301	12
857.4893	7
857.5306	7
857.5348	7
857.5513	15
857.5554	11
857.5596	7
857.5844	7
857.5927	7
