Mass spectrum: PC(16:1/20-HDoHE); LC-ESI-QTOF; MS2
Name: PC(16:1/20-HDoHE)
Class: Oxidized Phospholipid
Formula: C46H78NO9P
Exact mass: 820.104
SMILES: CCCCCC\C=C/CCCCCCCC(=O)OCC(COP([O-])(=O)OCC[N+](C)(C)C)OC(=O)CC\C=C/C\C=C/C\C=C/C\C=C/C\C=C/C=C/C(O)CC
InChI: InChI=1S/C46H78NO9P/c1-6-8-9-10-11-12-13-18-22-25-28-31-34-37-45(49)53-41-44(42-55-57(51,52)54-40-39-47(3,4)5)56-46(50)38-35-32-29-26-23-20-17-15-14-16-19-21-24-27-30-33-36-43(48)7-2/h12-15,19-21,23,27,29-30,32-33,36,43-44,48H,6-11,16-18,22,24-26,28,31,34-35,37-42H2,1-5H3/b13-12-,15-14-,21-19-,23-20-,30-27-,32-29-,36-33+
Instrument: Acquity UPLC Peptide BEH C18 column (50 x 2.1 mm; 1.7 um), Sciex TripleTOF5600
Instrument type: LC-ESI-QTOF
Ms type: MS2
Ion mode: NEGATIVE
Collision energy: 30-50
Precursor m/z: 878.5552726
Precursor type: [M+CH3COOH-H]-
m/z	relative intensity
161.1364	29
187.1484	29
224.0625	29
224.073	29
241.1875	29
241.1897	29
241.1918	29
241.194	58
241.1962	29
241.1984	44
241.2006	44
241.2028	44
241.205	44
242.0889	29
253.1991	29
253.2014	73
253.2036	131
253.2058	211
253.2081	197
253.2103	211
253.2126	357
253.2148	328
253.2171	357
253.2193	445
253.2216	328
253.2238	160
253.226	197
253.2283	88
253.2305	117
253.2328	44
253.2373	44
253.2418	29
259.1747	29
279.2286	29
279.231	29
281.2103	29
281.215	29
281.2173	29
281.2197	73
281.2221	44
281.2245	102
281.2268	73
281.2292	73
281.2315	44
281.2339	73
281.2458	44
285.1731	58
285.1755	44
285.1827	58
285.1874	73
285.1922	29
285.1946	29
285.197	29
299.2238	29
299.2262	29
299.2287	73
299.2336	73
299.236	73
299.2409	58
299.2433	29
299.2457	29
299.2482	29
299.2506	29
317.2333	29
325.2014	58
325.204	44
325.2065	29
325.209	44
325.2116	73
325.2141	29
325.2167	58
325.2192	29
325.2218	44
325.2243	58
325.2294	44
325.2345	29
343.1989	29
343.2016	29
343.2068	29
343.212	58
343.2146	29
343.2173	197
343.2198	160
343.2225	73
343.2251	146
343.2277	160
343.2303	226
343.2329	146
343.2356	146
343.2382	88
343.2408	117
343.2434	88
343.246	73
343.2486	73
343.2565	44
344.2401	29
460.2874	29
478.2621	29
478.2683	29
478.2714	58
478.2745	44
478.2776	58
478.2868	29
478.293	29
478.2961	88
478.2992	44
478.3022	29
478.3053	102
478.3269	29
733.4479	44
733.4556	44
733.4633	58
733.4824	29
802.0074	29
804.4427	29
804.4467	44
804.4547	58
804.4587	73
804.4628	117
804.4667	58
804.4708	160
804.4747	102
804.4788	241
804.4827	284
804.4868	284
804.4907	416
804.4948	671
804.4988	598
804.5027	715
804.5068	773
804.5107	671
804.5148	904
804.5187	773
804.5228	919
804.5268	831
804.5308	875
804.5348	999
804.5388	627
804.5428	729
804.5468	613
804.5508	729
804.5548	583
804.5588	386
804.5628	241
804.5668	284
804.5708	175
804.5748	211
804.5788	117
804.5828	73
804.5868	73
804.5948	44
804.5988	29
805.4716	29
805.4955	44
805.5236	29
805.5276	29
805.5436	44
805.5596	44
819.4673	29
819.4915	29
819.4996	29
819.5037	29
878.4197	29
878.4323	29
878.4531	29
878.4866	44
878.4991	102
878.5033	58
878.5117	58
878.5159	73
878.52	73
878.5242	29
878.5284	88
878.5326	44
878.5368	102
878.541	44
878.5452	131
878.5493	131
878.5535	160
878.5577	211
878.5619	102
878.566	146
878.5703	117
878.5744	102
878.5786	58
878.5828	73
878.587	131
878.5911	44
878.5953	102
878.5995	88
878.6037	29
878.6079	29
878.6121	73
878.6246	29
879.5784	29
879.5868	29
879.591	29
