Mass spectrum: PE(18:1e/17,18-EpETE); LC-ESI-QTOF; MS2
Name: PE(18:1e/17,18-EpETE)
Class: Oxidized Phospholipid
Formula: C43H76NO8P
Exact mass: 766.056
SMILES: CCCCCCCCCCCCCCCC\C=C/OCC(COP(O)(=O)OCCN)OC(=O)CCC\C=C/C\C=C/C\C=C/C\C=C/CC1OC1CC
InChI: InChI=1S/C43H76NO8P/c1-3-5-6-7-8-9-10-11-12-13-17-20-23-26-29-32-36-48-38-40(39-50-53(46,47)49-37-35-44)51-43(45)34-31-28-25-22-19-16-14-15-18-21-24-27-30-33-42-41(4-2)52-42/h14,16,18,21-22,25,27,30,32,36,40-42H,3-13,15,17,19-20,23-24,26,28-29,31,33-35,37-39,44H2,1-2H3,(H,46,47)/b16-14-,21-18-,25-22-,30-27-,36-32-
Instrument: Acquity UPLC Peptide BEH C18 column (50 x 2.1 mm; 1.7 um), Sciex TripleTOF5600
Instrument type: LC-ESI-QTOF
Ms type: MS2
Ion mode: NEGATIVE
Collision energy: 30-50
Precursor m/z: 764.5235789
Precursor type: [M-H]-
m/z	relative intensity
215.1768	202
215.183	131
239.2352	131
245.1948	131
255.2018	202
255.2041	131
255.2108	202
255.2131	131
255.2176	131
255.2311	131
259.1638	131
259.1707	202
259.1729	131
273.2259	131
299.1828	131
299.1999	131
317.1986	464
317.2011	398
317.2036	398
317.2086	268
317.2112	464
317.2137	131
317.2162	268
317.2187	464
317.2212	268
317.2237	131
317.2262	131
317.2363	131
345.2386	131
345.2491	131
446.2774	131
446.2803	131
446.2953	202
446.2982	131
446.3042	131
446.3072	131
446.3131	131
446.3161	131
464.2982	268
464.3013	131
464.3043	131
464.3104	202
464.3134	268
464.3165	131
464.3195	398
464.3225	202
464.3256	131
464.3286	131
464.3377	202
464.3469	131
764.4568	131
764.4647	268
764.4725	131
764.4803	268
764.4842	202
764.4881	268
764.4919	398
764.4958	535
764.4998	535
764.5037	535
764.5076	333
764.5115	398
764.5154	666
764.5193	601
764.5232	999
764.5271	666
764.531	868
764.5349	868
764.5388	934
764.5427	601
764.5466	398
764.5505	398
764.5544	464
764.5583	131
764.5622	202
764.5661	131
764.5778	202
764.5817	131
