Mass spectrum: PE(18:1/12-HETE); LC-ESI-QTOF; MS2
Name: PE(18:1/12-HETE)
Class: Oxidized Phospholipid
Formula: C43H76NO9P
Exact mass: 782.055
SMILES: CCCCCCCC\C=C/CCCCCCCC(=O)OCC(COP(O)(=O)OCCN)OC(=O)CCC\C=C/C\C=C/C=C/C(O)C\C=C/CCCCC
InChI: InChI=1S/C43H76NO9P/c1-3-5-7-9-11-12-13-14-15-16-17-18-22-26-30-34-42(46)50-38-41(39-52-54(48,49)51-37-36-44)53-43(47)35-31-27-23-20-19-21-25-29-33-40(45)32-28-24-10-8-6-4-2/h14-15,20-21,23-25,28-29,33,40-41,45H,3-13,16-19,22,26-27,30-32,34-39,44H2,1-2H3,(H,48,49)/b15-14-,23-20-,25-21-,28-24-,33-29+
Instrument: Acquity UPLC Peptide BEH C18 column (50 x 2.1 mm; 1.7 um), Sciex TripleTOF5600
Instrument type: LC-ESI-QTOF
Ms type: MS2
Ion mode: NEGATIVE
Collision energy: 30-50
Precursor m/z: 780.5184935
Precursor type: [M-H]-
m/z	relative intensity
78.95496	10
78.95872	10
78.95997	21
78.96248	10
96.96949	16
135.1126	16
135.1175	21
135.1192	10
135.1224	10
140.0058	21
140.0092	16
140.0108	16
140.0125	10
140.0142	10
140.0159	10
163.1035	10
163.1089	26
163.1143	21
163.1161	10
163.1215	10
178.5461	10
179.0932	10
179.097	31
179.0989	36
179.1008	87
179.1027	102
179.1046	56
179.1064	92
179.1083	72
179.1102	61
179.1121	46
179.114	72
179.1159	26
179.1178	16
179.1216	10
179.1234	10
196.028	10
196.032	31
196.034	21
196.0359	36
196.0379	26
196.0399	16
196.0419	31
196.0438	10
196.0458	21
203.1742	16
203.1782	10
203.1822	21
207.1007	16
208.0989	10
208.1009	16
208.103	10
208.105	16
208.107	26
208.1091	46
208.1111	31
208.1131	21
208.1152	21
208.1193	16
208.1274	10
214.0517	10
253.1992	10
253.2059	10
253.2104	10
253.2194	10
253.2217	16
253.2239	10
255.2149	10
255.2194	10
255.2216	31
255.2239	16
255.2262	31
255.2284	31
255.2307	36
255.2329	56
255.2352	36
255.2374	26
255.2397	26
255.2442	10
257.2091	10
257.2114	21
257.2137	10
257.2159	16
257.2182	21
257.2204	41
257.2227	56
257.2249	61
257.2272	61
257.2295	61
257.2318	46
257.234	31
257.2363	56
257.2385	16
257.2408	21
257.2431	21
257.2453	21
258.2216	10
258.2284	10
275.2326	16
275.2397	21
275.242	11
280.3593	21
280.3758	11
281.0566	11
281.2151	11
281.2223	27
281.2246	6
281.227	21
281.2294	33
281.2317	75
281.2341	135
281.2365	184
281.2388	235
281.2412	278
281.2436	304
281.2459	367
281.2483	503
281.2506	399
281.253	409
281.2554	334
281.2578	263
281.2601	170
281.2625	115
281.2649	82
281.2672	49
281.2696	11
281.2719	33
281.2743	27
281.2767	16
281.2862	6
281.4187	6
281.6128	6
281.9302	6
282.2477	16
282.2549	10
284.7113	6
301.1993	26
301.2018	31
301.2042	41
301.2067	36
301.2091	67
301.2116	61
301.214	102
301.2165	61
301.2189	56
301.2214	67
301.2238	87
301.2263	56
301.2287	61
301.2312	26
301.2336	26
306.2476	11
318.2169	11
318.2798	11
319.1615	11
319.1943	21
319.1993	16
319.2018	11
319.2043	27
319.2069	49
319.2094	43
319.2119	136
319.2144	152
319.2169	207
319.2195	305
319.222	370
319.2245	382
319.2271	434
319.2296	450
319.2321	340
319.2346	349
319.2371	268
319.2397	181
319.2422	121
319.2447	87
319.2472	60
319.2497	39
319.2523	28
319.2548	11
319.2573	22
319.2598	6
319.2674	6
319.2699	6
319.2749	6
319.5347	6
319.6936	6
320.2312	10
333.2275	10
343.2307	10
391.209	10
391.223	10
391.2258	10
391.2286	16
391.2314	26
391.2342	21
391.237	16
391.2397	10
409.231	10
409.2424	10
409.2567	10
417.2275	10
437.2003	16
460.2699	10
460.2759	26
460.279	16
460.282	16
460.285	16
460.288	10
460.2941	16
460.3062	16
478.2628	16
478.269	26
478.2721	31
478.2751	26
478.2783	26
478.2813	61
478.2844	67
478.2875	77
478.2906	67
478.2937	41
478.2968	61
478.2998	56
478.3029	61
478.306	56
478.3091	46
478.3122	36
478.3153	36
478.3184	16
478.3214	10
478.3276	16
478.3369	16
498.2529	10
498.2592	10
498.2623	16
498.2718	16
516.261	10
516.2642	10
516.2739	10
516.2899	10
587.3694	10
669.4412	10
693.4218	10
693.4293	21
693.4404	26
693.4478	16
693.4515	26
693.4553	10
693.459	16
693.4627	16
693.4702	10
693.4739	16
693.4775	31
693.4887	16
706.5096	10
762.525	10
778.0598	10
778.1069	10
780.419	10
780.4387	10
780.4427	10
780.4545	6
780.4624	52
780.4663	85
780.4703	76
780.4742	116
780.4781	176
780.4821	239
780.486	225
780.49	360
780.4939	454
780.4979	489
780.5018	487
780.5057	752
780.5097	674
780.5136	809
780.5176	882
780.5215	867
780.5255	902
780.5294	999
780.5333	845
780.5373	766
780.5412	696
780.5452	688
780.5491	704
780.553	444
780.557	441
780.5609	298
780.5649	278
780.5688	196
780.5728	108
780.5767	81
780.5806	75
780.5846	25
780.5885	45
780.5925	31
780.5964	24
780.6003	13
780.6122	10
780.6279	12
780.7659	7
781.46	16
781.4639	10
781.4797	21
781.4836	10
781.4876	10
781.4915	10
781.4994	32
781.5034	10
781.5073	16
781.5112	21
781.5152	36
781.5192	36
781.5231	16
781.5309	16
781.5389	26
781.5428	16
781.5468	21
781.5507	10
781.5546	10
781.5586	10
781.5625	10
781.9294	10
786.9799	10
