Mass spectrum: PE(16:0/14,15-EET); LC-ESI-QTOF; MS2
Name: PE(16:0/14,15-EET)
Class: Oxidized Phospholipid
Formula: C41H74NO9P
Exact mass: 756.017
SMILES: CCCCCCCCCCCCCCCC(=O)OCC(COP(O)(=O)OCCN)OC(=O)CCC\C=C/C\C=C/C\C=C/CC1OC1CCCCC
InChI: InChI=1S/C41H74NO9P/c1-3-5-7-8-9-10-11-12-13-17-20-23-27-31-40(43)47-35-37(36-49-52(45,46)48-34-33-42)50-41(44)32-28-24-21-18-15-14-16-19-22-26-30-39-38(51-39)29-25-6-4-2/h14,16,18,21-22,26,37-39H,3-13,15,17,19-20,23-25,27-36,42H2,1-2H3,(H,45,46)/b16-14-,21-18-,26-22-
Instrument: Acquity UPLC Peptide BEH C18 column (50 x 2.1 mm; 1.7 um), Sciex TripleTOF5600
Instrument type: LC-ESI-QTOF
Ms type: MS2
Ion mode: NEGATIVE
Collision energy: 30-50
Precursor m/z: 754.5028435
Precursor type: [M-H]-
m/z	relative intensity
78.95767	32
121.098	32
121.1027	32
121.1058	50
140.0093	67
175.1443	50
175.148	50
175.1499	67
175.1536	67
175.1574	32
193.1211	32
196.032	32
196.034	67
196.0399	32
196.0419	83
196.0438	67
203.1782	32
203.1802	50
203.1822	50
203.1842	32
207.1413	32
219.1266	32
219.1308	50
219.1329	50
219.1349	99
219.137	115
219.1391	149
219.1412	50
219.1433	67
219.1454	67
219.1475	83
219.1517	50
225.1832	34
245.1986	34
253.2148	34
254.2126	34
254.4489	34
254.5344	34
255.2125	83
255.2147	50
255.217	205
255.2192	240
255.2215	408
255.2237	273
255.226	793
255.2282	601
255.2305	708
255.2328	999
255.235	759
255.2373	947
255.2395	430
255.2418	447
255.244	294
255.2463	172
255.2485	104
255.2508	86
255.253	70
255.2576	34
255.2643	18
255.5123	18
257.2112	50
257.218	50
257.2203	83
257.2225	149
257.2248	133
257.2271	115
257.2293	99
257.2316	50
257.2339	149
257.2361	83
257.2384	67
257.2406	32
257.2451	32
275.2254	32
275.2277	50
275.2347	50
275.2371	32
275.2418	50
275.2605	32
301.1942	67
301.199	32
301.2015	67
301.2039	83
301.2064	166
301.2088	133
301.2113	149
301.2137	198
301.2162	166
301.2186	249
301.2211	216
301.2235	32
301.226	115
301.2284	115
301.2309	83
301.2382	32
301.2456	50
317.2106	34
318.2216	34
319.1964	50
319.2015	67
319.204	101
319.2065	167
319.209	102
319.2116	153
319.2141	221
319.2166	338
319.2191	372
319.2216	408
319.2242	478
319.2267	544
319.2292	473
319.2318	531
319.2343	460
319.2368	307
319.2393	273
319.2418	120
319.2444	120
319.2469	135
319.2494	34
319.2519	67
319.2544	34
320.2233	32
389.224	32
391.2336	32
434.2544	32
434.2661	32
434.272	83
452.2523	32
452.2553	99
452.2583	50
452.2613	50
452.2643	99
452.2673	32
452.2703	133
452.2733	99
452.2763	83
452.2793	115
452.2823	133
452.2853	32
452.2883	133
452.2913	83
452.2943	99
452.2973	67
452.3003	50
452.3063	32
498.2551	32
516.2473	32
516.2729	32
516.2921	32
518.2336	50
752.1674	50
754.4174	32
754.4251	34
754.429	32
754.4368	50
754.4406	101
754.4445	153
754.4484	136
754.4523	120
754.4561	156
754.46	255
754.4639	138
754.4678	314
754.4716	224
754.4755	312
754.4794	434
754.4833	682
754.4871	546
754.491	757
754.4949	723
754.4988	708
754.5026	513
754.5065	850
754.5104	776
754.5143	711
754.5181	798
754.522	871
754.5259	621
754.5298	513
754.5336	406
754.5375	247
754.5414	388
754.5453	213
754.5491	159
754.553	89
754.5569	54
754.5608	88
754.5685	70
754.5724	73
754.5763	50
755.3982	18
755.4758	32
755.4835	32
755.4913	32
755.53	50
