Mass spectrum: PC(18:0/15-HEPE); LC-ESI-QTOF; MS2
Name: PC(18:0/15-HEPE)
Class: Oxidized Phospholipid
Formula: C46H82NO9P
Exact mass: 824.136
SMILES: CCCCCCCCCCCCCCCCCC(=O)OCC(COP([O-])(=O)OCC[N+](C)(C)C)OC(=O)CCC\C=C/C\C=C/C\C=C/CC(O)\C=C\C=C/CC
InChI: InChI=1S/C46H82NO9P/c1-6-8-10-12-13-14-15-16-17-18-19-23-26-29-33-37-45(49)53-41-44(42-55-57(51,52)54-40-39-47(3,4)5)56-46(50)38-34-30-27-24-21-20-22-25-28-32-36-43(48)35-31-11-9-7-2/h9,11,20,22,24,27-28,31-32,35,43-44,48H,6-8,10,12-19,21,23,25-26,29-30,33-34,36-42H2,1-5H3/b11-9-,22-20-,27-24-,32-28-,35-31+
Instrument: Acquity UPLC Peptide BEH C18 column (50 x 2.1 mm; 1.7 um), Sciex TripleTOF5600
Instrument type: LC-ESI-QTOF
Ms type: MS2
Ion mode: NEGATIVE
Collision energy: 30-50
Precursor m/z: 882.5865727
Precursor type: [M+CH3COOH-H]-
m/z	relative intensity
78.95549	42
168.0383	42
175.1464	42
219.1226	65
219.133	86
219.1351	65
219.1372	86
219.1393	42
219.1414	65
219.1456	42
219.1602	42
224.0689	42
248.1394	42
255.2036	86
255.2058	42
255.2081	42
255.2126	65
255.2148	128
255.2216	42
283.2464	65
283.2511	86
283.2535	149
283.2559	236
283.2583	236
283.2607	149
283.263	193
283.2654	86
283.2678	215
283.2701	193
283.2725	149
283.2749	65
283.2773	65
283.2796	86
283.282	42
283.2844	65
299.192	42
299.1944	65
299.1969	86
299.1993	128
299.2018	42
299.2091	42
299.214	42
303.23	42
317.1955	172
317.198	86
317.2005	128
317.203	172
317.2055	193
317.208	215
317.2106	193
317.2131	172
317.2156	322
317.2181	193
317.2206	149
317.2231	128
317.2256	42
317.2281	86
317.2307	42
317.2357	65
317.2407	42
508.3173	42
508.3204	65
508.3268	42
508.33	42
508.3363	107
508.3395	42
508.3459	172
508.3554	65
508.3618	42
702.0248	42
702.9336	42
702.9635	42
702.9673	42
702.9747	42
737.4453	42
737.4567	42
737.4797	42
737.5334	42
774.9938	42
775.0016	42
775.0173	65
775.0409	42
775.0488	65
775.0645	42
775.0723	42
805.9146	44
807.0966	44
808.4761	65
808.4962	109
808.5002	219
808.5042	265
808.5082	246
808.5122	330
808.5162	400
808.5203	734
808.5242	519
808.5283	494
808.5323	562
808.5363	517
808.5403	883
808.5443	517
808.5483	858
808.5523	745
808.5563	879
808.5604	974
808.5644	999
808.5684	568
808.5724	772
808.5764	747
808.5804	545
808.5844	631
808.5884	385
808.5925	339
808.5965	202
808.6005	202
808.6045	181
808.6085	114
808.6125	67
808.6205	23
808.6246	72
808.6285	86
808.6326	44
808.6406	42
809.5276	65
809.5356	65
809.5557	42
809.5597	42
809.5677	42
822.5706	42
822.5949	65
882.4789	42
882.4957	42
882.4999	65
882.5041	65
882.525	42
882.5418	65
882.546	65
882.5502	107
882.5544	86
882.567	42
882.5712	65
882.5754	42
882.5795	128
882.5837	86
882.588	107
882.5921	42
882.5963	193
882.6005	107
882.6047	86
882.6089	86
882.6131	86
