Mass spectrum: PC(18:0/18-HETE); LC-ESI-QTOF; MS2
Name: PC(18:0/18-HETE)
Class: Oxidized Phospholipid
Formula: C46H84NO9P
Exact mass: 826.152
SMILES: CCCCCCCCCCCCCCCCCC(=O)OCC(COP([O-])(=O)OCC[N+](C)(C)C)OC(=O)CCC\C=C/C\C=C/C\C=C/C\C=C/CCC(O)CC
InChI: InChI=1S/C46H84NO9P/c1-6-8-9-10-11-12-13-14-15-19-22-25-28-31-34-37-45(49)53-41-44(42-55-57(51,52)54-40-39-47(3,4)5)56-46(50)38-35-32-29-26-23-20-17-16-18-21-24-27-30-33-36-43(48)7-2/h17-18,20-21,26-27,29-30,43-44,48H,6-16,19,22-25,28,31-42H2,1-5H3/b20-17-,21-18-,29-26-,30-27-
Instrument: Acquity UPLC Peptide BEH C18 column (50 x 2.1 mm; 1.7 um), Sciex TripleTOF5600
Instrument type: LC-ESI-QTOF
Ms type: MS2
Ion mode: NEGATIVE
Collision energy: 30-50
Precursor m/z: 884.6022228
Precursor type: [M+CH3COOH-H]-
m/z	relative intensity
168.0425	44
168.0461	44
224.0696	44
261.1714	44
261.1737	44
261.1829	44
261.1874	89
261.1897	44
261.192	44
261.1988	44
275.2333	44
283.2449	44
283.2497	67
283.2544	222
283.2568	67
283.2592	311
283.2615	200
283.2639	178
283.2663	244
283.2686	133
283.271	155
283.2734	67
283.2758	155
283.2781	155
283.2805	111
283.2829	67
301.2049	44
301.2098	44
301.2196	89
301.222	67
301.2343	44
319.2075	44
319.21	89
319.2126	200
319.2151	111
319.2176	355
319.2201	289
319.2226	333
319.2252	488
319.2277	333
319.2302	289
319.2327	422
319.2352	400
319.2378	355
319.2403	200
319.2428	89
319.2453	111
319.2478	67
319.2504	44
319.2529	44
319.2554	44
508.3253	44
508.3317	44
508.338	44
508.3412	44
508.3444	44
508.3476	44
508.3539	67
508.3603	44
508.3635	67
720.4994	46
802.4642	46
810.4861	67
810.5102	67
810.5142	89
810.5182	157
810.5222	67
810.5262	200
810.5303	161
810.5343	298
810.5383	279
810.5423	303
810.5463	644
810.5504	559
810.5544	649
810.5584	829
810.5624	555
810.5664	581
810.5704	762
810.5745	999
810.5785	747
810.5825	625
810.5865	579
810.5905	437
810.5945	668
810.5986	531
810.6026	507
810.6066	370
810.6106	137
810.6146	255
810.6187	115
810.6227	161
810.6267	161
810.6307	146
810.6347	94
810.6387	113
810.6428	89
810.6628	44
811.563	44
825.5505	44
825.5586	44
884.4825	44
884.5203	67
884.5286	67
884.5328	44
884.537	44
884.5412	44
884.5454	111
884.5496	44
884.5538	89
884.558	44
884.5622	111
884.5664	67
884.5706	111
884.5748	89
884.5832	67
884.5874	89
884.5916	133
884.5958	67
884.6	67
884.6042	89
884.6084	44
884.6125	44
884.6168	111
884.621	67
884.6252	133
884.6293	89
884.6378	133
884.642	44
884.6545	44
