Mass spectrum: Cer[NS] d41:2; LC-ESI-QTOF; MS2
Name: Cer[NS] d41:2
Class: Cer_NS
Formula: C41H79NO3
Exact mass: 634.0869999999999
SMILES: CCCCCCCCCCCCCCCCCCCCCCC(=O)NC(CO)C(O)\C=C\CC\C=C\CCCCCCCCC
InChI: InChI=1S/C41H79NO3/c1-3-5-7-9-11-13-15-17-18-19-20-21-22-23-25-27-29-31-33-35-37-41(45)42-39(38-43)40(44)36-34-32-30-28-26-24-16-14-12-10-8-6-4-2/h26,28,34,36,39-40,43-44H,3-25,27,29-33,35,37-38H2,1-2H3,(H,42,45)/b28-26+,36-34+
Instrument: AB Sciex TripleTOF 5600+ system (Q-TOF) equipped with a DuoSpray ion source
Instrument type: LC-ESI-QTOF
Ms type: MS2
Ion mode: NEGATIVE
Collision energy: 45V
Column name: Acquity UPLC Peptide BEH C18 column (50*2.1 mm; 1.7 um; 130A)(Waters Co.,Milford, MA, USA)
Retention time: 12.98283
Precursor type: [M+CH3COOH-H]-
Precursor m/z: 692.6162
m/z	relative intensity
141.014	2
201.025	4
235.175	3
235.206	76
237.224	2
248.243	3
261.221	66
264.228	11
266.239	6
266.253	8
279.232	3
283.022	3
296.256	5
333.316	3
334.272	2
335.308	18
335.33	77
351.349	4
351.366	5
352.354	100
353.338	46
366.369	4
376.364	4
378.371	345
392.345	3
392.384	4
393.359	1
394.363	51
394.388	3
396.378	3
447.034	1
584.563	43
584.59	10
584.604	6
596.565	1
600.556	33
600.577	37
600.602	4
602.544	12
602.578	97
602.613	12
614.586	5
628.52	1
630.58	4
630.632	3
632.524	4
632.591	999
632.655	4
633.599	2
692.432	0
692.625	2
