Mass spectrum: Cer[NS] d44:1; LC-ESI-QTOF; MS2
Name: Cer[NS] d44:1
Class: Cer_NS
Formula: C44H87NO3
Exact mass: 678.1839999999999
SMILES: CCCCCCCCCCCCCCCCCCCCCCCC(=O)NC(CO)C(O)\C=C\CCCCCCCCCCCCCCC
InChI: InChI=1S/C44H87NO3/c1-3-5-7-9-11-13-15-17-19-20-21-22-23-24-26-28-30-32-34-36-38-40-44(48)45-42(41-46)43(47)39-37-35-33-31-29-27-25-18-16-14-12-10-8-6-4-2/h37,39,42-43,46-47H,3-36,38,40-41H2,1-2H3,(H,45,48)/b39-37+
Instrument: AB Sciex TripleTOF 5600+ system (Q-TOF) equipped with a DuoSpray ion source
Instrument type: LC-ESI-QTOF
Ms type: MS2
Ion mode: NEGATIVE
Collision energy: 45V
Column name: Acquity UPLC Peptide BEH C18 column (50*2.1 mm; 1.7 um; 130A)(Waters Co.,Milford, MA, USA)
Retention time: 13.53073
Precursor type: [M+CH3COOH-H]-
Precursor m/z: 736.6776
m/z	relative intensity
235.207	1
237.208	2
237.225	13
255.234	4
263.233	14
263.245	8
265.241	19
265.257	33
268.265	4
278.284	2
279.235	12
281.237	3
281.25	4
291.265	26
293.3	2
294.276	9
296.283	4
296.306	3
305.247	2
326.305	2
349.345	61
364.366	3
365.376	5
366.369	50
367.353	17
377.349	4
377.375	21
377.39	8
380.371	2
392.388	229
393.406	3
394.386	10
394.406	13
395.362	3
395.387	13
406.401	3
408.36	5
408.382	25
408.407	3
415.221	4
420.418	154
436.385	2
436.414	13
628.597	2
628.607	4
628.641	36
640.631	1
644.609	19
644.635	39
644.671	3
646.63	87
646.667	20
646.708	3
658.627	3
658.674	1
674.513	3
676.657	999
677.646	2
736.642	1
736.694	1
736.981	2
