Mass spectrum: PC(16:0/11,12-EpETE); LC-ESI-QTOF; MS2
Name: PC(16:0/11,12-EpETE)
Class: Oxidized Phospholipid
Formula: C44H78NO9P
Exact mass: 796.082
SMILES: CCCCCCCCCCCCCCCC(=O)OCC(COP([O-])(=O)OCC[N+](C)(C)C)OC(=O)CCC\C=C/C\C=C/CC1OC1C\C=C/C\C=C/CC
InChI: InChI=1S/C44H78NO9P/c1-6-8-10-12-14-15-16-17-18-19-22-26-30-34-43(46)50-38-40(39-52-55(48,49)51-37-36-45(3,4)5)53-44(47)35-31-27-23-20-21-25-29-33-42-41(54-42)32-28-24-13-11-9-7-2/h9,11,20,23-25,28-29,40-42H,6-8,10,12-19,21-22,26-27,30-39H2,1-5H3/b11-9-,23-20-,28-24-,29-25-
Instrument: Acquity UPLC Peptide BEH C18 column (50 x 2.1 mm; 1.7 um), Sciex TripleTOF5600
Instrument type: LC-ESI-QTOF
Ms type: MS2
Ion mode: NEGATIVE
Collision energy: 30-50
Precursor m/z: 854.5552726
Precursor type: [M+CH3COOH-H]-
m/z	relative intensity
78.95781	12
78.96408	12
107.0842	12
109.0998	12
121.0998	19
135.1146	12
135.1228	12
149.0909	12
149.0961	19
149.0995	25
149.1064	12
150.1039	12
150.1057	12
163.1111	12
163.1129	19
163.1201	12
163.1237	12
167.0959	25
167.0978	43
167.0996	81
167.1014	50
167.1032	74
167.1051	105
167.1069	99
167.1087	99
167.1105	81
167.1124	31
167.1142	56
167.116	19
168.0347	12
168.0366	25
168.0384	12
168.0402	12
168.0421	12
168.0457	25
168.0494	12
179.0974	12
179.0992	12
179.1011	31
179.103	25
179.1049	25
179.1068	50
179.1087	50
179.1106	50
179.1125	25
179.1143	12
189.0858	12
195.097	19
195.101	19
195.103	12
195.1049	19
195.1069	25
195.1089	12
195.1109	12
201.1703	12
207.099	19
207.1031	25
207.1051	19
208.0972	19
208.1053	12
208.1074	19
208.1094	25
208.1115	19
208.1135	12
224.0586	31
224.0607	12
224.0628	19
224.0649	12
224.067	19
224.0692	12
224.0713	37
224.0734	19
224.0776	12
241.0192	12
253.2107	13
253.2175	12
255.2017	32
255.2039	63
255.2062	44
255.2084	32
255.2107	71
255.2129	129
255.2152	90
255.2174	91
255.2197	116
255.222	169
255.2242	222
255.2265	242
255.2287	319
255.231	314
255.2332	453
255.2355	274
255.2377	354
255.24	268
255.2422	190
255.2445	79
255.2467	85
255.249	91
255.2513	33
255.2535	20
255.2558	26
255.258	7
255.2648	7
255.3302	7
255.6256	7
256.9153	7
258.324	7
261.187	12
273.2025	12
273.2118	19
273.2142	12
273.2165	19
273.2212	19
273.2235	19
281.1871	12
281.2367	12
299.1877	31
299.1901	19
299.1925	43
299.195	12
299.1974	12
299.1999	37
299.2023	50
299.2047	43
299.2072	37
299.2121	12
299.2145	25
299.2169	12
305.2462	13
305.2487	13
316.3072	13
317.1107	13
317.1835	38
317.186	13
317.1886	25
317.1911	26
317.1936	38
317.1961	116
317.1986	116
317.2011	123
317.2036	219
317.2061	239
317.2087	240
317.2112	279
317.2137	317
317.2162	291
317.2187	213
317.2213	181
317.2238	155
317.2263	116
317.2288	45
317.2313	32
317.2338	32
317.2363	45
317.2388	26
317.2413	7
317.2438	7
318.2147	7
320.1935	7
389.2192	7
391.2204	12
462.2791	12
462.2882	19
462.2912	19
462.2943	37
462.3004	12
462.3034	19
462.3094	12
468.2626	12
472.9089	12
480.2769	12
480.2831	25
480.2862	19
480.2892	62
480.2923	87
480.2954	31
480.2985	68
480.3016	68
480.3047	93
480.3078	124
480.3109	74
480.314	93
480.3171	74
480.3202	81
480.3232	56
480.3264	43
480.3294	50
480.3325	50
480.3356	37
480.3387	19
480.3418	12
480.3449	12
481.2916	12
482.2889	12
524.2747	12
524.2778	12
524.2843	19
524.294	12
542.2927	12
769.5305	12
778.0673	19
778.0712	12
780.4423	12
780.4462	12
780.4502	14
780.4581	26
780.462	7
780.4659	48
780.4699	98
780.4738	79
780.4778	134
780.4818	127
780.4857	335
780.4896	212
780.4935	436
780.4975	470
780.5014	704
780.5054	678
780.5093	802
780.5132	877
780.5172	912
780.5211	853
780.5251	950
780.529	960
780.533	999
780.5369	982
780.5408	805
780.5448	807
780.5487	624
780.5527	514
780.5566	386
780.5605	479
780.5645	224
780.5684	229
780.5724	177
780.5763	137
780.5803	76
780.5842	38
780.5881	31
780.5921	16
780.6039	27
780.6078	13
781.3768	12
781.4911	12
781.4951	12
781.499	8
781.507	12
781.5109	12
781.5188	12
781.5227	12
781.5306	25
781.5345	12
781.5424	12
781.5543	37
787.506	12
795.457	12
795.4689	12
795.4769	12
795.4808	25
795.4849	19
795.4888	12
795.4968	25
795.5007	19
795.5048	19
807.5485	12
854.3378	12
854.4822	12
854.4863	19
854.4987	37
854.507	31
854.5111	31
854.5193	12
854.5234	12
854.5276	31
854.5317	37
854.5358	74
854.54	50
854.5441	56
854.5482	81
854.5523	56
854.5565	56
854.5605	68
854.5647	74
854.5688	81
854.5729	56
854.5771	105
854.5812	56
854.5853	56
854.5895	43
854.5936	43
854.6018	25
854.61	31
854.6142	43
854.6266	25
855.4847	43
855.493	19
855.4971	19
855.5054	12
855.5095	37
855.5136	12
855.5178	12
855.5219	12
855.526	25
855.5302	12
855.5384	12
855.5425	19
855.5508	19
