Mass spectrum: PG(18:1/13-HODE); LC-ESI-QTOF; MS2
Name: PG(18:1/13-HODE)
Class: Oxidized Phospholipid
Formula: C42H77O11P
Exact mass: 789.043
SMILES: CCCCCCCC\C=C/CCCCCCCC(=O)OCC(COP(O)(=O)OCC(O)CO)OC(=O)CCCCCCC\C=C/C=C/C(O)CCCCC
InChI: InChI=1S/C42H77O11P/c1-3-5-7-8-9-10-11-12-13-14-15-18-21-24-28-32-41(46)50-36-40(37-52-54(48,49)51-35-39(45)34-43)53-42(47)33-29-25-22-19-16-17-20-23-27-31-38(44)30-26-6-4-2/h12-13,20,23,27,31,38-40,43-45H,3-11,14-19,21-22,24-26,28-30,32-37H2,1-2H3,(H,48,49)/b13-12-,23-20-,31-27+
Instrument: Acquity UPLC Peptide BEH C18 column (50 x 2.1 mm; 1.7 um), Sciex TripleTOF5600
Instrument type: LC-ESI-QTOF
Ms type: MS2
Ion mode: NEGATIVE
Collision energy: 30-50
Precursor m/z: 787.5130738
Precursor type: [M-H]-
m/z	relative intensity
152.992	28
195.1286	19
195.1306	47
195.1345	19
195.1365	58
195.1384	37
195.1404	58
195.1424	67
195.1444	28
195.1483	28
195.1503	28
195.1562	19
277.2015	28
277.2062	67
277.2109	47
277.2132	86
277.2156	67
277.2179	114
277.2203	58
277.2226	105
277.225	28
277.2273	58
277.2297	19
277.2414	19
277.3824	19
280.3631	19
280.3773	19
280.3796	19
280.9044	19
280.9469	19
281.2213	39
281.2237	49
281.2261	37
281.2285	88
281.2308	118
281.2332	185
281.2355	355
281.2379	590
281.2403	573
281.2426	781
281.245	999
281.2474	902
281.2497	960
281.2521	978
281.2545	833
281.2568	543
281.2592	286
281.2616	239
281.2639	228
281.2663	97
281.2687	69
281.271	30
281.2734	30
281.2758	39
281.2829	19
282.2539	19
283.2504	28
283.2576	19
283.2599	28
283.2647	28
283.2671	19
283.2718	37
283.8896	19
285.2821	19
290.8836	19
294.3399	19
295.1999	30
295.2023	58
295.2072	77
295.2096	69
295.212	148
295.2144	224
295.2169	304
295.2193	463
295.2217	667
295.2241	814
295.2266	833
295.229	823
295.2314	725
295.2338	696
295.2362	413
295.2387	332
295.2411	196
295.2435	217
295.2459	129
295.2484	78
295.2508	49
295.2532	49
295.2556	28
296.2287	19
365.2673	19
399.2317	28
399.2373	28
431.2237	19
491.2713	19
491.2869	19
505.2265	19
505.2455	19
505.2487	19
505.2582	28
505.2614	19
523.2689	28
523.2722	19
523.2786	19
523.2819	19
541.1913	19
623.4922	19
623.5028	19
637.4759	19
787.017	19
787.4406	28
787.4446	28
787.4485	19
787.4525	47
787.4564	144
787.4604	106
787.4644	97
787.4683	97
787.4723	164
787.4763	233
787.4802	198
787.4841	379
787.4881	381
787.4921	631
787.496	614
787.5	594
787.504	702
787.5079	773
787.5118	702
787.5158	926
787.5198	803
787.5237	704
787.5277	781
787.5317	665
787.5356	663
787.5396	443
787.5435	573
787.5475	321
787.5515	383
787.5554	222
787.5594	133
787.5634	120
787.5673	69
787.5713	69
787.5752	47
787.5792	22
787.5911	28
788.51	19
788.5179	28
788.5259	19
788.5338	19
788.5457	19
