Mass spectrum: PG(18:1/8,9-EpETE); LC-ESI-QTOF; MS2
Name: PG(18:1/8,9-EpETE)
Class: Oxidized Phospholipid
Formula: C44H75O11P
Exact mass: 811.049
SMILES: CCCCCCCC\C=C/CCCCCCCC(=O)OCC(COP(O)(=O)OCC(O)CO)OC(=O)CCC\C=C/CC1OC1C\C=C/C\C=C/C\C=C/CC
InChI: InChI=1S/C44H75O11P/c1-3-5-7-9-11-13-14-15-16-17-18-20-22-24-29-33-43(47)51-37-40(38-53-56(49,50)52-36-39(46)35-45)54-44(48)34-30-26-25-28-32-42-41(55-42)31-27-23-21-19-12-10-8-6-4-2/h6,8,12,15-16,19,23,25,27-28,39-42,45-46H,3-5,7,9-11,13-14,17-18,20-22,24,26,29-38H2,1-2H3,(H,49,50)/b8-6-,16-15-,19-12-,27-23-,28-25-
Instrument: Acquity UPLC Peptide BEH C18 column (50 x 2.1 mm; 1.7 um), Sciex TripleTOF5600
Instrument type: LC-ESI-QTOF
Ms type: MS2
Ion mode: NEGATIVE
Collision energy: 30-50
Precursor m/z: 809.4974237
Precursor type: [M-H]-
m/z	relative intensity
78.96124	44
155.0742	67
177.1291	44
190.1345	44
255.2056	44
255.2078	89
255.2101	44
255.2123	44
255.2213	44
255.2281	44
273.2322	44
281.2243	67
281.2266	44
281.229	44
281.2314	111
281.2337	433
281.2361	344
281.2385	522
281.2408	699
281.2432	655
281.2456	832
281.2479	999
281.2503	766
281.2527	744
281.255	477
281.2574	366
281.2598	477
281.2621	200
281.2645	222
281.2668	89
281.2692	133
281.2716	67
281.2787	44
299.1943	44
299.1967	44
299.2016	44
317.1879	67
317.1904	67
317.1954	67
317.1979	44
317.2004	44
317.2029	155
317.2055	200
317.208	178
317.2105	244
317.213	300
317.2155	244
317.218	89
317.2206	200
317.2231	155
317.2256	44
317.2331	44
317.2381	67
527.2307	44
527.2502	44
735.5091	44
809.4249	44
809.437	89
809.441	44
809.4449	44
809.449	89
809.453	133
809.457	178
809.4611	222
809.465	244
809.4691	322
809.4731	366
809.4771	366
809.4811	411
809.4851	610
809.4891	610
809.4932	866
809.4971	544
809.5012	610
809.5052	699
809.5092	910
809.5132	788
809.5172	655
809.5212	566
809.5253	522
809.5293	266
809.5333	366
809.5373	388
809.5413	266
809.5453	300
809.5493	67
809.5533	111
809.5574	111
809.5614	67
809.5654	111
809.5694	67
810.493	44
810.4971	67
