Mass spectrum: PI(18:1e/20-HETE); LC-ESI-QTOF; MS2
Name: PI(18:1e/20-HETE)
Class: Oxidized Phospholipid
Formula: C47H83O13P
Exact mass: 887.144
SMILES: CCCCCCCCCCCCCCCC\C=C/OCC(COP(O)(=O)OC1C(O)C(O)C(O)C(O)C1O)OC(=O)CCC\C=C/C\C=C/C\C=C/C\C=C/CCCCCO
InChI: InChI=1S/C47H83O13P/c1-2-3-4-5-6-7-8-9-10-16-19-22-25-28-31-34-37-57-38-40(39-58-61(55,56)60-47-45(53)43(51)42(50)44(52)46(47)54)59-41(49)35-32-29-26-23-20-17-14-12-11-13-15-18-21-24-27-30-33-36-48/h11,13-14,17-18,21,23,26,34,37,40,42-48,50-54H,2-10,12,15-16,19-20,22,24-25,27-33,35-36,38-39H2,1H3,(H,55,56)/b13-11-,17-14-,21-18-,26-23-,37-34-
Instrument: Acquity UPLC Peptide BEH C18 column (50 x 2.1 mm; 1.7 um), Sciex TripleTOF5600
Instrument type: LC-ESI-QTOF
Ms type: MS2
Ion mode: NEGATIVE
Collision energy: 30-50
Precursor m/z: 885.5498532
Precursor type: [M-H]-
m/z	relative intensity
78.94932	33
78.95431	66
78.95555	33
78.9568	99
78.95804	99
78.95929	33
78.96054	33
78.96178	66
78.96303	33
89.02048	33
89.0218	33
89.02445	33
89.02577	66
96.96461	33
96.96737	33
96.97013	33
135.1174	66
147.1174	66
152.9911	33
152.9946	33
163.075	33
163.084	33
191.1073	33
191.1093	33
203.1755	33
203.1835	33
205.1113	33
205.1153	33
206.6387	33
206.6447	33
209.869	99
217.113	33
217.1274	33
218.6283	66
222.3227	33
222.3269	33
222.9924	33
222.9966	99
222.9987	33
223.0008	66
223.005	33
234.4112	33
234.4155	33
240.2514	66
240.989	33
240.9998	33
241.0042	165
241.0064	456
241.0086	209
241.0107	261
241.0129	173
241.0151	195
241.0173	132
241.0195	247
241.0216	66
241.0282	33
241.0303	33
245.227	33
245.2292	33
245.2336	33
247.243	33
247.2452	33
247.2496	33
248.1016	33
248.1038	33
253.2087	33
253.2109	33
253.2131	33
253.2176	66
253.2243	33
257.2216	33
257.2261	33
259.0265	33
259.0287	33
259.031	33
271.2021	33
271.2114	33
273.213	33
273.2177	33
273.22	33
273.2223	99
273.2269	33
275.222	33
275.2243	33
275.229	33
275.2336	66
275.236	33
275.2383	99
275.2406	33
289.2047	33
289.2166	33
289.219	66
289.2237	66
289.2261	33
301.1949	33
301.1974	33
301.1998	33
301.2071	99
301.2095	66
301.212	176
301.2144	99
301.2168	165
301.2193	99
301.2217	165
301.2242	33
319.1632	33
319.1933	33
319.2058	99
319.2083	66
319.2108	258
319.2133	176
319.2159	403
319.2184	428
319.2209	801
319.2234	782
319.2259	834
319.2284	755
319.2309	675
319.2334	321
319.2359	406
319.2384	200
319.2409	231
319.2434	132
319.2459	33
319.2484	162
319.2635	33
320.224	33
320.2265	33
403.2327	66
403.2355	99
403.2383	33
403.2411	99
403.2439	132
403.2468	99
403.2496	277
403.2524	294
403.2552	395
403.258	475
403.2608	527
403.2636	349
403.2664	231
403.2693	214
403.2721	66
403.2749	132
403.2777	66
403.2805	99
403.2834	66
421.2488	33
421.2603	33
421.2632	33
421.2718	33
421.2804	33
489.2731	33
489.3072	33
501.425	33
501.4344	33
525.8448	33
525.8512	33
537.851	33
537.8543	33
565.2906	99
565.2939	33
565.2973	66
565.3007	99
565.304	66
565.3073	99
565.3107	132
565.314	99
565.3173	66
565.3207	173
565.3273	99
565.3307	33
565.334	99
565.3373	33
583.2751	33
583.2988	99
583.3056	33
583.309	132
583.3124	33
583.3158	33
583.3192	187
583.3259	66
583.3293	66
583.3361	66
583.3395	66
583.3497	33
583.3564	66
583.3666	33
723.481	33
723.5074	33
781.5041	33
781.5119	33
781.5433	33
882.707	33
882.732	33
882.7487	33
885.4594	33
885.4844	33
885.4969	66
885.5011	66
885.5053	99
885.5136	66
885.5178	242
885.522	184
885.5261	220
885.5303	736
885.5345	681
885.5387	832
885.5428	733
885.547	752
885.5512	999
885.5554	889
885.5596	812
885.5637	672
885.5679	428
885.5721	489
885.5762	162
885.5804	225
885.5846	173
885.5887	162
885.593	99
885.5971	129
885.6013	66
885.6055	33
885.6389	33
886.5949	33
886.6367	33
886.762	33
886.7703	33
890.9016	33
890.9351	33
