Mass spectrum: PC(18:1/14,15-EpETE); LC-ESI-QTOF; MS2
Name: PC(18:1/14,15-EpETE)
Class: Oxidized Phospholipid
Formula: C46H80NO9P
Exact mass: 822.12
SMILES: CCCCCCCC\C=C/CCCCCCCC(=O)OCC(COP([O-])(=O)OCC[N+](C)(C)C)OC(=O)CCC\C=C/C\C=C/C\C=C/CC1OC1C\C=C/CC
InChI: InChI=1S/C46H80NO9P/c1-6-8-10-11-12-13-14-15-16-17-18-22-25-28-32-36-45(48)52-40-42(41-54-57(50,51)53-39-38-47(3,4)5)55-46(49)37-33-29-26-23-20-19-21-24-27-31-35-44-43(56-44)34-30-9-7-2/h9,15-16,19,21,23,26-27,30-31,42-44H,6-8,10-14,17-18,20,22,24-25,28-29,32-41H2,1-5H3/b16-15-,21-19-,26-23-,30-9-,31-27-
Instrument: Acquity UPLC Peptide BEH C18 column (50 x 2.1 mm; 1.7 um), Sciex TripleTOF5600
Instrument type: LC-ESI-QTOF
Ms type: MS2
Ion mode: NEGATIVE
Collision energy: 30-50
Precursor m/z: 880.5709227
Precursor type: [M+CH3COOH-H]-
m/z	relative intensity
78.95941	6
81.06836	6
107.086	6
107.0918	6
111.0809	6
111.0869	6
121.1063	9
137.0984	6
139.1164	6
147.1285	6
149.1325	6
152.9893	6
163.1473	6
163.1509	9
163.1545	6
168.0331	6
168.0349	6
168.0368	6
168.0404	6
168.0423	18
168.0441	15
168.0459	12
168.0477	12
168.0496	6
175.1411	18
175.1429	15
175.1448	12
175.1467	12
175.1485	24
175.1504	12
175.1523	15
177.0884	6
179.1089	6
189.1267	6
189.1326	6
189.1345	9
189.1423	6
191.1111	6
193.1176	6
193.1255	6
193.1294	6
201.1604	9
201.1644	6
201.1664	6
203.1143	6
203.1304	9
203.1384	6
203.1425	6
203.1465	9
203.1485	9
203.1505	6
205.116	9
205.1201	6
205.1241	6
205.1261	6
207.1194	12
207.1235	6
207.1255	30
207.1276	27
207.1296	30
207.1316	62
207.1337	42
207.1357	87
207.1377	96
207.1398	110
207.1418	83
207.1438	45
207.1458	51
207.1479	36
207.1499	30
207.1519	12
207.154	15
207.156	12
208.1462	6
219.1229	6
219.1271	15
219.1292	24
219.1313	29
219.1333	29
219.1354	27
219.1375	35
219.1396	35
219.1417	53
219.1438	56
219.1459	24
219.148	15
219.1501	12
219.1521	6
219.1542	6
219.1605	6
220.1371	6
220.1433	6
220.1475	6
220.1496	6
220.1517	6
221.1473	9
221.1536	9
221.1557	20
221.1599	6
224.0565	6
224.0587	12
224.0608	9
224.0629	9
224.065	18
224.0671	20
224.0692	27
224.0713	20
224.0735	20
224.0756	18
224.0777	9
224.0798	15
224.0819	6
229.122	6
235.1281	12
235.1303	6
235.1368	20
235.139	6
236.1461	6
242.0827	6
247.1228	6
247.125	6
247.1273	6
247.1295	6
247.1317	9
247.1339	9
247.1384	6
247.145	6
247.1494	6
248.1264	9
248.1286	9
248.1308	27
248.1331	41
248.1353	38
248.1375	62
248.1397	47
248.142	38
248.1442	27
248.1464	32
248.1486	29
248.1509	27
248.1531	12
248.1553	18
248.162	6
255.1904	6
255.1926	6
255.1971	12
255.1994	29
255.2016	9
255.2039	44
255.2062	44
255.2084	27
255.2107	38
255.2129	53
255.2152	38
255.2174	44
255.2197	32
255.2219	15
255.2242	9
255.2264	9
255.2287	9
255.231	6
255.2355	6
273.1978	6
273.2141	18
273.2164	12
273.2188	6
273.2211	12
273.2234	12
273.2258	15
273.2281	9
273.2304	6
273.2328	15
273.2421	12
280.3642	9
280.3737	6
280.376	6
280.3784	6
280.3831	6
280.7896	6
280.8062	6
281.2059	6
281.2177	16
281.2201	3
281.2225	3
281.2248	22
281.2272	30
281.2296	45
281.2319	101
281.2343	122
281.2367	171
281.239	282
281.2414	412
281.2437	417
281.2461	371
281.2485	499
281.2509	472
281.2532	437
281.2556	310
281.258	227
281.2603	234
281.2627	97
281.265	77
281.2674	47
281.2698	53
281.2722	24
281.2745	14
281.2769	17
281.2792	20
281.2816	10
281.2863	14
282.1152	3
282.1673	3
282.2314	3
282.2456	6
282.2503	6
282.2527	6
282.2598	9
282.2693	9
282.6463	3
289.2169	6
289.2217	9
289.2289	6
299.1826	12
299.1851	15
299.1875	9
299.1899	41
299.1924	29
299.1948	38
299.1973	44
299.1997	29
299.2021	35
299.2046	50
299.207	44
299.2095	47
299.2119	18
299.2144	29
299.2168	6
299.2192	15
299.229	12
299.2314	6
316.2191	6
316.2267	6
316.2317	9
316.2342	6
316.2467	6
316.4375	6
317.0728	6
317.1758	6
317.1783	12
317.1808	18
317.1833	6
317.1859	10
317.1884	38
317.1909	28
317.1934	48
317.1959	130
317.1984	126
317.2009	182
317.2035	210
317.206	305
317.2085	343
317.211	313
317.2135	371
317.216	361
317.2185	298
317.221	230
317.2235	159
317.2261	143
317.2286	78
317.2311	78
317.2336	69
317.2361	23
317.2386	13
317.2411	13
317.2437	3
317.2487	3
317.2512	3
317.2537	3
317.412	3
317.8219	3
318.2019	3
318.2069	6
318.2119	6
318.2144	12
318.2271	3
417.2444	6
432.3074	6
435.2637	6
488.2808	9
488.287	6
488.2902	6
488.2933	9
488.2964	6
488.2995	12
488.3057	9
488.3089	18
488.312	6
488.3151	9
488.3182	18
488.3213	18
488.3245	12
488.3276	20
488.3307	18
488.3338	6
488.3369	6
488.3588	6
489.3321	6
498.2017	6
506.2458	6
506.2744	6
506.2839	6
506.2871	12
506.2935	30
506.2967	6
506.2998	36
506.303	48
506.3062	55
506.3093	55
506.3125	75
506.3157	57
506.3189	61
506.3221	97
506.3252	122
506.3284	134
506.3316	107
506.3347	58
506.3379	64
506.3411	55
506.3443	27
506.3474	49
506.3506	18
506.3538	21
506.357	27
506.3665	12
506.3697	9
506.3792	6
506.3855	6
513.2318	3
524.2511	6
524.2576	9
524.2608	9
524.264	6
524.2673	9
524.2737	15
524.277	6
524.2802	9
524.2834	9
524.2866	6
524.2899	20
524.2931	9
524.3093	6
542.2523	6
542.2654	9
542.2687	6
542.272	9
542.2753	6
542.2785	6
542.2818	12
542.2851	9
542.2884	12
542.2917	9
542.295	6
542.2982	9
542.3015	9
542.3048	6
542.3081	15
542.3212	6
735.432	6
735.4358	6
735.4396	6
735.4855	12
768.574	6
803.9579	6
803.9819	6
803.9859	15
803.9939	6
804.0059	9
804.0099	9
804.0179	6
804.0219	12
804.0259	6
804.0499	6
806.4402	6
806.4603	6
806.4683	9
806.4723	18
806.4763	36
806.4803	77
806.4843	85
806.4883	96
806.4923	174
806.4963	227
806.5003	203
806.5043	279
806.5083	426
806.5123	482
806.5164	673
806.5203	809
806.5244	742
806.5284	916
806.5323	862
806.5364	993
806.5404	930
806.5444	999
806.5484	899
806.5524	897
806.5564	799
806.5604	672
806.5644	550
806.5684	438
806.5724	348
806.5765	233
806.5804	199
806.5845	173
806.5884	81
806.5925	75
806.5965	52
806.6005	34
806.6045	30
806.6085	34
806.6125	17
806.6165	4
806.6245	12
806.6406	9
806.7568	5
806.8249	5
806.9291	6
807.326	4
807.4783	7
807.4943	18
807.4984	6
807.5064	15
807.5104	6
807.5144	15
807.5184	15
807.5224	18
807.5264	12
807.5305	38
807.5344	27
807.5385	32
807.5425	12
807.5465	18
807.5505	35
807.5545	12
807.5585	18
807.5625	20
807.5665	24
807.5706	6
807.5786	9
807.5826	15
807.5865	6
807.6187	6
821.4631	12
821.4671	6
821.4752	12
821.4874	12
821.4914	6
821.4954	12
821.4995	6
821.5035	18
821.5076	18
821.5116	6
821.5157	12
821.5197	6
821.5237	9
821.5278	15
821.5319	6
821.5359	6
821.5439	12
863.4784	6
880.4691	6
880.4733	6
880.4817	9
880.4858	6
880.4901	6
880.4942	6
880.4984	6
880.5068	15
880.511	18
880.5151	6
880.5193	33
880.5236	12
880.5277	15
880.5319	42
880.5361	45
880.5403	52
880.5444	48
880.5486	67
880.5529	61
880.557	76
880.5612	91
880.5654	131
880.5696	95
880.5738	68
880.5779	64
880.5822	95
880.5863	98
880.5905	86
880.5947	55
880.5989	74
880.6031	61
880.6073	58
880.6115	40
880.6157	40
880.6198	40
880.624	15
880.6282	15
880.6324	12
880.6366	6
880.6407	9
880.645	6
880.6533	6
880.6575	6
881.5538	6
881.5706	6
881.5873	6
881.5915	6
881.5957	9
881.6041	9
881.6124	6
