Mass spectrum: PG 40:8; LC-ESI-QTOF; MS2
Name: PG 40:8
Class: PG
Formula: C46H75O10P
Exact mass: 819.072
SMILES: CC\C=C/C\C=C/C\C=C/C\C=C/CCCCCCC(=O)OCC(COP(O)(=O)OCC(O)CO)OC(=O)CCCCCC\C=C/C\C=C/C\C=C/C\C=C/CC
InChI: InChI=1S/C46H75O10P/c1-3-5-7-9-11-13-15-17-19-21-23-25-27-29-31-33-35-37-45(49)53-41-44(42-55-57(51,52)54-40-43(48)39-47)56-46(50)38-36-34-32-30-28-26-24-22-20-18-16-14-12-10-8-6-4-2/h5-8,11-14,17-20,23-26,43-44,47-48H,3-4,9-10,15-16,21-22,27-42H2,1-2H3,(H,51,52)/b7-5-,8-6-,13-11-,14-12-,19-17-,20-18-,25-23-,26-24-
Instrument: AB Sciex TripleTOF 5600+ system (Q-TOF) equipped with a DuoSpray ion source
Instrument type: LC-ESI-QTOF
Ms type: MS2
Ion mode: NEGATIVE
Collision energy: 45V
Column name: Acquity UPLC Peptide BEH C18 column (50*2.1 mm; 1.7 um; 130A)(Waters Co.,Milford, MA, USA)
Retention time: 7.911889
Precursor type: [M-H]-
Precursor m/z: 817.5054
m/z	relative intensity
78.961	0
152.993	8
163.076	0
170.999	0
177.086	1
191.104	1
205.194	9
205.208	1
217.197	0
223.023	1
227.033	0
229.196	0
231.198	0
231.21	0
231.221	1
239.057	0
257.226	0
259.241	60
277.216	0
279.232	23
283.203	0
283.243	2
285.205	1
285.227	2
301.212	1
302.282	4
302.307	0
303.232	999
304.232	1
327.215	1
327.234	10
329.246	0
350.239	0
439.218	1
457.234	1
457.266	0
481.254	0
481.493	0
490.816	0
507.276	0
513.229	0
513.264	3
513.292	0
531.268	15
537.239	0
555.287	0
569.372	0
605.068	0
618.469	0
799.515	0
814.889	1
814.921	1
817.203	0
817.501	412
818.494	1
818.705	0
