Mass spectrum: PC(16:1/17-HDoHE); LC-ESI-QTOF; MS2
Name: PC(16:1/17-HDoHE)
Class: Oxidized Phospholipid
Formula: C46H78NO9P
Exact mass: 820.104
SMILES: CCCCCC\C=C/CCCCCCCC(=O)OCC(COP([O-])(=O)OCC[N+](C)(C)C)OC(=O)CC\C=C/C\C=C/C\C=C/C\C=C/C=C\C(O)C\C=C/CC
InChI: InChI=1S/C46H78NO9P/c1-6-8-10-11-12-13-14-16-20-23-26-29-33-37-45(49)53-41-44(42-55-57(51,52)54-40-39-47(3,4)5)56-46(50)38-34-30-27-24-21-18-15-17-19-22-25-28-32-36-43(48)35-31-9-7-2/h9,13-14,17-19,21,25,27-28,30-32,36,43-44,48H,6-8,10-12,15-16,20,22-24,26,29,33-35,37-42H2,1-5H3/b14-13-,19-17-,21-18-,28-25-,30-27-,31-9-,36-32-
Instrument: Acquity UPLC Peptide BEH C18 column (50 x 2.1 mm; 1.7 um), Sciex TripleTOF5600
Instrument type: LC-ESI-QTOF
Ms type: MS2
Ion mode: NEGATIVE
Collision energy: 30-50
Precursor m/z: 878.5552726
Precursor type: [M+CH3COOH-H]-
m/z	relative intensity
173.1353	39
201.1639	77
201.1659	58
203.1118	39
224.056	39
224.0686	39
227.1714	39
245.1498	58
245.152	58
245.1543	39
245.1565	77
245.1587	39
253.1966	77
253.1988	39
253.2056	197
253.2078	178
253.2101	275
253.2123	434
253.2146	414
253.2168	337
253.219	275
253.2213	318
253.2235	256
253.2258	120
253.228	178
253.2303	120
253.2325	58
253.2348	77
253.2415	39
279.2235	39
281.217	77
281.2193	39
281.2264	39
281.2288	77
281.2312	97
281.243	58
295.2194	39
325.2085	39
325.2187	39
325.2263	39
325.2365	39
343.1983	39
343.2088	39
343.2114	58
343.214	77
343.2166	159
343.2192	58
343.2218	139
343.2245	139
343.2271	120
343.2297	97
343.2323	159
343.2349	120
343.2375	58
343.2401	77
343.2427	77
460.2741	39
460.2772	39
478.264	39
478.2763	39
478.2825	39
478.2948	39
478.301	77
478.3041	58
478.3072	39
478.3134	39
478.3164	77
568.3025	39
568.3361	39
691.4133	39
733.4379	39
733.4493	39
733.4608	39
733.4646	39
734.4279	39
734.4393	39
734.4508	39
735.4454	39
804.4399	39
804.4479	58
804.4559	58
804.4599	39
804.4639	58
804.468	39
804.4719	221
804.476	221
804.4799	399
804.4839	519
804.4879	379
804.4919	399
804.496	461
804.4999	821
804.504	681
804.5079	840
804.512	867
804.5159	786
804.52	743
804.524	585
804.528	960
804.532	701
804.5359	999
804.54	538
804.5439	743
804.548	500
804.552	379
804.556	457
804.56	182
804.564	275
804.568	256
804.572	139
804.576	77
804.58	77
804.584	58
804.596	39
804.608	39
805.5007	39
805.5208	39
805.5288	39
805.5408	39
805.5528	39
818.5357	39
818.5478	39
818.564	39
878.4876	58
878.4918	39
878.5085	77
878.5127	39
878.5168	77
878.5211	39
878.5252	58
878.5294	39
878.5336	77
878.5378	77
878.5419	120
878.5461	120
878.5503	97
878.5545	97
878.5587	159
878.5629	58
878.5671	39
878.5712	39
878.5754	217
878.5796	58
878.5838	77
878.588	39
878.5922	39
878.5963	77
878.6005	39
