Mass spectrum: PI(20:3/13-HODE); LC-ESI-QTOF; MS2
Name: PI(20:3/13-HODE)
Class: Oxidized Phospholipid
Formula: C47H81O14P
Exact mass: 901.127
SMILES: CCCCCC(O)\C=C\C=C/CCCCCCCC(=O)OC(COC(=O)CCCCCCCCC\C=C/C\C=C/C\C=C/CC)COP(O)(=O)OC1C(O)C(O)C(O)C(O)C1O
InChI: InChI=1S/C47H81O14P/c1-3-5-7-8-9-10-11-12-13-14-15-16-17-20-23-26-30-34-40(49)58-36-39(37-59-62(56,57)61-47-45(54)43(52)42(51)44(53)46(47)55)60-41(50)35-31-27-24-21-18-19-22-25-29-33-38(48)32-28-6-4-2/h5,7,9-10,12-13,22,25,29,33,38-39,42-48,51-55H,3-4,6,8,11,14-21,23-24,26-28,30-32,34-37H2,1-2H3,(H,56,57)/b7-5-,10-9-,13-12-,25-22-,33-29+
Instrument: Acquity UPLC Peptide BEH C18 column (50 x 2.1 mm; 1.7 um), Sciex TripleTOF5600
Instrument type: LC-ESI-QTOF
Ms type: MS2
Ion mode: NEGATIVE
Collision energy: 30-50
Precursor m/z: 899.5291178
Precursor type: [M-H]-
m/z	relative intensity
195.1425	22
222.9938	22
222.9959	22
223.0001	22
223.0022	22
223.0043	22
241.0002	34
241.0046	34
241.0067	91
241.0089	79
241.0111	45
241.0133	68
241.0155	124
241.0177	34
241.0199	56
241.0221	56
259.0193	22
277.211	22
283.2648	34
295.2097	22
295.2121	45
295.217	56
295.2194	147
295.2218	102
295.2243	56
295.2267	56
295.2291	45
295.2315	102
295.2339	102
295.2364	34
295.2388	68
295.2412	22
295.2461	22
295.2534	22
297.0356	22
297.0405	22
305.2232	22
305.2256	22
305.2331	34
305.2355	45
305.238	45
305.2404	79
305.2429	56
305.2454	22
305.2479	91
305.2503	135
305.2528	91
305.2552	45
305.2577	34
305.2602	56
305.2651	22
365.2674	22
431.1975	34
431.2092	22
431.2121	68
431.2151	68
431.218	102
431.2209	113
431.2238	45
431.2268	56
431.2297	34
431.2326	68
431.2385	34
431.2502	22
593.2377	34
593.248	22
593.2514	56
593.2549	45
593.2583	45
593.2617	34
593.2652	56
593.272	22
593.2755	56
593.2789	34
593.2823	45
593.2858	113
593.2892	124
593.2961	34
603.3152	22
611.2778	22
611.2883	22
611.2918	22
611.2953	22
621.3344	22
896.6886	24
896.714	22
899.4498	23
899.454	58
899.4583	58
899.4625	69
899.4667	69
899.4709	127
899.4752	59
899.4794	132
899.4836	134
899.4879	187
899.4921	315
899.4963	285
899.5005	249
899.5048	508
899.509	389
899.5132	625
899.5175	672
899.5217	734
899.5259	864
899.5302	999
899.5344	797
899.5386	814
899.5428	787
899.5471	795
899.5513	576
899.5555	601
899.5598	500
899.564	485
899.5682	248
899.5725	359
899.5767	162
899.5809	186
899.5852	75
899.5894	159
899.5936	86
899.5979	49
899.6021	48
899.6063	37
899.6106	25
899.6233	38
900.5249	22
900.58	12
