Mass spectrum: PI(19:0/18-HETE); LC-ESI-QTOF; MS2
Name: PI(19:0/18-HETE)
Class: Oxidized Phospholipid
Formula: C48H85O14P
Exact mass: 917.17
SMILES: CCCCCCCCCCCCCCCCCCC(=O)OCC(COP(O)(=O)OC1C(O)C(O)C(O)C(O)C1O)OC(=O)CCC\C=C/C\C=C/C\C=C/C\C=C/CCC(O)CC
InChI: InChI=1S/C48H85O14P/c1-3-5-6-7-8-9-10-11-12-13-17-20-23-26-29-32-35-41(50)59-37-40(38-60-63(57,58)62-48-46(55)44(53)43(52)45(54)47(48)56)61-42(51)36-33-30-27-24-21-18-15-14-16-19-22-25-28-31-34-39(49)4-2/h15-16,18-19,24-25,27-28,39-40,43-49,52-56H,3-14,17,20-23,26,29-38H2,1-2H3,(H,57,58)/b18-15-,19-16-,27-24-,28-25-
Instrument: Acquity UPLC Peptide BEH C18 column (50 x 2.1 mm; 1.7 um), Sciex TripleTOF5600
Instrument type: LC-ESI-QTOF
Ms type: MS2
Ion mode: NEGATIVE
Collision energy: 30-50
Precursor m/z: 915.5604179
Precursor type: [M-H]-
m/z	relative intensity
152.9901	156
152.9919	156
152.9971	156
152.9988	156
153.0005	156
217.1897	156
217.2	311
240.9999	156
241.0043	311
241.0065	311
241.0108	311
241.0152	311
261.1753	156
261.1798	156
261.1821	156
261.1866	156
261.1889	156
281.2411	156
281.2434	311
281.2528	156
297.269	156
297.2715	623
297.2739	311
297.2763	311
297.2787	467
297.2811	311
297.2835	311
297.2859	467
297.2884	156
297.2908	311
297.2932	467
319.2027	156
319.2102	156
319.2177	311
319.2202	156
319.2227	778
319.2253	156
319.2278	467
319.2303	778
319.2328	804
319.2353	467
319.2378	467
319.2453	156
433.2663	156
433.2809	156
451.2633	156
451.2782	156
451.2961	156
455.2196	156
455.2256	156
455.2346	156
595.2968	156
595.3071	156
595.3139	311
595.3173	467
595.331	156
595.3378	156
808.5347	156
808.5386	156
808.5586	156
915.5098	156
915.5182	311
915.5225	311
915.5267	156
915.531	311
915.5352	311
915.5395	467
915.5437	623
915.548	778
915.5522	311
915.5565	921
915.5607	467
915.5649	999
915.5692	467
915.5734	467
915.5777	623
915.5819	778
915.5862	311
915.5904	156
915.5947	623
915.5989	467
915.6031	156
