Mass spectrum: PC(17:0/9-HODE); LC-ESI-QTOF; MS2
Name: PC(17:0/9-HODE)
Class: Oxidized Phospholipid
Formula: C43H82NO9P
Exact mass: 788.103
SMILES: CCCCCCCCCCCCCCCCC(=O)OCC(COP([O-])(=O)OCC[N+](C)(C)C)OC(=O)CCCCCCCC(O)\C=C\C=C/CCCCC
InChI: InChI=1S/C43H82NO9P/c1-6-8-10-12-14-15-16-17-18-19-20-22-26-30-34-42(46)50-38-41(39-52-54(48,49)51-37-36-44(3,4)5)53-43(47)35-31-27-23-25-29-33-40(45)32-28-24-21-13-11-9-7-2/h21,24,28,32,40-41,45H,6-20,22-23,25-27,29-31,33-39H2,1-5H3/b24-21-,32-28+
Instrument: Acquity UPLC Peptide BEH C18 column (50 x 2.1 mm; 1.7 um), Sciex TripleTOF5600
Instrument type: LC-ESI-QTOF
Ms type: MS2
Ion mode: NEGATIVE
Collision energy: 30-50
Precursor m/z: 846.5865727
Precursor type: [M+CH3COOH-H]-
m/z	relative intensity
171.1049	75
266.1487	75
269.2398	116
269.2421	227
269.2468	265
269.2491	227
269.2514	227
269.2537	75
269.256	153
269.2583	190
269.2607	116
269.263	116
277.2184	116
277.2255	75
277.2279	75
277.2326	75
281.2432	75
295.2029	75
295.2102	116
295.215	190
295.2174	116
295.2199	227
295.2223	380
295.2247	306
295.2271	417
295.2296	306
295.232	227
295.2344	190
295.2368	153
295.2393	306
295.2417	116
306.25	75
764.4736	78
772.4882	78
772.4921	75
772.496	78
772.5039	153
772.5078	153
772.5117	116
772.5157	306
772.5196	268
772.5235	306
772.5274	887
772.5314	615
772.5353	272
772.5392	652
772.5431	425
772.5471	421
772.551	578
772.5549	999
772.5588	734
772.5627	500
772.5667	611
772.5706	496
772.5745	727
772.5784	417
772.5823	306
772.5862	265
772.5902	116
772.5941	190
772.598	116
772.6019	116
772.6058	75
785.5353	116
785.5432	75
785.5472	75
785.5511	75
785.559	75
785.563	153
785.5788	75
785.5828	116
846.5248	75
846.533	75
846.5371	116
846.5453	75
846.5494	75
846.5535	75
846.5577	75
846.5659	75
846.5699	153
846.5782	75
846.5823	227
846.5864	153
846.5905	116
846.5946	116
846.6028	190
846.611	75
