Mass spectrum: PE 38:4; LC-ESI-QTOF; MS2
Name: PE 38:4
Class: PE
Formula: C43H78NO8P
Exact mass: 768.0719999999999
SMILES: CCCCCCCCCCCCCCCC(=O)OCC(COP(O)(=O)OCCN)OC(=O)CCCCCCCC\C=C/C\C=C/C\C=C/C\C=C/CC
InChI: InChI=1S/C43H78NO8P/c1-3-5-7-9-11-13-15-17-18-19-20-21-22-24-26-28-30-32-34-36-43(46)52-41(40-51-53(47,48)50-38-37-44)39-49-42(45)35-33-31-29-27-25-23-16-14-12-10-8-6-4-2/h5,7,11,13,17-18,20-21,41H,3-4,6,8-10,12,14-16,19,22-40,44H2,1-2H3,(H,47,48)/b7-5-,13-11-,18-17-,21-20-
Instrument: AB Sciex TripleTOF 5600+ system (Q-TOF) equipped with a DuoSpray ion source
Instrument type: LC-ESI-QTOF
Ms type: MS2
Ion mode: NEGATIVE
Collision energy: 45V
Column name: Acquity UPLC Peptide BEH C18 column (50*2.1 mm; 1.7 um; 130A)(Waters Co.,Milford, MA, USA)
Retention time: 10.07965
Precursor type: [M-H]-
Precursor m/z: 766.5368
m/z	relative intensity
140.012	29
196.037	19
255.231	382
259.243	39
283.263	259
287.27	44
301.213	7
303.231	543
305.247	21
329.25	5
330.228	4
331.262	999
332.263	39
434.263	17
434.31	12
451.315	4
452.277	56
462.293	12
480.305	54
482.259	4
491.147	5
510.289	14
528.3	9
543.296	5
634.901	5
766.532	958
766.567	89
766.587	24
766.619	9
