Mass spectrum: PC(17:1/18-HETE); LC-ESI-QTOF; MS2
Name: PC(17:1/18-HETE)
Class: Oxidized Phospholipid
Formula: C45H80NO9P
Exact mass: 810.109
SMILES: CCCCCCC\C=C/CCCCCCCC(=O)OCC(COP([O-])(=O)OCC[N+](C)(C)C)OC(=O)CCC\C=C/C\C=C/C\C=C/C\C=C/CCC(O)CC
InChI: InChI=1S/C45H80NO9P/c1-6-8-9-10-11-12-13-14-18-21-24-27-30-33-36-44(48)52-40-43(41-54-56(50,51)53-39-38-46(3,4)5)55-45(49)37-34-31-28-25-22-19-16-15-17-20-23-26-29-32-35-42(47)7-2/h13-14,16-17,19-20,25-26,28-29,42-43,47H,6-12,15,18,21-24,27,30-41H2,1-5H3/b14-13-,19-16-,20-17-,28-25-,29-26-
Instrument: Acquity UPLC Peptide BEH C18 column (50 x 2.1 mm; 1.7 um), Sciex TripleTOF5600
Instrument type: LC-ESI-QTOF
Ms type: MS2
Ion mode: NEGATIVE
Collision energy: 30-50
Precursor m/z: 868.5709227
Precursor type: [M+CH3COOH-H]-
m/z	relative intensity
217.2007	87
261.1772	87
261.1817	179
261.1863	135
267.2179	87
267.2225	135
267.2248	135
267.2271	179
267.2294	266
267.2318	179
267.234	266
267.2364	266
267.2386	179
267.241	87
267.2433	87
267.2456	135
267.2479	135
267.2548	87
301.2086	135
301.2159	87
301.2282	87
301.2355	87
319.2037	135
319.2088	135
319.2113	266
319.2138	222
319.2163	358
319.2189	310
319.2214	358
319.2239	489
319.2264	266
319.2289	532
319.2315	489
319.234	266
319.2365	310
319.239	222
319.2415	179
319.2441	87
319.2466	87
492.2918	87
492.3075	87
492.3106	135
492.3387	87
792.0562	92
794.4724	179
794.4843	227
794.4922	179
794.4962	179
794.5002	135
794.5042	358
794.5082	759
794.5121	541
794.5161	449
794.5201	449
794.524	449
794.5281	864
794.532	999
794.536	589
794.54	907
794.5439	681
794.5479	777
794.5519	811
794.5559	772
794.5599	811
794.5638	497
794.5678	449
794.5718	537
794.5758	270
794.5798	310
794.5837	87
794.5877	179
794.5917	222
794.5956	87
794.6116	87
794.6155	87
795.5187	87
795.5346	135
795.5465	87
868.4943	87
868.5483	179
868.5525	135
868.5609	135
868.5733	87
868.5858	135
868.6232	87
