Mass spectrum: PI(16:0/5,6-EET); LC-ESI-QTOF; MS2
Name: PI(16:0/5,6-EET)
Class: Oxidized Phospholipid
Formula: C45H79O14P
Exact mass: 875.089
SMILES: CCCCCCCCCCCCCCCC(=O)OCC(COP(O)(=O)OC1C(O)C(O)C(O)C(O)C1O)OC(=O)CCCC1OC1C\C=C/C\C=C/C\C=C/CCCCC
InChI: InChI=1S/C45H79O14P/c1-3-5-7-9-11-13-15-17-19-21-23-25-27-31-38(46)55-33-35(34-56-60(53,54)59-45-43(51)41(49)40(48)42(50)44(45)52)57-39(47)32-28-30-37-36(58-37)29-26-24-22-20-18-16-14-12-10-8-6-4-2/h12,14,18,20,24,26,35-37,40-45,48-52H,3-11,13,15-17,19,21-23,25,27-34H2,1-2H3,(H,53,54)/b14-12-,20-18-,26-24-
Instrument: Acquity UPLC Peptide BEH C18 column (50 x 2.1 mm; 1.7 um), Sciex TripleTOF5600
Instrument type: LC-ESI-QTOF
Ms type: MS2
Ion mode: NEGATIVE
Collision energy: 30-50
Precursor m/z: 873.5134677
Precursor type: [M-H]-
m/z	relative intensity
101.02	24
152.9875	24
152.991	24
152.9945	24
152.9997	48
153.0014	34
191.1795	24
222.9914	24
222.9935	24
223.002	24
223.0125	24
240.9975	34
240.9997	24
241.0019	24
241.0063	59
241.0084	127
241.0106	93
241.0128	59
241.015	59
241.0172	69
241.0216	24
241.0303	24
253.202	24
253.2087	24
253.211	24
253.2132	24
253.2155	34
253.2177	24
253.22	24
253.2267	24
254.2178	24
255.2199	34
255.2222	34
255.2244	34
255.2267	48
255.2289	59
255.2312	127
255.2335	48
255.2357	48
255.238	24
255.2402	24
255.2425	59
255.247	24
259.0209	24
259.03	24
281.237	24
281.2393	24
281.2417	24
281.2465	24
281.2512	24
283.2566	24
293.1925	24
293.2021	34
293.2046	48
293.207	24
293.2094	24
293.2118	48
293.2142	59
293.2166	48
293.2191	34
293.2215	24
293.2239	34
293.2287	24
297.0343	24
297.0465	24
315.0464	48
315.0489	34
319.2074	24
319.2099	24
319.2149	24
319.2174	59
319.22	48
319.2225	59
319.225	69
319.2275	69
319.2301	69
319.2326	93
319.2351	34
319.2376	59
327.2231	24
327.2307	24
327.2409	24
327.2461	24
338.2383	24
391.229	24
455.2078	24
455.2108	34
455.2168	83
455.2198	48
455.2228	34
455.2259	48
455.2289	34
455.2349	48
455.2379	24
455.2409	24
455.2529	24
473.2252	24
553.2565	48
553.273	24
553.2996	24
571.2792	24
597.2765	24
597.2868	24
597.2903	24
597.3144	24
597.3213	24
617.2372	24
617.2407	24
617.2477	59
617.2512	34
617.2548	24
617.2582	83
617.2653	69
617.2688	48
617.2723	48
617.2758	59
617.2793	48
617.2828	48
617.2898	34
617.2933	24
617.3003	34
617.3038	24
617.3073	24
617.3109	24
791.4827	24
791.4866	48
791.4906	34
791.4946	34
791.4985	48
791.5025	34
791.5065	24
791.5105	24
791.5145	24
791.5184	59
799.5015	24
799.5055	24
799.5095	24
799.5214	24
799.5334	48
799.5374	34
799.5414	48
799.5453	34
799.5533	48
799.5573	24
799.5613	34
799.5653	24
799.5813	24
799.6611	24
873.381	24
873.4227	48
873.4352	24
873.4394	24
873.4435	48
873.4478	59
873.4519	48
873.4561	93
873.4603	127
873.4644	214
873.4686	310
873.4728	334
873.4769	300
873.4811	358
873.4853	431
873.4894	431
873.4936	744
873.4978	806
873.502	785
873.5061	930
873.5103	748
873.5145	965
873.5186	978
873.5228	865
873.527	999
873.5311	675
873.5353	661
873.5395	758
873.5436	627
873.5479	696
873.552	441
873.5562	417
873.5604	300
873.5645	286
873.5687	248
873.5729	165
873.577	117
873.5812	117
873.5854	107
873.5895	107
873.5937	59
873.5979	34
873.6021	24
873.6229	24
873.7021	24
874.3737	24
874.5031	24
874.5198	48
874.5239	34
874.5281	24
874.5323	24
874.5406	24
874.5448	24
874.5991	24
881.8077	24
