Mass spectrum: SM d42:3; LC-ESI-QTOF; MS2
Name: SM d42:3
Class: SM
Formula: C47H91N2O6P
Exact mass: 811.2289999999999
SMILES: CCCCCCCCCCCC\C=C/CCCCCCCCCC(=O)NC(COP([O-])(=O)OCC[N+](C)(C)C)C(O)\C=C\CC\C=C\CCCCCCCCC
InChI: InChI=1S/C47H91N2O6P/c1-6-8-10-12-14-16-18-20-21-22-23-24-25-26-27-29-31-33-35-37-39-41-47(51)48-45(44-55-56(52,53)54-43-42-49(3,4)5)46(50)40-38-36-34-32-30-28-19-17-15-13-11-9-7-2/h24-25,30,32,38,40,45-46,50H,6-23,26-29,31,33-37,39,41-44H2,1-5H3,(H-,48,51,52,53)/b25-24-,32-30+,40-38+
Instrument: AB Sciex TripleTOF 5600+ system (Q-TOF) equipped with a DuoSpray ion source
Instrument type: LC-ESI-QTOF
Ms type: MS2
Ion mode: NEGATIVE
Collision energy: 45V
Column name: Acquity UPLC Peptide BEH C18 column (50*2.1 mm; 1.7 um; 130A)(Waters Co.,Milford, MA, USA)
Retention time: 11.0584
Precursor type: [M+CH3COOH-H]-
Precursor m/z: 869.6702
m/z	relative intensity
78.96	9
96.969	0
122.985	1
141.018	0
167.521	0
168.042	35
196.034	0
255.228	0
281.248	0
283.265	0
284.261	0
303.236	0
363.318	0
365.342	0
419.252	0
438.304	0
444.846	0
445.485	0
447.265	0
447.291	1
449.299	0
449.316	0
458.299	0
481.206	0
483.284	0
509.937	0
514.356	0
514.498	0
553.257	0
643.561	0
706.519	0
706.556	0
724.525	0
724.554	1
724.612	0
750.535	0
750.563	0
750.607	0
793.024	0
793.068	0
793.092	0
793.112	2
793.153	0
794.69	0
795.46	0
795.53	0
795.62	999
795.709	1
796.106	0
796.154	0
796.593	0
796.626	1
796.658	0
797.614	0
809.578	0
809.624	0
809.657	0
810.581	6
810.616	0
823.599	0
823.635	0
857.569	0
869.478	0
869.658	31
869.745	0
873.732	0
