Mass spectrum: Cer[NS] d34:1; LC-ESI-QTOF; MS2
Name: Cer[NS] d34:1
Class: Cer_NS
Formula: C34H67NO3
Exact mass: 537.914
SMILES: CCCCCCCCCCCCCCCC(=O)NC(CO)C(O)\C=C\CCCCCCCCCCCCC
InChI: InChI=1S/C34H67NO3/c1-3-5-7-9-11-13-15-17-19-21-23-25-27-29-33(37)32(31-36)35-34(38)30-28-26-24-22-20-18-16-14-12-10-8-6-4-2/h27,29,32-33,36-37H,3-26,28,30-31H2,1-2H3,(H,35,38)/b29-27+
Instrument: AB Sciex TripleTOF 5600+ system (Q-TOF) equipped with a DuoSpray ion source
Instrument type: LC-ESI-QTOF
Ms type: MS2
Ion mode: NEGATIVE
Collision energy: 45V
Column name: Acquity UPLC Peptide BEH C18 column (50*2.1 mm; 1.7 um; 130A)(Waters Co.,Milford, MA, USA)
Retention time: 9.784235
Precursor type: [M+CH3COOH-H]-
Precursor m/z: 596.5243
m/z	relative intensity
225.22	5
235.207	11
237.222	432
239.236	8
239.251	1
250.253	12
251.239	3
253.251	36
254.247	145
255.232	126
262.249	1
263.237	139
266.248	27
266.265	2
268.263	38
278.251	5
279.388	6
280.229	3
280.264	922
281.249	5
294.245	9
295.255	1
295.329	2
295.437	1
296.258	123
298.273	11
308.263	1
310.272	2
461.471	3
470.468	1
471.955	4
477.469	3
488.479	126
490.507	1
500.473	1
504.474	82
504.513	1
504.888	0
506.49	201
508.5	1
518.488	8
521.445	1
534.806	5
534.842	1
536.297	1
536.389	1
536.499	999
537.513	2
