Mass spectrum: PC(14:0/11,12-EET); LC-ESI-QTOF; MS2
Name: PC(14:0/11,12-EET)
Class: Oxidized Phospholipid
Formula: C42H76NO9P
Exact mass: 770.044
SMILES: CCCCCCCCCCCCCC(=O)OCC(COP([O-])(=O)OCC[N+](C)(C)C)OC(=O)CCC\C=C/C\C=C/CC1OC1C\C=C/CCCCC
InChI: InChI=1S/C42H76NO9P/c1-6-8-10-12-14-15-16-17-20-24-28-32-41(44)48-36-38(37-50-53(46,47)49-35-34-43(3,4)5)51-42(45)33-29-25-21-18-19-23-27-31-40-39(52-40)30-26-22-13-11-9-7-2/h18,21-23,26-27,38-40H,6-17,19-20,24-25,28-37H2,1-5H3/b21-18-,26-22-,27-23-
Instrument: Acquity UPLC Peptide BEH C18 column (50 x 2.1 mm; 1.7 um), Sciex TripleTOF5600
Instrument type: LC-ESI-QTOF
Ms type: MS2
Ion mode: NEGATIVE
Collision energy: 30-50
Precursor m/z: 828.5396225
Precursor type: [M+CH3COOH-H]-
m/z	relative intensity
78.95883	6
78.96134	6
78.9651	6
81.06906	6
107.0942	6
135.1159	6
135.1192	6
149.0889	6
149.0906	15
149.0941	6
149.0958	9
149.0975	6
149.0992	6
149.1027	6
152.9957	6
153.0027	6
153.0934	6
163.1071	9
163.1125	6
163.1161	12
163.1215	6
163.1233	6
165.0844	6
167.0956	15
167.0974	29
167.0992	41
167.1011	41
167.1029	100
167.1047	91
167.1065	71
167.1084	97
167.1102	88
167.112	53
167.1138	47
167.1156	27
167.1175	21
167.1193	9
167.1211	9
167.1229	6
167.1248	9
168.0325	6
168.038	9
168.0399	12
168.0417	15
168.0435	18
168.0454	9
168.0472	6
168.049	15
168.0527	6
168.0563	6
179.0876	6
179.097	21
179.0989	24
179.1008	32
179.1027	29
179.1046	38
179.1064	50
179.1083	38
179.1102	38
179.1121	27
179.114	27
179.1159	6
179.1178	15
179.1215	6
179.1234	6
180.1048	6
180.1143	6
180.1162	6
180.1181	6
180.12	6
192.2553	6
192.9897	6
203.1721	6
203.1802	6
203.1822	6
203.1882	6
207.0986	9
208.0988	15
208.1009	15
208.1029	21
208.1049	15
208.107	29
208.109	27
208.1111	32
208.1131	21
208.1151	21
208.1172	12
208.1192	9
208.1212	9
208.1273	6
224.0518	6
224.0582	9
224.0603	12
224.0624	18
224.0645	15
224.0666	6
224.0687	32
224.0708	15
224.073	6
224.0751	15
227.1736	6
227.1757	6
227.18	15
227.1821	9
227.1842	24
227.1864	47
227.1885	83
227.1906	133
227.1927	171
227.1949	224
227.197	265
227.1991	348
227.2012	315
227.2034	342
227.2055	277
227.2076	277
227.2098	174
227.2119	141
227.214	71
227.2161	50
227.2183	50
227.2204	18
227.2225	6
227.2247	6
227.2268	12
238.3428	6
253.2058	6
253.2081	12
253.2125	9
253.2148	6
253.2193	6
253.2215	12
253.2238	12
253.226	6
253.2372	6
257.1863	6
257.2158	9
257.218	12
257.2203	24
257.2226	18
257.2248	15
257.2271	18
257.2293	44
257.2316	38
257.2339	35
257.2361	18
257.2497	6
267.2343	6
273.2184	6
275.2043	6
275.2208	9
275.2325	6
275.2348	6
275.2371	9
275.2395	12
275.2418	9
275.2442	6
275.2512	6
279.2239	6
279.2262	6
279.2286	6
279.2357	6
281.2386	6
281.241	9
281.2434	9
281.2457	15
281.2481	9
281.2505	15
281.2528	15
281.2552	18
281.2599	6
283.2583	9
283.2654	9
284.2661	6
291.2285	6
291.2332	6
293.1942	6
293.2014	6
293.2038	6
293.2111	6
293.2135	9
293.2159	6
293.2183	9
301.1918	6
301.1942	9
301.1991	15
301.2016	9
301.204	15
301.2065	24
301.2089	50
301.2114	41
301.2138	41
301.2162	44
301.2187	41
301.2212	21
301.2236	21
301.226	38
301.2285	12
301.231	9
301.2334	24
301.2408	6
305.2556	6
318.2368	6
318.2393	6
319.199	9
319.2016	32
319.2041	15
319.2066	59
319.2091	68
319.2116	136
319.2142	156
319.2167	221
319.2192	259
319.2217	304
319.2243	253
319.2268	277
319.2293	333
319.2318	289
319.2343	250
319.2368	171
319.2394	141
319.2419	118
319.2444	103
319.2469	65
319.2495	44
319.252	27
319.2545	15
319.257	9
319.2596	18
319.2671	6
319.2722	9
320.2284	9
320.2461	6
363.1908	6
363.1989	6
367.3517	6
378.2322	6
378.2459	9
419.247	9
434.231	6
434.2458	9
434.2487	6
434.2516	12
434.2546	6
434.2575	6
434.2604	9
434.2634	9
434.2663	18
434.2693	18
434.2722	9
434.2751	15
434.2781	9
434.281	18
434.284	9
434.2869	12
452.2435	9
452.2465	12
452.2495	6
452.2525	9
452.2555	27
452.2585	27
452.2615	32
452.2645	35
452.2675	68
452.2705	62
452.2735	56
452.2765	74
452.2795	88
452.2825	94
452.2855	83
452.2885	85
452.2915	71
452.2945	41
452.2975	38
452.3005	27
452.3035	6
452.3065	15
452.3095	9
452.3125	9
452.3155	6
478.3209	6
526.2692	12
526.2756	6
526.2789	6
526.2821	6
526.2853	6
526.2886	6
526.2919	6
526.295	12
526.2983	6
526.3016	9
526.3048	9
526.3113	12
526.3242	6
544.2882	9
544.2948	12
544.2981	6
544.3014	6
544.308	9
544.3113	12
544.3146	18
544.3343	6
741.4794	6
741.5025	9
741.5102	6
741.514	9
741.537	6
741.5717	6
752.1293	6
752.1331	6
752.1409	15
752.1447	6
752.1564	9
754.4141	6
754.4179	6
754.4257	12
754.4296	9
754.4334	21
754.4373	18
754.4412	29
754.4451	62
754.4489	83
754.4528	103
754.4567	168
754.4606	144
754.4644	280
754.4683	259
754.4722	336
754.4761	398
754.4799	466
754.4838	498
754.4877	516
754.4916	678
754.4954	807
754.4993	749
754.5032	769
754.5071	999
754.5109	849
754.5148	825
754.5187	754
754.5226	802
754.5264	690
754.5303	619
754.5342	566
754.5381	416
754.5419	318
754.5458	239
754.5497	206
754.5536	118
754.5574	100
754.5613	65
754.5652	47
754.5691	50
754.5729	27
754.5768	21
754.5807	12
754.5846	15
754.5884	12
754.5923	9
754.5962	6
754.6001	6
755.4724	12
755.4802	12
755.4841	6
755.4879	6
755.4918	27
755.4957	15
755.4996	18
755.5034	24
755.5073	15
755.5112	21
755.5151	24
755.519	24
755.5228	21
755.5267	6
755.5306	21
755.5345	24
755.5383	9
755.5422	12
755.55	6
755.5577	6
755.5616	6
755.5694	6
769.4357	6
769.4553	6
769.4592	6
769.4631	9
769.4709	6
769.4749	24
769.4788	12
769.4866	12
769.4905	9
769.4984	6
769.5023	9
781.5297	6
781.5494	6
781.5534	6
810.5616	6
828.4184	6
828.4306	21
828.4427	9
828.4509	6
828.455	12
828.4631	15
828.4671	9
828.4712	21
828.4752	21
828.4793	18
828.4874	21
828.4915	18
828.4955	15
828.4996	44
828.5037	53
828.5078	41
828.5118	32
828.5159	53
828.52	44
828.524	44
828.5281	32
828.5321	47
828.5362	47
828.5402	44
828.5443	83
828.5483	53
828.5524	85
828.5565	62
828.5605	62
828.5646	56
828.5687	56
828.5728	27
828.5768	47
828.5809	21
828.5849	24
828.589	12
828.593	12
828.5971	9
828.6011	15
828.6093	6
828.6133	12
828.6174	9
828.6255	6
828.6296	6
828.6458	9
829.438	9
829.4421	6
829.4705	6
829.4787	9
829.4908	12
829.4949	6
829.5031	12
829.5112	9
829.5153	9
829.5275	6
829.5396	6
