Mass spectrum: SM d34:2; LC-ESI-QTOF; MS2
Name: SM d34:2
Class: SM
Formula: C39H77N2O6P
Exact mass: 701.029
SMILES: CCCCCCCCCCCCCCCC(=O)NC(COP([O-])(=O)OCC[N+](C)(C)C)C(O)\C=C\CC\C=C\CCCCCCCCC
InChI: InChI=1S/C39H77N2O6P/c1-6-8-10-12-14-16-18-20-22-24-26-28-30-32-38(42)37(36-47-48(44,45)46-35-34-41(3,4)5)40-39(43)33-31-29-27-25-23-21-19-17-15-13-11-9-7-2/h22,24,30,32,37-38,42H,6-21,23,25-29,31,33-36H2,1-5H3,(H-,40,43,44,45)/b24-22+,32-30+
Instrument: AB Sciex TripleTOF 5600+ system (Q-TOF) equipped with a DuoSpray ion source
Instrument type: LC-ESI-QTOF
Ms type: MS2
Ion mode: NEGATIVE
Collision energy: 45V
Column name: Acquity UPLC Peptide BEH C18 column (50*2.1 mm; 1.7 um; 130A)(Waters Co.,Milford, MA, USA)
Retention time: 8.539901
Precursor type: [M+CH3COOH-H]-
Precursor m/z: 759.5615
m/z	relative intensity
78.715	0
78.959	32
96.967	0
122.985	3
167.521	1
168.042	91
169.076	0
255.234	0
269.242	0
279.222	0
281.238	0
293.248	1
293.272	0
294.211	0
307.257	0
389.126	0
392.226	0
404.257	0
429.285	0
447.29	3
447.31	1
483.256	0
492.851	0
495.965	0
513.221	0
551.492	0
577.764	0
596.435	0
596.46	0
612.453	0
614.401	0
614.447	6
614.495	0
640.447	0
640.487	0
669.489	0
672.445	0
683.305	0
683.348	3
683.375	2
683.402	0
684.982	0
685.165	0
685.28	0
685.39	0
685.52	999
685.602	0
686.467	0
686.505	1
686.528	0
699.545	0
700.453	1
700.483	5
700.511	1
713.533	0
741.519	0
759.45	0
759.475	0
759.499	1
759.521	4
759.555	20
