Mass spectrum: PC(15:0/12-HEPE); LC-ESI-QTOF; MS2
Name: PC(15:0/12-HEPE)
Class: Oxidized Phospholipid
Formula: C43H76NO9P
Exact mass: 782.055
SMILES: CCCCCCCCCCCCCCC(=O)OCC(COP([O-])(=O)OCC[N+](C)(C)C)OC(=O)CCC\C=C/C\C=C/C=C/C(O)C\C=C/C\C=C/CC
InChI: InChI=1S/C43H76NO9P/c1-6-8-10-12-14-15-16-17-18-22-26-30-34-42(46)50-38-41(39-52-54(48,49)51-37-36-44(3,4)5)53-43(47)35-31-27-23-20-19-21-25-29-33-40(45)32-28-24-13-11-9-7-2/h9,11,20-21,23-25,28-29,33,40-41,45H,6-8,10,12-19,22,26-27,30-32,34-39H2,1-5H3/b11-9-,23-20-,25-21-,28-24-,33-29+
Instrument: Acquity UPLC Peptide BEH C18 column (50 x 2.1 mm; 1.7 um), Sciex TripleTOF5600
Instrument type: LC-ESI-QTOF
Ms type: MS2
Ion mode: NEGATIVE
Collision energy: 30-50
Precursor m/z: 840.5396225
Precursor type: [M+CH3COOH-H]-
m/z	relative intensity
93.07526	28
109.1001	28
168.0368	28
168.0387	28
179.0957	28
179.1014	28
179.1033	42
179.1052	42
179.1071	56
179.1108	42
208.1096	28
208.1178	28
224.0672	28
224.0735	56
241.2011	42
241.2033	87
241.2055	101
241.2077	143
241.2099	115
241.2121	286
241.2143	213
241.2165	272
241.2187	171
241.2209	199
241.2231	143
241.2253	115
241.2274	115
241.2296	42
255.1995	28
255.2153	28
255.2175	28
255.2221	42
299.1901	42
299.1999	28
299.2047	56
299.2072	101
299.2121	28
317.1936	42
317.1961	28
317.1986	87
317.2011	244
317.2036	171
317.2061	199
317.2086	157
317.2112	244
317.2137	272
317.2162	373
317.2187	185
317.2212	101
317.2237	42
317.2262	171
317.2287	28
317.2313	28
317.2338	56
317.2413	28
331.214	28
377.207	28
377.2097	28
466.2735	28
466.2796	28
466.2827	87
466.2857	42
466.2888	42
466.2918	28
466.2979	157
466.304	42
466.3101	42
466.3284	28
695.3986	28
695.4059	28
695.4432	28
695.4655	28
721.4567	28
764.1099	28
764.1177	28
765.6279	28
766.4285	56
766.4363	28
766.448	59
766.4519	28
766.4558	216
766.4597	188
766.4636	289
766.4675	191
766.4714	292
766.4753	323
766.4792	500
766.4832	586
766.4871	483
766.491	514
766.4949	662
766.4988	999
766.5027	912
766.5066	828
766.5105	991
766.5144	606
766.5183	589
766.5222	561
766.5261	589
766.53	502
766.5339	410
766.5378	337
766.5417	219
766.5457	233
766.5496	101
766.5535	115
766.5613	42
766.5652	28
766.573	28
766.5808	28
767.5148	28
767.5187	42
780.4803	28
780.5158	28
780.5197	28
780.5789	28
781.4858	28
781.4897	28
781.4976	28
840.5026	28
840.5067	28
840.519	42
840.5231	42
840.5353	28
840.5394	87
840.5476	70
840.5517	70
840.5558	28
840.5599	70
840.564	42
840.5722	42
840.5763	42
840.5886	42
