Mass spectrum: PC(18:1/12-HETE); LC-ESI-QTOF; MS2
Name: PC(18:1/12-HETE)
Class: Oxidized Phospholipid
Formula: C46H82NO9P
Exact mass: 824.136
SMILES: CCCCCCCC\C=C/CCCCCCCC(=O)OCC(COP([O-])(=O)OCC[N+](C)(C)C)OC(=O)CCC\C=C/C\C=C/C=C/C(O)C\C=C/CCCCC
InChI: InChI=1S/C46H82NO9P/c1-6-8-10-12-14-15-16-17-18-19-20-21-25-29-33-37-45(49)53-41-44(42-55-57(51,52)54-40-39-47(3,4)5)56-46(50)38-34-30-26-23-22-24-28-32-36-43(48)35-31-27-13-11-9-7-2/h17-18,23-24,26-28,31-32,36,43-44,48H,6-16,19-22,25,29-30,33-35,37-42H2,1-5H3/b18-17-,26-23-,28-24-,31-27-,36-32+
Instrument: Acquity UPLC Peptide BEH C18 column (50 x 2.1 mm; 1.7 um), Sciex TripleTOF5600
Instrument type: LC-ESI-QTOF
Ms type: MS2
Ion mode: NEGATIVE
Collision energy: 30-50
Precursor m/z: 882.5865727
Precursor type: [M+CH3COOH-H]-
m/z	relative intensity
127.0702	8
135.1145	12
135.1177	8
139.116	8
163.1073	8
168.031	12
168.0365	8
168.0383	12
168.0401	8
168.0419	23
168.0474	8
168.0493	15
168.0511	12
177.1614	8
179.0935	12
179.0954	15
179.0992	15
179.101	23
179.1029	58
179.1048	62
179.1067	73
179.1086	27
179.1105	42
179.1124	35
179.1143	19
179.1162	35
179.118	8
180.1146	8
203.1745	8
203.1845	12
207.0969	12
208.1033	8
208.1053	8
208.1094	23
208.1114	12
208.1134	12
208.1155	27
208.1236	8
224.0522	8
224.0586	8
224.0628	8
224.0649	12
224.067	23
224.0691	8
224.0712	19
224.0733	8
224.0755	15
224.0797	8
224.0818	8
255.222	8
255.231	8
257.2162	15
257.2185	15
257.2208	12
257.223	27
257.2253	23
257.2275	35
257.2298	42
257.2321	23
257.2343	12
257.2366	23
257.2389	15
257.2411	19
257.2479	8
257.257	8
275.2306	8
275.2423	8
275.247	8
275.254	8
280.3832	12
280.3927	8
280.4447	8
281.0333	8
281.2155	8
281.2226	4
281.2249	32
281.2273	16
281.2297	28
281.2321	49
281.2344	69
281.2368	131
281.2392	205
281.2415	243
281.2439	252
281.2462	330
281.2486	298
281.251	269
281.2534	330
281.2557	255
281.2581	243
281.2605	144
281.2628	103
281.2652	74
281.2675	37
281.2699	37
281.2723	25
281.2747	21
281.277	8
281.2817	8
281.2841	8
281.7813	4
282.2457	4
282.2528	8
282.2552	8
282.2718	8
293.2141	8
301.1948	15
301.1972	8
301.2021	23
301.2046	15
301.207	27
301.2095	39
301.2119	42
301.2144	73
301.2168	50
301.2193	58
301.2217	58
301.2242	62
301.2266	46
301.2291	8
301.2315	12
301.2364	8
301.2413	8
301.3393	8
303.8797	8
318.2198	8
318.2399	8
318.25	8
319.0081	8
319.1997	8
319.2022	12
319.2047	25
319.2072	41
319.2097	42
319.2123	94
319.2148	124
319.2173	183
319.2198	229
319.2224	283
319.2249	341
319.2274	292
319.2299	342
319.2325	346
319.235	382
319.2375	216
319.24	191
319.2425	129
319.245	92
319.2476	71
319.2501	33
319.2526	29
319.2551	33
319.2577	38
319.2602	4
319.2652	8
319.2904	4
319.9841	4
320.2214	8
320.224	8
320.2265	8
320.229	4
320.2315	8
320.2341	4
320.2391	8
320.7115	4
333.233	8
333.2382	8
333.2536	8
417.2308	8
417.2481	8
417.251	12
435.2558	8
445.2712	8
488.3007	8
488.3069	12
488.31	12
488.3163	12
488.3194	12
488.3225	8
488.3256	15
488.3287	12
488.3318	12
488.335	8
506.2947	8
506.2979	8
506.3011	15
506.3043	23
506.3074	31
506.3106	39
506.3138	23
506.317	27
506.3201	89
506.3233	73
506.3265	46
506.3297	42
506.3329	46
506.336	62
506.3392	27
506.3423	46
506.3456	31
506.3487	23
506.3519	15
506.3551	23
506.3582	15
506.3709	8
526.2865	8
526.2962	8
526.2995	8
526.306	8
526.3092	8
526.3124	12
544.2861	8
544.2993	12
544.3026	15
544.3059	8
544.3125	15
544.3157	19
544.319	23
615.3916	8
615.4021	8
615.4196	8
696.4017	8
696.4128	8
696.4389	8
697.467	8
711.4618	12
737.4371	12
737.4448	12
737.4563	12
737.4678	15
737.4716	12
737.4755	23
737.4793	19
737.4831	8
737.4869	8
737.4908	31
737.4946	15
737.4984	31
737.5023	8
737.5061	15
737.5099	8
737.5138	15
737.5176	8
737.5253	8
738.4644	8
763.4844	8
763.4883	15
763.5	8
763.5156	8
763.5195	8
763.5273	8
763.535	8
782.5298	8
782.5377	8
805.9785	12
806.0065	15
806.0345	8
807.321	8
808.4519	8
808.4639	12
808.468	12
808.492	17
808.496	14
808.5001	18
808.5041	43
808.5081	127
808.5121	142
808.5161	159
808.5201	261
808.5241	399
808.5281	500
808.5322	447
808.5361	645
808.5402	652
808.5442	749
808.5482	862
808.5522	817
808.5562	999
808.5602	903
808.5643	942
808.5682	859
808.5723	846
808.5763	858
808.5803	749
808.5843	631
808.5883	514
808.5923	421
808.5963	253
808.6003	221
808.6044	164
808.6084	132
808.6124	52
808.6164	56
808.6204	39
808.6244	25
808.6284	20
808.6324	15
808.6365	20
808.6404	21
808.6565	11
808.6605	5
808.8812	5
808.9294	6
809.0458	5
809.4993	8
809.5114	12
809.5154	8
809.5275	8
809.5314	27
809.5355	15
809.5395	23
809.5435	23
809.5475	27
809.5515	27
809.5555	23
809.5596	19
809.5636	27
809.5676	39
809.5716	27
809.5756	23
809.5797	39
809.5836	8
809.5876	12
809.5917	8
809.5997	12
809.6037	8
809.6118	8
822.5382	8
822.5463	19
822.5504	12
822.5544	12
822.5625	8
822.5706	15
822.5746	8
822.5787	15
822.5827	12
822.5948	8
822.5989	8
823.4773	8
823.4854	8
823.4976	8
823.5137	19
823.5219	19
823.5259	8
823.5299	19
823.534	8
823.538	39
823.5421	15
823.5461	31
823.5542	12
882.4791	8
882.5043	19
882.5168	12
882.5211	12
882.5253	19
882.5295	19
882.5336	19
882.5378	8
882.542	15
882.5462	23
882.5504	23
882.5546	39
882.5588	43
882.563	58
882.5672	90
882.5714	59
882.5756	74
882.5798	70
882.5839	70
882.5881	70
882.5923	71
882.5965	63
882.6007	51
882.6049	79
882.6091	67
882.6133	51
882.6175	74
882.6216	51
882.6259	46
882.6301	58
882.6342	31
882.6384	15
882.6426	31
882.6468	12
882.651	15
882.6552	15
882.6678	8
883.5567	8
883.5693	8
883.5818	8
