Mass spectrum: PE(18:2e/17-HDoHE); LC-ESI-QTOF; MS2
Name: PE(18:2e/17-HDoHE)
Class: Oxidized Phospholipid
Formula: C45H76NO8P
Exact mass: 790.078
SMILES: CCCCCCCCCCCCC\C=C/C\C=C/OCC(COP(O)(=O)OCCN)OC(=O)CC\C=C/C\C=C/C\C=C/C\C=C/C=C\C(O)C\C=C/CC
InChI: InChI=1S/C45H76NO8P/c1-3-5-7-8-9-10-11-12-13-14-18-21-24-27-30-34-39-51-41-44(42-53-55(49,50)52-40-38-46)54-45(48)37-33-29-26-23-20-17-15-16-19-22-25-28-32-36-43(47)35-31-6-4-2/h6,16-17,19-20,24-29,31-32,34,36,39,43-44,47H,3-5,7-15,18,21-23,30,33,35,37-38,40-42,46H2,1-2H3,(H,49,50)/b19-16-,20-17-,27-24-,28-25-,29-26-,31-6-,36-32-,39-34-
Instrument: Acquity UPLC Peptide BEH C18 column (50 x 2.1 mm; 1.7 um), Sciex TripleTOF5600
Instrument type: LC-ESI-QTOF
Ms type: MS2
Ion mode: NEGATIVE
Collision energy: 30-50
Precursor m/z: 788.5235789
Precursor type: [M-H]-
m/z	relative intensity
121.0987	36
133.1036	36
133.1117	36
140.0066	36
140.0099	56
140.0149	36
159.1229	36
173.1321	36
173.1377	36
175.1411	36
189.1695	36
196.0266	36
196.0305	74
196.0345	92
196.0384	36
201.1564	56
201.1584	92
201.1604	36
201.1624	183
201.1644	147
201.1664	165
201.1685	110
201.1725	74
201.1745	56
201.1845	36
227.1826	36
229.154	36
229.1647	36
245.1371	36
245.1416	36
245.1438	74
245.146	74
245.1482	74
245.1504	74
245.1526	74
245.1548	92
245.157	110
245.1592	92
245.1615	56
245.1637	36
245.1659	36
245.1681	36
265.2546	36
265.2569	56
274.1406	56
274.15	36
274.1523	36
274.157	56
274.1617	36
281.2104	56
281.2128	56
281.2152	74
281.2176	128
281.2199	128
281.2223	165
281.2247	147
281.227	165
281.2294	74
281.2318	110
281.2341	110
281.2365	128
281.2389	74
281.2412	183
281.2436	36
281.2459	74
281.2483	36
281.2531	36
283.2537	36
283.2561	36
283.2609	36
283.268	36
290.0932	56
290.0956	36
299.2337	36
299.2434	36
299.2459	36
325.2091	74
325.2116	110
325.2142	110
325.2167	165
325.2193	92
325.2218	128
325.2244	74
325.2269	56
327.2325	38
343.1963	38
343.2041	129
343.2094	203
343.212	221
343.2146	259
343.2172	295
343.2198	352
343.2224	442
343.225	424
343.2277	367
343.2303	277
343.2329	311
343.2355	257
343.2381	165
343.2407	183
343.2433	183
343.246	74
343.2486	92
343.2512	56
343.2538	36
343.2564	36
344.2191	36
344.24	36
417.2468	36
419.261	36
437.276	36
444.255	36
444.2758	56
444.2817	36
444.2847	92
444.2877	147
444.2907	56
444.2936	92
444.2966	110
444.2996	56
444.3026	36
444.3264	36
460.8591	36
462.2657	56
462.2687	56
462.2717	110
462.2747	128
462.2778	128
462.2808	74
462.2839	183
462.2869	128
462.2899	128
462.293	293
462.296	385
462.299	219
462.3021	275
462.3051	257
462.3081	239
462.3112	147
462.3142	147
462.3172	128
462.3203	36
462.3233	36
462.3263	56
674.2256	36
701.5123	36
701.5309	36
758.4125	56
758.4164	36
758.4203	56
758.4319	36
758.4436	36
758.91	36
787.2294	38
788.4333	36
788.4452	56
788.4492	36
788.4531	56
788.4571	92
788.4611	36
788.465	93
788.469	205
788.473	133
788.4769	248
788.4809	59
788.4849	172
788.4888	198
788.4927	534
788.4967	388
788.5007	474
788.5046	898
788.5086	744
788.5126	961
788.5165	785
788.5205	967
788.5245	609
788.5284	943
788.5324	844
788.5363	864
788.5403	999
788.5443	685
788.5482	722
788.5522	765
788.5562	647
788.5601	372
788.5641	293
788.5681	428
788.572	155
788.576	253
788.5799	135
788.5839	97
788.5878	56
788.5918	43
788.5958	38
788.6037	20
788.6077	79
788.6196	20
789.5153	36
789.5311	36
789.5351	56
789.5391	36
789.543	36
789.5589	36
789.5629	36
835.3052	36
835.3215	36
