Mass spectrum: PI 38:6; LC-ESI-QTOF; MS2
Name: PI 38:6
Class: PI
Formula: C47H79O13P
Exact mass: 883.1119999999999
SMILES: CCCCCCCC\C=C/CCCCCCCC(=O)OCC(COP(O)(=O)OC1C(O)C(O)C(O)C(O)C1O)OC(=O)CCC\C=C/C\C=C/C\C=C/C\C=C/C\C=C/CC
InChI: InChI=1S/C47H79O13P/c1-3-5-7-9-11-13-15-17-19-20-22-24-26-28-30-32-34-36-41(49)59-39(38-58-61(55,56)60-47-45(53)43(51)42(50)44(52)46(47)54)37-57-40(48)35-33-31-29-27-25-23-21-18-16-14-12-10-8-6-4-2/h5,7,11,13,17-19,21-22,24,28,30,39,42-47,50-54H,3-4,6,8-10,12,14-16,20,23,25-27,29,31-38H2,1-2H3,(H,55,56)/b7-5-,13-11-,19-17-,21-18-,24-22-,30-28-
Instrument: AB Sciex TripleTOF 5600+ system (Q-TOF) equipped with a DuoSpray ion source
Instrument type: LC-ESI-QTOF
Ms type: MS2
Ion mode: NEGATIVE
Collision energy: 45V
Column name: Acquity UPLC Peptide BEH C18 column (50*2.1 mm; 1.7 um; 130A)(Waters Co.,Milford, MA, USA)
Retention time: 8.1139
Precursor type: [M-H]-
Precursor m/z: 881.5175
m/z	relative intensity
152.994	22
168.048	8
223.004	13
241.014	117
257.226	17
281.246	108
283.268	19
301.213	76
415.225	8
417.234	57
437.21	8
519.859	8
577.267	8
579.29	67
597.305	22
807.523	17
821.503	8
863.513	13
875.9	9
881.511	999
882.519	13
