Mass spectrum: PE(16:1e/10-HDoHE); LC-ESI-QTOF; MS2
Name: PE(16:1e/10-HDoHE)
Class: Oxidized Phospholipid
Formula: C43H74NO8P
Exact mass: 764.04
SMILES: CCCCCCCCCCCCCC\C=C/OCC(COP(O)(=O)OCCN)OC(=O)CC\C=C/C\C=C/CC(O)\C=C\C=C/C\C=C/C\C=C/CC
InChI: InChI=1S/C43H74NO8P/c1-3-5-7-9-11-13-15-16-17-18-20-24-28-32-37-49-39-42(40-51-53(47,48)50-38-36-44)52-43(46)35-31-27-23-22-26-30-34-41(45)33-29-25-21-19-14-12-10-8-6-4-2/h6,8,12,14,21,23,25-27,29-30,32-33,37,41-42,45H,3-5,7,9-11,13,15-20,22,24,28,31,34-36,38-40,44H2,1-2H3,(H,47,48)/b8-6-,14-12-,25-21-,27-23-,30-26-,33-29+,37-32-
Instrument: Acquity UPLC Peptide BEH C18 column (50 x 2.1 mm; 1.7 um), Sciex TripleTOF5600
Instrument type: LC-ESI-QTOF
Ms type: MS2
Ion mode: NEGATIVE
Collision energy: 30-50
Precursor m/z: 762.5079288
Precursor type: [M-H]-
m/z	relative intensity
78.95635	17
78.9576	21
78.95886	21
78.96011	24
78.96136	7
78.96262	24
78.96387	24
78.96512	14
91.06016	7
93.06921	7
93.07057	7
93.07602	7
93.07874	7
95.05066	7
107.0912	10
109.098	7
109.0995	7
109.1054	7
109.1143	7
119.0817	7
119.0863	7
119.0878	7
121.0653	7
121.07	7
121.0715	10
121.1041	10
133.0979	7
133.1012	10
133.1045	10
133.1077	7
135.0749	14
135.0815	10
135.0847	7
135.0864	7
135.1142	10
135.1159	17
135.1175	7
135.1192	7
135.1208	7
135.1257	10
137.0912	10
137.0928	14
137.0945	17
137.0961	21
137.0978	28
137.0994	10
137.1011	17
140.0025	7
140.0042	7
140.0058	14
140.0075	31
140.0092	24
140.0109	10
140.0125	35
140.0142	21
140.0159	10
140.0175	21
140.0192	10
140.0209	7
140.0259	7
143.0946	7
145.1034	7
149.1302	14
149.1319	7
149.1336	7
149.1388	7
151.1113	7
152.6258	7
152.9974	7
153.0008	7
153.0026	7
153.0724	4
153.0742	4
153.0759	4
153.0777	11
153.0794	22
153.0811	68
153.0829	79
153.0846	87
153.0864	152
153.0881	213
153.0899	237
153.0916	257
153.0934	276
153.0951	233
153.0968	199
153.0986	119
153.1003	96
153.1021	54
153.1038	42
153.1056	12
153.1073	16
153.1091	23
153.1108	4
153.116	4
153.1405	4
153.6578	4
153.8415	4
154.1146	4
158.1076	7
159.1133	7
159.6281	7
160.6297	7
160.8444	7
161.1201	14
161.1219	25
161.1237	21
161.1255	36
161.1273	57
161.1291	60
161.1308	50
161.1326	85
161.1344	64
161.1362	85
161.138	67
161.1398	25
161.1416	25
161.1434	18
161.1452	11
161.147	4
161.1488	11
161.1953	4
163.0728	14
163.0746	14
163.0764	10
163.0782	7
163.08	7
163.0818	10
163.1539	10
175.1386	7
175.1442	7
175.1479	7
175.1498	10
175.1516	7
175.1535	10
179.0289	17
179.0365	7
180.0461	7
180.0499	7
180.5216	7
180.55	7
181.0718	10
181.0737	10
181.0756	14
181.0775	21
181.0794	74
181.0813	67
181.0832	99
181.0851	128
181.087	124
181.0889	81
181.0908	116
181.0927	95
181.0946	39
181.0965	31
181.0984	35
181.1003	21
181.1022	7
181.104	11
181.106	7
181.1078	10
181.1116	4
189.1183	7
189.1203	17
189.1222	14
189.1242	10
189.1261	7
189.13	14
189.1319	7
189.1339	7
189.1377	7
189.1591	10
189.161	10
189.163	7
189.1649	7
189.1669	7
189.1707	10
190.1248	10
190.1267	17
190.1287	14
190.1306	31
190.1326	24
190.1345	24
190.1365	48
190.1384	35
190.1404	31
190.1423	31
190.1442	7
191.1417	7
191.1456	7
196.0239	21
196.0259	17
196.0279	10
196.0299	28
196.0318	45
196.0338	38
196.0358	41
196.0378	48
196.0397	45
196.0417	38
196.0437	24
196.0457	24
196.0476	28
196.0516	10
197.1377	7
198.1355	7
198.1474	10
201.1678	7
203.18	7
205.1497	7
227.1692	10
227.1713	14
227.1734	24
227.1756	35
227.1777	17
227.1798	24
227.182	38
227.1841	21
227.1862	48
227.1883	24
227.1905	21
227.1947	7
227.1969	7
227.2011	7
239.2257	7
239.2279	21
239.2301	17
239.2322	41
239.2344	17
239.2366	28
239.2388	17
239.241	24
239.2431	17
239.2453	21
239.2475	7
239.2497	7
239.2519	7
239.2541	14
244.181	7
247.1688	7
247.1732	7
253.1787	7
253.1989	7
253.2213	7
253.2348	7
254.208	7
255.2123	7
255.2281	7
255.2303	7
255.2348	10
271.2115	7
280.3329	7
280.3447	14
280.3636	7
280.4297	7
281.1674	7
281.1911	7
281.1982	21
281.2006	14
281.2029	32
281.2053	36
281.2076	15
281.21	43
281.2124	72
281.2148	83
281.2171	109
281.2195	164
281.2218	176
281.2242	220
281.2266	220
281.2289	235
281.2313	213
281.2337	180
281.2361	173
281.2384	110
281.2408	95
281.2431	73
281.2455	50
281.2479	22
281.2502	11
281.2526	22
281.255	11
281.2597	4
282.2236	7
282.2284	7
282.2331	4
282.2355	4
282.2473	7
283.239	7
297.2206	7
299.2089	7
299.2137	10
299.2162	10
299.2186	10
299.2211	17
299.2235	17
299.226	14
299.2284	7
299.2308	38
299.2333	31
299.2357	48
299.2382	38
299.2406	55
299.243	21
299.2455	31
299.2479	24
299.2504	17
299.2528	14
299.2552	7
299.2601	7
305.1296	7
315.2282	10
315.2357	7
317.1124	7
324.2274	7
324.9773	7
325.1859	7
325.191	10
325.1935	4
325.196	14
325.1986	32
325.2011	25
325.2037	64
325.2062	79
325.2088	93
325.2113	107
325.2139	135
325.2164	135
325.219	117
325.2215	128
325.2241	96
325.2266	89
325.2291	64
325.2317	28
325.2342	54
325.2368	21
325.2393	14
325.2419	7
325.2444	7
326.2019	4
326.2274	7
326.5486	4
331.6987	4
342.1617	7
342.1748	7
343	7
343.1882	7
343.196	12
343.1987	18
343.2013	19
343.2039	52
343.2065	86
343.2091	98
343.2117	94
343.2143	161
343.2169	218
343.2196	284
343.2222	310
343.2248	412
343.2274	305
343.23	349
343.2326	314
343.2353	276
343.2379	254
343.2405	174
343.2431	178
343.2457	114
343.2483	53
343.2509	19
343.2535	30
343.2562	27
343.2588	19
343.264	12
343.2666	4
343.2692	4
343.2745	7
343.5647	4
344.2293	4
344.2476	4
344.3471	7
347.6225	4
375.2085	7
375.2139	7
375.2194	7
375.2221	10
375.2276	7
375.2331	21
375.2358	10
375.2385	7
375.2413	10
375.244	14
375.2577	7
393.2342	7
393.2454	7
409.2301	7
409.233	7
416.9904	7
417.2814	7
417.7917	7
418.2418	7
418.2446	21
418.2475	7
418.2504	14
418.2533	63
418.2562	39
418.2591	98
418.262	112
418.2648	88
418.2677	102
418.2706	106
418.2735	131
418.2764	142
418.2793	92
418.2821	67
418.285	64
418.2879	46
418.2908	39
418.2937	39
418.2966	21
418.2995	10
418.3023	4
418.3052	14
418.311	10
419.2754	7
423.5506	7
424.3176	7
434.9218	7
435.2514	7
435.7932	7
435.9052	7
436.079	7
436.2352	7
436.2381	18
436.244	4
436.2469	7
436.2499	34
436.2529	29
436.2558	52
436.2588	99
436.2617	71
436.2646	189
436.2676	217
436.2705	243
436.2735	296
436.2764	311
436.2794	322
436.2823	307
436.2853	401
436.2882	366
436.2912	347
436.2941	352
436.2971	247
436.3	197
436.3029	120
436.3059	143
436.3088	85
436.3118	58
436.3148	16
436.3177	23
436.3206	22
436.3236	4
436.3295	8
436.3354	9
436.3589	4
437.2938	11
437.3292	4
438.3005	7
522.2755	7
688.4649	7
688.4945	14
688.5056	10
688.5463	7
744.4822	7
744.5245	7
760.0779	14
760.0974	7
760.113	10
760.1168	7
760.1207	7
760.1246	7
760.1285	10
760.1402	7
761.4556	7
762.2228	8
762.4215	10
762.4254	7
762.4488	4
762.4527	13
762.4566	56
762.4605	48
762.4644	106
762.4683	91
762.4722	156
762.4761	168
762.48	326
762.4839	383
762.4877	539
762.4916	599
762.4955	711
762.4995	757
762.5034	872
762.5072	845
762.5111	981
762.515	871
762.5189	979
762.5228	999
762.5267	778
762.5306	814
762.5345	702
762.5384	653
762.5423	440
762.5462	307
762.5501	176
762.554	169
762.5579	172
762.5618	65
762.5657	52
762.5696	43
762.5735	23
762.5774	5
762.5812	33
762.5851	5
762.5891	4
762.593	9
762.5969	22
762.7839	5
763.0099	5
763.0294	7
763.4504	4
763.4738	7
763.4777	7
763.4855	12
763.5011	38
763.505	17
763.5089	14
763.5128	38
763.5167	28
763.5206	24
763.5245	24
763.5284	17
763.5323	21
763.5362	21
763.5401	14
763.5439	28
763.5557	10
763.5596	7
763.5635	7
763.5674	7
766.1428	7
