Mass spectrum: PC(14:0/12-HETE); LC-ESI-QTOF; MS2
Name: PC(14:0/12-HETE)
Class: Oxidized Phospholipid
Formula: C42H76NO9P
Exact mass: 770.044
SMILES: CCCCCCCCCCCCCC(=O)OCC(COP([O-])(=O)OCC[N+](C)(C)C)OC(=O)CCC\C=C/C\C=C/C=C/C(O)C\C=C/CCCCC
InChI: InChI=1S/C42H76NO9P/c1-6-8-10-12-14-15-16-17-21-25-29-33-41(45)49-37-40(38-51-53(47,48)50-36-35-43(3,4)5)52-42(46)34-30-26-22-19-18-20-24-28-32-39(44)31-27-23-13-11-9-7-2/h19-20,22-24,27-28,32,39-40,44H,6-18,21,25-26,29-31,33-38H2,1-5H3/b22-19-,24-20-,27-23-,32-28+
Instrument: Acquity UPLC Peptide BEH C18 column (50 x 2.1 mm; 1.7 um), Sciex TripleTOF5600
Instrument type: LC-ESI-QTOF
Ms type: MS2
Ion mode: NEGATIVE
Collision energy: 30-50
Precursor m/z: 828.5396225
Precursor type: [M+CH3COOH-H]-
m/z	relative intensity
78.96141	24
153.0952	24
168.0436	24
179.099	36
179.1008	24
179.1046	111
179.1065	48
179.1084	36
179.1103	48
179.1122	36
179.1141	24
179.116	36
208.1091	36
208.1152	24
224.0688	24
224.0709	48
224.073	24
227.1843	48
227.1864	24
227.1886	36
227.1907	48
227.1928	123
227.1949	111
227.1971	258
227.1992	210
227.2013	294
227.2035	270
227.2056	210
227.2077	198
227.2098	48
227.212	75
227.2141	24
227.2162	36
227.2226	48
227.2247	36
253.2104	24
253.2149	24
255.2283	24
255.2328	24
255.2351	36
255.2374	60
255.2396	24
255.2531	24
257.2159	24
257.2181	24
257.2249	48
257.2272	48
257.2294	48
257.2339	24
257.2362	24
275.2372	24
281.2529	48
301.2016	24
301.209	75
301.2114	48
301.2139	60
301.2163	48
301.2188	24
301.2212	75
301.2237	36
301.2286	36
301.2359	36
319.1991	24
319.2042	24
319.2067	75
319.2092	99
319.2117	111
319.2143	135
319.2168	171
319.2193	147
319.2218	210
319.2243	282
319.2268	258
319.2294	183
319.2319	234
319.2344	282
319.2369	222
319.2395	159
319.242	111
319.2445	99
319.247	48
319.2495	36
319.2596	24
319.2621	24
320.2285	24
434.2693	24
452.2526	24
452.2616	24
452.2646	60
452.2676	48
452.2706	60
452.2736	48
452.2766	36
452.2796	36
452.2826	60
452.2856	99
452.2886	24
452.2916	36
452.2946	24
452.2976	36
452.3006	36
452.3036	24
683.4216	24
683.429	36
683.4326	24
683.4584	24
683.4732	36
746.7062	24
754.4335	36
754.4373	24
754.4451	48
754.449	87
754.4528	239
754.4567	162
754.4606	138
754.4645	125
754.4683	302
754.4722	251
754.4761	292
754.48	393
754.4838	292
754.4877	485
754.4916	654
754.4955	565
754.4993	869
754.5032	830
754.5071	999
754.511	666
754.5148	690
754.5187	731
754.5226	895
754.5265	644
754.5303	565
754.5342	577
754.5381	463
754.542	331
754.5458	176
754.5497	179
754.5536	140
754.5575	75
754.5613	135
754.5652	60
754.5691	24
754.573	39
754.5768	39
755.4918	24
755.5073	36
755.5112	36
755.5384	36
755.5461	24
768.5084	24
768.5358	24
768.5554	24
769.4944	24
769.5101	24
770.4498	24
781.4903	24
781.51	24
781.5219	48
781.5376	24
781.5416	24
781.5455	24
828.3819	24
828.455	36
828.4875	24
828.4956	24
828.5078	48
828.5159	36
828.52	48
828.524	60
828.5281	60
828.5321	48
828.5362	36
828.5402	36
828.5443	111
828.5484	87
828.5524	48
828.5565	75
828.5605	60
828.5646	48
828.5687	36
828.5728	48
828.5809	24
828.6174	36
