Mass spectrum: PE 39:4; LC-ESI-QTOF; MS2
Name: PE 39:4
Class: PE
Formula: C44H80NO8P
Exact mass: 782.0989999999998
SMILES: CCCCCCCCCCCCCCCCCCC(=O)OCC(COP(O)(=O)OCCN)OC(=O)CCCCCC\C=C/C\C=C/C\C=C/C\C=C/CC
InChI: InChI=1S/C44H80NO8P/c1-3-5-7-9-11-13-15-17-19-21-23-25-27-29-31-33-35-37-44(47)53-42(41-52-54(48,49)51-39-38-45)40-50-43(46)36-34-32-30-28-26-24-22-20-18-16-14-12-10-8-6-4-2/h5,7,11,13,17,19,23,25,42H,3-4,6,8-10,12,14-16,18,20-22,24,26-41,45H2,1-2H3,(H,48,49)/b7-5-,13-11-,19-17-,25-23-
Instrument: AB Sciex TripleTOF 5600+ system (Q-TOF) equipped with a DuoSpray ion source
Instrument type: LC-ESI-QTOF
Ms type: MS2
Ion mode: NEGATIVE
Collision energy: 45V
Column name: Acquity UPLC Peptide BEH C18 column (50*2.1 mm; 1.7 um; 130A)(Waters Co.,Milford, MA, USA)
Retention time: 10.89746
Precursor type: [M-H]-
Precursor m/z: 780.5484
m/z	relative intensity
78.96	5
140.007	18
196.039	42
205.193	18
214.052	10
218.426	5
222.076	5
259.239	60
259.252	33
283.213	5
297.278	519
302.037	5
302.972	5
303.232	999
303.306	3
331.26	11
332.27	5
333.279	10
446.298	15
464.315	20
476.297	15
482.268	12
494.326	79
500.274	20
603.55	13
647.017	5
720.545	9
778.094	5
780.503	69
780.544	755
780.581	121
781.005	5
781.547	8
