Mass spectrum: Cer[NP] t44:0; LC-ESI-QTOF; MS2
Name: Cer[NP] t44:0
Class: Cer_NP
Formula: C44H89NO4
Exact mass: 696.1989999999998
SMILES: CCCCCCCCCCCCCCCCCCCCCCCC(=O)NC(CO)C(O)C(O)CCCCCCCCCCCCCCCC
InChI: InChI=1S/C44H89NO4/c1-3-5-7-9-11-13-15-17-19-20-21-22-23-24-25-27-29-31-33-35-37-39-43(48)45-41(40-46)44(49)42(47)38-36-34-32-30-28-26-18-16-14-12-10-8-6-4-2/h41-42,44,46-47,49H,3-40H2,1-2H3,(H,45,48)
Instrument: AB Sciex TripleTOF 5600+ system (Q-TOF) equipped with a DuoSpray ion source
Instrument type: LC-ESI-QTOF
Ms type: MS2
Ion mode: NEGATIVE
Collision energy: 45V
Column name: Acquity UPLC Peptide BEH C18 column (50*2.1 mm; 1.7 um; 130A)(Waters Co.,Milford, MA, USA)
Retention time: 13.38844
Precursor type: [M+CH3COOH-H]-
Precursor m/z: 754.688
m/z	relative intensity
237.219	9
246.979	13
253.254	11
266.252	3
267.232	13
267.27	4
283.265	22
295.263	135
300.986	7
307.264	14
308.287	12
308.303	8
312.291	10
328.991	10
338.353	8
339.336	6
349.347	21
363.364	6
364.357	6
366.362	25
366.382	17
367.353	130
370.328	12
377.364	8
380.396	16
381.369	15
382.992	7
392.363	10
392.385	46
394.38	7
395.39	8
404.385	12
406.36	6
406.393	11
406.414	8
407.384	7
407.412	23
408.364	9
408.38	58
408.394	17
410.396	259
410.981	6
422.397	180
422.425	11
425.377	6
436.411	13
438.426	26
438.445	6
450.428	21
529.51	6
547.004	4
615.615	9
628.635	14
631.596	5
633.63	7
645.652	4
646.636	16
650.627	5
658.62	21
658.642	32
658.672	16
662.613	9
662.637	20
662.671	6
664.65	9
676.638	17
676.654	10
676.674	12
692.408	4
692.494	5
692.647	15
693.65	21
694.591	12
694.637	328
694.66	999
694.682	222
694.742	5
694.886	2
695.655	2
721.683	6
754.623	4
754.703	4
