Mass spectrum: PS(18:1/9-HODE); LC-ESI-QTOF; MS2
Name: PS(18:1/9-HODE)
Class: Oxidized Phospholipid
Formula: C42H76NO11P
Exact mass: 802.042
SMILES: CCCCCCCC\C=C/CCCCCCCC(=O)OCC(COP(O)(=O)OCC(N)C(O)=O)OC(=O)CCCCCCCC(O)\C=C\C=C/CCCCC
InChI: InChI=1S/C42H76NO11P/c1-3-5-7-9-11-12-13-14-15-16-17-18-20-24-28-32-40(45)51-34-38(35-52-55(49,50)53-36-39(43)42(47)48)54-41(46)33-29-25-21-23-27-31-37(44)30-26-22-19-10-8-6-4-2/h14-15,19,22,26,30,37-39,44H,3-13,16-18,20-21,23-25,27-29,31-36,43H2,1-2H3,(H,47,48)(H,49,50)/b15-14-,22-19-,30-26+
Instrument: Acquity UPLC Peptide BEH C18 column (50 x 2.1 mm; 1.7 um), Sciex TripleTOF5600
Instrument type: LC-ESI-QTOF
Ms type: MS2
Ion mode: NEGATIVE
Collision energy: 30-50
Precursor m/z: 800.5083228
Precursor type: [M-H]-
m/z	relative intensity
78.95513	53
78.95638	53
78.95889	82
78.96014	53
78.9614	82
152.9901	82
152.9918	162
152.9935	244
152.9953	162
152.997	82
152.9988	53
153.0005	53
153.0075	53
171.1007	82
277.2062	53
277.2086	109
277.2109	82
277.2133	53
277.2156	53
277.2203	82
277.225	53
281.2238	53
281.2308	82
281.2356	109
281.2379	82
281.2403	162
281.2427	244
281.245	244
281.2474	218
281.2498	407
281.2521	353
281.2545	218
281.2569	162
281.2592	82
281.2616	109
281.264	53
281.2663	53
281.2711	53
281.2758	53
295.2097	82
295.2121	109
295.2145	189
295.2169	136
295.2194	109
295.2218	353
295.2242	407
295.2266	407
295.2291	324
295.2315	380
295.2339	218
295.2363	298
295.2387	271
295.2412	136
295.246	109
295.2484	53
346.9867	53
417.2083	53
417.2285	136
417.2314	82
417.2342	53
417.2371	162
417.24	136
417.2429	82
417.2458	53
417.2486	53
417.2515	82
417.2573	109
431.192	136
431.1949	53
431.2007	136
431.2037	162
431.2066	136
431.2095	162
431.2125	218
431.2154	353
431.2183	324
431.2213	271
431.2242	298
431.2271	298
431.23	324
431.233	189
431.2359	162
431.2388	136
431.2418	109
431.2447	53
431.2476	82
431.2564	53
435.2506	53
435.2536	53
435.2565	109
435.2712	53
435.2742	53
449.2079	53
449.2139	82
449.2229	53
449.2289	82
449.2349	53
449.2379	136
449.2409	82
449.2438	82
449.2468	82
449.2528	53
674.9775	56
713.365	56
713.414	53
713.4291	218
713.4329	53
713.4366	53
713.4404	138
713.4442	303
713.4479	274
713.4517	279
713.4554	473
713.4592	306
713.463	332
713.4668	306
713.4705	781
713.4743	887
713.4781	529
713.4819	946
713.4856	999
713.4894	638
713.4932	391
713.4969	585
713.5007	444
713.5045	444
713.5082	279
713.512	165
713.5157	56
713.5195	223
713.5233	53
713.5271	82
713.5308	53
713.5346	56
713.5384	82
800.4507	53
800.4547	82
800.4627	53
800.4667	109
800.4747	136
800.4787	244
800.4827	218
800.4867	218
800.4907	383
800.4947	218
800.4987	383
800.5026	383
800.5067	462
800.5106	353
800.5146	654
800.5186	489
800.5226	465
800.5266	460
800.5306	380
800.5346	244
800.5386	298
800.5425	298
800.5466	82
800.5505	136
800.5546	189
800.5625	109
800.5785	82
801.1335	53
