Mass spectrum: PI 38:5; LC-ESI-QTOF; MS2
Name: PI 38:5
Class: PI
Formula: C47H81O13P
Exact mass: 885.1279999999999
SMILES: CCCCCCCC\C=C/CCCCCCCC(=O)OCC(COP(O)(=O)OC1C(O)C(O)C(O)C(O)C1O)OC(=O)CCCCCC\C=C/C\C=C/C\C=C/C\C=C/CC
InChI: InChI=1S/C47H81O13P/c1-3-5-7-9-11-13-15-17-19-20-22-24-26-28-30-32-34-36-41(49)59-39(38-58-61(55,56)60-47-45(53)43(51)42(50)44(52)46(47)54)37-57-40(48)35-33-31-29-27-25-23-21-18-16-14-12-10-8-6-4-2/h5,7,11,13,17-19,21-22,24,39,42-47,50-54H,3-4,6,8-10,12,14-16,20,23,25-38H2,1-2H3,(H,55,56)/b7-5-,13-11-,19-17-,21-18-,24-22-
Instrument: AB Sciex TripleTOF 5600+ system (Q-TOF) equipped with a DuoSpray ion source
Instrument type: LC-ESI-QTOF
Ms type: MS2
Ion mode: NEGATIVE
Collision energy: 45V
Column name: Acquity UPLC Peptide BEH C18 column (50*2.1 mm; 1.7 um; 130A)(Waters Co.,Milford, MA, USA)
Retention time: 8.353221
Precursor type: [M-H]-
Precursor m/z: 883.532
m/z	relative intensity
78.958	4
96.968	2
134.982	0
152.993	16
153.999	0
171.006	0
177.095	0
204.994	0
205.193	2
222.999	24
231.208	0
240.256	0
240.273	0
241.011	82
255.223	0
259.021	7
259.242	10
280.373	0
281.247	123
282.253	0
283.232	0
283.251	0
284.25	0
285.216	0
285.229	0
287.28	0
297.035	16
302.292	0
303.231	124
303.276	0
315.044	5
327.231	1
328.226	0
328.239	1
329.252	0
331.263	10
332.263	7
417.241	59
417.285	0
435.225	0
435.25	5
439.222	9
457.239	0
463.223	0
464.218	0
467.258	5
468.256	5
481.232	0
481.641	0
482.226	0
485.271	3
486.238	0
486.264	0
486.284	0
505.253	0
523.265	0
527.242	0
577.461	0
579.234	0
579.292	79
580.296	0
597.297	19
601.254	2
601.277	11
601.296	2
619.277	1
619.299	0
619.321	0
721.437	0
721.463	0
721.487	0
723.489	0
795.461	0
795.484	0
795.508	0
795.542	0
796.432	0
796.468	2
796.499	16
798.63	0
801.531	0
823.64	0
851.485	0
880.646	0
880.688	0
880.702	0
880.736	1
880.769	1
880.8	0
880.853	0
881.516	0
882.472	0
882.588	0
883.38	0
883.436	0
883.531	999
883.614	1
884.033	0
884.267	0
884.507	1
884.536	4
884.56	1
