Mass spectrum: PC(16:1/11,12-EpETE); LC-ESI-QTOF; MS2
Name: PC(16:1/11,12-EpETE)
Class: Oxidized Phospholipid
Formula: C44H76NO9P
Exact mass: 794.066
SMILES: CCCCCC\C=C/CCCCCCCC(=O)OCC(COP([O-])(=O)OCC[N+](C)(C)C)OC(=O)CCC\C=C/C\C=C/CC1OC1C\C=C/C\C=C/CC
InChI: InChI=1S/C44H76NO9P/c1-6-8-10-12-14-15-16-17-18-19-22-26-30-34-43(46)50-38-40(39-52-55(48,49)51-37-36-45(3,4)5)53-44(47)35-31-27-23-20-21-25-29-33-42-41(54-42)32-28-24-13-11-9-7-2/h9,11,15-16,20,23-25,28-29,40-42H,6-8,10,12-14,17-19,21-22,26-27,30-39H2,1-5H3/b11-9-,16-15-,23-20-,28-24-,29-25-
Instrument: Acquity UPLC Peptide BEH C18 column (50 x 2.1 mm; 1.7 um), Sciex TripleTOF5600
Instrument type: LC-ESI-QTOF
Ms type: MS2
Ion mode: NEGATIVE
Collision energy: 30-50
Precursor m/z: 852.5396225
Precursor type: [M+CH3COOH-H]-
m/z	relative intensity
78.96013	12
109.104	17
135.1193	12
135.1225	12
149.0941	17
149.0958	12
149.0993	17
149.1044	12
163.1072	12
163.1162	12
167.0956	24
167.0975	29
167.0993	41
167.1011	93
167.1029	75
167.1048	99
167.1066	117
167.1084	82
167.1102	93
167.1121	70
167.1139	63
167.1157	17
167.1175	24
167.1194	17
167.1266	12
168.0381	29
168.0436	12
168.0454	24
168.0472	24
168.0527	12
177.0861	12
179.0989	17
179.1008	34
179.1027	58
179.1046	17
179.1065	46
179.1084	17
179.1103	46
179.1122	24
179.114	29
179.1159	17
179.1178	12
179.1292	12
180.1106	12
195.0948	24
195.0967	29
195.0987	29
195.1007	12
195.1026	29
195.1046	12
195.1066	24
195.1125	12
195.1421	12
201.17	12
207.0946	17
207.1007	17
207.1048	17
207.1088	12
207.1109	12
208.0948	12
208.0989	12
208.1009	12
208.103	17
208.105	24
208.1071	12
208.1091	34
208.1111	34
208.1132	24
208.1152	29
208.1172	24
208.1254	12
208.1376	12
219.1747	12
224.0603	12
224.0625	12
224.0646	12
224.0667	29
224.0688	17
224.0709	12
224.073	24
224.0751	12
224.0773	34
242.0758	12
250.9545	12
252.4431	12
252.5843	12
252.9253	12
253.1902	12
253.1924	17
253.1947	24
253.1969	58
253.1991	58
253.2014	153
253.2036	135
253.2059	355
253.2081	319
253.2104	392
253.2126	499
253.2148	613
253.2171	434
253.2193	487
253.2216	449
253.2238	408
253.2261	324
253.2283	230
253.2306	188
253.2328	94
253.2351	89
253.2373	65
253.2395	17
253.2418	24
253.244	12
254.2217	17
255.1945	12
255.1968	17
255.2013	34
255.2058	12
255.208	34
255.2103	24
255.2126	53
255.2148	29
255.2171	34
255.2193	29
255.2216	17
255.2238	46
255.2261	12
255.2283	12
255.2328	12
273.2114	12
273.2301	12
279.2428	12
299.1775	12
299.1848	12
299.1872	12
299.1897	29
299.1921	12
299.1945	41
299.197	58
299.1994	46
299.2019	41
299.2043	46
299.2068	17
299.2092	29
299.2141	17
299.2165	12
299.2214	12
317.1781	12
317.1856	17
317.1881	29
317.1906	63
317.1931	41
317.1956	87
317.1982	99
317.2007	75
317.2032	111
317.2057	199
317.2082	221
317.2108	315
317.2133	250
317.2158	187
317.2183	296
317.2208	216
317.2233	180
317.2258	87
317.2283	41
317.2308	63
317.2334	12
317.2359	58
317.2384	17
317.2409	12
317.2434	17
318.2167	24
389.188	12
429.5922	12
460.2694	12
460.2724	17
460.2755	41
460.2815	12
460.2845	34
460.2906	12
460.2936	17
460.2966	12
460.2997	12
478.2654	17
478.2685	24
478.2715	41
478.2747	41
478.2777	29
478.2808	58
478.2839	70
478.287	53
478.2901	111
478.2932	70
478.2963	70
478.2993	105
478.3024	87
478.3055	58
478.3086	82
478.3117	58
478.3148	34
478.3178	41
478.3209	41
478.324	12
478.3271	12
478.3302	12
524.2643	12
524.2676	12
524.2708	12
524.274	17
524.2772	17
524.2966	12
524.3063	12
542.269	12
542.2723	17
542.2789	12
542.2822	24
542.2854	34
542.2887	17
542.292	29
542.2986	12
542.3019	12
542.3052	12
542.3084	29
542.3216	12
733.4484	12
765.4879	12
776.0566	12
776.1116	12
778.4246	36
778.4404	94
778.4443	87
778.4482	46
778.4521	113
778.4561	105
778.46	93
778.464	166
778.4679	223
778.4719	360
778.4758	410
778.4797	519
778.4836	511
778.4876	555
778.4915	781
778.4955	829
778.4994	901
778.5034	946
778.5073	987
778.5112	942
778.5151	999
778.5191	889
778.523	990
778.527	860
778.5309	819
778.5349	677
778.5388	519
778.5427	375
778.5466	362
778.5506	257
778.5545	223
778.5585	127
778.5624	75
778.5663	89
778.5703	50
778.5742	36
778.5781	24
778.5821	12
778.586	21
779.4721	17
779.476	12
779.48	29
779.4839	12
779.4879	24
779.4918	17
779.4957	34
779.4997	17
779.5036	29
779.5115	29
779.5154	46
779.5194	29
779.5233	24
779.5272	34
779.5312	29
779.5352	12
779.5391	17
779.543	24
779.5509	17
779.5588	12
793.4398	12
793.4677	17
793.4756	12
793.4796	17
793.4875	24
793.4915	12
793.5034	12
793.5074	17
852.4698	24
852.4821	12
852.4904	17
852.4945	24
852.4986	24
852.5027	53
852.5068	29
852.511	63
852.5151	53
852.5192	70
852.5233	46
852.5275	58
852.5316	53
852.5357	46
852.5398	70
852.5439	99
852.548	122
852.5521	105
852.5563	122
852.5604	82
852.5645	99
852.5686	129
852.5728	87
852.5768	63
852.581	46
852.5851	46
852.5892	29
852.5933	17
852.5975	17
852.6016	17
852.6098	17
852.6304	12
852.6345	12
852.6592	12
