Mass spectrum: PC(18:1/13-HODE); LC-ESI-QTOF; MS2
Name: PC(18:1/13-HODE)
Class: Oxidized Phospholipid
Formula: C44H82NO9P
Exact mass: 800.114
SMILES: CCCCCCCC\C=C/CCCCCCCC(=O)OCC(COP([O-])(=O)OCC[N+](C)(C)C)OC(=O)CCCCCCC\C=C/C=C/C(O)CCCCC
InChI: InChI=1S/C44H82NO9P/c1-6-8-10-11-12-13-14-15-16-17-18-21-24-27-31-35-43(47)51-39-42(40-53-55(49,50)52-38-37-45(3,4)5)54-44(48)36-32-28-25-22-19-20-23-26-30-34-41(46)33-29-9-7-2/h15-16,23,26,30,34,41-42,46H,6-14,17-22,24-25,27-29,31-33,35-40H2,1-5H3/b16-15-,26-23-,34-30+
Instrument: Acquity UPLC Peptide BEH C18 column (50 x 2.1 mm; 1.7 um), Sciex TripleTOF5600
Instrument type: LC-ESI-QTOF
Ms type: MS2
Ion mode: NEGATIVE
Collision energy: 30-50
Precursor m/z: 858.5865727
Precursor type: [M+CH3COOH-H]-
m/z	relative intensity
168.034	15
168.0394	7
168.0413	18
168.0449	7
195.1242	11
195.1281	15
195.1321	18
195.1341	11
195.136	30
195.138	15
195.14	18
195.1419	11
195.1439	11
195.1459	15
195.1479	11
195.1498	7
195.1538	11
210.862	7
224.0564	11
224.0585	11
224.0607	7
224.0649	11
224.067	11
224.0691	11
224.0712	18
224.0733	7
224.0754	15
224.0775	7
224.086	7
277.1964	7
277.2011	7
277.2034	18
277.2058	11
277.2081	7
277.2105	30
277.2152	18
277.2175	15
277.2199	30
277.2222	18
277.2246	15
277.2269	7
277.2293	7
277.2316	7
277.234	7
277.2363	7
280.3627	7
280.3674	7
280.3721	19
280.3745	8
280.3839	12
280.3863	8
280.3958	8
281.0009	8
281.1169	8
281.2115	8
281.2209	8
281.2233	19
281.2257	12
281.2281	32
281.2304	113
281.2328	105
281.2351	158
281.2375	330
281.2399	441
281.2422	474
281.2446	551
281.247	762
281.2494	693
281.2517	733
281.2541	540
281.2564	378
281.2588	259
281.2612	188
281.2635	104
281.2659	93
281.2683	34
281.2706	46
281.273	21
281.2754	21
281.2777	9
281.2801	4
281.2849	4
281.2896	4
281.531	4
281.8507	4
281.9171	4
282.135	4
282.2535	11
282.2654	7
283.2524	7
283.2572	11
293.2125	7
293.2149	11
294.1411	8
294.204	8
294.2838	7
294.3056	7
294.3153	12
294.3322	8
295.1825	8
295.1922	8
295.1947	8
295.1995	8
295.2043	19
295.2068	42
295.2092	77
295.2116	57
295.2141	74
295.2165	183
295.2189	185
295.2213	265
295.2238	319
295.2262	314
295.2286	335
295.231	291
295.2334	235
295.2359	195
295.2383	137
295.2407	102
295.2431	55
295.2456	27
295.248	35
295.2504	15
295.2528	15
295.2552	31
295.2577	4
295.2601	8
295.2989	4
295.4953	4
295.7768	4
309.2466	7
417.222	7
431.2118	7
431.2177	7
446.2575	7
488.2983	7
488.3046	7
488.3202	15
488.3264	7
488.3326	7
502.278	11
502.2875	7
502.2906	18
502.2938	7
502.297	15
502.3001	7
502.3033	7
502.3096	22
506.2894	7
506.2926	7
506.2989	7
506.3053	7
506.3084	11
506.3116	18
506.3148	22
506.318	22
506.3243	15
506.3307	18
506.3339	7
506.337	7
506.3434	7
506.3466	7
520.2714	7
520.2747	11
520.2778	11
520.2811	15
520.2843	11
520.2875	22
520.2907	18
520.2939	18
520.2972	33
520.3004	37
520.3036	15
520.3068	37
520.3101	18
520.3133	26
520.3165	11
520.3197	48
520.3229	18
520.3326	7
520.3358	15
580.9402	7
713.4355	11
713.443	11
713.4468	11
713.4506	22
713.4581	11
713.4619	22
713.4656	7
713.4694	7
713.4731	18
713.4769	18
713.4807	15
713.4845	11
713.4882	30
713.492	11
713.4958	15
713.4996	11
713.5033	11
713.5071	15
713.5109	7
713.5146	15
739.4775	7
739.5005	7
782.0613	11
782.0929	7
782.1087	7
782.1126	7
782.1166	7
783.5536	7
783.5694	7
784.4583	7
784.4939	7
784.4979	18
784.5018	23
784.5057	76
784.5097	116
784.5137	192
784.5176	267
784.5215	329
784.5255	346
784.5295	452
784.5334	573
784.5374	726
784.5413	771
784.5453	900
784.5492	855
784.5532	984
784.5571	990
784.5611	994
784.565	999
784.569	795
784.5729	685
784.5769	572
784.5808	528
784.5848	386
784.5887	317
784.5927	167
784.5966	102
784.6006	89
784.6046	90
784.6085	98
784.6124	28
784.6164	37
784.6204	9
784.6243	20
784.6282	7
784.6362	5
784.644	14
784.6599	5
784.9919	9
785.0472	5
785.5178	7
785.5376	11
785.5455	7
785.5494	15
785.5534	11
785.5573	15
785.5652	7
785.5692	18
785.5732	7
785.5771	7
785.5811	7
789.3981	7
798.5464	7
798.5624	7
798.5663	7
798.5703	7
798.5942	11
798.5983	7
798.6062	7
799.4957	15
799.5076	7
799.5116	15
799.5156	15
799.5196	15
799.5236	7
799.5276	18
799.5316	11
799.5355	11
799.5435	18
799.5515	7
856.5448	8
858.5116	7
858.524	7
858.5322	15
858.5364	7
858.5405	15
858.5488	22
858.5529	45
858.5571	56
858.5612	45
858.5653	49
858.5695	82
858.5736	45
858.5778	94
858.5818	49
858.586	83
858.5901	78
858.5942	98
858.5984	102
858.6025	83
858.6067	90
858.6108	94
858.6149	49
858.6191	60
858.6232	49
858.6273	45
858.6315	19
858.6356	37
858.6398	11
858.6439	15
858.648	15
859.5951	7
