Mass spectrum: PI 40:4; LC-ESI-QTOF; MS2
Name: PI 40:4
Class: PI
Formula: C49H87O13P
Exact mass: 915.198
SMILES: CCCCCCCCCCCCCCCCCC(=O)OCC(COP(O)(=O)OC1C(O)C(O)C(O)C(O)C1O)OC(=O)CCCCCCCC\C=C/C\C=C/C\C=C/C\C=C/CC
InChI: InChI=1S/C49H87O13P/c1-3-5-7-9-11-13-15-17-19-20-21-22-24-26-28-30-32-34-36-38-43(51)61-41(40-60-63(57,58)62-49-47(55)45(53)44(52)46(54)48(49)56)39-59-42(50)37-35-33-31-29-27-25-23-18-16-14-12-10-8-6-4-2/h5,7,11,13,17,19,21-22,41,44-49,52-56H,3-4,6,8-10,12,14-16,18,20,23-40H2,1-2H3,(H,57,58)/b7-5-,13-11-,19-17-,22-21-
Instrument: AB Sciex TripleTOF 5600+ system (Q-TOF) equipped with a DuoSpray ion source
Instrument type: LC-ESI-QTOF
Ms type: MS2
Ion mode: NEGATIVE
Collision energy: 45V
Column name: Acquity UPLC Peptide BEH C18 column (50*2.1 mm; 1.7 um; 130A)(Waters Co.,Milford, MA, USA)
Retention time: 9.142293
Precursor type: [M-H]-
Precursor m/z: 913.5835
m/z	relative intensity
78.959	2
96.971	0
134.981	0
152.994	5
170.21	0
223.001	11
233.23	0
240.259	0
241.011	46
253.222	0
259.013	1
259.027	3
283.263	73
284.271	0
287.273	2
297.034	9
303.242	0
315.049	2
330.229	0
331.261	69
419.256	36
420.261	0
437.26	2
467.251	5
467.266	2
485.279	0
499.119	0
501.282	0
581.287	14
581.311	35
599.288	1
599.303	5
599.328	4
599.351	0
629.275	1
629.303	5
629.321	4
647.293	0
663.537	0
723.491	0
749.505	0
751.516	1
753.514	0
753.562	0
793.515	0
831.501	0
839.585	0
881.548	0
910.655	1
910.697	1
910.743	1
913.486	3
913.576	999
913.673	4
913.763	0
914.049	0
914.574	1
914.616	1
915.553	0
