Mass spectrum: PE(18:1/15-HETE); LC-ESI-QTOF; MS2
Name: PE(18:1/15-HETE)
Class: Oxidized Phospholipid
Formula: C43H76NO9P
Exact mass: 782.055
SMILES: CCCCCCCC\C=C/CCCCCCCC(=O)OCC(COP(O)(=O)OCCN)OC(=O)CCC\C=C/C\C=C/C\C=C/C=C/C(O)CCCCC
InChI: InChI=1S/C43H76NO9P/c1-3-5-7-8-9-10-11-12-13-14-17-20-23-26-30-34-42(46)50-38-41(39-52-54(48,49)51-37-36-44)53-43(47)35-31-27-24-21-18-15-16-19-22-25-29-33-40(45)32-28-6-4-2/h12-13,15-16,21-22,24-25,29,33,40-41,45H,3-11,14,17-20,23,26-28,30-32,34-39,44H2,1-2H3,(H,48,49)/b13-12-,16-15-,24-21-,25-22-,33-29+
Instrument: Acquity UPLC Peptide BEH C18 column (50 x 2.1 mm; 1.7 um), Sciex TripleTOF5600
Instrument type: LC-ESI-QTOF
Ms type: MS2
Ion mode: NEGATIVE
Collision energy: 30-50
Precursor m/z: 780.5184935
Precursor type: [M-H]-
m/z	relative intensity
113.0923	66
140.0074	66
140.0158	66
175.1423	66
175.146	103
175.1609	66
203.1841	66
219.1328	66
219.1349	66
219.1369	103
219.139	103
219.1411	169
219.1432	66
219.1453	103
227.2012	66
243.1965	66
243.1987	103
255.2237	66
255.226	66
255.2282	66
257.218	103
257.2248	103
257.227	136
257.2293	136
257.2315	103
257.2361	103
281.2291	66
281.2315	202
281.2339	103
281.2362	235
281.2386	440
281.241	370
281.2433	404
281.2457	370
281.248	440
281.2504	506
281.2528	473
281.2552	473
281.2575	404
281.2599	202
281.2623	271
281.2717	66
301.1893	66
301.1966	66
301.1991	136
301.204	136
301.2064	103
301.2089	202
301.2138	202
301.2162	66
301.2187	337
301.2211	136
301.2285	66
301.2309	66
301.2334	66
301.2358	66
319.2091	136
319.2142	103
319.2167	202
319.2192	202
319.2217	103
319.2242	271
319.2268	304
319.2293	304
319.2318	202
319.2343	370
319.2368	103
319.2394	103
319.2419	136
319.2444	103
319.2469	66
478.2809	66
478.284	66
478.287	136
478.2932	66
478.2963	66
478.2994	103
478.3056	66
478.3148	66
478.3272	66
706.4863	66
706.5051	136
706.5089	66
706.5239	103
706.5276	66
706.5313	66
780.4418	66
780.4498	103
780.4537	66
780.4576	136
780.4655	136
780.4694	172
780.4734	202
780.4774	103
780.4813	374
780.4852	139
780.4891	516
780.4931	380
780.4971	827
780.501	860
780.5049	619
780.5089	761
780.5128	827
780.5167	999
780.5207	552
780.5247	721
780.5286	625
780.5325	450
780.5364	483
780.5404	483
780.5444	480
780.5483	241
780.5522	304
780.5562	443
780.5601	238
780.5641	440
780.568	169
780.572	103
780.5759	66
780.5798	169
780.5877	66
781.538	66
781.5499	66
781.5578	66
