Mass spectrum: PC(18:1e/14,15-EpETE); LC-ESI-QTOF; MS2
Name: PC(18:1e/14,15-EpETE)
Class: Oxidized Phospholipid
Formula: C46H82NO8P
Exact mass: 808.137
SMILES: CCCCCCCCCCCCCCCC\C=C/OCC(COP([O-])(=O)OCC[N+](C)(C)C)OC(=O)CCC\C=C/C\C=C/C\C=C/CC1OC1C\C=C/CC
InChI: InChI=1S/C46H82NO8P/c1-6-8-10-11-12-13-14-15-16-17-18-21-24-27-30-34-39-51-41-43(42-53-56(49,50)52-40-38-47(3,4)5)54-46(48)37-33-29-26-23-20-19-22-25-28-32-36-45-44(55-45)35-31-9-7-2/h9,19,22-23,26,28,31-32,34,39,43-45H,6-8,10-18,20-21,24-25,27,29-30,33,35-38,40-42H2,1-5H3/b22-19-,26-23-,31-9-,32-28-,39-34-
Instrument: Acquity UPLC Peptide BEH C18 column (50 x 2.1 mm; 1.7 um), Sciex TripleTOF5600
Instrument type: LC-ESI-QTOF
Ms type: MS2
Ion mode: NEGATIVE
Collision energy: 30-50
Precursor m/z: 866.5916581
Precursor type: [M+CH3COOH-H]-
m/z	relative intensity
163.1474	15
175.1467	15
175.1486	15
175.1561	15
189.1346	15
193.1158	15
201.1645	15
203.1405	15
203.1445	15
203.1486	15
207.1175	15
207.1236	15
207.1276	30
207.1297	45
207.1317	37
207.1337	60
207.1358	97
207.1378	105
207.1398	82
207.1418	89
207.1439	52
207.1459	30
207.1479	30
207.15	30
207.152	23
219.1292	30
219.1313	23
219.1334	30
219.1355	23
219.1376	37
219.1397	37
219.1418	37
219.1439	37
219.146	30
219.1501	15
219.1543	23
221.1641	15
235.1347	23
235.1369	15
247.1295	15
247.1362	23
247.1429	15
248.1287	15
248.1354	30
248.1376	37
248.1398	30
248.142	37
248.1443	45
248.1465	45
248.1487	15
248.1598	15
255.1972	15
255.2017	30
255.204	23
255.2062	23
255.2085	45
255.2107	30
255.213	37
255.2153	23
255.2175	37
255.2198	15
255.222	30
273.2188	15
273.2212	23
273.2352	23
299.1852	15
299.1876	37
299.19	37
299.1925	45
299.1974	37
299.1998	23
299.2022	23
299.2047	23
299.2071	83
299.212	15
299.2169	15
314.2402	15
315.2164	15
316.2117	15
317.1834	23
317.1859	23
317.1884	53
317.191	23
317.1935	85
317.196	85
317.1985	130
317.201	124
317.2035	264
317.2061	202
317.2086	255
317.2111	293
317.2136	355
317.2161	208
317.2186	216
317.2211	162
317.2236	139
317.2261	92
317.2287	70
317.2312	31
317.2337	31
317.2362	8
317.2387	23
317.2412	15
317.2437	15
318.2145	15
343.2255	15
403.2473	15
403.2615	30
403.2643	15
403.27	23
403.2757	23
474.3177	23
474.3208	45
474.3239	15
474.3269	45
474.33	45
474.3331	45
474.3361	15
474.3392	83
474.3423	30
474.3453	45
474.3484	15
474.3515	15
474.3638	15
474.3669	15
492.3175	30
492.3206	23
492.3237	23
492.3269	53
492.33	151
492.3331	105
492.3362	128
492.3394	128
492.3425	150
492.3456	68
492.3488	151
492.3519	106
492.355	113
492.3582	128
492.3613	90
492.3644	67
492.3676	37
492.3707	67
492.3738	30
492.377	23
492.3832	8
492.3895	15
492.3989	23
790.0603	23
791.576	16
792.4655	15
792.4814	23
792.4854	23
792.4893	16
792.4933	16
792.4973	49
792.5012	80
792.5052	108
792.5092	141
792.5131	188
792.5171	207
792.5211	219
792.5251	376
792.5291	501
792.533	527
792.537	649
792.541	592
792.5449	690
792.5489	713
792.5529	764
792.5568	769
792.5608	885
792.5648	972
792.5688	999
792.5728	809
792.5767	682
792.5807	658
792.5847	628
792.5886	395
792.5926	424
792.5966	319
792.6005	251
792.6045	304
792.6085	163
792.6125	105
792.6165	26
792.6204	95
792.6244	34
792.6284	25
792.6323	34
792.6363	16
792.6403	9
792.6442	9
792.6522	9
792.819	9
792.8746	9
793.1885	15
793.5145	15
793.5184	23
793.5224	15
793.5422	37
793.5463	30
793.5502	15
793.5542	45
793.5582	52
793.5621	30
793.5661	23
793.574	15
793.578	23
793.582	30
793.586	15
793.5939	37
793.5979	15
793.6019	15
793.6058	15
807.5106	30
807.5186	37
807.5306	30
807.5427	23
807.5547	15
808.5454	15
808.5494	15
866.4747	15
866.483	15
866.5163	15
866.5204	15
866.5287	30
866.537	30
866.5412	15
866.5453	30
866.5495	15
866.5536	23
866.5578	15
866.562	23
866.5661	37
866.5703	60
866.5744	67
866.5786	67
866.5827	105
866.5869	67
866.591	97
866.5952	97
866.5994	82
866.6035	60
866.6077	112
866.616	45
866.6201	45
866.6243	23
866.6284	30
866.6326	15
866.6367	15
866.6409	23
866.645	23
866.6533	15
867.5425	15
867.5466	15
