Mass spectrum: PI(16:0/8,9-EET); LC-ESI-QTOF; MS2
Name: PI(16:0/8,9-EET)
Class: Oxidized Phospholipid
Formula: C45H79O14P
Exact mass: 875.089
SMILES: CCCCCCCCCCCCCCCC(=O)OCC(COP(O)(=O)OC1C(O)C(O)C(O)C(O)C1O)OC(=O)CCC\C=C/CC1OC1C\C=C/C\C=C/CCCCC
InChI: InChI=1S/C45H79O14P/c1-3-5-7-9-11-13-14-15-16-18-20-22-27-31-38(46)55-33-35(34-56-60(53,54)59-45-43(51)41(49)40(48)42(50)44(45)52)57-39(47)32-28-24-23-26-30-37-36(58-37)29-25-21-19-17-12-10-8-6-4-2/h12,17,21,23,25-26,35-37,40-45,48-52H,3-11,13-16,18-20,22,24,27-34H2,1-2H3,(H,53,54)/b17-12-,25-21-,26-23-
Instrument: Acquity UPLC Peptide BEH C18 column (50 x 2.1 mm; 1.7 um), Sciex TripleTOF5600
Instrument type: LC-ESI-QTOF
Ms type: MS2
Ion mode: NEGATIVE
Collision energy: 30-50
Precursor m/z: 873.5134677
Precursor type: [M-H]-
m/z	relative intensity
78.96509	13
96.9724	13
127.0781	13
127.0829	13
152.9889	13
152.9906	34
152.9941	13
152.9958	13
153.0011	13
153.0046	20
155.0727	13
163.1469	13
167.0666	20
167.0721	13
179.1426	13
222.9869	13
222.989	20
222.9933	27
223.0038	20
223.0059	13
223.008	20
223.0101	13
240.9929	13
240.9951	27
240.9972	13
240.9994	20
241.0016	27
241.0038	62
241.006	75
241.0082	124
241.0104	96
241.0126	124
241.0148	82
241.017	75
241.0191	27
241.0213	49
241.0257	20
241.0279	13
253.2085	13
253.213	13
253.2242	13
255.2175	13
255.2197	42
255.222	34
255.2242	42
255.2265	117
255.2287	96
255.231	111
255.2332	138
255.2355	89
255.2377	102
255.24	69
255.2423	69
255.2445	27
255.2468	34
255.2558	20
256.2373	13
257.223	13
257.2321	13
257.2366	13
259.0139	13
259.0161	13
259.0252	13
259.0298	13
281.2581	20
297.0293	13
297.0318	20
297.0512	13
297.0561	13
301.2046	13
301.212	13
301.2144	27
301.2193	27
301.2242	20
315.0438	13
319.2022	13
319.2073	13
319.2123	27
319.2148	20
319.2174	34
319.2199	34
319.2224	69
319.2249	82
319.2274	55
319.23	55
319.2325	34
319.235	42
319.2375	27
319.2401	27
319.2426	27
319.2451	20
391.1984	13
391.2096	20
391.2124	34
391.2151	42
391.2179	27
391.2207	34
391.2235	49
391.2263	62
391.2291	20
391.2319	62
391.2347	55
391.2375	42
391.2403	27
391.2431	13
391.2514	13
391.2682	13
409.2173	13
455.2261	20
455.2441	13
553.247	13
553.2536	34
553.257	20
553.2603	27
553.2636	27
553.2669	62
553.2702	13
553.2736	42
553.2769	62
553.2802	75
553.2835	82
553.2868	55
553.2902	69
553.2935	20
553.2968	13
553.3001	34
553.3034	27
553.3067	20
553.3134	13
571.2596	13
571.2663	20
571.2697	20
571.2731	20
571.2764	13
571.2866	34
571.2899	13
571.2933	13
571.2967	20
571.3068	13
617.2379	13
617.2589	13
617.2729	27
617.2765	13
617.2835	13
617.301	13
791.4839	13
791.4918	13
791.4998	13
791.5117	27
791.5196	27
826.5741	13
826.5903	13
870.7366	13
870.7574	13
870.8241	13
870.8324	13
873.4158	13
873.4242	13
873.4283	49
873.4326	35
873.4367	20
873.4409	35
873.4451	49
873.4492	70
873.4534	50
873.4575	57
873.4617	102
873.4659	139
873.47	131
873.4742	193
873.4784	206
873.4825	302
873.4868	357
873.4909	543
873.4951	524
873.4993	733
873.5034	700
873.5076	747
873.5118	925
873.5159	928
873.5201	957
873.5243	959
873.5284	999
873.5326	980
873.5368	917
873.541	826
873.5451	710
873.5493	696
873.5535	561
873.5576	543
873.5618	431
873.566	406
873.5701	202
873.5743	159
873.5785	89
873.5826	117
873.5868	51
873.591	82
873.5952	62
873.5994	39
873.6035	31
873.6077	13
873.6119	35
873.616	18
873.6285	24
873.9372	13
874.4294	13
874.4879	13
874.492	13
874.4962	20
874.5004	27
874.5045	20
874.5129	20
874.5171	42
874.5212	27
874.5254	13
874.5296	20
874.5421	20
874.5463	13
874.5504	20
874.5546	20
874.5588	13
874.5922	13
