Mass spectrum: PC(18:0/9-HODE); LC-ESI-QTOF; MS2
Name: PC(18:0/9-HODE)
Class: Oxidized Phospholipid
Formula: C44H84NO9P
Exact mass: 802.13
SMILES: CCCCCCCCCCCCCCCCCC(=O)OCC(COP([O-])(=O)OCC[N+](C)(C)C)OC(=O)CCCCCCCC(O)\C=C\C=C/CCCCC
InChI: InChI=1S/C44H84NO9P/c1-6-8-10-12-14-15-16-17-18-19-20-21-23-27-31-35-43(47)51-39-42(40-53-55(49,50)52-38-37-45(3,4)5)54-44(48)36-32-28-24-26-30-34-41(46)33-29-25-22-13-11-9-7-2/h22,25,29,33,41-42,46H,6-21,23-24,26-28,30-32,34-40H2,1-5H3/b25-22-,33-29+
Instrument: Acquity UPLC Peptide BEH C18 column (50 x 2.1 mm; 1.7 um), Sciex TripleTOF5600
Instrument type: LC-ESI-QTOF
Ms type: MS2
Ion mode: NEGATIVE
Collision energy: 30-50
Precursor m/z: 860.6022228
Precursor type: [M+CH3COOH-H]-
m/z	relative intensity
126.9976	19
168.0322	29
168.0359	19
168.045	19
171.0932	29
171.0951	29
171.0969	19
171.0988	29
171.1006	29
171.1024	19
171.108	29
224.0693	29
224.0714	19
240.9977	19
241.0021	38
241.0065	47
241.0087	47
241.0108	19
241.013	38
241.0152	29
241.0196	19
241.0218	19
242.0129	19
255.2204	29
255.2249	19
255.2294	19
255.2316	19
255.2362	29
255.2384	19
256.2357	29
259.0237	19
277.1991	19
277.2038	38
277.2061	47
277.2085	47
277.2108	113
277.2132	95
277.2155	47
277.2179	66
277.2202	76
277.2226	47
277.2249	95
277.2273	66
277.2296	19
277.2343	29
279.2255	19
279.2278	19
279.2302	19
279.2349	19
279.2372	29
279.2396	29
279.2419	19
280.2426	19
281.2332	19
281.2403	29
281.2473	29
281.2568	38
282.2468	19
282.2492	29
282.2516	19
282.2563	29
282.261	29
283.2409	19
283.2433	19
283.248	29
283.2504	66
283.2528	208
283.2552	113
283.2575	142
283.2599	266
283.2623	237
283.2647	266
283.2671	161
283.2694	256
283.2718	66
283.2742	113
283.2766	113
283.2789	76
283.2837	19
283.286	19
284.2701	19
284.2748	19
285.1725	20
294.2939	20
294.2963	20
294.3036	20
295.1029	20
295.1975	20
295.2023	29
295.2047	39
295.2072	59
295.2096	78
295.212	97
295.2144	108
295.2169	263
295.2193	256
295.2217	312
295.2242	345
295.2266	412
295.229	411
295.2314	401
295.2339	304
295.2363	226
295.2387	147
295.2411	108
295.2435	59
295.246	69
295.2484	49
295.2508	20
295.2557	10
295.2581	10
305.2354	29
305.2404	19
305.2453	38
305.2502	19
306.2396	19
306.2445	29
306.2495	29
306.2593	19
306.2618	29
306.2668	19
391.2208	19
392.2206	29
392.2318	19
417.2256	19
418.2263	19
418.235	19
418.2408	19
418.2494	19
445.0013	19
490.3186	19
490.3249	19
502.3011	19
502.3106	19
508.3211	47
508.3243	29
508.3275	38
508.3339	29
508.337	29
508.3402	57
508.3434	29
508.3466	19
508.3498	38
508.3529	19
508.3561	19
508.3625	29
508.3657	29
532.9748	19
532.9813	29
532.9944	19
532.9976	19
554.2954	19
562.2801	19
572.2712	19
580.2682	19
580.2819	19
580.2955	19
580.3022	19
615.007	19
715.4698	19
715.4812	19
715.4925	29
715.5001	19
715.5189	19
784.0413	20
786.4848	20
786.4927	38
786.4966	58
786.5006	39
786.5046	58
786.5085	59
786.5125	20
786.5164	40
786.5204	111
786.5244	109
786.5283	174
786.5323	148
786.5362	177
786.5402	400
786.5441	483
786.5481	369
786.5521	700
786.556	699
786.56	636
786.5639	756
786.5679	999
786.5718	903
786.5758	943
786.5798	769
786.5837	966
786.5876	519
786.5916	607
786.5956	679
786.5995	467
786.6035	350
786.6074	213
786.6114	214
786.6154	204
786.6193	172
786.6233	138
786.6273	72
786.6312	33
786.6351	54
786.6391	46
786.655	10
786.6708	20
787.5694	29
787.5892	29
787.605	11
801.5015	19
801.5215	38
801.5255	19
801.5414	48
801.5494	19
805.9216	20
860.4536	20
860.4619	19
860.4661	19
860.4702	29
860.4826	99
860.4868	97
860.4909	69
860.495	167
860.4991	150
860.5033	138
860.5074	227
860.5116	296
860.5157	333
860.5198	348
860.524	361
860.5281	390
860.5323	401
860.5364	354
860.5405	443
860.5447	432
860.5488	493
860.553	413
860.5571	473
860.5612	361
860.5654	291
860.5695	362
860.5737	373
860.5778	251
860.582	232
860.5861	172
860.5902	170
860.5944	181
860.5985	162
860.6026	122
860.6068	130
860.6109	92
860.6151	73
860.6192	78
860.6234	80
860.6274	10
860.6316	51
860.6357	20
860.6399	19
860.644	19
860.6523	33
861.5508	19
