Mass spectrum: Cer[NS] d43:3; LC-ESI-QTOF; MS2
Name: Cer[NS] d43:3
Class: Cer_NS
Formula: C43H81NO3
Exact mass: 660.1249999999999
SMILES: CCCCCCCCCCCCC\C=C/CCCCCCCCCC(=O)NC(CO)C(O)\C=C\CC\C=C\CCCCCCCCC
InChI: InChI=1S/C43H81NO3/c1-3-5-7-9-11-13-15-17-18-19-20-21-22-23-24-25-27-29-31-33-35-37-39-43(47)44-41(40-45)42(46)38-36-34-32-30-28-26-16-14-12-10-8-6-4-2/h22-23,28,30,36,38,41-42,45-46H,3-21,24-27,29,31-35,37,39-40H2,1-2H3,(H,44,47)/b23-22-,30-28+,38-36+
Instrument: AB Sciex TripleTOF 5600+ system (Q-TOF) equipped with a DuoSpray ion source
Instrument type: LC-ESI-QTOF
Ms type: MS2
Ion mode: NEGATIVE
Collision energy: 45V
Column name: Acquity UPLC Peptide BEH C18 column (50*2.1 mm; 1.7 um; 130A)(Waters Co.,Milford, MA, USA)
Retention time: 12.98212
Precursor type: [M+CH3COOH-H]-
Precursor m/z: 718.6296
m/z	relative intensity
223.086	46
235.208	156
237.229	29
240.956	25
246.977	51
261.22	51
266.24	25
278.235	29
308.962	68
314.957	38
322.96	77
328.987	38
346.999	38
361.343	157
378.368	170
379.362	107
390.372	38
390.947	51
402.378	70
404.386	723
404.966	51
410.996	55
420.382	103
472.963	38
518.959	25
610.559	38
610.585	129
626.573	90
627.513	25
628.522	51
628.59	70
628.627	104
633.582	25
658.548	90
658.589	828
658.614	999
658.639	158
718.542	38
718.616	38
