Mass spectrum: PC(16:1/7-HDoHE); LC-ESI-QTOF; MS2
Name: PC(16:1/7-HDoHE)
Class: Oxidized Phospholipid
Formula: C46H78NO9P
Exact mass: 820.104
SMILES: CCCCCC\C=C/CCCCCCCC(=O)OCC(COP([O-])(=O)OCC[N+](C)(C)C)OC(=O)CC\C=C/CC(O)\C=C\C=C/C\C=C/C\C=C/C\C=C/CC
InChI: InChI=1S/C46H78NO9P/c1-6-8-10-12-14-16-18-20-22-24-26-28-31-35-43(48)36-32-30-34-38-46(50)56-44(42-55-57(51,52)54-40-39-47(3,4)5)41-53-45(49)37-33-29-27-25-23-21-19-17-15-13-11-9-7-2/h8,10,14,16-17,19-20,22,26,28,30-32,35,43-44,48H,6-7,9,11-13,15,18,21,23-25,27,29,33-34,36-42H2,1-5H3/b10-8-,16-14-,19-17-,22-20-,28-26-,32-30-,35-31+
Instrument: Acquity UPLC Peptide BEH C18 column (50 x 2.1 mm; 1.7 um), Sciex TripleTOF5600
Instrument type: LC-ESI-QTOF
Ms type: MS2
Ion mode: NEGATIVE
Collision energy: 30-50
Precursor m/z: 878.5552726
Precursor type: [M+CH3COOH-H]-
m/z	relative intensity
141.0489	58
168.0372	58
168.0427	87
168.0463	58
201.1608	58
201.1629	58
201.1649	58
201.1669	58
201.1689	58
245.1884	58
253.2022	58
253.2044	116
253.2066	174
253.2089	319
253.2111	145
253.2134	347
253.2156	203
253.2179	145
253.2201	203
253.2224	174
253.2246	261
253.2269	145
253.2291	58
253.2314	116
253.2336	145
281.2181	87
281.2228	116
281.2252	116
281.2276	87
281.2299	145
281.2323	87
281.2347	58
281.2394	116
325.2123	58
325.2174	58
325.2225	58
343.2074	58
343.2101	87
343.2126	145
343.2153	145
343.2179	174
343.2205	145
343.2231	116
343.2257	203
343.2284	87
343.231	203
343.2336	232
343.2362	203
343.2388	58
343.2414	58
343.244	116
389.2079	58
407.2183	58
460.2756	58
478.2717	58
478.2964	87
478.2994	145
478.3118	58
646.8174	58
733.4437	58
759.4518	58
804.446	87
804.454	58
804.462	174
804.466	145
804.47	145
804.474	145
804.478	232
804.482	232
804.486	449
804.49	507
804.494	478
804.498	767
804.502	565
804.506	854
804.51	854
804.514	680
804.518	738
804.522	999
804.526	796
804.53	854
804.534	796
804.538	652
804.542	854
804.546	565
804.55	738
804.554	290
804.558	319
804.562	261
804.566	290
804.57	174
804.574	145
804.5781	58
804.582	87
804.5861	174
804.598	58
805.5028	58
805.5189	58
818.5014	87
818.5297	58
818.5418	58
819.4827	58
846.4972	58
878.5023	58
878.5232	116
878.5274	116
878.5316	203
878.5358	87
878.5399	116
878.5483	58
878.5525	58
878.5566	87
878.5609	203
878.565	58
878.5692	145
878.5776	116
878.5817	145
878.5859	58
878.6027	116
878.6069	145
878.611	58
878.7993	58
