Mass spectrum: PG 42:8; LC-ESI-QTOF; MS2
Name: PG 42:8
Class: PG
Formula: C48H79O10P
Exact mass: 847.1260000000001
SMILES: CC\C=C/C\C=C/C\C=C/C\C=C/CCCCCCCCC(=O)OC(COC(=O)CCCCCC\C=C/C\C=C/C\C=C/C\C=C/CC)COP(O)(=O)OCC(O)CO
InChI: InChI=1S/C48H79O10P/c1-3-5-7-9-11-13-15-17-19-21-22-24-26-28-30-32-34-36-38-40-48(52)58-46(44-57-59(53,54)56-42-45(50)41-49)43-55-47(51)39-37-35-33-31-29-27-25-23-20-18-16-14-12-10-8-6-4-2/h5-8,11-14,17-20,22,24-25,27,45-46,49-50H,3-4,9-10,15-16,21,23,26,28-44H2,1-2H3,(H,53,54)/b7-5-,8-6-,13-11-,14-12-,19-17-,20-18-,24-22-,27-25-
Instrument: AB Sciex TripleTOF 5600+ system (Q-TOF) equipped with a DuoSpray ion source
Instrument type: LC-ESI-QTOF
Ms type: MS2
Ion mode: NEGATIVE
Collision energy: 45V
Column name: Acquity UPLC Peptide BEH C18 column (50*2.1 mm; 1.7 um; 130A)(Waters Co.,Milford, MA, USA)
Retention time: 8.176772
Precursor type: [M-H]-
Precursor m/z: 845.5375
m/z	relative intensity
152.997	9
171.002	1
205.197	6
205.206	2
217.161	2
231.216	1
233.227	4
259.222	4
259.243	48
281.248	7
283.244	1
285.218	2
287.266	8
287.281	11
302.278	4
303.232	801
303.269	3
305.247	7
307.256	6
313.247	2
313.27	1
327.225	3
329.249	10
330.226	4
330.244	1
331.211	4
331.263	923
331.306	3
333.269	2
359.229	4
439.226	2
457.239	2
466.327	5
485.263	4
505.353	0
513.247	3
513.271	4
516.304	0
531.252	4
531.28	5
541.292	5
559.277	3
559.298	9
663.534	2
809.522	1
811.547	1
827.509	1
827.567	4
842.88	4
842.942	1
844.526	1
845.536	999
845.622	2
846.542	3
