Mass spectrum: SM d42:1; LC-ESI-QTOF; MS2
Name: SM d42:1
Class: SM
Formula: C47H95N2O6P
Exact mass: 815.261
SMILES: CCCCCCCCCCCCCCCC(O)C(COP([O-])(=O)OCC[N+](C)(C)C)NC(=O)CCCCCCCCC\C=C/CCCCCCCCCCCC
InChI: InChI=1S/C47H95N2O6P/c1-6-8-10-12-14-16-18-20-21-22-23-24-25-26-27-29-31-33-35-37-39-41-47(51)48-45(44-55-56(52,53)54-43-42-49(3,4)5)46(50)40-38-36-34-32-30-28-19-17-15-13-11-9-7-2/h24-25,45-46,50H,6-23,26-44H2,1-5H3,(H-,48,51,52,53)/b25-24-
Instrument: AB Sciex TripleTOF 5600+ system (Q-TOF) equipped with a DuoSpray ion source
Instrument type: LC-ESI-QTOF
Ms type: MS2
Ion mode: NEGATIVE
Collision energy: 45V
Column name: Acquity UPLC Peptide BEH C18 column (50*2.1 mm; 1.7 um; 130A)(Waters Co.,Milford, MA, USA)
Retention time: 12.75413
Precursor type: [M+CH3COOH-H]-
Precursor m/z: 873.7062
m/z	relative intensity
78.959	8
89.015	0
89.025	3
111.004	0
122.986	1
167.523	0
168.042	37
227.199	0
255.227	0
263.237	0
281.247	0
327.238	0
328.239	0
339.323	0
366.344	0
367.36	0
368.358	0
445.328	0
451.327	1
514.37	0
608.917	0
620.599	1
621.574	0
621.595	0
621.622	0
645.613	0
646.613	0
649.626	0
651.635	0
653.635	0
663.968	0
710.586	1
726.57	0
726.619	0
728.562	1
728.605	1
741.613	0
754.616	0
783.652	1
783.688	0
797.084	0
797.12	1
797.196	0
798.629	0
798.666	0
799.599	7
799.671	999
799.753	5
799.922	0
800.081	0
800.628	0
800.663	5
800.692	1
800.715	1
800.995	0
811.691	0
813.636	0
813.687	2
814.582	0
814.61	2
814.635	3
814.656	2
873.605	1
873.658	7
873.684	11
873.717	41
874.717	0
