Mass spectrum: PC(15:0/8-HETE); LC-ESI-QTOF; MS2
Name: PC(15:0/8-HETE)
Class: Oxidized Phospholipid
Formula: C43H78NO9P
Exact mass: 784.071
SMILES: CCCCCCCCCCCCCCC(=O)OCC(COP([O-])(=O)OCC[N+](C)(C)C)OC(=O)CCC\C=C/CC(O)\C=C/C=C\C\C=C/CCCCC
InChI: InChI=1S/C43H78NO9P/c1-6-8-10-12-14-16-18-19-21-23-25-30-34-42(46)50-38-41(39-52-54(48,49)51-37-36-44(3,4)5)53-43(47)35-31-27-26-29-33-40(45)32-28-24-22-20-17-15-13-11-9-7-2/h15,17,22,24,26,28-29,32,40-41,45H,6-14,16,18-21,23,25,27,30-31,33-39H2,1-5H3/b17-15-,24-22-,29-26-,32-28-
Instrument: Acquity UPLC Peptide BEH C18 column (50 x 2.1 mm; 1.7 um), Sciex TripleTOF5600
Instrument type: LC-ESI-QTOF
Ms type: MS2
Ion mode: NEGATIVE
Collision energy: 30-50
Precursor m/z: 842.5552726
Precursor type: [M+CH3COOH-H]-
m/z	relative intensity
155.0661	116
155.0696	58
155.0713	116
155.0766	58
163.1468	58
163.1557	58
241.2003	58
241.2025	116
241.2047	116
241.2069	58
241.2112	174
241.2134	116
241.2156	174
241.2178	174
241.22	116
241.2243	58
241.2265	174
241.2287	116
241.233	58
245.1525	58
245.1634	58
255.2236	58
255.2259	58
255.2304	58
257.2127	58
257.2195	116
257.224	116
257.2262	116
267.2235	58
267.2303	58
267.235	58
281.2368	58
281.2462	58
281.2509	58
287.1596	58
287.1857	58
293.2089	58
293.2113	116
301.2024	58
301.2048	174
301.2097	58
301.2121	58
301.2146	116
301.217	58
301.2194	174
301.2243	58
303.2237	58
303.2261	58
303.2285	116
303.2359	58
303.2408	58
303.2481	58
304.2332	58
304.243	58
305.2076	58
305.21	58
305.2149	58
319.206	58
319.211	58
319.2135	174
319.216	116
319.2185	290
319.221	174
319.2235	232
319.226	232
319.2285	174
319.231	290
319.2336	174
319.2361	116
425.1527	58
425.1701	58
448.2702	58
448.2761	58
466.2733	58
466.2794	116
466.2824	58
466.2854	58
466.2915	232
466.2975	58
466.3006	58
466.3097	58
480.2687	58
480.3271	58
502.2422	58
502.2956	58
526.2825	58
526.2889	58
526.3243	58
697.4446	58
697.4482	58
697.452	58
697.4557	58
707.429	58
707.4401	58
766.0822	58
766.1132	58
766.4743	58
766.5015	116
768.4131	58
768.4598	58
768.4636	58
768.4714	116
768.4753	232
768.4792	174
768.4831	285
768.487	232
768.4908	550
768.4948	347
768.4987	555
768.5025	946
768.5064	999
768.5103	912
768.5142	840
768.5181	989
768.522	497
768.5259	637
768.5297	579
768.5336	656
768.5375	372
768.5414	319
768.5453	328
768.5492	174
768.553	116
768.5569	116
768.5609	232
768.5764	58
768.6036	58
782.3947	58
782.4104	58
782.4771	58
782.5124	58
782.5163	116
782.5242	58
782.5359	58
782.5791	58
783.4543	58
783.4661	58
783.47	58
783.5014	58
842.4694	174
842.4775	174
842.4857	58
842.4938	174
842.502	58
842.506	58
842.5101	116
842.5142	58
842.5182	58
842.5223	58
842.5264	174
842.5305	232
842.5345	174
842.5386	116
842.5427	174
842.5468	343
842.5508	116
842.5549	174
842.559	232
842.5671	232
842.5753	116
842.5793	58
842.5834	58
842.5875	58
842.6119	58
