Mass spectrum: PC(16:1/17,18-EpETE); LC-ESI-QTOF; MS2
Name: PC(16:1/17,18-EpETE)
Class: Oxidized Phospholipid
Formula: C44H76NO9P
Exact mass: 794.066
SMILES: CCCCCC\C=C/CCCCCCCC(=O)OCC(COP([O-])(=O)OCC[N+](C)(C)C)OC(=O)CCC\C=C/C\C=C/C\C=C/C\C=C/CC1OC1CC
InChI: InChI=1S/C44H76NO9P/c1-6-8-9-10-11-12-13-15-19-22-25-28-31-34-43(46)50-38-40(39-52-55(48,49)51-37-36-45(3,4)5)53-44(47)35-32-29-26-23-20-17-14-16-18-21-24-27-30-33-42-41(7-2)54-42/h12-14,17-18,21,23,26-27,30,40-42H,6-11,15-16,19-20,22,24-25,28-29,31-39H2,1-5H3/b13-12-,17-14-,21-18-,26-23-,30-27-
Instrument: Acquity UPLC Peptide BEH C18 column (50 x 2.1 mm; 1.7 um), Sciex TripleTOF5600
Instrument type: LC-ESI-QTOF
Ms type: MS2
Ion mode: NEGATIVE
Collision energy: 30-50
Precursor m/z: 852.5396225
Precursor type: [M+CH3COOH-H]-
m/z	relative intensity
161.1332	28
161.1386	14
168.0367	14
168.0404	34
168.0422	20
168.044	20
168.0459	14
168.0477	14
168.0495	20
201.1664	14
215.1703	14
215.1745	20
215.1765	20
215.1786	28
215.1827	20
215.1848	20
215.1869	14
224.0565	14
224.0649	34
224.067	20
224.0691	14
224.0712	14
224.0755	14
224.0776	14
224.0839	14
252.4366	14
252.4411	14
252.468	14
252.7214	14
252.8784	14
253.159	14
253.1927	42
253.1949	28
253.1971	110
253.1994	90
253.2016	160
253.2039	305
253.2061	431
253.2084	600
253.2106	636
253.2129	720
253.2151	861
253.2174	911
253.2196	933
253.2218	855
253.2241	638
253.2263	371
253.2286	231
253.2308	175
253.2331	162
253.2353	90
253.2376	50
253.2398	28
253.2421	28
253.2443	14
253.2465	14
254.2107	14
254.213	14
254.2175	14
254.222	20
255.1948	14
255.197	14
255.2038	28
255.206	28
255.2083	14
255.2106	34
255.2128	48
255.2151	34
255.2173	34
255.2196	20
255.2241	14
255.2286	14
259.1545	28
259.1568	14
259.1659	34
259.1681	20
259.1704	40
259.1749	28
259.1772	14
259.1795	14
259.1818	14
273.207	14
273.2186	28
273.221	40
273.2233	40
273.2256	34
273.228	34
273.2303	20
273.2326	20
281.2318	14
299.1849	14
299.1898	20
299.1923	28
299.1947	34
299.1971	40
299.1996	48
299.202	54
299.2044	40
299.2069	28
299.2093	28
299.2118	48
299.2166	14
299.224	14
299.2557	14
317.1807	14
317.1882	14
317.1907	28
317.1932	34
317.1957	62
317.1983	62
317.2008	150
317.2033	108
317.2058	156
317.2083	217
317.2108	217
317.2133	237
317.2159	217
317.2184	189
317.2209	142
317.2234	82
317.2259	68
317.2284	48
317.2309	40
317.2335	28
317.2385	14
317.241	14
460.269	14
460.2721	14
460.2751	14
460.2781	20
460.2812	34
460.2872	14
460.2902	14
463.6018	14
478.2588	20
478.2711	14
478.2742	14
478.2773	34
478.2804	28
478.2835	54
478.2866	20
478.2897	40
478.2928	34
478.2958	20
478.2989	14
478.302	40
478.3051	34
478.3082	28
478.3112	14
478.3144	14
478.3267	14
524.225	14
524.2605	20
524.2896	14
524.2928	20
524.296	14
524.3187	14
542.2552	14
542.2651	28
542.2684	20
542.2717	54
542.275	28
542.2783	40
542.2815	20
542.2848	48
542.2881	54
542.2914	34
542.2947	28
542.2979	40
542.3012	14
542.3045	20
542.3078	28
542.3144	20
542.3177	20
765.4864	14
776.0511	14
778.3483	14
778.4191	20
778.427	14
778.431	28
778.4349	34
778.4388	14
778.4427	138
778.4467	54
778.4506	144
778.4546	237
778.4585	181
778.4625	173
778.4664	237
778.4703	261
778.4742	349
778.4782	443
778.4821	548
778.4861	628
778.49	688
778.494	839
778.4979	754
778.5018	768
778.5057	997
778.5097	999
778.5136	869
778.5176	963
778.5215	738
778.5255	716
778.5294	610
778.5333	500
778.5372	489
778.5412	401
778.5451	295
778.5491	223
778.553	94
778.5569	96
778.5609	106
778.5648	58
778.5687	36
778.5727	30
778.5766	36
778.5923	14
779.4785	14
779.4863	20
779.4982	14
779.5021	34
779.506	14
779.51	28
779.5139	28
779.5179	28
779.5218	14
779.5258	20
779.5297	28
779.5375	14
779.5612	14
793.4382	14
793.4621	20
793.4661	28
793.47	20
793.482	14
852.4762	20
852.4844	28
852.4927	14
852.4968	14
852.5009	28
852.505	40
852.5092	28
852.5132	54
852.5174	34
852.5215	48
852.5256	116
852.5297	62
852.5339	28
852.538	48
852.5421	40
852.5462	62
852.5504	68
852.5544	82
852.5586	34
852.5627	34
852.5668	68
852.5709	74
852.5751	14
852.5792	40
852.5833	40
852.5874	40
852.5956	28
852.5998	20
852.6039	14
