Mass spectrum: PE 38:4; LC-ESI-QTOF; MS2
Name: PE 38:4
Class: PE
Formula: C43H78NO8P
Exact mass: 768.0719999999999
SMILES: CCCCC\C=C/C\C=C/CCCCCCCCCC(=O)OC(COC(=O)CCCCCCC\C=C/C\C=C/CCCCC)COP(O)(=O)OCCN
InChI: InChI=1S/C43H78NO8P/c1-3-5-7-9-11-13-15-17-19-20-22-24-26-28-30-32-34-36-43(46)52-41(40-51-53(47,48)50-38-37-44)39-49-42(45)35-33-31-29-27-25-23-21-18-16-14-12-10-8-6-4-2/h11-14,17-19,21,41H,3-10,15-16,20,22-40,44H2,1-2H3,(H,47,48)/b13-11-,14-12-,19-17-,21-18-
Instrument: AB Sciex TripleTOF 5600+ system (Q-TOF) equipped with a DuoSpray ion source
Instrument type: LC-ESI-QTOF
Ms type: MS2
Ion mode: NEGATIVE
Collision energy: 45V
Column name: Acquity UPLC Peptide BEH C18 column (50*2.1 mm; 1.7 um; 130A)(Waters Co.,Milford, MA, USA)
Retention time: 9.793209
Precursor type: [M-H]-
Precursor m/z: 766.538
m/z	relative intensity
140.01	45
196.035	38
197.041	17
203.177	29
204.183	10
237.226	30
257.225	75
258.23	135
259.232	17
279.228	272
279.239	121
280.265	23
281.248	102
283.264	308
284.268	295
284.297	12
285.268	144
301.192	16
301.216	403
302.208	64
302.222	377
303.222	275
305.246	214
307.264	200
462.297	10
463.3	16
464.29	16
476.275	16
478.308	16
480.309	38
481.313	62
482.315	55
486.301	10
488.474	13
502.295	7
504.31	16
716.579	6
764.125	16
765.54	6
765.762	8
766.462	13
766.521	999
766.552	509
767.581	6
