Mass spectrum: PI(17:0/18-HEPE); LC-ESI-QTOF; MS2
Name: PI(17:0/18-HEPE)
Class: Oxidized Phospholipid
Formula: C46H79O14P
Exact mass: 887.1
SMILES: CCCCCCCCCCCCCCCCC(=O)OCC(COP(O)(=O)OC1C(O)C(O)C(O)C(O)C1O)OC(=O)CCC\C=C/C\C=C/C\C=C/C\C=C/C=C/C(O)CC
InChI: InChI=1S/C46H79O14P/c1-3-5-6-7-8-9-10-11-15-18-21-24-27-30-33-39(48)57-35-38(36-58-61(55,56)60-46-44(53)42(51)41(50)43(52)45(46)54)59-40(49)34-31-28-25-22-19-16-13-12-14-17-20-23-26-29-32-37(47)4-2/h13-14,16-17,22-23,25-26,29,32,37-38,41-47,50-54H,3-12,15,18-21,24,27-28,30-31,33-36H2,1-2H3,(H,55,56)/b16-13-,17-14-,25-22-,26-23-,32-29+
Instrument: Acquity UPLC Peptide BEH C18 column (50 x 2.1 mm; 1.7 um), Sciex TripleTOF5600
Instrument type: LC-ESI-QTOF
Ms type: MS2
Ion mode: NEGATIVE
Collision energy: 30-50
Precursor m/z: 885.5134677
Precursor type: [M-H]-
m/z	relative intensity
215.1703	16
215.1806	16
215.1848	16
223.0059	16
240.9994	16
241.0016	41
241.0038	33
241.006	66
241.0082	57
241.0104	90
241.0126	74
241.0148	90
241.017	82
241.0191	33
241.0213	16
241.0235	41
241.0279	16
241.0301	16
255.1994	16
255.2039	16
255.2084	16
255.2107	25
255.2129	41
255.2152	25
255.2197	16
255.2219	33
259.0206	16
259.1546	16
259.1592	16
259.166	16
259.1683	33
259.1728	49
259.1842	16
269.2314	25
269.2337	25
269.236	57
269.2383	16
269.2406	33
269.2429	74
269.2452	25
269.2476	57
269.2499	74
269.2522	74
269.2545	41
269.2568	16
269.2591	33
269.2614	33
273.2212	25
299.1925	16
299.1974	25
299.1999	25
299.2023	16
299.2047	16
299.2072	25
299.2096	33
299.2145	16
315.0512	16
315.0612	16
317.1936	16
317.1961	33
317.1986	33
317.2037	41
317.2062	66
317.2087	57
317.2112	74
317.2137	49
317.2162	82
317.2187	33
317.2213	57
317.2238	16
317.2288	16
317.2313	16
405.2222	16
405.2279	16
405.2307	16
405.2336	25
405.2392	25
405.2421	49
405.2449	25
405.2477	33
405.2506	25
405.2563	41
453.1989	16
453.2079	25
567.2629	25
567.2663	16
567.2797	16
567.2864	25
567.2898	16
567.2999	25
567.3066	33
567.31	16
567.3134	41
567.3167	33
567.3201	16
567.3234	16
567.3268	16
585.2819	16
585.299	25
585.3092	16
585.316	25
585.3263	33
615.2407	16
615.2512	16
615.2546	16
615.2581	16
615.2861	16
882.713	16
882.7339	16
883.4803	16
885.4399	25
885.4442	60
885.4567	19
885.4609	55
885.4651	73
885.4694	193
885.4735	264
885.4777	259
885.4819	272
885.4861	346
885.4904	339
885.4945	615
885.4987	599
885.5029	694
885.5071	626
885.5113	745
885.5155	934
885.5197	999
885.5239	933
885.5281	927
885.5323	740
885.5365	721
885.5407	661
885.5449	573
885.5491	536
885.5533	528
885.5575	420
885.5617	301
885.5659	226
885.5701	235
885.5743	170
885.5785	165
885.5827	94
885.5869	151
885.5911	55
885.5953	37
885.5995	18
885.6037	29
885.6121	10
885.7632	10
886.4815	16
886.4941	16
886.4983	25
886.5025	25
886.5151	25
886.5235	25
886.5277	33
886.5319	16
886.5361	18
886.5403	33
886.5445	33
886.5487	16
