Mass spectrum: PC 33:1; LC-ESI-QTOF; MS2
Name: PC 33:1
Class: PC
Formula: C41H80NO8P
Exact mass: 746.0659999999999
SMILES: CCCCCCCCCCCCCCC(=O)OCC(COP([O-])(=O)OCC[N+](C)(C)C)OC(=O)CCCCCCC\C=C/CCCCCCCC
InChI: InChI=1S/C41H80NO8P/c1-6-8-10-12-14-16-18-20-21-22-24-26-28-30-32-34-41(44)50-39(38-49-51(45,46)48-36-35-42(3,4)5)37-47-40(43)33-31-29-27-25-23-19-17-15-13-11-9-7-2/h20-21,39H,6-19,22-38H2,1-5H3/b21-20-
Instrument: AB Sciex TripleTOF 5600+ system (Q-TOF) equipped with a DuoSpray ion source
Instrument type: LC-ESI-QTOF
Ms type: MS2
Ion mode: NEGATIVE
Collision energy: 45V
Column name: Acquity UPLC Peptide BEH C18 column (50*2.1 mm; 1.7 um; 130A)(Waters Co.,Milford, MA, USA)
Retention time: 9.496885
Precursor type: [M+CH3COOH-H]-
Precursor m/z: 804.5758
m/z	relative intensity
168.043	11
224.073	11
241.217	254
253.216	41
255.23	158
267.231	347
269.254	18
271.22	7
281.248	500
281.376	7
282.237	11
283.262	34
284.261	22
303.24	7
448.285	11
466.294	41
474.296	11
480.311	30
494.295	8
494.333	9
506.307	7
582.532	7
598.544	23
717.502	7
722.476	7
728.21	11
729.796	7
730.534	999
730.578	65
744.518	64
744.597	22
804.579	92
