Mass spectrum: Cer[NS] d39:1; LC-ESI-QTOF; MS2
Name: Cer[NS] d39:1
Class: Cer_NS
Formula: C39H77NO3
Exact mass: 608.0489999999999
SMILES: CCCCCCCCCCCCCCCCCCCCC(=O)NC(CO)C(O)\C=C\CCCCCCCCCCCCC
InChI: InChI=1S/C39H77NO3/c1-3-5-7-9-11-13-15-17-18-19-20-21-23-25-27-29-31-33-35-39(43)40-37(36-41)38(42)34-32-30-28-26-24-22-16-14-12-10-8-6-4-2/h32,34,37-38,41-42H,3-31,33,35-36H2,1-2H3,(H,40,43)/b34-32+
Instrument: AB Sciex TripleTOF 5600+ system (Q-TOF) equipped with a DuoSpray ion source
Instrument type: LC-ESI-QTOF
Ms type: MS2
Ion mode: NEGATIVE
Collision energy: 45V
Column name: Acquity UPLC Peptide BEH C18 column (50*2.1 mm; 1.7 um; 130A)(Waters Co.,Milford, MA, USA)
Retention time: 12.90041
Precursor type: [M+CH3COOH-H]-
Precursor m/z: 666.6008
m/z	relative intensity
141.017	3
223.207	15
235.205	5
237.221	70
239.235	4
249.217	7
249.23	5
250.252	4
252.236	3
254.245	2
263.235	55
266.247	14
268.262	9
286.972	2
294.972	2
298.273	5
307.298	92
309.315	2
321.318	17
323.329	7
324.325	71
325.31	57
335.329	2
337.345	3
338.337	14
338.353	3
339.321	10
350.34	330
352.944	3
364.309	2
364.357	70
366.334	48
368.342	2
376.939	2
378.371	11
380.349	16
531.552	2
558.556	57
558.583	10
574.545	51
574.567	9
576.565	103
576.633	2
588.57	4
604.668	5
606.574	999
606.648	2
607.572	3
620.587	1
666.58	2
