Mass spectrum: PI(18:1/20-HDoHE); LC-ESI-QTOF; MS2
Name: PI(18:1/20-HDoHE)
Class: Oxidized Phospholipid
Formula: C49H81O14P
Exact mass: 925.149
SMILES: CCCCCCCC\C=C/CCCCCCCC(=O)OCC(COP(O)(=O)OC1C(O)C(O)C(O)C(O)C1O)OC(=O)CC\C=C/C\C=C/C\C=C/C\C=C/C\C=C/C=C/C(O)CC
InChI: InChI=1S/C49H81O14P/c1-3-5-6-7-8-9-10-11-14-18-21-24-27-30-33-36-42(51)60-38-41(39-61-64(58,59)63-49-47(56)45(54)44(53)46(55)48(49)57)62-43(52)37-34-31-28-25-22-19-16-13-12-15-17-20-23-26-29-32-35-40(50)4-2/h11-14,17,19-20,22,26,28-29,31-32,35,40-41,44-50,53-57H,3-10,15-16,18,21,23-25,27,30,33-34,36-39H2,1-2H3,(H,58,59)/b13-12-,14-11-,20-17-,22-19-,29-26-,31-28-,35-32+
Instrument: Acquity UPLC Peptide BEH C18 column (50 x 2.1 mm; 1.7 um), Sciex TripleTOF5600
Instrument type: LC-ESI-QTOF
Ms type: MS2
Ion mode: NEGATIVE
Collision energy: 30-50
Precursor m/z: 923.5291178
Precursor type: [M-H]-
m/z	relative intensity
78.95736	3
78.95986	3
78.96112	4
78.96237	4
93.07578	3
96.96797	3
107.091	4
131.0821	3
135.1141	3
135.1206	3
149.1386	3
152.992	6
152.9937	3
152.9955	6
152.9972	6
152.9989	6
153.0007	4
153.0024	5
153.0042	3
187.1462	3
187.1481	4
187.15	3
187.152	5
187.1616	3
189.159	3
189.1648	3
189.1959	3
207.1269	3
207.137	4
222.9906	3
222.9927	6
222.9948	3
222.9969	5
222.999	9
223.0011	5
223.0033	6
223.0054	9
223.0075	5
223.0096	5
223.0138	3
223.0159	3
223.018	3
227.1777	3
227.1798	5
227.1862	3
240.9901	3
240.9923	4
240.9945	10
240.9967	8
240.9989	21
241.0011	28
241.0032	41
241.0054	50
241.0076	46
241.0098	62
241.012	79
241.0142	54
241.0164	64
241.0186	49
241.0208	23
241.0229	27
241.0251	17
241.0273	8
241.0295	6
241.0317	8
241.0339	4
241.0361	3
241.0383	3
241.1785	3
241.1829	10
241.1851	8
241.1873	9
241.1895	22
241.1917	12
241.1938	12
241.196	12
241.1982	15
241.2004	13
241.2026	19
241.2048	4
241.207	3
241.2136	3
247.171	3
247.1732	3
259.0019	3
259.0087	4
259.011	5
259.0132	3
259.0155	5
259.0178	3
259.0201	3
259.0223	4
259.0246	6
259.0269	3
259.0291	5
259.0314	3
259.0337	5
259.1722	3
271.1721	3
280.3495	3
280.3542	4
280.3637	3
281.2054	3
281.2125	8
281.2149	9
281.2172	22
281.2196	15
281.222	19
281.2243	35
281.2267	30
281.2291	42
281.2314	27
281.2338	47
281.2361	53
281.2385	37
281.2409	65
281.2433	62
281.2456	73
281.248	78
281.2503	91
281.2527	56
281.2551	50
281.2574	50
281.2598	39
281.2622	21
281.2646	25
281.2669	9
281.2693	11
281.274	4
281.2764	5
281.2811	3
282.2617	3
285.1659	3
285.1754	10
285.1778	8
285.1802	15
285.1826	13
285.1849	14
285.1873	13
285.1897	8
285.1921	10
285.1945	9
285.1968	4
285.1992	5
285.204	3
297.0238	4
297.0286	5
297.0311	5
297.0335	4
297.0359	5
297.0384	9
297.0408	5
297.0432	8
297.0457	3
297.0505	5
297.0529	3
297.2256	3
299.2212	3
299.2237	12
299.2261	8
299.2285	8
299.231	18
299.2334	12
299.2359	9
299.2383	13
299.2408	9
299.2432	14
299.2456	13
299.2481	4
299.2505	5
299.253	5
299.2578	3
299.2603	3
315.0356	4
315.0381	4
315.0431	3
315.0456	4
315.0481	5
315.0506	4
315.0531	5
315.0556	8
315.0581	4
315.0606	4
315.0631	3
315.0681	4
315.0706	3
325.1861	4
325.1963	4
325.1988	4
325.2014	3
325.2039	10
325.2065	8
325.209	13
325.2115	23
325.2141	17
325.2166	10
325.2192	17
325.2217	13
325.2243	15
325.2268	13
325.2294	13
325.2319	10
325.2344	6
325.237	4
325.2395	5
342.1359	3
343.1911	3
343.1989	5
343.2015	7
343.2042	9
343.2068	17
343.2094	12
343.212	34
343.2146	17
343.2172	34
343.2198	38
343.2224	45
343.2251	58
343.2277	71
343.2303	51
343.2329	46
343.2355	49
343.2381	35
343.2408	21
343.2433	12
343.246	17
343.2486	12
343.2512	10
343.2538	6
343.2564	5
343.259	3
343.2617	3
417.2041	3
417.2069	3
417.2156	4
417.2185	4
417.2213	9
417.2242	10
417.2271	9
417.23	12
417.2329	19
417.2357	13
417.2386	39
417.2415	23
417.2444	21
417.2473	17
417.2502	18
417.2531	13
417.256	18
417.2588	9
417.2617	4
417.2646	4
417.2675	4
417.2732	3
435.249	4
435.2549	3
435.2578	3
435.2608	3
479.1916	3
479.1978	4
479.2008	3
479.2039	3
479.207	5
479.2132	14
479.2163	4
479.2194	6
479.2225	5
479.2256	5
479.2286	5
479.2318	3
479.2348	9
479.2379	6
479.241	4
479.2503	3
577.4837	3
579.2482	4
579.255	6
579.2584	3
579.2618	5
579.2652	8
579.2686	14
579.272	10
579.2753	19
579.2787	12
579.2822	13
579.2855	23
579.2889	17
579.2924	25
579.2957	25
579.2991	22
579.3025	23
579.3059	32
579.3093	30
579.3127	30
579.3161	10
579.3195	15
579.3229	5
579.3263	6
579.3297	12
579.3331	9
579.3399	3
579.3433	3
579.3467	3
579.3535	3
580.3082	3
597.2723	3
597.2758	4
597.2792	4
597.2827	10
597.2861	6
597.2896	13
597.293	8
597.2964	10
597.2999	12
597.3033	21
597.3068	23
597.3102	15
597.3137	13
597.3171	10
597.3206	6
597.324	10
597.3275	9
597.3309	8
597.3344	8
597.3378	5
597.3412	4
597.3654	3
641.2323	4
641.2358	4
641.243	5
641.2466	5
641.2501	4
641.2537	8
641.2573	10
641.2609	5
641.2645	6
641.268	6
641.2716	8
641.2751	13
641.2787	15
641.2823	14
641.2859	6
641.2895	10
641.293	5
641.2966	6
641.3002	8
641.3038	4
641.3073	4
641.3109	5
641.3145	3
659.2722	3
659.2975	3
659.312	3
761.4493	3
761.4688	3
761.4883	3
761.4999	3
920.583	3
920.5873	5
920.5916	3
920.6087	3
920.613	5
920.6173	8
920.6216	6
920.6259	4
920.6301	5
920.6344	3
920.6387	6
920.6429	9
920.6473	8
920.6516	4
920.6558	3
920.6601	8
920.6644	4
920.6686	3
920.7286	3
923.3464	3
923.3936	3
923.4021	3
923.4064	3
923.415	3
923.4193	3
923.4321	3
923.4364	6
923.445	4
923.4622	14
923.4664	9
923.4707	46
923.475	72
923.4793	73
923.4836	91
923.4879	123
923.4922	173
923.4965	253
923.5007	343
923.505	397
923.5093	524
923.5136	588
923.5179	766
923.5222	752
923.5265	840
923.5308	896
923.535	895
923.5393	903
923.5436	984
923.5479	999
923.5522	869
923.5565	867
923.5607	774
923.5651	724
923.5693	573
923.5736	503
923.5779	354
923.5822	291
923.5865	222
923.5908	141
923.5951	130
923.5994	109
923.6036	79
923.6079	36
923.6122	34
923.6165	27
923.6208	15
923.6251	11
923.6294	12
923.6337	9
923.6379	8
923.6422	2
923.6465	4
923.6508	3
923.6551	9
923.9982	2
924.114	3
924.4357	3
924.4572	3
924.4658	6
924.4786	3
924.4829	5
924.4872	6
924.4915	5
924.4958	9
924.5001	10
924.5043	17
924.5087	14
924.5129	18
924.5172	32
924.5215	32
924.5258	32
924.5301	30
924.5344	32
924.5387	32
924.543	50
924.5472	39
924.5516	36
924.5558	30
924.5601	41
924.5644	23
924.5687	40
924.573	27
924.5773	17
924.5816	15
924.5859	14
924.5901	15
924.5944	12
924.603	5
924.6245	3
925.3884	3
926.2943	3
930.4515	3
931.1187	3
