Mass spectrum: PG 34:2; LC-ESI-QTOF; MS2
Name: PG 34:2
Class: PG
Formula: C40H75O10P
Exact mass: 747.006
SMILES: CCCCCCCCCCCCCCCC(=O)OCC(COP(O)(=O)OCC(O)CO)OC(=O)CCCCCCC\C=C/C\C=C/CCCCC
InChI: InChI=1S/C40H75O10P/c1-3-5-7-9-11-13-15-17-18-20-22-24-26-28-30-32-40(44)50-38(36-49-51(45,46)48-34-37(42)33-41)35-47-39(43)31-29-27-25-23-21-19-16-14-12-10-8-6-4-2/h11,13,17-18,37-38,41-42H,3-10,12,14-16,19-36H2,1-2H3,(H,45,46)/b13-11-,18-17-
Instrument: AB Sciex TripleTOF 5600+ system (Q-TOF) equipped with a DuoSpray ion source
Instrument type: LC-ESI-QTOF
Ms type: MS2
Ion mode: NEGATIVE
Collision energy: 45V
Column name: Acquity UPLC Peptide BEH C18 column (50*2.1 mm; 1.7 um; 130A)(Waters Co.,Milford, MA, USA)
Retention time: 8.358883
Precursor type: [M-H]-
Precursor m/z: 745.4998
m/z	relative intensity
78.958	4
96.968	1
134.985	0
152.995	37
171.005	16
209.015	1
209.026	2
227.032	9
245.042	0
253.205	1
253.218	2
254.423	0
254.439	1
254.724	0
255.233	380
256.236	1
261.219	1
278.343	1
278.36	2
278.374	2
278.954	0
279.164	0
279.232	999
280.23	0
281.231	0
281.247	5
283.26	0
391.221	22
391.24	6
409.22	1
409.245	1
415.213	2
415.226	1
415.246	1
433.23	1
451.262	0
463.249	0
465.225	2
465.256	20
465.278	6
479.492	0
481.273	0
481.775	0
483.237	3
483.273	48
489.254	5
489.271	4
490.261	0
507.24	1
507.268	4
563.752	0
671.444	0
671.478	1
687.458	0
713.422	0
713.439	0
713.471	7
713.52	1
743.124	1
743.15	2
743.186	0
743.588	0
745.36	0
745.497	576
746.484	1
746.518	0
746.604	0
