Mass spectrum: PC 38:5; LC-ESI-QTOF; MS2
Name: PC 38:5
Class: PC
Formula: C46H82NO8P
Exact mass: 808.137
SMILES: CCCCCCCCCCCCCCCC(=O)OCC(COP([O-])(=O)OCC[N+](C)(C)C)OC(=O)CCCCC\C=C/C\C=C/C\C=C/C\C=C/C\C=C/CC
InChI: InChI=1S/C46H82NO8P/c1-6-8-10-12-14-16-18-20-21-22-23-24-25-27-29-31-33-35-37-39-46(49)55-44(43-54-56(50,51)53-41-40-47(3,4)5)42-52-45(48)38-36-34-32-30-28-26-19-17-15-13-11-9-7-2/h8,10,14,16,20-21,23-24,27,29,44H,6-7,9,11-13,15,17-19,22,25-26,28,30-43H2,1-5H3/b10-8-,16-14-,21-20-,24-23-,29-27-
Instrument: AB Sciex TripleTOF 5600+ system (Q-TOF) equipped with a DuoSpray ion source
Instrument type: LC-ESI-QTOF
Ms type: MS2
Ion mode: NEGATIVE
Collision energy: 45V
Column name: Acquity UPLC Peptide BEH C18 column (50*2.1 mm; 1.7 um; 130A)(Waters Co.,Milford, MA, USA)
Retention time: 9.418758
Precursor type: [M+CH3COOH-H]-
Precursor m/z: 866.5901
m/z	relative intensity
78.958	3
152.996	1
168.042	15
179.179	1
205.192	1
224.067	19
231.196	1
231.214	8
242.08	3
251.198	4
251.211	1
254.441	2
255.232	396
256.237	1
257.216	0
257.24	0
259.173	1
259.244	3
273.177	0
281.244	15
281.254	4
281.259	3
283.246	1
285.257	54
303.231	49
311.227	1
311.243	1
327.231	1
328.183	0
328.216	5
329.246	999
330.256	0
391.226	1
406.263	1
409.23	0
444.916	0
462.271	2
462.297	22
465.243	1
478.808	1
480.284	13
480.306	78
480.326	19
488.303	2
495.27	0
497.689	0
506.306	1
506.324	5
510.304	0
528.304	0
536.294	3
536.312	7
536.344	1
554.32	9
721.453	0
721.497	1
747.493	2
790.026	2
790.052	3
790.086	2
791.539	0
791.614	1
792.401	2
792.548	970
793.02	0
793.069	0
793.542	2
793.565	2
807.475	1
807.507	10
807.549	3
866.519	2
866.546	14
866.582	78
866.61	36
866.635	6
