Mass spectrum: PS(18:1/16,17-EpDPE); LC-ESI-QTOF; MS2
Name: PS(18:1/16,17-EpDPE)
Class: Oxidized Phospholipid
Formula: C46H76NO11P
Exact mass: 850.086
SMILES: CCCCCCCC\C=C/CCCCCCCC(=O)OCC(COP(O)(=O)OCC(N)C(O)=O)OC(=O)CC\C=C/C\C=C/C\C=C/C\C=C/CC1OC1C\C=C/CC
InChI: InChI=1S/C46H76NO11P/c1-3-5-7-8-9-10-11-12-13-14-18-21-24-27-31-35-44(48)54-37-40(38-55-59(52,53)56-39-41(47)46(50)51)57-45(49)36-32-28-25-22-19-16-15-17-20-23-26-30-34-43-42(58-43)33-29-6-4-2/h6,12-13,16-17,19-20,25-26,28-30,40-43H,3-5,7-11,14-15,18,21-24,27,31-39,47H2,1-2H3,(H,50,51)(H,52,53)/b13-12-,19-16-,20-17-,28-25-,29-6-,30-26-
Instrument: Acquity UPLC Peptide BEH C18 column (50 x 2.1 mm; 1.7 um), Sciex TripleTOF5600
Instrument type: LC-ESI-QTOF
Ms type: MS2
Ion mode: NEGATIVE
Collision energy: 30-50
Precursor m/z: 848.5083228
Precursor type: [M-H]-
m/z	relative intensity
78.95335	43
78.9546	43
78.95709	43
78.95833	43
78.95958	43
78.96083	43
78.96207	85
78.96456	43
152.979	43
152.9843	43
152.986	43
152.9877	170
152.9895	170
152.9912	319
152.9929	43
152.9947	213
152.9964	128
152.9999	43
153.0051	43
170.9995	43
171.0013	43
201.1553	43
201.1632	43
201.1652	43
233.15	43
233.1522	43
233.1543	43
233.1607	43
233.1671	43
245.1498	43
245.1586	43
245.1652	43
253.2128	43
253.2217	43
253.2284	43
267.1908	85
281.222	43
281.2267	85
281.2314	43
281.2338	170
281.2361	269
281.2385	43
281.2409	241
281.2432	170
281.2456	453
281.2479	376
281.2503	170
281.2526	227
281.255	269
281.2573	43
281.2597	43
281.2644	43
281.2668	43
343.2098	43
343.2124	43
343.215	85
343.2176	85
343.2202	43
343.2228	128
343.2254	170
343.228	85
343.2306	43
343.2332	128
343.2358	43
415.127	43
415.1442	43
417.2186	85
417.2215	85
417.2243	43
417.2272	85
417.23	269
417.2329	241
417.2358	170
417.2386	397
417.2415	326
417.2444	128
417.2473	227
417.2501	170
417.253	170
417.2558	85
417.2644	85
417.2673	43
421.9935	43
421.9963	43
435.2337	43
435.2367	43
435.2396	43
435.2425	43
435.2455	85
435.2484	85
435.2571	170
435.2601	128
435.263	43
435.2747	43
479.1888	43
479.1918	85
479.201	85
479.2041	170
479.2072	227
479.2102	248
479.2133	269
479.2164	262
479.2195	255
479.2225	170
479.2256	248
479.2287	213
479.2317	43
479.2379	170
497.1894	43
497.2082	43
497.2176	85
497.2238	43
497.227	227
497.2301	43
497.2332	85
497.2363	43
497.2426	128
497.2457	43
497.252	43
497.2614	43
499.8637	43
499.9045	43
639.8132	43
639.8167	43
649.6385	43
649.6457	43
756.4856	43
756.5396	43
759.0878	43
759.1149	43
761.4042	43
761.4313	85
761.4352	85
761.4391	85
761.4429	241
761.4468	170
761.4507	227
761.4545	531
761.4584	439
761.4623	638
761.4661	588
761.47	786
761.4739	999
761.4778	609
761.4816	517
761.4855	397
761.4894	581
761.4932	354
761.4971	418
761.501	213
761.5049	128
761.5087	43
761.5126	128
761.5165	43
761.5203	43
761.5242	43
761.5319	85
774.4788	43
774.4866	43
774.51	43
774.514	85
774.5178	43
774.5217	43
774.5295	43
774.5334	43
774.5374	43
774.5413	43
774.5491	85
774.5686	43
780.4974	43
780.5209	43
780.5327	43
847.9497	43
847.9946	43
848.3827	43
848.399	43
848.4317	43
848.4481	43
848.4521	43
848.4562	43
848.4603	43
848.4644	43
848.4684	213
848.4725	241
848.4766	368
848.4807	290
848.4848	312
848.4889	354
848.493	255
848.4971	623
848.5012	588
848.5052	560
848.5093	453
848.5134	397
848.5175	468
848.5215	616
848.5256	503
848.5297	453
848.5338	262
848.5379	248
848.542	128
848.5461	128
848.5502	128
848.5624	85
848.5665	43
848.5747	43
