Mass spectrum: PC(16:0e/17-HDoHE); LC-ESI-QTOF; MS2
Name: PC(16:0e/17-HDoHE)
Class: Oxidized Phospholipid
Formula: C46H82NO8P
Exact mass: 808.137
SMILES: CCCCCCCCCCCCCCCCOCC(COP([O-])(=O)OCC[N+](C)(C)C)OC(=O)CC\C=C/C\C=C/C\C=C/C\C=C/C=C\C(O)C\C=C/CC
InChI: InChI=1S/C46H82NO8P/c1-6-8-10-11-12-13-14-15-19-22-25-28-31-35-40-52-42-45(43-54-56(50,51)53-41-39-47(3,4)5)55-46(49)38-34-30-27-24-21-18-16-17-20-23-26-29-33-37-44(48)36-32-9-7-2/h9,17-18,20-21,26-27,29-30,32-33,37,44-45,48H,6-8,10-16,19,22-25,28,31,34-36,38-43H2,1-5H3/b20-17-,21-18-,29-26-,30-27-,32-9-,37-33-
Instrument: Acquity UPLC Peptide BEH C18 column (50 x 2.1 mm; 1.7 um), Sciex TripleTOF5600
Instrument type: LC-ESI-QTOF
Ms type: MS2
Ion mode: NEGATIVE
Collision energy: 30-50
Precursor m/z: 866.5916581
Precursor type: [M+CH3COOH-H]-
m/z	relative intensity
147.1177	26
173.1408	26
201.1579	40
201.1599	26
201.1639	79
201.1659	26
201.1679	53
201.1699	26
201.1719	26
201.1759	40
201.1859	26
227.1735	26
229.1577	26
245.1432	26
245.1521	66
245.1543	66
245.1565	120
245.1587	53
245.1609	26
245.1631	53
246.1605	26
273.1505	26
273.1528	26
274.1424	26
274.1565	26
274.1588	26
274.1635	26
281.2123	79
281.2147	40
281.217	40
281.2194	66
281.2218	53
281.2242	26
281.2265	66
281.2289	79
281.2312	79
281.2336	79
281.236	92
281.2383	40
283.239	26
299.2332	26
299.243	26
325.2061	40
325.2112	26
325.2137	66
325.2162	79
325.2188	53
325.2213	40
325.2239	26
325.2264	53
325.229	26
325.2315	40
343.2063	26
343.2089	66
343.2115	120
343.2141	66
343.2168	79
343.2194	186
343.222	92
343.2246	279
343.2272	212
343.2298	146
343.2325	146
343.235	146
343.2377	40
343.2403	173
343.2429	53
343.2455	53
343.2481	53
343.2508	26
375.2437	26
377.2307	26
377.2389	26
377.2416	40
377.2471	40
448.2905	26
448.3055	26
448.3144	26
448.3174	26
448.3294	53
448.3324	40
448.3353	26
448.3473	26
466.2967	26
466.3059	26
466.3089	26
466.312	40
466.315	26
466.3181	92
466.3211	66
466.3242	66
466.3272	120
466.3303	186
466.3333	133
466.3363	146
466.3394	92
466.3424	40
466.3455	120
466.3485	53
466.3516	66
466.3607	26
695.49	26
721.4551	26
721.4626	40
721.4778	26
721.4816	26
721.4892	26
721.493	26
721.5119	26
722.4749	26
722.4825	40
722.5052	26
790.1065	27
791.8882	27
792.4601	27
792.48	40
792.4879	40
792.4919	95
792.4958	42
792.4998	14
792.5038	83
792.5078	152
792.5117	125
792.5157	197
792.5197	184
792.5237	285
792.5276	418
792.5316	520
792.5356	664
792.5396	580
792.5435	781
792.5475	753
792.5515	686
792.5554	840
792.5594	771
792.5634	999
792.5673	989
792.5714	757
792.5753	845
792.5793	813
792.5833	768
792.5872	597
792.5912	434
792.5952	379
792.5991	264
792.6031	132
792.6071	173
792.611	44
792.615	59
792.619	44
792.623	16
792.627	14
792.6309	43
792.6349	29
792.6826	14
792.7898	14
793.5528	26
793.5568	26
793.5647	53
793.5687	40
793.5766	26
793.5806	53
793.5925	26
806.5432	26
806.5712	26
806.5872	40
807.5653	26
819.5906	26
866.5231	40
866.5314	40
866.5355	26
866.5439	26
866.548	40
866.5522	53
866.5563	40
866.5605	53
866.5646	53
866.5688	26
866.5729	40
866.5771	40
866.5812	26
866.5854	79
866.5895	66
866.5937	53
866.5978	120
866.6061	92
866.6103	79
866.6144	26
866.6186	53
866.6228	92
866.627	26
866.6353	26
866.6394	40
866.6477	26
