Mass spectrum: PC 36:2; LC-ESI-QTOF; MS2
Name: PC 36:2
Class: PC
Formula: C44H84NO8P
Exact mass: 786.1309999999999
SMILES: CCCCCCCC\C=C/CCCCCCCC(=O)OCC(COP([O-])(=O)OCC[N+](C)(C)C)OC(=O)CCCCCCC\C=C/CCCCCCCC
InChI: InChI=1S/C44H84NO8P/c1-6-8-10-12-14-16-18-20-22-24-26-28-30-32-34-36-43(46)50-40-42(41-52-54(48,49)51-39-38-45(3,4)5)53-44(47)37-35-33-31-29-27-25-23-21-19-17-15-13-11-9-7-2/h20-23,42H,6-19,24-41H2,1-5H3/b22-20-,23-21-
Instrument: AB Sciex TripleTOF 5600+ system (Q-TOF) equipped with a DuoSpray ion source
Instrument type: LC-ESI-QTOF
Ms type: MS2
Ion mode: NEGATIVE
Collision energy: 45V
Column name: Acquity UPLC Peptide BEH C18 column (50*2.1 mm; 1.7 um; 130A)(Waters Co.,Milford, MA, USA)
Retention time: 9.988627
Precursor type: [M+CH3COOH-H]-
Precursor m/z: 844.6078
m/z	relative intensity
78.957	2
133.305	0
144.107	0
152.996	1
168.044	12
171.311	0
198.744	0
224.064	10
242.083	0
253.214	5
255.231	74
279.228	2
280.345	1
280.37	3
280.395	2
281.247	999
282.248	2
283.259	1
303.228	2
307.261	57
307.287	2
309.282	5
417.233	2
462.301	2
474.296	1
480.304	4
488.285	3
488.312	16
494.645	0
506.045	0
506.304	12
506.323	50
532.336	3
532.401	0
564.536	0
606.546	0
699.474	1
725.52	0
748.514	1
757.557	3
768.109	4
768.172	1
769.558	1
770.397	1
770.544	193
770.568	819
770.997	1
771.554	3
784.61	3
785.529	7
844.54	4
844.603	117
844.664	2
