Mass spectrum: PC(18:0/8,9-EpETE); LC-ESI-QTOF; MS2
Name: PC(18:0/8,9-EpETE)
Class: Oxidized Phospholipid
Formula: C46H82NO9P
Exact mass: 824.136
SMILES: CCCCCCCCCCCCCCCCCC(=O)OCC(COP([O-])(=O)OCC[N+](C)(C)C)OC(=O)CCC\C=C/CC1OC1C\C=C/C\C=C/C\C=C/CC
InChI: InChI=1S/C46H82NO9P/c1-6-8-10-12-14-16-17-18-19-20-21-23-25-27-32-36-45(48)52-40-42(41-54-57(50,51)53-39-38-47(3,4)5)55-46(49)37-33-29-28-31-35-44-43(56-44)34-30-26-24-22-15-13-11-9-7-2/h9,11,15,22,26,28,30-31,42-44H,6-8,10,12-14,16-21,23-25,27,29,32-41H2,1-5H3/b11-9-,22-15-,30-26-,31-28-
Instrument: Acquity UPLC Peptide BEH C18 column (50 x 2.1 mm; 1.7 um), Sciex TripleTOF5600
Instrument type: LC-ESI-QTOF
Ms type: MS2
Ion mode: NEGATIVE
Collision energy: 30-50
Precursor m/z: 882.5865727
Precursor type: [M+CH3COOH-H]-
m/z	relative intensity
95.08192	4
95.08466	4
95.08603	4
95.0874	4
121.0637	4
121.0652	4
121.0667	4
121.0961	4
121.1069	4
123.075	4
123.0781	13
123.0828	4
127.0699	4
127.0715	4
127.0747	4
127.0762	4
127.0778	4
127.0794	13
133.0937	4
133.105	4
133.1067	4
135.075	4
135.0832	4
135.1093	4
135.1142	4
135.1207	9
139.0684	4
139.075	4
139.0783	4
139.0866	4
149.123	4
149.1247	4
149.1264	9
149.1281	17
149.1298	13
149.1315	4
149.1332	22
149.135	13
149.1367	4
149.1384	13
149.1435	4
149.1452	4
155.0624	22
155.0641	9
155.0659	17
155.0676	13
155.0694	22
155.0711	22
155.0729	4
155.0746	4
155.0764	9
155.0799	4
161.1285	4
161.1303	4
161.1321	9
161.1339	9
161.1356	9
161.1374	13
161.141	4
163.1465	9
163.1483	4
163.1555	4
166.5445	4
166.5481	4
167.0589	4
167.0625	13
167.0644	4
167.0662	17
167.068	13
167.0698	4
167.0716	13
167.0734	17
167.0752	9
167.0825	4
167.0879	4
168.0374	4
168.0393	9
168.0411	9
168.0429	13
168.0447	4
168.0465	9
168.0502	4
168.0775	4
171.0929	4
171.0947	4
177.122	4
177.1257	4
177.1276	13
177.1295	4
177.1351	4
177.1369	4
177.1687	4
179.1005	4
183.0904	4
183.098	4
183.1018	4
183.1037	4
190.1273	9
190.1292	9
190.1311	4
190.1331	4
190.135	13
190.1369	4
190.1389	4
190.1485	4
198.3364	4
198.3403	4
201.1551	4
201.161	22
201.165	4
201.177	4
206.0521	4
206.0601	4
206.0642	4
212.9295	4
212.9642	4
219.1716	9
219.1799	4
224.0614	9
224.0635	9
224.0656	13
224.0677	9
224.0698	4
241.0058	4
241.008	4
241.0102	4
242.0783	4
242.087	4
255.196	4
255.2005	17
255.2027	9
255.205	17
255.2072	22
255.2094	13
255.2117	35
255.2139	25
255.2162	9
255.2206	4
273.2076	4
273.2123	4
273.2146	4
273.2169	4
273.2216	4
273.2239	9
273.2262	9
273.2308	4
273.2424	9
279.2308	4
279.2355	4
283.2103	4
283.2434	4
283.2458	9
283.2481	25
283.2505	37
283.2528	52
283.2552	95
283.2575	86
283.2599	75
283.2623	83
283.2646	100
283.267	80
283.2693	73
283.2717	61
283.2741	92
283.2764	21
283.2788	13
283.2812	13
283.2835	4
299.182	9
299.1868	9
299.1893	9
299.1917	17
299.1941	17
299.1966	23
299.199	35
299.2014	22
299.2038	22
299.2062	9
299.2111	9
299.2135	4
299.216	4
303.2275	4
303.2446	4
303.247	4
317.1859	9
317.1884	9
317.1909	4
317.1934	22
317.1959	24
317.1984	35
317.2008	42
317.2033	78
317.2058	131
317.2083	155
317.2108	183
317.2133	145
317.2159	85
317.2183	81
317.2208	99
317.2233	70
317.2258	24
317.2283	21
317.2308	4
317.2333	4
317.2358	9
318.1858	4
318.2158	4
333.1969	4
333.2404	4
345.2365	4
345.2469	4
345.26	4
357.5933	4
357.6383	4
391.22	4
391.2311	4
419.2345	4
419.2374	4
419.2431	4
419.246	9
419.2517	4
419.2546	4
441.8151	4
441.8358	4
449.5965	4
449.5995	4
458.3612	4
458.3732	4
458.7697	4
458.7756	4
459.0761	4
459.0851	4
469.9094	4
469.9155	4
480.3156	4
480.3187	4
480.7676	4
480.7737	9
486.7211	9
490.3139	9
490.317	4
490.3202	4
490.3295	4
490.3326	4
490.3357	4
490.3388	4
497.705	4
497.7175	4
506.6624	4
506.7224	4
508.2991	4
508.3117	4
508.3149	22
508.3181	13
508.3212	9
508.3244	17
508.3275	33
508.3307	37
508.3339	48
508.337	49
508.3402	22
508.3434	54
508.3465	27
508.3497	24
508.3528	34
508.356	22
508.3592	17
524.2484	4
524.2581	4
524.2709	17
524.2773	4
524.2805	4
524.2838	4
524.287	9
524.2934	4
542.265	4
542.2715	4
542.2748	4
542.2847	4
542.2912	4
542.3075	4
593.147	4
593.1778	4
737.4684	4
737.4875	4
746.063	4
746.0822	4
763.4636	4
763.4869	4
763.4908	4
763.4985	4
763.5024	4
763.5101	4
774.5404	4
774.5443	4
805.9622	4
805.9702	4
805.9821	9
805.9901	4
805.9941	4
805.998	9
806.002	4
806.006	13
806.01	4
806.014	9
806.0219	4
806.0299	9
806.0339	4
807.9224	4
807.9384	4
808.1417	4
808.1696	4
808.3929	4
808.4088	4
808.4247	4
808.4567	4
808.4726	4
808.4766	4
808.4926	4
808.4965	8
808.5005	12
808.5045	21
808.5085	22
808.5125	46
808.5165	48
808.5205	139
808.5245	219
808.5284	335
808.5324	380
808.5364	559
808.5404	624
808.5444	869
808.5484	900
808.5524	999
808.5564	816
808.5604	763
808.5643	492
808.5684	369
808.5723	211
808.5763	210
808.5803	148
808.5843	135
808.5883	38
808.5923	32
808.5963	32
808.6002	16
808.6042	8
808.6082	8
808.6241	4
808.6441	4
808.7159	4
810.0685	4
810.1205	4
810.3361	4
810.4039	4
810.4518	4
812.8973	4
812.9732	4
822.6192	4
822.6353	4
823.4843	4
823.4883	9
823.4924	17
823.4964	17
823.5004	9
823.5045	9
823.5085	9
823.5125	4
823.5246	9
823.5286	4
823.5326	4
823.5447	9
823.5487	4
840.5604	4
840.5726	4
840.6174	4
859.5256	9
859.5297	9
859.542	4
859.5461	4
863.9103	4
863.9144	4
882.4522	4
882.4938	4
882.5022	4
882.5063	4
882.5105	4
882.5146	4
882.523	4
882.5313	13
882.5355	4
882.5397	13
882.5438	9
882.5522	21
882.5563	23
882.5605	45
882.5647	56
882.5688	39
882.573	69
882.5771	35
882.5814	79
882.5855	76
882.5897	60
882.5938	91
882.598	74
882.6022	48
882.6063	39
882.6105	40
882.6147	28
882.6188	21
882.623	31
882.6272	21
882.6313	21
882.6355	4
882.6396	4
882.6439	4
882.648	9
882.6522	4
882.6647	4
883.3732	4
883.4232	4
883.4816	4
883.4941	4
883.5024	4
883.5066	4
883.5107	4
883.5149	4
883.5191	4
883.5274	13
883.5358	17
883.5399	9
883.5441	4
883.5483	4
883.5566	4
883.5691	4
883.5983	4
1089.57	9
1089.579	4
