Mass spectrum: PC 36:2; LC-ESI-QTOF; MS2
Name: PC 36:2
Class: PC
Formula: C44H84NO8P
Exact mass: 786.1309999999999
SMILES: CCCCCCCCCCCCCCCCCC(=O)OCC(COP([O-])(=O)OCC[N+](C)(C)C)OC(=O)CCCCCCC\C=C/C\C=C/CCCCC
InChI: InChI=1S/C44H84NO8P/c1-6-8-10-12-14-16-18-20-22-24-26-28-30-32-34-36-43(46)50-40-42(41-52-54(48,49)51-39-38-45(3,4)5)53-44(47)37-35-33-31-29-27-25-23-21-19-17-15-13-11-9-7-2/h15,17,21,23,42H,6-14,16,18-20,22,24-41H2,1-5H3/b17-15-,23-21-
Instrument: AB Sciex TripleTOF 5600+ system (Q-TOF) equipped with a DuoSpray ion source
Instrument type: LC-ESI-QTOF
Ms type: MS2
Ion mode: NEGATIVE
Collision energy: 45V
Column name: Acquity UPLC Peptide BEH C18 column (50*2.1 mm; 1.7 um; 130A)(Waters Co.,Milford, MA, USA)
Retention time: 10.2237
Precursor type: [M+CH3COOH-H]-
Precursor m/z: 844.6051
m/z	relative intensity
78.961	2
152.998	0
168.044	11
224.069	13
242.079	1
255.233	3
261.22	1
278.398	0
278.829	0
278.949	0
279.129	1
279.164	0
279.232	999
279.294	0
281.247	4
283.264	368
284.266	0
307.26	4
415.233	0
419.254	2
430.274	0
434.315	0
480.295	0
486.298	7
490.328	16
490.359	1
504.308	9
505.285	0
506.741	0
508.02	0
508.303	1
508.338	67
508.392	0
523.298	0
532.341	0
555.713	5
563.731	1
563.768	1
699.5	2
725.501	0
768.111	1
768.134	3
768.176	1
770.356	0
770.566	780
771.388	0
771.572	2
785.532	8
785.559	1
844.54	1
844.602	77
