Mass spectrum: PI(16:0/16,17-EpDPE); LC-ESI-QTOF; MS2
Name: PI(16:0/16,17-EpDPE)
Class: Oxidized Phospholipid
Formula: C47H79O14P
Exact mass: 899.111
SMILES: CCCCCCCCCCCCCCCC(=O)OCC(COP(O)(=O)OC1C(O)C(O)C(O)C(O)C1O)OC(=O)CC\C=C/C\C=C/C\C=C/C\C=C/CC1OC1C\C=C/CC
InChI: InChI=1S/C47H79O14P/c1-3-5-7-8-9-10-11-12-16-19-22-25-29-33-40(48)57-35-37(36-58-62(55,56)61-47-45(53)43(51)42(50)44(52)46(47)54)59-41(49)34-30-26-23-20-17-14-13-15-18-21-24-28-32-39-38(60-39)31-27-6-4-2/h6,14-15,17-18,23-24,26-28,37-39,42-47,50-54H,3-5,7-13,16,19-22,25,29-36H2,1-2H3,(H,55,56)/b17-14-,18-15-,26-23-,27-6-,28-24-
Instrument: Acquity UPLC Peptide BEH C18 column (50 x 2.1 mm; 1.7 um), Sciex TripleTOF5600
Instrument type: LC-ESI-QTOF
Ms type: MS2
Ion mode: NEGATIVE
Collision energy: 30-50
Precursor m/z: 897.5134677
Precursor type: [M-H]-
m/z	relative intensity
78.95446	6
78.95822	9
78.95947	6
78.96449	9
96.97582	6
152.9859	6
152.9894	14
152.9929	11
152.9981	9
153.0034	6
153.0051	6
189.1599	6
189.1638	6
201.1566	6
201.1606	6
201.1626	9
201.1647	9
201.1687	11
201.1727	6
215.1458	6
222.9894	9
222.9936	17
222.9957	17
222.9978	22
222.9999	14
223.002	31
223.0041	22
223.0062	11
223.0083	9
223.0105	6
223.0168	6
229.1564	6
229.1607	6
233.1443	9
233.1486	11
233.1507	11
233.1529	17
233.155	9
233.1572	6
233.1594	11
233.1615	9
233.1637	6
233.1658	6
233.168	6
240.9844	6
240.991	9
240.9953	9
240.9975	17
240.9997	22
241.0019	46
241.0041	71
241.0063	77
241.0085	77
241.0107	68
241.0129	77
241.0151	84
241.0172	57
241.0194	57
241.0216	17
241.0238	22
241.026	14
241.0304	9
242.015	6
245.1463	6
245.153	6
245.1574	9
245.1596	6
245.1618	6
246.168	6
255.2109	6
255.2155	11
255.2177	22
255.22	42
255.2222	62
255.2245	57
255.2267	68
255.229	71
255.2312	73
255.2335	99
255.2357	77
255.238	68
255.2402	71
255.2425	46
255.2448	40
255.247	22
255.2493	14
255.2515	11
255.2538	9
255.2605	6
259.0096	6
259.0164	9
261.1394	6
261.1439	6
274.1458	6
274.1481	20
274.1551	11
281.218	6
281.2204	6
281.2227	6
281.2251	9
281.2275	14
281.2299	6
281.2322	20
281.2346	11
281.237	6
281.2393	6
281.2417	14
281.244	6
281.2464	6
281.2535	6
281.2559	6
281.2606	6
297.0172	6
297.0245	9
297.0294	17
297.0318	6
297.0343	11
297.0367	22
297.0392	14
297.044	11
297.0489	9
297.0634	6
299.2367	6
299.244	9
315.0388	9
315.0413	6
315.0438	6
315.0463	6
315.0488	9
315.0513	6
315.0538	11
315.0563	6
315.0639	6
325.1996	6
325.2047	9
325.2148	17
325.2199	9
325.2224	6
325.225	6
343.2048	9
343.2075	11
343.2127	26
343.2153	20
343.2179	31
343.2205	28
343.2231	22
343.2257	31
343.2284	26
343.231	28
343.2336	20
343.2362	14
343.2388	20
343.2415	22
343.244	9
391.1981	20
391.2009	9
391.2037	9
391.2065	17
391.2093	17
391.212	26
391.2148	40
391.2176	48
391.2204	31
391.2232	57
391.226	26
391.2288	57
391.2316	57
391.2344	20
391.2372	37
391.24	31
391.2427	11
391.2455	17
391.2483	6
409.2112	6
409.2368	6
409.2397	6
409.2426	6
417.2363	6
479.195	6
479.1981	6
479.2074	9
479.2105	6
479.2136	6
479.2228	9
479.2259	9
479.229	11
479.2321	6
479.2352	6
479.2444	6
497.2422	6
523.9804	6
551.5281	6
553.2359	6
553.2426	6
553.2459	14
553.2492	11
553.2525	26
553.2559	28
553.2592	37
553.2625	40
553.2658	51
553.2691	28
553.2725	51
553.2758	26
553.2791	34
553.2824	46
553.2857	53
553.289	26
553.2924	62
553.2957	20
553.299	31
553.3023	17
553.3056	17
553.309	9
553.3123	6
553.3156	9
553.3256	6
571.2618	14
571.2651	9
571.2685	9
571.2719	11
571.2753	20
571.2786	11
571.282	14
571.2853	17
571.2888	14
571.2921	14
571.2955	34
571.2988	9
571.3022	26
571.3056	6
571.309	9
571.3123	11
571.3224	6
571.3258	9
641.2429	6
641.2572	9
641.2607	11
641.2643	14
641.2679	11
641.2715	20
641.275	14
641.2786	11
641.2822	11
641.2858	20
641.2894	11
641.2929	6
641.2965	11
641.3	6
641.3036	6
641.3215	9
735.4482	6
823.5238	6
837.5687	6
850.5549	6
850.5714	9
894.636	6
894.6402	6
894.6486	6
894.657	6
894.6655	6
894.6782	6
894.6951	9
894.7035	9
894.7288	6
894.733	6
897.2672	6
897.415	11
897.4193	17
897.4235	11
897.4277	14
897.4319	17
897.4362	28
897.4404	52
897.4446	99
897.4489	42
897.4531	51
897.4573	57
897.4615	103
897.4658	69
897.47	205
897.4742	216
897.4785	292
897.4827	393
897.4869	493
897.4911	528
897.4954	683
897.4996	756
897.5038	861
897.5081	850
897.5123	915
897.5165	880
897.5208	999
897.525	976
897.5292	934
897.5334	868
897.5377	852
897.5419	811
897.5461	697
897.5504	574
897.5546	461
897.5588	424
897.563	327
897.5673	322
897.5715	206
897.5757	163
897.5799	103
897.5842	101
897.5884	87
897.5926	40
897.5968	41
897.6011	19
897.6053	23
897.6095	14
897.618	10
898.3706	6
898.434	6
898.4467	9
898.4636	6
898.4678	6
898.4721	11
898.4763	11
898.4805	14
898.4847	9
898.489	6
898.4932	22
898.4974	31
898.5017	11
898.5059	14
898.5101	31
898.5143	22
898.5186	20
898.5228	14
898.527	31
898.5313	48
898.5355	37
898.5397	11
898.544	17
898.5482	11
898.5524	22
898.5566	20
898.5609	17
898.5651	9
898.5693	11
898.5736	6
898.5863	6
898.6032	6
