Mass spectrum: PE(18:2e/20-HETE); LC-ESI-QTOF; MS2
Name: PE(18:2e/20-HETE)
Class: Oxidized Phospholipid
Formula: C43H76NO8P
Exact mass: 766.056
SMILES: CCCCCCCCCCCCC\C=C/C\C=C/OCC(COP(O)(=O)OCCN)OC(=O)CCC\C=C/C\C=C/C\C=C/C\C=C/CCCCCO
InChI: InChI=1S/C43H76NO8P/c1-2-3-4-5-6-7-8-9-10-16-19-22-25-28-31-34-38-49-40-42(41-51-53(47,48)50-39-36-44)52-43(46)35-32-29-26-23-20-17-14-12-11-13-15-18-21-24-27-30-33-37-45/h11,13-14,17-18,21,23,25-26,28,34,38,42,45H,2-10,12,15-16,19-20,22,24,27,29-33,35-37,39-41,44H2,1H3,(H,47,48)/b13-11-,17-14-,21-18-,26-23-,28-25-,38-34-
Instrument: Acquity UPLC Peptide BEH C18 column (50 x 2.1 mm; 1.7 um), Sciex TripleTOF5600
Instrument type: LC-ESI-QTOF
Ms type: MS2
Ion mode: NEGATIVE
Collision energy: 30-50
Precursor m/z: 764.5235789
Precursor type: [M-H]-
m/z	relative intensity
78.95667	6
78.95917	6
78.96043	16
78.96168	6
78.96294	6
78.96419	6
78.96544	6
107.0857	6
121.1045	6
123.1126	6
135.1129	6
135.1179	6
140.0079	10
140.0095	10
140.0112	6
140.0129	13
140.0145	13
140.0162	13
140.0179	20
149.1357	10
149.1391	6
163.1452	6
169.1192	6
177.0882	6
177.0938	10
177.0957	6
179.0368	10
196.0302	6
196.0322	20
196.0342	16
196.0361	26
196.0381	36
196.0401	33
196.0421	6
196.044	26
196.046	20
200.1588	6
217.1949	6
217.2011	6
229.9147	6
233.1545	6
245.159	6
245.1922	6
245.1944	6
245.2076	6
245.2143	6
245.2165	16
245.2187	6
245.2209	16
245.2231	23
245.2253	33
245.2275	23
245.2297	6
245.2319	33
245.2341	13
257.2182	23
257.2204	13
257.2227	16
257.2249	6
257.2363	6
257.2385	20
257.2408	10
265.2361	10
265.2407	6
265.2476	20
265.2499	6
265.2522	10
265.2545	13
265.2568	20
265.2614	10
265.266	6
265.2682	10
273.2045	6
273.2091	10
273.2115	6
273.2138	10
273.2161	30
273.2184	6
273.2208	33
273.2231	16
273.2255	30
273.2278	6
273.2325	13
273.2348	6
275.2185	6
275.2232	16
275.2255	16
275.2279	26
275.2302	26
275.2325	56
275.2349	20
275.2372	46
275.2396	39
275.2419	66
275.2443	30
275.2466	10
275.2489	13
275.2513	13
275.2536	10
275.256	6
283.2037	10
283.2085	13
289.1998	16
289.2022	6
289.2046	6
289.207	16
289.2094	16
289.2118	33
289.2142	26
289.2166	23
289.219	26
289.2214	36
289.2238	26
289.2262	10
289.2286	16
289.231	10
289.2334	10
289.2382	10
289.2406	6
291.2285	10
301.1967	13
301.1992	26
301.2016	30
301.204	43
301.2065	36
301.209	99
301.2114	82
301.2138	79
301.2163	79
301.2188	86
301.2212	53
301.2236	66
301.2261	53
301.2285	26
301.231	39
301.2334	16
301.2359	16
301.2383	16
301.2432	6
301.2457	6
317.2006	6
317.2031	6
317.2057	6
317.2082	16
317.2132	13
317.2157	6
317.2232	6
318.2343	10
318.2368	6
318.2393	6
318.2444	6
318.4659	7
319.1512	7
319.1537	7
319.1915	14
319.194	10
319.1965	25
319.199	36
319.2016	62
319.2041	69
319.2066	141
319.2091	189
319.2117	281
319.2142	439
319.2167	562
319.2192	716
319.2217	817
319.2243	928
319.2268	999
319.2293	873
319.2318	984
319.2343	753
319.2368	621
319.2394	580
319.2419	358
319.2444	219
319.2469	184
319.2495	90
319.252	48
319.2545	67
319.257	23
319.2596	26
319.2621	7
319.2646	8
319.2671	12
319.2722	10
319.2772	9
319.2848	4
319.6378	4
320.2132	6
320.2259	6
320.2309	13
320.2334	10
320.236	6
320.2385	6
345.2382	6
401.2321	6
401.2349	6
401.2378	6
401.2434	13
401.2491	6
401.2547	10
401.2603	6
444.2612	10
444.2642	16
444.2672	30
444.2701	33
444.2731	30
444.2761	23
444.2791	36
444.282	53
444.285	46
444.288	39
444.291	69
444.2939	59
444.2969	76
444.2999	59
444.3029	30
444.3058	26
444.3088	39
460.8746	6
460.8807	6
460.8928	6
462.2539	10
462.2569	6
462.2599	6
462.263	23
462.266	6
462.269	36
462.2721	37
462.2751	57
462.2781	74
462.2812	127
462.2842	91
462.2872	125
462.2903	112
462.2933	182
462.2963	175
462.2994	226
462.3024	176
462.3055	219
462.3085	179
462.3115	118
462.3145	115
462.3176	97
462.3206	70
462.3236	50
462.3267	30
462.3297	36
462.3327	10
462.3358	10
462.3449	6
462.351	6
498.2487	6
498.2581	13
762.0903	10
762.1214	6
762.1253	10
762.176	6
764.4486	10
764.4525	16
764.4564	16
764.4642	16
764.472	21
764.4759	25
764.4798	36
764.4837	182
764.4876	163
764.4915	223
764.4954	267
764.4993	265
764.5032	321
764.5071	379
764.511	458
764.515	471
764.5189	616
764.5228	598
764.5266	588
764.5305	618
764.5344	573
764.5383	528
764.5422	522
764.5461	498
764.55	468
764.554	363
764.5579	309
764.5618	217
764.5657	136
764.5696	121
764.5735	77
764.5773	132
764.5812	29
764.5851	42
764.5891	26
764.593	10
764.5969	10
764.6008	10
764.6047	12
764.6125	6
764.6203	6
764.6242	4
764.6983	6
765.4905	6
765.5062	6
765.5101	13
765.5179	6
765.5218	33
765.5257	10
765.5296	10
765.5335	20
765.5374	13
765.5452	13
765.5491	6
765.553	6
765.5569	6
765.5609	6
765.5726	6
