Mass spectrum: PC(16:0e/8-HEPE); LC-ESI-QTOF; MS2
Name: PC(16:0e/8-HEPE)
Class: Oxidized Phospholipid
Formula: C44H80NO8P
Exact mass: 782.099
SMILES: CCCCCCCCCCCCCCCCOCC(COP([O-])(=O)OCC[N+](C)(C)C)OC(=O)CCC\C=C/CC(O)\C=C\C=C/C\C=C/C\C=C/CC
InChI: InChI=1S/C44H80NO8P/c1-6-8-10-12-14-16-18-19-20-21-23-25-29-33-38-50-40-43(41-52-54(48,49)51-39-37-45(3,4)5)53-44(47)36-32-28-27-31-35-42(46)34-30-26-24-22-17-15-13-11-9-7-2/h9,11,15,17,24,26-27,30-31,34,42-43,46H,6-8,10,12-14,16,18-23,25,28-29,32-33,35-41H2,1-5H3/b11-9-,17-15-,26-24-,31-27-,34-30+
Instrument: Acquity UPLC Peptide BEH C18 column (50 x 2.1 mm; 1.7 um), Sciex TripleTOF5600
Instrument type: LC-ESI-QTOF
Ms type: MS2
Ion mode: NEGATIVE
Collision energy: 30-50
Precursor m/z: 840.576008
Precursor type: [M+CH3COOH-H]-
m/z	relative intensity
109.0668	6
111.0458	9
111.0815	6
111.0874	6
121.0991	6
127.0712	9
127.0728	12
127.0744	6
127.0776	6
127.0808	6
127.0824	9
135.1154	9
149.1417	6
154.6014	6
155.0614	6
155.0631	18
155.0649	27
155.0666	46
155.0684	39
155.0702	37
155.0719	34
155.0737	52
155.0754	49
155.0772	22
155.0789	43
155.0807	12
155.0825	12
155.0842	9
155.086	6
155.0877	6
161.1249	9
161.1267	6
161.1285	18
161.132	9
161.1338	24
161.1356	27
161.1374	24
161.1392	15
161.1428	6
161.1482	9
163.1443	6
163.1497	6
163.1551	6
168.041	6
189.1195	6
190.1357	6
190.1435	6
192.0941	6
201.153	6
201.159	9
201.163	9
201.165	6
201.167	18
201.169	15
201.171	9
201.177	6
221.1436	6
247.1344	6
254.4768	6
255.1818	6
255.1908	6
255.1931	15
255.1953	12
255.1976	19
255.1998	34
255.2021	64
255.2043	55
255.2066	77
255.2089	102
255.2111	74
255.2134	90
255.2156	102
255.2179	74
255.2201	68
255.2224	34
255.2246	37
255.2269	15
255.2292	12
255.2314	3
255.2337	3
256.2197	6
261.1806	3
272.4338	3
273.1865	6
273.1982	6
273.2169	9
273.2192	6
273.2238	9
273.2285	9
273.2379	9
289.2101	6
291.0896	6
298.2661	6
298.2734	6
298.2758	6
298.2977	6
299.1806	6
299.183	15
299.1854	28
299.1879	40
299.1903	47
299.1927	68
299.1952	83
299.1976	84
299.2001	109
299.2025	108
299.205	100
299.2074	81
299.2098	80
299.2123	28
299.2147	37
299.2172	40
299.2196	16
299.222	15
299.2245	19
299.2294	6
301.2194	6
301.2219	3
316.2169	6
316.222	6
316.232	6
317.0907	6
317.1711	6
317.1761	12
317.1837	9
317.1862	3
317.1887	6
317.1912	31
317.1937	32
317.1963	69
317.1988	69
317.2013	111
317.2038	131
317.2063	169
317.2088	192
317.2113	199
317.2138	174
317.2163	183
317.2189	179
317.2214	130
317.2239	105
317.2264	101
317.2289	42
317.2314	26
317.2339	20
317.2365	29
317.239	7
317.2415	10
317.2465	13
317.2892	3
317.5607	3
318.2072	6
319.2249	3
331.2372	6
331.2398	3
377.2207	6
377.2235	6
377.2289	6
377.2317	6
377.2344	9
377.2372	12
377.2426	9
377.2454	12
377.2481	21
377.2509	9
377.2536	18
395.2464	9
395.252	12
431.9731	6
448.2945	6
448.2975	9
448.3004	15
448.3034	9
448.3064	15
448.3094	24
448.3124	48
448.3154	24
448.3184	36
448.3214	36
448.3243	33
448.3273	39
448.3303	33
448.3333	15
448.3363	12
448.3393	18
448.3423	6
448.3482	9
448.3512	6
448.3632	6
448.3721	6
451.7816	6
464.8667	6
465.1436	6
466.1057	6
466.2946	12
466.2976	12
466.3007	15
466.3037	12
466.3068	31
466.3098	41
466.3129	53
466.3159	44
466.319	78
466.322	98
466.3251	91
466.3281	107
466.3311	163
466.3342	101
466.3372	126
466.3403	127
466.3434	95
466.3464	50
466.3494	35
466.3525	29
466.3555	16
466.3586	12
466.3616	13
466.3647	18
466.3677	12
466.3738	6
466.3951	3
481.3001	6
531.3434	6
575.3961	6
695.4272	6
695.4347	9
695.4421	9
695.4459	9
695.4496	6
695.4533	9
695.4608	18
695.4645	15
695.4682	27
695.4719	18
695.4756	15
695.4794	18
695.483	18
695.4868	9
695.4905	6
695.4942	9
695.4979	9
695.5054	6
721.4745	6
721.4821	6
721.4934	6
764.1086	6
764.1165	6
764.1555	15
764.1749	9
766.3568	6
766.4545	6
766.4584	6
766.4857	11
766.4896	38
766.4935	47
766.4974	92
766.5013	162
766.5052	256
766.5092	311
766.5131	377
766.517	409
766.5209	605
766.5248	635
766.5287	728
766.5326	842
766.5365	757
766.5404	999
766.5443	996
766.5482	965
766.5521	861
766.556	845
766.5599	754
766.5638	663
766.5677	560
766.5717	433
766.5756	442
766.5795	257
766.5834	171
766.5873	188
766.5912	111
766.5951	73
766.5991	69
766.6029	48
766.6068	18
766.6108	4
766.6146	13
766.6185	9
766.6225	4
766.6263	7
766.6342	4
766.6498	4
766.7905	4
767.0327	4
767.3258	4
767.49	6
767.5017	6
767.5095	6
767.5134	6
767.5173	6
767.5251	6
767.5291	15
767.533	18
767.5369	18
767.5408	18
767.5447	27
767.5486	9
767.5526	6
767.5604	12
767.5643	12
767.5682	15
767.5721	6
767.576	9
767.5877	6
767.5994	6
767.6072	6
780.5421	12
780.5499	9
780.5578	9
780.5618	6
780.5894	6
781.4608	6
781.4726	6
781.4844	15
781.4884	12
781.4963	9
781.5002	15
781.5042	12
781.5081	9
781.5121	6
781.516	12
781.5239	6
781.5278	18
781.5318	15
781.5357	6
781.5397	6
781.5436	12
781.5475	6
781.5515	6
840.4683	6
840.4724	6
840.5174	6
840.5215	12
840.5256	12
840.5297	12
840.5338	24
840.5378	15
840.5419	24
840.546	46
840.5501	61
840.5543	31
840.5583	77
840.5624	55
840.5665	83
840.5706	58
840.5747	68
840.5788	102
840.5829	83
840.587	90
840.5911	112
840.5952	65
840.5992	62
840.6033	59
840.6074	25
840.6115	31
840.6156	25
840.6197	39
840.6238	27
840.6279	15
840.632	15
840.636	12
840.6442	12
840.6524	9
