Mass spectrum: PC(18:1e/11,12-EpETE); LC-ESI-QTOF; MS2
Name: PC(18:1e/11,12-EpETE)
Class: Oxidized Phospholipid
Formula: C46H82NO8P
Exact mass: 808.137
SMILES: CCCCCCCCCCCCCCCC\C=C/OCC(COP([O-])(=O)OCC[N+](C)(C)C)OC(=O)CCC\C=C/C\C=C/CC1OC1C\C=C/C\C=C/CC
InChI: InChI=1S/C46H82NO8P/c1-6-8-10-12-14-15-16-17-18-19-20-21-22-26-30-34-39-51-41-43(42-53-56(49,50)52-40-38-47(3,4)5)54-46(48)37-33-29-25-23-24-28-32-36-45-44(55-45)35-31-27-13-11-9-7-2/h9,11,23,25,27-28,31-32,34,39,43-45H,6-8,10,12-22,24,26,29-30,33,35-38,40-42H2,1-5H3/b11-9-,25-23-,31-27-,32-28-,39-34-
Instrument: Acquity UPLC Peptide BEH C18 column (50 x 2.1 mm; 1.7 um), Sciex TripleTOF5600
Instrument type: LC-ESI-QTOF
Ms type: MS2
Ion mode: NEGATIVE
Collision energy: 30-50
Precursor m/z: 866.5916581
Precursor type: [M+CH3COOH-H]-
m/z	relative intensity
149.0926	38
167.0977	59
167.1014	59
167.1032	116
167.105	38
167.1068	156
167.1087	97
167.1105	97
167.1123	78
167.1141	59
167.1178	38
179.1011	38
179.103	59
179.1048	59
179.1067	59
195.093	38
195.095	38
195.0989	59
195.1068	38
201.1642	38
207.101	38
208.0992	38
208.1093	38
208.1114	116
208.1134	38
255.2015	59
255.206	78
255.2083	38
255.2105	97
255.2128	59
255.2173	116
255.2218	38
299.1947	38
299.1972	38
299.1996	38
299.2045	38
299.2143	59
317.1883	38
317.1908	38
317.1933	78
317.1959	135
317.1984	135
317.2009	213
317.2034	59
317.2059	272
317.2084	97
317.2109	213
317.2134	310
317.2159	310
317.2184	213
317.221	97
317.2235	116
317.226	78
317.2285	78
317.231	59
317.2336	59
421.2777	38
474.327	38
474.3332	59
474.3362	59
474.3393	78
474.3424	78
474.3516	38
474.3546	59
492.3207	59
492.3239	38
492.327	38
492.3301	78
492.3333	78
492.3364	78
492.3395	135
492.3426	116
492.3458	135
492.3489	175
492.352	116
492.3552	232
492.3583	135
492.3614	116
492.3645	97
492.3677	38
492.3708	116
492.3771	38
754.4798	40
792.4781	38
792.4821	40
792.486	59
792.494	99
792.4979	120
792.5019	158
792.5059	61
792.5098	101
792.5138	160
792.5178	181
792.5218	285
792.5258	405
792.5297	346
792.5337	529
792.5377	656
792.5416	653
792.5456	577
792.5496	870
792.5535	723
792.5575	788
792.5615	936
792.5654	664
792.5695	999
792.5734	809
792.5774	622
792.5814	706
792.5853	748
792.5893	622
792.5933	641
792.5972	369
792.6012	291
792.6052	230
792.6091	145
792.6131	143
792.6171	84
792.6211	80
792.629	63
792.6409	40
792.6449	46
793.5469	59
866.488	38
866.4922	38
866.5046	59
866.5171	38
866.5212	38
866.5295	59
866.5337	38
866.5378	38
866.5461	38
866.5544	38
866.5627	78
866.5711	59
866.5753	59
866.5794	59
866.5877	116
866.5919	59
866.596	78
866.6002	97
866.6043	78
866.6085	78
866.6168	116
866.6251	59
866.6417	59
867.5641	59
