Mass spectrum: PG(18:1/14,15-EpETE); LC-ESI-QTOF; MS2
Name: PG(18:1/14,15-EpETE)
Class: Oxidized Phospholipid
Formula: C44H75O11P
Exact mass: 811.049
SMILES: CCCCCCCC\C=C/CCCCCCCC(=O)OCC(COP(O)(=O)OCC(O)CO)OC(=O)CCC\C=C/C\C=C/C\C=C/CC1OC1C\C=C/CC
InChI: InChI=1S/C44H75O11P/c1-3-5-7-8-9-10-11-12-13-14-15-19-22-25-29-33-43(47)51-37-40(38-53-56(49,50)52-36-39(46)35-45)54-44(48)34-30-26-23-20-17-16-18-21-24-28-32-42-41(55-42)31-27-6-4-2/h6,12-13,16,18,20,23-24,27-28,39-42,45-46H,3-5,7-11,14-15,17,19,21-22,25-26,29-38H2,1-2H3,(H,49,50)/b13-12-,18-16-,23-20-,27-6-,28-24-
Instrument: Acquity UPLC Peptide BEH C18 column (50 x 2.1 mm; 1.7 um), Sciex TripleTOF5600
Instrument type: LC-ESI-QTOF
Ms type: MS2
Ion mode: NEGATIVE
Collision energy: 30-50
Precursor m/z: 809.4974237
Precursor type: [M-H]-
m/z	relative intensity
152.9997	56
207.1316	111
207.1377	159
207.1397	56
207.1417	111
207.1438	79
207.1458	79
207.16	56
219.1354	79
219.1375	56
220.1454	56
235.1454	56
247.136	56
248.1419	56
255.2061	56
255.2106	56
273.2093	56
281.2247	56
281.2271	56
281.2294	56
281.2318	246
281.2342	246
281.2365	325
281.2389	381
281.2413	539
281.2437	729
281.246	563
281.2484	832
281.2507	698
281.2531	864
281.2555	539
281.2578	618
281.2602	293
281.2626	325
281.2649	159
281.2673	190
281.2697	111
281.2744	56
317.1983	79
317.2008	79
317.2033	159
317.2058	135
317.2083	135
317.2108	111
317.2133	79
317.2159	190
317.2184	79
317.2234	79
317.2259	159
317.2284	56
431.2224	56
453.1919	56
453.2159	56
727.4409	56
727.4447	79
727.4599	56
727.4904	56
809.4275	56
809.4395	56
809.4476	159
809.4516	159
809.4556	159
809.4596	111
809.4636	293
809.4677	325
809.4717	325
809.4756	484
809.4797	729
809.4837	404
809.4877	595
809.4918	381
809.4957	698
809.4998	753
809.5038	674
809.5078	729
809.5118	999
809.5158	832
809.5198	650
809.5239	484
809.5278	460
809.5319	460
809.5359	159
809.5399	159
809.5439	293
809.5479	214
809.5519	246
809.56	111
809.564	56
809.568	111
810.5399	56
