Mass spectrum: PC(16:0/5-HETE); LC-ESI-QTOF; MS2
Name: PC(16:0/5-HETE)
Class: Oxidized Phospholipid
Formula: C44H80NO9P
Exact mass: 798.098
SMILES: CCCCCCCCCCCCCCCC(=O)OCC(COP([O-])(=O)OCC[N+](C)(C)C)OC(=O)CCCC(O)\C=C\C=C/C\C=C/C\C=C/CCCCC
InChI: InChI=1S/C44H80NO9P/c1-6-8-10-12-14-16-18-20-22-24-26-28-30-33-41(46)34-32-36-44(48)54-42(40-53-55(49,50)52-38-37-45(3,4)5)39-51-43(47)35-31-29-27-25-23-21-19-17-15-13-11-9-7-2/h14,16,20,22,26,28,30,33,41-42,46H,6-13,15,17-19,21,23-25,27,29,31-32,34-40H2,1-5H3/b16-14-,22-20-,28-26-,33-30+
Instrument: Acquity UPLC Peptide BEH C18 column (50 x 2.1 mm; 1.7 um), Sciex TripleTOF5600
Instrument type: LC-ESI-QTOF
Ms type: MS2
Ion mode: NEGATIVE
Collision energy: 30-50
Precursor m/z: 856.5709227
Precursor type: [M+CH3COOH-H]-
m/z	relative intensity
115.031	12
115.034	19
115.0355	19
115.037	31
115.0386	43
115.0401	86
115.0416	37
115.0431	31
115.0446	49
115.0461	12
115.0476	12
115.0552	12
122.9831	12
152.9962	19
152.998	19
152.9997	12
153.0032	12
168.0367	19
168.0404	12
168.0422	19
168.0459	19
203.1725	19
203.1746	25
203.1766	19
203.1786	12
203.1806	25
203.1826	37
203.1846	25
203.1866	12
222.9911	19
222.9953	19
222.9975	12
222.9996	25
223.0017	25
223.0038	19
223.0059	19
224.0564	12
224.0606	37
224.0627	12
224.0649	31
224.067	12
224.0691	25
224.0733	12
224.0754	12
224.0775	19
224.0818	12
241.0015	19
241.0059	19
241.0081	74
241.0103	61
241.0124	37
241.0146	25
241.0168	19
241.019	55
241.0212	12
241.0256	49
241.0278	12
253.2105	13
253.2128	19
254.4357	13
254.4402	13
255.1879	13
255.206	13
255.2082	25
255.2127	37
255.215	44
255.2172	70
255.2195	114
255.2217	138
255.224	185
255.2262	286
255.2285	269
255.2307	333
255.233	359
255.2353	354
255.2375	269
255.2398	302
255.242	199
255.2443	167
255.2465	84
255.2488	83
255.251	64
255.2533	45
255.2556	32
255.2578	7
255.2601	25
255.2668	7
256.2213	7
256.2326	7
256.2393	19
256.2416	25
256.2439	12
257.2069	12
257.2092	12
257.2137	25
257.216	12
257.2183	37
257.2205	43
257.2228	49
257.225	43
257.2273	80
257.2296	98
257.2318	49
257.2341	43
257.2364	49
257.2386	19
257.2409	12
257.2432	19
257.2454	12
257.2477	12
259.0227	12
259.2339	12
275.235	12
281.2458	19
297.0385	25
301.1943	12
301.1967	25
301.1992	31
301.2016	12
301.204	49
301.2065	74
301.209	74
301.2114	111
301.2138	86
301.2163	111
301.2188	98
301.2212	111
301.2236	135
301.2261	61
301.2285	74
301.231	25
301.2334	37
301.2359	25
301.2383	12
301.2432	12
303.2055	12
303.2154	12
303.2178	49
303.2203	25
303.2227	31
303.2252	19
303.2277	37
303.2301	37
303.2326	61
303.235	80
303.2375	31
303.24	37
303.2424	49
303.2449	12
303.2473	19
303.2498	12
303.2547	19
315.0406	12
315.0432	12
315.0557	12
317.2056	13
318.2343	13
318.2418	13
318.9041	13
319.0175	13
319.2015	25
319.2066	25
319.2091	38
319.2116	45
319.2141	107
319.2167	150
319.2192	182
319.2217	125
319.2242	119
319.2267	195
319.2292	158
319.2318	189
319.2343	175
319.2368	131
319.2393	183
319.2419	81
319.2444	56
319.2469	63
319.2494	37
319.252	25
319.2545	12
319.2595	7
391.1915	12
391.1971	12
391.2083	12
391.2139	19
391.2167	12
391.2195	31
391.2222	25
391.225	55
391.2278	43
391.2306	12
391.2334	55
391.2362	31
391.239	12
391.2418	31
391.2473	12
409.2244	12
409.2501	12
439.2314	12
462.2868	12
462.2899	12
462.3051	19
478.8263	13
480.2692	12
480.2754	12
480.2816	25
480.2847	25
480.2878	61
480.2909	43
480.2939	74
480.297	55
480.3001	67
480.3032	93
480.3063	136
480.3094	105
480.3125	124
480.3156	130
480.3187	99
480.3218	55
480.3249	74
480.328	74
480.3311	37
480.3341	31
480.3434	19
480.3465	19
480.3496	12
480.3589	12
544.3002	12
551.2548	12
553.2476	12
553.2576	19
553.2675	19
553.2709	31
553.2742	49
553.2775	31
553.2808	49
553.2841	12
553.2875	19
553.2908	37
553.2941	37
553.2974	12
553.3007	25
553.3041	12
571.277	12
571.3006	19
571.304	25
601.2703	12
601.2807	12
601.2877	19
711.4731	19
737.4868	12
780.1196	12
782.4465	19
782.4544	12
782.4662	12
782.4741	48
782.4781	64
782.482	63
782.486	83
782.4899	156
782.4938	171
782.4978	189
782.5018	198
782.5057	278
782.5096	328
782.5136	434
782.5176	529
782.5215	605
782.5255	667
782.5294	633
782.5333	766
782.5373	806
782.5413	730
782.5452	999
782.5491	844
782.553	691
782.557	634
782.561	573
782.5649	397
782.5688	440
782.5728	287
782.5767	266
782.5807	207
782.5847	151
782.5886	113
782.5925	86
782.5965	36
782.6005	65
782.6044	22
782.6083	37
782.6123	14
782.6241	13
782.6281	7
782.636	12
783.5046	12
783.5085	12
783.5125	19
783.5165	31
783.5204	43
783.5244	25
783.5283	12
783.5322	31
783.5402	25
783.5441	12
783.548	31
783.552	12
783.556	19
783.5599	19
796.4964	12
796.5283	12
796.5442	12
796.5641	19
797.4723	12
797.4763	12
797.4803	19
797.4883	19
797.4922	19
797.5002	19
797.5042	12
797.5082	25
797.5121	19
797.5201	19
797.5281	12
797.5321	19
797.54	12
809.5509	12
856.4468	12
856.4509	12
856.4674	19
856.4757	25
856.4881	19
856.4963	19
856.5005	49
856.5046	19
856.5087	49
856.5129	43
856.517	25
856.5211	25
856.5253	37
856.5294	31
856.5335	80
856.5376	31
856.5417	55
856.5459	55
856.55	37
856.5541	49
856.5583	43
856.5624	55
856.5665	92
856.5707	61
856.5748	74
856.5789	61
856.5831	61
856.5872	49
856.5913	61
856.5955	104
856.5995	43
856.6037	55
856.6078	61
856.6119	19
856.6161	37
856.6202	25
856.6243	31
856.6326	12
856.6367	19
857.4422	12
857.4464	12
857.4546	37
857.4587	27
857.4629	7
857.467	60
857.4711	86
857.4753	53
857.4794	145
857.4835	106
857.4877	221
857.4918	193
857.4959	261
857.5001	195
857.5042	371
857.5083	337
857.5125	398
857.5166	372
857.5207	466
857.5248	398
857.529	442
857.5331	373
857.5372	380
857.5414	301
857.5455	320
857.5496	293
857.5538	253
857.5579	237
857.562	230
857.5662	204
857.5703	136
857.5744	108
857.5786	40
857.5827	20
857.5868	34
857.5909	41
857.5992	43
857.6075	14
857.6157	7
858.5085	7
858.5209	7
