Mass spectrum: PE(16:1e/16,17-EpDPE); LC-ESI-QTOF; MS2
Name: PE(16:1e/16,17-EpDPE)
Class: Oxidized Phospholipid
Formula: C43H74NO8P
Exact mass: 764.04
SMILES: CCCCCCCCCCCCCC\C=C/OCC(COP(O)(=O)OCCN)OC(=O)CC\C=C/C\C=C/C\C=C/C\C=C/CC1OC1C\C=C/CC
InChI: InChI=1S/C43H74NO8P/c1-3-5-7-8-9-10-11-12-15-18-21-24-27-31-36-48-38-40(39-50-53(46,47)49-37-35-44)51-43(45)34-30-26-23-20-17-14-13-16-19-22-25-29-33-42-41(52-42)32-28-6-4-2/h6,14,16-17,19,23,25-26,28-29,31,36,40-42H,3-5,7-13,15,18,20-22,24,27,30,32-35,37-39,44H2,1-2H3,(H,46,47)/b17-14-,19-16-,26-23-,28-6-,29-25-,36-31-
Instrument: Acquity UPLC Peptide BEH C18 column (50 x 2.1 mm; 1.7 um), Sciex TripleTOF5600
Instrument type: LC-ESI-QTOF
Ms type: MS2
Ion mode: NEGATIVE
Collision energy: 30-50
Precursor m/z: 762.5079288
Precursor type: [M-H]-
m/z	relative intensity
78.95583	10
78.95834	10
78.95959	16
78.96085	26
78.9621	16
78.96335	16
78.96837	10
93.07407	16
95.05557	10
107.0789	10
107.0848	10
107.0862	10
107.0877	10
107.0891	16
111.0782	10
111.0811	10
111.0826	16
117.071	10
119.0825	16
119.0871	10
121.063	16
121.0677	21
121.0708	16
121.0724	10
121.0956	16
121.0987	21
121.1003	10
121.1019	16
121.1034	16
122.001	10
122.0025	10
125.1	16
125.9267	10
127.0804	10
131.0847	10
133.0972	10
133.0988	10
133.1004	10
133.1021	21
133.1037	26
133.1053	10
134.0757	10
135.1118	10
135.1151	16
135.1167	10
135.1184	16
137.0953	10
140.0034	10
140.005	26
140.0067	31
140.0084	16
140.0101	47
140.0117	31
140.0134	47
140.0151	31
140.0167	21
140.0184	31
140.0201	16
143.0887	10
147.0774	10
147.0791	16
147.0825	10
147.0842	16
147.086	10
147.1099	16
147.1116	21
147.1168	16
147.1185	10
147.1202	26
147.1253	10
161.1317	16
161.1335	10
161.1371	16
163.0124	10
163.016	10
163.0214	10
163.0773	10
165.0853	10
166.0257	10
168.0444	10
168.0498	10
172.1738	10
173.1286	16
173.136	21
175.104	10
175.147	21
175.1488	16
175.1507	26
177.1676	10
179.0412	10
185.1298	10
187.1549	10
189.1561	21
189.1581	26
189.16	31
189.162	37
189.1639	31
189.1658	21
189.1678	53
189.1697	26
189.1716	58
189.1736	21
189.1794	16
191.1387	10
193.1199	16
193.1219	10
193.1258	10
193.1297	10
193.1317	10
196.0249	21
196.0268	42
196.0288	16
196.0308	26
196.0328	63
196.0347	47
196.0367	53
196.0387	79
196.0407	37
196.0426	63
196.0446	42
196.0466	21
196.0486	21
196.0505	16
196.0585	10
197.1347	10
199.1526	10
199.1645	21
199.1745	10
201.1527	10
201.1547	26
201.1567	31
201.1587	68
201.1607	53
201.1627	53
201.1647	79
201.1667	68
201.1687	63
201.1707	63
201.1727	26
201.1747	26
201.1767	47
201.1787	10
203.179	16
205.1224	16
205.1264	10
205.1284	16
215.1376	10
215.1417	10
215.1459	10
215.1479	10
217.1352	16
217.1539	10
217.1643	10
219.1357	10
225.167	10
225.1861	16
227.134	10
227.168	10
227.1701	10
227.1723	10
227.1744	10
227.1765	31
227.1786	21
227.1808	10
227.185	10
227.1872	21
227.1893	10
227.1914	16
227.1935	10
227.1978	31
227.1999	53
227.202	16
227.2042	16
227.2063	37
227.2084	16
227.2106	10
227.2127	10
229.1159	10
229.1437	10
229.1458	10
229.1479	10
229.1522	10
229.1565	37
229.1608	37
229.1629	16
229.1672	10
231.1343	10
231.1365	16
231.1429	10
231.1558	16
232.4425	11
233.1357	10
233.1379	10
233.14	47
233.1422	21
233.1443	68
233.1465	84
233.1487	53
233.1508	95
233.153	127
233.1551	132
233.1573	137
233.1594	121
233.1616	132
233.1637	58
233.1659	59
233.168	32
233.1723	16
234.1127	10
234.1148	10
234.1213	10
234.1235	10
234.1256	10
234.1321	10
235.1761	10
239.2223	16
239.2245	16
239.2266	10
239.2288	26
239.2332	63
239.2354	47
239.2375	47
239.2397	42
239.2419	26
239.2441	63
239.2463	53
239.2485	21
239.2616	10
245.1376	10
245.1398	16
245.142	21
245.1442	31
245.1464	26
245.1486	37
245.1508	53
245.153	115
245.1552	58
245.1574	53
245.1597	53
245.1619	37
245.1641	37
245.1663	37
245.1685	21
245.1773	16
245.1884	10
245.1928	10
246.157	16
246.1615	10
246.1637	10
246.1659	10
246.1703	10
247.1609	10
247.1631	21
247.1653	31
247.1675	10
247.1697	37
247.172	16
247.1742	10
247.1764	16
247.1853	10
247.1919	10
252.204	10
253.2088	26
253.2111	31
253.2133	26
253.2155	47
253.2178	63
253.22	58
253.2223	58
253.2245	31
253.2268	26
253.229	26
253.2313	10
255.2133	10
255.2268	10
255.229	10
255.2313	21
255.2335	10
256.2421	10
257.2233	10
257.2278	10
261.1417	16
261.144	16
261.1531	26
261.1554	10
261.1577	10
273.1398	16
273.1422	16
273.1491	21
273.1515	21
273.1538	16
273.1561	26
273.1585	10
274.1341	10
274.1388	26
274.1411	31
274.1435	21
274.1458	37
274.1481	68
274.1505	79
274.1528	58
274.1551	100
274.1575	89
274.1598	100
274.1621	53
274.1645	105
274.1668	63
274.1692	74
274.1715	10
274.1738	16
277.7506	11
280.2512	11
281.2015	10
281.2039	21
281.2062	26
281.211	37
281.2133	64
281.2157	48
281.2181	74
281.2204	122
281.2228	148
281.2252	143
281.2275	159
281.2299	175
281.2323	116
281.2346	90
281.237	63
281.2394	63
281.2417	21
281.2441	63
281.2465	58
281.2488	37
281.2512	10
281.2559	10
281.2583	10
281.2654	16
281.2678	10
283.259	10
299.2025	10
299.2196	26
299.222	16
299.2245	21
299.2269	10
299.2293	31
299.2318	42
299.2343	47
299.2367	68
299.2391	42
299.2415	53
299.244	31
299.2464	37
299.2489	16
299.2513	21
299.2538	16
299.2562	10
301.2023	10
301.2047	10
301.2096	21
301.2121	16
301.2145	10
301.2169	10
301.2219	10
301.2267	10
307.2044	10
307.2094	10
315.2317	16
325.1945	10
325.197	10
325.1996	10
325.2021	21
325.2047	58
325.2072	58
325.2097	74
325.2123	63
325.2148	58
325.2174	68
325.2199	53
325.2225	79
325.225	84
325.2275	42
325.2301	42
325.2326	43
325.2352	42
325.2377	16
325.2428	16
341.2107	10
342.1574	11
342.1627	10
342.5282	11
342.7893	11
343.1866	11
343.1944	11
343.197	16
343.1996	6
343.2022	51
343.2048	50
343.2075	62
343.2101	149
343.2127	186
343.2153	218
343.2179	460
343.2205	310
343.2231	430
343.2257	486
343.2284	504
343.231	435
343.2336	403
343.2362	381
343.2388	238
343.2414	226
343.244	205
343.2467	142
343.2493	57
343.2519	35
343.2545	39
343.2571	12
343.2597	23
343.2623	11
343.265	28
343.2676	6
344.0811	6
344.1674	6
344.2486	10
375.2149	16
375.2231	16
375.2258	31
375.2285	10
375.2313	16
375.2367	16
375.2422	16
375.2449	16
375.2504	16
393.2379	11
406.194	11
411.2344	11
418.0869	11
418.2311	11
418.2369	10
418.2398	27
418.2427	21
418.2456	11
418.2484	27
418.2513	54
418.2542	80
418.2571	140
418.26	102
418.2629	129
418.2657	97
418.2686	151
418.2715	168
418.2744	146
418.2773	195
418.2802	168
418.2831	92
418.2859	103
418.2888	48
418.2917	60
418.2946	43
418.2975	26
418.3004	26
418.3033	10
418.3062	11
419.2677	11
427.3058	11
436.0917	11
436.2037	11
436.2332	11
436.2361	22
436.239	16
436.242	32
436.2449	11
436.2479	16
436.2508	55
436.2538	39
436.2567	75
436.2597	142
436.2626	157
436.2656	205
436.2685	248
436.2715	356
436.2744	329
436.2773	336
436.2803	453
436.2832	530
436.2862	489
436.2892	457
436.2921	526
436.295	367
436.298	378
436.3009	232
436.3039	133
436.3068	150
436.3098	82
436.3127	35
436.3157	41
436.3186	24
436.3216	52
436.3245	23
436.3275	17
436.3333	11
436.3363	6
436.3451	11
444.0568	6
452.2709	10
452.2829	10
478.2996	10
512.5453	10
522.2376	10
522.2698	16
688.4582	26
688.4619	10
688.4693	10
688.473	37
688.4767	10
688.4804	16
688.4841	26
688.4878	21
688.4915	53
688.4952	53
688.4989	21
688.5026	53
688.5063	37
688.51	16
688.5137	53
688.5174	31
688.5211	26
688.5248	21
688.5322	21
688.5359	16
688.5471	21
688.5507	26
688.5544	10
688.5582	16
688.5692	16
688.5803	10
760.098	10
760.1058	10
760.1213	10
760.1369	10
760.1603	21
762.4221	10
762.4377	10
762.4455	6
762.4494	24
762.4533	36
762.4572	93
762.4611	123
762.465	139
762.4689	125
762.4728	164
762.4767	303
762.4805	328
762.4844	452
762.4883	570
762.4922	616
762.4962	722
762.5001	845
762.504	914
762.5078	994
762.5117	955
762.5156	999
762.5195	931
762.5234	929
762.5273	824
762.5312	697
762.5351	664
762.539	546
762.5429	385
762.5468	210
762.5507	273
762.5546	150
762.5585	131
762.5624	98
762.5663	52
762.5702	38
762.5741	33
762.5779	13
762.5818	26
762.5858	13
762.5975	17
763.4744	10
763.4822	10
763.4861	16
763.49	21
763.4978	16
763.5056	37
763.5095	21
763.5134	16
763.5173	21
763.5212	26
763.5251	16
763.529	10
763.5329	21
763.5446	16
