Mass spectrum: PE(18:0/11,12-EpETE); LC-ESI-QTOF; MS2
Name: PE(18:0/11,12-EpETE)
Class: Oxidized Phospholipid
Formula: C43H76NO9P
Exact mass: 782.055
SMILES: CCCCCCCCCCCCCCCCCC(=O)OCC(COP(O)(=O)OCCN)OC(=O)CCC\C=C/C\C=C/CC1OC1C\C=C/C\C=C/CC
InChI: InChI=1S/C43H76NO9P/c1-3-5-7-9-11-12-13-14-15-16-17-18-21-25-29-33-42(45)49-37-39(38-51-54(47,48)50-36-35-44)52-43(46)34-30-26-22-19-20-24-28-32-41-40(53-41)31-27-23-10-8-6-4-2/h6,8,19,22-24,27-28,39-41H,3-5,7,9-18,20-21,25-26,29-38,44H2,1-2H3,(H,47,48)/b8-6-,22-19-,27-23-,28-24-
Instrument: Acquity UPLC Peptide BEH C18 column (50 x 2.1 mm; 1.7 um), Sciex TripleTOF5600
Instrument type: LC-ESI-QTOF
Ms type: MS2
Ion mode: NEGATIVE
Collision energy: 30-50
Precursor m/z: 780.5184935
Precursor type: [M-H]-
m/z	relative intensity
78.95674	31
135.118	31
140.0047	31
140.0097	49
140.0114	31
140.013	49
140.0164	31
140.0181	31
149.0963	49
149.098	31
149.1014	31
163.113	31
167.0961	31
167.0979	80
167.0997	176
167.1034	111
167.1052	64
167.107	160
167.1089	129
167.1107	160
167.1125	144
167.1143	80
167.1161	31
167.118	31
167.1198	31
179.0994	49
179.1013	64
179.1032	80
179.1051	96
179.1069	64
179.1088	129
179.1107	129
179.1126	80
179.1145	49
195.0932	31
195.0992	31
195.1011	49
195.1031	49
195.1051	31
195.107	49
195.109	31
195.111	49
196.0325	49
196.0364	49
196.0384	49
196.0423	31
196.0443	80
196.0463	31
196.0483	31
201.1684	31
201.1724	31
207.1032	64
207.1052	49
207.1073	31
208.1014	49
208.1034	64
208.1095	31
208.1116	31
208.1156	31
208.1177	64
208.1217	31
214.046	31
227.1805	31
227.1933	49
253.2176	49
253.2198	31
253.2265	31
253.2333	31
255.2017	49
255.204	31
255.2063	31
255.2085	64
255.2108	111
255.213	31
255.2153	64
255.2175	64
255.2198	96
255.222	31
255.2243	49
273.2282	49
281.1871	33
282.3785	31
282.3903	33
282.3951	33
282.9407	33
283.235	31
283.2398	49
283.2422	31
283.2445	80
283.2469	114
283.2493	198
283.2517	198
283.2541	397
283.2564	613
283.2588	563
283.2612	731
283.2635	732
283.2659	819
283.2683	784
283.2707	819
283.273	449
283.2754	284
283.2778	267
283.2802	166
283.2825	100
283.2849	135
283.2873	66
283.2897	66
283.2944	17
284.2737	17
284.2761	17
299.1926	49
299.1974	33
299.1999	31
299.2023	49
299.2048	49
299.2072	49
299.2097	31
299.2121	49
299.2194	33
306.0775	33
317.1861	64
317.1886	49
317.1911	194
317.1936	97
317.1961	97
317.1986	259
317.2011	179
317.2037	373
317.2062	293
317.2087	339
317.2112	372
317.2137	372
317.2162	292
317.2188	162
317.2213	177
317.2238	224
317.2263	226
317.2288	96
317.2313	80
317.2338	64
318.2197	31
343.2256	31
361.2364	31
409.2596	31
419.2735	31
462.282	80
462.2881	31
462.2911	31
462.2971	49
462.3032	64
462.3062	31
462.3093	31
462.3184	31
462.3245	31
480.2798	31
480.286	49
480.2891	64
480.2921	96
480.2952	64
480.2983	80
480.3014	176
480.3045	129
480.3076	176
480.3107	129
480.3138	111
480.3169	80
480.32	209
480.3231	111
480.3262	111
480.3293	176
480.3323	49
480.3354	80
480.3385	31
480.3416	31
480.354	31
496.2485	31
496.2611	31
514.3007	31
688.4772	31
688.4883	31
688.492	31
688.4995	49
688.5142	49
780.4496	31
780.4535	31
780.4575	31
780.4614	66
780.4653	97
780.4693	147
780.4732	215
780.4772	350
780.4811	268
780.485	289
780.489	372
780.4929	461
780.4969	411
780.5008	549
780.5048	789
780.5087	841
780.5126	565
780.5166	999
780.5205	842
780.5245	789
780.5284	980
780.5323	723
780.5363	891
780.5402	768
780.5442	910
780.5482	634
780.5521	668
780.556	276
780.5599	237
780.5639	326
780.5678	221
780.5718	205
780.5757	69
780.5797	89
780.5836	17
780.5875	17
780.5955	33
780.5994	33
780.6033	31
780.6072	31
780.6151	17
781.5103	31
781.5142	31
781.5221	49
781.5339	49
781.5536	49
