Mass spectrum: PE(16:1e/13-HODE); LC-ESI-QTOF; MS2
Name: PE(16:1e/13-HODE)
Class: Oxidized Phospholipid
Formula: C39H74NO8P
Exact mass: 715.996
SMILES: CCCCCCCCCCCCCC\C=C/OCC(COP(O)(=O)OCCN)OC(=O)CCCCCCC\C=C/C=C/C(O)CCCCC
InChI: InChI=1S/C39H74NO8P/c1-3-5-7-8-9-10-11-12-13-14-18-21-24-28-33-45-35-38(36-47-49(43,44)46-34-32-40)48-39(42)31-27-23-20-17-15-16-19-22-26-30-37(41)29-25-6-4-2/h19,22,26,28,30,33,37-38,41H,3-18,20-21,23-25,27,29,31-32,34-36,40H2,1-2H3,(H,43,44)/b22-19-,30-26+,33-28-
Instrument: Acquity UPLC Peptide BEH C18 column (50 x 2.1 mm; 1.7 um), Sciex TripleTOF5600
Instrument type: LC-ESI-QTOF
Ms type: MS2
Ion mode: NEGATIVE
Collision energy: 30-50
Precursor m/z: 714.5079288
Precursor type: [M-H]-
m/z	relative intensity
140.0103	21
140.0137	21
140.0203	21
195.1244	21
195.1264	33
195.1303	21
195.1323	44
195.1343	65
195.1363	109
195.1382	119
195.1402	130
195.1422	76
195.1441	21
195.1461	33
195.1481	33
195.1501	21
195.152	33
195.1599	21
196.0282	21
196.0361	21
196.04	21
196.044	21
239.2442	21
251.2483	21
277.1967	21
277.2014	21
277.2037	21
277.2061	33
277.2084	109
277.2108	44
277.2131	87
277.2155	76
277.2178	119
277.2202	109
277.2225	141
277.2249	98
277.2272	44
277.2319	21
293.1742	22
293.2056	22
293.2201	22
293.2273	22
294.3446	22
295.1368	22
295.1949	22
295.1998	111
295.2022	35
295.2047	23
295.2071	93
295.2095	93
295.2119	209
295.2144	255
295.2168	627
295.2192	711
295.2216	828
295.2241	814
295.2265	968
295.2289	999
295.2313	779
295.2337	675
295.2362	443
295.2386	546
295.241	335
295.2434	149
295.2459	116
295.2483	94
295.2507	105
295.2531	93
295.2556	80
295.258	34
295.2604	12
295.2847	12
295.5781	21
296.2286	12
296.231	22
375.2312	33
418.252	21
418.2578	21
418.2635	44
418.2664	33
418.2693	44
418.2751	65
418.278	33
418.2808	21
418.2837	21
436.2488	21
436.2547	33
436.2606	65
436.2636	44
436.2665	21
436.2695	44
436.2724	65
436.2754	33
436.2783	163
436.2813	163
436.2842	65
436.2871	87
436.2901	87
436.2931	76
436.296	98
436.299	54
436.3019	65
436.3048	44
436.3078	44
436.3314	21
459.3423	21
528.842	21
712.2607	22
713.6207	22
714.4313	21
714.4351	21
714.454	21
714.4578	66
714.4615	54
714.4653	44
714.4691	44
714.4728	124
714.4766	155
714.4804	124
714.4841	123
714.4879	190
714.4917	237
714.4955	330
714.4992	407
714.503	468
714.5068	419
714.5106	412
714.5143	535
714.5181	509
714.5219	296
714.5256	306
714.5294	331
714.5332	284
714.5369	204
714.5407	159
714.5445	137
714.5483	80
714.5521	34
714.5558	56
714.5596	46
714.5746	12
714.586	33
714.5935	21
715.5028	21
715.533	21
719.2707	12
