Mass spectrum: PE(16:0/18-HETE); LC-ESI-QTOF; MS2
Name: PE(16:0/18-HETE)
Class: Oxidized Phospholipid
Formula: C41H74NO9P
Exact mass: 756.017
SMILES: CCCCCCCCCCCCCCCC(=O)OCC(COP(O)(=O)OCCN)OC(=O)CCC\C=C/C\C=C/C\C=C/C\C=C/CCC(O)CC
InChI: InChI=1S/C41H74NO9P/c1-3-5-6-7-8-9-10-13-17-20-23-26-29-32-40(44)48-36-39(37-50-52(46,47)49-35-34-42)51-41(45)33-30-27-24-21-18-15-12-11-14-16-19-22-25-28-31-38(43)4-2/h12,14-16,21-22,24-25,38-39,43H,3-11,13,17-20,23,26-37,42H2,1-2H3,(H,46,47)/b15-12-,16-14-,24-21-,25-22-
Instrument: Acquity UPLC Peptide BEH C18 column (50 x 2.1 mm; 1.7 um), Sciex TripleTOF5600
Instrument type: LC-ESI-QTOF
Ms type: MS2
Ion mode: NEGATIVE
Collision energy: 30-50
Precursor m/z: 754.5028435
Precursor type: [M-H]-
m/z	relative intensity
78.96139	60
217.1863	60
217.1988	60
217.2029	60
255.2146	60
255.2191	213
255.2214	183
255.2236	213
255.2259	399
255.2282	489
255.2304	582
255.2327	459
255.2349	552
255.2372	459
255.2394	429
255.2417	153
255.2439	213
255.2462	183
255.2484	336
255.2552	60
257.2383	60
261.1727	60
261.1773	93
261.1796	153
261.1819	153
261.1841	93
261.1864	276
261.1887	93
261.191	93
261.1955	123
261.2001	60
275.2323	60
301.2087	123
301.2137	93
301.2161	153
301.2185	153
301.221	123
301.2234	153
301.2259	183
301.2283	60
301.2332	60
301.243	63
304.2357	63
317.203	123
318.2341	63
319.1989	63
319.2064	216
319.209	60
319.2115	309
319.214	342
319.2165	531
319.2191	561
319.2216	657
319.2241	942
319.2266	942
319.2291	843
319.2316	999
319.2342	714
319.2367	684
319.2392	309
319.2417	372
319.2443	309
319.2468	186
319.2493	93
319.2543	93
319.2568	60
319.2644	60
320.2358	60
452.2672	93
452.2702	60
452.2762	93
452.2792	93
452.2822	153
452.2852	153
452.2882	60
452.2912	183
452.2972	60
452.3002	60
498.2519	93
498.2645	123
754.4211	63
754.4288	60
754.4327	60
754.4443	60
754.4521	123
754.4559	372
754.4598	495
754.4637	279
754.4676	123
754.4714	249
754.4753	465
754.4792	588
754.4831	282
754.4869	654
754.4908	687
754.4947	942
754.4986	690
754.5024	816
754.5063	444
754.5102	537
754.5141	726
754.5179	759
754.5219	762
754.5257	570
754.5296	537
754.5334	660
754.5374	444
754.5412	255
754.5451	252
754.549	282
754.5529	342
754.5567	63
754.5606	123
754.5645	93
755.5066	60
755.5105	60
755.557	60
