Mass spectrum: PC 32:1; LC-ESI-QTOF; MS2
Name: PC 32:1
Class: PC
Formula: C40H78NO8P
Exact mass: 732.0389999999999
SMILES: CCCCCCCCCCCCCCCC(=O)OCC(COP([O-])(=O)OCC[N+](C)(C)C)OC(=O)CCCCCCC\C=C/CCCCCC
InChI: InChI=1S/C40H78NO8P/c1-6-8-10-12-14-16-18-20-22-24-26-28-30-32-39(42)46-36-38(37-48-50(44,45)47-35-34-41(3,4)5)49-40(43)33-31-29-27-25-23-21-19-17-15-13-11-9-7-2/h17,19,38H,6-16,18,20-37H2,1-5H3/b19-17-
Instrument: AB Sciex TripleTOF 5600+ system (Q-TOF) equipped with a DuoSpray ion source
Instrument type: LC-ESI-QTOF
Ms type: MS2
Ion mode: NEGATIVE
Collision energy: 45V
Column name: Acquity UPLC Peptide BEH C18 column (50*2.1 mm; 1.7 um; 130A)(Waters Co.,Milford, MA, USA)
Retention time: 9.167537
Precursor type: [M+CH3COOH-H]-
Precursor m/z: 790.5581
m/z	relative intensity
78.96	3
96.971	0
122.986	0
134.987	0
152.994	1
168.042	16
206.057	0
224.067	18
227.199	1
235.204	0
237.223	0
242.077	1
252.425	4
252.462	0
253.215	999
254.22	1
254.352	0
254.391	0
254.434	1
254.992	0
255.23	502
255.786	0
256.235	0
257.483	0
257.788	0
281.245	6
283.261	4
284.265	2
285.268	1
303.233	0
305.25	0
327.229	0
331.247	0
331.261	2
389.183	0
389.206	0
391.217	2
404.246	0
404.264	0
406.263	0
407.21	0
409.223	0
409.246	0
417.232	0
418.222	0
418.236	0
419.247	2
420.243	1
420.26	0
421.256	0
435.243	0
437.248	0
437.266	0
438.258	0
438.279	0
439.262	0
452.26	0
452.278	0
460.275	9
460.86	0
462.287	19
464.304	0
475.249	0
476.261	0
476.788	0
476.816	0
477.265	0
478.282	20
478.767	0
478.788	0
478.817	0
479.368	0
480.028	0
480.204	0
480.301	69
480.487	0
481.292	0
481.316	0
486.084	0
488.302	0
493.25	0
493.283	0
495.26	0
495.277	0
498.752	0
504.985	0
505.166	0
505.225	0
506.284	0
506.316	0
507.586	0
508.835	0
511.396	0
512.167	0
520.285	0
522.318	0
573.346	0
645.381	0
645.411	0
645.437	1
645.468	0
671.406	0
671.434	0
671.46	0
700.48	0
701.504	0
702.491	0
702.521	0
702.534	0
703.503	5
714.178	0
714.2	0
714.243	3
714.279	0
714.31	0
716.149	0
716.298	0
716.339	0
716.421	0
716.506	529
716.597	0
716.951	0
717.026	0
717.255	0
717.512	2
717.558	0
720.146	0
720.784	0
730.497	0
731.411	0
731.47	8
731.547	0
788.013	0
788.049	0
788.086	0
790.54	71
791.562	0
