Mass spectrum: Cer[NP] t34:0; LC-ESI-QTOF; MS2
Name: Cer[NP] t34:0
Class: Cer_NP
Formula: C34H69NO4
Exact mass: 555.929
SMILES: CCCCCCCCCCCCCCCC(=O)NC(CO)C(O)C(O)CCCCCCCCCCCCCC
InChI: InChI=1S/C34H69NO4/c1-3-5-7-9-11-13-15-17-19-21-23-25-27-29-33(38)35-31(30-36)34(39)32(37)28-26-24-22-20-18-16-14-12-10-8-6-4-2/h31-32,34,36-37,39H,3-30H2,1-2H3,(H,35,38)
Instrument: AB Sciex TripleTOF 5600+ system (Q-TOF) equipped with a DuoSpray ion source
Instrument type: LC-ESI-QTOF
Ms type: MS2
Ion mode: NEGATIVE
Collision energy: 45V
Column name: Acquity UPLC Peptide BEH C18 column (50*2.1 mm; 1.7 um; 130A)(Waters Co.,Milford, MA, USA)
Retention time: 9.29612
Precursor type: [M+CH3COOH-H]-
Precursor m/z: 614.534
m/z	relative intensity
225.221	28
237.219	30
239.236	18
250.252	6
253.215	14
253.254	6
254.247	106
254.259	16
255.231	284
267.231	229
268.262	27
269.246	13
278.252	10
279.231	16
280.265	85
284.257	13
292.263	19
294.282	6
295.247	7
296.259	142
297.243	7
298.273	413
308.259	3
310.274	297
316.283	12
342.302	11
348.153	3
476.485	5
488.474	7
488.499	11
490.496	3
504.494	2
506.491	6
518.487	68
522.488	24
524.495	3
534.495	2
536.5	41
536.525	7
552.768	3
554.457	5
554.513	999
554.588	2
555.532	2
