Mass spectrum: PC(18:2/8,9-EpETE); LC-ESI-QTOF; MS2
Name: PC(18:2/8,9-EpETE)
Class: Oxidized Phospholipid
Formula: C46H78NO9P
Exact mass: 820.104
SMILES: CCCCC\C=C/C\C=C/CCCCCCCC(=O)OCC(COP([O-])(=O)OCC[N+](C)(C)C)OC(=O)CCC\C=C/CC1OC1C\C=C/C\C=C/C\C=C/CC
InChI: InChI=1S/C46H78NO9P/c1-6-8-10-12-14-16-17-18-19-20-21-23-25-27-32-36-45(48)52-40-42(41-54-57(50,51)53-39-38-47(3,4)5)55-46(49)37-33-29-28-31-35-44-43(56-44)34-30-26-24-22-15-13-11-9-7-2/h9,11,14-16,18-19,22,26,28,30-31,42-44H,6-8,10,12-13,17,20-21,23-25,27,29,32-41H2,1-5H3/b11-9-,16-14-,19-18-,22-15-,30-26-,31-28-
Instrument: Acquity UPLC Peptide BEH C18 column (50 x 2.1 mm; 1.7 um), Sciex TripleTOF5600
Instrument type: LC-ESI-QTOF
Ms type: MS2
Ion mode: NEGATIVE
Collision energy: 30-50
Precursor m/z: 878.5552726
Precursor type: [M+CH3COOH-H]-
m/z	relative intensity
155.0723	70
167.068	70
224.0621	70
255.2054	70
255.2076	70
255.2166	70
255.2279	70
279.2141	70
279.2211	140
279.2235	251
279.2258	286
279.2282	251
279.2306	251
279.2329	251
279.2353	573
279.2376	321
279.24	321
279.2423	105
279.2447	105
279.2471	105
279.2518	175
279.2542	70
299.1843	70
317.1926	140
317.2027	175
317.2052	356
317.2077	140
317.2102	217
317.2127	175
317.2153	251
317.2178	321
317.2203	140
317.2228	140
317.2253	251
317.2278	70
317.2303	70
317.2429	70
504.2631	70
504.2916	70
504.2947	70
504.3106	70
504.3138	105
504.3264	140
504.3296	105
804.4579	105
804.4619	70
804.4659	175
804.4739	175
804.4779	251
804.4819	286
804.4859	251
804.4899	461
804.4939	286
804.4979	496
804.5019	496
804.5059	608
804.5099	713
804.5139	461
804.5179	782
804.5219	573
804.5259	748
804.5299	782
804.5339	713
804.5379	999
804.5419	678
804.546	573
804.5499	461
804.554	643
804.5579	140
804.562	321
804.566	496
804.5699	105
804.574	105
804.5779	105
804.582	70
804.5939	70
804.602	70
878.5233	70
878.5317	70
878.54	105
878.5484	70
878.5568	105
878.561	140
878.5693	105
878.5735	140
878.5986	70
