Mass spectrum: PC(20:1/12-HEPE); LC-ESI-QTOF; MS2
Name: PC(20:1/12-HEPE)
Class: Oxidized Phospholipid
Formula: C48H84NO9P
Exact mass: 850.174
SMILES: CCCCCCCC\C=C/CCCCCCCCCC(=O)OCC(COP([O-])(=O)OCC[N+](C)(C)C)OC(=O)CCC\C=C/C\C=C/C=C/C(O)C\C=C/C\C=C/CC
InChI: InChI=1S/C48H84NO9P/c1-6-8-10-12-14-15-16-17-18-19-20-21-22-23-27-31-35-39-47(51)55-43-46(44-57-59(53,54)56-42-41-49(3,4)5)58-48(52)40-36-32-28-25-24-26-30-34-38-45(50)37-33-29-13-11-9-7-2/h9,11,17-18,25-26,28-30,33-34,38,45-46,50H,6-8,10,12-16,19-24,27,31-32,35-37,39-44H2,1-5H3/b11-9-,18-17-,28-25-,30-26-,33-29-,38-34+
Instrument: Acquity UPLC Peptide BEH C18 column (50 x 2.1 mm; 1.7 um), Sciex TripleTOF5600
Instrument type: LC-ESI-QTOF
Ms type: MS2
Ion mode: NEGATIVE
Collision energy: 30-50
Precursor m/z: 908.6022228
Precursor type: [M+CH3COOH-H]-
m/z	relative intensity
135.115	35
135.1232	35
179.096	35
179.0979	35
179.0997	35
179.1073	35
179.1091	69
179.111	35
179.1148	35
179.1166	35
180.1129	35
180.1204	35
208.106	35
208.108	69
208.1141	35
255.1954	35
255.2044	35
255.2156	35
281.226	35
281.2401	138
281.2424	69
281.2448	104
281.2471	173
281.2495	35
281.2519	69
281.2589	69
281.2613	35
299.1913	35
299.1937	35
299.1985	35
299.201	104
299.2034	35
309.2624	35
309.2649	69
309.2673	104
309.2698	69
309.2722	138
309.2747	69
309.2772	190
309.2797	173
309.2821	104
309.2846	69
309.2895	69
309.292	69
309.2945	69
309.3068	35
309.3389	35
317.198	104
317.2005	104
317.203	173
317.2055	227
317.208	104
317.2105	196
317.213	193
317.2155	210
317.218	193
317.2205	138
317.223	69
317.2279	35
317.2329	35
327.2227	35
327.2252	35
327.2278	35
327.2379	35
327.2404	69
327.248	35
331.2308	35
331.2359	35
464.1538	35
464.187	35
473.3057	35
473.3087	35
516.331	35
516.3438	35
516.3501	35
534.3387	35
534.3419	69
534.3452	35
534.3516	69
534.3549	69
534.3582	35
534.3646	69
534.3809	35
763.4729	35
763.4884	35
763.4962	35
763.5	35
763.5039	35
763.5117	35
763.5194	69
834.5023	35
834.5063	35
834.5145	69
834.5185	35
834.5266	135
834.5306	135
834.5347	135
834.5388	239
834.5428	230
834.5469	464
834.5509	648
834.555	593
834.559	892
834.5631	570
834.5671	999
834.5712	625
834.5753	875
834.5793	769
834.5834	394
834.5874	403
834.5914	348
834.5955	308
834.5995	170
834.6036	190
834.6077	135
834.6117	135
834.6158	104
834.6198	69
834.6238	35
834.6401	35
848.5593	69
848.5634	35
848.5797	35
848.5838	35
848.6042	35
849.5034	35
849.5197	35
849.532	35
849.536	35
849.5443	69
908.4833	35
908.5298	69
908.5425	35
908.5468	35
908.551	35
908.5552	35
908.5637	35
908.5679	104
908.5721	69
908.5764	104
908.5806	138
908.5848	104
908.5891	69
908.5933	69
908.5975	173
908.6017	236
908.606	173
908.6102	69
908.6144	138
908.6187	138
908.6229	69
908.6313	35
908.6356	69
