Mass spectrum: PE(18:0/12-HETE); LC-ESI-QTOF; MS2
Name: PE(18:0/12-HETE)
Class: Oxidized Phospholipid
Formula: C43H78NO9P
Exact mass: 784.071
SMILES: CCCCCCCCCCCCCCCCCC(=O)OCC(COP(O)(=O)OCCN)OC(=O)CCC\C=C/C\C=C/C=C/C(O)C\C=C/CCCCC
InChI: InChI=1S/C43H78NO9P/c1-3-5-7-9-11-12-13-14-15-16-17-18-22-26-30-34-42(46)50-38-41(39-52-54(48,49)51-37-36-44)53-43(47)35-31-27-23-20-19-21-25-29-33-40(45)32-28-24-10-8-6-4-2/h20-21,23-25,28-29,33,40-41,45H,3-19,22,26-27,30-32,34-39,44H2,1-2H3,(H,48,49)/b23-20-,25-21-,28-24-,33-29+
Instrument: Acquity UPLC Peptide BEH C18 column (50 x 2.1 mm; 1.7 um), Sciex TripleTOF5600
Instrument type: LC-ESI-QTOF
Ms type: MS2
Ion mode: NEGATIVE
Collision energy: 30-50
Precursor m/z: 782.5341436
Precursor type: [M-H]-
m/z	relative intensity
78.95636	8
78.95761	8
78.95886	16
78.96137	12
78.96263	16
78.96388	8
81.07417	8
107.0825	20
107.0854	8
107.0884	8
107.0898	8
119.0894	8
135.1094	12
135.1127	12
135.1143	16
135.116	16
135.1192	20
135.1209	20
135.1225	8
135.1258	12
135.1291	8
139.1108	16
139.1125	12
139.1142	8
139.1175	12
139.1192	8
140.0026	8
140.0043	8
140.0059	24
140.0076	16
140.0093	24
140.0109	20
140.0126	36
140.0143	20
140.0159	24
140.0176	28
140.0193	12
140.021	8
140.0226	8
151.1479	8
151.1513	8
152.9975	12
163.1017	8
163.1035	8
163.1053	20
163.1071	12
163.1089	28
163.1107	12
163.1125	12
163.1143	20
163.1162	16
163.1216	8
163.1468	8
165.0954	8
177.0992	8
177.1574	8
178.0261	12
178.0468	8
178.5593	8
179.0876	8
179.0933	13
179.0952	16
179.097	33
179.0989	83
179.1008	135
179.1027	149
179.1046	186
179.1065	170
179.1084	166
179.1103	169
179.1122	111
179.114	108
179.1159	74
179.1178	33
179.1197	26
179.1216	33
179.1235	13
179.1254	12
179.1273	8
179.1292	8
179.1329	8
179.944	4
180.1049	8
180.1106	12
180.1125	12
180.1163	8
180.1182	8
196.0261	8
196.028	20
196.03	16
196.032	52
196.034	72
196.0359	44
196.0379	76
196.0399	52
196.0419	28
196.0439	16
196.0458	20
196.0478	12
196.0498	8
200.8239	8
203.1742	20
203.1762	24
203.1782	16
203.1802	32
203.1822	24
203.1842	16
203.1863	20
203.1883	20
203.1903	8
203.1943	12
207.0946	12
207.0987	12
207.1027	8
207.1048	24
207.1068	12
208.0948	8
208.0969	16
208.0989	16
208.1009	12
208.103	40
208.105	56
208.107	44
208.1091	52
208.1111	48
208.1131	64
208.1152	72
208.1172	20
208.1193	16
208.1213	20
208.1233	20
208.1274	16
208.1335	8
214.0414	12
214.0476	8
215.0768	8
215.1762	8
255.2283	8
255.2328	8
255.2351	8
255.2373	8
255.2396	16
257.0394	8
257.1706	8
257.2045	16
257.209	16
257.2113	33
257.2136	61
257.2158	77
257.2181	94
257.2204	81
257.2226	154
257.2249	142
257.2271	126
257.2294	138
257.2317	69
257.2339	86
257.2362	66
257.2385	53
257.2407	12
257.243	20
257.2452	8
257.2498	8
263.2017	4
275.2091	8
275.2278	8
275.2302	16
275.2325	12
275.2349	12
275.2372	16
275.2395	16
275.2419	16
275.2442	12
275.2466	8
275.2489	8
281.234	8
281.2387	12
281.2411	20
281.2434	28
281.2458	28
281.2482	28
281.2505	20
281.2529	56
281.2553	24
281.2576	20
281.26	16
281.2624	12
282.3804	16
282.3828	16
282.3851	8
282.3875	12
282.4112	8
283.1919	9
283.2037	9
283.2061	9
283.2132	9
283.2156	17
283.2322	4
283.2346	4
283.237	17
283.2393	23
283.2417	32
283.2441	70
283.2465	118
283.2488	223
283.2512	286
283.2536	422
283.256	568
283.2583	680
283.2607	846
283.2631	852
283.2655	839
283.2679	839
283.2702	654
283.2726	576
283.275	458
283.2773	300
283.2797	209
283.2821	123
283.2845	81
283.2868	62
283.2892	33
283.2916	33
283.2939	38
283.2963	5
283.2987	5
283.3011	5
283.3153	5
283.3913	5
283.6289	5
284.0354	5
284.2495	5
284.2566	4
284.259	24
284.2614	8
284.2637	12
284.2661	16
284.2709	12
284.2733	16
284.278	8
289.1254	8
291.2454	8
296.5597	8
299.2165	8
300.2718	8
300.2816	8
301.1796	8
301.187	12
301.1894	16
301.1918	8
301.1943	16
301.1967	8
301.1992	20
301.2016	49
301.2041	70
301.2065	111
301.209	91
301.2114	108
301.2139	186
301.2163	149
301.2188	145
301.2212	182
301.2237	154
301.2261	128
301.2286	58
301.231	62
301.2335	66
301.2359	21
301.2384	16
301.2408	4
301.2433	8
301.2457	8
301.2482	4
301.819	4
302.2089	4
302.2138	8
302.2261	8
318.2218	8
318.2293	9
318.2318	8
318.2344	8
318.2394	9
318.6548	9
319.1537	9
319.179	8
319.1966	4
319.1991	23
319.2016	63
319.2042	87
319.2067	103
319.2092	164
319.2117	258
319.2143	300
319.2168	395
319.2193	611
319.2218	613
319.2243	758
319.2268	759
319.2294	913
319.2319	875
319.2344	777
319.2369	627
319.2395	430
319.242	349
319.2445	258
319.247	168
319.2495	77
319.2521	81
319.2546	34
319.2571	9
319.2596	10
319.2621	10
319.2647	5
319.2975	5
319.3176	5
319.6127	5
320.0088	5
320.1047	5
320.2184	12
320.2209	8
320.2234	8
320.226	12
320.2285	8
320.231	24
320.2335	8
320.2411	8
320.2436	8
320.3269	8
321.2392	8
406.2704	8
441.1889	8
442.209	8
462.2786	8
462.2816	8
462.2846	32
462.2877	20
462.2907	24
462.2937	20
462.2968	24
462.2998	24
462.3028	20
462.3058	20
462.3089	40
462.3119	20
462.315	20
462.318	8
462.3241	12
462.3271	8
462.3301	16
472.9513	8
478.8272	8
478.8457	8
479.961	8
480.267	8
480.2732	16
480.2763	12
480.2794	16
480.2825	41
480.2856	24
480.2887	66
480.2918	66
480.2949	87
480.298	95
480.3011	88
480.3041	142
480.3073	187
480.3103	166
480.3134	176
480.3165	100
480.3196	138
480.3227	113
480.3258	100
480.3289	55
480.332	80
480.3351	33
480.3382	37
480.3412	29
480.3443	13
480.3536	4
480.3753	4
480.3969	4
481.3097	4
498.2429	8
498.2461	16
498.2523	12
498.2555	16
498.2586	36
498.2618	8
498.265	16
498.2681	12
498.2712	12
498.2776	8
498.2807	12
498.2838	8
498.287	8
516.2573	8
516.2637	8
516.2668	16
516.2733	16
516.2765	16
516.2797	20
516.2829	8
516.2925	8
534.3436	8
540.2961	8
588.3813	8
589.3434	8
589.3571	8
589.3708	20
589.3743	12
589.3811	8
589.3845	12
589.3879	8
589.3948	8
589.4017	8
589.4085	8
628.4234	8
671.4058	12
671.4205	8
671.4277	12
695.4659	12
695.4846	8
780.0513	8
780.0553	8
780.0593	8
780.0671	8
780.075	8
780.079	12
780.0869	8
780.0908	8
780.0947	8
780.1066	16
782.2676	9
782.4492	8
782.4531	8
782.4728	11
782.4768	36
782.4808	49
782.4847	38
782.4886	133
782.4926	126
782.4965	151
782.5005	249
782.5045	348
782.5084	427
782.5123	532
782.5163	673
782.5202	781
782.5242	830
782.5281	952
782.532	964
782.536	885
782.54	999
782.5439	977
782.5479	900
782.5518	953
782.5557	911
782.5597	767
782.5637	822
782.5676	568
782.5715	489
782.5755	300
782.5794	301
782.5834	182
782.5873	117
782.5913	97
782.5952	90
782.5992	42
782.6031	21
782.6071	21
782.611	16
782.615	16
782.6189	11
782.6229	5
782.6347	5
782.8321	5
783.4954	8
783.4994	22
783.5034	8
783.5073	12
783.5112	8
783.5152	24
783.5191	40
783.5231	32
783.527	36
783.531	24
783.5349	44
783.5389	24
783.5428	24
783.5468	44
783.5507	32
783.5547	52
783.5587	28
783.5626	36
783.5665	20
783.5705	36
783.5744	28
783.5784	20
783.5823	20
783.5863	8
783.5902	8
783.5942	12
783.5981	12
783.606	8
783.61	8
785.9144	8
