Mass spectrum: PE(16:1e/17,18-EpETE); LC-ESI-QTOF; MS2
Name: PE(16:1e/17,18-EpETE)
Class: Oxidized Phospholipid
Formula: C41H72NO8P
Exact mass: 738.002
SMILES: CCCCCCCCCCCCCC\C=C/OCC(COP(O)(=O)OCCN)OC(=O)CCC\C=C/C\C=C/C\C=C/C\C=C/CC1OC1CC
InChI: InChI=1S/C41H72NO8P/c1-3-5-6-7-8-9-10-11-15-18-21-24-27-30-34-46-36-38(37-48-51(44,45)47-35-33-42)49-41(43)32-29-26-23-20-17-14-12-13-16-19-22-25-28-31-40-39(4-2)50-40/h12,14,16,19-20,23,25,28,30,34,38-40H,3-11,13,15,17-18,21-22,24,26-27,29,31-33,35-37,42H2,1-2H3,(H,44,45)/b14-12-,19-16-,23-20-,28-25-,34-30-
Instrument: Acquity UPLC Peptide BEH C18 column (50 x 2.1 mm; 1.7 um), Sciex TripleTOF5600
Instrument type: LC-ESI-QTOF
Ms type: MS2
Ion mode: NEGATIVE
Collision energy: 30-50
Precursor m/z: 736.4922788
Precursor type: [M-H]-
m/z	relative intensity
71.05158	11
71.05515	7
71.06228	7
78.95364	11
78.95615	15
78.95741	25
78.95866	11
78.95991	33
78.96117	36
78.96242	36
78.96367	40
78.96493	15
78.96618	11
78.96744	7
78.96869	7
78.96994	7
78.9737	7
81.07268	7
83.04996	11
83.05124	15
83.0551	7
93.07848	7
95.08891	7
95.09028	11
97.06104	7
97.06382	18
97.06521	18
97.0666	18
97.06799	11
97.06938	15
97.07077	7
97.07772	7
107.0851	7
107.0865	18
107.088	11
107.0895	11
107.0909	11
107.0938	11
109.0653	7
109.1036	7
109.1051	7
109.1065	11
109.108	7
117.0682	7
117.0697	7
117.0713	7
117.0759	7
117.0804	7
119.0921	7
121.1006	7
121.1022	22
121.1037	15
121.1053	11
121.1068	29
123.0822	7
123.0837	7
127.0807	7
131.0899	7
133.0991	7
133.1008	15
133.1024	15
133.104	7
133.1056	11
135.1121	11
135.1154	18
135.1171	18
135.1187	11
135.1203	11
135.122	7
135.1236	11
139.1153	7
140.0004	7
140.002	7
140.0054	15
140.007	18
140.0087	47
140.0104	54
140.012	54
140.0137	40
140.0154	58
140.017	25
140.0187	18
140.0204	15
140.0254	11
143.0924	11
147.1154	7
147.1171	29
147.1205	15
147.1222	11
147.1239	11
147.1273	7
149.1262	11
149.1331	15
149.1348	7
149.1383	29
149.1452	7
152.9933	11
152.9951	7
159.1199	7
161.1249	7
161.1267	18
161.1285	25
161.1303	11
161.132	18
161.1338	18
161.1356	29
161.1374	11
161.1392	15
161.141	7
161.1428	18
161.1464	7
163.0127	7
163.0181	7
163.0217	7
163.0704	7
163.074	7
163.0794	7
163.1389	7
163.1425	7
163.1461	15
163.1479	18
163.1497	7
163.1515	18
163.1533	11
165.1273	7
167.1077	7
173.1215	7
173.1308	7
173.1382	7
175.1435	7
175.1454	15
175.1547	7
177.089	7
177.0909	11
177.0927	7
177.0946	11
178.0272	18
178.0291	7
179.0282	7
179.0339	7
179.0358	7
179.0377	7
179.0396	7
179.0415	7
179.0471	7
181.1185	18
181.1204	18
181.1223	7
181.1242	7
181.1261	11
181.128	11
181.1299	11
187.1398	7
187.1417	7
187.1436	7
187.1455	7
187.1475	15
189.1331	7
189.1545	7
189.1661	11
189.168	25
189.1719	7
189.5816	7
191.1039	7
191.1058	7
193.1261	7
195.1313	7
195.1372	7
196.0212	7
196.0232	7
196.0251	7
196.0271	25
196.0291	43
196.0311	36
196.033	72
196.035	72
196.037	105
196.039	80
196.0409	72
196.0429	58
196.0449	43
196.0469	36
196.0488	29
196.0508	22
196.0528	15
196.0627	7
199.1429	7
201.145	7
201.149	7
201.151	11
201.155	29
201.157	7
201.159	36
201.161	47
201.163	54
201.165	40
201.167	29
201.169	25
201.171	36
201.173	11
201.175	18
201.177	11
203.1068	7
207.1302	7
207.1342	15
207.1362	22
207.1383	11
207.1403	7
207.1423	7
207.1464	11
207.1484	11
212.2831	7
213.1701	7
214.1725	7
214.5154	7
214.5257	7
215.1337	7
215.1461	7
215.1606	7
215.1627	18
215.1648	18
215.1668	18
215.1689	41
215.171	78
215.173	70
215.1751	146
215.1772	172
215.1792	195
215.1813	138
215.1834	142
215.1855	119
215.1875	78
215.1896	79
215.1917	26
215.1937	30
215.1958	26
215.1979	15
215.1999	11
215.202	4
215.2041	7
216.0805	4
216.1863	4
217.0918	4
217.1167	7
217.125	11
217.1292	7
219.1276	7
219.1381	15
219.159	7
219.1631	7
219.1694	15
219.1715	11
219.1736	11
219.1757	11
219.1778	11
219.1799	7
219.1819	11
219.184	15
221.1415	7
221.1457	11
221.1478	7
221.152	11
221.1541	18
221.1562	11
221.1583	11
221.1604	18
221.1625	7
225.18	7
226.1868	7
227.1364	7
227.1704	7
227.1768	7
227.1789	7
227.181	7
227.1831	7
227.1917	7
227.2044	7
228.2115	7
229.1503	11
229.1567	15
229.1589	7
229.161	7
229.1631	7
229.1653	7
229.1674	7
231.1496	7
233.151	7
233.1532	7
233.1553	15
233.1597	11
233.1618	15
233.164	7
238.4898	7
239.1505	15
239.1592	7
239.1679	11
239.1701	7
239.1745	7
239.2269	33
239.229	58
239.2312	43
239.2334	58
239.2356	65
239.2378	43
239.24	47
239.2421	76
239.2443	51
239.2465	51
239.2487	29
239.2509	15
239.2531	7
239.2552	11
241.149	7
241.1577	11
241.1599	7
243.169	7
243.1756	7
245.1378	7
245.1422	7
245.1466	15
245.1488	15
245.151	29
245.1532	25
245.1554	29
245.1577	22
245.1599	7
245.1621	22
245.1643	11
245.1665	7
245.1687	7
245.1709	11
245.1797	11
245.1974	7
245.2018	7
247.1633	7
247.1677	7
247.17	11
247.1744	15
247.1766	7
247.181	11
253.2113	7
253.218	7
254.4229	7
255.1323	7
255.1751	7
255.1864	4
255.1887	8
255.1909	26
255.1932	15
255.1954	19
255.1977	60
255.1999	104
255.2022	92
255.2044	182
255.2067	138
255.2089	230
255.2112	271
255.2135	232
255.2157	183
255.218	179
255.2202	149
255.2225	118
255.2247	80
255.227	50
255.2292	42
255.2315	50
255.2337	15
255.236	11
255.2382	15
255.2405	15
255.245	7
255.4366	4
256.1972	4
256.2243	11
256.2288	11
257.5381	7
258.3562	11
258.3744	11
259.1483	7
259.1506	15
259.1529	11
259.1552	44
259.1574	52
259.1597	60
259.162	157
259.1642	128
259.1665	150
259.1688	177
259.1711	181
259.1733	159
259.1756	151
259.1779	151
259.1801	76
259.1824	72
259.1847	53
259.187	23
259.1892	30
259.1915	7
259.1938	15
259.196	7
259.2029	4
261.1601	4
261.167	7
261.1738	15
261.1761	15
261.1784	18
261.1807	15
261.1829	22
261.1852	11
261.1875	25
261.1898	41
261.192	18
261.1943	22
261.1966	7
261.1989	15
261.2035	7
271.187	7
271.201	11
271.2056	11
271.2103	15
271.2196	7
271.2242	7
273.1983	7
273.2006	7
273.203	26
273.2053	7
273.2076	37
273.21	33
273.2123	101
273.2146	82
273.2169	123
273.2193	131
273.2216	172
273.2239	131
273.2263	101
273.2286	142
273.2309	60
273.2333	49
273.2356	22
273.2379	30
273.2403	18
273.2426	7
273.2473	7
273.9264	4
274.2254	7
275.1655	7
275.1678	7
279.1729	7
281.1827	7
281.1875	15
281.1946	7
281.2135	7
288.1794	7
289.2198	7
295.8999	7
298.0079	7
298.2589	7
298.3149	7
298.3417	7
298.644	7
299.1734	11
299.1758	11
299.1783	26
299.1807	18
299.1831	45
299.1856	41
299.188	103
299.1905	122
299.1929	160
299.1953	157
299.1978	222
299.2002	227
299.2026	221
299.2051	233
299.2075	202
299.21	206
299.2124	95
299.2148	65
299.2173	61
299.2197	15
299.2222	23
299.2246	15
299.2271	19
299.2295	11
299.4199	4
299.9377	4
300.1919	4
300.209	7
300.2164	7
306.1791	4
315.1917	15
315.1942	7
315.1967	7
315.1992	7
315.2018	11
315.2043	15
315.2118	7
315.2844	8
316.2021	7
316.2121	11
316.2146	7
316.2196	11
316.2296	7
316.2422	12
317.0682	8
317.1788	4
317.1813	12
317.1838	20
317.1863	21
317.1888	43
317.1914	86
317.1939	164
317.1964	302
317.1989	362
317.2014	441
317.2039	715
317.2065	743
317.209	808
317.2115	885
317.214	999
317.2165	877
317.219	779
317.2215	661
317.224	506
317.2266	355
317.2291	177
317.2316	125
317.2341	99
317.2366	48
317.2391	14
317.2416	40
317.2441	17
317.2466	18
317.2844	4
317.3396	5
317.4955	4
317.6137	5
317.7545	5
317.8727	4
318.1998	7
318.2024	11
318.2049	7
318.2124	11
318.2149	22
318.2175	11
318.22	7
318.2275	7
318.2678	7
318.298	7
364.2625	7
375.2067	7
375.2122	15
375.2149	15
375.2176	25
375.2231	22
375.2258	11
375.2285	25
375.2313	18
375.234	7
375.2368	22
375.2395	25
375.2422	11
375.245	7
375.2477	11
397.193	7
403.2816	7
416.9855	7
417.0056	7
417.983	7
418.2282	11
418.2311	7
418.2397	15
418.2426	15
418.2455	38
418.2484	34
418.2513	52
418.2542	53
418.257	84
418.2599	84
418.2628	144
418.2657	165
418.2686	214
418.2715	291
418.2744	192
418.2773	234
418.2802	212
418.283	173
418.2859	107
418.2888	103
418.2917	96
418.2946	54
418.2975	54
418.3004	35
418.3032	31
418.3061	8
418.309	8
418.3119	8
418.3148	8
418.3234	7
418.3696	4
418.6323	4
419.2792	7
434.8962	11
434.9109	7
434.9197	7
434.9285	8
436.2301	11
436.236	7
436.2419	4
436.2449	12
436.2478	12
436.2508	17
436.2537	41
436.2567	77
436.2596	142
436.2625	138
436.2655	235
436.2684	257
436.2714	432
436.2743	559
436.2773	563
436.2802	537
436.2832	643
436.2861	707
436.2891	578
436.292	532
436.295	453
436.2979	418
436.3008	251
436.3038	209
436.3067	136
436.3097	72
436.3127	68
436.3156	38
436.3185	25
436.3215	25
436.3244	9
436.3274	9
436.3303	4
436.3333	4
436.3392	4
436.3834	4
436.6015	4
436.9347	4
437.2622	7
437.2799	15
437.2858	7
437.2917	11
438.4668	4
487.639	7
496.2513	7
496.2545	7
496.2607	11
662.4486	7
662.4595	7
662.4777	7
734.162	15
734.1659	7
734.1697	11
734.1774	11
734.1812	11
734.185	11
734.1965	7
734.2003	7
734.2118	7
734.2156	11
736.408	7
736.4232	11
736.4309	9
736.4348	17
736.4385	35
736.4424	48
736.4462	121
736.4501	86
736.4539	169
736.4577	156
736.4615	277
736.4653	438
736.4692	441
736.473	546
736.4769	721
736.4807	796
736.4845	688
736.4883	739
736.4922	787
736.496	823
736.4998	866
736.5037	873
736.5075	940
736.5113	737
736.5151	619
736.519	504
736.5228	414
736.5266	284
736.5305	164
736.5343	137
736.5381	132
736.5419	65
736.5458	43
736.5496	18
736.5534	33
736.5573	28
736.5611	15
736.5687	5
736.9709	5
737.0436	5
737.239	5
737.4498	7
737.4536	11
737.4574	7
737.4612	7
737.4651	18
737.4689	15
737.4728	15
737.4804	22
737.4843	7
737.4881	29
737.4919	11
737.4957	22
737.4996	30
737.5034	25
737.5073	18
737.511	25
737.5149	18
737.5187	15
737.5226	22
737.5264	15
737.5302	15
737.5341	15
