Mass spectrum: PI 40:6; LC-ESI-QTOF; MS2
Name: PI 40:6
Class: PI
Formula: C49H83O13P
Exact mass: 911.1659999999999
SMILES: CCCCCCCC\C=C/CCCCCCCC(=O)OCC(COP(O)(=O)OC1C(O)C(O)C(O)C(O)C1O)OC(=O)CCCCC\C=C/C\C=C/C\C=C/C\C=C/C\C=C/CC
InChI: InChI=1S/C49H83O13P/c1-3-5-7-9-11-13-15-17-19-20-21-22-24-26-28-30-32-34-36-38-43(51)61-41(40-60-63(57,58)62-49-47(55)45(53)44(52)46(54)48(49)56)39-59-42(50)37-35-33-31-29-27-25-23-18-16-14-12-10-8-6-4-2/h5,7,11,13,17-19,21-23,26,28,41,44-49,52-56H,3-4,6,8-10,12,14-16,20,24-25,27,29-40H2,1-2H3,(H,57,58)/b7-5-,13-11-,19-17-,22-21-,23-18-,28-26-
Instrument: AB Sciex TripleTOF 5600+ system (Q-TOF) equipped with a DuoSpray ion source
Instrument type: LC-ESI-QTOF
Ms type: MS2
Ion mode: NEGATIVE
Collision energy: 45V
Column name: Acquity UPLC Peptide BEH C18 column (50*2.1 mm; 1.7 um; 130A)(Waters Co.,Milford, MA, USA)
Retention time: 8.435534
Precursor type: [M-H]-
Precursor m/z: 909.5504
m/z	relative intensity
152.993	11
222.998	15
241.01	62
255.236	3
259.019	6
259.238	2
281.249	67
297.036	13
303.215	5
303.232	28
307.252	13
307.266	37
309.277	2
311.244	2
315.045	4
329.247	59
417.236	33
435.265	2
443.254	25
465.239	3
493.398	2
527.632	2
579.273	12
579.301	26
597.308	11
601.266	5
605.286	12
605.321	12
623.324	6
627.29	13
747.497	5
749.486	4
822.523	2
835.549	2
906.659	5
906.717	5
909.521	159
909.554	999
909.601	107
910.546	5
