Mass spectrum: PE 40:8; LC-ESI-QTOF; MS2
Name: PE 40:8
Class: PE
Formula: C45H74NO8P
Exact mass: 788.0619999999999
SMILES: CCCCC\C=C/C\C=C/CCCCCCCC(=O)OCC(COP(O)(=O)OCCN)OC(=O)CC\C=C/C\C=C/C\C=C/C\C=C/C\C=C/C\C=C/CC
InChI: InChI=1S/C45H74NO8P/c1-3-5-7-9-11-13-15-17-19-20-21-22-24-26-28-30-32-34-36-38-45(48)54-43(42-53-55(49,50)52-40-39-46)41-51-44(47)37-35-33-31-29-27-25-23-18-16-14-12-10-8-6-4-2/h5,7,11-14,17-19,21-23,26,28,32,34,43H,3-4,6,8-10,15-16,20,24-25,27,29-31,33,35-42,46H2,1-2H3,(H,49,50)/b7-5-,13-11-,14-12-,19-17-,22-21-,23-18-,28-26-,34-32-
Instrument: AB Sciex TripleTOF 5600+ system (Q-TOF) equipped with a DuoSpray ion source
Instrument type: LC-ESI-QTOF
Ms type: MS2
Ion mode: NEGATIVE
Collision energy: 45V
Column name: Acquity UPLC Peptide BEH C18 column (50*2.1 mm; 1.7 um; 130A)(Waters Co.,Milford, MA, USA)
Retention time: 8.936766
Precursor type: [M-H]-
Precursor m/z: 786.5046
m/z	relative intensity
78.958	10
96.969	3
107.087	8
133.101	4
137.134	4
140.011	36
147.118	3
152.995	3
163.147	4
175.152	3
177.161	7
189.165	4
191.179	9
196.038	46
203.181	3
214.047	5
229.196	56
241.193	4
249.185	20
255.213	4
278.365	7
279.232	983
280.23	1
282.367	1
283.242	419
283.273	5
297.217	4
309.224	6
325.216	2
326.207	4
327.232	961
415.221	2
458.262	37
473.65	2
474.779	2
476.274	192
506.261	12
506.29	3
524.269	14
564.987	1
653.613	2
698.479	1
699.5	8
768.563	3
783.556	1
784.013	5
785.543	1
786.429	3
786.504	999
786.564	8
786.66	2
787.51	2
