Mass spectrum: PE(18:2e/11,12-EpETE); LC-ESI-QTOF; MS2
Name: PE(18:2e/11,12-EpETE)
Class: Oxidized Phospholipid
Formula: C43H74NO8P
Exact mass: 764.04
SMILES: CCCCCCCCCCCCC\C=C/C\C=C/OCC(COP(O)(=O)OCCN)OC(=O)CCC\C=C/C\C=C/CC1OC1C\C=C/C\C=C/CC
InChI: InChI=1S/C43H74NO8P/c1-3-5-7-9-11-12-13-14-15-16-17-18-19-23-27-31-36-48-38-40(39-50-53(46,47)49-37-35-44)51-43(45)34-30-26-22-20-21-25-29-33-42-41(52-42)32-28-24-10-8-6-4-2/h6,8,19-20,22-25,28-29,31,36,40-42H,3-5,7,9-18,21,26-27,30,32-35,37-39,44H2,1-2H3,(H,46,47)/b8-6-,22-20-,23-19-,28-24-,29-25-,36-31-
Instrument: Acquity UPLC Peptide BEH C18 column (50 x 2.1 mm; 1.7 um), Sciex TripleTOF5600
Instrument type: LC-ESI-QTOF
Ms type: MS2
Ion mode: NEGATIVE
Collision energy: 30-50
Precursor m/z: 762.5079288
Precursor type: [M-H]-
m/z	relative intensity
78.95777	27
78.95902	42
78.96028	27
78.96278	27
121.1044	27
135.1162	27
135.1178	27
135.1244	27
140.0095	42
140.0128	55
140.0145	42
140.0162	27
140.0179	27
147.1111	27
149.0926	27
149.1047	42
163.111	42
163.1146	55
163.1164	27
163.1218	27
167.0941	27
167.0959	27
167.0977	95
167.0995	55
167.1014	150
167.1032	205
167.105	191
167.1068	205
167.1087	260
167.1105	191
167.1123	205
167.1141	42
167.116	68
167.1178	95
167.1196	55
167.1214	42
167.1251	42
179.1011	27
179.103	27
179.1049	55
179.1068	42
179.1086	82
179.1105	42
179.1124	42
179.1181	27
179.12	42
195.095	42
195.097	42
195.099	68
195.101	27
195.1029	55
195.1049	110
195.1128	27
196.0323	42
196.0343	55
196.0362	27
196.0382	82
196.0402	55
196.0422	27
196.0461	27
196.052	27
201.1603	27
201.1623	27
201.1683	27
207.097	55
207.099	95
208.0992	27
208.1033	27
208.1053	42
208.1073	42
208.1094	27
208.1155	27
208.1175	27
219.1771	27
223.1281	27
253.2062	42
253.2107	55
253.2152	55
255.2016	27
255.2039	27
255.2061	68
255.2084	68
255.2106	82
255.2129	68
255.2151	55
255.2174	68
255.2219	68
255.2242	27
265.2502	27
265.2525	82
265.2548	42
265.2571	42
265.2594	27
268.2275	27
273.2165	27
273.2281	27
273.2351	27
281.2296	42
281.2343	27
281.2367	42
281.2391	55
281.2438	42
281.2462	27
281.2485	42
281.2509	42
281.2533	27
281.2556	95
281.258	27
281.2604	27
282.2385	27
282.2456	42
282.2504	68
282.2551	68
282.2575	68
282.2598	55
282.2622	42
282.2669	27
283.235	42
283.2492	27
283.254	42
283.2587	27
283.2611	27
284.2593	27
289.2266	27
299.1852	27
299.1876	82
299.1925	55
299.1949	55
299.1974	42
299.1998	27
299.2023	110
299.2047	42
299.2072	42
299.212	55
299.2144	55
300.2527	27
300.2575	28
300.2624	27
311.4626	28
316.2469	28
317.186	56
317.1885	43
317.191	42
317.1936	194
317.1961	96
317.1986	181
317.2011	249
317.2036	336
317.2061	323
317.2086	434
317.2112	364
317.2137	376
317.2162	418
317.2187	416
317.2212	194
317.2237	179
317.2262	167
317.2287	179
317.2313	98
317.2338	70
317.2363	42
317.2463	15
318.4412	15
401.2272	27
401.2385	27
425.7964	27
444.2621	27
444.268	55
444.271	68
444.274	68
444.277	68
444.2799	55
444.2829	163
444.2859	55
444.2889	95
444.2918	123
444.2948	82
444.2978	68
444.3037	55
444.3097	42
444.3127	42
444.3156	27
444.3186	27
445.8308	28
452.2981	28
462.2093	28
462.2639	27
462.2669	55
462.27	110
462.273	123
462.2761	138
462.2791	166
462.2821	196
462.2852	70
462.2882	279
462.2912	252
462.2943	281
462.2973	378
462.3003	418
462.3033	264
462.3064	324
462.3094	414
462.3124	236
462.3155	224
462.3185	221
462.3216	166
462.3246	68
462.3276	83
462.3307	42
462.3337	42
686.4689	27
688.4555	27
688.4629	27
688.4851	27
688.4925	55
688.4999	42
688.5036	27
688.511	42
688.5147	42
688.5332	42
688.5443	42
688.548	27
688.5518	42
688.5591	27
688.5665	55
688.5703	27
688.574	42
688.5776	55
688.5814	27
688.5999	27
760.1187	42
762.4312	27
762.4351	27
762.439	27
762.4468	55
762.4546	42
762.4584	58
762.4623	55
762.4662	103
762.4702	90
762.4741	280
762.478	309
762.4818	414
762.4857	382
762.4896	592
762.4935	595
762.4974	624
762.5013	770
762.5052	836
762.5091	688
762.513	836
762.5169	944
762.5208	999
762.5247	791
762.5286	941
762.5325	712
762.5364	757
762.5403	536
762.5442	474
762.5481	388
762.5519	343
762.5558	269
762.5598	165
762.5637	179
762.5676	186
762.5715	60
762.5754	15
762.5792	29
762.5831	63
762.587	72
762.5909	78
762.5988	80
762.6026	27
763.4991	27
763.5146	42
763.5264	27
763.5303	55
763.5342	27
763.538	27
