Mass spectrum: PE(16:1/20-HETE); LC-ESI-QTOF; MS2
Name: PE(16:1/20-HETE)
Class: Oxidized Phospholipid
Formula: C41H72NO9P
Exact mass: 754.001
SMILES: CCCCCC\C=C/CCCCCCCC(=O)OCC(COP(O)(=O)OCCN)OC(=O)CCC\C=C/C\C=C/C\C=C/C\C=C/CCCCCO
InChI: InChI=1S/C41H72NO9P/c1-2-3-4-5-6-7-8-14-17-20-23-26-29-32-40(44)48-37-39(38-50-52(46,47)49-36-34-42)51-41(45)33-30-27-24-21-18-15-12-10-9-11-13-16-19-22-25-28-31-35-43/h7-9,11-12,15-16,19,21,24,39,43H,2-6,10,13-14,17-18,20,22-23,25-38,42H2,1H3,(H,46,47)/b8-7-,11-9-,15-12-,19-16-,24-21-
Instrument: Acquity UPLC Peptide BEH C18 column (50 x 2.1 mm; 1.7 um), Sciex TripleTOF5600
Instrument type: LC-ESI-QTOF
Ms type: MS2
Ion mode: NEGATIVE
Collision energy: 30-50
Precursor m/z: 752.4871934
Precursor type: [M-H]-
m/z	relative intensity
140.0057	21
140.009	21
140.014	41
140.0157	21
140.0224	21
152.9955	21
196.0258	21
196.0318	21
196.0338	31
196.0357	21
196.0377	21
196.0456	21
217.2029	21
243.1943	21
245.2118	21
245.2206	41
252.4272	21
253.1989	41
253.2012	51
253.2034	136
253.2057	189
253.2079	304
253.2102	356
253.2124	460
253.2147	388
253.2169	471
253.2191	483
253.2214	366
253.2236	388
253.2259	199
253.2281	156
253.2304	146
253.2326	105
253.2349	115
253.2371	21
253.2394	31
253.2416	31
257.2224	21
271.2046	21
273.2136	21
273.2276	31
273.2299	21
273.2322	21
275.2277	21
275.2323	31
275.2347	31
275.237	21
275.2393	41
275.2417	21
275.244	21
275.2511	51
289.202	21
289.2068	31
289.2116	21
289.2164	21
289.2212	41
291.2356	21
301.1917	21
301.1941	21
301.2015	41
301.2039	51
301.2064	64
301.2088	95
301.2113	21
301.2137	31
301.2162	64
301.2186	84
301.2211	64
301.2235	74
301.226	31
301.2284	41
301.2308	31
301.2333	31
301.2357	21
310.9691	21
315.2034	21
317.2156	21
318.2342	21
319.199	43
319.2015	21
319.204	76
319.2065	127
319.209	140
319.2116	302
319.2141	442
319.2166	469
319.2191	664
319.2216	707
319.2242	717
319.2267	740
319.2292	999
319.2318	781
319.2343	641
319.2368	510
319.2393	487
319.2418	421
319.2444	173
319.2469	130
319.2494	130
319.2519	130
319.2544	33
319.2595	31
320.2132	21
320.2308	21
432.2311	21
432.2458	21
432.2575	21
450.2384	31
450.2414	21
450.2444	31
450.2474	21
450.2504	74
450.2534	41
450.2563	41
450.2594	105
450.2624	84
450.2654	41
450.2683	51
450.2713	31
450.2743	41
450.2773	41
450.2803	21
450.2833	41
450.2863	64
450.2893	21
450.2923	21
450.3103	21
498.2681	31
498.2744	21
498.2933	21
516.2412	21
612.7856	21
752.4315	64
752.4354	64
752.4393	31
752.4432	53
752.447	115
752.4509	84
752.4548	201
752.4586	150
752.4625	292
752.4664	267
752.4702	206
752.4741	485
752.478	516
752.4819	485
752.4857	477
752.4896	658
752.4935	639
752.4973	536
752.5012	520
752.5051	314
752.509	454
752.5128	485
752.5167	432
752.5206	300
752.5244	356
752.5283	181
752.5322	183
752.536	117
752.5399	64
752.5438	64
752.5477	41
752.5515	64
752.5554	41
752.5593	21
752.5631	21
752.5709	21
752.5748	21
752.5864	21
753.4575	21
753.4653	31
753.4692	21
753.473	21
753.4808	21
753.4847	21
753.5001	21
753.5156	21
753.5195	31
