Mass spectrum: PC(16:0e/17,18-EpETE); LC-ESI-QTOF; MS2
Name: PC(16:0e/17,18-EpETE)
Class: Oxidized Phospholipid
Formula: C44H80NO8P
Exact mass: 782.099
SMILES: CCCCCCCCCCCCCCCCOCC(COP([O-])(=O)OCC[N+](C)(C)C)OC(=O)CCC\C=C/C\C=C/C\C=C/C\C=C/CC1OC1CC
InChI: InChI=1S/C44H80NO8P/c1-6-8-9-10-11-12-13-14-18-21-24-27-30-33-37-49-39-41(40-51-54(47,48)50-38-36-45(3,4)5)52-44(46)35-32-29-26-23-20-17-15-16-19-22-25-28-31-34-43-42(7-2)53-43/h15,17,19,22-23,26,28,31,41-43H,6-14,16,18,20-21,24-25,27,29-30,32-40H2,1-5H3/b17-15-,22-19-,26-23-,31-28-
Instrument: Acquity UPLC Peptide BEH C18 column (50 x 2.1 mm; 1.7 um), Sciex TripleTOF5600
Instrument type: LC-ESI-QTOF
Ms type: MS2
Ion mode: NEGATIVE
Collision energy: 30-50
Precursor m/z: 840.576008
Precursor type: [M+CH3COOH-H]-
m/z	relative intensity
109.1014	8
121.1046	8
133.0984	8
135.118	8
149.1237	8
161.1295	12
161.1313	8
163.1471	8
173.13	8
175.1465	8
181.1254	8
201.1563	8
201.1583	12
201.1603	12
201.1623	24
201.1643	8
201.1683	8
201.1723	12
207.1396	8
215.1661	12
215.1703	12
215.1723	16
215.1744	32
215.1765	24
215.1785	36
215.1806	32
215.1827	36
215.1848	36
215.1868	40
215.1889	12
215.191	20
219.1666	8
219.175	8
233.1546	12
245.1923	8
247.1715	12
247.1804	8
255.1902	8
255.1925	12
255.197	8
255.1992	28
255.2015	40
255.2038	48
255.206	36
255.2083	64
255.2105	72
255.2128	44
255.215	56
255.2173	40
255.2195	56
255.2218	28
255.224	16
255.2263	12
255.2286	16
259.1522	12
259.1545	16
259.1567	28
259.159	24
259.1613	32
259.1636	20
259.1658	68
259.1681	28
259.1704	60
259.1726	48
259.1749	52
259.1772	36
259.1795	12
259.1817	8
259.184	12
259.1863	12
261.1709	8
261.18	16
261.1937	8
261.196	8
273.2116	28
273.214	8
273.2163	28
273.2186	28
273.2209	24
273.2233	20
273.2256	32
273.228	24
273.2303	36
273.235	16
273.2373	8
299.1678	8
299.1752	8
299.1825	8
299.1849	16
299.1874	28
299.1898	40
299.1923	56
299.1947	40
299.1971	64
299.1996	60
299.202	100
299.2045	76
299.2069	48
299.2094	52
299.2118	32
299.2142	40
299.2167	21
299.2216	8
316.209	8
316.2165	8
316.2491	8
316.2968	8
317.1179	8
317.1732	12
317.1807	8
317.1832	29
317.1857	9
317.1883	21
317.1908	51
317.1933	80
317.1958	130
317.1983	138
317.2008	155
317.2033	244
317.2058	301
317.2084	267
317.2109	336
317.2134	286
317.2159	284
317.2184	281
317.2209	225
317.2234	143
317.226	126
317.2285	96
317.231	100
317.2335	13
317.236	30
317.2385	30
317.241	13
317.2435	9
317.2511	4
317.2687	4
317.5427	4
318.2018	4
318.2043	8
318.2118	4
319.0052	4
377.2396	12
377.2423	8
377.2451	8
377.2506	16
377.2533	12
395.2545	8
448.2944	12
448.2974	12
448.3003	24
448.3033	24
448.3063	12
448.3093	8
448.3123	32
448.3153	20
448.3183	36
448.3213	48
448.3242	40
448.3272	48
448.3302	52
448.3332	36
448.3392	24
448.3422	8
448.3452	12
448.3511	8
452.5015	8
464.9001	8
466.2275	8
466.2885	12
466.2915	8
466.2946	20
466.2976	12
466.3007	4
466.3037	53
466.3068	50
466.3098	53
466.3128	54
466.3159	112
466.3189	100
466.322	133
466.325	163
466.3281	147
466.3311	142
466.3342	191
466.3372	124
466.3403	116
466.3433	125
466.3464	75
466.3494	54
466.3524	50
466.3555	17
466.3586	29
466.3616	8
466.3647	16
466.3677	21
466.8401	4
695.4652	8
764.0979	8
764.1057	12
764.1096	12
764.137	8
764.1409	8
764.1954	8
764.2032	8
765.3582	9
766.4828	24
766.4868	50
766.4907	93
766.4946	84
766.4985	197
766.5024	128
766.5063	276
766.5102	302
766.5141	325
766.518	488
766.5219	598
766.5258	507
766.5297	798
766.5336	726
766.5375	910
766.5414	814
766.5453	864
766.5493	849
766.5532	999
766.5571	789
766.561	709
766.5649	591
766.5688	428
766.5727	416
766.5766	309
766.5805	238
766.5844	173
766.5883	130
766.5922	113
766.5961	58
766.6	87
766.6039	20
766.6078	32
766.6118	6
766.6157	5
766.6196	5
766.6313	5
766.7641	5
766.7875	6
767.4949	6
767.5067	8
767.5184	12
767.5223	8
767.5262	8
767.5301	12
767.534	12
767.5418	12
767.5457	8
767.5496	8
767.5574	12
767.5652	12
767.5692	12
767.5731	12
781.4737	8
781.4855	8
781.4894	8
781.4934	12
781.4974	8
781.5013	16
781.5052	16
781.5092	20
781.525	12
781.5407	8
793.5701	8
840.5023	8
840.5105	8
840.5146	12
840.5187	8
840.5228	8
840.5269	12
840.531	16
840.5351	16
840.5392	20
840.5433	24
840.5474	44
840.5515	24
840.5555	56
840.5596	32
840.5637	40
840.5678	56
840.5719	56
840.576	44
840.5801	44
840.5842	60
840.5883	52
840.5923	56
840.5964	76
840.6005	44
840.6046	40
840.6087	44
840.6128	40
840.6169	24
840.621	16
840.6292	12
840.6332	12
841.6072	8
