Mass spectrum: PC 40:9; LC-ESI-QTOF; MS2
Name: PC 40:9
Class: PC
Formula: C48H78NO8P
Exact mass: 828.127
SMILES: CC\C=C/C\C=C/C\C=C/CCCCCCCC(=O)OCC(COP([O-])(=O)OCC[N+](C)(C)C)OC(=O)CC\C=C/C\C=C/C\C=C/C\C=C/C\C=C/C\C=C/CC
InChI: InChI=1S/C48H78NO8P/c1-6-8-10-12-14-16-18-20-22-23-24-25-27-29-31-33-35-37-39-41-48(51)57-46(45-56-58(52,53)55-43-42-49(3,4)5)44-54-47(50)40-38-36-34-32-30-28-26-21-19-17-15-13-11-9-7-2/h8-11,14-17,20-22,24-26,29,31,35,37,46H,6-7,12-13,18-19,23,27-28,30,32-34,36,38-45H2,1-5H3/b10-8-,11-9-,16-14-,17-15-,22-20-,25-24-,26-21-,31-29-,37-35-
Instrument: AB Sciex TripleTOF 5600+ system (Q-TOF) equipped with a DuoSpray ion source
Instrument type: LC-ESI-QTOF
Ms type: MS2
Ion mode: NEGATIVE
Collision energy: 45V
Column name: Acquity UPLC Peptide BEH C18 column (50*2.1 mm; 1.7 um; 130A)(Waters Co.,Milford, MA, USA)
Retention time: 8.51622
Precursor type: [M+CH3COOH-H]-
Precursor m/z: 886.5593
m/z	relative intensity
78.956	3
135.118	3
168.037	9
168.043	4
168.047	3
177.164	6
191.175	3
223.001	4
224.067	13
229.196	21
241.011	10
249.184	6
255.228	5
256.234	3
269.252	2
277.216	294
279.233	12
281.223	3
281.235	3
281.24	4
281.246	8
281.254	3
282.253	7
283.241	151
284.268	3
297.215	3
301.223	6
303.222	16
303.236	17
305.241	8
306.249	6
325.209	7
327.232	461
391.22	2
417.245	3
420.263	5
484.27	7
484.299	4
502.263	6
502.291	84
502.317	9
504.311	2
526.288	3
534.297	8
552.289	3
552.32	5
579.278	2
580.291	5
582.278	2
722.501	7
722.534	5
741.486	2
804.498	6
804.531	3
809.937	4
812.492	165
812.517	999
812.597	4
812.644	3
813.528	6
826.507	3
826.624	3
827.462	6
827.501	9
883.732	1
885.579	2
886.467	3
886.54	265
886.571	104
886.584	40
886.655	1
