Mass spectrum: PG 32:1; LC-ESI-QTOF; MS2
Name: PG 32:1
Class: PG
Formula: C38H73O10P
Exact mass: 720.968
SMILES: CCCCCCCCCCCCCCCC(=O)OCC(COP(O)(=O)OCC(O)CO)OC(=O)CCCCCCC\C=C/CCCCCC
InChI: InChI=1S/C38H73O10P/c1-3-5-7-9-11-13-15-17-19-21-23-25-27-29-37(41)45-33-36(34-47-49(43,44)46-32-35(40)31-39)48-38(42)30-28-26-24-22-20-18-16-14-12-10-8-6-4-2/h14,16,35-36,39-40H,3-13,15,17-34H2,1-2H3,(H,43,44)/b16-14-
Instrument: AB Sciex TripleTOF 5600+ system (Q-TOF) equipped with a DuoSpray ion source
Instrument type: LC-ESI-QTOF
Ms type: MS2
Ion mode: NEGATIVE
Collision energy: 45V
Column name: Acquity UPLC Peptide BEH C18 column (50*2.1 mm; 1.7 um; 130A)(Waters Co.,Milford, MA, USA)
Retention time: 8.257052
Precursor type: [M-H]-
Precursor m/z: 719.4836
m/z	relative intensity
78.961	5
96.972	0
152.996	27
171.006	18
209.021	4
227.029	9
227.197	3
252.411	1
252.422	4
252.456	0
253.089	0
253.215	999
253.644	0
254.213	1
254.422	1
254.449	0
254.951	0
255.045	0
255.231	411
281.246	5
281.259	1
283.252	0
389.168	0
389.198	5
389.219	2
391.179	0
391.217	32
407.233	0
409.215	1
409.235	1
455.244	0
463.243	10
465.25	34
481.247	6
481.272	1
481.719	0
482.649	0
483.262	43
483.307	0
491.264	0
509.258	0
641.532	0
645.429	1
645.467	0
647.45	0
659.542	0
687.447	0
717.162	0
717.208	2
717.252	0
719.003	0
719.135	0
719.372	0
719.47	547
719.548	2
719.912	0
720.471	1
722.276	0
