Mass spectrum: PC 32:2; LC-ESI-QTOF; MS2
Name: PC 32:2
Class: PC
Formula: C40H76NO8P
Exact mass: 730.0229999999999
SMILES: CCCCCC\C=C/CCCCCCCC(=O)OCC(COP([O-])(=O)OCC[N+](C)(C)C)OC(=O)CCCCCCC\C=C/CCCCCC
InChI: InChI=1S/C40H76NO8P/c1-6-8-10-12-14-16-18-20-22-24-26-28-30-32-39(42)46-36-38(37-48-50(44,45)47-35-34-41(3,4)5)49-40(43)33-31-29-27-25-23-21-19-17-15-13-11-9-7-2/h16-19,38H,6-15,20-37H2,1-5H3/b18-16-,19-17-
Instrument: AB Sciex TripleTOF 5600+ system (Q-TOF) equipped with a DuoSpray ion source
Instrument type: LC-ESI-QTOF
Ms type: MS2
Ion mode: NEGATIVE
Collision energy: 45V
Column name: Acquity UPLC Peptide BEH C18 column (50*2.1 mm; 1.7 um; 130A)(Waters Co.,Milford, MA, USA)
Retention time: 8.707123
Precursor type: [M+CH3COOH-H]-
Precursor m/z: 788.5405
m/z	relative intensity
78.959	12
153.002	7
168.047	21
224.066	26
227.2	202
251.203	26
253.215	955
255.226	7
261.221	5
278.367	7
279.231	538
280.235	8
281.239	13
282.253	15
283.266	22
284.265	33
285.263	5
417.223	10
418.225	6
419.25	6
420.251	20
434.26	10
436.243	6
452.276	26
460.266	20
478.262	12
478.281	19
478.304	24
504.296	6
511.441	5
699.458	3
700.499	10
701.446	12
701.468	10
701.494	29
701.525	8
713.488	3
714.434	61
714.487	999
714.551	12
729.435	7
729.481	5
788.465	8
788.504	70
788.538	44
788.569	13
