Mass spectrum: PE(18:1e/20-HDoHE); LC-ESI-QTOF; MS2
Name: PE(18:1e/20-HDoHE)
Class: Oxidized Phospholipid
Formula: C45H78NO8P
Exact mass: 792.094
SMILES: CCCCCCCCCCCCCCCC\C=C/OCC(COP(O)(=O)OCCN)OC(=O)CC\C=C/C\C=C/C\C=C/C\C=C/C\C=C/C=C/C(O)CC
InChI: InChI=1S/C45H78NO8P/c1-3-5-6-7-8-9-10-11-12-17-20-23-26-29-32-35-39-51-41-44(42-53-55(49,50)52-40-38-46)54-45(48)37-34-31-28-25-22-19-16-14-13-15-18-21-24-27-30-33-36-43(47)4-2/h13-14,18-19,21-22,27-28,30-31,33,35-36,39,43-44,47H,3-12,15-17,20,23-26,29,32,34,37-38,40-42,46H2,1-2H3,(H,49,50)/b14-13-,21-18-,22-19-,30-27-,31-28-,36-33+,39-35-
Instrument: Acquity UPLC Peptide BEH C18 column (50 x 2.1 mm; 1.7 um), Sciex TripleTOF5600
Instrument type: LC-ESI-QTOF
Ms type: MS2
Ion mode: NEGATIVE
Collision energy: 30-50
Precursor m/z: 790.539229
Precursor type: [M-H]-
m/z	relative intensity
78.95881	13
78.96006	20
78.96257	20
95.08501	20
107.0898	13
107.0927	13
121.0963	13
121.101	13
122.0017	13
133.0979	13
133.0996	20
133.1012	13
135.111	13
140.0058	34
140.0075	27
140.0092	20
140.0108	27
140.0125	27
140.0159	27
143.0895	13
147.1125	13
147.1176	13
149.1336	13
149.1388	13
159.1205	13
161.1362	13
173.1352	20
173.1407	13
175.1405	20
175.1479	20
175.1535	13
177.0916	13
187.1386	13
187.1405	13
187.1444	27
187.1463	34
187.1482	34
187.1502	13
187.1521	27
187.154	20
187.1579	13
189.1611	20
189.1649	13
189.1669	13
196.0279	13
196.0319	20
196.0339	20
196.0358	74
196.0378	34
196.0398	40
196.0418	34
196.0437	13
196.0477	20
196.0497	13
207.1473	13
215.1761	13
227.1735	13
227.1757	27
227.1778	20
227.1799	13
227.182	13
227.1842	20
227.1884	20
227.1948	27
241.183	54
241.1852	74
241.1873	81
241.1895	81
241.1917	61
241.1939	141
241.1961	121
241.1983	88
241.2005	94
241.2027	108
241.2049	54
241.2071	13
241.2092	20
242.1964	13
245.1875	27
247.1711	13
247.1733	13
247.1777	13
253.2125	13
253.2147	13
253.2169	13
253.2259	13
253.2282	13
254.2216	13
255.2282	20
265.1899	13
265.2589	13
266.4437	13
267.2642	13
267.2665	13
267.2688	13
267.2734	20
267.2758	13
267.278	20
267.2827	13
271.1674	13
271.4789	14
279.2049	14
281.2101	27
281.2125	47
281.2149	61
281.2173	110
281.2196	130
281.222	129
281.2244	150
281.2267	131
281.2291	227
281.2314	152
281.2338	104
281.2362	214
281.2385	82
281.2409	90
281.2433	77
281.2456	75
281.248	105
281.2504	112
281.2527	90
281.2551	49
281.2575	48
281.2598	28
281.2622	14
281.2693	13
282.2475	13
285.1588	13
285.1707	13
285.173	27
285.1754	61
285.1778	34
285.1802	54
285.1826	88
285.1849	54
285.1873	94
285.1897	88
285.1921	54
285.1945	47
285.1969	54
285.1992	13
285.2016	20
285.2064	13
297.2232	13
297.2378	20
297.2475	13
298.2409	13
298.2482	13
298.2506	20
298.2628	13
299.2163	20
299.2212	20
299.2237	47
299.2261	34
299.2285	74
299.231	81
299.2334	108
299.2359	94
299.2383	81
299.2408	114
299.2432	81
299.2456	61
299.2481	121
299.2505	13
299.253	34
299.2554	40
299.2603	13
300.2521	13
325.1835	14
325.1912	13
325.1937	27
325.1963	41
325.1988	27
325.2014	122
325.2039	27
325.2064	81
325.209	149
325.2115	102
325.2141	94
325.2166	142
325.2191	81
325.2217	94
325.2242	135
325.2268	74
325.2293	54
325.2344	20
325.237	20
325.2395	13
327.2222	14
327.9066	14
328.0063	14
341.1995	14
341.2151	14
342.2167	14
343.1884	14
343.191	14
343.1936	14
343.1989	41
343.2015	56
343.2041	98
343.2067	97
343.2093	84
343.2119	147
343.2145	217
343.2172	218
343.2198	219
343.2224	317
343.225	296
343.2276	360
343.2302	346
343.2328	333
343.2355	352
343.2381	177
343.2407	240
343.2433	133
343.2459	63
343.2485	84
343.2511	42
343.2538	21
343.2564	7
343.259	7
343.2668	14
344.2295	20
344.2531	7
375.2251	13
375.2333	13
375.2415	13
375.2634	13
403.2555	20
403.2583	20
403.2725	20
446.277	13
446.28	20
446.2859	54
446.2889	54
446.2919	13
446.2949	61
446.2979	54
446.3009	108
446.3039	67
446.3068	61
446.3098	94
446.3128	40
446.3158	67
446.3188	74
446.3217	54
446.3277	27
446.3336	13
446.3396	13
447.3239	14
459.4341	14
464.0091	14
464.0122	14
464.1186	14
464.2705	14
464.2736	13
464.2766	27
464.2797	13
464.2827	27
464.2857	34
464.2888	104
464.2918	90
464.2949	105
464.2979	152
464.301	160
464.304	209
464.307	216
464.3101	224
464.3131	195
464.3162	181
464.3192	238
464.3222	188
464.3253	210
464.3283	259
464.3314	160
464.3344	112
464.3374	119
464.3405	90
464.3435	14
464.3466	69
464.3496	35
464.3526	7
464.3557	7
464.3587	14
464.3739	7
465.32	14
703.4774	20
703.4812	13
703.4924	13
716.4968	20
716.5082	20
716.5157	20
716.5233	13
716.527	13
788.0673	13
788.095	13
790.3782	15
790.4496	20
790.4536	13
790.4575	20
790.4694	13
790.4774	22
790.4813	15
790.4853	77
790.4893	97
790.4932	131
790.4972	156
790.5012	230
790.5051	225
790.5091	183
790.5131	384
790.517	437
790.521	536
790.525	591
790.5289	675
790.5329	723
790.5369	831
790.5408	766
790.5448	927
790.5488	999
790.5527	973
790.5567	836
790.5607	775
790.5646	660
790.5686	535
790.5726	513
790.5765	428
790.5805	305
790.5845	337
790.5884	152
790.5924	195
790.5964	80
790.6003	85
790.6043	39
790.6083	22
790.6162	15
790.6241	8
790.644	8
790.8304	8
791.5091	27
791.5171	20
791.525	27
791.5289	34
791.533	34
791.5409	13
791.5449	27
791.5488	20
791.5528	20
791.5568	47
791.5607	13
791.5647	13
791.5687	27
791.5726	13
791.5766	20
791.5845	13
791.5885	13
