Mass spectrum: SM d42:1; LC-ESI-QTOF; MS2
Name: SM d42:1
Class: SM
Formula: C47H95N2O6P
Exact mass: 815.261
SMILES: CCCCCCCCCCCCCCCC(O)C(COP([O-])(=O)OCC[N+](C)(C)C)NC(=O)CCCCCCCCC\C=C/CCCCCCCCCCCC
InChI: InChI=1S/C47H95N2O6P/c1-6-8-10-12-14-16-18-20-21-22-23-24-25-26-27-29-31-33-35-37-39-41-47(51)48-45(44-55-56(52,53)54-43-42-49(3,4)5)46(50)40-38-36-34-32-30-28-19-17-15-13-11-9-7-2/h24-25,45-46,50H,6-23,26-44H2,1-5H3,(H-,48,51,52,53)/b25-24-
Instrument: AB Sciex TripleTOF 5600+ system (Q-TOF) equipped with a DuoSpray ion source
Instrument type: LC-ESI-QTOF
Ms type: MS2
Ion mode: NEGATIVE
Collision energy: 45V
Column name: Acquity UPLC Peptide BEH C18 column (50*2.1 mm; 1.7 um; 130A)(Waters Co.,Milford, MA, USA)
Retention time: 12.79771
Precursor type: [M+CH3COOH-H]-
Precursor m/z: 873.6989
m/z	relative intensity
78.958	6
78.966	2
89.024	6
101.025	3
113.025	1
119.033	3
120.042	1
122.988	1
141.018	0
161.049	1
168.043	32
179.053	4
280.262	1
281.27	1
283.245	1
323.329	1
324.34	1
327.228	2
353.344	1
366.352	1
367.347	1
368.354	1
369.333	2
370.338	2
394.358	2
395.37	3
451.321	2
503.343	1
504.356	1
563.377	0
615.601	0
621.59	1
632.567	3
632.604	4
633.549	3
633.583	24
633.603	17
650.583	2
651.569	2
651.59	3
651.608	3
728.573	1
786.598	2
797.083	1
797.131	1
798.65	1
799.566	4
799.652	999
800.64	3
800.669	1
812.631	6
812.691	2
813.561	1
813.605	28
813.648	187
813.676	50
814.568	1
814.611	1
814.63	5
827.658	2
873.573	1
873.627	6
873.654	8
873.693	34
873.745	2
