Mass spectrum: PI(18:0/14,15-EET); LC-ESI-QTOF; MS2
Name: PI(18:0/14,15-EET)
Class: Oxidized Phospholipid
Formula: C47H83O14P
Exact mass: 903.143
SMILES: CCCCCCCCCCCCCCCCCC(=O)OCC(COP(O)(=O)OC1C(O)C(O)C(O)C(O)C1O)OC(=O)CCC\C=C/C\C=C/C\C=C/CC1OC1CCCCC
InChI: InChI=1S/C47H83O14P/c1-3-5-7-8-9-10-11-12-13-14-15-19-22-25-29-33-40(48)57-35-37(36-58-62(55,56)61-47-45(53)43(51)42(50)44(52)46(47)54)59-41(49)34-30-26-23-20-17-16-18-21-24-28-32-39-38(60-39)31-27-6-4-2/h16,18,20,23-24,28,37-39,42-47,50-54H,3-15,17,19,21-22,25-27,29-36H2,1-2H3,(H,55,56)/b18-16-,23-20-,28-24-
Instrument: Acquity UPLC Peptide BEH C18 column (50 x 2.1 mm; 1.7 um), Sciex TripleTOF5600
Instrument type: LC-ESI-QTOF
Ms type: MS2
Ion mode: NEGATIVE
Collision energy: 30-50
Precursor m/z: 901.5447679
Precursor type: [M-H]-
m/z	relative intensity
78.9553	3
78.95655	5
78.95906	8
78.96031	4
78.96157	6
78.96282	4
96.97121	3
96.97399	3
96.97677	4
99.08482	3
113.0912	3
113.0972	4
113.0987	4
113.1017	4
121.0966	3
121.1028	3
152.9872	3
152.9889	5
152.9906	8
152.9924	17
152.9941	10
152.9959	10
152.9976	22
152.9994	8
153.0011	10
153.0029	6
153.0064	3
175.1445	4
175.1463	3
175.1482	4
175.1501	6
175.1538	6
177.7534	3
203.1683	3
203.1723	3
203.1763	3
203.1804	4
203.1904	3
203.1924	3
205.1177	3
207.1333	3
207.1374	3
219.1226	3
219.1268	3
219.1289	5
219.131	6
219.133	10
219.1351	4
219.1372	9
219.1393	8
219.1414	13
219.1435	12
219.1456	9
219.1518	3
221.1574	3
222.9804	3
222.9888	4
222.991	10
222.9931	6
222.9952	15
222.9973	14
222.9994	18
223.0015	17
223.0036	19
223.0057	13
223.0078	12
223.0099	8
223.012	4
223.0141	3
229.2007	3
239.3897	3
240.2681	3
240.3075	3
240.9357	3
240.9882	1
240.9926	1
240.9948	9
240.997	21
240.9992	21
241.0014	40
241.0036	34
241.0057	67
241.0079	77
241.0101	78
241.0123	75
241.0145	85
241.0167	67
241.0189	50
241.0211	58
241.0233	25
241.0255	13
241.0276	15
241.0298	5
241.032	3
241.0342	1
241.0386	1
241.0408	1
241.2402	1
242.0056	3
242.0232	1
242.9284	1
257.2159	4
257.2182	6
257.2204	10
257.2227	14
257.225	12
257.2272	9
257.2295	8
257.2318	5
257.234	6
257.2363	3
257.2386	3
257.2408	6
259.0045	4
259.0067	4
259.009	3
259.0135	8
259.0158	8
259.0181	8
259.0204	5
259.0226	4
259.0249	6
259.0272	4
259.0294	3
259.0317	3
259.034	4
275.2232	3
275.2256	3
275.2279	3
275.2349	4
275.2396	4
275.2419	4
275.2443	4
282.3804	4
282.4872	3
282.5607	3
283.1539	3
283.2133	3
283.2275	3
283.2394	5
283.2418	14
283.2441	11
283.2465	17
283.2489	22
283.2513	32
283.2537	39
283.256	52
283.2584	57
283.2608	87
283.2632	64
283.2655	120
283.2679	105
283.2703	80
283.2726	71
283.275	52
283.2774	34
283.2798	26
283.2821	12
283.2845	11
283.2869	3
283.2893	4
283.2916	7
283.294	1
283.2964	1
283.2988	1
283.3201	1
283.3273	1
284.2709	3
284.2828	4
286.0054	1
297.0264	4
297.0288	6
297.0313	10
297.0337	10
297.0361	6
297.0386	12
297.041	13
297.0434	10
297.0459	6
297.0483	3
297.0507	3
297.0556	3
297.058	3
297.0629	3
301.1968	3
301.2041	8
301.2066	9
301.209	13
301.2115	20
301.2139	10
301.2164	17
301.2188	19
301.2213	18
301.2237	13
301.2262	8
301.2286	12
301.236	4
301.2384	4
301.2458	3
315.0357	5
315.0382	3
315.0407	3
315.0433	3
315.0457	6
315.0483	4
315.0508	3
315.0533	8
315.0558	4
315.0583	3
315.0608	4
315.0633	5
317.2158	3
318.6523	3
318.8539	3
319.1916	4
319.2017	4
319.2067	8
319.2092	13
319.2118	21
319.2143	31
319.2168	19
319.2193	37
319.2218	46
319.2244	38
319.2269	61
319.2294	49
319.2319	50
319.2344	41
319.237	18
319.2395	29
319.242	21
319.2445	15
319.247	9
319.2496	1
319.2521	1
319.2546	4
319.2571	1
319.2622	1
320.2108	1
320.2133	3
399.1971	3
399.2169	3
417.9335	3
417.9594	3
419.1661	3
419.218	3
419.2267	3
419.2296	8
419.2325	13
419.2354	13
419.2383	26
419.2412	16
419.2441	26
419.2469	33
419.2498	32
419.2527	50
419.2556	48
419.2585	53
419.2614	53
419.2643	42
419.2672	37
419.2701	45
419.2729	32
419.2758	24
419.2787	11
419.2816	11
419.2845	5
419.2874	8
419.2903	3
419.3047	1
420.2732	1
420.279	3
420.2848	1
437.244	3
437.2529	4
437.2559	5
437.2617	5
437.2647	4
437.2677	6
437.2706	4
437.2765	3
437.2794	3
437.2824	5
437.2854	4
437.2883	3
437.2913	3
455.1978	3
455.2068	4
455.2099	6
455.2129	6
455.2159	9
455.2189	5
455.2219	5
455.2249	6
455.2279	3
455.2309	10
455.2339	4
455.2369	3
455.24	4
509.7281	3
543.2747	3
558.8849	3
560.1232	3
561.2692	3
562.9451	3
579.8048	3
581.253	4
581.2666	6
581.2734	3
581.2769	8
581.2802	9
581.2836	9
581.287	25
581.2905	20
581.2938	36
581.2972	42
581.3007	44
581.3041	52
581.3074	50
581.3109	52
581.3143	44
581.3177	48
581.321	41
581.3245	51
581.3279	31
581.3313	29
581.3347	37
581.3381	19
581.3415	11
581.3449	7
581.3483	9
581.3517	5
581.3551	3
581.3619	4
581.3653	3
581.3755	1
581.4061	1
599.27	3
599.2873	4
599.2908	5
599.2942	5
599.2977	8
599.3011	9
599.3046	14
599.308	17
599.3115	14
599.3149	8
599.3184	17
599.3218	23
599.3253	12
599.3287	14
599.3322	5
599.3356	15
599.3391	6
599.3426	8
599.3495	10
599.3529	3
599.3598	4
600.3344	3
617.236	4
617.2394	3
617.2465	3
617.25	8
617.2535	6
617.257	6
617.2605	6
617.264	9
617.2675	13
617.271	9
617.2745	12
617.278	8
617.2816	14
617.285	8
617.2885	5
617.2921	5
617.2955	8
617.2991	6
617.3026	3
617.3096	5
617.3131	3
635.2716	3
635.2823	3
635.3107	3
739.4748	3
739.4863	3
739.4978	3
739.5016	3
739.5247	3
898.6155	4
898.6663	5
898.6705	4
898.6747	3
898.6959	3
898.7001	4
898.7043	4
898.7086	6
898.717	3
898.7213	6
898.7255	4
898.7297	3
898.7339	9
898.7424	5
898.7466	3
898.7509	3
898.7551	4
898.7678	5
900.6553	3
901.0365	3
901.2483	3
901.3584	3
901.3711	3
901.4008	3
901.4219	3
901.4347	3
901.4431	4
901.4813	6
901.4855	24
901.4897	40
901.494	74
901.4982	89
901.5024	132
901.5067	177
901.5109	215
901.5151	270
901.5194	356
901.5236	457
901.5279	648
901.5321	713
901.5363	861
901.5406	891
901.5448	902
901.5491	901
901.5533	947
901.5575	999
901.5618	873
901.566	960
901.5703	877
901.5745	686
901.5787	543
901.5829	435
901.5872	375
901.5914	223
901.5956	198
901.5999	138
901.6041	64
901.6083	68
901.6126	23
901.6168	42
901.6211	28
901.6253	10
901.6296	7
901.6338	14
901.638	3
901.6677	3
901.71	2
902.1253	3
902.2482	4
902.2567	3
902.3839	3
902.4474	3
902.4771	3
902.4898	7
902.4941	4
902.4983	10
902.5025	6
902.5068	9
902.511	7
902.5153	9
902.5195	29
902.5237	22
902.528	25
902.5322	26
902.5364	32
902.5407	22
902.5449	26
902.5491	20
902.5534	25
902.5576	26
902.5619	31
902.5661	25
902.5704	25
902.5746	27
902.5789	21
902.5831	14
902.5873	16
902.5916	10
902.5958	11
902.6	4
902.6042	9
902.6085	1
902.6127	5
902.6212	4
902.6339	3
904.5086	3
908.387	3
910.8765	3
