Mass spectrum: PC(18:1/20-HDoHE); LC-ESI-QTOF; MS2
Name: PC(18:1/20-HDoHE)
Class: Oxidized Phospholipid
Formula: C48H82NO9P
Exact mass: 848.158
SMILES: CCCCCCCC\C=C/CCCCCCCC(=O)OCC(COP([O-])(=O)OCC[N+](C)(C)C)OC(=O)CC\C=C/C\C=C/C\C=C/C\C=C/C\C=C/C=C/C(O)CC
InChI: InChI=1S/C48H82NO9P/c1-6-8-9-10-11-12-13-14-17-21-24-27-30-33-36-39-47(51)55-43-46(44-57-59(53,54)56-42-41-49(3,4)5)58-48(52)40-37-34-31-28-25-22-19-16-15-18-20-23-26-29-32-35-38-45(50)7-2/h14-17,20,22-23,25,29,31-32,34-35,38,45-46,50H,6-13,18-19,21,24,26-28,30,33,36-37,39-44H2,1-5H3/b16-15-,17-14-,23-20-,25-22-,32-29-,34-31-,38-35+
Instrument: Acquity UPLC Peptide BEH C18 column (50 x 2.1 mm; 1.7 um), Sciex TripleTOF5600
Instrument type: LC-ESI-QTOF
Ms type: MS2
Ion mode: NEGATIVE
Collision energy: 30-50
Precursor m/z: 906.5865727
Precursor type: [M+CH3COOH-H]-
m/z	relative intensity
71.0137	6
71.01488	6
78.9587	6
78.96244	6
107.0813	6
107.0885	6
121.089	6
121.0998	6
133.1009	6
133.1025	6
135.1149	6
135.1198	6
141.4744	6
141.4794	6
147.1164	12
147.1249	6
161.1347	6
161.1471	6
168.0347	6
168.0365	6
168.0383	6
168.0401	12
168.0437	12
168.0474	12
168.0492	6
187.1444	6
187.1463	6
187.1521	12
187.154	6
189.1625	6
189.1683	6
206.7019	6
206.7321	6
207.1377	6
207.1397	12
224.0562	6
224.0646	6
224.0688	12
224.073	6
224.0772	6
225.9939	6
226.0319	6
227.1741	6
227.1762	6
227.1804	6
227.1952	6
241.1791	6
241.1812	6
241.1856	6
241.1878	6
241.1921	12
241.1943	12
241.1965	30
241.1987	12
241.2009	30
241.2052	6
241.2074	6
245.1815	6
245.1837	6
245.1881	6
247.162	6
247.1642	6
247.1774	6
280.2855	6
280.2878	6
280.3582	12
280.3629	6
280.37	6
281.2137	6
281.2161	18
281.2184	6
281.2208	18
281.2231	32
281.2255	29
281.2278	29
281.2302	43
281.2325	66
281.2349	52
281.2372	63
281.2396	84
281.2419	96
281.2443	115
281.2466	118
281.249	105
281.2513	127
281.2537	79
281.256	77
281.2584	49
281.2608	18
281.2631	29
281.2655	12
281.2678	12
281.2702	6
281.2749	6
282.2448	24
282.2472	12
285.1671	6
285.1718	12
285.1765	12
285.1789	24
285.1813	30
285.1836	24
285.186	24
285.1884	35
285.1907	18
285.1931	12
285.1955	6
285.1978	12
299.2198	6
299.2223	6
299.2271	6
299.2295	12
299.232	30
299.2344	12
299.2368	24
299.2392	30
299.2417	30
299.2441	6
299.2465	6
299.2489	6
299.2562	12
311.2258	6
311.2332	6
311.2406	6
325.1981	18
325.2006	6
325.2031	12
325.2057	24
325.2107	31
325.2132	35
325.2158	24
325.2183	32
325.2208	35
325.2234	30
325.2259	12
325.2284	6
325.2309	12
325.2335	6
343.2085	18
343.2111	18
343.2137	45
343.2163	63
343.2189	77
343.2215	82
343.2241	79
343.2267	135
343.2293	104
343.2319	91
343.2345	111
343.2371	55
343.2397	68
343.2423	18
343.2449	18
343.2475	12
343.2501	6
343.2527	6
343.2579	6
355.2199	6
355.2357	6
459.8659	12
471.3478	6
471.3569	6
486.7698	6
486.7791	6
488.3058	12
488.309	12
488.3121	6
488.3214	6
488.3275	6
490.279	6
490.2883	6
491.2204	6
491.2484	6
492.4366	12
493.7696	6
493.7727	6
506.2987	12
506.3018	6
506.305	18
506.3081	18
506.3113	18
506.3145	42
506.3176	30
506.3208	30
506.3239	18
506.3271	12
506.3302	30
506.3334	6
506.3365	12
506.3397	6
506.3429	6
506.346	6
506.3523	6
506.3586	6
519.7103	6
519.7135	6
550.2199	6
550.2725	6
550.2857	6
550.289	6
550.2955	12
550.3021	6
550.3054	6
568.2891	12
568.2958	6
568.2992	6
568.3025	18
568.3058	6
568.3126	12
568.3159	12
568.3192	6
568.3259	12
593.16	6
593.1669	6
597.1222	6
597.1428	6
729.4648	6
729.4686	6
761.4456	6
761.4495	6
761.4533	6
761.4572	12
761.4611	12
761.465	12
761.4688	12
761.4727	18
761.4766	12
761.4804	12
761.4843	30
761.4882	12
761.492	6
761.4959	6
761.4998	6
761.5075	6
761.5153	6
769.478	6
769.4818	6
769.5013	6
785.4568	6
785.4686	6
787.4903	6
787.4943	6
813.5009	6
813.5409	6
829.8918	6
829.8999	12
829.912	6
829.9403	6
832.2531	6
832.3219	6
832.415	6
832.4838	6
832.4918	17
832.4999	11
832.504	5
832.5081	89
832.5121	46
832.5161	83
832.5202	97
832.5242	167
832.5283	309
832.5323	416
832.5364	461
832.5404	656
832.5444	911
832.5485	732
832.5526	999
832.5566	876
832.5607	662
832.5647	653
832.5687	385
832.5728	252
832.5768	238
832.5809	180
832.5849	138
832.589	80
832.593	96
832.597	38
832.6011	23
832.6052	17
832.6092	17
832.6133	23
832.6173	6
832.6254	6
832.6375	6
832.8035	6
832.8196	6
837.424	6
837.428	6
839.9178	6
839.9545	6
840.6334	6
840.6863	6
840.7351	6
840.7635	6
841.512	6
841.5608	6
844.5214	6
844.5295	6
844.5458	24
844.558	6
844.5621	6
845.5406	6
845.5569	6
846.5156	6
846.536	12
846.5401	12
846.5442	12
846.5483	6
846.5524	12
846.5565	18
846.5605	6
846.5646	6
846.5687	12
846.5728	18
846.5768	12
846.585	12
846.5891	6
846.5931	12
846.6013	6
847.4749	6
847.4871	6
847.4912	6
847.4953	18
847.4993	6
847.5034	6
847.5075	12
847.5157	12
847.5198	6
847.5239	18
847.528	6
847.532	6
847.5361	6
847.5402	12
847.5443	6
847.5524	6
854.2907	6
854.3358	6
903.6978	6
903.7484	6
903.7863	6
905.9971	6
906.0308	6
906.4531	6
906.4573	6
906.4699	6
906.4868	6
906.5333	6
906.5375	12
906.5417	12
906.546	6
906.5502	24
906.5544	44
906.5586	29
906.5629	37
906.5671	68
906.5713	82
906.5755	100
906.5797	53
906.584	58
906.5882	102
906.5924	75
906.5966	72
906.6008	87
906.605	84
906.6093	52
906.6135	36
906.6177	29
906.6219	24
906.6262	32
906.6304	18
906.6346	12
906.6431	12
906.6473	6
906.6558	6
906.66	6
906.6642	6
