Mass spectrum: PE(18:2e/18-HETE); LC-ESI-QTOF; MS2
Name: PE(18:2e/18-HETE)
Class: Oxidized Phospholipid
Formula: C43H76NO8P
Exact mass: 766.056
SMILES: CCCCCCCCCCCCC\C=C/C\C=C/OCC(COP(O)(=O)OCCN)OC(=O)CCC\C=C/C\C=C/C\C=C/C\C=C/CCC(O)CC
InChI: InChI=1S/C43H76NO8P/c1-3-5-6-7-8-9-10-11-12-15-18-21-24-27-30-33-37-49-39-42(40-51-53(47,48)50-38-36-44)52-43(46)35-32-29-26-23-20-17-14-13-16-19-22-25-28-31-34-41(45)4-2/h14,16-17,19,23-28,33,37,41-42,45H,3-13,15,18,20-22,29-32,34-36,38-40,44H2,1-2H3,(H,47,48)/b17-14-,19-16-,26-23-,27-24-,28-25-,37-33-
Instrument: Acquity UPLC Peptide BEH C18 column (50 x 2.1 mm; 1.7 um), Sciex TripleTOF5600
Instrument type: LC-ESI-QTOF
Ms type: MS2
Ion mode: NEGATIVE
Collision energy: 30-50
Precursor m/z: 764.5235789
Precursor type: [M-H]-
m/z	relative intensity
140.0056	26
140.0089	17
140.0123	17
140.0139	17
191.1785	17
196.0316	43
196.0335	17
196.0355	34
196.0375	26
196.0395	26
196.0414	34
196.0493	17
217.186	26
217.188	34
217.1901	26
217.1922	51
217.1943	34
217.1964	59
217.1984	51
217.2005	68
217.2026	34
217.2047	17
218.7399	17
245.1871	17
257.2176	34
257.2244	26
257.2289	17
257.2334	43
257.2357	34
261.161	17
261.1633	17
261.1701	17
261.1724	43
261.1747	136
261.1769	77
261.1792	111
261.1815	128
261.1838	136
261.1861	102
261.1884	153
261.1906	128
261.1929	196
261.1952	68
261.1975	85
261.1997	43
261.202	34
261.2043	17
261.2134	17
265.2447	34
265.2493	17
265.2516	17
265.2539	43
265.2585	34
273.2249	17
275.2296	17
275.232	17
275.2343	51
275.239	17
275.2413	26
275.246	17
275.2484	26
283.2032	17
283.2103	17
301.1937	17
301.1961	43
301.201	51
301.2035	68
301.2059	43
301.2084	51
301.2108	229
301.2133	77
301.2157	119
301.2182	162
301.2206	136
301.2231	136
301.2255	85
301.228	51
301.2304	26
301.2329	43
301.2402	17
317.2076	26
317.2101	17
317.2126	17
317.2177	17
318.2262	18
318.2312	18
318.2438	26
319.1935	18
319.196	18
319.1985	38
319.201	56
319.2036	72
319.2061	65
319.2086	222
319.2111	120
319.2137	344
319.2162	586
319.2187	620
319.2212	682
319.2237	867
319.2262	877
319.2288	981
319.2313	999
319.2338	746
319.2363	634
319.2389	389
319.2414	446
319.2439	260
319.2464	159
319.2489	148
319.2515	103
319.254	38
319.2565	38
319.259	28
319.2716	9
319.2792	10
319.3372	9
319.6322	9
319.7861	18
320.2177	9
320.2304	26
320.243	17
401.2514	17
444.2638	26
444.2668	26
444.2697	59
444.2727	17
444.2757	43
444.2787	68
444.2816	77
444.2846	93
444.2876	26
444.2906	102
444.2935	59
444.2965	85
444.2995	51
444.3025	34
444.3055	34
444.3084	17
444.3144	34
444.3174	17
445.1297	18
460.8833	18
462.211	18
462.2596	43
462.2687	34
462.2717	43
462.2747	51
462.2778	86
462.2808	172
462.2838	128
462.2869	138
462.2899	121
462.2929	128
462.296	214
462.299	147
462.302	249
462.3051	163
462.3081	233
462.3111	103
462.3142	155
462.3172	52
462.3203	52
462.3233	43
462.3263	17
462.3293	34
462.3324	17
462.3476	17
690.4915	17
690.5248	17
690.5322	17
762.0982	17
762.1332	17
764.441	18
764.4527	18
764.4605	26
764.4644	18
764.4683	27
764.4722	44
764.4761	44
764.48	102
764.4839	110
764.4878	213
764.4917	215
764.4956	387
764.4995	341
764.5034	398
764.5073	432
764.5112	390
764.5151	542
764.519	849
764.5229	701
764.5268	731
764.5307	835
764.5346	656
764.5385	797
764.5424	685
764.5463	648
764.5502	600
764.5541	648
764.558	522
764.5619	369
764.5658	269
764.5697	203
764.5736	126
764.5775	107
764.5814	58
764.5853	58
764.5892	28
764.5931	10
764.597	18
764.601	27
764.6049	9
764.6126	30
764.6204	17
764.7531	9
765.4985	17
765.5103	17
765.5142	34
765.5259	17
765.5298	26
765.5337	34
765.5376	17
765.5415	17
765.5454	17
765.5493	17
765.5571	17
765.561	34
765.5805	17
