Mass spectrum: Cer[NS] d42:2; LC-ESI-QTOF; MS2
Name: Cer[NS] d42:2
Class: Cer_NS
Formula: C42H81NO3
Exact mass: 648.1139999999999
SMILES: CCCCCCCCCCCCCCCCCCCCCCCC(=O)NC(CO)C(O)\C=C\CC\C=C\CCCCCCCCC
InChI: InChI=1S/C42H81NO3/c1-3-5-7-9-11-13-15-17-18-19-20-21-22-23-24-26-28-30-32-34-36-38-42(46)43-40(39-44)41(45)37-35-33-31-29-27-25-16-14-12-10-8-6-4-2/h27,29,35,37,40-41,44-45H,3-26,28,30-34,36,38-39H2,1-2H3,(H,43,46)/b29-27+,37-35+
Instrument: AB Sciex TripleTOF 5600+ system (Q-TOF) equipped with a DuoSpray ion source
Instrument type: LC-ESI-QTOF
Ms type: MS2
Ion mode: NEGATIVE
Collision energy: 45V
Column name: Acquity UPLC Peptide BEH C18 column (50*2.1 mm; 1.7 um; 130A)(Waters Co.,Milford, MA, USA)
Retention time: 13.12529
Precursor type: [M+CH3COOH-H]-
Precursor m/z: 706.6312
m/z	relative intensity
217.193	0
223.202	0
233.187	1
234.47	0
235.204	147
237.221	5
238.95	0
248.237	8
249.222	1
253.216	2
260.413	1
261.22	128
262.211	0
263.24	1
264.209	1
264.232	17
266.247	20
279.222	2
279.234	3
296.256	7
347.326	2
348.243	1
348.37	0
349.344	192
351.36	1
364.347	2
365.348	2
365.374	11
365.399	1
366.327	1
366.371	165
367.357	97
380.391	2
381.364	1
390.335	0
390.372	6
390.386	1
391.152	3
392.386	719
392.58	0
406.364	3
407.363	3
407.402	1
408.381	107
410.388	3
410.406	2
420.38	1
422.385	1
559.564	0
571.565	1
571.597	0
587.548	2
587.591	1
596.573	0
598.541	4
598.571	24
598.593	87
600.592	1
610.578	2
610.607	0
612.632	0
614.58	131
614.66	0
616.599	198
618.615	1
628.491	1
628.519	3
628.567	2
628.599	5
628.632	1
644.564	8
644.599	0
644.622	1
646.472	1
646.5	1
646.606	999
646.672	1
647.563	0
647.605	1
647.627	2
690.59	0
706.531	0
706.613	2
706.65	0
