Mass spectrum: PC(16:1/14,15-EpETE); LC-ESI-QTOF; MS2
Name: PC(16:1/14,15-EpETE)
Class: Oxidized Phospholipid
Formula: C44H76NO9P
Exact mass: 794.066
SMILES: CCCCCC\C=C/CCCCCCCC(=O)OCC(COP([O-])(=O)OCC[N+](C)(C)C)OC(=O)CCC\C=C/C\C=C/C\C=C/CC1OC1C\C=C/CC
InChI: InChI=1S/C44H76NO9P/c1-6-8-10-11-12-13-14-15-16-20-23-26-30-34-43(46)50-38-40(39-52-55(48,49)51-37-36-45(3,4)5)53-44(47)35-31-27-24-21-18-17-19-22-25-29-33-42-41(54-42)32-28-9-7-2/h9,13-14,17,19,21,24-25,28-29,40-42H,6-8,10-12,15-16,18,20,22-23,26-27,30-39H2,1-5H3/b14-13-,19-17-,24-21-,28-9-,29-25-
Instrument: Acquity UPLC Peptide BEH C18 column (50 x 2.1 mm; 1.7 um), Sciex TripleTOF5600
Instrument type: LC-ESI-QTOF
Ms type: MS2
Ion mode: NEGATIVE
Collision energy: 30-50
Precursor m/z: 852.5396225
Precursor type: [M+CH3COOH-H]-
m/z	relative intensity
121.0671	23
168.0475	23
175.1409	23
175.1539	23
203.1463	23
207.1254	23
207.1274	23
207.1315	36
207.1335	59
207.1356	59
207.1376	59
207.1396	95
207.1416	59
207.1437	71
207.1457	48
207.1477	48
207.1498	23
207.1579	23
219.1312	23
219.1333	23
219.1353	23
219.1374	48
219.1395	71
219.1416	48
219.1437	23
219.1458	23
219.1479	36
224.0628	23
224.0649	23
224.067	23
224.0692	23
224.0713	23
224.0734	23
235.1346	23
247.1295	23
247.1317	23
248.1286	36
248.1308	23
248.1331	48
248.1353	23
248.1375	23
248.1397	82
248.142	23
248.1442	36
248.1464	48
248.1508	48
248.1531	24
248.1553	48
252.4255	36
252.4345	24
252.9593	24
253.195	23
253.1973	48
253.1995	72
253.2018	119
253.204	195
253.2063	146
253.2085	123
253.2108	306
253.213	489
253.2152	343
253.2175	626
253.2197	539
253.222	515
253.2242	355
253.2265	256
253.2287	355
253.231	99
253.2332	37
253.2354	86
253.2399	24
253.2422	13
253.2444	24
253.2489	13
253.3298	13
255.2017	23
255.2062	49
255.2084	36
255.2107	23
255.2129	48
255.2174	23
255.2242	23
255.2265	23
273.2305	23
299.1901	23
299.1925	23
299.195	23
299.1974	36
299.1999	36
299.2023	36
299.2048	23
299.2072	48
299.2121	48
299.2145	36
317.1911	36
317.1936	95
317.1961	119
317.1986	178
317.2012	60
317.2037	298
317.2062	249
317.2087	274
317.2112	177
317.2137	214
317.2162	154
317.2188	238
317.2213	200
317.2238	130
317.2263	118
317.2288	71
317.2313	36
317.2338	36
317.2363	59
460.2973	23
460.3064	23
478.263	23
478.2692	23
478.2753	36
478.2784	71
478.2815	59
478.2846	59
478.2877	107
478.2908	71
478.2939	59
478.2969	82
478.3	48
478.3031	82
478.3062	71
478.3123	36
478.3155	23
478.3185	48
478.3216	23
478.3278	23
524.2813	36
524.2844	23
542.2829	23
542.2862	23
542.2961	23
542.2993	23
776.1008	36
778.402	25
778.4375	36
778.4414	49
778.4454	24
778.4493	96
778.4532	121
778.4572	75
778.4611	87
778.465	155
778.469	284
778.4729	236
778.4769	331
778.4808	428
778.4847	465
778.4886	532
778.4926	709
778.4965	673
778.5005	761
778.5044	936
778.5084	738
778.5123	665
778.5162	780
778.5201	649
778.5241	999
778.528	674
778.532	494
778.5359	540
778.5399	520
778.5438	309
778.5477	271
778.5516	219
778.5556	143
778.5596	103
778.5635	103
778.5674	65
778.5714	38
778.5753	24
778.5792	42
778.5831	41
778.6265	13
779.4732	13
779.4771	23
779.4929	23
779.5007	59
779.5126	24
779.5204	23
779.5638	23
793.4648	23
793.5005	23
852.4586	23
852.4668	23
852.4915	23
852.5039	23
852.5121	59
852.5162	23
852.5204	36
852.5245	36
852.5286	59
852.5327	48
852.5369	82
852.541	59
852.5451	48
852.5492	59
852.5533	36
852.5574	36
852.5616	48
852.5657	82
852.5698	36
852.5739	82
852.5781	23
852.5822	48
852.5863	23
852.5904	48
852.6069	23
