Mass spectrum: PE(18:1/14,15-EET); LC-ESI-QTOF; MS2
Name: PE(18:1/14,15-EET)
Class: Oxidized Phospholipid
Formula: C43H76NO9P
Exact mass: 782.055
SMILES: CCCCCCCC\C=C/CCCCCCCC(=O)OCC(COP(O)(=O)OCCN)OC(=O)CCC\C=C/C\C=C/C\C=C/CC1OC1CCCCC
InChI: InChI=1S/C43H76NO9P/c1-3-5-7-8-9-10-11-12-13-14-15-19-22-25-29-33-42(45)49-37-39(38-51-54(47,48)50-36-35-44)52-43(46)34-30-26-23-20-17-16-18-21-24-28-32-41-40(53-41)31-27-6-4-2/h12-13,16,18,20,23-24,28,39-41H,3-11,14-15,17,19,21-22,25-27,29-38,44H2,1-2H3,(H,47,48)/b13-12-,18-16-,23-20-,28-24-
Instrument: Acquity UPLC Peptide BEH C18 column (50 x 2.1 mm; 1.7 um), Sciex TripleTOF5600
Instrument type: LC-ESI-QTOF
Ms type: MS2
Ion mode: NEGATIVE
Collision energy: 30-50
Precursor m/z: 780.5184935
Precursor type: [M-H]-
m/z	relative intensity
78.95642	34
113.0925	34
113.097	34
113.0985	52
121.1027	34
139.1241	34
140.0093	34
140.0126	34
140.0143	69
140.0176	34
151.1444	34
152.9957	34
161.1489	34
175.1443	52
175.1461	34
175.148	34
175.1499	34
175.1517	34
175.1555	34
193.121	52
196.0339	69
196.0359	52
196.0418	52
196.0438	85
203.1801	34
203.1821	34
203.1842	34
205.9813	34
207.129	34
219.1286	34
219.1307	85
219.1328	102
219.1349	154
219.1391	137
219.1412	102
219.1432	69
219.1453	52
219.1495	34
253.208	52
253.2102	52
253.2169	34
253.2214	34
253.2282	34
257.2157	34
257.2202	102
257.2225	154
257.2247	69
257.227	154
257.2292	137
257.2315	119
257.2338	34
257.2361	69
275.2393	34
275.244	52
279.2402	34
280.0212	34
280.033	35
280.3684	35
280.4086	35
280.9168	35
281.2196	35
281.2243	85
281.2267	35
281.229	139
281.2314	139
281.2338	158
281.2361	228
281.2385	365
281.2409	424
281.2432	619
281.2456	825
281.248	667
281.2503	704
281.2527	758
281.2551	632
281.2574	174
281.2598	317
281.2621	158
281.2645	193
281.2669	52
281.2693	35
281.2716	52
281.274	18
281.2764	70
281.2811	52
281.6243	18
282.2522	34
283.2059	34
301.1965	34
301.2014	34
301.2039	85
301.2063	34
301.2087	85
301.2112	119
301.2137	188
301.2161	154
301.2185	137
301.221	273
301.2234	154
301.2259	69
301.2283	85
301.2308	69
301.2332	34
301.2651	35
303.1218	35
317.1678	35
318.2316	70
319.1938	34
319.2039	106
319.2064	122
319.209	158
319.2115	194
319.214	191
319.2165	369
319.219	459
319.2216	510
319.2241	424
319.2266	582
319.2291	546
319.2316	508
319.2342	632
319.2367	335
319.2392	439
319.2417	211
319.2442	91
319.2468	122
319.2493	35
319.2543	54
319.2568	52
391.2251	34
417.2383	34
417.2411	34
417.2469	34
417.2527	52
460.2841	34
460.2901	34
478.2556	34
478.2649	34
478.2711	34
478.2772	52
478.2803	85
478.2834	137
478.2865	69
478.2896	52
478.2927	171
478.2957	171
478.2988	171
478.3019	102
478.305	119
478.3081	85
478.3112	34
478.3174	34
478.3204	85
478.3235	34
498.2644	34
516.231	52
544.2614	34
544.2646	34
544.2712	52
544.291	34
693.4423	52
693.4571	34
693.4608	34
762.5229	34
778.0536	34
778.0851	34
778.0969	34
780.4168	34
780.4365	34
780.4404	34
780.4444	34
780.4483	85
780.4523	69
780.4562	121
780.4601	70
780.4641	191
780.468	305
780.472	315
780.476	288
780.4799	201
780.4838	292
780.4877	258
780.4917	404
780.4957	459
780.4996	665
780.5035	590
780.5074	830
780.5114	977
780.5153	851
780.5193	835
780.5233	999
780.5272	850
780.5311	818
780.535	925
780.539	759
780.543	551
780.5469	754
780.5508	570
780.5547	424
780.5587	293
780.5626	275
780.5666	221
780.5706	208
780.5745	54
780.5784	54
780.5823	111
780.5863	35
780.5902	37
780.5942	34
780.5981	42
781.438	18
781.4775	52
781.513	52
781.5287	69
