Mass spectrum: PG(18:1/18-HETE); LC-ESI-QTOF; MS2
Name: PG(18:1/18-HETE)
Class: Oxidized Phospholipid
Formula: C44H77O11P
Exact mass: 813.065
SMILES: CCCCCCCC\C=C/CCCCCCCC(=O)OCC(COP(O)(=O)OCC(O)CO)OC(=O)CCC\C=C/C\C=C/C\C=C/C\C=C/CCC(O)CC
InChI: InChI=1S/C44H77O11P/c1-3-5-6-7-8-9-10-11-12-16-19-22-25-28-31-34-43(48)52-38-42(39-54-56(50,51)53-37-41(47)36-45)55-44(49)35-32-29-26-23-20-17-14-13-15-18-21-24-27-30-33-40(46)4-2/h11-12,14-15,17-18,23-24,26-27,40-42,45-47H,3-10,13,16,19-22,25,28-39H2,1-2H3,(H,50,51)/b12-11-,17-14-,18-15-,26-23-,27-24-
Instrument: Acquity UPLC Peptide BEH C18 column (50 x 2.1 mm; 1.7 um), Sciex TripleTOF5600
Instrument type: LC-ESI-QTOF
Ms type: MS2
Ion mode: NEGATIVE
Collision energy: 30-50
Precursor m/z: 811.5130738
Precursor type: [M-H]-
m/z	relative intensity
107.0853	25
152.9903	25
152.992	25
152.9955	37
152.9973	25
217.1966	37
217.1987	25
257.2247	25
261.1727	62
261.1773	49
261.1795	25
261.1818	89
261.1841	89
261.1864	163
261.1887	113
261.1909	76
261.1932	49
261.1955	37
261.2092	25
275.2393	25
280.3542	25
280.3684	37
280.3826	25
280.3849	25
280.3896	25
281.2243	37
281.2267	113
281.229	101
281.2314	141
281.2338	205
281.2361	437
281.2385	323
281.2409	525
281.2432	683
281.2456	836
281.248	851
281.2503	824
281.2527	656
281.255	745
281.2574	631
281.2598	464
281.2621	205
281.2645	168
281.2669	220
281.2693	52
281.2716	52
281.274	37
281.2763	37
281.2811	25
282.2498	25
282.264	25
301.1892	25
301.2039	49
301.2063	37
301.2088	37
301.2112	101
301.2137	89
301.2161	101
301.2186	89
301.221	89
301.2234	37
301.2259	49
301.2308	25
301.2332	37
301.2382	37
301.7061	25
319.1989	37
319.2039	25
319.2065	62
319.209	101
319.2115	138
319.214	187
319.2166	264
319.2191	454
319.2216	530
319.2241	631
319.2266	681
319.2292	861
319.2317	417
319.2342	543
319.2367	392
319.2392	353
319.2418	175
319.2443	202
319.2468	49
319.2493	101
319.2518	62
319.2544	49
319.2569	49
319.2594	37
319.2619	25
455.2188	25
455.2339	37
465.3079	25
474.757	25
529.2415	25
529.2512	37
529.2577	25
547.2482	25
547.2745	25
811.2406	25
811.4456	25
811.4576	62
811.4616	153
811.4656	205
811.4697	385
811.4737	259
811.4777	321
811.4818	622
811.4857	619
811.4897	661
811.4938	602
811.4978	639
811.5018	876
811.5059	829
811.5099	878
811.5139	708
811.5179	644
811.5219	710
811.5259	693
811.53	999
811.534	604
811.538	733
811.542	656
811.546	429
811.55	446
811.5541	353
811.5581	298
811.5621	195
811.5661	183
811.5701	118
811.5742	128
811.5782	91
811.5822	49
811.5862	37
811.5903	89
811.5943	49
811.5983	37
811.6023	25
811.6104	25
812.4788	25
812.515	25
812.5231	37
812.5271	25
812.5311	25
812.5472	37
