Mass spectrum: PI(18:1/17,18-EpETE); LC-ESI-QTOF; MS2
Name: PI(18:1/17,18-EpETE)
Class: Oxidized Phospholipid
Formula: C47H79O14P
Exact mass: 899.111
SMILES: CCCCCCCC\C=C/CCCCCCCC(=O)OCC(COP(O)(=O)OC1C(O)C(O)C(O)C(O)C1O)OC(=O)CCC\C=C/C\C=C/C\C=C/C\C=C/CC1OC1CC
InChI: InChI=1S/C47H79O14P/c1-3-5-6-7-8-9-10-11-12-15-18-21-24-27-30-33-40(48)57-35-37(36-58-62(55,56)61-47-45(53)43(51)42(50)44(52)46(47)54)59-41(49)34-31-28-25-22-19-16-13-14-17-20-23-26-29-32-39-38(4-2)60-39/h11-13,16-17,20,22,25-26,29,37-39,42-47,50-54H,3-10,14-15,18-19,21,23-24,27-28,30-36H2,1-2H3,(H,55,56)/b12-11-,16-13-,20-17-,25-22-,29-26-
Instrument: Acquity UPLC Peptide BEH C18 column (50 x 2.1 mm; 1.7 um), Sciex TripleTOF5600
Instrument type: LC-ESI-QTOF
Ms type: MS2
Ion mode: NEGATIVE
Collision energy: 30-50
Precursor m/z: 897.5134677
Precursor type: [M-H]-
m/z	relative intensity
78.95808	7
78.95934	7
78.96185	7
78.9631	7
78.96435	4
78.96686	4
96.98538	4
147.1147	4
149.1359	4
149.1376	5
149.1393	4
152.9857	4
152.9874	4
152.9909	5
152.9926	13
152.9944	16
152.9961	16
152.9979	9
152.9996	5
153.0014	11
153.0031	4
153.0049	4
189.1616	4
201.1643	4
201.1683	4
201.1723	4
215.1703	5
215.1724	7
215.1786	9
215.1806	11
215.1827	7
215.1848	4
215.1868	9
215.1889	5
215.1951	4
222.989	5
222.9911	5
222.9932	18
222.9953	5
222.9975	13
222.9996	18
223.0017	13
223.0038	23
223.0059	16
223.008	5
223.0101	11
223.0143	4
223.0164	5
236.0874	4
240.9928	5
240.995	4
240.9971	9
240.9993	31
241.0015	38
241.0037	56
241.0059	72
241.0081	92
241.0103	77
241.0125	76
241.0147	77
241.0169	72
241.019	77
241.0212	36
241.0234	14
241.0256	13
241.0278	5
241.03	4
241.0322	9
241.0366	4
243.1815	4
245.1592	4
247.1671	4
255.1925	4
255.1948	4
255.2015	4
255.2038	5
255.206	9
255.2083	13
255.2105	7
255.215	20
255.2173	5
255.2195	4
255.2241	5
255.2263	4
259.0091	4
259.0114	7
259.0137	5
259.016	5
259.0182	5
259.0228	11
259.025	9
259.0273	9
259.0296	5
259.0318	5
259.0341	4
259.0364	4
259.1568	4
259.159	9
259.1636	5
259.1658	11
259.1681	5
259.1704	9
259.1727	4
259.1749	7
259.1795	4
259.1817	5
259.184	4
259.1886	5
273.2	4
273.2116	4
273.214	7
273.2163	4
273.2186	5
273.2233	5
273.2256	5
273.228	5
273.2303	9
273.2396	4
273.2419	4
279.1958	4
280.5862	4
281.2152	4
281.2176	5
281.2223	11
281.2247	7
281.2271	9
281.2294	25
281.2318	26
281.2342	26
281.2365	57
281.2389	64
281.2412	78
281.2436	101
281.246	103
281.2484	127
281.2507	125
281.2531	90
281.2554	81
281.2578	48
281.2602	31
281.2625	42
281.2649	18
281.2673	17
281.2697	7
281.272	9
281.2744	9
297.0168	4
297.0241	7
297.0265	7
297.0289	11
297.0314	13
297.0338	11
297.0362	18
297.0387	18
297.0411	16
297.0435	9
297.046	11
297.0484	9
297.0508	5
297.0533	4
299.1873	4
299.1898	5
299.1922	9
299.1947	5
299.1971	9
299.1996	5
299.202	13
299.2044	9
299.2069	5
299.2093	7
299.2118	5
299.2142	4
299.2166	5
300.2133	4
315.0358	4
315.0383	4
315.0408	9
315.0433	7
315.0483	4
315.0533	4
315.0558	4
315.0583	5
315.0609	4
317.1907	4
317.1932	7
317.1958	5
317.1983	14
317.2008	13
317.2033	41
317.2058	43
317.2083	27
317.2108	41
317.2133	38
317.2159	40
317.2184	25
317.2209	27
317.2234	18
317.2259	18
317.2284	7
317.2309	16
317.2335	5
317.236	4
317.241	4
327.9937	4
417.1953	4
417.2097	4
417.2126	4
417.2155	14
417.2184	14
417.2212	16
417.2241	23
417.227	25
417.2299	36
417.2327	52
417.2356	31
417.2385	40
417.2414	76
417.2443	49
417.2472	50
417.25	38
417.2529	32
417.2558	31
417.2587	18
417.2616	9
417.2644	14
417.2673	13
435.2341	4
435.237	4
435.2429	4
435.2458	4
435.2488	4
435.2547	4
435.2576	4
453.183	5
453.186	4
453.195	5
453.198	4
453.201	7
453.204	9
453.21	5
453.213	11
453.216	9
453.219	4
453.225	4
453.234	9
471.2035	4
577.4625	4
579.2474	4
579.2507	4
579.2542	9
579.2576	9
579.2609	11
579.2643	20
579.2677	14
579.2711	18
579.2745	25
579.2779	40
579.2813	45
579.2847	38
579.2881	43
579.2915	50
579.2949	61
579.2983	58
579.3017	54
579.3051	63
579.3085	40
579.3119	23
579.3153	36
579.3187	32
579.3221	22
579.3255	23
579.3289	13
579.3323	11
579.3356	9
580.3074	4
597.2679	4
597.2748	13
597.2783	5
597.2817	9
597.2852	4
597.2886	11
597.2921	7
597.2955	5
597.299	14
597.3024	14
597.3058	16
597.3093	7
597.3127	18
597.3162	7
597.3231	18
597.3265	7
597.33	7
597.3334	4
615.218	4
615.2355	4
615.239	7
615.2426	11
615.246	5
615.2495	13
615.2531	16
615.2565	11
615.26	14
615.2635	4
615.267	11
615.2705	9
615.274	5
615.2775	14
615.281	5
615.2845	7
615.288	4
615.295	4
615.302	4
633.267	4
633.2706	4
633.2741	4
633.2883	5
735.4662	4
824.5229	4
824.527	4
824.5432	4
824.5675	5
824.5878	4
894.6219	4
894.643	4
894.6515	4
894.6557	7
894.6599	4
894.6641	7
894.6768	7
894.681	5
894.6852	4
894.6895	4
894.6937	4
894.6979	4
894.7106	5
894.719	4
894.7232	5
894.7359	5
894.7612	4
897.3714	4
897.3968	5
897.4094	5
897.4179	5
897.4221	5
897.4263	7
897.4559	26
897.4602	101
897.4644	192
897.4686	209
897.4728	233
897.4771	290
897.4813	339
897.4855	516
897.4897	520
897.494	602
897.4982	697
897.5024	857
897.5067	794
897.5109	885
897.5151	920
897.5193	955
897.5236	999
897.5278	963
897.532	861
897.5363	787
897.5405	803
897.5447	640
897.549	563
897.5532	405
897.5574	341
897.5616	235
897.5659	207
897.5701	154
897.5743	139
897.5786	97
897.5828	56
897.587	52
897.5912	47
897.5955	19
897.5997	29
897.6039	17
897.6081	11
897.6124	4
897.625	11
897.6293	5
897.6377	2
897.6504	4
898.0859	2
898.4538	5
898.4707	5
898.4791	7
898.4876	11
898.4918	11
898.4961	22
898.5003	14
898.5045	22
898.5088	11
898.513	23
898.5172	22
898.5214	23
898.5257	23
898.5299	11
898.5341	31
898.5384	20
898.5426	9
898.5468	7
898.551	14
898.5553	5
898.5595	9
898.5637	7
898.5722	7
898.5807	4
898.6018	4
898.6568	4
901.2007	4
