Mass spectrum: PC 36:5; LC-ESI-QTOF; MS2
Name: PC 36:5
Class: PC
Formula: C44H78NO8P
Exact mass: 780.0829999999999
SMILES: CCCCCC\C=C/CCCCCCCC(=O)OCC(COP([O-])(=O)OCC[N+](C)(C)C)OC(=O)CCCCCC\C=C/C\C=C/C\C=C/C\C=C/CC
InChI: InChI=1S/C44H78NO8P/c1-6-8-10-12-14-16-18-20-21-22-23-25-27-29-31-33-35-37-44(47)53-42(41-52-54(48,49)51-39-38-45(3,4)5)40-50-43(46)36-34-32-30-28-26-24-19-17-15-13-11-9-7-2/h8,10,14,16-17,19-21,23,25,42H,6-7,9,11-13,15,18,22,24,26-41H2,1-5H3/b10-8-,16-14-,19-17-,21-20-,25-23-
Instrument: AB Sciex TripleTOF 5600+ system (Q-TOF) equipped with a DuoSpray ion source
Instrument type: LC-ESI-QTOF
Ms type: MS2
Ion mode: NEGATIVE
Collision energy: 45V
Column name: Acquity UPLC Peptide BEH C18 column (50*2.1 mm; 1.7 um; 130A)(Waters Co.,Milford, MA, USA)
Retention time: 8.764194
Precursor type: [M+CH3COOH-H]-
Precursor m/z: 838.5593
m/z	relative intensity
168.042	8
205.197	11
224.067	13
227.2	10
253.187	6
253.215	277
259.243	30
259.254	10
277.212	3
283.257	13
285.215	3
302.281	4
303.232	715
327.233	7
329.244	38
329.274	4
330.243	2
331.261	8
389.211	4
419.253	3
420.25	2
452.272	4
460.259	3
460.281	8
460.308	3
478.293	73
488.276	2
489.27	2
510.287	6
510.308	5
528.284	7
528.324	8
552.338	2
598.459	1
693.468	3
750.507	3
762.116	6
764.446	16
764.52	999
765.52	7
779.505	9
793.509	11
820.516	9
838.506	10
838.541	75
838.579	36
