Mass spectrum: Cer[NS] d42:1; LC-ESI-QTOF; MS2
Name: Cer[NS] d42:1
Class: Cer_NS
Formula: C42H83NO3
Exact mass: 650.1299999999999
SMILES: CCCCCCCCCCCCCCCCCCCCCCCC(=O)NC(CO)C(O)\C=C\CCCCCCCCCCCCC
InChI: InChI=1S/C42H83NO3/c1-3-5-7-9-11-13-15-17-18-19-20-21-22-23-24-26-28-30-32-34-36-38-42(46)43-40(39-44)41(45)37-35-33-31-29-27-25-16-14-12-10-8-6-4-2/h35,37,40-41,44-45H,3-34,36,38-39H2,1-2H3,(H,43,46)/b37-35+
Instrument: AB Sciex TripleTOF 5600+ system (Q-TOF) equipped with a DuoSpray ion source
Instrument type: LC-ESI-QTOF
Ms type: MS2
Ion mode: NEGATIVE
Collision energy: 45V
Column name: Acquity UPLC Peptide BEH C18 column (50*2.1 mm; 1.7 um; 130A)(Waters Co.,Milford, MA, USA)
Retention time: 13.31004
Precursor type: [M+CH3COOH-H]-
Precursor m/z: 708.6473
m/z	relative intensity
80.027	0
95.051	1
217.004	2
219.212	0
221.222	0
225.213	1
225.228	0
235.205	5
236.474	1
236.494	0
237.22	239
239.237	9
245.224	0
248.233	0
249.229	0
250.251	12
251.234	2
253.25	0
255.228	2
261.223	1
262.249	0
262.411	0
263.236	211
265.253	7
266.247	41
268.262	38
278.247	0
280.254	0
281.235	2
281.251	5
291.266	4
296.29	1
298.272	12
298.996	1
321.314	6
337.353	1
338.336	7
338.353	1
339.32	2
347.322	2
347.337	0
348.245	1
349.345	297
351.359	2
364.357	30
365.23	1
365.377	23
366.37	249
367.357	190
378.371	1
380.351	4
380.386	2
380.402	0
381.002	1
390.361	2
390.377	3
391.14	1
391.161	2
392.246	1
392.386	973
393.334	1
393.379	0
406.351	2
406.372	5
407.372	3
408.382	172
409.383	1
410.385	5
410.405	2
420.371	0
422.397	3
573.588	4
573.616	1
574.582	0
589.57	2
589.596	2
598.567	0
598.601	0
600.604	180
601.615	0
602.63	1
612.604	2
616.598	185
616.664	2
617.599	0
617.622	0
618.614	336
618.681	1
619.623	0
620.589	0
620.635	1
630.59	4
630.612	9
630.632	4
646.49	0
646.531	0
646.556	3
646.583	10
647.685	1
648.08	0
648.223	1
648.312	0
648.493	0
648.622	999
649.466	0
649.63	6
649.661	2
649.952	0
678.356	0
690.619	0
708.597	0
708.649	5
708.675	0
708.691	0
