Mass spectrum: PE(16:1e/15-HETE); LC-ESI-QTOF; MS2
Name: PE(16:1e/15-HETE)
Class: Oxidized Phospholipid
Formula: C41H74NO8P
Exact mass: 740.018
SMILES: CCCCCCCCCCCCCC\C=C/OCC(COP(O)(=O)OCCN)OC(=O)CCC\C=C/C\C=C/C\C=C/C=C/C(O)CCCCC
InChI: InChI=1S/C41H74NO8P/c1-3-5-7-8-9-10-11-12-13-17-20-23-26-30-35-47-37-40(38-49-51(45,46)48-36-34-42)50-41(44)33-29-25-22-19-16-14-15-18-21-24-28-32-39(43)31-27-6-4-2/h14-15,19,21-22,24,28,30,32,35,39-40,43H,3-13,16-18,20,23,25-27,29,31,33-34,36-38,42H2,1-2H3,(H,45,46)/b15-14-,22-19-,24-21-,32-28+,35-30-
Instrument: Acquity UPLC Peptide BEH C18 column (50 x 2.1 mm; 1.7 um), Sciex TripleTOF5600
Instrument type: LC-ESI-QTOF
Ms type: MS2
Ion mode: NEGATIVE
Collision energy: 30-50
Precursor m/z: 738.5079288
Precursor type: [M-H]-
m/z	relative intensity
78.95752	20
78.96003	20
78.96254	20
78.96379	20
113.0938	52
113.0953	20
113.0983	31
121.0977	20
121.0993	20
121.1024	20
121.1039	31
133.0993	20
140.0089	20
140.0106	41
175.14	31
175.1419	20
175.1438	41
175.1456	103
175.1475	134
175.1494	72
175.1512	62
175.1531	41
175.155	52
175.1568	31
175.1587	31
196.0314	41
196.0333	52
196.0353	41
196.0373	41
196.0393	52
196.0412	41
196.0432	20
196.0452	20
201.1273	20
203.1775	41
203.1876	41
205.129	20
219.1238	41
219.1259	52
219.128	72
219.1301	93
219.1322	93
219.1342	206
219.1363	165
219.1384	186
219.1405	123
219.1426	144
219.1447	83
219.1468	83
219.1489	93
219.153	20
239.236	20
239.2381	52
239.2403	20
239.2425	41
239.2469	31
257.2103	31
257.2126	20
257.2149	72
257.2171	62
257.2194	72
257.2216	155
257.2239	175
257.2262	93
257.2285	144
257.2307	144
257.233	103
257.2352	41
257.2375	93
257.2397	113
257.242	62
257.2443	31
257.2466	20
257.2511	20
275.2314	20
275.2338	21
275.2361	20
275.2385	20
275.2525	20
301.1784	21
301.1857	20
301.1906	31
301.1931	31
301.198	21
301.2004	63
301.2029	135
301.2053	189
301.2078	230
301.2102	261
301.2126	271
301.2151	292
301.2176	229
301.22	271
301.2225	260
301.2249	166
301.2274	63
301.2298	62
301.2323	21
301.2347	73
301.2372	73
301.2396	21
301.2469	21
301.2519	20
318.2003	21
318.223	20
318.2331	21
318.2507	21
319.2003	41
319.2029	65
319.2054	73
319.2079	97
319.2104	130
319.213	151
319.2155	310
319.218	375
319.2205	248
319.223	521
319.2255	526
319.2281	460
319.2306	617
319.2331	626
319.2356	394
319.2382	371
319.2407	240
319.2432	186
319.2457	97
319.2482	76
319.2508	44
319.2533	32
319.2558	32
319.2583	20
319.2634	20
319.894	11
320.0277	11
320.164	11
320.2297	20
320.2322	31
321.954	11
418.2433	20
418.2462	20
418.252	62
418.2548	41
418.2577	52
418.2606	31
418.2635	62
418.2664	52
418.2693	52
418.2721	113
418.275	83
418.2779	113
418.2808	103
418.2866	62
418.2895	41
418.2923	31
418.2952	20
420.8096	21
421.2612	21
436.2367	31
436.2485	21
436.2514	94
436.2544	63
436.2573	21
436.2603	73
436.2632	74
436.2662	135
436.2691	167
436.2721	210
436.275	145
436.278	179
436.2809	334
436.2838	282
436.2868	263
436.2898	200
436.2927	294
436.2957	210
436.2986	147
436.3015	105
436.3045	116
436.3074	42
436.3104	84
436.3133	20
436.3163	20
436.3281	20
737.6119	21
738.436	20
738.4398	31
738.4475	55
738.4514	65
738.4551	22
738.459	33
738.4628	181
738.4667	188
738.4705	235
738.4743	212
738.4781	305
738.482	403
738.4858	385
738.4897	565
738.4935	628
738.4973	593
738.5012	716
738.505	799
738.5089	722
738.5127	755
738.5165	774
738.5203	797
738.5242	999
738.528	544
738.5319	699
738.5357	456
738.5395	430
738.5433	365
738.5472	297
738.551	216
738.5549	125
738.5587	124
738.5625	68
738.5663	33
738.5702	45
738.574	22
738.5779	11
738.597	11
738.7427	12
738.8655	11
739.4754	20
739.4792	20
739.4869	31
739.4908	20
739.4946	20
739.5023	52
739.5099	20
739.5176	62
739.5215	31
739.5406	31
739.5445	20
739.5483	20
