Mass spectrum: PI 36:4; LC-ESI-QTOF; MS2
Name: PI 36:4
Class: PI
Formula: C45H79O13P
Exact mass: 859.0899999999999
SMILES: CCCCCCCCCCCCCCCC(=O)OCC(COP(O)(=O)OC1C(O)C(O)C(O)C(O)C1O)OC(=O)CCCCCC\C=C/C\C=C/C\C=C/C\C=C/CC
InChI: InChI=1S/C45H79O13P/c1-3-5-7-9-11-13-15-17-18-19-20-22-24-26-28-30-32-34-39(47)57-37(36-56-59(53,54)58-45-43(51)41(49)40(48)42(50)44(45)52)35-55-38(46)33-31-29-27-25-23-21-16-14-12-10-8-6-4-2/h5,7,11,13,17-18,20,22,37,40-45,48-52H,3-4,6,8-10,12,14-16,19,21,23-36H2,1-2H3,(H,53,54)/b7-5-,13-11-,18-17-,22-20-
Instrument: AB Sciex TripleTOF 5600+ system (Q-TOF) equipped with a DuoSpray ion source
Instrument type: LC-ESI-QTOF
Ms type: MS2
Ion mode: NEGATIVE
Collision energy: 45V
Column name: Acquity UPLC Peptide BEH C18 column (50*2.1 mm; 1.7 um; 130A)(Waters Co.,Milford, MA, USA)
Retention time: 8.301669
Precursor type: [M-H]-
Precursor m/z: 857.5197
m/z	relative intensity
78.958	7
96.969	2
134.984	0
152.53	0
152.996	17
171.004	0
177.09	0
191.107	0
204.992	0
205.126	0
205.195	2
217.192	0
223.0	34
225.191	0
231.213	1
240.272	0
241.011	141
254.443	0
255.232	158
259.021	12
259.23	2
259.243	15
285.221	1
295.904	0
297.037	25
299.62	0
301.225	0
302.287	0
302.335	0
303.232	195
303.267	0
315.012	0
315.047	11
390.014	0
391.224	102
392.222	0
409.234	11
439.221	10
439.244	2
457.233	0
470.998	0
472.618	0
478.127	0
481.134	0
497.248	1
501.583	0
502.324	0
507.189	0
515.573	0
551.537	0
552.875	0
553.275	116
554.324	0
571.254	2
571.285	28
601.269	21
601.313	0
619.273	2
619.309	0
695.44	0
695.465	0
695.483	0
797.674	0
854.763	1
854.812	2
854.839	2
854.895	0
855.411	0
856.333	0
856.512	0
856.575	0
857.102	0
857.309	0
857.397	0
857.513	999
857.625	1
858.247	0
858.38	0
858.499	1
858.53	2
858.574	0
858.716	0
