Mass spectrum: PE(18:1e/16,17-EpDPE); LC-ESI-QTOF; MS2
Name: PE(18:1e/16,17-EpDPE)
Class: Oxidized Phospholipid
Formula: C45H78NO8P
Exact mass: 792.094
SMILES: CCCCCCCCCCCCCCCC\C=C/OCC(COP(O)(=O)OCCN)OC(=O)CC\C=C/C\C=C/C\C=C/C\C=C/CC1OC1C\C=C/CC
InChI: InChI=1S/C45H78NO8P/c1-3-5-7-8-9-10-11-12-13-14-17-20-23-26-29-33-38-50-40-42(41-52-55(48,49)51-39-37-46)53-45(47)36-32-28-25-22-19-16-15-18-21-24-27-31-35-44-43(54-44)34-30-6-4-2/h6,16,18-19,21,25,27-28,30-31,33,38,42-44H,3-5,7-15,17,20,22-24,26,29,32,34-37,39-41,46H2,1-2H3,(H,48,49)/b19-16-,21-18-,28-25-,30-6-,31-27-,38-33-
Instrument: Acquity UPLC Peptide BEH C18 column (50 x 2.1 mm; 1.7 um), Sciex TripleTOF5600
Instrument type: LC-ESI-QTOF
Ms type: MS2
Ion mode: NEGATIVE
Collision energy: 30-50
Precursor m/z: 790.539229
Precursor type: [M-H]-
m/z	relative intensity
78.96161	16
78.96537	25
78.96788	16
83.05299	16
95.055	16
105.0758	16
109.0687	16
111.085	16
121.0639	16
121.0655	16
121.1043	25
133.1078	16
135.1209	16
140.006	25
140.0126	25
140.016	25
140.021	16
147.1211	25
147.1262	16
152.9939	16
161.1255	16
161.1327	16
161.1488	16
163.1179	16
168.038	16
168.0508	16
173.1351	16
173.1407	25
175.1442	16
175.1516	16
183.0746	16
187.152	16
189.1571	16
189.159	25
189.161	16
189.1629	25
189.1649	41
189.1668	25
189.1687	16
189.1726	33
189.1765	25
196.0278	25
196.0298	33
196.0318	41
196.0337	25
196.0357	33
196.0377	25
196.0397	25
196.0416	41
196.0436	25
196.0456	33
196.0495	16
201.1537	16
201.1557	25
201.1577	25
201.1617	65
201.1637	65
201.1657	33
201.1677	65
201.1697	48
201.1717	33
201.1737	33
201.1757	16
201.1857	16
203.1136	16
205.1254	16
205.3821	16
215.1386	16
215.151	16
224.0705	16
224.0726	16
224.079	16
227.1732	16
227.1754	25
227.1775	16
227.1796	16
227.1818	16
227.1839	16
227.1881	16
227.1903	16
227.1924	41
227.1945	16
227.1966	25
227.1988	41
227.2009	65
227.203	25
227.2052	41
227.2073	48
227.2094	56
229.1553	25
229.1575	25
229.1617	41
229.166	25
229.1724	16
231.1353	16
233.1367	16
233.1432	16
233.1453	48
233.1475	16
233.1496	89
233.1518	114
233.1539	122
233.1561	89
233.1583	154
233.1604	106
233.1626	48
233.1647	56
233.1669	48
233.169	16
233.1733	16
233.1776	16
234.1309	16
241.2089	25
241.2155	25
241.2177	16
245.1407	25
245.1452	25
245.1496	16
245.1518	48
245.154	41
245.1562	48
245.1584	25
245.1606	56
245.1628	41
245.1651	25
247.1707	16
247.1752	33
247.1774	25
251.1931	25
251.1976	33
251.1999	16
251.2133	16
251.2155	16
252.2005	41
252.2027	16
252.205	16
252.2139	49
253.1963	16
253.2008	33
253.2031	48
253.2053	89
253.2076	81
253.2098	106
253.2121	130
253.2143	269
253.2165	254
253.2188	270
253.221	146
253.2233	238
253.2255	197
253.2278	66
253.23	99
253.2323	57
253.2345	17
253.2435	25
253.2457	16
255.2165	16
255.2187	16
255.221	25
255.2233	65
255.2255	73
255.2278	81
255.23	97
255.2323	170
255.2345	137
255.2368	130
255.239	73
255.2413	73
255.2435	81
255.2458	56
255.248	33
255.2526	25
255.2548	25
256.2386	33
256.2409	25
256.2454	16
257.2153	16
257.2266	16
257.2334	16
261.1518	16
261.1564	25
267.2314	16
267.2361	33
267.2384	25
267.243	25
267.2637	25
267.2661	25
267.2683	25
267.2707	33
267.2729	65
267.2753	25
267.2799	16
273.1361	16
273.1385	16
273.1455	33
273.1501	16
273.1548	16
274.1351	16
274.1398	25
274.1421	16
274.1468	16
274.1491	25
274.1515	65
274.1538	48
274.1561	89
274.1584	106
274.1608	97
274.1631	65
274.1655	89
274.1678	25
274.1701	16
274.1725	33
274.1748	33
274.1772	16
277.2181	16
281.2143	41
281.2167	56
281.2191	73
281.2214	65
281.2238	73
281.2262	155
281.2285	114
281.2309	122
281.2332	138
281.2356	114
281.238	65
281.2404	98
281.2427	139
281.2451	82
281.2475	99
281.2498	114
281.2522	89
281.2545	89
281.2569	65
281.2593	73
281.2617	48
281.2735	16
282.2469	16
283.2529	16
283.2576	16
283.2624	16
283.2647	25
283.2671	16
283.2719	25
284.2678	16
284.2701	25
299.2181	16
299.2255	16
299.2303	33
299.2328	25
299.2352	16
299.2377	65
299.2401	56
299.2426	16
299.245	56
299.2474	33
299.2499	16
299.2694	16
301.2057	33
301.2082	25
301.2155	33
301.218	16
301.2204	56
301.2253	25
301.2278	25
301.2302	25
325.1955	16
325.2006	41
325.2031	16
325.2056	33
325.2082	25
325.2107	81
325.2133	81
325.2158	56
325.2184	65
325.2209	41
325.2234	56
325.226	48
325.2285	25
325.2336	16
327.2342	25
327.2469	16
328.2406	17
328.2483	17
329.2614	17
342.1402	17
343.1718	17
343.1954	17
343.2006	33
343.2032	33
343.2058	83
343.2084	83
343.2111	142
343.2137	194
343.2163	187
343.2189	220
343.2215	253
343.2241	415
343.2267	381
343.2293	388
343.232	414
343.2346	245
343.2372	295
343.2398	219
343.2424	193
343.245	134
343.2477	85
343.2503	42
343.2529	51
343.2555	17
343.2581	25
343.2607	42
343.2633	25
343.2659	25
343.2712	9
344.2286	16
344.2443	16
345.2372	16
345.2398	16
345.2477	16
345.2582	16
345.2608	16
403.2514	25
403.2543	25
403.2599	16
403.2684	25
403.2713	33
403.2769	16
413.6796	16
420.2544	16
421.2616	16
444.2926	16
446.2636	16
446.2726	16
446.2755	16
446.2785	16
446.2815	25
446.2845	33
446.2875	56
446.2905	33
446.2934	48
446.2964	137
446.2994	89
446.3024	73
446.3054	130
446.3083	170
446.3113	114
446.3143	89
446.3173	81
446.3203	56
446.3232	56
446.3262	65
446.3292	16
446.3352	16
460.2858	16
462.2919	16
462.304	25
462.3071	33
462.8624	33
463.3938	17
464.2781	17
464.2811	25
464.2842	42
464.2872	84
464.2903	68
464.2933	126
464.2963	202
464.2994	221
464.3024	222
464.3055	289
464.3085	349
464.3116	376
464.3146	385
464.3176	470
464.3206	350
464.3237	435
464.3268	350
464.3298	316
464.3328	171
464.3358	153
464.3389	163
464.3419	68
464.345	110
464.348	93
464.3511	25
464.3571	9
464.3602	17
464.3784	17
465.1937	9
466.2533	9
480.2899	16
480.2961	16
480.3084	33
480.3146	33
480.3177	16
506.3424	16
522.2739	16
703.4856	16
703.5043	25
703.5081	16
703.5156	16
703.5305	16
715.497	17
716.4673	66
716.4711	65
716.4748	33
716.4786	65
716.4824	25
716.4861	49
716.4899	172
716.4937	91
716.4975	108
716.5013	83
716.505	83
716.5088	192
716.5126	167
716.5164	274
716.5201	234
716.5239	292
716.5277	327
716.5315	252
716.5353	192
716.539	201
716.5428	126
716.5466	218
716.5504	152
716.5541	117
716.5579	150
716.5617	92
716.5654	17
716.5692	49
716.573	25
716.5768	25
731.4821	9
788.0161	16
790.3825	16
790.4619	16
790.4658	25
790.4698	25
790.4777	16
790.4857	33
790.4896	74
790.4936	9
790.4976	200
790.5015	234
790.5055	223
790.5095	375
790.5134	370
790.5174	491
790.5214	675
790.5253	649
790.5293	753
790.5333	999
790.5372	932
790.5412	958
790.5452	923
790.5491	916
790.5531	974
790.5571	941
790.561	838
790.565	848
790.569	766
790.5729	637
790.5769	407
790.5809	512
790.5848	227
790.5888	217
790.5928	113
790.5967	151
790.6007	76
790.6047	67
790.6086	37
790.6126	10
790.6166	18
790.6245	19
790.6324	10
791.1563	10
791.5015	16
791.5055	33
791.5134	25
791.5174	25
791.5214	25
791.5253	33
791.5293	16
791.5333	25
791.5413	41
791.5452	16
791.5492	41
791.5532	33
791.5611	33
791.5651	25
791.573	33
791.5809	16
791.5849	33
791.5889	25
791.6166	16
