Mass spectrum: PE(16:0/5-HEPE); LC-ESI-QTOF; MS2
Name: PE(16:0/5-HEPE)
Class: Oxidized Phospholipid
Formula: C41H72NO9P
Exact mass: 754.001
SMILES: CCCCCCCCCCCCCCCC(=O)OCC(COP(O)(=O)OCCN)OC(=O)CCCC(O)\C=C\C=C/C\C=C/C\C=C/C\C=C/CC
InChI: InChI=1S/C41H72NO9P/c1-3-5-7-9-11-13-15-17-19-21-23-25-27-30-38(43)31-29-33-41(45)51-39(37-50-52(46,47)49-35-34-42)36-48-40(44)32-28-26-24-22-20-18-16-14-12-10-8-6-4-2/h5,7,11,13,17,19,23,25,27,30,38-39,43H,3-4,6,8-10,12,14-16,18,20-22,24,26,28-29,31-37,42H2,1-2H3,(H,46,47)/b7-5-,13-11-,19-17-,25-23-,30-27+
Instrument: Acquity UPLC Peptide BEH C18 column (50 x 2.1 mm; 1.7 um), Sciex TripleTOF5600
Instrument type: LC-ESI-QTOF
Ms type: MS2
Ion mode: NEGATIVE
Collision energy: 30-50
Precursor m/z: 752.4871934
Precursor type: [M-H]-
m/z	relative intensity
78.95817	31
78.96068	22
78.96319	22
78.96569	31
107.0904	22
109.1016	22
115.034	31
115.0355	96
115.037	231
115.0385	83
115.04	148
115.0415	126
115.043	136
115.0446	96
115.0461	43
115.0476	31
115.0491	22
115.0521	22
115.0552	22
140.0015	22
140.0048	22
140.0081	31
140.0098	22
140.0132	22
140.0148	31
140.0182	31
140.0232	22
140.0265	22
149.1325	22
149.136	22
149.1394	22
152.998	22
156.5261	22
163.1419	22
163.1455	22
163.1473	31
163.1509	22
163.1545	22
167.0724	22
196.0265	22
196.0285	31
196.0305	43
196.0325	62
196.0344	74
196.0364	22
196.0384	52
196.0404	52
196.0423	52
196.0443	52
196.0463	22
196.0483	22
196.0502	22
201.1564	43
201.1584	52
201.1604	43
201.1624	31
201.1644	96
201.1664	22
201.1684	74
201.1704	43
201.1724	31
201.1744	22
201.1784	22
203.1847	22
214.0377	22
214.0439	31
214.048	22
214.0501	22
221.1598	31
253.204	31
253.2062	22
253.2085	22
253.2107	43
253.213	22
253.2152	22
253.2174	52
253.2197	22
253.2219	43
253.2242	31
253.2264	22
253.2309	22
253.2354	22
254.4313	22
255.1949	22
255.1971	31
255.1994	62
255.2016	96
255.2039	170
255.2061	361
255.2084	327
255.2106	432
255.2129	435
255.2151	456
255.2174	296
255.2197	370
255.2219	435
255.2242	604
255.2264	777
255.2287	697
255.2309	629
255.2332	725
255.2354	700
255.2377	694
255.2399	410
255.2422	240
255.2444	219
255.2467	179
255.2489	166
255.2512	105
255.2535	62
255.2557	43
255.258	22
255.2715	22
258.0337	22
273.2164	22
281.2343	22
281.2366	31
281.2413	22
281.2461	22
281.2484	62
281.2508	31
281.2532	22
281.2579	22
281.2603	22
298.2729	22
299.1801	22
299.1826	31
299.185	74
299.1875	52
299.1899	126
299.1924	200
299.1948	210
299.1972	136
299.1996	231
299.2021	188
299.2045	219
299.207	136
299.2094	166
299.2119	83
299.2143	43
299.2167	74
299.2192	22
299.2216	22
299.2241	22
299.2265	22
316.2266	22
317.1808	31
317.1858	31
317.1883	22
317.1908	22
317.1933	74
317.1959	74
317.1984	188
317.2009	157
317.2034	253
317.2059	271
317.2084	293
317.2109	231
317.2134	262
317.216	314
317.2185	157
317.221	219
317.2235	83
317.226	74
317.2285	114
317.231	43
317.2336	43
317.2436	31
434.2574	22
434.2633	22
434.2663	22
434.2692	22
434.2721	22
452.2524	31
452.2554	62
452.2584	74
452.2614	96
452.2644	105
452.2674	114
452.2704	179
452.2734	126
452.2764	219
452.2794	219
452.2824	148
452.2854	179
452.2884	105
452.2914	210
452.2944	74
452.2974	96
452.3004	62
452.3034	22
452.3064	22
452.3184	22
496.2195	22
514.2743	22
734.4793	22
750.125	22
750.1366	22
752.4106	22
752.4183	31
752.4222	52
752.4261	22
752.43	62
752.4338	160
752.4377	182
752.4416	148
752.4454	299
752.4493	247
752.4532	410
752.457	342
752.4609	472
752.4648	583
752.4687	712
752.4725	746
752.4764	749
752.4803	768
752.4841	882
752.488	999
752.4919	934
752.4958	860
752.4996	879
752.5035	839
752.5074	715
752.5112	654
752.5151	684
752.519	435
752.5229	444
752.5267	358
752.5306	237
752.5345	173
752.5383	96
752.5422	96
752.5461	74
752.55	52
752.5538	22
752.5732	31
752.577	31
753.5063	22
