Mass spectrum: Cer[AP] t40:0; LC-ESI-QTOF; MS2
Name: Cer[AP] t40:0
Class: Cer_AP
Formula: C40H81NO5
Exact mass: 656.0899999999999
SMILES: CCCCCCCCCCCCCCCCCCCCC(O)C(=O)NC(CO)C(O)C(O)CCCCCCCCCCCCCC
InChI: InChI=1S/C40H81NO5/c1-3-5-7-9-11-13-15-17-18-19-20-21-22-24-26-28-30-32-34-38(44)40(46)41-36(35-42)39(45)37(43)33-31-29-27-25-23-16-14-12-10-8-6-4-2/h36-39,42-45H,3-35H2,1-2H3,(H,41,46)
Instrument: AB Sciex TripleTOF 5600+ system (Q-TOF) equipped with a DuoSpray ion source
Instrument type: LC-ESI-QTOF
Ms type: MS2
Ion mode: NEGATIVE
Collision energy: 45V
Column name: Acquity UPLC Peptide BEH C18 column (50*2.1 mm; 1.7 um; 130A)(Waters Co.,Milford, MA, USA)
Retention time: 12.38849
Precursor type: [M+CH3COOH-H]-
Precursor m/z: 714.6228
m/z	relative intensity
88.041	1
141.016	3
223.014	2
225.225	4
241.221	3
253.217	4
255.232	30
267.233	31
268.263	2
278.248	2
279.233	5
280.261	4
284.26	14
305.024	3
308.256	4
309.316	100
316.281	9
337.308	24
339.327	3
350.344	10
354.336	25
354.352	3
355.32	136
362.346	7
380.35	18
382.37	1
386.938	1
387.026	3
392.355	2
396.344	9
398.361	81
410.361	61
468.938	1
550.874	1
588.564	4
606.584	1
618.57	7
618.598	5
622.569	7
622.602	1
624.587	2
636.562	2
636.595	11
636.628	2
652.535	3
654.388	1
654.602	999
654.678	2
654.723	3
655.595	2
714.486	1
