Mass spectrum: PG 36:3; LC-ESI-QTOF; MS2
Name: PG 36:3
Class: PG
Formula: C42H77O10P
Exact mass: 773.044
SMILES: CCCCCCCC\C=C/CCCCCCCC(=O)OCC(COP(O)(=O)OCC(O)CO)OC(=O)CCCCCCC\C=C/C\C=C/CCCCC
InChI: InChI=1S/C42H77O10P/c1-3-5-7-9-11-13-15-17-19-21-23-25-27-29-31-33-41(45)49-37-40(38-51-53(47,48)50-36-39(44)35-43)52-42(46)34-32-30-28-26-24-22-20-18-16-14-12-10-8-6-4-2/h12,14,17-20,39-40,43-44H,3-11,13,15-16,21-38H2,1-2H3,(H,47,48)/b14-12-,19-17-,20-18-
Instrument: AB Sciex TripleTOF 5600+ system (Q-TOF) equipped with a DuoSpray ion source
Instrument type: LC-ESI-QTOF
Ms type: MS2
Ion mode: NEGATIVE
Collision energy: 45V
Column name: Acquity UPLC Peptide BEH C18 column (50*2.1 mm; 1.7 um; 130A)(Waters Co.,Milford, MA, USA)
Retention time: 8.174149
Precursor type: [M-H]-
Precursor m/z: 771.5206
m/z	relative intensity
152.991	9
177.37	1
253.214	4
255.235	4
261.222	2
278.363	4
279.195	3
279.231	959
280.367	7
281.002	2
281.247	999
282.233	2
303.229	0
305.243	3
307.257	1
317.209	0
318.214	1
415.225	5
417.232	3
435.258	2
489.245	5
489.266	7
489.312	0
491.266	5
491.29	3
497.22	0
507.255	5
507.281	6
509.278	8
509.313	2
556.642	1
697.906	0
753.49	2
769.075	3
769.122	1
770.755	0
770.833	0
771.191	1
771.513	875
772.523	3
