Mass spectrum: PC 40:0; LC-ESI-QTOF; MS2
Name: PC 40:0
Class: PC
Formula: C48H96NO8P
Exact mass: 846.271
SMILES: CCCCCCCCCCCCCCCCCCCCCCCC(=O)OC(COC(=O)CCCCCCCCCCCCCCC)COP([O-])(=O)OCC[N+](C)(C)C
InChI: InChI=1S/C48H96NO8P/c1-6-8-10-12-14-16-18-20-21-22-23-24-25-26-27-29-31-33-35-37-39-41-48(51)57-46(45-56-58(52,53)55-43-42-49(3,4)5)44-54-47(50)40-38-36-34-32-30-28-19-17-15-13-11-9-7-2/h46H,6-45H2,1-5H3
Instrument: AB Sciex TripleTOF 5600+ system (Q-TOF) equipped with a DuoSpray ion source
Instrument type: LC-ESI-QTOF
Ms type: MS2
Ion mode: NEGATIVE
Collision energy: 45V
Column name: Acquity UPLC Peptide BEH C18 column (50*2.1 mm; 1.7 um; 130A)(Waters Co.,Milford, MA, USA)
Retention time: 13.26266
Precursor type: [M+CH3COOH-H]-
Precursor m/z: 904.6999
m/z	relative intensity
141.026	3
151.474	3
168.042	10
224.069	9
227.2	4
237.224	3
255.231	412
283.256	11
283.266	23
311.292	36
331.261	3
339.322	91
353.336	2
359.298	3
365.33	2
367.354	347
368.965	2
395.401	3
410.994	2
480.314	14
503.334	3
508.347	3
532.971	3
536.369	4
565.477	5
574.42	8
576.989	3
592.428	25
592.472	5
629.517	2
630.515	2
648.618	8
648.665	3
664.666	4
666.633	2
682.637	2
692.647	5
822.647	9
828.059	8
830.595	12
830.656	999
830.684	270
830.731	16
831.642	8
844.636	4
844.7	14
844.728	14
845.575	4
845.643	6
857.704	7
858.726	5
904.539	2
904.637	17
904.671	70
904.698	69
904.721	40
904.775	8
