Mass spectrum: PS(18:0/8,9-EpETE); LC-ESI-QTOF; MS2
Name: PS(18:0/8,9-EpETE)
Class: Oxidized Phospholipid
Formula: C44H76NO11P
Exact mass: 826.064
SMILES: CCCCCCCCCCCCCCCCCC(=O)OCC(COP(O)(=O)OCC(N)C(O)=O)OC(=O)CCC\C=C/CC1OC1C\C=C/C\C=C/C\C=C/CC
InChI: InChI=1S/C44H76NO11P/c1-3-5-7-9-11-13-14-15-16-17-18-20-22-24-29-33-42(46)52-35-38(36-53-57(50,51)54-37-39(45)44(48)49)55-43(47)34-30-26-25-28-32-41-40(56-41)31-27-23-21-19-12-10-8-6-4-2/h6,8,12,19,23,25,27-28,38-41H,3-5,7,9-11,13-18,20-22,24,26,29-37,45H2,1-2H3,(H,48,49)(H,50,51)/b8-6-,19-12-,27-23-,28-25-
Instrument: Acquity UPLC Peptide BEH C18 column (50 x 2.1 mm; 1.7 um), Sciex TripleTOF5600
Instrument type: LC-ESI-QTOF
Ms type: MS2
Ion mode: NEGATIVE
Collision energy: 30-50
Precursor m/z: 824.5083228
Precursor type: [M-H]-
m/z	relative intensity
78.9519	10
78.95439	31
78.95564	31
78.95688	52
78.95813	98
78.95937	63
78.96062	31
78.96187	10
78.9656	10
78.97184	10
96.95765	10
96.9618	10
96.96594	10
96.97008	10
105.6528	10
105.6543	10
127.0696	10
127.0712	10
127.0759	10
127.0775	10
134.9769	10
134.9785	10
134.9834	10
134.9883	10
149.1277	10
149.1328	10
152.5226	10
152.5278	10
152.9802	10
152.9819	31
152.9837	21
152.9854	31
152.9871	80
152.9889	122
152.9906	117
152.9923	99
152.9941	155
152.9958	180
152.9975	178
152.9993	113
153.001	89
153.0027	10
153.0062	10
153.0079	21
155.0445	10
155.055	10
155.0602	10
155.0689	21
155.0707	10
155.0724	10
167.062	10
167.0638	10
167.0657	21
167.0693	21
167.0711	10
170.7256	10
170.7311	10
171.0061	10
171.0116	10
174.2752	10
174.2771	10
177.1196	10
177.1289	10
189.132	21
190.1421	10
190.144	10
233.0483	10
233.0505	10
255.1973	21
255.2018	21
255.2085	31
255.2108	31
255.2264	10
261.4413	10
261.4572	10
279.2298	10
279.2368	10
280.2361	10
280.2431	10
282.372	10
282.3909	10
283.2376	10
283.2423	10
283.2447	55
283.247	64
283.2494	142
283.2518	178
283.2541	202
283.2565	422
283.2589	605
283.2612	422
283.2636	599
283.2659	349
283.2683	230
283.2707	216
283.273	109
283.2754	117
283.2777	72
283.2801	41
283.2825	56
283.2848	10
283.3368	10
283.3438	10
287.2384	10
287.2597	10
290.4491	10
290.4897	10
290.8389	10
290.8819	10
299.1857	10
299.1954	10
299.1978	10
299.2027	21
299.2076	10
307.4883	10
307.4908	10
316.6229	10
316.6353	10
316.6753	10
317.1846	10
317.1896	10
317.1946	10
317.1971	31
317.1996	73
317.2021	52
317.2046	60
317.2071	74
317.2096	75
317.2121	86
317.2146	76
317.2171	60
317.2196	52
317.2221	31
317.2246	10
317.2271	10
317.2296	10
407.5925	10
407.6038	10
409.2251	10
409.2421	10
409.2534	10
417.5517	10
417.5603	10
419.2156	10
419.2213	10
419.2271	21
419.2299	51
419.2328	51
419.2357	70
419.2385	115
419.2414	77
419.2443	246
419.2472	205
419.25	354
419.2529	365
419.2558	347
419.2586	275
419.2615	349
419.2644	216
419.2673	103
419.2701	69
419.273	130
419.2759	31
419.2787	21
419.2816	10
419.2845	21
419.2931	10
419.7211	10
419.7297	10
421.208	10
421.2425	10
421.7954	10
421.7982	10
427.1671	10
427.1787	10
429.5271	10
429.53	10
437.2351	10
437.241	31
437.2439	10
437.2469	61
437.2498	67
437.2527	52
437.2556	113
437.2586	120
437.2615	152
437.2644	149
437.2674	100
437.2703	74
437.2733	78
437.2762	52
437.2791	52
437.282	42
437.285	42
437.2879	42
437.2909	21
437.3026	10
453.1703	21
453.1733	10
453.1793	10
453.1852	10
453.1882	10
453.1912	31
453.1942	21
453.1972	63
453.2002	59
453.2032	63
453.2061	92
453.2091	63
453.2121	42
453.2151	55
453.2211	21
453.2241	21
453.2271	10
453.23	10
464.2725	10
464.2816	10
466.0179	10
466.03	10
471.1883	10
471.1913	10
471.1944	10
471.2005	10
471.2035	10
471.2065	21
471.2096	10
471.2126	10
471.2157	10
471.2248	10
475.4418	21
478.6	10
478.603	10
493.815	31
493.8212	10
540.2234	10
540.2266	10
540.2397	10
552.2499	10
552.2631	10
605.467	10
605.4739	10
735.1474	10
735.1588	10
735.1931	10
737.4118	10
737.4232	30
737.427	20
737.4308	10
737.4346	58
737.4384	89
737.4423	58
737.446	136
737.4499	127
737.4537	294
737.4575	227
737.4613	485
737.4651	546
737.4689	707
737.4727	737
737.4765	743
737.4803	632
737.4841	585
737.488	381
737.4918	313
737.4955	235
737.4994	215
737.5032	140
737.507	73
737.5108	102
737.5146	51
737.5184	51
737.5222	20
737.5261	20
737.5298	10
737.5336	10
737.686	10
737.7089	10
750.4678	10
750.4794	10
821.8754	10
821.9116	10
821.9317	10
822.9373	10
822.9976	10
823.0821	10
823.1586	10
824.3461	10
824.4266	10
824.4387	10
824.4467	20
824.4548	20
824.4588	50
824.4628	41
824.4669	10
824.4709	99
824.4749	128
824.4789	158
824.483	295
824.487	268
824.491	570
824.4951	564
824.4991	871
824.5031	778
824.5071	999
824.5112	817
824.5152	880
824.5192	619
824.5233	531
824.5273	314
824.5313	299
824.5353	163
824.5394	165
824.5434	94
824.5474	57
824.5515	50
824.5555	50
824.5595	10
824.5635	10
824.5676	10
824.6078	10
825.5062	10
825.5787	10
828.9027	21
828.9431	10
836.187	10
836.2194	10
