Mass spectrum: PI(16:0/8-HEPE); LC-ESI-QTOF; MS2
Name: PI(16:0/8-HEPE)
Class: Oxidized Phospholipid
Formula: C45H77O14P
Exact mass: 873.073
SMILES: CCCCCCCCCCCCCCCC(=O)OCC(COP(O)(=O)OC1C(O)C(O)C(O)C(O)C1O)OC(=O)CCC\C=C/CC(O)\C=C\C=C/C\C=C/C\C=C/CC
InChI: InChI=1S/C45H77O14P/c1-3-5-7-9-11-13-15-16-17-19-21-23-28-32-38(47)56-34-37(35-57-60(54,55)59-45-43(52)41(50)40(49)42(51)44(45)53)58-39(48)33-29-25-24-27-31-36(46)30-26-22-20-18-14-12-10-8-6-4-2/h6,8,12,14,20,22,24,26-27,30,36-37,40-46,49-53H,3-5,7,9-11,13,15-19,21,23,25,28-29,31-35H2,1-2H3,(H,54,55)/b8-6-,14-12-,22-20-,27-24-,30-26+
Instrument: Acquity UPLC Peptide BEH C18 column (50 x 2.1 mm; 1.7 um), Sciex TripleTOF5600
Instrument type: LC-ESI-QTOF
Ms type: MS2
Ion mode: NEGATIVE
Collision energy: 30-50
Precursor m/z: 871.4978177
Precursor type: [M-H]-
m/z	relative intensity
78.96417	18
127.0767	12
152.9872	12
152.9924	18
152.9942	12
152.9977	12
152.9994	18
153.0011	18
155.064	12
155.0675	18
155.071	18
155.0745	18
155.0833	12
161.1365	12
190.1348	12
222.993	18
222.9951	12
222.9972	18
222.9993	18
223.0014	35
223.0035	24
223.0056	18
223.0077	12
240.9947	12
240.9969	24
240.9991	65
241.0013	53
241.0035	89
241.0057	95
241.0078	65
241.01	83
241.0122	71
241.0144	95
241.0166	77
241.0188	77
241.021	35
241.0232	18
241.0254	24
241.0276	18
241.0319	12
255.2013	12
255.2035	18
255.2058	24
255.208	18
255.2103	12
255.2125	12
255.2148	41
255.217	24
255.2193	35
255.2215	48
255.2238	71
255.226	53
255.2283	83
255.2306	24
255.2328	59
255.2351	83
255.2373	89
255.2396	71
255.2418	48
255.2463	12
255.2509	12
259.018	12
259.0225	12
259.0248	12
259.0316	18
297.0335	30
297.036	12
297.0384	18
297.0408	12
297.0433	18
297.0457	18
299.1871	12
299.192	12
299.1944	12
299.2018	24
299.2042	35
299.209	35
299.2115	18
299.214	12
317.198	12
317.2005	12
317.203	35
317.2055	30
317.2081	30
317.2106	53
317.2131	24
317.2156	35
317.2181	30
317.2206	65
317.2231	18
317.2256	12
317.2281	12
391.2084	12
409.2245	12
453.1827	18
453.1857	41
453.1887	35
453.1917	18
453.1947	35
453.1977	41
453.2007	48
453.2037	48
453.2067	65
453.2097	41
453.2127	24
453.2157	30
453.2188	41
453.2217	35
453.2248	18
453.2278	30
471.2032	18
471.2063	12
471.2155	12
471.2308	18
519.3066	12
519.3098	12
553.2747	18
553.2846	12
553.2946	24
615.2143	12
615.2283	18
615.2318	35
615.2353	18
615.2388	48
615.2423	48
615.2458	18
615.2493	48
615.2528	59
615.2563	71
615.2598	113
615.2633	83
615.2668	59
615.2703	35
615.2738	41
615.2773	41
615.2808	35
615.2843	41
615.2878	18
615.2913	30
615.2948	24
615.3088	12
625.2924	12
625.3065	12
633.2348	18
633.249	18
633.2596	12
633.2667	24
633.2739	12
680.3512	12
680.3954	12
763.4266	12
868.7308	12
868.7516	24
868.764	12
868.7973	12
871.4069	12
871.411	12
871.4152	18
871.4235	12
871.4277	19
871.4319	13
871.436	26
871.4402	46
871.4443	46
871.4485	67
871.4527	76
871.4568	198
871.461	149
871.4652	341
871.4694	270
871.4735	400
871.4777	446
871.4819	614
871.486	723
871.4902	813
871.4943	724
871.4985	724
871.5027	696
871.5068	999
871.511	908
871.5152	832
871.5193	871
871.5235	759
871.5276	765
871.5319	470
871.536	420
871.5402	364
871.5443	284
871.5485	250
871.5527	241
871.5568	193
871.561	71
871.5652	72
871.5693	98
871.5735	34
871.5776	63
871.5818	13
871.586	20
871.5901	7
871.5943	13
871.5984	20
871.6027	12
871.6235	12
871.8151	8
872.4777	18
872.4818	12
872.486	12
872.4901	18
872.5026	24
872.5068	30
872.511	18
872.5151	18
872.5235	12
872.5276	18
872.5318	24
872.536	18
872.5402	24
872.5443	12
872.5485	24
872.5527	18
872.5568	12
