Mass spectrum: PI 37:5; LC-ESI-QTOF; MS2
Name: PI 37:5
Class: PI
Formula: C46H79O13P
Exact mass: 871.1009999999999
SMILES: CCCCCCCCCCCCCCCCC(=O)OCC(COP(O)(=O)OC1C(O)C(O)C(O)C(O)C1O)OC(=O)CCC\C=C/C\C=C/C\C=C/C\C=C/C\C=C/CC
InChI: InChI=1S/C46H79O13P/c1-3-5-7-9-11-13-15-17-19-20-21-23-25-27-29-31-33-35-40(48)58-38(37-57-60(54,55)59-46-44(52)42(50)41(49)43(51)45(46)53)36-56-39(47)34-32-30-28-26-24-22-18-16-14-12-10-8-6-4-2/h5,7,11,13,17,19,21,23,27,29,38,41-46,49-53H,3-4,6,8-10,12,14-16,18,20,22,24-26,28,30-37H2,1-2H3,(H,54,55)/b7-5-,13-11-,19-17-,23-21-,29-27-
Instrument: AB Sciex TripleTOF 5600+ system (Q-TOF) equipped with a DuoSpray ion source
Instrument type: LC-ESI-QTOF
Ms type: MS2
Ion mode: NEGATIVE
Collision energy: 45V
Column name: Acquity UPLC Peptide BEH C18 column (50*2.1 mm; 1.7 um; 130A)(Waters Co.,Milford, MA, USA)
Retention time: 8.259072
Precursor type: [M-H]-
Precursor m/z: 869.5164
m/z	relative intensity
100.933	39
223.0	26
241.012	106
255.233	26
256.236	42
257.225	26
269.251	119
301.212	119
303.231	26
405.241	79
481.341	26
494.349	79
495.358	13
503.289	26
567.279	79
567.301	79
707.462	42
795.522	53
837.468	39
851.57	79
858.52	95
869.495	759
869.521	999
869.552	199
869.592	93
