Mass spectrum: PE(18:1e/12-HETE); LC-ESI-QTOF; MS2
Name: PE(18:1e/12-HETE)
Class: Oxidized Phospholipid
Formula: C43H78NO8P
Exact mass: 768.072
SMILES: CCCCCCCCCCCCCCCC\C=C/OCC(COP(O)(=O)OCCN)OC(=O)CCC\C=C/C\C=C/C=C/C(O)C\C=C/CCCCC
InChI: InChI=1S/C43H78NO8P/c1-3-5-7-9-11-12-13-14-15-16-17-18-21-24-28-32-37-49-39-42(40-51-53(47,48)50-38-36-44)52-43(46)35-31-27-23-20-19-22-26-30-34-41(45)33-29-25-10-8-6-4-2/h20,22-23,25-26,29-30,32,34,37,41-42,45H,3-19,21,24,27-28,31,33,35-36,38-40,44H2,1-2H3,(H,47,48)/b23-20-,26-22-,29-25-,34-30+,37-32-
Instrument: Acquity UPLC Peptide BEH C18 column (50 x 2.1 mm; 1.7 um), Sciex TripleTOF5600
Instrument type: LC-ESI-QTOF
Ms type: MS2
Ion mode: NEGATIVE
Collision energy: 30-50
Precursor m/z: 766.539229
Precursor type: [M-H]-
m/z	relative intensity
78.96708	43
140.01	67
140.0117	43
163.1079	43
163.1097	43
163.1115	67
179.094	43
179.0997	67
179.1016	88
179.1035	67
179.1054	131
179.1073	220
179.1091	131
179.111	67
179.1129	67
179.1148	43
179.1167	110
179.1186	67
196.0328	67
203.175	43
203.181	43
208.1017	43
208.1098	67
208.1119	67
228.1964	43
253.2111	43
253.2133	43
253.2178	43
253.2223	67
255.2313	67
255.2336	43
257.2098	43
257.2211	88
257.2234	67
257.2256	88
257.2279	110
257.2301	43
257.2324	43
257.2346	110
257.2369	43
267.2605	43
301.1974	43
301.2072	110
301.2097	67
301.2121	177
301.2145	110
301.217	177
301.2195	88
301.2219	153
301.2244	67
301.2268	67
301.2292	43
301.2317	88
301.2366	45
318.2325	45
319.0258	45
319.1998	45
319.2048	88
319.2073	133
319.2099	133
319.2124	177
319.2149	377
319.2174	510
319.2199	577
319.2225	624
319.225	758
319.2275	624
319.23	581
319.2325	424
319.2351	379
319.2376	379
319.2401	291
319.2426	179
319.2451	88
319.2477	155
319.2502	88
319.2527	88
347.2579	67
446.2718	43
446.2956	43
446.2986	43
446.3016	88
446.3045	43
446.3075	88
446.3105	67
446.3135	153
446.3165	110
446.3195	67
446.3254	110
464.2925	43
464.2986	110
464.3016	43
464.3047	153
464.3077	88
464.3107	198
464.3138	263
464.3168	220
464.3199	263
464.3229	67
464.3259	198
464.329	177
464.332	43
464.3351	88
464.3381	67
464.3412	43
464.3442	67
766.4015	45
766.4718	88
766.4913	67
766.4952	224
766.4991	226
766.5031	321
766.507	252
766.5109	388
766.5148	411
766.5187	482
766.5226	368
766.5265	782
766.5304	650
766.5343	764
766.5382	999
766.5421	816
766.546	810
766.5499	997
766.5538	928
766.5577	812
766.5616	672
766.5656	788
766.5695	743
766.5734	586
766.5773	323
766.5812	327
766.5851	349
766.589	138
766.5929	209
766.5968	114
766.6007	24
766.6046	116
767.136	24
