Mass spectrum: Cer[NS] d42:4; LC-ESI-QTOF; MS2
Name: Cer[NS] d42:4
Class: Cer_NS
Formula: C42H77NO3
Exact mass: 644.0819999999999
SMILES: CCCCCCCCC\C=C\CC\C=C\C(O)C(CO)NC(=O)CCCCCCCCCCCCCCCC\C=C/C\C=C/CC
InChI: InChI=1S/C42H77NO3/c1-3-5-7-9-11-13-15-17-18-19-20-21-22-23-24-26-28-30-32-34-36-38-42(46)43-40(39-44)41(45)37-35-33-31-29-27-25-16-14-12-10-8-6-4-2/h5,7,11,13,27,29,35,37,40-41,44-45H,3-4,6,8-10,12,14-26,28,30-34,36,38-39H2,1-2H3,(H,43,46)/b7-5-,13-11-,29-27+,37-35+
Instrument: AB Sciex TripleTOF 5600+ system (Q-TOF) equipped with a DuoSpray ion source
Instrument type: LC-ESI-QTOF
Ms type: MS2
Ion mode: NEGATIVE
Collision energy: 45V
Column name: Acquity UPLC Peptide BEH C18 column (50*2.1 mm; 1.7 um; 130A)(Waters Co.,Milford, MA, USA)
Retention time: 11.40854
Precursor type: [M+CH3COOH-H]-
Precursor m/z: 702.5989
m/z	relative intensity
141.013	1
216.999	8
219.207	1
232.962	2
233.213	3
235.205	76
237.228	2
246.979	4
248.242	5
255.229	3
261.22	57
264.233	9
266.236	1
266.252	11
283.263	1
296.26	4
314.971	4
327.294	2
328.973	4
345.313	56
361.343	2
362.337	61
363.29	1
363.31	18
363.328	48
363.354	2
368.989	1
374.992	10
386.351	1
388.354	390
396.965	2
402.329	3
404.348	57
406.359	2
410.975	2
567.547	1
583.528	1
594.517	2
594.545	30
594.564	13
594.583	10
610.529	14
610.555	43
612.518	7
612.538	11
612.566	80
612.596	12
624.548	3
624.578	2
640.526	2
640.573	1
642.502	5
642.575	999
643.576	3
700.905	0
702.4	0
702.503	0
702.593	3
