Mass spectrum: PG(18:1/19,20-EpDPE); LC-ESI-QTOF; MS2
Name: PG(18:1/19,20-EpDPE)
Class: Oxidized Phospholipid
Formula: C46H77O11P
Exact mass: 837.087
SMILES: CCCCCCCC\C=C/CCCCCCCC(=O)OCC(COP(O)(=O)OCC(O)CO)OC(=O)CC\C=C/C\C=C/C\C=C/C\C=C/C\C=C/CC1OC1CC
InChI: InChI=1S/C46H77O11P/c1-3-5-6-7-8-9-10-11-13-17-20-23-26-29-32-35-45(49)53-39-42(40-55-58(51,52)54-38-41(48)37-47)56-46(50)36-33-30-27-24-21-18-15-12-14-16-19-22-25-28-31-34-44-43(4-2)57-44/h11-14,18-19,21-22,27-28,30-31,41-44,47-48H,3-10,15-17,20,23-26,29,32-40H2,1-2H3,(H,51,52)/b13-11-,14-12-,21-18-,22-19-,30-27-,31-28-
Instrument: Acquity UPLC Peptide BEH C18 column (50 x 2.1 mm; 1.7 um), Sciex TripleTOF5600
Instrument type: LC-ESI-QTOF
Ms type: MS2
Ion mode: NEGATIVE
Collision energy: 30-50
Precursor m/z: 835.5130738
Precursor type: [M-H]-
m/z	relative intensity
107.0872	21
135.1147	21
152.9926	42
152.9961	32
152.9978	32
187.1508	21
241.1859	21
241.1903	32
241.1925	21
241.1947	53
241.1969	53
241.199	42
241.2012	32
241.2056	32
243.2127	21
280.3788	21
281.2134	21
281.2158	76
281.2181	32
281.2205	98
281.2228	176
281.2252	165
281.2276	165
281.2299	199
281.2323	276
281.2347	335
281.237	458
281.2394	505
281.2418	647
281.2441	948
281.2465	798
281.2489	999
281.2513	967
281.2536	842
281.256	708
281.2583	471
281.2607	327
281.2631	201
281.2654	191
281.2678	157
281.2702	123
281.2726	66
281.2749	34
281.2773	53
281.2796	21
281.282	21
281.2844	21
282.2412	21
282.2483	21
285.1787	21
285.1906	32
299.2173	21
299.2221	21
299.2246	21
299.2295	42
299.2319	32
299.2343	42
299.2368	42
299.2392	66
299.2417	32
299.2441	66
299.2466	66
299.2514	21
299.2539	21
299.2563	21
299.2612	21
325.2049	21
325.2074	32
325.21	32
325.2125	21
325.2151	53
325.2176	42
325.2202	87
325.2227	42
325.2278	32
325.2303	21
325.2329	32
342.1604	21
343.1999	21
343.2025	42
343.2078	53
343.2104	32
343.213	32
343.2156	53
343.2182	98
343.2208	161
343.2234	140
343.226	151
343.2287	185
343.2313	98
343.2339	161
343.2365	66
343.2391	129
343.2417	129
343.2444	129
343.247	42
343.2496	76
343.2522	21
343.2548	21
417.2426	21
479.2206	21
491.28	21
497.24	21
509.2806	21
509.2869	21
509.2965	21
553.2471	21
553.2537	21
553.2736	21
571.2731	21
571.2765	32
571.29	21
753.4553	21
753.4785	21
832.8939	21
835.29	21
835.4246	21
835.4449	21
835.449	66
835.4531	76
835.4572	132
835.4612	121
835.4653	123
835.4694	89
835.4735	257
835.4776	439
835.4817	481
835.4857	271
835.4898	443
835.4939	554
835.498	575
835.5021	543
835.5061	604
835.5102	728
835.5143	821
835.5184	865
835.5225	683
835.5266	831
835.5306	884
835.5347	694
835.5388	658
835.5428	681
835.5469	649
835.551	431
835.5551	352
835.5591	295
835.5632	333
835.5673	68
835.5714	170
835.5754	123
835.5795	106
835.5836	117
835.5877	68
835.5918	21
835.5999	32
836.4934	21
836.5016	21
836.522	21
836.5261	21
836.5302	32
