Mass spectrum: PC(15:0/12-HETE); LC-ESI-QTOF; MS2
Name: PC(15:0/12-HETE)
Class: Oxidized Phospholipid
Formula: C43H78NO9P
Exact mass: 784.071
SMILES: CCCCCCCCCCCCCCC(=O)OCC(COP([O-])(=O)OCC[N+](C)(C)C)OC(=O)CCC\C=C/C\C=C/C=C/C(O)C\C=C/CCCCC
InChI: InChI=1S/C43H78NO9P/c1-6-8-10-12-14-15-16-17-18-22-26-30-34-42(46)50-38-41(39-52-54(48,49)51-37-36-44(3,4)5)53-43(47)35-31-27-23-20-19-21-25-29-33-40(45)32-28-24-13-11-9-7-2/h20-21,23-25,28-29,33,40-41,45H,6-19,22,26-27,30-32,34-39H2,1-5H3/b23-20-,25-21-,28-24-,33-29+
Instrument: Acquity UPLC Peptide BEH C18 column (50 x 2.1 mm; 1.7 um), Sciex TripleTOF5600
Instrument type: LC-ESI-QTOF
Ms type: MS2
Ion mode: NEGATIVE
Collision energy: 30-50
Precursor m/z: 842.5552726
Precursor type: [M+CH3COOH-H]-
m/z	relative intensity
81.07403	45
135.1126	45
168.0381	45
179.1028	45
179.1046	90
179.1103	64
179.1122	64
179.1179	45
224.0647	45
240.4695	45
241.2008	64
241.203	64
241.2052	64
241.2074	128
241.2096	173
241.2118	154
241.214	282
241.2162	282
241.2184	128
241.2205	327
241.2227	307
241.2249	263
241.2271	173
241.2293	64
241.2315	64
241.2337	45
255.233	45
257.2138	45
257.2161	45
257.2206	45
257.2228	64
257.2296	45
282.2527	45
301.2093	45
301.2118	45
301.2142	45
301.2167	128
301.2191	90
301.2216	64
301.224	90
301.2264	90
319.2071	45
319.2096	64
319.2121	154
319.2146	90
319.2172	173
319.2197	237
319.2222	416
319.2247	346
319.2272	154
319.2298	391
319.2323	263
319.2348	371
319.2373	173
319.2398	199
319.2424	199
319.2474	45
319.2499	45
448.2713	45
454.0345	45
466.262	45
466.2864	90
466.2894	64
466.2925	109
466.2955	45
466.2986	64
466.3016	90
466.3047	128
466.3077	90
466.3108	64
466.3169	45
466.329	45
697.4595	64
766.0988	45
766.1456	45
768.4477	64
768.4633	90
768.4672	64
768.4711	128
768.475	109
768.4789	237
768.4829	173
768.4868	128
768.4907	371
768.4946	525
768.4985	371
768.5024	544
768.5063	653
768.5103	826
768.5142	762
768.5181	717
768.522	698
768.5259	890
768.5298	698
768.5338	999
768.5377	781
768.5416	743
768.5455	608
768.5494	544
768.5533	416
768.5572	307
768.5611	391
768.565	500
768.569	128
768.5729	154
768.5768	90
768.5807	128
768.5846	64
768.5924	64
768.5963	90
769.4885	45
769.4963	45
769.5237	45
769.5276	64
769.5315	64
769.5354	45
769.5433	64
769.5472	64
769.5511	45
769.555	64
769.5589	45
769.5667	45
782.5298	45
782.5575	45
783.4972	45
842.4373	45
842.4741	45
842.4864	45
842.5069	45
842.5151	90
842.5233	45
842.5273	109
842.5355	45
842.5438	45
842.5479	128
842.5519	90
842.556	45
842.5683	45
842.5724	109
842.5765	45
842.5847	64
842.6011	64
842.6052	64
