Mass spectrum: PI(18:0/8-HEPE); LC-ESI-QTOF; MS2
Name: PI(18:0/8-HEPE)
Class: Oxidized Phospholipid
Formula: C47H81O14P
Exact mass: 901.127
SMILES: CCCCCCCCCCCCCCCCCC(=O)OCC(COP(O)(=O)OC1C(O)C(O)C(O)C(O)C1O)OC(=O)CCC\C=C/CC(O)\C=C\C=C/C\C=C/C\C=C/CC
InChI: InChI=1S/C47H81O14P/c1-3-5-7-9-11-13-15-16-17-18-19-21-23-25-30-34-40(49)58-36-39(37-59-62(56,57)61-47-45(54)43(52)42(51)44(53)46(47)55)60-41(50)35-31-27-26-29-33-38(48)32-28-24-22-20-14-12-10-8-6-4-2/h6,8,12,14,22,24,26,28-29,32,38-39,42-48,51-55H,3-5,7,9-11,13,15-21,23,25,27,30-31,33-37H2,1-2H3,(H,56,57)/b8-6-,14-12-,24-22-,29-26-,32-28+
Instrument: Acquity UPLC Peptide BEH C18 column (50 x 2.1 mm; 1.7 um), Sciex TripleTOF5600
Instrument type: LC-ESI-QTOF
Ms type: MS2
Ion mode: NEGATIVE
Collision energy: 30-50
Precursor m/z: 899.5291178
Precursor type: [M-H]-
m/z	relative intensity
78.9617	16
78.96671	16
127.0736	16
127.0752	16
155.0623	16
155.0711	49
155.0746	25
155.0764	16
155.0817	16
161.1349	33
161.142	16
222.9953	16
223.0058	16
223.0079	33
240.9949	16
241.0015	33
241.0037	33
241.0059	66
241.0081	74
241.0103	115
241.0125	66
241.0146	82
241.0168	82
241.019	41
241.0212	49
241.0234	16
253.2151	25
255.2083	16
255.215	16
255.2195	33
255.2218	16
255.224	16
259.0228	16
283.2467	16
283.2491	33
283.2514	16
283.2538	16
283.2562	49
283.2585	41
283.2609	66
283.2633	66
283.2657	98
283.268	57
283.2728	41
283.2751	25
283.2799	25
283.2823	25
283.2918	16
297.0436	16
297.0484	16
299.1923	16
299.1947	33
299.2021	16
299.2045	33
317.1933	16
317.1958	16
317.2034	33
317.2059	33
317.2084	16
317.2109	49
317.2134	66
317.2159	33
317.2184	49
317.2209	16
317.226	33
371.0771	16
419.2384	25
419.2413	41
419.2471	16
419.25	33
419.2528	25
419.2557	41
419.2586	41
419.2615	57
419.2644	33
419.2673	25
419.2702	16
419.276	16
420.2733	16
437.2678	16
453.1922	16
453.1953	16
453.2013	16
453.2103	16
453.2193	16
453.2223	16
499.7115	16
500.6772	16
581.2905	16
581.2939	33
581.3007	41
581.3041	33
581.3076	16
581.3109	41
581.3143	33
581.3177	16
581.3211	25
581.3245	49
581.3279	66
581.3314	16
581.3347	16
581.3381	16
581.3416	41
581.345	16
597.2891	16
599.2943	16
599.3115	16
599.315	25
599.3184	16
599.3219	16
599.3288	25
599.3323	25
615.236	16
615.257	25
615.285	16
671.4493	16
708.4108	16
896.692	16
896.6962	16
896.7131	16
899.4193	25
899.4489	50
899.4531	25
899.4574	44
899.4616	27
899.4658	27
899.47	53
899.4743	62
899.4785	37
899.4828	307
899.487	163
899.4912	364
899.4954	427
899.4997	469
899.5039	431
899.5082	507
899.5124	692
899.5166	748
899.5208	676
899.5251	914
899.5293	967
899.5336	897
899.5378	945
899.542	789
899.5463	686
899.5505	999
899.5547	738
899.559	692
899.5632	559
899.5674	455
899.5717	409
899.5759	278
899.5801	219
899.5843	235
899.5886	144
899.5928	182
899.597	73
899.6013	75
899.6055	75
899.6097	46
899.614	38
899.6182	28
899.6224	44
899.6266	25
900.2658	10
900.4817	16
900.5156	25
900.524	41
900.5283	16
900.5325	41
900.541	33
900.5494	25
900.5537	49
900.5621	25
900.5706	16
900.5918	25
