Mass spectrum: SM d34:2; LC-ESI-QTOF; MS2
Name: SM d34:2
Class: SM
Formula: C39H77N2O6P
Exact mass: 701.029
SMILES: CCCCCCCCCCCCCCCC(=O)NC(COP([O-])(=O)OCC[N+](C)(C)C)C(O)\C=C\CC\C=C\CCCCCCCCC
InChI: InChI=1S/C39H77N2O6P/c1-6-8-10-12-14-16-18-20-22-24-26-28-30-32-38(42)37(36-47-48(44,45)46-35-34-41(3,4)5)40-39(43)33-31-29-27-25-23-21-19-17-15-13-11-9-7-2/h22,24,30,32,37-38,42H,6-21,23,25-29,31,33-36H2,1-5H3,(H-,40,43,44,45)/b24-22+,32-30+
Instrument: AB Sciex TripleTOF 5600+ system (Q-TOF) equipped with a DuoSpray ion source
Instrument type: LC-ESI-QTOF
Ms type: MS2
Ion mode: NEGATIVE
Collision energy: 45V
Column name: Acquity UPLC Peptide BEH C18 column (50*2.1 mm; 1.7 um; 130A)(Waters Co.,Milford, MA, USA)
Retention time: 8.534179
Precursor type: [M+CH3COOH-H]-
Precursor m/z: 759.5699
m/z	relative intensity
78.951	3
78.959	22
96.968	0
122.983	2
151.73	0
152.991	1
168.042	82
181.039	0
196.033	0
255.219	1
255.236	3
256.234	1
279.232	2
280.237	1
281.252	2
283.259	1
293.208	1
293.246	2
307.265	0
327.234	0
391.224	1
392.247	0
409.23	0
447.283	2
596.434	0
614.425	1
614.464	1
627.474	1
627.525	2
640.488	1
671.471	0
672.458	3
683.363	2
684.521	1
685.46	5
685.528	999
685.665	0
685.811	1
685.975	0
686.52	1
686.549	2
700.47	2
700.497	2
700.52	2
741.483	1
759.457	3
759.5	4
759.556	8
759.582	6
759.624	2
