Mass spectrum: PE 40:4; LC-ESI-QTOF; MS2
Name: PE 40:4
Class: PE
Formula: C45H82NO8P
Exact mass: 796.126
SMILES: CCCCCCCCCCCCCCCCCCCC(=O)OCC(COP(O)(=O)OCCN)OC(=O)CCCCCC\C=C/C\C=C/C\C=C/C\C=C/CC
InChI: InChI=1S/C45H82NO8P/c1-3-5-7-9-11-13-15-17-19-21-23-25-27-29-31-33-35-37-44(47)51-41-43(42-53-55(49,50)52-40-39-46)54-45(48)38-36-34-32-30-28-26-24-22-20-18-16-14-12-10-8-6-4-2/h6,8,12,14,18,20,24,26,43H,3-5,7,9-11,13,15-17,19,21-23,25,27-42,46H2,1-2H3,(H,49,50)/b8-6-,14-12-,20-18-,26-24-
Instrument: AB Sciex TripleTOF 5600+ system (Q-TOF) equipped with a DuoSpray ion source
Instrument type: LC-ESI-QTOF
Ms type: MS2
Ion mode: NEGATIVE
Collision energy: 45V
Column name: Acquity UPLC Peptide BEH C18 column (50*2.1 mm; 1.7 um; 130A)(Waters Co.,Milford, MA, USA)
Retention time: 11.56566
Precursor type: [M-H]-
Precursor m/z: 794.5645
m/z	relative intensity
122.003	3
127.002	4
140.01	17
141.021	4
191.109	3
196.034	27
205.183	5
205.199	14
214.048	5
255.231	6
259.241	45
283.266	5
285.222	5
302.274	10
303.231	999
305.066	4
311.295	511
331.263	5
384.944	5
384.978	4
466.964	4
482.25	7
490.316	11
490.338	11
500.267	10
508.332	107
508.349	31
548.918	5
630.922	4
656.914	3
660.838	2
706.852	2
712.521	2
720.528	3
779.598	2
792.055	4
794.409	2
794.568	898
794.646	5
