Mass spectrum: PI 36:3; LC-ESI-QTOF; MS2
Name: PI 36:3
Class: PI
Formula: C45H81O13P
Exact mass: 861.106
SMILES: CCCCCCCCCCCCCCCC(=O)OCC(COP(O)(=O)OC1C(O)C(O)C(O)C(O)C1O)OC(=O)CCCCCCCCC\C=C/C\C=C/C\C=C/CC
InChI: InChI=1S/C45H81O13P/c1-3-5-7-9-11-13-15-17-18-19-20-22-24-26-28-30-32-34-39(47)57-37(36-56-59(53,54)58-45-43(51)41(49)40(48)42(50)44(45)52)35-55-38(46)33-31-29-27-25-23-21-16-14-12-10-8-6-4-2/h5,7,11,13,17-18,37,40-45,48-52H,3-4,6,8-10,12,14-16,19-36H2,1-2H3,(H,53,54)/b7-5-,13-11-,18-17-
Instrument: AB Sciex TripleTOF 5600+ system (Q-TOF) equipped with a DuoSpray ion source
Instrument type: LC-ESI-QTOF
Ms type: MS2
Ion mode: NEGATIVE
Collision energy: 45V
Column name: Acquity UPLC Peptide BEH C18 column (50*2.1 mm; 1.7 um; 130A)(Waters Co.,Milford, MA, USA)
Retention time: 8.510467
Precursor type: [M-H]-
Precursor m/z: 859.537
m/z	relative intensity
78.959	2
96.965	2
152.997	10
153.011	3
179.052	4
222.999	20
241.011	63
241.036	3
255.215	12
255.233	85
259.016	8
259.03	4
277.213	2
279.236	2
281.248	2
283.261	7
293.216	3
294.221	2
295.226	1
297.033	9
305.244	94
305.265	18
307.241	1
315.047	6
377.243	2
391.221	41
409.229	5
441.217	4
441.248	6
479.675	1
483.863	1
535.487	2
553.247	8
553.267	26
553.283	26
569.957	1
571.288	11
579.26	2
588.429	1
603.26	5
603.302	6
621.283	1
670.429	2
697.468	6
697.561	5
783.612	3
785.536	5
785.566	3
785.598	3
799.588	2
827.463	3
841.495	2
856.81	4
859.444	10
859.526	999
859.602	17
860.511	2
