Mass spectrum: PC 40:5; LC-ESI-QTOF; MS2
Name: PC 40:5
Class: PC
Formula: C48H86NO8P
Exact mass: 836.1909999999999
SMILES: CCCCCCCCCCCCCCCCCC(=O)OCC(COP([O-])(=O)OCC[N+](C)(C)C)OC(=O)CCCCC\C=C/C\C=C/C\C=C/C\C=C/C\C=C/CC
InChI: InChI=1S/C48H86NO8P/c1-6-8-10-12-14-16-18-20-22-23-24-25-27-29-31-33-35-37-39-41-48(51)57-46(45-56-58(52,53)55-43-42-49(3,4)5)44-54-47(50)40-38-36-34-32-30-28-26-21-19-17-15-13-11-9-7-2/h8,10,14,16,20,22,24-25,29,31,46H,6-7,9,11-13,15,17-19,21,23,26-28,30,32-45H2,1-5H3/b10-8-,16-14-,22-20-,25-24-,31-29-
Instrument: AB Sciex TripleTOF 5600+ system (Q-TOF) equipped with a DuoSpray ion source
Instrument type: LC-ESI-QTOF
Ms type: MS2
Ion mode: NEGATIVE
Collision energy: 45V
Column name: Acquity UPLC Peptide BEH C18 column (50*2.1 mm; 1.7 um; 130A)(Waters Co.,Milford, MA, USA)
Retention time: 10.28862
Precursor type: [M+CH3COOH-H]-
Precursor m/z: 894.6187
m/z	relative intensity
78.96	1
168.041	6
168.049	2
177.09	0
179.184	0
183.136	0
224.068	11
231.211	3
251.201	2
273.181	0
282.378	2
283.179	0
283.235	3
283.262	246
284.263	0
285.259	36
295.5	0
303.238	1
309.284	0
311.236	2
328.209	0
328.227	2
329.247	629
330.248	1
419.254	2
434.299	0
480.291	0
484.612	0
490.328	14
491.339	0
491.561	0
499.545	0
502.289	0
506.73	0
507.343	0
508.34	70
508.374	2
509.347	0
511.403	0
536.31	9
554.318	5
630.549	0
749.522	1
775.546	1
790.52	0
817.979	1
818.017	1
819.565	0
820.25	1
820.582	999
820.718	1
821.575	3
821.601	1
835.54	8
835.587	1
892.21	0
894.56	0
894.621	103
894.678	2
894.853	0
