Mass spectrum: Cer[AS] d40:1; LC-ESI-QTOF; MS2
Name: Cer[AS] d40:1
Class: Cer_AS
Formula: C40H79NO4
Exact mass: 638.0749999999998
SMILES: CCCCCCCCCCCCCCCCCCCCC(O)C(=O)NC(CO)C(O)\C=C\CCCCCCCCCCCCC
InChI: InChI=1S/C40H79NO4/c1-3-5-7-9-11-13-15-17-18-19-20-21-23-25-27-29-31-33-35-39(44)40(45)41-37(36-42)38(43)34-32-30-28-26-24-22-16-14-12-10-8-6-4-2/h32,34,37-39,42-44H,3-31,33,35-36H2,1-2H3,(H,41,45)/b34-32+
Instrument: AB Sciex TripleTOF 5600+ system (Q-TOF) equipped with a DuoSpray ion source
Instrument type: LC-ESI-QTOF
Ms type: MS2
Ion mode: NEGATIVE
Collision energy: 45V
Column name: Acquity UPLC Peptide BEH C18 column (50*2.1 mm; 1.7 um; 130A)(Waters Co.,Milford, MA, USA)
Retention time: 12.89273
Precursor type: [M+CH3COOH-H]-
Precursor m/z: 696.6136
m/z	relative intensity
237.223	17
239.236	11
239.254	1
250.253	12
251.237	1
255.236	1
262.251	2
263.236	11
263.249	1
266.247	11
266.263	1
268.262	29
278.237	1
278.253	2
280.258	3
280.271	4
290.25	7
298.273	17
307.3	4
308.25	1
309.314	108
323.327	2
326.264	1
336.325	1
337.282	2
337.307	39
339.326	5
350.344	2
351.326	1
354.333	24
354.361	1
355.302	7
355.318	37
362.327	4
362.346	7
378.334	2
380.35	85
395.337	2
396.346	41
398.35	4
398.369	8
570.545	3
570.579	1
588.532	4
588.568	61
590.58	1
600.542	1
600.575	2
604.527	1
604.56	14
604.586	5
606.554	1
606.579	5
606.606	1
618.542	3
618.578	26
618.616	2
634.59	3
636.59	999
637.585	2
