Mass spectrum: PG 36:4; LC-ESI-QTOF; MS2
Name: PG 36:4
Class: PG
Formula: C42H75O10P
Exact mass: 771.028
SMILES: CCCCCCCCCCCCCCCC(=O)OCC(COP(O)(=O)OCC(O)CO)OC(=O)CCCCCC\C=C/C\C=C/C\C=C/C\C=C/CC
InChI: InChI=1S/C42H75O10P/c1-3-5-7-9-11-13-15-17-18-19-20-22-24-26-28-30-32-34-42(46)52-40(38-51-53(47,48)50-36-39(44)35-43)37-49-41(45)33-31-29-27-25-23-21-16-14-12-10-8-6-4-2/h5,7,11,13,17-18,20,22,39-40,43-44H,3-4,6,8-10,12,14-16,19,21,23-38H2,1-2H3,(H,47,48)/b7-5-,13-11-,18-17-,22-20-
Instrument: AB Sciex TripleTOF 5600+ system (Q-TOF) equipped with a DuoSpray ion source
Instrument type: LC-ESI-QTOF
Ms type: MS2
Ion mode: NEGATIVE
Collision energy: 45V
Column name: Acquity UPLC Peptide BEH C18 column (50*2.1 mm; 1.7 um; 130A)(Waters Co.,Milford, MA, USA)
Retention time: 8.144836
Precursor type: [M-H]-
Precursor m/z: 769.4965
m/z	relative intensity
78.962	4
152.995	21
191.115	4
205.194	22
209.024	3
227.029	4
231.223	6
255.232	385
259.242	71
259.26	8
279.222	44
279.235	53
279.251	9
283.265	18
284.265	3
301.211	5
302.291	5
303.151	3
303.232	999
304.227	4
391.221	14
391.238	13
409.236	9
465.24	9
465.267	18
480.44	3
483.257	18
483.282	13
489.27	6
507.278	3
513.264	12
643.511	5
665.475	2
767.064	4
767.127	3
769.415	11
769.496	830
769.523	219
769.569	12
770.501	3
