Mass spectrum: PC 40:4; LC-ESI-QTOF; MS2
Name: PC 40:4
Class: PC
Formula: C48H88NO8P
Exact mass: 838.2069999999999
SMILES: CCCCCCCCCCCCCCCCCCCC(=O)OCC(COP([O-])(=O)OCC[N+](C)(C)C)OC(=O)CCCCCC\C=C/C\C=C/C\C=C/C\C=C/CC
InChI: InChI=1S/C48H88NO8P/c1-6-8-10-12-14-16-18-20-22-24-26-28-30-32-34-36-38-40-47(50)54-44-46(45-56-58(52,53)55-43-42-49(3,4)5)57-48(51)41-39-37-35-33-31-29-27-25-23-21-19-17-15-13-11-9-7-2/h9,11,15,17,21,23,27,29,46H,6-8,10,12-14,16,18-20,22,24-26,28,30-45H2,1-5H3/b11-9-,17-15-,23-21-,29-27-
Instrument: AB Sciex TripleTOF 5600+ system (Q-TOF) equipped with a DuoSpray ion source
Instrument type: LC-ESI-QTOF
Ms type: MS2
Ion mode: NEGATIVE
Collision energy: 45V
Column name: Acquity UPLC Peptide BEH C18 column (50*2.1 mm; 1.7 um; 130A)(Waters Co.,Milford, MA, USA)
Retention time: 11.31964
Precursor type: [M+CH3COOH-H]-
Precursor m/z: 896.6301
m/z	relative intensity
89.025	4
100.933	6
141.016	7
158.973	8
158.99	1
159.978	3
168.043	9
205.194	7
224.068	11
240.957	1
259.238	33
259.257	7
283.26	6
285.214	3
302.287	6
303.23	740
303.321	1
310.317	1
311.293	289
322.972	6
328.988	1
331.245	1
331.266	11
404.963	12
410.98	2
442.976	2
447.267	2
447.291	1
486.97	15
487.002	3
504.329	1
504.998	1
510.275	3
510.296	5
518.359	13
525.013	1
528.292	5
528.319	3
536.365	81
536.395	6
563.021	1
568.864	1
568.964	5
569.005	1
605.03	1
618.572	1
650.979	5
683.016	1
689.018	1
732.962	5
751.505	2
780.583	3
780.62	10
780.64	5
780.659	4
806.625	3
808.644	5
809.578	1
819.971	3
820.023	3
821.647	2
822.482	2
822.556	282
822.593	999
822.739	1
823.577	4
823.624	2
836.616	3
837.53	3
837.549	8
852.653	1
894.14	0
896.512	3
896.597	30
896.631	79
896.658	27
896.685	5
896.713	3
