Mass spectrum: PI 36:3; LC-ESI-QTOF; MS2
Name: PI 36:3
Class: PI
Formula: C45H81O13P
Exact mass: 861.106
SMILES: CCCCCCCCCCCCCCCC(=O)OCC(COP(O)(=O)OC1C(O)C(O)C(O)C(O)C1O)OC(=O)CCCCCCCCC\C=C/C\C=C/C\C=C/CC
InChI: InChI=1S/C45H81O13P/c1-3-5-7-9-11-13-15-17-18-19-20-22-24-26-28-30-32-34-39(47)57-37(36-56-59(53,54)58-45-43(51)41(49)40(48)42(50)44(45)52)35-55-38(46)33-31-29-27-25-23-21-16-14-12-10-8-6-4-2/h5,7,11,13,17-18,37,40-45,48-52H,3-4,6,8-10,12,14-16,19-36H2,1-2H3,(H,53,54)/b7-5-,13-11-,18-17-
Instrument: AB Sciex TripleTOF 5600+ system (Q-TOF) equipped with a DuoSpray ion source
Instrument type: LC-ESI-QTOF
Ms type: MS2
Ion mode: NEGATIVE
Collision energy: 45V
Column name: Acquity UPLC Peptide BEH C18 column (50*2.1 mm; 1.7 um; 130A)(Waters Co.,Milford, MA, USA)
Retention time: 8.410888
Precursor type: [M-H]-
Precursor m/z: 859.5347
m/z	relative intensity
152.994	13
223.001	17
241.011	58
255.232	66
256.231	1
259.022	4
261.255	1
277.218	11
279.237	2
281.246	7
283.264	25
284.265	3
293.207	10
293.224	5
294.213	13
296.232	1
297.036	11
305.246	57
315.047	3
391.224	43
392.223	1
409.235	2
417.24	4
419.254	6
441.235	6
501.362	1
553.273	22
571.28	13
579.278	1
581.301	8
599.343	1
603.288	7
697.471	8
777.549	1
784.531	12
785.525	3
785.552	34
798.572	1
799.533	6
799.587	10
827.51	6
856.826	6
859.53	999
859.644	3
860.519	2
