Mass spectrum: PI(16:0/11,12-EET); LC-ESI-QTOF; MS2
Name: PI(16:0/11,12-EET)
Class: Oxidized Phospholipid
Formula: C45H79O14P
Exact mass: 875.089
SMILES: CCCCCCCCCCCCCCCC(=O)OCC(COP(O)(=O)OC1C(O)C(O)C(O)C(O)C1O)OC(=O)CCC\C=C/C\C=C/CC1OC1C\C=C/CCCCC
InChI: InChI=1S/C45H79O14P/c1-3-5-7-9-11-12-13-14-15-16-19-23-27-31-38(46)55-33-35(34-56-60(53,54)59-45-43(51)41(49)40(48)42(50)44(45)52)57-39(47)32-28-24-20-17-18-22-26-30-37-36(58-37)29-25-21-10-8-6-4-2/h17,20-22,25-26,35-37,40-45,48-52H,3-16,18-19,23-24,27-34H2,1-2H3,(H,53,54)/b20-17-,25-21-,26-22-
Instrument: Acquity UPLC Peptide BEH C18 column (50 x 2.1 mm; 1.7 um), Sciex TripleTOF5600
Instrument type: LC-ESI-QTOF
Ms type: MS2
Ion mode: NEGATIVE
Collision energy: 30-50
Precursor m/z: 873.5134677
Precursor type: [M-H]-
m/z	relative intensity
78.95529	9
78.95905	9
96.96981	9
139.1143	9
149.0925	9
152.9837	9
152.9924	13
152.9959	13
153.0011	13
167.0994	9
167.1013	18
167.1031	18
167.1049	18
167.1067	22
167.1086	32
167.1104	9
167.1122	13
167.114	13
167.1158	13
167.1268	9
179.101	9
179.1028	9
179.1066	9
179.1104	9
222.9888	9
222.9909	13
222.9951	9
222.9973	9
222.9994	41
223.0015	22
223.0078	18
223.0246	9
240.997	13
240.9992	22
241.0013	18
241.0035	77
241.0057	58
241.0079	90
241.0101	131
241.0123	58
241.0145	108
241.0167	81
241.0189	41
241.0211	32
241.0233	32
241.0254	13
241.0386	9
255.2171	36
255.2194	27
255.2216	27
255.2239	41
255.2262	81
255.2284	149
255.2307	86
255.2329	95
255.2352	127
255.2374	86
255.2397	63
255.2419	67
255.2442	22
255.2464	27
255.2487	13
255.2532	9
257.2204	9
257.2272	13
257.2408	9
259.0203	9
259.0226	9
259.0249	9
275.2372	9
281.2529	9
283.2631	9
297.0191	9
297.024	13
297.0313	9
297.0361	18
297.041	13
301.209	13
301.2139	22
301.2213	9
301.2237	13
315.0482	9
315.0508	18
319.2067	9
319.2092	9
319.2117	41
319.2143	41
319.2168	27
319.2193	27
319.2218	54
319.2243	63
319.2268	45
319.2294	67
319.2319	32
319.2344	32
319.2369	32
319.2395	27
319.242	27
319.2445	13
319.2495	9
319.2521	9
319.2571	9
337.2237	9
377.2532	9
389.2632	9
391.1891	9
391.2003	13
391.2031	13
391.2059	9
391.2086	18
391.2115	13
391.2142	36
391.217	32
391.2198	54
391.2226	54
391.2254	50
391.2282	50
391.231	50
391.2338	22
391.2366	32
391.2393	36
391.2422	32
391.2449	9
391.2477	22
409.2305	9
419.2527	9
455.2098	13
455.2189	9
455.249	9
481.2661	9
553.242	9
553.2487	32
553.252	9
553.2553	18
553.2586	18
553.2619	58
553.2653	32
553.2686	32
553.2719	54
553.2752	32
553.2785	41
553.2819	32
553.2852	45
553.2885	45
553.2918	54
553.2951	45
553.2984	32
553.3018	36
553.3051	32
553.3084	9
553.315	9
553.3217	9
571.2477	9
571.2545	18
571.2612	18
571.2713	9
571.2747	9
571.2781	18
571.2814	27
571.2848	9
571.2882	9
571.2916	18
571.2949	13
571.2983	18
571.3017	36
571.3051	13
571.3084	13
571.3185	13
617.2605	13
617.264	13
617.2675	22
617.278	9
617.292	13
617.2955	9
617.299	9
617.3026	22
617.3166	9
635.3	9
786.6219	9
799.6434	9
799.6594	9
799.6754	13
799.6794	9
799.6833	9
799.6874	9
799.6913	9
799.6953	13
799.7193	9
826.5386	9
826.5508	9
826.5548	13
826.567	13
826.5751	18
855.5203	9
870.7375	13
870.7458	9
870.7542	9
870.7625	13
870.7875	9
870.7958	9
870.825	9
870.8292	9
873.4251	13
873.4376	36
873.4418	36
873.4501	29
873.4543	53
873.4584	48
873.4626	53
873.4668	129
873.4709	216
873.4752	237
873.4793	301
873.4835	341
873.4876	455
873.4918	504
873.496	684
873.5001	702
873.5043	687
873.5085	921
873.5126	999
873.5168	885
873.521	865
873.5251	893
873.5294	906
873.5335	891
873.5377	896
873.5419	795
873.546	785
873.5502	597
873.5544	498
873.5585	422
873.5627	313
873.5669	245
873.571	177
873.5752	129
873.5794	120
873.5836	78
873.5877	48
873.5919	57
873.5961	60
873.6002	20
873.6044	24
873.6086	35
873.6127	28
873.6211	9
873.6252	9
873.6669	9
873.7212	9
874.0465	9
874.4637	9
874.472	9
874.4804	9
874.4888	18
874.4929	9
874.4971	13
874.5096	9
874.5138	13
874.5179	13
874.5222	22
874.5263	9
874.5305	22
874.5347	18
874.5388	18
874.543	22
874.5555	18
874.5638	13
874.568	9
874.5722	13
874.5764	9
