Mass spectrum: PC(18:1/14,15-EET); LC-ESI-QTOF; MS2
Name: PC(18:1/14,15-EET)
Class: Oxidized Phospholipid
Formula: C46H82NO9P
Exact mass: 824.136
SMILES: CCCCCCCC\C=C/CCCCCCCC(=O)OCC(COP([O-])(=O)OCC[N+](C)(C)C)OC(=O)CCC\C=C/C\C=C/C\C=C/CC1OC1CCCCC
InChI: InChI=1S/C46H82NO9P/c1-6-8-10-11-12-13-14-15-16-17-18-22-25-28-32-36-45(48)52-40-42(41-54-57(50,51)53-39-38-47(3,4)5)55-46(49)37-33-29-26-23-20-19-21-24-27-31-35-44-43(56-44)34-30-9-7-2/h15-16,19,21,23,26-27,31,42-44H,6-14,17-18,20,22,24-25,28-30,32-41H2,1-5H3/b16-15-,21-19-,26-23-,31-27-
Instrument: Acquity UPLC Peptide BEH C18 column (50 x 2.1 mm; 1.7 um), Sciex TripleTOF5600
Instrument type: LC-ESI-QTOF
Ms type: MS2
Ion mode: NEGATIVE
Collision energy: 30-50
Precursor m/z: 882.5865727
Precursor type: [M+CH3COOH-H]-
m/z	relative intensity
78.96143	22
152.9905	22
168.0399	22
168.0454	22
175.1443	22
175.1462	22
175.148	22
175.1499	22
184.4059	22
203.1862	22
207.1311	34
207.1393	22
219.1224	22
219.1287	34
219.1308	22
219.1329	22
219.1349	45
219.137	34
219.1391	45
219.1412	34
219.1433	45
219.1454	22
219.1475	22
219.1496	55
222.9992	22
224.0666	22
224.0687	22
224.0709	34
241.0012	22
241.0034	22
241.0056	22
241.0099	45
241.0143	22
241.0165	34
241.0187	66
241.0253	34
257.2158	45
257.218	34
257.2203	22
257.2225	77
257.2248	22
257.2271	45
257.2293	34
257.2316	22
257.2339	89
257.2361	66
257.2384	22
257.2406	22
275.2465	22
279.238	45
279.2451	22
280.2315	23
281.196	23
281.2244	101
281.2267	34
281.2291	67
281.2315	101
281.2339	101
281.2362	147
281.2386	284
281.241	294
281.2433	351
281.2457	273
281.248	363
281.2504	338
281.2528	250
281.2552	236
281.2575	90
281.2599	180
281.2622	112
281.2646	100
281.267	56
281.2693	45
281.2717	12
281.2741	12
281.2788	22
282.2475	22
282.2522	22
282.2546	22
282.257	22
282.2594	22
301.1917	22
301.1942	22
301.1966	22
301.199	45
301.2015	34
301.2039	45
301.2064	22
301.2088	77
301.2113	77
301.2137	66
301.2162	100
301.2186	111
301.2211	100
301.2235	34
301.226	55
301.2284	55
301.2358	45
301.2505	34
302.2137	22
302.2284	22
303.2398	22
305.2407	22
305.2432	22
318.2342	23
319.0881	23
319.204	55
319.2065	22
319.209	90
319.2116	147
319.2141	146
319.2166	169
319.2191	227
319.2216	293
319.2242	282
319.2267	432
319.2292	295
319.2318	359
319.2343	180
319.2368	204
319.2393	79
319.2418	55
319.2444	56
319.2469	67
319.2494	56
319.2519	77
319.2544	34
319.2595	22
320.2334	22
417.2154	22
488.3118	22
488.3212	22
506.287	22
506.3029	22
506.3092	66
506.3156	55
506.3188	77
506.3219	55
506.3251	122
506.3283	77
506.3315	66
506.3346	100
506.3378	89
506.341	22
506.3474	55
506.3505	22
506.3569	22
524.9782	22
526.2689	22
526.2819	22
526.2916	22
579.3053	22
580.2906	22
580.294	22
580.2974	22
580.3144	34
797.558	22
808.4654	34
808.4734	56
808.4775	34
808.4814	55
808.4855	68
808.4895	35
808.4935	105
808.4975	94
808.5015	81
808.5056	177
808.5095	231
808.5135	228
808.5176	268
808.5216	366
808.5256	427
808.5296	452
808.5336	579
808.5377	643
808.5416	789
808.5457	654
808.5497	923
808.5536	999
808.5577	902
808.5617	762
808.5657	931
808.5697	789
808.5737	617
808.5778	724
808.5818	514
808.5858	515
808.5898	223
808.5938	281
808.5978	245
808.6018	97
808.6058	199
808.6099	114
808.6138	73
808.6179	77
808.6219	12
808.6259	52
808.6299	41
808.6339	34
808.6379	12
809.5369	22
809.549	22
809.557	22
809.5651	22
809.5811	34
809.5851	22
823.5152	34
823.5233	22
823.5354	22
823.5395	22
823.5435	22
879.754	22
882.4344	22
882.4428	55
882.4554	22
882.4595	55
882.4637	67
882.468	45
882.4721	45
882.4763	78
882.4805	147
882.4847	78
882.4889	55
882.4931	148
882.4973	195
882.5015	274
882.5057	240
882.5098	296
882.514	127
882.5182	309
882.5224	288
882.5266	242
882.5308	288
882.535	405
882.5392	324
882.5434	345
882.5475	311
882.5518	334
882.556	265
882.5601	174
882.5643	197
882.5685	69
882.5727	103
882.5769	80
882.5811	163
882.5853	114
882.5895	138
882.5937	102
882.5979	78
882.6021	67
882.6063	141
882.6105	47
882.6146	84
882.6188	91
882.623	77
882.6272	45
882.6314	37
882.6356	45
882.644	22
883.5371	22
883.5413	22
