Mass spectrum: PI(18:2/18-HETE); LC-ESI-QTOF; MS2
Name: PI(18:2/18-HETE)
Class: Oxidized Phospholipid
Formula: C47H79O14P
Exact mass: 899.111
SMILES: CCCCC\C=C/C\C=C/CCCCCCCC(=O)OCC(COP(O)(=O)OC1C(O)C(O)C(O)C(O)C1O)OC(=O)CCC\C=C/C\C=C/C\C=C/C\C=C/CCC(O)CC
InChI: InChI=1S/C47H79O14P/c1-3-5-6-7-8-9-10-11-12-16-19-22-25-28-31-34-40(49)58-36-39(37-59-62(56,57)61-47-45(54)43(52)42(51)44(53)46(47)55)60-41(50)35-32-29-26-23-20-17-14-13-15-18-21-24-27-30-33-38(48)4-2/h8-9,11-12,14-15,17-18,23-24,26-27,38-39,42-48,51-55H,3-7,10,13,16,19-22,25,28-37H2,1-2H3,(H,56,57)/b9-8-,12-11-,17-14-,18-15-,26-23-,27-24-
Instrument: Acquity UPLC Peptide BEH C18 column (50 x 2.1 mm; 1.7 um), Sciex TripleTOF5600
Instrument type: LC-ESI-QTOF
Ms type: MS2
Ion mode: NEGATIVE
Collision energy: 30-50
Precursor m/z: 897.5134677
Precursor type: [M-H]-
m/z	relative intensity
92.92745	33
152.9937	33
240.9944	33
241.0032	33
241.0054	82
241.0076	49
241.0098	115
241.012	82
241.0164	49
241.0186	147
241.0207	82
259.0201	33
259.0291	33
261.1727	33
261.1772	33
261.1841	33
261.1887	49
261.1932	33
261.1978	33
279.2167	33
279.219	66
279.2214	66
279.2237	66
279.2261	82
279.2308	66
279.2332	180
279.2355	66
279.2379	82
279.2402	131
279.2426	66
279.2497	33
297.0481	33
315.0356	33
319.2115	33
319.2166	33
319.2191	49
319.2216	66
319.2242	131
319.2267	115
319.2292	66
319.2317	115
319.2343	66
319.2368	131
319.2393	49
319.2418	49
415.215	33
415.2322	33
415.2408	33
577.2429	33
577.2633	49
577.2802	66
577.3175	33
577.3243	33
595.2705	33
617.261	66
617.2681	33
894.7087	33
897.4372	33
897.4456	49
897.4541	82
897.4583	131
897.4625	66
897.4668	131
897.471	197
897.4752	254
897.4794	221
897.4837	270
897.4879	287
897.4921	549
897.4963	819
897.5006	581
897.5048	802
897.509	753
897.5132	802
897.5175	819
897.5217	868
897.5259	819
897.5302	950
897.5344	999
897.5386	753
897.5428	565
897.5471	655
897.5513	483
897.5555	401
897.5598	319
897.564	221
897.5682	319
897.5724	237
897.5767	180
897.5809	237
897.5851	98
897.5894	82
897.5936	49
897.5978	98
897.6063	33
897.6147	33
897.619	49
897.6274	33
898.4858	33
898.4942	33
898.5112	33
898.5154	49
898.5196	33
898.5238	33
898.5281	33
