Mass spectrum: PS(18:0/14,15-EpETE); LC-ESI-QTOF; MS2
Name: PS(18:0/14,15-EpETE)
Class: Oxidized Phospholipid
Formula: C44H76NO11P
Exact mass: 826.064
SMILES: CCCCCCCCCCCCCCCCCC(=O)OCC(COP(O)(=O)OCC(N)C(O)=O)OC(=O)CCC\C=C/C\C=C/C\C=C/CC1OC1C\C=C/CC
InChI: InChI=1S/C44H76NO11P/c1-3-5-7-8-9-10-11-12-13-14-15-19-22-25-29-33-42(46)52-35-38(36-53-57(50,51)54-37-39(45)44(48)49)55-43(47)34-30-26-23-20-17-16-18-21-24-28-32-41-40(56-41)31-27-6-4-2/h6,16,18,20,23-24,27-28,38-41H,3-5,7-15,17,19,21-22,25-26,29-37,45H2,1-2H3,(H,48,49)(H,50,51)/b18-16-,23-20-,27-6-,28-24-
Instrument: Acquity UPLC Peptide BEH C18 column (50 x 2.1 mm; 1.7 um), Sciex TripleTOF5600
Instrument type: LC-ESI-QTOF
Ms type: MS2
Ion mode: NEGATIVE
Collision energy: 30-50
Precursor m/z: 824.5083228
Precursor type: [M-H]-
m/z	relative intensity
78.95483	81
78.95608	27
78.95733	54
78.95857	54
134.981	27
134.9859	27
152.9864	81
152.9882	54
152.9899	108
152.9916	81
152.9934	170
152.9951	278
152.9969	332
152.9986	108
153.0003	108
153.002	81
153.0038	27
153.0055	54
171.0018	27
171.011	27
175.1366	27
175.1459	27
175.1478	27
207.1294	54
207.1314	27
207.1334	27
207.1354	108
207.1374	27
207.1455	27
207.1475	27
219.1288	27
219.133	27
219.1351	81
219.1413	27
219.1455	27
248.1218	27
248.1439	27
255.0805	27
255.085	27
255.2104	81
255.2328	27
255.2351	27
257.2804	27
257.2827	27
273.1832	27
273.2156	27
273.2249	27
281.2417	27
281.2464	54
281.2534	27
283.2492	81
283.2516	255
283.2539	228
283.2563	327
283.2586	569
283.261	497
283.2634	448
283.2657	358
283.2681	296
283.2704	291
283.2728	314
283.2752	54
283.2775	54
283.2799	81
283.2823	27
283.2846	27
283.2893	27
283.294	27
283.3177	27
283.3247	27
288.0303	27
288.0327	27
299.1953	27
299.1977	54
299.2001	54
299.2098	27
317.1896	27
317.1921	27
317.1946	81
317.2021	81
317.2046	108
317.2071	27
317.2096	152
317.2121	134
317.2146	108
317.2171	54
317.2196	81
317.222	81
317.2245	54
317.2296	27
335.2161	27
335.2315	27
414.5969	27
414.6083	27
417.9277	27
417.9449	27
419.2161	27
419.2275	27
419.2304	54
419.2333	81
419.239	81
419.2419	134
419.2448	282
419.2476	188
419.2505	394
419.2534	515
419.2563	381
419.2591	403
419.262	287
419.2649	175
419.2677	134
419.2706	157
419.2821	27
419.2907	27
435.2496	27
435.2554	27
435.8906	27
435.8965	27
435.9082	27
437.2504	134
437.2533	81
437.2562	27
437.2592	148
437.2621	269
437.265	143
437.268	108
437.2709	197
437.2738	134
437.2768	134
437.2797	54
437.2826	54
437.2944	27
437.2973	27
449.6607	27
449.6666	27
450.2825	54
450.2944	27
450.2974	27
450.3004	27
450.3152	27
453.162	27
453.183	27
453.1859	54
453.1889	27
453.1919	54
453.1949	134
453.1978	175
453.2008	108
453.2038	81
453.2068	81
453.2098	108
453.2128	27
453.2188	81
453.2247	27
453.2277	27
457.0127	54
471.2043	27
471.2165	27
492.0068	27
492.013	27
735.1232	27
735.1384	27
736.1122	27
736.1541	27
737.4294	27
737.4332	27
737.4371	170
737.4409	260
737.4446	81
737.4485	260
737.4523	305
737.4561	340
737.4599	426
737.4637	417
737.4675	730
737.4713	766
737.4752	676
737.4789	685
737.4827	587
737.4866	529
737.4904	591
737.4942	255
737.498	332
737.5018	228
737.5056	134
737.5094	108
737.5132	27
737.517	134
737.5208	54
737.5247	27
737.5399	27
738.4734	27
738.4848	27
742.4807	27
742.4883	27
750.4703	27
750.478	81
750.4818	54
750.4857	27
750.4895	81
750.4933	81
750.4972	54
750.501	134
750.5049	54
750.5087	27
750.5126	81
750.5164	81
750.5203	81
750.5241	148
750.5318	54
750.5356	27
750.551	27
824.3933	27
824.4336	27
824.4417	27
824.4578	54
824.4618	108
824.4658	27
824.4698	81
824.4739	134
824.4779	336
824.4819	282
824.486	340
824.49	614
824.494	524
824.498	596
824.5021	793
824.5061	999
824.5101	932
824.5142	676
824.5182	932
824.5222	444
824.5262	452
824.5303	327
824.5343	170
824.5383	211
824.5424	108
824.5464	134
824.5504	152
824.5544	27
824.5585	54
824.5625	27
824.5665	54
824.5706	54
824.627	27
824.6752	27
824.6793	27
824.7397	27
