Mass spectrum: PE(16:1/14,15-EET); LC-ESI-QTOF; MS2
Name: PE(16:1/14,15-EET)
Class: Oxidized Phospholipid
Formula: C41H72NO9P
Exact mass: 754.001
SMILES: CCCCCC\C=C/CCCCCCCC(=O)OCC(COP(O)(=O)OCCN)OC(=O)CCC\C=C/C\C=C/C\C=C/CC1OC1CCCCC
InChI: InChI=1S/C41H72NO9P/c1-3-5-7-8-9-10-11-12-13-17-20-23-27-31-40(43)47-35-37(36-49-52(45,46)48-34-33-42)50-41(44)32-28-24-21-18-15-14-16-19-22-26-30-39-38(51-39)29-25-6-4-2/h10-11,14,16,18,21-22,26,37-39H,3-9,12-13,15,17,19-20,23-25,27-36,42H2,1-2H3,(H,45,46)/b11-10-,16-14-,21-18-,26-22-
Instrument: Acquity UPLC Peptide BEH C18 column (50 x 2.1 mm; 1.7 um), Sciex TripleTOF5600
Instrument type: LC-ESI-QTOF
Ms type: MS2
Ion mode: NEGATIVE
Collision energy: 30-50
Precursor m/z: 752.4871934
Precursor type: [M-H]-
m/z	relative intensity
140.011	79
175.1443	79
175.1462	79
175.1481	79
175.1499	118
175.1518	118
196.0379	79
196.0439	79
219.1308	79
219.135	118
219.1371	118
219.1392	118
219.1412	79
219.1433	79
219.1475	79
219.1517	79
221.1468	79
253.1968	79
253.1991	157
253.2013	244
253.2036	244
253.2058	401
253.208	362
253.2103	724
253.2125	519
253.2148	999
253.217	960
253.2193	881
253.2215	519
253.2238	645
253.226	323
253.2282	244
253.2305	118
253.2327	79
257.2135	79
257.2203	118
257.2225	118
257.2271	118
257.2293	283
257.2316	79
301.199	79
301.2039	79
301.2113	197
301.2137	118
301.2162	118
301.2186	157
301.2211	157
301.226	118
301.2309	157
319.2014	79
319.204	79
319.2065	157
319.209	157
319.2115	244
319.2141	323
319.2166	480
319.2191	441
319.2216	401
319.2242	480
319.2267	519
319.2292	684
319.2317	283
319.2342	480
319.2368	283
319.2418	157
319.2443	79
319.2519	118
320.2232	79
450.232	79
450.241	79
450.244	118
450.25	157
450.253	79
450.259	157
450.265	244
450.2679	118
450.2709	118
498.2739	118
752.3915	79
752.4263	118
752.4302	118
752.4341	118
752.4379	79
752.4418	118
752.4457	79
752.4496	79
752.4534	157
752.4573	558
752.4612	244
752.465	401
752.4689	598
752.4728	519
752.4766	684
752.4805	558
752.4844	684
752.4883	960
752.4921	842
752.496	724
752.4999	645
752.5037	881
752.5076	558
752.5115	480
752.5154	441
752.5192	480
752.5231	197
752.527	197
752.5347	244
752.5463	79
