Mass spectrum: PE 42:11; LC-ESI-QTOF; MS2
Name: PE 42:11
Class: PE
Formula: C47H72NO8P
Exact mass: 810.0679999999999
SMILES: CC\C=C/C\C=C/C\C=C/C\C=C/C\C=C/CCCC(=O)OCC(COP(O)(=O)OCCN)OC(=O)CC\C=C/C\C=C/C\C=C/C\C=C/C\C=C/C\C=C/CC
InChI: InChI=1S/C47H72NO8P/c1-3-5-7-9-11-13-15-17-19-21-22-24-26-28-30-32-34-36-38-40-47(50)56-45(44-55-57(51,52)54-42-41-48)43-53-46(49)39-37-35-33-31-29-27-25-23-20-18-16-14-12-10-8-6-4-2/h5-8,11-14,17-20,22,24-25,27-28,30-31,33-34,36,45H,3-4,9-10,15-16,21,23,26,29,32,35,37-44,48H2,1-2H3,(H,51,52)/b7-5-,8-6-,13-11-,14-12-,19-17-,20-18-,24-22-,27-25-,30-28-,33-31-,36-34-
Instrument: AB Sciex TripleTOF 5600+ system (Q-TOF) equipped with a DuoSpray ion source
Instrument type: LC-ESI-QTOF
Ms type: MS2
Ion mode: NEGATIVE
Collision energy: 45V
Column name: Acquity UPLC Peptide BEH C18 column (50*2.1 mm; 1.7 um; 130A)(Waters Co.,Milford, MA, USA)
Retention time: 8.547914
Precursor type: [M-H]-
Precursor m/z: 808.4932
m/z	relative intensity
78.958	16
140.009	22
140.019	8
175.148	5
177.167	9
191.178	9
196.038	51
203.186	11
214.05	11
229.196	41
229.21	9
249.188	16
255.215	8
255.236	15
257.224	59
269.242	5
281.231	7
283.243	298
283.268	24
284.249	4
287.208	5
299.234	5
301.185	9
301.215	455
327.23	848
328.241	5
343.22	18
345.237	8
391.221	7
409.229	6
419.253	24
437.265	6
464.303	5
480.247	25
480.277	5
481.322	2
482.315	2
498.242	22
498.258	119
498.28	19
498.33	3
500.274	2
506.242	11
506.27	18
524.238	6
524.281	15
524.324	4
600.927	2
647.45	3
651.474	5
721.455	10
721.485	12
721.51	9
776.5	13
790.557	9
805.943	13
808.405	10
808.439	74
808.485	999
808.515	318
808.575	22
808.701	3
809.49	6
