Mass spectrum: Cer[NS] d32:1; LC-ESI-QTOF; MS2
Name: Cer[NS] d32:1
Class: Cer_NS
Formula: C32H63NO3
Exact mass: 509.86
SMILES: CCCCCCCCCCCCCCCC(=O)NC(CO)C(O)\C=C\CCCCCCCCCCC
InChI: InChI=1S/C32H63NO3/c1-3-5-7-9-11-13-15-16-18-20-22-24-26-28-32(36)33-30(29-34)31(35)27-25-23-21-19-17-14-12-10-8-6-4-2/h25,27,30-31,34-35H,3-24,26,28-29H2,1-2H3,(H,33,36)/b27-25+
Instrument: AB Sciex TripleTOF 5600+ system (Q-TOF) equipped with a DuoSpray ion source
Instrument type: LC-ESI-QTOF
Ms type: MS2
Ion mode: NEGATIVE
Collision energy: 45V
Column name: Acquity UPLC Peptide BEH C18 column (50*2.1 mm; 1.7 um; 130A)(Waters Co.,Milford, MA, USA)
Retention time: 9.01182
Precursor type: [M+CH3COOH-H]-
Precursor m/z: 568.4916
m/z	relative intensity
209.19	297
225.217	89
226.213	208
227.207	178
237.224	238
252.225	485
252.243	208
254.253	59
263.232	89
268.226	119
280.26	148
317.62	59
460.44	267
460.464	148
476.433	157
478.448	208
508.44	241
508.451	211
508.46	241
508.473	999
