Mass spectrum: Cer[NS] d32:1; LC-ESI-QTOF; MS2
Name: Cer[NS] d32:1
Class: Cer_NS
Formula: C32H63NO3
Exact mass: 509.86
SMILES: CCCCCCCCCCCCC\C=C\C(O)C(CO)NC(=O)CCCCCCCCCCCCC
InChI: InChI=1S/C32H63NO3/c1-3-5-7-9-11-13-15-16-18-19-21-23-25-27-31(35)30(29-34)33-32(36)28-26-24-22-20-17-14-12-10-8-6-4-2/h25,27,30-31,34-35H,3-24,26,28-29H2,1-2H3,(H,33,36)/b27-25+
Instrument: AB Sciex TripleTOF 5600+ system (Q-TOF) equipped with a DuoSpray ion source
Instrument type: LC-ESI-QTOF
Ms type: MS2
Ion mode: NEGATIVE
Collision energy: 45V
Column name: Acquity UPLC Peptide BEH C18 column (50*2.1 mm; 1.7 um; 130A)(Waters Co.,Milford, MA, USA)
Retention time: 9.011998
Precursor type: [M+CH3COOH-H]-
Precursor m/z: 568.4925
m/z	relative intensity
209.19	57
226.22	155
227.201	63
237.22	213
252.231	469
254.242	63
263.235	96
266.244	57
280.266	371
460.455	153
476.448	134
478.469	213
508.472	999
