Mass spectrum: Cer[NS] d36:1; LC-ESI-QTOF; MS2
Name: Cer[NS] d36:1
Class: Cer_NS
Formula: C36H71NO3
Exact mass: 565.9679999999998
SMILES: CCCCCCCCCCCCCCCCCC(=O)NC(CO)C(O)\C=C\CCCCCCCCCCCCC
InChI: InChI=1S/C36H71NO3/c1-3-5-7-9-11-13-15-17-18-20-22-24-26-28-30-32-36(40)37-34(33-38)35(39)31-29-27-25-23-21-19-16-14-12-10-8-6-4-2/h29,31,34-35,38-39H,3-28,30,32-33H2,1-2H3,(H,37,40)/b31-29+
Instrument: AB Sciex TripleTOF 5600+ system (Q-TOF) equipped with a DuoSpray ion source
Instrument type: LC-ESI-QTOF
Ms type: MS2
Ion mode: NEGATIVE
Collision energy: 45V
Column name: Acquity UPLC Peptide BEH C18 column (50*2.1 mm; 1.7 um; 130A)(Waters Co.,Milford, MA, USA)
Retention time: 10.8503
Precursor type: [M+CH3COOH-H]-
Precursor m/z: 624.5541
m/z	relative intensity
235.203	4
237.21	34
237.224	104
239.235	7
250.255	14
253.249	7
254.229	4
254.247	26
255.232	15
263.236	62
263.255	4
265.252	157
266.258	7
268.251	10
268.272	8
280.261	108
281.291	14
282.261	12
282.279	65
282.297	11
283.263	59
291.268	32
294.278	5
296.244	11
296.261	14
296.294	6
298.275	7
306.281	4
308.294	411
322.293	5
324.276	13
324.287	37
324.297	11
324.302	10
336.313	4
505.496	2
516.471	7
516.512	77
516.552	7
532.483	28
532.507	55
532.523	25
533.511	2
534.486	15
534.519	133
546.506	6
546.536	3
562.745	7
564.46	8
564.532	999
