Mass spectrum: Cer[NS] d42:3; LC-ESI-QTOF; MS2
Name: Cer[NS] d42:3
Class: Cer_NS
Formula: C42H79NO3
Exact mass: 646.098
SMILES: CCCCCCCCCCCC\C=C/CCCCCCCCCC(=O)NC(CO)C(O)\C=C\CC\C=C\CCCCCCCCC
InChI: InChI=1S/C42H79NO3/c1-3-5-7-9-11-13-15-17-18-19-20-21-22-23-24-26-28-30-32-34-36-38-42(46)43-40(39-44)41(45)37-35-33-31-29-27-25-16-14-12-10-8-6-4-2/h21-22,27,29,35,37,40-41,44-45H,3-20,23-26,28,30-34,36,38-39H2,1-2H3,(H,43,46)/b22-21-,29-27+,37-35+
Instrument: AB Sciex TripleTOF 5600+ system (Q-TOF) equipped with a DuoSpray ion source
Instrument type: LC-ESI-QTOF
Ms type: MS2
Ion mode: NEGATIVE
Collision energy: 45V
Column name: Acquity UPLC Peptide BEH C18 column (50*2.1 mm; 1.7 um; 130A)(Waters Co.,Milford, MA, USA)
Retention time: 12.5883
Precursor type: [M+CH3COOH-H]-
Precursor m/z: 704.6157
m/z	relative intensity
233.2	1
234.475	1
235.206	96
237.212	3
237.227	7
248.241	2
261.219	74
263.227	3
263.239	2
264.229	12
266.247	15
268.258	1
279.23	3
296.25	4
296.267	1
345.305	2
345.318	5
347.329	106
362.338	4
362.362	1
363.314	3
363.333	3
363.355	2
363.373	4
364.355	100
365.338	77
378.364	2
388.335	17
388.357	41
389.144	1
390.323	2
390.371	472
404.323	1
404.351	12
406.366	74
408.389	1
420.38	1
585.552	2
594.556	1
596.519	1
596.552	14
596.578	65
612.54	18
612.562	43
612.586	31
614.563	22
614.581	114
614.61	18
614.648	2
619.572	1
626.586	4
642.557	2
642.587	2
644.596	999
645.601	2
686.53	0
704.593	0
