Mass spectrum: PS 40:4; LC-ESI-QTOF; MS2
Name: PS 40:4
Class: PS
Formula: C46H82NO10P
Exact mass: 840.135
SMILES: CCCCCCCCCCCCCCCCCC(=O)OCC(COP(O)(=O)OCC(N)C(O)=O)OC(=O)CCCCCCCC\C=C/C\C=C/C\C=C/C\C=C/CC
InChI: InChI=1S/C46H82NO10P/c1-3-5-7-9-11-13-15-17-19-20-21-22-24-26-28-30-32-34-36-38-45(49)57-42(40-55-58(52,53)56-41-43(47)46(50)51)39-54-44(48)37-35-33-31-29-27-25-23-18-16-14-12-10-8-6-4-2/h5,7,11,13,17,19,21-22,42-43H,3-4,6,8-10,12,14-16,18,20,23-41,47H2,1-2H3,(H,50,51)(H,52,53)/b7-5-,13-11-,19-17-,22-21-
Instrument: AB Sciex TripleTOF 5600+ system (Q-TOF) equipped with a DuoSpray ion source
Instrument type: LC-ESI-QTOF
Ms type: MS2
Ion mode: NEGATIVE
Collision energy: 45V
Column name: Acquity UPLC Peptide BEH C18 column (50*2.1 mm; 1.7 um; 130A)(Waters Co.,Milford, MA, USA)
Retention time: 9.189651
Precursor type: [M-H]-
Precursor m/z: 838.5547
m/z	relative intensity
78.958	7
96.967	2
134.985	1
152.978	2
152.995	41
241.001	1
255.232	1
256.231	1
275.209	0
282.366	1
283.263	302
283.303	1
284.268	4
285.265	2
287.268	1
299.039	1
327.225	1
329.249	1
330.239	2
331.262	70
331.293	1
419.216	1
419.254	146
420.257	3
437.232	3
437.265	77
467.252	35
467.284	2
485.246	1
485.269	7
489.301	0
524.288	0
553.262	3
554.24	1
554.263	4
554.293	1
557.086	0
581.31	4
582.28	4
582.31	3
582.338	0
610.304	0
676.504	1
749.143	1
750.509	0
751.526	328
751.617	1
752.528	2
835.915	3
837.526	3
837.58	1
838.347	1
838.433	1
838.544	999
838.638	5
839.538	3
840.003	1
