Mass spectrum: PE(18:1/12-HEPE); LC-ESI-QTOF; MS2
Name: PE(18:1/12-HEPE)
Class: Oxidized Phospholipid
Formula: C43H74NO9P
Exact mass: 780.039
SMILES: CCCCCCCC\C=C/CCCCCCCC(=O)OCC(COP(O)(=O)OCCN)OC(=O)CCC\C=C/C\C=C/C=C/C(O)C\C=C/C\C=C/CC
InChI: InChI=1S/C43H74NO9P/c1-3-5-7-9-11-12-13-14-15-16-17-18-22-26-30-34-42(46)50-38-41(39-52-54(48,49)51-37-36-44)53-43(47)35-31-27-23-20-19-21-25-29-33-40(45)32-28-24-10-8-6-4-2/h6,8,14-15,20-21,23-25,28-29,33,40-41,45H,3-5,7,9-13,16-19,22,26-27,30-32,34-39,44H2,1-2H3,(H,48,49)/b8-6-,15-14-,23-20-,25-21-,28-24-,33-29+
Instrument: Acquity UPLC Peptide BEH C18 column (50 x 2.1 mm; 1.7 um), Sciex TripleTOF5600
Instrument type: LC-ESI-QTOF
Ms type: MS2
Ion mode: NEGATIVE
Collision energy: 30-50
Precursor m/z: 778.5028435
Precursor type: [M-H]-
m/z	relative intensity
78.95579	10
78.95955	10
78.96206	10
78.96582	10
93.0781	10
107.0847	14
107.0891	14
109.0988	14
109.1003	10
109.1017	10
109.1032	14
109.1047	10
121.1018	10
135.1085	10
135.1101	14
135.115	10
135.1167	19
135.1183	19
135.1199	10
135.1232	10
140.0016	10
140.0033	10
140.0066	14
140.0083	10
140.01	39
140.0116	10
140.0133	19
140.015	39
140.0183	24
163.1078	10
163.1096	10
163.1114	30
163.1132	24
163.115	10
163.1168	10
178.0399	10
179.0939	19
179.0958	19
179.0977	19
179.0996	39
179.1015	93
179.1033	137
179.1052	146
179.1071	137
179.109	117
179.1109	117
179.1128	102
179.1147	58
179.1166	19
179.1185	14
179.1241	10
180.115	10
180.1169	10
181.1219	10
196.0267	19
196.0306	49
196.0326	30
196.0346	49
196.0366	49
196.0385	34
196.0405	39
196.0425	24
196.0445	30
196.0464	19
196.0484	14
196.0504	10
201.1526	14
201.1606	10
201.1626	14
201.1666	10
201.1706	10
201.1726	14
207.0952	44
207.0972	10
207.0993	10
207.1094	19
207.1155	10
208.0934	10
208.0995	24
208.1015	14
208.1036	30
208.1056	34
208.1076	49
208.1097	63
208.1117	30
208.1137	53
208.1158	24
208.1178	14
208.1198	19
208.1219	14
225.1796	10
227.1827	10
255.1928	10
255.195	10
255.1973	24
255.1995	24
255.2018	39
255.204	63
255.2063	73
255.2085	53
255.2108	93
255.213	88
255.2153	49
255.2176	30
255.2198	34
255.2221	19
255.2243	39
255.2266	10
255.2288	10
255.2311	10
255.2333	19
255.2401	14
273.2166	19
273.2189	14
273.2306	19
273.2375	10
281.1871	10
281.206	10
281.2178	14
281.2202	15
281.2226	35
281.2249	25
281.2273	79
281.2297	106
281.232	151
281.2344	177
281.2368	243
281.2391	351
281.2415	444
281.2439	475
281.2462	573
281.2486	645
281.251	655
281.2533	542
281.2557	385
281.2581	282
281.2604	262
281.2628	184
281.2652	56
281.2675	92
281.2699	41
281.2723	31
281.2746	31
281.2794	10
282.2528	10
299.1827	14
299.1852	19
299.1876	30
299.1901	49
299.1925	34
299.1949	63
299.1974	49
299.1998	63
299.2023	93
299.2047	102
299.2072	68
299.2096	58
299.212	34
299.2145	19
299.2169	19
299.2194	24
299.2242	30
306.112	10
316.2217	25
316.7865	10
317.1784	20
317.1809	15
317.1834	40
317.186	15
317.1885	31
317.191	140
317.1935	136
317.196	85
317.1985	239
317.201	346
317.2036	365
317.2061	494
317.2086	478
317.2111	495
317.2136	541
317.2161	407
317.2186	374
317.2211	309
317.2237	249
317.2262	167
317.2287	122
317.2312	56
317.2337	67
317.2362	41
317.2387	41
317.2412	20
317.2438	15
317.2463	26
317.2488	10
331.2267	10
331.2293	10
447.327	10
460.2572	10
460.2663	14
460.2693	10
460.2723	19
460.2754	24
460.2784	19
460.2814	10
460.2845	10
460.2875	10
460.2905	10
460.2935	10
460.2996	19
478.2529	10
478.256	10
478.2591	14
478.2622	14
478.2653	14
478.2683	30
478.2714	30
478.2745	39
478.2776	83
478.2807	78
478.2838	88
478.2869	88
478.2899	107
478.293	102
478.2961	151
478.2992	63
478.3023	151
478.3054	73
478.3085	63
478.3116	58
478.3146	39
478.3177	24
478.3208	10
478.3239	34
478.327	10
496.2291	10
496.2448	14
496.2511	14
496.2574	10
514.2488	10
514.252	10
514.2552	10
514.2648	19
514.268	19
514.2776	10
515.2604	10
553.2917	10
587.3442	10
587.3476	10
587.3544	14
587.3578	10
587.3681	10
587.3715	14
587.3818	10
628.5536	10
669.4175	10
776.0317	10
776.0396	10
776.0671	10
776.0868	11
778.4194	10
778.4234	24
778.4273	10
778.4313	44
778.4352	39
778.4391	10
778.4431	32
778.447	32
778.4509	64
778.4549	131
778.4588	147
778.4628	237
778.4667	292
778.4706	286
778.4745	399
778.4785	525
778.4824	670
778.4864	638
778.4903	795
778.4943	864
778.4982	816
778.5021	841
778.506	959
778.51	999
778.5139	964
778.5179	976
778.5218	780
778.5258	675
778.5297	611
778.5336	451
778.5375	445
778.5415	324
778.5454	263
778.5494	214
778.5533	148
778.5573	114
778.5612	71
778.5651	66
778.569	72
778.573	68
778.5769	6
778.5809	11
778.5887	18
778.5927	11
778.5966	10
778.6005	10
779.4551	10
779.459	10
779.463	19
779.4669	24
779.4709	14
779.4748	19
779.4788	19
779.4827	24
779.4866	24
779.4906	34
779.4945	14
779.5024	14
779.5142	10
779.5182	14
779.53	14
779.5339	10
