Mass spectrum: PG 36:1; LC-ESI-QTOF; MS2
Name: PG 36:1
Class: PG
Formula: C42H81O10P
Exact mass: 777.076
SMILES: CCCCCCCCCCCCCCCCCC(=O)OCC(COP(O)(=O)OCC(O)CO)OC(=O)CCCCCCC\C=C/CCCCCCCC
InChI: InChI=1S/C42H81O10P/c1-3-5-7-9-11-13-15-17-19-21-23-25-27-29-31-33-41(45)49-37-40(38-51-53(47,48)50-36-39(44)35-43)52-42(46)34-32-30-28-26-24-22-20-18-16-14-12-10-8-6-4-2/h18,20,39-40,43-44H,3-17,19,21-38H2,1-2H3,(H,47,48)/b20-18-
Instrument: AB Sciex TripleTOF 5600+ system (Q-TOF) equipped with a DuoSpray ion source
Instrument type: LC-ESI-QTOF
Ms type: MS2
Ion mode: NEGATIVE
Collision energy: 45V
Column name: Acquity UPLC Peptide BEH C18 column (50*2.1 mm; 1.7 um; 130A)(Waters Co.,Milford, MA, USA)
Retention time: 9.180191
Precursor type: [M-H]-
Precursor m/z: 775.5406
m/z	relative intensity
152.994	65
171.008	16
227.032	19
255.226	79
255.239	72
280.36	9
281.248	737
283.263	298
297.254	6
309.275	497
391.228	29
419.224	16
419.269	10
459.763	6
465.257	9
483.277	12
491.269	12
493.29	22
509.29	7
511.276	19
511.298	35
675.479	19
701.562	28
743.549	9
773.078	9
775.495	81
775.533	999
775.562	499
775.612	25
