Mass spectrum: PG 38:5; LC-ESI-QTOF; MS2
Name: PG 38:5
Class: PG
Formula: C44H77O10P
Exact mass: 797.0659999999999
SMILES: CCCCCCCC\C=C/CCCCCCCC(=O)OCC(COP(O)(=O)OCC(O)CO)OC(=O)CCCCCC\C=C/C\C=C/C\C=C/C\C=C/CC
InChI: InChI=1S/C44H77O10P/c1-3-5-7-9-11-13-15-17-19-20-22-24-26-28-30-32-34-36-44(48)54-42(40-53-55(49,50)52-38-41(46)37-45)39-51-43(47)35-33-31-29-27-25-23-21-18-16-14-12-10-8-6-4-2/h5,7,11,13,17-19,21-22,24,41-42,45-46H,3-4,6,8-10,12,14-16,20,23,25-40H2,1-2H3,(H,49,50)/b7-5-,13-11-,19-17-,21-18-,24-22-
Instrument: AB Sciex TripleTOF 5600+ system (Q-TOF) equipped with a DuoSpray ion source
Instrument type: LC-ESI-QTOF
Ms type: MS2
Ion mode: NEGATIVE
Collision energy: 45V
Column name: Acquity UPLC Peptide BEH C18 column (50*2.1 mm; 1.7 um; 130A)(Waters Co.,Milford, MA, USA)
Retention time: 8.154675
Precursor type: [M-H]-
Precursor m/z: 795.5186
m/z	relative intensity
152.991	9
153.0	6
205.195	9
259.243	42
280.36	5
281.248	907
285.222	6
302.289	5
303.231	770
417.241	2
439.214	4
457.238	4
491.274	5
509.262	4
509.297	8
513.264	6
513.287	2
531.263	11
531.294	2
533.25	1
565.514	2
735.547	1
765.896	1
793.016	5
794.537	1
795.514	999
795.677	1
796.511	3
