Mass spectrum: SM d42:2; LC-ESI-QTOF; MS2
Name: SM d42:2
Class: SM
Formula: C47H93N2O6P
Exact mass: 813.245
SMILES: CCCCCCCCCCCCC\C=C\C(O)C(COP([O-])(=O)OCC[N+](C)(C)C)NC(=O)CCCCCCCCC\C=C/CCCCCCCCCCCC
InChI: InChI=1S/C47H93N2O6P/c1-6-8-10-12-14-16-18-20-21-22-23-24-25-26-27-29-31-33-35-37-39-41-47(51)48-45(44-55-56(52,53)54-43-42-49(3,4)5)46(50)40-38-36-34-32-30-28-19-17-15-13-11-9-7-2/h24-25,38,40,45-46,50H,6-23,26-37,39,41-44H2,1-5H3,(H-,48,51,52,53)/b25-24-,40-38+
Instrument: AB Sciex TripleTOF 5600+ system (Q-TOF) equipped with a DuoSpray ion source
Instrument type: LC-ESI-QTOF
Ms type: MS2
Ion mode: NEGATIVE
Collision energy: 45V
Column name: Acquity UPLC Peptide BEH C18 column (50*2.1 mm; 1.7 um; 130A)(Waters Co.,Milford, MA, USA)
Retention time: 12.22345
Precursor type: [M+CH3COOH-H]-
Precursor m/z: 871.6881
m/z	relative intensity
78.958	8
119.037	0
122.987	2
168.043	31
255.231	0
365.335	0
428.608	0
449.31	2
470.71	0
481.31	0
618.586	1
645.595	0
663.615	1
708.56	0
726.573	3
752.589	1
795.145	4
796.706	0
797.464	0
797.565	1
797.649	999
798.65	3
811.651	0
812.599	5
812.626	7
825.65	2
871.69	44
