Mass spectrum: PC(16:0e/11,12-EpETE); LC-ESI-QTOF; MS2
Name: PC(16:0e/11,12-EpETE)
Class: Oxidized Phospholipid
Formula: C44H80NO8P
Exact mass: 782.099
SMILES: CCCCCCCCCCCCCCCCOCC(COP([O-])(=O)OCC[N+](C)(C)C)OC(=O)CCC\C=C/C\C=C/CC1OC1C\C=C/C\C=C/CC
InChI: InChI=1S/C44H80NO8P/c1-6-8-10-12-14-15-16-17-18-19-20-24-28-32-37-49-39-41(40-51-54(47,48)50-38-36-45(3,4)5)52-44(46)35-31-27-23-21-22-26-30-34-43-42(53-43)33-29-25-13-11-9-7-2/h9,11,21,23,25-26,29-30,41-43H,6-8,10,12-20,22,24,27-28,31-40H2,1-5H3/b11-9-,23-21-,29-25-,30-26-
Instrument: Acquity UPLC Peptide BEH C18 column (50 x 2.1 mm; 1.7 um), Sciex TripleTOF5600
Instrument type: LC-ESI-QTOF
Ms type: MS2
Ion mode: NEGATIVE
Collision energy: 30-50
Precursor m/z: 840.576008
Precursor type: [M+CH3COOH-H]-
m/z	relative intensity
109.0985	13
121.1062	13
135.1115	13
135.1165	20
149.0912	13
149.1015	13
167.0962	26
167.098	33
167.0998	20
167.1016	52
167.1035	72
167.1053	20
167.1071	85
167.1089	91
167.1107	72
167.1126	33
167.1144	20
167.1162	20
167.1181	20
177.1054	13
179.0957	20
179.0976	26
179.0995	13
179.1014	39
179.1033	26
179.1051	33
179.107	26
179.1089	45
179.1108	39
179.1127	20
179.1146	13
179.1165	20
179.1184	13
179.1203	13
179.1221	13
195.0973	13
195.0992	20
195.1012	26
195.1032	13
195.1052	13
195.1071	20
201.1605	13
207.0972	20
207.0992	20
207.1013	13
207.1033	13
207.1053	13
207.1094	13
208.1035	26
208.1056	20
208.1076	26
208.1096	39
208.1117	26
208.1178	13
208.1198	26
255.1929	13
255.1996	20
255.2019	20
255.2041	20
255.2064	26
255.2086	45
255.2109	26
255.2131	45
255.2154	52
255.2177	26
255.2199	20
255.2222	26
255.2289	20
273.2237	13
273.226	13
299.1854	20
299.1878	13
299.1927	39
299.1976	39
299.2	59
299.2025	45
299.2049	45
299.2074	40
299.2098	26
299.2122	33
299.2147	13
316.227	13
317.1837	33
317.1862	26
317.1888	73
317.1913	33
317.1938	46
317.1963	60
317.1988	87
317.2013	133
317.2038	153
317.2063	161
317.2089	236
317.2114	262
317.2139	236
317.2164	229
317.2189	162
317.2214	176
317.2239	115
317.2264	74
317.229	47
317.2315	88
317.234	41
317.2365	13
317.239	7
317.2516	13
377.2402	20
377.243	33
377.2485	20
377.2512	26
377.2594	20
377.2649	13
448.2951	20
448.2981	13
448.3011	13
448.3041	20
448.3071	13
448.3101	45
448.313	26
448.316	39
448.319	39
448.322	59
448.325	20
448.328	39
448.331	26
448.334	26
448.337	39
448.3399	13
448.3489	20
448.3579	13
465.1444	13
466.2923	33
466.3015	26
466.3045	59
466.3076	33
466.3106	52
466.3137	112
466.3167	73
466.3198	112
466.3228	107
466.3258	107
466.3289	153
466.3319	199
466.335	146
466.338	186
466.3411	132
466.3441	86
466.3472	86
466.3502	40
466.3533	80
466.3563	20
466.3594	40
466.3624	20
466.3654	13
466.3685	20
466.3716	20
466.3746	13
766.3984	13
766.4648	13
766.4688	13
766.4844	7
766.4882	84
766.4922	81
766.496	82
766.5	154
766.5039	201
766.5078	252
766.5117	271
766.5156	364
766.5195	467
766.5234	488
766.5273	677
766.5313	617
766.5352	681
766.5391	904
766.543	888
766.5469	871
766.5508	826
766.5547	999
766.5586	690
766.5625	633
766.5664	623
766.5703	523
766.5742	460
766.5781	334
766.582	236
766.5859	167
766.5898	107
766.5938	75
766.5977	85
766.6016	59
766.6055	50
766.6094	23
766.6133	22
766.6211	8
766.625	21
766.6289	8
766.6328	14
767.5199	20
767.5238	13
767.5316	33
767.5355	13
767.5394	13
767.5472	13
767.5511	20
767.5551	20
767.5629	26
767.5668	20
767.5707	20
767.5746	20
781.4831	26
781.4871	13
781.4949	20
781.5146	13
781.5186	13
781.5265	26
840.459	13
840.4999	13
840.5122	13
840.5163	20
840.5204	20
840.5245	13
840.5286	26
840.5327	13
840.5367	59
840.5408	13
840.5449	33
840.549	13
840.5531	39
840.5572	20
840.5613	26
840.5654	59
840.5695	45
840.5735	45
840.5776	39
840.5817	52
840.5858	78
840.5899	59
840.594	65
840.5981	45
840.6022	52
840.6063	52
840.6104	39
840.6144	39
840.6185	20
840.6226	13
840.6268	26
840.6309	20
840.6349	20
840.6513	13
840.6677	13
841.5188	13
841.5392	13
841.5474	13
