Mass spectrum: PG(18:1/15-HETE); LC-ESI-QTOF; MS2
Name: PG(18:1/15-HETE)
Class: Oxidized Phospholipid
Formula: C44H77O11P
Exact mass: 813.065
SMILES: CCCCCCCC\C=C/CCCCCCCC(=O)OCC(COP(O)(=O)OCC(O)CO)OC(=O)CCC\C=C/C\C=C/C\C=C/C=C/C(O)CCCCC
InChI: InChI=1S/C44H77O11P/c1-3-5-7-8-9-10-11-12-13-14-17-20-23-26-30-34-43(48)52-38-42(39-54-56(50,51)53-37-41(47)36-45)55-44(49)35-31-27-24-21-18-15-16-19-22-25-29-33-40(46)32-28-6-4-2/h12-13,15-16,21-22,24-25,29,33,40-42,45-47H,3-11,14,17-20,23,26-28,30-32,34-39H2,1-2H3,(H,50,51)/b13-12-,16-15-,24-21-,25-22-,33-29+
Instrument: Acquity UPLC Peptide BEH C18 column (50 x 2.1 mm; 1.7 um), Sciex TripleTOF5600
Instrument type: LC-ESI-QTOF
Ms type: MS2
Ion mode: NEGATIVE
Collision energy: 30-50
Precursor m/z: 811.5130738
Precursor type: [M-H]-
m/z	relative intensity
152.9869	36
152.9904	36
153.0009	54
175.1423	36
175.1442	36
175.1479	36
175.1498	36
175.1517	36
175.1535	71
219.118	36
219.1264	36
219.1285	54
219.1306	107
219.1327	89
219.1368	54
219.1389	71
219.141	161
219.1431	54
219.1452	71
219.1494	36
219.1515	54
255.228	36
257.2155	71
257.22	36
257.2222	89
257.2245	36
257.2267	107
257.2313	36
257.2336	71
257.2358	36
275.2485	36
281.224	36
281.2288	71
281.2311	125
281.2335	161
281.2359	294
281.2382	562
281.2406	598
281.243	803
281.2453	981
281.2477	892
281.2501	892
281.2524	838
281.2548	669
281.2572	544
281.2595	508
281.2619	312
281.2643	143
281.2666	178
281.269	36
281.2714	71
281.2737	71
281.2832	36
283.2626	36
301.2011	54
301.2036	36
301.206	89
301.2109	178
301.2133	71
301.2158	54
301.2182	89
301.2207	277
301.2231	125
301.2256	107
301.228	125
301.2305	125
301.2329	36
301.2354	36
319.2036	36
319.2061	54
319.2086	89
319.2137	89
319.2162	178
319.2187	161
319.2212	125
319.2237	366
319.2262	277
319.2288	277
319.2313	348
319.2338	312
319.2363	143
319.2389	196
319.2414	178
319.2439	107
319.2464	54
319.2489	125
320.2379	36
455.2029	36
455.2179	36
529.2305	36
529.2467	36
529.2597	54
547.2667	36
809.0132	36
811.4149	36
811.431	36
811.4351	71
811.439	36
811.4431	71
811.4471	54
811.4511	54
811.4551	89
811.4592	107
811.4632	143
811.4672	161
811.4712	107
811.4752	312
811.4792	294
811.4833	214
811.4873	401
811.4913	437
811.4953	562
811.4993	785
811.5034	892
811.5074	856
811.5114	749
811.5154	856
811.5195	999
811.5234	803
811.5275	749
811.5315	999
811.5355	928
811.5396	491
811.5436	767
811.5476	508
811.5516	508
811.5556	366
811.5596	384
811.5637	143
811.5677	196
811.5717	89
811.5757	107
811.5797	54
811.5837	36
811.5878	36
811.5918	54
811.5958	36
812.5045	36
812.5126	36
812.5246	54
812.5407	36
