Mass spectrum: PE(18:0/5,6-EET); LC-ESI-QTOF; MS2
Name: PE(18:0/5,6-EET)
Class: Oxidized Phospholipid
Formula: C43H78NO9P
Exact mass: 784.071
SMILES: CCCCCCCCCCCCCCCCCC(=O)OCC(COP(O)(=O)OCCN)OC(=O)CCCC1OC1C\C=C/C\C=C/C\C=C/CCCCC
InChI: InChI=1S/C43H78NO9P/c1-3-5-7-9-11-13-15-17-18-19-21-23-25-27-29-33-42(45)49-37-39(38-51-54(47,48)50-36-35-44)52-43(46)34-30-32-41-40(53-41)31-28-26-24-22-20-16-14-12-10-8-6-4-2/h12,14,20,22,26,28,39-41H,3-11,13,15-19,21,23-25,27,29-38,44H2,1-2H3,(H,47,48)/b14-12-,22-20-,28-26-
Instrument: Acquity UPLC Peptide BEH C18 column (50 x 2.1 mm; 1.7 um), Sciex TripleTOF5600
Instrument type: LC-ESI-QTOF
Ms type: MS2
Ion mode: NEGATIVE
Collision energy: 30-50
Precursor m/z: 782.5341436
Precursor type: [M-H]-
m/z	relative intensity
83.05169	81
97.241	52
99.04134	52
99.05258	52
137.1345	107
140.0079	52
140.0096	52
140.0129	52
163.1508	52
177.1672	52
191.1677	52
191.1696	81
191.1716	81
191.1735	81
191.1755	52
191.1774	133
191.1794	107
191.1813	241
191.1833	133
191.1872	52
191.1891	52
196.0265	52
196.0305	107
196.0403	81
219.171	81
219.1752	52
253.2064	52
253.2132	52
253.2177	133
257.2413	52
275.2261	52
275.2331	52
281.2346	52
281.2369	52
281.244	52
283.2281	55
283.2376	81
283.24	55
283.2423	107
283.2447	107
283.2471	133
283.2495	243
283.2518	269
283.2542	322
283.2566	567
283.2589	756
283.2613	894
283.2637	622
283.2661	617
283.2685	594
283.2708	377
283.2732	458
283.2756	350
283.278	217
283.2803	133
283.2827	107
283.2851	52
283.2874	55
283.2922	52
297.2459	52
301.1998	52
301.2072	52
301.2096	52
301.2121	52
301.2219	52
301.2243	52
301.2292	133
319.1973	81
319.2023	52
319.2048	52
319.2099	133
319.2124	186
319.2149	107
319.2174	241
319.22	293
319.2225	293
319.225	400
319.2275	507
319.23	319
319.2326	348
319.2351	267
319.2376	348
319.2401	52
319.2426	267
319.2452	186
319.2477	81
319.2502	52
337.2996	52
462.2916	52
462.2947	81
480.2866	52
480.2896	107
480.2958	81
480.2989	186
480.302	81
480.3051	214
480.3082	267
480.3113	241
480.3144	133
480.3175	81
480.3206	81
480.3237	133
480.3268	81
480.3299	81
480.3329	52
498.2565	52
516.2647	52
700.481	52
700.4885	52
700.4997	81
700.5034	52
714.5058	52
716.525	55
780.0568	52
780.0765	52
780.0883	81
782.4428	52
782.4665	52
782.4705	162
782.4783	81
782.4823	55
782.4902	133
782.4941	110
782.498	107
782.502	165
782.5059	301
782.5099	466
782.5139	439
782.5178	607
782.5217	635
782.5257	361
782.5296	834
782.5336	855
782.5375	808
782.5415	805
782.5454	860
782.5494	999
782.5533	889
782.5573	777
782.5612	557
782.5652	696
782.5691	416
782.5731	361
782.577	390
782.5809	139
782.5849	220
782.5889	139
782.5967	110
782.6007	81
782.6046	81
782.6086	52
782.6283	81
783.5167	52
783.5206	52
783.5364	52
