Mass spectrum: Cer[NS] d44:2; LC-ESI-QTOF; MS2
Name: Cer[NS] d44:2
Class: Cer_NS
Formula: C44H85NO3
Exact mass: 676.1679999999999
SMILES: CCCCCCCCCCCCCCCCCCCCCCCCCC(=O)NC(CO)C(O)\C=C\CC\C=C\CCCCCCCCC
InChI: InChI=1S/C44H85NO3/c1-3-5-7-9-11-13-15-17-18-19-20-21-22-23-24-25-26-28-30-32-34-36-38-40-44(48)45-42(41-46)43(47)39-37-35-33-31-29-27-16-14-12-10-8-6-4-2/h29,31,37,39,42-43,46-47H,3-28,30,32-36,38,40-41H2,1-2H3,(H,45,48)/b31-29+,39-37+
Instrument: AB Sciex TripleTOF 5600+ system (Q-TOF) equipped with a DuoSpray ion source
Instrument type: LC-ESI-QTOF
Ms type: MS2
Ion mode: NEGATIVE
Collision energy: 45V
Column name: Acquity UPLC Peptide BEH C18 column (50*2.1 mm; 1.7 um; 130A)(Waters Co.,Milford, MA, USA)
Retention time: 13.34272
Precursor type: [M+CH3COOH-H]-
Precursor m/z: 734.6599
m/z	relative intensity
235.199	9
237.222	35
253.215	6
261.218	13
263.237	27
263.248	11
265.249	15
279.225	34
279.231	13
279.236	20
279.246	11
291.271	14
349.338	19
364.358	17
365.34	11
375.357	36
375.369	11
377.362	24
377.378	11
377.393	11
390.364	50
390.376	18
390.382	20
392.376	38
392.386	15
392.392	11
393.365	15
393.395	20
394.405	29
395.387	29
406.372	11
418.38	20
418.389	34
418.399	84
418.409	29
418.415	25
418.42	18
420.42	100
434.397	24
436.414	36
626.603	34
626.64	29
642.588	11
642.607	43
642.638	11
644.596	11
644.603	13
644.614	41
644.628	18
644.636	13
644.643	13
644.668	22
649.6	15
649.607	11
649.637	31
656.642	11
672.494	11
674.577	11
674.606	108
674.632	999
674.654	188
674.661	158
734.676	4
735.588	4
