Mass spectrum: PC 38:5; LC-ESI-QTOF; MS2
Name: PC 38:5
Class: PC
Formula: C46H82NO8P
Exact mass: 808.137
SMILES: CCCCCCCCCCCCCCCCCC(=O)OCC(COP([O-])(=O)OCC[N+](C)(C)C)OC(=O)CCC\C=C/C\C=C/C\C=C/C\C=C/C\C=C/CC
InChI: InChI=1S/C46H82NO8P/c1-6-8-10-12-14-16-18-20-22-23-25-27-29-31-33-35-37-39-46(49)55-44(43-54-56(50,51)53-41-40-47(3,4)5)42-52-45(48)38-36-34-32-30-28-26-24-21-19-17-15-13-11-9-7-2/h8,10,14,16,20,22,25,27,31,33,44H,6-7,9,11-13,15,17-19,21,23-24,26,28-30,32,34-43H2,1-5H3/b10-8-,16-14-,22-20-,27-25-,33-31-
Instrument: AB Sciex TripleTOF 5600+ system (Q-TOF) equipped with a DuoSpray ion source
Instrument type: LC-ESI-QTOF
Ms type: MS2
Ion mode: NEGATIVE
Collision energy: 45V
Column name: Acquity UPLC Peptide BEH C18 column (50*2.1 mm; 1.7 um; 130A)(Waters Co.,Milford, MA, USA)
Retention time: 9.636188
Precursor type: [M+CH3COOH-H]-
Precursor m/z: 866.5902
m/z	relative intensity
151.149	1
168.041	11
177.164	2
203.179	14
223.175	3
224.068	17
242.08	2
255.23	2
256.424	2
257.225	94
282.378	2
283.263	322
300.272	2
301.057	0
301.215	655
301.254	2
329.247	3
419.257	3
434.297	1
452.25	1
458.16	1
490.327	14
490.343	4
506.742	1
508.26	3
508.283	5
508.335	90
526.272	1
526.291	3
565.397	3
601.348	1
721.475	2
747.466	1
747.499	2
790.038	4
790.073	1
791.337	1
791.611	0
792.549	999
792.624	2
792.751	1
792.912	0
793.542	2
807.482	3
807.515	7
807.533	2
863.839	1
866.59	110
