Mass spectrum: PI 38:3; LC-ESI-QTOF; MS2
Name: PI 38:3
Class: PI
Formula: C47H85O13P
Exact mass: 889.1599999999999
SMILES: CCCCCCCCCCCCCCCCCC(=O)OCC(COP(O)(=O)OC1C(O)C(O)C(O)C(O)C1O)OC(=O)CCCCCCCCC\C=C/C\C=C/C\C=C/CC
InChI: InChI=1S/C47H85O13P/c1-3-5-7-9-11-13-15-17-19-20-22-24-26-28-30-32-34-36-41(49)59-39(38-58-61(55,56)60-47-45(53)43(51)42(50)44(52)46(47)54)37-57-40(48)35-33-31-29-27-25-23-21-18-16-14-12-10-8-6-4-2/h5,7,11,13,17,19,39,42-47,50-54H,3-4,6,8-10,12,14-16,18,20-38H2,1-2H3,(H,55,56)/b7-5-,13-11-,19-17-
Instrument: AB Sciex TripleTOF 5600+ system (Q-TOF) equipped with a DuoSpray ion source
Instrument type: LC-ESI-QTOF
Ms type: MS2
Ion mode: NEGATIVE
Collision energy: 45V
Column name: Acquity UPLC Peptide BEH C18 column (50*2.1 mm; 1.7 um; 130A)(Waters Co.,Milford, MA, USA)
Retention time: 8.913146
Precursor type: [M-H]-
Precursor m/z: 887.5606
m/z	relative intensity
78.957	4
96.971	1
134.989	0
152.521	0
152.994	10
171.008	0
223.0	17
238.993	0
240.255	0
241.01	71
259.019	6
261.247	0
261.263	0
282.382	0
283.223	0
283.263	123
284.264	1
285.26	0
297.014	0
297.036	11
303.23	0
304.237	0
304.291	0
305.209	0
305.248	121
306.258	0
315.043	4
315.06	1
417.946	0
419.253	55
419.273	10
421.251	0
437.264	6
437.297	0
438.267	0
441.235	8
441.266	1
459.248	0
487.185	0
489.24	0
507.265	0
525.285	0
579.287	0
581.305	61
583.313	0
599.291	4
599.319	13
603.251	1
603.29	10
603.351	0
621.274	1
621.304	1
621.339	0
725.457	1
725.502	3
725.524	1
727.5	1
727.534	1
765.517	0
767.502	0
795.511	1
809.509	0
813.647	0
837.513	0
855.479	0
855.525	1
855.566	0
869.533	0
884.688	0
884.731	2
884.763	2
884.804	0
884.835	0
885.431	0
885.622	0
886.336	0
886.524	0
887.217	0
887.339	0
887.4	0
887.558	999
888.27	0
888.519	0
888.564	2
888.586	0
