Mass spectrum: R-3-Amino-5-(methylthio)pentanoic acid; LC-ESI-QTOF; MS2; CE:Ramp 5-60 V; [M+H]+
Name: L-beta-Homomethionine
Name: R-3-Amino-5-(methylthio)pentanoic acid
Class: Amino acids
Formula: C6H13NO2S
Exact mass: 163.06670
SMILES: CSCCC(N)CC(O)=O
InChI: InChI=1S/C6H13NO2S/c1-10-3-2-5(7)4-6(8)9/h5H,2-4,7H2,1H3,(H,8,9)/t5-/m0/s1
Instrument: UPLC Q-Tof Premier, Waters
Instrument type: LC-ESI-QTOF
Ms type: MS2
Ion mode: POSITIVE
Collision energy: Ramp 5-60 V
Fragmentation mode: LOW-ENERGY CID
Ionization: ESI
Precursor m/z: 164.0745
Precursor type: [M+H]+
m/z	relative intensity
56.0512	97
61.0124	224
87.0275	171
104.0534	999
147.0491	217
164.0745	397
