Mass spectrum: L-Aspartic acid; GC-EI-TOF; MS; 3 TMS; BP:73
Name: L-Aspartic acid
Name: L-Aspartate
Name: 2-Aminosuccinic acid
Class: Natural Product
Formula: C4H7NO4
Exact mass: 133.03751
SMILES: OC(=O)CC(N)C(O)=O
InChI: InChI=1S/C4H7NO4/c5-2(4(8)9)1-3(6)7/h2H,1,5H2,(H,6,7)(H,8,9)/t2-/m0/s1
Instrument: Pegasus III TOF-MS system, Leco; GC 6890, Agilent Technologies
Instrument type: GC-EI-TOF
Ms type: MS
Ion mode: POSITIVE
Retention time: 406.552 sec
Base peak: 73
Derivative form: C13H31NO4Si3
Derivative mass: 349.15609
Derivative type: 3 TMS
m/z	relative intensity
60	15
61	21
62	2
63	2
66	10
67	2
69	1
70	38
71	7
72	32
73	999
74	112
75	131
76	12
77	30
78	2
79	6
82	1
83	3
84	8
85	4
86	10
87	5
88	3
89	3
91	1
92	1
93	1
98	8
99	6
100	224
101	30
102	14
103	14
104	1
105	2
113	1
114	4
115	14
116	8
117	51
118	6
119	10
120	1
126	1
128	6
129	4
130	22
131	19
132	15
133	42
134	8
135	4
142	13
143	5
144	6
145	1
146	3
147	117
148	20
149	19
150	3
151	1
158	2
159	1
160	3
161	2
163	11
164	2
165	1
171	1
172	6
173	2
174	10
175	2
176	2
177	3
184	1
188	30
189	7
190	4
191	2
200	1
202	31
203	6
204	9
205	3
206	1
216	14
217	3
218	52
219	10
220	4
221	2
230	1
231	1
232	274
233	58
234	25
235	4
244	2
245	2
246	1
292	3
293	1
306	6
307	2
308	1
334	3
335	1
349	1
