Mass spectrum: Quercetin; LC-ESI-QTOF; MS2; CE:30 eV; [M-H]-
Name: 3,3',4',5,7-pentahydroxyflavone
Name: Quercetin
Name: Quer
Name: 2-(3,4-dihydroxyphenyl)-3,5,7-trihydroxy-chromen-4-one
Class: Natural Product
Formula: C15H10O7
Exact mass: 302.04265
SMILES: Oc(c3)c(O)cc(c3)C(O1)=C(O)C(=O)c(c(O)2)c(cc(O)c2)1
InChI: InChI=1S/C15H10O7/c16-7-4-10(19)12-11(5-7)22-15(14(21)13(12)20)6-1-2-8(17)9(18)3-6/h1-5,16-19,21H
Instrument: UPLC Q-Tof Premier, Waters
Instrument type: LC-ESI-QTOF
Ms type: MS2
Ion mode: NEGATIVE
Collision energy: 30 eV
Fragmentation mode: LOW-ENERGY CID
Ionization: ESI
Full scan fragment ion peak: 301
Ion type: [M-H]-
m/z	relative intensity
63.0565	109
65.0388	212
65.8457	24
83.0529	320
83.8655	28
93.0713	228
93.9228	31
95.0122	38
96.0350	48
106.2407	21
107.0446	862
107.9581	175
109.0090	176
109.8356	28
110.8587	22
117.1232	20
118.9831	25
120.0683	49
121.0643	773
121.9168	98
122.8908	40
124.0176	43
124.9845	35
128.9623	19
131.9021	24
133.0248	33
135.0750	42
136.0300	37
137.0404	34
139.0623	66
143.0321	26
145.0173	37
145.9622	22
147.0458	39
148.0376	40
149.0800	152
150.0403	56
151.0352	999
151.9060	168
152.7914	45
153.7569	24
155.0483	27
157.0801	27
158.0831	33
159.0621	74
159.9737	21
161.0693	93
161.9962	35
163.0228	87
164.0166	92
164.9389	33
167.0715	24
171.0791	23
173.0276	26
175.0747	37
177.0737	27
178.9990	61
183.0540	44
184.9905	30
187.0271	40
193.0483	29
199.0578	37
201.0829	42
203.0691	26
211.0376	39
213.0655	24
227.0285	61
229.0430	24
230.0183	22
243.0412	45
245.0582	34
255.0025	24
256.0732	25
271.0311	20
