Mass spectrum: N-Formyl-L-Methionine; LC-ESI-QTOF; MS2; CE:Ramp 5-60 V; [M-H]-
Name: N-Formyl-L-Methionine
Name: fMet
Name: For-Met
Name: (S)-2-Formylamino-4-(methylthio)butanoic Acid
Class: Amino acids
Formula: C6H11NO3S
Exact mass: 177.04596
SMILES: [H]C(=O)N[C@@H](CCSC)C(O)=O
InChI: InChI=1S/C6H11NO3S/c1-11-3-2-5(6(9)10)7-4-8/h4-5H,2-3H2,1H3,(H,7,8)(H,9,10)/t5-/m0/s1
Instrument: UPLC Q-Tof Premier, Waters
Instrument type: LC-ESI-QTOF
Ms type: MS2
Ion mode: NEGATIVE
Collision energy: Ramp 5-60 V
Fragmentation mode: LOW-ENERGY CID
Ionization: ESI
Precursor m/z: 176.03816
Precursor type: [M-H]-
m/z	relative intensity
84.0466	207
98.0250	775
128.0352	816
176.0382	999
