Mass spectrum: Glycerol-2-phosphate; LC-ESI-QTOF; MS2; CE:Ramp 5-60 V; [M-H]-
Name: Glycerol-2-phosphate
Name: Glycerophosphate
Class: Natural Product; Alditol; Phosphates
Formula: C3H9O6P
Exact mass: 172.01367
SMILES: OCC(CO)OP(O)(O)=O
InChI: InChI=1S/C3H9O6P/c4-1-3(2-5)9-10(6,7)8/h3-5H,1-2H2,(H2,6,7,8)
Instrument: UPLC Q-Tof Premier, Waters
Instrument type: LC-ESI-QTOF
Ms type: MS2
Ion mode: NEGATIVE
Collision energy: Ramp 5-60 V
Fragmentation mode: LOW-ENERGY CID
Ionization: ESI
Precursor m/z: 171.00587
Precursor type: [M-H]-
m/z	relative intensity
78.9596	999
96.9702	36
171.0059	269
