Mass spectrum: 2'-Deoxyadenosine; GC-EI-TOF; MS; 3 TMS; BP:73
Name: 2'-Deoxyadenosine
Class: Natural Product
Formula: C10H13N5O3
Exact mass: 251.10184
SMILES: OC[C@@H](O1)[C@@H](O)C[C@@H]1n(c3)c(n2)c(n3)c(N)nc2
InChI: InChI=1S/C10H13N5O3/c11-9-8-10(13-3-12-9)15(4-14-8)7-1-5(17)6(2-16)18-7/h3-7,16-17H,1-2H2,(H2,11,12,13)/t5-,6+,7+/m0/s1
Instrument: Pegasus III TOF-MS system, Leco; GC 6890, Agilent Technologies
Instrument type: GC-EI-TOF
Ms type: MS
Ion mode: POSITIVE
Retention time: 584.269 sec
Base peak: 73
Derivative form: C19H37N5O3Si3
Derivative mass: 467.22042
Derivative type: 3 TMS
m/z	relative intensity
60	10
61	11
62	1
63	1
64	1
65	2
66	7
67	4
68	1
69	4
70	10
71	10
72	23
73	999
74	89
75	94
76	9
77	11
78	2
79	9
80	3
81	100
82	8
83	5
84	33
85	23
86	7
87	7
88	3
89	8
90	1
91	1
92	2
93	2
94	2
95	4
96	5
97	5
98	5
99	24
100	9
101	37
102	5
103	235
104	22
105	11
106	1
107	2
108	6
109	7
110	8
111	27
112	4
113	10
114	2
115	7
116	6
117	44
118	6
119	7
120	2
121	2
122	2
123	5
124	2
125	5
126	2
127	7
128	2
129	22
130	4
131	10
132	2
133	22
134	4
135	9
136	5
137	6
138	8
139	2
140	1
141	2
142	11
143	10
144	2
145	20
146	3
147	36
148	7
149	7
150	4
151	5
152	2
153	1
155	23
156	4
157	6
158	1
159	1
161	2
162	7
163	3
164	20
165	48
166	12
167	3
169	17
170	19
171	12
172	3
173	1
174	2
175	2
176	10
177	5
178	3
179	3
180	28
181	8
182	2
188	1
189	12
190	8
191	12
192	302
193	49
194	14
195	1
198	1
199	1
200	1
201	1
202	2
203	1
204	3
205	3
206	32
207	314
208	202
209	40
210	8
211	1
215	2
217	19
218	32
219	12
220	5
221	3
222	1
231	1
232	2
233	4
234	17
235	5
236	113
237	38
238	8
239	2
245	3
246	2
249	1
250	1
259	1
260	1
262	1
264	6
265	1
266	2
278	1
279	3
280	5
281	1
282	1
288	1
306	1
322	1
334	1
335	1
348	1
349	3
350	2
351	2
362	1
364	1
377	2
378	1
452	4
453	2
466	1
467	9
468	4
469	2
