Mass spectrum: Homoorientin; LC-ESI-QTOF; MS2; CE:30 V; [M-H]-
Name: luteolin-6-C-glucoside
Name: Homoorietin
Name: Isoorientin
Name: Lutl_6_C_Glc
Name: 2-(3,4-dihydroxyphenyl)-5,7-dihydroxy-6-[(2S,3S,4R,5R,6R)-3,4,5-trihydroxy-6-(hydroxymethyl)oxan-2-yl]chromen-4-one
Name: Homoorientin
Class: Natural Product
Formula: C21H20O11
Exact mass: 448.10056
SMILES: OCC(C(O)4)OC(C(O)C(O)4)c(c(O)1)c(O)c(C(=O)3)c(OC(=C3)c(c2)cc(O)c(O)c2)c1
InChI: InChI=1S/C21H20O11/c22-6-14-17(27)19(29)20(30)21(32-14)16-11(26)5-13-15(18(16)28)10(25)4-12(31-13)7-1-2-8(23)9(24)3-7/h1-5,14,17,19-24,26-30H,6H2/t14-,17-,19+,20-,21+/m1/s1
Instrument: UPLC Q-Tof Premier, Waters
Instrument type: LC-ESI-QTOF
Ms type: MS2
Ion mode: NEGATIVE
Collision energy: 30 V
Fragmentation mode: LOW-ENERGY CID
Ionization: ESI
Full scan fragment ion peak: 447.1
Ion type: [M-H]-
m/z	relative intensity
82.8788	32
133.0593	86
150.9898	31
163.0876	44
165.0692	35
175.0498	51
241.0301	32
252.9940	37
255.0853	47
269.0020	44
283.0772	35
284.0450	176
285.0488	477
285.9653	124
286.9348	40
295.2288	37
296.1333	37
297.0556	696
298.0441	664
299.0421	656
299.9790	163
300.9715	61
309.0391	45
311.0764	205
312.0206	60
324.0428	70
325.0762	84
326.0409	38
327.0629	999
328.0126	254
328.9071	68
329.8443	35
337.0564	31
339.0616	273
339.9998	77
341.0139	62
357.0717	428
358.0159	117
358.9066	30
369.0756	31
