Mass spectrum: N,N-Dimethylglycine; LC-ESI-QTOF; MS2; CE:30 V; [M+H]+
Name: N,N-Dimethylglycine
Name: Dmg
Name: N,N-Dimethylaminoacetic acid
Name: 2-dimethylaminoacetic acid
Name: N-Methylsarcosine
Class: Amino acids
Formula: C4H9NO2
Exact mass: 103.06333
SMILES: CN(C)CC(O)=O
InChI: InChI=1S/C4H9NO2/c1-5(2)3-4(6)7/h3H2,1-2H3,(H,6,7)
Instrument: UPLC Q-Tof Premier, Waters
Instrument type: LC-ESI-QTOF
Ms type: MS2
Ion mode: POSITIVE
Collision energy: 30 V
Fragmentation mode: LOW-ENERGY CID
Ionization: ESI
Precursor m/z: 104.07113
Precursor type: [M+H]+
m/z	relative intensity
58.0677	999
104.0711	144
