Mass spectrum: 2'-Deoxyguanosine 5'-monophosphate; LC-ESI-QTOF; MS2; CE:Ramp 5-60 V; [M-H]-
Name: 2'-Deoxyguanosine 5'-monophosphate
Name: dGMP
Name: Deoxy-GMP
Name: 5'-Deoxyguanylic acid
Name: vernine
Class: Natural Product; Nucleoside; Phosphates
Formula: C10H14N5O7P
Exact mass: 347.06308
SMILES: NC(N3)=Nc(c2C(=O)3)n(cn2)[C@@H](C1)O[C@H](COP(O)(O)=O)[C@@H](O)1
InChI: InChI=1S/C10H14N5O7P/c11-10-13-8-7(9(17)14-10)12-3-15(8)6-1-4(16)5(22-6)2-21-23(18,19)20/h3-6,16H,1-2H2,(H2,18,19,20)(H3,11,13,14,17)/t4-,5+,6+/m0/s1
Instrument: UPLC Q-Tof Premier, Waters
Instrument type: LC-ESI-QTOF
Ms type: MS2
Ion mode: NEGATIVE
Collision energy: Ramp 5-60 V
Fragmentation mode: LOW-ENERGY CID
Ionization: ESI
Precursor m/z: 346.05528
Precursor type: [M-H]-
m/z	relative intensity
78.9598	999
96.9700	158
133.0154	145
150.0415	171
346.0553	416
