Mass spectrum: Kaempferol-3-Glucoside-2''-p-coumaroyl; LC-ESI-QTOF; MS2; CE:Ramp 5-60 V; [M+H]+
Name: Kaempferol-3-Glucoside-2''-p-coumaroyl
Name: Kaem-3-Glc-2pp-p-Cou
Name: Kaempferol-3-Glucoside-2-p-coumaroyl
Class: Flavonoid
Formula: C30H26O13
Exact mass: 594.13734
SMILES: Oc(c1)cc(O2)c(C(=O)C(OC(O5)C(C(O)C(C5CO)O)OC(=O)C=Cc(c4)ccc(O)c4)=C2c(c3)ccc(c3)O)c(O)1
InChI: InChI=1S/C30H26O13/c31-13-21-24(37)26(39)29(42-22(36)10-3-14-1-6-16(32)7-2-14)30(41-21)43-28-25(38)23-19(35)11-18(34)12-20(23)40-27(28)15-4-8-17(33)9-5-15/h1-12,21,24,26,29-35,37,39H,13H2/b10-3+/t21-,24-,26+,29-,30+/m1/s1
Instrument: UPLC Q-Tof Premier, Waters
Instrument type: LC-ESI-QTOF
Ms type: MS2
Ion mode: POSITIVE
Collision energy: Ramp 5-60 V
Fragmentation mode: LOW-ENERGY CID
Ionization: ESI
Precursor m/z: 595.14515
Precursor type: [M+H]+
m/z	relative intensity
119.0483	96
147.0427	999
148.0462	31
165.0528	23
231.0634	57
273.0742	38
287.0529	273
291.0838	160
309.0946	327
595.1451	26
