Mass spectrum: Kaempferol-3-Rhamnoside-4''-Rhamnoside-7-Rhamnoside; LC-ESI-QTOF; MS2; CE:Ramp 5-60 V; [M-H]-
Name: Kaempferol-3-Rhamnoside-4''-Rhamnoside-7-Rhamnoside
Name: Kaem-3-Rha-4''-Rha-7-Rha
Name: Cassinopin
Name: Kaempferol-3-Rhamnoside-4-Rhamnoside,-7-Rhamnoside
Class: Flavonoid
Formula: C33H40O18
Exact mass: 724.22146
SMILES: OC(C1O)C(O)C(Oc(c6)cc(c5c(O)6)OC(=C(C5=O)OC(C(O)3)OC(C)C(OC(O4)C(C(O)C(C4C)O)O)C3O)c(c2)ccc(O)c2)OC1C
InChI: InChI=1S/C33H40O18/c1-10-19(36)22(39)25(42)31(45-10)48-15-8-16(35)18-17(9-15)49-29(13-4-6-14(34)7-5-13)30(21(18)38)51-33-27(44)24(41)28(12(3)47-33)50-32-26(43)23(40)20(37)11(2)46-32/h4-12,19-20,22-28,31-37,39-44H,1-3H3
Instrument: UPLC Q-Tof Premier, Waters
Instrument type: LC-ESI-QTOF
Ms type: MS2
Ion mode: NEGATIVE
Collision energy: Ramp 5-60 V
Fragmentation mode: LOW-ENERGY CID
Ionization: ESI
Precursor m/z: 723.21363
Precursor type: [M-H]-
m/z	relative intensity
285.0392	999
286.0439	138
431.0974	963
432.1029	206
577.1552	465
578.1602	130
723.2136	236
