Mass spectrum: Thymine; GC-EI-TOF; MS; 2 TMS; BP:73
Name: Thymine
Class: Natural Product
Formula: C5H6N2O2
Exact mass: 126.04293
SMILES: CC(=C1)C(=O)NC(=O)N1
InChI: InChI=1S/C5H6N2O2/c1-3-2-6-5(9)7-4(3)8/h2H,1H3,(H2,6,7,8,9)
Instrument: Pegasus III TOF-MS system, Leco; GC 6890, Agilent Technologies
Instrument type: GC-EI-TOF
Ms type: MS
Ion mode: POSITIVE
Retention time: 374.31 sec
Base peak: 73
Derivative form: C11H22N2O2Si2
Derivative mass: 270.12198
Derivative type: 2 TMS
m/z	relative intensity
60	33
61	30
62	3
63	4
64	3
65	2
66	27
67	11
68	1
69	14
70	106
71	36
72	160
73	999
74	100
75	91
76	9
77	33
78	11
79	43
80	10
81	9
82	18
83	27
84	77
85	49
86	69
87	22
88	5
89	6
90	1
91	4
92	2
93	9
94	3
95	7
96	9
97	10
98	18
99	44
100	184
101	27
102	15
103	16
104	3
105	15
106	54
107	13
108	2
109	7
110	20
111	19
112	29
113	582
114	68
115	40
116	9
117	30
118	5
119	6
120	113
121	11
122	1
123	11
124	4
125	5
126	7
127	28
128	11
129	6
130	6
131	102
132	19
133	50
134	7
135	3
137	2
138	3
139	22
140	113
141	16
142	11
143	5
144	8
145	2
146	3
147	377
148	62
149	32
150	3
151	2
152	2
153	3
154	13
155	5
156	3
157	10
158	46
159	9
160	5
161	1
167	3
168	1
169	10
170	5
171	2
172	2
173	1
174	6
175	1
180	3
181	7
182	14
183	14
184	9
185	28
186	5
187	3
188	1
195	1
196	3
197	14
198	6
199	3
200	1
210	1
211	3
212	6
213	3
214	1
225	4
226	2
227	1
239	37
240	12
241	4
242	1
253	2
254	6
255	639
256	153
257	64
258	10
259	2
260	1
261	1
262	1
263	1
264	1
265	1
266	1
269	10
270	191
271	46
272	19
273	3
