Mass spectrum: Cyanidin-3-O-rhamnoside; LC-ESI-QTOF; MS2; CE:Ramp 5-60 V; [M]+
Name: Cyanidin-3-O-rhamnoside
Name: Cynd-3-Rha
Name: Cyanidin 3-rhamnoside
Class: Anthocyanidin
Formula: [C21H21O10]+
Exact mass: 433.11347
SMILES: Oc(c4)c(O)cc(c4)c([o+1]1)c(OC(O3)C(O)C(O)C(O)C(C)3)cc(c(O)2)c(cc(O)c2)1
InChI: InChI=1S/C21H20O10/c1-8-17(26)18(27)19(28)21(29-8)31-16-7-11-13(24)5-10(22)6-15(11)30-20(16)9-2-3-12(23)14(25)4-9/h2-8,17-19,21,26-28H,1H3,(H3-,22,23,24,25)/p+1/t8-,17-,18+,19+,21-/m0/s1
Instrument: UPLC Q-Tof Premier, Waters
Instrument type: LC-ESI-QTOF
Ms type: MS2
Ion mode: POSITIVE
Collision energy: Ramp 5-60 V
Fragmentation mode: LOW-ENERGY CID
Ionization: ESI
Precursor m/z: 433.11344
Precursor type: [M]+
m/z	relative intensity
137.0254	50
213.0569	45
287.0560	999
433.1134	70
