Mass spectrum: rac-Glycerol 3-phosphoate; LC-ESI-QTOF; MS2; CE:Ramp 5-60 V; [M-H]-
Name: rac-Glycerol 3-phosphoate
Name: sn-Gro-1P
Name: glycero-3P
Name: glycero-1P
Name: glycerophosphoric acid
Name: rac-Glycerol 1-phosphate
Name: DL-alpha-Glycerophosphate
Class: Natural Product; Carbohydrate; Phosphates
Formula: C3H9O6P
Exact mass: 172.01367
SMILES: OCC(O)COP(O)(O)=O
InChI: InChI=1S/C3H9O6P/c4-1-3(5)2-9-10(6,7)8/h3-5H,1-2H2,(H2,6,7,8)/t3-/m0/s1
Instrument: UPLC Q-Tof Premier, Waters
Instrument type: LC-ESI-QTOF
Ms type: MS2
Ion mode: NEGATIVE
Collision energy: Ramp 5-60 V
Fragmentation mode: LOW-ENERGY CID
Ionization: ESI
Precursor m/z: 171.00587
Precursor type: [M-H]-
m/z	relative intensity
78.9597	999
96.9699	79
171.0059	267
