Mass spectrum: Hyperoside; LC-ESI-QTOF; MS2; CE:Ramp 5-60 V; [M-H]-
Name: Hyperoside
Name: Quer-3-Gal
Name: Hyperin
Name: quercetin-3-beta-O-galactoside
Name: Hyperozide
Name: Hyperosid
Name: Jyperin
Name: Quercetin 3-beta-D-galactopyranoside
Name: 2-(3,4-Dihydroxyphenyl)-3-(beta-D-galactopyranosyloxy)-5,7-dihydroxy-4H-1-benzopyran-4-one
Class: Flavonoid
Formula: C21H20O12
Exact mass: 464.09548
SMILES: OC[C@@H](O1)[C@H](O)[C@H](O)[C@@H](O)[C@@H]1OC(C(=O)3)=C(Oc(c4)c(c(O)cc(O)4)3)c(c2)cc(O)c(O)c2
InChI: InChI=1S/C21H20O12/c22-6-13-15(27)17(29)18(30)21(32-13)33-20-16(28)14-11(26)4-8(23)5-12(14)31-19(20)7-1-2-9(24)10(25)3-7/h1-5,13,15,17-18,21-27,29-30H,6H2/t13-,15+,17+,18-,21+/m1/s1
Instrument: UPLC Q-Tof Premier, Waters
Instrument type: LC-ESI-QTOF
Ms type: MS2
Ion mode: NEGATIVE
Collision energy: Ramp 5-60 V
Fragmentation mode: LOW-ENERGY CID
Ionization: ESI
Precursor m/z: 463.08767
Precursor type: [M-H]-
m/z	relative intensity
151.0050	112
179.0000	56
227.0372	63
243.0327	182
255.0325	326
271.0274	696
300.0293	999
301.0390	449
463.0877	780
