Mass spectrum: Malvidin-3-O-beta-D-galactoside; LC-ESI-QTOF; MS2; CE:Ramp 5-60 V; [M-2H]-
Name: Malvidin-3-galactoside
Name: Primulin
Name: (2S,3R,4S,5S,6R)-2-[5,7-dihydroxy-2-(4-hydroxy-3,5-dimethoxy-phenyl)chromen-3-yl]oxy-6-(hydroxymethyl)oxane-3,4,5-triol
Name: Malvidin-3-O-beta-D-galactoside
Class: Natural Product
Formula: [C23H25O12]+
Exact mass: 493.13460
SMILES: OCC(O1)C(O)C(O)C(O)C1Oc(c3)c([o+1]c(c4)c(c(O)cc(O)4)3)c(c2)cc(OC)c(O)c(OC)2
InChI: InChI=1S/C23H24O12/c1-31-14-3-9(4-15(32-2)18(14)27)22-16(7-11-12(26)5-10(25)6-13(11)33-22)34-23-21(30)20(29)19(28)17(8-24)35-23/h3-7,17,19-21,23-24,28-30H,8H2,1-2H3,(H2-,25,26,27)/p+1/t17-,19+,20+,21-,23-/m1/s1
Instrument: UPLC Q-Tof Premier, Waters
Instrument type: LC-ESI-QTOF
Ms type: MS2
Ion mode: NEGATIVE
Collision energy: Ramp 5-60 V
Fragmentation mode: LOW-ENERGY CID
Ionization: ESI
Full scan fragment ion peak: 491.1
Ion type: [M-2H]-
m/z	relative intensity
186.0316	46
198.0319	42
214.0266	204
215.0330	38
226.0269	123
227.0326	45
242.0213	151
243.0281	79
253.0138	56
254.0217	136
255.0290	54
270.0166	175
271.0243	110
281.0083	44
282.0172	52
285.0403	73
298.0112	77
299.0186	147
313.0347	566
314.0419	202
328.0587	831
329.0658	609
330.0717	61
331.0812	39
343.0812	33
491.1189	999
492.1226	104
