Mass spectrum: Nicotinic acid; GC-EI-TOF; MS; 1 TMS; BP:78
Name: Nicotinic acid
Name: Nicotinate
Name: Niacin
Name: 3-Pyridinecarboxylic acid
Class: Natural Product
Formula: C6H5NO2
Exact mass: 123.03203
SMILES: OC(=O)c(c1)cncc1
InChI: InChI=1S/C6H5NO2/c8-6(9)5-2-1-3-7-4-5/h1-4H,(H,8,9)
Instrument: Pegasus III TOF-MS system, Leco; GC 6890, Agilent Technologies
Instrument type: GC-EI-TOF
Ms type: MS
Ion mode: POSITIVE
Retention time: 345.667 sec
Base peak: 78
Derivative form: C9H13NO2Si
Derivative mass: 195.07156
Derivative type: 1 TMS
m/z	relative intensity
60	24
61	29
62	7
63	10
64	5
65	16
66	17
67	18
68	1
69	5
70	8
71	6
72	22
73	127
74	34
75	125
76	53
77	124
78	999
79	93
80	7
81	8
82	4
83	14
84	6
85	4
86	2
89	1
90	42
91	4
92	7
93	14
94	12
95	5
96	3
97	1
98	1
99	1
104	3
105	54
106	741
107	58
108	10
109	13
110	6
111	1
119	1
120	16
121	3
122	14
123	6
124	1
125	1
132	2
134	6
135	6
136	861
137	117
138	36
139	3
150	4
151	2
152	1
153	1
162	3
163	1
164	4
165	1
166	1
179	4
180	882
181	130
182	41
183	4
184	1
194	7
195	38
196	6
197	2
