Mass spectrum: L-Iditol; GC-EI-TOF; MS; n TMS; BP:73
Name: L-Iditol
Class: Natural Product
Formula: C6H14O6
Exact mass: 182.07904
SMILES: OC[C@H](O)[C@@H](O)[C@H](O)[C@@H](O)CO
InChI: InChI=1S/C6H14O6/c7-1-3(9)5(11)6(12)4(10)2-8/h3-12H,1-2H2/t3-,4-,5+,6+/m0/s1
Instrument: Pegasus III TOF-MS system, Leco; GC 6890, Agilent Technologies
Instrument type: GC-EI-TOF
Ms type: MS
Ion mode: POSITIVE
Retention time: 458.983 sec
Base peak: 73
Derivative form: C{6+3*n}H{14+8*n}O6Si{n}
Derivative mass: 182.07904+72.03953*n
Derivative type: n TMS
m/z	relative intensity
60	4
61	7
65	1
66	6
67	3
69	9
70	4
71	4
72	17
73	999
74	83
75	96
76	8
77	9
78	1
81	9
82	1
83	3
84	1
85	5
86	1
87	6
88	4
89	31
90	3
91	1
95	1
97	4
98	1
99	5
100	2
101	36
102	4
103	102
104	9
105	5
109	1
111	9
113	4
114	1
115	9
116	30
117	135
118	14
119	11
120	1
125	1
127	3
129	95
130	11
131	22
132	3
133	61
134	8
135	7
141	2
142	5
143	19
144	2
145	4
146	1
147	264
148	43
149	36
150	4
151	2
155	9
156	2
157	18
158	3
159	5
160	1
161	3
163	4
167	4
168	1
169	4
170	5
171	19
172	3
173	4
174	3
175	17
176	3
177	6
178	1
183	23
184	11
185	8
186	1
187	1
188	9
189	60
190	12
191	29
192	4
193	5
203	9
204	35
205	267
206	53
207	36
208	6
209	3
215	1
217	13
218	3
219	4
221	17
222	4
223	2
229	2
230	3
231	10
232	2
233	1
239	1
243	3
244	2
245	4
246	1
247	1
249	1
255	2
256	1
257	13
258	4
259	11
260	2
261	1
262	1
263	6
264	1
265	1
272	3
273	13
274	3
275	2
284	6
285	26
286	6
287	2
298	1
299	1
317	1
332	1
333	5
334	1
346	1
347	4
348	1
362	6
363	22
364	6
365	3
373	1
374	5
375	18
376	6
377	2
388	2
389	1
