Mass spectrum: m-Hydroxycinnamic acid; LC-ESI-QTOF; MS2; CE:30 V; [M-H]-
Name: m-Hydroxycinnamic acid
Name: 3-Hydroxycinnamic acid
Name: m-Coumaric Acid
Name: 3-Coumaric Acid
Class: Carboxylic acids
Formula: C9H8O3
Exact mass: 164.04734
SMILES: OC(=O)C=Cc(c1)cc(O)cc1
InChI: InChI=1S/C9H8O3/c10-8-3-1-2-7(6-8)4-5-9(11)12/h1-6,10H,(H,11,12)/b5-4+
Instrument: UPLC Q-Tof Premier, Waters
Instrument type: LC-ESI-QTOF
Ms type: MS2
Ion mode: NEGATIVE
Collision energy: 30 V
Fragmentation mode: LOW-ENERGY CID
Ionization: ESI
Precursor m/z: 163.03954
Precursor type: [M-H]-
m/z	relative intensity
145.8822	999
162.8850	82
