Mass spectrum: D-Sorbitol; LC-ESI-QTOF; MS2; CE:Ramp 5-60 V; [M-H]-
Name: D-Sorbitol
Name: D-Sorbit
Name: D-Glucitol
Name: D-1,2,3,4,5,6-Hexanehexol
Name: D-Sorbol
Name: Cystosol
Name: Glucarine
Name: Diakarmon
Name: Esasorb
Name: Sorbol
Class: Alditol
Formula: C6H14O6
Exact mass: 182.07904
SMILES: OCC(O)C(O)C(O)C(O)CO
InChI: InChI=1S/C6H14O6/c7-1-3(9)5(11)6(12)4(10)2-8/h3-12H,1-2H2/t3-,4+,5-,6+
Instrument: UPLC Q-Tof Premier, Waters
Instrument type: LC-ESI-QTOF
Ms type: MS2
Ion mode: NEGATIVE
Collision energy: Ramp 5-60 V
Fragmentation mode: LOW-ENERGY CID
Ionization: ESI
Precursor m/z: 181.07123
Precursor type: [M-H]-
m/z	relative intensity
59.0155	136
71.0152	511
73.0307	166
85.0307	86
89.0248	234
101.0241	417
113.0243	54
119.0344	43
163.0601	55
181.0712	999
