Mass spectrum: O-Phosphoethanolamine; LC-ESI-QTOF; MS2; CE:Ramp 5-60 V; [M-H]-
Name: O-Phosphorylethanolamine
Name: Ethanolamine phospha
Name: 2-Aminoethyl Dihydrogenphosphate
Name: O-Phosphoethanolamine
Name: Colaminephosphoric acid
Name: Colamine phosphate
Class: Phosphoethanolamines
Formula: C2H8NO4P
Exact mass: 141.01909
SMILES: NCCOP(O)(O)=O
InChI: InChI=1S/C2H8NO4P/c3-1-2-7-8(4,5)6/h1-3H2,(H2,4,5,6)
Instrument: UPLC Q-Tof Premier, Waters
Instrument type: LC-ESI-QTOF
Ms type: MS2
Ion mode: NEGATIVE
Collision energy: Ramp 5-60 V
Fragmentation mode: LOW-ENERGY CID
Ionization: ESI
Precursor m/z: 140.01129
Precursor type: [M-H]-
m/z	relative intensity
78.9599	999
140.0113	123
