Mass spectrum: Linoleic acid; GC-EI-TOF; MS; 1 TMS; BP:73
Name: Linoleic acid
Name: 9-cis,12-cis-Octadecadienoic acid
Name: (9Z,12Z)-Octadecadienoic acid
Name: Linoleate
Name: 9-cis,12-cis-Octadecadienoate
Class: Natural Product
Formula: C18H32O2
Exact mass: 280.24023
SMILES: CCCCCC=CCC=CCCCCCCCC(O)=O
InChI: InChI=1S/C18H32O2/c1-2-3-4-5-6-7-8-9-10-11-12-13-14-15-16-17-18(19)20/h6-7,9-10H,2-5,8,11-17H2,1H3,(H,19,20)/b7-6-,10-9-
Instrument: Pegasus III TOF-MS system, Leco; GC 6890, Agilent Technologies
Instrument type: GC-EI-TOF
Ms type: MS
Ion mode: POSITIVE
Retention time: 554.721 sec
Base peak: 73
Derivative form: C21H38O2Si
Derivative mass: 350.26411
Derivative type: 1 TMS
m/z	relative intensity
60	20
61	84
62	11
63	16
64	4
65	96
66	68
67	741
68	31
69	93
70	25
71	26
72	52
73	999
74	114
75	814
76	82
77	219
78	64
79	419
80	201
81	525
82	209
83	106
84	30
85	32
86	13
87	8
88	7
89	26
90	4
91	133
92	32
93	164
94	124
95	281
96	168
97	83
98	21
99	20
100	3
101	11
102	3
103	9
104	8
105	53
106	22
107	93
108	76
109	123
110	89
111	36
112	6
113	5
114	1
115	8
116	40
117	203
118	26
119	39
120	18
121	101
122	51
123	58
124	41
125	19
126	3
127	4
128	4
129	258
130	35
131	76
132	27
133	31
134	12
135	89
136	65
137	32
138	25
139	11
140	2
141	5
142	3
143	25
144	4
145	48
146	11
147	14
148	5
149	53
150	81
151	23
152	13
153	7
154	2
155	12
156	4
157	13
158	4
159	16
160	4
161	7
162	3
163	25
164	37
165	11
166	8
167	5
168	2
169	6
170	3
171	12
172	4
173	18
174	5
175	4
176	1
177	14
178	47
179	12
180	3
181	4
182	2
183	8
184	2
185	9
186	3
187	14
188	3
189	2
191	6
192	5
193	1
194	1
195	2
196	1
197	2
198	1
199	10
200	2
201	10
202	2
203	1
205	4
206	4
207	1
208	1
209	1
211	3
212	1
213	4
214	1
215	6
216	2
217	1
218	2
219	2
220	22
221	5
225	2
226	1
227	3
228	1
229	4
230	1
233	2
234	7
235	1
239	2
240	1
241	2
243	3
244	1
245	1
253	1
255	1
257	1
261	1
262	49
263	11
264	1
267	1
336	5
337	59
338	17
339	4
352	5
353	1
