Mass spectrum: 3-Hydroxy-3-methylglutaric acid; LC-ESI-QTOF; MS2; CE:Ramp 5-60 V; [M+H]+
Name: 3-Hydroxy-3-methylglutarate
Name: HMG
Name: HMGA
Name: 3-Hydroxy-3-methylglutaric acid
Name: beta-Hydroxy-beta-methylglutaric acid
Name: Dicrotalic acid
Name: 3-Hydroxy-3-methylpentanedioic acid
Name: Meglutol
Name: Lipoglutaren
Name: Medroglutaric acid
Name: alpha-Keto-beta-oxy-beta-methylvalerate
Class: Carboxylic acids
Formula: C6H10O5
Exact mass: 162.05282
SMILES: OC(=O)CC(C)(O)CC(O)=O
InChI: InChI=1S/C6H10O5/c1-6(11,2-4(7)8)3-5(9)10/h11H,2-3H2,1H3,(H,7,8)(H,9,10)
Instrument: UPLC Q-Tof Premier, Waters
Instrument type: LC-ESI-QTOF
Ms type: MS2
Ion mode: POSITIVE
Collision energy: Ramp 5-60 V
Fragmentation mode: LOW-ENERGY CID
Ionization: ESI
Precursor m/z: 163.06062
Precursor type: [M+H]+
m/z	relative intensity
73.0474	361
99.0447	267
103.0396	300
127.0376	243
133.0502	999
149.0448	582
163.0606	639
