Mass spectrum: D-Xylulose; GC-EI-TOF; MS; 4 TMS; 1 MEOX; BP:73
Name: D-Xylulose
Name: D-threo-Pentulose
Name: D-Lyxulose
Class: Natural Product
Formula: C5H10O5
Exact mass: 150.05282
SMILES: OCC(O)(O1)C(O)C(O)C1
InChI: InChI=1S/C5H10O5/c6-2-5(9)4(8)3(7)1-10-5/h3-4,6-9H,1-2H2/t3-,4+,5?/m1/s1
Instrument: Pegasus III TOF-MS system, Leco; GC 6890, Agilent Technologies
Instrument type: GC-EI-TOF
Ms type: MS
Ion mode: POSITIVE
Retention time: 410.788 sec
Base peak: 73
Derivative form: C18H45NO5Si4
Derivative mass: 467.23748
Derivative type: 4 TMS; 1 MEOX
m/z	relative intensity
60	7
61	9
66	7
67	2
70	7
71	4
72	19
73	999
74	87
75	54
76	4
77	7
82	7
83	1
84	38
85	6
86	3
87	6
88	7
89	96
90	8
91	4
96	1
98	3
99	3
100	10
101	22
102	7
103	163
104	16
105	14
106	1
111	1
112	1
113	4
114	27
115	11
116	7
117	188
118	19
119	15
120	1
126	8
127	1
128	4
129	14
130	5
131	20
132	4
133	64
134	8
135	4
140	1
141	1
142	22
143	7
144	2
145	3
146	1
147	336
148	52
149	29
150	3
151	1
154	5
155	1
156	2
157	2
158	3
159	6
160	1
161	1
163	12
164	2
165	1
168	1
170	1
172	15
173	134
174	20
175	9
176	1
177	5
178	1
184	1
186	2
187	1
188	2
189	8
190	2
191	6
192	1
198	1
200	2
201	11
202	10
203	4
204	12
205	171
206	33
207	18
208	2
214	2
216	4
217	14
218	4
219	2
221	3
228	1
230	1
231	3
232	4
233	2
242	1
244	1
246	1
256	1
260	1
262	4
263	83
264	18
265	8
266	1
288	4
289	1
291	1
318	1
333	2
334	2
335	1
362	1
364	5
365	1
452	1
467	1
