Mass spectrum: 1,6-Anhydro-beta-D-glucose; LC-ESI-QTOF; MS2; CE:Ramp 5-60 V; [M+H]+
Name: 1,6-Anhydro-beta-D-glucose
Name: Levoglucosan
Name: Leucoglucosan
Name: 1,6-Anhydro-beta-D-glucopyranose
Class: Monosaccharide
Formula: C6H10O5
Exact mass: 162.05282
SMILES: C1[C@@H]2[C@H]([C@@H]([C@H]([C@H](O1)O2)O)O)O
InChI: InChI=1S/C6H10O5/c7-3-2-1-10-6(11-2)5(9)4(3)8/h2-9H,1H2/t2-,3-,4+,5-,6-/m1/s1
Instrument: UPLC Q-Tof Premier, Waters
Instrument type: LC-ESI-QTOF
Ms type: MS2
Ion mode: POSITIVE
Collision energy: Ramp 5-60 V
Fragmentation mode: LOW-ENERGY CID
Ionization: ESI
Precursor m/z: 163.06062
Precursor type: [M+H]+
m/z	relative intensity
73.0482	266
99.5114	136
133.0511	999
149.0450	600
163.0634	694
