Mass spectrum: 5,6-Dihydrouracil; LC-ESI-QTOF; MS2; CE:Ramp 5-60 V; [M+H]+
Name: 5,6-Dihydrouracil
Name: Hydrouracil
Name: 5,6-Dihydro-2,4-dihydroxypyrimidine
Name: 2,4-Dioxotetrahydropyrimidine
Class: Pyrimidines
Formula: C4H6N2O2
Exact mass: 114.04293
SMILES: O=C(C1)NC(=O)NC1
InChI: InChI=1S/C4H6N2O2/c7-3-1-2-5-4(8)6-3/h1-2H2,(H2,5,6,7,8)
Instrument: UPLC Q-Tof Premier, Waters
Instrument type: LC-ESI-QTOF
Ms type: MS2
Ion mode: POSITIVE
Collision energy: Ramp 5-60 V
Fragmentation mode: LOW-ENERGY CID
Ionization: ESI
Precursor m/z: 115.05073
Precursor type: [M+H]+
m/z	relative intensity
55.0205	48
70.0293	109
72.0452	118
73.0482	33
73.9313	63
87.0480	50
98.0239	105
99.5091	64
115.0507	999
