Mass spectrum: Kaempferol-3-Glucoside-2''-Rhamnoside-7-Rhamnoside; LC-ESI-QTOF; MS2; CE:Ramp 5-60 V; [M-H]-
Name: Kaempferol-3-Glucoside-2''-Rhamnoside-7-Rhamnoside
Name: Kaem-3-Glc-2''-Rha-7-Rha
Name: Kaempferol-3-Glucoside-2-Rhamnoside,-7-Rhamnoside?
Class: Flavonoid
Formula: C33H40O19
Exact mass: 740.21638
SMILES: OC(C1O)C(O)C(Oc(c6)cc(c5c(O)6)OC(=C(C(=O)5)OC(C(OC(O4)(C(O)C(C(O)C(C)4)O)[H])3)OC(CO)C(C3O)O)c(c2)ccc(O)c2)OC1C
InChI: InChI=1S/C33H40O19/c1-10-19(37)23(41)26(44)31(46-10)48-14-7-15(36)18-16(8-14)49-28(12-3-5-13(35)6-4-12)29(22(18)40)51-33-30(25(43)21(39)17(9-34)50-33)52-32-27(45)24(42)20(38)11(2)47-32/h3-8,10-11,17,19-21,23-27,30-39,41-45H,9H2,1-2H3/t10-,11-,17+,19-,20-,21+,23+,24+,25-,26+,27+,30+,31-,32-,33-/m0/s1
Instrument: UPLC Q-Tof Premier, Waters
Instrument type: LC-ESI-QTOF
Ms type: MS2
Ion mode: NEGATIVE
Collision energy: Ramp 5-60 V
Fragmentation mode: LOW-ENERGY CID
Ionization: ESI
Precursor m/z: 739.20855
Precursor type: [M-H]-
m/z	relative intensity
255.0309	150
283.0251	696
284.0334	702
285.0414	293
430.0937	343
431.0993	79
593.1523	957
594.1605	262
739.2086	999
740.2183	330
