Mass spectrum: o-Phenanthroline; LC-ESI-QTOF; MS2; CE:Ramp 5-60 V; [M+H]+
Name: 1,10-Phenanthroline
Name: o-Phenanthroline
Class: Phenanthroline
Formula: C12H8N2
Exact mass: 180.06875
SMILES: c(c3)cc(c1)c(n3)c(n2)c(ccc2)c1
InChI: InChI=1S/C12H8N2/c1-3-9-5-6-10-4-2-8-14-12(10)11(9)13-7-1/h1-8H
Instrument: UPLC Q-Tof Premier, Waters
Instrument type: LC-ESI-QTOF
Ms type: MS2
Ion mode: POSITIVE
Collision energy: Ramp 5-60 V
Fragmentation mode: LOW-ENERGY CID
Ionization: ESI
Precursor m/z: 181.07654
Precursor type: [M+H]+
m/z	relative intensity
127.0552	51
154.0660	102
181.0765	999
