Mass spectrum: alpha-Lactose; GC-EI-TOF; MS; 8 TMS; 1 MEOX; BP:73
Name: alpha-Lactose
Class: Natural Product
Formula: C12H22O11
Exact mass: 342.11621
SMILES: OC[C@@H](O1)[C@H](O)[C@H](O)[C@@H](O)[C@@H]1O[C@H]([C@@H](CO)2)[C@H](O)[C@@H](O)[C@@H](O)O2
InChI: InChI=1S/C12H22O11/c13-1-3-5(15)6(16)9(19)12(22-3)23-10-4(2-14)21-11(20)8(18)7(10)17/h3-20H,1-2H2/t3-,4-,5+,6+,7-,8-,9-,10-,11+,12+/m1/s1
Instrument: Pegasus III TOF-MS system, Leco; GC 6890, Agilent Technologies
Instrument type: GC-EI-TOF
Ms type: MS
Ion mode: POSITIVE
Retention time: 596.822 sec
Base peak: 73
Derivative form: C37H89NO11Si8
Derivative mass: 947.45897
Derivative type: 8 TMS; 1 MEOX
m/z	relative intensity
60	3
61	5
65	1
66	5
67	5
69	14
70	4
71	3
72	11
73	999
74	84
75	63
76	5
77	7
79	1
80	1
81	11
82	3
83	3
84	2
85	4
86	2
87	4
88	2
89	47
90	4
91	2
95	1
97	8
98	1
99	4
100	9
101	13
102	8
103	110
104	11
105	19
106	2
107	1
109	3
110	1
111	3
112	1
113	6
114	5
115	6
116	6
117	78
118	8
119	6
125	1
126	1
127	4
128	3
129	97
130	15
131	20
132	3
133	41
134	5
135	3
139	1
140	1
141	3
142	4
143	25
144	3
145	7
146	1
147	224
148	34
149	24
150	2
151	1
152	1
153	2
154	1
155	15
156	3
157	18
158	4
159	3
160	37
161	7
162	2
163	7
164	1
167	1
168	2
169	61
170	9
171	5
172	2
173	4
174	1
175	3
177	3
180	1
181	1
183	2
185	1
186	2
187	1
189	19
190	4
191	38
192	7
193	3
195	1
196	1
197	1
198	1
199	1
200	1
201	2
202	1
203	7
204	214
205	84
206	26
207	8
208	1
210	4
211	1
215	3
216	4
217	110
218	26
219	11
220	2
221	6
222	1
223	1
227	1
228	1
229	8
230	4
231	10
232	3
233	7
234	2
235	1
240	1
241	2
242	1
243	19
244	6
245	5
246	2
247	4
248	1
255	1
256	1
257	2
258	1
259	5
260	1
261	1
262	1
263	1
265	1
268	1
269	2
270	1
271	19
272	5
273	2
274	1
275	1
276	1
291	3
292	1
300	4
301	1
304	1
305	5
306	2
307	1
317	1
318	2
319	40
320	12
321	6
322	1
331	7
332	4
333	2
345	1
359	3
360	4
361	80
362	26
363	13
364	3
365	1
390	1
409	2
410	1
451	3
452	1
479	1
480	4
481	2
482	1
598	1
