Mass spectrum: Cyanidin-3-O-[6''-O-(E-p-coum)-2''-O-(beta-xylopyranosyl)-beta-glucopyranoside]-5-O-beta-glucopyranoside; LC-ESI-QTOF; MS2; CE:30 V; [M-2H]-
Name: Cyanidin-3-O-(6''-O-(E-p-coum)-2''-O-(beta-xylopyranosyl)-beta-glucopyranoside)-5-O-beta-glucopyranoside
Name: Cy 3-coumSamb-5-Glc
Name: CCXGG
Name: Cyanidin-3-(4-coumaroyl)sambubioside-5-glucoside
Name: Cy 3-O-beta-(6''-O-E-p-coum-sambubioside)-5-O-beta-glc
Name: Cyanidin 3-(6-(4-coumaroyl)-2-(xylosyl)-glucoside)-5-glucoside
Name: Cyanidin-3-O-[6''-O-(E-p-coum)-2''-O-(beta-xylopyranosyl)-beta-glucopyranoside]-5-O-beta-glucopyranoside
Class: Anthocyanidin
Formula: [C41H45O22]+
Exact mass: 889.24025
SMILES: C(C1O)(OC(Oc(c23)cc(cc2[o+1]c(c(c7)cc(c(O)c7)O)c(OC(O5)C(C(C(C(COC(C=Cc(c6)ccc(O)c6)=O)5)O)O)OC(O4)C(C(C(O)C4)O)O)c3)O)C(O)C1O)CO
InChI: InChI=1S/C41H44O22/c42-13-27-31(50)33(52)36(55)40(61-27)59-25-11-19(44)10-24-20(25)12-26(37(58-24)17-4-7-21(45)22(46)9-17)60-41-38(63-39-35(54)30(49)23(47)14-57-39)34(53)32(51)28(62-41)15-56-29(48)8-3-16-1-5-18(43)6-2-16/h1-12,23,27-28,30-36,38-42,47,49-55H,13-15H2,(H3-,43,44,45,46,48)/p+1/t23-,27-,28-,30+,31-,32-,33+,34+,35-,36-,38-,39+,40-,41-/m1/s1
Instrument: UPLC Q-Tof Premier, Waters
Instrument type: LC-ESI-QTOF
Ms type: MS2
Ion mode: NEGATIVE
Collision energy: 30 V
Fragmentation mode: LOW-ENERGY CID
Ionization: ESI
Precursor m/z: 887.22461
Precursor type: [M-2H]-
m/z	relative intensity
283.0297	27
284.0363	345
285.0445	25
309.0443	33
339.0547	76
446.0921	104
579.1426	53
725.1777	999
887.2246	17
