Mass spectrum: Stearic acid; GC-EI-TOF; MS; 1 TMS; BP:73
Name: Stearic acid
Name: Stearate
Name: Octadecanoic acid
Class: Natural Product
Formula: C18H36O2
Exact mass: 284.27153
SMILES: CCCCCCCCCCCCCCCCCC(O)=O
InChI: InChI=1S/C18H36O2/c1-2-3-4-5-6-7-8-9-10-11-12-13-14-15-16-17-18(19)20/h2-17H2,1H3,(H,19,20)
Instrument: Pegasus III TOF-MS system, Leco; GC 6890, Agilent Technologies
Instrument type: GC-EI-TOF
Ms type: MS
Ion mode: POSITIVE
Retention time: 559.045 sec
Base peak: 73
Derivative form: C21H44O2Si
Derivative mass: 356.31106
Derivative type: 1 TMS
m/z	relative intensity
60	17
61	68
62	6
63	5
64	1
65	7
66	4
67	76
68	3
69	70
70	32
71	59
72	50
73	999
74	112
75	671
76	66
77	71
78	6
79	35
80	5
81	64
82	12
83	77
84	28
85	34
86	12
87	9
88	6
89	25
90	4
91	10
92	2
93	20
94	3
95	52
96	8
97	50
98	38
99	21
100	3
101	13
102	4
103	4
105	21
106	2
107	10
108	1
109	16
110	3
111	23
112	11
113	5
114	1
115	8
116	51
117	795
118	79
119	35
120	2
121	9
122	1
123	6
124	2
125	6
126	3
127	4
128	3
129	362
130	47
131	112
132	351
133	77
134	19
135	8
136	1
137	2
138	1
139	3
140	2
141	3
142	2
143	29
144	4
145	180
146	25
147	9
148	1
149	3
151	1
153	2
154	4
155	3
156	1
157	8
158	1
159	18
160	3
161	1
163	1
167	2
168	1
169	1
171	15
172	2
173	5
174	3
181	1
185	22
186	4
187	14
188	5
189	1
195	1
199	6
200	1
201	39
202	7
203	2
210	1
213	5
214	1
215	5
216	1
223	2
227	5
228	1
229	3
230	1
241	6
242	1
243	5
244	1
255	3
256	1
257	9
258	2
269	1
271	3
283	1
285	1
297	7
298	2
299	2
311	1
313	7
314	2
327	1
340	8
341	109
342	34
343	9
344	1
355	1
356	17
357	5
358	1
