Mass spectrum: Hydroxylamine; GC-EI-TOF; MS; 3 TMS; BP:73
Name: Hydroxylamine
Name: Hydroxylamine hydrochloride
Class: Natural Product
Formula: H3NO
Exact mass: 33.02146
SMILES: NO
InChI: InChI=1S/H3NO/c1-2/h2H,1H2
Instrument: Pegasus III TOF-MS system, Leco; GC 6890, Agilent Technologies
Instrument type: GC-EI-TOF
Ms type: MS
Ion mode: POSITIVE
Retention time: 284.666 sec
Base peak: 73
Derivative form: C9H27NOSi3
Derivative mass: 249.14004
Derivative type: 3 TMS
m/z	relative intensity
60	29
61	15
62	1
66	10
67	1
69	1
70	37
71	14
72	107
73	999
74	106
75	51
76	4
77	2
79	1
83	1
84	4
85	13
86	139
87	57
88	34
89	11
90	2
91	1
99	8
100	85
101	17
102	25
103	16
104	4
105	6
113	23
114	21
115	15
116	24
117	27
118	8
119	201
120	27
121	15
122	1
128	1
129	3
130	125
131	54
132	35
133	245
134	38
135	19
136	2
144	3
145	2
146	243
147	144
148	36
149	10
150	1
158	1
160	7
161	18
162	5
163	1
171	2
172	1
174	1
177	1
187	1
188	5
189	1
190	1
191	1
204	3
205	5
206	1
234	1
249	48
250	12
251	6
252	1
