Mass spectrum: Myricetin-3-Xyloside; LC-ESI-QTOF; MS2; CE:Ramp 5-60 V; [M-H]-
Name: Myricetin-3-Xyloside
Name: Myrc-3-Xyl
Class: Flavonoid
Formula: C20H18O12
Exact mass: 450.07983
SMILES: OC(C4)C(O)C(O)C(O4)OC(C(=O)2)=C(Oc(c3)c(c(O)cc(O)3)2)c(c1)cc(O)c(O)c(O)1
InChI: InChI=1S/C20H18O12/c21-7-3-8(22)13-12(4-7)31-18(6-1-9(23)14(26)10(24)2-6)19(16(13)28)32-20-17(29)15(27)11(25)5-30-20/h1-4,11,15,17,20-27,29H,5H2/t11-,15+,17-,20+/m1/s1
Instrument: UPLC Q-Tof Premier, Waters
Instrument type: LC-ESI-QTOF
Ms type: MS2
Ion mode: NEGATIVE
Collision energy: Ramp 5-60 V
Fragmentation mode: LOW-ENERGY CID
Ionization: ESI
Precursor m/z: 449.072
Precursor type: [M-H]-
m/z	relative intensity
214.0270	90
242.0225	71
243.0298	70
259.0252	98
270.0176	78
271.0257	442
287.0205	278
316.0226	999
317.0306	149
449.0720	762
450.0789	68
