Mass spectrum: Indoleacetic acid; GC-EI-TOF; MS; 1 TMS; BP:130
Name: Indole-3-acetic acid
Name: Indole-3-acetate
Name: Indoleacetate
Name: Indoleacetic acid
Class: Natural Product
Formula: C10H9NO2
Exact mass: 175.06333
SMILES: C1=CC=C2C(=C1)C(=CN2)CC(=O)O
InChI: InChI=1S/C10H9NO2/c12-10(13)5-7-6-11-9-4-2-1-3-8(7)9/h1-4,6,11H,5H2,(H,12,13)
Instrument: Pegasus III TOF-MS system, Leco; GC 6890, Agilent Technologies
Instrument type: GC-EI-TOF
Ms type: MS
Ion mode: POSITIVE
Retention time: 501.922 sec
Base peak: 130
Derivative form: C13H17NO2Si
Derivative mass: 247.10286
Derivative type: 1 TMS
m/z	relative intensity
60	16
61	46
62	18
63	39
64	10
65	22
66	1
70	4
71	4
72	13
73	648
74	103
75	270
76	87
77	228
78	29
79	17
83	1
84	3
85	3
86	3
87	7
88	4
89	13
90	3
91	5
92	1
93	1
94	2
95	1
97	2
98	4
99	3
100	4
101	43
102	139
103	131
104	17
105	2
106	1
107	1
111	1
112	1
113	1
114	3
115	7
116	23
117	12
118	2
119	1
120	1
121	1
127	4
128	83
129	150
130	999
131	106
132	9
133	1
134	2
136	1
139	1
141	2
142	2
143	4
144	11
145	6
146	3
150	1
153	1
154	1
155	1
156	4
157	18
158	4
159	2
160	6
161	2
162	2
163	1
165	1
167	1
169	1
170	2
171	1
172	5
173	2
174	2
175	1
176	6
177	1
178	1
179	1
180	1
181	1
183	1
184	2
185	2
186	19
187	7
188	44
189	8
190	4
191	1
193	1
196	1
197	1
199	1
200	1
201	1
202	15
203	38
204	25
205	5
206	1
208	1
211	1
212	1
213	1
214	1
216	1
217	1
218	1
220	1
231	1
232	41
233	7
234	1
235	1
243	1
246	1
247	110
248	23
249	7
250	1
254	1
268	1
280	1
282	1
287	1
293	1
298	1
303	1
308	1
313	1
316	1
327	1
334	1
335	1
339	1
347	1
354	1
375	1
376	1
385	1
392	1
445	1
450	1
468	1
471	1
505	1
522	1
538	1
545	1
550	1
556	1
559	1
561	1
571	1
574	1
579	1
595	1
598	1
599	1
635	1
651	1
654	1
664	1
665	1
699	1
750	1
758	1
