Mass spectrum: Cytidine-3',5'-cyclicmonophosphate; LC-ESI-QTOF; MS2; CE:Ramp 5-60 V; [M-H]-
Name: Cytidine-3',5'-cyclicmonophosphate
Name: cCMP
Name: 3',5'-Cyclic CMP
Class: Natural Product; Nucleoside; Phosphates
Formula: C9H12N3O7P
Exact mass: 305.04129
SMILES: NC(C=3)=NC(=O)N(C3)[C@H](O1)[C@H](O)[C@H](O2)[C@@H](COP(O)(=O)2)1
InChI: InChI=1S/C9H12N3O7P/c10-5-1-2-12(9(14)11-5)8-6(13)7-4(18-8)3-17-20(15,16)19-7/h1-2,4,6-8,13H,3H2,(H,15,16)(H2,10,11,14)/t4-,6-,7-,8-/m1/s1
Instrument: UPLC Q-Tof Premier, Waters
Instrument type: LC-ESI-QTOF
Ms type: MS2
Ion mode: NEGATIVE
Collision energy: Ramp 5-60 V
Fragmentation mode: LOW-ENERGY CID
Ionization: ESI
Precursor m/z: 304.03349
Precursor type: [M-H]-
m/z	relative intensity
67.0318	63
78.9602	997
96.9704	208
110.0364	701
134.9858	51
192.9921	71
304.0335	999
