Mass spectrum: L-Tyrosine; LC-ESI-QTOF; MS2; CE:Ramp 5-60 V; [M+H]+
Name: L-Tyrosine
Name: L-Tyr
Name: (-)-alpha-Amino-p-hydroxyhydrocinnamic acid
Name: 4-Hydroxyphenylalanine
Name: L-2-Amino-3-p-hydroxyphenylpropanoic acid
Name: (S)-2-Amino-3-(4-hydroxyphenyl)propionic acid
Class: Amino acids
Formula: C9H11NO3
Exact mass: 181.07389
SMILES: OC(=O)C(N)Cc(c1)ccc(O)c1
InChI: InChI=1S/C9H11NO3/c10-8(9(12)13)5-6-1-3-7(11)4-2-6/h1-4,8,11H,5,10H2,(H,12,13)/t8-/m0/s1
Instrument: UPLC Q-Tof Premier, Waters
Instrument type: LC-ESI-QTOF
Ms type: MS2
Ion mode: POSITIVE
Collision energy: Ramp 5-60 V
Fragmentation mode: LOW-ENERGY CID
Ionization: ESI
Precursor m/z: 182.08169
Precursor type: [M+H]+
m/z	relative intensity
136.0762	132
182.0817	999
