Mass spectrum: Spermidine; GC-EI-TOF; MS; 5 TMS; BP:73
Name: Spermidine
Name: N-(3-Aminopropyl)-1,4-butane-diamine
Class: Natural Product
Formula: C7H19N3
Exact mass: 145.15790
SMILES: NCCCCNCCCN
InChI: InChI=1S/C7H19N3/c8-4-1-2-6-10-7-3-5-9/h10H,1-9H2
Instrument: Pegasus III TOF-MS system, Leco; GC 6890, Agilent Technologies
Instrument type: GC-EI-TOF
Ms type: MS
Ion mode: POSITIVE
Retention time: 561.949 sec
Base peak: 73
Derivative form: C22H59N3Si5
Derivative mass: 505.35553
Derivative type: 5 TMS
m/z	relative intensity
60	17
61	7
66	1
67	1
69	1
70	15
71	9
72	26
73	999
74	96
75	30
76	2
77	8
78	1
79	3
80	1
81	1
82	7
83	3
84	33
85	12
86	266
87	29
88	16
89	1
96	4
97	2
98	9
99	22
100	135
101	32
102	40
103	6
104	2
110	5
111	1
112	13
113	8
114	32
115	57
116	290
117	46
118	14
119	2
124	1
125	1
126	21
127	5
128	42
129	28
130	67
131	21
132	11
133	2
140	13
141	4
142	69
143	12
144	371
145	52
146	50
147	7
148	3
154	25
155	7
156	141
157	58
158	21
159	4
160	107
161	20
162	8
163	1
168	3
169	1
170	60
171	11
172	85
173	17
174	229
175	43
176	20
177	2
182	1
183	8
184	4
185	2
186	19
187	6
188	5
189	1
198	2
199	1
200	10
201	30
202	7
203	3
214	17
215	5
216	3
229	1
243	1
303	4
304	1
317	3
318	1
344	3
345	1
490	2
491	1
