Mass spectrum: 4-Pyridoxic acid; LC-ESI-QTOF; MS2; CE:Ramp 5-60 V; [M+H]+
Name: 4-Pyridoxate
Name: 4-PA
Name: 4-Pyridoxic acid
Name: 4-Pyridoxylic acid
Name: 4-Pyridoxinic acid
Name: 4-Pyridoxinsaeure
Name: 3-Hydroxy-5-(hydroxymethyl)-2-methyl-4-pyridinecarboxylic acid
Name: 2-Methyl-3-hydroxy-4-carboxy-5-hydroxymethylpyridine
Name: 3-Hydroxy-5-(hydroxymethyl)-2-methylisonicotinic acid
Class: Pyridines
Formula: C8H9NO4
Exact mass: 183.05316
SMILES: OCc(c1)c(C(O)=O)c(O)c(C)n1
InChI: InChI=1S/C8H9NO4/c1-4-7(11)6(8(12)13)5(3-10)2-9-4/h2,10-11H,3H2,1H3,(H,12,13)
Instrument: UPLC Q-Tof Premier, Waters
Instrument type: LC-ESI-QTOF
Ms type: MS2
Ion mode: POSITIVE
Collision energy: Ramp 5-60 V
Fragmentation mode: LOW-ENERGY CID
Ionization: ESI
Precursor m/z: 184.06096
Precursor type: [M+H]+
m/z	relative intensity
65.0400	123
92.0507	88
120.0459	65
138.0564	77
148.0398	999
166.0498	786
184.0610	261
