Mass spectrum: CDP; LC-ESI-QTOF; MS2; CE:Ramp 5-60 V; [M-H]-
Name: Cytidine-5'-diphosphate
Name: CDP
Name: Cytidine 5'-Diphosphoric Acid
Class: Natural Product; Nucleoside; Phosphates
Formula: C9H15N3O11P2
Exact mass: 403.01818
SMILES: NC(C=2)=NC(=O)N(C2)[C@H](O1)[C@H](O)[C@H](O)[C@@H](COP(O)(=O)OP(O)(O)=O)1
InChI: InChI=1S/C9H15N3O11P2/c10-5-1-2-12(9(15)11-5)8-7(14)6(13)4(22-8)3-21-25(19,20)23-24(16,17)18/h1-2,4,6-8,13-14H,3H2,(H,19,20)(H2,10,11,15)(H2,16,17,18)/t4-,6-,7-,8-/m1/s1
Instrument: UPLC Q-Tof Premier, Waters
Instrument type: LC-ESI-QTOF
Ms type: MS2
Ion mode: NEGATIVE
Collision energy: Ramp 5-60 V
Fragmentation mode: LOW-ENERGY CID
Ionization: ESI
Precursor m/z: 402.01038
Precursor type: [M-H]-
m/z	relative intensity
78.9594	999
110.0355	162
158.9241	565
304.0305	108
383.9996	155
402.0104	821
