Mass spectrum: trans-Zeatin; LC-ESI-QTOF; MS2; CE:Ramp 5-60 V; [M+H]+
Name: trans-Zeatin
Name: ZEE
Name: 6-(4-Hydroxy-3-methylbut-2-enylamino)purine
Name: N6-(4-Hydroxy-3-methyl-2-buten-1-yl)adenine
Class: Zeatin
Formula: C10H13N5O
Exact mass: 219.11201
SMILES: C/C(=C\CNC1=NC=NC2=C1NC=N2)/CO
InChI: InChI=1S/C10H13N5O/c1-7(4-16)2-3-11-9-8-10(13-5-12-8)15-6-14-9/h2,5-6,16H,3-4H2,1H3,(H2,11,12,13,14,15)/b7-2+
Instrument: UPLC Q-Tof Premier, Waters
Instrument type: LC-ESI-QTOF
Ms type: MS2
Ion mode: POSITIVE
Collision energy: Ramp 5-60 V
Fragmentation mode: LOW-ENERGY CID
Ionization: ESI
Precursor m/z: 220.1198
Precursor type: [M+H]+
m/z	relative intensity
119.0369	160
136.0629	999
148.0634	146
185.0829	62
202.1102	180
220.1198	482
