Mass spectrum: Sinigrin; LC-ESI-QTOF; MS2; CE:30 eV; [M-H]-
Name: 2-propenyl glucosinolate
Name: Sinigrin
Name: SIG
Name: [1-[(2S,3R,4S,5S,6R)-3,4,5-trihydroxy-6-(hydroxymethyl)oxan-2-yl]sulfanylbut-3-enylideneamino] sulfate
Class: Natural Product
Formula: C10H17NO9S2
Exact mass: 359.03447
SMILES: C=CCC(=NOS(O)(=O)=O)SC(O1)C(O)C(O)C(O)C(CO)1
InChI: InChI=1S/C10H17NO9S2/c1-2-3-6(11-20-22(16,17)18)21-10-9(15)8(14)7(13)5(4-12)19-10/h2,5,7-10,12-15H,1,3-4H2,(H,16,17,18)/t5-,7-,8+,9-,10+/m1/s1
Instrument: UPLC Q-Tof Premier, Waters
Instrument type: LC-ESI-QTOF
Ms type: MS2
Ion mode: NEGATIVE
Collision energy: 30 eV
Fragmentation mode: LOW-ENERGY CID
Ionization: ESI
Full scan fragment ion peak: 358.1
Ion type: [M-H]-
m/z	relative intensity
71.0658	41
75.0220	960
75.8668	84
76.7073	20
79.9814	130
80.9672	69
85.0837	21
95.2115	22
95.9843	981
96.9758	999
97.8002	100
98.7125	31
101.0444	47
116.0333	51
138.9958	26
