Mass spectrum: Guanosine 5'-diphospho-beta-L-fucose; LC-ESI-QTOF; MS2; CE:Ramp 5-60 V; [M-H]-
Name: Guanosine 5'-diphospho-beta-L-fucose
Name: GDP-Fuc
Name: GDP-fucose
Name: 6-Deoxy-beta-L-galactopyranosylguanosine 5'-diphosphate
Class: Natural Product; Nucleoside; Phosphates
Formula: C16H25N5O15P2
Exact mass: 589.08224
SMILES: NC(N4)=Nc(c3C(=O)4)n(cn3)[C@H](O1)[C@H](O)[C@H](O)[C@@H](COP(O)(=O)OP(O)(=O)OC(O2)[C@@H](O)[C@H](O)[C@H](O)[C@H](C)2)1
InChI: InChI=1S/C16H25N5O15P2/c1-4-7(22)9(24)11(26)15(33-4)35-38(30,31)36-37(28,29)32-2-5-8(23)10(25)14(34-5)21-3-18-6-12(21)19-16(17)20-13(6)27/h3-5,7-11,14-15,22-26H,2H2,1H3,(H,28,29)(H,30,31)(H3,17,19,20,27)/t4-,5+,7+,8+,9+,10+,11-,14+,15+/m0/s1
Instrument: UPLC Q-Tof Premier, Waters
Instrument type: LC-ESI-QTOF
Ms type: MS2
Ion mode: NEGATIVE
Collision energy: Ramp 5-60 V
Fragmentation mode: LOW-ENERGY CID
Ionization: ESI
Precursor m/z: 588.07444
Precursor type: [M-H]-
m/z	relative intensity
78.9599	503
150.0423	221
158.9255	364
272.9583	69
304.9841	73
344.0403	194
362.0523	119
424.0078	198
442.0175	304
588.0745	999
