Mass spectrum: Prunin; LC-ESI-QTOF; MS2; CE:30 V; [M+H-C6H10O5]+
Name: naringenin-7-O-glucoside
Name: Prunin
Name: Nari_7_Glc
Name: (2S)-5-hydroxy-2-(4-hydroxyphenyl)-7-[(2S,3R,4S,5R,6R)-3,4,5-trihydroxy-6-(hydroxymethyl)oxan-2-yl]oxy-chroman-4-one
Class: Natural Product
Formula: C21H22O10
Exact mass: 434.12130
SMILES: OCC(O1)C(O)C(O)C(O)C1Oc(c4)cc(O2)c(c(O)4)C(=O)CC(c(c3)ccc(O)c3)2
InChI: InChI=1S/C21H22O10/c22-8-16-18(26)19(27)20(28)21(31-16)29-11-5-12(24)17-13(25)7-14(30-15(17)6-11)9-1-3-10(23)4-2-9/h1-6,14,16,18-24,26-28H,7-8H2/t14-,16+,18+,19-,20+,21+/m0/s1
Instrument: UPLC Q-Tof Premier, Waters
Instrument type: LC-ESI-QTOF
Ms type: MS2
Ion mode: POSITIVE
Collision energy: 30 V
Fragmentation mode: LOW-ENERGY CID
Ionization: ESI
Full scan fragment ion peak: 273.1
Ion type: [M+H-C6H10O5]+
m/z	relative intensity
67.0085	58
68.9885	40
69.0245	43
91.0496	195
91.0997	57
95.0448	41
97.0247	54
119.0478	305
119.1055	85
123.0442	37
147.0451	179
147.1080	42
153.0202	999
153.0849	238
