Mass spectrum: 1-Myristoyl-2-hydroxy-sn-glycero-3-phosphate; LC-ESI-QTOF; MS2; CE:Ramp 5-60 V; [M-H]-
Name: 1-Myristoyl-2-hydroxy-sn-glycero-3-phosphate
Name: 14:0 LysoPA
Name: 1-Myristoyllysophosphatidic acid
Name: 1-tetradecanoyl-2-sn-glycero-3-phosphate
Class: Glycerophospholipids
Formula: C17H35O7P
Exact mass: 382.21204
SMILES: CCCCCCCCCCCCCC(=O)OCC(O)COP(O)(O)=O
InChI: InChI=1S/C17H35O7P/c1-2-3-4-5-6-7-8-9-10-11-12-13-17(19)23-14-16(18)15-24-25(20,21)22/h16,18H,2-15H2,1H3,(H2,20,21,22)/t16-/m1/s1
Instrument: UPLC Q-Tof Premier, Waters
Instrument type: LC-ESI-QTOF
Ms type: MS2
Ion mode: NEGATIVE
Collision energy: Ramp 5-60 V
Fragmentation mode: LOW-ENERGY CID
Ionization: ESI
Precursor m/z: 381.20423
Precursor type: [M-H]-
m/z	relative intensity
78.9593	510
96.9705	60
152.9947	999
381.2042	329
