Mass spectrum: D-Ribose 5-phosphate; GC-EI-TOF; MS; 5 TMS; 1 MEOX; BP:73
Name: D-Ribose 5-phosphate
Class: Natural Product
Formula: C5H11O8P
Exact mass: 230.01915
SMILES: OC(O1)[C@H](O)[C@H](O)[C@H]1COP(O)(O)=O
InChI: InChI=1S/C5H11O8P/c6-3-2(1-12-14(9,10)11)13-5(8)4(3)7/h2-8H,1H2,(H2,9,10,11)/t2-,3-,4-,5?/m1/s1
Instrument: Pegasus III TOF-MS system, Leco; GC 6890, Agilent Technologies
Instrument type: GC-EI-TOF
Ms type: MS
Ion mode: POSITIVE
Retention time: 500.746 sec
Base peak: 73
Derivative form: C21H54NO8PSi5
Derivative mass: 619.24334
Derivative type: 5 TMS; 1 MEOX
m/z	relative intensity
60	7
61	13
62	1
63	2
66	4
67	3
69	2
70	4
71	6
72	16
73	999
74	83
75	89
76	7
77	32
78	1
79	4
82	2
83	1
84	4
85	5
86	2
87	4
88	2
89	66
90	6
91	3
92	1
93	1
94	4
95	1
97	1
98	2
99	10
100	6
101	47
102	9
103	32
104	3
105	7
106	1
107	1
111	2
112	2
113	7
114	4
115	10
116	16
117	17
118	2
119	6
120	1
121	2
126	4
127	5
128	2
129	86
130	21
131	19
132	4
133	48
134	6
135	11
136	1
137	3
140	1
141	1
142	3
143	6
144	1
145	3
147	115
148	18
149	17
150	2
151	5
152	1
153	1
156	2
157	5
158	21
159	6
160	10
161	5
162	1
163	6
165	1
166	1
167	1
168	2
172	1
173	5
174	6
175	1
177	1
179	1
181	4
182	1
183	2
184	3
185	1
186	1
189	8
190	1
191	7
192	1
193	6
194	1
195	6
196	1
197	2
198	3
199	1
200	2
203	2
204	5
205	13
206	2
207	10
208	2
209	2
211	30
212	4
213	3
214	2
215	3
216	2
217	114
218	28
219	11
220	2
221	1
225	10
226	1
227	8
228	1
229	1
230	1
231	3
232	1
233	1
240	1
241	1
243	1
246	1
253	2
256	4
257	1
258	1
269	1
283	3
284	1
285	3
298	4
299	106
300	30
301	15
302	3
305	1
313	2
314	7
315	133
316	35
317	19
318	3
328	2
331	2
341	2
357	12
358	3
359	1
369	1
373	1
387	4
388	1
389	1
458	1
459	8
460	3
461	2
