Mass spectrum: D-(-)-Quinic acid; LC-ESI-QTOF; MS2; CE:Ramp 5-60 V; [M-H]-
Name: D-(-)-Quinic acid
Name: Quinate
Name: Kinic acid
Name: Chinic acid
Name: (1R,3R,4R,5R)-(-)-Quinic acid
Name: 1,3,4,5-Tetrahydroxycyclohexanecarboxylic acid
Name: hexahydro-1,3,4,5-tetrahydroxybenzoic acid
Class: Carboxylic acids
Formula: C7H12O6
Exact mass: 192.06339
SMILES: OC(=O)[C@@](O)(C1)C[C@@H](O)[C@@H](O)[C@H](O)1
InChI: InChI=1S/C7H12O6/c8-3-1-7(13,6(11)12)2-4(9)5(3)10/h3-5,8-10,13H,1-2H2,(H,11,12)/t3-,4-,5-,7+/m1/s1
Instrument: UPLC Q-Tof Premier, Waters
Instrument type: LC-ESI-QTOF
Ms type: MS2
Ion mode: NEGATIVE
Collision energy: Ramp 5-60 V
Fragmentation mode: LOW-ENERGY CID
Ionization: ESI
Precursor m/z: 191.05559
Precursor type: [M-H]-
m/z	relative intensity
85.0301	262
93.0353	93
191.0556	999
