Mass spectrum: Prunin; LC-ESI-QTOF; MS2; CE:30 V; [M-H]-
Name: naringenin-7-O-glucoside
Name: Prunin
Name: Nari_7_Glc
Name: (2S)-5-hydroxy-2-(4-hydroxyphenyl)-7-[(2S,3R,4S,5R,6R)-3,4,5-trihydroxy-6-(hydroxymethyl)oxan-2-yl]oxy-chroman-4-one
Class: Natural Product
Formula: C21H22O10
Exact mass: 434.12130
SMILES: OCC(O1)C(O)C(O)C(O)C1Oc(c4)cc(O2)c(c(O)4)C(=O)CC(c(c3)ccc(O)c3)2
InChI: InChI=1S/C21H22O10/c22-8-16-18(26)19(27)20(28)21(31-16)29-11-5-12(24)17-13(25)7-14(30-15(17)6-11)9-1-3-10(23)4-2-9/h1-6,14,16,18-24,26-28H,7-8H2/t14-,16+,18+,19-,20+,21+/m0/s1
Instrument: UPLC Q-Tof Premier, Waters
Instrument type: LC-ESI-QTOF
Ms type: MS2
Ion mode: NEGATIVE
Collision energy: 30 V
Fragmentation mode: LOW-ENERGY CID
Ionization: ESI
Full scan fragment ion peak: 433.1
Ion type: [M-H]-
m/z	relative intensity
83.0272	25
93.0822	86
107.0618	114
119.0842	411
119.9232	57
120.9223	23
149.3753	26
150.2055	29
151.0336	999
151.8989	140
152.7511	41
164.0136	31
165.0182	48
175.0391	34
177.0464	113
177.8813	21
193.0267	20
227.0925	25
271.0796	646
271.9768	128
272.8763	38
