Mass spectrum: Homoorientin; LC-ESI-QTOF; MS2; CE:Ramp 5-60 V; [M+H]+
Name: luteolin-6-C-glucoside
Name: Homoorietin
Name: Isoorientin
Name: Lutl_6_C_Glc
Name: 2-(3,4-dihydroxyphenyl)-5,7-dihydroxy-6-[(2S,3S,4R,5R,6R)-3,4,5-trihydroxy-6-(hydroxymethyl)oxan-2-yl]chromen-4-one
Name: Homoorientin
Class: Natural Product
Formula: C21H20O11
Exact mass: 448.10056
SMILES: OCC(C(O)4)OC(C(O)C(O)4)c(c(O)1)c(O)c(C(=O)3)c(OC(=C3)c(c2)cc(O)c(O)c2)c1
InChI: InChI=1S/C21H20O11/c22-6-14-17(27)19(29)20(30)21(32-14)16-11(26)5-13-15(18(16)28)10(25)4-12(31-13)7-1-2-8(23)9(24)3-7/h1-5,14,17,19-24,26-30H,6H2/t14-,17-,19+,20-,21+/m1/s1
Instrument: UPLC Q-Tof Premier, Waters
Instrument type: LC-ESI-QTOF
Ms type: MS2
Ion mode: POSITIVE
Collision energy: Ramp 5-60 V
Fragmentation mode: LOW-ENERGY CID
Ionization: ESI
Full scan fragment ion peak: 449.1
Ion type: [M+H]+
m/z	relative intensity
121.0261	26
123.0055	33
135.0430	38
137.0226	81
149.0231	64
161.0237	39
163.0395	41
165.0185	254
165.0830	21
177.0186	29
187.0400	20
271.0618	22
283.0609	88
286.0490	33
287.0559	61
295.0611	26
297.0766	72
299.0559	999
299.1436	53
300.0619	155
311.0564	122
311.0916	24
313.0728	32
321.0768	32
323.0558	27
324.0630	27
325.0716	209
329.0667	692
329.1570	34
330.0712	42
337.0716	33
339.0874	172
349.0724	41
353.0667	368
354.0696	24
365.0673	135
367.0833	34
377.0668	113
383.0773	219
395.0775	200
413.0887	181
431.0990	220
449.1084	667
449.2162	32
450.1128	58
