Mass spectrum: Kaempferol-3-O-glucoside; LC-ESI-QTOF; MS2; CE:30 V; [M-H]-
Name: Kaempferol-3-O-glucoside
Name: Astragalin
Name: Kaem_3_Glc
Name: 5,7-dihydroxy-2-(4-hydroxyphenyl)-3-[(2S,3R,4S,5R,6R)-3,4,5-trihydroxy-6-(hydroxymethyl)oxan-2-yl]oxy-chromen-4-one
Class: Natural Product
Formula: C21H20O11
Exact mass: 448.10056
SMILES: OC[C@@H](O1)[C@@H](O)[C@H](O)[C@@H](O)[C@@H]1OC(C(=O)2)=C(c(c4)ccc(O)c4)Oc(c3)c(c(O)cc(O)3)2
InChI: InChI=1S/C21H20O11/c22-7-13-15(26)17(28)18(29)21(31-13)32-20-16(27)14-11(25)5-10(24)6-12(14)30-19(20)8-1-3-9(23)4-2-8/h1-6,13,15,17-18,21-26,28-29H,7H2/t13-,15-,17+,18-,21+/m1/s1
Instrument: UPLC Q-Tof Premier, Waters
Instrument type: LC-ESI-QTOF
Ms type: MS2
Ion mode: NEGATIVE
Collision energy: 30 V
Fragmentation mode: LOW-ENERGY CID
Ionization: ESI
Full scan fragment ion peak: 447.1
Ion type: [M-H]-
m/z	relative intensity
151.0299	20
211.2850	26
227.0551	509
227.9660	126
228.9608	68
229.9619	27
238.9347	21
252.7765	28
253.9418	41
255.0450	999
256.0019	338
256.9638	107
257.8745	42
281.3329	20
282.9858	41
284.0458	885
285.0237	441
285.9473	113
286.8608	41
287.7623	20
