Mass spectrum: Daidzin; LC-ESI-QTOF; MS2; CE:30 V; [M-H-C6H10O5]-
Name: Daidzin
Name: Daidzein-7-O-glucoside
Name: Daidzoside
Name: 3-(4-hydroxyphenyl)-7-[(2S,3R,4S,5S,6R)-3,4,5-trihydroxy-6-(hydroxymethyl)oxan-2-yl]oxychromen-4-one
Name: 4',7-hydroxyisoflavone-7-glucoside
Class: Natural Product
Formula: C21H20O9
Exact mass: 416.11073
SMILES: C1=CC(=CC=C1C2=COC3=C(C2=O)C=CC(=C3)O[C@H]4[C@@H]([C@H]([C@@H]([C@H](O4)CO)O)O)O)O
InChI: InChI=1S/C21H20O9/c22-8-16-18(25)19(26)20(27)21(30-16)29-12-5-6-13-15(7-12)28-9-14(17(13)24)10-1-3-11(23)4-2-10/h1-7,9,16,18-23,25-27H,8H2/t16-,18-,19+,20-,21-/m1/s1
Instrument: UPLC Q-Tof Premier, Waters
Instrument type: LC-ESI-QTOF
Ms type: MS2
Ion mode: NEGATIVE
Collision energy: 30 V
Fragmentation mode: LOW-ENERGY CID
Ionization: ESI
Full scan fragment ion peak: 253
Ion type: [M-H-C6H10O5]-
m/z	relative intensity
77.0530	47
89.0702	102
90.1755	30
91.0519	788
91.9284	94
92.9627	60
104.0122	59
115.9591	35
117.0544	110
118.8483	35
127.0337	31
131.0682	38
132.0579	726
133.0519	772
133.8754	121
135.0351	393
135.8680	59
141.1102	43
143.1143	37
152.0850	41
154.0533	38
155.0558	58
160.0209	43
167.0680	109
168.0514	75
169.0810	185
169.8922	34
170.8230	39
179.0358	64
180.0802	386
181.0141	116
182.0468	130
183.0282	106
183.9125	36
184.9803	37
189.9332	34
195.0587	447
196.0448	320
197.0821	174
198.0479	55
206.0547	37
207.0838	76
208.0770	916
209.0157	323
209.9138	115
210.9216	82
211.7968	33
221.2186	34
222.0843	32
223.0630	999
224.0493	673
224.9829	205
225.8784	84
251.0630	95
252.0654	121
253.0708	507
253.8785	82
