Mass spectrum: Scopoletin; LC-ESI-QTOF; MS2; CE:Ramp 5-60 V; [M-H]-
Name: Scopoletin
Name: 6-Methoxyumbelliferone
Name: beta-Methylesculetin
Name: 7-Hydroxy-5-methoxycoumarin
Name: 6-Methoxy-7-hydroxycoumarin
Name: Chrysatropic acid
Name: Escopoletin
Name: Esculetin-6-methyl ether
Name: Gelseminic acid
Name: Methylesculetin
Name: 7-Hydroxy-6-methoxy-2H-1-benzopyran-2-one
Name: Murrayetin
Name: Scopoletine
Name: Scopoletol
Class: Coumarins
Formula: C10H8O4
Exact mass: 192.04226
SMILES: COc(c1)c(O)cc(O2)c(C=CC(=O)2)1
InChI: InChI=1S/C10H8O4/c1-13-9-4-6-2-3-10(12)14-8(6)5-7(9)11/h2-5,11H,1H3
Instrument: UPLC Q-Tof Premier, Waters
Instrument type: LC-ESI-QTOF
Ms type: MS2
Ion mode: NEGATIVE
Collision energy: Ramp 5-60 V
Fragmentation mode: LOW-ENERGY CID
Ionization: ESI
Precursor m/z: 191.03446
Precursor type: [M-H]-
m/z	relative intensity
104.0268	343
120.0218	106
148.0159	281
176.0106	999
191.0345	351
