Mass spectrum: 4-Hydroxybenzoic acid; LC-ESI-QTOF; MS2; CE:Ramp 5-60 V; [M+H]+
Name: 4-hydroxy-benzoate
Name: p-Hydroxybenzoic acid
Name: 4-Hydroxybenzoic acid
Name: Hydroxybenzenecarboxylic acid
Class: Carboxylic acids
Formula: C7H6O3
Exact mass: 138.03169
SMILES: Oc(c1)ccc(c1)C(O)=O
InChI: InChI=1S/C7H6O3/c8-6-3-1-5(2-4-6)7(9)10/h1-4,8H,(H,9,10)
Instrument: UPLC Q-Tof Premier, Waters
Instrument type: LC-ESI-QTOF
Ms type: MS2
Ion mode: POSITIVE
Collision energy: Ramp 5-60 V
Fragmentation mode: LOW-ENERGY CID
Ionization: ESI
Precursor m/z: 139.03949
Precursor type: [M+H]+
m/z	relative intensity
95.0503	999
121.0293	924
139.0395	510
