Mass spectrum: 2-Hydroxyisocaproic acid; LC-ESI-QTOF; MS2; CE:Ramp 5-60 V; [M-H]-
Name: 2-Hydroxyisocaproic acid
Name: 2-Hydroxyisocaproate
Name: 2-Hydroxy-4-methylvaleric acid
Name: leucic acid
Name: alpha-hydroxyisocaproic acid
Class: Hydroxy fatty acids
Formula: C6H12O3
Exact mass: 132.07864
SMILES: CC(C)CC(O)C(O)=O
InChI: InChI=1S/C6H12O3/c1-4(2)3-5(7)6(8)9/h4-5,7H,3H2,1-2H3,(H,8,9)
Instrument: UPLC Q-Tof Premier, Waters
Instrument type: LC-ESI-QTOF
Ms type: MS2
Ion mode: NEGATIVE
Collision energy: Ramp 5-60 V
Fragmentation mode: LOW-ENERGY CID
Ionization: ESI
Precursor m/z: 131.07084
Precursor type: [M-H]-
m/z	relative intensity
69.0359	65
85.0667	801
131.0708	999
