Mass spectrum: 4-Methoxycinnamic acid; LC-ESI-QTOF; MS2; CE:30 V; [M+H]+
Name: 4-Methoxycinnamic acid
Name: 3-(4-methoxyphenyl)prop-2-enoic acid
Class: Natural Product
Formula: C10H10O3
Exact mass: 178.06299
SMILES: COC1=CC=C(C=C1)/C=C/C(=O)O
InChI: InChI=1S/C10H10O3/c1-13-9-5-2-8(3-6-9)4-7-10(11)12/h2-7H,1H3,(H,11,12)/b7-4+
Instrument: UPLC Q-Tof Premier, Waters
Instrument type: LC-ESI-QTOF
Ms type: MS2
Ion mode: POSITIVE
Collision energy: 30 V
Fragmentation mode: LOW-ENERGY CID
Ionization: ESI
Full scan fragment ion peak: 179.1
Ion type: [M+H]+
m/z	relative intensity
75.0240	33
77.0396	677
77.0853	125
79.0553	310
79.1020	56
89.0399	429
89.0885	72
90.0476	999
90.0972	181
91.0554	135
92.0266	123
94.0426	53
101.0398	80
102.0479	85
103.0557	408
103.1081	72
105.0711	73
118.0431	839
118.0990	138
119.0508	57
133.0670	362
133.1268	59
161.0626	30
