Mass spectrum: Gluconasturtiin; LC-ESI-QTOF; MS2; CE:Ramp 5-60 V; [M+K-2H]-
Name: Gluconasturtiin
Name: Gluconasturcin
Name: 2-Phenethylglucosinolate
Class: Glucosinolate
Formula: C15H21NO9S2
Exact mass: 423.06577
SMILES: OCC(O1)C(O)C(O)C(O)C1SC(CCc(c2)cccc2)=NOS(O)(=O)=O
InChI: InChI=1S/C15H21NO9S2/c17-8-10-12(18)13(19)14(20)15(24-10)26-11(16-25-27(21,22)23)7-6-9-4-2-1-3-5-9/h1-5,10,12-15,17-20H,6-8H2,(H,21,22,23)/b16-11+/t10-,12-,13+,14-,15+/m1/s1
Instrument: UPLC Q-Tof Premier, Waters
Instrument type: LC-ESI-QTOF
Ms type: MS2
Ion mode: NEGATIVE
Collision energy: Ramp 5-60 V
Fragmentation mode: LOW-ENERGY CID
Ionization: ESI
Derivative form: C15H21NO9S2.K.H2O
Derivative mass: 479.57
Precursor m/z: 460.01385
Precursor type: [M+K-2H]-
m/z	relative intensity
63.9636	251
79.9577	156
96.9582	79
134.9123	632
297.9560	999
460.0139	74
