Mass spectrum: Syringetin-3-O-glucoside; LC-ESI-QTOF; MS2; CE:Ramp 5-60 V; [M+H]+
Name: Syringetin-3-O-glucoside
Name: Syrg-3-Glc
Class: Flavonoid
Formula: C23H24O13
Exact mass: 508.12169
SMILES: OCC(O1)C(O)C(O)C(O)C1OC(C(=O)3)=C(Oc(c4)c(c(O)cc(O)4)3)c(c2)cc(OC)c(O)c(OC)2
InChI: InChI=1S/C23H24O13/c1-32-12-3-8(4-13(33-2)16(12)27)21-22(18(29)15-10(26)5-9(25)6-11(15)34-21)36-23-20(31)19(30)17(28)14(7-24)35-23/h3-6,14,17,19-20,23-28,30-31H,7H2,1-2H3/t14-,17-,19+,20-,23+/m1/s1
Instrument: UPLC Q-Tof Premier, Waters
Instrument type: LC-ESI-QTOF
Ms type: MS2
Ion mode: POSITIVE
Collision energy: Ramp 5-60 V
Fragmentation mode: LOW-ENERGY CID
Ionization: ESI
Precursor m/z: 509.12949
Precursor type: [M+H]+
m/z	relative intensity
69.0349	15
85.0293	60
97.0298	25
109.0292	10
127.0420	14
139.0406	23
145.0509	11
153.0196	59
153.0560	37
165.0204	25
181.0525	13
229.0502	14
244.0378	11
257.0478	15
258.0545	51
259.0606	20
269.0447	14
285.0409	19
286.0485	46
287.0563	72
291.0881	20
303.0520	24
314.0421	13
315.0511	29
331.0451	47
332.0546	30
347.0755	999
348.0827	15
509.1295	19
