Mass spectrum: O-Acetyl-L-serine; GC-EI-TOF; MS; 2 TMS; BP:73
Name: O-Acetyl-L-serine
Class: Natural Product
Formula: C5H9NO4
Exact mass: 147.05316
SMILES: CC(=O)OC[C@H](N)C(O)=O
InChI: InChI=1S/C5H9NO4/c1-3(7)10-2-4(6)5(8)9/h4H,2,6H2,1H3,(H,8,9)/t4-/m0/s1
Instrument: Pegasus III TOF-MS system, Leco; GC 6890, Agilent Technologies
Instrument type: GC-EI-TOF
Ms type: MS
Ion mode: POSITIVE
Retention time: 338.914 sec
Base peak: 73
Derivative form: C11H25NO4Si2
Derivative mass: 291.13221
Derivative type: 2 TMS
m/z	relative intensity
60	48
61	45
66	4
70	11
71	7
72	39
73	999
74	108
75	281
76	22
77	26
83	1
84	110
85	10
86	21
87	7
88	17
89	11
91	1
98	3
99	1
100	153
101	26
102	39
103	25
104	1
105	1
114	37
115	20
116	370
117	97
118	21
119	6
128	1
129	5
130	17
131	25
132	396
133	78
134	21
135	2
142	5
144	41
145	5
146	4
147	143
148	24
149	15
156	2
157	1
158	21
159	9
160	2
163	1
172	14
173	1
174	632
175	82
176	30
186	11
188	22
189	3
190	1
203	1
216	57
217	11
218	84
219	15
220	4
231	10
232	2
248	4
276	2
