Mass spectrum: Hesperetin; LC-ESI-QTOF; MS2; CE:Ramp 5-60 V; [M-H]-
Name: Hesperetin
Name: 3',5,7-Trihydroxy-4'-methoxy flavanone
Class: Flavonoid
Formula: C16H14O6
Exact mass: 302.07904
SMILES: COc(c3)c(O)cc(c3)[C@H](C1)Oc(c2)c(c(O)cc(O)2)C(=O)1
InChI: InChI=1S/C16H14O6/c1-21-13-3-2-8(4-10(13)18)14-7-12(20)16-11(19)5-9(17)6-15(16)22-14/h2-6,14,17-19H,7H2,1H3/t14-/m0/s1
Instrument: UPLC Q-Tof Premier, Waters
Instrument type: LC-ESI-QTOF
Ms type: MS2
Ion mode: NEGATIVE
Collision energy: Ramp 5-60 V
Fragmentation mode: LOW-ENERGY CID
Ionization: ESI
Precursor m/z: 301.07123
Precursor type: [M-H]-
m/z	relative intensity
139.9313	180
143.9357	163
156.9389	675
158.9380	313
159.9353	121
160.9382	609
161.9399	110
222.9224	137
224.9261	132
270.8709	135
272.8701	100
282.8772	204
300.8701	999
301.8726	225
