Mass spectrum: D-(+)-Melezitose; LC-ESI-QTOF; MS2; CE:Ramp 5-60 V; [M-H]-
Name: D-(+)-Melezitose
Name: Glc(alpha1-3)Fruf(beta2-1alpha)Glc
Name: Melizitose
Name: O-alpha-D-Glucopyranosyl-(1-3)-beta-D-fructofuranosyl-alpha-D-glucopyranoside
Class: Oligosaccharide
Formula: C18H32O16
Exact mass: 504.16903
SMILES: OC[C@@H](O1)[C@@H](O)[C@H](O)[C@@H](O)[C@H]1O[C@@H]([C@H](O)3)[C@@](CO)(O[C@H](CO)3)O[C@@H](O2)[C@H](O)[C@@H](O)[C@H](O)[C@@H](CO)2
InChI: InChI=1S/C18H32O16/c19-1-5-8(23)11(26)13(28)16(30-5)32-15-10(25)7(3-21)33-18(15,4-22)34-17-14(29)12(27)9(24)6(2-20)31-17/h5-17,19-29H,1-4H2/t5-,6-,7-,8-,9-,10-,11+,12+,13-,14-,15+,16-,17-,18+/m1/s1
Instrument: UPLC Q-Tof Premier, Waters
Instrument type: LC-ESI-QTOF
Ms type: MS2
Ion mode: NEGATIVE
Collision energy: Ramp 5-60 V
Fragmentation mode: LOW-ENERGY CID
Ionization: ESI
Precursor m/z: 503.16123
Precursor type: [M-H]-
m/z	relative intensity
59.0161	184
71.0158	327
85.0311	64
89.0255	333
101.0256	537
113.0255	348
119.0359	140
131.0359	154
143.0364	119
161.0468	134
179.0573	243
323.1015	455
503.1612	999
