Mass spectrum: Succinic acid; GC-EI-TOF; MS; 2 TMS; BP:147
Name: Succinic acid
Name: Succinate
Name: Ethylenesuccinic acid
Name: Butanedionic acid
Class: Natural Product
Formula: C4H6O4
Exact mass: 118.02661
SMILES: OC(=O)CCC(O)=O
InChI: InChI=1S/C4H6O4/c5-3(6)1-2-4(7)8/h1-2H2,(H,5,6)(H,7,8)
Instrument: Pegasus III TOF-MS system, Leco; GC 6890, Agilent Technologies
Instrument type: GC-EI-TOF
Ms type: MS
Ion mode: POSITIVE
Retention time: 348.339 sec
Base peak: 147
Derivative form: C10H22O4Si2
Derivative mass: 262.10566
Derivative type: 2 TMS
m/z	relative intensity
60	24
61	74
62	7
63	5
65	2
66	30
67	3
69	1
70	9
71	11
72	48
73	849
74	99
75	455
76	43
77	59
78	4
79	10
82	4
83	3
84	5
85	17
86	20
87	12
88	5
89	9
90	1
92	1
93	2
95	1
97	1
99	8
100	2
101	10
102	3
103	10
104	1
105	5
111	1
113	13
114	2
115	18
116	22
117	18
118	2
119	4
128	4
129	114
130	17
131	25
132	4
133	42
134	5
135	4
143	4
145	5
146	1
147	999
148	164
149	88
150	9
151	2
156	2
157	5
159	1
163	3
172	41
173	22
174	4
175	2
190	1
203	3
217	2
218	7
219	1
247	90
248	18
249	8
250	1
262	4
263	1
