Mass spectrum: Maltotriose; LC-ESI-QTOF; MS2; CE:Ramp 5-60 V; [M-H]-
Name: Maltotriose
Name: Amylotriose
Name: alpha-1,4-Glucotriose
Name: Triomaltose
Name: O-alpha-D-glucopyranosyl-O-alpha-D-glucopyranosyl-D-glucose
Name: (Glc(alpha1-4)Glc(alpha1-4)Glc)
Class: Oligosaccharide
Formula: C18H32O16
Exact mass: 504.16903
SMILES: OCC(O1)C(O)C(O)C(O)C1OC(C(CO)3)C(O)C(O)C(O3)OC(C(CO)2)C(O)C(O)C(O)O2
InChI: InChI=1S/C18H32O16/c19-1-4-7(22)8(23)12(27)17(31-4)34-15-6(3-21)32-18(13(28)10(15)25)33-14-5(2-20)30-16(29)11(26)9(14)24/h4-29H,1-3H2/t4-,5-,6-,7-,8+,9-,10-,11-,12-,13-,14-,15-,16?,17-,18-/m1/s1
Instrument: UPLC Q-Tof Premier, Waters
Instrument type: LC-ESI-QTOF
Ms type: MS2
Ion mode: NEGATIVE
Collision energy: Ramp 5-60 V
Fragmentation mode: LOW-ENERGY CID
Ionization: ESI
Precursor m/z: 503.16123
Precursor type: [M-H]-
m/z	relative intensity
59.0151	143
71.0147	342
73.0301	352
81.0348	43
83.0136	90
85.0297	56
87.0095	33
89.0244	191
97.0291	269
101.0241	656
113.0235	161
115.0373	70
119.0340	72
125.0232	55
131.0330	51
143.0343	147
161.0447	999
179.0545	410
221.0663	319
263.0761	87
281.0847	109
341.1081	187
383.1171	216
425.1253	87
503.1612	40
