Mass spectrum: 5,6-Dihydrouracil; GC-EI-TOF; MS; 2 TMS; BP:73
Name: Dihydrouracil
Name: Hydrouracil
Name: 5,6-Dihydro-2,4-dihydroxypyrimidine
Name: Dihydrouracile
Name: 2,4(1H,3H)-Pyrimidinedione, dihydro-
Name: 5,6-Dihydrouracil
Class: Natural Product
Formula: C4H6N2O2
Exact mass: 114.04293
SMILES: O=C(C1)NC(=O)NC1
InChI: InChI=1S/C4H6N2O2/c7-3-1-2-5-4(8)6-3/h1-2H2,(H2,5,6,7,8)
Instrument: Pegasus III TOF-MS system, Leco; GC 6890, Agilent Technologies
Instrument type: GC-EI-TOF
Ms type: MS
Ion mode: POSITIVE
Retention time: 292.351 sec
Base peak: 73
Derivative form: C10H22N2O2Si2
Derivative mass: 258.12198
Derivative type: 2 TMS
m/z	relative intensity
60	29
61	29
62	2
63	1
65	1
66	27
67	4
69	1
70	228
71	29
72	273
73	999
74	116
75	132
76	13
77	16
78	2
79	15
80	1
84	4
85	16
86	123
87	19
88	33
89	109
90	11
91	5
99	7
100	606
101	61
102	43
103	79
104	12
105	10
106	1
113	2
114	2
115	26
116	11
117	20
118	8
119	15
120	2
121	1
130	8
131	43
132	19
133	172
134	26
135	13
136	1
144	3
145	1
146	54
147	441
148	74
149	36
150	3
158	2
160	29
161	5
162	13
163	7
164	1
174	13
175	2
176	1
188	1
190	22
191	1
192	1
205	14
206	3
207	1
220	49
221	10
222	4
235	39
236	8
237	3
