Mass spectrum: D-Glucuronic acid; LC-ESI-QTOF; MS2; CE:Ramp 5-60 V; [M-H]-
Name: D-Glucuronic acid
Name: Glucuronate
Name: Glucosiduronic Acid
Name: D-Glucopyranuronic acid
Class: Carboxylic acids
Formula: C6H10O7
Exact mass: 194.04265
SMILES: OC(=O)[C@@H](O1)[C@@H](O)[C@H](O)[C@@H](O)C(O)1
InChI: InChI=1S/C6H10O7/c7-1-2(8)4(5(10)11)13-6(12)3(1)9/h1-4,6-9,12H,(H,10,11)/t1-,2-,3+,4-,6?/m0/s1
Instrument: UPLC Q-Tof Premier, Waters
Instrument type: LC-ESI-QTOF
Ms type: MS2
Ion mode: NEGATIVE
Collision energy: Ramp 5-60 V
Fragmentation mode: LOW-ENERGY CID
Ionization: ESI
Precursor m/z: 193.03485
Precursor type: [M-H]-
m/z	relative intensity
59.0160	349
71.0157	685
72.9947	824
73.0310	316
85.0303	596
89.0246	160
95.0144	161
101.0250	326
103.0044	286
113.0249	999
131.0360	254
193.0349	517
