Mass spectrum: N1-Acetylspermine; LC-ESI-QTOF; MS2; CE:Ramp 5-60 V; [M+H]+
Name: N1-Acetylspermine
Name: N'-Monoacetylspermine
Class: Polyamine
Formula: C12H28N4O
Exact mass: 244.22631
SMILES: NCCCNCCCCNCCCNC(C)=O
InChI: InChI=1S/C12H28N4O/c1-12(17)16-11-5-10-15-8-3-2-7-14-9-4-6-13/h14-15H,2-11,13H2,1H3,(H,16,17)
Instrument: UPLC Q-Tof Premier, Waters
Instrument type: LC-ESI-QTOF
Ms type: MS2
Ion mode: POSITIVE
Collision energy: Ramp 5-60 V
Fragmentation mode: LOW-ENERGY CID
Ionization: ESI
Precursor m/z: 245.2341
Precursor type: [M+H]+
m/z	relative intensity
84.0812	514
100.0760	999
112.1128	900
129.1395	656
171.1502	581
245.2341	568
