Mass spectrum: Sinapic acid; LC-ESI-QTOF; MS2; CE:Ramp 5-60 V; [M+H]+
Name: Sinapic acid
Name: 3,5-dimethoxy-4-hydroxycinnamic acid
Name: 3-(4-hydroxy-3,5-dimethoxy-phenyl)prop-2-enoic acid
Class: Carboxylic acids
Formula: C11H12O5
Exact mass: 224.06847
SMILES: COC1=CC(=CC(=C1O)OC)/C=C/C(=O)O
InChI: InChI=1S/C11H12O5/c1-15-8-5-7(3-4-10(12)13)6-9(16-2)11(8)14/h3-6,14H,1-2H3,(H,12,13)/b4-3+
Instrument: UPLC Q-Tof Premier, Waters
Instrument type: LC-ESI-QTOF
Ms type: MS2
Ion mode: POSITIVE
Collision energy: Ramp 5-60 V
Fragmentation mode: LOW-ENERGY CID
Ionization: ESI
Precursor m/z: 225.07627
Precursor type: [M+H]+
m/z	relative intensity
91.0603	274
119.0575	210
147.0534	169
175.0498	253
193.0111	471
207.0767	355
208.0458	206
209.0432	999
225.0763	187
