Mass spectrum: alpha-Methyl-DL-histidine; LC-ESI-QTOF; MS2; CE:Ramp 5-60 V; [M+H]+
Name: alpha-Methyl-DL-histidine
Name: alpha-Me-His
Name: N-alpha-Methylhistidine
Class: Amino acids
Formula: C7H11N3O2
Exact mass: 169.08513
SMILES: CC(CC1=CN=CN1)(C(=O)O)N
InChI: InChI=1S/C7H11N3O2/c1-7(8,6(11)12)2-5-3-9-4-10-5/h3-4H,2,8H2,1H3,(H,9,10)(H,11,12)
Instrument: UPLC Q-Tof Premier, Waters
Instrument type: LC-ESI-QTOF
Ms type: MS2
Ion mode: POSITIVE
Collision energy: Ramp 5-60 V
Fragmentation mode: LOW-ENERGY CID
Ionization: ESI
Precursor m/z: 170.09292
Precursor type: [M+H]+
m/z	relative intensity
80.0509	115
82.0541	99
83.0621	52
97.0775	127
107.0617	207
124.0872	999
170.0929	245
