Mass spectrum: (+)-Catechin; LC-ESI-QTOF; MS2; CE:Ramp 5-60 V; [M-H]-
Name: (+)-Catechin
Name: Ct
Name: Cyanidanol
Name: Cianidanol
Name: Catechuic Acid
Name: Catechinic acid
Name: catechol
Name: trans-3,3',4',5,7-Pentahydroxyflavane
Name: 3,3',4',5,7-Flavanpentol
Name: (2R,3S)-(+)-Catechin
Name: 2-(3,4-dihydroxyphenyl)-3,4-dihydro-2H-1-Benzopyran-3,5,7-triol
Class: Flavonoid
Formula: C15H14O6
Exact mass: 290.07904
SMILES: Oc(c3)c(O)cc(c3)[C@@H](O1)[C@@H](O)Cc(c(O)2)c(cc(O)c2)1
InChI: InChI=1S/C15H14O6/c16-8-4-11(18)9-6-13(20)15(21-14(9)5-8)7-1-2-10(17)12(19)3-7/h1-5,13,15-20H,6H2/t13-,15+/m0/s1
Instrument: UPLC Q-Tof Premier, Waters
Instrument type: LC-ESI-QTOF
Ms type: MS2
Ion mode: NEGATIVE
Collision energy: Ramp 5-60 V
Fragmentation mode: LOW-ENERGY CID
Ionization: ESI
Precursor m/z: 289.07123
Precursor type: [M-H]-
m/z	relative intensity
97.0303	122
109.0301	432
121.0298	101
123.0456	418
125.0250	262
137.0252	168
151.0406	172
161.0617	93
179.0358	109
187.0411	96
203.0718	236
205.0515	194
245.0828	360
289.0712	999
