Mass spectrum: N-Acetylglycine; LC-ESI-QTOF; MS2; CE:Ramp 5-60 V; [M-H]-
Name: N-Acetylglycine
Name: Ac-Gly
Name: Acetamidoacetic acid
Name: Acetaminoacetic Acid
Name: Aceturic acid
Name: Acetylglycocoll
Name: Ethanoylaminoethanoic acid
Name: 2-(Acetylamino)ethanoic Acid
Class: Amino acids
Formula: C4H7NO3
Exact mass: 117.04259
SMILES: CC(=O)NCC(O)=O
InChI: InChI=1S/C4H7NO3/c1-3(6)5-2-4(7)8/h2H2,1H3,(H,5,6)(H,7,8)
Instrument: UPLC Q-Tof Premier, Waters
Instrument type: LC-ESI-QTOF
Ms type: MS2
Ion mode: NEGATIVE
Collision energy: Ramp 5-60 V
Fragmentation mode: LOW-ENERGY CID
Ionization: ESI
Precursor m/z: 116.03479
Precursor type: [M-H]-
m/z	relative intensity
72.0464	135
74.0261	999
116.0348	379
