Mass spectrum: 1,3-Dimethyluric acid; LC-ESI-QTOF; MS2; CE:30 V; [M-H]-
Name: 1,3-Dimethylurate
Name: 1,3-Dimethyluric acid
Name: 1,3-Dimethyl-2,6,8-trihydroxypurine
Name: Oxytheophylline
Formula: C7H8N4O3
Exact mass: 196.05964
SMILES: O=C(N1)NC(N(C)2)=C1C(=O)N(C)C(=O)2
InChI: InChI=1S/C7H8N4O3/c1-10-4-3(8-6(13)9-4)5(12)11(2)7(10)14/h1-2H3,(H2,8,9,13)
Instrument: UPLC Q-Tof Premier, Waters
Instrument type: LC-ESI-QTOF
Ms type: MS2
Ion mode: NEGATIVE
Collision energy: 30 V
Fragmentation mode: LOW-ENERGY CID
Ionization: ESI
Precursor m/z: 195.05184
Precursor type: [M-H]-
m/z	relative intensity
68.0022	143
83.0252	252
94.0047	129
110.0355	934
111.0192	164
121.9998	63
123.0073	254
137.0223	999
138.0300	151
180.0279	336
195.0518	66
