Mass spectrum: Eserine; GC-EI-TOF; MS; 1 TMS; BP:73
Name: Eserine
Name: Physostigmine
Class: Natural Product
Formula: C15H21N3O2
Exact mass: 275.16338
SMILES: CNC(=O)Oc(c3)cc(c(c3)1)C(C)(C2)C(N(C)C2)N(C)1
InChI: InChI=1S/C15H21N3O2/c1-15-7-8-17(3)13(15)18(4)12-6-5-10(9-11(12)15)20-14(19)16-2/h5-6,9,13H,7-8H2,1-4H3,(H,16,19)/t13-,15+/m1/s1
Instrument: Pegasus III TOF-MS system, Leco; GC 6890, Agilent Technologies
Instrument type: GC-EI-TOF
Ms type: MS
Ion mode: POSITIVE
Retention time: 490.231 sec
Base peak: 73
Derivative form: C18H29N3O2Si
Derivative mass: 347.2029
Derivative type: 1 TMS
m/z	relative intensity
60	14
61	28
62	22
63	60
64	19
65	55
66	32
67	34
68	5
69	6
70	34
71	22
72	31
73	999
74	110
75	103
76	35
77	115
78	41
79	54
80	40
81	61
82	51
83	18
84	11
85	10
86	11
87	14
88	14
89	57
90	29
91	74
92	20
93	20
94	44
95	20
96	132
97	31
98	7
99	6
100	9
101	30
102	46
103	51
104	26
105	24
106	20
107	19
108	17
109	31
110	6
111	4
112	1
113	8
114	18
115	130
116	75
117	75
118	37
119	15
120	12
121	12
122	16
123	14
124	2
125	3
126	5
127	22
128	58
129	46
130	93
131	63
132	127
133	27
134	12
135	24
136	5
137	15
138	3
139	2
140	11
141	19
142	65
143	67
144	94
145	45
146	39
147	15
148	12
149	23
150	14
151	12
152	4
153	4
154	20
155	18
156	51
157	45
158	76
159	42
160	198
161	40
162	23
163	12
164	14
165	5
166	4
167	5
168	13
169	14
170	29
171	20
172	25
173	21
174	67
175	24
176	16
177	10
178	24
179	6
180	5
181	3
182	5
183	6
184	14
185	17
186	26
187	24
188	31
189	12
190	37
191	10
192	19
193	4
194	6
195	4
196	4
197	2
198	9
199	7
200	18
201	18
202	54
203	46
204	27
205	10
206	5
207	2
208	3
209	1
210	1
211	1
212	3
213	2
214	10
215	14
216	57
217	63
218	183
219	54
220	18
221	4
222	1
223	1
224	1
225	1
226	2
227	2
228	6
229	9
230	31
231	25
232	374
233	386
234	138
235	34
236	6
237	1
238	1
239	1
240	1
241	1
242	3
243	6
244	24
245	23
246	557
247	163
248	52
249	14
250	3
251	1
252	1
254	1
255	1
256	2
257	3
258	32
259	18
260	58
261	22
262	11
263	3
264	2
265	1
266	1
267	1
268	1
269	1
270	1
271	1
272	2
273	5
274	8
275	49
276	12
277	4
278	1
279	1
288	2
289	20
290	421
291	101
292	28
293	4
294	1
