Mass spectrum: Daidzein; LC-ESI-QTOF; MS2; CE:30 eV; [M+H]+
Name: 4',7-dihydroxyisoflavone
Name: Daidzein
Name: Ddze
Name: 7-hydroxy-3-(4-hydroxyphenyl)chromen-4-one
Class: Natural Product
Formula: C15H10O4
Exact mass: 254.05791
SMILES: Oc(c3)ccc(c3)C(=C1)C(=O)c(c2)c(cc(O)c2)O1
InChI: InChI=1S/C15H10O4/c16-10-3-1-9(2-4-10)13-8-19-14-7-11(17)5-6-12(14)15(13)18/h1-8,16-17H
Instrument: UPLC Q-Tof Premier, Waters
Instrument type: LC-ESI-QTOF
Ms type: MS2
Ion mode: POSITIVE
Collision energy: 30 eV
Fragmentation mode: LOW-ENERGY CID
Ionization: ESI
Full scan fragment ion peak: 255.1
Ion type: [M+H]+
m/z	relative intensity
65.0274	83
68.9872	38
77.0300	31
81.0258	131
91.0482	785
91.0971	90
93.0278	43
105.0294	59
106.0373	58
109.0244	45
115.0510	68
119.0463	155
121.0257	84
127.0519	94
128.0599	365
128.1177	35
129.0678	155
131.0473	114
133.0268	47
134.0345	72
137.0219	786
137.0815	80
141.0690	71
143.0849	81
145.0271	78
147.0430	34
149.0226	54
151.0536	98
152.0615	668
152.1244	56
153.0692	620
153.1321	54
157.0647	143
165.0692	35
169.0645	67
170.0720	32
171.0805	139
181.0648	999
181.1330	83
182.0718	101
184.0518	148
197.0597	171
198.0672	105
199.0756	516
199.1470	37
209.0602	71
210.0677	32
226.0628	36
227.0706	180
237.0549	138
255.0657	144
