Mass spectrum: Chalcone; GC-EI-TOF; MS; 1 MEOX; BP:77
Name: Chalcone
Name: Benzylideneacetophenone
Name: 1,3-Diphenyl-2-propen-1-one
Class: Natural Product
Formula: C15H12O
Exact mass: 208.08882
SMILES: O=C(C=Cc(c2)cccc2)c(c1)cccc1
InChI: InChI=1S/C15H12O/c16-15(14-9-5-2-6-10-14)12-11-13-7-3-1-4-8-13/h1-12H/b12-11+
Instrument: Pegasus III TOF-MS system, Leco; GC 6890, Agilent Technologies
Instrument type: GC-EI-TOF
Ms type: MS
Ion mode: POSITIVE
Retention time: 489.097 sec
Base peak: 77
Derivative form: C16H15NO
Derivative mass: 237.11536
Derivative type: 1 MEOX
m/z	relative intensity
60	1
61	10
62	41
63	128
64	24
65	52
66	3
70	2
73	2
74	74
75	74
76	217
77	999
78	137
79	15
80	2
81	5
82	24
83	9
84	1
85	2
86	10
87	20
88	38
89	108
90	41
91	152
92	13
93	4
94	12
95	16
96	5
97	2
98	7
99	8
100	8
101	71
102	373
103	448
104	151
105	46
106	4
107	1
108	3
109	2
110	3
111	3
113	11
114	9
115	42
116	8
118	4
119	22
120	3
121	38
122	3
125	1
126	7
127	11
128	439
129	76
130	15
131	1
133	5
134	21
135	2
137	2
138	1
139	13
140	3
144	2
145	1
149	1
150	7
151	13
152	17
153	4
154	1
160	9
161	2
162	3
163	13
164	11
165	77
166	15
167	5
168	1
173	1
174	1
175	3
176	18
177	15
178	59
179	32
180	9
181	1
186	1
187	4
188	6
189	52
190	32
191	54
192	12
193	6
194	3
201	1
202	6
203	19
204	151
205	224
206	712
207	128
208	12
209	1
217	1
218	2
219	1
220	12
221	7
222	3
235	2
236	493
237	191
238	27
239	2
