Mass spectrum: Isonicotinic acid; GC-EI-TOF; MS; 1 TMS; BP:180
Name: Isonicotinic acid
Class: Natural Product
Formula: C6H5NO2
Exact mass: 123.03203
SMILES: OC(=O)c(c1)ccnc1
InChI: InChI=1S/C6H5NO2/c8-6(9)5-1-3-7-4-2-5/h1-4H,(H,8,9)
Instrument: Pegasus III TOF-MS system, Leco; GC 6890, Agilent Technologies
Instrument type: GC-EI-TOF
Ms type: MS
Ion mode: POSITIVE
Retention time: 340.321 sec
Base peak: 180
Derivative form: C9H13NO2Si
Derivative mass: 195.07156
Derivative type: 1 TMS
m/z	relative intensity
60	26
61	33
62	7
63	9
64	5
65	13
66	13
67	14
68	1
69	4
70	8
71	5
72	23
73	179
74	46
75	123
76	41
77	69
78	839
79	79
80	5
81	5
82	3
83	21
84	6
85	3
86	2
87	1
89	1
90	53
91	4
92	6
93	10
94	8
95	4
96	4
97	1
99	2
100	1
104	1
105	21
106	710
107	54
108	7
109	11
110	9
111	1
119	2
120	12
121	2
122	11
123	6
124	1
132	1
134	2
135	3
136	593
137	79
138	23
139	1
147	1
150	3
151	2
152	2
153	1
162	1
164	3
165	1
166	1
179	4
180	999
181	145
182	46
183	4
194	5
195	43
196	6
197	2
