Mass spectrum: Eriodictyol; LC-ESI-QTOF; MS2; CE:Ramp 5-60 eV; [M+H]+
Name: 3',4',5,7-tetrahydroxyflavanone
Name: Eriodictyol
Name: Erid
Name: (2S)-2-(3,4-dihydroxyphenyl)-5,7-dihydroxy-chroman-4-one
Class: Natural Product
Formula: C15H12O6
Exact mass: 288.06339
SMILES: Oc(c3)c(O)cc(c3)[C@H](C1)Oc(c2)c(c(O)cc(O)2)C(=O)1
InChI: InChI=1S/C15H12O6/c16-8-4-11(19)15-12(20)6-13(21-14(15)5-8)7-1-2-9(17)10(18)3-7/h1-5,13,16-19H,6H2/t13-/m0/s1
Instrument: UPLC Q-Tof Premier, Waters
Instrument type: LC-ESI-QTOF
Ms type: MS2
Ion mode: POSITIVE
Collision energy: Ramp 5-60 eV
Fragmentation mode: LOW-ENERGY CID
Ionization: ESI
Full scan fragment ion peak: 289.1
Ion type: [M+H]+
m/z	relative intensity
67.0075	21
68.9871	27
69.0238	25
89.0324	132
111.0044	22
117.0308	117
123.0419	35
135.0427	114
145.0279	120
153.0179	855
153.0807	65
154.0219	20
163.0390	503
163.1031	35
179.0340	53
187.0396	21
271.0607	22
289.0712	999
289.1563	54
290.0755	59
