Mass spectrum: Quercetin-3-D-xyloside; LC-ESI-QTOF; MS2; CE:Ramp 5-60 V; [M+H]+
Name: Quercetin-3-D-xyloside
Name: Quer-3-Xyl
Name: Reinutrin
Name: Reynoutrin
Class: Flavonoid
Formula: C20H18O11
Exact mass: 434.08491
SMILES: Oc(c4)c(O)cc(c4)C(O1)=C(OC(O3)C(O)C(O)C(O)C3)C(=O)c(c(O)2)c(cc(O)c2)1
InChI: InChI=1S/C20H18O11/c21-8-4-11(24)14-13(5-8)30-18(7-1-2-9(22)10(23)3-7)19(16(14)27)31-20-17(28)15(26)12(25)6-29-20/h1-5,12,15,17,20-26,28H,6H2/t12-,15+,17-,20+/m1/s1
Instrument: UPLC Q-Tof Premier, Waters
Instrument type: LC-ESI-QTOF
Ms type: MS2
Ion mode: POSITIVE
Collision energy: Ramp 5-60 V
Fragmentation mode: LOW-ENERGY CID
Ionization: ESI
Precursor m/z: 435.09271
Precursor type: [M+H]+
m/z	relative intensity
73.0302	94
111.0092	11
115.0418	11
121.0309	14
137.0252	40
153.0204	54
155.0515	11
165.0214	28
173.0628	10
201.0572	23
229.0525	58
257.0483	29
285.0425	14
303.0519	999
304.0591	17
435.0927	11
