Mass spectrum: Hypotaurine; LC-ESI-QTOF; MS2; CE:Ramp 5-60 V; [M+H]+
Name: Hypotaurine
Name: 2-Aminoethanesulfinic acid
Name: 2-Aminoethylsulfinic Acid
Class: Organosulfonic acid
Formula: C2H7NO2S
Exact mass: 109.01975
SMILES: NCCS(O)=O
InChI: InChI=1S/C2H7NO2S/c3-1-2-6(4)5/h1-3H2,(H,4,5)
Instrument: UPLC Q-Tof Premier, Waters
Instrument type: LC-ESI-QTOF
Ms type: MS2
Ion mode: POSITIVE
Collision energy: Ramp 5-60 V
Fragmentation mode: LOW-ENERGY CID
Ionization: ESI
Precursor m/z: 110.02755
Precursor type: [M+H]+
m/z	relative intensity
92.0174	28
110.0275	999
