Mass spectrum: Linolenic acid; GC-EI-TOF; MS; 1 TMS; BP:73
Name: Linolenic acid
Name: (9Z,12Z,15Z)-Octadecatrienoic acid
Name: 9,12,15-Octadecatrienoic acid
Name: alpha-Linolenate
Name: Linolenate
Name: alpha-Linolenic acid
Class: Natural Product
Formula: C18H30O2
Exact mass: 278.22458
SMILES: CCC=CCC=CCC=CCCCCCCCC(O)=O
InChI: InChI=1S/C18H30O2/c1-2-3-4-5-6-7-8-9-10-11-12-13-14-15-16-17-18(19)20/h3-4,6-7,9-10H,2,5,8,11-17H2,1H3,(H,19,20)/b4-3-,7-6-,10-9-
Instrument: Pegasus III TOF-MS system, Leco; GC 6890, Agilent Technologies
Instrument type: GC-EI-TOF
Ms type: MS
Ion mode: POSITIVE
Retention time: 555.777 sec
Base peak: 73
Derivative form: C21H38O2Si
Derivative mass: 350.26411
Derivative type: 1 TMS
m/z	relative intensity
60	22
61	93
62	14
63	26
64	6
65	133
66	94
67	683
68	14
69	65
70	16
71	18
72	51
73	999
74	119
75	904
76	92
77	364
78	164
79	953
80	324
81	327
82	61
83	61
84	25
85	31
86	12
87	9
88	7
89	28
90	6
91	356
92	70
93	408
94	190
95	363
96	54
97	42
98	18
99	21
100	3
101	12
102	4
103	19
104	10
105	133
106	41
107	192
108	236
109	93
110	17
111	17
112	4
113	5
114	1
115	18
116	38
117	183
118	24
119	80
120	32
121	131
122	82
123	32
124	6
125	7
126	2
127	3
128	6
129	238
130	33
131	100
132	28
133	59
134	22
135	92
136	56
137	16
138	4
139	4
140	1
141	3
142	2
143	27
144	5
145	76
146	13
147	38
148	15
149	74
150	34
151	8
152	2
153	2
154	1
155	6
156	2
157	18
158	4
159	22
160	5
161	20
162	14
163	33
164	16
165	5
166	1
167	2
168	1
169	5
170	2
171	17
172	4
173	35
174	7
175	13
176	9
177	11
178	6
179	2
181	2
182	1
183	4
184	1
185	12
186	3
187	12
188	2
189	8
190	4
191	12
192	6
193	1
195	1
197	2
199	7
200	2
201	6
202	1
203	5
204	7
205	3
206	1
209	1
211	1
212	1
213	4
214	1
215	2
216	1
217	3
218	4
219	1
223	1
225	1
227	3
229	1
231	2
232	2
235	1
237	1
239	1
241	2
242	1
243	2
249	1
251	1
253	1
259	2
260	5
261	1
263	2
265	2
277	2
279	3
280	1
291	3
292	1
293	3
294	3
295	1
305	1
307	2
308	1
321	3
322	1
333	3
334	3
335	27
336	7
337	2
350	6
351	2
