Mass spectrum: L-Homocystine; LC-ESI-QTOF; MS2; CE:Ramp 5-60 V; [M+H]+
Name: L-Homocystine
Name: Hcy2
Name: L-4,4'-Dithiobis(2-aminobutanoic acid)
Class: Amino acids
Formula: C8H16N2O4S2
Exact mass: 268.05515
SMILES: OC(=O)C(N)CCSSCCC(N)C(O)=O
InChI: InChI=1S/C8H16N2O4S2/c9-5(7(11)12)1-3-15-16-4-2-6(10)8(13)14/h5-6H,1-4,9-10H2,(H,11,12)(H,13,14)/t5-,6-/m0/s1
Instrument: UPLC Q-Tof Premier, Waters
Instrument type: LC-ESI-QTOF
Ms type: MS2
Ion mode: POSITIVE
Collision energy: Ramp 5-60 V
Fragmentation mode: LOW-ENERGY CID
Ionization: ESI
Precursor m/z: 269.06295
Precursor type: [M+H]+
m/z	relative intensity
88.0241	999
90.0398	553
98.9878	156
100.9933	23
118.0351	112
134.0311	602
136.0471	785
210.9685	27
269.0630	36
