Mass spectrum: Cysteine S-sulfate; LC-ESI-QTOF; MS2; CE:Ramp 5-60 V; [M-H]-
Name: S-Sulfocysteine
Name: Cys(SO3H)
Name: S-Sulphocysteine
Name: L-Cysteine-S-sulfate
Name: S-Sulfo-L-cysteine
Name: Cysteine Sulfate Thioester
Name: (R)-2-Amino-3-(sulfothio)propanoic Acid
Name: cysteinyl-S-sulfonate
Name: cysteine-S-sulfonate
Name: Cysteinyl-S-sulfonic acid
Name: Cysteine-S-Sulfonic Acid
Name: Cysteine S-sulfate
Class: Amino acids
Formula: C3H7NO5S2
Exact mass: 200.97656
SMILES: N[C@H](C(O)=O)CSS(O)(=O)=O
InChI: InChI=1S/C3H7NO5S2/c4-2(3(5)6)1-10-11(7,8)9/h2H,1,4H2,(H,5,6)(H,7,8,9)/t2-/m0/s1
Instrument: UPLC Q-Tof Premier, Waters
Instrument type: LC-ESI-QTOF
Ms type: MS2
Ion mode: NEGATIVE
Collision energy: Ramp 5-60 V
Fragmentation mode: LOW-ENERGY CID
Ionization: ESI
Precursor m/z: 199.96877
Precursor type: [M-H]-
m/z	relative intensity
74.0082	543
79.9581	80
80.9660	999
112.9376	255
120.0123	359
136.0072	729
199.9688	709
