Mass spectrum: all-trans-Retinoic acid; LC-ESI-QTOF; MS2; CE:Ramp 5-60 V; [M+H]+
Name: all-trans-Retinoic acid
Name: ATRA
Name: beta-RA
Name: All-trans-Vitamin A acid
Name: all-trans-Retinoate
Name: Resinoid Acid
Name: Aberel
Name: Airol
Name: Aknoten
Name: Cordes vas
Name: Dermairol
Name: 3,7-Dimethyl-9-(2,6,6-trimethyl-1-cyclohexen-1-yl)-2,4,6,8-nonatetraenoic acid
Name: Effederm
Name: Epi-aberel
Name: Eudyna
Name: Retin-A
Name: Tretinoin
Name: Tretin M
Class: Prenol Lipids; Isoprenoids
Formula: C20H28O2
Exact mass: 300.20893
SMILES: OC(=O)C=C(C)C=CC=C(C)C=CC(=C(C)1)C(C)(C)CCC1
InChI: InChI=1S/C20H28O2/c1-15(8-6-9-16(2)14-19(21)22)11-12-18-17(3)10-7-13-20(18,4)5/h6,8-9,11-12,14H,7,10,13H2,1-5H3,(H,21,22)/b9-6+,12-11+,15-8+,16-14+
Instrument: UPLC Q-Tof Premier, Waters
Instrument type: LC-ESI-QTOF
Ms type: MS2
Ion mode: POSITIVE
Collision energy: Ramp 5-60 V
Fragmentation mode: LOW-ENERGY CID
Ionization: ESI
Precursor m/z: 301.21672
Precursor type: [M+H]+
m/z	relative intensity
91.0551	384
105.0711	350
119.0865	362
123.1171	379
131.0857	376
133.1022	317
145.1032	363
159.1162	410
201.1637	328
301.2167	999
