Mass spectrum: NADH; LC-ESI-QTOF; MS2; CE:30 V; [M-H]-
Name: NADH
Class: Natural Product; Nicotinamide; Dinucleotides
Formula: C21H29N7O14P2
Exact mass: 665.12477
SMILES: NC(=O)C(C5)=CN(C=C5)[C@H](O1)[C@H](O)[C@H](O)[C@@H](COP(O)(=O)OP(O)(=O)OC[C@@H](O2)[C@@H](O)[C@@H](O)[C@@H]2n(c4)c(n3)c(n4)c(N)nc3)1
InChI: InChI=1S/C21H29N7O14P2/c22-17-12-19(25-7-24-17)28(8-26-12)21-16(32)14(30)11(41-21)6-39-44(36,37)42-43(34,35)38-5-10-13(29)15(31)20(40-10)27-3-1-2-9(4-27)18(23)33/h1,3-4,7-8,10-11,13-16,20-21,29-32H,2,5-6H2,(H2,23,33)(H,34,35)(H,36,37)(H2,22,24,25)/t10-,11-,13-,14-,15-,16-,20-,21-/m1/s1
Instrument: UPLC Q-Tof Premier, Waters
Instrument type: LC-ESI-QTOF
Ms type: MS2
Ion mode: NEGATIVE
Collision energy: 30 V
Fragmentation mode: LOW-ENERGY CID
Ionization: ESI
Precursor m/z: 664.11697
Precursor type: [M-H]-
m/z	relative intensity
78.9632	488
96.9696	188
134.0517	836
158.9350	220
211.0079	123
272.9724	332
273.9734	123
312.9608	390
328.0609	120
328.9352	124
346.0602	310
370.7375	139
371.7307	230
372.7241	447
373.7275	444
374.7275	317
375.7277	332
376.7281	218
377.7244	138
397.0280	130
408.0316	213
430.0064	379
448.0157	999
485.9870	414
490.0321	562
664.5071	147
