Mass spectrum: 1-Amino-1-cyclopentanecarboxylic acid; LC-ESI-QTOF; MS2; CE:Ramp 5-60 V; [M+H]+
Name: 1-Amino-1-cyclopentanecarboxylic acid
Name: acpc
Name: Cycloleucine
Name: Cycloleucin
Class: Amino acids
Formula: C6H11NO2
Exact mass: 129.07898
SMILES: OC(=O)C(N)(C1)CCC1
InChI: InChI=1S/C6H11NO2/c7-6(5(8)9)3-1-2-4-6/h1-4,7H2,(H,8,9)
Instrument: UPLC Q-Tof Premier, Waters
Instrument type: LC-ESI-QTOF
Ms type: MS2
Ion mode: POSITIVE
Collision energy: Ramp 5-60 V
Fragmentation mode: LOW-ENERGY CID
Ionization: ESI
Precursor m/z: 130.1
Precursor type: [M+H]+
m/z	relative intensity
84.0793	94
130.0827	999
