Mass spectrum: Histamine; GC-EI-TOF; MS; 3 TMS; BP:73
Name: Histamine
Name: 2-(4-Imidazolyl)ethylamine
Name: 1H-Imidazole-4-ethanamine
Class: Natural Product
Formula: C5H9N3
Exact mass: 111.07965
SMILES: C1=C(NC=N1)CCN
InChI: InChI=1S/C5H9N3/c6-2-1-5-3-7-4-8-5/h3-4H,1-2,6H2,(H,7,8)
Instrument: Pegasus III TOF-MS system, Leco; GC 6890, Agilent Technologies
Instrument type: GC-EI-TOF
Ms type: MS
Ion mode: POSITIVE
Retention time: 451.939 sec
Base peak: 73
Derivative form: C14H33N3Si3
Derivative mass: 327.19823
Derivative type: 3 TMS
m/z	relative intensity
60	12
61	5
66	1
67	2
69	3
70	15
71	8
72	20
73	999
74	79
75	27
76	2
77	8
78	2
79	15
80	2
81	5
82	3
83	8
84	24
85	11
86	271
87	26
88	10
89	1
95	2
96	2
97	2
98	8
99	4
100	133
101	19
102	12
103	2
109	1
110	3
111	5
112	11
113	6
114	4
115	4
116	11
117	10
118	2
119	1
123	2
124	1
125	3
126	2
127	2
128	1
129	2
130	49
131	12
132	6
133	1
135	1
136	1
137	3
138	3
139	4
140	2
141	2
142	2
143	1
144	2
145	1
146	7
147	2
148	1
149	2
150	3
151	3
152	2
153	11
154	13
155	4
156	1
158	3
160	1
164	2
165	1
166	10
167	3
168	3
170	4
171	1
172	6
173	2
174	727
175	119
176	58
177	6
178	1
180	1
181	1
182	1
184	2
185	1
195	1
197	2
198	1
208	1
210	1
211	3
212	2
222	1
223	1
224	28
225	9
226	96
227	22
228	8
229	1
238	5
239	2
240	7
241	1
254	2
310	1
311	2
312	59
313	18
314	8
315	1
326	1
