Mass spectrum: Petunidin-3-O-beta-glucopyranoside; LC-ESI-QTOF; MS2; CE:Ramp 5-60 V; [M-2H]-
Name: Petunidin-3-O-beta-glucopyranoside
Name: Pt 3-Glc
Name: Petunidin 3-glucoside
Class: Anthocyanidin
Formula: [C22H23O12]+
Exact mass: 479.11895
SMILES: OCC(O1)C(O)C(O)C(O)C1Oc(c3)c([o+1]c(c4)c(c(O)cc(O)4)3)c(c2)cc(OC)c(O)c(O)2
InChI: InChI=1S/C22H22O12/c1-31-14-3-8(2-12(26)17(14)27)21-15(6-10-11(25)4-9(24)5-13(10)32-21)33-22-20(30)19(29)18(28)16(7-23)34-22/h2-6,16,18-20,22-23,28-30H,7H2,1H3,(H3-,24,25,26,27)/p+1/t16-,18-,19+,20-,22-/m1/s1
Instrument: UPLC Q-Tof Premier, Waters
Instrument type: LC-ESI-QTOF
Ms type: MS2
Ion mode: NEGATIVE
Collision energy: Ramp 5-60 V
Fragmentation mode: LOW-ENERGY CID
Ionization: ESI
Derivative form: C22H23O12.Cl
Derivative mass: 514.86
Precursor m/z: 477.10332
Precursor type: [M-2H]-
m/z	relative intensity
125.0244	224
187.0401	96
199.0400	77
215.0340	126
227.0363	115
243.0302	233
253.0157	64
255.0291	112
271.0265	325
272.0314	65
299.0209	628
300.0279	244
314.0438	999
315.0522	814
477.1033	997
