Mass spectrum: Prunin; LC-ESI-QTOF; MS2; CE:30 V; [M-H-C6H10O5}-
Name: naringenin-7-O-glucoside
Name: Prunin
Name: Nari_7_Glc
Name: (2S)-5-hydroxy-2-(4-hydroxyphenyl)-7-[(2S,3R,4S,5R,6R)-3,4,5-trihydroxy-6-(hydroxymethyl)oxan-2-yl]oxy-chroman-4-one
Class: Natural Product
Formula: C21H22O10
Exact mass: 434.12130
SMILES: OCC(O1)C(O)C(O)C(O)C1Oc(c4)cc(O2)c(c(O)4)C(=O)CC(c(c3)ccc(O)c3)2
InChI: InChI=1S/C21H22O10/c22-8-16-18(26)19(27)20(28)21(31-16)29-11-5-12(24)17-13(25)7-14(30-15(17)6-11)9-1-3-10(23)4-2-9/h1-6,14,16,18-24,26-28H,7-8H2/t14-,16+,18+,19-,20+,21+/m0/s1
Instrument: UPLC Q-Tof Premier, Waters
Instrument type: LC-ESI-QTOF
Ms type: MS2
Ion mode: NEGATIVE
Collision energy: 30 V
Fragmentation mode: LOW-ENERGY CID
Ionization: ESI
Full scan fragment ion peak: 271.1
Ion type: [M-H-C6H10O5]-
m/z	relative intensity
63.0474	73
65.0612	98
83.1016	133
93.0955	70
107.0419	222
107.8109	31
108.9254	25
117.0667	36
119.0903	999
119.9582	136
120.9101	50
122.0719	20
143.0460	40
145.0103	30
151.0230	132
161.0966	26
164.8822	20
177.0458	21
187.0909	62
