Mass spectrum: D,L-Sulforaphane; LC-ESI-QTOF; MS2; CE:Ramp 5-60 V; [M+H]+
Name: D,L-Sulforaphane
Name: Sulforaphan
Name: Sulforafan
Name: 1-Isothiocyanato-4-(methylsulfinyl)butane
Name: 4-Methylsulfinylbutyl isothiocyanate
Name: 4-methylsulphinylbutyl glucosinolate
Class: Sulfoxides
Formula: C6H11NOS2
Exact mass: 177.02821
SMILES: S=C=NCCCCS(C)=O
InChI: InChI=1S/C6H11NOS2/c1-10(8)5-3-2-4-7-6-9/h2-5H2,1H3
Instrument: UPLC Q-Tof Premier, Waters
Instrument type: LC-ESI-QTOF
Ms type: MS2
Ion mode: POSITIVE
Collision energy: Ramp 5-60 V
Fragmentation mode: LOW-ENERGY CID
Ionization: ESI
Precursor m/z: 178.036
Precursor type: [M+H]+
m/z	relative intensity
71.9899	549
114.0366	999
119.0526	139
