Mass spectrum: Genistein; LC-ESI-QTOF; MS2; CE:30 eV; [M+H]+
Name: 4',5,7-trihydroxyisoflavone
Name: Genistein
Name: Gens
Name: 5,7-dihydroxy-3-(4-hydroxyphenyl)chromen-4-one
Class: Natural Product
Formula: C15H10O5
Exact mass: 270.05282
SMILES: Oc(c3)ccc(c3)C(=C1)C(=O)c(c(O)2)c(cc(O)c2)O1
InChI: InChI=1S/C15H10O5/c16-9-3-1-8(2-4-9)11-7-20-13-6-10(17)5-12(18)14(13)15(11)19/h1-7,16-18H
Instrument: UPLC Q-Tof Premier, Waters
Instrument type: LC-ESI-QTOF
Ms type: MS2
Ion mode: POSITIVE
Collision energy: 30 eV
Fragmentation mode: LOW-ENERGY CID
Ionization: ESI
Full scan fragment ion peak: 271.1
Ion type: [M+H]+
m/z	relative intensity
65.0278	57
67.0076	53
68.9874	109
69.0253	32
89.0325	35
91.0485	807
91.0977	94
103.0506	37
107.0454	95
109.0250	35
111.0044	34
115.0515	144
117.0674	41
119.0468	201
121.0262	139
127.0526	51
128.0607	39
129.0684	44
131.0479	120
131.0836	44
135.0430	60
137.0226	44
141.0692	386
141.1295	37
144.0570	51
145.0276	115
145.0644	72
147.0438	60
147.0796	30
149.0231	221
150.0302	40
151.0545	32
152.0613	38
153.0181	999
153.0804	114
155.0486	68
159.0440	108
159.0803	47
165.0182	81
168.0576	39
169.0652	335
173.0596	50
175.0758	36
183.0444	54
187.0407	32
187.0759	62
197.0607	362
200.0485	75
201.0545	50
213.0557	58
215.0711	334
225.0553	46
242.0580	33
243.0659	165
253.0503	141
271.0606	167
