Mass spectrum: 1,3-Dihydroxyacetone dimer; GC-EI-TOF; MS; 2 TMS; BP:73
Name: 1,3-Dihydroxyacetone dimer
Class: Natural Product
Formula: C6H12O6
Exact mass: 180.06339
SMILES: OCC(O)(C1)OCC(O)(CO)O1
InChI: InChI=1S/C6H12O6/c7-1-5(9)3-12-6(10,2-8)4-11-5/h7-10H,1-4H2
Instrument: Pegasus III TOF-MS system, Leco; GC 6890, Agilent Technologies
Instrument type: GC-EI-TOF
Ms type: MS
Ion mode: POSITIVE
Retention time: 297.3 sec
Base peak: 73
Derivative form: C12H28O6Si2
Derivative mass: 324.14244
Derivative type: 2 TMS
m/z	relative intensity
60	15
61	15
62	1
66	7
67	1
68	1
69	1
70	222
71	15
72	26
73	999
74	90
75	58
76	4
77	6
83	3
84	137
85	15
86	12
87	9
88	21
89	182
90	15
91	7
98	6
99	4
100	66
101	14
102	29
103	254
104	25
105	31
106	2
107	1
113	2
114	61
115	11
116	9
117	19
118	2
119	13
120	1
127	1
128	10
129	5
130	4
131	14
132	2
133	93
134	13
135	6
142	47
143	6
144	4
145	1
146	1
147	270
148	41
149	22
150	2
157	1
158	6
159	1
160	44
161	5
162	3
163	115
164	18
165	9
166	1
172	10
173	93
174	16
175	5
177	6
178	1
186	2
188	4
189	8
190	1
191	9
192	1
200	1
201	3
202	7
203	2
204	3
216	3
217	4
218	2
232	9
233	3
234	1
248	32
249	6
250	2
263	9
264	1
