Mass spectrum: Luteolin-4'-O-glucoside; LC-ESI-QTOF; MS2; CE:Ramp 5-60 V; [M+H]+
Name: Luteolin-4'-O-glucoside
Name: Lutl-4p-Glc
Name: 3',4',5,7-Tetrahydroxyflavone-4'-glucoside
Class: Flavonoid
Formula: C21H20O11
Exact mass: 448.10056
SMILES: C1=CC(=C(C=C1C2=CC(=O)C3=C(C=C(C=C3O2)O)O)O)O[C@H]4[C@@H]([C@H]([C@@H]([C@H](O4)CO)O)O)O
InChI: InChI=1S/C21H20O11/c22-7-16-18(27)19(28)20(29)21(32-16)31-13-2-1-8(3-10(13)24)14-6-12(26)17-11(25)4-9(23)5-15(17)30-14/h1-6,16,18-25,27-29H,7H2/t16-,18-,19+,20-,21-/m1/s1
Instrument: UPLC Q-Tof Premier, Waters
Instrument type: LC-ESI-QTOF
Ms type: MS2
Ion mode: POSITIVE
Collision energy: Ramp 5-60 V
Fragmentation mode: LOW-ENERGY CID
Ionization: ESI
Precursor m/z: 449.10836
Precursor type: [M+H]+
m/z	relative intensity
135.0460	32
153.0203	100
287.0563	999
449.1084	144
