Mass spectrum: Melibiose; GC-EI-TOF; MS; 8 TMS; 1 MEOX; BP:73
Name: Melibiose
Name: D-Gal-alpha1->6D-Glucose
Name: 6-O-(alpha-D-Galactopyranosyl)-D-glucopyranose
Class: Natural Product
Formula: C12H22O11
Exact mass: 342.11621
SMILES: OC[C@@H](O1)[C@H](O)[C@H](O)[C@@H](O)[C@@H](OC[C@@H](O2)[C@@H](O)[C@H](O)[C@@H](O)C(O)2)1
InChI: InChI=1S/C12H22O11/c13-1-3-5(14)8(17)10(19)12(23-3)21-2-4-6(15)7(16)9(18)11(20)22-4/h3-20H,1-2H2/t3-,4-,5+,6-,7+,8+,9-,10-,11?,12+/m1/s1
Instrument: Pegasus III TOF-MS system, Leco; GC 6890, Agilent Technologies
Instrument type: GC-EI-TOF
Ms type: MS
Ion mode: POSITIVE
Retention time: 622.582 sec
Base peak: 73
Derivative form: C37H89NO11Si8
Derivative mass: 947.45897
Derivative type: 8 TMS; 1 MEOX
m/z	relative intensity
60	4
61	5
65	1
66	5
67	4
69	9
70	4
71	3
72	12
73	999
74	83
75	71
76	5
77	7
79	1
80	1
81	12
82	4
83	3
84	2
85	5
86	2
87	4
88	1
89	40
90	3
91	2
95	1
97	3
98	1
99	4
100	13
101	28
102	10
103	121
104	12
105	22
106	2
107	1
109	5
111	3
112	1
113	6
114	5
115	7
116	15
117	52
118	5
119	5
125	1
126	1
127	4
128	3
129	119
130	19
131	25
132	4
133	39
134	5
135	3
139	2
140	1
141	3
142	5
143	18
144	3
145	6
146	1
147	169
148	28
149	21
150	2
151	1
153	2
154	1
155	17
156	3
157	16
158	4
159	3
160	73
161	33
162	6
163	7
164	1
167	1
168	1
169	71
170	11
171	7
172	2
173	4
174	2
175	3
177	3
181	1
183	2
185	1
186	1
187	2
188	1
189	21
190	6
191	42
192	7
193	3
199	2
200	1
201	2
202	1
203	9
204	253
205	62
206	25
207	7
208	1
210	1
215	3
216	5
217	112
218	29
219	12
220	2
221	6
222	1
223	1
227	2
228	4
229	7
230	4
231	9
232	3
233	6
234	2
235	1
241	2
242	1
243	24
244	7
245	6
246	4
247	4
248	1
256	1
257	1
259	5
260	1
262	2
263	1
265	1
269	1
270	1
271	22
272	5
273	3
274	2
275	2
276	1
277	1
291	5
292	1
293	1
300	3
304	1
305	7
306	3
307	5
308	1
317	2
318	2
319	18
320	5
321	3
331	5
332	3
333	2
345	1
360	4
361	97
362	32
363	16
364	6
365	1
390	3
391	1
451	4
452	1
480	4
481	2
482	1
