Mass spectrum: CDP; LC-ESI-QTOF; MS2; CE:30 V; [M+H]+
Name: Cytidine-5'-diphosphate
Name: CDP
Name: Cytidine 5'-Diphosphoric Acid
Class: Natural Product; Nucleoside; Phosphates
Formula: C9H15N3O11P2
Exact mass: 403.01818
SMILES: NC(C=2)=NC(=O)N(C2)[C@H](O1)[C@H](O)[C@H](O)[C@@H](COP(O)(=O)OP(O)(O)=O)1
InChI: InChI=1S/C9H15N3O11P2/c10-5-1-2-12(9(15)11-5)8-7(14)6(13)4(22-8)3-21-25(19,20)23-24(16,17)18/h1-2,4,6-8,13-14H,3H2,(H,19,20)(H2,10,11,15)(H2,16,17,18)/t4-,6-,7-,8-/m1/s1
Instrument: UPLC Q-Tof Premier, Waters
Instrument type: LC-ESI-QTOF
Ms type: MS2
Ion mode: POSITIVE
Collision energy: 30 V
Fragmentation mode: LOW-ENERGY CID
Ionization: ESI
Precursor m/z: 404.02598
Precursor type: [M+H]+
m/z	relative intensity
105.0758	709
121.0703	332
129.0576	114
147.0723	128
267.1382	410
387.1947	999
404.0260	92
404.2043	688
404.2288	682
