Mass spectrum: Cyanidin-3-O-(2''-O-beta-glucopyranosyl-beta-glucopyranoside); LC-ESI-QTOF; MS2; CE:Ramp 5-60 V; [M-2H]-
Name: Cyanidin-3-O-(2''-O-beta-glucopyranosyl-beta-glucopyranoside)
Name: Cy 3-Soph
Name: cyanidin-3-sophoroside
Class: Anthocyanidin
Formula: [C27H31O16]+
Exact mass: 611.16121
SMILES: c(c(c([o+1]4)c(cc(c(O)5)c(cc(O)c5)4)OC(O2)C(OC(O3)C(C(C(C3CO)O)O)O)C(C(C2CO)O)O)1)c(O)c(O)cc1
InChI: InChI=1S/C27H30O16/c28-7-17-19(34)21(36)23(38)26(41-17)43-25-22(37)20(35)18(8-29)42-27(25)40-16-6-11-13(32)4-10(30)5-15(11)39-24(16)9-1-2-12(31)14(33)3-9/h1-6,17-23,25-29,34-38H,7-8H2,(H3-,30,31,32,33)/p+1/t17-,18-,19-,20-,21+,22+,23-,25-,26+,27-/m1/s1
Instrument: UPLC Q-Tof Premier, Waters
Instrument type: LC-ESI-QTOF
Ms type: MS2
Ion mode: NEGATIVE
Collision energy: Ramp 5-60 V
Fragmentation mode: LOW-ENERGY CID
Ionization: ESI
Derivative form: C27H31O16.Cl
Derivative mass: 646.98
Precursor m/z: 609.14558
Precursor type: [M-2H]-
m/z	relative intensity
147.0093	52
255.0323	106
256.0392	62
283.0255	118
284.0338	999
285.0416	76
339.0533	130
609.1456	797
