Mass spectrum: Procyanidin C1; LC-ESI-QTOF; MS2; CE:Ramp 5-60 V; [M-H]-
Name: Procyanidin C1
Name: Procyanidol C1
Name: Proanthocyanidin C1
Name: Epicatechin-(4.beta.--8)epicatechin-(4.beta.--8)epicatechin
Class: Flavonoid
Formula: C45H38O18
Exact mass: 866.20581
SMILES: c(c1)(C(O2)C(O)Cc(c(O)3)c2c(C(c54)C(C(c(c9)cc(O)c(c9)O)Oc4c(C(c76)C(C(c(c8)cc(O)c(c8)O)Oc6cc(O)cc7O)O)c(cc(O)5)O)O)c(O)c3)ccc(c(O)1)O
InChI: InChI=1S/C45H38O18/c46-18-10-27(54)33-32(11-18)61-42(16-2-5-21(48)25(52)8-16)39(59)37(33)35-29(56)14-30(57)36-38(40(60)43(63-45(35)36)17-3-6-22(49)26(53)9-17)34-28(55)13-23(50)19-12-31(58)41(62-44(19)34)15-1-4-20(47)24(51)7-15/h1-11,13-14,31,37-43,46-60H,12H2/t31-,37-,38+,39-,40-,41-,42-,43-/m1/s1
Instrument: UPLC Q-Tof Premier, Waters
Instrument type: LC-ESI-QTOF
Ms type: MS2
Ion mode: NEGATIVE
Collision energy: Ramp 5-60 V
Fragmentation mode: LOW-ENERGY CID
Ionization: ESI
Precursor m/z: 865.23
Precursor type: [M-H]-
m/z	relative intensity
125.0295	507
161.0307	145
243.0406	144
287.0688	261
289.0844	277
407.0960	285
425.1075	108
575.1474	117
577.1609	162
695.1710	103
713.1839	94
865.2354	999
866.2419	508
