Mass spectrum: 2'-Deoxyinosine 5'-monophosphate; LC-ESI-QTOF; MS2; CE:Ramp 5-60 V; [M-H]-
Name: 2'-Deoxyinosine-5'-monophosphate
Name: dIMP
Name: 2'-Deoxy-IMP
Name: 2'-Deoxyinosine 5'-monophosphate
Class: Natural Product; Nucleoside; Phosphates
Formula: C10H13N4O7P
Exact mass: 332.05219
SMILES: OC(C1)C(COP(O)(O)=O)OC1n(c3)c(N2)c(n3)C(=O)N=C2
InChI: InChI=1S/C10H13N4O7P/c15-5-1-7(21-6(5)2-20-22(17,18)19)14-4-13-8-9(14)11-3-12-10(8)16/h3-7,15H,1-2H2,(H,11,12,16)(H2,17,18,19)/t5-,6+,7+/m0/s1
Instrument: UPLC Q-Tof Premier, Waters
Instrument type: LC-ESI-QTOF
Ms type: MS2
Ion mode: NEGATIVE
Collision energy: Ramp 5-60 V
Fragmentation mode: LOW-ENERGY CID
Ionization: ESI
Precursor m/z: 331.04438
Precursor type: [M-H]-
m/z	relative intensity
78.9597	999
92.0257	295
96.9697	321
135.0308	949
176.9956	164
195.0058	477
331.0444	674
