Mass spectrum: Isorhamnetin; LC-ESI-QTOF; MS2; CE:30 eV; [M+H]+
Name: 3,4',5,7-tetrahydroxy-3'-methoxyflavone
Name: Isorhamnetin
Name: Isor
Name: 3,5,7-trihydroxy-2-(4-hydroxy-3-methoxy-phenyl)chromen-4-one
Class: Natural Product
Formula: C16H12O7
Exact mass: 316.05830
SMILES: COc(c(O)3)cc(cc3)C(O1)=C(O)C(=O)c(c(O)2)c(cc(O)c2)1
InChI: InChI=1S/C16H12O7/c1-22-11-4-7(2-3-9(11)18)16-15(21)14(20)13-10(19)5-8(17)6-12(13)23-16/h2-6,17-19,21H,1H3
Instrument: UPLC Q-Tof Premier, Waters
Instrument type: LC-ESI-QTOF
Ms type: MS2
Ion mode: POSITIVE
Collision energy: 30 eV
Fragmentation mode: LOW-ENERGY CID
Ionization: ESI
Full scan fragment ion peak: 317.1
Ion type: [M+H]+
m/z	relative intensity
92.0202	135
93.0279	126
121.0261	106
126.0296	58
137.0221	31
139.0381	30
151.0385	32
153.0180	999
153.0807	95
165.0187	31
173.0601	33
183.0445	37
200.0471	61
201.0553	117
203.0347	146
217.0505	289
218.0584	89
219.0292	63
228.0425	295
229.0501	487
229.1265	34
231.0305	97
245.0459	334
246.0529	209
256.0381	42
257.0455	182
260.0323	45
273.0407	225
274.0480	262
284.0334	53
285.0401	221
301.0372	37
302.0433	319
317.0661	65
