Mass spectrum: D-(+)-Fucose; LC-ESI-QTOF; MS2; CE:Ramp 5-60 V; [M+H]+
Name: D-(+)-Fucose
Name: Fuc
Name: D-Fucopyranose
Name: 6-Deoxygalactose
Name: Rhodeose
Name: D-Galactomethylose
Name: 6-Deoxy-D-galactopyranose
Class: Monosaccharide
Formula: C6H12O5
Exact mass: 164.06847
SMILES: C[C@@H](O1)[C@H](O)[C@H](O)[C@@H](O)C(O)1
InChI: InChI=1S/C6H12O5/c1-2-3(7)4(8)5(9)6(10)11-2/h2-10H,1H3/t2-,3+,4+,5-,6?/m1/s1
Instrument: UPLC Q-Tof Premier, Waters
Instrument type: LC-ESI-QTOF
Ms type: MS2
Ion mode: POSITIVE
Collision energy: Ramp 5-60 V
Fragmentation mode: LOW-ENERGY CID
Ionization: ESI
Precursor m/z: 165.07627
Precursor type: [M+H]+
m/z	relative intensity
75.0483	779
133.0549	520
134.0584	999
164.0685	881
