Mass spectrum: Cytidine 5'-diphosphocholine; LC-ESI-QTOF; MS2; CE:Ramp 5-60 V; [M-H]-
Name: Cytidine 5'-diphosphocholine
Name: CDPC
Name: CDP-choline
Name: Citicoline
Name: Citicholine
Name: Citidoline
Name: Colite
Name: Cytidindiphosphocholin
Name: Choline cytidine diphosphate
Name: Audes
Name: Citifar
Name: Cyscholin
Name: Haocolin
Name: Hornbest
Name: Neucolis
Name: Reagin
Name: Rexort
Name: Sintoclar
Name: Somazine
Name: Cereb
Name: Cytidoline
Name: Ensign
Name: Nicholin
Name: Nicolin
Name: Niticolin
Name: Recofnan
Name: Recognan
Name: Suncholin
Class: Nucleotide-(amino alcohol)
Formula: C14H26N4O11P2
Exact mass: 488.10733
SMILES: NC(C=2)=NC(=O)N(C2)C(O1)C(O)C(O)C(COP(O)(=O)OP([O-1])(=O)OCC[N+1](C)(C)C)1
InChI: InChI=1S/C14H26N4O11P2/c1-18(2,3)6-7-26-30(22,23)29-31(24,25)27-8-9-11(19)12(20)13(28-9)17-5-4-10(15)16-14(17)21/h4-5,9,11-13,19-20H,6-8H2,1-3H3,(H3-,15,16,21,22,23,24,25)/t9-,11-,12-,13-/m1/s1
Instrument: UPLC Q-Tof Premier, Waters
Instrument type: LC-ESI-QTOF
Ms type: MS2
Ion mode: NEGATIVE
Collision energy: Ramp 5-60 V
Fragmentation mode: LOW-ENERGY CID
Ionization: ESI
Derivative form: C14H27N4O11P2
Derivative mass: 488.32
Precursor m/z: 487.09953
Precursor type: [M-H]-
m/z	relative intensity
78.9601	654
96.9694	221
110.0364	319
110.9858	118
122.9852	254
304.0353	563
336.0631	184
428.0274	999
487.0995	199
