Mass spectrum: Farnesol; LC-ESI-QTOF; MS2; CE:Ramp 5-60 V; [M+H]+
Name: Farnesol (mixture of isomers)
Name: Farnesyl alcohol
Name: 3,7,11-Trimethyl-2,6,10-dodecatrien-1-ol
Name: 3,7,11-Trimethyldodeca-2,6,10-trien-1-ol
Name: Dihydrofarnesol
Name: Stirrup
Name: Polyprenol
Name: Farnesol
Class: Prenol Lipids; Isoprenoids
Formula: C15H26O
Exact mass: 222.19837
SMILES: OCC=C(C)CCC=C(C)CCC=C(C)C
InChI: InChI=1S/C15H26O/c1-13(2)7-5-8-14(3)9-6-10-15(4)11-12-16/h7,9,11,16H,5-6,8,10,12H2,1-4H3
Instrument: UPLC Q-Tof Premier, Waters
Instrument type: LC-ESI-QTOF
Ms type: MS2
Ion mode: POSITIVE
Collision energy: Ramp 5-60 V
Fragmentation mode: LOW-ENERGY CID
Ionization: ESI
Precursor m/z: 223.20615
Precursor type: [M+H]+
m/z	relative intensity
73.0697	104
191.0585	519
207.0933	999
209.0748	110
223.1300	187
225.1103	124
