Mass spectrum: Nicotinic acid; LC-ESI-QTOF; MS2; CE:30 V; [M+H]+
Name: Nicotinic acid
Name: Vitamin B3
Name: Niacin
Name: Nicotinate
Name: 3-Picolinic acid
Name: Pyridine-3-carbonic acid
Name: Pellagra preventive factor
Class: Carboxylic acids
Formula: C6H5NO2
Exact mass: 123.03203
SMILES: OC(=O)c(c1)cncc1
InChI: InChI=1S/C6H5NO2/c8-6(9)5-2-1-3-7-4-5/h1-4H,(H,8,9)
Instrument: UPLC Q-Tof Premier, Waters
Instrument type: LC-ESI-QTOF
Ms type: MS2
Ion mode: POSITIVE
Collision energy: 30 V
Fragmentation mode: LOW-ENERGY CID
Ionization: ESI
Precursor m/z: 124.03983
Precursor type: [M+H]+
m/z	relative intensity
123.9752	15
124.0398	999
