Mass spectrum: Rhamnetin; LC-ESI-QTOF; MS2; CE:30 eV; [M-H]-
Name: 3,3',4',5-tetrahydroxy-7-methoxyflavone
Name: Rhamnetin
Name: Ramn
Name: 2-(3,4-dihydroxyphenyl)-3,5-dihydroxy-7-methoxy-chromen-4-one
Class: Natural Product
Formula: C16H12O7
Exact mass: 316.05830
SMILES: COc(c3)cc(O1)c(c(O)3)C(=O)C(O)=C1c(c2)cc(O)c(O)c2
InChI: InChI=1S/C16H12O7/c1-22-8-5-11(19)13-12(6-8)23-16(15(21)14(13)20)7-2-3-9(17)10(18)4-7/h2-6,17-19,21H,1H3
Instrument: UPLC Q-Tof Premier, Waters
Instrument type: LC-ESI-QTOF
Ms type: MS2
Ion mode: NEGATIVE
Collision energy: 30 eV
Fragmentation mode: LOW-ENERGY CID
Ionization: ESI
Full scan fragment ion peak: 315.1
Ion type: [M-H]-
m/z	relative intensity
63.0080	29
65.0525	188
65.9114	22
83.0794	55
89.0374	153
89.8712	20
91.0408	87
91.9987	20
93.0664	220
93.9713	58
94.9987	30
96.1479	22
97.0765	427
97.8732	32
107.0552	107
108.0179	64
109.0633	93
120.2319	42
121.0687	986
121.9558	183
122.8390	77
123.9694	51
124.9605	21
133.0544	22
134.9436	25
136.0885	48
136.9729	32
137.9267	20
139.0793	62
140.0579	22
146.9823	35
148.0284	73
149.0130	108
150.0355	282
151.0007	227
151.9293	69
159.1022	21
161.0140	39
163.0459	157
164.0168	117
165.0441	999
165.9108	143
166.7597	40
167.7895	22
172.0599	32
173.9722	35
183.1020	42
192.0386	57
198.0274	23
199.0224	37
200.0252	43
201.0277	22
202.0146	25
211.0526	40
215.0205	35
216.0411	59
226.0647	36
227.0365	90
228.0059	50
228.9698	31
242.0613	32
243.0786	110
244.0586	84
244.8912	22
253.9672	22
255.0499	105
256.0590	27
259.0492	31
271.0444	137
272.0241	59
283.0190	51
299.0321	35
300.0381	98
300.9364	20
