Mass spectrum: Indole-3-carboxyaldehyde; LC-ESI-QTOF; MS2; CE:30 V; [M-H]-
Name: Indole-3-carboxyaldehyde
Name: Indole-3-aldehyde
Name: 3-Formylindole
Name: 1H-indole-3-carbaldehyde
Name: beta-Indolylaldehyde
Class: Indole
Formula: C9H7NO
Exact mass: 145.05276
SMILES: C1=CC=C2C(=C1)C(=CN2)C=O
InChI: InChI=1S/C9H7NO/c11-6-7-5-10-9-4-2-1-3-8(7)9/h1-6,10H
Instrument: UPLC Q-Tof Premier, Waters
Instrument type: LC-ESI-QTOF
Ms type: MS2
Ion mode: NEGATIVE
Collision energy: 30 V
Fragmentation mode: LOW-ENERGY CID
Ionization: ESI
Precursor m/z: 144.04496
Precursor type: [M-H]-
m/z	relative intensity
65.9998	75
114.0349	151
115.0420	935
116.0507	218
117.0346	53
126.0354	293
142.0314	93
144.0450	999
