Mass spectrum: UDP-beta-L-rhamnose; LC-ESI-QTOF; MS2; CE:Ramp 5-60 V; [M-H]-
Name: UDP-beta-L-rhamnose
Name: UDP-Rha
Class: Natural Product; Nucleoside; Phosphates
Formula: C15H24N2O16P2
Exact mass: 550.06011
SMILES: O=C(C=3)NC(=O)N(C3)C(O1)C(O)C(O)C(COP(O)(=O)OP(O)(=O)OC(O2)C(O)C(O)C(O)C(C)2)1
InChI: InChI=1S/C15H24N2O16P2/c1-5-8(19)10(21)12(23)14(30-5)32-35(27,28)33-34(25,26)29-4-6-9(20)11(22)13(31-6)17-3-2-7(18)16-15(17)24/h2-3,5-6,8-14,19-23H,4H2,1H3,(H,25,26)(H,27,28)(H,16,18,24)/t5-,6+,8-,9+,10+,11+,12+,13+,14+/m0/s1
Instrument: UPLC Q-Tof Premier, Waters
Instrument type: LC-ESI-QTOF
Ms type: MS2
Ion mode: NEGATIVE
Collision energy: Ramp 5-60 V
Fragmentation mode: LOW-ENERGY CID
Ionization: ESI
Precursor m/z: 549.0523
Precursor type: [M-H]-
m/z	relative intensity
78.9601	504
96.9700	143
111.0200	200
158.9256	499
174.9791	31
176.9365	35
211.0000	29
225.0176	25
272.9575	166
305.0035	104
323.0289	204
384.9846	185
402.9948	335
549.0523	999
