Mass spectrum: D-(-)-Erythrose; LC-ESI-QTOF; MS2; CE:Ramp 5-60 V; [M+H]+
Name: D-(-)-Erythrose
Name: (2R,3R)-(-)-Erythrose
Name: 2,3,4-Trihydroxybutanal
Class: Monosaccharide
Formula: C4H8O4
Exact mass: 120.04226
SMILES: O[C@H](C1)[C@@H](O)C(O)O1
InChI: InChI=1S/C4H8O4/c5-2-1-8-4(7)3(2)6/h2-7H,1H2/t2-,3-,4?/m1/s1
Instrument: UPLC Q-Tof Premier, Waters
Instrument type: LC-ESI-QTOF
Ms type: MS2
Ion mode: POSITIVE
Collision energy: Ramp 5-60 V
Fragmentation mode: LOW-ENERGY CID
Ionization: ESI
Precursor m/z: 121.05006
Precursor type: [M+H]+
m/z	relative intensity
77.0291	545
91.0425	494
93.0578	999
121.0501	314
