Mass spectrum: Myricetin-3-Xyloside; LC-ESI-QTOF; MS2; CE:Ramp 5-60 V; [M+H]+
Name: Myricetin-3-Xyloside
Name: Myrc-3-Xyl
Class: Flavonoid
Formula: C20H18O12
Exact mass: 450.07983
SMILES: OC(C4)C(O)C(O)C(O4)OC(C(=O)2)=C(Oc(c3)c(c(O)cc(O)3)2)c(c1)cc(O)c(O)c(O)1
InChI: InChI=1S/C20H18O12/c21-7-3-8(22)13-12(4-7)31-18(6-1-9(23)14(26)10(24)2-6)19(16(13)28)32-20-17(29)15(27)11(25)5-30-20/h1-4,11,15,17,20-27,29H,5H2/t11-,15+,17-,20+/m1/s1
Instrument: UPLC Q-Tof Premier, Waters
Instrument type: LC-ESI-QTOF
Ms type: MS2
Ion mode: POSITIVE
Collision energy: Ramp 5-60 V
Fragmentation mode: LOW-ENERGY CID
Ionization: ESI
Precursor m/z: 451.08764
Precursor type: [M+H]+
m/z	relative intensity
73.0299	105
111.0078	19
137.0232	18
153.0175	102
165.0181	45
179.0328	16
217.0487	38
245.0444	52
273.0396	45
319.0434	999
320.0488	31
451.0876	27
