Mass spectrum: N-Acetyl-D-glucosamine; GC-EI-TOF; MS; 4 TMS; BP:73
Name: N-Acetyl-D-glucosamine
Name: GlcNAc
Name: N-Acetylchitosamine
Name: 2-Acetamido-2-deoxy-D-glucose
Class: Natural Product
Formula: C8H15NO6
Exact mass: 221.08994
SMILES: OC[C@@H](O1)[C@@H](O)[C@H](O)[C@@H](NC(C)=O)C(O)1
InChI: InChI=1S/C8H15NO6/c1-3(11)9-5-7(13)6(12)4(2-10)15-8(5)14/h4-8,10,12-14H,2H2,1H3,(H,9,11)/t4-,5-,6-,7-,8?/m1/s1
Instrument: Pegasus III TOF-MS system, Leco; GC 6890, Agilent Technologies
Instrument type: GC-EI-TOF
Ms type: MS
Ion mode: POSITIVE
Retention time: 530.434 sec
Base peak: 73
Derivative form: C20H47NO6Si4
Derivative mass: 509.24804
Derivative type: 4 TMS
m/z	relative intensity
60	6
61	8
62	1
63	1
66	6
67	3
68	1
69	1
70	6
71	5
72	16
73	999
74	92
75	77
76	6
77	14
79	3
80	2
81	3
82	5
83	11
84	5
85	4
86	17
87	9
88	3
89	49
90	5
91	3
92	1
95	2
96	3
97	1
98	2
99	4
100	17
101	19
102	15
103	83
104	8
105	13
106	1
107	1
108	1
109	1
110	1
111	2
112	3
113	8
114	20
115	8
116	20
117	66
118	9
119	6
120	1
121	1
124	1
125	1
126	2
127	5
128	5
129	75
130	12
131	19
132	5
133	35
134	5
135	3
138	1
139	1
140	2
141	3
142	4
143	10
144	10
145	3
146	1
147	181
148	29
149	18
150	2
151	1
152	1
153	2
154	2
155	3
156	6
157	46
158	9
159	36
160	6
161	3
162	2
163	5
164	1
165	1
167	1
168	2
169	3
170	3
171	12
172	4
173	10
174	2
175	2
176	1
177	1
179	1
180	1
181	1
182	1
183	2
184	1
185	1
186	3
187	1
188	1
189	11
190	4
191	6
192	1
193	1
194	1
195	2
198	1
199	1
200	1
201	53
202	36
203	9
204	17
205	103
206	21
207	9
208	1
210	1
213	3
214	2
215	1
216	2
217	27
218	6
219	2
220	1
221	3
222	1
227	1
228	1
229	14
230	7
231	4
232	2
233	1
235	1
241	1
242	1
243	7
244	3
245	3
246	4
247	1
256	1
257	1
258	2
259	1
260	1
270	1
271	1
274	5
275	2
276	1
277	2
278	1
285	1
286	1
291	3
292	1
293	1
300	1
303	3
304	1
305	2
306	1
307	1
315	6
316	1
317	1
318	4
319	69
320	21
321	10
322	2
333	1
399	1
489	1
594	1
595	3
596	2
597	1
