Mass spectrum: L-(-)-Proline; LC-ESI-QTOF; MS2; CE:30 V; [M+H]+
Name: L-Proline
Name: Pro
Name: 2-Pyrrolidinecarboxylic acid
Name: L-alpha-Pyrrolidinecarboxylic acid
Name: Pyrrolidine-2-carboxylic acid
Name: (S)-Pyrrolidine-2-carboxylic acid
Name: L-(-)-Proline
Class: Amino acids
Formula: C5H9NO2
Exact mass: 115.06333
SMILES: OC(=O)C([H])(C1)NCC1
InChI: InChI=1S/C5H9NO2/c7-5(8)4-2-1-3-6-4/h4,6H,1-3H2,(H,7,8)/t4-/m0/s1
Instrument: UPLC Q-Tof Premier, Waters
Instrument type: LC-ESI-QTOF
Ms type: MS2
Ion mode: POSITIVE
Collision energy: 30 V
Fragmentation mode: LOW-ENERGY CID
Ionization: ESI
Precursor m/z: 116.07113
Precursor type: [M+H]+
m/z	relative intensity
68.0523	13
70.0686	999
116.0711	14
