Mass spectrum: 5-Methylcytosine; LC-ESI-QTOF; MS2; CE:Ramp 5-60 V; [M+H]+
Name: 5-Methylcytosine
Name: 4-Amino-2-hydroxy-5-methylpyrimidine
Class: Cytosine
Formula: C5H7N3O
Exact mass: 125.05891
SMILES: CC(=C1)C(N)=NC(=O)N1
InChI: InChI=1S/C5H7N3O/c1-3-2-7-5(9)8-4(3)6/h2H,1H3,(H3,6,7,8,9)
Instrument: UPLC Q-Tof Premier, Waters
Instrument type: LC-ESI-QTOF
Ms type: MS2
Ion mode: POSITIVE
Collision energy: Ramp 5-60 V
Fragmentation mode: LOW-ENERGY CID
Ionization: ESI
Precursor m/z: 126.06671
Precursor type: [M+H]+
m/z	relative intensity
125.9861	17
126.0643	999
