Mass spectrum: L-Methionine sulfone; LC-ESI-QTOF; MS2; CE:Ramp 5-60 V; [M-H]-
Name: L-Methionine sulfone
Name: OMT
Name: Met(O2)
Name: L-2-Amino-4-(methylsulfonyl)butanoic acid
Name: L-Methionine S-dioxide
Name: L-Lobamine Sulfone
Name: L-Banthionine Sulfone
Class: Amino acids
Formula: C5H11NO4S
Exact mass: 181.04088
SMILES: NC(CCS(C)(=O)=O)C(O)=O
InChI: InChI=1S/C5H11NO4S/c1-11(9,10)3-2-4(6)5(7)8/h4H,2-3,6H2,1H3,(H,7,8)/t4-/m0/s1
Instrument: UPLC Q-Tof Premier, Waters
Instrument type: LC-ESI-QTOF
Ms type: MS2
Ion mode: NEGATIVE
Collision energy: Ramp 5-60 V
Fragmentation mode: LOW-ENERGY CID
Ionization: ESI
Precursor m/z: 180.03308
Precursor type: [M-H]-
m/z	relative intensity
63.9640	121
78.9865	999
180.0331	185
