Mass spectrum: L-3-Methylhistidine; LC-ESI-QTOF; MS2; CE:Ramp 5-60 V; [M+H]+
Name: 3-Methyl-L-histidine
Name: 3-Me-His
Name: 3-(1-Methylimidazol-5-yl)-L-alanine
Name: N-pros-Methyl-L-histidine
Name: L-3-Methylhistidine
Class: Amino acids
Formula: C7H11N3O2
Exact mass: 169.08513
SMILES: OC(=O)[C@@H](N)Cc(c1)n(C)cn1
InChI: InChI=1S/C7H11N3O2/c1-10-4-9-3-5(10)2-6(8)7(11)12/h3-4,6H,2,8H2,1H3,(H,11,12)/t6-/m0/s1
Instrument: UPLC Q-Tof Premier, Waters
Instrument type: LC-ESI-QTOF
Ms type: MS2
Ion mode: POSITIVE
Collision energy: Ramp 5-60 V
Fragmentation mode: LOW-ENERGY CID
Ionization: ESI
Precursor m/z: 170.09292
Precursor type: [M+H]+
m/z	relative intensity
95.0625	337
96.0697	999
97.0779	205
109.0779	568
126.1051	213
170.0929	740
