Mass spectrum: cis-Aconitic acid; LC-ESI-QTOF; MS2; CE:Ramp 5-60 V; [M-H]-
Name: cis-Aconitic acid
Name: Achilleaic acid
Name: cis-aconitate
Name: cis-Oxaloacetic acid
Name: cis-1,2,3-Propenetricarboxylic Acid
Name: cis-Propene-1,2,3-tricarboxylic acid
Class: Carboxylic acids
Formula: C6H6O6
Exact mass: 174.01644
SMILES: OC(=O)CC(C(O)=O)=C([H])C(O)=O
InChI: InChI=1S/C6H6O6/c7-4(8)1-3(6(11)12)2-5(9)10/h1H,2H2,(H,7,8)(H,9,10)(H,11,12)/b3-1-
Instrument: UPLC Q-Tof Premier, Waters
Instrument type: LC-ESI-QTOF
Ms type: MS2
Ion mode: NEGATIVE
Collision energy: Ramp 5-60 V
Fragmentation mode: LOW-ENERGY CID
Ionization: ESI
Precursor m/z: 173.00864
Precursor type: [M-H]-
m/z	relative intensity
85.0295	999
111.0084	107
129.0178	268
173.0086	87
