Mass spectrum: Allantoin; LC-ESI-QTOF; MS2; CE:30 V; [M+H]+
Name: Allantoin
Name: Glyoxylic Acid Diureide
Name: 5-Ureidohydantoin
Name: Glyoxylidiureide
Name: Alantan
Name: Allantol
Name: Cordianine
Name: (2,5-Dioxo-4-imidazolidinyl)urea
Name: Sebical
Name: Hemocane
Name: cordanine
Class: Imidazolidine
Formula: C4H6N4O3
Exact mass: 158.04399
SMILES: NC(=O)N[C@H](N1)C(=O)NC(=O)1
InChI: InChI=1S/C4H6N4O3/c5-3(10)6-1-2(9)8-4(11)7-1/h1H,(H3,5,6,10)(H2,7,8,9,11)/t1-/m1/s1
Instrument: UPLC Q-Tof Premier, Waters
Instrument type: LC-ESI-QTOF
Ms type: MS2
Ion mode: POSITIVE
Collision energy: 30 V
Fragmentation mode: LOW-ENERGY CID
Ionization: ESI
Precursor m/z: 159.05179
Precursor type: [M+H]+
m/z	relative intensity
116.0457	103
158.9885	113
159.0518	999
