Mass spectrum: Cadaverine; LC-ESI-QTOF; MS2; CE:Ramp 5-60 V; [M+H]+
Name: Cadaverine
Name: 1,5-Pentanediamine
Name: 1,5-Diaminopentane
Name: Pentamethylenediamine
Class: Diamine
Formula: C5H14N2
Exact mass: 102.11570
SMILES: NCCCCCN
InChI: InChI=1S/C5H14N2/c6-4-2-1-3-5-7/h1-7H2
Instrument: UPLC Q-Tof Premier, Waters
Instrument type: LC-ESI-QTOF
Ms type: MS2
Ion mode: POSITIVE
Collision energy: Ramp 5-60 V
Fragmentation mode: LOW-ENERGY CID
Ionization: ESI
Precursor m/z: 103.12349
Precursor type: [M+H]+
m/z	relative intensity
86.0955	114
103.0911	57
103.1212	999
