Mass spectrum: Apigenin; LC-ESI-QTOF; MS2; CE:Ramp 5-60 eV; [M+H]+
Name: 4',5,7-trihydroxyflavone
Name: Apigenin
Name: Apig
Name: 5,7-dihydroxy-2-(4-hydroxyphenyl)chromen-4-one
Class: Natural Product
Formula: C15H10O5
Exact mass: 270.05282
SMILES: Oc(c3)ccc(c3)C(=C1)Oc(c2)c(c(O)cc(O)2)C(=O)1
InChI: InChI=1S/C15H10O5/c16-9-3-1-8(2-4-9)13-7-12(19)15-11(18)5-10(17)6-14(15)20-13/h1-7,16-18H
Instrument: UPLC Q-Tof Premier, Waters
Instrument type: LC-ESI-QTOF
Ms type: MS2
Ion mode: POSITIVE
Collision energy: Ramp 5-60 eV
Fragmentation mode: LOW-ENERGY CID
Ionization: ESI
Full scan fragment ion peak: 271.1
Ion type: [M+H]+
m/z	relative intensity
67.0076	13
68.9871	19
91.0487	35
115.0516	8
119.0468	50
121.0263	20
145.0279	25
153.0182	129
153.0808	8
163.0399	8
271.0606	999
271.1437	53
272.0649	57
