Mass spectrum: 2-Oxovaleric acid; LC-ESI-QTOF; MS2; CE:Ramp 5-60 V; [M-H]-
Name: 2-Oxovaleric acid
Name: 2-Oxovalerate
Name: alpha-Ketovaleric acid
Name: 2-Oxopentanoic acid
Name: 2-Oxopentanoate
Class: Fatty acids
Formula: C5H8O3
Exact mass: 116.04734
SMILES: CCCC(=O)C(O)=O
InChI: InChI=1S/C5H8O3/c1-2-3-4(6)5(7)8/h2-3H2,1H3,(H,7,8)
Instrument: UPLC Q-Tof Premier, Waters
Instrument type: LC-ESI-QTOF
Ms type: MS2
Ion mode: NEGATIVE
Collision energy: Ramp 5-60 V
Fragmentation mode: LOW-ENERGY CID
Ionization: ESI
Precursor m/z: 115.03954
Precursor type: [M-H]-
m/z	relative intensity
115.0395	999
