Mass spectrum: Rhamnetin; LC-ESI-QTOF; MS2; CE:Ramp 5-60 eV; [2M-H]-
Name: 3,3',4',5-tetrahydroxy-7-methoxyflavone
Name: Rhamnetin
Name: Ramn
Name: 2-(3,4-dihydroxyphenyl)-3,5-dihydroxy-7-methoxy-chromen-4-one
Class: Natural Product
Formula: C16H12O7
Exact mass: 316.05830
SMILES: COc(c3)cc(O1)c(c(O)3)C(=O)C(O)=C1c(c2)cc(O)c(O)c2
InChI: InChI=1S/C16H12O7/c1-22-8-5-11(19)13-12(6-8)23-16(15(21)14(13)20)7-2-3-9(17)10(18)4-7/h2-6,17-19,21H,1H3
Instrument: UPLC Q-Tof Premier, Waters
Instrument type: LC-ESI-QTOF
Ms type: MS2
Ion mode: NEGATIVE
Collision energy: Ramp 5-60 eV
Fragmentation mode: LOW-ENERGY CID
Ionization: ESI
Full scan fragment ion peak: 631.1
Ion type: [2M-H]-
m/z	relative intensity
97.0281	9
121.0285	66
151.0025	7
165.0183	240
193.0130	41
228.0411	7
272.0302	7
287.0551	15
300.0253	58
315.0490	999
315.3219	8
315.6360	9
315.6883	8
315.7726	9
315.8165	10
315.8570	8
316.0526	37
631.1088	14
