Mass spectrum: 4-Methoxycinnamic acid; LC-ESI-QTOF; MS2; CE:Ramp 5-60 V; [M+H-H2O]+
Name: 4-Methoxycinnamic acid
Name: 3-(4-methoxyphenyl)prop-2-enoic acid
Class: Natural Product
Formula: C10H10O3
Exact mass: 178.06299
SMILES: COC1=CC=C(C=C1)/C=C/C(=O)O
InChI: InChI=1S/C10H10O3/c1-13-9-5-2-8(3-6-9)4-7-10(11)12/h2-7H,1H3,(H,11,12)/b7-4+
Instrument: UPLC Q-Tof Premier, Waters
Instrument type: LC-ESI-QTOF
Ms type: MS2
Ion mode: POSITIVE
Collision energy: Ramp 5-60 V
Fragmentation mode: LOW-ENERGY CID
Ionization: ESI
Full scan fragment ion peak: 161.1
Ion type: [M+H-H2O]+
m/z	relative intensity
77.0385	116
77.0834	23
79.0546	128
79.1013	28
90.0460	194
90.0954	38
103.0541	156
103.1067	23
105.0696	64
118.0413	312
118.0982	47
133.0651	828
133.1256	156
161.0603	999
161.1268	169
