Mass spectrum: D-(+)-Malic acid; GC-EI-TOF; MS; 3 TMS; BP:73
Name: D-(+)-Malic acid
Name: D-Malic acid
Name: D-Malate
Name: (R)-Malate
Class: Natural Product
Formula: C4H6O5
Exact mass: 134.02152
SMILES: OC(=O)C[C@H](O)C(O)=O
InChI: InChI=1S/C4H6O5/c5-2(4(8)9)1-3(6)7/h2,5H,1H2,(H,6,7)(H,8,9)/t2-/m1/s1
Instrument: Pegasus III TOF-MS system, Leco; GC 6890, Agilent Technologies
Instrument type: GC-EI-TOF
Ms type: MS
Ion mode: POSITIVE
Retention time: 359.242 sec
Base peak: 73
Derivative form: C13H30O5Si3
Derivative mass: 350.1401
Derivative type: 3 TMS
m/z	relative intensity
60	8
61	17
62	1
63	1
66	8
67	2
69	1
70	5
71	8
72	28
73	999
74	86
75	97
76	8
77	17
78	1
79	1
83	2
84	2
85	4
86	1
87	3
88	1
89	2
93	2
99	6
100	1
101	64
102	8
103	9
104	1
105	3
113	1
115	8
116	9
117	38
118	4
119	8
120	1
129	8
130	1
131	27
132	4
133	91
134	13
135	9
136	1
143	15
144	2
145	3
146	1
147	385
148	55
149	37
150	4
151	5
157	1
159	1
161	1
163	1
171	16
172	2
173	3
175	33
176	6
177	12
178	1
185	1
189	42
190	35
191	29
192	7
193	2
203	4
204	2
205	2
207	1
217	17
218	3
219	2
221	8
222	2
223	1
233	80
234	16
235	7
236	1
245	42
246	8
247	6
260	1
263	9
264	3
265	12
266	3
267	1
305	2
306	4
307	13
308	6
309	2
319	4
320	1
335	15
336	4
337	2
