Mass spectrum: (R)-(-)-Phenylephrine; GC-EI-TOF; MS; 2 TMS; BP:116
Name: (R)-(-)-Phenylephrine
Name: Transferred to D00511
Class: Natural Product
Formula: C9H13NO2
Exact mass: 167.09463
SMILES: CNC[C@H](O)c(c1)cc(O)cc1
InChI: InChI=1S/C9H13NO2/c1-10-6-9(12)7-3-2-4-8(11)5-7/h2-5,9-12H,6H2,1H3/t9-/m0/s1
Instrument: Pegasus III TOF-MS system, Leco; GC 6890, Agilent Technologies
Instrument type: GC-EI-TOF
Ms type: MS
Ion mode: POSITIVE
Retention time: 435.636 sec
Base peak: 116
Derivative form: C15H29NO2Si2
Derivative mass: 311.17368
Derivative type: 2 TMS
m/z	relative intensity
60	4
61	5
63	1
65	2
66	2
70	3
71	3
72	12
73	751
74	64
75	42
76	3
77	12
78	1
79	2
83	1
84	1
85	1
86	12
87	3
88	3
89	4
90	1
91	10
92	1
93	1
95	2
100	6
101	4
102	3
103	5
104	2
105	7
107	1
114	2
115	5
116	999
117	129
118	45
119	7
120	1
121	2
130	2
131	7
132	2
133	12
134	2
135	6
136	1
137	1
145	2
146	2
147	70
148	12
149	11
150	1
151	6
152	1
159	1
160	1
161	5
162	1
163	8
164	1
165	2
174	1
175	1
176	1
177	9
178	2
179	8
180	1
181	1
190	1
191	2
192	1
193	6
194	1
195	1
204	2
205	1
206	2
207	2
209	1
220	3
221	2
222	1
223	1
237	6
238	1
251	4
252	2
264	1
265	1
267	9
268	8
269	2
280	1
294	1
368	8
369	3
370	1
