Mass spectrum: L-5-Oxoproline; LC-ESI-QTOF; MS2; CE:Ramp 5-60 V; [M-H]-
Name: L-Pyroglutamic acid
Name: pGlu
Name: pyroGlu
Name: Pyroglutamate
Name: Pidolic acid
Name: L-Glutimic acid
Name: L-5-Oxoproline
Name: (S)-(?)-2-Pyrrolidone-5-carboxylic acid
Name: (S)-5-Oxo-2-pyrrolidinecarboxylic acid
Name: L-a-Aminoglutaric Acid Lactam
Name: L-5-Oxo-2-pyrrolidinecarboxylic acid
Class: Carboxylic acids
Formula: C5H7NO3
Exact mass: 129.04259
SMILES: O=C(C1)NC(C1)C(O)=O
InChI: InChI=1S/C5H7NO3/c7-4-2-1-3(6-4)5(8)9/h3H,1-2H2,(H,6,7)(H,8,9)/t3-/m0/s1
Instrument: UPLC Q-Tof Premier, Waters
Instrument type: LC-ESI-QTOF
Ms type: MS2
Ion mode: NEGATIVE
Collision energy: Ramp 5-60 V
Fragmentation mode: LOW-ENERGY CID
Ionization: ESI
Precursor m/z: 128.03479
Precursor type: [M-H]-
m/z	relative intensity
128.0348	999
