Mass spectrum: Uridine; LC-ESI-QTOF; MS2; CE:Ramp 5-60 V; [M-H]-
Name: Uridine
Name: araU
Name: Uracilriboside
Name: 1-beta-D-Ribofuranosyluracil
Name: Uracil-1-beta-D-ribofuranoside
Class: Nucleoside
Formula: C9H12N2O6
Exact mass: 244.06954
SMILES: OC[C@@H](O1)[C@@H](O)[C@@H](O)[C@@H]1N(C=2)C(=O)NC(=O)C2
InChI: InChI=1S/C9H12N2O6/c12-3-4-6(14)7(15)8(17-4)11-2-1-5(13)10-9(11)16/h1-2,4,6-8,12,14-15H,3H2,(H,10,13,16)/t4-,6-,7-,8-/m1/s1
Instrument: UPLC Q-Tof Premier, Waters
Instrument type: LC-ESI-QTOF
Ms type: MS2
Ion mode: NEGATIVE
Collision energy: Ramp 5-60 V
Fragmentation mode: LOW-ENERGY CID
Ionization: ESI
Precursor m/z: 243.06173
Precursor type: [M-H]-
m/z	relative intensity
82.0307	297
110.0247	999
140.0354	124
152.0350	196
200.0564	472
243.0617	616
