Mass spectrum: 6-Hydroxynicotinic acid; LC-ESI-QTOF; MS2; CE:Ramp 5-60 V; [M-H]-
Name: 6-Hydroxynicotinic acid
Name: 6-Hydroxynicotinate
Name: 6-Hydroxypyridine-3-carboxylic acid
Name: 2-Hydroxy-5-pyridinecarboxylic acid
Name: ,6-Dihydro-6-oxo-3-pyridinecarboxylic acid
Class: Carboxylic acids
Formula: C6H5NO3
Exact mass: 139.02694
SMILES: OC(=O)c(c1)cnc(O)c1
InChI: InChI=1S/C6H5NO3/c8-5-2-1-4(3-7-5)6(9)10/h1-3H,(H,7,8)(H,9,10)
Instrument: UPLC Q-Tof Premier, Waters
Instrument type: LC-ESI-QTOF
Ms type: MS2
Ion mode: NEGATIVE
Collision energy: Ramp 5-60 V
Fragmentation mode: LOW-ENERGY CID
Ionization: ESI
Precursor m/z: 138.01914
Precursor type: [M-H]-
m/z	relative intensity
94.0297	999
138.0191	189
