Mass spectrum: Galactinol; LC-ESI-QTOF; MS2; CE:Ramp 5-60 V; [M-H]-
Name: Galactinol
Name: Gla+myo-inositol
Name: 6beta-Galactinol
Name: 1-O-alpha-D-Galactosyl-D-myo-inositol
Class: Inositol
Formula: C12H22O11
Exact mass: 342.11621
SMILES: OC[C@@H](O1)[C@H](O)[C@H](O)[C@@H](O)[C@H]1O[C@@H]([C@H](O)2)[C@H](O)[C@H](O)[C@@H](O)[C@H](O)2
InChI: InChI=1S/C12H22O11/c13-1-2-3(14)4(15)10(21)12(22-2)23-11-8(19)6(17)5(16)7(18)9(11)20/h2-21H,1H2/t2-,3+,4+,5-,6-,7+,8+,9+,10-,11-,12-/m1/s1
Instrument: UPLC Q-Tof Premier, Waters
Instrument type: LC-ESI-QTOF
Ms type: MS2
Ion mode: NEGATIVE
Collision energy: Ramp 5-60 V
Fragmentation mode: LOW-ENERGY CID
Ionization: ESI
Precursor m/z: 341.10841
Precursor type: [M-H]-
m/z	relative intensity
59.0154	296
71.0153	509
85.0303	171
87.0095	216
89.0250	446
101.0250	535
113.0249	205
119.0351	109
143.0351	129
161.0456	420
179.0563	592
341.1084	999
