Mass spectrum: Serotonin; LC-ESI-QTOF; MS2; CE:30 V; [M+H]+
Name: Serotonin
Name: 5-HT
Name: 5-Hydoxytryptamine
Name: 3-(2-Aminoethyl)-5-hydroxyindole
Name: Enteramine
Class: Tryptamine
Formula: C10H12N2O
Exact mass: 176.09496
SMILES: C1=CC2=C(C=C1O)C(=CN2)CCN
InChI: InChI=1S/C10H12N2O/c11-4-3-7-6-12-10-2-1-8(13)5-9(7)10/h1-2,5-6,12-13H,3-4,11H2
Instrument: UPLC Q-Tof Premier, Waters
Instrument type: LC-ESI-QTOF
Ms type: MS2
Ion mode: POSITIVE
Collision energy: 30 V
Fragmentation mode: LOW-ENERGY CID
Ionization: ESI
Precursor m/z: 177.10276
Precursor type: [M+H]+
m/z	relative intensity
160.0746	999
176.9500	65
176.9854	77
177.0211	68
177.0652	102
177.0965	640
