Mass spectrum: Myricitrin; LC-ESI-QTOF; MS2; CE:Ramp 5-60 V; [M-H]-
Name: myricetin-3-O-rhamnoside
Name: Myricitrin
Name: Myrc_3_Rha
Name: 5,7-dihydroxy-3-[(2S,3R,4R,5S,6S)-3,4,5-trihydroxy-6-methyl-oxan-2-yl]oxy-2-(3,4,5-trihydroxyphenyl)chromen-4-one
Class: Natural Product
Formula: C21H20O12
Exact mass: 464.09548
SMILES: Oc(c4)cc(O1)c(c(O)4)C(=O)C(O[C@H](O3)[C@H](O)[C@H](O)[C@@H](O)[C@H](C)3)=C1c(c2)cc(O)c(O)c(O)2
InChI: InChI=1S/C21H20O12/c1-6-14(26)17(29)18(30)21(31-6)33-20-16(28)13-9(23)4-8(22)5-12(13)32-19(20)7-2-10(24)15(27)11(25)3-7/h2-6,14,17-18,21-27,29-30H,1H3/t6-,14-,17+,18+,21-/m0/s1
Instrument: UPLC Q-Tof Premier, Waters
Instrument type: LC-ESI-QTOF
Ms type: MS2
Ion mode: NEGATIVE
Collision energy: Ramp 5-60 V
Fragmentation mode: LOW-ENERGY CID
Ionization: ESI
Full scan fragment ion peak: 463.1
Ion type: [M-H]-
m/z	relative intensity
124.0160	24
137.0239	22
151.0035	56
164.0107	24
178.9984	51
214.0271	68
215.0342	28
242.0221	59
243.0299	66
259.0246	82
270.0168	66
271.0243	374
272.0274	49
287.0192	234
288.0247	44
316.0219	905
317.0284	283
318.0335	25
463.0876	999
464.0924	163
