Mass spectrum: Peonidin-3-O-beta-galactopyranoside; LC-ESI-QTOF; MS2; CE:Ramp 5-60 V; [M-2H]-
Name: Peonidin-3-O-beta-galactopyranoside
Name: Pn 3-Gal
Class: Anthocyanidin
Formula: [C22H23O11]+
Exact mass: 463.12404
SMILES: COc(c(O)4)cc(cc4)c([o+1]1)c(OC(O3)C(O)C(O)C(O)C(CO)3)cc(c(O)2)c(cc(O)c2)1
InChI: InChI=1S/C22H22O11/c1-30-15-4-9(2-3-12(15)25)21-16(7-11-13(26)5-10(24)6-14(11)31-21)32-22-20(29)19(28)18(27)17(8-23)33-22/h2-7,17-20,22-23,27-29H,8H2,1H3,(H2-,24,25,26)/p+1/t17-,18+,19+,20-,22-/m1/s1
Instrument: UPLC Q-Tof Premier, Waters
Instrument type: LC-ESI-QTOF
Ms type: MS2
Ion mode: NEGATIVE
Collision energy: Ramp 5-60 V
Fragmentation mode: LOW-ENERGY CID
Ionization: ESI
Derivative form: C22H23O11.Cl
Derivative mass: 498.86
Precursor m/z: 461.10841
Precursor type: [M-2H]-
m/z	relative intensity
211.0406	160
227.0354	262
239.0366	107
255.0311	360
283.0263	657
284.0342	230
298.0497	999
299.0579	639
461.1084	761
