Mass spectrum: L-Tryptophan; GC-EI-TOF; MS; 3 TMS; BP:73
Name: L-Tryptophane
Name: L-Tryptophan
Name: (S)-alpha-Amino-beta-(3-indolyl)-propionic acid
Name: Tryptophan
Class: Natural Product
Formula: C11H12N2O2
Exact mass: 204.08988
SMILES: C1=CC=C2C(=C1)C(=CN2)C[C@@H](C(=O)O)N
InChI: InChI=1S/C11H12N2O2/c12-9(11(14)15)5-7-6-13-10-4-2-1-3-8(7)10/h1-4,6,9,13H,5,12H2,(H,14,15)/t9-/m0/s1
Instrument: Pegasus III TOF-MS system, Leco; GC 6890, Agilent Technologies
Instrument type: GC-EI-TOF
Ms type: MS
Ion mode: POSITIVE
Retention time: 523.416 sec
Base peak: 73
Derivative form: C20H36N2O2Si3
Derivative mass: 420.20846
Derivative type: 3 TMS
m/z	relative intensity
60	3
61	3
62	1
63	2
66	1
67	1
70	4
71	3
72	15
73	999
74	89
75	50
76	6
77	15
78	2
79	3
83	1
84	4
85	1
86	5
87	2
89	1
91	1
93	1
100	39
101	19
102	10
103	7
104	1
105	2
114	1
115	6
116	2
117	4
118	1
119	2
128	3
129	14
130	26
131	11
132	13
133	8
134	3
135	1
142	1
143	2
144	3
145	8
146	4
147	31
148	5
149	2
156	4
157	1
158	3
159	3
160	4
161	1
163	1
169	1
170	4
171	1
172	4
173	1
174	3
184	3
185	1
186	7
187	3
188	5
189	1
190	7
191	1
198	1
199	4
200	21
201	6
202	704
203	144
204	43
205	6
214	1
215	2
216	1
218	27
219	5
220	2
229	1
230	5
231	1
248	1
288	1
290	1
291	59
292	17
293	8
294	1
302	1
303	4
304	1
377	1
378	1
405	2
406	1
