Mass spectrum: Scopoletin; LC-ESI-QTOF; MS2; CE:Ramp 5-60 V; [M+H]+
Name: Scopoletin
Name: 6-Methoxyumbelliferone
Name: beta-Methylesculetin
Name: 7-Hydroxy-5-methoxycoumarin
Name: 6-Methoxy-7-hydroxycoumarin
Name: Chrysatropic acid
Name: Escopoletin
Name: Esculetin-6-methyl ether
Name: Gelseminic acid
Name: Methylesculetin
Name: 7-Hydroxy-6-methoxy-2H-1-benzopyran-2-one
Name: Murrayetin
Name: Scopoletine
Name: Scopoletol
Class: Coumarins
Formula: C10H8O4
Exact mass: 192.04226
SMILES: COc(c1)c(O)cc(O2)c(C=CC(=O)2)1
InChI: InChI=1S/C10H8O4/c1-13-9-4-6-2-3-10(12)14-8(6)5-7(9)11/h2-5,11H,1H3
Instrument: UPLC Q-Tof Premier, Waters
Instrument type: LC-ESI-QTOF
Ms type: MS2
Ion mode: POSITIVE
Collision energy: Ramp 5-60 V
Fragmentation mode: LOW-ENERGY CID
Ionization: ESI
Precursor m/z: 193.05006
Precursor type: [M+H]+
m/z	relative intensity
66.0488	55
77.0410	86
81.0360	82
94.0443	160
105.0365	66
122.0396	268
133.0314	614
137.0632	201
150.0352	183
165.0588	56
178.0298	401
193.0501	999
