Mass spectrum: Daphnetin; LC-ESI-QTOF; MS2; CE:30 V; [M-H]-
Name: Daphnetin
Name: 7,8-Dihydroxycoumarin
Name: Daphnetol
Class: Coumarins
Formula: C9H6O4
Exact mass: 178.02661
SMILES: O=C(C=2)Oc(c(O)1)c(C2)ccc(O)1
InChI: InChI=1S/C9H6O4/c10-6-3-1-5-2-4-7(11)13-9(5)8(6)12/h1-4,10,12H
Instrument: UPLC Q-Tof Premier, Waters
Instrument type: LC-ESI-QTOF
Ms type: MS2
Ion mode: NEGATIVE
Collision energy: 30 V
Fragmentation mode: LOW-ENERGY CID
Ionization: ESI
Precursor m/z: 177.01881
Precursor type: [M-H]-
m/z	relative intensity
65.0409	80
67.0195	128
75.0245	50
77.0402	122
79.0195	77
92.0261	71
93.0344	662
105.0338	124
121.0286	999
132.0205	171
149.0239	142
177.0188	72
