Mass spectrum: Gibberellin A4; LC-ESI-QTOF; MS2; CE:Ramp 5-60 V; [M-H]-
Name: Gibberellin A4
Name: Gibberellic acid A4
Name: Gibbane-1,10-dicarboxylic acid, 2,4a-dihydroxy-1-methyl-8-methylene-, 1,4a-lactone, (1alpha,2beta,4aalpha,4bbeta,10beta)-
Class: Carboxylic acids
Formula: C19H24O5
Exact mass: 332.16237
SMILES: C=C([C@H]45)C[C@@](C5)([C@@H](C(O)=O)1)[C@@]([H])(CC4)[C@@](C3)(O2)[C@]([H])([C@@](C)([C@@H](O)C3)C(=O)2)1
InChI: InChI=1S/C19H24O5/c1-9-7-18-8-10(9)3-4-11(18)19-6-5-12(20)17(2,16(23)24-19)14(19)13(18)15(21)22/h10-14,20H,1,3-8H2,2H3,(H,21,22)/t10-,11-,12+,13-,14-,17-,18+,19-/m1/s1
Instrument: UPLC Q-Tof Premier, Waters
Instrument type: LC-ESI-QTOF
Ms type: MS2
Ion mode: NEGATIVE
Collision energy: Ramp 5-60 V
Fragmentation mode: LOW-ENERGY CID
Ionization: ESI
Precursor m/z: 331.15457
Precursor type: [M-H]-
m/z	relative intensity
73.0315	54
213.1310	166
225.1675	157
243.1787	194
257.1217	177
269.1581	145
287.1693	162
313.1489	71
331.1546	999
331.6105	61
