Mass spectrum: Isorhamnetin; LC-ESI-QTOF; MS2; CE:Ramp 5-60 eV; [M+H]+
Name: 3,4',5,7-tetrahydroxy-3'-methoxyflavone
Name: Isorhamnetin
Name: Isor
Name: 3,5,7-trihydroxy-2-(4-hydroxy-3-methoxy-phenyl)chromen-4-one
Class: Natural Product
Formula: C16H12O7
Exact mass: 316.05830
SMILES: COc(c(O)3)cc(cc3)C(O1)=C(O)C(=O)c(c(O)2)c(cc(O)c2)1
InChI: InChI=1S/C16H12O7/c1-22-11-4-7(2-3-9(11)18)16-15(21)14(20)13-10(19)5-8(17)6-12(13)23-16/h2-6,17-19,21H,1H3
Instrument: UPLC Q-Tof Premier, Waters
Instrument type: LC-ESI-QTOF
Ms type: MS2
Ion mode: POSITIVE
Collision energy: Ramp 5-60 eV
Fragmentation mode: LOW-ENERGY CID
Ionization: ESI
Full scan fragment ion peak: 317.1
Ion type: [M+H]+
m/z	relative intensity
92.0202	26
93.0282	20
121.0261	22
153.0181	176
201.0556	17
203.0351	38
217.0506	63
228.0428	39
229.0504	73
245.0459	57
246.0526	28
257.0454	41
273.0408	31
274.0483	63
285.0403	67
302.0431	184
317.0661	999
317.1549	50
318.0711	47
