Mass spectrum: L-(-)-Proline; GC-EI-TOF; MS; 2 TMS; BP:142
Name: L-Proline
Name: 2-Pyrrolidinecarboxylic acid
Name: L-(-)-Proline
Class: Natural Product
Formula: C5H9NO2
Exact mass: 115.06333
SMILES: OC(=O)C([H])(C1)NCC1
InChI: InChI=1S/C5H9NO2/c7-5(8)4-2-1-3-6-4/h4,6H,1-3H2,(H,7,8)/t4-/m0/s1
Instrument: Pegasus III TOF-MS system, Leco; GC 6890, Agilent Technologies
Instrument type: GC-EI-TOF
Ms type: MS
Ion mode: POSITIVE
Retention time: 313.801 sec
Base peak: 142
Derivative form: C11H25NO2Si2
Derivative mass: 259.14238
Derivative type: 2 TMS
m/z	relative intensity
60	10
61	13
62	1
63	1
64	1
65	1
66	55
67	10
68	4
69	10
70	50
71	14
72	55
73	951
74	79
75	66
76	5
77	14
78	1
79	4
80	6
81	1
82	3
83	4
84	13
85	9
86	9
87	4
88	1
89	1
92	1
93	1
94	1
95	1
96	3
97	3
98	7
99	12
100	22
101	9
102	5
103	7
104	1
105	2
106	1
107	3
110	1
111	1
112	2
113	10
114	2
115	8
116	2
117	7
118	1
119	2
122	1
124	5
126	3
127	4
128	3
129	2
131	12
132	2
133	15
134	2
135	1
138	1
139	1
140	8
141	5
142	999
143	139
144	43
145	3
147	76
148	12
149	5
154	1
158	1
170	8
171	1
172	2
175	5
176	1
216	53
217	11
218	7
219	1
230	1
244	6
245	1
259	2
