Mass spectrum: trans-4-Hydroxy-L-proline; GC-EI-TOF; MS; 3 TMS; BP:73
Name: trans-4-Hydroxy-L-proline
Name: 4-Hydroxy-L-proline
Name: L-Hydroxyproline
Class: Natural Product
Formula: C5H9NO3
Exact mass: 131.05824
SMILES: [H]C(O)(C1)CC([H])(N1)C(O)=O
InChI: InChI=1S/C5H9NO3/c7-3-1-4(5(8)9)6-2-3/h3-4,6-7H,1-2H2,(H,8,9)/t3-,4+/m1/s1
Instrument: Pegasus III TOF-MS system, Leco; GC 6890, Agilent Technologies
Instrument type: GC-EI-TOF
Ms type: MS
Ion mode: POSITIVE
Retention time: 375.922 sec
Base peak: 73
Derivative form: C14H33NO3Si3
Derivative mass: 347.17682
Derivative type: 3 TMS
m/z	relative intensity
60	9
61	18
62	1
63	2
66	6
67	6
68	7
69	5
70	7
71	8
72	25
73	999
74	88
75	120
76	10
77	17
78	1
79	3
80	1
81	1
82	2
83	8
84	6
85	9
86	10
87	5
88	1
89	4
93	1
94	2
95	1
96	3
97	3
98	5
99	7
100	24
101	18
102	6
103	8
104	1
105	3
108	1
110	1
111	3
112	5
113	8
114	4
115	8
116	6
117	9
118	1
119	5
124	12
125	2
126	4
127	1
128	3
129	14
130	3
131	18
132	4
133	36
134	5
135	3
138	2
139	5
140	428
141	59
142	43
143	6
144	1
145	1
147	91
148	14
149	12
150	1
152	1
156	4
157	1
158	10
159	2
166	1
170	5
171	1
172	4
173	1
174	1
175	3
176	1
177	1
182	1
187	2
188	9
189	3
190	1
191	1
198	1
200	1
203	1
214	11
215	2
216	3
218	1
228	3
229	2
230	433
231	99
232	41
233	6
234	1
240	1
304	14
305	4
306	2
332	9
333	3
334	1
