Mass spectrum: L-2-Aminobutyric acid; LC-ESI-QTOF; MS2; CE:Ramp 5-60 V; [M+H]+
Name: L-2-Aminobutyric acid
Name: AABA
Name: 2-ABU
Name: L-2-Aminobutyrate
Name: L-alpha-Aminobutyric acid
Name: L-Butyrine
Name: (S)-2-Aminobutyric acid
Name: (S)-2-Aminobutanoate
Class: Amino acids
Formula: C4H9NO2
Exact mass: 103.06333
SMILES: CC[C@H](N)C(O)=O
InChI: InChI=1S/C4H9NO2/c1-2-3(5)4(6)7/h3H,2,5H2,1H3,(H,6,7)/t3-/m0/s1
Instrument: UPLC Q-Tof Premier, Waters
Instrument type: LC-ESI-QTOF
Ms type: MS2
Ion mode: POSITIVE
Collision energy: Ramp 5-60 V
Fragmentation mode: LOW-ENERGY CID
Ionization: ESI
Precursor m/z: 104.07113
Precursor type: [M+H]+
m/z	relative intensity
58.0662	999
99.5102	64
104.0711	295
