Mass spectrum: L-(-)-Phenylalanine; GC-EI-TOF; MS; 2 TMS; BP:73
Name: L-Phenylalanine
Name: (S)-alpha-Amino-beta-phenylpropionic acid
Name: L-(-)-Phenylalanine
Class: Natural Product
Formula: C9H11NO2
Exact mass: 165.07898
SMILES: C1=CC=C(C=C1)C[C@@H](C(=O)O)N
InChI: InChI=1S/C9H11NO2/c10-8(9(11)12)6-7-4-2-1-3-5-7/h1-5,8H,6,10H2,(H,11,12)/t8-/m0/s1
Instrument: Pegasus III TOF-MS system, Leco; GC 6890, Agilent Technologies
Instrument type: GC-EI-TOF
Ms type: MS
Ion mode: POSITIVE
Retention time: 402.604 sec
Base peak: 73
Derivative form: C15H27NO2Si2
Derivative mass: 309.15803
Derivative type: 2 TMS
m/z	relative intensity
60	9
61	12
62	3
63	8
64	2
65	36
66	6
67	1
70	7
71	5
72	21
73	999
74	95
75	83
76	8
77	25
78	5
79	4
80	1
83	1
84	6
85	2
86	14
87	4
88	1
89	8
90	4
91	84
92	14
93	4
95	1
98	1
99	1
100	210
101	28
102	14
103	23
104	5
105	6
107	2
115	7
116	3
117	14
118	7
119	7
120	16
121	8
122	1
128	1
129	1
130	30
131	20
132	23
133	25
134	5
135	7
136	1
144	2
145	3
146	11
147	128
148	22
149	11
150	1
158	2
159	3
160	12
161	4
162	4
163	8
164	1
174	4
175	1
176	8
177	11
178	2
188	1
190	3
191	3
192	265
193	46
194	12
195	1
202	1
203	4
204	9
205	2
217	1
218	384
219	74
220	32
221	4
222	1
266	21
267	8
268	3
294	6
295	1
