Mass spectrum: L-Glutamine; LC-ESI-QTOF; MS2; CE:30 V; [M+H]+
Name: L-Glutamine
Name: Q
Name: Gln
Name: L-Glutamic acid 5-amide
Name: (S)-2,5-Diamino-5-oxopentanoic acid
Name: L-2-Aminoglutaramic acid
Name: Levoglutamide
Name: Cebrogen
Name: Glumin
Class: Amino acids
Formula: C5H10N2O3
Exact mass: 146.06914
SMILES: NC(=O)CC[C@H](N)C(O)=O
InChI: InChI=1S/C5H10N2O3/c6-3(5(9)10)1-2-4(7)8/h3H,1-2,6H2,(H2,7,8)(H,9,10)/t3-/m0/s1
Instrument: UPLC Q-Tof Premier, Waters
Instrument type: LC-ESI-QTOF
Ms type: MS2
Ion mode: POSITIVE
Collision energy: 30 V
Fragmentation mode: LOW-ENERGY CID
Ionization: ESI
Precursor m/z: 147.07694
Precursor type: [M+H]+
m/z	relative intensity
56.0530	91
84.0458	999
