Mass spectrum: Dulcitol; LC-ESI-QTOF; MS2; CE:Ramp 5-60 V; [M-H]-
Name: Dulcitol
Name: Galactitol
Name: Galactit
Name: Dulcite
Name: Dulcin
Name: Melampyrite
Name: Dulcose
Name: 1,2,3,4,5,6-Hexanehexol
Name: Melampyrum
Name: Melampyrin
Name: Euonymit
Class: Alditol
Formula: C6H14O6
Exact mass: 182.07904
SMILES: OCC(O)C(O)C(O)C(O)CO
InChI: InChI=1S/C6H14O6/c7-1-3(9)5(11)6(12)4(10)2-8/h3-12H,1-2H2
Instrument: UPLC Q-Tof Premier, Waters
Instrument type: LC-ESI-QTOF
Ms type: MS2
Ion mode: NEGATIVE
Collision energy: Ramp 5-60 V
Fragmentation mode: LOW-ENERGY CID
Ionization: ESI
Precursor m/z: 181.07123
Precursor type: [M-H]-
m/z	relative intensity
59.0154	125
71.0147	423
73.0311	91
83.0157	63
85.0301	101
89.0254	208
101.0245	686
113.0233	46
119.0354	79
131.0336	34
163.0616	117
181.0712	999
