Mass spectrum: 4-Nitrophenyl phosphate; LC-ESI-QTOF; MS2; CE:Ramp 5-60 V; [M+H]+
Name: 4-Nitrophenyl phosphate
Name: pNPP
Class: Aryl phosphate
Formula: C6H6NO6P
Exact mass: 218.99327
SMILES: [O-1][N+1](=O)c(c1)ccc(c1)OP(O)(O)=O
InChI: InChI=1S/C6H6NO6P/c8-7(9)5-1-3-6(4-2-5)13-14(10,11)12/h1-4H,(H2,10,11,12)
Instrument: UPLC Q-Tof Premier, Waters
Instrument type: LC-ESI-QTOF
Ms type: MS2
Ion mode: POSITIVE
Collision energy: Ramp 5-60 V
Fragmentation mode: LOW-ENERGY CID
Ionization: ESI
Precursor m/z: 220.00107
Precursor type: [M+H]+
m/z	relative intensity
75.0237	76
94.0412	999
109.0279	70
123.0313	62
174.0079	566
202.9983	206
220.0011	507
