Mass spectrum: GABA; LC-ESI-QTOF; MS2; CE:Ramp 5-60 V; [M+H]+
Name: gamma-Amino-n-butyric acid
Name: GABA
Name: 4-Aminobutyric acid
Name: 4-Aminobutylate
Name: 4-Aminobutanoic acid
Name: Piperidic acid
Name: Piperidinic acid
Name: Aminalon
Class: Amino acids
Formula: C4H9NO2
Exact mass: 103.06333
SMILES: NCCCC(O)=O
InChI: InChI=1S/C4H9NO2/c5-3-1-2-4(6)7/h1-3,5H2,(H,6,7)
Instrument: UPLC Q-Tof Premier, Waters
Instrument type: LC-ESI-QTOF
Ms type: MS2
Ion mode: POSITIVE
Collision energy: Ramp 5-60 V
Fragmentation mode: LOW-ENERGY CID
Ionization: ESI
Precursor m/z: 104.07113
Precursor type: [M+H]+
m/z	relative intensity
69.0348	195
86.0609	237
87.0450	999
104.0711	149
