Mass spectrum: Pyridoxine; LC-ESI-QTOF; MS2; CE:Ramp 5-60 V; [M+H]+
Name: Pyridoxine
Name: Vitamin B6
Name: Pyridoxol
Name: 2-Methyl-3-hydroxy-4,5-dihydroxymethylpyridine
Name: Pyroxin
Name: Naturetime B6
Name: Adermine
Name: Gravidox
Name: Hydoxin
Name: -Hydroxy-4,5-dimethylol-alpha-picoline
Name: 5-Hydroxy-6-methyl-3,4-pyridinedimethanol
Name: Pridoxine
Class: Pyridines
Formula: C8H11NO3
Exact mass: 169.07389
SMILES: OCc(c1)c(CO)c(O)c(C)n1
InChI: InChI=1S/C8H11NO3/c1-5-8(12)7(4-11)6(3-10)2-9-5/h2,10-12H,3-4H2,1H3
Instrument: UPLC Q-Tof Premier, Waters
Instrument type: LC-ESI-QTOF
Ms type: MS2
Ion mode: POSITIVE
Collision energy: Ramp 5-60 V
Fragmentation mode: LOW-ENERGY CID
Ionization: ESI
Precursor m/z: 170.08169
Precursor type: [M+H]+
m/z	relative intensity
134.0608	988
152.0709	999
170.0817	289
