Mass spectrum: 1-Isothiocyanato-9-(methylsulfinyl)-nonane; LC-ESI-QTOF; MS2; CE:Ramp 5-60 V; [M+H]+
Name: 1-Isothiocyanato-9-(methylsulfinyl)-nonane
Name: 9-Methylsulfinylnonnyl isothiocyanate
Class: Isothiocyanate
Formula: C11H21NOS2
Exact mass: 247.10646
SMILES: S=C=NCCCCCCCCCS(C)=O
InChI: InChI=1S/C11H21NOS2/c1-15(13)10-8-6-4-2-3-5-7-9-12-11-14/h2-10H2,1H3
Instrument: UPLC Q-Tof Premier, Waters
Instrument type: LC-ESI-QTOF
Ms type: MS2
Ion mode: POSITIVE
Collision energy: Ramp 5-60 V
Fragmentation mode: LOW-ENERGY CID
Ionization: ESI
Precursor m/z: 248.11425
Precursor type: [M+H]+
m/z	relative intensity
55.0589	146
65.0103	111
69.0735	787
81.0730	113
83.0888	485
100.0261	100
102.0412	114
108.0846	196
114.0415	331
122.1008	191
128.0574	223
150.1325	118
151.1400	169
168.1434	106
175.1212	129
184.1192	860
248.1142	999
