Mass spectrum: Indole-3-carboxyaldehyde; LC-ESI-QTOF; MS2; CE:Ramp 5-60 V; [M-H]-
Name: Indole-3-carboxyaldehyde
Name: Indole-3-aldehyde
Name: 3-Formylindole
Name: 1H-indole-3-carbaldehyde
Name: beta-Indolylaldehyde
Class: Indole
Formula: C9H7NO
Exact mass: 145.05276
SMILES: C1=CC=C2C(=C1)C(=CN2)C=O
InChI: InChI=1S/C9H7NO/c11-6-7-5-10-9-4-2-1-3-8(7)9/h1-6,10H
Instrument: UPLC Q-Tof Premier, Waters
Instrument type: LC-ESI-QTOF
Ms type: MS2
Ion mode: NEGATIVE
Collision energy: Ramp 5-60 V
Fragmentation mode: LOW-ENERGY CID
Ionization: ESI
Precursor m/z: 144.04496
Precursor type: [M-H]-
m/z	relative intensity
115.0437	38
116.0507	25
126.0357	25
144.0450	999
144.3465	45
