Mass spectrum: Myricetin; LC-ESI-QTOF; MS2; CE:30 eV; [M+H]+
Name: 3,3',4',5,5',7-hexahydroxyflavone
Name: Myricetin
Name: Myrc
Name: 3,5,7-trihydroxy-2-(3,4,5-trihydroxyphenyl)chromen-4-one
Class: Natural Product
Formula: C15H10O8
Exact mass: 318.03757
SMILES: Oc(c3)cc(O1)c(c(O)3)C(=O)C(O)=C1c(c2)cc(O)c(O)c(O)2
InChI: InChI=1S/C15H10O8/c16-6-3-7(17)11-10(4-6)23-15(14(22)13(11)21)5-1-8(18)12(20)9(19)2-5/h1-4,16-20,22H
Instrument: UPLC Q-Tof Premier, Waters
Instrument type: LC-ESI-QTOF
Ms type: MS2
Ion mode: POSITIVE
Collision energy: 30 eV
Fragmentation mode: LOW-ENERGY CID
Ionization: ESI
Full scan fragment ion peak: 319
Ion type: [M+H]+
m/z	relative intensity
68.9871	101
109.0248	100
111.0042	109
121.0260	31
121.0632	32
125.0214	62
137.0223	184
139.0380	31
147.0434	45
153.0181	999
153.0817	109
161.0594	61
165.0183	181
166.0269	42
171.0443	70
175.0395	38
177.0549	34
179.0340	131
189.0548	137
195.0300	41
199.0402	69
203.0349	116
217.0503	477
217.1265	41
219.0301	54
227.0354	54
231.0304	32
244.0383	50
245.0451	418
245.1273	31
255.0293	61
273.0399	194
290.0424	41
319.0454	68
