Mass spectrum: L-Asparagine; GC-EI-TOF; MS; 3 TMS; BP:73
Name: L-Asparagine
Name: 2-Aminosuccinamic acid
Class: Natural Product
Formula: C4H8N2O3
Exact mass: 132.05349
SMILES: NC(=O)C[C@@H](N)C(O)=O
InChI: InChI=1S/C4H8N2O3/c5-2(4(8)9)1-3(6)7/h2H,1,5H2,(H2,6,7)(H,8,9)/t2-/m0/s1
Instrument: Pegasus III TOF-MS system, Leco; GC 6890, Agilent Technologies
Instrument type: GC-EI-TOF
Ms type: MS
Ion mode: POSITIVE
Retention time: 443.082 sec
Base peak: 73
Derivative form: C13H32N2O3Si3
Derivative mass: 348.17207
Derivative type: 3 TMS
m/z	relative intensity
60	18
61	28
62	3
63	4
66	9
67	2
69	3
70	25
71	8
72	48
73	999
74	145
75	210
76	23
77	50
78	5
79	13
80	2
82	2
83	3
84	11
85	5
86	14
87	6
88	3
89	4
90	6
91	2
92	1
93	1
96	1
97	1
98	13
99	5
100	102
101	15
102	13
103	12
104	1
105	2
110	1
111	1
112	1
113	3
114	22
115	28
116	337
117	46
118	20
119	5
120	1
125	8
126	2
127	2
128	15
129	6
130	25
131	54
132	151
133	45
134	11
135	3
140	2
141	91
142	17
143	10
144	11
145	2
146	6
147	103
148	18
149	17
150	2
151	1
153	1
154	2
156	1
157	1
158	3
159	26
160	4
161	2
163	1
169	6
170	1
171	1
172	8
173	2
174	6
175	1
176	2
177	1
186	1
188	74
189	15
190	12
191	2
199	2
200	1
201	1
202	24
203	6
204	10
205	2
206	2
213	2
214	2
215	12
216	7
217	4
218	22
219	4
220	2
229	1
230	1
231	96
232	22
233	9
234	1
242	1
243	5
244	2
245	2
258	15
259	4
260	1
262	1
316	2
317	1
333	4
334	1
348	3
349	1
