Mass spectrum: Thymine; LC-ESI-QTOF; MS2; CE:30 V; [M+H]+
Name: Thymine
Name: T
Name: 2,4-Dihydroxy-5-methylpyrimidine
Name: 5-Methyluracil
Name: 5-Methylpyrimidine-2,4-diol
Class: Pyrimidines
Formula: C5H6N2O2
Exact mass: 126.04293
SMILES: CC(=C1)C(=O)NC(=O)N1
InChI: InChI=1S/C5H6N2O2/c1-3-2-6-5(9)7-4(3)8/h2H,1H3,(H2,6,7,8,9)
Instrument: UPLC Q-Tof Premier, Waters
Instrument type: LC-ESI-QTOF
Ms type: MS2
Ion mode: POSITIVE
Collision energy: 30 V
Fragmentation mode: LOW-ENERGY CID
Ionization: ESI
Precursor m/z: 127.05073
Precursor type: [M+H]+
m/z	relative intensity
54.0353	146
56.0504	143
82.0307	619
84.0466	687
109.0403	442
110.0260	999
127.0507	536
