Mass spectrum: Solasodine; LC-ESI-QTOF; MS2; CE:Ramp 5-60 V; [M+H]+
Name: Solasodine
Name: Salasodine
Name: Solancarpidine
Name: Purapuridine
Name: Solasod-5-en-3beta-ol
Class: Sterol Lipids; Sterols
Formula: C27H43NO2
Exact mass: 413.32938
SMILES: C(C1)[C@H](CN[C@@](O6)1[C@@H](C)[C@@]([C@]6([H])2)([H])[C@](C5)(C)[C@@]([C@]([C@@](C5)([H])3)([H])CC=C(C4)[C@]3(C)CC[C@@H]4O)([H])C2)C
InChI: InChI=1S/C27H43NO2/c1-16-7-12-27(28-15-16)17(2)24-23(30-27)14-22-20-6-5-18-13-19(29)8-10-25(18,3)21(20)9-11-26(22,24)4/h5,16-17,19-24,28-29H,6-15H2,1-4H3/t16-,17+,19+,20-,21+,22+,23+,24+,25+,26+,27-/m1/s1
Instrument: UPLC Q-Tof Premier, Waters
Instrument type: LC-ESI-QTOF
Ms type: MS2
Ion mode: POSITIVE
Collision energy: Ramp 5-60 V
Fragmentation mode: LOW-ENERGY CID
Ionization: ESI
Precursor m/z: 414.33716
Precursor type: [M+H]+
m/z	relative intensity
69.0403	85
70.0179	104
79.0258	321
81.5284	92
90.5279	278
99.5200	999
100.0217	81
100.5161	188
105.0773	353
111.0279	401
112.0221	126
121.0744	286
175.0376	168
399.0752	97
414.1088	324
414.1886	229
