Mass spectrum: Catechol; LC-ESI-QTOF; MS2; CE:Ramp 5-60 V; [M-H]-
Name: Catechol
Name: 1,2-dihydroxybenzen
Name: Pyrocatechol
Name: 1,2-Benzenediol
Name: Brenzcatechin
Name: o-Benzenediol
Name: Pyrocatechinic acid
Name: Pyrocatechuic Acid
Name: o-Diphenol
Name: Oxyphenic acid
Name: o-Phenylenediol
Name: Phthalhydroquinone
Class: Alcohol
Formula: C6H6O2
Exact mass: 110.03678
SMILES: Oc(c1)c(O)ccc1
InChI: InChI=1S/C6H6O2/c7-5-3-1-2-4-6(5)8/h1-4,7-8H
Instrument: UPLC Q-Tof Premier, Waters
Instrument type: LC-ESI-QTOF
Ms type: MS2
Ion mode: NEGATIVE
Collision energy: Ramp 5-60 V
Fragmentation mode: LOW-ENERGY CID
Ionization: ESI
Precursor m/z: 109.02898
Precursor type: [M-H]-
m/z	relative intensity
91.0189	30
108.0217	156
109.0290	999
