Mass spectrum: delta-Tocotrienol; LC-ESI-QTOF; MS2; CE:Ramp 5-60 V; [M+H]+
Name: delta-Tocotrienol
Name: 8-Methyltocotrienol
Name: (R)-delta-Tocotrienol
Class: Prenol Lipids
Formula: C27H40O2
Exact mass: 396.30283
SMILES: C([C@@]2(C)CCC=[C@](C)CCC=[C@](C)CCC=C(C)C)Cc(c1O2)cc(O)cc1C
InChI: InChI=1S/C27H40O2/c1-20(2)10-7-11-21(3)12-8-13-22(4)14-9-16-27(6)17-15-24-19-25(28)18-23(5)26(24)29-27/h10,12,14,18-19,28H,7-9,11,13,15-17H2,1-6H3/b21-12+,22-14+/t27-/m1/s1
Instrument: UPLC Q-Tof Premier, Waters
Instrument type: LC-ESI-QTOF
Ms type: MS2
Ion mode: POSITIVE
Collision energy: Ramp 5-60 V
Fragmentation mode: LOW-ENERGY CID
Ionization: ESI
Precursor m/z: 397.31061
Precursor type: [M+H]+
m/z	relative intensity
70.0075	96
75.0224	53
79.0122	68
81.5140	87
90.4982	244
90.5158	159
91.4973	61
98.5028	74
99.5037	999
100.0036	139
100.5019	349
111.0105	481
111.5095	65
112.0057	185
355.7804	56
397.0512	52
