Mass spectrum: 4-Hydroxyphenylpyruvic acid; GC-EI-TOF; MS; 3 TMS; BP:73
Name: 4-Hydroxyphenylpyruvic acid
Class: Natural Product
Formula: C9H8O4
Exact mass: 180.04226
SMILES: OC(=O)C(=O)Cc(c1)ccc(O)c1
InChI: InChI=1S/C9H8O4/c10-7-3-1-6(2-4-7)5-8(11)9(12)13/h1-4,10H,5H2,(H,12,13)
Instrument: Pegasus III TOF-MS system, Leco; GC 6890, Agilent Technologies
Instrument type: GC-EI-TOF
Ms type: MS
Ion mode: POSITIVE
Retention time: 432.898 sec
Base peak: 73
Derivative form: C18H32O4Si3
Derivative mass: 396.16084
Derivative type: 3 TMS
m/z	relative intensity
60	3
61	8
62	2
63	5
64	1
65	4
66	8
67	2
69	1
70	4
71	4
72	11
73	999
74	84
75	67
76	7
77	34
78	3
79	5
81	1
83	3
84	1
85	3
87	2
88	1
89	8
90	2
91	19
92	2
93	3
95	10
96	1
97	1
99	1
101	1
102	2
103	8
104	4
105	11
106	1
107	2
109	1
115	5
116	1
117	8
118	2
119	6
120	1
121	4
123	2
131	16
132	2
133	36
134	5
135	16
136	2
137	2
145	2
146	1
147	124
148	21
149	16
150	2
151	17
152	3
153	1
161	9
162	3
163	16
164	3
165	2
175	1
176	1
177	10
178	7
179	22
180	3
181	2
191	4
192	4
193	41
194	8
195	3
206	3
207	2
209	3
219	1
221	1
223	2
225	1
235	1
236	1
237	9
238	2
239	1
251	13
252	6
253	4
265	6
266	5
267	480
268	114
269	46
270	7
271	1
281	1
340	1
341	24
342	10
343	4
344	1
369	5
370	2
