Mass spectrum: L-Iditol; GC-EI-TOF; MS; 6 TMS; BP:73
Name: L-Iditol
Class: Natural Product
Formula: C6H14O6
Exact mass: 182.07904
SMILES: OC[C@H](O)[C@@H](O)[C@H](O)[C@@H](O)CO
InChI: InChI=1S/C6H14O6/c7-1-3(9)5(11)6(12)4(10)2-8/h3-12H,1-2H2/t3-,4-,5+,6+/m0/s1
Instrument: Pegasus III TOF-MS system, Leco; GC 6890, Agilent Technologies
Instrument type: GC-EI-TOF
Ms type: MS
Ion mode: POSITIVE
Retention time: 466.408 sec
Base peak: 73
Derivative form: C24H62O6Si6
Derivative mass: 614.3162
Derivative type: 6 TMS
m/z	relative intensity
60	3
61	4
66	4
67	2
69	4
70	2
71	3
72	17
73	999
74	86
75	49
76	3
77	4
81	2
83	9
84	1
85	3
87	5
88	4
89	25
90	2
91	1
97	6
99	3
101	20
102	4
103	226
104	21
105	9
111	2
113	4
115	5
116	6
117	102
118	10
119	8
127	2
129	72
130	9
131	24
132	3
133	49
134	7
135	4
141	1
142	1
143	13
144	1
145	3
147	278
148	43
149	26
150	2
151	1
155	3
157	45
158	6
159	3
161	2
163	4
169	3
173	1
175	6
176	1
177	3
183	6
184	1
189	26
190	7
191	28
192	5
193	2
201	1
203	3
204	33
205	132
206	26
207	14
208	2
215	1
217	193
218	40
219	17
220	2
221	7
222	1
223	1
229	13
230	4
231	13
232	3
233	1
243	1
247	1
255	6
256	1
257	1
259	4
260	1
265	1
277	7
278	4
279	1
291	5
292	1
305	5
306	4
307	29
308	8
309	4
318	1
319	101
320	31
321	15
322	3
331	9
332	3
333	1
345	4
346	1
409	2
410	1
419	3
420	1
421	3
422	1
