Mass spectrum: Amantadine; GC-EI-TOF; MS; 1 TMS; BP:166
Name: Amantadine
Class: Natural Product
Formula: C10H17N
Exact mass: 151.13610
SMILES: NC(C3)(C1)CC(C2)CC(CC23)1
InChI: InChI=1S/C10H17N/c11-10-4-7-1-8(5-10)3-9(2-7)6-10/h7-9H,1-6,11H2
Instrument: Pegasus III TOF-MS system, Leco; GC 6890, Agilent Technologies
Instrument type: GC-EI-TOF
Ms type: MS
Ion mode: POSITIVE
Retention time: 363.037 sec
Base peak: 166
Derivative form: C13H25NSi
Derivative mass: 223.17563
Derivative type: 1 TMS
m/z	relative intensity
60	26
61	5
62	3
63	5
64	2
65	39
66	21
67	75
68	3
69	10
70	19
71	13
72	28
73	648
74	104
75	21
76	7
77	95
78	18
79	101
80	25
81	33
82	13
83	16
84	18
85	16
86	10
87	2
88	5
89	2
90	3
91	78
92	14
93	81
94	95
95	22
96	10
97	10
98	25
99	9
100	19
101	3
102	5
103	3
104	7
105	12
106	8
107	20
108	18
109	9
110	14
111	5
112	9
113	11
114	81
115	18
116	5
117	3
118	1
119	3
120	7
121	3
122	3
123	4
124	9
125	4
126	11
127	2
128	7
129	198
130	30
131	10
132	4
133	4
134	11
135	29
136	15
137	3
138	6
139	5
140	7
141	2
142	3
143	1
146	2
147	1
148	10
149	5
150	252
151	49
152	27
153	9
154	10
155	3
156	1
157	1
158	1
159	1
160	1
161	1
162	2
163	1
164	12
165	6
166	999
167	189
168	52
169	6
178	1
179	2
180	47
181	12
182	6
183	1
192	1
194	1
206	2
207	1
208	146
209	28
210	7
222	7
223	177
224	35
225	9
226	1
