Mass spectrum: Caffeic acid; LC-ESI-QTOF; MS2; CE:Ramp 5-60 V; [M-H]-
Name: 3,4-dihydroxycinnamic acid
Name: Caffeic acid
Name: (E)-3-(3,4-dihydroxyphenyl)prop-2-enoic acid
Class: Natural Product
Formula: C9H8O4
Exact mass: 180.04226
SMILES: C1=CC(=C(C=C1/C=C/C(=O)O)O)O
InChI: InChI=1S/C9H8O4/c10-7-3-1-6(5-8(7)11)2-4-9(12)13/h1-5,10-11H,(H,12,13)/b4-2+
Instrument: UPLC Q-Tof Premier, Waters
Instrument type: LC-ESI-QTOF
Ms type: MS2
Ion mode: NEGATIVE
Collision energy: Ramp 5-60 V
Fragmentation mode: LOW-ENERGY CID
Ionization: ESI
Full scan fragment ion peak: 179
Ion type: [M-H]-
m/z	relative intensity
89.0394	15
107.0502	24
117.0335	11
134.0370	141
135.0444	999
135.2203	22
135.3488	10
135.3757	12
135.4208	9
135.5416	12
135.6492	10
179.0344	358
