Mass spectrum: Benzocaine; GC-EI-TOF; MS; 1 TMS; BP:222
Name: Benzocaine
Name: Ethyl aminobenzoate
Class: Natural Product
Formula: C9H11NO2
Exact mass: 165.07898
SMILES: CCOC(=O)c(c1)ccc(N)c1
InChI: InChI=1S/C9H11NO2/c1-2-12-9(11)7-3-5-8(10)6-4-7/h3-6H,2,10H2,1H3
Instrument: Pegasus III TOF-MS system, Leco; GC 6890, Agilent Technologies
Instrument type: GC-EI-TOF
Ms type: MS
Ion mode: POSITIVE
Retention time: 471.364 sec
Base peak: 222
Derivative form: C12H19NO2Si
Derivative mass: 237.11851
Derivative type: 1 TMS
m/z	relative intensity
63	14
64	12
70	6
72	6
73	166
82	1
96	1
99	3
102	5
122	3
124	1
130	4
131	3
132	10
133	17
134	44
136	11
138	5
141	1
142	1
143	4
145	1
146	28
147	6
148	141
149	325
150	253
151	22
152	4
154	1
155	1
160	11
162	63
163	46
164	34
165	15
166	43
167	11
168	3
169	2
170	4
172	1
174	4
175	1
176	255
177	36
178	53
179	14
180	5
185	1
187	2
190	5
192	417
193	89
194	263
195	61
196	9
197	3
199	2
203	1
204	5
206	3
207	4
208	3
209	45
210	13
212	1
215	1
217	2
220	4
221	4
222	999
223	146
224	36
225	5
226	3
228	3
231	3
234	1
236	8
237	628
238	128
239	13
243	5
244	2
245	4
247	1
248	1
250	3
252	2
253	2
255	1
256	2
257	2
259	2
260	1
261	3
262	1
265	1
268	1
326	1
722	1
