Mass spectrum: Myricitrin; LC-ESI-QTOF; MS2; CE:Ramp 5-60 V; [M+H]+
Name: myricetin-3-O-rhamnoside
Name: Myricitrin
Name: Myrc_3_Rha
Name: 5,7-dihydroxy-3-[(2S,3R,4R,5S,6S)-3,4,5-trihydroxy-6-methyl-oxan-2-yl]oxy-2-(3,4,5-trihydroxyphenyl)chromen-4-one
Class: Natural Product
Formula: C21H20O12
Exact mass: 464.09548
SMILES: Oc(c4)cc(O1)c(c(O)4)C(=O)C(O[C@H](O3)[C@H](O)[C@H](O)[C@@H](O)[C@H](C)3)=C1c(c2)cc(O)c(O)c(O)2
InChI: InChI=1S/C21H20O12/c1-6-14(26)17(29)18(30)21(31-6)33-20-16(28)13-9(23)4-8(22)5-12(13)32-19(20)7-2-10(24)15(27)11(25)3-7/h2-6,14,17-18,21-27,29-30H,1H3/t6-,14-,17+,18+,21-/m0/s1
Instrument: UPLC Q-Tof Premier, Waters
Instrument type: LC-ESI-QTOF
Ms type: MS2
Ion mode: POSITIVE
Collision energy: Ramp 5-60 V
Fragmentation mode: LOW-ENERGY CID
Ionization: ESI
Full scan fragment ion peak: 465.1
Ion type: [M+H]+
m/z	relative intensity
71.0394	87
85.0211	137
85.0689	14
129.0520	58
137.0217	10
147.0644	12
153.0172	67
165.0174	27
217.0495	25
245.0439	37
273.0390	37
319.0432	999
319.1336	56
320.0487	56
465.1033	28
