Mass spectrum: Adenosine 3'-monophosphate; LC-ESI-QTOF; MS2; CE:Ramp 5-60 V; [M+H]+
Name: Adenosine 3'-monophosphate
Name: 3'-AMP
Name: 3'-Adenylic acid
Name: Synadenylic acid
Name: 3'-Adenosine monophosphate
Name: AMP 3'-phosphate
Class: Natural Product; Nucleoside; Phosphates
Formula: C10H14N5O7P
Exact mass: 347.06308
SMILES: OC[C@@H](O1)[C@@H](OP(O)(O)=O)[C@@H](O)[C@@H]1n(c3)c(n2)c(n3)c(N)nc2
InChI: InChI=1S/C10H14N5O7P/c11-8-5-9(13-2-12-8)15(3-14-5)10-6(17)7(4(1-16)21-10)22-23(18,19)20/h2-4,6-7,10,16-17H,1H2,(H2,11,12,13)(H2,18,19,20)/t4-,6-,7-,10-/m1/s1
Instrument: UPLC Q-Tof Premier, Waters
Instrument type: LC-ESI-QTOF
Ms type: MS2
Ion mode: POSITIVE
Collision energy: Ramp 5-60 V
Fragmentation mode: LOW-ENERGY CID
Ionization: ESI
Precursor m/z: 348.07088
Precursor type: [M+H]+
m/z	relative intensity
119.0362	61
136.0627	999
348.0709	175
