Mass spectrum: Dihydrocapsaicin; LC-ESI-QTOF; MS2; CE:Ramp 5-60 V; [M-H]-
Name: Dihydrocapsaicin
Name: Dihydrocapsacine
Name: 8-Methyl-N-vanillylnonanamide
Name: N-((4-hydroxy-3-methoxyphenyl)methyl)-8-methyl-nonanamide
Class: Capsaicinoids
Formula: C18H29NO3
Exact mass: 307.21474
SMILES: CC(C)CCCCCCC(=O)NCc(c1)cc(OC)c(O)c1
InChI: InChI=1S/C18H29NO3/c1-14(2)8-6-4-5-7-9-18(21)19-13-15-10-11-16(20)17(12-15)22-3/h10-12,14,20H,4-9,13H2,1-3H3,(H,19,21)
Instrument: UPLC Q-Tof Premier, Waters
Instrument type: LC-ESI-QTOF
Ms type: MS2
Ion mode: NEGATIVE
Collision energy: Ramp 5-60 V
Fragmentation mode: LOW-ENERGY CID
Ionization: ESI
Precursor m/z: 306.20693
Precursor type: [M-H]-
m/z	relative intensity
170.1565	999
306.2069	78
