Mass spectrum: Guanosine; GC-EI-TOF; MS; 4 TMS; BP:73
Name: Guanosine
Class: Natural Product
Formula: C10H13N5O5
Exact mass: 283.091669
SMILES: C1=NC2=C(N1[C@H]3[C@@H]([C@@H]([C@H](O3)CO)O)O)N=C(NC2=O)N
InChI: InChI=1S/C10H13N5O5/c11-10-13-7-4(8(19)14-10)12-2-15(7)9-6(18)5(17)3(1-16)20-9/h2-3,5-6,9,16-18H,1H2,(H3,11,13,14,19)/t3-,5-,6-,9-/m1/s1
Instrument: Pegasus III TOF-MS system, Leco; GC 6890, Agilent Technologies
Instrument type: GC-EI-TOF
Ms type: MS
Ion mode: POSITIVE
Retention time: 612.949 sec
Base peak: 73
Derivative form: C22H45N5O5Si4
Derivative mass: 571.24978
Derivative type: 4 TMS
m/z	relative intensity
60	4
61	9
62	1
65	2
66	4
67	4
69	8
70	7
71	5
72	20
73	999
74	91
75	69
76	5
77	10
79	4
81	4
83	2
84	13
85	11
86	5
87	4
88	1
89	11
90	1
91	1
92	1
94	1
95	2
97	6
98	2
99	9
100	4
101	18
102	4
103	98
104	9
105	6
107	1
109	1
110	7
111	12
112	3
113	9
114	2
115	15
116	9
117	21
118	3
119	6
120	1
123	1
124	2
125	3
126	2
127	4
128	1
129	30
130	3
131	15
132	3
133	28
134	5
135	4
136	1
137	1
138	6
139	2
140	2
141	4
142	4
143	15
144	3
145	7
146	1
147	78
148	13
149	11
150	3
151	1
152	1
153	3
154	1
155	2
156	1
157	6
158	2
159	2
161	1
162	1
163	3
164	2
165	3
166	8
167	2
168	2
169	17
170	3
171	4
172	1
173	2
175	1
176	1
177	3
178	1
179	1
180	1
181	1
183	1
189	8
190	2
191	3
192	3
193	57
194	8
195	3
203	1
204	2
205	3
206	3
207	10
208	6
209	23
210	4
211	1
215	4
216	2
217	116
218	25
219	12
220	2
221	2
222	1
229	2
230	92
231	22
232	9
233	3
234	1
235	1
236	1
237	33
238	5
239	2
243	24
244	6
245	59
246	12
247	6
248	1
249	1
257	2
258	5
259	33
260	9
261	3
265	7
266	2
267	2
279	2
280	12
281	42
282	10
283	4
307	9
308	2
309	3
310	1
320	1
321	1
322	1
323	6
324	1
335	2
338	1
339	1
347	1
348	6
349	2
363	1
395	2
453	1
540	2
541	5
542	2
543	1
