Mass spectrum: UDP-D-Galactose; LC-ESI-QTOF; MS2; CE:Ramp 5-60 V; [M-H]-
Name: UDP-Galactose
Name: UDP-Gal
Name: Uridine-5'-diphosphogalactose
Name: UDP-D-galactopyranose
Name: UDP-D-Galactose
Class: Nucleotide-carbohydrates
Formula: C15H24N2O17P2
Exact mass: 566.05502
SMILES: OCC(O1)C(O)C(O)C(O)C1OP(O)(=O)OP(O)(=O)OCC(O2)C(O)C(O)C2N(C=3)C(=O)NC(=O)C3
InChI: InChI=1S/C15H24N2O17P2/c18-3-5-8(20)10(22)12(24)14(32-5)33-36(28,29)34-35(26,27)30-4-6-9(21)11(23)13(31-6)17-2-1-7(19)16-15(17)25/h1-2,5-6,8-14,18,20-24H,3-4H2,(H,26,27)(H,28,29)(H,16,19,25)/t5-,6-,8+,9-,10+,11-,12-,13-,14-/m1/s1
Instrument: UPLC Q-Tof Premier, Waters
Instrument type: LC-ESI-QTOF
Ms type: MS2
Ion mode: NEGATIVE
Collision energy: Ramp 5-60 V
Fragmentation mode: LOW-ENERGY CID
Ionization: ESI
Precursor m/z: 565.04722
Precursor type: [M-H]-
m/z	relative intensity
78.9604	721
96.9706	433
111.0208	132
138.9812	53
150.9810	53
158.9264	296
211.0025	105
241.0131	60
272.9595	132
320.9801	73
323.0303	902
384.9868	133
402.9992	59
565.0472	999
