Mass spectrum: S-Carboxymethyl-L-cysteine; GC-EI-TOF; MS; n TMS; BP:73
Name: S-Carboxymethyl-L-cysteine
Name: L-Carbocisteine
Class: Natural Product
Formula: C5H9NO4S
Exact mass: 179.02523
SMILES: OC(=O)C(N)CSCC(O)=O
InChI: InChI=1S/C5H9NO4S/c6-3(5(9)10)1-11-2-4(7)8/h3H,1-2,6H2,(H,7,8)(H,9,10)/t3-/m0/s1
Instrument: Pegasus III TOF-MS system, Leco; GC 6890, Agilent Technologies
Instrument type: GC-EI-TOF
Ms type: MS
Ion mode: POSITIVE
Retention time: 479.105 sec
Base peak: 73
Derivative form: C{5+3*n}H{9+8*n}NO4SSi{n}
Derivative mass: 179.02523+72.03953*n
Derivative type: n TMS
m/z	relative intensity
60	19
61	31
62	3
63	3
66	6
67	1
69	1
70	17
71	7
72	43
73	999
74	115
75	197
76	22
77	37
78	4
79	9
82	2
83	2
84	6
85	4
86	13
87	14
88	11
89	6
90	3
91	4
92	1
93	2
98	6
99	3
100	197
101	34
102	17
103	18
104	11
105	8
106	1
112	1
113	1
114	10
115	44
116	35
117	23
118	5
119	11
120	2
121	1
128	4
129	7
130	19
131	23
132	21
133	26
134	5
135	3
142	1
143	1
144	6
145	2
146	64
147	161
148	33
149	24
150	3
151	1
156	1
158	3
159	3
160	3
161	4
162	1
163	10
164	1
165	1
172	8
173	2
174	6
175	1
176	1
177	3
179	2
188	10
189	3
190	4
191	2
193	1
200	1
202	1
203	3
204	3
205	2
206	2
207	1
216	11
217	3
218	275
219	54
220	31
221	11
222	3
223	1
231	5
232	12
233	3
234	2
235	68
236	15
237	10
238	2
246	1
262	7
263	2
264	1
277	1
278	63
279	15
280	9
281	1
290	7
291	1
309	5
310	1
311	1
352	1
380	2
