Mass spectrum: Niacinamide; LC-ESI-QTOF; MS2; CE:Ramp 5-60 V; [M+H]+
Name: Niacinamide
Name: NAM
Name: Vitamin B3
Name: Vitamin PP
Name: Nicotinamide
Name: Nicotinic acid amide
Name: Pyridine-3-carboxylic acid amide
Name: Amide PP
Name: Benicot
Name: Delonin amide
Name: Amnicotin
Name: Endobion
Name: Nicobion
Name: Pelonin amide
Name: 3-Pyridinecarboxamide
Class: Pyridines
Formula: C6H6N2O
Exact mass: 122.04801
SMILES: NC(=O)c(c1)cncc1
InChI: InChI=1S/C6H6N2O/c7-6(9)5-2-1-3-8-4-5/h1-4H,(H2,7,9)
Instrument: UPLC Q-Tof Premier, Waters
Instrument type: LC-ESI-QTOF
Ms type: MS2
Ion mode: POSITIVE
Collision energy: Ramp 5-60 V
Fragmentation mode: LOW-ENERGY CID
Ionization: ESI
Precursor m/z: 123.05581
Precursor type: [M+H]+
m/z	relative intensity
78.0356	84
80.0513	371
96.0468	55
123.0558	999
