Mass spectrum: Leupeptin; LC-ESI-QTOF; MS2; CE:Ramp 5-60 V; [M-H]-
Name: Leupeptin
Name: Acetyl-Leu-Leu-Arg-al
Name: N-Acetyl-L-leucyl-L-leucyl-L-argininal
Formula: C20H38N6O4
Exact mass: 426.29545
SMILES: NC(=N)NCCCC(C=O)NC(=O)C(CC(C)C)NC(=O)C(CC(C)C)NC(C)=O
InChI: InChI=1S/C20H38N6O4/c1-12(2)9-16(24-14(5)28)19(30)26-17(10-13(3)4)18(29)25-15(11-27)7-6-8-23-20(21)22/h11-13,15-17H,6-10H2,1-5H3,(H,24,28)(H,25,29)(H,26,30)(H4,21,22,23)/t15-,16+,17+/m1/s1
Instrument: UPLC Q-Tof Premier, Waters
Instrument type: LC-ESI-QTOF
Ms type: MS2
Ion mode: NEGATIVE
Collision energy: Ramp 5-60 V
Fragmentation mode: LOW-ENERGY CID
Ionization: ESI
Precursor m/z: 425.28764
Precursor type: [M-H]-
m/z	relative intensity
129.1033	118
228.1725	135
341.2566	134
383.2702	289
425.2876	999
