Mass spectrum: Cyanidin-3,5-di-O-glucoside; LC-ESI-QTOF; MS2; CE:Ramp 5-60 V; [M-2H+H2O]-
Name: Cyanidin-3, 5-di-O-glucoside
Name: Cyanin
Name: (2S,3R,4S,5S,6R)-2-[2-(3,4-dihydroxyphenyl)-7-hydroxy-5-[(2S,3R,4S,5S,6R)-3,4,5-trihydroxy-6-(hydroxymethyl)oxan-2-yl]oxychromenylium-3-yl]oxy-6-(hydroxymethyl)oxane-3,4,5-triol
Name: Cyanidin-3,5-di-O-glucoside
Class: Natural Product
Formula: [C27H31O16]+
Exact mass: 611.16121
SMILES: c(c(c([o+1]2)c(OC(O5)C(C(C(C5CO)O)O)O)cc(c3OC(O4)C(C(C(C4CO)O)O)O)c(cc(c3)O)2)1)c(O)c(O)cc1
InChI: InChI=1S/C27H30O16/c28-7-17-19(33)21(35)23(37)26(42-17)40-15-5-10(30)4-14-11(15)6-16(25(39-14)9-1-2-12(31)13(32)3-9)41-27-24(38)22(36)20(34)18(8-29)43-27/h1-6,17-24,26-29,33-38H,7-8H2,(H2-,30,31,32)/p+1/t17-,18-,19-,20-,21+,22+,23-,24-,26-,27-/m1/s1
Instrument: UPLC Q-Tof Premier, Waters
Instrument type: LC-ESI-QTOF
Ms type: MS2
Ion mode: NEGATIVE
Collision energy: Ramp 5-60 V
Fragmentation mode: LOW-ENERGY CID
Ionization: ESI
Full scan fragment ion peak: 627.2
Ion type: [M-2H+H2O]-
m/z	relative intensity
109.0292	60
125.0240	63
137.0247	28
149.0243	88
164.0116	22
165.0193	105
166.0268	56
167.0348	127
175.0399	35
176.0114	20
190.9979	46
192.0061	52
193.0141	266
199.0401	44
217.0510	42
223.0401	26
241.0507	94
243.0301	25
267.0300	288
284.0330	54
285.0406	345
303.0516	121
309.0401	20
329.0884	123
339.0718	40
355.0674	181
447.0936	185
465.1041	394
466.1080	29
517.1210	28
627.1561	999
628.1611	87
