Mass spectrum: L-Alanine; GC-EI-TOF; MS; 3 TMS; BP:116
Name: L-Alanine
Name: L-2-Aminopropionic acid
Name: L-alpha-Alanine
Class: Natural Product
Formula: C3H7NO2
Exact mass: 89.04768
SMILES: CC(N)C(O)=O
InChI: InChI=1S/C3H7NO2/c1-2(4)3(5)6/h2H,4H2,1H3,(H,5,6)/t2-/m0/s1
Instrument: Pegasus III TOF-MS system, Leco; GC 6890, Agilent Technologies
Instrument type: GC-EI-TOF
Ms type: MS
Ion mode: POSITIVE
Retention time: 244.996 sec
Base peak: 116
Derivative form: C12H31NO2Si3
Derivative mass: 305.16626
Derivative type: 3 TMS
m/z	relative intensity
60	18
61	26
62	2
63	1
66	23
67	3
69	1
70	12
71	5
72	20
73	813
74	81
75	71
76	7
77	11
78	1
79	3
83	1
84	4
85	2
86	18
87	6
88	6
89	2
93	1
94	17
95	2
98	1
99	1
100	47
101	12
102	12
103	36
104	3
105	3
113	1
114	9
115	10
116	999
117	127
118	45
119	5
128	13
129	2
130	3
131	12
132	5
133	19
134	3
135	1
144	2
146	2
147	177
148	29
149	16
150	1
174	1
190	36
191	8
192	3
218	12
219	2
220	1
