Mass spectrum: Apigenin; LC-ESI-QTOF; MS2; CE:30 eV; [M+H]+
Name: 4',5,7-trihydroxyflavone
Name: Apigenin
Name: Apig
Name: 5,7-dihydroxy-2-(4-hydroxyphenyl)chromen-4-one
Class: Natural Product
Formula: C15H10O5
Exact mass: 270.05282
SMILES: Oc(c3)ccc(c3)C(=C1)Oc(c2)c(c(O)cc(O)2)C(=O)1
InChI: InChI=1S/C15H10O5/c16-9-3-1-8(2-4-9)13-7-12(19)15-11(18)5-10(17)6-14(15)20-13/h1-7,16-18H
Instrument: UPLC Q-Tof Premier, Waters
Instrument type: LC-ESI-QTOF
Ms type: MS2
Ion mode: POSITIVE
Collision energy: 30 eV
Fragmentation mode: LOW-ENERGY CID
Ionization: ESI
Full scan fragment ion peak: 271.1
Ion type: [M+H]+
m/z	relative intensity
67.0075	94
68.9870	96
91.0484	225
111.0044	30
119.0466	434
119.1016	44
121.0260	166
141.0694	52
145.0276	170
153.0178	999
153.0811	90
163.0387	72
169.0650	31
197.0605	39
225.0558	40
229.0505	40
243.0665	72
271.0606	571
271.1428	34
