Mass spectrum: S-Lactoylglutathione; LC-ESI-QTOF; MS2; CE:Ramp 5-60 V; [M+H]+
Name: S-Lactoylglutathione
Name: S-Pyruvoylglutathione
Name: S-Pyruvylglutathione
Class: Peptide
Formula: C13H21N3O8S
Exact mass: 379.10494
SMILES: OC(=O)CNC(=O)[C@@H](NC(=O)CC[C@H](N)C(O)=O)CSC(=O)[C@@H](C)O
InChI: InChI=1S/C13H21N3O8S/c1-6(17)13(24)25-5-8(11(21)15-4-10(19)20)16-9(18)3-2-7(14)12(22)23/h6-8,17H,2-5,14H2,1H3,(H,15,21)(H,16,18)(H,19,20)(H,22,23)/t6-,7+,8+/m1/s1
Instrument: UPLC Q-Tof Premier, Waters
Instrument type: LC-ESI-QTOF
Ms type: MS2
Ion mode: POSITIVE
Collision energy: Ramp 5-60 V
Fragmentation mode: LOW-ENERGY CID
Ionization: ESI
Precursor m/z: 380.11273
Precursor type: [M+H]+
m/z	relative intensity
76.0228	836
84.0451	593
116.0179	207
130.0360	323
148.0441	584
162.0244	203
233.0606	999
251.0718	210
380.1127	481
