Mass spectrum: Luteolin; LC-ESI-QTOF; MS2; CE:30 V; [M-H]-
Name: Luteolin
Name: Lutl
Name: 3',4',5,7-tetrahydroxyflavone
Name: Digitoflavone
Name: Flacitran
Name: Luteolol
Name: Weld Lake
Name: Yama kariyasu
Name: 4H-1-Benzopyran-4-one, 2-(3,4-dihydroxyphenyl)-5,7-dihydroxy-
Name: Cyanidenon 1470
Class: Flavonoid
Formula: C15H10O6
Exact mass: 286.04774
SMILES: Oc(c3)c(O)cc(c3)C(=C1)Oc(c2)c(c(O)cc(O)2)C(=O)1
InChI: InChI=1S/C15H10O6/c16-8-4-11(19)15-12(20)6-13(21-14(15)5-8)7-1-2-9(17)10(18)3-7/h1-6,16-19H
Instrument: UPLC Q-Tof Premier, Waters
Instrument type: LC-ESI-QTOF
Ms type: MS2
Ion mode: NEGATIVE
Collision energy: 30 V
Fragmentation mode: LOW-ENERGY CID
Ionization: ESI
Precursor m/z: 285.03994
Precursor type: [M-H]-
m/z	relative intensity
63.0246	20
65.0044	63
83.0138	55
105.0345	29
107.0139	145
121.0287	46
132.0204	61
133.0282	999
143.0498	16
145.0287	15
147.0435	13
149.0236	52
151.0021	93
171.0441	18
174.0300	11
175.0391	72
198.0315	18
199.0384	39
201.0176	28
215.0341	14
217.0483	13
285.0399	22
