Mass spectrum: Benzylglucosinolate; LC-ESI-QTOF; MS2; CE:Ramp 5-60 V; [M+K]+
Name: Benzylglucosinolate
Name: Glucotropaeolin
Name: Glucotropeolin
Class: Glucosinolate
Formula: C14H19NO9S2
Exact mass: 409.05012
SMILES: OCC(O1)C(O)C(O)C(O)C1SC(Cc(c2)cccc2)=NOS(O)(=O)=O
InChI: InChI=1S/C14H19NO9S2/c16-7-9-11(17)12(18)13(19)14(23-9)25-10(15-24-26(20,21)22)6-8-4-2-1-3-5-8/h1-5,9,11-14,16-19H,6-7H2,(H,20,21,22)/b15-10+/t9-,11-,12+,13-,14+/m1/s1
Instrument: UPLC Q-Tof Premier, Waters
Instrument type: LC-ESI-QTOF
Ms type: MS2
Ion mode: POSITIVE
Collision energy: Ramp 5-60 V
Fragmentation mode: LOW-ENERGY CID
Ionization: ESI
Derivative form: C14H19NO9S2.K.H2O
Derivative mass: 465.54
Precursor m/z: 448.0138
Precursor type: [M+K]+
m/z	relative intensity
91.0551	165
98.9797	408
99.5160	95
105.0714	127
159.0030	228
314.9533	186
368.0660	999
448.0138	246
