Mass spectrum: Farnesol; LC-ESI-QTOF; MS2; CE:Ramp 5-60 V; [M-H]-
Name: Farnesol (mixture of isomers)
Name: Farnesyl alcohol
Name: 3,7,11-Trimethyl-2,6,10-dodecatrien-1-ol
Name: 3,7,11-Trimethyldodeca-2,6,10-trien-1-ol
Name: Dihydrofarnesol
Name: Stirrup
Name: Polyprenol
Name: Farnesol
Class: Prenol Lipids; Isoprenoids
Formula: C15H26O
Exact mass: 222.19837
SMILES: OCC=C(C)CCC=C(C)CCC=C(C)C
InChI: InChI=1S/C15H26O/c1-13(2)7-5-8-14(3)9-6-10-15(4)11-12-16/h7,9,11,16H,5-6,8,10,12H2,1-4H3
Instrument: UPLC Q-Tof Premier, Waters
Instrument type: LC-ESI-QTOF
Ms type: MS2
Ion mode: NEGATIVE
Collision energy: Ramp 5-60 V
Fragmentation mode: LOW-ENERGY CID
Ionization: ESI
Precursor m/z: 221.19055
Precursor type: [M-H]-
m/z	relative intensity
143.9200	223
144.9197	155
145.9212	346
160.9231	671
162.9250	999
204.8963	154
205.8968	430
220.9050	878
