Mass spectrum: Maritimein; LC-ESI-QTOF; MS2; CE:Ramp 5-60 V; [M+H]+
Name: Maritimein
Name: Mrtm-6-Glc
Name: maritimetin-6-O-glucoside
Name: 3',4'6,7-Tetrahydroxy-6-O-glucosylaurone
Class: Flavonoid
Formula: C21H20O11
Exact mass: 448.10056
SMILES: OCC(O1)C(O)C(O)C(O)C1Oc(c4)c(O)c(o2)c(c4)c(=O)c(=Cc(c3)cc(O)c(O)c3)2
InChI: InChI=1S/C21H20O11/c22-7-14-16(26)18(28)19(29)21(32-14)31-12-4-2-9-15(25)13(30-20(9)17(12)27)6-8-1-3-10(23)11(24)5-8/h1-6,14,16,18-19,21-24,26-29H,7H2/b13-6-/t14-,16-,18+,19-,21-/m1/s1
Instrument: UPLC Q-Tof Premier, Waters
Instrument type: LC-ESI-QTOF
Ms type: MS2
Ion mode: POSITIVE
Collision energy: Ramp 5-60 V
Fragmentation mode: LOW-ENERGY CID
Ionization: ESI
Precursor m/z: 449.10836
Precursor type: [M+H]+
m/z	relative intensity
153.0196	164
161.0251	90
185.0610	46
213.0567	48
231.0670	65
241.0505	88
287.0546	999
449.1084	41
