Mass spectrum: N-Acetyl-DL-glutamic acid; LC-ESI-QTOF; MS2; CE:Ramp 5-60 V; [M-H]-
Name: N-Acetyl-DL-glutamic acid
Name: Ac-Glu
Name: N-Acetyl-DL-glutamate
Name: N-Acetylglutamate
Name: 2-(Acetylamino)pentanedioic Acid
Class: Amino acids
Formula: C7H11NO5
Exact mass: 189.06372
SMILES: CC(=O)NC(CCC(O)=O)C(O)=O
InChI: InChI=1S/C7H11NO5/c1-4(9)8-5(7(12)13)2-3-6(10)11/h5H,2-3H2,1H3,(H,8,9)(H,10,11)(H,12,13)
Instrument: UPLC Q-Tof Premier, Waters
Instrument type: LC-ESI-QTOF
Ms type: MS2
Ion mode: NEGATIVE
Collision energy: Ramp 5-60 V
Fragmentation mode: LOW-ENERGY CID
Ionization: ESI
Precursor m/z: 188.05592
Precursor type: [M-H]-
m/z	relative intensity
100.0766	214
102.0561	999
128.0347	992
144.0657	323
146.0462	98
170.0453	316
188.0559	677
