Mass spectrum: Formononetin; LC-ESI-QTOF; MS2; CE:Ramp 5-60 V; [M-H]-
Name: Formononetin
Name: Formononectin
Name: Formononetol
Name: Biochanin B
Name: Neochanin
Name: 7-Hydroxy-4'-Methoxyisoflavone
Name: 7-Hydroxy-3-(4-methoxyphenyl)chromone
Name: 7-Hydroxy-3-(4-methoxyphenyl)-4-benzopyrone
Name: 7-Hydroxy-3-(4-methoxyphenyl)chromen-4-one
Class: Isoflavones
Formula: C16H12O4
Exact mass: 268.07356
SMILES: COc(c3)ccc(c3)C(=C1)C(=O)c(c2)c(cc(O)c2)O1
InChI: InChI=1S/C16H12O4/c1-19-12-5-2-10(3-6-12)14-9-20-15-8-11(17)4-7-13(15)16(14)18/h2-9,17H,1H3
Instrument: UPLC Q-Tof Premier, Waters
Instrument type: LC-ESI-QTOF
Ms type: MS2
Ion mode: NEGATIVE
Collision energy: Ramp 5-60 V
Fragmentation mode: LOW-ENERGY CID
Ionization: ESI
Precursor m/z: 267.06576
Precursor type: [M-H]-
m/z	relative intensity
91.0193	126
132.0221	164
135.0092	93
195.0458	343
223.0409	408
251.0359	230
252.0432	999
267.0658	926
