Mass spectrum: 3,4-Dimethoxycinnamic acid; LC-ESI-QTOF; MS2; CE:Ramp 5-60 V; [M+H-H2O]+
Name: 3,4-Dimethoxycinnamic acid
Name: Dimethyl caffeic acid
Name: (E)-3-(3,4-dimethoxyphenyl)prop-2-enoic acid
Class: Natural Product
Formula: C11H12O4
Exact mass: 208.07356
SMILES: COc(c1)c(OC)cc(C=CC(O)=O)c1
InChI: InChI=1S/C11H12O4/c1-14-9-5-3-8(4-6-11(12)13)7-10(9)15-2/h3-7H,1-2H3,(H,12,13)/b6-4+
Instrument: UPLC Q-Tof Premier, Waters
Instrument type: LC-ESI-QTOF
Ms type: MS2
Ion mode: POSITIVE
Collision energy: Ramp 5-60 V
Fragmentation mode: LOW-ENERGY CID
Ionization: ESI
Full scan fragment ion peak: 191.1
Ion type: [M+H-H2O]+
m/z	relative intensity
77.0386	53
79.0542	31
89.0387	59
90.0471	25
91.0545	162
91.1051	36
102.0468	56
103.0544	62
105.0338	76
105.0697	36
117.0338	40
118.0421	55
119.0497	136
119.1074	21
120.0575	62
132.0576	137
132.1183	23
133.0291	104
133.0652	35
133.0900	20
147.0451	68
148.0528	236
148.1164	42
160.0527	50
163.0762	412
163.1436	68
176.0474	56
191.0708	999
191.1438	169
191.2843	23
