Mass spectrum: Formononetin; LC-ESI-QTOF; MS2; CE:Ramp 5-60 V; [M+H]+
Name: Formononetin
Name: Formononectin
Name: Formononetol
Name: Biochanin B
Name: Neochanin
Name: 7-Hydroxy-4'-Methoxyisoflavone
Name: 7-Hydroxy-3-(4-methoxyphenyl)chromone
Name: 7-Hydroxy-3-(4-methoxyphenyl)-4-benzopyrone
Name: 7-Hydroxy-3-(4-methoxyphenyl)chromen-4-one
Class: Isoflavones
Formula: C16H12O4
Exact mass: 268.07356
SMILES: COc(c3)ccc(c3)C(=C1)C(=O)c(c2)c(cc(O)c2)O1
InChI: InChI=1S/C16H12O4/c1-19-12-5-2-10(3-6-12)14-9-20-15-8-11(17)4-7-13(15)16(14)18/h2-9,17H,1H3
Instrument: UPLC Q-Tof Premier, Waters
Instrument type: LC-ESI-QTOF
Ms type: MS2
Ion mode: POSITIVE
Collision energy: Ramp 5-60 V
Fragmentation mode: LOW-ENERGY CID
Ionization: ESI
Precursor m/z: 269.08136
Precursor type: [M+H]+
m/z	relative intensity
118.0438	103
197.0627	254
213.0945	111
225.0582	107
226.0652	115
237.0580	147
253.0533	162
254.0608	114
269.0814	999
