Mass spectrum: 2-Coumaric acid; LC-ESI-QTOF; MS2; CE:Ramp 5-60 V; [M-H]-
Name: 2-Hydroxycinnamic acid, predominantly trans
Name: o-Coumaric acid
Name: 2-Coumarate
Name: (E)-3-(2-Hydroxyphenyl)-2-propenoic acid
Name: 2-Coumaric acid
Class: Carboxylic acids
Formula: C9H8O3
Exact mass: 164.04734
SMILES: OC(=O)C=Cc(c1)c(O)ccc1
InChI: InChI=1S/C9H8O3/c10-8-4-2-1-3-7(8)5-6-9(11)12/h1-6,10H,(H,11,12)/b6-5+
Instrument: UPLC Q-Tof Premier, Waters
Instrument type: LC-ESI-QTOF
Ms type: MS2
Ion mode: NEGATIVE
Collision energy: Ramp 5-60 V
Fragmentation mode: LOW-ENERGY CID
Ionization: ESI
Precursor m/z: 163.03954
Precursor type: [M-H]-
m/z	relative intensity
119.0501	430
162.8392	999
