Mass spectrum: L-Norvaline; GC-EI-TOF; MS; 4 TMS; BP:73
Name: L-Norvaline
Name: (S)-2-Aminopentanoic acid
Name: L-2-Aminopentanoic acid
Name: L-2-Aminovaleric acid
Class: Natural Product
Formula: C5H11NO2
Exact mass: 117.07898
SMILES: CCC[C@H](N)C(O)=O
InChI: InChI=1S/C5H11NO2/c1-2-3-4(6)5(7)8/h4H,2-3,6H2,1H3,(H,7,8)/t4-/m0/s1
Instrument: Pegasus III TOF-MS system, Leco; GC 6890, Agilent Technologies
Instrument type: GC-EI-TOF
Ms type: MS
Ion mode: POSITIVE
Retention time: 294.001 sec
Base peak: 73
Derivative form: C17H43NO2Si4
Derivative mass: 405.23709
Derivative type: 4 TMS
m/z	relative intensity
60	23
61	19
62	2
63	1
66	16
67	2
69	1
70	18
71	7
72	43
73	999
74	103
75	81
76	7
77	15
78	1
80	2
81	7
82	6
83	3
84	5
85	7
86	12
87	6
88	3
89	2
94	3
95	1
96	1
97	1
98	6
99	5
100	68
101	14
102	21
103	26
104	3
105	5
110	1
112	3
113	2
114	17
115	19
116	6
117	13
118	3
119	4
126	1
128	19
129	7
130	8
131	13
132	11
133	25
134	5
135	2
142	3
143	2
144	811
145	128
146	45
147	111
148	18
149	10
150	1
156	15
157	3
158	4
159	2
160	1
163	1
172	2
174	3
175	1
202	3
203	1
204	1
218	67
219	19
220	8
221	1
246	13
247	2
248	1
