Mass spectrum: Cyanidin-3-O-(2''-O-beta-xylopyranosyl-beta-glucopyranoside)-5-O-beta-glucopyranoside; LC-ESI-QTOF; MS2; CE:Ramp 5-60 V; [M]+
Name: Cyanidin-3-O-(2''-O-beta-xylopyranosyl-beta-glucopyranoside)-5-O-beta-glucopyranoside
Name: Cy 3-Samb-5-Glc
Name: cyanidin-3-sambubioside-5-glucoside
Class: Anthocyanidin
Formula: [C32H39O20]+
Exact mass: 743.20347
SMILES: c(c1)(O)c(O)ccc1c(c4OC(C5OC([H])(O6)C(C(C(C6)O)O)O)OC(C(O)C5O)CO)[o+1]c(c2c4)cc(O)cc2OC(O3)C(C(C(C3CO)O)O)O
InChI: InChI=1S/C32H38O20/c33-7-19-22(40)24(42)27(45)31(50-19)48-17-5-11(35)4-16-12(17)6-18(28(47-16)10-1-2-13(36)14(37)3-10)49-32-29(25(43)23(41)20(8-34)51-32)52-30-26(44)21(39)15(38)9-46-30/h1-6,15,19-27,29-34,38-45H,7-9H2,(H2-,35,36,37)/p+1/t15-,19-,20-,21+,22-,23-,24+,25+,26-,27-,29-,30+,31-,32-/m1/s1
Instrument: UPLC Q-Tof Premier, Waters
Instrument type: LC-ESI-QTOF
Ms type: MS2
Ion mode: POSITIVE
Collision energy: Ramp 5-60 V
Fragmentation mode: LOW-ENERGY CID
Ionization: ESI
Derivative form: C32H39O20.Cl
Derivative mass: 779.09
Precursor m/z: 743.20343
Precursor type: [M]+
m/z	relative intensity
287.0555	999
449.1078	127
581.1505	59
743.2034	348
