Mass spectrum: O-Acetyl-L-carnitine; LC-ESI-QTOF; MS2; CE:Ramp 5-60 V; [M]+
Name: O-Acetyl-L-carnitine
Name: ALC
Name: ALCAR
Name: L-Carnitine acetyl ester
Name: (R)-3-Acetoxy-4-(trimethylammonio)butyrate
Name: Levacecarnine
Class: Carnitine
Formula: [C9H18NO4]+
Exact mass: 204.12358
SMILES: CC(=O)O[C@H](CC(O)=O)C[N+1](C)(C)C
InChI: InChI=1S/C9H17NO4/c1-7(11)14-8(5-9(12)13)6-10(2,3)4/h8H,5-6H2,1-4H3/p+1/t8-/m1/s1
Instrument: UPLC Q-Tof Premier, Waters
Instrument type: LC-ESI-QTOF
Ms type: MS2
Ion mode: POSITIVE
Collision energy: Ramp 5-60 V
Fragmentation mode: LOW-ENERGY CID
Ionization: ESI
Precursor m/z: 204.12355
Precursor type: [M]+
m/z	relative intensity
85.0299	999
145.0539	142
204.1236	337
