Mass spectrum: (R)-3-Amino-4-phenylbutyric acid; LC-ESI-QTOF; MS2; CE:Ramp 5-60 V; [M+H]+
Name: D-beta-Homophenylalanine
Name: (R)-3-Amino-4-phenylbutyric acid
Class: Amino acids
Formula: C10H13NO2
Exact mass: 179.09463
SMILES: OC(=O)CC(N)Cc(c1)cccc1
InChI: InChI=1S/C10H13NO2/c11-9(7-10(12)13)6-8-4-2-1-3-5-8/h1-5,9H,6-7,11H2,(H,12,13)/t9-/m1/s1
Instrument: UPLC Q-Tof Premier, Waters
Instrument type: LC-ESI-QTOF
Ms type: MS2
Ion mode: POSITIVE
Collision energy: Ramp 5-60 V
Fragmentation mode: LOW-ENERGY CID
Ionization: ESI
Precursor m/z: 180.10242
Precursor type: [M+H]+
m/z	relative intensity
91.0559	133
103.0561	221
115.0565	173
117.0711	576
120.0805	999
145.0676	122
163.0783	94
180.1024	165
