Mass spectrum: D-(+)-Galactosamine; LC-ESI-QTOF; MS2; CE:Ramp 5-60 V; [M+H]+
Name: D(+)-Galactosamine
Name: 2-Amino-3-deoxy-D-galactose
Name: D-Chondrosamine
Name: D-(+)-Galactosamine
Class: Monosaccharide
Formula: C6H13NO5
Exact mass: 179.07937
SMILES: OC[C@@H](O1)[C@H](O)[C@H](O)[C@@H](N)C(O)1
InChI: InChI=1S/C6H13NO5/c7-3-5(10)4(9)2(1-8)12-6(3)11/h2-6,8-11H,1,7H2/t2-,3-,4+,5-,6?/m1/s1
Instrument: UPLC Q-Tof Premier, Waters
Instrument type: LC-ESI-QTOF
Ms type: MS2
Ion mode: POSITIVE
Collision energy: Ramp 5-60 V
Fragmentation mode: LOW-ENERGY CID
Ionization: ESI
Precursor m/z: 180.08717
Precursor type: [M+H]+
m/z	relative intensity
72.0433	66
162.0725	197
180.0817	999
