Mass spectrum: D-(-)-Fructose; GC-EI-TOF; MS; 5 TMS; 1 MEOX; BP:73
Name: D-(-)-Fructose
Name: Levulose
Name: Fruit sugar
Name: D-arabino-Hexulose
Name: D-Fructose
Class: Natural Product
Formula: C6H12O6
Exact mass: 180.06339
SMILES: OC[C@@H](O1)[C@@H](O)[C@H](O)C(O)(CO)1
InChI: InChI=1S/C6H12O6/c7-1-3-4(9)5(10)6(11,2-8)12-3/h3-5,7-11H,1-2H2/t3-,4-,5+,6?/m1/s1
Instrument: Pegasus III TOF-MS system, Leco; GC 6890, Agilent Technologies
Instrument type: GC-EI-TOF
Ms type: MS
Ion mode: POSITIVE
Retention time: 455.767 sec
Base peak: 73
Derivative form: C22H55NO6Si5
Derivative mass: 569.28757
Derivative type: 5 TMS; 1 MEOX
m/z	relative intensity
60	6
61	7
66	4
67	2
69	1
70	6
71	3
72	16
73	999
74	85
75	58
76	4
77	7
82	7
83	2
84	51
85	7
86	3
87	6
88	4
89	78
90	7
91	3
98	1
99	3
100	9
101	15
102	5
103	441
104	43
105	26
106	2
110	1
111	1
113	6
114	40
115	10
116	6
117	49
118	6
119	8
120	1
126	2
127	2
128	3
129	34
130	7
131	18
132	3
133	49
134	6
135	4
140	1
141	1
142	5
143	7
144	2
145	4
146	1
147	180
148	28
149	19
150	2
151	1
156	2
157	6
158	2
159	1
161	1
163	5
164	1
168	1
170	2
172	7
173	15
174	4
175	5
176	1
177	2
180	1
186	1
188	1
189	20
190	5
191	15
192	2
193	1
196	1
198	2
200	1
201	7
202	6
203	4
204	14
205	21
206	4
207	4
214	1
216	3
217	238
218	49
219	21
220	3
221	5
222	1
229	1
230	1
231	5
232	1
244	3
245	2
246	1
256	1
262	10
263	7
264	2
265	1
268	1
276	1
277	15
278	6
279	2
291	2
305	1
306	1
307	78
308	23
309	11
310	2
319	2
333	1
334	2
335	4
336	2
350	1
364	10
365	3
366	1
554	1
