Mass spectrum: 3',5'-Cyclic AMP; GC-EI-TOF; MS; 3 TMS; BP:73
Name: Adenosine 3':5'-cyclicmonophosphate
Name: Cyclic AMP
Name: cAMP
Name: Cyclic adenylic acid
Name: Adenosine 3',5'-phosphate
Name: 3',5'-Cyclic AMP
Class: Natural Product
Formula: C10H12N5O6P
Exact mass: 329.05252
SMILES: Nc(n4)c(n3)c(nc4)n(c3)[C@H](O1)[C@H](O)[C@H](O2)[C@@H](COP(O)(=O)2)1
InChI: InChI=1S/C10H12N5O6P/c11-8-5-9(13-2-12-8)15(3-14-5)10-6(16)7-4(20-10)1-19-22(17,18)21-7/h2-4,6-7,10,16H,1H2,(H,17,18)(H2,11,12,13)/t4-,6-,7-,10-/m1/s1
Instrument: Pegasus III TOF-MS system, Leco; GC 6890, Agilent Technologies
Instrument type: GC-EI-TOF
Ms type: MS
Ion mode: POSITIVE
Retention time: 660.268 sec
Base peak: 73
Derivative form: C19H36N5O6PSi3
Derivative mass: 545.1711
Derivative type: 3 TMS
m/z	relative intensity
60	9
61	15
62	1
63	2
65	6
66	4
67	8
68	9
69	13
70	14
71	13
72	30
73	999
74	111
75	114
76	10
77	51
78	5
79	16
80	5
81	32
82	6
83	9
84	56
85	36
86	12
87	7
88	3
89	11
91	2
92	2
93	5
94	4
95	7
96	6
97	39
98	10
99	37
100	10
101	32
102	4
103	13
104	1
105	4
106	4
107	12
108	5
109	24
110	6
111	37
112	7
113	8
114	1
115	8
116	10
117	10
118	2
119	13
120	4
121	22
122	5
123	16
124	4
125	21
126	4
127	10
128	3
129	25
130	5
131	5
132	2
133	65
134	11
135	32
136	11
137	39
138	16
139	9
140	54
141	11
142	28
143	24
144	4
145	4
146	1
147	27
148	5
149	8
150	5
151	11
152	3
153	29
154	5
155	30
156	3
157	3
158	4
159	2
160	1
161	2
162	8
163	5
164	9
165	65
166	13
167	8
168	6
169	88
170	12
171	18
172	3
173	2
174	2
175	1
176	12
177	5
178	5
179	12
180	9
181	18
182	3
183	8
184	1
185	2
186	3
187	1
189	1
190	3
191	11
192	195
193	39
194	10
195	13
196	4
197	6
199	1
202	2
203	1
204	6
205	9
206	45
207	40
208	167
209	35
210	11
211	160
212	29
213	16
214	5
216	1
217	3
218	3
219	2
220	52
221	10
222	5
225	29
226	5
227	31
228	5
229	4
230	1
231	2
232	2
233	4
234	4
235	4
236	331
237	57
238	15
239	2
241	1
242	1
243	54
244	10
245	5
246	4
247	1
249	2
251	1
252	1
257	3
258	8
259	1
260	2
264	6
265	2
268	1
270	1
272	2
274	1
277	1
278	6
279	2
280	4
281	12
285	1
286	5
287	3
288	2
289	1
290	2
295	3
303	3
305	1
306	5
308	1
309	1
310	51
311	12
312	4
321	2
322	21
323	8
324	3
325	1
328	1
330	1
332	1
334	1
335	1
336	2
337	45
338	20
339	6
340	1
346	1
348	1
370	1
375	4
376	1
377	1
378	14
379	4
380	2
383	1
393	1
398	1
442	2
455	4
456	1
457	1
529	7
530	26
531	11
532	4
533	1
544	2
545	1
595	1
644	1
746	1
756	1
796	1
