Mass spectrum: L-Methionine; LC-ESI-QTOF; MS2; CE:Ramp 5-60 V; [M+H]+
Name: L-Methionine
Name: L-Met
Name: L-2-Amino-4-methylmercaptobutyric Acid
Name: L-a-Amino-g-methylthiobutyric acid
Name: L-Lobamine
Name: (S)-2-Amino-4-(methylmercapto)butyric acid
Class: Amino acids
Formula: C5H11NO2S
Exact mass: 149.05105
SMILES: N[C@@H](CCSC)C(O)=O
InChI: InChI=1S/C5H11NO2S/c1-9-3-2-4(6)5(7)8/h4H,2-3,6H2,1H3,(H,7,8)/t4-/m0/s1
Instrument: UPLC Q-Tof Premier, Waters
Instrument type: LC-ESI-QTOF
Ms type: MS2
Ion mode: POSITIVE
Collision energy: Ramp 5-60 V
Fragmentation mode: LOW-ENERGY CID
Ionization: ESI
Precursor m/z: 150.05885
Precursor type: [M+H]+
m/z	relative intensity
104.0509	61
150.0545	999
