Mass spectrum: 2'-Deoxyuridine 5'-monophosphate; LC-ESI-QTOF; MS2; CE:Ramp 5-60 V; [M-H]-
Name: 2'-Deoxyuridine-5'-monophosphate
Name: dUMP
Name: 2'-Deoxy-UMP
Name: 2'-deoxyuridylic acid
Name: 2'-Deoxyuridine 5'-monophosphate
Class: Natural Product; Nucleoside; Phosphates
Formula: C9H13N2O8P
Exact mass: 308.04095
SMILES: O=C(C=2)NC(=O)N(C2)[C@@H](C1)O[C@H](COP(O)(O)=O)[C@@H](O)1
InChI: InChI=1S/C9H13N2O8P/c12-5-3-8(11-2-1-7(13)10-9(11)14)19-6(5)4-18-20(15,16)17/h1-2,5-6,8,12H,3-4H2,(H,10,13,14)(H2,15,16,17)/t5-,6+,8+/m0/s1
Instrument: UPLC Q-Tof Premier, Waters
Instrument type: LC-ESI-QTOF
Ms type: MS2
Ion mode: NEGATIVE
Collision energy: Ramp 5-60 V
Fragmentation mode: LOW-ENERGY CID
Ionization: ESI
Precursor m/z: 307.03315
Precursor type: [M-H]-
m/z	relative intensity
78.9598	999
96.9696	326
111.0199	628
176.9954	159
195.0059	525
307.0331	563
