Mass spectrum: Kaempferol-3-O-glucoside; LC-ESI-QTOF; MS2; CE:Ramp 5-60 V; [M+H]+
Name: Kaempferol-3-O-glucoside
Name: Kaem-3-Glc
Name: Astragalin
Name: Astragaline
Name: Kaempferol-3-beta-D-glucopyranoside
Name: 4H-1-Benzopyran-4-one, 3-(beta-D-glucopyranosyloxy)-5,7-dihydroxy-2-(4-hydroxyphenyl)-)
Class: Flavonoid
Formula: C21H20O11
Exact mass: 448.10056
SMILES: OC[C@@H](O1)[C@@H](O)[C@H](O)[C@@H](O)[C@@H]1OC(C(=O)2)=C(c(c4)ccc(O)c4)Oc(c3)c(c(O)cc(O)3)2
InChI: InChI=1S/C21H20O11/c22-7-13-15(26)17(28)18(29)21(31-13)32-20-16(27)14-11(25)5-10(24)6-12(14)30-19(20)8-1-3-9(23)4-2-8/h1-6,13,15,17-18,21-26,28-29H,7H2/t13-,15-,17+,18-,21+/m1/s1
Instrument: UPLC Q-Tof Premier, Waters
Instrument type: LC-ESI-QTOF
Ms type: MS2
Ion mode: POSITIVE
Collision energy: Ramp 5-60 V
Fragmentation mode: LOW-ENERGY CID
Ionization: ESI
Precursor m/z: 449.10838
Precursor type: [M+H]+
m/z	relative intensity
69.0354	19
85.0293	81
97.0291	28
121.0285	35
127.0394	21
145.0505	20
153.0183	59
165.0183	32
213.0548	20
258.0531	15
287.0532	999
288.0579	37
449.1084	18
