Mass spectrum: Sebacic acid; LC-ESI-QTOF; MS2; CE:Ramp 5-60 V; [M-H]-
Name: Sebacic acid
Name: Decanedioic acid
Name: 1,8-Octanedicarboxylic acid
Name: 1,10-Decanedioic acid
Class: Carboxylic acids
Formula: C10H18O4
Exact mass: 202.12051
SMILES: OC(=O)CCCCCCCCC(O)=O
InChI: InChI=1S/C10H18O4/c11-9(12)7-5-3-1-2-4-6-8-10(13)14/h1-8H2,(H,11,12)(H,13,14)
Instrument: UPLC Q-Tof Premier, Waters
Instrument type: LC-ESI-QTOF
Ms type: MS2
Ion mode: NEGATIVE
Collision energy: Ramp 5-60 V
Fragmentation mode: LOW-ENERGY CID
Ionization: ESI
Precursor m/z: 201.1127
Precursor type: [M-H]-
m/z	relative intensity
111.0821	65
139.1134	999
183.1038	519
201.1127	941
