Mass spectrum: L-(-)-Phenylalanine; LC-ESI-QTOF; MS2; CE:Ramp 5-60 V; [M+H]+
Name: L-(-)-Phenylalanine
Name: L-Phe
Name: L-2-Amino-3-phenylpropionic acid
Name: (S)-alpha-Amino-benzenepropanoic acid
Name: (S)-a-Aminohydrocinnamic acid
Class: Amino acids
Formula: C9H11NO2
Exact mass: 165.07898
SMILES: C1=CC=C(C=C1)C[C@@H](C(=O)O)N
InChI: InChI=1S/C9H11NO2/c10-8(9(11)12)6-7-4-2-1-3-5-7/h1-5,8H,6,10H2,(H,11,12)/t8-/m0/s1
Instrument: UPLC Q-Tof Premier, Waters
Instrument type: LC-ESI-QTOF
Ms type: MS2
Ion mode: POSITIVE
Collision energy: Ramp 5-60 V
Fragmentation mode: LOW-ENERGY CID
Ionization: ESI
Precursor m/z: 166.08677
Precursor type: [M+H]+
m/z	relative intensity
120.0825	182
166.0868	999
