Mass spectrum: Maltotriose; LC-ESI-QTOF; MS2; CE:Ramp 5-60 V; [M-H]-
Name: Maltotriose
Name: Amylotriose
Name: alpha-1,4-Glucotriose
Name: Triomaltose
Name: O-alpha-D-glucopyranosyl-O-alpha-D-glucopyranosyl-D-glucose
Name: (Glc(alpha1-4)Glc(alpha1-4)Glc)
Name: Maltotriose hydrate
Class: Oligosaccharide
Formula: C18H32O16
Exact mass: 504.16903
SMILES: OCC(O1)C(O)C(O)C(O)C1OC(C(CO)3)C(O)C(O)C(O3)OC(C(CO)2)C(O)C(O)C(O)O2
InChI: InChI=1S/C18H32O16/c19-1-4-7(22)8(23)12(27)17(31-4)34-15-6(3-21)32-18(13(28)10(15)25)33-14-5(2-20)30-16(29)11(26)9(14)24/h4-29H,1-3H2/t4-,5-,6-,7-,8+,9-,10-,11-,12-,13-,14-,15-,16?,17-,18-/m1/s1
Instrument: UPLC Q-Tof Premier, Waters
Instrument type: LC-ESI-QTOF
Ms type: MS2
Ion mode: NEGATIVE
Collision energy: Ramp 5-60 V
Fragmentation mode: LOW-ENERGY CID
Ionization: ESI
Precursor m/z: 503.16123
Precursor type: [M-H]-
m/z	relative intensity
59.0152	124
71.0154	317
73.0307	328
81.0350	42
83.0141	79
85.0294	72
87.0099	41
89.0252	205
97.0303	300
101.0247	593
113.0264	181
115.0403	83
119.0352	108
125.0227	38
143.0372	118
161.0462	999
179.0566	391
221.0674	316
263.0819	85
281.0894	68
341.1096	182
383.1235	260
425.1311	64
443.1507	44
503.1612	37
