Mass spectrum: D-Tartaric acid; LC-ESI-QTOF; MS2; CE:Ramp 5-60 V; [M-H]-
Name: D-Tartaric acid
Name: D-Tartrate
Name: D-Threaric acid
Name: (2S,3S)-(?)-Tartaric acid
Name: 2,3-Dihydroxybutanedioic Acid
Name: D(-)-2,3-Dihydroxysuccinic Acid
Class: Aldaric acids
Formula: C4H6O6
Exact mass: 150.01644
SMILES: OC(=O)[C@@H](O)[C@H](O)C(O)=O
InChI: InChI=1S/C4H6O6/c5-1(3(7)8)2(6)4(9)10/h1-2,5-6H,(H,7,8)(H,9,10)/t1-,2-/m0/s1
Instrument: UPLC Q-Tof Premier, Waters
Instrument type: LC-ESI-QTOF
Ms type: MS2
Ion mode: NEGATIVE
Collision energy: Ramp 5-60 V
Fragmentation mode: LOW-ENERGY CID
Ionization: ESI
Precursor m/z: 149.00864
Precursor type: [M-H]-
m/z	relative intensity
59.0158	85
72.9935	302
74.9899	59
87.0094	651
103.0044	87
104.9287	74
148.9030	178
149.0086	999
