Mass spectrum: Peltatoside; LC-ESI-QTOF; MS2; CE:30 V; [M-H]-
Name: Peltatoside
Name: Quer-3-Ara-Glc
Name: quercetin-3-O-arabinoglucoside
Name: 3-[(6-O-alpha-L-Arabinopyranosyl-beta-D-glucopyranosyl)oxy]-2-(3,4-dihydroxyphenyl)-5,7-dihydroxy-4H-1-benzopyran-4-one
Class: Flavonoid
Formula: C26H28O16
Exact mass: 596.13773
SMILES: c(c5)(O)cc(c(c52)C(C(OC(O3)C(C(C(C3COC(C(O)4)OCC(O)C4O)O)O)O)=C(O2)c(c1)ccc(O)c1O)=O)O
InChI: InChI=1S/C26H28O16/c27-9-4-12(30)16-14(5-9)40-23(8-1-2-10(28)11(29)3-8)24(19(16)34)42-26-22(37)20(35)18(33)15(41-26)7-39-25-21(36)17(32)13(31)6-38-25/h1-5,13,15,17-18,20-22,25-33,35-37H,6-7H2/t13-,15+,17-,18+,20-,21+,22+,25-,26-/m0/s1
Instrument: UPLC Q-Tof Premier, Waters
Instrument type: LC-ESI-QTOF
Ms type: MS2
Ion mode: NEGATIVE
Collision energy: 30 V
Fragmentation mode: LOW-ENERGY CID
Ionization: ESI
Precursor m/z: 595.12993
Precursor type: [M-H]-
m/z	relative intensity
151.0038	52
178.9984	51
255.0304	39
271.0256	69
300.0273	999
300.3040	12
300.4604	25
301.0369	537
343.0470	18
595.1299	115
