Mass spectrum: 6,7-Dihydroxycoumarin; LC-ESI-QTOF; MS2; CE:30 V; [M-H]-
Name: 6,7-Dihydroxycoumarin
Name: Esculetin
Name: Cichorigenin
Name: Aesculetin
Name: 6,7-dihydroxy-2-benzopyrone
Name: Esculetol
Name: Cichoriin aglycon
Name: 6,7-Dihydroxy-2H-1-benzopyran-2-one
Name: Esculin aglycon
Class: Coumarins
Formula: C9H6O4
Exact mass: 178.02661
SMILES: O=C(C=2)Oc(c1)c(C2)cc(O)c(O)1
InChI: InChI=1S/C9H6O4/c10-6-3-5-1-2-9(12)13-8(5)4-7(6)11/h1-4,10-11H
Instrument: UPLC Q-Tof Premier, Waters
Instrument type: LC-ESI-QTOF
Ms type: MS2
Ion mode: NEGATIVE
Collision energy: 30 V
Fragmentation mode: LOW-ENERGY CID
Ionization: ESI
Precursor m/z: 177.01881
Precursor type: [M-H]-
m/z	relative intensity
65.0044	33
65.0418	74
67.0193	87
68.9981	30
75.0246	54
77.0404	427
79.0197	402
81.0352	295
82.0074	63
89.0397	999
91.0192	38
93.0346	485
95.0125	35
103.0186	52
104.0265	68
105.0347	706
107.0140	208
109.0303	39
121.0292	273
131.0141	39
133.0288	416
149.0237	176
177.0188	90
