Mass spectrum: L-Glutathione (oxidized form); LC-ESI-QTOF; MS2; CE:Ramp 5-60 V; [M-H]-
Name: Glutathione (oxidized form)
Name: GSSG
Name: Glutathiol
Name: Glutathione Disulfide
Name: Oxigluthione
Name: (gamma-Glu-Cys-Gly) (gamma-Glu-Cys-Gly)(Disulfide bridge: 2a-2b)
Name: L-Glutathione (oxidized form)
Class: Peptide
Formula: C20H32N6O12S2
Exact mass: 612.15196
SMILES: OC(=O)CNC(=O)[C@H](CSSC[C@H](NC(=O)CC[C@H](N)C(O)=O)C(=O)NCC(O)=O)NC(=O)CC[C@H](N)C(O)=O
InChI: InChI=1S/C20H32N6O12S2/c21-9(19(35)36)1-3-13(27)25-11(17(33)23-5-15(29)30)7-39-40-8-12(18(34)24-6-16(31)32)26-14(28)4-2-10(22)20(37)38/h9-12H,1-8,21-22H2,(H,23,33)(H,24,34)(H,25,27)(H,26,28)(H,29,30)(H,31,32)(H,35,36)(H,37,38)/t9-,10-,11-,12-/m0/s1
Instrument: UPLC Q-Tof Premier, Waters
Instrument type: LC-ESI-QTOF
Ms type: MS2
Ion mode: NEGATIVE
Collision energy: Ramp 5-60 V
Fragmentation mode: LOW-ENERGY CID
Ionization: ESI
Precursor m/z: 611.14416
Precursor type: [M-H]-
m/z	relative intensity
74.0261	74
99.0567	77
128.0355	318
143.0465	467
160.0079	128
179.0465	129
210.0891	117
254.0793	170
272.0905	312
288.0674	58
304.0622	93
306.0781	728
338.0514	93
611.1442	999
