Mass spectrum: D-(+)-Pantothenic acid; LC-ESI-QTOF; MS2; CE:Ramp 5-60 V; [M-H]-
Name: D-Pantothenic acid
Name: Vitamin B5
Name: (R)-Pantothenate
Name: (R)-(+)-N-(2,4-Dihydroxy-3,3-dimethyl-1-oxobutyl)-beta-alanine
Name: D-(+)-Pantothenic acid
Class: Amino acids
Formula: C9H17NO5
Exact mass: 219.11067
SMILES: OCC(C)(C)[C@@H](O)C(=O)NCCC(O)=O
InChI: InChI=1S/C9H17NO5/c1-9(2,5-11)7(14)8(15)10-4-3-6(12)13/h7,11,14H,3-5H2,1-2H3,(H,10,15)(H,12,13)/t7-/m0/s1
Instrument: UPLC Q-Tof Premier, Waters
Instrument type: LC-ESI-QTOF
Ms type: MS2
Ion mode: NEGATIVE
Collision energy: Ramp 5-60 V
Fragmentation mode: LOW-ENERGY CID
Ionization: ESI
Precursor m/z: 218.10287
Precursor type: [M-H]-
m/z	relative intensity
71.0156	84
71.0512	266
88.0407	999
99.0457	88
146.0816	611
218.1029	520
