Mass spectrum: Caffeine; GC-EI-TOF; MS; BP:194
Name: Caffeine
Class: Natural Product
Formula: C8H10N4O2
Exact mass: 194.08038
SMILES: Cn(c2)c(C(=O)1)c(n2)N(C)C(=O)N(C)1
InChI: InChI=1S/C8H10N4O2/c1-10-4-9-6-5(10)7(13)12(3)8(14)11(6)2/h4H,1-3H3
Instrument: Pegasus III TOF-MS system, Leco; GC 6890, Agilent Technologies
Instrument type: GC-EI-TOF
Ms type: MS
Ion mode: POSITIVE
Retention time: 457.516 sec
Base peak: 194
m/z	relative intensity
64	5
65	18
66	93
67	733
68	12
69	15
70	67
71	3
72	1
75	1
76	2
77	10
78	11
79	41
80	35
81	120
82	540
83	53
84	5
91	1
92	4
93	12
94	62
95	18
96	10
97	35
98	1
106	2
107	8
108	57
109	973
110	113
111	17
112	1
120	3
121	4
122	15
123	7
124	10
125	1
132	1
133	1
134	1
135	6
136	60
137	82
138	28
139	3
140	1
148	1
149	7
150	11
151	4
152	6
163	2
164	5
165	61
166	13
167	1
179	2
192	1
193	172
194	999
195	101
196	9
