Mass spectrum: Spiraeoside; LC-ESI-QTOF; MS2; CE:Ramp 5-60 V; [M-H]-
Name: Spiraeoside
Name: Quer-4p-Glc
Name: quercetin-4'-glucoside
Name: Spiraein
Class: Flavonoid
Formula: C21H20O12
Exact mass: 464.09548
SMILES: OCC(O1)C(O)C(O)C(O)C1Oc(c4)c(O)cc(c4)C(O2)=C(O)C(=O)c(c(O)3)c(cc(O)c3)2
InChI: InChI=1S/C21H20O12/c22-6-13-15(26)17(28)19(30)21(33-13)32-11-2-1-7(3-9(11)24)20-18(29)16(27)14-10(25)4-8(23)5-12(14)31-20/h1-5,13,15,17,19,21-26,28-30H,6H2/t13-,15-,17+,19-,21-/m1/s1
Instrument: UPLC Q-Tof Premier, Waters
Instrument type: LC-ESI-QTOF
Ms type: MS2
Ion mode: NEGATIVE
Collision energy: Ramp 5-60 V
Fragmentation mode: LOW-ENERGY CID
Ionization: ESI
Precursor m/z: 463.08767
Precursor type: [M-H]-
m/z	relative intensity
107.0145	114
121.0301	98
151.0040	453
178.9991	183
300.0287	229
301.0363	999
463.0877	328
