Mass spectrum: Cysteinylglycine; LC-ESI-QTOF; MS2; CE:Ramp 5-60 V; [M+H]+
Name: Cysteinylglycine
Name: Cys-Gly
Name: L-Cysteinylglycine
Name: (R)-2-Amino-3-(aminoacetyl)thiopropanoic Acid
Name: S-Glycyl-L-cysteine
Name: Glycine Cysteine Thioester
Name: S-(2-Amino-1-oxoethyl)cysteine
Class: Dipeptide
Formula: C5H10N2O3S
Exact mass: 178.04121
SMILES: OC(=O)CNC(=O)C(N)CS
InChI: InChI=1S/C5H10N2O3S/c6-3(2-11)5(10)7-1-4(8)9/h3,11H,1-2,6H2,(H,7,10)(H,8,9)/t3-/m0/s1
Instrument: UPLC Q-Tof Premier, Waters
Instrument type: LC-ESI-QTOF
Ms type: MS2
Ion mode: POSITIVE
Collision energy: Ramp 5-60 V
Fragmentation mode: LOW-ENERGY CID
Ionization: ESI
Precursor m/z: 179.04901
Precursor type: [M+H]+
m/z	relative intensity
58.9947	94
76.0217	999
96.8967	163
116.0155	211
137.9226	290
144.0106	125
162.0198	277
179.0490	77
