Mass spectrum: Eriodictyol; LC-ESI-QTOF; MS2; CE:Ramp 5-60 V; [M-H]-
Name: Eriodictyol
Name: Erid
Name: Eriodictiol
Name: 3',4',5,7-tetrahydroxyflavanone
Class: Flavonoid
Formula: C15H12O6
Exact mass: 288.06339
SMILES: Oc(c3)c(O)cc(c3)[C@H](C1)Oc(c2)c(c(O)cc(O)2)C(=O)1
InChI: InChI=1S/C15H12O6/c16-8-4-11(19)15-12(20)6-13(21-14(15)5-8)7-1-2-9(17)10(18)3-7/h1-5,13,16-19H,6H2/t13-/m0/s1
Instrument: UPLC Q-Tof Premier, Waters
Instrument type: LC-ESI-QTOF
Ms type: MS2
Ion mode: NEGATIVE
Collision energy: Ramp 5-60 V
Fragmentation mode: LOW-ENERGY CID
Ionization: ESI
Precursor m/z: 287.05559
Precursor type: [M-H]-
m/z	relative intensity
65.0050	67
107.0147	137
134.0383	97
135.0453	999
151.0033	610
287.0556	182
