Mass spectrum: 3-Cyanopyridine; LC-ESI-QTOF; MS2; CE:Ramp 5-60 V; [M+H]+
Name: 3-Cyanopyridine
Name: 3-Pyridinecarbonitrile
Name: Nicotinic acid nitrile
Name: Nicotinonitrile
Name: Pyridine-3-carbonitrile
Name: beta-Pyridyl Cyanide
Name: 3-Azabenzonitrile
Class: Pyridines
Formula: C6H4N2
Exact mass: 104.03745
SMILES: N#Cc(c1)cncc1
InChI: InChI=1S/C6H4N2/c7-4-6-2-1-3-8-5-6/h1-3,5H
Instrument: UPLC Q-Tof Premier, Waters
Instrument type: LC-ESI-QTOF
Ms type: MS2
Ion mode: POSITIVE
Collision energy: Ramp 5-60 V
Fragmentation mode: LOW-ENERGY CID
Ionization: ESI
Precursor m/z: 105.04525
Precursor type: [M+H]+
m/z	relative intensity
78.0339	111
105.0452	999
