Mass spectrum: (S)-(+)-Citramailc acid; LC-ESI-QTOF; MS2; CE:Ramp 5-60 V; [M+H]+
Name: S-Citramalic acid
Name: (2S)-2-Hydroxy-2-methylbutanedioate
Name: L-(+)-2-Methylmalic acid
Name: L-alpha-Hydroxypyrotartaric acid
Name: L-Citramalic acid
Name: (S)-2-Hydroxy-2-methylsuccinic acid
Name: (S)-2-Methylmalate
Name: (S)-2-Methylmalic acid
Name: S-alpha-Hydroxypyrotartaric acid
Name: (S)-(+)-Citramailc acid
Class: Carboxylic acids
Formula: C5H8O5
Exact mass: 148.03717
SMILES: C[C@](CC(=O)O)(C(=O)O)O
InChI: InChI=1S/C5H8O5/c1-5(10,4(8)9)2-3(6)7/h10H,2H2,1H3,(H,6,7)(H,8,9)/t5-/m0/s1
Instrument: UPLC Q-Tof Premier, Waters
Instrument type: LC-ESI-QTOF
Ms type: MS2
Ion mode: POSITIVE
Collision energy: Ramp 5-60 V
Fragmentation mode: LOW-ENERGY CID
Ionization: ESI
Precursor m/z: 149.04497
Precursor type: [M+H]+
m/z	relative intensity
133.0145	999
149.0450	618
