Mass spectrum: Indoleacetic acid; LC-ESI-QTOF; MS2; CE:30 V; [M+H]+
Name: 3-Indoleacetic acid
Name: IAA
Name: 3-IAA
Name: Indoleacetate
Name: Indole-3-acetic acid
Name: Heteroauxin
Name: Rhizopin
Name: omega-Skatole carboxylic acid
Name: Rhizopon A
Name: Indoleacetic acid
Class: Indole
Formula: C10H9NO2
Exact mass: 175.06333
SMILES: C1=CC=C2C(=C1)C(=CN2)CC(=O)O
InChI: InChI=1S/C10H9NO2/c12-10(13)5-7-6-11-9-4-2-1-3-8(7)9/h1-4,6,11H,5H2,(H,12,13)
Instrument: UPLC Q-Tof Premier, Waters
Instrument type: LC-ESI-QTOF
Ms type: MS2
Ion mode: POSITIVE
Collision energy: 30 V
Fragmentation mode: LOW-ENERGY CID
Ionization: ESI
Precursor m/z: 176.07113
Precursor type: [M+H]+
m/z	relative intensity
130.0685	999
176.0711	904
