Mass spectrum: 6-Aminohexanoic acid; GC-EI-TOF; MS; 3 TMS; BP:73
Name: epsilon-Amino-n-caproic acid
Name: Epsilcapramine
Name: 6-Aminohexanoate
Name: 6-Aminohexanoic acid
Name: 6-Aminocaproic acid
Class: Natural Product
Formula: C6H13NO2
Exact mass: 131.09463
SMILES: NCCCCCC(O)=O
InChI: InChI=1S/C6H13NO2/c7-5-3-1-2-4-6(8)9/h1-5,7H2,(H,8,9)
Instrument: Pegasus III TOF-MS system, Leco; GC 6890, Agilent Technologies
Instrument type: GC-EI-TOF
Ms type: MS
Ion mode: POSITIVE
Retention time: 456.863 sec
Base peak: 73
Derivative form: C15H37NO2Si3
Derivative mass: 347.21321
Derivative type: 3 TMS
m/z	relative intensity
60	25
61	30
62	2
63	2
65	2
66	4
67	18
68	1
69	26
70	15
71	11
72	29
73	999
74	106
75	233
76	23
77	27
78	2
79	25
80	2
81	3
82	3
83	4
84	6
85	19
86	221
87	27
88	14
89	5
90	1
92	1
93	1
94	5
95	4
96	224
97	21
98	7
99	13
100	119
101	23
102	29
103	9
104	2
105	2
110	2
111	2
112	8
113	9
114	9
115	11
116	17
117	24
118	5
119	5
120	1
122	1
124	1
125	1
126	6
127	2
128	6
129	68
130	52
131	39
132	12
133	35
134	5
135	3
138	1
140	15
141	4
142	6
143	4
144	6
145	2
146	20
147	103
148	18
149	14
150	2
151	1
152	1
154	1
156	2
157	2
158	8
159	4
160	3
161	1
162	3
163	1
168	13
169	3
170	11
171	7
172	13
173	4
174	763
175	145
176	71
177	9
178	1
184	6
185	1
186	2
188	1
190	1
200	6
201	1
202	1
214	1
216	1
221	1
242	12
243	3
244	1
258	2
274	1
331	1
332	22
333	7
334	3
347	1
