Mass spectrum: Quercetin-3-Arabinoside; LC-ESI-QTOF; MS2; CE:Ramp 5-60 V; [M+H]+
Name: Quercetin-3-Arabinoside
Name: Quer-3-Ara
Name: Guajavarin
Class: Flavonoid
Formula: C20H18O11
Exact mass: 434.08491
SMILES: Oc(c4)c(O)cc(c4)C(O1)=C(OC(O3)C(O)C(O)C(O)C3)C(=O)c(c(O)2)c(cc(O)c2)1
InChI: InChI=1S/C20H18O11/c21-8-4-11(24)14-13(5-8)30-18(7-1-2-9(22)10(23)3-7)19(16(14)27)31-20-17(28)15(26)12(25)6-29-20/h1-5,12,15,17,20-26,28H,6H2/t12-,15-,17+,20-/m0/s1
Instrument: UPLC Q-Tof Premier, Waters
Instrument type: LC-ESI-QTOF
Ms type: MS2
Ion mode: POSITIVE
Collision energy: Ramp 5-60 V
Fragmentation mode: LOW-ENERGY CID
Ionization: ESI
Precursor m/z: 435.09273
Precursor type: [M+H]+
m/z	relative intensity
73.0298	104
137.0232	38
153.0179	53
165.0177	31
201.0543	21
229.0495	52
257.0445	31
303.0483	999
304.0539	34
435.0927	20
