Mass spectrum: Kaempferol; LC-ESI-QTOF; MS2; CE:Ramp 5-60 V; [M+H]+
Name: Kaempferol
Name: Kaem
Name: 3,4',5,7-tetrahydroxyflavone
Name: nimbecetin
Name: pelargidenolon
Name: rhamnolutein
Name: Popuinetin
Name: Kampherol
Name: Kempferol
Name: Populnetin
Name: Robigenin
Name: Swartziol
Name: 5,7,4'-Trihydroxyflavonol
Name: Trifolitin
Name: Rhamnolutin
Name: Indigo yellow
Name: 4H-1-Benzopyran-4-one
Name: 3,5,7-trihydroxy-2-(4-hydroxyphenyl)-5,7,4'-Trihydroxyflavonol
Class: Flavonoid
Formula: C15H10O6
Exact mass: 286.04774
SMILES: Oc(c3)ccc(c3)C(O1)=C(O)C(=O)c(c(O)2)c(cc(O)c2)1
InChI: InChI=1S/C15H10O6/c16-8-3-1-7(2-4-8)15-14(20)13(19)12-10(18)5-9(17)6-11(12)21-15/h1-6,16-18,20H
Instrument: UPLC Q-Tof Premier, Waters
Instrument type: LC-ESI-QTOF
Ms type: MS2
Ion mode: POSITIVE
Collision energy: Ramp 5-60 V
Fragmentation mode: LOW-ENERGY CID
Ionization: ESI
Precursor m/z: 287.05554
Precursor type: [M+H]+
m/z	relative intensity
69.0622	198
91.0421	191
99.4978	404
100.4944	159
105.0564	487
111.1031	360
119.0337	298
147.0268	423
167.0118	999
287.0555	814
