Mass spectrum: trans-Aconitic acid; LC-ESI-QTOF; MS2; CE:Ramp 5-60 V; [M-H]-
Name: trans-Aconitic acid
Name: trans-Aconitate
Name: trans-Propene-1,2,3-tricarboxylic acid
Name: trans-1,2,3-Propenetricarboxylic acid
Name: (E)-2-Carboxyglutaconic Acid
Name: Citridic Acid
Name: Achilleic Acid
Class: Carboxylic acids
Formula: C6H6O6
Exact mass: 174.01644
SMILES: OC(=O)CC(=CC(O)=O)C(O)=O
InChI: InChI=1S/C6H6O6/c7-4(8)1-3(6(11)12)2-5(9)10/h1H,2H2,(H,7,8)(H,9,10)(H,11,12)/b3-1+
Instrument: UPLC Q-Tof Premier, Waters
Instrument type: LC-ESI-QTOF
Ms type: MS2
Ion mode: NEGATIVE
Collision energy: Ramp 5-60 V
Fragmentation mode: LOW-ENERGY CID
Ionization: ESI
Precursor m/z: 173.00864
Precursor type: [M-H]-
m/z	relative intensity
85.0291	999
129.0165	281
