Mass spectrum: Myricetin-3-Galactoside; LC-ESI-QTOF; MS2; CE:Ramp 5-60 V; [M+H]+
Name: Myricetin-3-Galactoside
Name: Myrc-3-Gal
Name: Myricetin-3-Galactopyranoside
Class: Flavonoid
Formula: C21H20O13
Exact mass: 480.09039
SMILES: OCC(O1)C(O)C(O)C(O)C1OC(C(=O)3)=C(Oc(c4)c(c(O)cc(O)4)3)c(c2)cc(O)c(O)c(O)2
InChI: InChI=1S/C21H20O13/c22-5-12-15(28)17(30)18(31)21(33-12)34-20-16(29)13-8(24)3-7(23)4-11(13)32-19(20)6-1-9(25)14(27)10(26)2-6/h1-4,12,15,17-18,21-28,30-31H,5H2/t12-,15-,17+,18-,21+/m1/s1
Instrument: UPLC Q-Tof Premier, Waters
Instrument type: LC-ESI-QTOF
Ms type: MS2
Ion mode: POSITIVE
Collision energy: Ramp 5-60 V
Fragmentation mode: LOW-ENERGY CID
Ionization: ESI
Precursor m/z: 481.09821
Precursor type: [M+H]+
m/z	relative intensity
85.0290	47
91.0394	29
97.0294	24
153.0184	83
165.0182	39
217.0489	32
245.0450	44
273.0399	45
319.0447	999
320.0489	24
481.0982	30
