Mass spectrum: 3-Hydroxy-DL-kynurenine; LC-ESI-QTOF; MS2; CE:30 V; [M+H]+
Name: 3-Hydroxy-DL-kynurenine
Name: DL-3-Hydroxykynurenine
Name: alpha,2-Diamino-3-hydroxy-gamma-oxobenzenebutanoic acid
Name: 3-(3-hydroxyanthraniloyl)alanine
Class: Amino acids
Formula: C10H12N2O4
Exact mass: 224.07971
SMILES: OC(=O)C(N)CC(=O)c(c1)c(N)c(O)cc1
InChI: InChI=1S/C10H12N2O4/c11-6(10(15)16)4-8(14)5-2-1-3-7(13)9(5)12/h1-3,6,13H,4,11-12H2,(H,15,16)
Instrument: UPLC Q-Tof Premier, Waters
Instrument type: LC-ESI-QTOF
Ms type: MS2
Ion mode: POSITIVE
Collision energy: 30 V
Fragmentation mode: LOW-ENERGY CID
Ionization: ESI
Precursor m/z: 225.0875
Precursor type: [M+H]+
m/z	relative intensity
110.0706	129
136.0470	91
152.0892	201
208.0777	261
208.9568	145
209.0499	667
224.7446	93
224.9298	91
224.9783	148
224.9984	107
225.0875	999
