Mass spectrum: (3R,4S)-3-Amino-4-methylhexanoic acid; LC-ESI-QTOF; MS2; CE:Ramp 5-60 V; [M+H]+
Name: L-beta-Homoisoleucine
Name: (3R,4S)-3-Amino-4-methylhexanoic acid
Class: Amino acids
Formula: C7H15NO2
Exact mass: 145.11028
SMILES: CCC(C)C(N)CC(O)=O
InChI: InChI=1S/C7H15NO2/c1-3-5(2)6(8)4-7(9)10/h5-6H,3-4,8H2,1-2H3,(H,9,10)/t5-,6+/m0/s1
Instrument: UPLC Q-Tof Premier, Waters
Instrument type: LC-ESI-QTOF
Ms type: MS2
Ion mode: POSITIVE
Collision energy: Ramp 5-60 V
Fragmentation mode: LOW-ENERGY CID
Ionization: ESI
Precursor m/z: 146.11807
Precursor type: [M+H]+
m/z	relative intensity
69.0715	297
83.0867	355
86.0969	999
146.1181	298
