Mass spectrum: Baicalin; LC-ESI-QTOF; MS2; CE:30 eV; [M-H]-
Name: baicalein-7-O-glucuronide
Name: Baicalin
Name: Baic_7_GlcA
Name: (2S,3S,4S,5R,6S)-6-(5,6-dihydroxy-4-oxo-2-phenyl-chromen-7-yl)oxy-3,4,5-trihydroxy-oxane-2-carboxylic acid
Class: Natural Product
Formula: C21H18O11
Exact mass: 446.08491
SMILES: OC(=O)[C@@H](O1)[C@@H](O)[C@H](O)[C@@H](O)[C@@H]1Oc(c2)c(O)c(O)c(C(=O)3)c(OC(c(c4)cccc4)=C3)2
InChI: InChI=1S/C21H18O11/c22-9-6-10(8-4-2-1-3-5-8)30-11-7-12(14(23)15(24)13(9)11)31-21-18(27)16(25)17(26)19(32-21)20(28)29/h1-7,16-19,21,23-27H,(H,28,29)/t16-,17-,18+,19-,21+/m0/s1
Instrument: UPLC Q-Tof Premier, Waters
Instrument type: LC-ESI-QTOF
Ms type: MS2
Ion mode: NEGATIVE
Collision energy: 30 eV
Fragmentation mode: LOW-ENERGY CID
Ionization: ESI
Full scan fragment ion peak: 445.1
Ion type: [M-H]-
m/z	relative intensity
75.0384	16
85.0534	35
95.0264	13
99.0193	17
113.0337	14
137.0318	14
169.0877	27
171.0218	10
179.0661	13
195.0746	19
196.0025	10
197.0746	23
223.0562	50
223.9552	14
225.0347	19
225.9895	14
241.0828	43
251.0595	48
252.0706	12
266.8886	25
267.8977	30
269.0633	999
269.9917	201
270.8787	53
271.7395	22
272.6536	13
