Mass spectrum: Piperidine; LC-ESI-QTOF; MS2; CE:30 V; [M+H]+
Name: Piperidine
Name: Hexahydropyridine
Name: Perhydroazine
Name: Perhydropyridine
Name: Azacyclohexane
Name: Cyclopentimine
Name: Cypentil
Name: Hexazane
Name: Pentamethyleneimine
Name: Pentamethylenimine
Class: Piperidines
Formula: C5H11N
Exact mass: 85.08915
SMILES: C(C1)CCNC1
InChI: InChI=1S/C5H11N/c1-2-4-6-5-3-1/h6H,1-5H2
Instrument: UPLC Q-Tof Premier, Waters
Instrument type: LC-ESI-QTOF
Ms type: MS2
Ion mode: POSITIVE
Collision energy: 30 V
Fragmentation mode: LOW-ENERGY CID
Ionization: ESI
Precursor m/z: 86.09694
Precursor type: [M+H]+
m/z	relative intensity
69.0710	79
86.0660	10
86.0969	999
