Mass spectrum: L-Glutamic acid; LC-ESI-QTOF; MS2; CE:Ramp 5-60 V; [M+H]+
Name: L-Glutamic acid
Name: Glu
Name: L-Glutamate
Name: alpha-Glutamic acid
Name: L-alpha-Aminoglutaric Acid
Name: (S)-2-Aminopentanedioic acid
Name: L-1-Aminopropane-1,3-dicarboxylic Acid
Name: 1-Aminopropane-1,3-dicarboxylic acid
Name: Aciglut
Name: Glusate
Name: Glutacid
Name: Glutaminol
Name: Glutaton
Class: Amino acids
Formula: C5H9NO4
Exact mass: 147.05316
SMILES: OC(=O)CC[C@H](N)C(O)=O
InChI: InChI=1S/C5H9NO4/c6-3(5(9)10)1-2-4(7)8/h3H,1-2,6H2,(H,7,8)(H,9,10)/t3-/m0/s1
Instrument: UPLC Q-Tof Premier, Waters
Instrument type: LC-ESI-QTOF
Ms type: MS2
Ion mode: POSITIVE
Collision energy: Ramp 5-60 V
Fragmentation mode: LOW-ENERGY CID
Ionization: ESI
Precursor m/z: 148.06096
Precursor type: [M+H]+
m/z	relative intensity
84.0444	999
102.0552	243
130.0502	243
148.0610	111
