Mass spectrum: Guanosine-3',5'-cyclic monophosphate; LC-ESI-QTOF; MS2; CE:Ramp 5-60 V; [M+H]+
Name: Guanosine-3',5'-cyclic monophosphate
Name: cGMP
Name: cyclic GMP
Class: Natural Product; Nucleoside; Phosphates
Formula: C10H12N5O7P
Exact mass: 345.04743
SMILES: NC(N4)=Nc(c3C(=O)4)n(cn3)[C@H](O1)[C@H](O)[C@H](O2)[C@@H](COP(O)(=O)2)1
InChI: InChI=1S/C10H12N5O7P/c11-10-13-7-4(8(17)14-10)12-2-15(7)9-5(16)6-3(21-9)1-20-23(18,19)22-6/h2-3,5-6,9,16H,1H2,(H,18,19)(H3,11,13,14,17)/t3-,5-,6-,9-/m1/s1
Instrument: UPLC Q-Tof Premier, Waters
Instrument type: LC-ESI-QTOF
Ms type: MS2
Ion mode: POSITIVE
Collision energy: Ramp 5-60 V
Fragmentation mode: LOW-ENERGY CID
Ionization: ESI
Precursor m/z: 346.05523
Precursor type: [M+H]+
m/z	relative intensity
135.0320	263
152.0582	999
346.0552	169
