Mass spectrum: gamma-Linolenic acid; GC-EI-TOF; MS; 1 TMS; BP:73
Name: gamma-Linolenic acid
Name: (6Z,9Z,12Z)-Octadecatrienoic acid
Name: 6,9,12-Octadecatrienoic acid
Class: Natural Product
Formula: C18H30O2
Exact mass: 278.22458
SMILES: CCCCCC=CCC=CCC=CCCCCC(O)=O
InChI: InChI=1S/C18H30O2/c1-2-3-4-5-6-7-8-9-10-11-12-13-14-15-16-17-18(19)20/h6-7,9-10,12-13H,2-5,8,11,14-17H2,1H3,(H,19,20)/b7-6-,10-9-,13-12-
Instrument: Pegasus III TOF-MS system, Leco; GC 6890, Agilent Technologies
Instrument type: GC-EI-TOF
Ms type: MS
Ion mode: POSITIVE
Retention time: 551.326 sec
Base peak: 73
Derivative form: C21H38O2Si
Derivative mass: 350.26411
Derivative type: 1 TMS
m/z	relative intensity
60	22
61	89
62	15
63	26
64	6
65	132
66	118
67	684
68	13
69	66
70	19
71	29
72	59
73	999
74	114
75	786
76	81
77	344
78	164
79	735
80	419
81	370
82	71
83	60
84	70
85	40
86	14
87	8
88	10
89	26
90	6
91	404
92	103
93	321
94	184
95	221
96	60
97	38
98	18
99	15
100	3
101	15
102	6
103	25
104	18
105	163
106	80
107	150
108	69
109	55
110	19
111	12
112	4
113	4
114	2
115	24
116	67
117	186
118	37
119	98
120	128
121	124
122	45
123	34
124	10
125	6
126	2
127	5
128	10
129	215
130	38
131	79
132	28
133	78
134	43
135	68
136	42
137	26
138	5
139	4
140	1
141	5
142	7
143	24
144	13
145	88
146	14
147	51
148	20
149	49
150	65
151	15
152	3
153	4
154	2
155	18
156	5
157	26
158	6
159	26
160	6
161	35
162	37
163	35
164	19
165	6
166	1
167	3
168	2
169	11
170	4
171	21
172	5
173	16
174	4
175	29
176	17
177	24
178	8
179	2
180	1
181	3
182	1
183	8
184	2
185	22
186	4
187	8
188	3
189	13
190	5
191	7
192	3
193	1
195	2
197	4
198	1
199	5
200	1
201	4
202	1
203	6
204	4
205	2
206	2
207	1
209	1
211	4
212	2
213	3
214	1
215	2
216	2
217	3
218	9
219	3
221	1
223	3
224	1
225	1
226	1
227	1
231	1
232	2
233	1
235	3
236	1
237	3
238	1
239	2
241	1
242	1
243	7
244	1
249	7
250	1
251	2
252	8
253	4
254	1
260	6
261	1
263	2
265	4
266	1
277	1
279	2
280	1
293	2
307	1
334	1
335	10
336	2
350	6
351	2
