Mass spectrum: 3-Methoxycinnamic acid; LC-ESI-QTOF; MS2; CE:Ramp 5-60 V; [M+H-H2O]+
Name: 3-Methoxycinnamic acid
Name: trans-3-Methoxycinnamic acid
Name: (E)-3-(3-methoxyphenyl)prop-2-enoic acid
Class: Natural Product
Formula: C10H10O3
Exact mass: 178.06299
SMILES: COc(c1)cc(cc1)C=CC(O)=O
InChI: InChI=1S/C10H10O3/c1-13-9-4-2-3-8(7-9)5-6-10(11)12/h2-7H,1H3,(H,11,12)/b6-5+
Instrument: UPLC Q-Tof Premier, Waters
Instrument type: LC-ESI-QTOF
Ms type: MS2
Ion mode: POSITIVE
Collision energy: Ramp 5-60 V
Fragmentation mode: LOW-ENERGY CID
Ionization: ESI
Full scan fragment ion peak: 161.1
Ion type: [M+H-H2O]+
m/z	relative intensity
77.0388	114
79.0542	89
89.0384	102
89.0883	20
90.0464	373
90.0965	76
92.0261	27
102.0474	22
103.0545	186
103.1081	35
105.0703	84
118.0416	637
118.0985	123
133.0653	643
133.1259	112
161.0603	999
161.1275	175
162.0637	26
