Mass spectrum: N-Acetyl-D-glucosamine; GC-EI-TOF; MS; 4 TMS; BP:73
Name: N-Acetyl-D-glucosamine
Name: GlcNAc
Name: N-Acetylchitosamine
Name: 2-Acetamido-2-deoxy-D-glucose
Class: Natural Product
Formula: C8H15NO6
Exact mass: 221.08994
SMILES: OC[C@@H](O1)[C@@H](O)[C@H](O)[C@@H](NC(C)=O)C(O)1
InChI: InChI=1S/C8H15NO6/c1-3(11)9-5-7(13)6(12)4(2-10)15-8(5)14/h4-8,10,12-14H,2H2,1H3,(H,9,11)/t4-,5-,6-,7-,8?/m1/s1
Instrument: Pegasus III TOF-MS system, Leco; GC 6890, Agilent Technologies
Instrument type: GC-EI-TOF
Ms type: MS
Ion mode: POSITIVE
Retention time: 527.629 sec
Base peak: 73
Derivative form: C20H47NO6Si4
Derivative mass: 509.24804
Derivative type: 4 TMS
m/z	relative intensity
60	6
61	7
62	1
63	1
65	1
66	7
67	3
68	1
69	1
70	6
71	4
72	17
73	999
74	90
75	74
76	6
77	17
78	2
79	10
80	2
81	3
82	6
83	12
84	5
85	4
86	5
87	4
88	3
89	45
90	4
91	2
92	1
94	1
95	2
96	3
97	2
98	2
99	5
100	14
101	18
102	9
103	74
104	7
105	8
106	1
109	1
110	1
111	2
112	3
113	9
114	10
115	6
116	19
117	74
118	8
119	6
120	1
125	1
126	2
127	5
128	4
129	77
130	13
131	19
132	4
133	34
134	5
135	3
137	1
139	1
140	1
141	3
142	4
143	9
144	6
145	2
146	1
147	190
148	30
149	19
150	2
151	1
152	1
153	1
154	2
155	3
156	6
157	49
158	10
159	43
160	6
161	3
162	1
163	4
167	1
168	2
169	5
170	3
171	8
172	3
173	8
174	2
175	2
177	1
181	1
182	1
183	2
184	1
185	2
186	3
187	1
188	1
189	11
190	4
191	13
192	2
193	1
195	1
196	1
199	1
201	53
202	22
203	6
204	19
205	118
206	24
207	12
208	2
210	1
213	4
214	2
215	1
216	2
217	25
218	6
219	2
220	1
221	3
222	1
227	1
228	1
229	16
230	8
231	4
232	1
242	1
243	5
244	3
245	2
246	3
247	1
257	1
258	2
259	1
274	3
275	1
277	2
278	1
284	1
285	2
286	1
291	3
292	1
303	2
305	2
307	1
315	9
316	2
317	1
318	3
319	81
320	25
321	12
322	2
489	1
594	1
595	3
596	2
597	1
