Mass spectrum: 4-Methylthiobutyl glucosinolate; LC-ESI-QTOF; MS2; CE:Ramp 5-60 V; [M-H]-
Name: 4-Methylthiobutyl glucosinolate
Name: 4MTB
Name: Glucoerucin
Name: 4-(Methylthio)butylglucosinolate
Class: Alkylglucosinolate
Formula: C12H23NO9S3
Exact mass: 421.05349
SMILES: CSCCCCC(=NOS(O)(=O)=O)SC(O1)C(O)C(O)C(O)C(CO)1
InChI: InChI=1S/C12H23NO9S3/c1-23-5-3-2-4-8(13-22-25(18,19)20)24-12-11(17)10(16)9(15)7(6-14)21-12/h7,9-12,14-17H,2-6H2,1H3,(H,18,19,20)/b13-8-
Instrument: UPLC Q-Tof Premier, Waters
Instrument type: LC-ESI-QTOF
Ms type: MS2
Ion mode: NEGATIVE
Collision energy: Ramp 5-60 V
Fragmentation mode: LOW-ENERGY CID
Ionization: ESI
Precursor m/z: 420.04567
Precursor type: [M-H]-
m/z	relative intensity
74.9939	560
79.9601	148
95.9546	640
96.9622	999
420.0457	814
420.5610	79
