Mass spectrum: 1,3-Diaminopropane; GC-EI-TOF; MS; 4 TMS; BP:73
Name: 1,3-Diaminopropane
Class: Natural Product
Formula: C3H10N2
Exact mass: 74.08440
SMILES: NCCCN
InChI: InChI=1S/C3H10N2/c4-2-1-3-5/h1-5H2
Instrument: Pegasus III TOF-MS system, Leco; GC 6890, Agilent Technologies
Instrument type: GC-EI-TOF
Ms type: MS
Ion mode: POSITIVE
Retention time: 407.323 sec
Base peak: 73
Derivative form: C15H42N2Si4
Derivative mass: 362.24251
Derivative type: 4 TMS
m/z	relative intensity
60	23
61	10
70	11
71	8
72	27
73	999
74	90
75	26
76	1
77	3
83	2
84	7
85	10
86	407
87	41
88	18
89	1
98	9
99	6
100	193
101	30
102	31
103	8
104	2
112	15
113	12
114	26
115	14
116	33
117	32
118	6
119	2
126	4
127	2
128	70
129	23
130	117
131	34
132	18
133	3
134	1
142	3
143	2
144	12
145	4
146	40
147	6
148	3
156	3
157	1
158	16
159	3
160	301
161	51
162	22
163	2
170	7
171	4
172	238
173	56
174	481
175	90
176	42
177	5
184	1
185	3
186	85
187	18
188	14
189	3
190	1
200	2
201	270
202	59
203	24
204	3
259	8
260	2
261	1
273	1
347	2
362	1
