Mass spectrum: Luteolin; LC-ESI-QTOF; MS2; CE:30 eV; [M+H]+
Name: 3',4',5,7-tetrahydroxyflavone
Name: Luteolin
Name: Lutl
Name: 2-(3,4-dihydroxyphenyl)-5,7-dihydroxychromen-4-one
Class: Natural Product
Formula: C15H10O6
Exact mass: 286.04774
SMILES: Oc(c3)c(O)cc(c3)C(=C1)Oc(c2)c(c(O)cc(O)2)C(=O)1
InChI: InChI=1S/C15H10O6/c16-8-4-11(19)15-12(20)6-13(21-14(15)5-8)7-1-2-9(17)10(18)3-7/h1-6,16-19H
Instrument: UPLC Q-Tof Premier, Waters
Instrument type: LC-ESI-QTOF
Ms type: MS2
Ion mode: POSITIVE
Collision energy: 30 eV
Fragmentation mode: LOW-ENERGY CID
Ionization: ESI
Full scan fragment ion peak: 287.1
Ion type: [M+H]+
m/z	relative intensity
67.0076	79
68.9873	80
69.0270	20
79.0465	20
89.0325	91
107.0455	31
109.0251	26
111.0041	30
115.0518	21
117.0308	134
128.0605	22
135.0428	349
135.1027	36
137.0222	112
139.0536	40
153.0178	999
153.0816	103
154.0207	26
157.0644	33
161.0233	143
171.0444	34
179.0339	42
185.0604	41
203.0351	21
213.0561	57
241.0502	151
269.0452	59
287.0556	682
287.1415	44
288.0590	42
