Mass spectrum: trans-4-Hydroxy-L-proline; LC-ESI-QTOF; MS2; CE:Ramp 5-60 V; [M-H]-
Name: trans-4-Hydroxy-L-proline
Name: Hyp
Name: Hypro
Name: (2S,4R)-4-Hydroxypyrrolidine-2-carboxylic acid
Name: Oxaceprol
Class: Carboxylic acids
Formula: C5H9NO3
Exact mass: 131.05824
SMILES: [H]C(O)(C1)CC([H])(N1)C(O)=O
InChI: InChI=1S/C5H9NO3/c7-3-1-4(5(8)9)6-2-3/h3-4,6-7H,1-2H2,(H,8,9)/t3-,4+/m1/s1
Instrument: UPLC Q-Tof Premier, Waters
Instrument type: LC-ESI-QTOF
Ms type: MS2
Ion mode: NEGATIVE
Collision energy: Ramp 5-60 V
Fragmentation mode: LOW-ENERGY CID
Ionization: ESI
Precursor m/z: 130.05044
Precursor type: [M-H]-
m/z	relative intensity
71.0155	43
84.0463	45
128.0353	349
130.0504	999
