Mass spectrum: Myricitrin; LC-ESI-QTOF; MS2; CE:Ramp 5-60 V; [M+H]+
Name: Myricetin-3-Rhamnoside
Name: Myrc-3-Rha
Name: Myricitrin
Name: Myricitrine
Name: Myricetrin
Name: Myricitroside
Name: myricetin-3-O-rhamnoside
Name: Myricetol 3-rhamnoside
Name: Myricetin 3-O-alpha-L-rhamnopyranoside
Name: 3-((6-Deoxy-alpha-L-mannopyranosyl)oxy)-5,7-dihydroxy-2-(3,4,5-trihydroxyphenyl)-4H-benzopyran-4-one
Class: Flavonoid
Formula: C21H20O12
Exact mass: 464.09548
SMILES: Oc(c4)cc(O1)c(c(O)4)C(=O)C(O[C@H](O3)[C@H](O)[C@H](O)[C@@H](O)[C@H](C)3)=C1c(c2)cc(O)c(O)c(O)2
InChI: InChI=1S/C21H20O12/c1-6-14(26)17(29)18(30)21(31-6)33-20-16(28)13-9(23)4-8(22)5-12(13)32-19(20)7-2-10(24)15(27)11(25)3-7/h2-6,14,17-18,21-27,29-30H,1H3/t6-,14-,17+,18+,21-/m0/s1
Instrument: UPLC Q-Tof Premier, Waters
Instrument type: LC-ESI-QTOF
Ms type: MS2
Ion mode: POSITIVE
Collision energy: Ramp 5-60 V
Fragmentation mode: LOW-ENERGY CID
Ionization: ESI
Precursor m/z: 465.10329
Precursor type: [M+H]+
m/z	relative intensity
71.0507	165
85.0291	218
129.0546	80
147.0644	17
153.0179	76
165.0172	34
217.0492	29
245.0429	37
273.0397	32
303.0494	31
319.0441	999
320.0479	32
465.1033	15
