Mass spectrum: Caffeic acid; LC-ESI-QTOF; MS2; CE:Ramp 5-60 V; [M-H-CO2]-
Name: 3,4-dihydroxycinnamic acid
Name: Caffeic acid
Name: (E)-3-(3,4-dihydroxyphenyl)prop-2-enoic acid
Class: Natural Product
Formula: C9H8O4
Exact mass: 180.04226
SMILES: C1=CC(=C(C=C1/C=C/C(=O)O)O)O
InChI: InChI=1S/C9H8O4/c10-7-3-1-6(5-8(7)11)2-4-9(12)13/h1-5,10-11H,(H,12,13)/b4-2+
Instrument: UPLC Q-Tof Premier, Waters
Instrument type: LC-ESI-QTOF
Ms type: MS2
Ion mode: NEGATIVE
Collision energy: Ramp 5-60 V
Fragmentation mode: LOW-ENERGY CID
Ionization: ESI
Full scan fragment ion peak: 135
Ion type: [M-H-CO2]-
m/z	relative intensity
89.0395	12
107.0502	24
117.0341	11
134.0367	134
135.0446	999
135.2218	21
135.3407	10
135.4022	16
135.4827	11
135.5212	10
