Mass spectrum: Myricetin-3-Galactoside; LC-ESI-QTOF; MS2; CE:Ramp 5-60 V; [M-H]-
Name: Myricetin-3-Galactoside
Name: Myrc-3-Gal
Name: Myricetin-3-Galactopyranoside
Class: Flavonoid
Formula: C21H20O13
Exact mass: 480.09039
SMILES: OCC(O1)C(O)C(O)C(O)C1OC(C(=O)3)=C(Oc(c4)c(c(O)cc(O)4)3)c(c2)cc(O)c(O)c(O)2
InChI: InChI=1S/C21H20O13/c22-5-12-15(28)17(30)18(31)21(33-12)34-20-16(29)13-8(24)3-7(23)4-11(13)32-19(20)6-1-9(25)14(27)10(26)2-6/h1-4,12,15,17-18,21-28,30-31H,5H2/t12-,15-,17+,18-,21+/m1/s1
Instrument: UPLC Q-Tof Premier, Waters
Instrument type: LC-ESI-QTOF
Ms type: MS2
Ion mode: NEGATIVE
Collision energy: Ramp 5-60 V
Fragmentation mode: LOW-ENERGY CID
Ionization: ESI
Precursor m/z: 479.08257
Precursor type: [M-H]-
m/z	relative intensity
151.0035	61
178.9982	57
214.0279	85
242.0225	69
243.0300	60
259.0256	92
270.0177	75
271.0251	449
287.0204	266
316.0225	999
317.0294	232
479.0826	877
480.0884	104
