Mass spectrum: Glycolic acid; GC-EI-TOF; MS; 2 TMS; BP:73
Name: Glycolic acid
Name: Glycolate
Name: Hydroxyacetic acid
Class: Natural Product
Formula: C2H4O3
Exact mass: 76.01604
SMILES: OCC(O)=O
InChI: InChI=1S/C2H4O3/c3-1-2(4)5/h3H,1H2,(H,4,5)
Instrument: Pegasus III TOF-MS system, Leco; GC 6890, Agilent Technologies
Instrument type: GC-EI-TOF
Ms type: MS
Ion mode: POSITIVE
Retention time: 266.632 sec
Base peak: 73
Derivative form: C8H20O3Si2
Derivative mass: 220.0951
Derivative type: 2 TMS
m/z	relative intensity
60	17
61	26
62	3
63	3
65	1
66	197
67	17
69	1
70	6
71	10
72	41
73	999
74	90
75	102
76	9
77	36
78	4
79	12
81	29
82	1
84	2
85	2
87	14
88	34
89	19
90	3
91	1
92	1
93	1
95	5
99	1
101	9
102	11
103	42
104	5
105	11
106	1
107	1
113	1
115	12
116	3
117	27
118	3
119	8
120	1
130	1
131	32
132	5
133	70
134	10
135	5
146	2
147	630
148	102
149	60
150	7
151	2
161	33
162	5
163	2
174	8
175	1
176	1
177	104
178	17
179	7
180	1
190	2
205	61
206	11
207	5
