Mass spectrum: D-Ribose 5-phosphate; GC-EI-TOF; MS; 5 TMS; 1 MEOX; BP:73
Name: D-Ribose 5-phosphate
Class: Natural Product
Formula: C5H11O8P
Exact mass: 230.01915
SMILES: OC(O1)[C@H](O)[C@H](O)[C@H]1COP(O)(O)=O
InChI: InChI=1S/C5H11O8P/c6-3-2(1-12-14(9,10)11)13-5(8)4(3)7/h2-8H,1H2,(H2,9,10,11)/t2-,3-,4-,5?/m1/s1
Instrument: Pegasus III TOF-MS system, Leco; GC 6890, Agilent Technologies
Instrument type: GC-EI-TOF
Ms type: MS
Ion mode: POSITIVE
Retention time: 499.558 sec
Base peak: 73
Derivative form: C21H54NO8PSi5
Derivative mass: 619.24334
Derivative type: 5 TMS; 1 MEOX
m/z	relative intensity
60	8
61	13
62	1
63	1
65	1
66	7
67	4
69	2
70	6
71	4
72	17
73	999
74	86
75	86
76	6
77	30
78	4
79	8
82	2
83	2
84	4
85	8
86	6
87	6
88	2
89	69
90	5
91	4
93	2
94	2
95	1
96	1
97	1
98	4
99	9
100	8
101	50
102	9
103	18
104	2
105	16
106	2
107	1
111	3
112	2
113	9
114	6
115	12
116	15
117	18
118	1
119	6
121	2
123	1
125	1
126	14
127	7
128	4
129	96
130	25
131	22
132	5
133	57
134	8
135	11
136	1
137	3
139	1
140	2
141	2
142	8
143	10
144	2
145	5
146	1
147	144
148	20
149	20
150	3
151	6
152	2
153	1
156	2
157	7
158	33
159	7
160	25
161	8
162	2
163	7
164	2
165	1
167	1
168	8
169	4
170	2
172	1
173	5
174	5
175	2
177	1
179	1
181	5
182	1
183	2
184	2
189	9
190	1
191	11
192	2
193	7
194	1
195	5
196	1
198	7
199	1
200	5
201	2
202	1
203	2
204	6
205	12
206	2
207	16
208	2
209	2
210	1
211	37
212	5
213	3
214	1
215	4
216	3
217	157
218	34
219	16
220	2
221	2
225	10
226	1
227	7
228	1
229	2
230	2
231	2
240	1
241	1
242	1
243	1
246	1
253	2
255	1
256	5
257	2
258	2
269	1
272	8
273	1
274	1
275	1
283	3
284	1
285	3
287	1
288	1
290	1
298	2
299	116
300	29
301	16
302	3
303	1
305	1
306	1
313	3
314	9
315	162
316	42
317	20
318	2
328	2
331	1
341	4
356	1
357	15
358	3
359	2
362	2
363	1
373	3
385	1
386	1
387	5
388	1
389	1
402	1
403	13
404	4
405	1
458	2
459	15
460	5
461	3
604	1
