Mass spectrum: Caffeine; LC-ESI-QTOF; MS2; CE:Ramp 5-60 V; [M+H]+
Name: Caffeine
Name: 1,3,7-Trimethylxanthine
Name: 1,3,7-Trimethyl-2,6-dioxopurine
Name: Methyltheobromine
Name: Guaranine
Class: Purine alkaloid
Formula: C8H10N4O2
Exact mass: 194.08038
SMILES: Cn(c2)c(C(=O)1)c(n2)N(C)C(=O)N(C)1
InChI: InChI=1S/C8H10N4O2/c1-10-4-9-6-5(10)7(13)12(3)8(14)11(6)2/h4H,1-3H3
Instrument: UPLC Q-Tof Premier, Waters
Instrument type: LC-ESI-QTOF
Ms type: MS2
Ion mode: POSITIVE
Collision energy: Ramp 5-60 V
Fragmentation mode: LOW-ENERGY CID
Ionization: ESI
Precursor m/z: 195.08817
Precursor type: [M+H]+
m/z	relative intensity
138.0632	25
195.0815	999
