Mass spectrum: Mecamylamine; LC-ESI-QTOF; MS2; CE:Ramp 5-60 V; [M+H]+
Name: Mecamylamine
Name: 2-(Methylamino)isocamphane
Name: N,2,3,3-Tetramethylbicyclo(2.2.1)heptan-2-amine
Name: Mecamine
Name: Inversine
Name: 3-Methylaminoisocamphane
Name: Mevasin
Name: N,2,3,3-Tetramethyl-2-norbornanamine
Class: Amine
Formula: C11H21N
Exact mass: 167.16740
SMILES: CNC(C)(C21)C(C)(C)C(CC2)C1
InChI: InChI=1S/C11H21N/c1-10(2)8-5-6-9(7-8)11(10,3)12-4/h8-9,12H,5-7H2,1-4H3
Instrument: UPLC Q-Tof Premier, Waters
Instrument type: LC-ESI-QTOF
Ms type: MS2
Ion mode: POSITIVE
Collision energy: Ramp 5-60 V
Fragmentation mode: LOW-ENERGY CID
Ionization: ESI
Precursor m/z: 168.17519
Precursor type: [M+H]+
m/z	relative intensity
67.0552	53
79.0547	61
81.0698	999
95.0862	160
137.1317	585
168.1752	125
