Mass spectrum: Baicalin; LC-ESI-QTOF; MS2; CE:Ramp 5-60 eV; [M+H]+
Name: baicalein-7-O-glucuronide
Name: Baicalin
Name: Baic_7_GlcA
Name: (2S,3S,4S,5R,6S)-6-(5,6-dihydroxy-4-oxo-2-phenyl-chromen-7-yl)oxy-3,4,5-trihydroxy-oxane-2-carboxylic acid
Class: Natural Product
Formula: C21H18O11
Exact mass: 446.08491
SMILES: OC(=O)[C@@H](O1)[C@@H](O)[C@H](O)[C@@H](O)[C@@H]1Oc(c2)c(O)c(O)c(C(=O)3)c(OC(c(c4)cccc4)=C3)2
InChI: InChI=1S/C21H18O11/c22-9-6-10(8-4-2-1-3-5-8)30-11-7-12(14(23)15(24)13(9)11)31-21-18(27)16(25)17(26)19(32-21)20(28)29/h1-7,16-19,21,23-27H,(H,28,29)/t16-,17-,18+,19-,21+/m0/s1
Instrument: UPLC Q-Tof Premier, Waters
Instrument type: LC-ESI-QTOF
Ms type: MS2
Ion mode: POSITIVE
Collision energy: Ramp 5-60 eV
Fragmentation mode: LOW-ENERGY CID
Ionization: ESI
Full scan fragment ion peak: 447.1
Ion type: [M+H]+
m/z	relative intensity
95.0072	13
103.0502	18
123.0055	96
169.0138	19
225.0551	10
253.0499	26
271.0604	999
271.1434	55
272.0640	86
447.0927	162
448.0969	19
