Mass spectrum: Datiscin; LC-ESI-QTOF; MS2; CE:Ramp 5-60 V; [M-H]-
Name: Datiscin
Name: Datc-3-Glc-6pp-Rha
Name: datiscetin-3-O-rutinoside
Formula: C27H30O15
Exact mass: 594.15847
SMILES: c(c5)(O)cc(c(c52)C(C(OC(O3)C(C(C(C3COC(C4O)OC(C(C4O)O)C)O)O)O)=C(O2)c(c(O)1)cccc1)=O)O
InChI: InChI=1S/C27H30O15/c1-9-17(31)20(34)22(36)26(39-9)38-8-15-18(32)21(35)23(37)27(41-15)42-25-19(33)16-13(30)6-10(28)7-14(16)40-24(25)11-4-2-3-5-12(11)29/h2-7,9,15,17-18,20-23,26-32,34-37H,8H2,1H3/t9-,15+,17-,18+,20+,21-,22+,23+,26+,27-/m0/s1
Instrument: UPLC Q-Tof Premier, Waters
Instrument type: LC-ESI-QTOF
Ms type: MS2
Ion mode: NEGATIVE
Collision energy: Ramp 5-60 V
Fragmentation mode: LOW-ENERGY CID
Ionization: ESI
Precursor m/z: 593.15066
Precursor type: [M-H]-
m/z	relative intensity
125.0263	136
151.0057	177
255.0338	109
267.0339	112
284.0368	209
285.0432	999
593.1506	799
