Mass spectrum: Rosmarinic acid; LC-ESI-QTOF; MS2; CE:Ramp 5-60 V; [M-H]-
Name: Rosmarinic acid
Name: 7-Hydroxy-PIPAT
Name: Rosmarinate
Name: Rosemary acid
Name: (R)-O-(3,4-Dihydroxycinnamoyl)-3-(3,4- dihydroxyphenyl)lactic acid
Class: Caffeic acid
Formula: C18H16O8
Exact mass: 360.08452
SMILES: OC(=O)C(OC(=O)C=Cc(c2)cc(O)c(O)c2)Cc(c1)cc(O)c(O)c1
InChI: InChI=1S/C18H16O8/c19-12-4-1-10(7-14(12)21)3-6-17(23)26-16(18(24)25)9-11-2-5-13(20)15(22)8-11/h1-8,16,19-22H,9H2,(H,24,25)/b6-3+/t16-/m1/s1
Instrument: UPLC Q-Tof Premier, Waters
Instrument type: LC-ESI-QTOF
Ms type: MS2
Ion mode: NEGATIVE
Collision energy: Ramp 5-60 V
Fragmentation mode: LOW-ENERGY CID
Ionization: ESI
Precursor m/z: 359.07671
Precursor type: [M-H]-
m/z	relative intensity
72.9944	155
123.0454	126
132.0219	53
133.0297	306
135.0452	253
161.0243	999
179.0356	175
197.0456	269
359.0767	185
