Mass spectrum: trans-2-Hexenal; LC-ESI-QTOF; MS2; CE:Ramp 5-60 V; [M+H]+
Name: trans-2-Hexenal
Name: trans-2-Hexen-1-al
Name: trans-2-Propylacrolein
Name: trans-2-Hexenyl aldehyde
Class: Fatty acyls
Formula: C6H10O
Exact mass: 98.07316
SMILES: CCCC=CC=O
InChI: InChI=1S/C6H10O/c1-2-3-4-5-6-7/h4-6H,2-3H2,1H3/b5-4+
Instrument: UPLC Q-Tof Premier, Waters
Instrument type: LC-ESI-QTOF
Ms type: MS2
Ion mode: POSITIVE
Collision energy: Ramp 5-60 V
Fragmentation mode: LOW-ENERGY CID
Ionization: ESI
Precursor m/z: 99.08096
Precursor type: [M+H]+
m/z	relative intensity
81.0533	412
99.0810	999
