Mass spectrum: trans-Cinnamic acid; LC-ESI-QTOF; MS2; CE:Ramp 5-60 V; [M+H]+
Name: trans-Cinnamic acid
Name: Zimtsaeure
Name: 3-Phenylpropenoic Acid
Name: trans-3-Phenylacrylic acid
Name: trans-3-Benzenepropenoic Acid
Name: trans-beta-Carboxystyrene
Class: Carboxylic acids
Formula: C9H8O2
Exact mass: 148.05243
SMILES: OC(=O)C=Cc(c1)cccc1
InChI: InChI=1S/C9H8O2/c10-9(11)7-6-8-4-2-1-3-5-8/h1-7H,(H,10,11)/b7-6+
Instrument: UPLC Q-Tof Premier, Waters
Instrument type: LC-ESI-QTOF
Ms type: MS2
Ion mode: POSITIVE
Collision energy: Ramp 5-60 V
Fragmentation mode: LOW-ENERGY CID
Ionization: ESI
Precursor m/z: 149.06023
Precursor type: [M+H]+
m/z	relative intensity
131.0512	101
149.0074	103
149.0555	999
