Mass spectrum: DL-3-Aminoisobutyric acid; LC-ESI-QTOF; MS2; CE:Ramp 5-60 V; [M-H]-
Name: DL-3-Aminoisobutyric acid
Name: BAIB
Name: 3-Aminoisobutyrate
Name: beta-Aminoisobutyric acid
Name: 3-Aminoisobutanoate
Name: 2-Methyl-beta-alanine
Name: 3-Amino-2-methylpropanoate
Name: alpha-Methyl-beta-alanine
Class: Fatty acids
Formula: C4H9NO2
Exact mass: 103.06333
SMILES: NCC(C)C(O)=O
InChI: InChI=1S/C4H9NO2/c1-3(2-5)4(6)7/h3H,2,5H2,1H3,(H,6,7)
Instrument: UPLC Q-Tof Premier, Waters
Instrument type: LC-ESI-QTOF
Ms type: MS2
Ion mode: NEGATIVE
Collision energy: Ramp 5-60 V
Fragmentation mode: LOW-ENERGY CID
Ionization: ESI
Precursor m/z: 102.05553
Precursor type: [M-H]-
m/z	relative intensity
73.0306	331
102.0555	999
