Mass spectrum: Histamine; LC-ESI-QTOF; MS2; CE:Ramp 5-60 V; [M+H]+
Name: Histamine
Name: 2-(4-Imidazolyl)ethylamine
Name: 2-Imidazol-4-ylethylamine
Name: 1H-Imidazole-4-ethanamine
Name: Eramine
Name: beta.-Imidazolyl-4-ethylamine
Name: beta-Aminoethylglyoxaline
Name: Eramin
Name: Ergamine
Name: Ergotidine
Name: Theramine
Class: Alkylamines
Formula: C5H9N3
Exact mass: 111.07965
SMILES: C1=C(NC=N1)CCN
InChI: InChI=1S/C5H9N3/c6-2-1-5-3-7-4-8-5/h3-4H,1-2,6H2,(H,7,8)
Instrument: UPLC Q-Tof Premier, Waters
Instrument type: LC-ESI-QTOF
Ms type: MS2
Ion mode: POSITIVE
Collision energy: Ramp 5-60 V
Fragmentation mode: LOW-ENERGY CID
Ionization: ESI
Precursor m/z: 112.08744
Precursor type: [M+H]+
m/z	relative intensity
95.0597	43
112.0269	36
112.0874	999
