Mass spectrum: Kaempferide; LC-ESI-QTOF; MS2; CE:Ramp 5-60 eV; [M+H]+
Name: 3,5,7-trihydroxy-4'-methoxyflavone
Name: Kaempferide
Name: Kaer
Name: 3,5,7-trihydroxy-2-(4-methoxyphenyl)chromen-4-one
Class: Natural Product
Formula: C16H12O6
Exact mass: 300.06339
SMILES: COc(c3)ccc(c3)C(O1)=C(O)C(=O)c(c(O)2)c(cc(O)c2)1
InChI: InChI=1S/C16H12O6/c1-21-10-4-2-8(3-5-10)16-15(20)14(19)13-11(18)6-9(17)7-12(13)22-16/h2-7,17-18,20H,1H3
Instrument: UPLC Q-Tof Premier, Waters
Instrument type: LC-ESI-QTOF
Ms type: MS2
Ion mode: POSITIVE
Collision energy: Ramp 5-60 eV
Fragmentation mode: LOW-ENERGY CID
Ionization: ESI
Full scan fragment ion peak: 301.1
Ion type: [M+H]+
m/z	relative intensity
68.9875	12
77.0303	13
78.0387	12
106.0375	15
107.0456	12
124.0137	20
128.0607	12
135.0430	28
137.0226	12
139.0384	34
152.0104	15
153.0183	88
155.0494	14
161.0600	12
165.0187	27
183.0452	11
184.0526	15
187.0395	11
201.0554	40
212.0474	11
213.0551	18
229.0508	126
230.0582	98
257.0452	23
258.0534	92
269.0454	20
272.0682	10
286.0485	64
301.0712	999
301.1570	62
302.0750	57
