Mass spectrum: Tyramine; LC-ESI-QTOF; MS2; CE:Ramp 5-60 V; [M+H]+
Name: Tyramine
Name: 4-Hydroxyphenethylamine
Name: Uteramine
Name: 4-Hydroxy-beta-phenylethylamine
Name: 2-(4-Hydroxyphenyl)ethylamine
Name: 4-(2-Aminoethyl)phenol
Name: Systogene
Name: Tyrosamine
Class: Alkylamines
Formula: C8H11NO
Exact mass: 137.08406
SMILES: NCCc(c1)ccc(O)c1
InChI: InChI=1S/C8H11NO/c9-6-5-7-1-3-8(10)4-2-7/h1-4,10H,5-6,9H2
Instrument: UPLC Q-Tof Premier, Waters
Instrument type: LC-ESI-QTOF
Ms type: MS2
Ion mode: POSITIVE
Collision energy: Ramp 5-60 V
Fragmentation mode: LOW-ENERGY CID
Ionization: ESI
Precursor m/z: 138.09186
Precursor type: [M+H]+
m/z	relative intensity
77.0385	254
91.0542	167
93.0698	163
103.0541	199
121.0633	999
138.0919	16
