Mass spectrum: L-Carnosine; LC-ESI-QTOF; MS2; CE:Ramp 5-60 V; [M-H]-
Name: L-Carnosine
Name: beta-Ala-His
Name: beta-Alanyl-L-histidine
Name: L-Ignotine
Class: Amino acids
Formula: C9H14N4O3
Exact mass: 226.10659
SMILES: C1=C(NC=N1)C[C@@H](C(=O)O)NC(=O)CCN
InChI: InChI=1S/C9H14N4O3/c10-2-1-8(14)13-7(9(15)16)3-6-4-11-5-12-6/h4-5,7H,1-3,10H2,(H,11,12)(H,13,14)(H,15,16)/t7-/m0/s1
Instrument: UPLC Q-Tof Premier, Waters
Instrument type: LC-ESI-QTOF
Ms type: MS2
Ion mode: NEGATIVE
Collision energy: Ramp 5-60 V
Fragmentation mode: LOW-ENERGY CID
Ionization: ESI
Precursor m/z: 225.09879
Precursor type: [M-H]-
m/z	relative intensity
81.0466	144
93.0458	111
110.0725	999
154.0623	792
163.1012	110
225.0196	177
225.0988	722
