Mass spectrum: 4-Methyl-5-thiazoleethanol; LC-ESI-QTOF; MS2; CE:Ramp 5-60 V; [M+H]+
Name: 4-Methyl-5-thiazoleethanol
Name: MHT
Name: Sulfurol
Name: Hemineurine
Name: 4-Methyl-5-hydroxyethylthiazole
Class: Thiazoles
Formula: C6H9NOS
Exact mass: 143.04048
SMILES: OCCc(s1)c(C)nc1
InChI: InChI=1S/C6H9NOS/c1-5-6(2-3-8)9-4-7-5/h4,8H,2-3H2,1H3
Instrument: UPLC Q-Tof Premier, Waters
Instrument type: LC-ESI-QTOF
Ms type: MS2
Ion mode: POSITIVE
Collision energy: Ramp 5-60 V
Fragmentation mode: LOW-ENERGY CID
Ionization: ESI
Precursor m/z: 144.04828
Precursor type: [M+H]+
m/z	relative intensity
112.0255	160
113.0325	779
126.0412	381
144.0483	999
