Mass spectrum: 5'-S-Methylthioadenosine; LC-ESI-QTOF; MS2; CE:Ramp 5-60 V; [M+H]+
Name: 5'-S-Methylthioadenosine
Name: 5'-Deoxy-5'-Methylthioadenosine
Name: MTA
Name: Vitamin L2
Name: Thiomethyladenosine
Name: 5-Methylthioadenosine
Class: Nucleoside
Formula: C11H15N5O3S
Exact mass: 297.08956
SMILES: CSC[C@@H](O1)[C@@H](O)[C@@H](O)[C@@H]1n(c3)c(n2)c(n3)c(N)nc2
InChI: InChI=1S/C11H15N5O3S/c1-20-2-5-7(17)8(18)11(19-5)16-4-15-6-9(12)13-3-14-10(6)16/h3-5,7-8,11,17-18H,2H2,1H3,(H2,12,13,14)/t5-,7-,8-,11-/m1/s1
Instrument: UPLC Q-Tof Premier, Waters
Instrument type: LC-ESI-QTOF
Ms type: MS2
Ion mode: POSITIVE
Collision energy: Ramp 5-60 V
Fragmentation mode: LOW-ENERGY CID
Ionization: ESI
Precursor m/z: 298.09736
Precursor type: [M+H]+
m/z	relative intensity
119.0373	93
136.0624	999
298.0974	103
