Mass spectrum: Fusaric acid; GC-EI-TOF; MS; 1 TMS; BP:236
Name: Fusaric acid
Class: Natural Product
Formula: C10H13NO2
Exact mass: 179.09463
SMILES: CCCCc(c1)cnc(c1)C(O)=O
InChI: InChI=1S/C10H13NO2/c1-2-3-4-8-5-6-9(10(12)13)11-7-8/h5-7H,2-4H2,1H3,(H,12,13)
Instrument: Pegasus III TOF-MS system, Leco; GC 6890, Agilent Technologies
Instrument type: GC-EI-TOF
Ms type: MS
Ion mode: POSITIVE
Retention time: 462.355 sec
Base peak: 236
Derivative form: C13H21NO2Si
Derivative mass: 251.13416
Derivative type: 1 TMS
m/z	relative intensity
60	23
61	37
62	29
63	110
64	177
65	244
66	43
67	28
68	1
69	6
70	15
71	10
72	37
73	618
74	74
75	159
76	43
77	250
78	124
79	137
80	28
81	13
82	6
83	30
84	26
85	12
86	9
87	4
88	4
89	19
90	23
91	499
92	192
93	45
94	14
95	33
96	12
97	8
98	3
99	2
100	3
101	2
102	15
103	17
104	110
105	39
106	108
107	81
108	17
109	13
110	9
111	5
112	1
114	1
115	14
116	15
117	26
118	30
119	125
120	35
121	17
122	19
123	8
124	4
125	1
128	1
129	1
130	7
131	3
132	26
133	9
134	149
135	42
136	33
137	8
138	2
139	1
144	1
145	1
146	5
147	3
148	17
149	323
150	68
151	17
152	4
153	1
159	1
160	4
161	2
162	47
163	13
164	17
165	78
166	18
167	5
168	1
174	2
175	1
176	8
177	2
178	23
179	18
180	25
181	201
182	31
183	9
184	1
190	2
191	1
192	98
193	334
194	117
195	31
196	6
197	1
204	1
205	11
206	73
207	92
208	79
209	17
210	5
211	2
212	1
213	1
214	1
215	1
217	1
218	3
219	1
220	4
221	2
222	12
223	48
224	12
225	3
234	4
235	9
236	999
237	189
238	55
239	6
240	1
250	7
251	13
252	2
253	1
