Mass spectrum: Sinapic acid; LC-ESI-QTOF; MS2; CE:Ramp 5-60 V; [M+H]+
Name: Sinapic acid
Name: 3,5-dimethoxy-4-hydroxycinnamic acid
Name: 3-(4-hydroxy-3,5-dimethoxy-phenyl)prop-2-enoic acid
Class: Carboxylic acids
Formula: C11H12O5
Exact mass: 224.06847
SMILES: COC1=CC(=CC(=C1O)OC)/C=C/C(=O)O
InChI: InChI=1S/C11H12O5/c1-15-8-5-7(3-4-10(12)13)6-9(16-2)11(8)14/h3-6,14H,1-2H3,(H,12,13)/b4-3+
Instrument: UPLC Q-Tof Premier, Waters
Instrument type: LC-ESI-QTOF
Ms type: MS2
Ion mode: POSITIVE
Collision energy: Ramp 5-60 V
Fragmentation mode: LOW-ENERGY CID
Ionization: ESI
Precursor m/z: 225.07629
Precursor type: [M+H]+
m/z	relative intensity
65.0428	131
76.0351	67
77.0423	60
89.0421	134
90.0501	62
91.0579	640
101.0428	52
118.0453	128
119.0529	567
121.0325	74
129.0368	88
132.0246	69
147.0487	441
149.0279	196
164.0514	76
175.0440	703
192.0477	284
193.0053	91
207.0704	999
209.0368	221
225.0763	75
