Mass spectrum: Glutaric acid; LC-ESI-QTOF; MS2; CE:Ramp 5-60 V; [M-H]-
Name: Glutaric acid
Name: Glutamic Acid
Name: 1,3-Propanedicarboxylic acid
Name: Dicarboxylic Acid C5
Name: 1,5-Pentanedioic acid
Class: Carboxylic acids
Formula: C5H8O4
Exact mass: 132.04226
SMILES: OC(=O)CCCC(O)=O
InChI: InChI=1S/C5H8O4/c6-4(7)2-1-3-5(8)9/h1-3H2,(H,6,7)(H,8,9)
Instrument: UPLC Q-Tof Premier, Waters
Instrument type: LC-ESI-QTOF
Ms type: MS2
Ion mode: NEGATIVE
Collision energy: Ramp 5-60 V
Fragmentation mode: LOW-ENERGY CID
Ionization: ESI
Precursor m/z: 131.03446
Precursor type: [M-H]-
m/z	relative intensity
87.0453	999
113.0249	131
131.0345	420
