Mass spectrum: 2-Methoxycinnamic acid; LC-ESI-QTOF; MS2; CE:Ramp 5-60 V; [M+H-H2O]+
Name: 2-Methoxycinnamic acid
Name: (E)-3-(2-methoxyphenyl)prop-2-enoic acid
Class: Natural Product
Formula: C10H10O3
Exact mass: 178.06299
SMILES: COc(c1)c(ccc1)C=CC(O)=O
InChI: InChI=1S/C10H10O3/c1-13-9-5-3-2-4-8(9)6-7-10(11)12/h2-7H,1H3,(H,11,12)/b7-6+
Instrument: UPLC Q-Tof Premier, Waters
Instrument type: LC-ESI-QTOF
Ms type: MS2
Ion mode: POSITIVE
Collision energy: Ramp 5-60 V
Fragmentation mode: LOW-ENERGY CID
Ionization: ESI
Full scan fragment ion peak: 161.1
Ion type: [M+H-H2O]+
m/z	relative intensity
77.0389	151
77.0852	34
79.0545	153
79.1014	39
89.0391	49
90.0468	64
103.0546	136
103.1080	29
105.0702	562
105.1241	120
115.0552	25
118.0418	496
118.0990	103
133.0658	23
146.0371	238
146.1005	46
161.0603	999
161.1276	209
161.2567	27
162.0642	26
