Mass spectrum: Methyl Salicylate; LC-ESI-QTOF; MS2; CE:Ramp 5-60 V; [M-H]-
Name: Methyl Salicylate
Name: 2-Hydroxybenzoic acid methyl ester
Name: Methyl 2-hydroxybenzoate
Name: Oil of wintergreen
Name: Wintergreen oil
Name: Gaultheriaoel
Name: Gaultheria oil
Name: Pyrola
Name: Panalgesic
Name: Methyl Salicylic acid
Formula: C8H8O3
Exact mass: 152.04734
SMILES: COC(=O)c(c1)c(O)ccc1
InChI: InChI=1S/C8H8O3/c1-11-8(10)6-4-2-3-5-7(6)9/h2-5,9H,1H3
Instrument: UPLC Q-Tof Premier, Waters
Instrument type: LC-ESI-QTOF
Ms type: MS2
Ion mode: NEGATIVE
Collision energy: Ramp 5-60 V
Fragmentation mode: LOW-ENERGY CID
Ionization: ESI
Precursor m/z: 151.03954
Precursor type: [M-H]-
m/z	relative intensity
67.0363	232
95.0369	333
123.0373	999
134.9916	89
136.0484	90
151.0395	515
