Mass spectrum: Ideain; LC-ESI-QTOF; MS2; CE:30 V; [M-2H]-
Name: Cyanidin-3-O-galactoside
Name: (2S,3R,4S,5R,6R)-2-[2-(3,4-dihydroxyphenyl)-5,7-dihydroxychromenylium-3-yl]oxy-6-(hydroxymethyl)oxane-3,4,5-triol
Name: Ideain
Class: Natural Product
Formula: [C21H21O11]+
Exact mass: 449.10839
SMILES: OCC(O1)C(O)C(O)C(O)C1Oc(c3)c([o+1]c(c4)c(c(O)cc(O)4)3)c(c2)cc(O)c(O)c2
InChI: InChI=1S/C21H20O11/c22-7-16-17(27)18(28)19(29)21(32-16)31-15-6-10-12(25)4-9(23)5-14(10)30-20(15)8-1-2-11(24)13(26)3-8/h1-6,16-19,21-22,27-29H,7H2,(H3-,23,24,25,26)/p+1/t16-,17+,18+,19-,21-/m1/s1
Instrument: UPLC Q-Tof Premier, Waters
Instrument type: LC-ESI-QTOF
Ms type: MS2
Ion mode: NEGATIVE
Collision energy: 30 V
Fragmentation mode: LOW-ENERGY CID
Ionization: ESI
Full scan fragment ion peak: 447.1
Ion type: [M-2H]-
m/z	relative intensity
125.0585	48
147.0450	107
148.0194	57
211.0533	42
212.0716	63
213.0372	30
227.0310	41
228.0201	32
239.0330	79
240.0601	94
241.0175	46
255.0470	133
256.0452	134
257.0291	62
283.0487	174
284.0476	999
285.0115	350
285.9327	85
286.8250	35
