Mass spectrum: 2-Coumaric acid; GC-EI-TOF; MS; 2 TMS; BP:73
Name: o-Coumaric acid
Name: trans-2-Hydroxycinnamate
Name: trans-2-Hydroxycinnamic acid
Name: 2-Coumaric acid
Class: Natural Product
Formula: C9H8O3
Exact mass: 164.04734
SMILES: OC(=O)C=Cc(c1)c(O)ccc1
InChI: InChI=1S/C9H8O3/c10-8-4-2-1-3-7(8)5-6-9(11)12/h1-6,10H,(H,11,12)/b6-5+
Instrument: Pegasus III TOF-MS system, Leco; GC 6890, Agilent Technologies
Instrument type: GC-EI-TOF
Ms type: MS
Ion mode: POSITIVE
Retention time: 445.771 sec
Base peak: 73
Derivative form: C15H24O3Si2
Derivative mass: 308.1264
Derivative type: 2 TMS
m/z	relative intensity
60	9
61	22
62	11
63	33
64	9
65	14
66	20
67	5
69	2
70	6
71	6
72	23
73	999
74	103
75	128
76	21
77	44
78	7
79	18
80	1
81	2
82	1
83	9
84	2
85	10
86	2
87	8
88	4
89	52
90	35
91	49
92	7
93	3
94	1
95	3
97	2
98	1
99	2
100	1
101	17
102	15
103	17
104	4
105	14
106	2
107	2
109	1
110	1
111	1
113	2
114	2
115	43
116	9
117	11
118	64
119	12
120	3
121	6
122	1
123	1
127	1
128	2
129	3
130	2
131	17
132	3
133	30
134	6
135	54
136	7
137	4
139	3
141	1
143	2
144	7
145	13
146	24
147	580
148	100
149	59
150	7
151	7
152	1
159	9
160	3
161	111
162	18
163	9
164	2
165	1
166	1
173	1
174	1
175	23
176	5
177	10
178	1
179	6
180	1
181	3
189	2
190	38
191	8
192	7
193	2
195	1
201	1
203	2
205	4
206	1
209	7
210	1
217	2
218	1
219	43
220	10
221	3
235	3
249	1
251	3
265	2
292	2
293	75
294	22
295	8
296	1
307	3
308	44
309	12
310	4
