Mass spectrum: S-Sulforaphene; LC-ESI-QTOF; MS2; CE:Ramp 5-60 V; [M+H]+
Name: S-Sulforaphene
Name: (-)4-Isothiocyanato-4R-(methylsulfinyl)-1-butene
Name: Raphanin
Name: Sativin
Name: Sulphoraphen
Name: Sulforaphen
Formula: C6H9NOS2
Exact mass: 175.01256
SMILES: S=C=NCCC=CS(C)=O
InChI: InChI=1S/C6H9NOS2/c1-10(8)5-3-2-4-7-6-9/h3,5H,2,4H2,1H3/b5-3+
Instrument: UPLC Q-Tof Premier, Waters
Instrument type: LC-ESI-QTOF
Ms type: MS2
Ion mode: POSITIVE
Collision energy: Ramp 5-60 V
Fragmentation mode: LOW-ENERGY CID
Ionization: ESI
Precursor m/z: 176.02035
Precursor type: [M+H]+
m/z	relative intensity
78.0356	535
85.0124	555
87.0280	719
103.0232	327
112.0231	936
176.0204	999
