Mass spectrum: Oxypurinol; LC-ESI-QTOF; MS2; CE:Ramp 5-60 V; [M-H]-
Name: Oxypurinol
Name: DHPP
Name: Alloxanthine
Name: Oxipurinol
Name: Oxoallopurinol
Name: Ossipurinolo
Class: Pyrazolopyrimidines
Formula: C5H4N4O2
Exact mass: 152.03343
SMILES: C1=C2C(=NC(=O)NC2=O)NN1
InChI: InChI=1S/C5H4N4O2/c10-4-2-1-6-9-3(2)7-5(11)8-4/h1H,(H3,6,7,8,9,10,11)
Instrument: UPLC Q-Tof Premier, Waters
Instrument type: LC-ESI-QTOF
Ms type: MS2
Ion mode: NEGATIVE
Collision energy: Ramp 5-60 V
Fragmentation mode: LOW-ENERGY CID
Ionization: ESI
Precursor m/z: 151.02562
Precursor type: [M-H]-
m/z	relative intensity
108.0215	75
151.0256	999
