Mass spectrum: D-(-)-Mannitol; LC-ESI-QTOF; MS2; CE:Ramp 5-60 V; [M-H]-
Name: D-(-)-Mannitol
Name: Mannite
Name: Cordycepic acid
Name: Manita
Name: Manicol
Name: Mannidex
Name: Osmosal
Name: Diosmol
Name: Isotol
Name: Mannigen
Name: Mannitolum
Name: Resectisol
Name: Manna sugar
Name: 1,2,3,4,5,6-Hexanehexol
Name: Osmitrol
Class: Alditol
Formula: C6H14O6
Exact mass: 182.07904
SMILES: OCC([H])(O)C([H])(O)C([H])(O)C([H])(O)CO
InChI: InChI=1S/C6H14O6/c7-1-3(9)5(11)6(12)4(10)2-8/h3-12H,1-2H2/t3-,4-,5-,6-/m1/s1
Instrument: UPLC Q-Tof Premier, Waters
Instrument type: LC-ESI-QTOF
Ms type: MS2
Ion mode: NEGATIVE
Collision energy: Ramp 5-60 V
Fragmentation mode: LOW-ENERGY CID
Ionization: ESI
Precursor m/z: 181.07123
Precursor type: [M-H]-
m/z	relative intensity
59.0155	160
71.0150	563
73.0307	88
85.0297	108
89.0247	263
101.0247	470
113.0245	60
119.0359	78
163.0605	125
181.0712	999
