Mass spectrum: ParaXanthine; LC-ESI-QTOF; MS2; CE:Ramp 5-60 V; [M-H]-
Name: 1,7-Dimethylxanthine
Name: ParaXanthine
Name: 2,6-Dihydroxy-1,7-dimethylpurine
Name: 1,7-Dimethyl-1H-purine-2,6-dione
Class: Purines
Formula: C7H8N4O2
Exact mass: 180.06473
SMILES: O=C(N1)N(C)C(=O)c(n(C)2)c(nc2)1
InChI: InChI=1S/C7H8N4O2/c1-10-3-8-5-4(10)6(12)11(2)7(13)9-5/h3H,1-2H3,(H,9,13)
Instrument: UPLC Q-Tof Premier, Waters
Instrument type: LC-ESI-QTOF
Ms type: MS2
Ion mode: NEGATIVE
Collision energy: Ramp 5-60 V
Fragmentation mode: LOW-ENERGY CID
Ionization: ESI
Precursor m/z: 179.05692
Precursor type: [M-H]-
m/z	relative intensity
107.0114	41
108.0235	59
122.0357	999
135.0126	36
161.8861	122
162.8907	44
164.0334	222
178.8629	32
178.8889	56
179.0569	997
