Mass spectrum: Isorhamnetin-3-Galactoside-6''-Rhamnoside; LC-ESI-QTOF; MS2; CE:Ramp 5-60 V; [M-H]-
Name: Isorhamnetin-3-Galactoside-6''-Rhamnoside
Name: Isor-3-Gal-6''-Rha
Name: Isorhamnetin-3-Galactoside-6-Rhamnoside
Class: Flavonoid
Formula: C28H32O16
Exact mass: 624.16903
SMILES: O(CC(O2)C(O)C(O)C(C(OC(C5=O)=C(Oc(c45)cc(O)cc4O)c(c3)cc(c(O)c3)OC)2)O)C(O1)C(O)C(C(C1C)O)O
InChI: InChI=1S/C28H32O16/c1-9-18(32)21(35)23(37)27(41-9)40-8-16-19(33)22(36)24(38)28(43-16)44-26-20(34)17-13(31)6-11(29)7-15(17)42-25(26)10-3-4-12(30)14(5-10)39-2/h3-7,9,16,18-19,21-24,27-33,35-38H,8H2,1-2H3/t9-,16+,18-,19-,21+,22-,23+,24+,27+,28-/m0/s1
Instrument: UPLC Q-Tof Premier, Waters
Instrument type: LC-ESI-QTOF
Ms type: MS2
Ion mode: NEGATIVE
Collision energy: Ramp 5-60 V
Fragmentation mode: LOW-ENERGY CID
Ionization: ESI
Precursor m/z: 623.16121
Precursor type: [M-H]-
m/z	relative intensity
243.0309	122
255.0315	62
271.0265	192
285.0426	62
299.0215	415
300.0293	199
314.0447	517
315.0528	457
316.0588	55
623.1612	999
624.1730	270
