Mass spectrum: D-Gluconic acid; LC-ESI-QTOF; MS2; CE:Ramp 5-60 V; [M-H]-
Name: D-Gluconic acid
Name: D-gluconate
Name: Glonsen
Name: Glucose Acid
Name: D-Gluco-hexonic acid
Name: 2,3,4,5,6-Pentahydroxycaproic acid
Class: Carboxylic acids
Formula: C6H12O7
Exact mass: 196.05830
SMILES: OCC(O)C(O)C(O)C(O)C(O)=O
InChI: InChI=1S/C6H12O7/c7-1-2(8)3(9)4(10)5(11)6(12)13/h2-5,7-11H,1H2,(H,12,13)
Instrument: UPLC Q-Tof Premier, Waters
Instrument type: LC-ESI-QTOF
Ms type: MS2
Ion mode: NEGATIVE
Collision energy: Ramp 5-60 V
Fragmentation mode: LOW-ENERGY CID
Ionization: ESI
Precursor m/z: 195.0505
Precursor type: [M-H]-
m/z	relative intensity
59.0153	71
71.0149	84
75.0096	776
85.0304	81
87.0081	151
99.0085	247
129.0188	542
177.0404	51
195.0505	999
