Mass spectrum: D-Alloisoleucine; LC-ESI-QTOF; MS2; CE:Ramp 5-60 V; [M-H]-
Name: D-Alloisoleucine
Name: allo-Ile
Name: (2R,3S)-2-Amino-3-methylpentanoic acid
Name: (2R,3S)-2-Amino-3-methylvaleric acid
Class: Amino acids
Formula: C6H13NO2
Exact mass: 131.09463
SMILES: CC[C@H](C)[C@@H](N)C(O)=O
InChI: InChI=1S/C6H13NO2/c1-3-4(2)5(7)6(8)9/h4-5H,3,7H2,1-2H3,(H,8,9)/t4-,5+/m0/s1
Instrument: UPLC Q-Tof Premier, Waters
Instrument type: LC-ESI-QTOF
Ms type: MS2
Ion mode: NEGATIVE
Collision energy: Ramp 5-60 V
Fragmentation mode: LOW-ENERGY CID
Ionization: ESI
Precursor m/z: 130.08682
Precursor type: [M-H]-
m/z	relative intensity
130.0868	999
