Mass spectrum: gamma-Tocotrienol; LC-ESI-QTOF; MS2; CE:Ramp 5-60 V; [M+H]+
Name: gamma-Tocotrienol
Name: 7,8-Dimethyltocotrienol
Name: (R)-gamma-Tocotrienol
Class: Prenol Lipids
Formula: C28H42O2
Exact mass: 410.31848
SMILES: C(=CCCC(C2)(C)Oc(c(C2)1)c(C)c(C)c(O)c1)(C)CCC=C(C)CCC=C(C)C
InChI: InChI=1S/C28H42O2/c1-20(2)11-8-12-21(3)13-9-14-22(4)15-10-17-28(7)18-16-25-19-26(29)23(5)24(6)27(25)30-28/h11,13,15,19,29H,8-10,12,14,16-18H2,1-7H3/b21-13+,22-15+/t28-/m1/s1
Instrument: UPLC Q-Tof Premier, Waters
Instrument type: LC-ESI-QTOF
Ms type: MS2
Ion mode: POSITIVE
Collision energy: Ramp 5-60 V
Fragmentation mode: LOW-ENERGY CID
Ionization: ESI
Precursor m/z: 411.32626
Precursor type: [M+H]+
m/z	relative intensity
99.4891	173
100.4870	99
121.0371	159
410.0829	397
411.0013	938
411.0768	999
