Mass spectrum: Tyramine; GC-EI-TOF; MS; 3 TMS; BP:73
Name: Tyramine
Name: 2-(p-Hydroxyphenyl)ethylamine
Class: Natural Product
Formula: C8H11NO
Exact mass: 137.08406
SMILES: NCCc(c1)ccc(O)c1
InChI: InChI=1S/C8H11NO/c9-6-5-7-1-3-8(10)4-2-7/h1-4,10H,5-6,9H2
Instrument: Pegasus III TOF-MS system, Leco; GC 6890, Agilent Technologies
Instrument type: GC-EI-TOF
Ms type: MS
Ion mode: POSITIVE
Retention time: 498.886 sec
Base peak: 73
Derivative form: C17H35NOSi3
Derivative mass: 353.20264
Derivative type: 3 TMS
m/z	relative intensity
60	16
61	10
62	2
63	5
64	1
65	5
66	1
67	3
69	1
70	9
71	7
72	17
73	999
74	91
75	35
76	3
77	15
78	8
79	6
81	1
82	4
83	4
84	4
85	8
86	277
87	28
88	11
89	15
90	12
91	21
92	2
93	2
95	3
97	1
99	3
100	128
101	22
102	22
103	12
104	5
105	12
106	1
107	4
109	2
113	4
114	3
115	8
116	15
117	25
118	5
119	6
120	1
121	6
122	1
123	1
125	1
129	2
130	31
131	22
132	6
133	11
134	3
135	11
136	1
137	1
143	1
144	8
145	6
146	5
147	9
148	3
149	28
150	5
151	5
158	7
159	3
160	3
161	4
162	5
163	12
164	10
165	6
166	1
172	6
173	2
174	650
175	125
176	63
177	13
178	2
179	27
180	5
181	1
190	6
191	2
192	2
193	5
194	1
195	1
207	5
208	1
209	1
221	1
223	3
237	1
248	3
249	1
250	10
251	2
252	1
264	8
265	2
266	1
337	1
338	23
339	8
340	3
