Mass spectrum: Citric acid; GC-EI-TOF; MS; 4 TMS; BP:73
Name: Citric acid
Name: 2-Hydroxytricarballylic acid
Name: Citrate
Name: 2-Hydroxy-1,2,3-propanetricarboxylic acid
Class: Natural Product
Formula: C6H8O7
Exact mass: 192.02700
SMILES: OC(=O)CC(O)(CC(O)=O)C(O)=O
InChI: InChI=1S/C6H8O7/c7-3(8)1-6(13,5(11)12)2-4(9)10/h13H,1-2H2,(H,7,8)(H,9,10)(H,11,12)
Instrument: Pegasus III TOF-MS system, Leco; GC 6890, Agilent Technologies
Instrument type: GC-EI-TOF
Ms type: MS
Ion mode: POSITIVE
Retention time: 443.194 sec
Base peak: 73
Derivative form: C18H40O7Si4
Derivative mass: 480.18511
Derivative type: 4 TMS
m/z	relative intensity
60	4
61	12
62	1
63	2
65	2
66	9
67	78
68	1
69	10
70	6
71	5
72	36
73	999
74	88
75	124
76	11
77	25
78	2
79	4
81	1
82	1
83	3
84	2
85	3
86	1
87	3
88	2
89	3
92	1
93	4
95	7
96	1
97	6
98	1
99	18
100	2
101	6
102	2
103	9
104	1
105	2
111	10
112	1
113	3
114	1
115	23
116	10
117	18
118	2
119	5
127	1
129	40
130	5
131	31
132	5
133	59
134	8
135	7
139	6
141	10
142	2
143	23
144	3
145	3
146	1
147	383
148	60
149	62
150	8
151	4
155	1
156	1
157	7
158	1
159	2
161	2
163	6
164	1
169	4
170	1
171	5
172	1
173	3
175	1
177	1
183	45
184	7
185	14
186	2
187	1
189	5
190	4
191	5
192	1
193	1
201	3
203	1
204	3
205	3
206	1
207	8
208	1
209	1
211	63
212	10
213	11
214	1
215	9
216	2
217	16
218	3
219	2
221	25
222	6
223	3
229	7
230	2
231	13
232	2
233	1
243	1
244	1
245	2
257	27
258	6
259	6
260	1
272	1
273	243
274	54
275	24
276	3
285	6
286	1
287	2
301	4
302	1
303	5
304	2
305	12
306	3
307	2
319	3
320	1
331	1
333	2
334	1
346	1
347	43
348	13
349	7
350	1
362	1
363	35
364	11
365	5
366	1
374	1
375	31
376	10
377	5
378	1
464	1
465	16
466	6
467	3
468	1
