Mass spectrum: 3,4-Dimethoxycinnamic acid; LC-ESI-QTOF; MS2; CE:Ramp 5-60 V; [M+H]+
Name: 3,4-Dimethoxycinnamic acid
Name: Dimethylcaffeic acid
Name: 3,4-Dimethoxyphenyl-2-propenoic acid
Name: 3-(3,4-Dimethoxyphenyl)acrylic Acid
Class: Carboxylic acids
Formula: C11H12O4
Exact mass: 208.07356
SMILES: COc(c1)c(OC)cc(C=CC(O)=O)c1
InChI: InChI=1S/C11H12O4/c1-14-9-5-3-8(4-6-11(12)13)7-10(9)15-2/h3-7H,1-2H3,(H,12,13)/b6-4+
Instrument: UPLC Q-Tof Premier, Waters
Instrument type: LC-ESI-QTOF
Ms type: MS2
Ion mode: POSITIVE
Collision energy: Ramp 5-60 V
Fragmentation mode: LOW-ENERGY CID
Ionization: ESI
Precursor m/z: 209.08136
Precursor type: [M+H]+
m/z	relative intensity
99.5331	496
135.0377	224
191.0576	507
193.0292	999
209.0814	687
