Mass spectrum: beta-Ketoadipic acid; GC-EI-TOF; MS; 2 TMS; 1 MEOX; BP:73
Name: beta-Ketoadipic acid
Name: 3-Keto-adipate
Name: 3-Oxoadipic acid
Name: 3-Oxoadipate
Class: Natural Product
Formula: C6H8O5
Exact mass: 160.03717
SMILES: OC(=O)CCC(=O)CC(O)=O
InChI: InChI=1S/C6H8O5/c7-4(3-6(10)11)1-2-5(8)9/h1-3H2,(H,8,9)(H,10,11)
Instrument: Pegasus III TOF-MS system, Leco; GC 6890, Agilent Technologies
Instrument type: GC-EI-TOF
Ms type: MS
Ion mode: POSITIVE
Retention time: 439.936 sec
Base peak: 73
Derivative form: C13H27NO5Si2
Derivative mass: 333.14278
Derivative type: 2 TMS; 1 MEOX
m/z	relative intensity
60	23
61	59
62	4
63	3
65	1
66	12
67	43
68	7
69	7
70	23
71	12
72	52
73	999
74	105
75	356
76	35
77	46
78	2
79	9
80	4
81	3
82	8
83	4
84	22
85	11
86	30
87	9
88	12
89	143
90	12
91	15
92	1
93	1
94	9
95	6
96	44
97	11
98	94
99	17
100	12
101	18
102	6
103	56
104	6
105	7
109	1
110	2
111	2
112	8
113	3
114	9
115	8
116	27
117	37
118	5
119	23
120	1
121	1
122	4
123	1
124	3
125	7
126	190
127	18
128	12
129	38
130	17
131	10
132	4
133	16
134	2
135	2
138	1
139	1
140	10
141	3
142	7
143	5
144	2
145	8
146	1
147	126
148	20
149	14
150	2
152	12
153	16
154	23
155	3
156	17
157	3
158	3
159	1
160	1
161	5
162	1
163	3
164	1
166	1
168	32
169	12
170	9
171	2
172	10
173	3
174	2
175	1
176	1
177	9
178	2
179	1
184	12
185	2
186	2
189	1
196	1
197	1
198	2
199	11
200	4
201	1
212	11
213	2
214	2
215	4
216	24
217	5
218	3
219	1
226	1
227	1
228	14
229	2
230	1
242	4
243	66
244	23
245	6
246	2
258	1
274	1
302	4
303	1
318	15
319	4
320	2
333	2
