Mass spectrum: L-5-Oxoproline; GC-EI-TOF; MS; 2 TMS; BP:73
Name: L-Pyroglutamic acid
Name: 5-Pyrrolidone-2-carboxylic acid
Name: Pyroglutamate
Name: Pyroglutamic acid
Name: 5-Oxoproline
Name: L-5-Oxoproline
Class: Natural Product
Formula: C5H7NO3
Exact mass: 129.04259
SMILES: O=C(C1)NC(C1)C(O)=O
InChI: InChI=1S/C5H7NO3/c7-4-2-1-3(6-4)5(8)9/h3H,1-2H2,(H,6,7)(H,8,9)/t3-/m0/s1
Instrument: Pegasus III TOF-MS system, Leco; GC 6890, Agilent Technologies
Instrument type: GC-EI-TOF
Ms type: MS
Ion mode: POSITIVE
Retention time: 376.732 sec
Base peak: 73
Derivative form: C11H23NO3Si2
Derivative mass: 273.12165
Derivative type: 2 TMS
m/z	relative intensity
60	9
61	17
62	1
63	1
65	1
66	24
67	13
69	2
70	17
71	10
72	39
73	999
74	90
75	89
76	8
77	20
78	3
79	18
80	5
81	1
82	4
83	5
84	23
85	15
86	18
87	6
88	1
89	1
93	1
94	3
95	1
96	1
97	2
98	5
99	7
100	13
101	4
102	3
103	5
104	1
105	2
108	2
110	3
111	1
112	17
113	6
114	8
115	6
116	2
117	9
118	1
119	2
122	3
124	1
126	2
127	2
128	2
129	4
130	1
131	15
132	4
133	28
134	4
135	2
139	1
140	20
141	6
142	4
143	1
147	159
148	25
149	14
150	1
154	7
155	5
156	950
157	125
158	42
159	3
168	1
170	1
172	1
174	1
186	1
190	1
214	8
215	2
228	2
230	59
231	14
232	5
258	55
259	12
260	5
273	1
