Mass spectrum: Hirsutrin; LC-ESI-QTOF; MS2; CE:30 V; [M+H]+
Name: Quercetin-3-O-glucoside
Name: Hirsutrin
Name: Isoquercetin
Name: Quer_3_Glc
Name: 2-(3,4-dihydroxyphenyl)-5,7-dihydroxy-3-[(2S,3R,4S,5S,6R)-3,4,5-trihydroxy-6-(hydroxymethyl)oxan-2-yl]oxy-chromen-4-one
Class: Natural Product
Formula: C21H20O12
Exact mass: 464.09548
SMILES: OCC(O1)C(O)C(O)C(O)C1OC(C(=O)3)=C(Oc(c4)c(c(O)cc(O)4)3)c(c2)cc(O)c(O)c2
InChI: InChI=1S/C21H20O12/c22-6-13-15(27)17(29)18(30)21(32-13)33-20-16(28)14-11(26)4-8(23)5-12(14)31-19(20)7-1-2-9(24)10(25)3-7/h1-5,13,15,17-18,21-27,29-30H,6H2/t13-,15-,17+,18-,21+/m1/s1
Instrument: UPLC Q-Tof Premier, Waters
Instrument type: LC-ESI-QTOF
Ms type: MS2
Ion mode: POSITIVE
Collision energy: 30 V
Fragmentation mode: LOW-ENERGY CID
Ionization: ESI
Full scan fragment ion peak: 465.1
Ion type: [M+H]+
m/z	relative intensity
85.0231	55
85.0716	15
97.0251	21
137.0246	18
153.0208	19
165.0210	27
229.0545	34
257.0493	32
285.0453	19
303.0558	999
303.1465	173
304.0598	57
304.1502	16
