Mass spectrum: Quinolinic acid; GC-EI-TOF; MS; 2 TMS; BP:147
Name: 2,3-Pyridinedicarboxylic acid
Name: Pyridine-2,3-dicarboxylate
Name: Quinolinic acid
Name: Quinolinate
Class: Natural Product
Formula: C7H5NO4
Exact mass: 167.02186
SMILES: OC(=O)c(c1)c(ncc1)C(O)=O
InChI: InChI=1S/C7H5NO4/c9-6(10)4-2-1-3-8-5(4)7(11)12/h1-3H,(H,9,10)(H,11,12)
Instrument: Pegasus III TOF-MS system, Leco; GC 6890, Agilent Technologies
Instrument type: GC-EI-TOF
Ms type: MS
Ion mode: POSITIVE
Retention time: 422.998 sec
Base peak: 147
Derivative form: C13H21NO4Si2
Derivative mass: 311.10091
Derivative type: 2 TMS
m/z	relative intensity
60	8
61	16
62	3
63	9
64	9
65	32
66	31
67	16
69	3
70	13
71	12
72	45
73	983
74	85
75	90
76	38
77	99
78	55
79	20
80	6
81	6
82	6
83	9
84	11
85	4
86	3
87	5
88	1
89	5
90	4
91	22
92	38
93	31
94	12
95	8
96	3
97	5
98	2
99	2
100	1
101	2
102	4
103	11
104	12
105	21
106	35
107	22
108	23
109	18
110	7
111	4
112	1
113	1
115	9
116	2
117	10
118	10
119	19
120	60
121	9
122	7
123	5
124	3
126	1
127	1
128	1
129	1
130	1
131	25
132	9
133	42
134	19
135	19
136	29
137	5
138	2
141	11
142	1
143	1
144	1
146	2
147	999
148	162
149	93
150	29
151	6
152	7
153	1
160	1
162	9
163	2
164	22
165	31
166	8
167	4
168	1
176	2
178	9
179	8
180	7
181	2
182	2
184	1
192	1
193	12
194	195
195	32
196	11
197	1
204	1
208	6
209	2
210	5
211	1
220	1
221	6
222	8
223	6
224	9
225	2
226	1
234	3
235	1
236	3
237	1
238	5
239	2
240	1
250	1
251	1
252	28
253	6
254	2
266	32
267	11
268	11
269	2
295	2
296	137
297	33
298	13
299	2
