Mass spectrum: (R)-3-Amino-4-phenylbutyric acid; LC-ESI-QTOF; MS2; CE:Ramp 5-60 V; [M-H]-
Name: D-beta-Homophenylalanine
Name: (R)-3-Amino-4-phenylbutyric acid
Class: Amino acids
Formula: C10H13NO2
Exact mass: 179.09463
SMILES: OC(=O)CC(N)Cc(c1)cccc1
InChI: InChI=1S/C10H13NO2/c11-9(7-10(12)13)6-8-4-2-1-3-5-8/h1-5,9H,6-7,11H2,(H,12,13)/t9-/m1/s1
Instrument: UPLC Q-Tof Premier, Waters
Instrument type: LC-ESI-QTOF
Ms type: MS2
Ion mode: NEGATIVE
Collision energy: Ramp 5-60 V
Fragmentation mode: LOW-ENERGY CID
Ionization: ESI
Precursor m/z: 178.08682
Precursor type: [M-H]-
m/z	relative intensity
86.0257	75
91.0554	283
117.0706	999
177.8601	296
178.0868	596
