Mass spectrum: Glycerol; GC-EI-TOF; MS; 3 TMS; BP:73
Name: Glycerol
Name: 1,2,3-Propanetriol
Name: 1,2,3-Trihydroxypropane
Name: Glycerin
Class: Natural Product
Formula: C3H8O3
Exact mass: 92.04734
SMILES: OCC(O)CO
InChI: InChI=1S/C3H8O3/c4-1-3(6)2-5/h3-6H,1-2H2
Instrument: Pegasus III TOF-MS system, Leco; GC 6890, Agilent Technologies
Instrument type: GC-EI-TOF
Ms type: MS
Ion mode: POSITIVE
Retention time: 304.263 sec
Base peak: 73
Derivative form: C12H32O3Si3
Derivative mass: 308.16592
Derivative type: 3 TMS
m/z	relative intensity
60	10
61	18
62	1
66	14
67	2
70	4
71	7
72	24
73	999
74	85
75	74
76	5
77	7
84	1
85	8
86	1
87	10
88	7
89	34
90	3
91	1
99	4
101	57
102	8
103	287
104	27
105	16
106	1
113	6
114	1
115	17
116	22
117	295
118	29
119	24
120	2
121	1
128	2
129	58
130	7
131	42
132	6
133	130
134	17
135	11
136	1
143	1
145	1
146	1
147	503
148	78
149	52
150	6
151	2
159	3
161	1
162	1
163	8
164	1
165	1
174	2
175	17
176	4
177	22
178	3
179	2
189	5
190	1
191	23
192	5
193	2
203	25
204	34
205	218
206	42
207	19
208	2
217	12
218	92
219	18
220	8
221	3
263	1
293	6
294	1
