Mass spectrum: DL-3-(4-Hydroxyphenyl)lactic acid; LC-ESI-QTOF; MS2; CE:Ramp 5-60 V; [M-H]-
Name: DL-p-Hydroxyphenyllactic acid
Name: HPLA
Name: 4-Hydroxyphenyllactate
Name: 3-(4-Hydroxyphenyl)-2-hydroxypropanoic acid
Name: p-Hydroxyphenyllactate
Name: 2-Hydroxy-3-(4-hydroxyphenyl)propanoate
Name: DL-3-(4-Hydroxyphenyl)lactic acid
Class: Carboxylic acids
Formula: C9H10O4
Exact mass: 182.05791
SMILES: OC(=O)C(O)Cc(c1)ccc(O)c1
InChI: InChI=1S/C9H10O4/c10-7-3-1-6(2-4-7)5-8(11)9(12)13/h1-4,8,10-11H,5H2,(H,12,13)
Instrument: UPLC Q-Tof Premier, Waters
Instrument type: LC-ESI-QTOF
Ms type: MS2
Ion mode: NEGATIVE
Collision energy: Ramp 5-60 V
Fragmentation mode: LOW-ENERGY CID
Ionization: ESI
Precursor m/z: 181.05011
Precursor type: [M-H]-
m/z	relative intensity
72.9940	159
119.0507	486
134.0370	218
135.0452	753
163.0398	828
180.8585	91
181.0501	999
