Mass spectrum: D-(+)-Malic acid; LC-ESI-QTOF; MS2; CE:Ramp 5-60 V; [M-H]-
Name: D-(+)-Malic acid
Name: D-Hydroxybutanedioic acid
Name: (R)-(+)-2-Hydroxysuccinic acid
Class: Carboxylic acids
Formula: C4H6O5
Exact mass: 134.02152
SMILES: OC(=O)C[C@H](O)C(O)=O
InChI: InChI=1S/C4H6O5/c5-2(4(8)9)1-3(6)7/h2,5H,1H2,(H,6,7)(H,8,9)/t2-/m1/s1
Instrument: UPLC Q-Tof Premier, Waters
Instrument type: LC-ESI-QTOF
Ms type: MS2
Ion mode: NEGATIVE
Collision energy: Ramp 5-60 V
Fragmentation mode: LOW-ENERGY CID
Ionization: ESI
Precursor m/z: 133.01372
Precursor type: [M-H]-
m/z	relative intensity
71.0146	348
72.9935	129
89.0249	59
115.0028	999
133.0137	530
