Mass spectrum: Ribitol; GC-EI-TOF; MS; 5 TMS; BP:73
Name: Ribitol
Name: Adonitol
Class: Natural Product
Formula: C5H12O5
Exact mass: 152.06847
SMILES: OC([C@H]([C@H]([C@H](CO)O)O)O)
InChI: InChI=1S/C5H12O5/c6-1-3(8)5(10)4(9)2-7/h3-10H,1-2H2/t3-,4+,5-
Instrument: Pegasus III TOF-MS system, Leco; GC 6890, Agilent Technologies
Instrument type: GC-EI-TOF
Ms type: MS
Ion mode: POSITIVE
Retention time: 416.034 sec
Base peak: 73
Derivative form: C20H52O5Si5
Derivative mass: 512.26611
Derivative type: 5 TMS
m/z	relative intensity
60	4
61	6
66	4
67	1
69	2
70	3
71	3
72	19
73	999
74	85
75	51
76	3
77	4
81	7
83	4
84	1
85	3
87	5
88	4
89	25
90	2
91	1
97	1
99	3
101	23
102	4
103	281
104	25
105	12
111	2
113	5
115	6
116	9
117	94
118	10
119	9
120	1
127	2
129	127
130	15
131	29
132	4
133	59
134	8
135	5
141	1
142	2
143	9
144	1
145	3
146	1
147	292
148	42
149	26
150	3
151	1
153	1
155	4
157	19
158	2
159	2
161	3
163	4
169	1
170	2
171	2
173	1
175	5
176	1
177	3
189	49
190	11
191	22
192	4
193	2
201	1
203	12
204	42
205	99
206	21
207	12
208	2
215	1
217	235
218	57
219	22
220	4
221	7
222	1
223	1
229	5
230	1
231	1
243	14
244	3
245	2
277	10
278	4
279	2
291	3
292	1
305	1
306	2
307	31
308	9
309	4
317	5
318	2
319	54
320	16
321	7
322	1
332	9
333	3
334	1
395	1
422	3
423	1
