Mass spectrum: (S)-(+)-2-(anilinomethyl)pyrrolidine; GC-EI-TOF; MS; 2 TMS; BP:73
Name: (S)-(+)-2-(anilinomethyl)pyrrolidine
Class: Natural Product
Formula: C11H16N2
Exact mass: 176.13135
SMILES: c(c2)ccc(c2)NCC(C1)NCC1
InChI: InChI=1S/C11H16N2/c1-2-5-10(6-3-1)13-9-11-7-4-8-12-11/h1-3,5-6,11-13H,4,7-9H2
Instrument: Pegasus III TOF-MS system, Leco; GC 6890, Agilent Technologies
Instrument type: GC-EI-TOF
Ms type: MS
Ion mode: POSITIVE
Retention time: 473.542 sec
Base peak: 73
Derivative form: C17H32N2Si2
Derivative mass: 320.2104
Derivative type: 2 TMS
m/z	relative intensity
60	8
61	4
62	1
63	3
64	2
65	4
66	2
67	5
68	1
69	4
70	38
71	11
72	49
73	999
74	90
75	30
76	3
77	42
78	6
79	7
80	2
81	1
82	3
83	5
84	16
85	10
86	10
87	1
88	1
91	5
92	1
93	4
94	1
95	2
96	1
97	2
98	5
99	7
100	15
101	2
102	1
103	1
104	21
105	18
106	8
107	6
108	1
109	1
110	1
112	2
113	6
114	1
115	1
117	1
118	2
119	6
120	4
121	7
122	2
124	3
126	2
127	5
128	3
130	1
131	1
132	2
133	1
134	5
135	13
136	3
139	1
140	9
141	16
142	961
143	133
144	41
145	4
146	2
147	1
148	4
149	3
150	3
154	3
155	1
156	1
160	1
162	7
163	2
164	5
165	1
176	3
177	3
178	22
179	9
180	1
203	2
217	4
231	6
232	1
305	4
306	1
