Mass spectrum: N-alpha-Acetyl-L-ornithine; LC-ESI-QTOF; MS2; CE:Ramp 5-60 V; [M+H]+
Name: N-alpha-Acetyl-L-ornithine
Name: Ac-Orn
Name: AOR
Name: (2S)-2-acetamido-5-aminopentanoic acid
Name: Nalpha-Acetyl-L-ornithine
Class: Amino acids
Formula: C7H14N2O3
Exact mass: 174.10044
SMILES: NCCCC(NC(C)=O)C(O)=O
InChI: InChI=1S/C7H14N2O3/c1-5(10)9-6(7(11)12)3-2-4-8/h6H,2-4,8H2,1H3,(H,9,10)(H,11,12)/t6-/m0/s1
Instrument: UPLC Q-Tof Premier, Waters
Instrument type: LC-ESI-QTOF
Ms type: MS2
Ion mode: POSITIVE
Collision energy: Ramp 5-60 V
Fragmentation mode: LOW-ENERGY CID
Ionization: ESI
Precursor m/z: 175.10824
Precursor type: [M+H]+
m/z	relative intensity
70.0659	999
71.0503	124
74.0247	93
112.0763	142
115.0866	978
116.0714	387
157.0977	190
158.0823	319
175.1082	183
