Mass spectrum: alpha-Methylserine; LC-ESI-QTOF; MS2; CE:Ramp 5-60 V; [M-H]-
Name: alpha-Methyl-DL-serine
Name: DL-2-Methylserine
Name: 2-Amino-3-hydroxy-2-methylpropanoic Acid
Name: DL-2-Amino-3-hydroxy-2-methylpropionic Acid
Name: DL-alpha-(Hydroxymethyl)alanine
Name: alpha-Methylserine
Class: Amino acids
Formula: C4H9NO3
Exact mass: 119.05824
SMILES: OCC(C)(N)C(O)=O
InChI: InChI=1S/C4H9NO3/c1-4(5,2-6)3(7)8/h6H,2,5H2,1H3,(H,7,8)
Instrument: UPLC Q-Tof Premier, Waters
Instrument type: LC-ESI-QTOF
Ms type: MS2
Ion mode: NEGATIVE
Collision energy: Ramp 5-60 V
Fragmentation mode: LOW-ENERGY CID
Ionization: ESI
Precursor m/z: 118.05044
Precursor type: [M-H]-
m/z	relative intensity
88.0401	199
118.0504	999
