Mass spectrum: D-Glucose 6-phosphate; LC-ESI-QTOF; MS2; CE:Ramp 5-60 V; [M-H]-
Name: D-Glucose-6-phosphate
Name: G6P
Name: Glc-6P
Name: D(+)-Glucopyranose 6-phosphate
Name: Robison ester
Name: D-Glucose 6-phosphate
Class: Natural Product; Carbohydrate; Phosphates
Formula: C6H13O9P
Exact mass: 260.02972
SMILES: OC(O1)[C@H](O)[C@@H](O)[C@H](O)[C@H]1COP(O)(O)=O
InChI: InChI=1S/C6H13O9P/c7-3-2(1-14-16(11,12)13)15-6(10)5(9)4(3)8/h2-10H,1H2,(H2,11,12,13)/t2-,3-,4+,5-,6?/m1/s1
Instrument: UPLC Q-Tof Premier, Waters
Instrument type: LC-ESI-QTOF
Ms type: MS2
Ion mode: NEGATIVE
Collision energy: Ramp 5-60 V
Fragmentation mode: LOW-ENERGY CID
Ionization: ESI
Precursor m/z: 259.02192
Precursor type: [M-H]-
m/z	relative intensity
78.9597	505
96.9693	999
138.9792	63
259.0219	139
