Mass spectrum: L-Histidine; LC-ESI-QTOF; MS2; CE:Ramp 5-60 V; [M-H]-
Name: L-Histidine
Name: L-His
Name: L-alpha-Amino-beta-imidazolepropionic Acid
Name: Glyoxaline-5-alanine
Name: (S)-2-Amino-3-(4-imidazolyl)propionic acid
Class: Amino acids
Formula: C6H9N3O2
Exact mass: 155.06948
SMILES: C1=C(NC=N1)C[C@@H](C(=O)O)N
InChI: InChI=1S/C6H9N3O2/c7-5(6(10)11)1-4-2-8-3-9-4/h2-3,5H,1,7H2,(H,8,9)(H,10,11)/t5-/m0/s1
Instrument: UPLC Q-Tof Premier, Waters
Instrument type: LC-ESI-QTOF
Ms type: MS2
Ion mode: NEGATIVE
Collision energy: Ramp 5-60 V
Fragmentation mode: LOW-ENERGY CID
Ionization: ESI
Precursor m/z: 154.06167
Precursor type: [M-H]-
m/z	relative intensity
72.0108	52
80.0388	81
81.0462	78
93.0461	447
108.0567	49
110.0719	122
136.0510	87
137.0352	310
154.0617	999
