Mass spectrum: D-Glucose 6-phosphate; GC-EI-TOF; MS; 6 TMS; 1 MEOX; BP:73
Name: D-Glucose-6-phosphate
Name: D-Glucose 6-phosphate
Class: Natural Product
Formula: C6H13O9P
Exact mass: 260.02972
SMILES: OC(O1)[C@H](O)[C@@H](O)[C@H](O)[C@H]1COP(O)(O)=O
InChI: InChI=1S/C6H13O9P/c7-3-2(1-14-16(11,12)13)15-6(10)5(9)4(3)8/h2-10H,1H2,(H2,11,12,13)/t2-,3-,4+,5-,6?/m1/s1
Instrument: Pegasus III TOF-MS system, Leco; GC 6890, Agilent Technologies
Instrument type: GC-EI-TOF
Ms type: MS
Ion mode: POSITIVE
Retention time: 541.831 sec
Base peak: 73
Derivative form: C25H64NO9PSi6
Derivative mass: 721.29343
Derivative type: 6 TMS; 1 MEOX
m/z	relative intensity
60	4
61	7
66	2
67	2
69	2
70	3
71	3
72	13
73	999
74	84
75	58
76	5
77	10
79	1
80	1
81	2
82	2
83	2
84	3
85	6
86	2
87	3
88	1
89	48
90	4
91	3
97	3
98	1
99	4
100	8
101	37
102	8
103	56
104	6
105	11
106	2
107	1
111	3
112	1
113	6
114	5
115	7
116	18
117	13
118	2
119	6
121	1
125	1
126	1
127	4
128	2
129	65
130	13
131	27
132	4
133	45
134	6
135	9
136	1
137	2
138	1
141	2
142	3
143	9
144	2
145	4
146	1
147	107
148	17
149	13
150	1
151	4
153	1
154	1
155	1
156	1
157	30
158	5
159	4
160	29
161	10
162	2
163	4
165	1
168	1
169	4
170	1
171	2
172	2
173	3
174	1
175	1
177	2
178	1
179	1
180	1
181	3
182	1
183	1
185	1
186	1
187	1
188	1
189	7
190	2
191	9
192	1
193	5
194	1
195	4
196	2
197	1
199	1
201	1
203	2
204	11
205	6
206	1
207	9
208	2
209	1
210	1
211	23
212	4
213	2
214	1
215	1
216	1
217	29
218	7
219	3
221	2
225	8
226	1
227	6
228	4
229	4
230	3
231	3
232	1
233	1
240	1
241	1
242	1
243	4
244	1
245	1
246	1
247	8
248	2
249	1
253	2
255	1
259	1
268	1
269	2
270	1
273	1
274	1
283	3
284	1
285	3
286	1
291	1
298	4
299	74
300	21
301	11
302	2
303	1
305	1
313	2
314	5
315	40
316	11
317	5
318	1
319	1
328	1
331	5
332	1
333	1
341	4
342	1
343	1
356	2
357	24
358	7
359	4
360	1
370	1
371	1
373	2
374	1
385	1
386	14
387	97
388	36
389	21
390	6
391	2
403	1
470	2
471	10
472	4
473	2
474	1
