Mass spectrum: Luteolin-7-O-glucoside; LC-ESI-QTOF; MS2; CE:Ramp 5-60 V; [M-H]-
Name: Luteolin-7-O-glucoside
Name: Cynaroside
Name: Lutl_7_Glc
Name: 2-(3,4-dihydroxyphenyl)-5-hydroxy-7-[(2S,3R,4S,5R,6R)-3,4,5-trihydroxy-6-(hydroxymethyl)oxan-2-yl]oxy-chromen-4-one
Class: Natural Product
Formula: C21H20O11
Exact mass: 448.10056
SMILES: OC[C@@H](O1)[C@@H](O)[C@H](O)[C@@H](O)[C@@H]1Oc(c4)cc(O2)c(c(O)4)C(=O)C=C2c(c3)cc(O)c(O)c3
InChI: InChI=1S/C21H20O11/c22-7-16-18(27)19(28)20(29)21(32-16)30-9-4-12(25)17-13(26)6-14(31-15(17)5-9)8-1-2-10(23)11(24)3-8/h1-6,16,18-25,27-29H,7H2/t16-,18-,19+,20-,21-/m1/s1
Instrument: UPLC Q-Tof Premier, Waters
Instrument type: LC-ESI-QTOF
Ms type: MS2
Ion mode: NEGATIVE
Collision energy: Ramp 5-60 V
Fragmentation mode: LOW-ENERGY CID
Ionization: ESI
Full scan fragment ion peak: 447.1
Ion type: [M-H]-
m/z	relative intensity
83.0126	12
107.0130	35
133.0291	53
134.0365	16
149.0238	13
151.0030	56
175.0394	16
183.0455	10
199.0401	22
211.0399	20
227.0345	40
255.0287	22
256.0363	50
283.0251	14
284.0320	581
285.0391	999
285.2975	12
286.0432	104
327.0517	15
447.0927	971
448.0959	152
