Mass spectrum: L-beta-Homothreonine; LC-ESI-QTOF; MS2; CE:Ramp 5-60 V; [M+H]+
Name: L-beta-Homothreonine
Name: (3R,4R)-3-Amino-4-hydroxypentanoic acid
Class: Amino acids
Formula: C5H11NO3
Exact mass: 133.07389
SMILES: CC(O)C(N)CC(O)=O
InChI: InChI=1S/C5H11NO3/c1-3(7)4(6)2-5(8)9/h3-4,7H,2,6H2,1H3,(H,8,9)/t3-,4-/m1/s1
Instrument: UPLC Q-Tof Premier, Waters
Instrument type: LC-ESI-QTOF
Ms type: MS2
Ion mode: POSITIVE
Collision energy: Ramp 5-60 V
Fragmentation mode: LOW-ENERGY CID
Ionization: ESI
Precursor m/z: 134.08169
Precursor type: [M+H]+
m/z	relative intensity
70.0663	128
74.0607	999
98.0604	259
116.0716	343
134.0817	291
