Mass spectrum: 3-Methyladenine; GC-EI-TOF; MS; 1 TMS; BP:206
Name: 3-Methyladenine
Class: Natural Product
Formula: C6H7N5
Exact mass: 149.07015
SMILES: CN(C=1)C(=N2)C(N=C2)=C(N)N1
InChI: InChI=1S/C6H7N5/c1-11-3-10-5(7)4-6(11)9-2-8-4/h2-3H,7H2,1H3
Instrument: Pegasus III TOF-MS system, Leco; GC 6890, Agilent Technologies
Instrument type: GC-EI-TOF
Ms type: MS
Ion mode: POSITIVE
Retention time: 520.765 sec
Base peak: 206
Derivative form: C9H17N5Si
Derivative mass: 223.12532
Derivative type: 1 TMS
m/z	relative intensity
60	30
61	8
62	3
63	1
64	12
65	32
66	77
67	157
68	14
69	48
70	92
71	40
72	49
73	488
74	119
75	16
76	5
77	15
78	10
79	58
80	23
81	28
82	30
83	34
84	364
85	114
86	40
87	9
88	17
89	4
90	2
91	5
92	18
93	34
94	152
95	74
96	54
97	23
98	32
99	83
100	28
101	10
102	2
103	42
104	3
105	2
106	9
107	21
108	17
109	18
110	21
111	213
112	27
113	30
114	6
115	8
116	2
118	1
119	12
120	10
121	88
122	128
123	32
124	21
125	35
126	9
127	4
128	1
129	1
130	1
132	2
133	7
134	13
135	19
136	26
137	16
138	80
139	13
140	6
141	2
142	1
143	1
144	1
145	1
146	2
147	6
148	19
149	58
150	21
151	27
152	81
153	14
154	5
155	1
156	1
157	1
159	1
160	3
161	6
162	12
163	11
164	16
165	26
166	12
167	4
168	2
169	1
170	1
171	1
172	1
173	1
174	4
175	7
176	130
177	28
178	21
179	293
180	54
181	16
182	3
183	1
184	1
185	1
186	1
187	1
188	2
189	12
190	31
191	15
192	6
193	14
194	21
195	6
196	3
197	2
198	1
199	1
200	1
202	1
203	2
204	14
205	119
206	999
207	167
208	46
209	5
210	1
211	2
212	2
213	2
214	2
215	2
216	1
217	2
218	2
219	2
220	51
221	357
222	64
223	17
224	3
225	1
226	1
227	1
238	1
239	1
241	1
246	1
247	1
248	1
250	1
266	1
278	1
308	1
313	1
320	1
337	1
352	1
353	1
355	1
357	1
361	1
368	1
388	1
393	1
403	1
426	1
460	1
463	1
490	1
498	1
510	1
524	1
526	1
550	1
558	1
576	1
583	1
586	1
594	1
596	1
598	1
656	1
668	1
675	1
708	1
717	1
727	1
729	1
739	1
742	1
765	1
771	1
