Mass spectrum: Vitexin; LC-ESI-QTOF; MS2; CE:Ramp 5-60 V; [M+H]+
Name: Vitexin
Name: Vitx
Name: apigenin-8-C-glucoside
Name: 8-beta-D-Glucopyranosyl-apigenin
Name: Orientoside
Class: Carbohydrate
Formula: C21H20O10
Exact mass: 432.10565
SMILES: OC[C@H]([C@@H](O)4)O[C@H]([C@H](O)[C@@H](O)4)c(c(O)3)c(O1)c(c(O)c3)C(=O)C=C(c(c2)ccc(O)c2)1
InChI: InChI=1S/C21H20O10/c22-7-14-17(27)18(28)19(29)21(31-14)16-11(25)5-10(24)15-12(26)6-13(30-20(15)16)8-1-3-9(23)4-2-8/h1-6,14,17-19,21-25,27-29H,7H2/t14-,17-,18+,19-,21+/m1/s1
Instrument: UPLC Q-Tof Premier, Waters
Instrument type: LC-ESI-QTOF
Ms type: MS2
Ion mode: POSITIVE
Collision energy: Ramp 5-60 V
Fragmentation mode: LOW-ENERGY CID
Ionization: ESI
Precursor m/z: 433.11344
Precursor type: [M+H]+
m/z	relative intensity
121.0309	218
255.0691	143
256.0766	121
283.0638	692
284.0718	424
295.0643	163
297.0795	216
313.0744	866
323.0946	198
337.0747	194
367.0856	161
379.0859	121
397.0957	316
415.1061	339
433.1134	999
