Mass spectrum: Myo-Inositol; GC-EI-TOF; MS; 6 TMS; BP:73
Name: Myo-Inositol
Name: Bios I
Name: meso-Inositol
Name: Cyclohexitol
Name: L-myo-Inositol
Name: Dambose
Name: Meat sugar
Name: 1D-myo-Inositol
Name: D-myo-Inositol
Name: 1L-myo-Inositol
Name: Inositol
Class: Natural Product
Formula: C6H12O6
Exact mass: 180.06339
SMILES: O[C@H]([C@@H](O)1)[C@H](O)[C@@H](O)[C@@H](O)[C@@H](O)1
InChI: InChI=1S/C6H12O6/c7-1-2(8)4(10)6(12)5(11)3(1)9/h1-12H/t1-,2-,3-,4+,5-,6-
Instrument: Pegasus III TOF-MS system, Leco; GC 6890, Agilent Technologies
Instrument type: GC-EI-TOF
Ms type: MS
Ion mode: POSITIVE
Retention time: 499.327 sec
Base peak: 73
Derivative form: C24H60O6Si6
Derivative mass: 612.30055
Derivative type: 6 TMS
m/z	relative intensity
60	2
61	3
65	1
66	5
67	4
69	2
70	2
71	2
72	12
73	999
74	87
75	46
76	3
77	7
81	10
82	1
83	5
84	1
85	4
87	4
88	1
89	2
97	1
99	4
101	9
102	4
103	105
104	10
105	6
109	2
111	5
113	5
114	1
115	5
116	6
117	11
118	1
119	6
125	1
127	5
128	1
129	118
130	13
131	38
132	5
133	91
134	13
135	8
139	1
141	2
142	2
143	25
144	3
145	4
146	1
147	362
148	56
149	33
150	3
151	2
153	1
155	2
156	1
157	7
158	1
159	2
161	8
162	1
163	2
169	2
173	1
175	4
177	9
178	1
179	1
181	1
185	1
189	12
190	9
191	185
192	32
193	16
194	2
201	1
203	5
204	56
205	15
206	6
207	9
208	2
209	1
215	3
216	1
217	256
218	52
219	22
220	3
221	23
222	6
223	3
229	1
230	4
231	3
232	1
235	1
239	1
243	6
244	1
245	2
255	1
265	54
266	14
267	7
268	1
271	1
291	11
292	3
293	5
294	1
304	3
305	127
306	39
307	20
308	4
309	1
317	4
318	80
319	34
320	14
321	4
331	1
343	3
344	1
345	1
367	11
368	4
369	2
392	1
393	7
394	2
395	1
417	1
419	3
420	1
431	2
432	23
433	18
434	8
435	3
436	1
507	6
508	3
509	2
612	1
613	1
