Mass spectrum: Maltose; GC-EI-TOF; MS; 8 TMS; BP:73
Name: Maltose
Class: Natural Product
Formula: C12H22O11
Exact mass: 342.11621
SMILES: OCC(O1)C(O)C(O)C(O)C1OC(C(CO)2)C(O)C(O)C(O)O2
InChI: InChI=1S/C12H22O11/c13-1-3-5(15)6(16)9(19)12(22-3)23-10-4(2-14)21-11(20)8(18)7(10)17/h3-20H,1-2H2/t3-,4-,5-,6+,7-,8-,9-,10-,11-,12-/m1/s1
Instrument: Pegasus III TOF-MS system, Leco; GC 6890, Agilent Technologies
Instrument type: GC-EI-TOF
Ms type: MS
Ion mode: POSITIVE
Retention time: 644.713 sec
Base peak: 73
Derivative form: C36H86O11Si8
Derivative mass: 918.43243
Derivative type: 8 TMS
m/z	relative intensity
60	4
61	6
65	1
66	6
67	4
69	9
70	3
71	4
72	12
73	999
74	88
75	62
76	4
77	5
81	10
82	2
83	3
84	2
85	4
86	2
87	5
88	2
89	46
90	4
91	2
95	1
97	5
98	1
99	4
100	12
101	15
102	8
103	159
104	15
105	14
106	2
109	4
110	1
111	4
112	1
113	6
114	3
115	5
116	7
117	73
118	8
119	7
120	1
125	1
126	1
127	4
128	2
129	78
130	11
131	19
132	3
133	39
134	5
135	3
139	1
141	3
142	3
143	14
144	2
145	4
146	1
147	186
148	30
149	21
150	2
151	1
153	2
154	1
155	10
156	2
157	12
158	2
159	4
160	25
161	6
162	2
163	6
164	1
167	1
168	1
169	41
170	6
171	4
172	2
173	5
174	2
175	3
176	1
177	3
178	1
181	1
183	2
185	1
186	1
187	1
189	19
190	4
191	28
192	4
193	2
195	1
196	1
199	1
200	1
201	2
202	1
203	7
204	131
205	58
206	18
207	7
208	1
210	1
215	3
216	1
217	80
218	19
219	10
220	1
221	6
222	1
223	1
227	1
229	6
230	3
231	9
232	3
233	8
234	2
235	3
241	1
242	1
243	17
244	5
245	5
246	2
247	2
248	1
257	2
258	1
259	3
260	1
265	1
268	1
269	1
270	1
271	16
272	4
273	4
274	1
275	1
291	2
300	3
301	1
304	1
305	3
306	1
307	1
317	1
318	1
319	16
320	5
321	2
331	4
332	2
333	1
345	1
360	8
361	86
362	30
363	14
364	3
365	1
390	1
451	2
598	1
599	1
