Mass spectrum: Phosphocholine; LC-ESI-QTOF; MS2; CE:Ramp 5-60 V; [M]+
Name: O-Phosphocholine
Name: Phosphocholine chloride calcium salt tetrahydrate
Name: Choline phosphate
Name: Phosphorylcholine
Name: N-Trimethyl-2-aminoethylphosphonate
Name: Phosphocholine
Class: Phosphocholine
Formula: [C5H15NO4P]+
Exact mass: 184.07387
SMILES: C[N+1](C)(C)CCOP(O)(O)=O
InChI: InChI=1S/C5H14NO4P/c1-6(2,3)4-5-10-11(7,8)9/h4-5H2,1-3H3,(H-,7,8,9)/p+1
Instrument: UPLC Q-Tof Premier, Waters
Instrument type: LC-ESI-QTOF
Ms type: MS2
Ion mode: POSITIVE
Collision energy: Ramp 5-60 V
Fragmentation mode: LOW-ENERGY CID
Ionization: ESI
Derivative form: C5H13NO4P.Cl.Ca.4(H2O)
Derivative mass: 329.73
Precursor m/z: 184.07384
Precursor type: [M]+
m/z	relative intensity
71.0742	109
86.0970	698
98.9852	351
125.0010	689
184.0738	999
