Mass spectrum: Diethanolamine; GC-EI-TOF; MS; 3 TMS; BP:73
Name: Diethanolamine
Class: Natural Product
Formula: C4H11NO2
Exact mass: 105.07898
SMILES: OCCNCCO
InChI: InChI=1S/C4H11NO2/c6-3-1-5-2-4-7/h5-7H,1-4H2
Instrument: Pegasus III TOF-MS system, Leco; GC 6890, Agilent Technologies
Instrument type: GC-EI-TOF
Ms type: MS
Ion mode: POSITIVE
Retention time: 384.685 sec
Base peak: 73
Derivative form: C13H35NO2Si3
Derivative mass: 321.19756
Derivative type: 3 TMS
m/z	relative intensity
60	20
61	24
62	2
63	2
66	10
67	1
68	1
69	1
70	195
71	21
72	29
73	999
74	93
75	90
76	8
77	26
78	2
79	5
83	1
84	4
85	5
86	76
87	18
88	28
89	22
90	2
91	1
92	1
98	3
99	3
100	45
101	45
102	29
103	42
104	5
105	5
112	1
113	1
114	10
115	15
116	18
117	19
118	3
119	12
120	1
121	1
126	1
128	11
129	5
130	187
131	41
132	14
133	50
134	8
135	4
140	1
142	12
143	2
144	25
145	4
146	15
147	99
148	16
149	9
150	1
158	4
159	1
160	2
163	1
172	2
174	6
175	1
188	2
189	1
202	1
216	2
217	1
218	479
219	100
220	44
221	7
222	1
232	1
233	2
306	2
321	1
