Mass spectrum: Homoorientin; LC-ESI-QTOF; MS2; CE:30 V; [2M-H]-
Name: luteolin-6-C-glucoside
Name: Homoorietin
Name: Isoorientin
Name: Lutl_6_C_Glc
Name: 2-(3,4-dihydroxyphenyl)-5,7-dihydroxy-6-[(2S,3S,4R,5R,6R)-3,4,5-trihydroxy-6-(hydroxymethyl)oxan-2-yl]chromen-4-one
Name: Homoorientin
Class: Natural Product
Formula: C21H20O11
Exact mass: 448.10056
SMILES: OCC(C(O)4)OC(C(O)C(O)4)c(c(O)1)c(O)c(C(=O)3)c(OC(=C3)c(c2)cc(O)c(O)c2)c1
InChI: InChI=1S/C21H20O11/c22-6-14-17(27)19(29)20(30)21(32-14)16-11(26)5-13-15(18(16)28)10(25)4-12(31-13)7-1-2-8(23)9(24)3-7/h1-5,14,17,19-24,26-30H,6H2/t14-,17-,19+,20-,21+/m1/s1
Instrument: UPLC Q-Tof Premier, Waters
Instrument type: LC-ESI-QTOF
Ms type: MS2
Ion mode: NEGATIVE
Collision energy: 30 V
Fragmentation mode: LOW-ENERGY CID
Ionization: ESI
Full scan fragment ion peak: 895.2
Ion type: [2M-H]-
m/z	relative intensity
327.0661	144
327.9986	23
357.0780	124
357.9984	21
429.1075	48
447.1014	999
448.0201	142
448.9194	54
449.7662	26
450.6915	21
