Mass spectrum: DL-5-Hydroxylysine; LC-ESI-QTOF; MS2; CE:Ramp 5-60 V; [M+H]+
Name: DL-5-Hydroxylysine
Name: 5-Hydroxy-Lys
Name: 2,6-Diamino-5-hydroxycaproic acid
Name: 2,6-Diamino-5-hydroxyhexanoic acid
Class: Amino acids
Formula: C6H14N2O3
Exact mass: 162.10044
SMILES: NCC(O)CCC(N)C(O)=O
InChI: InChI=1S/C6H14N2O3/c7-3-4(9)1-2-5(8)6(10)11/h4-5,9H,1-3,7-8H2,(H,10,11)
Instrument: UPLC Q-Tof Premier, Waters
Instrument type: LC-ESI-QTOF
Ms type: MS2
Ion mode: POSITIVE
Collision energy: Ramp 5-60 V
Fragmentation mode: LOW-ENERGY CID
Ionization: ESI
Precursor m/z: 163.10824
Precursor type: [M+H]+
m/z	relative intensity
74.0246	141
82.0658	793
100.0762	338
128.0711	999
133.0522	200
145.0987	231
149.0453	133
163.0630	125
163.1082	179
