Mass spectrum: Gossypin; LC-ESI-QTOF; MS2; CE:Ramp 5-60 V; [M-H]-
Name: Gossypin
Name: Gosp-8-Glc
Name: gossypetin-8-glucoside
Name: 3,5,7,3',4'-Pentahydroxy-8-O-glucosylflavone
Name: 3,5,7,8,3',4'-Hexahydroxyflavone-8-glucoside
Class: Flavonoid
Formula: C21H20O13
Exact mass: 480.09039
SMILES: OC[C@@H](O1)[C@@H](O)[C@H](O)[C@@H](O)[C@@H]1Oc(c(O)4)c(O2)c(c(O)c4)C(=O)C(O)=C(c(c3)cc(O)c(O)c3)2
InChI: InChI=1S/C21H20O13/c22-5-11-13(27)15(29)17(31)21(32-11)34-19-10(26)4-9(25)12-14(28)16(30)18(33-20(12)19)6-1-2-7(23)8(24)3-6/h1-4,11,13,15,17,21-27,29-31H,5H2/t11-,13-,15+,17-,21+/m1/s1
Instrument: UPLC Q-Tof Premier, Waters
Instrument type: LC-ESI-QTOF
Ms type: MS2
Ion mode: NEGATIVE
Collision energy: Ramp 5-60 V
Fragmentation mode: LOW-ENERGY CID
Ionization: ESI
Precursor m/z: 479.08259
Precursor type: [M-H]-
m/z	relative intensity
111.0088	54
139.0046	137
165.9901	52
166.9970	82
194.9919	56
316.0247	65
317.0304	999
479.0826	245
