Mass spectrum: N-Acetylputrescine; GC-EI-TOF; MS; 2 TMS; BP:73
Name: N-acetyl putrescine
Name: N-Acetylputrescine
Class: Natural Product
Formula: C6H14N2O
Exact mass: 130.11061
SMILES: NCCCCNC(C)=O
InChI: InChI=1S/C6H14N2O/c1-6(9)8-5-3-2-4-7/h2-5,7H2,1H3,(H,8,9)
Instrument: Pegasus III TOF-MS system, Leco; GC 6890, Agilent Technologies
Instrument type: GC-EI-TOF
Ms type: MS
Ion mode: POSITIVE
Retention time: 464.103 sec
Base peak: 73
Derivative form: C12H30N2OSi2
Derivative mass: 274.18967
Derivative type: 2 TMS
m/z	relative intensity
60	39
61	21
62	2
65	1
66	4
67	3
68	4
69	3
70	184
71	24
72	63
73	999
74	118
75	71
76	8
77	10
78	3
79	34
80	3
81	1
82	7
83	6
84	196
85	33
86	382
87	50
88	24
89	5
90	2
91	2
92	1
94	2
95	1
96	18
97	5
98	17
99	19
100	223
101	37
102	40
103	9
104	4
105	2
106	1
107	1
108	1
109	1
110	5
111	4
112	44
113	16
114	20
115	18
116	42
117	28
118	8
119	5
120	1
121	1
122	11
123	1
124	2
125	2
126	7
127	2
128	24
129	14
130	70
131	32
132	27
133	17
134	4
135	3
137	1
138	1
139	1
140	3
141	5
142	43
143	10
144	29
145	14
146	34
147	74
148	16
149	8
150	2
151	1
152	1
153	1
154	1
155	1
156	4
157	2
158	12
159	4
160	3
161	2
162	1
163	1
164	1
166	1
167	1
168	2
169	3
170	7
171	5
172	19
173	36
174	702
175	130
176	72
177	10
178	3
179	1
180	1
181	1
183	1
184	2
185	3
186	5
187	2
188	1
189	1
190	1
191	1
192	1
195	1
196	1
197	1
199	2
200	3
201	41
202	9
203	2
204	1
209	1
214	1
215	1
216	4
217	1
218	5
219	2
220	1
227	1
229	1
236	1
240	1
243	2
248	1
250	1
252	1
259	25
260	6
261	2
262	1
263	1
264	1
265	1
271	1
274	3
275	1
276	1
282	1
299	1
302	1
308	1
311	1
340	1
344	1
352	1
360	1
365	1
367	1
377	1
388	1
390	1
392	1
393	1
395	1
398	1
399	1
404	1
408	1
423	1
485	1
486	1
497	1
503	1
510	1
516	1
547	1
552	1
559	1
564	1
574	1
583	1
585	1
590	1
594	1
600	1
656	1
658	1
663	1
667	1
669	1
672	1
676	1
681	1
685	1
687	1
688	1
693	1
695	1
696	1
730	1
734	1
770	1
793	1
