Mass spectrum: L(+)-Cystathionine; GC-EI-TOF; MS; 4 TMS; BP:73
Name: Cystathionine
Name: L(+)-Cystathionine
Class: Natural Product
Formula: C7H14N2O4S
Exact mass: 222.06743
SMILES: OC(=O)[C@@H](N)CCSC[C@@H](N)C(O)=O
InChI: InChI=1S/C7H14N2O4S/c8-4(6(10)11)1-2-14-3-5(9)7(12)13/h4-5H,1-3,8-9H2,(H,10,11)(H,12,13)/t4-,5-/m0/s1
Instrument: Pegasus III TOF-MS system, Leco; GC 6890, Agilent Technologies
Instrument type: GC-EI-TOF
Ms type: MS
Ion mode: POSITIVE
Retention time: 519.952 sec
Base peak: 73
Derivative form: C19H46N2O4SSi4
Derivative mass: 510.22553
Derivative type: 4 TMS
m/z	relative intensity
60	13
61	15
62	1
63	2
66	4
67	1
69	1
70	17
71	5
72	22
73	999
74	101
75	93
76	9
77	28
78	2
79	5
82	2
83	5
84	7
85	8
86	16
87	9
88	33
89	4
90	4
91	5
92	1
93	2
95	1
96	1
97	1
98	8
99	4
100	179
101	29
102	16
103	17
104	3
105	5
110	1
112	12
113	3
114	39
115	29
116	20
117	17
118	6
119	5
120	1
126	8
127	5
128	558
129	83
130	38
131	18
132	25
133	26
134	6
135	2
138	15
139	2
140	1
141	1
142	2
143	1
144	6
145	2
146	8
147	132
148	39
149	16
150	3
151	1
155	1
156	5
157	1
158	4
159	3
160	79
161	16
162	18
163	7
164	2
165	1
172	7
173	2
174	12
175	3
176	21
177	3
178	1
186	2
187	1
188	19
189	5
190	7
191	2
192	1
200	2
202	42
203	16
204	12
205	5
206	3
207	1
214	1
216	25
217	6
218	388
219	96
220	38
221	7
222	1
223	1
228	1
230	10
231	3
232	13
233	3
234	3
235	1
236	1
244	3
245	63
246	17
247	6
248	1
249	2
250	1
260	5
261	3
262	5
263	1
264	1
266	3
274	6
275	2
276	1
277	1
278	89
279	24
280	13
281	2
288	7
289	2
290	1
291	34
292	34
293	18
294	6
295	2
302	1
304	1
393	1
495	1
510	3
511	1
