Mass spectrum: ADP; LC-ESI-QTOF; MS2; CE:Ramp 5-60 V; [M-H]-
Name: Adenosine 5'-diphosphate
Name: ADP
Class: Natural Product; Nucleoside; Phosphates
Formula: C10H15N5O10P2
Exact mass: 427.02941
SMILES: Nc(n3)c(n2)c(nc3)n(c2)[C@H](O1)[C@H](O)[C@H](O)[C@@H](COP(O)(=O)OP(O)(O)=O)1
InChI: InChI=1S/C10H15N5O10P2/c11-8-5-9(13-2-12-8)15(3-14-5)10-7(17)6(16)4(24-10)1-23-27(21,22)25-26(18,19)20/h2-4,6-7,10,16-17H,1H2,(H,21,22)(H2,11,12,13)(H2,18,19,20)/t4-,6-,7-,10-/m1/s1
Instrument: UPLC Q-Tof Premier, Waters
Instrument type: LC-ESI-QTOF
Ms type: MS2
Ion mode: NEGATIVE
Collision energy: Ramp 5-60 V
Fragmentation mode: LOW-ENERGY CID
Ionization: ESI
Precursor m/z: 426.02162
Precursor type: [M-H]-
m/z	relative intensity
78.9597	999
134.0468	667
158.9248	759
426.0216	954
