Mass spectrum: Gentisic acid; LC-ESI-QTOF; MS2; CE:Ramp 5-60 V; [M+H]+
Name: 2,5-dihydroxy benzoic acid
Name: 2,5-DHBA
Name: DHB
Name: 2,5-Dihydroxybenzoate
Name: 2,5-Dioxybenzoic acid
Name: Gentisic acid
Name: Gentisate
Name: Hydroquinonecarboxylic acid
Name: Gensigen
Name: Gentinatre
Name: Gentidol
Name: Gentalpin
Name: Gentasol
Name: Gentisan
Name: Gentisod
Name: 5-Hydroxysalicylic acid
Class: Carboxylic acids
Formula: C7H6O4
Exact mass: 154.02661
SMILES: Oc(c1)cc(C(O)=O)c(O)c1
InChI: InChI=1S/C7H6O4/c8-4-1-2-6(9)5(3-4)7(10)11/h1-3,8-9H,(H,10,11)
Instrument: UPLC Q-Tof Premier, Waters
Instrument type: LC-ESI-QTOF
Ms type: MS2
Ion mode: POSITIVE
Collision energy: Ramp 5-60 V
Fragmentation mode: LOW-ENERGY CID
Ionization: ESI
Precursor m/z: 155.03441
Precursor type: [M+H]+
m/z	relative intensity
67.9333	74
81.0317	247
85.9416	84
92.9659	97
98.9820	877
99.5100	133
109.0261	182
113.9367	101
113.9587	81
137.0189	999
155.0344	76
