Mass spectrum: 1-Methoxy-3-carbaldehyde; LC-ESI-QTOF; MS2; CE:Ramp 5-60 V; [M-H]-
Name: 1-Methoxy-3-carbaldehyde
Name: 1-methoxyindole-3-carbaldehyde
Name: 3-Formyl-1-methoxyindole
Name: 1-Methoxy-3-formylindole
Class: Indole
Formula: C10H9NO2
Exact mass: 175.06333
SMILES: O=Cc(c1)c(c2)c(ccc2)n(OC)1
InChI: InChI=1S/C10H9NO2/c1-13-11-6-8(7-12)9-4-2-3-5-10(9)11/h2-7H,1H3
Instrument: UPLC Q-Tof Premier, Waters
Instrument type: LC-ESI-QTOF
Ms type: MS2
Ion mode: NEGATIVE
Collision energy: Ramp 5-60 V
Fragmentation mode: LOW-ENERGY CID
Ionization: ESI
Precursor m/z: 174.05551
Precursor type: [M-H]-
m/z	relative intensity
131.0385	180
143.8994	63
159.0339	999
174.0555	419
