Mass spectrum: Isobutyryl coenzyme A; LC-ESI-QTOF; MS2; CE:30 V; [M-H]-
Name: Isobutyryl coenzyme A
Name: Isobutyryl-CoA
Name: 2-Methylpropanoyl-CoA
Class: Coenzyme A
Formula: C25H42N7O17P3S
Exact mass: 837.15707
SMILES: O=C(NCCSC(=O)C(C)C)CCNC(=O)C(O)C(C)(C)COP(O)(=O)OP(O)(=O)OCC(O1)C(OP(O)(O)=O)C(O)C1n(c2)c(n3)c(c(N)nc3)n2
InChI: InChI=1S/C25H42N7O17P3S/c1-13(2)24(37)53-8-7-27-15(33)5-6-28-22(36)19(35)25(3,4)10-46-52(43,44)49-51(41,42)45-9-14-18(48-50(38,39)40)17(34)23(47-14)32-12-31-16-20(26)29-11-30-21(16)32/h11-14,17-19,23,34-35H,5-10H2,1-4H3,(H,27,33)(H,28,36)(H,41,42)(H,43,44)(H2,26,29,30)(H2,38,39,40)/t14-,17-,18-,19+,23-/m1/s1
Instrument: UPLC Q-Tof Premier, Waters
Instrument type: LC-ESI-QTOF
Ms type: MS2
Ion mode: NEGATIVE
Collision energy: 30 V
Fragmentation mode: LOW-ENERGY CID
Ionization: ESI
Precursor m/z: 836.14927
Precursor type: [M-H]-
m/z	relative intensity
78.9632	100
96.9738	35
134.0559	59
158.9269	192
270.9769	52
272.9516	80
272.9741	58
328.0481	215
339.0950	48
346.0573	49
408.0158	999
409.1296	200
410.4261	47
426.0260	519
427.1433	44
471.0962	54
487.9832	51
489.0919	624
489.1806	37
507.1071	224
510.0907	50
701.0891	80
701.1203	70
738.1725	82
756.1838	446
756.2874	53
818.1687	97
836.1493	936
838.2060	39
