Mass spectrum: Ideain; LC-ESI-QTOF; MS2; CE:30 V; [M-2H+H2O]-
Name: Cyanidin-3-O-galactoside
Name: (2S,3R,4S,5R,6R)-2-[2-(3,4-dihydroxyphenyl)-5,7-dihydroxychromenylium-3-yl]oxy-6-(hydroxymethyl)oxane-3,4,5-triol
Name: Ideain
Class: Natural Product
Formula: [C21H21O11]+
Exact mass: 449.10839
SMILES: OCC(O1)C(O)C(O)C(O)C1Oc(c3)c([o+1]c(c4)c(c(O)cc(O)4)3)c(c2)cc(O)c(O)c2
InChI: InChI=1S/C21H20O11/c22-7-16-17(27)18(28)19(29)21(32-16)31-15-6-10-12(25)4-9(23)5-14(10)30-20(15)8-1-2-11(24)13(26)3-8/h1-6,16-19,21-22,27-29H,7H2,(H3-,23,24,25,26)/p+1/t16-,17+,18+,19-,21-/m1/s1
Instrument: UPLC Q-Tof Premier, Waters
Instrument type: LC-ESI-QTOF
Ms type: MS2
Ion mode: NEGATIVE
Collision energy: 30 V
Fragmentation mode: LOW-ENERGY CID
Ionization: ESI
Full scan fragment ion peak: 465.1
Ion type: [M-2H+H2O]-
m/z	relative intensity
59.0454	35
71.0523	67
89.0408	68
101.0661	100
109.0450	83
113.0318	43
121.0761	45
123.1006	41
124.1250	31
125.0621	509
125.9522	71
137.0406	72
138.0471	216
138.9896	48
148.0559	63
149.0562	765
149.9342	135
150.8915	52
155.0556	31
161.0734	65
162.8729	34
164.0606	142
165.0365	245
166.0561	999
167.0170	401
167.9100	90
168.9288	50
169.8801	35
171.0620	54
173.1323	35
174.1005	56
175.0699	374
176.0199	233
177.0154	97
177.9738	35
179.0042	51
185.0433	40
191.0257	52
192.0335	254
192.9844	103
195.0049	33
197.0708	83
198.0037	108
199.0694	548
200.0024	106
201.0292	136
201.9611	39
209.0795	39
213.0605	117
213.9934	41
215.0639	88
216.0588	61
217.0717	526
217.9891	117
219.1014	60
223.0720	47
226.0851	49
238.9987	34
240.0110	57
241.0745	810
241.9994	250
243.0399	308
243.9520	81
257.0619	82
285.0568	475
285.9933	105
329.1029	162
330.0237	39
