Mass spectrum: Luteolin; LC-ESI-QTOF; MS2; CE:Ramp 5-60 eV; [M+H]+
Name: 3',4',5,7-tetrahydroxyflavone
Name: Luteolin
Name: Lutl
Name: 2-(3,4-dihydroxyphenyl)-5,7-dihydroxychromen-4-one
Class: Natural Product
Formula: C15H10O6
Exact mass: 286.04774
SMILES: Oc(c3)c(O)cc(c3)C(=C1)Oc(c2)c(c(O)cc(O)2)C(=O)1
InChI: InChI=1S/C15H10O6/c16-8-4-11(19)15-12(20)6-13(21-14(15)5-8)7-1-2-9(17)10(18)3-7/h1-6,16-19H
Instrument: UPLC Q-Tof Premier, Waters
Instrument type: LC-ESI-QTOF
Ms type: MS2
Ion mode: POSITIVE
Collision energy: Ramp 5-60 eV
Fragmentation mode: LOW-ENERGY CID
Ionization: ESI
Full scan fragment ion peak: 287.1
Ion type: [M+H]+
m/z	relative intensity
67.0073	13
68.9873	20
89.0329	32
117.0311	17
135.0431	39
137.0221	16
139.0531	12
153.0182	144
153.0814	10
161.0235	24
241.0510	18
287.0556	999
287.1414	55
288.0596	66
