Mass spectrum: Quercitrin; LC-ESI-QTOF; MS2; CE:Ramp 5-60 V; [M+H-C6H10O4]+
Name: Quercetin-3-O-rhamnoside
Name: Quercitrin
Name: Quer_3_Rha
Name: 2-(3,4-dihydroxyphenyl)-5,7-dihydroxy-3-[(2S,3R,4R,5S,6S)-3,4,5-trihydroxy-6-methyl-oxan-2-yl]oxy-chromen-4-one
Class: Natural Product
Formula: C21H20O11
Exact mass: 448.10056
SMILES: Oc(c4)c(O)cc(c4)C(O1)=C(O[C@H](O3)[C@H](O)[C@H](O)[C@@H](O)[C@H](C)3)C(=O)c(c(O)2)c(cc(O)c2)1
InChI: InChI=1S/C21H20O11/c1-7-15(26)17(28)18(29)21(30-7)32-20-16(27)14-12(25)5-9(22)6-13(14)31-19(20)8-2-3-10(23)11(24)4-8/h2-7,15,17-18,21-26,28-29H,1H3/t7-,15-,17+,18+,21-/m0/s1
Instrument: UPLC Q-Tof Premier, Waters
Instrument type: LC-ESI-QTOF
Ms type: MS2
Ion mode: POSITIVE
Collision energy: Ramp 5-60 V
Fragmentation mode: LOW-ENERGY CID
Ionization: ESI
Full scan fragment ion peak: 303.1
Ion type: [M+H-C6H10O4]+
m/z	relative intensity
69.0949	22
109.1950	24
121.2148	23
127.2503	23
137.2364	64
153.2567	101
155.2907	31
165.2759	38
173.3299	18
183.3305	18
201.3696	36
229.4075	90
257.4466	49
285.4851	25
303.5233	999
303.6121	62
304.5293	48
