Mass spectrum: D-(-)-Gulono-gamma-lactone; LC-ESI-QTOF; MS2; CE:Ramp 5-60 V; [M-H]-
Name: D(-)-Gulono-gamma-lactone
Name: D(-)-Gulono-1,4-lactone
Name: D-(-)-Gulonic Acid gamma-Lactone
Name: gamma-Gulonolactone
Name: D-(-)-Gulono-gamma-lactone
Formula: C6H10O6
Exact mass: 178.04774
SMILES: OCC(O)C(O1)C(O)C(O)C(=O)1
InChI: InChI=1S/C6H10O6/c7-1-2(8)5-3(9)4(10)6(11)12-5/h2-5,7-10H,1H2
Instrument: UPLC Q-Tof Premier, Waters
Instrument type: LC-ESI-QTOF
Ms type: MS2
Ion mode: NEGATIVE
Collision energy: Ramp 5-60 V
Fragmentation mode: LOW-ENERGY CID
Ionization: ESI
Precursor m/z: 177.03994
Precursor type: [M-H]-
m/z	relative intensity
59.0159	447
71.0148	691
75.0110	262
85.0297	282
89.0251	408
99.0080	343
111.0065	167
129.0201	630
141.0181	239
159.8837	96
177.0399	999
