Mass spectrum: Keracyanin; LC-ESI-QTOF; MS2; CE:Ramp 5-60 eV; [M-2H]-
Name: cyanidin-3-O-rutinoside
Name: Keracyanin
Name: (2S,3R,4S,5S,6R)-2-[2-(3,4-dihydroxyphenyl)-5,7-dihydroxychromenylium-3-yl]oxy-6-[[(2R,3R,4R,5R,6S)-3,4,5-trihydroxy-6-methyloxan-2-yl]oxymethyl]oxane-3,4,5-triol
Class: Natural Product
Formula: [C27H31O15]+
Exact mass: 595.16630
SMILES: c(c(c([o+1]2)c(O[C@H](O4)[C@@H]([C@H]([C@@H]([C@H]4CO[C@@H]([C@@H]5O)O[C@H]([C@@H]([C@H]5O)O)C)O)O)O)cc(c(O)3)c(cc(O)c3)2)1)c(O)c(O)cc1
InChI: InChI=1S/C27H30O15/c1-9-19(32)21(34)23(36)26(39-9)38-8-18-20(33)22(35)24(37)27(42-18)41-17-7-12-14(30)5-11(28)6-16(12)40-25(17)10-2-3-13(29)15(31)4-10/h2-7,9,18-24,26-27,32-37H,8H2,1H3,(H3-,28,29,30,31)/p+1/t9-,18+,19-,20+,21+,22-,23+,24+,26+,27+/m0/s1
Instrument: UPLC Q-Tof Premier, Waters
Instrument type: LC-ESI-QTOF
Ms type: MS2
Ion mode: NEGATIVE
Collision energy: Ramp 5-60 eV
Fragmentation mode: LOW-ENERGY CID
Ionization: ESI
Full scan fragment ion peak: 593.2
Ion type: [M-2H]-
m/z	relative intensity
125.0239	26
147.0084	42
211.0401	24
227.0336	23
239.0332	32
240.0410	25
255.0293	78
256.0368	42
257.0445	31
283.0239	67
284.0315	511
285.0391	333
299.0554	40
593.1506	999
594.1545	75
