Mass spectrum: trans-Zeatin riboside; LC-ESI-QTOF; MS2; CE:Ramp 5-60 V; [M+H]+
Name: trans-Zeatin-riboside
Name: trans-ribosylzeatin
Name: 9-(beta-D-Ribofuranosyl)-trans-zeatin
Name: N6-(trans-4-Hydroxy-3-methyl-2-buten-1-yl)adenosine
Name: trans-Zeatin riboside
Class: Zeatin
Formula: C15H21N5O5
Exact mass: 351.15427
SMILES: OCC(C)=CCNc(n3)c(n2)c(nc3)n(c2)C(O1)C(O)C(O)C(CO)1
InChI: InChI=1S/C15H21N5O5/c1-8(4-21)2-3-16-13-10-14(18-6-17-13)20(7-19-10)15-12(24)11(23)9(5-22)25-15/h2,6-7,9,11-12,15,21-24H,3-5H2,1H3,(H,16,17,18)/b8-2+/t9-,11-,12-,15-/m1/s1
Instrument: UPLC Q-Tof Premier, Waters
Instrument type: LC-ESI-QTOF
Ms type: MS2
Ion mode: POSITIVE
Collision energy: Ramp 5-60 V
Fragmentation mode: LOW-ENERGY CID
Ionization: ESI
Precursor m/z: 352.16206
Precursor type: [M+H]+
m/z	relative intensity
119.0397	128
136.0654	999
148.0669	258
185.0885	98
202.1146	255
220.1222	770
352.1620	405
