Mass spectrum: Isorhamnetin-3-O-glucoside; LC-ESI-QTOF; MS2; CE:Ramp 5-60 V; [M+H]+
Name: Isorhamnetin-3-O-glucoside
Name: Isor-3-Glc
Name: Isorhamnetin-3-beta-D-galactopyranoside
Class: Flavonoid
Formula: C22H22O12
Exact mass: 478.11113
SMILES: COc(c(O)4)cc(cc4)C(O1)=C(OC(O3)C(O)C(O)C(O)C(CO)3)C(=O)c(c(O)2)c(cc(O)c2)1
InChI: InChI=1S/C22H22O12/c1-31-12-4-8(2-3-10(12)25)20-21(17(28)15-11(26)5-9(24)6-13(15)32-20)34-22-19(30)18(29)16(27)14(7-23)33-22/h2-6,14,16,18-19,22-27,29-30H,7H2,1H3/t14-,16-,18+,19-,22+/m1/s1
Instrument: UPLC Q-Tof Premier, Waters
Instrument type: LC-ESI-QTOF
Ms type: MS2
Ion mode: POSITIVE
Collision energy: Ramp 5-60 V
Fragmentation mode: LOW-ENERGY CID
Ionization: ESI
Precursor m/z: 479.11892
Precursor type: [M+H]+
m/z	relative intensity
85.0297	76
97.0295	25
153.0202	79
229.0512	39
257.0462	26
273.0404	20
274.0499	40
285.0418	46
302.0441	130
317.0660	999
479.1189	22
