Mass spectrum: Chalcone; GC-EI-TOF; MS; 1 MEOX; BP:77
Name: Chalcone
Name: Benzylideneacetophenone
Name: 1,3-Diphenyl-2-propen-1-one
Class: Natural Product
Formula: C15H12O
Exact mass: 208.08882
SMILES: O=C(C=Cc(c2)cccc2)c(c1)cccc1
InChI: InChI=1S/C15H12O/c16-15(14-9-5-2-6-10-14)12-11-13-7-3-1-4-8-13/h1-12H/b12-11+
Instrument: Pegasus III TOF-MS system, Leco; GC 6890, Agilent Technologies
Instrument type: GC-EI-TOF
Ms type: MS
Ion mode: POSITIVE
Retention time: 479.494 sec
Base peak: 77
Derivative form: C16H15NO
Derivative mass: 237.11536
Derivative type: 1 MEOX
m/z	relative intensity
60	1
61	10
62	40
63	125
64	29
65	50
66	4
70	2
73	6
74	71
75	76
76	218
77	999
78	133
79	13
80	1
81	6
82	26
83	9
84	1
85	2
86	11
87	21
88	40
89	104
90	38
91	148
92	13
93	5
94	13
95	16
96	5
97	2
98	7
99	7
100	7
101	71
102	369
103	455
104	160
105	45
106	3
107	1
108	2
109	1
110	3
111	3
112	1
113	12
114	9
115	42
116	8
117	3
118	4
119	22
120	2
121	37
122	4
123	1
125	1
126	7
127	9
128	428
129	71
130	14
131	1
133	5
134	21
135	2
137	2
138	1
139	12
140	3
141	1
144	2
145	2
150	7
151	12
152	17
153	5
154	1
160	10
161	2
162	3
163	12
164	12
165	77
166	14
167	5
174	1
175	3
176	20
177	15
178	56
179	30
180	9
181	1
186	1
187	6
188	6
189	55
190	33
191	56
192	12
193	6
194	2
201	2
202	6
203	19
204	148
205	218
206	701
207	128
208	12
209	1
217	1
218	2
219	1
220	12
221	9
222	2
235	2
236	480
237	187
238	27
239	2
