Mass spectrum: Quercetin-3,7-O-alpha-L-dirhamnopyranoside; LC-ESI-QTOF; MS2; CE:Ramp 5-60 V; [M+H]+
Name: Quercetin-3,7-O-alpha-L-dirhamnopyranoside
Name: Quer-3-Rha-7-Rha
Name: Quercetin-3-rhamnoside-7-rhamnoside
Class: Flavonoid
Formula: C27H30O15
Exact mass: 594.15847
SMILES: C(C1O)(C)OC(Oc(c5)cc(O2)c(c5O)C(C(OC(O4)C(C(C(C4C)O)O)O)=C(c(c3)ccc(O)c3O)2)=O)C(C1O)O
InChI: InChI=1S/C27H30O15/c1-8-17(31)20(34)22(36)26(38-8)40-11-6-14(30)16-15(7-11)41-24(10-3-4-12(28)13(29)5-10)25(19(16)33)42-27-23(37)21(35)18(32)9(2)39-27/h3-9,17-18,20-23,26-32,34-37H,1-2H3/t8-,9-,17-,18-,20+,21+,22+,23+,26-,27-/m0/s1
Instrument: UPLC Q-Tof Premier, Waters
Instrument type: LC-ESI-QTOF
Ms type: MS2
Ion mode: POSITIVE
Collision energy: Ramp 5-60 V
Fragmentation mode: LOW-ENERGY CID
Ionization: ESI
Precursor m/z: 595.16628
Precursor type: [M+H]+
m/z	relative intensity
71.0507	110
85.0287	171
129.0535	62
287.0532	190
303.0487	999
433.1117	44
449.1061	409
595.1663	63
