Mass spectrum: S-Carboxymethyl-L-cysteine; LC-ESI-QTOF; MS2; CE:Ramp 5-60 V; [M+H]+
Name: S-Carboxymethyl-L-cysteine
Name: PSCMC
Name: L-Carbocisteine
Name: L-Carboxymethylcysteine
Name: Mucodyne
Class: Amino acids
Formula: C5H9NO4S
Exact mass: 179.02523
SMILES: OC(=O)C(N)CSCC(O)=O
InChI: InChI=1S/C5H9NO4S/c6-3(5(9)10)1-11-2-4(7)8/h3H,1-2,6H2,(H,7,8)(H,9,10)/t3-/m0/s1
Instrument: UPLC Q-Tof Premier, Waters
Instrument type: LC-ESI-QTOF
Ms type: MS2
Ion mode: POSITIVE
Collision energy: Ramp 5-60 V
Fragmentation mode: LOW-ENERGY CID
Ionization: ESI
Precursor m/z: 180.03303
Precursor type: [M+H]+
m/z	relative intensity
61.0127	260
74.0080	206
88.0238	276
89.0066	999
117.0023	277
134.0294	317
163.0085	735
180.0330	294
