Mass spectrum: Creatinine; LC-ESI-QTOF; MS2; CE:Ramp 5-60 V; [M+H]+
Name: Creatinine
Name: 2-Amino-1-methylimidazolidin-4-one
Name: 2-Imino-1-methylimidazolidin-4-one
Name: 2-Imino-N-methylhydantoin
Name: 1-Methylglycocyamidine
Name: 1-methylhydantoin-2-imide
Name: 2-amino-1-methyl-4-imidazolidinone
Class: Imidazolidine
Formula: C4H7N3O
Exact mass: 113.05891
SMILES: O=C(C1)NC(=N)N(C)1
InChI: InChI=1S/C4H7N3O/c1-7-2-3(8)6-4(7)5/h2H2,1H3,(H2,5,6,8)
Instrument: UPLC Q-Tof Premier, Waters
Instrument type: LC-ESI-QTOF
Ms type: MS2
Ion mode: POSITIVE
Collision energy: Ramp 5-60 V
Fragmentation mode: LOW-ENERGY CID
Ionization: ESI
Precursor m/z: 114.06671
Precursor type: [M+H]+
m/z	relative intensity
114.0062	18
114.0667	999
