Mass spectrum: L-(+)-tartaric acid; LC-ESI-QTOF; MS2; CE:Ramp 5-60 V; [M-H]-
Name: L(+)-Tartaric acid
Name: Tartrate
Name: L-Threaric acid
Name: (2R,3R)-(+)-Tartaric acid
Name: 2,3-Dihydroxybutanedioic acid
Name: L(+)-2,3-Dihydroxysuccinic Acid
Name: Dextrotartaric acid
Name: 1,2-Dihydroxyethane-1,2-dicarboxylic acid
Name: L-(+)-tartaric acid
Class: Carboxylic acids
Formula: C4H6O6
Exact mass: 150.01644
SMILES: OC(=O)C(O)C(O)C(O)=O
InChI: InChI=1S/C4H6O6/c5-1(3(7)8)2(6)4(9)10/h1-2,5-6H,(H,7,8)(H,9,10)
Instrument: UPLC Q-Tof Premier, Waters
Instrument type: LC-ESI-QTOF
Ms type: MS2
Ion mode: NEGATIVE
Collision energy: Ramp 5-60 V
Fragmentation mode: LOW-ENERGY CID
Ionization: ESI
Precursor m/z: 149.00864
Precursor type: [M-H]-
m/z	relative intensity
72.9936	274
87.0099	523
148.8990	199
149.0086	999
