Mass spectrum: Syringetin-3-O-glucoside; LC-ESI-QTOF; MS2; CE:Ramp 5-60 V; [M-H]-
Name: Syringetin-3-O-glucoside
Name: Syrg-3-Glc
Class: Flavonoid
Formula: C23H24O13
Exact mass: 508.12169
SMILES: OCC(O1)C(O)C(O)C(O)C1OC(C(=O)3)=C(Oc(c4)c(c(O)cc(O)4)3)c(c2)cc(OC)c(O)c(OC)2
InChI: InChI=1S/C23H24O13/c1-32-12-3-8(4-13(33-2)16(12)27)21-22(18(29)15-10(26)5-9(25)6-11(15)34-21)36-23-20(31)19(30)17(28)14(7-24)35-23/h3-6,14,17,19-20,23-28,30-31H,7H2,1-2H3/t14-,17-,19+,20-,23+/m1/s1
Instrument: UPLC Q-Tof Premier, Waters
Instrument type: LC-ESI-QTOF
Ms type: MS2
Ion mode: NEGATIVE
Collision energy: Ramp 5-60 V
Fragmentation mode: LOW-ENERGY CID
Ionization: ESI
Precursor m/z: 507.11389
Precursor type: [M-H]-
m/z	relative intensity
230.0256	59
241.0172	101
242.0250	248
258.0198	231
270.0207	90
272.0363	54
273.0441	267
286.0157	159
287.0568	72
301.0393	226
316.0634	90
329.0352	141
344.0569	545
345.0670	118
507.1139	999
