Mass spectrum: 2-Methoxycinnamic acid; LC-ESI-QTOF; MS2; CE:Ramp 5-60 V; [M+H]+
Name: 2-Methoxycinnamic acid
Name: (E)-3-(2-methoxyphenyl)prop-2-enoic acid
Class: Natural Product
Formula: C10H10O3
Exact mass: 178.06299
SMILES: COc(c1)c(ccc1)C=CC(O)=O
InChI: InChI=1S/C10H10O3/c1-13-9-5-3-2-4-8(9)6-7-10(11)12/h2-7H,1H3,(H,11,12)/b7-6+
Instrument: UPLC Q-Tof Premier, Waters
Instrument type: LC-ESI-QTOF
Ms type: MS2
Ion mode: POSITIVE
Collision energy: Ramp 5-60 V
Fragmentation mode: LOW-ENERGY CID
Ionization: ESI
Full scan fragment ion peak: 179.1
Ion type: [M+H]+
m/z	relative intensity
77.0388	96
77.0849	24
79.0543	98
79.1011	23
89.0386	23
90.0466	38
103.0547	88
103.1078	21
105.0702	352
105.1239	83
107.0495	59
118.0417	276
118.0987	60
137.0603	61
146.0373	142
146.1004	28
161.0603	999
161.1273	236
161.2561	31
