Mass spectrum: Caffeic acid; LC-ESI-QTOF; MS2; CE:30 V; [M+H]+
Name: 3,4-dihydroxycinnamic acid
Name: Caffeic acid
Name: (E)-3-(3,4-dihydroxyphenyl)prop-2-enoic acid
Class: Natural Product
Formula: C9H8O4
Exact mass: 180.04226
SMILES: C1=CC(=C(C=C1/C=C/C(=O)O)O)O
InChI: InChI=1S/C9H8O4/c10-7-3-1-6(5-8(7)11)2-4-9(12)13/h1-5,10-11H,(H,12,13)/b4-2+
Instrument: UPLC Q-Tof Premier, Waters
Instrument type: LC-ESI-QTOF
Ms type: MS2
Ion mode: POSITIVE
Collision energy: 30 V
Fragmentation mode: LOW-ENERGY CID
Ionization: ESI
Full scan fragment ion peak: 181.1
Ion type: [M+H]+
m/z	relative intensity
63.0243	60
77.0404	106
77.0868	36
79.0560	40
89.0406	999
89.0898	290
107.0517	35
117.0363	193
117.0925	51
135.0475	67
