Mass spectrum: Trigonelline; LC-ESI-QTOF; MS2; CE:30 V; [M+H]+
Name: Trigonelline
Name: 1-Methylpyridinium-3-carboxylate
Name: N-Methylnicotinic acid betaine
Name: Gynesine
Name: Caffearin
Name: Coffearine
Name: Betaine nicotinate
Name: N-Methylnicotinate
Class: Iminium betaine
Formula: C7H7NO2
Exact mass: 137.04768
SMILES: C[n+1](c1)cc(cc1)C([O-1])=O
InChI: InChI=1S/C7H7NO2/c1-8-4-2-3-6(5-8)7(9)10/h2-5H,1H3
Instrument: UPLC Q-Tof Premier, Waters
Instrument type: LC-ESI-QTOF
Ms type: MS2
Ion mode: POSITIVE
Collision energy: 30 V
Fragmentation mode: LOW-ENERGY CID
Ionization: ESI
Precursor m/z: 138.05548
Precursor type: [M+H]+
m/z	relative intensity
65.0390	357
67.0507	105
78.0342	458
79.0415	250
92.0496	999
93.0575	366
94.0654	838
110.0602	97
138.0555	342
