Mass spectrum: Daidzein; LC-ESI-QTOF; MS2; CE:Ramp 5-60 eV; [M-H]-
Name: 4',7-dihydroxyisoflavone
Name: Daidzein
Name: Ddze
Name: 7-hydroxy-3-(4-hydroxyphenyl)chromen-4-one
Class: Natural Product
Formula: C15H10O4
Exact mass: 254.05791
SMILES: Oc(c3)ccc(c3)C(=C1)C(=O)c(c2)c(cc(O)c2)O1
InChI: InChI=1S/C15H10O4/c16-10-3-1-9(2-4-10)13-8-19-14-7-11(17)5-6-12(14)15(13)18/h1-8,16-17H
Instrument: UPLC Q-Tof Premier, Waters
Instrument type: LC-ESI-QTOF
Ms type: MS2
Ion mode: NEGATIVE
Collision energy: Ramp 5-60 eV
Fragmentation mode: LOW-ENERGY CID
Ionization: ESI
Full scan fragment ion peak: 253.1
Ion type: [M-H]-
m/z	relative intensity
91.0180	61
132.0214	52
133.0294	46
135.0086	34
180.0582	23
195.0450	40
196.0528	20
208.0528	54
209.0606	29
223.0403	51
224.0478	56
225.0554	23
253.0501	999
253.2921	24
