Mass spectrum: DL-threo-beta-Methylaspartic acid; LC-ESI-QTOF; MS2; CE:Ramp 5-60 V; [M-H]-
Name: DL-threo-beta-Methylaspartic acid
Name: beta-methylaspartate
Name: 2-Amino-3-methylsuccinic acid
Class: Amino acids
Formula: C5H9NO4
Exact mass: 147.05316
SMILES: OC(=O)C(C)C(N)C(O)=O
InChI: InChI=1S/C5H9NO4/c1-2(4(7)8)3(6)5(9)10/h2-3H,6H2,1H3,(H,7,8)(H,9,10)
Instrument: UPLC Q-Tof Premier, Waters
Instrument type: LC-ESI-QTOF
Ms type: MS2
Ion mode: NEGATIVE
Collision energy: Ramp 5-60 V
Fragmentation mode: LOW-ENERGY CID
Ionization: ESI
Precursor m/z: 146.04536
Precursor type: [M-H]-
m/z	relative intensity
85.0295	300
102.0560	819
129.0185	123
146.0454	999
