Mass spectrum: Rhamnetin; LC-ESI-QTOF; MS2; CE:Ramp 5-60 V; [M+H]+
Name: Rhamnetin
Name: Ramn
Name: 3,3',4',5-tetrahydroxy-7-methoxyflavone
Name: beta-Rhamnocitrin
Name: 7-Methoxyquercetin
Name: 7-methylquercetin
Name: Quercetin 7-methyl ether
Name: 4H-1-Benzopyran-4-one, 2-(3,4-dihydroxyphenyl)-3,5-dihydroxy-7-methoxy-
Class: Flavonoid
Formula: C16H12O7
Exact mass: 316.05830
SMILES: COc(c3)cc(O1)c(c(O)3)C(=O)C(O)=C1c(c2)cc(O)c(O)c2
InChI: InChI=1S/C16H12O7/c1-22-8-5-11(19)13-12(6-8)23-16(15(21)14(13)20)7-2-3-9(17)10(18)4-7/h2-6,17-19,21H,1H3
Instrument: UPLC Q-Tof Premier, Waters
Instrument type: LC-ESI-QTOF
Ms type: MS2
Ion mode: POSITIVE
Collision energy: Ramp 5-60 V
Fragmentation mode: LOW-ENERGY CID
Ionization: ESI
Precursor m/z: 317.0661
Precursor type: [M+H]+
m/z	relative intensity
123.0441	134
137.0237	106
167.0326	110
179.0326	62
200.0447	55
207.0297	86
208.0346	86
209.0301	153
224.0638	52
225.0621	70
243.0635	68
274.0461	104
283.0449	53
302.0388	65
317.0661	999
