Mass spectrum: Safranine; LC-ESI-QTOF; MS2; CE:Ramp 5-60 V; [M]+
Name: Safranine
Name: 2,8-Dimethylphenosafranine
Name: Gossypimine
Name: Tolusafranine
Class: Phenazine
Formula: [C20H19N4]+
Exact mass: 315.16097
SMILES: c(c4)ccc(c4)[n+1](c21)c(c3)c(cc(C)c(N)3)nc(cc(C)c(N)c2)1
InChI: InChI=1S/C20H18N4/c1-12-8-17-19(10-15(12)21)24(14-6-4-3-5-7-14)20-11-16(22)13(2)9-18(20)23-17/h3-11H,1-2H3,(H3,21,22)/p+1
Instrument: UPLC Q-Tof Premier, Waters
Instrument type: LC-ESI-QTOF
Ms type: MS2
Ion mode: POSITIVE
Collision energy: Ramp 5-60 V
Fragmentation mode: LOW-ENERGY CID
Ionization: ESI
Precursor m/z: 315.16094
Precursor type: [M]+
m/z	relative intensity
210.1132	233
237.1252	263
238.1325	256
299.1430	315
315.1609	999
315.6059	321
315.6922	278
