Mass spectrum: D-Mannose-6-phosphate; LC-ESI-QTOF; MS2; CE:Ramp 5-60 V; [M+H]+
Name: D-Mannose-6-phosphate
Name: Man-6P
Name: 6-phosphono-D-mannopyranose
Class: Natural Product; Carbohydrate; Phosphates
Formula: C6H13O9P
Exact mass: 260.02972
SMILES: O[C@H](O1)[C@@H](O)[C@@H](O)[C@H](O)[C@H]1COP(O)(O)=O
InChI: InChI=1S/C6H13O9P/c7-3-2(1-14-16(11,12)13)15-6(10)5(9)4(3)8/h2-10H,1H2,(H2,11,12,13)/t2-,3-,4+,5+,6?/m1/s1
Instrument: UPLC Q-Tof Premier, Waters
Instrument type: LC-ESI-QTOF
Ms type: MS2
Ion mode: POSITIVE
Collision energy: Ramp 5-60 V
Fragmentation mode: LOW-ENERGY CID
Ionization: ESI
Precursor m/z: 261.03752
Precursor type: [M+H]+
m/z	relative intensity
69.0333	246
80.9710	55
81.0333	167
85.0281	212
97.0267	92
98.9836	999
99.0443	76
99.5096	125
100.5120	59
109.0280	846
127.0368	422
145.0504	74
207.0027	57
207.0267	58
225.0090	179
243.0218	517
261.0375	57
