Mass spectrum: Puerarin; LC-ESI-QTOF; MS2; CE:Ramp 5-60 V; [M-H]-
Name: Puerarin
Name: Ddze-8-C-Glc
Name: daidzein-8-C-glucoside
Name: kakonein
Name: 8-Glucosyldaidzein
Name: 4',7-dihydroxy-8-C-glucosylisoflavone
Name: 8-(beta-D-Glucopyranosyl-7-hydroxy-3- (4-hydroxyphenyl)-4H-1-benzopyran-4-one
Class: Flavonoid
Formula: C21H20O9
Exact mass: 416.11073
SMILES: OC[C@H]([C@@H](O)4)O[C@H]([C@H](O)[C@@H](O)4)c(c(O)3)c(O2)c(cc3)C(=O)C(=C2)c(c1)ccc(O)c1
InChI: InChI=1S/C21H20O9/c22-7-14-17(26)18(27)19(28)21(30-14)15-13(24)6-5-11-16(25)12(8-29-20(11)15)9-1-3-10(23)4-2-9/h1-6,8,14,17-19,21-24,26-28H,7H2/t14-,17-,18+,19-,21+/m1/s1
Instrument: UPLC Q-Tof Premier, Waters
Instrument type: LC-ESI-QTOF
Ms type: MS2
Ion mode: NEGATIVE
Collision energy: Ramp 5-60 V
Fragmentation mode: LOW-ENERGY CID
Ionization: ESI
Precursor m/z: 415.10293
Precursor type: [M-H]-
m/z	relative intensity
133.0313	81
222.0722	67
223.0791	74
224.0512	55
253.0550	56
267.0684	999
277.0550	146
295.0638	650
415.1029	716
