Mass spectrum: trans-Cinnamic acid; LC-ESI-QTOF; MS2; CE:Ramp 5-60 V; [M-H]-
Name: trans-Cinnamic acid
Name: Zimtsaeure
Name: 3-Phenylpropenoic Acid
Name: trans-3-Phenylacrylic acid
Name: trans-3-Benzenepropenoic Acid
Name: trans-beta-Carboxystyrene
Class: Carboxylic acids
Formula: C9H8O2
Exact mass: 148.05243
SMILES: OC(=O)C=Cc(c1)cccc1
InChI: InChI=1S/C9H8O2/c10-9(11)7-6-8-4-2-1-3-5-8/h1-7H,(H,10,11)/b7-6+
Instrument: UPLC Q-Tof Premier, Waters
Instrument type: LC-ESI-QTOF
Ms type: MS2
Ion mode: NEGATIVE
Collision energy: Ramp 5-60 V
Fragmentation mode: LOW-ENERGY CID
Ionization: ESI
Precursor m/z: 147.04463
Precursor type: [M-H]-
m/z	relative intensity
102.9346	186
103.0548	999
145.8880	108
146.8973	566
147.0446	630
