Mass spectrum: Maltose; GC-EI-TOF; MS; 8 TMS; BP:73
Name: Maltose
Class: Natural Product
Formula: C12H22O11
Exact mass: 342.11621
SMILES: OCC(O1)C(O)C(O)C(O)C1OC(C(CO)2)C(O)C(O)C(O)O2
InChI: InChI=1S/C12H22O11/c13-1-3-5(15)6(16)9(19)12(22-3)23-10-4(2-14)21-11(20)8(18)7(10)17/h3-20H,1-2H2/t3-,4-,5-,6+,7-,8-,9-,10-,11-,12-/m1/s1
Instrument: Pegasus III TOF-MS system, Leco; GC 6890, Agilent Technologies
Instrument type: GC-EI-TOF
Ms type: MS
Ion mode: POSITIVE
Retention time: 634.78 sec
Base peak: 73
Derivative form: C36H86O11Si8
Derivative mass: 918.43243
Derivative type: 8 TMS
m/z	relative intensity
60	4
61	11
64	1
65	1
66	9
67	4
68	1
69	11
70	5
71	8
72	21
73	999
74	87
75	95
76	9
77	4
80	3
81	16
82	7
83	5
84	2
85	7
86	6
87	8
88	5
89	44
90	4
91	5
92	2
93	1
94	2
95	2
96	4
97	5
98	3
99	10
100	8
101	27
102	7
103	168
104	19
105	20
106	3
107	2
108	3
109	5
110	4
111	5
112	4
113	7
114	11
115	10
116	15
117	68
118	8
119	8
120	2
121	2
122	1
123	1
124	4
125	3
126	3
127	5
128	4
129	114
130	18
131	31
132	6
133	41
134	5
135	7
136	2
137	1
138	8
139	4
140	3
141	3
142	7
143	23
144	4
145	12
146	2
147	192
148	30
149	30
150	5
151	3
152	2
153	3
154	4
155	14
156	5
157	12
158	5
159	7
160	38
161	11
162	4
163	12
164	3
165	2
166	1
167	2
168	6
169	37
170	12
171	22
172	5
173	6
174	5
175	9
176	3
177	5
178	2
179	1
180	2
181	3
182	3
183	5
184	3
185	2
186	4
187	10
188	6
189	38
190	9
191	31
192	5
193	1
194	2
195	1
196	2
197	4
198	5
199	4
200	6
201	5
202	1
203	11
204	325
205	81
206	34
207	10
208	2
209	2
210	2
211	2
212	2
213	1
214	1
215	4
216	5
217	75
218	21
219	11
220	3
221	8
222	2
223	2
224	1
225	1
227	3
228	17
229	9
230	5
231	10
232	2
233	4
234	1
235	1
239	1
240	1
241	2
242	3
243	18
244	6
245	5
246	3
247	2
248	1
250	1
253	1
254	4
255	3
256	2
257	3
258	2
259	2
260	1
261	1
262	1
263	2
265	1
267	1
268	1
269	1
270	1
271	13
272	4
273	4
274	1
275	1
276	1
277	1
281	1
283	1
285	1
286	1
287	1
289	1
290	1
291	3
292	1
293	1
298	1
299	1
300	1
302	1
303	1
304	1
305	5
306	3
307	1
309	1
311	1
314	1
315	1
316	1
317	2
318	1
319	6
320	2
321	1
322	1
327	1
330	1
331	4
332	3
333	2
334	1
338	1
342	1
343	1
344	3
345	3
346	2
347	1
348	1
349	1
358	1
359	1
360	6
361	64
362	22
363	11
364	2
365	1
374	1
375	1
376	1
377	1
378	1
383	1
384	1
388	1
389	1
390	1
392	1
396	1
404	1
409	1
432	1
433	1
434	1
435	1
436	1
449	1
451	2
491	1
536	1
539	1
550	1
551	2
552	3
553	2
554	1
562	1
565	1
598	1
730	1
733	1
