Mass spectrum: Orotic acid; LC-ESI-QTOF; MS2; CE:Ramp 5-60 V; [M+H]+
Name: Orotic acid
Name: Vitamin B13
Name: Orotate
Name: 2,6-Dihydroxypyrimidine-4-carboxylic acid
Name: 6-Carboxy-2,4-dihydroxypyrimidine
Name: 6-Carboxyuracil
Name: Uracil-6-carboxylic acid
Name: 2,6-Dioxo-1,2,3,6-tetrahydro-4-pyrimidinecarboxylic Acid
Name: Orotonin
Name: Orotyl
Class: Carboxylic acids
Formula: C5H4N2O4
Exact mass: 156.01711
SMILES: O=C(N1)C=C(NC(=O)1)C(O)=O
InChI: InChI=1S/C5H4N2O4/c8-3-1-2(4(9)10)6-5(11)7-3/h1H,(H,9,10)(H2,6,7,8,11)
Instrument: UPLC Q-Tof Premier, Waters
Instrument type: LC-ESI-QTOF
Ms type: MS2
Ion mode: POSITIVE
Collision energy: Ramp 5-60 V
Fragmentation mode: LOW-ENERGY CID
Ionization: ESI
Precursor m/z: 157.02491
Precursor type: [M+H]+
m/z	relative intensity
68.0141	875
74.9392	531
99.5109	213
111.0193	999
115.9648	904
139.0143	894
157.0249	784
