Mass spectrum: alpha-Methylserine; GC-EI-TOF; MS; 3 TMS; BP:73
Name: alpha-Methyl-DL-serine
Name: alpha-Methylserine
Class: Natural Product
Formula: C4H9NO3
Exact mass: 119.05824
SMILES: OCC(C)(N)C(O)=O
InChI: InChI=1S/C4H9NO3/c1-4(5,2-6)3(7)8/h6H,2,5H2,1H3,(H,7,8)
Instrument: Pegasus III TOF-MS system, Leco; GC 6890, Agilent Technologies
Instrument type: GC-EI-TOF
Ms type: MS
Ion mode: POSITIVE
Retention time: 368.734 sec
Base peak: 73
Derivative form: C13H33NO3Si3
Derivative mass: 335.17682
Derivative type: 3 TMS
m/z	relative intensity
60	17
61	17
62	2
63	1
66	11
67	2
69	6
70	18
71	9
72	30
73	999
74	110
75	109
76	12
77	22
78	2
79	5
82	2
83	2
84	16
85	6
86	6
87	20
88	9
89	7
90	1
91	1
92	1
96	1
97	2
98	5
99	11
100	31
101	7
102	7
103	29
104	3
105	4
111	1
112	5
113	4
114	228
115	53
116	19
117	14
118	3
119	6
120	1
126	1
128	83
129	19
130	52
131	34
132	23
133	47
134	9
135	6
142	2
143	1
144	11
145	3
146	13
147	133
148	24
149	16
150	2
151	1
155	2
156	2
157	1
158	4
159	1
160	7
161	2
162	1
163	4
164	1
172	3
173	1
174	12
175	3
176	2
177	2
186	2
187	1
188	6
189	5
190	2
191	4
202	22
203	5
204	4
205	1
216	1
217	7
218	195
219	43
220	18
221	4
222	1
230	17
231	6
232	210
233	45
234	19
235	3
247	1
292	15
293	4
294	2
320	7
321	2
322	1
