Mass spectrum: Psoralen; GC-EI-TOF; MS; BP:158
Name: Psoralen
Name: Ficusin
Class: Natural Product
Formula: C11H6O3
Exact mass: 186.03169
SMILES: O=C(C=3)Oc(c1)c(C3)cc(c2)c(oc2)1
InChI: InChI=1S/C11H6O3/c12-11-2-1-7-5-8-3-4-13-9(8)6-10(7)14-11/h1-6H
Instrument: Pegasus III TOF-MS system, Leco; GC 6890, Agilent Technologies
Instrument type: GC-EI-TOF
Ms type: MS
Ion mode: POSITIVE
Retention time: 490.833 sec
Base peak: 158
m/z	relative intensity
60	24
61	169
62	259
63	341
64	32
65	66
66	18
67	2
68	1
69	57
70	4
71	1
72	6
73	60
74	355
75	324
76	460
77	74
78	21
79	176
80	8
84	17
85	58
86	90
87	94
88	20
89	20
90	5
91	2
92	3
93	40
94	1
97	11
98	60
99	21
100	16
101	136
102	908
103	86
104	29
105	3
108	1
109	3
110	5
111	2
112	1
113	9
114	2
115	1
116	2
117	4
118	1
119	1
120	1
128	2
129	158
130	408
131	43
132	8
141	2
142	1
143	1
144	1
145	2
146	1
157	17
158	999
159	117
160	12
161	1
171	1
174	1
175	1
176	1
185	3
186	762
187	95
188	11
189	1
