Mass spectrum: Eriodictyol; LC-ESI-QTOF; MS2; CE:30 eV; [2M-H]-
Name: 3',4',5,7-tetrahydroxyflavanone
Name: Eriodictyol
Name: Erid
Name: (2S)-2-(3,4-dihydroxyphenyl)-5,7-dihydroxy-chroman-4-one
Class: Natural Product
Formula: C15H12O6
Exact mass: 288.06339
SMILES: Oc(c3)c(O)cc(c3)[C@H](C1)Oc(c2)c(c(O)cc(O)2)C(=O)1
InChI: InChI=1S/C15H12O6/c16-8-4-11(19)15-12(20)6-13(21-14(15)5-8)7-1-2-9(17)10(18)3-7/h1-5,13,16-19H,6H2/t13-/m0/s1
Instrument: UPLC Q-Tof Premier, Waters
Instrument type: LC-ESI-QTOF
Ms type: MS2
Ion mode: NEGATIVE
Collision energy: 30 eV
Fragmentation mode: LOW-ENERGY CID
Ionization: ESI
Full scan fragment ion peak: 565
Ion type: [2M-H]-
m/z	relative intensity
107.0454	21
125.0627	33
135.0764	256
135.9263	38
150.0796	30
151.0350	999
151.8785	122
152.7494	35
287.0719	288
287.9888	52
392.9957	19
