Mass spectrum: Malonic acid; GC-EI-TOF; MS; 2 TMS; BP:147
Name: Malonic acid
Name: Malonate
Name: Propanedioic acid
Class: Natural Product
Formula: C3H4O4
Exact mass: 104.01096
SMILES: OC(=O)CC(O)=O
InChI: InChI=1S/C3H4O4/c4-2(5)1-3(6)7/h1H2,(H,4,5)(H,6,7)
Instrument: Pegasus III TOF-MS system, Leco; GC 6890, Agilent Technologies
Instrument type: GC-EI-TOF
Ms type: MS
Ion mode: POSITIVE
Retention time: 314.251 sec
Base peak: 147
Derivative form: C9H20O4Si2
Derivative mass: 248.09001
Derivative type: 2 TMS
m/z	relative intensity
60	24
61	60
62	5
63	4
65	1
66	161
67	14
69	19
70	13
71	13
72	76
73	796
74	87
75	318
76	32
77	49
78	5
79	9
83	1
84	2
85	4
86	1
87	18
88	10
89	6
90	1
91	1
92	1
93	2
98	1
99	58
100	6
101	25
102	7
103	13
104	2
105	7
109	12
110	1
113	2
115	16
116	9
117	20
118	3
119	4
131	33
132	5
133	46
134	6
135	4
143	25
144	2
145	1
146	2
147	999
148	162
149	88
150	9
151	2
159	1
162	1
173	2
189	5
190	1
191	1
204	1
217	4
233	47
234	9
235	4
248	6
249	1
