Mass spectrum: trans-Cinnamaldehyde; LC-ESI-QTOF; MS2; CE:Ramp 5-60 V; [M+H]+
Name: trans-Cinnamaldehyde
Name: trans-3-Phenyl-2-propenal
Name: trans-Phenylacrolein
Name: trans-Phenylacrylaldehyde
Class: Cinnamaldehydes
Formula: C9H8O
Exact mass: 132.05751
SMILES: [H]C(=O)C=Cc(c1)cccc1
InChI: InChI=1S/C9H8O/c10-8-4-7-9-5-2-1-3-6-9/h1-8H/b7-4+
Instrument: UPLC Q-Tof Premier, Waters
Instrument type: LC-ESI-QTOF
Ms type: MS2
Ion mode: POSITIVE
Collision energy: Ramp 5-60 V
Fragmentation mode: LOW-ENERGY CID
Ionization: ESI
Precursor m/z: 133.06531
Precursor type: [M+H]+
m/z	relative intensity
55.0195	116
77.0398	213
79.0555	168
91.0541	113
103.0552	208
105.0707	386
115.0545	999
117.9612	73
133.0653	700
