Mass spectrum: Protocatechuic acid; LC-ESI-QTOF; MS2; CE:Ramp 5-60 V; [M-H]-
Name: 3,4-Dihydroxybenzoic acid
Name: 3,4-Dihydroxybenzoate
Name: Protocatechuic acid
Name: Protocatechuate
Name: Catechol-4-carboxylic Acid
Name: 4-Carboxy-1,2-dihydroxybenzene
Class: Carboxylic acids
Formula: C7H6O4
Exact mass: 154.02661
SMILES: OC(=O)c(c1)cc(O)c(O)c1
InChI: InChI=1S/C7H6O4/c8-5-2-1-4(7(10)11)3-6(5)9/h1-3,8-9H,(H,10,11)
Instrument: UPLC Q-Tof Premier, Waters
Instrument type: LC-ESI-QTOF
Ms type: MS2
Ion mode: NEGATIVE
Collision energy: Ramp 5-60 V
Fragmentation mode: LOW-ENERGY CID
Ionization: ESI
Precursor m/z: 153.01881
Precursor type: [M-H]-
m/z	relative intensity
108.0218	146
109.0297	999
153.0188	344
