Mass spectrum: S-Sulforaphene; LC-ESI-QTOF; MS2; CE:Ramp 5-60 V; [M-H]-
Name: S-Sulforaphene
Name: (-)4-Isothiocyanato-4R-(methylsulfinyl)-1-butene
Name: Raphanin
Name: Sativin
Name: Sulphoraphen
Name: Sulforaphen
Formula: C6H9NOS2
Exact mass: 175.01256
SMILES: S=C=NCCC=CS(C)=O
InChI: InChI=1S/C6H9NOS2/c1-10(8)5-3-2-4-7-6-9/h3,5H,2,4H2,1H3/b5-3+
Instrument: UPLC Q-Tof Premier, Waters
Instrument type: LC-ESI-QTOF
Ms type: MS2
Ion mode: NEGATIVE
Collision energy: Ramp 5-60 V
Fragmentation mode: LOW-ENERGY CID
Ionization: ESI
Precursor m/z: 174.00475
Precursor type: [M-H]-
m/z	relative intensity
110.0065	426
112.9933	496
128.0171	220
143.8969	215
158.9809	999
174.0047	711
