Mass spectrum: Ideain; LC-ESI-QTOF; MS2; CE:Ramp 5-60 V; [M]+
Name: Ideain
Name: Cynd-3-Gal
Name: cyanidin-3-O-galactoside
Name: 3-(Galactosyloxy)-3',4',5,7-tetrahydroxyflavylium
Class: Anthocyanidin
Formula: [C21H21O11]+
Exact mass: 449.10839
SMILES: OCC(O1)C(O)C(O)C(O)C1Oc(c3)c([o+1]c(c4)c(c(O)cc(O)4)3)c(c2)cc(O)c(O)c2
InChI: InChI=1S/C21H20O11/c22-7-16-17(27)18(28)19(29)21(32-16)31-15-6-10-12(25)4-9(23)5-14(10)30-20(15)8-1-2-11(24)13(26)3-8/h1-6,16-19,21-22,27-29H,7H2,(H3-,23,24,25,26)/p+1/t16-,17+,18+,19-,21-/m1/s1
Instrument: UPLC Q-Tof Premier, Waters
Instrument type: LC-ESI-QTOF
Ms type: MS2
Ion mode: POSITIVE
Collision energy: Ramp 5-60 V
Fragmentation mode: LOW-ENERGY CID
Ionization: ESI
Precursor m/z: 449.10836
Precursor type: [M]+
m/z	relative intensity
109.0303	11
137.0255	46
157.0674	13
185.0631	16
213.0573	42
231.0677	12
241.0529	19
287.0568	999
288.0630	18
449.1084	142
