Mass spectrum: Quercetin; LC-ESI-QTOF; MS2; CE:30 eV; [M+H]+
Name: 3,3',4',5,7-pentahydroxyflavone
Name: Quercetin
Name: Quer
Name: 2-(3,4-dihydroxyphenyl)-3,5,7-trihydroxy-chromen-4-one
Class: Natural Product
Formula: C15H10O7
Exact mass: 302.04265
SMILES: Oc(c3)c(O)cc(c3)C(O1)=C(O)C(=O)c(c(O)2)c(cc(O)c2)1
InChI: InChI=1S/C15H10O7/c16-7-4-10(19)12-11(5-7)22-15(14(21)13(12)20)6-1-2-8(17)9(18)3-6/h1-5,16-19,21H
Instrument: UPLC Q-Tof Premier, Waters
Instrument type: LC-ESI-QTOF
Ms type: MS2
Ion mode: POSITIVE
Collision energy: 30 eV
Fragmentation mode: LOW-ENERGY CID
Ionization: ESI
Full scan fragment ion peak: 303.1
Ion type: [M+H]+
m/z	relative intensity
68.9872	118
69.0282	33
81.0260	53
93.0280	44
95.0438	62
105.0294	33
109.0246	181
111.0042	103
115.0511	36
117.0668	57
121.0261	167
123.0413	58
127.0524	90
131.0479	60
135.0430	51
137.0221	579
137.0833	78
145.0277	32
145.0642	102
149.0232	46
153.0177	999
153.0819	112
155.0487	212
159.0434	35
161.0596	73
163.0389	97
165.0184	261
165.0844	32
166.0256	44
173.0598	202
179.0338	56
183.0444	206
187.0394	137
201.0551	431
201.1284	43
211.0400	65
219.0666	34
228.0422	95
229.0500	804
229.1272	69
239.0343	57
245.0452	39
247.0602	38
257.0448	259
274.0472	79
285.0401	99
303.0505	219
