Mass spectrum: DL-2-Aminobutyric acid; LC-ESI-QTOF; MS2; CE:Ramp 5-60 V; [M-H]-
Name: DL-2-Aminobutyric acid
Name: AABA
Name: Abu
Name: DL-2-Amino-n-butyric acid
Name: Butyrine
Name: DL-2-Aminobutanoic acid
Name: DL-alpha-Aminobutanoic acid
Class: Amino acids
Formula: C4H9NO2
Exact mass: 103.06333
SMILES: CCC(N)C(O)=O
InChI: InChI=1S/C4H9NO2/c1-2-3(5)4(6)7/h3H,2,5H2,1H3,(H,6,7)
Instrument: UPLC Q-Tof Premier, Waters
Instrument type: LC-ESI-QTOF
Ms type: MS2
Ion mode: NEGATIVE
Collision energy: Ramp 5-60 V
Fragmentation mode: LOW-ENERGY CID
Ionization: ESI
Precursor m/z: 102.05553
Precursor type: [M-H]-
m/z	relative intensity
102.0555	999
