Mass spectrum: Phosphoenolpyruvic acid; LC-ESI-QTOF; MS2; CE:Ramp 5-60 V; [M-H]-
Name: Phosphoenolpyruvic acid
Name: PEP
Name: Phosphoenolpyruvate
Name: 2-Phosphonooxyprop-2-enoic acid
Name: 2-phosphonatoacrylate
Class: Carboxyalkyl
Formula: C3H5O6P
Exact mass: 167.98237
SMILES: C=C(C(O)=O)OP(O)(O)=O
InChI: InChI=1S/C3H5O6P/c1-2(3(4)5)9-10(6,7)8/h1H2,(H,4,5)(H2,6,7,8)
Instrument: UPLC Q-Tof Premier, Waters
Instrument type: LC-ESI-QTOF
Ms type: MS2
Ion mode: NEGATIVE
Collision energy: Ramp 5-60 V
Fragmentation mode: LOW-ENERGY CID
Ionization: ESI
Precursor m/z: 166.97458
Precursor type: [M-H]-
m/z	relative intensity
78.9339	999
148.9588	97
166.9746	98
