Mass spectrum: 3-Indoleacetonitrile; LC-ESI-QTOF; MS2; CE:30 V; [M+H]+
Name: 3-Indolylacetonitrile
Name: Indole-3-acetonitrile
Name: 3-(Cyanomethyl)indole
Name: 3-Indoleacetonitrile
Class: Indole
Formula: C10H8N2
Exact mass: 156.06875
SMILES: C1=CC=C2C(=C1)C(=CN2)CC#N
InChI: InChI=1S/C10H8N2/c11-6-5-8-7-12-10-4-2-1-3-9(8)10/h1-4,7,12H,5H2
Instrument: UPLC Q-Tof Premier, Waters
Instrument type: LC-ESI-QTOF
Ms type: MS2
Ion mode: POSITIVE
Collision energy: 30 V
Fragmentation mode: LOW-ENERGY CID
Ionization: ESI
Precursor m/z: 157.07657
Precursor type: [M+H]+
m/z	relative intensity
74.9399	181
77.0390	131
78.0451	107
89.0410	334
90.0473	699
102.0443	94
103.0527	118
117.0592	999
128.0480	93
129.0557	165
130.0682	244
155.0666	132
156.0687	225
