Mass spectrum: Allantoin; GC-EI-TOF; MS; 4 TMS; BP:73
Name: Allantoin
Name: Glyoxyldiureide
Name: 5-Ureidohydantoin
Class: Natural Product
Formula: C4H6N4O3
Exact mass: 158.04399
SMILES: NC(=O)N[C@H](N1)C(=O)NC(=O)1
InChI: InChI=1S/C4H6N4O3/c5-3(10)6-1-2(9)8-4(11)7-1/h1H,(H3,5,6,10)(H2,7,8,9,11)/t1-/m1/s1
Instrument: Pegasus III TOF-MS system, Leco; GC 6890, Agilent Technologies
Instrument type: GC-EI-TOF
Ms type: MS
Ion mode: POSITIVE
Retention time: 456.13 sec
Base peak: 73
Derivative form: C16H38N4O3Si4
Derivative mass: 446.2021
Derivative type: 4 TMS
m/z	relative intensity
60	2
61	2
66	1
70	8
71	4
72	40
73	999
74	89
75	47
76	3
77	5
79	3
84	6
85	4
86	6
87	3
98	2
99	7
100	67
101	8
102	5
103	2
113	1
114	3
115	5
116	9
117	5
118	1
119	1
127	2
128	1
129	1
130	12
131	17
132	6
133	10
134	1
141	4
142	1
143	1
144	1
145	1
146	3
147	61
148	10
149	4
155	1
156	1
157	5
158	6
159	2
160	1
161	1
170	1
171	13
172	14
173	7
174	10
175	1
185	1
186	2
187	4
188	119
189	29
190	12
191	2
198	1
199	2
200	1
201	1
202	2
204	2
213	1
214	1
215	2
216	1
231	1
241	1
242	1
243	10
244	2
245	5
246	2
247	1
261	1
273	4
274	1
314	1
315	1
316	1
330	5
331	5
332	4
333	1
356	1
357	3
358	1
388	1
402	1
403	11
404	5
405	2
427	2
428	16
429	8
430	5
431	2
503	3
504	1
505	1
517	4
518	21
519	13
520	7
521	2
522	1
