Mass spectrum: L-(+)-Lysine; CE-ESI-TOF; MS; [M+H]+
Name: L-Lysine
Name: 2,6-Diaminohexanoic acid
Name: Lysine acid
Name: L-(+)-Lysine
Formula: C6H14N2O2
Exact mass: 146.10553
SMILES: NCCCC[C@H](N)C(O)=O
InChI: InChI=1S/C6H14N2O2/c7-4-2-1-3-5(8)6(9)10/h5H,1-4,7-8H2,(H,9,10)/t5-/m0/s1
Instrument: CE-system connected to 6210 Time-of-Flight MS, Agilent
Instrument type: CE-ESI-TOF
Ms type: MS
Ion mode: POSITIVE
Ionization: ESI
Column name: Fused sillica capillary id=50 um L=100 cm (HMT Inc., Tsuruoka, Japan)
Ion type: [M+H]+
m/z	relative intensity
147.1113	999
