Mass spectrum: 2'-Deoxycytidine; LC-ESI-QTOF; MS2; CE:30 V; [M+H]+
Name: 2'-Deoxycytidine
Name: dC
Name: dCYD
Name: 2'-Deoxy-CYD
Name: Cytosine deoxyriboside
Class: Nucleoside
Formula: C9H13N3O4
Exact mass: 227.09061
SMILES: OC[C@@H](O1)[C@@H](O)C[C@@H]1N(C=2)C(=O)N=C(N)C2
InChI: InChI=1S/C9H13N3O4/c10-7-1-2-12(9(15)11-7)8-3-5(14)6(4-13)16-8/h1-2,5-6,8,13-14H,3-4H2,(H2,10,11,15)/t5-,6+,8+/m0/s1
Instrument: UPLC Q-Tof Premier, Waters
Instrument type: LC-ESI-QTOF
Ms type: MS2
Ion mode: POSITIVE
Collision energy: 30 V
Fragmentation mode: LOW-ENERGY CID
Ionization: ESI
Precursor m/z: 228.0984
Precursor type: [M+H]+
m/z	relative intensity
112.0536	999
117.0582	258
228.0984	504
