Mass spectrum: L-Carnitine; LC-ESI-QTOF; MS2; CE:Ramp 5-60 V; [M+H]+
Name: L-Carnitine
Name: Vitamin BT
Name: (-)-beta-Hydroxy-gamma-(trimethylammonio)butyrate
Name: Levocarnitine
Name: L-gamma-Trimethyl-beta-hydroxybutyrobetaine
Class: Carnitine
Formula: C7H15NO3
Exact mass: 161.10519
SMILES: [O-1]C(=O)C[C@H](O)C[N+1](C)(C)C
InChI: InChI=1S/C7H15NO3/c1-8(2,3)5-6(9)4-7(10)11/h6,9H,4-5H2,1-3H3/t6-/m1/s1
Instrument: UPLC Q-Tof Premier, Waters
Instrument type: LC-ESI-QTOF
Ms type: MS2
Ion mode: POSITIVE
Collision energy: Ramp 5-60 V
Fragmentation mode: LOW-ENERGY CID
Ionization: ESI
Precursor m/z: 162.11299
Precursor type: [M+H]+
m/z	relative intensity
60.0828	129
85.0305	258
102.0939	203
103.0411	470
162.1130	999
