Mass spectrum: Mesaconic acid; GC-EI-TOF; MS; 2 TMS; BP:73
Name: Mesaconic acid
Name: Mesaconate
Name: Methylfumaric acid
Name: 2-Methylfumarate
Class: Natural Product
Formula: C5H6O4
Exact mass: 130.02661
SMILES: OC(=O)C=C(C)C(O)=O
InChI: InChI=1S/C5H6O4/c1-3(5(8)9)2-4(6)7/h2H,1H3,(H,6,7)(H,8,9)/b3-2+
Instrument: Pegasus III TOF-MS system, Leco; GC 6890, Agilent Technologies
Instrument type: GC-EI-TOF
Ms type: MS
Ion mode: POSITIVE
Retention time: 373.617 sec
Base peak: 73
Derivative form: C11H22O4Si2
Derivative mass: 274.10566
Derivative type: 2 TMS
m/z	relative intensity
60	17
61	48
62	4
63	3
64	1
65	3
66	34
67	145
68	5
69	12
70	9
71	14
72	29
73	999
74	102
75	313
76	30
77	36
78	3
79	8
80	1
81	7
82	10
83	42
84	7
85	10
86	1
87	6
88	1
89	5
92	1
93	1
94	1
95	7
96	8
97	117
98	32
99	26
100	4
101	4
102	2
103	8
104	1
105	3
111	3
112	22
113	14
114	2
115	9
116	2
117	15
118	2
119	4
122	29
123	2
125	4
126	1
127	9
128	1
129	2
131	11
132	3
133	44
134	6
135	4
140	8
141	45
142	10
143	5
144	1
145	1
147	429
148	69
149	50
150	6
151	2
155	2
156	12
157	19
158	3
159	2
163	3
169	15
170	2
171	5
172	1
173	1
184	244
185	40
186	12
187	2
199	2
215	3
229	1
231	11
232	3
233	1
258	1
259	145
260	31
261	13
262	2
274	2
