Mass spectrum: Aniline; LC-ESI-QTOF; MS2; CE:Ramp 5-60 V; [M+H]+
Name: Aniline
Name: Benzeneamine
Name: phenylamine
Name: Aminophen
Name: kyanol
Name: Arylamine
Name: Benzamine
Name: Aminobenzene
Name: Anyvim
Name: Benzidam
Name: Krystallin
Class: Amine
Formula: C6H7N
Exact mass: 93.05785
SMILES: Nc(c1)cccc1
InChI: InChI=1S/C6H7N/c7-6-4-2-1-3-5-6/h1-5H,7H2
Instrument: UPLC Q-Tof Premier, Waters
Instrument type: LC-ESI-QTOF
Ms type: MS2
Ion mode: POSITIVE
Collision energy: Ramp 5-60 V
Fragmentation mode: LOW-ENERGY CID
Ionization: ESI
Precursor m/z: 94.06565
Precursor type: [M+H]+
m/z	relative intensity
94.0349	21
94.0657	999
