Mass spectrum: L-beta-Homotyrosine; LC-ESI-QTOF; MS2; CE:Ramp 5-60 V; [M+H]+
Name: L-beta-Homotyrosine
Name: (S)-3-Amino-4-(4-hydroxyphenyl)butyric acid
Class: Amino acids
Formula: C10H13NO3
Exact mass: 195.08954
SMILES: OC(=O)CC(N)Cc(c1)ccc(O)c1
InChI: InChI=1S/C10H13NO3/c11-8(6-10(13)14)5-7-1-3-9(12)4-2-7/h1-4,8,12H,5-6,11H2,(H,13,14)/t8-/m1/s1
Instrument: UPLC Q-Tof Premier, Waters
Instrument type: LC-ESI-QTOF
Ms type: MS2
Ion mode: POSITIVE
Collision energy: Ramp 5-60 V
Fragmentation mode: LOW-ENERGY CID
Ionization: ESI
Precursor m/z: 196.09734
Precursor type: [M+H]+
m/z	relative intensity
91.0552	325
105.0710	379
119.0508	147
133.0658	999
136.0770	573
161.0612	156
179.0707	453
196.0973	181
