Mass spectrum: Cerulenin; LC-ESI-QTOF; MS2; CE:Ramp 5-60 V; [M+H]+
Name: Cerulenin
Name: Helicocerin
Name: (2R,3S,E,E)-2,3-Epoxy-4-oxo-7,10-dodecadienamide
Formula: C12H17NO3
Exact mass: 223.12084
SMILES: CC=CCC=CCCC(=O)[C@@H](O1)[C@H](C(N)=O)1
InChI: InChI=1S/C12H17NO3/c1-2-3-4-5-6-7-8-9(14)10-11(16-10)12(13)15/h2-3,5-6,10-11H,4,7-8H2,1H3,(H2,13,15)/b3-2+,6-5+/t10-,11-/m1/s1
Instrument: UPLC Q-Tof Premier, Waters
Instrument type: LC-ESI-QTOF
Ms type: MS2
Ion mode: POSITIVE
Collision energy: Ramp 5-60 V
Fragmentation mode: LOW-ENERGY CID
Ionization: ESI
Precursor m/z: 224.12864
Precursor type: [M+H]+
m/z	relative intensity
192.0581	445
207.0937	156
208.0936	999
224.1286	196
