Mass spectrum: 5-Aminopentanoic acid; LC-ESI-QTOF; MS2; CE:Ramp 5-60 V; [M+H]+
Name: 5-Aminovaleric acid
Name: 5-Aminopentanoate
Name: delta-Aminovalerate
Name: 5-Aminopentanoic acid
Name: Homopiperidinic acid
Class: Amino acids
Formula: C5H11NO2
Exact mass: 117.07898
SMILES: NCCCCC(O)=O
InChI: InChI=1S/C5H11NO2/c6-4-2-1-3-5(7)8/h1-4,6H2,(H,7,8)
Instrument: UPLC Q-Tof Premier, Waters
Instrument type: LC-ESI-QTOF
Ms type: MS2
Ion mode: POSITIVE
Collision energy: Ramp 5-60 V
Fragmentation mode: LOW-ENERGY CID
Ionization: ESI
Precursor m/z: 118.08677
Precursor type: [M+H]+
m/z	relative intensity
55.0554	142
56.0512	59
83.0498	79
100.0764	345
101.0600	999
118.0868	271
