Mass spectrum: Pyridoxine; GC-EI-TOF; MS; 3 TMS; BP:73
Name: Pyridoxine
Name: Pyridoxol
Class: Natural Product
Formula: C8H11NO3
Exact mass: 169.07389
SMILES: OCc(c1)c(CO)c(O)c(C)n1
InChI: InChI=1S/C8H11NO3/c1-5-8(12)7(4-11)6(3-10)2-9-5/h2,10-12H,3-4H2,1H3
Instrument: Pegasus III TOF-MS system, Leco; GC 6890, Agilent Technologies
Instrument type: GC-EI-TOF
Ms type: MS
Ion mode: POSITIVE
Retention time: 493.177 sec
Base peak: 73
Derivative form: C17H35NO3Si3
Derivative mass: 385.19247
Derivative type: 3 TMS
m/z	relative intensity
60	6
61	13
62	2
63	6
64	2
65	16
66	8
67	4
69	1
70	5
71	5
72	13
73	999
74	89
75	94
76	9
77	30
78	9
79	26
80	4
81	2
82	1
83	8
84	3
85	4
86	1
87	3
88	1
89	5
90	2
91	10
92	3
93	3
94	2
95	3
96	1
97	4
98	2
99	2
100	1
101	1
102	1
103	11
104	5
105	8
106	33
107	5
108	1
109	3
110	1
111	3
113	1
115	6
116	2
117	8
118	5
119	6
120	6
121	3
122	2
123	3
124	1
125	1
130	4
131	18
132	6
133	37
134	17
135	7
136	4
137	2
138	1
139	1
143	1
144	1
145	1
146	2
147	108
148	22
149	13
150	6
151	3
152	1
157	1
160	1
161	1
162	4
163	2
164	9
165	4
166	4
167	1
174	1
175	1
176	5
177	2
178	8
179	6
180	7
181	4
182	1
188	1
189	1
190	6
191	3
192	17
193	5
194	7
195	2
196	1
204	2
205	2
206	15
207	12
208	13
209	3
210	1
220	2
221	4
222	20
223	4
224	2
236	1
238	2
239	1
240	1
250	4
251	1
252	14
253	5
254	3
264	3
265	3
266	4
267	2
268	1
278	1
279	4
280	249
281	69
282	32
283	6
284	1
294	3
295	75
296	22
297	11
298	2
327	1
370	7
371	2
372	1
