Mass spectrum: 3,5-Dimethoxycinnamic acid; LC-ESI-QTOF; MS2; CE:Ramp 5-60 V; [M+H]+
Name: 3,5-Dimethoxycinnamic acid
Name: 3,5-Dimethoxyphenyl-2-propenoic acid
Name: 3,5-Dimethoxycinnamic acid (predominantly trans)
Class: Carboxylic acids
Formula: C11H12O4
Exact mass: 208.07356
SMILES: COc(c1)cc(C=CC(O)=O)cc(OC)1
InChI: InChI=1S/C11H12O4/c1-14-9-5-8(3-4-11(12)13)6-10(7-9)15-2/h3-7H,1-2H3,(H,12,13)
Instrument: UPLC Q-Tof Premier, Waters
Instrument type: LC-ESI-QTOF
Ms type: MS2
Ion mode: POSITIVE
Collision energy: Ramp 5-60 V
Fragmentation mode: LOW-ENERGY CID
Ionization: ESI
Precursor m/z: 209.08136
Precursor type: [M+H]+
m/z	relative intensity
90.5288	210
99.5369	999
100.5356	512
111.0466	816
112.0438	285
117.0258	163
135.0419	126
135.9047	161
138.0024	137
191.0589	384
193.0328	681
209.0814	377
