Mass spectrum: Myricetin; LC-ESI-QTOF; MS2; CE:Ramp 5-60 eV; [M-H]-
Name: 3,3',4',5,5',7-hexahydroxyflavone
Name: Myricetin
Name: Myrc
Name: 3,5,7-trihydroxy-2-(3,4,5-trihydroxyphenyl)chromen-4-one
Class: Natural Product
Formula: C15H10O8
Exact mass: 318.03757
SMILES: Oc(c3)cc(O1)c(c(O)3)C(=O)C(O)=C1c(c2)cc(O)c(O)c(O)2
InChI: InChI=1S/C15H10O8/c16-6-3-7(17)11-10(4-6)23-15(14(22)13(11)21)5-1-8(18)12(20)9(19)2-5/h1-4,16-20,22H
Instrument: UPLC Q-Tof Premier, Waters
Instrument type: LC-ESI-QTOF
Ms type: MS2
Ion mode: NEGATIVE
Collision energy: Ramp 5-60 eV
Fragmentation mode: LOW-ENERGY CID
Ionization: ESI
Full scan fragment ion peak: 317
Ion type: [M-H]-
m/z	relative intensity
63.0217	14
65.0010	28
81.0332	14
83.0126	38
107.0133	109
109.0290	152
125.0244	14
137.0243	282
151.0035	388
152.0087	11
163.0039	11
165.0193	29
178.9984	254
192.0064	19
193.0142	15
227.0356	10
271.0251	26
317.0298	999
317.3016	18
317.9336	13
318.0334	42
