Mass spectrum: DL-alpha,epsilon-Diaminopimelic acid; LC-ESI-QTOF; MS2; CE:30 V; [M+H]+
Name: DL-alpha,epsilon-Diaminopimelic acid
Name: DL-Dapm
Name: M-DAP
Name: DL-2,6-Diaminoheptanedioic acid
Name: DL-2,6-Diaminopimelate
Class: Amino acids
Formula: C7H14N2O4
Exact mass: 190.09536
SMILES: OC(=O)C(N)CCCC(N)C(O)=O
InChI: InChI=1S/C7H14N2O4/c8-4(6(10)11)2-1-3-5(9)7(12)13/h4-5H,1-3,8-9H2,(H,10,11)(H,12,13)
Instrument: UPLC Q-Tof Premier, Waters
Instrument type: LC-ESI-QTOF
Ms type: MS2
Ion mode: POSITIVE
Collision energy: 30 V
Fragmentation mode: LOW-ENERGY CID
Ionization: ESI
Precursor m/z: 191.10315
Precursor type: [M+H]+
m/z	relative intensity
82.0671	132
128.0731	530
191.1031	999
