Mass spectrum: E-3,4,5'-Trihydroxy-3'-glucopyranosylstilbene; LC-ESI-QTOF; MS2; CE:Ramp 5-60 V; [M-H]-
Name: E-3,4,5'-Trihydroxy-3'-glucopyranosylstilbene
Name: E-Astringin
Class: Stilbene
Formula: C20H22O9
Exact mass: 406.12638
SMILES: OC[C@@H](O1)[C@@H](O)[C@H](O)[C@@H](O)[C@H](Oc(c2)cc(C=Cc(c3)cc(O)c(O)c3)cc(O)2)1
InChI: InChI=1S/C20H22O9/c21-9-16-17(25)18(26)19(27)20(29-16)28-13-6-11(5-12(22)8-13)2-1-10-3-4-14(23)15(24)7-10/h1-8,16-27H,9H2/b2-1+/t16-,17-,18+,19-,20-/m1/s1
Instrument: UPLC Q-Tof Premier, Waters
Instrument type: LC-ESI-QTOF
Ms type: MS2
Ion mode: NEGATIVE
Collision energy: Ramp 5-60 V
Fragmentation mode: LOW-ENERGY CID
Ionization: ESI
Precursor m/z: 405
Precursor type: [M-H]-
m/z	relative intensity
159.0434	161
201.0559	125
241.0499	457
242.0522	303
243.0645	999
405.1158	212
