Mass spectrum: Caffeic acid; GC-EI-TOF; MS; 3 TMS; BP:73
Name: Caffeic acid
Name: 3,4-Dihydroxycinnamic acid
Name: Caffeate
Name: cis-Caffeic acid
Class: Natural Product
Formula: C9H8O4
Exact mass: 180.04226
SMILES: C1=CC(=C(C=C1/C=C\C(=O)O)O)O
InChI: InChI=1S/C9H8O4/c10-7-3-1-6(5-8(7)11)2-4-9(12)13/h1-5,10-11H,(H,12,13)/b4-2-
Instrument: Pegasus III TOF-MS system, Leco; GC 6890, Agilent Technologies
Instrument type: GC-EI-TOF
Ms type: MS
Ion mode: POSITIVE
Retention time: 502.132 sec
Base peak: 73
Derivative form: C18H32O4Si3
Derivative mass: 396.16084
Derivative type: 3 TMS
m/z	relative intensity
60	3
61	9
62	3
63	8
64	1
65	1
66	2
67	1
70	4
71	3
72	14
73	999
74	74
75	90
76	9
77	24
78	3
79	11
81	1
83	7
84	1
85	2
88	9
89	25
90	2
91	5
92	1
93	2
95	1
99	1
101	2
102	6
103	10
104	3
105	8
106	1
107	3
109	3
113	1
115	25
116	7
117	28
118	3
119	7
120	1
121	3
127	2
128	4
129	8
130	2
131	17
132	3
133	20
134	3
135	18
136	3
137	6
138	1
139	1
141	2
142	1
143	3
144	1
145	6
146	1
147	30
148	7
149	6
150	1
151	1
157	1
159	3
160	10
161	11
162	2
163	14
164	3
165	2
171	1
173	3
174	1
175	15
176	3
177	4
178	1
179	7
180	1
181	1
185	1
187	1
188	1
189	8
190	8
191	82
192	23
193	8
194	1
195	2
201	1
203	9
204	3
205	6
206	2
207	2
209	1
216	1
217	3
218	4
219	471
220	84
221	27
222	3
223	4
224	1
231	1
233	12
234	3
235	1
247	2
248	1
249	35
250	9
251	4
263	2
264	1
265	2
266	1
267	6
268	1
277	1
278	1
279	2
280	4
281	1
291	3
292	4
293	17
294	5
295	2
306	1
307	19
308	7
309	2
323	1
337	1
380	2
381	37
382	15
383	7
384	1
395	10
396	110
397	41
398	19
399	4
400	1
