Mass spectrum: Uridine; GC-EI-TOF; MS; 3 TMS; BP:73
Name: Uridine
Class: Natural Product
Formula: C9H12N2O6
Exact mass: 244.06954
SMILES: OC[C@@H](O1)[C@@H](O)[C@@H](O)[C@@H]1N(C=2)C(=O)NC(=O)C2
InChI: InChI=1S/C9H12N2O6/c12-3-4-6(14)7(15)8(17-4)11-2-1-5(13)10-9(11)16/h1-2,4,6-8,12,14-15H,3H2,(H,10,13,16)/t4-,6-,7-,8-/m1/s1
Instrument: Pegasus III TOF-MS system, Leco; GC 6890, Agilent Technologies
Instrument type: GC-EI-TOF
Ms type: MS
Ion mode: POSITIVE
Retention time: 562.786 sec
Base peak: 73
Derivative form: C18H36N2O6Si3
Derivative mass: 460.18812
Derivative type: 3 TMS
m/z	relative intensity
60	7
61	14
62	1
63	5
65	2
66	5
67	6
68	2
69	16
70	14
71	7
72	24
73	999
74	79
75	221
76	17
77	60
79	3
80	2
81	9
82	3
83	7
84	11
85	11
86	5
87	6
88	3
89	14
90	3
91	1
92	5
93	4
94	4
95	6
97	7
99	38
100	12
101	28
102	7
103	141
104	10
105	6
108	2
109	3
110	2
111	4
112	4
113	14
114	3
115	25
116	11
117	24
118	5
119	7
120	1
125	2
126	4
127	8
128	1
129	58
130	6
131	25
132	4
133	42
134	3
135	3
137	3
138	2
139	3
140	3
141	1
142	4
143	19
144	1
145	7
147	140
148	32
149	24
150	3
153	10
154	4
155	3
156	3
157	10
158	1
160	1
163	1
164	3
166	4
168	7
169	78
170	14
171	8
173	3
174	3
175	4
177	3
179	1
183	4
184	1
185	18
186	2
187	2
189	9
190	1
191	23
192	1
193	3
195	1
199	1
201	1
203	4
204	4
205	4
210	3
211	6
213	8
214	4
215	9
216	2
217	215
218	47
219	18
220	8
221	12
222	3
227	2
229	3
230	11
231	6
232	2
236	1
243	27
244	5
245	21
246	2
255	1
256	3
257	2
258	1
259	39
260	9
261	2
265	7
267	5
269	1
271	1
272	1
279	2
281	5
282	2
296	2
299	1
300	2
310	1
315	2
325	2
327	2
329	3
334	1
337	1
348	3
353	1
355	7
357	3
368	2
377	1
383	1
391	2
393	3
400	2
402	1
404	1
408	1
415	1
427	1
432	1
441	1
448	1
458	2
467	1
502	1
504	1
506	1
507	1
519	1
520	1
540	1
543	1
567	1
592	1
595	1
598	2
603	1
626	1
654	1
663	2
666	1
673	1
677	1
681	1
689	1
691	2
698	1
699	1
706	3
726	2
776	2
