Mass spectrum: trans-4-Hydroxy-3-methoxycinnamate; GC-EI-TOF; MS; 2 TMS; BP:73
Name: trans-4-Hydroxy-3-methoxycinnamate
Name: 4-Hydroxy-3-methoxycinnamic acid
Name: Ferulate
Name: 3-Methoxy-4-hydroxy-trans-cinnamate
Name: Ferulic acid
Class: Natural Product
Formula: C10H10O4
Exact mass: 194.05791
SMILES: COc(c1)c(O)ccc(C=CC(O)=O)1
InChI: InChI=1S/C10H10O4/c1-14-9-6-7(2-4-8(9)11)3-5-10(12)13/h2-6,11H,1H3,(H,12,13)/b5-3+
Instrument: Pegasus III TOF-MS system, Leco; GC 6890, Agilent Technologies
Instrument type: GC-EI-TOF
Ms type: MS
Ion mode: POSITIVE
Retention time: 500.548 sec
Base peak: 73
Derivative form: C16H26O4Si2
Derivative mass: 338.13696
Derivative type: 2 TMS
m/z	relative intensity
60	15
61	32
62	12
63	33
64	5
65	8
66	3
67	5
69	3
70	7
71	7
72	24
73	999
74	95
75	216
76	33
77	72
78	11
79	23
80	3
81	3
82	2
83	14
84	3
85	7
86	2
87	6
88	41
89	127
90	17
91	28
92	6
93	6
94	2
95	5
96	1
97	2
98	2
99	5
100	2
101	10
102	43
103	26
104	10
105	19
106	3
107	8
108	2
109	7
110	3
111	3
113	2
114	2
115	55
116	22
117	77
118	25
119	22
120	5
121	6
122	3
123	2
124	3
125	8
126	1
127	4
128	7
129	12
130	10
131	22
132	7
133	29
134	5
135	32
136	6
137	13
138	2
139	52
140	6
141	2
142	6
143	10
144	4
145	70
146	23
147	74
148	21
149	17
150	6
151	5
152	1
153	1
154	45
155	5
157	2
158	3
159	10
160	42
161	35
162	8
163	20
164	5
165	6
166	6
167	1
171	2
172	1
173	12
174	7
175	69
176	16
177	13
178	5
179	63
180	11
181	5
182	1
185	2
186	1
187	5
188	6
189	19
190	45
191	74
192	40
193	12
194	3
195	2
201	3
202	2
203	43
204	23
205	25
206	8
207	10
208	2
209	30
210	5
211	1
216	2
217	7
218	44
219	102
220	26
221	21
222	10
223	7
224	2
231	3
232	6
233	23
234	7
235	5
236	4
237	1
247	5
248	4
249	199
250	50
251	18
252	3
253	3
254	1
263	9
264	12
265	11
266	4
267	1
277	1
278	1
279	53
280	19
281	8
282	2
292	2
293	143
294	54
295	20
296	4
297	1
298	1
299	1
300	1
301	1
302	1
303	1
304	2
305	1
306	1
307	9
308	190
309	65
310	25
311	5
312	1
315	1
316	1
317	1
318	1
319	1
322	4
323	186
324	58
325	23
326	4
329	1
330	1
331	1
332	1
333	1
334	1
337	10
338	231
339	66
340	26
341	5
342	1
