Mass spectrum: Quercetin 3-(6-O-acetyl-beta-glucoside); LC-ESI-QTOF; MS2; CE:Ramp 5-60 V; [M-H]-
Name: Quercetin-3-O-glucose-6''-acetate
Name: Quercetin 3-(6''-acetylglucoside)
Name: Quercetin 3-(6-O-acetyl-beta-glucoside)
Class: Natural Product
Formula: C23H22O13
Exact mass: 506.10604
SMILES: CC(=O)OCC(O1)C(O)C(O)C(O)C1OC(C(=O)3)=C(Oc(c4)c(c(O)cc(O)4)3)c(c2)cc(O)c(O)c2
InChI: InChI=1S/C23H22O13/c1-8(24)33-7-15-17(29)19(31)20(32)23(35-15)36-22-18(30)16-13(28)5-10(25)6-14(16)34-21(22)9-2-3-11(26)12(27)4-9/h2-6,15,17,19-20,23,25-29,31-32H,7H2,1H3/t15-,17-,19+,20-,23+/m1/s1
Instrument: UPLC Q-Tof Premier, Waters
Instrument type: LC-ESI-QTOF
Ms type: MS2
Ion mode: NEGATIVE
Collision energy: Ramp 5-60 V
Fragmentation mode: LOW-ENERGY CID
Ionization: ESI
Full scan fragment ion peak: 505.1
Ion type: [M-H]-
m/z	relative intensity
107.0130	11
108.0215	13
148.0167	12
151.0032	53
163.0031	15
178.9977	26
199.0396	18
211.0395	12
215.0339	11
226.0265	17
227.0343	36
243.0294	110
254.0201	18
255.0291	202
271.0240	473
272.0298	32
299.0187	12
300.0269	750
301.0343	308
302.0355	15
463.0892	21
505.0982	999
506.1018	62
