Mass spectrum: D-(+)-Glucosamine; LC-ESI-QTOF; MS2; CE:Ramp 5-60 V; [M+H]+
Name: D-(+)-Glucosamine
Name: GlcN
Name: 2-Amino-2-deoxy-D-glucose
Name: Chitosamine
Name: Cosamin
Class: Monosaccharide
Formula: C6H13NO5
Exact mass: 179.07937
SMILES: OCC(O1)C(O)C(O)C(N)C(O)1
InChI: InChI=1S/C6H13NO5/c7-3-5(10)4(9)2(1-8)12-6(3)11/h2-6,8-11H,1,7H2/t2-,3-,4-,5-,6-/m1/s1
Instrument: UPLC Q-Tof Premier, Waters
Instrument type: LC-ESI-QTOF
Ms type: MS2
Ion mode: POSITIVE
Collision energy: Ramp 5-60 V
Fragmentation mode: LOW-ENERGY CID
Ionization: ESI
Precursor m/z: 180.08717
Precursor type: [M+H]+
m/z	relative intensity
162.0775	147
180.0872	999
