Mass spectrum: L-Leucine; GC-EI-TOF; MS; 2 TMS; BP:73
Name: L-Leucine
Name: 2-Amino-4-methylvaleric acid
Name: (2S)-alpha-Leucine
Name: (2S)-alpha-2-Amino-4-methylvaleric acid
Class: Natural Product
Formula: C6H13NO2
Exact mass: 131.09463
SMILES: CC(C)C[C@H](N)C(O)=O
InChI: InChI=1S/C6H13NO2/c1-4(2)3-5(7)6(8)9/h4-5H,3,7H2,1-2H3,(H,8,9)/t5-/m0/s1
Instrument: Pegasus III TOF-MS system, Leco; GC 6890, Agilent Technologies
Instrument type: GC-EI-TOF
Ms type: MS
Ion mode: POSITIVE
Retention time: 304.329 sec
Base peak: 73
Derivative form: C12H29NO2Si2
Derivative mass: 275.17368
Derivative type: 2 TMS
m/z	relative intensity
60	21
61	19
62	1
63	1
66	7
67	3
69	3
70	16
71	7
72	24
73	999
74	104
75	86
76	8
77	13
78	1
79	1
80	1
81	1
82	3
83	2
84	12
85	5
86	30
87	6
88	3
89	2
93	1
94	1
95	1
96	4
97	2
98	4
99	8
100	94
101	16
102	208
103	40
104	9
105	5
110	1
112	2
113	2
114	5
115	29
116	43
117	18
118	4
119	5
126	2
128	19
129	7
130	30
131	17
132	17
133	33
134	7
135	3
142	15
143	4
144	3
145	1
146	3
147	104
148	16
149	8
156	2
157	2
158	824
159	132
160	41
161	3
163	1
170	9
171	2
172	1
174	4
175	1
176	2
177	3
186	1
188	1
203	2
204	1
216	1
218	32
219	8
220	3
231	2
232	40
233	11
234	4
260	14
261	3
262	1
