Mass spectrum: Kaempferide; LC-ESI-QTOF; MS2; CE:30 eV; [M+H]+
Name: 3,5,7-trihydroxy-4'-methoxyflavone
Name: Kaempferide
Name: Kaer
Name: 3,5,7-trihydroxy-2-(4-methoxyphenyl)chromen-4-one
Class: Natural Product
Formula: C16H12O6
Exact mass: 300.06339
SMILES: COc(c3)ccc(c3)C(O1)=C(O)C(=O)c(c(O)2)c(cc(O)c2)1
InChI: InChI=1S/C16H12O6/c1-21-10-4-2-8(3-5-10)16-15(20)14(19)13-11(18)6-9(17)7-12(13)22-16/h2-7,17-18,20H,1H3
Instrument: UPLC Q-Tof Premier, Waters
Instrument type: LC-ESI-QTOF
Ms type: MS2
Ion mode: POSITIVE
Collision energy: 30 eV
Fragmentation mode: LOW-ENERGY CID
Ionization: ESI
Full scan fragment ion peak: 301.1
Ion type: [M+H]+
m/z	relative intensity
106.0374	76
107.0453	78
109.0250	31
121.0625	49
124.0133	50
135.0428	183
137.0220	81
139.0379	142
152.0098	103
153.0176	554
153.0806	57
160.0151	41
161.0599	57
165.0182	144
184.0527	79
185.0607	49
187.0390	33
201.0549	213
202.0631	81
212.0476	105
213.0551	134
229.0501	839
229.1262	63
230.0577	999
230.1340	81
231.0613	39
241.0499	35
243.0302	40
257.0448	216
258.0526	748
258.1336	53
259.0566	33
269.0450	153
272.0687	43
285.0392	65
286.0475	246
301.0712	242
