Mass spectrum: Daidzein; LC-ESI-QTOF; MS2; CE:Ramp 5-60 eV; [M+H]+
Name: 4',7-dihydroxyisoflavone
Name: Daidzein
Name: Ddze
Name: 7-hydroxy-3-(4-hydroxyphenyl)chromen-4-one
Class: Natural Product
Formula: C15H10O4
Exact mass: 254.05791
SMILES: Oc(c3)ccc(c3)C(=C1)C(=O)c(c2)c(cc(O)c2)O1
InChI: InChI=1S/C15H10O4/c16-10-3-1-9(2-4-10)13-8-19-14-7-11(17)5-6-12(14)15(13)18/h1-8,16-17H
Instrument: UPLC Q-Tof Premier, Waters
Instrument type: LC-ESI-QTOF
Ms type: MS2
Ion mode: POSITIVE
Collision energy: Ramp 5-60 eV
Fragmentation mode: LOW-ENERGY CID
Ionization: ESI
Full scan fragment ion peak: 255.1
Ion type: [M+H]+
m/z	relative intensity
65.0278	14
81.0263	15
91.0486	68
119.0466	14
127.0528	11
128.0605	35
129.0684	14
131.0477	10
137.0223	97
145.0287	14
151.0536	11
152.0621	70
153.0696	51
157.0652	17
171.0810	16
181.0655	87
184.0531	11
197.0604	14
199.0762	122
227.0717	55
237.0560	27
255.0657	999
255.1463	59
256.0700	32
