Mass spectrum: Apigenin; LC-ESI-QTOF; MS2; CE:Ramp 5-60 V; [M+H]+
Name: Apigenin
Name: Apig
Name: 4',5,7-trihydroxyflavone
Name: Apigenol
Name: Chamomile
Name: 5,7-Dihydroxy-2-(4-hydroxyphenyl)-4-benzopyrone
Name: Naringenin Chalcone
Class: Flavonoid
Formula: C15H10O5
Exact mass: 270.05282
SMILES: Oc(c3)ccc(c3)C(=C1)Oc(c2)c(c(O)cc(O)2)C(=O)1
InChI: InChI=1S/C15H10O5/c16-9-3-1-8(2-4-9)13-7-12(19)15-11(18)5-10(17)6-14(15)20-13/h1-7,16-18H
Instrument: UPLC Q-Tof Premier, Waters
Instrument type: LC-ESI-QTOF
Ms type: MS2
Ion mode: POSITIVE
Collision energy: Ramp 5-60 V
Fragmentation mode: LOW-ENERGY CID
Ionization: ESI
Precursor m/z: 271.06062
Precursor type: [M+H]+
m/z	relative intensity
91.0555	63
119.0497	76
153.0195	174
271.0606	999
