Mass spectrum: Capsaicin; LC-ESI-QTOF; MS2; CE:Ramp 5-60 V; [M+H]+
Name: Capsaicin
Name: (6E)-N-[(4-Hydroxy-3-methoxyphenyl)methyl]-8-methyl-6-nonenamide
Name: E-Capsaicin
Class: Capsaicinoids
Formula: C18H27NO3
Exact mass: 305.199094
SMILES: CC(C)/C=C/CCCCC(=O)NCC1=CC(=C(C=C1)O)OC
InChI: InChI=1S/C18H27NO3/c1-14(2)8-6-4-5-7-9-18(21)19-13-15-10-11-16(20)17(12-15)22-3/h6,8,10-12,14,20H,4-5,7,9,13H2,1-3H3,(H,19,21)/b8-6+
Instrument: UPLC Q-Tof Premier, Waters
Instrument type: LC-ESI-QTOF
Ms type: MS2
Ion mode: POSITIVE
Collision energy: Ramp 5-60 V
Fragmentation mode: LOW-ENERGY CID
Ionization: ESI
Precursor m/z: 306.20688
Precursor type: [M+H]+
m/z	relative intensity
94.0414	94
122.0368	133
137.0599	999
170.1562	20
182.1551	34
306.2069	52
