Mass spectrum: Guanine; LC-ESI-QTOF; MS2; CE:Ramp 5-60 V; [M+H]+
Name: Guanine
Name: 2-Amino-6-hydroxypurine
Name: 2-Amino-6-oxypurine
Name: 2-Aminohypoxanthine
Name: Guanine enol
Name: 6-Hydroxy-2-aminopurine
Class: Guanine
Formula: C5H5N5O
Exact mass: 151.04941
SMILES: C1=NC2=C(N1)C(=O)N=C(N2)N
InChI: InChI=1S/C5H5N5O/c6-5-9-3-2(4(11)10-5)7-1-8-3/h1H,(H4,6,7,8,9,10,11)
Instrument: UPLC Q-Tof Premier, Waters
Instrument type: LC-ESI-QTOF
Ms type: MS2
Ion mode: POSITIVE
Collision energy: Ramp 5-60 V
Fragmentation mode: LOW-ENERGY CID
Ionization: ESI
Precursor m/z: 152.05721
Precursor type: [M+H]+
m/z	relative intensity
111.0206	120
131.5321	107
152.0572	999
