Mass spectrum: beta-Alanine; LC-ESI-QTOF; MS2; CE:Ramp 5-60 V; [M+H]+
Name: beta-Alanine
Name: beta-Ala
Name: 3-Aminopropanoate
Name: 3-Aminopropionic acid
Name: beta-Aminopropanoic Acid
Class: Amino acids
Formula: C3H7NO2
Exact mass: 89.04768
SMILES: NCCC(O)=O
InChI: InChI=1S/C3H7NO2/c4-2-1-3(5)6/h1-2,4H2,(H,5,6)
Instrument: UPLC Q-Tof Premier, Waters
Instrument type: LC-ESI-QTOF
Ms type: MS2
Ion mode: POSITIVE
Collision energy: Ramp 5-60 V
Fragmentation mode: LOW-ENERGY CID
Ionization: ESI
Precursor m/z: 90.05548
Precursor type: [M+H]+
m/z	relative intensity
90.0555	999
99.5073	144
111.0144	95
