Mass spectrum: 4-Methylumbelliferone; GC-EI-TOF; MS; BP:233
Name: 7-Hydroxy-4-methylcoumarin
Name: Hymecromone
Name: 4-Methylumbelliferone
Class: Natural Product
Formula: C10H8O3
Exact mass: 176.04734
SMILES: Oc(c2)cc(O1)c(c2)C(C)=CC(=O)1
InChI: InChI=1S/C10H8O3/c1-6-4-10(12)13-9-5-7(11)2-3-8(6)9/h2-5,11H,1H3
Instrument: Pegasus III TOF-MS system, Leco; GC 6890, Agilent Technologies
Instrument type: GC-EI-TOF
Ms type: MS
Ion mode: POSITIVE
Retention time: 484.971 sec
Base peak: 233
m/z	relative intensity
60	18
61	64
62	77
63	179
64	37
65	181
66	32
67	112
68	2
69	43
70	15
71	22
72	25
73	915
74	144
75	256
76	108
77	456
78	64
79	105
80	12
81	18
82	9
83	45
84	7
85	37
86	18
87	118
88	146
89	82
90	29
91	204
92	25
93	38
94	22
95	59
96	8
97	13
98	10
99	59
100	9
101	40
102	591
103	308
104	30
105	46
106	8
107	21
108	4
109	26
110	5
111	8
112	1
113	5
114	4
115	124
116	25
117	49
118	12
119	55
120	9
121	24
122	5
123	12
124	2
125	4
126	2
127	10
128	18
129	34
130	15
131	86
132	14
133	25
134	7
135	45
136	9
137	12
138	2
139	1
141	2
142	1
143	7
144	6
145	50
146	11
147	83
148	16
149	91
150	15
151	39
152	6
153	2
155	1
157	2
158	2
159	42
160	8
161	52
162	31
163	40
164	8
165	292
166	46
167	14
168	2
169	1
171	3
172	1
173	19
174	10
175	50
176	13
177	512
178	84
179	26
180	3
181	1
185	3
186	1
187	7
188	2
189	83
190	22
191	11
192	3
193	2
194	1
195	1
196	1
197	1
199	1
200	1
201	3
202	2
203	31
204	16
205	389
206	79
207	23
208	3
209	1
210	1
211	1
212	1
213	1
214	1
215	2
216	2
217	6
218	7
219	14
220	286
221	70
222	19
223	3
231	2
232	7
233	999
234	187
235	56
236	7
237	1
238	1
239	1
240	1
241	1
242	1
243	1
247	6
248	828
249	164
250	47
251	5
252	1
