Mass spectrum: Niacinamide; GC-EI-TOF; MS; 1 TMS; BP:75
Name: Nicotinamide
Name: Nicotinic acid amide
Name: Vitamin PP
Name: Niacinamide
Class: Natural Product
Formula: C6H6N2O
Exact mass: 122.04801
SMILES: NC(=O)c(c1)cncc1
InChI: InChI=1S/C6H6N2O/c7-6(9)5-2-1-3-8-4-5/h1-4H,(H2,7,9)
Instrument: Pegasus III TOF-MS system, Leco; GC 6890, Agilent Technologies
Instrument type: GC-EI-TOF
Ms type: MS
Ion mode: POSITIVE
Retention time: 400.909 sec
Base peak: 75
Derivative form: C9H14N2OSi
Derivative mass: 194.08754
Derivative type: 1 TMS
m/z	relative intensity
60	31
61	72
62	9
63	9
64	9
65	10
66	8
67	10
68	1
69	2
70	52
71	8
72	57
73	121
74	61
75	999
76	158
77	165
78	265
79	64
80	10
81	3
82	15
83	9
84	5
85	4
86	9
87	1
88	1
89	4
90	5
91	2
92	5
93	10
94	8
95	2
96	1
100	26
101	3
102	3
103	7
104	94
105	137
106	30
107	5
108	4
109	3
110	3
116	1
118	1
119	11
120	7
121	2
122	6
123	1
131	1
132	1
133	1
134	3
135	3
136	209
137	28
138	9
147	2
148	1
149	3
150	4
151	3
152	1
161	2
162	1
163	7
164	2
165	4
166	1
175	5
176	1
177	1
178	2
179	507
180	75
181	23
182	2
184	1
193	35
194	24
195	5
196	1
