Mass spectrum: Indole; LC-ESI-QTOF; MS2; CE:Ramp 5-60 V; [M+H]+
Name: Indole
Name: 1-Benzazole
Name: 2,3-Benzpyrrole
Name: 1-Azaindene
Name: Ketole
Class: Indole
Formula: C8H7N
Exact mass: 117.05785
SMILES: C1=CC=C2C(=C1)C=CN2
InChI: InChI=1S/C8H7N/c1-2-4-8-7(3-1)5-6-9-8/h1-6,9H
Instrument: UPLC Q-Tof Premier, Waters
Instrument type: LC-ESI-QTOF
Ms type: MS2
Ion mode: POSITIVE
Collision energy: Ramp 5-60 V
Fragmentation mode: LOW-ENERGY CID
Ionization: ESI
Precursor m/z: 118.06565
Precursor type: [M+H]+
m/z	relative intensity
118.0657	999
118.0949	85
