Mass spectrum: Phenylhydrazine; GC-EI-TOF; MS; 1 TMS; BP:73
Name: Phenylhydrazine
Name: Phenyldiazane
Name: Hydrazinobenzene
Class: Natural Product
Formula: C6H8N2
Exact mass: 108.06875
SMILES: NNc(c1)cccc1
InChI: InChI=1S/C6H8N2/c7-8-6-4-2-1-3-5-6/h1-5,8H,7H2
Instrument: Pegasus III TOF-MS system, Leco; GC 6890, Agilent Technologies
Instrument type: GC-EI-TOF
Ms type: MS
Ion mode: POSITIVE
Retention time: 353.422 sec
Base peak: 73
Derivative form: C9H16N2Si
Derivative mass: 180.10828
Derivative type: 1 TMS
m/z	relative intensity
60	3
61	5
62	2
63	11
64	10
65	10
66	3
67	3
70	4
71	4
72	10
73	999
74	88
75	39
76	4
77	12
78	3
79	3
80	3
81	1
83	4
84	1
85	2
87	2
89	5
90	1
91	16
92	10
93	3
95	1
102	1
103	5
104	1
105	8
106	1
107	3
108	4
109	1
115	3
117	1
119	2
121	1
131	5
133	5
135	4
136	44
137	8
138	2
147	5
148	1
149	5
150	1
151	55
152	7
153	2
161	1
163	1
165	1
166	31
167	5
168	1
179	2
181	1
182	1
239	25
240	7
241	2
254	44
255	11
256	4
