Mass spectrum: Methyl 5-chloro-5-oxovalerate; LC-ESI-QTOF; MS2; CE:Ramp 5-60 V; [M-H]-
Name: Methyl 5-chloro-5-oxovalerate
Name: Glutaric acid monomethyl ester chloride
Name: Methyl 4-(chloroformyl)butyrate
Name: Methyl glutaryl chloride
Name: Carbomethoxybutyryl Chloride
Name: Methyl 5-chloro-5-oxovaleric acid
Formula: C6H9ClO3
Exact mass: 164.02402
SMILES: COC(=O)CCCC(=O)Cl
InChI: InChI=1S/C6H9ClO3/c1-10-6(9)4-2-3-5(7)8/h2-4H2,1H3
Instrument: UPLC Q-Tof Premier, Waters
Instrument type: LC-ESI-QTOF
Ms type: MS2
Ion mode: NEGATIVE
Collision energy: Ramp 5-60 V
Fragmentation mode: LOW-ENERGY CID
Ionization: ESI
Precursor m/z: 163.01622
Precursor type: [M-H]-
m/z	relative intensity
145.8568	450
162.8555	999
