Mass spectrum: D-(+)-Cellotriose; LC-ESI-QTOF; MS2; CE:Ramp 5-60 V; [M-H]-
Name: D-(+)-Cellotriose
Name: Glc(beta1-4)Glc(beta1-4)Glc
Name: O-beta-D-Glucopyranosyl-(1-4)-O-beta-D-Glucopyranosyl-(1-4)-D-Glucose
Class: Oligosaccharide
Formula: C18H32O16
Exact mass: 504.16903
SMILES: OC[C@@H](O1)[C@@H](O)[C@H](O)[C@@H](O)[C@@H]1O[C@H]([C@@H](CO)3)[C@H](O)[C@@H](O)[C@@H](O3)O[C@H]([C@@H](CO)2)[C@H](O)[C@@H](O)[C@H](O)O2
InChI: InChI=1S/C18H32O16/c19-1-4-7(22)8(23)12(27)17(31-4)34-15-6(3-21)32-18(13(28)10(15)25)33-14-5(2-20)30-16(29)11(26)9(14)24/h4-29H,1-3H2/t4-,5-,6-,7-,8+,9-,10-,11-,12-,13-,14-,15-,16-,17+,18+/m1/s1
Instrument: UPLC Q-Tof Premier, Waters
Instrument type: LC-ESI-QTOF
Ms type: MS2
Ion mode: NEGATIVE
Collision energy: Ramp 5-60 V
Fragmentation mode: LOW-ENERGY CID
Ionization: ESI
Precursor m/z: 503.16123
Precursor type: [M-H]-
m/z	relative intensity
59.0164	59
71.0165	221
73.0318	330
81.0371	36
83.0153	88
85.0315	46
87.0111	34
89.0268	97
97.0316	309
101.0265	525
113.0271	105
115.0412	62
119.0380	38
125.0271	47
143.0374	146
161.0479	999
179.0590	243
221.0714	59
263.0825	66
341.1170	177
383.1283	33
425.1367	78
503.1612	40
