Mass spectrum: Daidzein; LC-ESI-QTOF; MS2; CE:30 V; [M-H]-
Name: Daidzein
Name: Ddze
Name: 4',7-dihydroxyisoflavone
Name: Daidzeol
Name: 7-Hydroxy-3-(4-hydroxyphenyl)-4-benzopyrone
Name: 7-Hydroxy-3-(4-hydroxy?phenyl)-4H-1-benzo?pyran-4-one
Name: 7-Hydroxy-3-(4-hydroxy?phenyl)?chromone
Class: Isoflavones
Formula: C15H10O4
Exact mass: 254.05791
SMILES: Oc(c3)ccc(c3)C(=C1)C(=O)c(c2)c(cc(O)c2)O1
InChI: InChI=1S/C15H10O4/c16-10-3-1-9(2-4-10)13-8-19-14-7-11(17)5-6-12(14)15(13)18/h1-8,16-17H
Instrument: UPLC Q-Tof Premier, Waters
Instrument type: LC-ESI-QTOF
Ms type: MS2
Ion mode: NEGATIVE
Collision energy: 30 V
Fragmentation mode: LOW-ENERGY CID
Ionization: ESI
Precursor m/z: 253.05011
Precursor type: [M-H]-
m/z	relative intensity
89.0396	97
91.0190	999
117.0341	119
132.0210	800
133.0291	798
135.0083	406
167.0494	100
169.0655	158
180.0575	406
182.0372	94
195.0444	535
196.0523	282
197.0598	122
208.0525	882
209.0606	201
223.0395	982
224.0475	502
225.0553	135
253.0501	461
