Mass spectrum: 1-Decanoyl-2-hydroxy-sn-glycero-3-phosphocholine; LC-ESI-QTOF; MS2; CE:Ramp 5-60 V; [M]+
Name: 1-Decanoyl-2-hydroxy-sn-glycero-3-phosphocholine
Name: 10:0 LysoPC
Name: 1-decanoyl-sn-glycero-3-phosphocholine
Name: 1-Capryl-2-lysophosphatidylcholine
Name: 1-Decanoyllysolecithin
Name: Phosphocholine,1-Decanoyl-2-Hydroxy-sn-Glycero-3-
Class: Glycerophospholipids
Formula: [C18H39NO7P]+
Exact mass: 412.24641
SMILES: CCCCCCCCCC(=O)OCC(O)COP(O)(=O)OCC[N+1](C)(C)C
InChI: InChI=1S/C18H38NO7P/c1-5-6-7-8-9-10-11-12-18(21)24-15-17(20)16-26-27(22,23)25-14-13-19(2,3)4/h17,20H,5-16H2,1-4H3/p+1/t17-/m1/s1
Instrument: UPLC Q-Tof Premier, Waters
Instrument type: LC-ESI-QTOF
Ms type: MS2
Ion mode: POSITIVE
Collision energy: Ramp 5-60 V
Fragmentation mode: LOW-ENERGY CID
Ionization: ESI
Precursor m/z: 412.24638
Precursor type: [M]+
m/z	relative intensity
60.0841	52
86.0998	521
98.9887	72
104.1107	788
125.0049	373
166.0693	62
184.0778	999
229.1882	77
394.2469	126
412.2464	441
