Mass spectrum: 3,4-Dimethoxycinnamic acid; LC-ESI-QTOF; MS2; CE:Ramp 5-60 V; [M-H]-
Name: 3,4-Dimethoxycinnamic acid
Name: Dimethyl caffeic acid
Name: (E)-3-(3,4-dimethoxyphenyl)prop-2-enoic acid
Class: Natural Product
Formula: C11H12O4
Exact mass: 208.07356
SMILES: COc(c1)c(OC)cc(C=CC(O)=O)c1
InChI: InChI=1S/C11H12O4/c1-14-9-5-3-8(4-6-11(12)13)7-10(9)15-2/h3-7H,1-2H3,(H,12,13)/b6-4+
Instrument: UPLC Q-Tof Premier, Waters
Instrument type: LC-ESI-QTOF
Ms type: MS2
Ion mode: NEGATIVE
Collision energy: Ramp 5-60 V
Fragmentation mode: LOW-ENERGY CID
Ionization: ESI
Full scan fragment ion peak: 207
Ion type: [M-H]-
m/z	relative intensity
103.0550	640
105.0705	29
118.9934	43
131.0499	81
133.0654	83
148.0522	39
162.9821	72
163.0763	119
192.0432	29
206.9730	44
207.0657	999
207.2843	23
208.0699	24
