Mass spectrum: L-Saccharopine; LC-ESI-QTOF; MS2; CE:Ramp 5-60 V; [M+H]+
Name: L-Saccharopine
Name: epsilon-N-(L-glutar-2-yl)-L-lysine
Name: N6-(L-1,3-dicarboxylpropyl)-L-lysine
Class: Amino acids
Formula: C11H20N2O6
Exact mass: 276.13214
SMILES: OC(=O)CCC(NCCCCC(N)C(O)=O)C(O)=O
InChI: InChI=1S/C11H20N2O6/c12-7(10(16)17)3-1-2-6-13-8(11(18)19)4-5-9(14)15/h7-8,13H,1-6,12H2,(H,14,15)(H,16,17)(H,18,19)/t7-,8-/m0/s1
Instrument: UPLC Q-Tof Premier, Waters
Instrument type: LC-ESI-QTOF
Ms type: MS2
Ion mode: POSITIVE
Collision energy: Ramp 5-60 V
Fragmentation mode: LOW-ENERGY CID
Ionization: ESI
Precursor m/z: 277.13993
Precursor type: [M+H]+
m/z	relative intensity
67.0551	23
84.0454	28
84.0811	999
130.0867	272
195.1143	37
213.1243	224
231.1346	23
259.1291	142
277.1399	182
