Mass spectrum: Kaempferol-3-O-alpha-L-arabinoside; LC-ESI-QTOF; MS2; CE:Ramp 5-60 V; [M-H]-
Name: Kaempferol-3-O-alpha-L-arabinoside
Name: Kaem-3-Ara
Name: Kaempferol-3-O-alpha-L-arabinopyranoside
Class: Flavonoid
Formula: C20H18O10
Exact mass: 418.09000
SMILES: Oc(c4)ccc(c4)C(O1)=C(OC(O3)C(O)C(O)C(O)C3)C(=O)c(c(O)2)c(cc(O)c2)1
InChI: InChI=1S/C20H18O10/c21-9-3-1-8(2-4-9)18-19(30-20-17(27)15(25)12(24)7-28-20)16(26)14-11(23)5-10(22)6-13(14)29-18/h1-6,12,15,17,20-25,27H,7H2/t12-,15+,17-,20+/m1/s1
Instrument: UPLC Q-Tof Premier, Waters
Instrument type: LC-ESI-QTOF
Ms type: MS2
Ion mode: NEGATIVE
Collision energy: Ramp 5-60 V
Fragmentation mode: LOW-ENERGY CID
Ionization: ESI
Precursor m/z: 417.08217
Precursor type: [M-H]-
m/z	relative intensity
183.0454	98
227.0349	901
255.0304	905
256.0367	127
284.0327	889
285.0406	266
417.0822	999
418.0907	91
