Mass spectrum: 2-Hydroxyphenylacetic acid; LC-ESI-QTOF; MS2; CE:Ramp 5-60 V; [M-H]-
Name: 2-Hydroxyphenylacetic acid
Name: 2-Hydroxyphenylacetate
Name: 2-Hydroxy-2-phenylacetic Acid
Formula: C8H8O3
Exact mass: 152.04734
SMILES: OC(=O)Cc(c1)c(O)ccc1
InChI: InChI=1S/C8H8O3/c9-7-4-2-1-3-6(7)5-8(10)11/h1-4,9H,5H2,(H,10,11)
Instrument: UPLC Q-Tof Premier, Waters
Instrument type: LC-ESI-QTOF
Ms type: MS2
Ion mode: NEGATIVE
Collision energy: Ramp 5-60 V
Fragmentation mode: LOW-ENERGY CID
Ionization: ESI
Precursor m/z: 151.03954
Precursor type: [M-H]-
m/z	relative intensity
107.0497	999
151.0395	104
