Mass spectrum: DL-Mandelic acid; LC-ESI-QTOF; MS2; CE:Ramp 5-60 V; [M-H]-
Name: DL-Mandelic acid
Name: DL-mandelate
Name: DL-alpha-Hydroxyphenylacetic acid
Name: DL-alpha-Hydroxybenzeneacetic acid
Name: DL-alpha-Oxybenzeneacetic acid
Name: Phenylglycollic acid
Name: alpha-Hydroxy-alpha-toluic acid
Name: Almond acid
Name: Amygdalinic acid
Name: Paramandelic acid
Name: Uromaline
Class: Carboxylic acids
Formula: C8H8O3
Exact mass: 152.04734
SMILES: OC(=O)C(O)c(c1)cccc1
InChI: InChI=1S/C8H8O3/c9-7(8(10)11)6-4-2-1-3-5-6/h1-5,7,9H,(H,10,11)
Instrument: UPLC Q-Tof Premier, Waters
Instrument type: LC-ESI-QTOF
Ms type: MS2
Ion mode: NEGATIVE
Collision energy: Ramp 5-60 V
Fragmentation mode: LOW-ENERGY CID
Ionization: ESI
Precursor m/z: 151.03954
Precursor type: [M-H]-
m/z	relative intensity
107.0502	419
148.9006	34
151.0395	999
