Mass spectrum: (+)-pantothenic acid; GC-EI-TOF; MS; n TMS; BP:73
Name: (+)-pantothenate
Name: Transferred to D01082
Name: (+)-pantothenic acid
Class: Natural Product
Formula: C9H17NO5
Exact mass: 219.111
SMILES: CC(C)(CO)[C@H](C(=O)NCCC(=O)O)O
InChI: InChI=1S/C9H17NO5/c1-9(2,5-11)7(14)8(15)10-4-3-6(12)13/h7,11,14H,3-5H2,1-2H3,(H,10,15)(H,12,13)/t7-/m0/s1
Instrument: Pegasus III TOF-MS system, Leco; GC 6890, Agilent Technologies
Instrument type: GC-EI-TOF
Ms type: MS
Ion mode: POSITIVE
Retention time: 479.923 sec
Base peak: 73
Derivative form: C{9+3*n}H{16+8*n}NO5Si{n}
Derivative mass: 218.10285+72.03953*n
Derivative type: n TMS
m/z	relative intensity
60	9
61	29
62	2
63	2
65	1
66	3
67	9
69	13
70	23
71	8
72	41
73	999
74	96
75	248
76	23
77	28
78	2
79	7
80	1
81	2
82	12
83	37
84	10
85	23
86	16
87	12
88	10
89	17
90	2
91	15
92	2
93	2
94	2
95	6
96	4
97	2
98	41
99	12
100	24
101	22
102	49
103	567
104	57
105	29
106	2
108	1
109	1
110	3
111	2
112	4
113	9
114	4
115	34
116	24
117	408
118	48
119	27
120	2
121	1
124	22
125	3
126	2
127	4
128	14
129	99
130	35
131	34
132	7
133	40
134	6
135	5
136	1
138	2
140	2
141	4
142	4
143	53
144	61
145	47
146	22
147	106
148	17
149	26
150	3
151	2
153	1
154	2
155	2
156	11
157	261
158	48
159	138
160	21
161	8
162	3
163	11
164	2
165	1
166	6
167	1
168	2
169	1
170	4
171	3
172	9
173	5
174	7
175	3
176	8
177	4
178	1
182	1
183	1
184	4
185	3
186	5
187	2
188	8
189	2
190	1
191	7
192	1
193	1
198	3
199	1
200	2
201	235
202	35
203	23
204	6
205	3
206	1
212	2
214	1
216	1
217	17
218	13
219	6
220	2
221	1
226	1
228	2
230	2
231	3
232	2
233	2
234	1
240	4
241	1
242	3
243	1
244	3
245	1
246	15
247	101
248	23
249	10
250	1
256	1
258	1
259	2
260	2
261	31
262	10
263	3
264	1
273	1
274	1
275	4
276	2
290	2
291	219
292	50
293	21
294	3
302	2
316	1
330	8
331	2
332	3
348	1
419	2
420	32
421	11
422	5
423	1
