Mass spectrum: 2-Aminoisobutyric acid; LC-ESI-QTOF; MS2; CE:Ramp 5-60 V; [M+H]+
Name: 2-Aminoisobutyric acid
Name: Aib
Name: alpha-Aminoisobutyric acid
Name: 2-Methylalanine
Name: alpha,alpha-Dimethylglycine
Name: 2-Amino-2-methylpropanoate
Name: alpha-Aminoisobutyric acid2-Aminoisobutyric acid
Class: Amino acids
Formula: C4H9NO2
Exact mass: 103.06333
SMILES: OC(=O)C(C)(C)N
InChI: InChI=1S/C4H9NO2/c1-4(2,5)3(6)7/h5H2,1-2H3,(H,6,7)
Instrument: UPLC Q-Tof Premier, Waters
Instrument type: LC-ESI-QTOF
Ms type: MS2
Ion mode: POSITIVE
Collision energy: Ramp 5-60 V
Fragmentation mode: LOW-ENERGY CID
Ionization: ESI
Precursor m/z: 104.07113
Precursor type: [M+H]+
m/z	relative intensity
58.0656	999
59.0503	101
87.0447	61
99.5117	24
104.0711	710
