Mass spectrum: 3-Methylxanthine; LC-ESI-QTOF; MS2; CE:Ramp 5-60 V; [M-H]-
Name: 3-Methylxanthine
Name: 3-MX
Name: 2,6-Dihydroxy-3-methylpurine
Name: 3,7-dihydro-3-methyl-1H-purine-2,6-dione
Class: Purines
Formula: C6H6N4O2
Exact mass: 166.04908
SMILES: CN1C2=C(C(=O)NC1=O)NC=N2
InChI: InChI=1S/C6H6N4O2/c1-10-4-3(7-2-8-4)5(11)9-6(10)12/h2H,1H3,(H,7,8)(H,9,11,12)
Instrument: UPLC Q-Tof Premier, Waters
Instrument type: LC-ESI-QTOF
Ms type: MS2
Ion mode: NEGATIVE
Collision energy: Ramp 5-60 V
Fragmentation mode: LOW-ENERGY CID
Ionization: ESI
Precursor m/z: 165.04127
Precursor type: [M-H]-
m/z	relative intensity
79.0185	41
94.0422	83
122.0361	346
147.8946	30
149.0100	32
150.0186	171
164.8959	63
165.0413	999
