Mass spectrum: 2-Methoxycinnamic acid; LC-ESI-QTOF; MS2; CE:30 V; [M+H]+
Name: 2-Methoxycinnamic acid
Name: (E)-3-(2-methoxyphenyl)prop-2-enoic acid
Class: Natural Product
Formula: C10H10O3
Exact mass: 178.06299
SMILES: COc(c1)c(ccc1)C=CC(O)=O
InChI: InChI=1S/C10H10O3/c1-13-9-5-3-2-4-8(9)6-7-10(11)12/h2-7H,1H3,(H,11,12)/b7-6+
Instrument: UPLC Q-Tof Premier, Waters
Instrument type: LC-ESI-QTOF
Ms type: MS2
Ion mode: POSITIVE
Collision energy: 30 V
Fragmentation mode: LOW-ENERGY CID
Ionization: ESI
Full scan fragment ion peak: 179.1
Ion type: [M+H]+
m/z	relative intensity
77.0406	663
77.0866	194
79.0563	338
79.1027	101
89.0408	204
89.0900	57
90.0485	354
90.0977	92
91.0562	70
91.1056	21
94.0431	30
103.0566	317
103.1104	84
105.0723	212
105.1266	52
107.0519	86
107.1056	24
115.0568	33
118.0444	999
118.0868	20
118.1015	250
146.0402	42
