Mass spectrum: Apigenin; LC-ESI-QTOF; MS2; CE:30 eV; [M-H]-
Name: 4',5,7-trihydroxyflavone
Name: Apigenin
Name: Apig
Name: 5,7-dihydroxy-2-(4-hydroxyphenyl)chromen-4-one
Class: Natural Product
Formula: C15H10O5
Exact mass: 270.05282
SMILES: Oc(c3)ccc(c3)C(=C1)Oc(c2)c(c(O)cc(O)2)C(=O)1
InChI: InChI=1S/C15H10O5/c16-9-3-1-8(2-4-9)13-7-12(19)15-11(18)5-10(17)6-14(15)20-13/h1-7,16-18H
Instrument: UPLC Q-Tof Premier, Waters
Instrument type: LC-ESI-QTOF
Ms type: MS2
Ion mode: NEGATIVE
Collision energy: 30 eV
Fragmentation mode: LOW-ENERGY CID
Ionization: ESI
Full scan fragment ion peak: 269
Ion type: [M-H]-
m/z	relative intensity
63.0579	20
65.0447	55
83.0508	54
105.0589	38
107.0476	172
108.3034	20
116.2101	29
117.0670	999
117.9082	111
118.7827	33
121.0637	78
149.0590	96
151.0323	119
159.0711	49
183.0617	28
227.0514	31
269.0580	27
