Mass spectrum: Indoleacetic acid; GC-EI-TOF; MS; 2 TMS; BP:73
Name: Indole-3-acetic acid
Name: Indole-3-acetate
Name: Indoleacetate
Name: Indoleacetic acid
Class: Natural Product
Formula: C10H9NO2
Exact mass: 175.06333
SMILES: C1=CC=C2C(=C1)C(=CN2)CC(=O)O
InChI: InChI=1S/C10H9NO2/c12-10(13)5-7-6-11-9-4-2-1-3-8(7)9/h1-4,6,11H,5H2,(H,12,13)
Instrument: Pegasus III TOF-MS system, Leco; GC 6890, Agilent Technologies
Instrument type: GC-EI-TOF
Ms type: MS
Ion mode: POSITIVE
Retention time: 509.248 sec
Base peak: 73
Derivative form: C16H25NO2Si2
Derivative mass: 319.14238
Derivative type: 2 TMS
m/z	relative intensity
60	7
61	15
62	4
63	9
64	1
65	2
66	2
67	3
69	1
70	7
71	5
72	18
73	999
74	98
75	113
76	25
77	33
78	6
79	9
80	1
83	2
84	4
85	2
86	1
87	2
88	1
89	4
90	1
91	4
92	1
93	3
94	1
99	1
100	1
101	14
102	32
103	15
104	3
105	6
106	1
107	1
113	1
114	1
115	10
116	3
117	9
118	2
119	5
120	1
127	2
128	18
129	40
130	29
131	10
132	4
133	5
134	3
135	1
140	3
141	2
142	3
143	7
144	6
145	28
146	6
147	27
148	4
149	2
152	3
154	2
155	1
156	11
157	3
158	2
159	3
160	10
161	2
162	1
168	1
169	3
170	12
171	3
172	12
173	2
174	2
182	2
184	6
185	3
186	32
187	14
188	6
189	1
198	2
199	2
200	30
201	10
202	568
203	110
204	30
205	3
214	1
216	1
229	1
230	2
231	2
232	1
248	1
260	2
275	1
276	12
277	4
278	1
304	14
305	4
306	1
318	2
319	56
320	16
321	6
322	1
