Mass spectrum: Isopentenyladenosine; GC-EI-TOF; MS; 3 TMS; BP:73
Name: N-6-(delta-2-Isopentenyl)adenosinehemihydrate
Name: Isopentenyladenosine
Class: Natural Product
Formula: C15H21N5O4
Exact mass: 335.15935
SMILES: CC(C)=CCNc(n3)c(n2)c(nc3)n(c2)C(O1)C(O)C(O)C(CO)1
InChI: InChI=1S/C15H21N5O4/c1-8(2)3-4-16-13-10-14(18-6-17-13)20(7-19-10)15-12(23)11(22)9(5-21)24-15/h3,6-7,9,11-12,15,21-23H,4-5H2,1-2H3,(H,16,17,18)/t9-,11-,12-,15-/m1/s1
Instrument: Pegasus III TOF-MS system, Leco; GC 6890, Agilent Technologies
Instrument type: GC-EI-TOF
Ms type: MS
Ion mode: POSITIVE
Retention time: 685.84 sec
Base peak: 73
Derivative form: C24H45N5O4Si3
Derivative mass: 551.27793
Derivative type: 3 TMS
m/z	relative intensity
60	4
61	6
62	1
63	1
64	1
65	7
66	10
67	22
68	1
69	21
70	10
71	5
72	17
73	999
74	90
75	55
76	5
77	7
78	2
79	5
80	5
81	7
82	4
83	3
84	18
85	7
86	2
87	5
88	2
89	13
90	1
91	2
92	6
93	9
94	7
95	3
96	1
97	5
98	2
99	9
100	2
101	23
102	4
103	140
104	15
105	10
106	4
107	3
108	15
109	4
110	1
111	6
112	1
113	9
114	2
115	27
116	10
117	24
118	5
119	25
120	10
121	7
122	1
123	1
125	2
126	1
127	5
128	1
129	35
130	5
131	18
132	6
133	34
134	9
135	42
136	30
137	3
138	1
140	1
141	4
142	4
143	15
144	4
145	8
146	5
147	96
148	28
149	14
150	3
151	2
152	1
153	4
154	1
155	1
156	1
157	8
158	4
159	9
160	159
161	22
162	4
163	2
164	21
165	4
166	1
167	1
169	20
170	3
171	5
172	4
173	6
174	5
175	8
176	5
177	2
178	1
179	1
180	1
185	15
186	8
187	6
188	58
189	18
190	4
191	6
192	9
193	2
194	1
198	1
200	2
201	3
202	65
203	89
204	39
205	6
206	8
207	4
208	5
209	1
214	2
215	3
216	2
217	47
218	11
219	7
220	3
221	1
229	2
230	89
231	24
232	126
233	20
234	8
235	2
236	1
242	1
243	22
244	6
245	46
246	11
247	5
248	2
249	1
250	3
257	2
258	4
259	18
260	9
261	3
262	5
263	1
265	1
274	16
275	7
276	12
277	3
278	1
288	1
289	1
290	2
291	1
302	5
303	1
304	1
306	1
316	1
317	1
318	9
319	2
320	2
322	1
330	1
333	3
334	1
348	3
349	1
390	1
420	1
448	1
507	1
508	6
509	5
510	3
511	1
535	2
536	8
537	5
538	2
550	4
551	18
552	9
553	4
554	1
