Mass spectrum: Ribitol; GC-EI-TOF; MS; 5 TMS; BP:73
Name: Ribitol
Name: Adonitol
Class: Natural Product
Formula: C5H12O5
Exact mass: 152.06847
SMILES: OC([C@H]([C@H]([C@H](CO)O)O)O)
InChI: InChI=1S/C5H12O5/c6-1-3(8)5(10)4(9)2-7/h3-10H,1-2H2/t3-,4+,5-
Instrument: Pegasus III TOF-MS system, Leco; GC 6890, Agilent Technologies
Instrument type: GC-EI-TOF
Ms type: MS
Ion mode: POSITIVE
Retention time: 425.835 sec
Base peak: 73
Derivative form: C20H52O5Si5
Derivative mass: 512.26611
Derivative type: 5 TMS
m/z	relative intensity
60	6
61	10
63	1
65	1
66	5
67	2
69	19
70	5
71	7
72	21
73	999
74	77
75	115
76	10
77	10
81	50
82	3
83	2
84	1
85	6
86	1
87	8
88	2
89	22
90	2
91	1
96	1
97	5
98	1
99	10
100	3
101	33
102	5
103	133
104	13
105	8
111	5
112	1
113	8
114	2
115	15
116	8
117	80
118	8
119	12
120	1
121	1
125	1
127	5
128	1
129	269
130	32
131	31
132	5
133	82
134	11
135	10
136	1
141	1
142	5
143	19
144	3
145	5
146	1
147	175
148	28
149	33
150	4
151	2
153	1
155	67
156	21
157	28
158	5
159	6
160	1
161	4
162	1
163	9
164	1
165	1
169	1
170	6
171	26
172	5
173	8
174	5
175	32
176	6
177	12
178	1
179	1
185	1
187	1
188	19
189	98
190	20
191	27
192	4
193	6
194	1
197	2
200	1
201	6
202	1
203	9
204	6
205	19
206	4
207	23
208	5
209	3
215	2
216	3
217	151
218	35
219	21
220	3
221	30
222	8
223	4
229	1
230	2
231	9
232	3
233	4
234	1
235	1
242	4
243	16
244	44
245	24
246	7
247	2
248	1
249	3
250	1
259	1
262	3
263	11
264	3
265	1
271	1
272	3
273	12
274	2
275	1
286	1
287	1
305	2
306	1
331	1
332	3
333	2
334	2
361	1
363	1
450	1
451	3
452	1
