Mass spectrum: alpha-D-Glucose-1,6-diphosphate; LC-ESI-QTOF; MS2; CE:Ramp 5-60 V; [M-H]-
Name: alpha-D-Glucose-1,6-diphosphate
Name: Glc-1,6P
Name: alpha-D-Glucose 1,6-diphosphate
Class: Natural Product; Carbohydrate; Phosphates
Formula: C6H14O12P2
Exact mass: 339.99605
SMILES: O[C@@H]([C@H](O)1)[C@@H](COP(O)(O)=O)O[C@@H]([C@H](O)1)OP(O)(O)=O
InChI: InChI=1S/C6H14O12P2/c7-3-2(1-16-19(10,11)12)17-6(5(9)4(3)8)18-20(13,14)15/h2-9H,1H2,(H2,10,11,12)(H2,13,14,15)/t2-,3-,4+,5-,6-/m1/s1
Instrument: UPLC Q-Tof Premier, Waters
Instrument type: LC-ESI-QTOF
Ms type: MS2
Ion mode: NEGATIVE
Collision energy: Ramp 5-60 V
Fragmentation mode: LOW-ENERGY CID
Ionization: ESI
Precursor m/z: 338.98825
Precursor type: [M-H]-
m/z	relative intensity
78.9603	847
96.9701	445
138.9821	65
158.9291	115
205.8559	55
241.0126	999
294.8416	51
294.9989	87
338.9883	326
