Mass spectrum: D-(+)-Galactose; GC-EI-TOF; MS; 5 TMS; 1 MEOX; BP:73
Name: D-(+)-Galactose
Name: D-Galactose
Class: Natural Product
Formula: C6H12O6
Exact mass: 180.06339
SMILES: OC[C@@H](O1)[C@H](O)[C@H](O)[C@@H](O)C(O)1
InChI: InChI=1S/C6H12O6/c7-1-2-3(8)4(9)5(10)6(11)12-2/h2-11H,1H2/t2-,3+,4+,5-,6?/m1/s1
Instrument: Pegasus III TOF-MS system, Leco; GC 6890, Agilent Technologies
Instrument type: GC-EI-TOF
Ms type: MS
Ion mode: POSITIVE
Retention time: 457.96 sec
Base peak: 73
Derivative form: C22H55NO6Si5
Derivative mass: 569.28757
Derivative type: 5 TMS; 1 MEOX
m/z	relative intensity
60	5
61	6
66	5
67	4
69	2
70	4
71	3
72	17
73	999
74	85
75	59
76	4
77	5
81	1
82	5
83	13
84	3
85	3
86	4
87	4
88	3
89	53
90	4
91	2
97	2
98	1
99	3
100	11
101	15
102	9
103	119
104	12
105	24
106	2
107	1
110	1
111	1
112	1
113	3
114	9
115	7
116	5
117	73
118	8
119	7
126	1
127	3
128	3
129	90
130	17
131	22
132	4
133	52
134	7
135	4
141	1
142	4
143	12
144	2
145	5
146	1
147	241
148	38
149	23
150	2
151	1
155	1
156	1
157	60
158	11
159	4
160	85
161	16
162	4
163	7
164	1
168	1
169	2
170	1
172	2
173	3
174	1
175	3
176	1
177	3
186	2
187	1
189	21
190	6
191	11
192	2
193	1
200	1
201	7
202	2
203	3
204	24
205	159
206	31
207	16
208	2
210	2
214	1
215	2
216	6
217	92
218	19
219	8
220	1
221	4
222	1
228	1
229	18
230	5
231	7
232	2
233	3
234	3
235	1
243	1
244	2
245	1
246	2
247	2
256	1
259	1
262	3
269	1
274	2
277	4
278	1
291	5
292	1
300	1
305	4
306	1
307	5
308	1
318	2
319	118
320	35
321	17
322	3
344	1
