Mass spectrum: Rhamnetin; LC-ESI-QTOF; MS2; CE:Ramp 5-60 eV; [M-H]-
Name: 3,3',4',5-tetrahydroxy-7-methoxyflavone
Name: Rhamnetin
Name: Ramn
Name: 2-(3,4-dihydroxyphenyl)-3,5-dihydroxy-7-methoxy-chromen-4-one
Class: Natural Product
Formula: C16H12O7
Exact mass: 316.05830
SMILES: COc(c3)cc(O1)c(c(O)3)C(=O)C(O)=C1c(c2)cc(O)c(O)c2
InChI: InChI=1S/C16H12O7/c1-22-8-5-11(19)13-12(6-8)23-16(15(21)14(13)20)7-2-3-9(17)10(18)4-7/h2-6,17-19,21H,1H3
Instrument: UPLC Q-Tof Premier, Waters
Instrument type: LC-ESI-QTOF
Ms type: MS2
Ion mode: NEGATIVE
Collision energy: Ramp 5-60 eV
Fragmentation mode: LOW-ENERGY CID
Ionization: ESI
Full scan fragment ion peak: 315.1
Ion type: [M-H]-
m/z	relative intensity
65.0013	38
89.0024	41
91.0179	20
93.0339	52
97.0287	72
109.0289	21
121.0294	265
149.0245	28
149.9957	47
151.0041	35
163.0042	27
165.0194	604
193.0141	78
227.0351	20
228.0430	20
255.0298	21
271.0246	24
272.0322	20
287.0564	33
300.0279	143
315.0505	999
315.3221	22
316.0538	47
