Mass spectrum: Maltotriose; GC-EI-TOF; MS; 11 TMS; 1 MEOX; BP:73
Name: Maltotriose
Name: Amylotriose
Class: Natural Product
Formula: C18H32O16
Exact mass: 504.16903
SMILES: OCC(O1)C(O)C(O)C(O)C1OC(C(CO)3)C(O)C(O)C(O3)OC(C(CO)2)C(O)C(O)C(O)O2
InChI: InChI=1S/C18H32O16/c19-1-4-7(22)8(23)12(27)17(31-4)34-15-6(3-21)32-18(13(28)10(15)25)33-14-5(2-20)30-16(29)11(26)9(14)24/h4-29H,1-3H2/t4-,5-,6-,7-,8+,9-,10-,11-,12-,13-,14-,15-,16?,17-,18-/m1/s1
Instrument: Pegasus III TOF-MS system, Leco; GC 6890, Agilent Technologies
Instrument type: GC-EI-TOF
Ms type: MS
Ion mode: POSITIVE
Retention time: 786.789 sec
Base peak: 73
Derivative form: C52H123NO16Si11
Derivative mass: 1325.63038
Derivative type: 11 TMS; 1 MEOX
m/z	relative intensity
60	5
61	6
65	1
66	7
67	7
68	1
69	31
70	6
71	4
72	10
73	999
74	80
75	81
76	6
77	8
80	1
81	26
82	5
83	7
84	3
85	6
86	2
87	3
88	2
89	41
90	4
91	3
92	1
93	1
94	1
95	1
97	10
98	2
99	5
100	10
101	15
102	9
103	164
104	15
105	18
106	3
107	1
109	10
110	1
111	3
113	6
114	5
115	7
116	9
117	89
118	8
119	5
123	1
125	2
127	6
128	2
129	115
130	18
131	21
132	4
133	40
134	6
135	3
139	4
141	5
142	8
143	23
144	3
145	8
146	2
147	192
148	29
149	24
150	3
151	1
152	1
153	3
154	1
155	19
156	5
157	25
158	5
159	4
160	42
161	9
162	2
163	7
164	1
167	3
168	3
169	81
170	14
171	9
172	3
173	8
174	2
175	3
176	1
177	3
180	1
181	2
183	7
184	1
185	3
186	3
187	2
188	2
189	26
190	7
191	55
192	8
193	4
195	3
196	2
197	1
198	2
199	6
200	2
201	3
202	1
203	10
204	440
205	128
206	46
207	8
208	1
210	4
211	2
214	1
215	4
216	6
217	131
218	31
219	14
220	3
221	4
222	1
223	3
227	2
228	1
229	7
230	7
231	20
232	6
233	7
234	2
240	1
241	4
242	3
243	34
244	11
245	11
246	4
247	3
255	2
256	3
257	7
258	2
259	5
260	1
262	1
268	1
269	3
270	3
271	56
272	13
273	9
274	2
275	2
276	1
283	1
285	1
288	1
289	3
290	1
291	3
292	1
293	1
297	1
298	1
300	4
301	2
303	1
305	6
306	2
307	2
316	1
317	2
318	2
319	14
320	3
321	2
322	1
331	6
332	4
333	1
343	1
345	2
359	2
360	10
361	133
362	45
363	22
364	4
365	2
373	1
378	1
389	1
390	1
394	1
451	6
452	2
453	1
479	1
480	6
481	3
482	1
510	1
521	1
537	1
538	1
570	1
573	1
598	1
599	1
608	1
696	1
709	1
742	1
752	1
776	1
