Mass spectrum: Rosmarinic acid; LC-ESI-QTOF; MS2; CE:Ramp 5-60 V; [2M-H]-
Name: Rosmarinic acid
Name: (2R)-3-(3,4-dihydroxyphenyl)-2-[(E)-3-(3,4-dihydroxyphenyl)prop-2-enoyl]oxypropanoic acid
Class: Natural Product
Formula: C18H16O8
Exact mass: 360.08452
SMILES: OC(=O)C(OC(=O)C=Cc(c2)cc(O)c(O)c2)Cc(c1)cc(O)c(O)c1
InChI: InChI=1S/C18H16O8/c19-12-4-1-10(7-14(12)21)3-6-17(23)26-16(18(24)25)9-11-2-5-13(20)15(22)8-11/h1-8,16,19-22H,9H2,(H,24,25)/b6-3+/t16-/m1/s1
Instrument: UPLC Q-Tof Premier, Waters
Instrument type: LC-ESI-QTOF
Ms type: MS2
Ion mode: NEGATIVE
Collision energy: Ramp 5-60 V
Fragmentation mode: LOW-ENERGY CID
Ionization: ESI
Full scan fragment ion peak: 719.2
Ion type: [2M-H]-
m/z	relative intensity
72.9930	31
133.0284	27
135.0443	57
161.0239	800
162.0265	22
179.0345	131
197.0448	284
359.0765	999
360.0802	43
719.1612	234
