Mass spectrum: D-Fructose 6-phosphate; GC-EI-TOF; MS; 6 TMS; 1 MEOX; BP:73
Name: D-Fructose 6-phosphate
Class: Natural Product
Formula: C6H13O9P
Exact mass: 260.02972
SMILES: OC[C@@](O)(O1)[C@@H](O)[C@H](O)[C@@H](COP(O)(O)=O)1
InChI: InChI=1S/C6H13O9P/c7-2-6(10)5(9)4(8)3(15-6)1-14-16(11,12)13/h3-5,7-10H,1-2H2,(H2,11,12,13)/t3-,4-,5+,6-/m1/s1
Instrument: Pegasus III TOF-MS system, Leco; GC 6890, Agilent Technologies
Instrument type: GC-EI-TOF
Ms type: MS
Ion mode: POSITIVE
Retention time: 535.264 sec
Base peak: 73
Derivative form: C25H64NO9PSi6
Derivative mass: 721.29343
Derivative type: 6 TMS; 1 MEOX
m/z	relative intensity
60	4
61	7
63	1
66	3
67	2
69	1
70	4
71	4
72	14
73	999
74	85
75	58
76	4
77	15
78	1
79	7
80	1
81	1
82	4
83	2
84	24
85	5
86	2
87	4
88	3
89	51
90	4
91	2
94	1
98	2
99	5
100	9
101	35
102	6
103	81
104	8
105	9
106	1
107	1
111	2
112	1
113	7
114	17
115	7
116	13
117	19
118	2
119	6
121	1
126	3
127	3
128	3
129	73
130	11
131	17
132	3
133	51
134	7
135	8
136	1
137	2
138	1
140	1
141	1
142	5
143	6
144	1
145	2
146	1
147	113
148	18
149	14
150	2
151	4
152	1
153	1
154	1
155	1
156	3
157	8
158	2
159	2
161	1
163	4
165	1
168	2
170	1
171	1
172	6
173	6
174	2
175	1
177	1
179	1
180	2
181	3
182	1
183	1
186	1
187	1
188	1
189	5
190	1
191	8
192	2
193	4
194	1
195	4
196	2
197	1
198	1
200	1
201	2
202	1
203	2
204	7
205	6
206	1
207	9
208	2
209	2
210	1
211	26
212	4
213	2
214	2
215	2
216	3
217	121
218	26
219	11
220	1
221	2
225	9
226	1
227	7
228	2
229	1
230	2
231	2
232	1
240	1
241	1
242	1
243	1
244	2
245	1
247	1
253	2
254	1
255	1
256	2
260	2
262	2
268	2
269	2
270	2
283	2
284	1
285	3
286	2
298	3
299	71
300	22
301	11
302	3
303	1
313	1
314	5
315	162
316	43
317	23
318	4
319	2
328	1
329	1
341	3
342	1
343	1
356	1
357	17
358	5
359	3
360	1
369	1
373	2
374	1
386	1
387	10
388	4
389	3
390	1
402	1
403	5
404	2
405	1
458	2
459	18
460	7
461	5
462	1
