Mass spectrum: D-(+)-Galacturonic acid; GC-EI-TOF; MS; 5 TMS; BP:73
Name: D-(+)-Galacturonic acid
Class: Natural Product
Formula: C6H10O7
Exact mass: 194.04265
SMILES: OC(=O)[C@@H](O1)[C@H](O)[C@H](O)[C@@H](O)C(O)1
InChI: InChI=1S/C6H10O7/c7-1-2(8)4(5(10)11)13-6(12)3(1)9/h1-4,6-9,12H,(H,10,11)/t1-,2+,3+,4-,6?/m0/s1
Instrument: Pegasus III TOF-MS system, Leco; GC 6890, Agilent Technologies
Instrument type: GC-EI-TOF
Ms type: MS
Ion mode: POSITIVE
Retention time: 471.623 sec
Base peak: 73
Derivative form: C21H50O7Si5
Derivative mass: 554.24029
Derivative type: 5 TMS
m/z	relative intensity
60	3
61	4
66	3
67	2
70	3
71	3
72	15
73	999
74	83
75	48
76	3
77	4
82	1
83	3
84	1
85	2
86	2
87	2
88	1
89	49
90	4
91	2
96	1
99	3
100	7
101	6
102	11
103	63
104	6
105	12
106	1
111	1
113	2
114	3
115	3
116	3
117	7
118	1
119	5
126	1
127	2
128	1
129	14
130	7
131	17
132	3
133	43
134	5
135	3
141	1
142	1
143	40
144	5
145	4
147	143
148	22
149	15
150	1
151	1
157	1
158	1
159	1
160	71
161	10
162	3
163	6
164	1
171	16
172	4
173	3
174	1
175	2
177	2
182	1
183	1
187	1
189	26
190	6
191	11
192	2
193	1
201	1
203	1
204	13
205	7
206	2
207	3
214	2
215	1
216	1
217	20
218	4
219	13
220	3
221	7
222	1
223	1
229	1
230	1
231	3
232	1
233	3
234	1
235	1
245	4
246	1
274	1
277	4
278	1
291	2
292	24
293	7
294	3
305	10
306	4
307	1
318	1
319	1
321	1
332	3
333	118
334	36
335	18
336	4
337	1
345	1
361	1
393	1
419	1
423	8
424	3
425	1
