Mass spectrum: Tryptamine; GC-EI-TOF; MS; 3 TMS; BP:73
Name: 3-(2-Aminoethyl)indole [Tryptamine]
Name: Tryptamine
Name: 3-(2-Aminoethyl)indole
Class: Natural Product
Formula: C10H12N2
Exact mass: 160.10005
SMILES: C1=CC=C2C(=C1)C(=CN2)CCN
InChI: InChI=1S/C10H12N2/c11-6-5-8-7-12-10-4-2-1-3-9(8)10/h1-4,7,12H,5-6,11H2
Instrument: Pegasus III TOF-MS system, Leco; GC 6890, Agilent Technologies
Instrument type: GC-EI-TOF
Ms type: MS
Ion mode: POSITIVE
Retention time: 524.11 sec
Base peak: 73
Derivative form: C19H36N2Si3
Derivative mass: 376.21863
Derivative type: 3 TMS
m/z	relative intensity
60	11
61	4
63	1
65	1
67	1
70	7
71	5
72	16
73	999
74	85
75	27
76	3
77	6
78	1
79	1
83	1
84	5
85	4
86	220
87	21
88	8
89	2
91	1
93	1
99	2
100	102
101	18
102	17
103	5
104	1
105	2
113	2
114	2
115	9
116	12
117	20
118	4
119	3
120	1
128	2
129	6
130	42
131	17
132	6
133	2
134	1
142	1
143	4
144	11
145	14
146	11
147	2
148	1
156	3
157	1
158	9
159	3
160	5
161	1
169	1
170	5
171	1
172	14
173	13
174	886
175	164
176	78
177	9
178	1
184	4
185	1
186	8
187	3
188	3
198	1
199	3
200	7
201	1
202	31
203	8
204	2
213	1
214	3
215	3
216	2
244	1
246	2
258	1
273	23
274	6
275	2
287	4
288	1
361	10
362	3
363	1
376	5
377	2
