Mass spectrum: L-Tyrosine; GC-EI-TOF; MS; 3 TMS; BP:73
Name: L-Tyrosine
Name: (S)-2-Amino-3-(p-hydroxyphenyl)propionic acid
Name: (S)-3-(p-Hydroxyphenyl)alanine
Class: Natural Product
Formula: C9H11NO3
Exact mass: 181.07389
SMILES: OC(=O)C(N)Cc(c1)ccc(O)c1
InChI: InChI=1S/C9H11NO3/c10-8(9(12)13)5-6-1-3-7(11)4-2-6/h1-4,8,11H,5,10H2,(H,12,13)/t8-/m0/s1
Instrument: Pegasus III TOF-MS system, Leco; GC 6890, Agilent Technologies
Instrument type: GC-EI-TOF
Ms type: MS
Ion mode: POSITIVE
Retention time: 469.708 sec
Base peak: 73
Derivative form: C18H35NO3Si3
Derivative mass: 397.19247
Derivative type: 3 TMS
m/z	relative intensity
60	5
61	8
62	1
63	3
64	1
65	4
66	3
67	1
70	4
71	3
72	17
73	999
74	93
75	75
76	7
77	19
78	5
79	6
82	2
83	2
84	3
85	3
86	9
87	3
88	1
89	9
90	7
91	17
92	2
93	1
95	2
98	1
99	1
100	202
101	26
102	11
103	12
104	3
105	9
106	1
107	2
109	1
115	8
116	3
117	11
118	6
119	6
120	1
121	2
123	1
128	1
129	1
130	18
131	14
132	21
133	23
134	5
135	9
136	1
137	1
144	2
145	3
146	6
147	93
148	18
149	21
150	3
151	3
158	2
159	3
160	5
161	3
162	2
163	16
164	6
165	8
166	1
172	1
174	5
175	3
176	6
177	6
178	1
179	53
180	12
181	4
182	1
188	1
190	3
191	2
192	11
193	3
194	1
202	1
203	4
204	1
205	1
206	1
207	4
208	1
209	1
217	1
218	537
219	107
220	48
221	6
222	1
223	1
248	1
250	1
264	1
265	6
266	2
267	1
278	1
279	3
280	49
281	13
282	5
292	1
354	11
355	5
356	2
382	5
383	2
