Mass spectrum: Cyanidin-3-glucoside; LC-ESI-QTOF; MS2; CE:30 V; [M-2H+H2O]-
Name: Cyanidin-3-glucoside
Name: (2S,3R,4S,5R,6R)-2-[2-(3,4-dihydroxyphenyl)-5,7-dihydroxy-chromen-3-yl]oxy-6-(hydroxymethyl)oxane-3,4,5-triol
Class: Natural Product
Formula: [C21H21O11]+
Exact mass: 449.10839
SMILES: OC[C@@H](O1)[C@@H](O)[C@H](O)[C@@H](O)[C@@H]1Oc(c3)c([o+1]c(c4)c(c(O)cc(O)4)3)c(c2)cc(O)c(O)c2
InChI: InChI=1S/C21H20O11/c22-7-16-17(27)18(28)19(29)21(32-16)31-15-6-10-12(25)4-9(23)5-14(10)30-20(15)8-1-2-11(24)13(26)3-8/h1-6,16-19,21-22,27-29H,7H2,(H3-,23,24,25,26)/p+1/t16-,17-,18+,19-,21-/m1/s1
Instrument: UPLC Q-Tof Premier, Waters
Instrument type: LC-ESI-QTOF
Ms type: MS2
Ion mode: NEGATIVE
Collision energy: 30 V
Fragmentation mode: LOW-ENERGY CID
Ionization: ESI
Full scan fragment ion peak: 465.1
Ion type: [M-2H+H2O]-
m/z	relative intensity
71.0257	56
81.0759	31
89.0464	55
101.0599	78
108.0822	36
109.0787	89
113.0987	42
121.0640	39
123.0206	51
124.0200	31
125.0618	541
125.9135	75
126.8857	30
135.9927	36
137.0809	92
138.0487	233
138.9259	51
145.1229	30
146.9734	31
148.0830	63
149.0546	638
149.9443	120
151.0536	53
161.0462	92
164.0556	139
165.0456	321
166.0466	999
167.0327	619
167.8925	104
168.8932	63
169.8742	38
171.0267	52
172.9254	38
173.9747	56
175.0711	392
176.0331	272
177.0045	97
177.9419	37
178.9977	44
185.0524	46
187.0369	31
189.0810	38
191.0674	43
192.0153	190
193.0049	157
193.8737	32
194.7682	32
197.0753	80
198.0376	125
199.0727	602
200.0131	151
201.0293	163
201.9467	45
202.9089	30
209.0897	37
210.9637	31
211.9205	31
213.0756	128
214.0372	42
215.0321	79
216.0333	70
217.0687	566
217.9711	124
218.9535	52
223.0376	54
226.0452	54
238.9897	35
240.0119	64
241.0715	838
242.0126	249
243.0264	297
243.9312	73
244.8930	31
257.0613	74
285.0582	465
285.9874	104
286.8959	33
329.0988	190
330.0419	49
