Mass spectrum: DL-3,4-Dihydroxymandelic acid; LC-ESI-QTOF; MS2; CE:Ramp 5-60 V; [M-H]-
Name: DL-3,4-Dihydroxymandelic acid
Name: 3,4-Dihydroxymandelate
Name: 3,4-Dihydroxyphenylglycolic acid
Name: alpha,3,4-Trihydroxyphenylacetic Acid
Class: Carboxylic acids
Formula: C8H8O5
Exact mass: 184.03717
SMILES: OC(=O)C(O)c(c1)cc(O)c(O)c1
InChI: InChI=1S/C8H8O5/c9-5-2-1-4(3-6(5)10)7(11)8(12)13/h1-3,7,9-11H,(H,12,13)
Instrument: UPLC Q-Tof Premier, Waters
Instrument type: LC-ESI-QTOF
Ms type: MS2
Ion mode: NEGATIVE
Collision energy: Ramp 5-60 V
Fragmentation mode: LOW-ENERGY CID
Ionization: ESI
Precursor m/z: 183.02937
Precursor type: [M-H]-
m/z	relative intensity
137.0242	999
139.0400	66
183.0294	305
