Mass spectrum: 4-Coumaric acid; LC-ESI-QTOF; MS2; CE:30 V; [M-H]-
Name: 4-Coumaric acid
Name: p-Coumaric acid
Name: trans-4-Hydroxycinnamic acid
Class: Carboxylic acids
Formula: C9H8O3
Exact mass: 164.04734
SMILES: OC(=O)C=Cc(c1)ccc(O)c1
InChI: InChI=1S/C9H8O3/c10-8-4-1-7(2-5-8)3-6-9(11)12/h1-6,10H,(H,11,12)/b6-3+
Instrument: UPLC Q-Tof Premier, Waters
Instrument type: LC-ESI-QTOF
Ms type: MS2
Ion mode: NEGATIVE
Collision energy: 30 V
Fragmentation mode: LOW-ENERGY CID
Ionization: ESI
Precursor m/z: 163.03954
Precursor type: [M-H]-
m/z	relative intensity
145.9019	999
162.9058	99
