Mass spectrum: Cyanidin-3-glucoside; LC-ESI-QTOF; MS2; CE:Ramp 5-60 V; [M-2H]-
Name: Cyanidin-3-glucoside
Name: (2S,3R,4S,5R,6R)-2-[2-(3,4-dihydroxyphenyl)-5,7-dihydroxy-chromen-3-yl]oxy-6-(hydroxymethyl)oxane-3,4,5-triol
Class: Natural Product
Formula: [C21H21O11]+
Exact mass: 449.10839
SMILES: OC[C@@H](O1)[C@@H](O)[C@H](O)[C@@H](O)[C@@H]1Oc(c3)c([o+1]c(c4)c(c(O)cc(O)4)3)c(c2)cc(O)c(O)c2
InChI: InChI=1S/C21H20O11/c22-7-16-17(27)18(28)19(29)21(32-16)31-15-6-10-12(25)4-9(23)5-14(10)30-20(15)8-1-2-11(24)13(26)3-8/h1-6,16-19,21-22,27-29H,7H2,(H3-,23,24,25,26)/p+1/t16-,17-,18+,19-,21-/m1/s1
Instrument: UPLC Q-Tof Premier, Waters
Instrument type: LC-ESI-QTOF
Ms type: MS2
Ion mode: NEGATIVE
Collision energy: Ramp 5-60 V
Fragmentation mode: LOW-ENERGY CID
Ionization: ESI
Full scan fragment ion peak: 447.1
Ion type: [M-2H]-
m/z	relative intensity
109.0290	32
125.0243	71
147.0084	120
148.0160	54
183.0452	55
187.0404	30
199.0404	44
211.0401	114
212.0478	55
227.0345	93
239.0347	84
240.0424	54
255.0299	168
256.0370	103
257.0447	50
283.0250	94
284.0326	999
285.0400	704
286.0441	67
447.0927	812
448.0964	107
