Mass spectrum: 3-Hydroxypyridine; LC-ESI-QTOF; MS2; CE:30 V; [M-H]-
Name: 3-Hydroxypyridine
Name: 3-Pyridinol
Name: beta-Oxypyridine
Name: Pyridin-3-ol
Name: 3-Oxopyridine
Name: 3-Pyridone
Name: 3-Pyridyl alcohol
Class: Pyridines
Formula: C5H5NO
Exact mass: 95.03711
SMILES: Oc(c1)cncc1
InChI: InChI=1S/C5H5NO/c7-5-2-1-3-6-4-5/h1-4,7H
Instrument: UPLC Q-Tof Premier, Waters
Instrument type: LC-ESI-QTOF
Ms type: MS2
Ion mode: NEGATIVE
Collision energy: 30 V
Fragmentation mode: LOW-ENERGY CID
Ionization: ESI
Precursor m/z: 94.02931
Precursor type: [M-H]-
m/z	relative intensity
94.0293	999
