Mass spectrum: L-Norleucine; LC-ESI-QTOF; MS2; CE:Ramp 5-60 V; [M+H]+
Name: L-Norleucine
Name: Nle
Name: L-2-Aminohexanoate
Name: (S)-(+)-2-Aminohexanoic acid
Name: (S)-2-Aminocaproic acid
Name: alpha-Aminocaproic acid
Name: Caprine
Name: Glycoleucine
Name: Norleucine
Class: Amino acids
Formula: C6H13NO2
Exact mass: 131.09463
SMILES: CCCC[C@H](N)C(O)=O
InChI: InChI=1S/C6H13NO2/c1-2-3-4-5(7)6(8)9/h5H,2-4,7H2,1H3,(H,8,9)/t5-/m0/s1
Instrument: UPLC Q-Tof Premier, Waters
Instrument type: LC-ESI-QTOF
Ms type: MS2
Ion mode: POSITIVE
Collision energy: Ramp 5-60 V
Fragmentation mode: LOW-ENERGY CID
Ionization: ESI
Precursor m/z: 132.10242
Precursor type: [M+H]+
m/z	relative intensity
69.0706	68
86.0954	999
88.0034	22
99.5113	25
115.9657	44
132.1024	57
