Mass spectrum: 1-Methoxy-3-carbaldehyde; LC-ESI-QTOF; MS2; CE:Ramp 5-60 V; [M+H]+
Name: 1-Methoxy-3-carbaldehyde
Name: 1-methoxyindole-3-carbaldehyde
Name: 3-Formyl-1-methoxyindole
Name: 1-Methoxy-3-formylindole
Class: Indole
Formula: C10H9NO2
Exact mass: 175.06333
SMILES: O=Cc(c1)c(c2)c(ccc2)n(OC)1
InChI: InChI=1S/C10H9NO2/c1-13-11-6-8(7-12)9-4-2-3-5-10(9)11/h2-7H,1H3
Instrument: UPLC Q-Tof Premier, Waters
Instrument type: LC-ESI-QTOF
Ms type: MS2
Ion mode: POSITIVE
Collision energy: Ramp 5-60 V
Fragmentation mode: LOW-ENERGY CID
Ionization: ESI
Precursor m/z: 176.07115
Precursor type: [M+H]+
m/z	relative intensity
89.0406	269
90.0481	255
104.0512	525
105.0587	407
116.0514	478
117.0589	599
132.0465	101
133.0532	999
144.0462	213
145.0537	179
148.0778	189
161.0482	451
176.0712	528
