Mass spectrum: 2'-Deoxyguanosine 5'-diphosphate; LC-ESI-QTOF; MS2; CE:Ramp 5-60 V; [M-H]-
Name: 2'-Deoxyguanosine-5'-diphosphate
Name: dGDP
Name: deoxy-GDP
Name: DGI
Name: 2'-Deoxyguanosine 5'-diphosphate
Class: Natural Product; Nucleoside; Phosphates
Formula: C10H15N5O10P2
Exact mass: 427.02941
SMILES: NC(N3)=Nc(c2C(=O)3)n(cn2)[C@@H](C1)O[C@H](COP(O)(=O)OP(O)(O)=O)[C@@H](O)1
InChI: InChI=1S/C10H15N5O10P2/c11-10-13-8-7(9(17)14-10)12-3-15(8)6-1-4(16)5(24-6)2-23-27(21,22)25-26(18,19)20/h3-6,16H,1-2H2,(H,21,22)(H2,18,19,20)(H3,11,13,14,17)/t4-,5+,6+/m0/s1
Instrument: UPLC Q-Tof Premier, Waters
Instrument type: LC-ESI-QTOF
Ms type: MS2
Ion mode: NEGATIVE
Collision energy: Ramp 5-60 V
Fragmentation mode: LOW-ENERGY CID
Ionization: ESI
Precursor m/z: 426.02162
Precursor type: [M-H]-
m/z	relative intensity
78.9603	999
158.9266	767
426.0216	903
