Mass spectrum: Rosmarinic acid; LC-ESI-QTOF; MS2; CE:Ramp 5-60 V; [M+Na]+
Name: Rosmarinic acid
Name: (2R)-3-(3,4-dihydroxyphenyl)-2-[(E)-3-(3,4-dihydroxyphenyl)prop-2-enoyl]oxypropanoic acid
Class: Natural Product
Formula: C18H16O8
Exact mass: 360.08452
SMILES: OC(=O)C(OC(=O)C=Cc(c2)cc(O)c(O)c2)Cc(c1)cc(O)c(O)c1
InChI: InChI=1S/C18H16O8/c19-12-4-1-10(7-14(12)21)3-6-17(23)26-16(18(24)25)9-11-2-5-13(20)15(22)8-11/h1-8,16,19-22H,9H2,(H,24,25)/b6-3+/t16-/m1/s1
Instrument: UPLC Q-Tof Premier, Waters
Instrument type: LC-ESI-QTOF
Ms type: MS2
Ion mode: POSITIVE
Collision energy: Ramp 5-60 V
Fragmentation mode: LOW-ENERGY CID
Ionization: ESI
Full scan fragment ion peak: 383.1
Ion type: [M+Na]+
m/z	relative intensity
89.0391	22
117.0340	24
135.0451	23
145.0292	26
163.0404	93
185.0219	321
185.0919	59
203.0341	41
221.0437	361
221.1210	68
383.0743	999
383.1765	150
384.0778	62
