Mass spectrum: D-(+)-Raffinose; LC-ESI-QTOF; MS2; CE:Ramp 5-60 V; [M-H]-
Name: D-(+)-Raffinose
Name: Gal(alpha1-6)Glc(alpha1-2beta)Fruf
Name: 6G-alpha-D-galactosylsucrose
Name: Raffinose
Name: Gossypose
Name: Melitose
Name: Melitriose
Class: Oligosaccharide
Formula: C18H32O16
Exact mass: 504.16903
SMILES: OC[C@@H](O1)[C@H](O)[C@H](O)[C@@H](O)[C@@H](OC[C@@H](O2)[C@@H](O)[C@H](O)[C@@H](O)[C@H]2O[C@](CO)(O3)[C@@H](O)[C@H](O)[C@@H](CO)3)1
InChI: InChI=1S/C18H32O16/c19-1-5-8(22)11(25)13(27)16(31-5)30-3-7-9(23)12(26)14(28)17(32-7)34-18(4-21)15(29)10(24)6(2-20)33-18/h5-17,19-29H,1-4H2/t5-,6-,7-,8+,9-,10-,11+,12+,13-,14-,15+,16+,17-,18+/m1/s1
Instrument: UPLC Q-Tof Premier, Waters
Instrument type: LC-ESI-QTOF
Ms type: MS2
Ion mode: NEGATIVE
Collision energy: Ramp 5-60 V
Fragmentation mode: LOW-ENERGY CID
Ionization: ESI
Precursor m/z: 503.16123
Precursor type: [M-H]-
m/z	relative intensity
59.0160	176
71.0156	373
87.0101	110
89.0256	383
101.0254	387
113.0253	198
161.0463	149
179.0570	577
221.0684	445
503.1612	999
