Mass spectrum: Trimethylamine N-oxide; LC-ESI-QTOF; MS2; CE:30 V; [M+H]+
Name: Trimethylamine N-oxide
Name: TMAO
Name: TMANO
Name: N,N-Dimethylmethanamine oxide
Class: Trimethylamine
Formula: C3H9NO
Exact mass: 75.06841
SMILES: C[N+1](C)(C)[O-1]
InChI: InChI=1S/C3H9NO/c1-4(2,3)5/h1-3H3
Instrument: UPLC Q-Tof Premier, Waters
Instrument type: LC-ESI-QTOF
Ms type: MS2
Ion mode: POSITIVE
Collision energy: 30 V
Fragmentation mode: LOW-ENERGY CID
Ionization: ESI
Precursor m/z: 76.07621
Precursor type: [M+H]+
m/z	relative intensity
58.0667	560
59.0736	220
60.0462	85
76.0762	999
