Mass spectrum: (+-)-alpha-Tocopherol; GC-EI-TOF; MS; 1 TMS; BP:73
Name: (+-)-alpha-Tocopherol
Class: Natural Product
Formula: C29H50O2
Exact mass: 430.38108
SMILES: O(C(CCCC(C)CCCC(C)CCCC(C)C)1C)c(c(C)2)c(c(C)c(O)c2C)CC1
InChI: InChI=1S/C29H50O2/c1-20(2)12-9-13-21(3)14-10-15-22(4)16-11-18-29(8)19-17-26-25(7)27(30)23(5)24(6)28(26)31-29/h20-22,30H,9-19H2,1-8H3/t21-,22-,29-/m1/s1
Instrument: Pegasus III TOF-MS system, Leco; GC 6890, Agilent Technologies
Instrument type: GC-EI-TOF
Ms type: MS
Ion mode: POSITIVE
Retention time: 676.867 sec
Base peak: 73
Derivative form: C32H58O2Si
Derivative mass: 502.42061
Derivative type: 1 TMS
m/z	relative intensity
60	2
61	4
62	1
63	2
65	6
66	1
67	21
69	29
70	9
71	82
72	7
73	999
74	82
75	61
76	5
77	14
78	3
79	10
80	1
81	31
82	3
83	21
84	2
85	14
86	1
87	1
88	1
89	2
91	19
92	2
93	6
94	1
95	16
96	2
97	12
98	1
99	3
102	1
103	7
104	2
105	11
106	1
107	6
108	1
109	8
110	1
111	6
113	1
115	7
116	2
117	9
118	2
119	23
120	3
121	6
122	1
123	3
124	1
125	1
127	2
128	5
129	5
130	2
131	8
132	1
133	7
134	3
135	7
136	4
137	2
139	1
141	2
142	2
143	3
144	2
145	6
146	1
147	4
148	3
149	10
150	1
151	1
153	1
155	1
157	2
158	1
159	9
160	2
161	5
162	1
163	8
164	3
165	9
166	1
169	1
171	2
172	1
173	4
174	1
175	4
176	2
177	11
178	4
179	5
180	1
181	1
185	1
186	1
187	5
188	1
189	5
190	1
191	7
192	3
193	20
194	5
195	2
201	2
202	1
203	4
204	3
205	7
206	4
207	12
208	29
209	12
210	3
211	1
215	1
216	1
217	2
218	2
219	5
220	5
221	28
222	9
223	24
224	8
225	3
229	1
230	1
231	2
232	1
233	5
234	5
235	8
236	197
237	340
238	73
239	19
240	2
244	1
245	2
246	1
247	5
248	3
249	6
250	2
251	1
259	1
260	1
261	5
262	6
263	4
264	1
275	6
276	2
277	24
278	5
279	1
332	1
346	1
360	1
361	1
374	1
416	1
500	2
501	20
502	118
503	61
504	20
505	5
506	1
