Mass spectrum: Indole-3-carboxyaldehyde; GC-EI-TOF; MS; 1 TMS; BP:73
Name: Indole-3-carboxyaldehyde
Name: Indole-3-carboxaldehyde
Name: Indole-3-carbaldehyde
Class: Natural Product
Formula: C9H7NO
Exact mass: 145.05276
SMILES: C1=CC=C2C(=C1)C(=CN2)C=O
InChI: InChI=1S/C9H7NO/c11-6-7-5-10-9-4-2-1-3-8(7)9/h1-6,10H
Instrument: Pegasus III TOF-MS system, Leco; GC 6890, Agilent Technologies
Instrument type: GC-EI-TOF
Ms type: MS
Ion mode: POSITIVE
Retention time: 459.826 sec
Base peak: 73
Derivative form: C12H15NOSi
Derivative mass: 217.09229
Derivative type: 1 TMS
m/z	relative intensity
60	7
61	8
62	20
63	24
64	8
65	7
66	4
67	5
69	1
70	7
71	5
72	10
73	999
74	89
75	55
76	14
77	18
78	5
79	7
80	1
81	1
83	3
84	17
85	4
86	5
87	10
88	29
89	72
90	10
91	16
92	4
93	3
94	1
95	1
98	1
99	1
100	3
101	20
102	11
103	28
104	9
105	11
106	2
107	1
113	1
114	30
115	81
116	37
117	16
118	4
119	5
120	2
127	2
128	14
129	9
130	44
131	14
132	11
133	4
134	3
135	1
140	1
141	5
142	41
143	33
144	17
145	11
146	17
147	5
148	2
154	1
155	3
156	11
157	4
158	13
159	4
160	7
161	2
162	2
168	1
169	4
170	8
171	6
172	10
173	13
174	12
175	2
176	1
181	1
182	1
183	1
184	5
185	4
186	15
187	5
188	22
189	19
190	4
195	1
197	2
198	1
199	8
200	2
201	2
202	1
204	31
205	5
206	1
213	5
214	16
215	116
216	32
217	7
218	1
219	2
231	1
245	2
246	245
247	50
248	13
249	1
