Mass spectrum: 2-Hydroxyisobutyric acid; LC-ESI-QTOF; MS2; CE:Ramp 5-60 V; [M-H]-
Name: 2-Hydroxyisobutyric acid
Name: 2-Methyllactic acid
Name: 2-Hydroxy-2-methylpropionic acid
Name: Acetonic Acid
Class: Carboxylic acids
Formula: C4H8O3
Exact mass: 104.04734
SMILES: OC(=O)C(C)(C)O
InChI: InChI=1S/C4H8O3/c1-4(2,7)3(5)6/h7H,1-2H3,(H,5,6)
Instrument: UPLC Q-Tof Premier, Waters
Instrument type: LC-ESI-QTOF
Ms type: MS2
Ion mode: NEGATIVE
Collision energy: Ramp 5-60 V
Fragmentation mode: LOW-ENERGY CID
Ionization: ESI
Precursor m/z: 103.03954
Precursor type: [M-H]-
m/z	relative intensity
57.0356	75
85.0273	11
103.0395	999
103.2074	10
103.2930	11
103.7494	12
103.8393	11
