Mass spectrum: Cyanidin-3-glucoside; LC-ESI-QTOF; MS2; CE:30 V; [M-2H]-
Name: Cyanidin-3-glucoside
Name: (2S,3R,4S,5R,6R)-2-[2-(3,4-dihydroxyphenyl)-5,7-dihydroxy-chromen-3-yl]oxy-6-(hydroxymethyl)oxane-3,4,5-triol
Class: Natural Product
Formula: [C21H21O11]+
Exact mass: 449.10839
SMILES: OC[C@@H](O1)[C@@H](O)[C@H](O)[C@@H](O)[C@@H]1Oc(c3)c([o+1]c(c4)c(c(O)cc(O)4)3)c(c2)cc(O)c(O)c2
InChI: InChI=1S/C21H20O11/c22-7-16-17(27)18(28)19(29)21(32-16)31-15-6-10-12(25)4-9(23)5-14(10)30-20(15)8-1-2-11(24)13(26)3-8/h1-6,16-19,21-22,27-29H,7H2,(H3-,23,24,25,26)/p+1/t16-,17-,18+,19-,21-/m1/s1
Instrument: UPLC Q-Tof Premier, Waters
Instrument type: LC-ESI-QTOF
Ms type: MS2
Ion mode: NEGATIVE
Collision energy: 30 V
Fragmentation mode: LOW-ENERGY CID
Ionization: ESI
Full scan fragment ion peak: 447.1
Ion type: [M-2H]-
m/z	relative intensity
109.0474	33
125.0605	61
147.0493	156
148.0087	65
148.9823	34
175.0518	34
200.0548	30
211.0608	47
212.0501	73
213.0322	45
217.0650	34
227.0646	42
228.0465	35
239.0440	88
240.0410	108
241.0151	69
241.9939	31
243.0357	32
255.0551	137
256.0447	147
257.0365	106
281.8434	32
283.0478	183
284.0462	999
285.0213	485
285.9505	120
286.8463	41
