Mass spectrum: Kaempferol; LC-ESI-QTOF; MS2; CE:30 eV; [M-H]-
Name: 3,4',5,7-tetrahydroxyflavone
Name: Kaempferol
Name: Kaem
Name: 3,5,7-trihydroxy-2-(4-hydroxyphenyl)chromen-4-one
Class: Natural Product
Formula: C15H10O6
Exact mass: 286.04774
SMILES: Oc(c3)ccc(c3)C(O1)=C(O)C(=O)c(c(O)2)c(cc(O)c2)1
InChI: InChI=1S/C15H10O6/c16-8-3-1-7(2-4-8)15-14(20)13(19)12-10(18)5-9(17)6-11(12)21-15/h1-6,16-18,20H
Instrument: UPLC Q-Tof Premier, Waters
Instrument type: LC-ESI-QTOF
Ms type: MS2
Ion mode: NEGATIVE
Collision energy: 30 eV
Fragmentation mode: LOW-ENERGY CID
Ionization: ESI
Full scan fragment ion peak: 285
Ion type: [M-H]-
m/z	relative intensity
50.5644	25
51.4676	23
52.4136	30
53.2875	29
54.2127	22
55.2823	28
58.9573	28
59.8702	22
60.8869	25
63.0446	96
64.0747	28
65.0786	126
66.0003	30
67.0539	53
69.0104	39
69.9423	21
70.8238	20
72.0766	20
74.6172	27
75.4740	22
77.0471	40
78.0449	20
79.0500	74
80.0285	65
81.0017	46
82.0036	28
83.0500	196
83.8994	39
84.9541	23
86.0858	24
89.0492	57
91.0593	157
92.0873	176
93.0676	999
93.9854	150
95.0551	179
96.0020	53
97.0403	30
103.1898	25
104.1064	21
105.0908	158
106.0276	60
107.0513	394
108.0639	489
109.0376	316
109.9277	53
111.2568	34
112.7401	20
114.1555	20
115.1314	61
116.1727	36
117.0751	657
117.9098	99
119.0742	218
120.0183	154
120.9995	143
121.9386	45
123.0460	152
123.9722	65
125.2215	32
126.8559	36
127.9269	46
129.0273	109
130.0572	163
131.0816	307
132.0248	120
133.0744	245
133.9427	58
135.0515	309
136.0390	205
137.0343	227
137.8563	55
139.0526	54
140.0088	33
141.0439	119
142.0636	112
143.0891	711
143.9902	148
145.0621	576
145.9295	143
147.0319	112
147.9552	58
148.9784	45
150.0483	33
151.0221	229
151.9410	66
152.9693	46
154.0671	280
155.0580	361
156.0760	350
157.0755	559
158.0283	332
159.0665	733
159.9560	171
161.0433	482
161.8954	99
163.0115	212
164.0143	217
165.0109	101
165.9855	46
167.0799	299
168.0288	160
169.0761	222
170.0492	122
171.0715	410
171.9852	102
173.0610	263
174.0066	117
175.0110	87
175.9731	34
176.9536	38
177.8132	20
179.0608	40
180.0178	38
181.0510	28
182.0578	140
183.0829	398
184.0469	326
185.0543	543
185.9664	171
187.0590	613
187.9721	149
188.9734	78
189.9567	46
190.9975	94
191.9998	66
192.9169	33
193.7756	23
195.0768	171
196.0077	74
196.9886	84
198.0272	94
199.0491	100
200.0546	66
201.0566	157
201.9591	53
209.0081	31
210.0628	133
211.0589	576
211.9972	174
213.0171	184
214.0131	260
215.0003	178
215.9017	63
216.8992	35
218.1631	25
219.0885	57
220.8813	20
223.0355	61
223.9845	30
224.8375	27
225.8030	47
227.0490	521
228.0157	127
229.0383	268
229.9445	61
231.4677	25
235.8513	21
238.0285	69
239.0543	470
240.0088	204
240.9618	87
241.9942	34
243.0377	111
243.9095	28
252.5667	20
255.0522	362
255.9836	102
257.0052	74
257.9217	25
266.0464	29
267.0702	147
268.0515	147
268.9888	38
282.7227	31
284.0126	81
285.0527	809
285.9692	166
287.0686	40
288.7403	20
