Mass spectrum: Guanosine; GC-EI-TOF; MS; 5 TMS; BP:73
Name: Guanosine
Class: Natural Product
Formula: C10H13N5O5
Exact mass: 283.091669
SMILES: C1=NC2=C(N1[C@H]3[C@@H]([C@@H]([C@H](O3)CO)O)O)N=C(NC2=O)N
InChI: InChI=1S/C10H13N5O5/c11-10-13-7-4(8(19)14-10)12-2-15(7)9-6(18)5(17)3(1-16)20-9/h2-3,5-6,9,16-18H,1H2,(H3,11,13,14,19)/t3-,5-,6-,9-/m1/s1
Instrument: Pegasus III TOF-MS system, Leco; GC 6890, Agilent Technologies
Instrument type: GC-EI-TOF
Ms type: MS
Ion mode: POSITIVE
Retention time: 644.893 sec
Base peak: 73
Derivative form: C25H53N5O5Si5
Derivative mass: 643.2893
Derivative type: 5 TMS
m/z	relative intensity
60	3
61	6
63	1
65	1
66	3
67	2
69	8
70	6
71	6
72	17
73	999
74	91
75	65
76	5
77	8
78	1
79	8
80	1
81	2
83	2
84	9
85	6
86	3
87	4
88	1
89	10
90	1
91	1
92	1
95	1
97	4
98	2
99	17
100	9
101	14
102	3
103	102
104	10
105	5
107	1
109	1
110	2
111	6
112	1
113	6
114	1
115	23
116	7
117	20
118	3
119	3
123	1
124	1
125	2
126	2
127	3
128	1
129	26
130	5
131	19
132	5
133	21
134	6
135	2
136	1
138	2
139	1
140	1
141	5
142	3
143	12
144	3
145	4
146	8
147	88
148	14
149	10
150	2
151	1
152	1
153	3
154	1
155	2
156	1
157	9
158	7
159	2
160	1
162	1
163	1
164	1
165	3
166	9
167	2
168	1
169	17
170	3
171	10
172	3
173	3
174	1
175	1
176	1
177	1
178	1
179	1
180	2
181	1
182	1
183	1
187	1
189	7
190	5
191	4
192	2
193	1
194	1
197	1
198	1
203	1
204	1
205	2
206	2
207	2
208	5
209	1
210	1
215	1
217	27
218	6
219	4
220	1
221	1
222	2
223	1
229	1
230	31
231	9
232	4
233	1
234	1
236	1
237	1
238	2
239	1
243	19
244	5
245	57
246	13
247	5
248	1
251	2
252	1
257	1
258	1
259	10
260	2
261	1
262	1
264	14
265	4
266	2
278	4
279	4
280	54
281	15
282	6
283	1
292	1
293	1
294	9
295	12
296	16
297	4
298	1
306	1
308	3
309	1
320	2
321	1
322	1
323	4
324	71
325	19
326	7
327	1
348	2
351	1
352	5
353	2
354	1
366	1
367	3
368	17
369	6
370	3
393	1
394	7
395	3
396	1
409	2
410	9
411	3
412	1
422	1
423	1
425	2
627	3
628	6
629	4
630	2
631	1
642	4
643	8
644	5
645	3
646	1
