Mass spectrum: L-(-)-Mandelic acid; LC-ESI-QTOF; MS2; CE:Ramp 5-60 V; [M-H]-
Name: (R)-(-)-mandelic acid
Name: D(-)-Mandelic acid
Name: (R)-Mandelate
Name: (R)-2-Hydroxy-2-phenylacetic acid
Name: (R)-2-Hydroxy-2-phenylacetate
Name: D-2-Phenylglycolic acid
Name: D-(-)-Amygdalic Acid
Name: L-(-)-Mandelic acid
Class: Carboxylic acids
Formula: C8H8O3
Exact mass: 152.04734
SMILES: OC(=O)[C@H](O)c(c1)cccc1
InChI: InChI=1S/C8H8O3/c9-7(8(10)11)6-4-2-1-3-5-6/h1-5,7,9H,(H,10,11)/t7-/m1/s1
Instrument: UPLC Q-Tof Premier, Waters
Instrument type: LC-ESI-QTOF
Ms type: MS2
Ion mode: NEGATIVE
Collision energy: Ramp 5-60 V
Fragmentation mode: LOW-ENERGY CID
Ionization: ESI
Precursor m/z: 151.03954
Precursor type: [M-H]-
m/z	relative intensity
107.0502	416
151.0395	999
