Mass spectrum: Quercetin 3-(6-O-acetyl-beta-glucoside); LC-ESI-QTOF; MS2; CE:Ramp 5-60 V; [M-H]-
Name: Quercetin-3-O-glucose-6''-acetate
Name: Quer-3-Glc-6pp-acetate
Name: quercetin-3-O-beta-D-glucopyranosyl-6''-acetate
Name: quercetin 3-(6''-acetylglucoside)
Name: Quercetin 3-(6-O-acetyl-beta-glucoside)
Class: Flavonoid
Formula: C23H22O13
Exact mass: 506.10604
SMILES: CC(=O)OCC(O1)C(O)C(O)C(O)C1OC(C(=O)3)=C(Oc(c4)c(c(O)cc(O)4)3)c(c2)cc(O)c(O)c2
InChI: InChI=1S/C23H22O13/c1-8(24)33-7-15-17(29)19(31)20(32)23(35-15)36-22-18(30)16-13(28)5-10(25)6-14(16)34-21(22)9-2-3-11(26)12(27)4-9/h2-6,15,17,19-20,23,25-29,31-32H,7H2,1H3/t15-,17-,19+,20-,23+/m1/s1
Instrument: UPLC Q-Tof Premier, Waters
Instrument type: LC-ESI-QTOF
Ms type: MS2
Ion mode: NEGATIVE
Collision energy: Ramp 5-60 V
Fragmentation mode: LOW-ENERGY CID
Ionization: ESI
Precursor m/z: 505.09824
Precursor type: [M-H]-
m/z	relative intensity
151.0056	107
179.0012	55
227.0382	56
243.0334	175
255.0335	327
271.0279	710
300.0304	999
301.0402	423
505.0982	868
