Mass spectrum: D-(+)-Trehalose; LC-ESI-QTOF; MS2; CE:Ramp 5-60 V; [M-H]-
Name: D-(+)-Trehalose
Name: Glc(alpha1-1alpha)Glc
Name: alpha-alpha-Trehalose
Name: Mycose
Name: alpha-D-Glucopyranosyl-alpha-D-glucopyranoside
Class: Disaccharide
Formula: C12H22O11
Exact mass: 342.11621
SMILES: OC[C@@H](O1)[C@@H](O)[C@H](O)[C@@H](O)[C@H]1O[C@@H](O2)[C@H](O)[C@@H](O)[C@H](O)[C@@H](CO)2
InChI: InChI=1S/C12H22O11/c13-1-3-5(15)7(17)9(19)11(21-3)23-12-10(20)8(18)6(16)4(2-14)22-12/h3-20H,1-2H2/t3-,4-,5-,6-,7+,8+,9-,10-,11-,12-/m1/s1
Instrument: UPLC Q-Tof Premier, Waters
Instrument type: LC-ESI-QTOF
Ms type: MS2
Ion mode: NEGATIVE
Collision energy: Ramp 5-60 V
Fragmentation mode: LOW-ENERGY CID
Ionization: ESI
Precursor m/z: 341.10841
Precursor type: [M-H]-
m/z	relative intensity
59.0152	386
71.0148	631
85.0298	100
89.0249	561
101.0245	644
113.0245	284
119.0348	231
143.0354	90
161.0457	116
179.0561	419
341.1084	999
