Mass spectrum: UDP-D-glucose; LC-ESI-QTOF; MS2; CE:Ramp 5-60 V; [M-H]-
Name: Uridine 5'-diphospho-D-glucose
Name: UDPG
Name: UDP-Glc
Name: UDP-glucose
Name: UDP-glucopyranoside
Name: UDP-D-glucose
Class: Nucleotide-carbohydrates
Formula: C15H24N2O17P2
Exact mass: 566.05502
SMILES: OC[C@@H](O1)[C@@H](O)[C@H](O)[C@@H](O)C1OP(O)(=O)OP(O)(=O)OC[C@@H](O2)[C@@H](O)[C@@H](O)[C@@H]2N(C=3)C(=O)NC(=O)C3
InChI: InChI=1S/C15H24N2O17P2/c18-3-5-8(20)10(22)12(24)14(32-5)33-36(28,29)34-35(26,27)30-4-6-9(21)11(23)13(31-6)17-2-1-7(19)16-15(17)25/h1-2,5-6,8-14,18,20-24H,3-4H2,(H,26,27)(H,28,29)(H,16,19,25)/t5-,6-,8-,9-,10+,11-,12-,13-,14-/m1/s1
Instrument: UPLC Q-Tof Premier, Waters
Instrument type: LC-ESI-QTOF
Ms type: MS2
Ion mode: NEGATIVE
Collision energy: Ramp 5-60 V
Fragmentation mode: LOW-ENERGY CID
Ionization: ESI
Precursor m/z: 565.04722
Precursor type: [M-H]-
m/z	relative intensity
78.9606	730
96.9708	455
111.0213	114
138.9813	60
150.9811	54
158.9265	227
211.0032	114
241.0141	203
272.9597	101
280.0260	62
320.9821	61
323.0308	999
384.9876	100
565.0472	882
