Mass spectrum: Syringetin-3-O-galactoside; LC-ESI-QTOF; MS2; CE:Ramp 5-60 V; [M+H]+
Name: Syringetin-3-O-galactoside
Name: Syrg-3-Gal
Class: Flavonoid
Formula: C23H24O13
Exact mass: 508.12169
SMILES: OCC(O1)C(O)C(O)C(O)C1OC(C(=O)3)=C(Oc(c4)c(c(O)cc(O)4)3)c(c2)cc(OC)c(O)c(OC)2
InChI: InChI=1S/C23H24O13/c1-32-12-3-8(4-13(33-2)16(12)27)21-22(18(29)15-10(26)5-9(25)6-11(15)34-21)36-23-20(31)19(30)17(28)14(7-24)35-23/h3-6,14,17,19-20,23-28,30-31H,7H2,1-2H3/t14-,17+,19+,20-,23+/m1/s1
Instrument: UPLC Q-Tof Premier, Waters
Instrument type: LC-ESI-QTOF
Ms type: MS2
Ion mode: POSITIVE
Collision energy: Ramp 5-60 V
Fragmentation mode: LOW-ENERGY CID
Ionization: ESI
Precursor m/z: 509.12949
Precursor type: [M+H]+
m/z	relative intensity
85.0297	34
91.0404	26
139.0399	22
153.0206	55
153.0557	38
165.0198	24
258.0539	51
259.0612	21
286.0483	47
287.0577	74
291.0870	22
303.0509	24
315.0513	31
331.0481	47
332.0551	24
347.0768	999
509.1295	22
