Mass spectrum: Sinapic acid; GC-EI-TOF; MS; 2 TMS; BP:73
Name: Sinapic acid
Name: 3,5-dimethoxy-4-hydroxycinnamic acid
Name: 3-(4-hydroxy-3,5-dimethoxy-phenyl)prop-2-enoic acid
Class: Natural Product
Formula: C11H12O5
Exact mass: 224.06847
SMILES: COC1=CC(=CC(=C1O)OC)/C=C/C(=O)O
InChI: InChI=1S/C11H12O5/c1-15-8-5-7(3-4-10(12)13)6-9(16-2)11(8)14/h3-6,14H,1-2H3,(H,12,13)/b4-3+
Instrument: Pegasus III TOF-MS system, Leco; GC 6890, Agilent Technologies
Instrument type: GC-EI-TOF
Ms type: MS
Ion mode: POSITIVE
Retention time: 486.654 sec
Base peak: 73
Derivative form: C17H28O5Si2
Derivative mass: 368.14753
Derivative type: 2 TMS
m/z	relative intensity
60	19
61	42
62	11
63	31
64	15
65	16
66	9
67	7
69	6
70	8
71	8
72	24
73	999
74	100
75	281
76	54
77	88
78	15
79	27
80	4
81	7
82	2
83	22
84	5
85	9
86	2
87	6
88	11
89	104
90	16
91	49
92	24
93	13
94	2
95	9
96	9
97	3
98	2
99	15
100	2
101	8
102	16
103	36
104	18
105	26
106	6
107	11
108	3
109	7
110	3
111	5
112	1
113	2
114	1
115	31
116	13
117	33
118	12
119	46
120	23
121	14
122	4
123	3
124	2
125	2
126	2
127	3
128	7
129	13
130	14
131	21
132	25
133	38
134	9
135	42
136	8
137	10
138	1
139	2
140	6
141	2
142	3
143	7
144	4
145	18
146	7
147	60
148	16
149	19
150	9
151	8
152	2
153	3
154	12
155	2
156	1
157	2
158	3
159	9
160	17
161	31
162	27
163	27
164	5
165	7
166	5
167	3
168	1
169	32
170	4
171	2
172	1
173	11
174	8
175	47
176	22
177	63
178	21
179	14
180	4
181	3
182	1
185	2
186	1
187	6
188	6
189	14
190	25
191	34
192	14
193	14
194	5
195	4
196	4
197	2
199	1
201	2
202	2
203	20
204	17
205	43
206	35
207	12
208	3
209	39
210	8
211	3
212	1
213	1
215	1
216	2
217	6
218	46
219	43
220	44
221	27
222	25
223	7
224	2
225	1
227	1
230	1
231	3
232	5
233	17
234	21
235	12
236	6
237	5
238	2
239	7
240	1
245	1
246	1
247	11
248	26
249	81
250	20
251	11
252	3
253	1
254	1
259	1
261	2
262	3
263	16
264	12
265	7
266	3
267	2
268	1
277	5
278	4
279	79
280	29
281	11
282	2
283	1
287	1
292	2
293	8
294	6
295	9
296	3
297	1
303	1
304	1
305	1
306	1
307	3
308	4
309	16
310	7
311	4
312	1
321	1
322	6
323	117
324	53
325	19
326	4
327	1
328	1
329	2
330	3
331	2
332	2
333	3
334	2
335	2
336	1
337	17
338	298
339	119
340	45
341	12
342	2
343	1
344	1
345	2
346	2
347	2
348	2
349	1
350	1
352	8
353	139
354	52
355	20
356	5
357	1
359	1
360	1
361	2
362	1
363	2
364	2
365	1
367	15
368	207
369	65
370	25
371	6
