Mass spectrum: Callistephin; LC-ESI-QTOF; MS2; CE:Ramp 5-60 V; [M-2H+H2O]-
Name: pelargonidin-3-O-glucoside
Name: pelargonidin 3-O-beta-D-glucopyranoside
Name: Callistephin
Class: Natural Product
Formula: [C21H21O10]+
Exact mass: 433.11347
SMILES: OCC(O1)C(O)C(O)C(O)C1Oc(c3)c([o+1]c(c4)c(c(O)cc(O)4)3)c(c2)ccc(O)c2
InChI: InChI=1S/C21H20O10/c22-8-16-17(26)18(27)19(28)21(31-16)30-15-7-12-13(25)5-11(24)6-14(12)29-20(15)9-1-3-10(23)4-2-9/h1-7,16-19,21-22,26-28H,8H2,(H2-,23,24,25)/p+1/t16-,17-,18+,19-,21-/m1/s1
Instrument: UPLC Q-Tof Premier, Waters
Instrument type: LC-ESI-QTOF
Ms type: MS2
Ion mode: NEGATIVE
Collision energy: Ramp 5-60 V
Fragmentation mode: LOW-ENERGY CID
Ionization: ESI
Full scan fragment ion peak: 449.1
Ion type: [M-2H+H2O]-
m/z	relative intensity
93.0330	21
119.0130	30
120.0208	22
147.0085	177
148.0158	82
167.0495	37
171.0441	28
183.0449	32
195.0455	68
196.0530	36
197.0599	21
199.0393	36
211.0392	63
212.0468	20
213.0542	40
223.0401	44
224.0471	73
225.0523	27
239.0348	92
240.0420	60
241.0492	69
267.0299	35
268.0370	613
269.0445	999
270.0488	70
431.0978	536
432.1028	55
