Mass spectrum: 2-Isopropylmalic acid; LC-ESI-QTOF; MS2; CE:Ramp 5-60 V; [M-H]-
Name: 2-Isopropylmalic acid
Name: 2-Isopropylmalate
Name: 2-Hydroxy-2-isopropylsuccinic acid
Name: 3-Carboxy-3-hydroxy-4-methylpentanoate
Name: 3-Carboxy-3-hydroxy-isocaproate
Name: 3-Carboxy-3-hydroxyisocaproate
Name: 2-Hydroxy-2-isopropylbutanedioate
Name: 3-Hydroxy-4-methyl-3-carboxypentanoate
Class: Carboxylic acids
Formula: C7H12O5
Exact mass: 176.06847
SMILES: OC(=O)CC(O)(C(C)C)C(O)=O
InChI: InChI=1S/C7H12O5/c1-4(2)7(12,6(10)11)3-5(8)9/h4,12H,3H2,1-2H3,(H,8,9)(H,10,11)
Instrument: UPLC Q-Tof Premier, Waters
Instrument type: LC-ESI-QTOF
Ms type: MS2
Ion mode: NEGATIVE
Collision energy: Ramp 5-60 V
Fragmentation mode: LOW-ENERGY CID
Ionization: ESI
Precursor m/z: 175.06067
Precursor type: [M-H]-
m/z	relative intensity
85.0663	431
113.0605	395
115.0399	999
131.0718	86
157.0510	96
175.0607	906
