Mass spectrum: Xanthosine; LC-ESI-QTOF; MS2; CE:Ramp 5-60 V; [M-H]-
Name: Xanthosine
Name: Xanthine Riboside
Name: 9-beta-D-Ribofuranosylxanthine
Class: Nucleoside
Formula: C10H12N4O6
Exact mass: 284.07568
SMILES: OC[C@@H](O1)[C@@H](O)[C@@H](O)[C@@H]1n(c3)c(N2)c(n3)C(=O)NC(=O)2
InChI: InChI=1S/C10H12N4O6/c15-1-3-5(16)6(17)9(20-3)14-2-11-4-7(14)12-10(19)13-8(4)18/h2-3,5-6,9,15-17H,1H2,(H2,12,13,18,19)/t3-,5-,6-,9-/m1/s1
Instrument: UPLC Q-Tof Premier, Waters
Instrument type: LC-ESI-QTOF
Ms type: MS2
Ion mode: NEGATIVE
Collision energy: Ramp 5-60 V
Fragmentation mode: LOW-ENERGY CID
Ionization: ESI
Derivative form: C10H12N4O6.2(H2O)
Derivative mass: 320.26
Precursor m/z: 283.06788
Precursor type: [M-H]-
m/z	relative intensity
108.0208	243
151.0257	999
283.0679	223
