Mass spectrum: L-Ornithine; GC-EI-TOF; MS; 2 TMS; BP:73
Name: L-Ornithine
Class: Natural Product
Formula: C5H12N2O2
Exact mass: 132.08988
SMILES: NCCC[C@H](N)C(O)=O
InChI: InChI=1S/C5H12N2O2/c6-3-1-2-4(7)5(8)9/h4H,1-3,6-7H2,(H,8,9)/t4-/m0/s1
Instrument: Pegasus III TOF-MS system, Leco; GC 6890, Agilent Technologies
Instrument type: GC-EI-TOF
Ms type: MS
Ion mode: POSITIVE
Retention time: 444.118 sec
Base peak: 73
Derivative form: C11H28N2O2Si2
Derivative mass: 276.16893
Derivative type: 2 TMS
m/z	relative intensity
60	19
61	9
66	2
68	1
69	4
70	20
71	7
72	23
73	999
74	117
75	46
76	4
82	1
83	3
84	4
85	8
86	112
87	13
88	4
90	5
91	1
95	1
96	2
97	4
98	12
99	9
100	99
101	18
102	60
103	15
104	5
105	1
110	7
111	3
112	17
113	8
114	28
115	18
116	14
117	20
118	4
119	3
120	1
125	2
126	17
127	14
128	48
129	12
130	40
131	24
132	23
133	24
134	3
135	2
139	1
140	7
141	7
142	566
143	93
144	39
145	3
146	25
147	56
148	12
149	7
150	1
152	3
153	3
154	4
155	1
156	1
157	1
158	4
159	2
160	7
161	3
162	2
163	1
168	2
169	4
170	4
171	3
172	28
173	7
174	257
175	50
176	33
177	5
178	1
184	1
186	10
187	9
188	6
189	14
190	4
191	8
192	1
193	1
198	3
199	1
200	46
201	12
202	13
203	5
204	13
205	2
212	1
213	1
214	32
215	11
216	34
217	14
218	18
219	3
220	4
221	1
222	1
225	1
228	1
229	1
230	2
231	3
232	3
233	1
241	5
242	5
243	2
244	4
245	1
246	2
248	1
258	26
259	25
260	8
261	2
287	3
288	1
301	1
303	7
304	2
305	1
315	2
316	3
317	1
330	9
331	2
332	2
405	2
406	2
419	2
420	21
421	8
422	5
423	1
