Mass spectrum: N-Acetyl-DL-aspartic acid; LC-ESI-QTOF; MS2; CE:Ramp 5-60 V; [M+H]+
Name: N-Acetyl-DL-aspartic acid
Name: Ac-Asp
Name: NAA
Name: N-Acetyl-aspartate
Name: N-Acetylaspartate
Name: 2-acetamidobutanedioic acid
Class: Amino acids
Formula: C6H9NO5
Exact mass: 175.04807
SMILES: CC(=O)NC(CC(O)=O)C(O)=O
InChI: InChI=1S/C6H9NO5/c1-3(8)7-4(6(11)12)2-5(9)10/h4H,2H2,1H3,(H,7,8)(H,9,10)(H,11,12)
Instrument: UPLC Q-Tof Premier, Waters
Instrument type: LC-ESI-QTOF
Ms type: MS2
Ion mode: POSITIVE
Collision energy: Ramp 5-60 V
Fragmentation mode: LOW-ENERGY CID
Ionization: ESI
Precursor m/z: 176.05587
Precursor type: [M+H]+
m/z	relative intensity
70.0284	91
71.0099	11
74.0233	715
75.0258	11
88.0383	999
89.0506	11
90.5054	14
98.0214	24
99.0084	61
99.5110	20
116.0337	365
130.0476	159
134.0437	992
135.0557	11
158.0445	161
176.0559	48
