Mass spectrum: L-(+)-Lysine; GC-EI-TOF; MS; 4 TMS; BP:156
Name: L-Lysine
Name: L-(+)-Lysine
Class: Natural Product
Formula: C6H14N2O2
Exact mass: 146.10553
SMILES: NCCCC[C@H](N)C(O)=O
InChI: InChI=1S/C6H14N2O2/c7-4-2-1-3-5(8)6(9)10/h5H,1-4,7-8H2,(H,9,10)/t5-/m0/s1
Instrument: Pegasus III TOF-MS system, Leco; GC 6890, Agilent Technologies
Instrument type: GC-EI-TOF
Ms type: MS
Ion mode: POSITIVE
Retention time: 465.997 sec
Base peak: 156
Derivative form: C18H46N2O2Si4
Derivative mass: 434.26363
Derivative type: 4 TMS
m/z	relative intensity
64	1
67	48
68	9
69	8
70	14
71	47
85	78
87	69
88	244
90	24
94	26
96	11
97	19
98	70
99	42
101	9
102	52
104	18
105	10
106	2
107	3
108	5
109	4
110	19
111	12
112	102
113	59
114	154
115	86
116	99
117	102
118	30
119	28
120	5
121	3
122	1
123	5
124	20
125	6
127	20
128	413
129	143
131	163
132	117
133	130
134	31
135	13
136	4
137	2
138	16
139	11
140	150
141	31
142	38
143	26
144	29
145	13
149	51
150	11
151	38
152	11
153	4
154	34
155	2
156	999
157	297
158	142
159	21
160	51
161	15
163	4
164	8
165	2
166	29
167	17
168	24
169	8
170	25
171	9
172	42
173	22
175	85
176	187
177	23
178	4
179	1
180	1
181	3
182	8
183	5
184	18
185	7
186	64
188	25
189	16
190	10
191	45
192	8
194	1
196	2
197	1
198	8
199	6
201	45
202	75
203	19
206	3
207	1
210	1
211	2
212	17
213	21
214	73
215	34
216	38
217	23
218	89
219	38
221	11
222	5
223	3
224	3
225	3
226	6
227	9
228	149
229	48
230	284
231	112
232	52
233	10
234	4
235	2
236	2
238	3
239	8
241	7
242	6
243	9
244	14
245	6
246	7
247	3
248	5
249	3
250	2
251	2
252	2
253	3
254	5
255	13
256	10
257	6
258	14
259	5
262	3
263	3
264	2
265	2
266	2
267	2
268	2
269	2
270	3
271	4
272	22
273	30
274	14
276	2
281	1
287	1
288	2
291	1
301	2
302	4
303	1
304	5
305	1
313	1
314	1
315	2
316	7
317	285
318	136
319	80
320	18
327	2
328	1
329	44
330	19
331	8
332	2
362	1
391	7
392	4
393	2
394	1
419	15
420	7
421	3
422	1
433	6
434	50
435	23
436	11
437	3
