Mass spectrum: Kaempferol-7-O-alpha-L-rhamnoside; LC-ESI-QTOF; MS2; CE:Ramp 5-60 V; [M-H]-
Name: Kaempferol-7-O-alpha-L-rhamnoside
Name: Kaem-7-Rha
Class: Flavonoid
Formula: C21H20O10
Exact mass: 432.10565
SMILES: Oc(c4)ccc(c4)C(O1)=C(O)C(=O)c(c(O)2)c(cc(OC(O3)C(O)C(O)C(O)C(C)3)c2)1
InChI: InChI=1S/C21H20O10/c1-8-15(24)17(26)19(28)21(29-8)30-11-6-12(23)14-13(7-11)31-20(18(27)16(14)25)9-2-4-10(22)5-3-9/h2-8,15,17,19,21-24,26-28H,1H3/t8-,15-,17+,19+,21-/m0/s1
Instrument: UPLC Q-Tof Premier, Waters
Instrument type: LC-ESI-QTOF
Ms type: MS2
Ion mode: NEGATIVE
Collision energy: Ramp 5-60 V
Fragmentation mode: LOW-ENERGY CID
Ionization: ESI
Precursor m/z: 431.09782
Precursor type: [M-H]-
m/z	relative intensity
107.0147	209
151.0041	538
257.0474	252
284.0347	451
285.0416	641
431.0978	999
