Mass spectrum: UDP-xylose; LC-ESI-QTOF; MS2; CE:Ramp 5-60 V; [M-H]-
Name: UDP-xylose
Name: UDP-Xly
Class: Natural Product; Nucleoside; Phosphates
Formula: C14H22N2O16P2
Exact mass: 536.04446
SMILES: O=C(C=3)NC(=O)N(C3)C(O1)C(O)C(O)C(COP(O)(=O)OP(O)(=O)OC(O2)C(O)C(O)C(O)C2)1
InChI: InChI=1S/C14H22N2O16P2/c17-5-3-28-13(11(22)8(5)19)31-34(26,27)32-33(24,25)29-4-6-9(20)10(21)12(30-6)16-2-1-7(18)15-14(16)23/h1-2,5-6,8-13,17,19-22H,3-4H2,(H,24,25)(H,26,27)(H,15,18,23)/t5-,6-,8+,9-,10-,11-,12-,13-/m1/s1
Instrument: UPLC Q-Tof Premier, Waters
Instrument type: LC-ESI-QTOF
Ms type: MS2
Ion mode: NEGATIVE
Collision energy: Ramp 5-60 V
Fragmentation mode: LOW-ENERGY CID
Ionization: ESI
Precursor m/z: 535.03666
Precursor type: [M-H]-
m/z	relative intensity
78.9604	724
96.9706	463
111.0208	123
138.9814	53
150.9810	52
158.9264	224
174.9811	22
192.9918	32
211.0032	196
272.9583	93
280.0250	55
290.9695	59
305.0214	29
323.0301	999
384.9874	91
535.0367	794
