Mass spectrum: D-(+)-Galacturonic acid; LC-ESI-QTOF; MS2; CE:Ramp 5-60 V; [M-H]-
Name: D(+)-Galacturonic acid
Name: D-galacturonate
Name: D-(+)-Galacturonic acid
Class: Carboxylic acids
Formula: C6H10O7
Exact mass: 194.04265
SMILES: OC(=O)[C@@H](O1)[C@H](O)[C@H](O)[C@@H](O)C(O)1
InChI: InChI=1S/C6H10O7/c7-1-2(8)4(5(10)11)13-6(12)3(1)9/h1-4,6-9,12H,(H,10,11)/t1-,2+,3+,4-,6?/m0/s1
Instrument: UPLC Q-Tof Premier, Waters
Instrument type: LC-ESI-QTOF
Ms type: MS2
Ion mode: NEGATIVE
Collision energy: Ramp 5-60 V
Fragmentation mode: LOW-ENERGY CID
Ionization: ESI
Precursor m/z: 193.03485
Precursor type: [M-H]-
m/z	relative intensity
59.0154	396
71.0147	947
72.9936	999
73.0306	266
85.0297	663
89.0245	329
95.0132	111
101.0242	344
103.0036	275
113.0243	911
131.0351	246
133.0132	145
193.0349	588
