Mass spectrum: Leu-Leu-Tyr; LC-ESI-QTOF; MS2; CE:Ramp 5-60 V; [M-H]-
Name: Leucylleucyltyrosine
Name: LLY
Name: Leu-Leu-Tyr
Name: Leucyl-leucyl-tyrosine
Formula: C21H33N3O5
Exact mass: 407.24202
SMILES: CC(C)CC(N)C(=O)NC(CC(C)C)C(=O)NC(C(O)=O)Cc(c1)ccc(O)c1
InChI: InChI=1S/C21H33N3O5/c1-12(2)9-16(22)19(26)23-17(10-13(3)4)20(27)24-18(21(28)29)11-14-5-7-15(25)8-6-14/h5-8,12-13,16-18,25H,9-11,22H2,1-4H3,(H,23,26)(H,24,27)(H,28,29)/t16-,17-,18-/m0/s1
Instrument: UPLC Q-Tof Premier, Waters
Instrument type: LC-ESI-QTOF
Ms type: MS2
Ion mode: NEGATIVE
Collision energy: Ramp 5-60 V
Fragmentation mode: LOW-ENERGY CID
Ionization: ESI
Precursor m/z: 406.23421
Precursor type: [M-H]-
m/z	relative intensity
119.0512	123
129.1039	290
180.0673	491
225.1620	141
242.1890	263
362.2480	154
406.2342	999
