Mass spectrum: Xanthine; LC-ESI-QTOF; MS2; CE:Ramp 5-60 V; [M-H]-
Name: Xanthine
Name: XAN
Name: 2,6-Dihydroxypurine
Name: 2,6-Dioxo-1,2,3,6-tetrahydropurine
Name: 2,6-Dioxopurine
Name: Xanthic oxide
Class: Purines
Formula: C5H4N4O2
Exact mass: 152.03343
SMILES: C1=NC2=C(N1)C(=O)NC(=O)N2
InChI: InChI=1S/C5H4N4O2/c10-4-2-3(7-1-6-2)8-5(11)9-4/h1H,(H3,6,7,8,9,10,11)
Instrument: UPLC Q-Tof Premier, Waters
Instrument type: LC-ESI-QTOF
Ms type: MS2
Ion mode: NEGATIVE
Collision energy: Ramp 5-60 V
Fragmentation mode: LOW-ENERGY CID
Ionization: ESI
Precursor m/z: 151.02562
Precursor type: [M-H]-
m/z	relative intensity
108.0203	582
151.0256	999
