Mass spectrum: 16-Hydroxyhexadecanoic acid; LC-ESI-QTOF; MS2; CE:Ramp 5-60 V; [M-H]-
Name: 16-Hydroxyhexadecanoic acid
Name: 16-Hydroxypalmitic acid
Name: Juniperic acid
Class: Fatty acids
Formula: C16H32O3
Exact mass: 272.23514
SMILES: OCCCCCCCCCCCCCCCC(O)=O
InChI: InChI=1S/C16H32O3/c17-15-13-11-9-7-5-3-1-2-4-6-8-10-12-14-16(18)19/h17H,1-15H2,(H,18,19)
Instrument: UPLC Q-Tof Premier, Waters
Instrument type: LC-ESI-QTOF
Ms type: MS2
Ion mode: NEGATIVE
Collision energy: Ramp 5-60 V
Fragmentation mode: LOW-ENERGY CID
Ionization: ESI
Precursor m/z: 271.22733
Precursor type: [M-H]-
m/z	relative intensity
84.9378	88
128.9300	72
271.2273	999
