Mass spectrum: L-beta-Homothreonine; LC-ESI-QTOF; MS2; CE:Ramp 5-60 V; [M-H]-
Name: L-beta-Homothreonine
Name: (3R,4R)-3-Amino-4-hydroxypentanoic acid
Class: Amino acids
Formula: C5H11NO3
Exact mass: 133.07389
SMILES: CC(O)C(N)CC(O)=O
InChI: InChI=1S/C5H11NO3/c1-3(7)4(6)2-5(8)9/h3-4,7H,2,6H2,1H3,(H,8,9)/t3-,4-/m1/s1
Instrument: UPLC Q-Tof Premier, Waters
Instrument type: LC-ESI-QTOF
Ms type: MS2
Ion mode: NEGATIVE
Collision energy: Ramp 5-60 V
Fragmentation mode: LOW-ENERGY CID
Ionization: ESI
Precursor m/z: 132.06609
Precursor type: [M-H]-
m/z	relative intensity
71.0513	115
86.0615	217
114.0553	174
132.0661	999
