Mass spectrum: Cyanidin-3,5-di-O-glucoside; LC-ESI-QTOF; MS2; CE:Ramp 5-60 V; [M-2H]-
Name: Cyanidin-3,5-di-O-glucoside
Name: Cynd-3-Glc-5-Glc
Name: Cyanin
Name: 2-(3,4-Dihydroxyphenyl)-3,5-bis(beta-D-glucopyranosyloxy)-7-hydroxy-1-benzopyrylium
Class: Anthocyanidin
Formula: [C27H31O16]+
Exact mass: 611.16121
SMILES: c(c(c([o+1]2)c(OC(O5)C(C(C(C5CO)O)O)O)cc(c3OC(O4)C(C(C(C4CO)O)O)O)c(cc(c3)O)2)1)c(O)c(O)cc1
InChI: InChI=1S/C27H30O16/c28-7-17-19(33)21(35)23(37)26(42-17)40-15-5-10(30)4-14-11(15)6-16(25(39-14)9-1-2-12(31)13(32)3-9)41-27-24(38)22(36)20(34)18(8-29)43-27/h1-6,17-24,26-29,33-38H,7-8H2,(H2-,30,31,32)/p+1/t17-,18-,19-,20-,21+,22+,23-,24-,26-,27-/m1/s1
Instrument: UPLC Q-Tof Premier, Waters
Instrument type: LC-ESI-QTOF
Ms type: MS2
Ion mode: NEGATIVE
Collision energy: Ramp 5-60 V
Fragmentation mode: LOW-ENERGY CID
Ionization: ESI
Precursor m/z: 609.14558
Precursor type: [M-2H]-
m/z	relative intensity
125.0234	123
147.0094	107
227.0353	113
255.0302	186
283.0253	800
284.0337	369
285.0411	966
446.0860	353
447.0934	999
609.1456	876
