Mass spectrum: Indole-3-carboxyaldehyde; GC-EI-TOF; MS; 1 TMS; BP:73
Name: Indole-3-carboxyaldehyde
Name: Indole-3-carboxaldehyde
Name: Indole-3-carbaldehyde
Class: Natural Product
Formula: C9H7NO
Exact mass: 145.05276
SMILES: C1=CC=C2C(=C1)C(=CN2)C=O
InChI: InChI=1S/C9H7NO/c11-6-7-5-10-9-4-2-1-3-8(7)9/h1-6,10H
Instrument: Pegasus III TOF-MS system, Leco; GC 6890, Agilent Technologies
Instrument type: GC-EI-TOF
Ms type: MS
Ion mode: POSITIVE
Retention time: 468.307 sec
Base peak: 73
Derivative form: C12H15NOSi
Derivative mass: 217.09229
Derivative type: 1 TMS
m/z	relative intensity
60	6
61	7
62	19
63	24
64	8
65	7
66	5
67	5
69	1
70	8
71	4
72	10
73	999
74	90
75	55
76	13
77	18
78	5
79	5
80	1
83	3
84	17
85	3
86	5
87	10
88	29
89	80
90	11
91	16
92	4
93	3
94	1
98	1
99	1
100	3
101	21
102	11
103	28
104	10
105	12
106	2
107	1
113	1
114	32
115	85
116	38
117	17
118	5
119	5
120	2
127	2
128	16
129	10
130	44
131	15
132	11
133	4
134	3
135	1
140	1
141	6
142	42
143	33
144	17
145	11
146	17
147	5
148	2
154	1
155	3
156	12
157	4
158	14
159	4
160	7
161	2
162	2
168	1
169	4
170	9
171	6
172	12
173	15
174	11
175	1
176	1
181	1
182	1
183	1
184	4
185	5
186	17
187	7
188	23
189	20
190	4
195	1
197	2
198	1
199	11
200	3
201	2
202	1
203	1
204	29
205	5
206	1
213	5
214	22
215	122
216	33
217	8
218	1
219	2
231	1
245	2
246	263
247	53
248	14
249	1
