Mass spectrum: Oenin; LC-ESI-QTOF; MS2; CE:Ramp 5-60 V; [M]+
Name: Oenin
Name: Malv-3-Glc
Name: malvidin-3-O-glucoside
Name: Cyclamin
Name: Enin
Name: malvidin-3-o-beta-d-glucopyranoside
Name: 3-(beta-D-glucopyranosyloxy)-5,7-dihydroxy-2-(4-hydroxy-3,5-dimethoxyphenyl)-1-benzopyrylium
Class: Anthocyanidin
Formula: [C23H25O12]+
Exact mass: 493.13460
SMILES: OCC(O1)C(O)C(O)C(O)C1Oc(c3)c([o+1]c(c4)c(c(O)cc(O)4)3)c(c2)cc(OC)c(O)c(OC)2
InChI: InChI=1S/C23H24O12/c1-31-14-3-9(4-15(32-2)18(14)27)22-16(7-11-12(26)5-10(25)6-13(11)33-22)34-23-21(30)20(29)19(28)17(8-24)35-23/h3-7,17,19-21,23-24,28-30H,8H2,1-2H3,(H2-,25,26,27)/p+1/t17-,19-,20+,21-,23-/m1/s1
Instrument: UPLC Q-Tof Premier, Waters
Instrument type: LC-ESI-QTOF
Ms type: MS2
Ion mode: POSITIVE
Collision energy: Ramp 5-60 V
Fragmentation mode: LOW-ENERGY CID
Ionization: ESI
Derivative form: C23H25O12.Cl
Derivative mass: 528.89
Precursor m/z: 493.13457
Precursor type: [M]+
m/z	relative intensity
287.0582	122
315.0533	204
331.0827	999
493.1346	193
