Mass spectrum: Apigenin; LC-ESI-QTOF; MS2; CE:Ramp 5-60 eV; [M-H]-
Name: 4',5,7-trihydroxyflavone
Name: Apigenin
Name: Apig
Name: 5,7-dihydroxy-2-(4-hydroxyphenyl)chromen-4-one
Class: Natural Product
Formula: C15H10O5
Exact mass: 270.05282
SMILES: Oc(c3)ccc(c3)C(=C1)Oc(c2)c(c(O)cc(O)2)C(=O)1
InChI: InChI=1S/C15H10O5/c16-9-3-1-8(2-4-9)13-7-12(19)15-11(18)5-10(17)6-14(15)20-13/h1-7,16-18H
Instrument: UPLC Q-Tof Premier, Waters
Instrument type: LC-ESI-QTOF
Ms type: MS2
Ion mode: NEGATIVE
Collision energy: Ramp 5-60 eV
Fragmentation mode: LOW-ENERGY CID
Ionization: ESI
Full scan fragment ion peak: 269
Ion type: [M-H]-
m/z	relative intensity
107.0134	56
117.0344	352
149.0245	81
151.0039	101
159.0452	21
201.0561	21
225.0562	43
227.0350	22
269.0450	999
269.2950	30
270.0498	36
