Mass spectrum: Delphinidin-3-O-(6''-O-alpha-rhamnopyranosyl-beta-glucopyranoside); LC-ESI-QTOF; MS2; CE:Ramp 5-60 V; [M]+
Name: Delphinidin-3-O-(6''-O-alpha-rhamnopyranosyl-beta-glucopyranoside)
Name: Dp 3-Rut
Name: Delphinidin 3-O-rutinoside
Name: tulipanin
Name: delphinidin-3-rutinoside
Name: delphinidin-3-(6-rhamnosylglucosuide)
Class: Anthocyanidin
Formula: [C27H31O16]+
Exact mass: 611.16121
SMILES: C(C5O)(O)C(C)OC(C5O)OCC(O1)C(C(C(C1Oc(c3)c([o+1]c(c4)c(c(O)cc4O)3)c(c2)cc(c(c2O)O)O)O)O)O
InChI: InChI=1S/C27H30O16/c1-8-18(32)21(35)23(37)26(40-8)39-7-17-20(34)22(36)24(38)27(43-17)42-16-6-11-12(29)4-10(28)5-15(11)41-25(16)9-2-13(30)19(33)14(31)3-9/h2-6,8,17-18,20-24,26-27,32,34-38H,7H2,1H3,(H4-,28,29,30,31,33)/p+1/t8-,17+,18-,20+,21+,22-,23+,24+,26+,27+/m0/s1
Instrument: UPLC Q-Tof Premier, Waters
Instrument type: LC-ESI-QTOF
Ms type: MS2
Ion mode: POSITIVE
Collision energy: Ramp 5-60 V
Fragmentation mode: LOW-ENERGY CID
Ionization: ESI
Derivative form: C27H31O16.Cl
Derivative mass: 646.98
Precursor m/z: 611.16118
Precursor type: [M]+
m/z	relative intensity
229.0499	15
257.0450	21
303.0501	999
304.0557	14
465.1014	14
611.1612	256
