Mass spectrum: D-Glucose 6-phosphate; GC-EI-TOF; MS; 6 TMS; 1 MEOX; BP:73
Name: D-Glucose-6-phosphate
Name: D-Glucose 6-phosphate
Class: Natural Product
Formula: C6H13O9P
Exact mass: 260.02972
SMILES: OC(O1)[C@H](O)[C@@H](O)[C@H](O)[C@H]1COP(O)(O)=O
InChI: InChI=1S/C6H13O9P/c7-3-2(1-14-16(11,12)13)15-6(10)5(9)4(3)8/h2-10H,1H2,(H2,11,12,13)/t2-,3-,4+,5-,6?/m1/s1
Instrument: Pegasus III TOF-MS system, Leco; GC 6890, Agilent Technologies
Instrument type: GC-EI-TOF
Ms type: MS
Ion mode: POSITIVE
Retention time: 538.069 sec
Base peak: 73
Derivative form: C25H64NO9PSi6
Derivative mass: 721.29343
Derivative type: 6 TMS; 1 MEOX
m/z	relative intensity
60	5
61	8
63	1
65	1
66	3
67	3
69	3
70	4
71	4
72	15
73	999
74	84
75	66
76	5
77	14
78	1
79	6
80	1
81	2
82	8
83	2
84	3
85	6
86	4
87	4
88	1
89	43
90	4
91	2
96	1
97	2
98	1
99	5
100	9
101	38
102	10
103	29
104	3
105	21
106	3
107	1
110	1
111	2
112	2
113	6
114	9
115	8
116	14
117	14
118	2
119	5
121	1
126	1
127	4
128	4
129	67
130	15
131	24
132	4
133	47
134	7
135	9
136	1
137	2
138	2
140	1
141	2
142	4
143	9
144	2
145	6
146	1
147	112
148	18
149	14
150	1
151	4
152	1
153	1
154	1
155	1
156	2
157	33
158	7
159	3
160	76
161	15
162	4
163	4
165	1
167	1
168	1
169	3
170	2
171	1
172	1
173	3
174	1
175	1
177	1
179	1
180	1
181	4
182	1
183	1
186	3
187	1
189	7
190	2
191	11
192	2
193	5
194	1
195	4
196	2
197	2
198	1
200	1
201	1
203	2
204	12
205	5
206	1
207	11
208	2
209	2
210	2
211	25
212	6
213	3
214	1
215	3
216	4
217	34
218	8
219	3
221	2
225	9
226	1
227	6
228	5
229	4
230	3
231	5
232	2
233	1
234	1
241	1
242	1
243	4
244	2
245	1
246	1
247	9
248	2
253	2
254	1
255	1
256	1
259	1
262	1
268	1
269	3
270	2
274	2
275	1
283	3
284	1
285	3
286	2
291	1
298	3
299	79
300	24
301	12
302	3
303	1
305	1
313	2
314	4
315	37
316	10
317	5
318	1
319	1
328	1
331	11
332	3
333	1
341	3
342	1
343	1
356	2
357	27
358	8
359	4
360	1
364	1
371	1
373	2
374	1
385	1
386	12
387	101
388	37
389	23
390	6
391	2
403	1
470	1
471	12
472	5
473	3
474	1
