Mass spectrum: 3,5-Dibromo-L-tyrosine; LC-ESI-QTOF; MS2; CE:Ramp 5-60 V; [M+H]+
Name: 3,5-Dibromo-L-tyrosine
Name: Tyr(3,5-diBr)
Name: Dibromotirina
Name: Bromotiren
Name: Biotiren
Name: beta-(3,5-dibromo-4-hydroxyphenyl)alanine
Class: Amino acids
Formula: C9H9Br2NO3
Exact mass: 336.89492
SMILES: OC(=O)[C@@H](N)Cc(c1)cc(Br)c(O)c(Br)1
InChI: InChI=1S/C9H9Br2NO3/c10-5-1-4(2-6(11)8(5)13)3-7(12)9(14)15/h1-2,7,13H,3,12H2,(H,14,15)/t7-/m0/s1
Instrument: UPLC Q-Tof Premier, Waters
Instrument type: LC-ESI-QTOF
Ms type: MS2
Ion mode: POSITIVE
Collision energy: Ramp 5-60 V
Fragmentation mode: LOW-ENERGY CID
Ionization: ESI
Precursor m/z: 337.90271
Precursor type: [M+H]+
m/z	relative intensity
133.0526	164
134.0613	166
171.9534	287
212.9804	786
278.8678	148
291.8989	999
337.9027	268
