Mass spectrum: Homogentisic acid; LC-ESI-QTOF; MS2; CE:Ramp 5-60 V; [M-H]-
Name: Homogentisic acid
Name: 2,5-DHPOP
Name: Homogentisate
Name: Homogentisinic acid
Name: 2,5-Dihydroxyphenylacetate
Name: 2,5-Dihydroxyphenylacetic acid
Name: Alcapton
Name: 2,5-Dihydroxybenzeneacetic acid
Class: Carboxylic acids
Formula: C8H8O4
Exact mass: 168.04226
SMILES: OC(=O)Cc(c1)c(O)ccc(O)1
InChI: InChI=1S/C8H8O4/c9-6-1-2-7(10)5(3-6)4-8(11)12/h1-3,9-10H,4H2,(H,11,12)
Instrument: UPLC Q-Tof Premier, Waters
Instrument type: LC-ESI-QTOF
Ms type: MS2
Ion mode: NEGATIVE
Collision energy: Ramp 5-60 V
Fragmentation mode: LOW-ENERGY CID
Ionization: ESI
Precursor m/z: 167.03446
Precursor type: [M-H]-
m/z	relative intensity
108.0212	196
122.0368	589
123.0444	999
167.0345	90
