Mass spectrum: Kaempferol-3-O-alpha-L-rhamnoside; LC-ESI-QTOF; MS2; CE:Ramp 5-60 V; [M+H]+
Name: Kaempferol-3-O-alpha-L-rhamnoside
Name: Kaempferol-3-Rhamnoside
Name: Kaem-3-Rha
Name: Afzelin
Class: Flavonoid
Formula: C21H20O10
Exact mass: 432.10565
SMILES: Oc(c4)ccc(c4)C(O1)=C(OC(O3)C(O)C(O)C(O)C(C)3)C(=O)c(c(O)2)c(cc(O)c2)1
InChI: InChI=1S/C21H20O10/c1-8-15(25)17(27)18(28)21(29-8)31-20-16(26)14-12(24)6-11(23)7-13(14)30-19(20)9-2-4-10(22)5-3-9/h2-8,15,17-18,21-25,27-28H,1H3/t8-,15-,17+,18+,21-/m0/s1
Instrument: UPLC Q-Tof Premier, Waters
Instrument type: LC-ESI-QTOF
Ms type: MS2
Ion mode: POSITIVE
Collision energy: Ramp 5-60 V
Fragmentation mode: LOW-ENERGY CID
Ionization: ESI
Precursor m/z: 433.11346
Precursor type: [M+H]+
m/z	relative intensity
57.0354	5
71.0504	155
85.0289	196
99.5104	6
107.0492	6
111.0078	8
121.0285	26
129.0538	72
137.0229	8
147.0603	11
153.0178	40
157.0686	6
165.0177	24
213.0522	16
231.0636	5
241.0492	8
258.0522	10
286.9748	6
287.0536	999
288.0566	23
433.1135	9
