Mass spectrum: Pyridoxal 5-phosphate; LC-ESI-QTOF; MS2; CE:Ramp 5-60 V; [M+H]+
Name: Pyridoxal 5'-phosphate
Name: PLP
Name: Pyridoxal-5P
Name: Codecarboxylase
Name: 3-Hydroxy-2-methyl-5-((phosphonooxy)methyl)-4-pyridinecarboxaldehyde
Name: Pyromijin
Name: Hairoxal
Name: Pidopidon
Name: Pyridoxal 5-phosphate
Class: Thiamine
Formula: C8H10NO6P
Exact mass: 247.02457
SMILES: O=Cc(c(O)1)c(cnc(C)1)COP(O)(O)=O
InChI: InChI=1S/C8H10NO6P/c1-5-8(11)7(3-10)6(2-9-5)4-15-16(12,13)14/h2-3,11H,4H2,1H3,(H2,12,13,14)
Instrument: UPLC Q-Tof Premier, Waters
Instrument type: LC-ESI-QTOF
Ms type: MS2
Ion mode: POSITIVE
Collision energy: Ramp 5-60 V
Fragmentation mode: LOW-ENERGY CID
Ionization: ESI
Precursor m/z: 248.03237
Precursor type: [M+H]+
m/z	relative intensity
67.0549	147
94.0657	315
122.0602	283
150.0556	999
248.0324	368
