Mass spectrum: 7-Methylquercetin-3-Galactoside-6''-Rhamnoside-3'''-Rhamnoside; LC-ESI-QTOF; MS2; CE:Ramp 5-60 V; [M-H]-
Name: 7-Methylquercetin-3-Galactoside-6''-Rhamnoside-3'''-Rhamnoside
Class: Flavonoid
Formula: C34H42O20
Exact mass: 770.22694
SMILES: O(C(OCC(C(O)6)OC(C(O)C(O)6)OC(C(=O)3)=C(c(c5)cc(c(c5)O)O)Oc(c4)c3c(O)cc(OC)4)1)C(C)C(O)C(OC(C2O)OC(C)C(C2O)O)C1O
InChI: InChI=1S/C34H42O20/c1-10-20(38)24(42)26(44)33(50-10)53-30-21(39)11(2)49-32(28(30)46)48-9-18-22(40)25(43)27(45)34(52-18)54-31-23(41)19-16(37)7-13(47-3)8-17(19)51-29(31)12-4-5-14(35)15(36)6-12/h4-8,10-11,18,20-22,24-28,30,32-40,42-46H,9H2,1-3H3/t10-,11-,18+,20-,21-,22-,24+,25-,26+,27+,28+,30+,32+,33-,34-/m0/s1
Instrument: UPLC Q-Tof Premier, Waters
Instrument type: LC-ESI-QTOF
Ms type: MS2
Ion mode: NEGATIVE
Collision energy: Ramp 5-60 V
Fragmentation mode: LOW-ENERGY CID
Ionization: ESI
Precursor m/z: 769.21911
Precursor type: [M-H]-
m/z	relative intensity
271.0261	50
299.0201	223
314.0435	507
315.0518	378
769.2191	999
770.2275	292
