Mass spectrum: L(+)-Cystathionine; LC-ESI-QTOF; MS2; CE:30 V; [M+H]+
Name: Cystathionine
Name: DL,DL-allo-Cystathionine
Name: S-(2-Amino-2-carboxyethyl)homocysteine
Name: L(+)-Cystathionine
Class: Amino acids
Formula: C7H14N2O4S
Exact mass: 222.06743
SMILES: OC(=O)[C@@H](N)CCSC[C@@H](N)C(O)=O
InChI: InChI=1S/C7H14N2O4S/c8-4(6(10)11)1-2-14-3-5(9)7(12)13/h4-5H,1-3,8-9H2,(H,10,11)(H,12,13)/t4-,5-/m0/s1
Instrument: UPLC Q-Tof Premier, Waters
Instrument type: LC-ESI-QTOF
Ms type: MS2
Ion mode: POSITIVE
Collision energy: 30 V
Fragmentation mode: LOW-ENERGY CID
Ionization: ESI
Precursor m/z: 223.07522
Precursor type: [M+H]+
m/z	relative intensity
88.0295	61
134.0360	216
191.0155	55
207.0452	819
223.0752	999
