Mass spectrum: 3,4-Dimethoxycinnamic acid; LC-ESI-QTOF; MS2; CE:30 V; [M+H-H2O]+
Name: 3,4-Dimethoxycinnamic acid
Name: Dimethyl caffeic acid
Name: (E)-3-(3,4-dimethoxyphenyl)prop-2-enoic acid
Class: Natural Product
Formula: C11H12O4
Exact mass: 208.07356
SMILES: COc(c1)c(OC)cc(C=CC(O)=O)c1
InChI: InChI=1S/C11H12O4/c1-14-9-5-3-8(4-6-11(12)13)7-10(9)15-2/h3-7H,1-2H3,(H,12,13)/b6-4+
Instrument: UPLC Q-Tof Premier, Waters
Instrument type: LC-ESI-QTOF
Ms type: MS2
Ion mode: POSITIVE
Collision energy: 30 V
Fragmentation mode: LOW-ENERGY CID
Ionization: ESI
Full scan fragment ion peak: 191.1
Ion type: [M+H-H2O]+
m/z	relative intensity
65.0404	57
77.0402	388
89.0408	431
89.0902	39
90.0485	180
91.0564	999
91.1062	113
92.0269	30
92.0642	61
102.0485	306
102.0994	37
103.0569	131
105.0360	397
105.0896	49
117.0364	291
118.0443	214
119.0518	409
119.1077	39
120.0598	92
131.0526	54
132.0599	239
133.0317	260
147.0480	150
148.0556	79
