Mass spectrum: L-Cysteine; GC-EI-TOF; MS; 4 TMS; BP:73
Name: L-Cysteine
Name: L-2-Amino-3-mercaptopropionic acid
Class: Natural Product
Formula: C3H7NO2S
Exact mass: 121.01975
SMILES: N[C@@H](CS)C(O)=O
InChI: InChI=1S/C3H7NO2S/c4-2(1-7)3(5)6/h2,7H,1,4H2,(H,5,6)/t2-/m0/s1
Instrument: Pegasus III TOF-MS system, Leco; GC 6890, Agilent Technologies
Instrument type: GC-EI-TOF
Ms type: MS
Ion mode: POSITIVE
Retention time: 535.313 sec
Base peak: 73
Derivative form: C15H39NO2SSi4
Derivative mass: 409.17786
Derivative type: 4 TMS
m/z	relative intensity
60	13
61	12
62	1
63	1
64	1
66	6
67	1
70	26
71	5
72	26
73	999
74	110
75	101
76	15
77	25
78	2
79	4
82	1
83	2
84	6
85	5
86	14
87	7
88	2
89	3
90	3
91	6
92	1
93	2
95	1
98	6
99	3
100	221
101	35
102	17
103	14
104	2
105	4
106	1
107	1
112	1
113	2
114	26
115	68
116	33
117	15
118	4
119	3
120	10
121	1
122	1
128	3
129	11
130	16
131	30
132	42
133	25
134	6
135	2
142	2
143	1
144	11
145	5
146	359
147	190
148	87
149	21
150	5
151	1
158	3
159	4
160	4
161	2
162	1
163	4
164	1
172	8
173	2
174	9
175	2
176	2
178	19
179	4
180	4
181	1
188	14
189	4
190	3
191	1
200	1
202	4
203	7
204	3
205	1
206	1
216	27
217	8
218	359
219	74
220	47
221	9
222	4
223	1
231	2
232	42
233	9
234	4
248	3
249	5
250	4
251	1
252	1
260	4
261	2
262	2
263	1
264	34
265	19
266	69
267	15
268	8
269	1
288	7
289	5
290	2
291	2
292	1
296	8
297	23
298	6
299	4
322	2
338	3
339	1
410	2
411	26
412	9
413	6
414	1
