Mass spectrum: Caffeic acid; LC-ESI-QTOF; MS2; CE:30 V; [M-H]-
Name: 3,4-dihydroxycinnamic acid
Name: Caffeic acid
Name: (E)-3-(3,4-dihydroxyphenyl)prop-2-enoic acid
Class: Natural Product
Formula: C9H8O4
Exact mass: 180.04226
SMILES: C1=CC(=C(C=C1/C=C/C(=O)O)O)O
InChI: InChI=1S/C9H8O4/c10-7-3-1-6(5-8(7)11)2-4-9(12)13/h1-5,10-11H,(H,12,13)/b4-2+
Instrument: UPLC Q-Tof Premier, Waters
Instrument type: LC-ESI-QTOF
Ms type: MS2
Ion mode: NEGATIVE
Collision energy: 30 V
Fragmentation mode: LOW-ENERGY CID
Ionization: ESI
Full scan fragment ion peak: 179
Ion type: [M-H]-
m/z	relative intensity
89.0700	213
91.0605	44
106.0953	70
107.0746	115
108.0200	84
109.0343	60
117.0726	79
132.0468	49
133.0925	85
134.0720	999
135.0622	959
135.9078	146
136.8337	44
