Mass spectrum: L-beta-Homotyrosine; LC-ESI-QTOF; MS2; CE:Ramp 5-60 V; [M-H]-
Name: L-beta-Homotyrosine
Name: (S)-3-Amino-4-(4-hydroxyphenyl)butyric acid
Class: Amino acids
Formula: C10H13NO3
Exact mass: 195.08954
SMILES: OC(=O)CC(N)Cc(c1)ccc(O)c1
InChI: InChI=1S/C10H13NO3/c11-8(6-10(13)14)5-7-1-3-9(12)4-2-7/h1-4,8,12H,5-6,11H2,(H,13,14)/t8-/m1/s1
Instrument: UPLC Q-Tof Premier, Waters
Instrument type: LC-ESI-QTOF
Ms type: MS2
Ion mode: NEGATIVE
Collision energy: Ramp 5-60 V
Fragmentation mode: LOW-ENERGY CID
Ionization: ESI
Precursor m/z: 194.08174
Precursor type: [M-H]-
m/z	relative intensity
133.0657	999
134.0617	133
194.0817	920
