Mass spectrum: Gly-Gly; LC-ESI-QTOF; MS2; CE:Ramp 5-60 V; [M+H]+
Name: Gly-Gly
Name: Glycylglycine
Name: Diglycine
Name: 2-(Aminoacetamido)acetic Acid
Name: Glycine dipeptide
Class: Dipeptide
Formula: C4H8N2O3
Exact mass: 132.05349
SMILES: NCC(=O)NCC(O)=O
InChI: InChI=1S/C4H8N2O3/c5-1-3(7)6-2-4(8)9/h1-2,5H2,(H,6,7)(H,8,9)
Instrument: UPLC Q-Tof Premier, Waters
Instrument type: LC-ESI-QTOF
Ms type: MS2
Ion mode: POSITIVE
Collision energy: Ramp 5-60 V
Fragmentation mode: LOW-ENERGY CID
Ionization: ESI
Precursor m/z: 133.06129
Precursor type: [M+H]+
m/z	relative intensity
112.0165	90
133.0613	999
