Mass spectrum: Adenine; GC-EI-TOF; MS; 2 TMS; BP:73
Name: Adenine
Name: 6-Aminopurine
Class: Natural Product
Formula: C5H5N5
Exact mass: 135.05450
SMILES: C1=NC2=C(N1)C(=NC=N2)N
InChI: InChI=1S/C5H5N5/c6-4-3-5(9-1-7-3)10-2-8-4/h1-2H,(H3,6,7,8,9,10)
Instrument: Pegasus III TOF-MS system, Leco; GC 6890, Agilent Technologies
Instrument type: GC-EI-TOF
Ms type: MS
Ion mode: POSITIVE
Retention time: 455.617 sec
Base peak: 73
Derivative form: C11H21N5Si2
Derivative mass: 279.13355
Derivative type: 2 TMS
m/z	relative intensity
60	11
61	2
63	1
64	2
65	3
66	5
67	6
68	2
69	17
70	43
71	29
72	33
73	999
74	137
75	31
76	4
77	6
78	3
79	12
80	3
81	5
82	5
83	7
84	141
85	76
86	22
87	5
88	5
89	1
90	1
92	4
93	7
94	3
95	13
96	9
97	9
98	13
99	69
100	43
101	18
102	4
103	2
106	1
107	4
108	3
109	5
110	11
111	52
112	8
113	6
114	3
115	2
116	4
117	1
118	1
119	3
120	2
121	2
122	6
123	16
124	8
125	15
126	5
127	2
128	1
130	15
131	2
132	3
134	2
135	10
136	5
137	14
138	16
139	4
140	3
141	5
142	2
143	1
146	1
147	1
148	2
149	7
150	6
151	7
152	8
153	3
154	2
155	2
156	2
157	5
158	1
161	1
162	6
163	3
164	17
165	52
166	11
167	6
168	3
169	1
171	3
172	1
175	1
176	18
177	5
178	4
179	11
180	17
181	4
182	3
183	3
184	1
189	1
190	2
191	16
192	130
193	21
194	10
195	2
196	2
204	1
205	1
206	34
207	12
208	4
209	2
210	3
211	1
220	1
221	7
222	7
223	3
224	1
234	4
235	3
236	3
237	16
238	10
239	3
240	1
248	9
249	3
250	1
251	1
262	2
263	7
264	566
265	136
266	54
267	8
268	1
278	14
279	115
280	29
281	10
282	1
