Mass spectrum: Daidzein; LC-ESI-QTOF; MS2; CE:Ramp 5-60 V; [M+H]+
Name: Daidzein
Name: Ddze
Name: 4',7-dihydroxyisoflavone
Name: Daidzeol
Name: 7-Hydroxy-3-(4-hydroxyphenyl)-4-benzopyrone
Name: 7-Hydroxy-3-(4-hydroxy?phenyl)-4H-1-benzo?pyran-4-one
Name: 7-Hydroxy-3-(4-hydroxy?phenyl)?chromone
Class: Isoflavones
Formula: C15H10O4
Exact mass: 254.05791
SMILES: Oc(c3)ccc(c3)C(=C1)C(=O)c(c2)c(cc(O)c2)O1
InChI: InChI=1S/C15H10O4/c16-10-3-1-9(2-4-10)13-8-19-14-7-11(17)5-6-12(14)15(13)18/h1-8,16-17H
Instrument: UPLC Q-Tof Premier, Waters
Instrument type: LC-ESI-QTOF
Ms type: MS2
Ion mode: POSITIVE
Collision energy: Ramp 5-60 V
Fragmentation mode: LOW-ENERGY CID
Ionization: ESI
Precursor m/z: 255.06571
Precursor type: [M+H]+
m/z	relative intensity
91.0574	181
128.0664	81
137.0274	215
152.0669	155
153.0748	110
181.0704	182
199.0808	233
227.0766	103
237.0619	52
255.0657	999
