Mass spectrum: Putrescine; LC-ESI-QTOF; MS2; CE:Ramp 5-60 V; [M+H]+
Name: 1,4-Diaminobutane
Name: 1,4-Butanediamine
Name: Putrescine
Name: Tetramethylenediamine
Class: Diamine
Formula: C4H12N2
Exact mass: 88.10005
SMILES: NCCCCN
InChI: InChI=1S/C4H12N2/c5-3-1-2-4-6/h1-6H2
Instrument: UPLC Q-Tof Premier, Waters
Instrument type: LC-ESI-QTOF
Ms type: MS2
Ion mode: POSITIVE
Collision energy: Ramp 5-60 V
Fragmentation mode: LOW-ENERGY CID
Ionization: ESI
Precursor m/z: 89.10784
Precursor type: [M+H]+
m/z	relative intensity
72.0827	137
89.1078	999
