Mass spectrum: Isorhamnetin; LC-ESI-QTOF; MS2; CE:Ramp 5-60 eV; [M-H]-
Name: 3,4',5,7-tetrahydroxy-3'-methoxyflavone
Name: Isorhamnetin
Name: Isor
Name: 3,5,7-trihydroxy-2-(4-hydroxy-3-methoxy-phenyl)chromen-4-one
Class: Natural Product
Formula: C16H12O7
Exact mass: 316.05830
SMILES: COc(c(O)3)cc(cc3)C(O1)=C(O)C(=O)c(c(O)2)c(cc(O)c2)1
InChI: InChI=1S/C16H12O7/c1-22-11-4-7(2-3-9(11)18)16-15(21)14(20)13-10(19)5-8(17)6-12(13)23-16/h2-6,17-19,21H,1H3
Instrument: UPLC Q-Tof Premier, Waters
Instrument type: LC-ESI-QTOF
Ms type: MS2
Ion mode: NEGATIVE
Collision energy: Ramp 5-60 eV
Fragmentation mode: LOW-ENERGY CID
Ionization: ESI
Full scan fragment ion peak: 315.1
Ion type: [M-H]-
m/z	relative intensity
63.0217	23
65.0011	20
83.0127	42
107.0134	93
108.0212	69
120.0215	20
136.0164	28
148.0168	58
151.0038	165
163.0037	52
164.0116	51
227.0351	38
243.0300	34
255.0298	44
271.0251	62
283.0248	34
300.0272	714
301.0313	25
315.0504	999
315.3217	22
316.0542	38
