Mass spectrum: Syringetin-3-O-galactoside; LC-ESI-QTOF; MS2; CE:30 V; [M-H]-
Name: Syringetin-3-O-galactoside
Name: Syrg-3-Gal
Class: Flavonoid
Formula: C23H24O13
Exact mass: 508.12169
SMILES: OCC(O1)C(O)C(O)C(O)C1OC(C(=O)3)=C(Oc(c4)c(c(O)cc(O)4)3)c(c2)cc(OC)c(O)c(OC)2
InChI: InChI=1S/C23H24O13/c1-32-12-3-8(4-13(33-2)16(12)27)21-22(18(29)15-10(26)5-9(25)6-11(15)34-21)36-23-20(31)19(30)17(28)14(7-24)35-23/h3-6,14,17,19-20,23-28,30-31H,7H2,1-2H3/t14-,17+,19+,20-,23+/m1/s1
Instrument: UPLC Q-Tof Premier, Waters
Instrument type: LC-ESI-QTOF
Ms type: MS2
Ion mode: NEGATIVE
Collision energy: 30 V
Fragmentation mode: LOW-ENERGY CID
Ionization: ESI
Precursor m/z: 507.11389
Precursor type: [M-H]-
m/z	relative intensity
241.0150	57
242.0220	101
258.0174	77
269.0093	57
270.0171	65
273.0407	593
286.0132	60
287.0563	126
301.0355	465
315.0395	84
316.0595	253
329.0310	277
330.0394	108
344.0540	999
345.0624	161
507.1139	38
