Mass spectrum: Sinapoyl malate; LC-ESI-QTOF; MS2; CE:Ramp 5-60 V; [M-H]-
Name: Sinapoyl malate
Name: Sinapoyl-(S)-malate
Name: 2-O-sinapoylmalate
Class: Carboxylic ester
Formula: C15H16O9
Exact mass: 340.07943
SMILES: OC(=O)CC(C(O)=O)OC(=O)C=Cc(c1)cc(OC)c(O)c(OC)1
InChI: InChI=1S/C15H16O9/c1-22-9-5-8(6-10(23-2)14(9)19)3-4-13(18)24-11(15(20)21)7-12(16)17/h3-6,11,19H,7H2,1-2H3,(H,16,17)(H,20,21)/b4-3+/t11-/m0/s1
Instrument: UPLC Q-Tof Premier, Waters
Instrument type: LC-ESI-QTOF
Ms type: MS2
Ion mode: NEGATIVE
Collision energy: Ramp 5-60 V
Fragmentation mode: LOW-ENERGY CID
Ionization: ESI
Precursor m/z: 339.07161
Precursor type: [M-H]-
m/z	relative intensity
71.0153	161
93.0348	46
115.0032	122
121.0289	292
133.0134	143
147.0444	48
149.0235	690
164.0467	504
179.0704	46
193.0131	27
208.0370	50
223.0596	999
224.0650	27
339.0716	28
