Mass spectrum: Naringenin; LC-ESI-QTOF; MS2; CE:Ramp 5-60 eV; [M+H]+
Name: 4',5,7-trihydroxyflavanone
Name: Naringenin
Name: Nari
Name: (2S)-5,7-dihydroxy-2-(4-hydroxyphenyl)chroman-4-one
Class: Natural Product
Formula: C15H12O5
Exact mass: 272.06847
SMILES: Oc(c3)ccc(c3)[C@H](C1)Oc(c2)c(c(O)cc(O)2)C(=O)1
InChI: InChI=1S/C15H12O5/c16-9-3-1-8(2-4-9)13-7-12(19)15-11(18)5-10(17)6-14(15)20-13/h1-6,13,16-18H,7H2/t13-/m0/s1
Instrument: UPLC Q-Tof Premier, Waters
Instrument type: LC-ESI-QTOF
Ms type: MS2
Ion mode: POSITIVE
Collision energy: Ramp 5-60 eV
Fragmentation mode: LOW-ENERGY CID
Ionization: ESI
Full scan fragment ion peak: 273.1
Ion type: [M+H]+
m/z	relative intensity
67.0078	18
68.9876	22
69.0241	24
91.0488	124
95.0443	16
97.0231	15
107.0462	16
119.0471	155
123.0426	27
147.0439	377
147.1057	28
153.0183	901
153.0810	71
154.0217	21
273.0763	999
273.1606	62
274.0806	56
