Mass spectrum: (-)-Citramalic acid; LC-ESI-QTOF; MS2; CE:Ramp 5-60 V; [M-H]-
Name: (-)-Citramalic acid
Name: D-2-Methylmalic acid
Name: Citramalate
Name: 2-Methylmalic acid
Name: 2-Methylmalate
Name: 2-Hydroxy-2-methylsuccinic Acid
Name: 2-Hydroxy-2-methylbutanedioic Acid
Name: alpha-Hydroxypyrotartaric Acid
Class: Carboxylic acids
Formula: C5H8O5
Exact mass: 148.03717
SMILES: C[C@@](CC(=O)O)(C(=O)O)O
InChI: InChI=1S/C5H8O5/c1-5(10,4(8)9)2-3(6)7/h10H,2H2,1H3,(H,6,7)(H,8,9)/t5-/m1/s1
Instrument: UPLC Q-Tof Premier, Waters
Instrument type: LC-ESI-QTOF
Ms type: MS2
Ion mode: NEGATIVE
Collision energy: Ramp 5-60 V
Fragmentation mode: LOW-ENERGY CID
Ionization: ESI
Precursor m/z: 147.02937
Precursor type: [M-H]-
m/z	relative intensity
85.0298	500
87.0088	918
103.0395	77
129.0193	200
145.8903	61
146.8985	364
147.0294	999
