Mass spectrum: sn-Glycero-3-phosphocholine; LC-ESI-QTOF; MS2; CE:Ramp 5-60 V; [M]+
Name: sn-Glycero-3-phosphocholine
Name: L-alpha-Glycerophosphorylcholine
Name: L-alpha-Glycerol Phosphorylcholine
Name: Choline Alphoscerate
Class: Glycerophospholipids
Formula: [C8H21NO6P]+
Exact mass: 258.11065
SMILES: OCC(O)COP(O)(=O)OCC[N+1](C)(C)C
InChI: InChI=1S/C8H20NO6P/c1-9(2,3)4-5-14-16(12,13)15-7-8(11)6-10/h8,10-11H,4-7H2,1-3H3/p+1/t8-/m1/s1
Instrument: UPLC Q-Tof Premier, Waters
Instrument type: LC-ESI-QTOF
Ms type: MS2
Ion mode: POSITIVE
Collision energy: Ramp 5-60 V
Fragmentation mode: LOW-ENERGY CID
Ionization: ESI
Precursor m/z: 258.11062
Precursor type: [M]+
m/z	relative intensity
86.0971	269
98.9853	136
104.1076	999
125.0012	363
184.0748	91
258.1106	293
