Mass spectrum: Rosmarinic acid; LC-ESI-QTOF; MS2; CE:30 V; [2M-H]-
Name: Rosmarinic acid
Name: (2R)-3-(3,4-dihydroxyphenyl)-2-[(E)-3-(3,4-dihydroxyphenyl)prop-2-enoyl]oxypropanoic acid
Class: Natural Product
Formula: C18H16O8
Exact mass: 360.08452
SMILES: OC(=O)C(OC(=O)C=Cc(c2)cc(O)c(O)c2)Cc(c1)cc(O)c(O)c1
InChI: InChI=1S/C18H16O8/c19-12-4-1-10(7-14(12)21)3-6-17(23)26-16(18(24)25)9-11-2-5-13(20)15(22)8-11/h1-8,16,19-22H,9H2,(H,24,25)/b6-3+/t16-/m1/s1
Instrument: UPLC Q-Tof Premier, Waters
Instrument type: LC-ESI-QTOF
Ms type: MS2
Ion mode: NEGATIVE
Collision energy: 30 V
Fragmentation mode: LOW-ENERGY CID
Ionization: ESI
Full scan fragment ion peak: 719.2
Ion type: [2M-H]-
m/z	relative intensity
135.0732	23
159.9673	35
161.0525	999
161.9060	128
162.7874	35
179.0578	89
197.0721	386
197.9518	61
359.0853	354
360.0243	60
