Mass spectrum: Palatinose; LC-ESI-QTOF; MS2; CE:Ramp 5-60 V; [M-H]-
Name: Palatinose
Name: Glc(alpha1-6)Fru
Name: Isomaltulose
Name: 6-O-alpha-D-glucopyranosyl-D-fructose
Class: Disaccharide
Formula: C12H22O11
Exact mass: 342.11621
SMILES: OC[C@@H](O1)[C@@H](O)[C@H](O)[C@@H](O)[C@@H](OC[C@@H](O2)[C@@H](O)[C@H](O)C(O)(CO)2)1
InChI: InChI=1S/C12H22O11/c13-1-4-6(15)8(17)9(18)11(22-4)21-2-5-7(16)10(19)12(20,3-14)23-5/h4-11,13-20H,1-3H2/t4-,5-,6-,7-,8+,9-,10+,11+,12?/m1/s1
Instrument: UPLC Q-Tof Premier, Waters
Instrument type: LC-ESI-QTOF
Ms type: MS2
Ion mode: NEGATIVE
Collision energy: Ramp 5-60 V
Fragmentation mode: LOW-ENERGY CID
Ionization: ESI
Precursor m/z: 341.10841
Precursor type: [M-H]-
m/z	relative intensity
59.0150	372
71.0148	822
73.0305	84
83.0141	64
85.0298	99
89.0237	598
101.0234	999
113.0233	298
119.0333	270
131.0331	89
143.0345	119
161.0447	214
179.0539	848
221.0646	583
341.1084	57
