Mass spectrum: L-Methionine; CE-ESI-TOF; MS; [M+H]+
Name: L-Methionine
Name: L-2-Amino-4methylthiobutyric acid
Formula: C5H11NO2S
Exact mass: 149.05105
SMILES: N[C@@H](CCSC)C(O)=O
InChI: InChI=1S/C5H11NO2S/c1-9-3-2-4(6)5(7)8/h4H,2-3,6H2,1H3,(H,7,8)/t4-/m0/s1
Instrument: CE-system connected to 6210 Time-of-Flight MS, Agilent
Instrument type: CE-ESI-TOF
Ms type: MS
Ion mode: POSITIVE
Ionization: ESI
Column name: Fused sillica capillary id=50 um L=100 cm (HMT Inc., Tsuruoka, Japan)
Ion type: [M+H]+
m/z	relative intensity
150.0566	999
