Mass spectrum: Cytidine; LC-ESI-QTOF; MS2; CE:30 V; [M+H]+
Name: Cytidine
Name: Cyd
Name: rC
Name: Cytosine beta-D-riboside
Name: 1-beta-D-Ribofuranoside cytosine
Name: 4-Amino-1-beta-D-ribofuranosyl-2(1H)-pyrimidinone
Class: Nucleoside
Formula: C9H13N3O5
Exact mass: 243.08552
SMILES: OC[C@@H](O1)[C@@H](O)[C@@H](O)[C@@H]1N(C=2)C(=O)N=C(N)C2
InChI: InChI=1S/C9H13N3O5/c10-5-1-2-12(9(16)11-5)8-7(15)6(14)4(3-13)17-8/h1-2,4,6-8,13-15H,3H2,(H2,10,11,16)/t4-,6-,7-,8-/m1/s1
Instrument: UPLC Q-Tof Premier, Waters
Instrument type: LC-ESI-QTOF
Ms type: MS2
Ion mode: POSITIVE
Collision energy: 30 V
Fragmentation mode: LOW-ENERGY CID
Ionization: ESI
Precursor m/z: 244.09332
Precursor type: [M+H]+
m/z	relative intensity
112.0539	999
133.0548	49
244.0047	47
244.0933	337
