Mass spectrum: gamma-Linolenic acid; LC-ESI-QTOF; MS2; CE:Ramp 5-60 V; [M-H]-
Name: gamma-Linolenic acid
Name: cis,cis,cis-6,9,12-Octadecatrienoic acid
Name: gamolenic acid
Name: 6Z,9Z,12Z-Octadecatrienoic Acid
Class: Fatty acids
Formula: C18H30O2
Exact mass: 278.22458
SMILES: CCCCCC=CCC=CCC=CCCCCC(O)=O
InChI: InChI=1S/C18H30O2/c1-2-3-4-5-6-7-8-9-10-11-12-13-14-15-16-17-18(19)20/h6-7,9-10,12-13H,2-5,8,11,14-17H2,1H3,(H,19,20)/b7-6-,10-9-,13-12-
Instrument: UPLC Q-Tof Premier, Waters
Instrument type: LC-ESI-QTOF
Ms type: MS2
Ion mode: NEGATIVE
Collision energy: Ramp 5-60 V
Fragmentation mode: LOW-ENERGY CID
Ionization: ESI
Precursor m/z: 277.21677
Precursor type: [M-H]-
m/z	relative intensity
164.9045	34
233.2223	48
277.2168	999
