Mass spectrum: alpha-Tocotrienol; LC-ESI-QTOF; MS2; CE:Ramp 5-60 V; [M+H]+
Name: alpha-Tocotrienol
Name: (2R,3'E,7'E)-alpha-Tocotrienol
Class: Prenol Lipids
Formula: C29H44O2
Exact mass: 424.33413
SMILES: O([C@](CCC=[C@](C)CCC=[C@](C)CCC=C(C)C)1C)c(c(C)2)c(c(C)c(O)c2C)CC1
InChI: InChI=1S/C29H44O2/c1-20(2)12-9-13-21(3)14-10-15-22(4)16-11-18-29(8)19-17-26-25(7)27(30)23(5)24(6)28(26)31-29/h12,14,16,30H,9-11,13,15,17-19H2,1-8H3/b21-14+,22-16+/t29-/m1/s1
Instrument: UPLC Q-Tof Premier, Waters
Instrument type: LC-ESI-QTOF
Ms type: MS2
Ion mode: POSITIVE
Collision energy: Ramp 5-60 V
Fragmentation mode: LOW-ENERGY CID
Ionization: ESI
Precursor m/z: 425.34191
Precursor type: [M+H]+
m/z	relative intensity
90.5096	219
90.5290	141
99.5146	999
100.0169	97
100.5126	298
111.0230	379
112.0194	160
133.0680	91
161.0636	219
425.1541	553
