Mass spectrum: Coniferyl aldehyde; LC-ESI-QTOF; MS2; CE:Ramp 5-60 V; [M+H]+
Name: 4-Hydroxy-3-methoxycinnamaldehyde
Name: Coniferyl aldehyde
Name: Coniferaldehyde
Name: Ferulaldehyde
Formula: C10H10O3
Exact mass: 178.06299
SMILES: [H]C(=O)C=Cc(c1)cc(OC)c(O)c1
InChI: InChI=1S/C10H10O3/c1-13-10-7-8(3-2-6-11)4-5-9(10)12/h2-7,12H,1H3/b3-2+
Instrument: UPLC Q-Tof Premier, Waters
Instrument type: LC-ESI-QTOF
Ms type: MS2
Ion mode: POSITIVE
Collision energy: Ramp 5-60 V
Fragmentation mode: LOW-ENERGY CID
Ionization: ESI
Precursor m/z: 179.07079
Precursor type: [M+H]+
m/z	relative intensity
65.0402	95
77.0402	108
79.0555	178
91.0555	767
105.0714	206
107.0512	168
118.0427	210
119.0506	689
133.0661	239
136.0539	189
146.0382	258
147.0458	999
161.0615	613
179.0708	754
