Mass spectrum: DL-6,8-Thioctic acid; LC-ESI-QTOF; MS2; CE:Ramp 5-60 V; [M-H]-
Name: (+-)-alpha-Lipoic acid
Name: Lip(S2)
Name: DL-6,8-Thioctic acid
Name: DL-1,2-Dithiolane 3-valeric acid
Name: DL-1,2-Dithiolane-3-pentanoic acid
Name: DL-6,8-Dithiooctanoic acid
Name: 1,2-Dithiolane-3-pentanoic acid
Name: Thioctacid
Name: Thioctsan
Name: Biletan
Name: Tioctidasi
Class: Carboxylic acids
Formula: C8H14O2S2
Exact mass: 206.04352
SMILES: OC(=O)CCCCC(C1)SSC1
InChI: InChI=1S/C8H14O2S2/c9-8(10)4-2-1-3-7-5-6-11-12-7/h7H,1-6H2,(H,9,10)
Instrument: UPLC Q-Tof Premier, Waters
Instrument type: LC-ESI-QTOF
Ms type: MS2
Ion mode: NEGATIVE
Collision energy: Ramp 5-60 V
Fragmentation mode: LOW-ENERGY CID
Ionization: ESI
Precursor m/z: 205.03572
Precursor type: [M-H]-
m/z	relative intensity
63.9450	141
64.9530	256
93.0699	165
127.0568	274
159.0464	52
171.0457	999
205.0357	60
