Mass spectrum: Syringaldehyde; LC-ESI-QTOF; MS2; CE:Ramp 5-60 V; [M-H]-
Name: Syringaldehyde
Name: Syringic aldehyde
Name: Syringylaldehyde
Name: Syringealdehyde
Name: Gallaldehyde 3,5-dimethyl ether
Name: 4-Hydroxy-3,5-dimethoxybenzaldehyde
Name: 3,5-Dimethoxy-4-hydroxybenzene carbonal
Formula: C9H10O4
Exact mass: 182.05791
SMILES: O=Cc(c1)cc(OC)c(O)c(OC)1
InChI: InChI=1S/C9H10O4/c1-12-7-3-6(5-10)4-8(13-2)9(7)11/h3-5,11H,1-2H3
Instrument: UPLC Q-Tof Premier, Waters
Instrument type: LC-ESI-QTOF
Ms type: MS2
Ion mode: NEGATIVE
Collision energy: Ramp 5-60 V
Fragmentation mode: LOW-ENERGY CID
Ionization: ESI
Precursor m/z: 181.05009
Precursor type: [M-H]-
m/z	relative intensity
123.0081	425
151.0027	979
166.0263	999
181.0501	373
