Mass spectrum: 2'-Deoxycytidine 5'-diphosphate; LC-ESI-QTOF; MS2; CE:Ramp 5-60 V; [M+H]+
Name: 2'-Deoxycytidine-5'-diphosphate
Name: dCDP
Name: 2'-Deoxy-CDP
Name: 2'-Deoxycytidine 5'-diphosphate
Class: Natural Product; Nucleoside; Phosphates
Formula: C9H15N3O10P2
Exact mass: 387.02327
SMILES: NC(C=2)=NC(=O)N(C2)[C@@H](C1)O[C@H](COP(O)(=O)OP(O)(O)=O)[C@@H](O)1
InChI: InChI=1S/C9H15N3O10P2/c10-7-1-2-12(9(14)11-7)8-3-5(13)6(21-8)4-20-24(18,19)22-23(15,16)17/h1-2,5-6,8,13H,3-4H2,(H,18,19)(H2,10,11,14)(H2,15,16,17)/t5-,6+,8+/m0/s1
Instrument: UPLC Q-Tof Premier, Waters
Instrument type: LC-ESI-QTOF
Ms type: MS2
Ion mode: POSITIVE
Collision energy: Ramp 5-60 V
Fragmentation mode: LOW-ENERGY CID
Ionization: ESI
Precursor m/z: 388.03107
Precursor type: [M+H]+
m/z	relative intensity
105.0895	576
106.0929	77
121.0863	76
387.2481	999
388.2513	492
