Mass spectrum: 1,3-Dimethyluric acid; LC-ESI-QTOF; MS2; CE:Ramp 5-60 V; [M+H]+
Name: 1,3-Dimethylurate
Name: 1,3-Dimethyluric acid
Name: 1,3-Dimethyl-2,6,8-trihydroxypurine
Name: Oxytheophylline
Formula: C7H8N4O3
Exact mass: 196.05964
SMILES: O=C(N1)NC(N(C)2)=C1C(=O)N(C)C(=O)2
InChI: InChI=1S/C7H8N4O3/c1-10-4-3(8-6(13)9-4)5(12)11(2)7(10)14/h1-2H3,(H2,8,9,13)
Instrument: UPLC Q-Tof Premier, Waters
Instrument type: LC-ESI-QTOF
Ms type: MS2
Ion mode: POSITIVE
Collision energy: Ramp 5-60 V
Fragmentation mode: LOW-ENERGY CID
Ionization: ESI
Precursor m/z: 197.06744
Precursor type: [M+H]+
m/z	relative intensity
57.0459	57
67.0302	32
69.0457	29
112.0520	104
140.0470	83
142.0621	130
152.0461	27
169.0726	431
197.0674	999
