Mass spectrum: beta-Guanidinopropionic acid; LC-ESI-QTOF; MS2; CE:Ramp 5-60 V; [M-H]-
Name: 3-Guanidinopropionic acid
Name: 3-Guanidinopropanoate
Name: beta-Guanidinopropionic acid
Name: 3-Guanidinopropanoic acid
Name: N-(Aminomethyl)-beta-alanine
Class: Carboxylic acids
Formula: C4H9N3O2
Exact mass: 131.06948
SMILES: NC(=N)NCCC(O)=O
InChI: InChI=1S/C4H9N3O2/c5-4(6)7-2-1-3(8)9/h1-2H2,(H,8,9)(H4,5,6,7)
Instrument: UPLC Q-Tof Premier, Waters
Instrument type: LC-ESI-QTOF
Ms type: MS2
Ion mode: NEGATIVE
Collision energy: Ramp 5-60 V
Fragmentation mode: LOW-ENERGY CID
Ionization: ESI
Precursor m/z: 130.06167
Precursor type: [M-H]-
m/z	relative intensity
88.0411	999
130.0617	68
