Mass spectrum: 4-Hydroxyphenylacetic acid; GC-EI-TOF; MS; 2 TMS; BP:73
Name: 4-Hydroxyphenylacetic acid
Name: 4-Hydroxyphenylacetate
Class: Natural Product
Formula: C8H8O3
Exact mass: 152.04734
SMILES: OC(=O)Cc(c1)ccc(O)c1
InChI: InChI=1S/C8H8O3/c9-7-3-1-6(2-4-7)5-8(10)11/h1-4,9H,5H2,(H,10,11)
Instrument: Pegasus III TOF-MS system, Leco; GC 6890, Agilent Technologies
Instrument type: GC-EI-TOF
Ms type: MS
Ion mode: POSITIVE
Retention time: 405.145 sec
Base peak: 73
Derivative form: C14H24O3Si2
Derivative mass: 296.1264
Derivative type: 2 TMS
m/z	relative intensity
60	4
61	16
62	3
63	12
64	2
65	3
66	1
67	4
69	1
70	2
71	3
72	11
73	999
74	90
75	121
76	11
77	25
78	10
79	6
81	1
82	7
83	3
84	1
85	4
87	2
88	1
89	32
90	18
91	12
92	1
93	2
95	2
97	1
99	1
101	1
102	2
103	11
104	8
105	15
106	2
107	5
109	2
111	1
115	2
116	1
117	16
118	3
119	5
120	1
121	4
123	1
131	5
132	1
133	31
134	5
135	17
136	2
137	3
145	3
146	1
147	45
148	9
149	40
150	6
151	3
161	10
162	3
163	34
164	113
165	19
166	5
175	1
177	17
178	5
179	153
180	24
181	7
191	10
192	1
193	3
195	1
206	2
207	1
208	2
209	3
210	1
221	1
225	6
226	1
237	5
238	1
252	67
253	25
254	10
255	2
265	2
281	44
282	11
283	4
296	46
297	12
298	4
