Mass spectrum: L-(+)-Arginine; LC-ESI-QTOF; MS2; CE:Ramp 5-60 V; [M+H]+
Name: L-Arginine
Name: Arg
Name: 2-Amino-5-guanidinovaleric Acid
Name: (S)-2-Amino-5-guanidinopentanoic Acid
Name: Argamine
Name: Argivene
Name: Detoxargin
Name: Levargin
Name: L-(+)-Arginine
Class: Amino acids
Formula: C6H14N4O2
Exact mass: 174.11168
SMILES: NC(=N)NCCC[C@H](N)C(O)=O
InChI: InChI=1S/C6H14N4O2/c7-4(5(11)12)2-1-3-10-6(8)9/h4H,1-3,7H2,(H,11,12)(H4,8,9,10)/t4-/m0/s1
Instrument: UPLC Q-Tof Premier, Waters
Instrument type: LC-ESI-QTOF
Ms type: MS2
Ion mode: POSITIVE
Collision energy: Ramp 5-60 V
Fragmentation mode: LOW-ENERGY CID
Ionization: ESI
Precursor m/z: 175.11947
Precursor type: [M+H]+
m/z	relative intensity
70.0660	999
116.0717	354
130.0993	163
158.0939	126
175.1195	611
