Mass spectrum: L-Glutathione (oxidized form); LC-ESI-QTOF; MS2; CE:30 V; [M+H]+
Name: Glutathione (oxidized form)
Name: GSSG
Name: Glutathiol
Name: Glutathione Disulfide
Name: Oxigluthione
Name: (gamma-Glu-Cys-Gly) (gamma-Glu-Cys-Gly)(Disulfide bridge: 2a-2b)
Name: L-Glutathione (oxidized form)
Class: Peptide
Formula: C20H32N6O12S2
Exact mass: 612.15196
SMILES: OC(=O)CNC(=O)[C@H](CSSC[C@H](NC(=O)CC[C@H](N)C(O)=O)C(=O)NCC(O)=O)NC(=O)CC[C@H](N)C(O)=O
InChI: InChI=1S/C20H32N6O12S2/c21-9(19(35)36)1-3-13(27)25-11(17(33)23-5-15(29)30)7-39-40-8-12(18(34)24-6-16(31)32)26-14(28)4-2-10(22)20(37)38/h9-12H,1-8,21-22H2,(H,23,33)(H,24,34)(H,25,27)(H,26,28)(H,29,30)(H,31,32)(H,35,36)(H,37,38)/t9-,10-,11-,12-/m0/s1
Instrument: UPLC Q-Tof Premier, Waters
Instrument type: LC-ESI-QTOF
Ms type: MS2
Ion mode: POSITIVE
Collision energy: 30 V
Fragmentation mode: LOW-ENERGY CID
Ionization: ESI
Precursor m/z: 613.15976
Precursor type: [M+H]+
m/z	relative intensity
484.1136	72
612.8618	51
612.9628	72
613.1598	999
