Mass spectrum: Gly-Gly; GC-EI-TOF; MS; 4 TMS; BP:73
Name: Glycylglycine
Name: Gly-Gly
Class: Natural Product
Formula: C4H8N2O3
Exact mass: 132.05349
SMILES: NCC(=O)NCC(O)=O
InChI: InChI=1S/C4H8N2O3/c5-1-3(7)6-2-4(8)9/h1-2,5H2,(H,6,7)(H,8,9)
Instrument: Pegasus III TOF-MS system, Leco; GC 6890, Agilent Technologies
Instrument type: GC-EI-TOF
Ms type: MS
Ion mode: POSITIVE
Retention time: 475.357 sec
Base peak: 73
Derivative form: C16H40N2O3Si4
Derivative mass: 420.2116
Derivative type: 4 TMS
m/z	relative intensity
60	14
61	13
62	1
63	2
66	4
67	1
69	1
70	17
71	7
72	41
73	999
74	93
75	82
76	7
77	28
78	3
79	12
83	1
84	7
85	5
86	182
87	21
88	12
89	3
92	1
98	6
99	3
100	95
101	23
102	22
103	10
104	2
105	2
113	4
114	4
115	7
116	25
117	28
118	5
119	6
127	1
128	1
129	8
130	28
131	28
132	9
133	37
134	5
135	3
140	1
141	3
142	9
143	3
144	8
145	2
146	6
147	106
148	18
149	10
150	1
158	9
159	3
160	6
161	2
162	1
172	22
173	5
174	597
175	111
176	55
177	7
178	1
187	4
188	5
189	2
190	2
191	1
199	1
200	1
201	2
202	1
203	1
204	6
205	2
213	2
214	3
215	3
216	4
217	1
218	7
219	1
221	2
229	1
230	1
234	2
241	1
243	1
244	1
246	3
248	48
249	12
250	6
251	1
259	3
273	1
287	1
288	1
289	1
306	3
317	3
318	1
404	5
405	36
406	15
407	8
408	2
420	3
421	1
