Mass spectrum: (S)-(+)-2-(anilinomethyl)pyrrolidine; LC-ESI-QTOF; MS2; CE:Ramp 5-60 V; [M+H]+
Name: (S)-(+)-2-(anilinomethyl)pyrrolidine
Name: (S)-(+)-N-(2-Pyrrolidinomethyl)aniline
Name: (2S)-Phenylpyrrolidin-2-ylmethylamine
Formula: C11H16N2
Exact mass: 176.13135
SMILES: c(c2)ccc(c2)NCC(C1)NCC1
InChI: InChI=1S/C11H16N2/c1-2-5-10(6-3-1)13-9-11-7-4-8-12-11/h1-3,5-6,11-13H,4,7-9H2
Instrument: UPLC Q-Tof Premier, Waters
Instrument type: LC-ESI-QTOF
Ms type: MS2
Ion mode: POSITIVE
Collision energy: Ramp 5-60 V
Fragmentation mode: LOW-ENERGY CID
Ionization: ESI
Precursor m/z: 177.13914
Precursor type: [M+H]+
m/z	relative intensity
84.0802	999
177.1391	125
