Mass spectrum: L-Histidinol; LC-ESI-QTOF; MS2; CE:Ramp 5-60 V; [M+H]+
Name: L-Histidinol
Name: L-His-ol
Name: beta-Aminoimidazole-4-propanol
Name: (S)-2-Amino-3-(4-imidazolyl)propanol
Class: Amino alcohol
Formula: C6H11N3O
Exact mass: 141.09021
SMILES: C1=C(NC=N1)C[C@@H](CO)N
InChI: InChI=1S/C6H11N3O/c7-5(3-10)1-6-2-8-4-9-6/h2,4-5,10H,1,3,7H2,(H,8,9)/t5-/m0/s1
Instrument: UPLC Q-Tof Premier, Waters
Instrument type: LC-ESI-QTOF
Ms type: MS2
Ion mode: POSITIVE
Collision energy: Ramp 5-60 V
Fragmentation mode: LOW-ENERGY CID
Ionization: ESI
Precursor m/z: 142.09801
Precursor type: [M+H]+
m/z	relative intensity
81.0452	999
95.0611	298
124.0872	779
125.0722	137
142.0980	460
