Mass spectrum: D-(-)-Penicillamine; GC-EI-TOF; MS; n TMS; BP:73
Name: D-(-)-Penicillamine
Name: Penicillamine
Class: Natural Product
Formula: C5H11NO2S
Exact mass: 149.05105
SMILES: OC(=O)[C@H](N)C(C)(C)S
InChI: InChI=1S/C5H11NO2S/c1-5(2,9)3(6)4(7)8/h3,9H,6H2,1-2H3,(H,7,8)/t3-/m0/s1
Instrument: Pegasus III TOF-MS system, Leco; GC 6890, Agilent Technologies
Instrument type: GC-EI-TOF
Ms type: MS
Ion mode: POSITIVE
Retention time: 551.17 sec
Base peak: 73
Derivative form: C{5+3*n}H{11+8*n}NO2SSi{n}
Derivative mass: 149.05105+72.03953*n
Derivative type: n TMS
m/z	relative intensity
60	17
61	9
62	1
63	1
64	1
66	1
67	2
68	1
69	5
70	43
71	34
72	22
73	999
74	120
75	80
76	8
77	21
78	1
82	5
83	13
84	6
85	8
86	14
87	5
88	1
89	2
90	2
91	6
92	1
93	1
96	1
97	3
98	18
99	7
100	156
101	29
102	15
103	8
104	2
105	12
106	1
107	2
110	2
111	1
112	12
113	8
114	3
115	14
116	3
117	9
118	4
119	3
120	1
121	1
126	8
127	4
128	115
129	19
130	17
131	12
132	21
133	17
134	3
135	2
140	2
141	1
142	79
143	128
144	31
145	19
146	6
147	83
148	17
149	9
150	1
155	1
156	3
157	2
158	2
159	8
160	9
161	4
162	1
163	9
164	1
165	1
170	4
171	1
172	4
173	1
174	21
175	5
176	6
177	2
179	1
186	1
187	1
188	2
190	3
202	5
203	25
204	5
205	2
206	2
216	15
217	8
218	217
219	56
220	22
221	4
222	1
229	1
230	2
232	6
233	2
234	1
244	4
245	1
248	1
250	2
251	1
260	84
261	20
262	8
268	1
276	3
277	1
278	1
289	5
290	2
291	47
292	152
293	43
294	27
295	5
296	2
324	2
366	5
367	1
368	1
619	1
729	1
