Mass spectrum: alpha-D-Galactose-1-phosphate; LC-ESI-QTOF; MS2; CE:Ramp 5-60 V; [M-H]-
Name: alpha-D-Galactose-1-phosphate
Name: Gal-1P
Name: Galactose-1P
Name: alpha-D-Galactopyranosyl 1-phosphate
Class: Natural Product; Carbohydrate; Phosphates
Formula: C6H13O9P
Exact mass: 260.02972
SMILES: OC[C@@H](O1)[C@H](O)[C@H](O)[C@@H](O)[C@H]1OP(O)(O)=O
InChI: InChI=1S/C6H13O9P/c7-1-2-3(8)4(9)5(10)6(14-2)15-16(11,12)13/h2-10H,1H2,(H2,11,12,13)/t2-,3+,4+,5-,6-/m1/s1
Instrument: UPLC Q-Tof Premier, Waters
Instrument type: LC-ESI-QTOF
Ms type: MS2
Ion mode: NEGATIVE
Collision energy: Ramp 5-60 V
Fragmentation mode: LOW-ENERGY CID
Ionization: ESI
Precursor m/z: 259.02192
Precursor type: [M-H]-
m/z	relative intensity
78.9600	999
96.9701	347
138.9802	71
241.0117	71
259.0219	394
