Mass spectrum: Thiamine monophosphate; LC-ESI-QTOF; MS2; CE:Ramp 5-60 V; [M-2H]-
Name: Thiamine monophosphate
Name: TMP
Name: Thiamine-P
Name: Vitamin B1 phosphate
Name: Monophosphothiamine
Name: Aneurine monophosphate
Class: Natural Product; Thiamine; phosphates
Formula: [C12H18N4O4PS]+
Exact mass: 345.07864
SMILES: Cc(n2)nc(N)c(c2)C[n+1](c1)c(C)c(CCOP(O)(O)=O)s1
InChI: InChI=1S/C12H17N4O4PS/c1-8-11(3-4-20-21(17,18)19)22-7-16(8)6-10-5-14-9(2)15-12(10)13/h5,7H,3-4,6H2,1-2H3,(H3-,13,14,15,17,18,19)/p+1
Instrument: UPLC Q-Tof Premier, Waters
Instrument type: LC-ESI-QTOF
Ms type: MS2
Ion mode: NEGATIVE
Collision energy: Ramp 5-60 V
Fragmentation mode: LOW-ENERGY CID
Ionization: ESI
Precursor m/z: 343.06301
Precursor type: [M-2H]-
m/z	relative intensity
78.9612	322
96.9714	999
124.0252	89
147.0690	148
222.0038	251
245.0910	292
343.0630	31
