Mass spectrum: Puerarin; LC-ESI-QTOF; MS2; CE:Ramp 5-60 V; [M+H]+
Name: daidzein-8-C-glucoside
Name: Puerarin
Name: Ddze_8_C_Glc
Name: 7-hydroxy-3-(4-hydroxyphenyl)-8-[(2S,3S,4R,5R,6R)-3,4,5-trihydroxy-6-(hydroxymethyl)oxan-2-yl]chromen-4-one
Class: Natural Product
Formula: C21H20O9
Exact mass: 416.11073
SMILES: OC[C@H]([C@@H](O)4)O[C@H]([C@H](O)[C@@H](O)4)c(c(O)3)c(O2)c(cc3)C(=O)C(=C2)c(c1)ccc(O)c1
InChI: InChI=1S/C21H20O9/c22-7-14-17(26)18(27)19(28)21(30-14)15-13(24)6-5-11-16(25)12(8-29-20(11)15)9-1-3-10(23)4-2-9/h1-6,8,14,17-19,21-24,26-28H,7H2/t14-,17-,18+,19-,21+/m1/s1
Instrument: UPLC Q-Tof Premier, Waters
Instrument type: LC-ESI-QTOF
Ms type: MS2
Ion mode: POSITIVE
Collision energy: Ramp 5-60 V
Fragmentation mode: LOW-ENERGY CID
Ionization: ESI
Full scan fragment ion peak: 417.1
Ion type: [M+H]+
m/z	relative intensity
91.0488	21
107.0460	25
121.0261	29
165.0709	66
183.0811	32
195.0816	31
211.0766	34
223.0772	38
239.0715	313
239.1495	20
240.0790	126
267.0663	538
267.1487	32
268.0738	298
269.0811	31
279.0666	84
281.0824	112
293.0833	27
295.0614	29
297.0768	724
297.1636	42
298.0804	33
307.0981	159
309.0772	30
321.0769	192
327.0890	38
335.0933	78
351.0878	174
363.0879	129
381.0983	211
399.1096	232
417.1186	999
417.2224	57
418.1232	61
