Mass spectrum: beta-Nicotinamide mononucleotide; LC-ESI-QTOF; MS2; CE:Ramp 5-60 V; [M+H]+
Name: beta-Nicotinamide mononucleotide
Name: beta-NMN
Name: Nicotinamide ribotide
Name: beta-Nicotinamide ribose monophosphate
Name: Nicotinamide-1-ium-1-beta-D-ribofuranoside 5'-phosphate
Class: Natural Product; Nicotinamide; Nucleotide
Formula: C11H15N2O8P
Exact mass: 334.05660
SMILES: NC(=O)c(c2)c[n+1](cc2)[C@H](O1)[C@H](O)[C@H](O)[C@@H](COP(O)([O-1])=O)1
InChI: InChI=1S/C11H15N2O8P/c12-10(16)6-2-1-3-13(4-6)11-9(15)8(14)7(21-11)5-20-22(17,18)19/h1-4,7-9,11,14-15H,5H2,(H3-,12,16,17,18,19)/t7-,8-,9-,11-/m1/s1
Instrument: UPLC Q-Tof Premier, Waters
Instrument type: LC-ESI-QTOF
Ms type: MS2
Ion mode: POSITIVE
Collision energy: Ramp 5-60 V
Fragmentation mode: LOW-ENERGY CID
Ionization: ESI
Precursor m/z: 335.0644
Precursor type: [M+H]+
m/z	relative intensity
80.0496	65
97.0289	284
123.0554	999
335.0644	45
