Mass spectrum: 4-(Methylsulfinyl)but-3-enylglucosinolate; LC-ESI-QTOF; MS2; CE:Ramp 5-60 V; [M+K]+
Name: 4-(Methylsulfinyl)but-3-enylglucosinolate
Name: Glucoraphenin
Name: 4-Methylsufinyl-3-butenyl glucosinolate
Class: Glucosinolate
Formula: C12H21NO10S3
Exact mass: 435.03276
SMILES: OC[C@@H](O1)[C@@H](O)[C@H](O)[C@@H](O)[C@@H]1SC(CCC=CS(C)=O)=NOS(O)(=O)=O
InChI: InChI=1S/C12H21NO10S3/c1-25(18)5-3-2-4-8(13-23-26(19,20)21)24-12-11(17)10(16)9(15)7(6-14)22-12/h3,5,7,9-12,14-17H,2,4,6H2,1H3,(H,19,20,21)/b5-3+,13-8?/t7-,9-,10+,11-,12+,25?/m1/s1
Instrument: UPLC Q-Tof Premier, Waters
Instrument type: LC-ESI-QTOF
Ms type: MS2
Ion mode: POSITIVE
Collision energy: Ramp 5-60 V
Fragmentation mode: LOW-ENERGY CID
Ionization: ESI
Derivative form: C12H21NO10S3.K.H2O
Derivative mass: 491.60
Precursor m/z: 473.99644
Precursor type: [M+K]+
m/z	relative intensity
79.0185	100
98.9779	162
99.5118	93
102.9558	216
182.0034	181
231.9853	999
258.0187	221
394.0493	773
473.9964	417
