Mass spectrum: L-Ascorbic acid; GC-EI-TOF; MS; 4 TMS; BP:73
Name: L-Ascorbic acid
Name: Ascorbic acid
Name: Ascorbate
Name: L-Ascorbate
Name: Vitamin C
Class: Natural Product
Formula: C6H8O6
Exact mass: 176.03209
SMILES: OC[C@H](O)[C@@H](O1)C(O)=C(O)C(=O)1
InChI: InChI=1S/C6H8O6/c7-1-2(8)5-3(9)4(10)6(11)12-5/h2,5,7-10H,1H2/t2-,5+/m0/s1
Instrument: Pegasus III TOF-MS system, Leco; GC 6890, Agilent Technologies
Instrument type: GC-EI-TOF
Ms type: MS
Ion mode: POSITIVE
Retention time: 491.007 sec
Base peak: 73
Derivative form: C18H40O6Si4
Derivative mass: 464.1902
Derivative type: 4 TMS
m/z	relative intensity
60	8
61	8
66	5
67	1
70	7
71	3
72	17
73	999
74	90
75	51
76	4
77	12
79	3
82	1
83	1
84	27
85	4
86	3
87	4
88	3
89	103
90	8
91	4
92	1
98	2
99	2
100	33
101	14
102	5
103	60
104	6
105	6
107	1
111	1
112	2
113	2
114	1
115	3
116	4
117	80
118	8
119	7
125	4
126	4
127	1
128	8
129	7
130	6
131	14
132	3
133	72
134	8
135	4
140	1
141	1
142	1
143	1
144	6
145	3
146	1
147	171
148	27
149	16
150	2
151	1
153	1
154	1
155	1
157	1
158	3
159	1
163	6
164	1
165	1
167	1
172	27
173	5
174	3
175	3
177	2
181	1
183	1
184	1
185	14
186	2
187	1
188	1
189	3
190	5
191	6
192	1
200	2
201	2
202	1
204	3
205	40
206	8
207	4
211	1
216	1
217	8
218	2
219	1
221	2
227	2
243	7
244	2
245	1
246	1
255	1
258	2
271	6
272	1
273	3
276	4
277	1
289	4
302	1
303	26
304	8
305	3
307	1
315	1
334	4
335	1
344	1
347	1
375	1
389	1
405	1
406	6
407	2
408	1
433	1
435	1
523	1
