Mass spectrum: Maleic acid; LC-ESI-QTOF; MS2; CE:Ramp 5-60 V; [M-H]-
Name: Maleic acid
Name: Maleinic acid
Name: Malenic acid
Name: Toxilic acid
Name: cis-butenedioic acid
Name: maleate
Name: 2-Butenedioic acid
Name: (Z)-1,2-Ethenedicarboxylic Acid
Class: Carboxylic acids
Formula: C4H4O4
Exact mass: 116.01096
SMILES: C(=C\C(=O)O)\C(=O)O
InChI: InChI=1S/C4H4O4/c5-3(6)1-2-4(7)8/h1-2H,(H,5,6)(H,7,8)/b2-1-
Instrument: UPLC Q-Tof Premier, Waters
Instrument type: LC-ESI-QTOF
Ms type: MS2
Ion mode: NEGATIVE
Collision energy: Ramp 5-60 V
Fragmentation mode: LOW-ENERGY CID
Ionization: ESI
Precursor m/z: 115.00316
Precursor type: [M-H]-
m/z	relative intensity
71.0156	999
114.9329	55
115.0032	461
