Mass spectrum: Cytidine-3'-monophosphate; LC-ESI-QTOF; MS2; CE:Ramp 5-60 V; [M-H]-
Name: Cytidine-3'-monophosphate
Name: CMP
Name: 3'-CMP
Name: 3'-Cytidylic acid
Name: 3'-cytosylic acid
Name: 4-Amino-1-beta-D-ribofuranosyl-2(H)-pyrimidinone 3'-dihydrogen phosphate
Class: Natural Product; Nucleoside; Phosphates
Formula: C9H14N3O8P
Exact mass: 323.05185
SMILES: OC[C@@H](O1)[C@@H](OP(O)(O)=O)[C@@H](O)[C@@H]1N(C=2)C(=O)N=C(N)C2
InChI: InChI=1S/C9H14N3O8P/c10-5-1-2-12(9(15)11-5)8-6(14)7(4(3-13)19-8)20-21(16,17)18/h1-2,4,6-8,13-14H,3H2,(H2,10,11,15)(H2,16,17,18)/t4-,6-,7-,8-/m1/s1
Instrument: UPLC Q-Tof Premier, Waters
Instrument type: LC-ESI-QTOF
Ms type: MS2
Ion mode: NEGATIVE
Collision energy: Ramp 5-60 V
Fragmentation mode: LOW-ENERGY CID
Ionization: ESI
Precursor m/z: 322.04405
Precursor type: [M-H]-
m/z	relative intensity
78.9601	999
96.9702	283
110.0364	136
211.0008	719
322.0440	481
