Mass spectrum: L-(-)-Malic acid; GC-EI-TOF; MS; 3 TMS; BP:73
Name: L-(-)-Malic acid
Name: L-Malic acid
Name: L-Apple acid
Name: L-Malate
Name: (S)-Malate
Name: L-2-Hydroxybutanedioic acid
Class: Natural Product
Formula: C4H6O5
Exact mass: 134.02152
SMILES: OC(=O)C[C@H](O)C(O)=O
InChI: InChI=1S/C4H6O5/c5-2(4(8)9)1-3(6)7/h2,5H,1H2,(H,6,7)(H,8,9)/t2-/m0/s1
Instrument: Pegasus III TOF-MS system, Leco; GC 6890, Agilent Technologies
Instrument type: GC-EI-TOF
Ms type: MS
Ion mode: POSITIVE
Retention time: 364.966 sec
Base peak: 73
Derivative form: C13H30O5Si3
Derivative mass: 350.1401
Derivative type: 3 TMS
m/z	relative intensity
60	8
61	18
62	1
66	9
67	2
70	4
71	8
72	28
73	999
74	94
75	95
76	7
77	8
83	1
84	1
85	5
86	1
87	4
88	1
89	2
99	6
100	1
101	72
102	9
103	10
104	1
105	4
113	1
115	10
116	11
117	45
118	5
119	8
120	1
129	9
130	1
131	30
132	5
133	100
134	14
135	11
136	1
143	17
144	2
145	3
146	1
147	389
148	63
149	43
150	5
151	5
157	1
159	1
161	1
163	1
171	18
172	3
173	3
175	36
176	8
177	13
178	1
185	1
189	48
190	41
191	35
192	8
193	2
203	4
204	2
205	2
207	1
217	18
218	4
219	2
221	9
222	2
223	1
233	90
234	19
235	9
236	1
245	48
246	10
247	7
248	1
260	1
263	10
264	3
265	14
266	4
267	2
305	2
306	5
307	15
308	7
309	3
310	1
319	5
320	1
321	1
335	17
336	5
337	2
