Mass spectrum: Callistephin; LC-ESI-QTOF; MS2; CE:Ramp 5-60 V; [M-2H]-
Name: pelargonidin-3-O-glucoside
Name: pelargonidin 3-O-beta-D-glucopyranoside
Name: Callistephin
Class: Natural Product
Formula: [C21H21O10]+
Exact mass: 433.11347
SMILES: OCC(O1)C(O)C(O)C(O)C1Oc(c3)c([o+1]c(c4)c(c(O)cc(O)4)3)c(c2)ccc(O)c2
InChI: InChI=1S/C21H20O10/c22-8-16-17(26)18(27)19(28)21(31-16)30-15-7-12-13(25)5-11(24)6-14(12)29-20(15)9-1-3-10(23)4-2-9/h1-7,16-19,21-22,26-28H,8H2,(H2-,23,24,25)/p+1/t16-,17-,18+,19-,21-/m1/s1
Instrument: UPLC Q-Tof Premier, Waters
Instrument type: LC-ESI-QTOF
Ms type: MS2
Ion mode: NEGATIVE
Collision energy: Ramp 5-60 V
Fragmentation mode: LOW-ENERGY CID
Ionization: ESI
Full scan fragment ion peak: 431.1
Ion type: [M-2H]-
m/z	relative intensity
119.0130	25
120.0207	25
147.0086	176
148.0155	71
167.0499	32
171.0447	29
180.0579	21
183.0443	24
195.0442	63
196.0517	41
199.0400	38
211.0396	59
213.0547	41
223.0391	43
224.0469	69
225.0545	27
239.0341	89
240.0414	59
241.0489	71
267.0282	33
268.0369	603
269.0446	999
270.0485	79
431.0978	521
432.1011	59
