Mass spectrum: Puerarin; LC-ESI-QTOF; MS2; CE:30 V; [M+H]+
Name: daidzein-8-C-glucoside
Name: Puerarin
Name: Ddze_8_C_Glc
Name: 7-hydroxy-3-(4-hydroxyphenyl)-8-[(2S,3S,4R,5R,6R)-3,4,5-trihydroxy-6-(hydroxymethyl)oxan-2-yl]chromen-4-one
Class: Natural Product
Formula: C21H20O9
Exact mass: 416.11073
SMILES: OC[C@H]([C@@H](O)4)O[C@H]([C@H](O)[C@@H](O)4)c(c(O)3)c(O2)c(cc3)C(=O)C(=C2)c(c1)ccc(O)c1
InChI: InChI=1S/C21H20O9/c22-7-14-17(26)18(27)19(28)21(30-14)15-13(24)6-5-11-16(25)12(8-29-20(11)15)9-1-3-10(23)4-2-9/h1-6,8,14,17-19,21-24,26-28H,7H2/t14-,17-,18+,19-,21+/m1/s1
Instrument: UPLC Q-Tof Premier, Waters
Instrument type: LC-ESI-QTOF
Ms type: MS2
Ion mode: POSITIVE
Collision energy: 30 V
Fragmentation mode: LOW-ENERGY CID
Ionization: ESI
Full scan fragment ion peak: 417.1
Ion type: [M+H]+
m/z	relative intensity
239.0749	60
240.0829	56
267.0706	871
267.1558	161
268.0782	423
268.1632	83
269.0850	52
279.0712	126
281.0865	215
281.1736	34
292.0779	41
293.0872	60
295.0663	34
297.0815	999
297.1714	167
298.0852	50
307.1026	318
307.1939	55
309.0825	51
321.0818	192
321.1743	31
335.0974	56
351.0939	45
363.0942	69
381.1055	37
