Mass spectrum: Luteolin; LC-ESI-QTOF; MS2; CE:Ramp 5-60 V; [M-H]-
Name: Luteolin
Name: Lutl
Name: 3',4',5,7-tetrahydroxyflavone
Name: Digitoflavone
Name: Flacitran
Name: Luteolol
Name: Weld Lake
Name: Yama kariyasu
Name: 4H-1-Benzopyran-4-one, 2-(3,4-dihydroxyphenyl)-5,7-dihydroxy-
Name: Cyanidenon 1470
Class: Flavonoid
Formula: C15H10O6
Exact mass: 286.04774
SMILES: Oc(c3)c(O)cc(c3)C(=C1)Oc(c2)c(c(O)cc(O)2)C(=O)1
InChI: InChI=1S/C15H10O6/c16-8-4-11(19)15-12(20)6-13(21-14(15)5-8)7-1-2-9(17)10(18)3-7/h1-6,16-19H
Instrument: UPLC Q-Tof Premier, Waters
Instrument type: LC-ESI-QTOF
Ms type: MS2
Ion mode: NEGATIVE
Collision energy: Ramp 5-60 V
Fragmentation mode: LOW-ENERGY CID
Ionization: ESI
Precursor m/z: 285.03994
Precursor type: [M-H]-
m/z	relative intensity
107.0141	64
132.0227	60
133.0294	473
151.0033	93
175.0399	58
285.0399	999
