Mass spectrum: L-Iditol; GC-EI-TOF; MS; n TMS; BP:73
Name: L-Iditol
Class: Natural Product
Formula: C6H14O6
Exact mass: 182.07904
SMILES: OC[C@H](O)[C@@H](O)[C@H](O)[C@@H](O)CO
InChI: InChI=1S/C6H14O6/c7-1-3(9)5(11)6(12)4(10)2-8/h3-12H,1-2H2/t3-,4-,5+,6+/m0/s1
Instrument: Pegasus III TOF-MS system, Leco; GC 6890, Agilent Technologies
Instrument type: GC-EI-TOF
Ms type: MS
Ion mode: POSITIVE
Retention time: 461.491 sec
Base peak: 73
Derivative form: C{6+3*n}H{14+8*n}O6Si{n}
Derivative mass: 182.07904+72.03953*n
Derivative type: n TMS
m/z	relative intensity
60	5
61	7
65	2
66	7
67	3
69	11
70	5
71	5
72	19
73	999
74	88
75	103
76	9
77	9
81	20
82	1
83	3
84	2
85	6
86	2
87	9
88	5
89	23
90	2
91	1
93	1
94	1
96	1
97	4
98	1
99	5
100	3
101	31
102	5
103	210
104	21
105	11
109	2
111	9
112	1
113	4
114	2
115	10
116	18
117	109
118	11
119	11
120	1
121	1
125	1
126	1
127	3
128	1
129	80
130	10
131	22
132	3
133	65
134	9
135	7
136	1
138	1
139	1
141	2
142	4
143	17
144	2
145	4
146	1
147	222
148	33
149	33
150	4
151	2
153	1
154	1
155	8
156	1
157	19
158	3
159	5
160	1
161	3
162	1
163	7
164	1
166	1
167	4
168	1
169	4
170	4
171	16
172	2
173	4
174	4
175	19
176	4
177	8
178	1
183	20
184	3
185	5
186	1
187	2
188	11
189	63
190	13
191	25
192	4
193	4
197	1
200	1
201	7
202	1
203	10
204	37
205	70
206	14
207	16
208	3
209	3
215	2
216	2
217	283
218	60
219	27
220	4
221	16
222	3
223	1
227	1
229	3
230	9
231	37
232	8
233	3
234	1
243	1
244	1
245	4
246	1
247	1
249	1
250	1
255	2
256	1
257	10
258	2
259	6
260	2
261	3
262	1
263	6
264	1
265	1
272	2
273	9
274	1
277	2
278	1
279	1
285	4
286	1
299	2
300	1
305	1
307	7
308	2
309	1
320	3
321	12
322	3
323	1
332	3
333	11
334	3
335	1
346	1
347	1
362	1
373	1
374	4
375	15
376	5
377	1
378	1
666	1
667	1
712	1
753	1
