Mass spectrum: Sinigrin; LC-ESI-QTOF; MS2; CE:Ramp 5-60 V; [M-H]-
Name: Sinigrin
Name: SIG
Name: 2-propenyl glucosinolate
Name: Sinigroside
Name: Myronate
Name: Allyl glucosinolate
Name: (2R,3R,4S,5R,6S)-3,4,5-trihydroxy-2-(hydroxymethyl)-6-(C-prop-2-enyl-N-sulfooxy-carbonimidoyl)sulfanyl-oxane
Name: 1-(beta-D-glucopyranosylthio)but-3-enylideneaminooxysulphonate
Class: Alkenylglucosinolate
Formula: C10H17NO9S2
Exact mass: 359.03447
SMILES: C=CCC(=NOS(O)(=O)=O)SC(O1)C(O)C(O)C(O)C(CO)1
InChI: InChI=1S/C10H17NO9S2/c1-2-3-6(11-20-22(16,17)18)21-10-9(15)8(14)7(13)5(4-12)19-10/h2,5,7-10,12-15H,1,3-4H2,(H,16,17,18)/t5-,7-,8+,9-,10+/m1/s1
Instrument: UPLC Q-Tof Premier, Waters
Instrument type: LC-ESI-QTOF
Ms type: MS2
Ion mode: NEGATIVE
Collision energy: Ramp 5-60 V
Fragmentation mode: LOW-ENERGY CID
Ionization: ESI
Derivative form: C10H17NO9S2.K
Derivative mass: 397.46
Precursor m/z: 358.02667
Precursor type: [M-H]-
m/z	relative intensity
74.9927	746
79.9592	125
95.9534	690
96.9612	999
358.0267	825
