Mass spectrum: 3,4-Dihydroxyphenylacetic acid; GC-EI-TOF; MS; 3 TMS; BP:73
Name: 3,4-Dihydroxyphenylacetic acid
Name: 3,4-Dihydroxyphenyl acetate
Name: 3,4-Dihydroxyphenyl acetic acid
Name: 3,4-Dihydroxyphenylacetate
Name: Homoprotocatechuate
Class: Natural Product
Formula: C8H8O4
Exact mass: 168.04226
SMILES: OC(=O)Cc(c1)cc(O)c(O)c1
InChI: InChI=1S/C8H8O4/c9-6-2-1-5(3-7(6)10)4-8(11)12/h1-3,9-10H,4H2,(H,11,12)
Instrument: Pegasus III TOF-MS system, Leco; GC 6890, Agilent Technologies
Instrument type: GC-EI-TOF
Ms type: MS
Ion mode: POSITIVE
Retention time: 478.59 sec
Base peak: 73
Derivative form: C17H32O4Si3
Derivative mass: 384.16084
Derivative type: 3 TMS
m/z	relative intensity
60	5
61	12
62	3
63	5
64	1
65	4
66	2
67	1
69	1
70	4
71	4
72	15
73	999
74	91
75	111
76	11
77	30
78	7
79	6
81	1
82	5
83	3
84	1
85	2
87	2
88	1
89	6
90	2
91	13
92	2
93	2
95	3
97	2
99	3
101	1
102	2
103	11
104	34
105	15
106	1
107	1
109	1
111	1
115	7
116	1
117	8
118	3
119	16
120	2
121	3
123	1
131	9
132	1
133	18
134	2
135	10
136	1
137	1
145	2
147	22
148	5
149	36
150	6
151	4
161	5
162	2
163	13
164	2
165	2
175	1
176	1
177	7
178	10
179	263
180	41
181	13
182	1
191	2
192	1
193	9
194	1
195	2
206	2
207	3
209	6
210	1
221	1
223	2
225	5
226	1
235	1
236	1
237	43
238	10
239	4
251	4
252	2
253	8
254	2
265	7
266	2
267	73
268	19
269	7
270	1
281	6
282	1
340	4
341	2
342	1
369	10
370	4
371	1
383	5
384	52
385	18
386	8
387	2
