Mass spectrum: DL-Glyceraldehyde 3-phosphate; LC-ESI-QTOF; MS2; CE:Ramp 5-60 V; [M-H]-
Name: DL-Glyceraldehyde 3-phosphate
Name: Glyceraldehyde-3P
Class: Natural Product; Carbohydrate; Phosphates
Formula: C3H7O6P
Exact mass: 169.99802
SMILES: O=CC([H])(O)COP(O)(O)=O
InChI: InChI=1S/C3H7O6P/c4-1-3(5)2-9-10(6,7)8/h1,3,5H,2H2,(H2,6,7,8)
Instrument: UPLC Q-Tof Premier, Waters
Instrument type: LC-ESI-QTOF
Ms type: MS2
Ion mode: NEGATIVE
Collision energy: Ramp 5-60 V
Fragmentation mode: LOW-ENERGY CID
Ionization: ESI
Precursor m/z: 168.99023
Precursor type: [M-H]-
m/z	relative intensity
78.9600	640
79.3471	11
96.8608	11
96.9053	10
96.9364	13
96.9696	999
97.0702	13
97.1450	15
97.4832	11
97.8412	12
97.9124	12
98.0524	14
98.1009	11
98.9025	11
150.9830	58
168.9902	21
