Mass spectrum: L-Ethionine; LC-ESI-QTOF; MS2; CE:Ramp 5-60 V; [M+H]+
Name: L-Ethionine
Name: Eth
Name: Et-homoCys
Name: S-ethyl-L-homocysteine
Name: L-2-Amino-4-(ethylthio)butyric acid
Class: Amino acids
Formula: C6H13NO2S
Exact mass: 163.06670
SMILES: CCSCC[C@H](N)C(O)=O
InChI: InChI=1S/C6H13NO2S/c1-2-10-4-3-5(7)6(8)9/h5H,2-4,7H2,1H3,(H,8,9)/t5-/m0/s1
Instrument: UPLC Q-Tof Premier, Waters
Instrument type: LC-ESI-QTOF
Ms type: MS2
Ion mode: POSITIVE
Collision energy: Ramp 5-60 V
Fragmentation mode: LOW-ENERGY CID
Ionization: ESI
Precursor m/z: 164.0745
Precursor type: [M+H]+
m/z	relative intensity
56.0511	162
73.0124	106
74.0249	145
74.0612	108
75.0275	999
101.0431	92
102.0557	387
118.0692	849
147.0479	893
164.0745	304
