Mass spectrum: Citric acid; LC-ESI-QTOF; MS2; CE:Ramp 5-60 V; [M-H]-
Name: Citric acid
Name: citr
Name: citrate
Name: Aciletten
Name: Citretten
Name: Citro
Name: Chemfill
Name: Hydrocerol A
Name: 2-Hydroxypropanetricarboxylic Acid
Name: 2-Hydroxy-1,2,3-propanetricarboxylic acid
Class: Carboxylic acids
Formula: C6H8O7
Exact mass: 192.02700
SMILES: OC(=O)CC(O)(CC(O)=O)C(O)=O
InChI: InChI=1S/C6H8O7/c7-3(8)1-6(13,5(11)12)2-4(9)10/h13H,1-2H2,(H,7,8)(H,9,10)(H,11,12)
Instrument: UPLC Q-Tof Premier, Waters
Instrument type: LC-ESI-QTOF
Ms type: MS2
Ion mode: NEGATIVE
Collision energy: Ramp 5-60 V
Fragmentation mode: LOW-ENERGY CID
Ionization: ESI
Precursor m/z: 191.0192
Precursor type: [M-H]-
m/z	relative intensity
85.0298	300
86.1162	42
87.0081	402
102.9480	117
111.0082	999
129.0196	71
145.8915	143
146.8976	524
146.9350	67
146.9581	42
162.8920	567
173.0049	67
190.8935	73
191.0192	304
