Mass spectrum: Diethanolamine; LC-ESI-QTOF; MS2; CE:Ramp 5-60 V; [M+H]+
Name: Diethanolamine
Name: 2,2'-Iminodiethanol
Name: 2,2'-Dihydroxydiethylamine
Name: Bis(2-hydroxyethyl)amine
Name: Diolamine
Name: Diethylolamine
Name: 2-(2-Hydroxyethylamino)ethanol
Class: Amino alcohol
Formula: C4H11NO2
Exact mass: 105.07898
SMILES: OCCNCCO
InChI: InChI=1S/C4H11NO2/c6-3-1-5-2-4-7/h5-7H,1-4H2
Instrument: UPLC Q-Tof Premier, Waters
Instrument type: LC-ESI-QTOF
Ms type: MS2
Ion mode: POSITIVE
Collision energy: Ramp 5-60 V
Fragmentation mode: LOW-ENERGY CID
Ionization: ESI
Precursor m/z: 106.08677
Precursor type: [M+H]+
m/z	relative intensity
88.0778	24
106.0293	16
106.0868	999
