Mass spectrum: Callistephin; LC-ESI-QTOF; MS2; CE:30 V; [M-2H]-
Name: pelargonidin-3-O-glucoside
Name: pelargonidin 3-O-beta-D-glucopyranoside
Name: Callistephin
Class: Natural Product
Formula: [C21H21O10]+
Exact mass: 433.11347
SMILES: OCC(O1)C(O)C(O)C(O)C1Oc(c3)c([o+1]c(c4)c(c(O)cc(O)4)3)c(c2)ccc(O)c2
InChI: InChI=1S/C21H20O10/c22-8-16-17(26)18(27)19(28)21(31-16)30-15-7-12-13(25)5-11(24)6-14(12)29-20(15)9-1-3-10(23)4-2-9/h1-7,16-19,21-22,26-28H,8H2,(H2-,23,24,25)/p+1/t16-,17-,18+,19-,21-/m1/s1
Instrument: UPLC Q-Tof Premier, Waters
Instrument type: LC-ESI-QTOF
Ms type: MS2
Ion mode: NEGATIVE
Collision energy: 30 V
Fragmentation mode: LOW-ENERGY CID
Ionization: ESI
Full scan fragment ion peak: 431.1
Ion type: [M-2H]-
m/z	relative intensity
93.0854	42
147.0255	352
148.0105	116
148.9886	58
173.0700	37
180.0581	34
195.0812	34
196.0155	64
197.1303	64
199.0545	93
201.0804	33
211.0657	43
212.0015	34
213.0769	64
223.0463	75
224.0804	158
225.0457	82
226.0758	49
226.9655	37
239.0534	102
240.0555	139
241.0496	232
241.8633	51
266.0880	31
267.0363	119
268.0484	999
269.0506	647
269.9276	161
270.7969	46
412.8314	46
