Mass spectrum: O-Acetyl-L-homoserine; LC-ESI-QTOF; MS2; CE:Ramp 5-60 V; [M+H]+
Name: O-Acetyl-L-homoserine
Name: Ac-HSer
Name: (2S)-4-(acetyloxy)-2-aminobutanoic acid
Class: Amino acids
Formula: C6H11NO4
Exact mass: 161.06881
SMILES: CC(=O)OCC[C@H](N)C(O)=O
InChI: InChI=1S/C6H11NO4/c1-4(8)11-3-2-5(7)6(9)10/h5H,2-3,7H2,1H3,(H,9,10)/t5-/m0/s1
Instrument: UPLC Q-Tof Premier, Waters
Instrument type: LC-ESI-QTOF
Ms type: MS2
Ion mode: POSITIVE
Collision energy: Ramp 5-60 V
Fragmentation mode: LOW-ENERGY CID
Ionization: ESI
Precursor m/z: 162.0766
Precursor type: [M+H]+
m/z	relative intensity
56.0508	97
74.0241	248
74.0603	637
84.0448	186
102.0549	999
120.0654	328
162.0766	181
