Mass spectrum: Daidzin; LC-ESI-QTOF; MS2; CE:Ramp 5-60 V; [M+H]+
Name: Daidzin
Name: Daidzein-7-O-glucoside
Name: Daidzoside
Name: 3-(4-hydroxyphenyl)-7-[(2S,3R,4S,5S,6R)-3,4,5-trihydroxy-6-(hydroxymethyl)oxan-2-yl]oxychromen-4-one
Name: 4',7-hydroxyisoflavone-7-glucoside
Class: Natural Product
Formula: C21H20O9
Exact mass: 416.11073
SMILES: C1=CC(=CC=C1C2=COC3=C(C2=O)C=CC(=C3)O[C@H]4[C@@H]([C@H]([C@@H]([C@H](O4)CO)O)O)O)O
InChI: InChI=1S/C21H20O9/c22-8-16-18(25)19(26)20(27)21(30-16)29-12-5-6-13-15(7-12)28-9-14(17(13)24)10-1-3-11(23)4-2-10/h1-7,9,16,18-23,25-27H,8H2/t16-,18-,19+,20-,21-/m1/s1
Instrument: UPLC Q-Tof Premier, Waters
Instrument type: LC-ESI-QTOF
Ms type: MS2
Ion mode: POSITIVE
Collision energy: Ramp 5-60 V
Fragmentation mode: LOW-ENERGY CID
Ionization: ESI
Full scan fragment ion peak: 417.1
Ion type: [M+H]+
m/z	relative intensity
137.0240	50
181.0660	47
199.0762	81
227.0717	36
255.0658	999
255.1490	199
256.0689	44
417.1186	85
