Mass spectrum: Lignoceric acid; LC-ESI-QTOF; MS2; CE:Ramp 5-60 V; [M+H]+
Name: Lignoceric acid
Name: Carboxylic Acid C24
Name: Tetracosaoic acid
Class: Fatty acids
Formula: C24H48O2
Exact mass: 368.36543
SMILES: CCCCCCCCCCCCCCCCCCCCCCCC(O)=O
InChI: InChI=1S/C24H48O2/c1-2-3-4-5-6-7-8-9-10-11-12-13-14-15-16-17-18-19-20-21-22-23-24(25)26/h2-23H2,1H3,(H,25,26)
Instrument: UPLC Q-Tof Premier, Waters
Instrument type: LC-ESI-QTOF
Ms type: MS2
Ion mode: POSITIVE
Collision energy: Ramp 5-60 V
Fragmentation mode: LOW-ENERGY CID
Ionization: ESI
Precursor m/z: 369.37321
Precursor type: [M+H]+
m/z	relative intensity
99.5365	77
105.0970	999
147.1068	56
369.2571	116
