Mass spectrum: O-Phospho-L-serine; LC-ESI-QTOF; MS2; CE:Ramp 5-60 V; [M-H]-
Name: O-Phospho-L-serine
Name: L-SOP
Name: Ser(P)
Name: 3-phosphoserine
Name: Dexfosfoserine
Name: L-2-Amino-3-hydroxypropanoic acid 3-phosphate
Name: L-Serine O-phosphate
Name: Plasmenylserine
Name: Serine phosphate
Class: Amino acids
Formula: C3H8NO6P
Exact mass: 185.00892
SMILES: N[C@@H](COP(O)(O)=O)C(O)=O
InChI: InChI=1S/C3H8NO6P/c4-2(3(5)6)1-10-11(7,8)9/h2H,1,4H2,(H,5,6)(H2,7,8,9)/t2-/m0/s1
Instrument: UPLC Q-Tof Premier, Waters
Instrument type: LC-ESI-QTOF
Ms type: MS2
Ion mode: NEGATIVE
Collision energy: Ramp 5-60 V
Fragmentation mode: LOW-ENERGY CID
Ionization: ESI
Precursor m/z: 184.00112
Precursor type: [M-H]-
m/z	relative intensity
78.9598	469
96.9693	999
184.0011	88
