Mass spectrum: 3,4-Dimethoxycinnamic acid; LC-ESI-QTOF; MS2; CE:30 V; [M+H]+
Name: 3,4-Dimethoxycinnamic acid
Name: Dimethyl caffeic acid
Name: (E)-3-(3,4-dimethoxyphenyl)prop-2-enoic acid
Class: Natural Product
Formula: C11H12O4
Exact mass: 208.07356
SMILES: COc(c1)c(OC)cc(C=CC(O)=O)c1
InChI: InChI=1S/C11H12O4/c1-14-9-5-3-8(4-6-11(12)13)7-10(9)15-2/h3-7H,1-2H3,(H,12,13)/b6-4+
Instrument: UPLC Q-Tof Premier, Waters
Instrument type: LC-ESI-QTOF
Ms type: MS2
Ion mode: POSITIVE
Collision energy: 30 V
Fragmentation mode: LOW-ENERGY CID
Ionization: ESI
Full scan fragment ion peak: 209.1
Ion type: [M+H]+
m/z	relative intensity
65.0404	30
77.0406	358
78.0481	41
79.0561	127
89.0409	249
90.0486	177
91.0565	999
91.1067	67
92.0638	102
94.0440	31
102.0491	337
103.0568	286
104.0638	30
105.0363	474
105.0727	52
117.0365	262
118.0442	318
119.0523	748
119.1091	43
120.0601	237
122.0391	31
130.0449	43
131.0528	82
132.0606	551
132.1196	31
133.0320	581
133.0674	53
133.0913	30
145.0331	32
147.0483	321
148.0560	390
160.0557	37
163.0796	153
