Mass spectrum: beta-Ketoadipic acid; GC-EI-TOF; MS; 2 TMS; 1 MEOX; BP:73
Name: beta-Ketoadipic acid
Name: 3-Keto-adipate
Name: 3-Oxoadipic acid
Name: 3-Oxoadipate
Class: Natural Product
Formula: C6H8O5
Exact mass: 160.03717
SMILES: OC(=O)CCC(=O)CC(O)=O
InChI: InChI=1S/C6H8O5/c7-4(3-6(10)11)1-2-5(8)9/h1-3H2,(H,8,9)(H,10,11)
Instrument: Pegasus III TOF-MS system, Leco; GC 6890, Agilent Technologies
Instrument type: GC-EI-TOF
Ms type: MS
Ion mode: POSITIVE
Retention time: 437.89 sec
Base peak: 73
Derivative form: C13H27NO5Si2
Derivative mass: 333.14278
Derivative type: 2 TMS; 1 MEOX
m/z	relative intensity
60	22
61	58
62	4
63	2
65	1
66	17
67	38
68	7
69	3
70	22
71	9
72	58
73	999
74	105
75	368
76	31
77	40
80	2
81	1
82	10
83	4
84	27
85	10
86	29
87	10
88	13
89	124
90	12
91	13
92	3
93	1
94	10
95	5
96	43
97	11
98	78
99	14
100	10
101	19
102	10
103	27
104	2
105	5
109	1
110	1
111	2
112	16
113	4
114	7
115	14
116	34
117	40
118	5
119	4
122	4
123	2
124	2
125	7
126	191
127	16
128	5
129	44
130	15
131	11
132	2
133	17
134	2
135	2
138	1
139	1
140	12
141	3
142	5
143	5
144	2
145	1
147	118
148	18
149	14
150	1
151	1
152	9
153	16
154	20
155	2
156	22
157	18
158	7
159	1
160	1
162	1
163	1
164	1
168	29
169	10
170	25
171	5
172	3
173	5
174	1
175	1
176	6
177	7
178	1
179	1
182	1
184	12
185	2
186	21
187	3
188	1
189	2
190	1
194	1
196	2
197	1
198	2
199	10
200	3
201	1
212	11
213	1
214	1
215	3
216	23
217	5
218	2
228	8
229	1
230	1
242	4
243	59
244	12
245	2
258	2
286	1
287	1
288	1
302	4
303	1
317	1
318	11
319	3
320	2
333	2
334	1
548	1
553	1
