Mass spectrum: Thymidine-5'-monophosphate; LC-ESI-QTOF; MS2; CE:Ramp 5-60 V; [M-H]-
Name: Thymidine-5'-monophosphate
Name: dTMP
Name: deoxy-TMP
Name: Deoxythymidine 5'-phosphate
Name: Deoxythymidylic acid
Name: Thymidylic acid
Name: Thymidylate
Class: Natural Product; Nucleoside; Phosphates
Formula: C10H15N2O8P
Exact mass: 322.05660
SMILES: O=C(N2)C(C)=CN(C(=O)2)[C@@H](C1)O[C@H](COP(O)(O)=O)[C@@H](O)1
InChI: InChI=1S/C10H15N2O8P/c1-5-3-12(10(15)11-9(5)14)8-2-6(13)7(20-8)4-19-21(16,17)18/h3,6-8,13H,2,4H2,1H3,(H,11,14,15)(H2,16,17,18)/t6-,7+,8+/m0/s1
Instrument: UPLC Q-Tof Premier, Waters
Instrument type: LC-ESI-QTOF
Ms type: MS2
Ion mode: NEGATIVE
Collision energy: Ramp 5-60 V
Fragmentation mode: LOW-ENERGY CID
Ionization: ESI
Precursor m/z: 321.0488
Precursor type: [M-H]-
m/z	relative intensity
78.9601	999
96.9703	268
125.0360	447
176.9962	145
195.0067	422
321.0488	560
