Mass spectrum: L-beta-Homoproline; LC-ESI-QTOF; MS2; CE:30 V; [M+H]+
Name: L-beta-Homoproline
Name: (S)-2-(2-Pyrrolidinyl)acetic acid
Class: Amino acids
Formula: C6H11NO2
Exact mass: 129.07898
SMILES: OC(=O)CC(C1)NCC1
InChI: InChI=1S/C6H11NO2/c8-6(9)4-5-2-1-3-7-5/h5,7H,1-4H2,(H,8,9)/t5-/m0/s1
Instrument: UPLC Q-Tof Premier, Waters
Instrument type: LC-ESI-QTOF
Ms type: MS2
Ion mode: POSITIVE
Collision energy: 30 V
Fragmentation mode: LOW-ENERGY CID
Ionization: ESI
Precursor m/z: 130.08677
Precursor type: [M+H]+
m/z	relative intensity
70.0658	999
71.0487	13
130.0868	12
