Mass spectrum: Flavanone; LC-ESI-QTOF; MS2; CE:Ramp 5-60 eV; [M+H]+
Name: 2,3-dihydroflavone
Name: Flavanone
Name: Flva
Name: 2-phenylchroman-4-one
Class: Natural Product
Formula: C15H12O2
Exact mass: 224.08373
SMILES: c(c3)ccc(c3)C(C1)Oc(c2)c(ccc2)C(=O)1
InChI: InChI=1S/C15H12O2/c16-13-10-15(11-6-2-1-3-7-11)17-14-9-5-4-8-12(13)14/h1-9,15H,10H2
Instrument: UPLC Q-Tof Premier, Waters
Instrument type: LC-ESI-QTOF
Ms type: MS2
Ion mode: POSITIVE
Collision energy: Ramp 5-60 eV
Fragmentation mode: LOW-ENERGY CID
Ionization: ESI
Full scan fragment ion peak: 225.1
Ion type: [M+H]+
m/z	relative intensity
65.0277	101
77.0303	75
79.0467	17
91.0484	25
93.0280	132
103.0501	260
103.1020	23
105.0293	15
119.0471	16
121.0260	999
121.0820	83
122.0288	15
131.0476	233
131.1055	18
147.0436	122
152.0612	20
178.0784	161
179.0860	210
181.0655	26
197.0984	15
207.0812	104
210.0681	243
225.0916	907
225.1670	55
226.0946	36
