Mass spectrum: Cyanidin-3-O-alpha-arabinopyranoside; LC-ESI-QTOF; MS2; CE:Ramp 5-60 V; [M-2H]-
Name: Cyanidin-3-O-alpha-arabinopyranoside
Name: Cy 3-Ara
Class: Anthocyanidin
Formula: [C20H19O10]+
Exact mass: 419.09782
SMILES: Oc(c4)c(O)cc(c4)c([o+1]1)c(OC(O3)C(O)C(O)C(O)C3)cc(c(O)2)c(cc(O)c2)1
InChI: InChI=1S/C20H18O10/c21-9-4-12(23)10-6-16(30-20-18(27)17(26)14(25)7-28-20)19(29-15(10)5-9)8-1-2-11(22)13(24)3-8/h1-6,14,17-18,20,25-27H,7H2,(H3-,21,22,23,24)/p+1/t14-,17-,18+,20-/m0/s1
Instrument: UPLC Q-Tof Premier, Waters
Instrument type: LC-ESI-QTOF
Ms type: MS2
Ion mode: NEGATIVE
Collision energy: Ramp 5-60 V
Fragmentation mode: LOW-ENERGY CID
Ionization: ESI
Derivative form: C20H19O10.Cl
Derivative mass: 454.81
Precursor m/z: 417.08219
Precursor type: [M-2H]-
m/z	relative intensity
125.0250	50
147.0085	102
148.0162	60
183.0464	51
211.0413	86
227.0353	87
239.0367	59
255.0306	163
256.0384	70
283.0255	106
284.0338	999
285.0412	245
417.0822	493
