Mass spectrum: 3',5'-Cyclic AMP; LC-ESI-QTOF; MS2; CE:Ramp 5-60 V; [M+H]+
Name: Adenosine 3',5'-cyclicmonophosphate
Name: cAMP
Name: Cyclic AMP
Name: Adenosine 3',5'-cyclophosphate
Name: Cyclic-3',5'-adenylic acid
Name: 3',5'-Cyclic AMP
Class: Natural Product; Nucleoside; Phosphates
Formula: C10H12N5O6P
Exact mass: 329.05252
SMILES: Nc(n4)c(n3)c(nc4)n(c3)[C@H](O1)[C@H](O)[C@H](O2)[C@@H](COP(O)(=O)2)1
InChI: InChI=1S/C10H12N5O6P/c11-8-5-9(13-2-12-8)15(3-14-5)10-6(16)7-4(20-10)1-19-22(17,18)21-7/h2-4,6-7,10,16H,1H2,(H,17,18)(H2,11,12,13)/t4-,6-,7-,10-/m1/s1
Instrument: UPLC Q-Tof Premier, Waters
Instrument type: LC-ESI-QTOF
Ms type: MS2
Ion mode: POSITIVE
Collision energy: Ramp 5-60 V
Fragmentation mode: LOW-ENERGY CID
Ionization: ESI
Precursor m/z: 330.06032
Precursor type: [M+H]+
m/z	relative intensity
136.0632	95
329.8911	26
330.0603	999
