Mass spectrum: 1,2-Dilauroyl-sn-glycero-3-phosphate; LC-ESI-QTOF; MS2; CE:Ramp 5-60 V; [M-H]-
Name: 1,2-Dilauroyl-sn-glycero-3-phosphate
Name: DLPA
Name: 12:0/12:0PA
Name: Dilauroylphosphatidic acid
Name: 1,2-Didodecanoyl phosphatidyl 1'-sn-glycerol
Class: Glycerophosphate
Formula: C27H53O8P
Exact mass: 536.34781
SMILES: CCCCCCCCCCCC(=O)OCC(OC(=O)CCCCCCCCCCC)COP(O)(O)=O
InChI: InChI=1S/C27H53O8P/c1-3-5-7-9-11-13-15-17-19-21-26(28)33-23-25(24-34-36(30,31)32)35-27(29)22-20-18-16-14-12-10-8-6-4-2/h25H,3-24H2,1-2H3,(H2,30,31,32)/t25-/m1/s1
Instrument: UPLC Q-Tof Premier, Waters
Instrument type: LC-ESI-QTOF
Ms type: MS2
Ion mode: NEGATIVE
Collision energy: Ramp 5-60 V
Fragmentation mode: LOW-ENERGY CID
Ionization: ESI
Precursor m/z: 535.33999
Precursor type: [M-H]-
m/z	relative intensity
78.9609	105
152.9967	336
199.1703	999
335.1658	211
353.1725	95
535.3400	496
