Mass spectrum: 1-Methylnicotinamide; LC-ESI-QTOF; MS2; CE:30 V; [M]+
Name: 1-Methylnicotinamide
Name: N-Methylnicotinic acid amide
Name: 3-Carbamoyl-1-methylpyridinium
Name: Nicotinamide methiodide
Class: Nicotinamide
Formula: [C7H9N2O]+
Exact mass: 137.07149
SMILES: NC(=O)c(c1)c[n+1](C)cc1
InChI: InChI=1S/C7H8N2O/c1-9-4-2-3-6(5-9)7(8)10/h2-5H,1H3,(H-,8,10)/p+1
Instrument: UPLC Q-Tof Premier, Waters
Instrument type: LC-ESI-QTOF
Ms type: MS2
Ion mode: POSITIVE
Collision energy: 30 V
Fragmentation mode: LOW-ENERGY CID
Ionization: ESI
Precursor m/z: 137.07146
Precursor type: [M]+
m/z	relative intensity
65.0396	213
67.0538	113
78.0349	460
79.0422	293
92.0505	510
93.0583	282
94.0662	999
96.0446	109
137.0715	261
