Mass spectrum: Eriodictyol-7-O-glucoside; LC-ESI-QTOF; MS2; CE:30 V; [M+H]+
Name: Eriodictyol-7-O-glucoside
Name: Pyracanthoside
Name: Erid_7_Glc
Name: 2-(3,4-dihydroxyphenyl)-5-hydroxy-7-[(2R,3R,4S,5R,6R)-3,4,5-trihydroxy-6-(hydroxymethyl)oxan-2-yl]oxy-chroman-4-one
Class: Natural Product
Formula: C21H22O11
Exact mass: 450.11621
SMILES: OCC(O1)C(O)C(O)C(O)C1Oc(c4)cc(O2)c(c(O)4)C(=O)CC2c(c3)cc(O)c(O)c3
InChI: InChI=1S/C21H22O11/c22-7-16-18(27)19(28)20(29)21(32-16)30-9-4-12(25)17-13(26)6-14(31-15(17)5-9)8-1-2-10(23)11(24)3-8/h1-5,14,16,18-25,27-29H,6-7H2/t14-,16+,18+,19-,20+,21+/m0/s1
Instrument: UPLC Q-Tof Premier, Waters
Instrument type: LC-ESI-QTOF
Ms type: MS2
Ion mode: POSITIVE
Collision energy: 30 V
Fragmentation mode: LOW-ENERGY CID
Ionization: ESI
Full scan fragment ion peak: 451.1
Ion type: [M+H]+
m/z	relative intensity
111.0052	33
123.0426	28
135.0438	40
139.0389	21
145.0284	113
153.0187	968
153.0838	167
154.0219	30
163.0398	999
163.1067	160
164.0439	46
179.0350	109
187.0410	47
205.0508	33
271.0623	45
289.0728	603
289.1616	73
290.0775	46
