Mass spectrum: Cholic acid; LC-ESI-QTOF; MS2; CE:30 V; [M-H]-
Name: Cholate
Name: Cholalic acid
Name: Chenodiol
Name: chenodeoxycholic acid
Name: Cholsaeure
Name: Colalin
Name: Cholalin
Name: ursocholic acid
Name: 3alpha,7alpha,12alpha-Trihydroxy-5beta-cholan-24-oic acid
Name: Cholic acid
Class: Bile acid
Formula: C24H40O5
Exact mass: 408.28757
SMILES: OC(=O)CC[C@@H](C)[C@@H](C4)[C@](C)([C@@H](O)3)[C@@H](C4)[C@H]([C@H](O)1)[C@H](C3)[C@](C)(C2)[C@@H](C[C@H](O)C2)C1
InChI: InChI=1S/C24H40O5/c1-13(4-7-21(28)29)16-5-6-17-22-18(12-20(27)24(16,17)3)23(2)9-8-15(25)10-14(23)11-19(22)26/h13-20,22,25-27H,4-12H2,1-3H3,(H,28,29)/t13-,14+,15-,16-,17+,18+,19-,20+,22+,23+,24-/m1/s1
Instrument: UPLC Q-Tof Premier, Waters
Instrument type: LC-ESI-QTOF
Ms type: MS2
Ion mode: NEGATIVE
Collision energy: 30 V
Fragmentation mode: LOW-ENERGY CID
Ionization: ESI
Precursor m/z: 407.27976
Precursor type: [M-H]-
m/z	relative intensity
69.0355	51
95.0505	61
251.2012	78
289.2174	214
325.2532	105
327.2692	61
341.2494	64
343.2645	404
345.2805	185
353.2487	66
407.2798	999
