Mass spectrum: L-Ascorbic acid; GC-EI-TOF; MS; 4 TMS; BP:73
Name: L-Ascorbic acid
Name: Ascorbic acid
Name: Ascorbate
Name: L-Ascorbate
Name: Vitamin C
Class: Natural Product
Formula: C6H8O6
Exact mass: 176.03209
SMILES: OC[C@H](O)[C@@H](O1)C(O)=C(O)C(=O)1
InChI: InChI=1S/C6H8O6/c7-1-2(8)5-3(9)4(10)6(11)12-5/h2,5,7-10H,1H2/t2-,5+/m0/s1
Instrument: Pegasus III TOF-MS system, Leco; GC 6890, Agilent Technologies
Instrument type: GC-EI-TOF
Ms type: MS
Ion mode: POSITIVE
Retention time: 487.113 sec
Base peak: 73
Derivative form: C18H40O6Si4
Derivative mass: 464.1902
Derivative type: 4 TMS
m/z	relative intensity
60	9
61	8
63	1
66	5
67	1
70	6
71	4
72	17
73	999
74	90
75	55
76	4
77	11
79	1
83	1
84	25
85	5
86	3
87	3
88	3
89	119
90	10
91	5
98	2
99	2
100	34
101	13
102	5
103	66
104	6
105	7
107	1
111	1
112	1
113	2
114	1
115	3
116	3
117	76
118	7
119	7
125	4
126	3
127	1
128	9
129	7
130	6
131	15
132	3
133	76
134	9
135	4
141	1
142	1
143	1
144	5
145	2
147	161
148	27
149	14
150	1
154	1
155	1
157	1
158	3
159	6
160	1
161	1
163	6
171	1
172	28
173	5
174	3
175	3
177	3
183	1
185	15
186	2
187	1
188	1
189	4
190	6
191	5
192	1
200	1
201	2
203	1
204	3
205	39
206	7
207	3
211	1
217	5
218	1
219	1
221	2
243	7
244	2
258	1
271	6
272	1
273	3
276	3
289	3
291	1
302	1
303	30
304	8
305	3
334	4
335	1
344	1
345	1
347	1
375	1
405	1
406	5
407	2
408	1
435	1
523	2
524	1
