Mass spectrum: Itaconic acid; LC-ESI-QTOF; MS2; CE:Ramp 5-60 V; [M-H]-
Name: Itaconic acid
Name: Itaconate
Name: Methylenesuccinic acid
Name: Methylenebutanedioic acid
Name: 2-Propene-1,2-dicarboxylic acid
Name: 3-Carboxy-3-butenoic Acid
Name: Propylenedicarboxylic acid
Class: Carboxylic acids
Formula: C5H6O4
Exact mass: 130.02661
SMILES: OC(=O)CC(=C)C(O)=O
InChI: InChI=1S/C5H6O4/c1-3(5(8)9)2-4(6)7/h1-2H2,(H,6,7)(H,8,9)
Instrument: UPLC Q-Tof Premier, Waters
Instrument type: LC-ESI-QTOF
Ms type: MS2
Ion mode: NEGATIVE
Collision energy: Ramp 5-60 V
Fragmentation mode: LOW-ENERGY CID
Ionization: ESI
Precursor m/z: 129.01881
Precursor type: [M-H]-
m/z	relative intensity
85.0296	999
129.0188	178
