Mass spectrum: Cyanidin-3-O-(2''-O-beta-xylopyranosyl-beta-glucopyranoside); LC-ESI-QTOF; MS2; CE:Ramp 5-60 V; [M-2H]-
Name: Cyanidin-3-O-(2''-O-beta-xylopyranosyl-beta-glucopyranoside)
Name: Cy 3-Samb
Name: Sambicyanin
Name: Gossypicyanin
Name: cyanidin-3-xyloglucoside
Name: cyanidine-3-sambubioside
Name: 3,5,7,3',4'-pentahydroxyflavylium-3-O-beta-D-xylopyranosyl-(1-2)-beta-D-glucopyranoside
Class: Anthocyanidin
Formula: [C26H29O15]+
Exact mass: 581.15065
SMILES: C(C5O)(O)COC(C5O)(OC(C4O)C(OC(C4O)CO)Oc(c2)c([o+1]c(c3)c(c(O)cc3O)2)c(c1)ccc(O)c1O)[H]
InChI: InChI=1S/C26H28O15/c27-7-18-20(34)21(35)24(41-25-22(36)19(33)15(32)8-37-25)26(40-18)39-17-6-11-13(30)4-10(28)5-16(11)38-23(17)9-1-2-12(29)14(31)3-9/h1-6,15,18-22,24-27,32-36H,7-8H2,(H3-,28,29,30,31)/p+1/t15-,18-,19+,20-,21+,22-,24-,25+,26-/m1/s1
Instrument: UPLC Q-Tof Premier, Waters
Instrument type: LC-ESI-QTOF
Ms type: MS2
Ion mode: NEGATIVE
Collision energy: Ramp 5-60 V
Fragmentation mode: LOW-ENERGY CID
Ionization: ESI
Derivative form: C26H29O15.Cl
Derivative mass: 616.95
Precursor m/z: 579.13501
Precursor type: [M-2H]-
m/z	relative intensity
255.0299	128
283.0270	109
284.0340	999
339.0522	99
579.1350	747
