Mass spectrum: Isopentenyladenosine; LC-ESI-QTOF; MS2; CE:Ramp 5-60 V; [M+H]+
Name: 6-(gamma,gamma-Dimethylallylamino)purine riboside
Name: 2iP Riboside
Name: Riboprine
Name: Isopentenyladenosine
Name: Dimethylallyladenosine
Name: N-Isopentenyladenosine
Name: 2iPA
Name: Isopentenyl adenine riboside
Name: N6-(gamma,gamma-Dimethylallyl)adenosine
Name: N-6-(delta-2-Isopentenyl)adenosinehemihydrate
Formula: C15H21N5O4
Exact mass: 335.15935
SMILES: CC(C)=CCNc(n3)c(n2)c(nc3)n(c2)C(O1)C(O)C(O)C(CO)1
InChI: InChI=1S/C15H21N5O4/c1-8(2)3-4-16-13-10-14(18-6-17-13)20(7-19-10)15-12(23)11(22)9(5-21)24-15/h3,6-7,9,11-12,15,21-23H,4-5H2,1-2H3,(H,16,17,18)/t9-,11-,12-,15-/m1/s1
Instrument: UPLC Q-Tof Premier, Waters
Instrument type: LC-ESI-QTOF
Ms type: MS2
Ion mode: POSITIVE
Collision energy: Ramp 5-60 V
Fragmentation mode: LOW-ENERGY CID
Ionization: ESI
Precursor m/z: 336.16715
Precursor type: [M+H]+
m/z	relative intensity
69.0733	120
119.0402	155
136.0656	999
148.0668	657
204.1272	554
336.1671	280
