Mass spectrum: L-Leucine; LC-ESI-QTOF; MS2; CE:Ramp 5-60 V; [M-H]-
Name: L-Leucine
Name: L-Leu
Name: L-2-Amino-4-methylvaleric Acid
Name: L-alpha-Aminoisocaproic acid
Name: (S)-2-Amino-4-methylpentanoic acid
Class: Amino acids
Formula: C6H13NO2
Exact mass: 131.09463
SMILES: CC(C)C[C@H](N)C(O)=O
InChI: InChI=1S/C6H13NO2/c1-4(2)3-5(7)6(8)9/h4-5H,3,7H2,1-2H3,(H,8,9)/t5-/m0/s1
Instrument: UPLC Q-Tof Premier, Waters
Instrument type: LC-ESI-QTOF
Ms type: MS2
Ion mode: NEGATIVE
Collision energy: Ramp 5-60 V
Fragmentation mode: LOW-ENERGY CID
Ionization: ESI
Precursor m/z: 130.08682
Precursor type: [M-H]-
m/z	relative intensity
84.0830	11
130.0868	999
