Mass spectrum: NADH; LC-ESI-QTOF; MS2; CE:Ramp 5-60 V; [M-H]-
Name: NADH
Class: Natural Product; Nicotinamide; Dinucleotides
Formula: C21H29N7O14P2
Exact mass: 665.12477
SMILES: NC(=O)C(C5)=CN(C=C5)[C@H](O1)[C@H](O)[C@H](O)[C@@H](COP(O)(=O)OP(O)(=O)OC[C@@H](O2)[C@@H](O)[C@@H](O)[C@@H]2n(c4)c(n3)c(n4)c(N)nc3)1
InChI: InChI=1S/C21H29N7O14P2/c22-17-12-19(25-7-24-17)28(8-26-12)21-16(32)14(30)11(41-21)6-39-44(36,37)42-43(34,35)38-5-10-13(29)15(31)20(40-10)27-3-1-2-9(4-27)18(23)33/h1,3-4,7-8,10-11,13-16,20-21,29-32H,2,5-6H2,(H2,23,33)(H,34,35)(H,36,37)(H2,22,24,25)/t10-,11-,13-,14-,15-,16-,20-,21-/m1/s1
Instrument: UPLC Q-Tof Premier, Waters
Instrument type: LC-ESI-QTOF
Ms type: MS2
Ion mode: NEGATIVE
Collision energy: Ramp 5-60 V
Fragmentation mode: LOW-ENERGY CID
Ionization: ESI
Precursor m/z: 664.11697
Precursor type: [M-H]-
m/z	relative intensity
78.9603	763
96.9720	158
134.0497	562
158.9254	275
211.0022	224
272.9626	158
312.9555	390
346.0578	274
408.0104	125
430.0060	207
448.0127	492
463.9720	120
485.9635	581
490.0278	175
527.9650	184
540.0659	134
541.0693	386
542.0636	158
542.0909	144
557.9946	197
663.1350	146
663.4788	291
663.5270	261
663.9124	134
664.0099	999
664.1169	706
664.4997	141
