Mass spectrum: Kaempferide; LC-ESI-QTOF; MS2; CE:Ramp 5-60 V; [M-H]-
Name: Kaempferide
Name: Kaer
Name: 3,5,7-trihydroxy-4'-methoxyflavone
Name: Kaempferid
Name: Kaempferol 4'-methyl ether
Name: 4'-O-Methylkaempferol
Name: 4H-1-Benzopyran-4-one, 3,5,7-trihydroxy-2-(4-methoxyphenyl)-
Class: Flavonoid
Formula: C16H12O6
Exact mass: 300.06339
SMILES: COc(c3)ccc(c3)C(O1)=C(O)C(=O)c(c(O)2)c(cc(O)c2)1
InChI: InChI=1S/C16H12O6/c1-21-10-4-2-8(3-5-10)16-15(20)14(19)13-11(18)6-9(17)7-12(13)22-16/h2-7,17-18,20H,1H3
Instrument: UPLC Q-Tof Premier, Waters
Instrument type: LC-ESI-QTOF
Ms type: MS2
Ion mode: NEGATIVE
Collision energy: Ramp 5-60 V
Fragmentation mode: LOW-ENERGY CID
Ionization: ESI
Precursor m/z: 299.05559
Precursor type: [M-H]-
m/z	relative intensity
63.0257	88
65.0048	59
83.0151	86
107.0147	185
108.0229	51
132.0225	90
151.0041	295
163.0042	81
164.0122	98
284.0333	951
299.0556	999
