Mass spectrum: Naringenin; LC-ESI-QTOF; MS2; CE:30 eV; [M-H]-
Name: 4',5,7-trihydroxyflavanone
Name: Naringenin
Name: Nari
Name: (2S)-5,7-dihydroxy-2-(4-hydroxyphenyl)chroman-4-one
Class: Natural Product
Formula: C15H12O5
Exact mass: 272.06847
SMILES: Oc(c3)ccc(c3)[C@H](C1)Oc(c2)c(c(O)cc(O)2)C(=O)1
InChI: InChI=1S/C15H12O5/c16-9-3-1-8(2-4-9)13-7-12(19)15-11(18)5-10(17)6-14(15)20-13/h1-6,13,16-18H,7H2/t13-/m0/s1
Instrument: UPLC Q-Tof Premier, Waters
Instrument type: LC-ESI-QTOF
Ms type: MS2
Ion mode: NEGATIVE
Collision energy: 30 eV
Fragmentation mode: LOW-ENERGY CID
Ionization: ESI
Full scan fragment ion peak: 271.1
Ion type: [M-H]-
m/z	relative intensity
63.0573	63
65.0526	125
83.0549	153
93.0858	69
107.0455	244
107.9775	42
108.9926	23
117.0615	31
118.1575	34
119.0815	999
119.9467	137
120.8579	42
143.0963	39
145.0768	32
151.0331	126
151.9353	20
161.0750	34
187.0718	59
