Mass spectrum: 4-Methylumbelliferone; LC-ESI-QTOF; MS2; CE:30 V; [M-H]-
Name: 7-Hydroxy-4-methylcoumarin
Name: 4-MU
Name: 4-Methylumbelliferone
Name: beta-Methylumbelliferone
Name: Hymecromone
Name: Cholestil
Class: Coumarins
Formula: C10H8O3
Exact mass: 176.04734
SMILES: Oc(c2)cc(O1)c(c2)C(C)=CC(=O)1
InChI: InChI=1S/C10H8O3/c1-6-4-10(12)13-9-5-7(11)2-3-8(6)9/h2-5,11H,1H3
Instrument: UPLC Q-Tof Premier, Waters
Instrument type: LC-ESI-QTOF
Ms type: MS2
Ion mode: NEGATIVE
Collision energy: 30 V
Fragmentation mode: LOW-ENERGY CID
Ionization: ESI
Precursor m/z: 175.03954
Precursor type: [M-H]-
m/z	relative intensity
65.0044	197
77.0404	359
89.0401	505
91.0192	115
93.0346	174
105.0348	339
119.0500	999
131.0497	147
133.0287	476
147.0445	236
175.0395	169
