Mass spectrum: Isorhamnetin-3-O-glucoside; LC-ESI-QTOF; MS2; CE:30 V; [M+H]+
Name: Isorhamnetin-3-O-glucoside
Name: Isor_3_Glc
Name: 5,7-dihydroxy-2-(4-hydroxy-3-methoxyphenyl)-3-[(2S,3R,4S,5S,6R)-3,4,5-trihydroxy-6-(hydroxymethyl)oxan-2-yl]oxychromen-4-one
Class: Natural Product
Formula: C22H22O12
Exact mass: 478.11113
SMILES: COc(c(O)4)cc(cc4)C(O1)=C(OC(O3)C(O)C(O)C(O)C(CO)3)C(=O)c(c(O)2)c(cc(O)c2)1
InChI: InChI=1S/C22H22O12/c1-31-12-4-8(2-3-10(12)25)20-21(17(28)15-11(26)5-9(24)6-13(15)32-20)34-22-19(30)18(29)16(27)14(7-23)33-22/h2-6,14,16,18-19,22-27,29-30H,7H2,1H3/t14-,16-,18+,19-,22+/m1/s1
Instrument: UPLC Q-Tof Premier, Waters
Instrument type: LC-ESI-QTOF
Ms type: MS2
Ion mode: POSITIVE
Collision energy: 30 V
Fragmentation mode: LOW-ENERGY CID
Ionization: ESI
Full scan fragment ion peak: 479.1
Ion type: [M+H]+
m/z	relative intensity
85.0219	60
97.0239	25
153.0192	25
257.0469	26
274.0496	34
285.0417	71
302.0448	222
302.1357	24
317.0676	999
317.1616	119
318.0716	56
