Mass spectrum: L-Valine; LC-ESI-QTOF; MS2; CE:Ramp 5-60 V; [M+H]+
Name: L-Valine
Name: Val
Name: L-2-Amino-3-methylbutanoic acid
Name: (S)-alpha-Aminoisovaleric acid
Name: L-alpha-Aminoisovalerianic Acid
Class: Amino acids
Formula: C5H11NO2
Exact mass: 117.07898
SMILES: CC(C)[C@H](N)C(O)=O
InChI: InChI=1S/C5H11NO2/c1-3(2)4(6)5(7)8/h3-4H,6H2,1-2H3,(H,7,8)/t4-/m0/s1
Instrument: UPLC Q-Tof Premier, Waters
Instrument type: LC-ESI-QTOF
Ms type: MS2
Ion mode: POSITIVE
Collision energy: Ramp 5-60 V
Fragmentation mode: LOW-ENERGY CID
Ionization: ESI
Precursor m/z: 118.08677
Precursor type: [M+H]+
m/z	relative intensity
55.0552	21
72.0809	999
118.0868	78
