Mass spectrum: DOPA; GC-EI-TOF; MS; 4 TMS; BP:73
Name: 3,4-Dihydroxy-L-phenylalanine
Name: L-Dopa
Name: Levodopa
Name: L-beta-(3,4-Dihydroxyphenyl)alanine
Name: Dihydroxy-L-phenylalanine
Name: 3-Hydroxy-L-tyrosine
Name: DOPA
Class: Natural Product
Formula: C9H11NO4
Exact mass: 197.06881
SMILES: OC(=O)C([H])(N)Cc(c1)cc(O)c(O)c1
InChI: InChI=1S/C9H11NO4/c10-6(9(13)14)3-5-1-2-7(11)8(12)4-5/h1-2,4,6,11-12H,3,10H2,(H,13,14)/t6-/m0/s1
Instrument: Pegasus III TOF-MS system, Leco; GC 6890, Agilent Technologies
Instrument type: GC-EI-TOF
Ms type: MS
Ion mode: POSITIVE
Retention time: 493.683 sec
Base peak: 73
Derivative form: C21H43NO4Si4
Derivative mass: 485.22692
Derivative type: 4 TMS
m/z	relative intensity
60	3
61	5
63	1
65	1
66	1
67	1
70	4
71	3
72	14
73	999
74	87
75	59
76	5
77	15
78	3
79	4
82	1
83	2
84	2
85	2
86	7
87	2
89	2
91	4
92	1
93	1
95	1
97	1
98	1
99	1
100	109
101	21
102	8
103	9
104	6
105	7
107	1
115	6
116	2
117	7
118	2
119	6
120	1
121	1
122	1
128	1
129	2
130	14
131	14
132	14
133	18
134	3
135	3
136	1
137	1
144	1
145	1
146	3
147	66
148	12
149	15
150	3
151	2
158	1
159	2
160	3
161	3
162	1
163	6
164	1
165	2
166	2
167	1
172	1
174	3
175	1
176	1
177	3
178	1
179	68
180	12
181	13
182	2
188	1
190	1
191	5
192	1
193	2
195	1
202	1
203	4
204	1
205	1
207	2
209	1
217	1
218	537
219	101
220	45
221	6
222	1
223	1
237	2
251	1
265	2
266	1
267	57
268	19
269	7
270	1
279	1
280	15
281	6
282	2
291	3
292	1
295	1
306	1
353	1
354	1
367	3
368	26
369	9
370	4
371	1
380	5
381	2
382	1
442	5
443	2
444	1
470	4
471	2
472	1
485	1
