Mass spectrum: Rhamnetin; LC-ESI-QTOF; MS2; CE:30 eV; [2M-H]-
Name: 3,3',4',5-tetrahydroxy-7-methoxyflavone
Name: Rhamnetin
Name: Ramn
Name: 2-(3,4-dihydroxyphenyl)-3,5-dihydroxy-7-methoxy-chromen-4-one
Class: Natural Product
Formula: C16H12O7
Exact mass: 316.05830
SMILES: COc(c3)cc(O1)c(c(O)3)C(=O)C(O)=C1c(c2)cc(O)c(O)c2
InChI: InChI=1S/C16H12O7/c1-22-8-5-11(19)13-12(6-8)23-16(15(21)14(13)20)7-2-3-9(17)10(18)4-7/h2-6,17-19,21H,1H3
Instrument: UPLC Q-Tof Premier, Waters
Instrument type: LC-ESI-QTOF
Ms type: MS2
Ion mode: NEGATIVE
Collision energy: 30 eV
Fragmentation mode: LOW-ENERGY CID
Ionization: ESI
Full scan fragment ion peak: 631.1
Ion type: [2M-H]-
m/z	relative intensity
88.7135	11
121.0597	34
165.0456	163
165.9049	25
193.0490	69
193.9379	11
258.8745	17
262.4465	10
287.0744	21
300.0518	44
311.8842	13
312.7132	23
314.0013	22
315.0631	999
315.9709	146
316.8433	44
317.7612	22
318.6819	15
