Mass spectrum: 6-Aminohexanoic acid; LC-ESI-QTOF; MS2; CE:Ramp 5-60 V; [M+H]+
Name: 6-Aminohexanoic acid
Name: EACA
Name: 6-Aca
Name: 6-Ahx
Name: ACS
Name: 6-Aminohexanoate
Name: epsilon-Amino-n-caproic acid
Name: Epsilcapramine
Name: 6-Aminocaproic acid
Name: Acepramine
Name: Caprolisin
Name: Epsilcapramin
Name: Hemocaprol
Name: epsilon-Leucin
Name: Respramin
Class: Amino acids
Formula: C6H13NO2
Exact mass: 131.09463
SMILES: NCCCCCC(O)=O
InChI: InChI=1S/C6H13NO2/c7-5-3-1-2-4-6(8)9/h1-5,7H2,(H,8,9)
Instrument: UPLC Q-Tof Premier, Waters
Instrument type: LC-ESI-QTOF
Ms type: MS2
Ion mode: POSITIVE
Collision energy: Ramp 5-60 V
Fragmentation mode: LOW-ENERGY CID
Ionization: ESI
Precursor m/z: 132.10242
Precursor type: [M+H]+
m/z	relative intensity
69.0708	859
73.0656	148
79.0552	353
96.0819	249
97.0662	128
114.0916	999
115.0771	137
115.9660	125
132.1024	507
