Mass spectrum: (2R)-2-Hydroxybut-3-enylglucosinolate; LC-ESI-QTOF; MS2; CE:Ramp 5-60 V; [M+K]+
Name: (2R)-2-Hydroxybut-3-enylglucosinolate
Name: Progoitrin
Name: Glucorapiferin
Name: (R)-2-Hydroxy-3-butenyl-glucosinolate
Class: Alkenylglucosinolate
Formula: C11H19NO10S2
Exact mass: 389.04504
SMILES: C=CC(O)CC(=NOS(O)(=O)=O)SC(O1)C(O)C(O)C(O)C(CO)1
InChI: InChI=1S/C11H19NO10S2/c1-2-5(14)3-7(12-22-24(18,19)20)23-11-10(17)9(16)8(15)6(4-13)21-11/h2,5-6,8-11,13-17H,1,3-4H2,(H,18,19,20)/b12-7-/t5-,6-,8-,9+,10-,11+/m1/s1
Instrument: UPLC Q-Tof Premier, Waters
Instrument type: LC-ESI-QTOF
Ms type: MS2
Ion mode: POSITIVE
Collision energy: Ramp 5-60 V
Fragmentation mode: LOW-ENERGY CID
Ionization: ESI
Derivative form: C11H19NO10S2
Derivative mass: 445.51
Precursor m/z: 428.00872
Precursor type: [M+K]+
m/z	relative intensity
98.9655	474
158.9809	395
234.9710	201
348.0114	382
371.9337	241
427.0938	999
428.0928	499
