Mass spectrum: Kaempferol-3-O-rutinoside; LC-ESI-QTOF; MS2; CE:Ramp 5-60 V; [M-H]-
Name: Kaempferol-3-O-rutinoside
Name: Kaem-3-Glc-6pp-Rha
Name: Nicotiflorin
Name: kaempferol-3-rhamnoglucoside
Class: Flavonoid
Formula: C27H30O15
Exact mass: 594.15847
SMILES: c(c5)(O)cc(c(c51)C(C(OC(O3)C(C(C(C3COC(C4O)OC(C(C4O)O)C)O)O)O)=C(c(c2)ccc(O)c2)O1)=O)O
InChI: InChI=1S/C27H30O15/c1-9-17(31)20(34)22(36)26(39-9)38-8-15-18(32)21(35)23(37)27(41-15)42-25-19(33)16-13(30)6-12(29)7-14(16)40-24(25)10-2-4-11(28)5-3-10/h2-7,9,15,17-18,20-23,26-32,34-37H,8H2,1H3/t9-,15+,17-,18+,20+,21-,22+,23+,26+,27-/m0/s1
Instrument: UPLC Q-Tof Premier, Waters
Instrument type: LC-ESI-QTOF
Ms type: MS2
Ion mode: NEGATIVE
Collision energy: Ramp 5-60 V
Fragmentation mode: LOW-ENERGY CID
Ionization: ESI
Precursor m/z: 593.15066
Precursor type: [M-H]-
m/z	relative intensity
227.0383	193
229.0544	99
255.0336	387
257.0503	73
284.0364	647
285.0443	836
593.1506	999
