Mass spectrum: L-(+)-Arginine; GC-EI-TOF; MS; 3 TMS; BP:73
Name: L-Arginine
Name: Transferred to D01126
Name: L-(+)-Arginine
Class: Natural Product
Formula: C6H14N4O2
Exact mass: 174.11168
SMILES: NC(=N)NCCC[C@H](N)C(O)=O
InChI: InChI=1S/C6H14N4O2/c7-4(5(11)12)2-1-3-10-6(8)9/h4H,1-3,7H2,(H,11,12)(H4,8,9,10)/t4-/m0/s1
Instrument: Pegasus III TOF-MS system, Leco; GC 6890, Agilent Technologies
Instrument type: GC-EI-TOF
Ms type: MS
Ion mode: POSITIVE
Retention time: 445.042 sec
Base peak: 73
Derivative form: C15H38N4O2Si3
Derivative mass: 390.23026
Derivative type: 3 TMS
m/z	relative intensity
60	15
61	11
62	1
63	2
64	1
66	7
67	4
68	17
69	12
70	190
71	32
72	28
73	999
74	120
75	81
76	8
77	22
78	4
79	8
80	2
81	3
82	5
83	13
84	62
85	29
86	16
87	7
88	3
89	2
90	15
91	2
92	2
93	1
94	1
95	5
96	3
97	4
98	16
99	58
100	85
101	16
102	10
103	12
104	1
105	2
109	1
110	2
111	2
112	8
113	10
114	19
115	43
116	9
117	13
118	2
119	3
121	2
122	2
124	4
125	6
126	7
127	30
128	27
129	14
130	15
131	17
132	16
133	23
134	5
135	1
139	9
140	33
141	85
142	188
143	31
144	17
145	3
146	2
147	66
148	14
149	6
150	2
151	1
152	3
153	3
154	13
155	22
156	25
157	476
158	73
159	28
160	4
161	1
162	1
166	1
167	8
168	9
169	5
170	7
171	25
172	28
173	9
174	2
175	1
182	1
183	2
184	6
185	3
186	3
187	15
188	6
189	2
190	1
191	1
196	1
197	1
198	3
199	1
202	2
203	1
204	2
213	2
214	2
215	7
216	12
217	4
218	16
219	4
220	2
228	1
229	1
230	2
231	4
232	1
240	7
241	3
242	2
243	2
244	13
245	5
246	2
254	1
255	1
256	155
257	37
258	14
259	5
260	1
268	3
269	1
283	1
284	2
330	2
358	3
359	1
373	5
374	2
