Mass spectrum: Phytol,mixture of isomers; LC-ESI-QTOF; MS2; CE:Ramp 5-60 V; [M+H]+
Name: Phytol,mixture of isomers
Name: 3,7,11,15-Tetramethyl-2-hexadecen-1-ol
Class: Alcohol
Formula: C20H40O
Exact mass: 296.30792
SMILES: OCC=C(C)CCC[C@H](C)CCC[C@H](C)CCCC(C)C
InChI: InChI=1S/C20H40O/c1-17(2)9-6-10-18(3)11-7-12-19(4)13-8-14-20(5)15-16-21/h15,17-19,21H,6-14,16H2,1-5H3/b20-15+/t18-,19-/m1/s1
Instrument: UPLC Q-Tof Premier, Waters
Instrument type: LC-ESI-QTOF
Ms type: MS2
Ion mode: POSITIVE
Collision energy: Ramp 5-60 V
Fragmentation mode: LOW-ENERGY CID
Ionization: ESI
Precursor m/z: 297.3157
Precursor type: [M+H]+
m/z	relative intensity
73.0474	249
178.9634	35
179.0002	41
191.0007	147
192.9803	107
205.0171	84
207.0312	116
248.9880	350
265.0194	305
276.9309	50
281.0495	999
297.0785	39
299.0614	31
