Mass spectrum: trans-4-Hydroxy-3-methoxycinnamate; LC-ESI-QTOF; MS2; CE:Ramp 5-60 V; [M-H]-
Name: trans-4-Hydroxy-3-methoxycinnamate
Name: 4-Hydroxy-3-methoxycinnamic acid
Name: Ferulic acid
Name: trans-ferulate
Name: 3-Methoxy-4-hydroxy-trans-cinnamate
Class: Carboxylic acids
Formula: C10H10O4
Exact mass: 194.05791
SMILES: COc(c1)c(O)ccc(C=CC(O)=O)1
InChI: InChI=1S/C10H10O4/c1-14-9-6-7(2-4-8(9)11)3-5-10(12)13/h2-6,11H,1H3,(H,12,13)/b5-3+
Instrument: UPLC Q-Tof Premier, Waters
Instrument type: LC-ESI-QTOF
Ms type: MS2
Ion mode: NEGATIVE
Collision energy: Ramp 5-60 V
Fragmentation mode: LOW-ENERGY CID
Ionization: ESI
Precursor m/z: 193.05011
Precursor type: [M-H]-
m/z	relative intensity
134.0369	999
149.0610	121
178.0264	269
193.0501	338
