Mass spectrum: Isobutyryl coenzyme A; LC-ESI-QTOF; MS2; CE:30 V; [M+H]+
Name: Isobutyryl coenzyme A
Name: Isobutyryl-CoA
Name: 2-Methylpropanoyl-CoA
Class: Coenzyme A
Formula: C25H42N7O17P3S
Exact mass: 837.15707
SMILES: O=C(NCCSC(=O)C(C)C)CCNC(=O)C(O)C(C)(C)COP(O)(=O)OP(O)(=O)OCC(O1)C(OP(O)(O)=O)C(O)C1n(c2)c(n3)c(c(N)nc3)n2
InChI: InChI=1S/C25H42N7O17P3S/c1-13(2)24(37)53-8-7-27-15(33)5-6-28-22(36)19(35)25(3,4)10-46-52(43,44)49-51(41,42)45-9-14-18(48-50(38,39)40)17(34)23(47-14)32-12-31-16-20(26)29-11-30-21(16)32/h11-14,17-19,23,34-35H,5-10H2,1-4H3,(H,27,33)(H,28,36)(H,41,42)(H,43,44)(H2,26,29,30)(H2,38,39,40)/t14-,17-,18-,19+,23-/m1/s1
Instrument: UPLC Q-Tof Premier, Waters
Instrument type: LC-ESI-QTOF
Ms type: MS2
Ion mode: POSITIVE
Collision energy: 30 V
Fragmentation mode: LOW-ENERGY CID
Ionization: ESI
Precursor m/z: 838.16487
Precursor type: [M+H]+
m/z	relative intensity
105.0771	28
136.0718	109
159.0689	22
229.1188	152
261.1516	29
312.0765	40
323.1171	20
331.1919	999
393.2154	40
417.1769	43
428.0737	194
451.1440	23
451.2027	27
838.3192	23
