Mass spectrum: Anthranilic acid; GC-EI-TOF; MS; 2 TMS; BP:73
Name: Anthranilic acid
Name: Anthranilate
Name: 2-Aminobenzoate
Name: Vitamin L1
Name: o-Aminobenzoic acid
Class: Natural Product
Formula: C7H7NO2
Exact mass: 137.04768
SMILES: OC(=O)c(c1)c(N)ccc1
InChI: InChI=1S/C7H7NO2/c8-6-4-2-1-3-5(6)7(9)10/h1-4H,8H2,(H,9,10)
Instrument: Pegasus III TOF-MS system, Leco; GC 6890, Agilent Technologies
Instrument type: GC-EI-TOF
Ms type: MS
Ion mode: POSITIVE
Retention time: 397.356 sec
Base peak: 73
Derivative form: C13H23NO2Si2
Derivative mass: 281.12673
Derivative type: 2 TMS
m/z	relative intensity
60	9
61	16
62	5
63	19
64	25
65	28
66	10
67	10
69	2
70	17
71	7
72	15
73	999
74	92
75	123
76	16
77	41
78	8
79	19
80	3
81	2
82	1
83	4
84	9
85	4
86	4
87	4
88	2
89	13
90	12
91	75
92	63
93	12
94	4
95	6
96	4
97	3
98	1
99	1
100	1
101	2
102	5
103	11
104	9
105	22
106	13
107	5
108	3
109	2
110	1
111	1
113	1
115	12
116	8
117	21
118	128
119	50
120	33
121	14
122	4
123	3
124	1
126	5
128	1
129	1
130	10
131	21
132	43
133	95
134	158
135	33
136	10
137	2
143	1
144	1
145	4
146	14
147	73
148	46
149	102
150	39
151	12
152	3
156	1
158	3
159	1
160	5
161	1
162	7
163	3
164	6
165	2
172	1
174	29
175	5
176	29
177	5
178	31
179	7
180	4
181	1
188	1
190	3
191	3
192	56
193	21
194	14
195	3
196	1
202	1
204	2
205	1
206	2
207	2
208	39
209	13
210	15
211	3
212	1
218	1
220	3
221	1
222	4
223	1
224	4
225	1
232	49
233	18
234	8
235	2
236	1
248	6
249	3
250	8
251	2
252	1
264	8
265	6
266	575
267	136
268	54
269	8
270	1
280	1
281	31
282	8
283	3
