Mass spectrum: Kaempferol-7-O-alpha-L-rhamnoside; LC-ESI-QTOF; MS2; CE:30 V; [M-H]-
Name: Kaempferol-7-O-alpha-L-rhamnoside
Name: Kaem-7-Rha
Class: Flavonoid
Formula: C21H20O10
Exact mass: 432.10565
SMILES: Oc(c4)ccc(c4)C(O1)=C(O)C(=O)c(c(O)2)c(cc(OC(O3)C(O)C(O)C(O)C(C)3)c2)1
InChI: InChI=1S/C21H20O10/c1-8-15(24)17(26)19(28)21(29-8)30-11-6-12(23)14-13(7-11)31-20(18(27)16(14)25)9-2-4-10(22)5-3-9/h2-8,15,17,19,21-24,26-28H,1H3/t8-,15-,17+,19+,21-/m0/s1
Instrument: UPLC Q-Tof Premier, Waters
Instrument type: LC-ESI-QTOF
Ms type: MS2
Ion mode: NEGATIVE
Collision energy: 30 V
Fragmentation mode: LOW-ENERGY CID
Ionization: ESI
Precursor m/z: 431.09782
Precursor type: [M-H]-
m/z	relative intensity
63.0260	22
65.0050	13
83.0147	53
107.0137	187
123.0087	11
132.0215	18
133.0283	11
149.9949	26
151.0027	999
152.0060	34
163.0028	26
164.0107	59
171.0438	11
185.0602	43
199.0402	13
212.0482	10
213.0552	112
227.0349	36
228.0431	17
229.0507	92
239.0349	11
240.0435	30
241.0506	68
255.0302	69
256.0362	25
257.0450	570
258.0495	33
283.0259	15
284.0323	804
285.0404	638
286.0438	40
431.0978	13
