Mass spectrum: 2-Hydroxypyridine; LC-ESI-QTOF; MS2; CE:Ramp 5-60 V; [M+H]+
Name: 2-Hydroxypyridine
Name: 2(1H)-Pyridone
Name: 2-Pyridinol
Name: 2-Oxopyridine
Class: Pyridines
Formula: C5H5NO
Exact mass: 95.03711
SMILES: Oc(c1)nccc1
InChI: InChI=1S/C5H5NO/c7-5-3-1-2-4-6-5/h1-4H,(H,6,7)
Instrument: UPLC Q-Tof Premier, Waters
Instrument type: LC-ESI-QTOF
Ms type: MS2
Ion mode: POSITIVE
Collision energy: Ramp 5-60 V
Fragmentation mode: LOW-ENERGY CID
Ionization: ESI
Precursor m/z: 96.04491
Precursor type: [M+H]+
m/z	relative intensity
78.0339	17
95.9478	10
96.0134	20
96.0449	999
