Mass spectrum: Quercetin-3,4'-O-di-beta-glucopyranoside; LC-ESI-QTOF; MS2; CE:Ramp 5-60 V; [M-H]-
Name: Quercetin-3,4'-O-di-beta-glucopyranoside
Name: Que 3,4'-di-Glc
Name: Quercetin 3,4'-diglucoside
Class: Flavonoid
Formula: C27H30O17
Exact mass: 626.14830
SMILES: c(c5)(O)cc(c(c53)C(C(OC(O4)C(C(C(C4CO)O)O)O)=C(O3)c(c1)cc(c(OC(O2)C(C(C(C2CO)O)O)O)c1)O)=O)O
InChI: InChI=1S/C27H30O17/c28-6-14-17(33)20(36)22(38)26(42-14)41-12-2-1-8(3-10(12)31)24-25(19(35)16-11(32)4-9(30)5-13(16)40-24)44-27-23(39)21(37)18(34)15(7-29)43-27/h1-5,14-15,17-18,20-23,26-34,36-39H,6-7H2/t14-,15-,17-,18-,20+,21+,22-,23-,26-,27+/m1/s1
Instrument: UPLC Q-Tof Premier, Waters
Instrument type: LC-ESI-QTOF
Ms type: MS2
Ion mode: NEGATIVE
Collision energy: Ramp 5-60 V
Fragmentation mode: LOW-ENERGY CID
Ionization: ESI
Precursor m/z: 625
Precursor type: [M-H]-
m/z	relative intensity
151.0036	177
178.9998	128
255.0343	109
271.0287	336
299.0255	392
300.0315	932
301.0391	940
462.0816	108
463.0919	999
625.1474	663
