Mass spectrum: L-Serine; CE-ESI-TOF; MS; [M+H]+
Name: L-Serine
Name: L-2-Amino-3-hydroxypropionic acid
Name: L-3-Hydroxy-alanine
Formula: C3H7NO3
Exact mass: 105.04259
SMILES: OC[C@H](N)C(O)=O
InChI: InChI=1S/C3H7NO3/c4-2(1-5)3(6)7/h2,5H,1,4H2,(H,6,7)/t2-/m0/s1
Instrument: CE-system connected to 6210 Time-of-Flight MS, Agilent
Instrument type: CE-ESI-TOF
Ms type: MS
Ion mode: POSITIVE
Ionization: ESI
Column name: Fused sillica capillary id=50 um L=100 cm (HMT Inc., Tsuruoka, Japan)
Ion type: [M+H]+
m/z	relative intensity
106.0487	999
