Mass spectrum: Eriodictyol; LC-ESI-QTOF; MS2; CE:30 eV; [M+H]+
Name: 3',4',5,7-tetrahydroxyflavanone
Name: Eriodictyol
Name: Erid
Name: (2S)-2-(3,4-dihydroxyphenyl)-5,7-dihydroxy-chroman-4-one
Class: Natural Product
Formula: C15H12O6
Exact mass: 288.06339
SMILES: Oc(c3)c(O)cc(c3)[C@H](C1)Oc(c2)c(c(O)cc(O)2)C(=O)1
InChI: InChI=1S/C15H12O6/c16-8-4-11(19)15-12(20)6-13(21-14(15)5-8)7-1-2-9(17)10(18)3-7/h1-5,13,16-19H,6H2/t13-/m0/s1
Instrument: UPLC Q-Tof Premier, Waters
Instrument type: LC-ESI-QTOF
Ms type: MS2
Ion mode: POSITIVE
Collision energy: 30 eV
Fragmentation mode: LOW-ENERGY CID
Ionization: ESI
Full scan fragment ion peak: 289.1
Ion type: [M+H]+
m/z	relative intensity
67.0067	37
68.9864	32
69.0231	31
89.0316	131
93.0270	29
97.0225	30
107.0443	38
117.0298	229
117.0854	23
123.0409	49
135.0414	215
135.1011	21
145.0262	160
153.0163	999
153.0798	102
154.0200	23
163.0374	127
