Mass spectrum: S-Lactoylglutathione; LC-ESI-QTOF; MS2; CE:Ramp 5-60 V; [M-H]-
Name: S-Lactoylglutathione
Name: S-Pyruvoylglutathione
Name: S-Pyruvylglutathione
Class: Peptide
Formula: C13H21N3O8S
Exact mass: 379.10494
SMILES: OC(=O)CNC(=O)[C@@H](NC(=O)CC[C@H](N)C(O)=O)CSC(=O)[C@@H](C)O
InChI: InChI=1S/C13H21N3O8S/c1-6(17)13(24)25-5-8(11(21)15-4-10(19)20)16-9(18)3-2-7(14)12(22)23/h6-8,17H,2-5,14H2,1H3,(H,15,21)(H,16,18)(H,19,20)(H,22,23)/t6-,7+,8+/m1/s1
Instrument: UPLC Q-Tof Premier, Waters
Instrument type: LC-ESI-QTOF
Ms type: MS2
Ion mode: NEGATIVE
Collision energy: Ramp 5-60 V
Fragmentation mode: LOW-ENERGY CID
Ionization: ESI
Precursor m/z: 378.09713
Precursor type: [M-H]-
m/z	relative intensity
74.0255	164
89.0253	144
99.0555	256
125.0360	264
127.0506	150
128.0354	736
143.0453	620
146.0461	302
160.0063	188
171.0399	176
179.0459	158
210.0900	134
215.0667	194
249.0559	200
254.0795	215
272.0885	365
306.0764	402
344.1118	162
378.0971	999
