Mass spectrum: Prunin; LC-ESI-QTOF; MS2; CE:Ramp 5-60 V; [M+H]+
Name: naringenin-7-O-glucoside
Name: Prunin
Name: Nari_7_Glc
Name: (2S)-5-hydroxy-2-(4-hydroxyphenyl)-7-[(2S,3R,4S,5R,6R)-3,4,5-trihydroxy-6-(hydroxymethyl)oxan-2-yl]oxy-chroman-4-one
Class: Natural Product
Formula: C21H22O10
Exact mass: 434.12130
SMILES: OCC(O1)C(O)C(O)C(O)C1Oc(c4)cc(O2)c(c(O)4)C(=O)CC(c(c3)ccc(O)c3)2
InChI: InChI=1S/C21H22O10/c22-8-16-18(26)19(27)20(28)21(31-16)29-11-5-12(24)17-13(25)7-14(30-15(17)6-11)9-1-3-10(23)4-2-9/h1-6,14,16,18-24,26-28H,7-8H2/t14-,16+,18+,19-,20+,21+/m0/s1
Instrument: UPLC Q-Tof Premier, Waters
Instrument type: LC-ESI-QTOF
Ms type: MS2
Ion mode: POSITIVE
Collision energy: Ramp 5-60 V
Fragmentation mode: LOW-ENERGY CID
Ionization: ESI
Full scan fragment ion peak: 435.1
Ion type: [M+H]+
m/z	relative intensity
91.0480	28
119.0461	69
123.0411	17
147.0428	219
147.1044	17
148.0475	10
153.0173	494
153.0806	43
154.0207	17
273.0745	999
273.1589	64
274.0786	73
435.1291	49
