Mass spectrum: Quercitrin; LC-ESI-QTOF; MS2; CE:30 V; [M-H]-
Name: Quercetin-3-O-rhamnoside
Name: Quercitrin
Name: Quer_3_Rha
Name: 2-(3,4-dihydroxyphenyl)-5,7-dihydroxy-3-[(2S,3R,4R,5S,6S)-3,4,5-trihydroxy-6-methyl-oxan-2-yl]oxy-chromen-4-one
Class: Natural Product
Formula: C21H20O11
Exact mass: 448.10056
SMILES: Oc(c4)c(O)cc(c4)C(O1)=C(O[C@H](O3)[C@H](O)[C@H](O)[C@@H](O)[C@H](C)3)C(=O)c(c(O)2)c(cc(O)c2)1
InChI: InChI=1S/C21H20O11/c1-7-15(26)17(28)18(29)21(30-7)32-20-16(27)14-12(25)5-9(22)6-13(14)31-19(20)8-2-3-10(23)11(24)4-8/h2-7,15,17-18,21-26,28-29H,1H3/t7-,15-,17+,18+,21-/m0/s1
Instrument: UPLC Q-Tof Premier, Waters
Instrument type: LC-ESI-QTOF
Ms type: MS2
Ion mode: NEGATIVE
Collision energy: 30 V
Fragmentation mode: LOW-ENERGY CID
Ionization: ESI
Full scan fragment ion peak: 447.1
Ion type: [M-H]-
m/z	relative intensity
121.0431	30
151.0356	208
151.9167	40
163.0358	45
179.0195	119
179.8787	20
211.0659	26
227.0651	31
229.0323	26
243.0585	78
243.9649	27
245.0346	35
247.3433	21
254.0251	43
255.0475	327
255.9860	83
256.8956	29
271.0419	556
271.9753	149
272.9560	72
273.8986	25
283.0338	48
297.3925	28
299.0858	42
300.0406	999
301.0238	590
301.9610	145
302.8232	47
303.6892	24
