Mass spectrum: Myricetin; LC-ESI-QTOF; MS2; CE:Ramp 5-60 eV; [M+H]+
Name: 3,3',4',5,5',7-hexahydroxyflavone
Name: Myricetin
Name: Myrc
Name: 3,5,7-trihydroxy-2-(3,4,5-trihydroxyphenyl)chromen-4-one
Class: Natural Product
Formula: C15H10O8
Exact mass: 318.03757
SMILES: Oc(c3)cc(O1)c(c(O)3)C(=O)C(O)=C1c(c2)cc(O)c(O)c(O)2
InChI: InChI=1S/C15H10O8/c16-6-3-7(17)11-10(4-6)23-15(14(22)13(11)21)5-1-8(18)12(20)9(19)2-5/h1-4,16-20,22H
Instrument: UPLC Q-Tof Premier, Waters
Instrument type: LC-ESI-QTOF
Ms type: MS2
Ion mode: POSITIVE
Collision energy: Ramp 5-60 eV
Fragmentation mode: LOW-ENERGY CID
Ionization: ESI
Full scan fragment ion peak: 319
Ion type: [M+H]+
m/z	relative intensity
68.9868	28
109.0251	21
111.0045	26
115.0514	19
137.0223	39
153.0180	187
165.0183	56
171.0442	15
179.0347	24
189.0563	19
203.0351	19
217.0506	72
245.0455	80
273.0403	68
290.0422	18
301.0350	15
319.0454	999
319.1353	73
320.0482	46
