Mass spectrum: Indole-3-carboxylic acid; LC-ESI-QTOF; MS2; CE:Ramp 5-60 V; [M-H]-
Name: Indole-3-carboxylic acid
Name: 3-Indolylcarboxylic Acid
Name: 3-Indoleformic Acid
Class: Indole
Formula: C9H7NO2
Exact mass: 161.04768
SMILES: C1=CC=C2C(=C1)C(=CN2)C(=O)O
InChI: InChI=1S/C9H7NO2/c11-9(12)7-5-10-8-4-2-1-3-6(7)8/h1-5,10H,(H,11,12)
Instrument: UPLC Q-Tof Premier, Waters
Instrument type: LC-ESI-QTOF
Ms type: MS2
Ion mode: NEGATIVE
Collision energy: Ramp 5-60 V
Fragmentation mode: LOW-ENERGY CID
Ionization: ESI
Precursor m/z: 160.03986
Precursor type: [M-H]-
m/z	relative intensity
116.0502	999
116.2225	12
116.3211	25
117.0547	10
159.8945	20
160.0399	193
