Mass spectrum: Quercetin-7-O-rhamnoside; LC-ESI-QTOF; MS2; CE:Ramp 5-60 V; [M-H]-
Name: Quercetin-7-O-rhamnoside
Name: Quer-7-Rha
Name: Vincetoxicoside B
Class: Flavonoid
Formula: C21H20O11
Exact mass: 448.10056
SMILES: Oc(c4)c(O)cc(c4)C(O1)=C(O)C(=O)c(c(O)2)c(cc(OC(O3)C(O)C(O)C(O)C(C)3)c2)1
InChI: InChI=1S/C21H20O11/c1-7-15(25)17(27)19(29)21(30-7)31-9-5-12(24)14-13(6-9)32-20(18(28)16(14)26)8-2-3-10(22)11(23)4-8/h2-7,15,17,19,21-25,27-29H,1H3/t7-,15-,17+,19+,21-/m0/s1
Instrument: UPLC Q-Tof Premier, Waters
Instrument type: LC-ESI-QTOF
Ms type: MS2
Ion mode: NEGATIVE
Collision energy: Ramp 5-60 V
Fragmentation mode: LOW-ENERGY CID
Ionization: ESI
Precursor m/z: 447.09274
Precursor type: [M-H]-
m/z	relative intensity
107.0141	114
121.0286	91
151.0025	490
178.9997	53
227.0329	58
255.0275	86
271.0233	138
300.0275	426
301.0348	850
302.0419	57
447.0927	999
448.0921	91
