Mass spectrum: N-Acetyl-DL-aspartic acid; LC-ESI-QTOF; MS2; CE:Ramp 5-60 V; [M-H]-
Name: N-Acetyl-DL-aspartic acid
Name: Ac-Asp
Name: NAA
Name: N-Acetyl-aspartate
Name: N-Acetylaspartate
Name: 2-acetamidobutanedioic acid
Class: Amino acids
Formula: C6H9NO5
Exact mass: 175.04807
SMILES: CC(=O)NC(CC(O)=O)C(O)=O
InChI: InChI=1S/C6H9NO5/c1-3(8)7-4(6(11)12)2-5(9)10/h4H,2H2,1H3,(H,7,8)(H,9,10)(H,11,12)
Instrument: UPLC Q-Tof Premier, Waters
Instrument type: LC-ESI-QTOF
Ms type: MS2
Ion mode: NEGATIVE
Collision energy: Ramp 5-60 V
Fragmentation mode: LOW-ENERGY CID
Ionization: ESI
Precursor m/z: 174.04027
Precursor type: [M-H]-
m/z	relative intensity
58.0310	68
88.0404	999
114.0202	172
115.0037	126
130.0506	236
156.0298	77
174.0403	515
