Mass spectrum: Kaempferitrin; LC-ESI-QTOF; MS2; CE:30 V; [M-H]-
Name: Kaempferitrin
Name: 3-Rha-7-Rha Kaempferol
Name: Kaempferol-3-O-rhamnoside-7-O-rhamnoside
Name: 3,4',5,7-Tetrahydroxyflavone 3,7-dirhamnoside
Name: 3,7-Bis[(6-deoxy-alpha-L-mannopyranosyl)oxy]-5-hydroxy-2-(4-hydroxyphenyl)-4H-1-benzopyran-4-one
Name: Lespedin
Name: Lespenephryl
Class: Flavonoid
Formula: C27H30O14
Exact mass: 578.16356
SMILES: C[C@H]1[C@@H]([C@H]([C@H]([C@@H](O1)OC2=CC(=C3C(=C2)OC(=C(C3=O)O[C@H]4[C@@H]([C@@H]([C@H]([C@@H](O4)C)O)O)O)C5=CC=C(C=C5)O)O)O)O)O
InChI: InChI=1S/C27H30O14/c1-9-17(30)20(33)22(35)26(37-9)39-13-7-14(29)16-15(8-13)40-24(11-3-5-12(28)6-4-11)25(19(16)32)41-27-23(36)21(34)18(31)10(2)38-27/h3-10,17-18,20-23,26-31,33-36H,1-2H3/t9-,10-,17-,18-,20+,21+,22+,23+,26-,27-/m0/s1
Instrument: UPLC Q-Tof Premier, Waters
Instrument type: LC-ESI-QTOF
Ms type: MS2
Ion mode: NEGATIVE
Collision energy: 30 V
Fragmentation mode: LOW-ENERGY CID
Ionization: ESI
Precursor m/z: 577.15573
Precursor type: [M-H]-
m/z	relative intensity
213.0537	7
255.0288	20
257.0439	9
283.0232	466
284.0300	91
284.8431	6
284.9091	6
284.9637	8
285.0386	999
285.2231	8
285.3082	10
285.4603	15
285.6591	5
285.6940	5
285.7600	6
285.8205	6
285.9038	7
285.9257	7
285.9796	8
286.0443	124
286.1245	7
286.1729	6
286.2452	8
286.2940	7
286.3227	7
286.4052	7
286.4690	7
286.5122	6
286.5308	5
286.5557	6
286.5916	6
286.6242	6
286.7004	6
286.7561	6
286.8047	5
286.8507	5
286.9083	6
286.9506	6
430.0890	313
431.0966	225
432.1007	29
577.1557	6
