Mass spectrum: 1-Isothiocyanato-8-(methylsulfinyl)-octane; LC-ESI-QTOF; MS2; CE:Ramp 5-60 V; [M+H]+
Name: 1-Isothiocyanato-8-(methylsulfinyl)-octane
Name: 8-Methylsulfinyloctyl isothiocyanate
Class: Isothiocyanate
Formula: C10H19NOS2
Exact mass: 233.09081
SMILES: S=C=NCCCCCCCCS(C)=O
InChI: InChI=1S/C10H19NOS2/c1-14(12)9-7-5-3-2-4-6-8-11-10-13/h2-9H2,1H3
Instrument: UPLC Q-Tof Premier, Waters
Instrument type: LC-ESI-QTOF
Ms type: MS2
Ion mode: POSITIVE
Collision energy: Ramp 5-60 V
Fragmentation mode: LOW-ENERGY CID
Ionization: ESI
Precursor m/z: 234.0986
Precursor type: [M+H]+
m/z	relative intensity
69.0733	999
71.9948	91
100.0256	101
108.0845	211
114.0410	251
122.1002	131
128.0574	108
136.1165	95
137.1237	255
161.1047	116
170.1031	726
234.0986	757
