Mass spectrum: Taurine; GC-EI-TOF; MS; 3 TMS; BP:73
Name: Taurine
Name: 2-Aminoethanesulfonic acid
Name: Aminoethylsulfonic acid
Class: Natural Product
Formula: C2H7NO3S
Exact mass: 125.01466
SMILES: NCCS(O)(=O)=O
InChI: InChI=1S/C2H7NO3S/c3-1-2-7(4,5)6/h1-3H2,(H,4,5,6)
Instrument: Pegasus III TOF-MS system, Leco; GC 6890, Agilent Technologies
Instrument type: GC-EI-TOF
Ms type: MS
Ion mode: POSITIVE
Retention time: 412.273 sec
Base peak: 73
Derivative form: C11H31NO3SSi3
Derivative mass: 341.13324
Derivative type: 3 TMS
m/z	relative intensity
60	17
61	11
62	1
63	2
64	12
65	2
66	14
67	1
70	13
71	7
72	29
73	999
74	92
75	50
76	4
77	27
78	2
79	5
83	1
84	3
85	7
86	84
87	13
88	5
89	2
92	1
93	8
95	4
98	3
99	4
100	152
101	20
102	13
103	7
104	1
105	3
113	8
114	37
115	15
116	13
117	14
118	2
119	8
120	1
122	1
123	1
129	3
130	76
131	36
132	13
133	92
134	14
135	8
136	1
137	1
144	1
145	1
146	12
147	374
148	57
149	30
150	3
151	1
152	1
153	2
158	3
160	22
161	4
162	2
172	29
173	6
174	154
175	28
176	13
177	2
187	1
188	77
189	15
190	6
191	1
196	2
197	1
204	1
211	6
212	1
225	45
226	8
227	6
238	22
239	4
240	3
241	1
248	11
249	2
250	1
252	1
254	1
325	3
326	224
327	61
328	40
329	8
330	2
