Mass spectrum: Genistein; LC-ESI-QTOF; MS2; CE:Ramp 5-60 eV; [M+H]+
Name: 4',5,7-trihydroxyisoflavone
Name: Genistein
Name: Gens
Name: 5,7-dihydroxy-3-(4-hydroxyphenyl)chromen-4-one
Class: Natural Product
Formula: C15H10O5
Exact mass: 270.05282
SMILES: Oc(c3)ccc(c3)C(=C1)C(=O)c(c(O)2)c(cc(O)c2)O1
InChI: InChI=1S/C15H10O5/c16-9-3-1-8(2-4-9)11-7-20-13-6-10(17)5-12(18)14(13)15(11)19/h1-7,16-18H
Instrument: UPLC Q-Tof Premier, Waters
Instrument type: LC-ESI-QTOF
Ms type: MS2
Ion mode: POSITIVE
Collision energy: Ramp 5-60 eV
Fragmentation mode: LOW-ENERGY CID
Ionization: ESI
Full scan fragment ion peak: 271.1
Ion type: [M+H]+
m/z	relative intensity
65.0278	14
68.9871	12
91.0486	83
115.0515	26
119.0465	16
121.0263	11
131.0478	11
141.0689	28
145.0284	19
149.0229	32
153.0182	121
153.0797	10
159.0441	15
165.0188	10
169.0654	28
197.0604	31
215.0712	78
243.0662	50
253.0502	28
271.0606	999
271.1437	56
272.0646	61
