Mass spectrum: Adenosine; LC-ESI-QTOF; MS2; CE:Ramp 5-60 V; [M-H]-
Name: Adenosine
Name: 9-beta-D-Ribofuranosyladenine
Name: Adenine riboside
Name: Sandesin
Name: Boniton
Name: Myocol
Name: Nucleocardyl
Name: Adenocard
Class: Nucleoside
Formula: C10H13N5O4
Exact mass: 267.09675
SMILES: OC[C@@H](O1)[C@@H](O)[C@@H](O)[C@@H]1n(c3)c(n2)c(n3)c(N)nc2
InChI: InChI=1S/C10H13N5O4/c11-8-5-9(13-2-12-8)15(3-14-5)10-7(18)6(17)4(1-16)19-10/h2-4,6-7,10,16-18H,1H2,(H2,11,12,13)/t4-,6-,7-,10-/m1/s1
Instrument: UPLC Q-Tof Premier, Waters
Instrument type: LC-ESI-QTOF
Ms type: MS2
Ion mode: NEGATIVE
Collision energy: Ramp 5-60 V
Fragmentation mode: LOW-ENERGY CID
Ionization: ESI
Precursor m/z: 266.08895
Precursor type: [M-H]-
m/z	relative intensity
107.0358	128
134.0467	999
266.0890	159
