Mass spectrum: Ibuprofen; GC-EI-TOF; MS; 1 TMS; BP:73
Name: Ibuprofen
Class: Natural Product
Formula: C13H18O2
Exact mass: 206.13068
SMILES: CC(C)Cc(c1)ccc(c1)C(C)C(O)=O
InChI: InChI=1S/C13H18O2/c1-9(2)8-11-4-6-12(7-5-11)10(3)13(14)15/h4-7,9-10H,8H2,1-3H3,(H,14,15)
Instrument: Pegasus III TOF-MS system, Leco; GC 6890, Agilent Technologies
Instrument type: GC-EI-TOF
Ms type: MS
Ion mode: POSITIVE
Retention time: 435.459 sec
Base peak: 73
Derivative form: C16H26O2Si
Derivative mass: 278.17021
Derivative type: 1 TMS
m/z	relative intensity
60	4
61	16
62	4
63	13
64	3
65	20
66	1
67	1
70	2
71	2
72	13
73	999
74	91
75	148
76	17
77	46
78	12
79	10
84	1
85	1
86	1
87	1
88	1
89	15
90	4
91	82
92	8
93	2
101	1
102	7
103	18
104	8
105	19
106	1
110	2
114	1
115	58
116	16
117	135
118	53
119	34
120	3
127	3
128	12
129	9
130	3
131	14
132	1
133	1
141	2
143	1
144	1
145	19
146	3
148	1
159	4
160	130
161	58
162	7
163	1
191	4
192	1
193	2
205	9
206	2
219	1
220	4
221	1
234	24
235	6
236	1
263	25
264	5
265	1
278	10
279	2
