Mass spectrum: Vitexin-2''-O-rhamnoside; LC-ESI-QTOF; MS2; CE:Ramp 5-60 V; [M+H]+
Name: Vitexin-2''-O-rhamnoside
Name: Vitx-2pp-Rha
Name: 2-O-Rhamnosylvitexin
Name: Apigenin-8-C-glucoside-2'-rhamnoside
Name: Vitexin-4'-Rhamnoside
Class: Flavonoid
Formula: C27H30O14
Exact mass: 578.16356
SMILES: C[C@H]1[C@@H]([C@H]([C@H]([C@@H](O1)O[C@@H]2[C@H]([C@@H]([C@H](O[C@H]2C3=C(C=C(C4=C3OC(=CC4=O)C5=CC=C(C=C5)O)O)O)CO)O)O)O)O)O
InChI: InChI=1S/C27H30O14/c1-9-19(33)21(35)23(37)27(38-9)41-26-22(36)20(34)16(8-28)40-25(26)18-13(31)6-12(30)17-14(32)7-15(39-24(17)18)10-2-4-11(29)5-3-10/h2-7,9,16,19-23,25-31,33-37H,8H2,1H3/t9-,16+,19-,20+,21+,22-,23+,25-,26+,27-/m0/s1
Instrument: UPLC Q-Tof Premier, Waters
Instrument type: LC-ESI-QTOF
Ms type: MS2
Ion mode: POSITIVE
Collision energy: Ramp 5-60 V
Fragmentation mode: LOW-ENERGY CID
Ionization: ESI
Precursor m/z: 579.17135
Precursor type: [M+H]+
m/z	relative intensity
283.0629	526
284.0703	224
313.0735	913
337.0731	238
397.0945	319
415.1050	377
433.1147	894
579.1713	999
