Mass spectrum: L-2-Aminoadipic acid; LC-ESI-QTOF; MS2; CE:Ramp 5-60 V; [M-H]-
Name: L-2-Aminoadipic acid
Name: L-Aad
Name: L-Ho-Glu
Name: L-2-Aminoadipate
Name: L-alpha-Aminoadipic Acid
Name: (S)-2-Aminohexanedioic acid
Name: L-Homoglutamic acid
Name: L-2-Aminohexanedioate
Class: Carboxylic acids
Formula: C6H11NO4
Exact mass: 161.06881
SMILES: OC(=O)CCC[C@H](N)C(O)=O
InChI: InChI=1S/C6H11NO4/c7-4(6(10)11)2-1-3-5(8)9/h4H,1-3,7H2,(H,8,9)(H,10,11)/t4-/m0/s1
Instrument: UPLC Q-Tof Premier, Waters
Instrument type: LC-ESI-QTOF
Ms type: MS2
Ion mode: NEGATIVE
Collision energy: Ramp 5-60 V
Fragmentation mode: LOW-ENERGY CID
Ionization: ESI
Precursor m/z: 160.061
Precursor type: [M-H]-
m/z	relative intensity
98.0598	222
116.0714	820
142.0505	668
160.0610	999
160.8423	781
