Mass spectrum: Quercetin; LC-ESI-QTOF; MS2; CE:Ramp 5-60 V; [M+H]+
Name: Quercetin
Name: Quer
Name: 3,3',4',5,7-pentahydroxyflavone
Name: Flavin meletin
Name: Kvercetin
Name: Meletin
Name: Quercetol
Name: Quercetine
Name: Quertine
Name: Quercitin
Name: Sophoretin
Name: Xanthaurine
Name: 3',4',5,7-Tetrahydroxyflavan-3-ol
Name: 2-(3,4-Dihydroxyphenyl)-3,5,7-trihydroxy-4H-1-benzopyran-4-one
Class: Flavonoid
Formula: C15H10O7
Exact mass: 302.04265
SMILES: Oc(c3)c(O)cc(c3)C(O1)=C(O)C(=O)c(c(O)2)c(cc(O)c2)1
InChI: InChI=1S/C15H10O7/c16-7-4-10(19)12-11(5-7)22-15(14(21)13(12)20)6-1-2-8(17)9(18)3-6/h1-5,16-19,21H
Instrument: UPLC Q-Tof Premier, Waters
Instrument type: LC-ESI-QTOF
Ms type: MS2
Ion mode: POSITIVE
Collision energy: Ramp 5-60 V
Fragmentation mode: LOW-ENERGY CID
Ionization: ESI
Precursor m/z: 303.05045
Precursor type: [M+H]+
m/z	relative intensity
137.0241	96
153.0195	141
229.0485	119
303.0504	999
