Mass spectrum: Isorhamnetin-3-O-glucoside; LC-ESI-QTOF; MS2; CE:30 V; [M-H]-
Name: Isorhamnetin-3-O-glucoside
Name: Isor_3_Glc
Name: 5,7-dihydroxy-2-(4-hydroxy-3-methoxyphenyl)-3-[(2S,3R,4S,5S,6R)-3,4,5-trihydroxy-6-(hydroxymethyl)oxan-2-yl]oxychromen-4-one
Class: Natural Product
Formula: C22H22O12
Exact mass: 478.11113
SMILES: COc(c(O)4)cc(cc4)C(O1)=C(OC(O3)C(O)C(O)C(O)C(CO)3)C(=O)c(c(O)2)c(cc(O)c2)1
InChI: InChI=1S/C22H22O12/c1-31-12-4-8(2-3-10(12)25)20-21(17(28)15-11(26)5-9(24)6-13(15)32-20)34-22-19(30)18(29)16(27)14(7-23)33-22/h2-6,14,16,18-19,22-27,29-30H,7H2,1H3/t14-,16-,18+,19-,22+/m1/s1
Instrument: UPLC Q-Tof Premier, Waters
Instrument type: LC-ESI-QTOF
Ms type: MS2
Ion mode: NEGATIVE
Collision energy: 30 V
Fragmentation mode: LOW-ENERGY CID
Ionization: ESI
Full scan fragment ion peak: 477.1
Ion type: [M-H]-
m/z	relative intensity
151.0080	27
242.0010	33
243.0474	454
243.9745	90
245.4574	26
254.8340	20
257.0687	185
257.9876	53
258.8747	20
270.0399	55
271.0364	556
271.9761	119
272.8361	34
285.0546	490
286.0321	262
286.9469	68
287.8844	26
299.0341	151
300.0231	122
301.0026	33
311.1774	23
312.1009	20
313.0572	29
314.0551	999
315.0190	306
315.9342	78
316.8601	28
477.1060	32
