Mass spectrum: Mucic acid; LC-ESI-QTOF; MS2; CE:Ramp 5-60 V; [M-H]-
Name: Mucic acid
Name: MTPA
Name: Galactarate
Name: D-Galactaric acid
Name: Tetrahydroxyadipic acid
Name: Saccharolactic acid
Name: Tetrahydroxyhexanedioic acid
Name: 2,3,4,5-Tetrahydroxyadipic Acid
Class: Carboxylic acids
Formula: C6H10O8
Exact mass: 210.03757
SMILES: OC(=O)C(O)C(O)C(O)C(O)C(O)=O
InChI: InChI=1S/C6H10O8/c7-1(3(9)5(11)12)2(8)4(10)6(13)14/h1-4,7-10H,(H,11,12)(H,13,14)/t1-,2+,3+,4-
Instrument: UPLC Q-Tof Premier, Waters
Instrument type: LC-ESI-QTOF
Ms type: MS2
Ion mode: NEGATIVE
Collision energy: Ramp 5-60 V
Fragmentation mode: LOW-ENERGY CID
Ionization: ESI
Precursor m/z: 209.02977
Precursor type: [M-H]-
m/z	relative intensity
71.0149	267
72.9944	103
85.0297	999
133.0113	139
191.0189	184
197.8050	92
209.0298	614
