Mass spectrum: Cytidine 5'-monophosphate; LC-ESI-QTOF; MS2; CE:Ramp 5-60 V; [M-H]-
Name: Cytidine-5'-monophosphate
Name: CMP
Name: C-5'-P
Name: 5'-CMP
Name: Cytidylic acid
Name: cytidylate
Name: Cytidine 5'-monophosphate
Class: Natural Product; Nucleoside; Phosphates
Formula: C9H14N3O8P
Exact mass: 323.05185
SMILES: NC(C=2)=NC(=O)N(C2)[C@H](O1)[C@H](O)[C@H](O)[C@@H](COP(O)(O)=O)1
InChI: InChI=1S/C9H14N3O8P/c10-5-1-2-12(9(15)11-5)8-7(14)6(13)4(20-8)3-19-21(16,17)18/h1-2,4,6-8,13-14H,3H2,(H2,10,11,15)(H2,16,17,18)/t4-,6-,7-,8-/m1/s1
Instrument: UPLC Q-Tof Premier, Waters
Instrument type: LC-ESI-QTOF
Ms type: MS2
Ion mode: NEGATIVE
Collision energy: Ramp 5-60 V
Fragmentation mode: LOW-ENERGY CID
Ionization: ESI
Precursor m/z: 322.04405
Precursor type: [M-H]-
m/z	relative intensity
78.9599	999
96.9699	524
138.9800	75
322.0440	603
