Mass spectrum: (R)-(-)-Phenylephrine; LC-ESI-QTOF; MS2; CE:Ramp 5-60 V; [M+H]+
Name: (R)-(-)-Phenylephrine
Name: Neo-Synephrine
Name: Metasympatol
Name: Visadron
Name: Mesaton
Name: Mezaton
Name: Metaoxedrine
Name: m-Sympatol
Name: m-Oxedrine
Name: (R)-(?)-1-(3-Hydroxyphenyl)-2-methylaminoethanol
Name: L-(3-Hydroxyphenyl)-N-methylethanolamine
Class: Amino alcohol
Formula: C9H13NO2
Exact mass: 167.09463
SMILES: CNC[C@H](O)c(c1)cc(O)cc1
InChI: InChI=1S/C9H13NO2/c1-10-6-9(12)7-3-2-4-8(11)5-7/h2-5,9-12H,6H2,1H3/t9-/m0/s1
Instrument: UPLC Q-Tof Premier, Waters
Instrument type: LC-ESI-QTOF
Ms type: MS2
Ion mode: POSITIVE
Collision energy: Ramp 5-60 V
Fragmentation mode: LOW-ENERGY CID
Ionization: ESI
Precursor m/z: 168.10242
Precursor type: [M+H]+
m/z	relative intensity
150.0875	278
168.0960	999
