Mass spectrum: Petunidin-3-O-beta-glucopyranoside; LC-ESI-QTOF; MS2; CE:Ramp 5-60 V; [M]+
Name: Petunidin-3-O-beta-glucopyranoside
Name: Pt 3-Glc
Name: Petunidin 3-glucoside
Class: Anthocyanidin
Formula: [C22H23O12]+
Exact mass: 479.11895
SMILES: OCC(O1)C(O)C(O)C(O)C1Oc(c3)c([o+1]c(c4)c(c(O)cc(O)4)3)c(c2)cc(OC)c(O)c(O)2
InChI: InChI=1S/C22H22O12/c1-31-14-3-8(2-12(26)17(14)27)21-15(6-10-11(25)4-9(24)5-13(10)32-21)33-22-20(30)19(29)18(28)16(7-23)34-22/h2-6,16,18-20,22-23,28-30H,7H2,1H3,(H3-,24,25,26,27)/p+1/t16-,18-,19+,20-,22-/m1/s1
Instrument: UPLC Q-Tof Premier, Waters
Instrument type: LC-ESI-QTOF
Ms type: MS2
Ion mode: POSITIVE
Collision energy: Ramp 5-60 V
Fragmentation mode: LOW-ENERGY CID
Ionization: ESI
Derivative form: C22H23O12.Cl
Derivative mass: 514.86
Precursor m/z: 479.11892
Precursor type: [M]+
m/z	relative intensity
203.0361	48
217.0519	50
245.0469	66
274.0492	85
302.0440	211
317.0669	999
479.1189	166
