Mass spectrum: Guanosine 5'-monophosphate; LC-ESI-QTOF; MS2; CE:Ramp 5-60 V; [M-H]-
Name: Guanosine 5'-monophosphate
Name: GMP
Name: G-5'-P
Name: 5'-GMP
Name: Guanosine monophosphate
Name: Guanylic acid
Class: Natural Product; Nucleoside; Phosphates
Formula: C10H14N5O8P
Exact mass: 363.05800
SMILES: NC(N3)=Nc(c2C(=O)3)n(cn2)C(O1)C(O)C(O)C(COP(O)(O)=O)1
InChI: InChI=1S/C10H14N5O8P/c11-10-13-7-4(8(18)14-10)12-2-15(7)9-6(17)5(16)3(23-9)1-22-24(19,20)21/h2-3,5-6,9,16-17H,1H2,(H2,19,20,21)(H3,11,13,14,18)/t3-,5-,6-,9-/m1/s1
Instrument: UPLC Q-Tof Premier, Waters
Instrument type: LC-ESI-QTOF
Ms type: MS2
Ion mode: NEGATIVE
Collision energy: Ramp 5-60 V
Fragmentation mode: LOW-ENERGY CID
Ionization: ESI
Derivative form: C10H14N5O8P.x(H2O)
Derivative mass: -
Precursor m/z: 362.0502
Precursor type: [M-H]-
m/z	relative intensity
78.9602	999
96.9706	168
133.0161	106
150.0427	107
211.0018	223
362.0502	503
