Mass spectrum: 3-Chloro-L-tyrosine; LC-ESI-QTOF; MS2; CE:Ramp 5-60 V; [M+H]+
Name: 3-Chloro-L-tyrosine
Name: Tyr(3-Cl)
Class: Amino acids
Formula: C9H10ClNO3
Exact mass: 215.03492
SMILES: OC(=O)C(N)Cc(c1)cc(Cl)c(O)c1
InChI: InChI=1S/C9H10ClNO3/c10-6-3-5(1-2-8(6)12)4-7(11)9(13)14/h1-3,7,12H,4,11H2,(H,13,14)/t7-/m0/s1
Instrument: UPLC Q-Tof Premier, Waters
Instrument type: LC-ESI-QTOF
Ms type: MS2
Ion mode: POSITIVE
Collision energy: Ramp 5-60 V
Fragmentation mode: LOW-ENERGY CID
Ionization: ESI
Precursor m/z: 216.04272
Precursor type: [M+H]+
m/z	relative intensity
106.0662	123
125.0168	209
129.0109	142
134.0610	283
135.0687	475
153.0109	212
157.0058	278
170.0380	999
181.0066	107
199.0165	236
216.0427	138
