Mass spectrum: D-Ala-D-ala; LC-ESI-QTOF; MS2; CE:Ramp 5-60 V; [M+H]+
Name: D-Ala-D-ala
Name: D-Alanyl-D-alanine
Name: D-Alaninyl-D-alanine
Class: Dipeptide
Formula: C6H12N2O3
Exact mass: 160.08479
SMILES: C[C@@H](N)C(=O)N[C@H](C)C(O)=O
InChI: InChI=1S/C6H12N2O3/c1-3(7)5(9)8-4(2)6(10)11/h3-4H,7H2,1-2H3,(H,8,9)(H,10,11)/t3-,4-/m1/s1
Instrument: UPLC Q-Tof Premier, Waters
Instrument type: LC-ESI-QTOF
Ms type: MS2
Ion mode: POSITIVE
Collision energy: Ramp 5-60 V
Fragmentation mode: LOW-ENERGY CID
Ionization: ESI
Precursor m/z: 161.09259
Precursor type: [M+H]+
m/z	relative intensity
90.0556	878
115.0862	184
161.0926	999
