Mass spectrum: DL-Lactic acid; LC-ESI-QTOF; MS2; CE:Ramp 5-60 V; [M-H]-
Name: DL-Lactic acid
Name: Lactate
Name: 2-Hydroxypropionic acid
Name: 2-Hydroxy-2-methylacetic acid
Name: alpha-Hydroxypropanoic acid
Name: Ethylidenelactic acid
Name: 1-Hydroxyethanecarboxylic acid
Name: Milk acid
Name: Propel
Name: Milchsaeure
Class: Carboxylic acids
Formula: C3H6O3
Exact mass: 90.03169
SMILES: CC(O)C(O)=O
InChI: InChI=1S/C3H6O3/c1-2(4)3(5)6/h2,4H,1H3,(H,5,6)
Instrument: UPLC Q-Tof Premier, Waters
Instrument type: LC-ESI-QTOF
Ms type: MS2
Ion mode: NEGATIVE
Collision energy: Ramp 5-60 V
Fragmentation mode: LOW-ENERGY CID
Ionization: ESI
Precursor m/z: 89.02389
Precursor type: [M-H]-
m/z	relative intensity
89.0239	999
