Mass spectrum: Glycine; GC-EI-TOF; MS; 3 TMS; BP:73
Name: Glycine
Name: Aminoacetic acid
Name: Gly
Class: Natural Product
Formula: C2H5NO2
Exact mass: 75.03203
SMILES: NCC(O)=O
InChI: InChI=1S/C2H5NO2/c3-1-2(4)5/h1,3H2,(H,4,5)
Instrument: Pegasus III TOF-MS system, Leco; GC 6890, Agilent Technologies
Instrument type: GC-EI-TOF
Ms type: MS
Ion mode: POSITIVE
Retention time: 316.441 sec
Base peak: 73
Derivative form: C11H29NO2Si3
Derivative mass: 291.15061
Derivative type: 3 TMS
m/z	relative intensity
60	17
61	11
66	10
67	1
69	1
70	11
71	9
72	25
73	999
74	86
75	50
76	3
77	10
83	1
84	8
85	7
86	399
87	41
88	16
89	2
95	2
98	1
99	4
100	221
101	44
102	30
103	14
104	2
105	4
113	6
114	6
115	9
116	13
117	38
118	7
119	12
120	1
121	1
128	1
129	3
130	39
131	42
132	12
133	116
134	17
135	9
136	1
142	1
143	1
144	10
145	3
146	5
147	319
148	49
149	24
150	2
158	12
159	4
160	7
161	2
172	7
173	2
174	750
175	148
176	73
177	15
178	2
188	7
189	2
190	2
202	3
203	1
204	4
205	1
246	11
247	4
248	146
249	42
250	20
251	4
276	49
277	13
278	6
279	1
