Mass spectrum: 4-Methyl-5-thiazoleethanol; LC-ESI-QTOF; MS2; CE:30 V; [M+H]+
Name: 4-Methyl-5-thiazoleethanol
Name: MHT
Name: Sulfurol
Name: Hemineurine
Name: 4-Methyl-5-hydroxyethylthiazole
Class: Thiazoles
Formula: C6H9NOS
Exact mass: 143.04048
SMILES: OCCc(s1)c(C)nc1
InChI: InChI=1S/C6H9NOS/c1-5-6(2-3-8)9-4-7-5/h4,8H,2-3H2,1H3
Instrument: UPLC Q-Tof Premier, Waters
Instrument type: LC-ESI-QTOF
Ms type: MS2
Ion mode: POSITIVE
Collision energy: 30 V
Fragmentation mode: LOW-ENERGY CID
Ionization: ESI
Precursor m/z: 144.04828
Precursor type: [M+H]+
m/z	relative intensity
70.9965	144
72.0041	74
80.0504	80
85.0117	86
112.0225	575
113.0303	999
126.0387	148
144.0483	69
