Mass spectrum: Putrescine; GC-EI-TOF; MS; 4 TMS; BP:73
Name: 1,4-Butanediamine
Name: Putrescine
Name: Tetramethylenediamine
Name: 1,4-Diaminobutane
Class: Natural Product
Formula: C4H12N2
Exact mass: 88.10005
SMILES: NCCCCN
InChI: InChI=1S/C4H12N2/c5-3-1-2-4-6/h1-6H2
Instrument: Pegasus III TOF-MS system, Leco; GC 6890, Agilent Technologies
Instrument type: GC-EI-TOF
Ms type: MS
Ion mode: POSITIVE
Retention time: 426.331 sec
Base peak: 73
Derivative form: C16H44N2Si4
Derivative mass: 376.25816
Derivative type: 4 TMS
m/z	relative intensity
60	22
61	9
69	1
70	12
71	12
72	19
73	999
74	93
75	26
76	1
77	2
82	1
83	3
84	9
85	15
86	250
87	27
88	12
89	1
96	1
97	4
98	11
99	43
100	124
101	23
102	20
103	5
104	1
110	9
111	2
112	14
113	10
114	31
115	16
116	28
117	23
118	6
119	1
124	2
125	2
126	37
127	5
128	21
129	8
130	72
131	34
132	16
133	3
134	1
139	2
140	12
141	2
142	35
143	6
144	9
145	2
146	38
147	6
148	3
156	3
157	1
158	10
159	2
160	5
161	4
162	1
170	3
171	1
172	42
173	11
174	696
175	138
176	66
177	8
178	1
184	1
186	5
187	12
188	6
189	2
198	2
199	4
200	52
201	12
202	6
203	1
213	2
214	87
215	20
216	8
217	1
218	1
228	3
273	1
361	16
362	6
363	3
376	10
377	4
378	2
