Mass spectrum: (-)-Nicotine; LC-ESI-QTOF; MS2; CE:Ramp 5-60 V; [M+H]+
Name: (-)-Nicotine
Name: beta-Pyridyl-alpha-N-methylpyrrolidine
Class: Nicotine
Formula: C10H14N2
Exact mass: 162.11570
SMILES: CN(C2)C(CC2)c(c1)cncc1
InChI: InChI=1S/C10H14N2/c1-12-7-3-5-10(12)9-4-2-6-11-8-9/h2,4,6,8,10H,3,5,7H2,1H3/t10-/m0/s1
Instrument: UPLC Q-Tof Premier, Waters
Instrument type: LC-ESI-QTOF
Ms type: MS2
Ion mode: POSITIVE
Collision energy: Ramp 5-60 V
Fragmentation mode: LOW-ENERGY CID
Ionization: ESI
Precursor m/z: 163.12349
Precursor type: [M+H]+
m/z	relative intensity
80.0522	110
84.0835	195
106.0683	363
117.0606	738
120.0846	170
130.0683	999
132.0837	764
163.1235	853
