Mass spectrum: Calciferol; LC-ESI-QTOF; MS2; CE:Ramp 5-60 V; [M+H]+
Name: Calciferol
Name: Vitamin D2
Name: Ergocalciferol
Name: Viosterin
Name: Osteil
Name: Viosterol
Name: Ercalciol
Name: Irradiated ergosterol
Name: Condacaps
Name: Condocaps
Name: Condol
Name: Crtron
Name: Crystallina
Name: Daral
Name: (5Z,7E,22E)-(3S)-9,10-Secoergosta-5,7,10(19),22-tetraen-3-ol
Name: Davitin
Name: Deltalin
Name: Deratol
Name: Diactol
Name: Drisdol
Name: Ergorone
Name: Ertron
Name: Fortodyl
Name: Geltabs
Name: Hyperkil
Name: Irradiated ergosta-5,7,22-trien-3-beta-ol
Name: Metadee
Name: Mulsiferol
Name: Mykostin
Name: Oleovitamin D2
Name: Ostelin
Name: Rodinec
Name: Radsterin
Name: Sterogyl
Name: Vigantol
Class: Steroid
Formula: C28H44O
Exact mass: 396.33922
SMILES: C=C(C1=CC=C(C2)[C@](C3)([C@@](C)([C@@](C3)([H])[C@@H](C=C[C@@H](C(C)C)C)C)CC2)[H])CCC(C1)O
InChI: InChI=1S/C28H44O/c1-19(2)20(3)9-10-22(5)26-15-16-27-23(8-7-17-28(26,27)6)12-13-24-18-25(29)14-11-21(24)4/h9-10,12-13,19-20,22,25-27,29H,4,7-8,11,14-18H2,1-3,5-6H3/b10-9+,23-12+,24-13-/t20-,22+,25-,26+,27-,28+/m0/s1
Instrument: UPLC Q-Tof Premier, Waters
Instrument type: LC-ESI-QTOF
Ms type: MS2
Ion mode: POSITIVE
Collision energy: Ramp 5-60 V
Fragmentation mode: LOW-ENERGY CID
Ionization: ESI
Precursor m/z: 397.347
Precursor type: [M+H]+
m/z	relative intensity
87.9997	44
90.5064	179
90.5253	37
91.5027	74
98.5079	89
99.5113	999
100.0137	38
100.5083	402
101.0111	32
101.5049	45
111.0200	381
112.0184	130
113.0165	42
121.0656	35
148.0521	88
163.0787	36
191.0712	120
207.0435	31
207.0688	42
326.9312	34
341.0021	50
341.8020	38
356.0340	33
356.7647	40
356.8112	35
397.1271	30
