Mass spectrum: Methyl Dihydrojasmonate; LC-ESI-QTOF; MS2; CE:30 V; [M-H]-
Name: Methyl Dihydrojasmonate
Name: Methyl 3-Oxo-2-pentyl-1-cyclopentaneacetate
Name: Dihydrojasmonic Acid Methyl Ester
Name: Jessamona
Name: Methyl 2-pentyl-3-oxocyclopent-1-yl acetate
Name: Hedione
Name: Kharismal
Name: Cepionate
Name: Headeone
Name: Claigeon
Formula: C13H22O3
Exact mass: 226.15689
SMILES: CCCCCC(C(=O)1)C(CC1)CC(=O)OC
InChI: InChI=1S/C13H22O3/c1-3-4-5-6-11-10(7-8-12(11)14)9-13(15)16-2/h10-11H,3-9H2,1-2H3
Instrument: UPLC Q-Tof Premier, Waters
Instrument type: LC-ESI-QTOF
Ms type: MS2
Ion mode: NEGATIVE
Collision energy: 30 V
Fragmentation mode: LOW-ENERGY CID
Ionization: ESI
Precursor m/z: 225.14909
Precursor type: [M-H]-
m/z	relative intensity
74.9912	696
75.9891	56
76.9708	168
76.9907	132
132.9780	63
134.9567	999
147.8949	87
149.0077	277
150.0112	57
150.9954	314
152.9689	221
164.8958	152
178.9294	703
192.9431	206
193.9530	53
208.9779	748
225.0274	63
