Mass spectrum: Inosine; GC-EI-TOF; MS; 4 TMS; BP:73
Name: Inosine
Class: Natural Product
Formula: C10H12N4O5
Exact mass: 268.08077
SMILES: OC[C@@H](O1)[C@@H](O)[C@@H](O)[C@@H]1n(c3)c(N=2)c(n3)C(=O)NC2
InChI: InChI=1S/C10H12N4O5/c15-1-4-6(16)7(17)10(19-4)14-3-13-5-8(14)11-2-12-9(5)18/h2-4,6-7,10,15-17H,1H2,(H,11,12,18)/t4-,6-,7-,10-/m1/s1
Instrument: Pegasus III TOF-MS system, Leco; GC 6890, Agilent Technologies
Instrument type: GC-EI-TOF
Ms type: MS
Ion mode: POSITIVE
Retention time: 613.296 sec
Base peak: 73
Derivative form: C22H44N4O5Si4
Derivative mass: 556.23888
Derivative type: 4 TMS
m/z	relative intensity
60	5
61	9
62	1
63	1
64	1
65	2
66	4
67	4
69	9
70	7
71	6
72	22
73	999
74	91
75	71
76	6
77	13
78	2
79	9
80	1
81	4
82	1
83	2
84	12
85	10
86	4
87	5
88	2
89	11
90	1
91	1
92	1
93	1
94	1
95	2
96	1
97	6
98	2
99	9
100	5
101	18
102	3
103	100
104	10
105	5
106	1
107	1
109	1
110	7
111	12
112	3
113	9
114	2
115	16
116	10
117	22
118	3
119	5
120	1
123	2
124	2
125	3
126	2
127	4
128	1
129	33
130	4
131	16
132	3
133	29
134	5
135	3
136	1
137	1
138	7
139	2
140	2
141	3
142	4
143	16
144	3
145	7
146	2
147	81
148	13
149	11
150	3
151	1
152	1
153	3
154	1
155	2
156	2
157	6
158	2
159	1
161	1
162	1
163	3
164	1
165	2
166	8
167	2
168	1
169	17
170	3
171	3
172	1
173	1
175	1
176	1
177	4
178	1
179	1
180	1
181	1
189	7
190	1
191	4
192	3
193	57
194	9
195	3
203	1
204	3
205	3
206	3
207	14
208	6
209	23
210	4
211	1
215	4
216	1
217	116
218	25
219	13
220	2
221	3
222	1
229	2
230	91
231	23
232	10
233	2
234	1
235	2
236	1
237	35
238	6
239	2
243	24
244	6
245	57
246	13
247	6
248	1
249	1
257	2
258	6
259	33
260	8
261	3
265	7
266	2
267	2
279	2
280	13
281	41
282	11
283	4
307	9
308	2
309	3
310	1
320	1
321	1
322	1
323	6
324	1
335	3
336	1
338	1
339	1
347	1
348	6
349	2
350	1
363	1
395	2
396	1
453	1
466	1
540	2
541	5
542	3
543	1
