Mass spectrum: (-)-Riboflavin; LC-ESI-QTOF; MS2; CE:Ramp 5-60 V; [M-H]-
Name: (-)-Riboflavin
Name: Vitamin B2
Name: Vitamin G
Name: Lactoflavin
Name: Ovoflavin
Name: 7,8-Dimethyl-10-ribitylisoalloxazine
Name: Lactobene
Name: Ribosyn
Name: Vitaflavine
Name: Ribotone
Name: Ribovel
Name: Beflavine
Name: 6,7-Dimethyl-9-D-ribitylisoalloxazine
Name: Flavaxin
Name: Flaxain
Name: Hyflavin
Name: Ribipca
Name: Riboderm
Name: Riboflavinequinone
Class: Flavin
Formula: C17H20N4O6
Exact mass: 376.13828
SMILES: OCC(O)C(O)C(O)CN(c21)C(=N3)C(C(=O)NC(=O)3)=Nc(cc(C)c(C)c2)1
InChI: InChI=1S/C17H20N4O6/c1-7-3-9-10(4-8(7)2)21(5-11(23)14(25)12(24)6-22)15-13(18-9)16(26)20-17(27)19-15/h3-4,11-12,14,22-25H,5-6H2,1-2H3,(H,20,26,27)/t11-,12+,14-/m0/s1
Instrument: UPLC Q-Tof Premier, Waters
Instrument type: LC-ESI-QTOF
Ms type: MS2
Ion mode: NEGATIVE
Collision energy: Ramp 5-60 V
Fragmentation mode: LOW-ENERGY CID
Ionization: ESI
Precursor m/z: 375.13048
Precursor type: [M-H]-
m/z	relative intensity
212.0835	213
241.0736	128
243.0878	54
255.0891	999
375.1305	179
