Mass spectrum: 6-(gamma,gamma-Dimethylallylamino)purine; LC-ESI-QTOF; MS2; CE:Ramp 5-60 V; [M-H]-
Name: 6-(gamma,gamma-Dimethylallylamino)purine
Name: 2iP
Name: N6-(2-Isopentenyl)adenine
Name: Triacanthine
Name: N6-Dimethylallyladenine
Class: Imidazopyrimidines
Formula: C10H13N5
Exact mass: 203.11710
SMILES: CC(C)=CCNC(=N2)C(N=1)C(N=C2)=NC1
InChI: InChI=1S/C10H13N5/c1-7(2)3-4-11-9-8-10(13-5-12-8)15-6-14-9/h3,5-6,8H,4H2,1-2H3,(H,11,12,13,14,15)
Instrument: UPLC Q-Tof Premier, Waters
Instrument type: LC-ESI-QTOF
Ms type: MS2
Ion mode: NEGATIVE
Collision energy: Ramp 5-60 V
Fragmentation mode: LOW-ENERGY CID
Ionization: ESI
Precursor m/z: 202.10929
Precursor type: [M-H]-
m/z	relative intensity
106.0283	67
107.0365	104
117.0200	76
132.0315	248
133.0388	762
134.0466	999
164.8366	762
166.8334	256
201.8021	401
202.1093	829
