Mass spectrum: 2'-Deoxyinosine 5'-monophosphate; LC-ESI-QTOF; MS2; CE:30 V; [M+H]+
Name: 2'-Deoxyinosine-5'-monophosphate
Name: dIMP
Name: 2'-Deoxy-IMP
Name: 2'-Deoxyinosine 5'-monophosphate
Class: Natural Product; Nucleoside; Phosphates
Formula: C10H13N4O7P
Exact mass: 332.05219
SMILES: OC(C1)C(COP(O)(O)=O)OC1n(c3)c(N2)c(n3)C(=O)N=C2
InChI: InChI=1S/C10H13N4O7P/c15-5-1-7(21-6(5)2-20-22(17,18)19)14-4-13-8-9(14)11-3-12-10(8)16/h3-7,15H,1-2H2,(H,11,12,16)(H2,17,18,19)/t5-,6+,7+/m0/s1
Instrument: UPLC Q-Tof Premier, Waters
Instrument type: LC-ESI-QTOF
Ms type: MS2
Ion mode: POSITIVE
Collision energy: 30 V
Fragmentation mode: LOW-ENERGY CID
Ionization: ESI
Precursor m/z: 333.05998
Precursor type: [M+H]+
m/z	relative intensity
81.0379	235
137.0496	999
217.0810	101
333.0600	261
