Mass spectrum: Indole-3-carboxylic acid; LC-ESI-QTOF; MS2; CE:Ramp 5-60 V; [M+H]+
Name: Indole-3-carboxylic acid
Name: 3-Indolylcarboxylic Acid
Name: 3-Indoleformic Acid
Class: Indole
Formula: C9H7NO2
Exact mass: 161.04768
SMILES: C1=CC=C2C(=C1)C(=CN2)C(=O)O
InChI: InChI=1S/C9H7NO2/c11-9(12)7-5-10-8-4-2-1-3-6(7)8/h1-5,10H,(H,11,12)
Instrument: UPLC Q-Tof Premier, Waters
Instrument type: LC-ESI-QTOF
Ms type: MS2
Ion mode: POSITIVE
Collision energy: Ramp 5-60 V
Fragmentation mode: LOW-ENERGY CID
Ionization: ESI
Precursor m/z: 162.0555
Precursor type: [M+H]+
m/z	relative intensity
89.0401	188
91.0551	359
116.0502	556
117.0577	134
118.0660	999
144.0452	597
162.0555	303
