Mass spectrum: DL-alpha-Hydroxybutyric acid; GC-EI-TOF; MS; 2 TMS; BP:73
Name: DL-alpha-Hydroxybutyric acid
Class: Natural Product
Formula: C4H8O3
Exact mass: 104.04734
SMILES: CCC(O)C(O)=O
InChI: InChI=1S/C4H8O3/c1-2-3(5)4(6)7/h3,5H,2H2,1H3,(H,6,7)
Instrument: Pegasus III TOF-MS system, Leco; GC 6890, Agilent Technologies
Instrument type: GC-EI-TOF
Ms type: MS
Ion mode: POSITIVE
Retention time: 284.814 sec
Base peak: 73
Derivative form: C10H24O3Si2
Derivative mass: 248.1264
Derivative type: 2 TMS
m/z	relative intensity
60	16
61	36
62	3
63	2
65	1
66	91
67	10
69	8
70	8
71	11
72	28
73	999
74	97
75	145
76	14
77	24
78	2
79	6
81	49
82	4
83	1
84	1
85	14
86	1
87	11
88	2
89	4
94	1
95	11
96	1
99	14
100	1
101	21
102	6
103	13
104	2
105	6
109	3
113	2
115	27
116	6
117	16
118	2
119	3
129	5
130	10
131	508
132	63
133	78
134	9
135	4
143	11
144	1
145	1
147	425
148	68
149	41
150	4
151	1
175	2
189	2
190	24
191	6
192	2
205	44
206	9
207	4
217	1
219	3
233	21
234	4
235	1
