Mass spectrum: 2-Methylglutaric acid; LC-ESI-QTOF; MS2; CE:Ramp 5-60 V; [M-H]-
Name: 2-Methylglutaric acid
Name: 2-Methylglutarate
Name: 2-Methylpentanedioic Acid
Name: alpha-Methylglutaric Acid
Class: Carboxylic acids
Formula: C6H10O4
Exact mass: 146.05791
SMILES: OC(=O)CCC(C)C(O)=O
InChI: InChI=1S/C6H10O4/c1-4(6(9)10)2-3-5(7)8/h4H,2-3H2,1H3,(H,7,8)(H,9,10)
Instrument: UPLC Q-Tof Premier, Waters
Instrument type: LC-ESI-QTOF
Ms type: MS2
Ion mode: NEGATIVE
Collision energy: Ramp 5-60 V
Fragmentation mode: LOW-ENERGY CID
Ionization: ESI
Precursor m/z: 145.05011
Precursor type: [M-H]-
m/z	relative intensity
83.0503	133
101.0606	999
145.0501	606
