Mass spectrum: GABA; GC-EI-TOF; MS; 3 TMS; BP:73
Name: gamma-Amino-n-butyric acid
Name: gamma-Aminobutyric acid
Name: 4-Aminobutanoate
Name: 4-Aminobutanoic acid
Name: 4-Aminobutyric acid
Name: 4-Aminobutyrate
Name: 4-Aminobutylate
Name: GABA
Class: Natural Product
Formula: C4H9NO2
Exact mass: 103.06333
SMILES: NCCCC(O)=O
InChI: InChI=1S/C4H9NO2/c5-3-1-2-4(6)7/h1-3,5H2,(H,6,7)
Instrument: Pegasus III TOF-MS system, Leco; GC 6890, Agilent Technologies
Instrument type: GC-EI-TOF
Ms type: MS
Ion mode: POSITIVE
Retention time: 409.917 sec
Base peak: 73
Derivative form: C13H33NO2Si3
Derivative mass: 319.18191
Derivative type: 3 TMS
m/z	relative intensity
60	24
61	28
62	2
63	1
66	9
67	3
68	5
69	11
70	16
71	12
72	33
73	999
74	100
75	188
76	18
77	21
78	2
79	6
80	1
82	3
83	3
84	11
85	17
86	196
87	26
88	10
89	6
96	1
97	2
98	10
99	16
100	112
101	24
102	19
103	9
104	2
105	3
110	1
111	1
112	10
113	10
114	18
115	17
116	18
117	27
118	5
119	7
120	1
124	1
126	2
127	1
128	8
129	11
130	46
131	39
132	12
133	56
134	8
135	4
140	12
141	2
142	45
143	45
144	14
145	6
146	13
147	262
148	42
149	24
150	2
154	1
156	18
157	5
158	8
159	2
160	2
161	1
170	2
171	1
172	24
173	5
174	574
175	109
176	52
177	6
178	1
186	2
187	1
188	1
189	1
198	1
200	2
204	1
214	9
215	2
216	41
217	8
218	3
219	2
220	1
230	3
232	1
246	17
247	3
248	1
303	1
304	85
305	25
306	12
307	2
