Mass spectrum: L-Citrulline; LC-ESI-QTOF; MS2; CE:Ramp 5-60 V; [M-H]-
Name: L-Citrulline
Name: Cit
Name: Orn(carbamoyl)
Name: N5-Carbamoyl-L-ornithine
Name: delta-Ureidonorvaline
Name: L-2-Amino-5-ureidovaleric acid
Name: (S)-2-Amino-5-ureidopentanoic acid
Name: Sitrulline
Class: Amino acids
Formula: C6H13N3O3
Exact mass: 175.09569
SMILES: NC(=O)NCCC[C@H](N)C(O)=O
InChI: InChI=1S/C6H13N3O3/c7-4(5(10)11)2-1-3-9-6(8)12/h4H,1-3,7H2,(H,10,11)(H3,8,9,12)/t4-/m0/s1
Instrument: UPLC Q-Tof Premier, Waters
Instrument type: LC-ESI-QTOF
Ms type: MS2
Ion mode: NEGATIVE
Collision energy: Ramp 5-60 V
Fragmentation mode: LOW-ENERGY CID
Ionization: ESI
Derivative form: C8H13N3O3
Derivative mass: 175.19
Precursor m/z: 174.08789
Precursor type: [M-H]-
m/z	relative intensity
131.0820	999
174.0879	50
