Mass spectrum: L-Valine; GC-EI-TOF; MS; 2 TMS; BP:73
Name: L-Valine
Name: 2-Amino-3-methylbutyric acid
Class: Natural Product
Formula: C5H11NO2
Exact mass: 117.07898
SMILES: CC(C)[C@H](N)C(O)=O
InChI: InChI=1S/C5H11NO2/c1-3(2)4(6)5(7)8/h3-4H,6H2,1-2H3,(H,7,8)/t4-/m0/s1
Instrument: Pegasus III TOF-MS system, Leco; GC 6890, Agilent Technologies
Instrument type: GC-EI-TOF
Ms type: MS
Ion mode: POSITIVE
Retention time: 285.883 sec
Base peak: 73
Derivative form: C11H27NO2Si2
Derivative mass: 261.15803
Derivative type: 2 TMS
m/z	relative intensity
60	20
61	16
62	1
66	7
67	2
69	2
70	19
71	8
72	45
73	999
74	100
75	79
76	7
77	11
80	1
81	1
82	7
83	4
84	6
85	7
86	16
87	5
88	2
89	2
90	1
96	2
97	1
98	6
99	4
100	118
101	20
102	10
103	21
104	2
105	2
110	2
112	6
113	3
114	15
115	8
116	3
117	11
118	3
119	4
126	1
128	19
129	12
130	9
131	13
132	17
133	23
134	4
135	2
142	5
143	4
144	820
145	122
146	45
147	121
148	21
149	12
150	1
156	17
157	3
158	2
159	2
160	2
161	1
163	3
172	1
174	2
203	4
218	144
219	35
220	15
221	2
246	8
247	1
