Mass spectrum: Kaempferide; LC-ESI-QTOF; MS2; CE:30 eV; [M-H]-
Name: 3,5,7-trihydroxy-4'-methoxyflavone
Name: Kaempferide
Name: Kaer
Name: 3,5,7-trihydroxy-2-(4-methoxyphenyl)chromen-4-one
Class: Natural Product
Formula: C16H12O6
Exact mass: 300.06339
SMILES: COc(c3)ccc(c3)C(O1)=C(O)C(=O)c(c(O)2)c(cc(O)c2)1
InChI: InChI=1S/C16H12O6/c1-21-10-4-2-8(3-5-10)16-15(20)14(19)13-11(18)6-9(17)7-12(13)22-16/h2-7,17-18,20H,1H3
Instrument: UPLC Q-Tof Premier, Waters
Instrument type: LC-ESI-QTOF
Ms type: MS2
Ion mode: NEGATIVE
Collision energy: 30 eV
Fragmentation mode: LOW-ENERGY CID
Ionization: ESI
Full scan fragment ion peak: 299.1
Ion type: [M-H]-
m/z	relative intensity
63.0549	124
65.0387	76
83.0377	267
84.0306	31
92.0581	46
94.0301	46
104.0685	34
106.1794	27
107.0493	723
107.9647	214
108.8666	38
120.0840	152
120.9344	22
122.0520	93
131.0803	23
132.0540	311
132.9288	43
133.8488	20
135.0250	46
136.0365	92
150.0013	98
151.0345	999
151.8788	144
152.7780	50
153.8869	31
156.1101	43
163.0318	291
164.0306	406
164.8990	66
167.0508	23
183.0544	37
184.0030	30
199.0757	54
200.0430	69
211.0397	69
211.9818	40
212.9485	24
227.0566	195
228.0340	68
239.0176	50
240.0901	28
255.0424	202
255.9846	58
283.0561	118
284.0468	597
284.9348	108
285.9317	29
