Mass spectrum: Sinapic acid; GC-EI-TOF; MS; 2 TMS; BP:73
Name: Sinapic acid
Name: 3,5-dimethoxy-4-hydroxycinnamic acid
Name: 3-(4-hydroxy-3,5-dimethoxy-phenyl)prop-2-enoic acid
Class: Natural Product
Formula: C11H12O5
Exact mass: 224.06847
SMILES: COC1=CC(=CC(=C1O)OC)/C=C/C(=O)O
InChI: InChI=1S/C11H12O5/c1-15-8-5-7(3-4-10(12)13)6-9(16-2)11(8)14/h3-6,14H,1-2H3,(H,12,13)/b4-3+
Instrument: Pegasus III TOF-MS system, Leco; GC 6890, Agilent Technologies
Instrument type: GC-EI-TOF
Ms type: MS
Ion mode: POSITIVE
Retention time: 521.172 sec
Base peak: 73
Derivative form: C17H28O5Si2
Derivative mass: 368.14753
Derivative type: 2 TMS
m/z	relative intensity
60	18
61	40
62	12
63	30
64	14
65	16
66	9
67	9
68	1
69	7
70	9
71	9
72	28
73	999
74	101
75	289
76	58
77	81
78	15
79	30
80	4
81	8
82	4
83	22
84	6
85	10
86	3
87	7
88	13
89	108
90	17
91	52
92	24
93	14
94	3
95	10
96	9
97	5
98	3
99	16
100	3
101	9
102	17
103	40
104	22
105	26
106	6
107	12
108	3
109	8
110	3
111	6
112	2
113	3
114	2
115	34
116	17
117	55
118	16
119	52
120	26
121	14
122	5
123	4
124	2
125	4
126	3
127	4
128	7
129	20
130	18
131	26
132	36
133	44
134	12
135	43
136	8
137	9
138	2
139	3
140	8
141	3
142	4
143	8
144	5
145	22
146	9
147	65
148	17
149	22
150	10
151	9
152	3
153	3
154	19
155	4
156	1
157	2
158	4
159	10
160	19
161	36
162	39
163	25
164	6
165	7
166	5
167	4
168	2
169	39
170	5
171	3
172	2
173	11
174	9
175	54
176	26
177	74
178	23
179	15
180	4
181	3
182	1
183	1
184	1
185	2
186	2
187	5
188	8
189	16
190	28
191	35
192	15
193	14
194	5
195	4
196	5
197	2
198	1
199	1
200	1
201	4
202	3
203	22
204	17
205	49
206	37
207	13
208	4
209	39
210	8
211	3
212	1
213	1
214	1
215	1
216	2
217	6
218	49
219	45
220	45
221	27
222	27
223	8
224	3
225	1
226	1
227	1
229	1
230	1
231	4
232	6
233	21
234	22
235	13
236	6
237	6
238	2
239	7
240	2
241	1
242	1
243	1
245	1
246	1
247	12
248	23
249	89
250	22
251	12
252	5
253	1
254	1
259	1
260	1
261	3
262	2
263	15
264	12
265	7
266	5
267	1
268	1
272	1
273	1
274	1
275	1
276	1
277	4
278	5
279	90
280	31
281	12
282	2
283	1
289	1
290	1
291	1
292	2
293	10
294	7
295	10
296	4
297	2
298	1
299	1
302	1
303	1
304	1
305	1
306	1
307	4
308	4
309	17
310	8
311	4
312	2
313	1
321	1
322	5
323	115
324	56
325	21
326	5
327	2
328	2
329	2
330	3
331	3
332	3
333	3
334	3
335	2
336	3
337	16
338	321
339	130
340	49
341	15
342	3
343	1
344	1
345	2
346	2
347	2
348	2
349	2
350	2
351	1
352	9
353	160
354	61
355	23
356	5
357	2
358	1
359	1
360	2
361	2
362	2
363	2
364	2
365	2
366	2
367	16
368	240
369	76
370	31
371	6
372	1
393	1
435	1
474	1
508	1
525	1
644	1
663	1
692	1
767	1
