Mass spectrum: N-Carbamoyl-DL-aspartic acid; LC-ESI-QTOF; MS2; CE:Ramp 5-60 V; [M-H]-
Name: Carbamoyl-DL-aspartic acid
Name: N-Carbamoylaspartate
Name: Ureidosuccinic acid
Name: N-(aminocarbonyl)-DL-aspartic acid
Name: N-Carbamyl-DL-aspartic acid
Name: N-Carbamoyl-DL-aspartic acid
Class: Amino acids
Formula: C5H8N2O5
Exact mass: 176.04332
SMILES: NC(=O)NC(CC(O)=O)C(O)=O
InChI: InChI=1S/C5H8N2O5/c6-5(12)7-2(4(10)11)1-3(8)9/h2H,1H2,(H,8,9)(H,10,11)(H3,6,7,12)
Instrument: UPLC Q-Tof Premier, Waters
Instrument type: LC-ESI-QTOF
Ms type: MS2
Ion mode: NEGATIVE
Collision energy: Ramp 5-60 V
Fragmentation mode: LOW-ENERGY CID
Ionization: ESI
Precursor m/z: 175.03552
Precursor type: [M-H]-
m/z	relative intensity
88.0422	449
115.0052	121
132.0317	999
175.0355	53
