Mass spectrum: 16-Hydroxyhexadecanoic acid; GC-EI-TOF; MS; 2 TMS; BP:73
Name: 16-Hydroxyhexadecanoic acid
Class: Natural Product
Formula: C16H32O3
Exact mass: 272.23514
SMILES: OCCCCCCCCCCCCCCCC(O)=O
InChI: InChI=1S/C16H32O3/c17-15-13-11-9-7-5-3-1-2-4-6-8-10-12-14-16(18)19/h17H,1-15H2,(H,18,19)
Instrument: Pegasus III TOF-MS system, Leco; GC 6890, Agilent Technologies
Instrument type: GC-EI-TOF
Ms type: MS
Ion mode: POSITIVE
Retention time: 550.013 sec
Base peak: 73
Derivative form: C22H48O3Si2
Derivative mass: 416.3142
Derivative type: 2 TMS
m/z	relative intensity
60	17
61	123
62	9
63	6
65	5
66	8
67	135
68	3
69	114
70	25
71	52
72	47
73	999
74	101
75	828
76	78
77	76
78	5
79	40
80	7
81	159
82	23
83	176
84	27
85	44
86	9
87	24
88	11
89	63
90	7
91	52
92	6
93	40
94	6
95	129
96	28
97	133
98	26
99	43
100	5
101	61
102	8
103	172
104	17
105	23
106	3
107	28
108	4
109	55
110	11
111	48
112	8
113	20
114	3
115	34
116	30
117	186
118	20
119	17
120	2
121	43
122	5
123	29
124	5
125	14
126	3
127	10
128	3
129	153
130	21
131	63
132	28
133	57
134	10
135	37
136	5
137	15
138	4
139	7
140	2
141	6
142	2
143	17
144	2
145	33
146	6
147	201
148	34
149	178
150	26
151	18
152	8
153	4
154	2
155	5
156	2
157	9
158	1
159	6
160	1
161	3
162	1
163	8
164	1
165	2
166	2
167	2
168	1
169	3
170	2
171	10
172	2
173	3
174	1
175	2
177	5
178	1
179	1
180	1
181	1
183	2
184	1
185	12
186	2
187	3
188	3
189	4
190	3
191	4
192	2
193	9
194	5
195	1
197	1
199	11
200	2
201	6
202	1
203	17
204	171
205	39
206	16
207	4
208	2
209	1
211	1
213	3
214	1
215	2
216	1
217	89
218	21
219	14
220	3
221	1
227	3
228	1
229	2
230	1
231	4
232	1
233	2
234	1
235	1
236	7
237	10
238	2
239	1
241	4
242	1
243	2
244	2
245	2
246	1
247	1
255	2
257	3
258	1
259	3
260	1
261	1
267	1
269	8
270	2
271	1
273	2
275	1
283	3
284	1
285	2
287	1
295	1
297	1
298	1
299	1
301	1
310	2
311	84
312	22
313	6
314	1
315	1
326	5
327	1
384	4
385	56
386	28
387	10
388	2
395	1
400	7
401	110
402	40
403	15
404	3
416	1
