Mass spectrum: N-Acetylputrescine; LC-ESI-QTOF; MS2; CE:Ramp 5-60 V; [M+H]+
Name: N-acetyl putrescine
Name: Acetylputrescine
Name: N-(4-aminobutyl)acetamide
Name: N-Acetylputrescine
Class: Diamine
Formula: C6H14N2O
Exact mass: 130.11061
SMILES: NCCCCNC(C)=O
InChI: InChI=1S/C6H14N2O/c1-6(9)8-5-3-2-4-7/h2-5,7H2,1H3,(H,8,9)
Instrument: UPLC Q-Tof Premier, Waters
Instrument type: LC-ESI-QTOF
Ms type: MS2
Ion mode: POSITIVE
Collision energy: Ramp 5-60 V
Fragmentation mode: LOW-ENERGY CID
Ionization: ESI
Precursor m/z: 131.11841
Precursor type: [M+H]+
m/z	relative intensity
72.0816	658
114.0915	999
131.1184	314
