Mass spectrum: Isoguvacine; LC-ESI-QTOF; MS2; CE:Ramp 5-60 V; [M-H]-
Name: Isoguvacine
Name: 1,2,3,6-Tetrahydro-4-pyridinecarboxylic acid
Class: Carboxylic acids
Formula: C6H9NO2
Exact mass: 127.06333
SMILES: OC(=O)C(C1)=CCNC1
InChI: InChI=1S/C6H9NO2/c8-6(9)5-1-3-7-4-2-5/h1,7H,2-4H2,(H,8,9)
Instrument: UPLC Q-Tof Premier, Waters
Instrument type: LC-ESI-QTOF
Ms type: MS2
Ion mode: NEGATIVE
Collision energy: Ramp 5-60 V
Fragmentation mode: LOW-ENERGY CID
Ionization: ESI
Precursor m/z: 126.05553
Precursor type: [M-H]-
m/z	relative intensity
97.0296	146
126.0555	999
