Mass spectrum: Uridine 5'-diphospho-N-acetylglucosamine; LC-ESI-QTOF; MS2; CE:Ramp 5-60 V; [M-H]-
Name: Uridine 5'-diphospho-N-acetylglucosamine
Name: UDPAG
Name: UDP-GlcNAc
Name: UDP-N-acetylglucosamine
Class: Nucleotide-carbohydrates
Formula: C17H27N3O17P2
Exact mass: 607.08157
SMILES: OCC(O1)C(O)C(O)C(NC(C)=O)C1OP(O)(=O)OP(O)(=O)OCC(O2)C(O)C(O)C2N(C=3)C(=O)NC(=O)C3
InChI: InChI=1S/C17H27N3O17P2/c1-6(22)18-10-13(26)11(24)7(4-21)35-16(10)36-39(31,32)37-38(29,30)33-5-8-12(25)14(27)15(34-8)20-3-2-9(23)19-17(20)28/h2-3,7-8,10-16,21,24-27H,4-5H2,1H3,(H,18,22)(H,29,30)(H,31,32)(H,19,23,28)/t7-,8-,10-,11-,12-,13-,14-,15-,16-/m1/s1
Instrument: UPLC Q-Tof Premier, Waters
Instrument type: LC-ESI-QTOF
Ms type: MS2
Ion mode: NEGATIVE
Collision energy: Ramp 5-60 V
Fragmentation mode: LOW-ENERGY CID
Ionization: ESI
Precursor m/z: 606.07377
Precursor type: [M-H]-
m/z	relative intensity
78.9605	457
96.9710	127
111.0213	95
158.9266	426
176.9374	124
272.9599	236
282.0413	244
323.0320	64
362.0084	86
384.9873	291
402.9982	87
606.0738	999
