Mass spectrum: (-)-Epicatechin; LC-ESI-QTOF; MS2; CE:Ramp 5-60 V; [M-H]-
Name: (-)-Epicatechin
Name: (-)-3,3',4',5,7-Pentahydroxyflavan
Name: EpCt_mi
Class: Flavonoid
Formula: C15H14O6
Exact mass: 290.07904
SMILES: C1[C@H]([C@H](OC2=CC(=CC(=C21)O)O)C3=CC(=C(C=C3)O)O)O
InChI: InChI=1S/C15H14O6/c16-8-4-11(18)9-6-13(20)15(21-14(9)5-8)7-1-2-10(17)12(19)3-7/h1-5,13,15-20H,6H2/t13-,15-/m1/s1
Instrument: UPLC Q-Tof Premier, Waters
Instrument type: LC-ESI-QTOF
Ms type: MS2
Ion mode: NEGATIVE
Collision energy: Ramp 5-60 V
Fragmentation mode: LOW-ENERGY CID
Ionization: ESI
Precursor m/z: 289.07123
Precursor type: [M-H]-
m/z	relative intensity
81.0353	56
83.0150	72
93.0355	51
95.0510	73
97.0299	127
109.0298	448
121.0298	108
122.0374	78
123.0455	403
125.0248	262
135.0451	52
137.0248	160
149.0249	85
151.0403	168
159.0451	70
161.0612	88
164.0119	59
165.0196	70
179.0356	107
187.0410	94
188.0487	72
203.0721	251
205.0520	190
221.0833	79
245.0828	364
289.0712	999
