Mass spectrum: N-Acetyl-DL-glutamic acid; LC-ESI-QTOF; MS2; CE:Ramp 5-60 V; [M+H]+
Name: N-Acetyl-DL-glutamic acid
Name: Ac-Glu
Name: N-Acetyl-DL-glutamate
Name: N-Acetylglutamate
Name: 2-(Acetylamino)pentanedioic Acid
Class: Amino acids
Formula: C7H11NO5
Exact mass: 189.06372
SMILES: CC(=O)NC(CCC(O)=O)C(O)=O
InChI: InChI=1S/C7H11NO5/c1-4(9)8-5(7(12)13)2-3-6(10)11/h5H,2-3H2,1H3,(H,8,9)(H,10,11)(H,12,13)
Instrument: UPLC Q-Tof Premier, Waters
Instrument type: LC-ESI-QTOF
Ms type: MS2
Ion mode: POSITIVE
Collision energy: Ramp 5-60 V
Fragmentation mode: LOW-ENERGY CID
Ionization: ESI
Precursor m/z: 190.07152
Precursor type: [M+H]+
m/z	relative intensity
56.0497	17
70.0105	19
73.0473	15
79.0161	34
81.5159	12
84.0439	909
85.0275	14
90.5230	26
99.5093	16
102.0538	214
130.0490	999
133.0143	61
133.9332	11
144.0642	46
148.0596	176
149.0448	91
151.0231	38
172.0606	75
190.0715	25
