Mass spectrum: Hexylamine; LC-ESI-QTOF; MS2; CE:Ramp 5-60 V; [M+H]+
Name: Hexylamine
Name: 1-Aminohexane
Name: 1-Hexanamine
Class: Amine
Formula: C6H15N
Exact mass: 101.12045
SMILES: CCCCCCN
InChI: InChI=1S/C6H15N/c1-2-3-4-5-6-7/h2-7H2,1H3
Instrument: UPLC Q-Tof Premier, Waters
Instrument type: LC-ESI-QTOF
Ms type: MS2
Ion mode: POSITIVE
Collision energy: Ramp 5-60 V
Fragmentation mode: LOW-ENERGY CID
Ionization: ESI
Precursor m/z: 102.12824
Precursor type: [M+H]+
m/z	relative intensity
57.0717	67
85.1023	337
102.1282	999
