Mass spectrum: Tiliroside; LC-ESI-QTOF; MS2; CE:Ramp 5-60 V; [M+H]+
Name: Tiliroside
Name: Kaem-3-Glc-6pp-p-Cou
Name: Kaempferol-3-Glucoside-6-p-coumaroyl
Name: Tribuloside
Name: kaempferol-3-O-(6-p-coumaroyl)-glucoside
Name: Potengriffioside A
Class: Flavonoid
Formula: C30H26O13
Exact mass: 594.13734
SMILES: Oc(c1)cc(O2)c(C(C(OC(C5O)OC(C(C5O)O)COC(=O)C=Cc(c4)ccc(O)c4)=C2c(c3)ccc(c3)O)=O)c(O)1
InChI: InChI=1S/C30H26O13/c31-16-6-1-14(2-7-16)3-10-22(35)40-13-21-24(36)26(38)27(39)30(42-21)43-29-25(37)23-19(34)11-18(33)12-20(23)41-28(29)15-4-8-17(32)9-5-15/h1-12,21,24,26-27,30-34,36,38-39H,13H2/b10-3+/t21-,24-,26+,27-,30+/m1/s1
Instrument: UPLC Q-Tof Premier, Waters
Instrument type: LC-ESI-QTOF
Ms type: MS2
Ion mode: POSITIVE
Collision energy: Ramp 5-60 V
Fragmentation mode: LOW-ENERGY CID
Ionization: ESI
Precursor m/z: 595.14513
Precursor type: [M+H]+
m/z	relative intensity
119.0505	98
147.0459	999
165.0568	47
287.0563	304
291.0894	54
309.0992	84
595.1451	41
