Mass spectrum: 2-Coumaric acid; GC-EI-TOF; MS; 2 TMS; BP:73
Name: o-Coumaric acid
Name: trans-2-Hydroxycinnamate
Name: trans-2-Hydroxycinnamic acid
Name: 2-Coumaric acid
Class: Natural Product
Formula: C9H8O3
Exact mass: 164.04734
SMILES: OC(=O)C=Cc(c1)c(O)ccc1
InChI: InChI=1S/C9H8O3/c10-8-4-2-1-3-7(8)5-6-9(11)12/h1-6,10H,(H,11,12)/b6-5+
Instrument: Pegasus III TOF-MS system, Leco; GC 6890, Agilent Technologies
Instrument type: GC-EI-TOF
Ms type: MS
Ion mode: POSITIVE
Retention time: 477.22 sec
Base peak: 73
Derivative form: C15H24O3Si2
Derivative mass: 308.1264
Derivative type: 2 TMS
m/z	relative intensity
60	8
61	20
62	9
63	29
64	8
65	13
66	19
67	6
69	2
70	6
71	6
72	23
73	999
74	105
75	122
76	20
77	40
78	7
79	16
80	2
81	2
82	1
83	8
84	2
85	10
86	2
87	8
88	4
89	50
90	32
91	46
92	6
93	3
94	1
95	2
96	1
97	3
98	1
99	2
100	1
101	17
102	16
103	18
104	4
105	14
106	2
107	2
109	1
110	2
111	1
113	2
114	2
115	43
116	10
117	12
118	59
119	11
120	2
121	6
123	1
127	1
128	2
129	3
130	2
131	17
132	3
133	30
134	5
135	53
136	7
137	4
139	4
142	1
143	2
144	8
145	14
146	22
147	570
148	99
149	58
150	7
151	7
152	1
159	9
160	3
161	115
162	18
163	10
164	2
165	1
166	1
173	1
174	1
175	25
176	5
177	11
178	2
179	7
180	1
181	3
189	1
190	38
191	8
192	7
193	2
195	1
203	2
205	5
206	1
209	8
210	1
217	2
218	1
219	46
220	12
221	3
235	3
249	2
251	3
265	3
266	1
292	2
293	83
294	24
295	9
296	1
307	3
308	52
309	15
310	5
311	1
