Mass spectrum: Kaempferol-3-Glucuronide; LC-ESI-QTOF; MS2; CE:Ramp 5-60 V; [M-H]-
Name: Kaempferol-3-Glucuronide
Name: Kaem-3-GlcA
Name: Kaempferol-3-glucuronoside
Class: Flavonoid
Formula: C21H18O12
Exact mass: 462.07983
SMILES: Oc(c4)ccc(c4)C(O1)=C(OC(O3)C(O)C(O)C(O)C(C(O)=O)3)C(=O)c(c(O)2)c(cc(O)c2)1
InChI: InChI=1S/C21H18O12/c22-8-3-1-7(2-4-8)17-18(13(25)12-10(24)5-9(23)6-11(12)31-17)32-21-16(28)14(26)15(27)19(33-21)20(29)30/h1-6,14-16,19,21-24,26-28H,(H,29,30)/t14-,15-,16+,19-,21+/m0/s1
Instrument: UPLC Q-Tof Premier, Waters
Instrument type: LC-ESI-QTOF
Ms type: MS2
Ion mode: NEGATIVE
Collision energy: Ramp 5-60 V
Fragmentation mode: LOW-ENERGY CID
Ionization: ESI
Precursor m/z: 461.072
Precursor type: [M-H]-
m/z	relative intensity
113.0247	129
229.0511	143
285.0405	999
461.0720	322
