Mass spectrum: Isorhamnetin; LC-ESI-QTOF; MS2; CE:30 eV; [M-H]-
Name: 3,4',5,7-tetrahydroxy-3'-methoxyflavone
Name: Isorhamnetin
Name: Isor
Name: 3,5,7-trihydroxy-2-(4-hydroxy-3-methoxy-phenyl)chromen-4-one
Class: Natural Product
Formula: C16H12O7
Exact mass: 316.05830
SMILES: COc(c(O)3)cc(cc3)C(O1)=C(O)C(=O)c(c(O)2)c(cc(O)c2)1
InChI: InChI=1S/C16H12O7/c1-22-11-4-7(2-3-9(11)18)16-15(21)14(20)13-10(19)5-8(17)6-12(13)23-16/h2-6,17-19,21H,1H3
Instrument: UPLC Q-Tof Premier, Waters
Instrument type: LC-ESI-QTOF
Ms type: MS2
Ion mode: NEGATIVE
Collision energy: 30 eV
Fragmentation mode: LOW-ENERGY CID
Ionization: ESI
Full scan fragment ion peak: 315.1
Ion type: [M-H]-
m/z	relative intensity
63.0529	114
65.0380	82
79.7369	21
83.0554	274
83.8599	27
84.7016	20
91.0555	25
94.0280	48
94.9534	30
95.9927	22
106.1862	24
107.0509	694
108.0239	384
108.8914	73
109.7594	23
120.0509	103
122.0359	75
122.9466	23
124.0326	77
124.9927	24
132.8540	20
135.0343	93
136.0186	194
136.9430	44
137.8422	21
146.1147	22
147.0764	23
148.0417	379
148.9639	72
150.0206	124
151.0283	999
151.9361	182
152.8028	45
153.6920	24
154.9722	28
158.9859	33
159.9397	23
161.0840	28
162.0321	29
163.0279	266
164.0129	372
164.8574	54
165.8762	23
166.9852	22
171.0749	27
171.9882	42
172.9472	29
173.9756	38
174.9574	34
176.0901	21
182.0290	19
183.0730	88
184.0180	28
184.9444	21
185.9277	22
187.0533	38
188.0361	45
189.0253	59
189.9849	20
192.0317	26
198.0311	20
199.0451	86
200.0241	54
201.0133	41
201.9842	49
202.9915	42
211.0605	64
212.0111	25
215.0473	108
216.0420	106
216.9417	41
226.0637	48
227.0591	232
227.9763	70
228.9938	40
229.9407	20
243.0498	247
244.0015	69
252.8763	19
253.9675	25
255.0495	303
255.9985	49
256.8985	21
271.0412	438
271.9578	105
272.7817	31
283.0391	284
283.8947	45
297.2021	22
299.0442	100
300.0419	571
300.9412	105
301.8309	32
