Mass spectrum: (2R)-2-Hydroxy-2-phenethylglucosinolate; LC-ESI-QTOF; MS2; CE:Ramp 5-60 V; [M+K]+
Name: (2R)-2-Hydroxy-2-phenethylglucosinolate
Name: Glucosibarin
Class: Glucosinolate
Formula: C15H21NO10S2
Exact mass: 439.06069
SMILES: OCC(O1)C(O)C(O)C(O)C1SC(=NOS(O)(=O)=O)CC(O)c(c2)cccc2
InChI: InChI=1S/C15H21NO10S2/c17-7-10-12(19)13(20)14(21)15(25-10)27-11(16-26-28(22,23)24)6-9(18)8-4-2-1-3-5-8/h1-5,9-10,12-15,17-21H,6-7H2,(H,22,23,24)/b16-11+/t9-,10-,12-,13+,14-,15+/m1/s1
Instrument: UPLC Q-Tof Premier, Waters
Instrument type: LC-ESI-QTOF
Ms type: MS2
Ion mode: POSITIVE
Collision energy: Ramp 5-60 V
Fragmentation mode: LOW-ENERGY CID
Ionization: ESI
Derivative form: C15H21NO10S2.K.H2O
Derivative mass: 495.57
Precursor m/z: 478.02437
Precursor type: [M+K]+
m/z	relative intensity
98.9750	999
99.5089	239
121.0614	226
158.9923	555
160.0013	218
234.9918	479
371.9684	442
477.9909	250
478.0244	316
