Mass spectrum: 3-Indoleacetonitrile; LC-ESI-QTOF; MS2; CE:Ramp 5-60 V; [M+H]+
Name: 3-Indolylacetonitrile
Name: Indole-3-acetonitrile
Name: 3-(Cyanomethyl)indole
Name: 3-Indoleacetonitrile
Class: Indole
Formula: C10H8N2
Exact mass: 156.06875
SMILES: C1=CC=C2C(=C1)C(=CN2)CC#N
InChI: InChI=1S/C10H8N2/c11-6-5-8-7-12-10-4-2-1-3-9(8)10/h1-4,7,12H,5H2
Instrument: UPLC Q-Tof Premier, Waters
Instrument type: LC-ESI-QTOF
Ms type: MS2
Ion mode: POSITIVE
Collision energy: Ramp 5-60 V
Fragmentation mode: LOW-ENERGY CID
Ionization: ESI
Precursor m/z: 157.07654
Precursor type: [M+H]+
m/z	relative intensity
74.9419	226
90.0486	79
99.5129	75
115.9686	407
117.0606	660
130.0683	999
131.0708	67
155.0655	114
156.0687	445
157.0780	256
