Mass spectrum: D-(+)-Glucosamine; GC-EI-TOF; MS; 6 TMS; BP:73
Name: D-(+)-Glucosamine
Class: Natural Product
Formula: C6H13NO5
Exact mass: 179.07937
SMILES: OCC(O1)C(O)C(O)C(N)C(O)1
InChI: InChI=1S/C6H13NO5/c7-3-5(10)4(9)2(1-8)12-6(3)11/h2-6,8-11H,1,7H2/t2-,3-,4-,5-,6-/m1/s1
Instrument: Pegasus III TOF-MS system, Leco; GC 6890, Agilent Technologies
Instrument type: GC-EI-TOF
Ms type: MS
Ion mode: POSITIVE
Retention time: 462.631 sec
Base peak: 73
Derivative form: C24H61NO5Si6
Derivative mass: 611.31653
Derivative type: 6 TMS
m/z	relative intensity
60	8
61	7
66	4
67	2
69	2
70	4
71	3
72	17
73	999
74	87
75	76
76	6
77	8
78	1
79	2
80	1
81	2
82	2
83	12
84	12
85	4
86	11
87	7
88	5
89	61
90	5
91	2
96	1
97	1
98	2
99	6
100	25
101	26
102	15
103	89
104	9
105	10
106	1
110	1
111	2
112	2
113	16
114	4
115	6
116	7
117	66
118	8
119	6
125	1
126	2
127	7
128	13
129	99
130	18
131	25
132	7
133	32
134	4
135	2
137	1
140	1
141	7
142	7
143	11
144	12
145	3
146	3
147	188
148	30
149	18
150	2
151	1
152	1
153	1
154	1
155	1
156	1
157	51
158	9
159	344
160	39
161	13
162	2
163	3
165	1
168	5
169	1
170	1
171	2
172	3
173	2
174	1
175	2
177	1
185	1
186	1
187	1
188	2
189	10
190	4
191	4
192	1
195	1
199	1
200	2
201	11
202	3
203	9
204	19
205	120
206	24
207	11
208	1
209	1
213	1
214	2
215	4
216	8
217	35
218	8
219	3
221	2
227	2
228	1
229	17
230	5
231	4
232	6
233	2
234	1
240	2
241	1
242	2
243	2
244	2
245	1
258	1
261	2
267	1
273	7
274	1
277	2
278	1
290	1
291	4
292	1
303	2
304	4
305	3
306	1
307	2
318	1
319	75
320	22
321	11
322	2
332	1
357	1
447	1
537	3
538	2
539	1
