Mass spectrum: N-Acetylneuraminic acid; LC-ESI-QTOF; MS2; CE:Ramp 5-60 V; [M-H]-
Name: N-Acetylneuraminic acid
Name: NAN
Name: NANA
Name: Neu5Ac
Name: Lactaminic acid
Name: Sialic acid
Name: 5-Acetamido-3,5-dideoxy-D-glycero-D-galactononulosonic acid
Name: Neuraminic acid N-acetate
Name: Aceneuramic Acid
Name: 5-Acetylamino-3,5-dideoxy-D-glycero-D-galacto-2-nonulosonic Acid
Name: N-Acetylneuraminate
Name: N-acetylneuraminic acid,Type IV-S,Synthetic
Class: Neuraminic acids
Formula: C11H19NO9
Exact mass: 309.10598
SMILES: OCC(O)C(O)C([H])(O1)C(NC(C)=O)C(O)CC(O)(C(O)=O)1
InChI: InChI=1S/C11H19NO9/c1-4(14)12-7-5(15)2-11(20,10(18)19)21-9(7)8(17)6(16)3-13/h5-9,13,15-17,20H,2-3H2,1H3,(H,12,14)(H,18,19)/t5-,6+,7+,8+,9+,11?/m0/s1
Instrument: UPLC Q-Tof Premier, Waters
Instrument type: LC-ESI-QTOF
Ms type: MS2
Ion mode: NEGATIVE
Collision energy: Ramp 5-60 V
Fragmentation mode: LOW-ENERGY CID
Ionization: ESI
Precursor m/z: 308.09818
Precursor type: [M-H]-
m/z	relative intensity
87.0093	999
98.0612	178
170.0458	166
308.0982	140
