Mass spectrum: 3-Chloro-L-tyrosine; LC-ESI-QTOF; MS2; CE:Ramp 5-60 V; [M-H]-
Name: 3-Chloro-L-tyrosine
Name: Tyr(3-Cl)
Class: Amino acids
Formula: C9H10ClNO3
Exact mass: 215.03492
SMILES: OC(=O)C(N)Cc(c1)cc(Cl)c(O)c1
InChI: InChI=1S/C9H10ClNO3/c10-6-3-5(1-2-8(6)12)4-7(11)9(13)14/h1-3,7,12H,4,11H2,(H,13,14)/t7-/m0/s1
Instrument: UPLC Q-Tof Premier, Waters
Instrument type: LC-ESI-QTOF
Ms type: MS2
Ion mode: NEGATIVE
Collision energy: Ramp 5-60 V
Fragmentation mode: LOW-ENERGY CID
Ionization: ESI
Precursor m/z: 214.02712
Precursor type: [M-H]-
m/z	relative intensity
72.0097	147
89.0396	178
117.0339	587
134.0603	96
153.0103	270
197.0006	589
214.0271	999
