Mass spectrum: L-beta-Homovaline; LC-ESI-QTOF; MS2; CE:Ramp 5-60 V; [M+H]+
Name: L-beta-Homovaline
Name: (R)-3-Amino-4-methylpentanoic acid
Name: L-beta-Leucine
Name: (R)-3-Amino-4-methylvaleric acid
Class: Amino acids
Formula: C6H13NO2
Exact mass: 131.09463
SMILES: CC(C)[C@@H](N)CC(O)=O
InChI: InChI=1S/C6H13NO2/c1-4(2)5(7)3-6(8)9/h4-5H,3,7H2,1-2H3,(H,8,9)/t5-/m1/s1
Instrument: UPLC Q-Tof Premier, Waters
Instrument type: LC-ESI-QTOF
Ms type: MS2
Ion mode: POSITIVE
Collision energy: Ramp 5-60 V
Fragmentation mode: LOW-ENERGY CID
Ionization: ESI
Precursor m/z: 132.10242
Precursor type: [M+H]+
m/z	relative intensity
69.0711	333
72.0813	999
73.0664	131
99.5111	103
115.9659	182
132.1024	266
