Mass spectrum: 1-Isothiocyanato-6-(methylsulfinyl)-hexane; LC-ESI-QTOF; MS2; CE:Ramp 5-60 V; [M+H]+
Name: 1-Isothiocyanato-6-(methylsulfinyl)-hexane
Name: 6-Methylsulfinylhexyl isothiocyante
Class: Isothiocyanate
Formula: C8H15NOS2
Exact mass: 205.05951
SMILES: S=C=NCCCCCCS(C)=O
InChI: InChI=1S/C8H15NOS2/c1-12(10)7-5-3-2-4-6-9-8-11/h2-7H2,1H3
Instrument: UPLC Q-Tof Premier, Waters
Instrument type: LC-ESI-QTOF
Ms type: MS2
Ion mode: POSITIVE
Collision energy: Ramp 5-60 V
Fragmentation mode: LOW-ENERGY CID
Ionization: ESI
Precursor m/z: 206.0673
Precursor type: [M+H]+
m/z	relative intensity
55.0581	250
65.0088	73
71.9939	191
80.0521	54
81.0724	119
83.0877	555
98.0988	158
108.0834	222
109.0907	636
133.0707	161
142.0704	999
147.0868	133
206.0673	954
