Mass spectrum: Kaempferide; LC-ESI-QTOF; MS2; CE:Ramp 5-60 eV; [M-H]-
Name: 3,5,7-trihydroxy-4'-methoxyflavone
Name: Kaempferide
Name: Kaer
Name: 3,5,7-trihydroxy-2-(4-methoxyphenyl)chromen-4-one
Class: Natural Product
Formula: C16H12O6
Exact mass: 300.06339
SMILES: COc(c3)ccc(c3)C(O1)=C(O)C(=O)c(c(O)2)c(cc(O)c2)1
InChI: InChI=1S/C16H12O6/c1-21-10-4-2-8(3-5-10)16-15(20)14(19)13-11(18)6-9(17)7-12(13)22-16/h2-7,17-18,20H,1H3
Instrument: UPLC Q-Tof Premier, Waters
Instrument type: LC-ESI-QTOF
Ms type: MS2
Ion mode: NEGATIVE
Collision energy: Ramp 5-60 eV
Fragmentation mode: LOW-ENERGY CID
Ionization: ESI
Full scan fragment ion peak: 299.1
Ion type: [M-H]-
m/z	relative intensity
63.0219	31
65.0011	25
83.0127	55
92.0257	17
104.0261	15
107.0134	123
108.0211	40
120.0214	26
132.0216	65
149.9959	18
151.0037	224
163.0039	68
164.0114	75
211.0403	15
227.0351	38
228.0426	15
255.0303	38
283.0254	22
284.0323	861
284.2869	17
285.0362	41
299.0555	999
299.3193	28
300.0600	51
