Mass spectrum: Sissotrin; LC-ESI-QTOF; MS2; CE:Ramp 5-60 V; [M+H]+
Name: Sissotrin
Name: Sissostrin
Name: Biochanin-alpha-7-Glucoside
Name: astroside
Class: Glucosides
Formula: C22H22O10
Exact mass: 446.12130
SMILES: COc(c4)ccc(c4)C(=C3)C(=O)c(c(O)2)c(O3)cc(c2)O[C@H](O1)[C@H](O)[C@@H](O)[C@H](O)[C@@H](CO)1
InChI: InChI=1S/C22H22O10/c1-29-11-4-2-10(3-5-11)13-9-30-15-7-12(6-14(24)17(15)18(13)25)31-22-21(28)20(27)19(26)16(8-23)32-22/h2-7,9,16,19-24,26-28H,8H2,1H3/t16-,19-,20+,21-,22-/m1/s1
Instrument: UPLC Q-Tof Premier, Waters
Instrument type: LC-ESI-QTOF
Ms type: MS2
Ion mode: POSITIVE
Collision energy: Ramp 5-60 V
Fragmentation mode: LOW-ENERGY CID
Ionization: ESI
Precursor m/z: 447.12909
Precursor type: [M+H]+
m/z	relative intensity
79.0282	148
90.5178	235
90.5362	137
98.5224	166
99.5246	701
100.5191	505
105.0848	308
111.0335	328
112.0327	133
167.0941	366
193.1125	165
235.1256	999
447.1291	141
