Mass spectrum: Allantoin; GC-EI-TOF; MS; 4 TMS; BP:73
Name: Allantoin
Name: Glyoxyldiureide
Name: 5-Ureidohydantoin
Class: Natural Product
Formula: C4H6N4O3
Exact mass: 158.04399
SMILES: NC(=O)N[C@H](N1)C(=O)NC(=O)1
InChI: InChI=1S/C4H6N4O3/c5-3(10)6-1-2(9)8-4(11)7-1/h1H,(H3,5,6,10)(H2,7,8,9,11)/t1-/m1/s1
Instrument: Pegasus III TOF-MS system, Leco; GC 6890, Agilent Technologies
Instrument type: GC-EI-TOF
Ms type: MS
Ion mode: POSITIVE
Retention time: 452.137 sec
Base peak: 73
Derivative form: C16H38N4O3Si4
Derivative mass: 446.2021
Derivative type: 4 TMS
m/z	relative intensity
60	5
61	6
63	1
64	1
66	2
69	2
70	24
71	11
72	60
73	999
74	98
75	66
76	5
77	13
78	2
79	6
84	10
85	9
86	17
87	5
88	2
89	2
90	1
98	3
99	33
100	152
101	25
102	17
103	4
105	1
111	1
113	3
114	5
115	14
116	26
117	10
118	3
119	1
126	1
127	5
128	2
129	2
130	32
131	27
132	21
133	15
134	3
135	1
141	4
142	3
143	9
144	3
145	2
146	33
147	119
148	21
149	10
150	1
154	1
155	2
156	1
157	12
158	9
159	8
160	3
161	1
168	1
169	1
170	1
171	25
172	14
173	29
174	19
175	5
176	1
185	1
186	3
187	56
188	74
189	38
190	10
191	2
198	2
199	2
200	5
201	29
202	8
203	4
204	5
205	1
213	1
214	1
215	3
216	2
217	2
228	2
229	1
230	1
231	1
241	1
242	3
243	32
244	7
245	10
246	4
247	1
257	1
258	7
259	4
260	2
261	14
262	4
263	2
285	1
288	2
302	1
314	1
315	2
316	12
317	4
318	2
329	1
330	9
331	92
332	29
333	13
334	3
356	5
357	7
358	2
359	1
430	2
431	20
432	8
433	4
434	1
445	2
446	16
447	7
448	3
449	1
