Mass spectrum: 4-Methylumbelliferone; GC-EI-TOF; MS; 1 TMS; BP:233
Name: 7-Hydroxy-4-methylcoumarin
Name: Hymecromone
Name: 4-Methylumbelliferone
Class: Natural Product
Formula: C10H8O3
Exact mass: 176.04734
SMILES: Oc(c2)cc(O1)c(c2)C(C)=CC(=O)1
InChI: InChI=1S/C10H8O3/c1-6-4-10(12)13-9-5-7(11)2-3-8(6)9/h2-5,11H,1H3
Instrument: Pegasus III TOF-MS system, Leco; GC 6890, Agilent Technologies
Instrument type: GC-EI-TOF
Ms type: MS
Ion mode: POSITIVE
Retention time: 484.444 sec
Base peak: 233
Derivative form: C13H16O3Si
Derivative mass: 248.08687
Derivative type: 1 TMS
m/z	relative intensity
60	18
61	64
62	79
63	184
64	39
65	184
66	31
67	111
68	2
69	43
70	16
71	23
72	26
73	924
74	150
75	260
76	110
77	434
78	61
79	99
80	12
81	19
82	9
83	44
84	7
85	37
86	20
87	122
88	147
89	85
90	29
91	206
92	24
93	39
94	22
95	60
96	8
97	12
98	10
99	60
100	9
101	40
102	595
103	314
104	29
105	46
106	8
107	21
108	4
109	26
110	5
111	8
112	1
113	4
114	4
115	125
116	25
117	48
118	13
119	54
120	9
121	24
122	5
123	11
124	2
125	4
126	2
127	10
128	18
129	35
130	15
131	88
132	13
133	25
134	7
135	44
136	9
137	13
138	2
139	1
141	2
143	8
144	6
145	50
146	12
147	86
148	17
149	94
150	16
151	41
152	6
153	2
155	1
157	3
158	2
159	42
160	8
161	53
162	32
163	40
164	8
165	292
166	46
167	15
168	2
169	1
170	1
171	3
172	1
173	20
174	9
175	49
176	14
177	518
178	86
179	27
180	4
181	1
185	3
186	1
187	6
188	2
189	83
190	22
191	11
192	3
193	1
194	1
195	1
196	1
197	1
198	1
199	1
201	2
202	2
203	31
204	15
205	390
206	80
207	23
208	3
209	1
210	1
211	1
212	1
213	1
214	1
215	2
216	2
217	6
218	6
219	14
220	283
221	69
222	19
223	3
231	2
232	7
233	999
234	187
235	57
236	7
237	1
238	1
239	1
240	1
241	1
242	1
243	1
247	6
248	837
249	164
250	47
251	5
