Mass spectrum: Isorhamnetin; LC-ESI-QTOF; MS2; CE:Ramp 5-60 V; [M+H]+
Name: Isorhamnetin
Name: Isor
Name: 3,4',5,7-tetrahydroxy-3'-methoxy flavone
Name: 3-Methylquercetin
Name: Isorhamnetol
Name: 3'-Methoxyquercetin
Name: 3'-Methoxy-3,4',5,7-tetrahydroxyflavone
Name: 3'-O-Methylquercetin
Name: Tamarixetin
Class: Flavonoid
Formula: C16H12O7
Exact mass: 316.05830
SMILES: COc(c(O)3)cc(cc3)C(O1)=C(O)C(=O)c(c(O)2)c(cc(O)c2)1
InChI: InChI=1S/C16H12O7/c1-22-11-4-7(2-3-9(11)18)16-15(21)14(20)13-10(19)5-8(17)6-12(13)23-16/h2-6,17-19,21H,1H3
Instrument: UPLC Q-Tof Premier, Waters
Instrument type: LC-ESI-QTOF
Ms type: MS2
Ion mode: POSITIVE
Collision energy: Ramp 5-60 V
Fragmentation mode: LOW-ENERGY CID
Ionization: ESI
Precursor m/z: 317.0661
Precursor type: [M+H]+
m/z	relative intensity
153.0205	240
209.0339	106
229.0487	97
245.0430	95
285.0371	116
302.0425	212
317.0661	999
