Mass spectrum: Fumaric acid; GC-EI-TOF; MS; 2 TMS; BP:73
Name: Fumaric acid
Name: trans-Butenedioic acid
Class: Natural Product
Formula: C4H4O4
Exact mass: 116.01096
SMILES: C(=C/C(=O)O)\C(=O)O
InChI: InChI=1S/C4H4O4/c5-3(6)1-2-4(7)8/h1-2H,(H,5,6)(H,7,8)/b2-1+
Instrument: Pegasus III TOF-MS system, Leco; GC 6890, Agilent Technologies
Instrument type: GC-EI-TOF
Ms type: MS
Ion mode: POSITIVE
Retention time: 360.562 sec
Base peak: 73
Derivative form: C10H20O4Si2
Derivative mass: 260.09001
Derivative type: 2 TMS
m/z	relative intensity
60	34
61	104
62	9
63	7
64	5
65	3
66	36
67	21
68	4
69	30
70	17
71	19
72	40
73	999
74	120
75	567
76	57
77	74
78	9
79	13
80	1
81	9
82	24
83	266
84	96
85	43
86	7
87	10
88	2
89	12
90	1
91	1
92	1
93	3
95	2
97	8
98	20
99	23
100	5
101	6
102	4
103	19
104	3
105	7
106	1
107	1
108	1
111	4
112	1
113	27
114	3
115	85
116	10
117	23
118	4
119	10
120	1
121	1
125	1
126	13
127	43
128	19
129	10
130	1
131	21
132	8
133	120
134	17
135	12
136	1
141	3
142	7
143	183
144	23
145	11
146	2
147	553
148	90
149	78
150	9
151	4
155	65
156	11
157	29
158	5
159	7
160	1
161	1
170	10
171	14
172	2
173	7
174	1
185	1
201	6
202	1
203	1
215	4
216	1
217	34
218	9
219	4
220	1
230	1
242	2
244	4
245	655
246	138
247	62
248	9
249	2
