Mass spectrum: Malvidin-3-O-beta-D-galactoside; LC-ESI-QTOF; MS2; CE:30 V; [M]+
Name: Malvidin-3-galactoside
Name: Primulin
Name: (2S,3R,4S,5S,6R)-2-[5,7-dihydroxy-2-(4-hydroxy-3,5-dimethoxy-phenyl)chromen-3-yl]oxy-6-(hydroxymethyl)oxane-3,4,5-triol
Name: Malvidin-3-O-beta-D-galactoside
Class: Natural Product
Formula: [C23H25O12]+
Exact mass: 493.13460
SMILES: OCC(O1)C(O)C(O)C(O)C1Oc(c3)c([o+1]c(c4)c(c(O)cc(O)4)3)c(c2)cc(OC)c(O)c(OC)2
InChI: InChI=1S/C23H24O12/c1-31-14-3-9(4-15(32-2)18(14)27)22-16(7-11-12(26)5-10(25)6-13(11)33-22)34-23-21(30)20(29)19(28)17(8-24)35-23/h3-7,17,19-21,23-24,28-30H,8H2,1-2H3,(H2-,25,26,27)/p+1/t17-,19+,20+,21-,23-/m1/s1
Instrument: UPLC Q-Tof Premier, Waters
Instrument type: LC-ESI-QTOF
Ms type: MS2
Ion mode: POSITIVE
Collision energy: 30 V
Fragmentation mode: LOW-ENERGY CID
Ionization: ESI
Full scan fragment ion peak: 493.1
Ion type: [M]+
m/z	relative intensity
242.0634	14
270.0602	25
287.0628	38
299.0647	26
315.0595	66
316.0657	44
331.0892	999
331.1847	134
331.3658	15
331.9824	10
332.0962	48
332.1760	14
