Mass spectrum: 2'-Deoxyadenosine 5'-monophosphate; LC-ESI-QTOF; MS2; CE:Ramp 5-60 V; [M-H]-
Name: 2'-Deoxyadenosine-5'-monophosphate
Name: dAMP
Name: 2'-Deoxy-AMP
Name: 2'-Deoxyadenylic acid
Name: 2'-Deoxyadenosine 5'-monophosphate
Class: Natural Product; Nucleoside; Phosphates
Formula: C10H14N5O6P
Exact mass: 331.06817
SMILES: O[C@@H](C1)[C@@H](COP(O)(O)=O)O[C@H]1n(c3)c(n2)c(n3)c(N)nc2
InChI: InChI=1S/C10H14N5O6P/c11-9-8-10(13-3-12-9)15(4-14-8)7-1-5(16)6(21-7)2-20-22(17,18)19/h3-7,16H,1-2H2,(H2,11,12,13)(H2,17,18,19)/t5-,6+,7+/m0/s1
Instrument: UPLC Q-Tof Premier, Waters
Instrument type: LC-ESI-QTOF
Ms type: MS2
Ion mode: NEGATIVE
Collision energy: Ramp 5-60 V
Fragmentation mode: LOW-ENERGY CID
Ionization: ESI
Precursor m/z: 330.06037
Precursor type: [M-H]-
m/z	relative intensity
78.9595	999
96.9692	291
134.0469	769
176.9959	155
195.0064	352
330.0604	687
