Mass spectrum: 1,3-Dihydroxyacetone dimer; LC-ESI-QTOF; MS2; CE:Ramp 5-60 V; [M-H]-
Name: 1,3-Dihydroxyacetone dimer
Name: 2,5-Dihydroxydioxane-2,5-dimethanol
Name: 1,3-Dihydroxyacetone  dimer(DHA)
Formula: C6H12O6
Exact mass: 180.06339
SMILES: OCC(O)(C1)OCC(O)(CO)O1
InChI: InChI=1S/C6H12O6/c7-1-5(9)3-12-6(10,2-8)4-11-5/h7-10H,1-4H2
Instrument: UPLC Q-Tof Premier, Waters
Instrument type: LC-ESI-QTOF
Ms type: MS2
Ion mode: NEGATIVE
Collision energy: Ramp 5-60 V
Fragmentation mode: LOW-ENERGY CID
Ionization: ESI
Precursor m/z: 179.05559
Precursor type: [M-H]-
m/z	relative intensity
118.9434	54
135.0446	109
145.9557	59
148.9621	70
161.9517	212
162.9612	74
178.9324	999
178.9910	63
