Mass spectrum: Piperacillin; LC-ESI-QTOF; MS2; CE:Ramp 5-60 V; [M+H]+
Name: Piperacillin
Name: Pentcillin
Name: Pipracil
Name: Pipril
Class: Penicillanic acid
Formula: C23H27N5O7S
Exact mass: 517.16312
SMILES: CCN(C4)C(=O)C(=O)N(C4)C(=O)NC(c(c3)cccc3)C(=O)NC(C(=O)1)C(S2)N1C(C(O)=O)C(C)(C)2
InChI: InChI=1S/C23H27N5O7S/c1-4-26-10-11-27(19(32)18(26)31)22(35)25-13(12-8-6-5-7-9-12)16(29)24-14-17(30)28-15(21(33)34)23(2,3)36-20(14)28/h5-9,13-15,20H,4,10-11H2,1-3H3,(H,24,29)(H,25,35)(H,33,34)/t13-,14-,15+,20-/m1/s1
Instrument: UPLC Q-Tof Premier, Waters
Instrument type: LC-ESI-QTOF
Ms type: MS2
Ion mode: POSITIVE
Collision energy: Ramp 5-60 V
Fragmentation mode: LOW-ENERGY CID
Ionization: ESI
Precursor m/z: 518.17091
Precursor type: [M+H]+
m/z	relative intensity
114.0388	55
115.0510	74
132.0455	31
143.0832	999
160.0452	172
376.0975	31
518.1709	33
