Mass spectrum: S-Adenosyl-L-methionine; GC-EI-TOF; MS; 3 TMS; BP:73
Name: S-Adenosyl-L-methionine
Class: Natural Product
Formula: C15H22N6O5S
Exact mass: 398.13724
SMILES: [O-1]C(=O)C(N)CC[S+1](C)CC(O1)C(O)C(O)C1n(c3)c(n2)c(n3)c(N)nc2
InChI: InChI=1S/C15H22N6O5S/c1-27(3-2-7(16)15(24)25)4-8-10(22)11(23)14(26-8)21-6-20-9-12(17)18-5-19-13(9)21/h5-8,10-11,14,22-23H,2-4,16H2,1H3,(H2-,17,18,19,24,25)/t7-,8+,10+,11+,14+,27?/m0/s1
Instrument: Pegasus III TOF-MS system, Leco; GC 6890, Agilent Technologies
Instrument type: GC-EI-TOF
Ms type: MS
Ion mode: POSITIVE
Retention time: 615.618 sec
Base peak: 73
Derivative form: C24H46N6O5SSi3
Derivative mass: 614.25582
Derivative type: 3 TMS
m/z	relative intensity
60	6
61	170
62	6
63	8
64	1
65	3
66	3
67	5
69	7
70	8
71	8
72	14
73	999
74	92
75	77
76	6
77	11
78	1
79	5
80	2
81	9
82	2
83	6
84	28
85	22
86	7
87	19
88	2
89	5
90	1
91	3
92	1
93	2
94	1
95	3
96	2
97	10
98	4
99	22
100	7
101	24
102	4
103	31
104	2
105	15
106	2
107	2
108	3
109	8
110	3
111	20
112	3
113	7
114	2
115	14
116	11
117	9
118	2
119	8
120	2
121	2
122	2
123	4
124	2
125	3
126	2
127	10
128	2
129	60
130	8
131	15
132	4
133	20
134	4
135	6
136	4
137	4
138	7
139	2
140	2
141	6
142	16
143	23
144	4
145	6
146	2
147	70
148	12
149	13
150	4
151	4
152	2
153	3
154	1
155	3
156	2
157	5
158	2
159	2
160	1
161	2
162	5
163	3
164	6
165	30
166	6
167	2
168	1
169	130
170	19
171	12
172	2
173	6
174	2
175	185
176	34
177	20
178	3
179	3
180	8
181	3
182	1
185	1
187	1
188	266
189	44
190	27
191	10
192	92
193	15
194	4
201	3
202	1
203	1
204	7
205	3
206	22
207	38
208	64
209	14
210	3
215	2
216	1
217	17
218	5
219	4
220	5
221	1
222	1
229	1
230	2
231	3
232	2
233	1
234	5
235	3
236	337
237	60
238	17
239	2
243	6
244	2
245	27
246	7
247	3
248	1
249	1
258	2
259	2
260	1
262	2
263	1
264	6
265	2
266	1
277	1
278	4
279	3
280	12
281	3
282	1
289	4
290	1
291	2
292	1
294	1
306	4
307	1
308	1
322	2
334	4
335	1
338	3
376	2
466	2
467	1
497	2
498	9
499	4
500	2
513	2
514	1
