Mass spectrum: 4-Methoxycinnamic acid; LC-ESI-QTOF; MS2; CE:Ramp 5-60 V; [M+H]+
Name: 4-Methoxycinnamic acid
Name: 3-(4-methoxyphenyl)prop-2-enoic acid
Class: Natural Product
Formula: C10H10O3
Exact mass: 178.06299
SMILES: COC1=CC=C(C=C1)/C=C/C(=O)O
InChI: InChI=1S/C10H10O3/c1-13-9-5-2-8(3-6-9)4-7-10(11)12/h2-7H,1H3,(H,11,12)/b7-4+
Instrument: UPLC Q-Tof Premier, Waters
Instrument type: LC-ESI-QTOF
Ms type: MS2
Ion mode: POSITIVE
Collision energy: Ramp 5-60 V
Fragmentation mode: LOW-ENERGY CID
Ionization: ESI
Full scan fragment ion peak: 179.1
Ion type: [M+H]+
m/z	relative intensity
77.0388	83
79.0545	75
89.0388	37
90.0467	112
90.0971	22
103.0549	98
103.1084	20
105.0703	42
118.0420	181
118.0993	35
133.0655	515
133.1266	102
161.0603	999
161.1277	212
161.2562	47
179.0718	63
