Mass spectrum: Daidzein; LC-ESI-QTOF; MS2; CE:Ramp 5-60 V; [M-H]-
Name: Daidzein
Name: Ddze
Name: 4',7-dihydroxyisoflavone
Name: Daidzeol
Name: 7-Hydroxy-3-(4-hydroxyphenyl)-4-benzopyrone
Name: 7-Hydroxy-3-(4-hydroxy?phenyl)-4H-1-benzo?pyran-4-one
Name: 7-Hydroxy-3-(4-hydroxy?phenyl)?chromone
Class: Isoflavones
Formula: C15H10O4
Exact mass: 254.05791
SMILES: Oc(c3)ccc(c3)C(=C1)C(=O)c(c2)c(cc(O)c2)O1
InChI: InChI=1S/C15H10O4/c16-10-3-1-9(2-4-10)13-8-19-14-7-11(17)5-6-12(14)15(13)18/h1-8,16-17H
Instrument: UPLC Q-Tof Premier, Waters
Instrument type: LC-ESI-QTOF
Ms type: MS2
Ion mode: NEGATIVE
Collision energy: Ramp 5-60 V
Fragmentation mode: LOW-ENERGY CID
Ionization: ESI
Precursor m/z: 253.05011
Precursor type: [M-H]-
m/z	relative intensity
91.0212	136
132.0244	119
133.0321	105
135.0117	73
180.0617	55
195.0493	83
208.0573	118
209.0655	67
223.0453	122
224.0526	118
253.0501	999
253.3113	87
253.4480	199
