Mass spectrum: (2S)-2-Hydroxybut-3-enylglucosinolate; LC-ESI-QTOF; MS2; CE:Ramp 5-60 V; [M+K-2H]-
Name: (2S)-2-Hydroxybut-3-enylglucosinolate
Name: Epiprogoitrin
Name: (S)--2-Hydroxy-3-butenyl-glucosinolate
Class: Alkenylglucosinolate
Formula: C11H19NO10S2
Exact mass: 389.04504
SMILES: C=CC(O)CC(=NOS(O)(=O)=O)SC(O1)C(O)C(O)C(O)C(CO)1
InChI: InChI=1S/C11H19NO10S2/c1-2-5(14)3-7(12-22-24(18,19)20)23-11-10(17)9(16)8(15)6(4-13)21-11/h2,5-6,8-11,13-17H,1,3-4H2,(H,18,19,20)/b12-7+/t5-,6-,8-,9+,10-,11+/m1/s1
Instrument: UPLC Q-Tof Premier, Waters
Instrument type: LC-ESI-QTOF
Ms type: MS2
Ion mode: NEGATIVE
Collision energy: Ramp 5-60 V
Fragmentation mode: LOW-ENERGY CID
Ionization: ESI
Derivative form: C11H18NO10S2.K.H2O
Derivative mass: 445.51
Precursor m/z: 425.99312
Precursor type: [M+K-2H]-
m/z	relative intensity
63.9582	189
71.9806	141
74.9870	190
95.9418	493
96.9510	899
97.9443	139
98.9487	270
134.9032	321
190.8317	442
207.8909	199
263.9186	284
425.9931	999
