Mass spectrum: Protocatechuic acid; GC-EI-TOF; MS; 3 TMS; BP:73
Name: Protocatechuic acid
Name: Protocatechuate
Name: 3,4-Dihydroxybenzoate
Name: 3,4-Dihydroxybenzoic acid
Class: Natural Product
Formula: C7H6O4
Exact mass: 154.02661
SMILES: OC(=O)c(c1)cc(O)c(O)c1
InChI: InChI=1S/C7H6O4/c8-5-2-1-4(7(10)11)3-6(5)9/h1-3,8-9H,(H,10,11)
Instrument: Pegasus III TOF-MS system, Leco; GC 6890, Agilent Technologies
Instrument type: GC-EI-TOF
Ms type: MS
Ion mode: POSITIVE
Retention time: 476.479 sec
Base peak: 73
Derivative form: C16H30O4Si3
Derivative mass: 370.14519
Derivative type: 3 TMS
m/z	relative intensity
60	5
61	8
62	5
63	14
64	2
65	3
66	4
67	4
69	3
70	7
71	7
72	21
73	999
74	90
75	52
76	6
77	29
78	7
79	20
80	1
81	5
82	1
83	37
84	5
85	5
86	1
87	3
88	1
89	20
90	5
91	18
92	4
93	10
94	1
95	7
96	1
97	2
98	3
99	2
101	1
102	1
103	12
104	7
105	23
106	3
107	17
108	2
109	18
110	2
111	3
112	1
113	1
115	5
116	1
117	6
118	2
119	16
120	2
121	8
122	2
123	7
124	1
126	5
127	1
129	1
131	11
132	2
133	31
134	5
135	18
136	5
137	75
138	10
139	3
143	2
145	2
146	1
147	31
148	6
149	14
150	5
151	6
152	1
153	1
157	1
159	1
161	2
162	1
163	15
164	7
165	63
166	12
167	4
177	4
178	2
179	14
180	3
181	3
191	4
192	3
193	557
194	84
195	33
196	4
197	1
205	1
207	10
208	2
209	3
210	1
211	3
221	2
222	2
223	53
224	12
225	5
237	5
238	1
239	1
251	1
265	2
266	1
267	25
268	6
269	2
279	1
280	1
281	20
282	7
283	3
297	1
310	2
311	42
312	17
313	9
314	2
354	3
355	49
356	20
357	9
358	2
369	6
370	75
371	26
372	12
373	2
