Mass spectrum: 3-Indoleacetonitrile; GC-EI-TOF; MS; 1 TMS; BP:73
Name: 3-Indolylacetonitrile
Name: Indole-3-acetonitrile
Name: 3-Indoleacetonitrile
Name: (Indole-3-yl)acetonitrile
Name: Indol-3-ylacetonitrile
Class: Natural Product
Formula: C10H8N2
Exact mass: 156.06875
SMILES: C1=CC=C2C(=C1)C(=CN2)CC#N
InChI: InChI=1S/C10H8N2/c11-6-5-8-7-12-10-4-2-1-3-9(8)10/h1-4,7,12H,5H2
Instrument: Pegasus III TOF-MS system, Leco; GC 6890, Agilent Technologies
Instrument type: GC-EI-TOF
Ms type: MS
Ion mode: POSITIVE
Retention time: 458.902 sec
Base peak: 73
Derivative form: C13H16N2Si
Derivative mass: 228.10828
Derivative type: 1 TMS
m/z	relative intensity
60	3
61	5
62	14
63	30
64	10
65	8
66	6
67	8
68	1
69	2
70	23
71	8
72	20
73	999
74	105
75	62
76	44
77	72
78	17
79	7
80	2
81	1
82	2
83	2
84	147
85	14
86	8
87	7
88	8
89	15
90	5
91	9
92	4
93	4
94	2
95	1
96	1
98	8
99	7
100	20
101	74
102	73
103	31
104	7
105	10
106	2
107	1
113	3
114	4
115	20
116	7
117	13
118	3
119	5
120	2
126	3
127	27
128	71
129	579
130	146
131	20
132	6
133	2
134	2
140	3
141	3
142	8
143	14
144	12
145	9
146	6
147	2
153	3
154	8
155	49
156	39
157	8
158	6
159	3
160	5
161	1
167	1
168	3
169	6
170	23
171	6
172	19
173	4
174	2
181	3
182	3
183	5
184	7
185	3
186	17
187	14
188	17
189	3
190	1
194	1
195	2
196	1
197	2
198	1
199	3
200	9
201	3
202	21
203	6
204	1
211	4
212	2
213	196
214	38
215	10
216	1
225	2
226	1
227	45
228	388
229	79
230	19
231	2
