Mass spectrum: Ideain; LC-ESI-QTOF; MS2; CE:Ramp 5-60 V; [M-2H+H2O]-
Name: Cyanidin-3-O-galactoside
Name: (2S,3R,4S,5R,6R)-2-[2-(3,4-dihydroxyphenyl)-5,7-dihydroxychromenylium-3-yl]oxy-6-(hydroxymethyl)oxane-3,4,5-triol
Name: Ideain
Class: Natural Product
Formula: [C21H21O11]+
Exact mass: 449.10839
SMILES: OCC(O1)C(O)C(O)C(O)C1Oc(c3)c([o+1]c(c4)c(c(O)cc(O)4)3)c(c2)cc(O)c(O)c2
InChI: InChI=1S/C21H20O11/c22-7-16-17(27)18(28)19(29)21(32-16)31-15-6-10-12(25)4-9(23)5-14(10)30-20(15)8-1-2-11(24)13(26)3-8/h1-6,16-19,21-22,27-29H,7H2,(H3-,23,24,25,26)/p+1/t16-,17+,18+,19-,21-/m1/s1
Instrument: UPLC Q-Tof Premier, Waters
Instrument type: LC-ESI-QTOF
Ms type: MS2
Ion mode: NEGATIVE
Collision energy: Ramp 5-60 V
Fragmentation mode: LOW-ENERGY CID
Ionization: ESI
Full scan fragment ion peak: 465.1
Ion type: [M-2H+H2O]-
m/z	relative intensity
101.0241	31
109.0297	57
121.0293	30
125.0244	195
137.0246	63
138.0319	136
148.0163	37
149.0242	282
164.0112	54
165.0191	60
166.0272	260
167.0346	95
174.0320	38
175.0398	175
176.0123	51
192.0061	73
193.0141	30
198.0314	35
199.0399	187
201.0198	41
213.0552	31
217.0509	159
241.0510	380
243.0303	83
285.0406	999
286.0441	73
303.0510	36
329.0880	359
339.0721	98
355.0669	73
465.1033	883
466.1077	81
