Mass spectrum: 2-Mercaptoethanesulfonic acid; LC-ESI-QTOF; MS2; CE:Ramp 5-60 V; [M-H]-
Name: 2-Mercaptoethanesulfonic acid
Name: HS-CoM
Name: MESNA
Name: 2-Mercaptoethansulfonate
Name: Coenzyme M
Name: Mesnex
Name: Uromitexan
Name: Mitexan
Class: Organosulfonic acid
Formula: C2H6O3S2
Exact mass: 141.97584
SMILES: SCCS(O)(=O)=O
InChI: InChI=1S/C2H6O3S2/c3-7(4,5)2-1-6/h6H,1-2H2,(H,3,4,5)
Instrument: UPLC Q-Tof Premier, Waters
Instrument type: LC-ESI-QTOF
Ms type: MS2
Ion mode: NEGATIVE
Collision energy: Ramp 5-60 V
Fragmentation mode: LOW-ENERGY CID
Ionization: ESI
Precursor m/z: 140.96804
Precursor type: [M-H]-
m/z	relative intensity
79.9579	86
80.9661	999
140.9015	25
140.9680	472
