Mass spectrum: Poncirin; LC-ESI-QTOF; MS2; CE:Ramp 5-60 V; [M+H]+
Name: Poncirin
Name: Issk-7-Glc-2pp-Man
Name: isosakuranetin-7-O-neohesperidoside
Name: (S)-5,7-Dihydroxy-4'-methoxyflavanone-7-(2-O-(alpha-L-rhamnopyranosyl)-beta-D-Glucopyranoside))
Class: Flavonoid
Formula: C28H34O14
Exact mass: 594.19486
SMILES: c(O)(c3)c(C(=O)2)c(cc3O[C@H](O5)[C@@H]([C@@H](O)[C@H](O)[C@@H](CO)5)O[C@H](O4)[C@H](O)[C@H](O)[C@@H](O)[C@H](C)4)O[C@@H](C2)c(c1)ccc(OC)c1
InChI: InChI=1S/C28H34O14/c1-11-21(32)23(34)25(36)27(38-11)42-26-24(35)22(33)19(10-29)41-28(26)39-14-7-15(30)20-16(31)9-17(40-18(20)8-14)12-3-5-13(37-2)6-4-12/h3-8,11,17,19,21-30,32-36H,9-10H2,1-2H3/t11-,17-,19+,21-,22+,23+,24-,25+,26+,27-,28+/m0/s1
Instrument: UPLC Q-Tof Premier, Waters
Instrument type: LC-ESI-QTOF
Ms type: MS2
Ion mode: POSITIVE
Collision energy: Ramp 5-60 V
Fragmentation mode: LOW-ENERGY CID
Ionization: ESI
Precursor m/z: 595.20265
Precursor type: [M+H]+
m/z	relative intensity
71.0510	80
85.0292	157
129.0565	78
135.0823	35
153.0197	608
161.0620	157
195.0300	82
219.0305	36
263.0555	34
287.0923	999
329.1025	49
397.1268	36
415.1381	33
431.1361	31
433.1499	73
449.1442	79
595.2026	34
