Mass spectrum: D-Sorbitol 6-phosphate; LC-ESI-QTOF; MS2; CE:Ramp 5-60 V; [M-H]-
Name: D-Sorbitol-6-phosphate
Name: D-Glucitol 6-phosphate
Name: D-Sorbitol 6-phosphate
Class: Natural Product; Alditol; Phosphates
Formula: C6H15O9P
Exact mass: 262.04537
SMILES: OC[C@H](O)[C@@H](O)[C@H](O)[C@H](O)COP(O)(O)=O
InChI: InChI=1S/C6H15O9P/c7-1-3(8)5(10)6(11)4(9)2-15-16(12,13)14/h3-11H,1-2H2,(H2,12,13,14)/t3-,4+,5+,6+/m0/s1
Instrument: UPLC Q-Tof Premier, Waters
Instrument type: LC-ESI-QTOF
Ms type: MS2
Ion mode: NEGATIVE
Collision energy: Ramp 5-60 V
Fragmentation mode: LOW-ENERGY CID
Ionization: ESI
Precursor m/z: 261.03757
Precursor type: [M-H]-
m/z	relative intensity
78.9602	999
96.9703	896
261.0376	581
