Mass spectrum: Minoxidil; GC-EI-TOF; MS; n TMS; BP:73
Name: Minoxidil
Class: Natural Product
Formula: C9H15N5O
Exact mass: 209.12766
SMILES: Nc(c1)n(=O)c(N)nc1N(C2)CCCC2
InChI: InChI=1S/C9H15N5O/c10-7-6-8(12-9(11)14(7)15)13-4-2-1-3-5-13/h6H,1-5,10H2,(H2,11,12)
Instrument: Pegasus III TOF-MS system, Leco; GC 6890, Agilent Technologies
Instrument type: GC-EI-TOF
Ms type: MS
Ion mode: POSITIVE
Retention time: 563.467 sec
Base peak: 73
Derivative form: C{9+3*n}H{15+8*n}N5OSi{n}
Derivative mass: 209.12766+72.03953*n
Derivative type: n TMS
m/z	relative intensity
60	29
61	9
62	2
63	4
64	9
65	7
66	12
67	61
68	5
69	57
70	43
71	72
72	46
73	999
74	175
75	50
76	7
77	21
78	16
79	31
80	14
81	14
82	25
83	22
84	213
85	73
86	68
87	11
88	11
89	1
90	2
91	2
92	5
93	7
94	7
95	22
96	16
97	22
98	103
99	342
100	77
101	28
102	8
103	2
104	5
105	4
106	4
107	4
108	14
109	10
110	18
111	28
112	26
113	30
114	24
115	27
116	17
117	8
118	4
119	4
120	4
121	3
122	9
123	35
124	24
125	29
126	19
127	15
128	51
129	8
130	61
131	11
132	8
133	6
134	2
135	6
136	4
137	7
138	12
139	35
140	25
141	24
142	28
143	7
144	5
145	1
146	16
147	3
148	2
149	3
150	8
151	22
152	11
153	16
154	30
155	35
156	13
157	19
158	5
159	2
160	1
161	4
162	1
163	1
164	5
165	20
166	21
167	11
168	4
169	4
170	28
171	114
172	30
173	11
174	2
175	1
176	2
177	3
178	10
179	7
180	14
181	14
182	10
183	5
184	2
185	2
186	2
187	8
188	2
189	2
190	1
191	1
192	4
193	9
194	21
195	8
196	17
197	11
198	7
199	2
200	1
202	1
203	1
204	1
205	2
206	9
207	5
208	13
209	9
210	10
211	6
212	7
213	2
214	1
218	1
219	2
220	19
221	11
222	11
223	10
224	4
225	2
226	2
227	1
228	1
229	2
230	1
231	1
232	1
233	2
234	5
235	3
236	3
237	40
238	26
239	87
240	21
241	8
242	2
245	1
246	1
247	1
248	13
249	8
250	7
251	5
252	6
253	30
254	104
255	32
256	11
257	2
262	2
263	1
264	5
265	10
266	13
267	23
268	34
269	21
270	6
271	2
272	1
274	1
275	1
276	1
277	1
278	3
279	3
280	9
281	64
282	46
283	16
284	4
285	1
290	1
291	2
292	13
293	8
294	33
295	23
296	15
297	4
298	1
299	1
300	1
302	1
303	1
304	1
305	2
306	5
307	7
308	117
309	47
310	20
311	6
312	2
318	1
319	2
320	9
321	14
322	117
323	34
324	12
325	2
326	1
327	1
329	1
330	1
335	3
336	36
337	120
338	37
339	14
340	2
