Mass spectrum: Thymidine 5'-diphosphate; LC-ESI-QTOF; MS2; CE:Ramp 5-60 V; [M-H]-
Name: Thymidine-5'-diphosphate
Name: dTDP
Name: deoxy-TDP
Name: Deoxythymidine 5'-diphosphate
Name: Thymidine 5'-diphosphate
Class: Natural Product; Nucleoside; Phosphates
Formula: C10H16N2O11P2
Exact mass: 402.02293
SMILES: O=C(N2)C(C)=CN(C(=O)2)[C@@H](C1)O[C@H](COP(O)(=O)OP(O)(O)=O)[C@@H](O)1
InChI: InChI=1S/C10H16N2O11P2/c1-5-3-12(10(15)11-9(5)14)8-2-6(13)7(22-8)4-21-25(19,20)23-24(16,17)18/h3,6-8,13H,2,4H2,1H3,(H,19,20)(H,11,14,15)(H2,16,17,18)/t6-,7+,8+/m0/s1
Instrument: UPLC Q-Tof Premier, Waters
Instrument type: LC-ESI-QTOF
Ms type: MS2
Ion mode: NEGATIVE
Collision energy: Ramp 5-60 V
Fragmentation mode: LOW-ENERGY CID
Ionization: ESI
Precursor m/z: 401.01513
Precursor type: [M-H]-
m/z	relative intensity
78.9596	999
96.9692	109
125.0353	65
135.0469	52
158.9247	628
176.9341	70
176.9955	76
256.9636	123
274.9724	165
383.0056	109
401.0151	933
