Mass spectrum: Methyl Jasmonic acid; LC-ESI-QTOF; MS2; CE:30 V; [M-H]-
Name: Methyl Jasmonate
Name: JA-Me
Name: Jasmonic acid methyl ester
Name: 3-Oxo-2-(2-pentenyl)cyclopentaneacetic Acid Methyl Ester
Name: Zeppin
Name: Methyl 3-oxo-2-(2-pentenyl)cyclopentaneacetate
Name: Methyl Jasmonic acid
Class: Carboxylic ester
Formula: C13H20O3
Exact mass: 224.14124
SMILES: CCC=CC[C@@H](C(=O)1)[C@H](CC1)CC(=O)OC
InChI: InChI=1S/C13H20O3/c1-3-4-5-6-11-10(7-8-12(11)14)9-13(15)16-2/h4-5,10-11H,3,6-9H2,1-2H3/b5-4-/t10-,11-/m1/s1
Instrument: UPLC Q-Tof Premier, Waters
Instrument type: LC-ESI-QTOF
Ms type: MS2
Ion mode: NEGATIVE
Collision energy: 30 V
Fragmentation mode: LOW-ENERGY CID
Ionization: ESI
Precursor m/z: 223.13344
Precursor type: [M-H]-
m/z	relative intensity
75.0096	974
133.0103	57
134.9907	94
149.0448	999
151.0260	81
162.9327	100
207.0458	108
223.0833	66
