Mass spectrum: (-)-Shikimic acid; LC-ESI-QTOF; MS2; CE:Ramp 5-60 V; [M-H]-
Name: (-)Shikimic acid
Name: shikimate
Name: 3,4,5-Trihydroxy-1-cyclohexene-1-carboxylic acid
Name: (3R,4S,5R)-(?)-3,4,5-Trihydroxy-1-cyclohexenecarboxylic acid
Name: (-)-Shikimic acid
Class: Carboxylic acids
Formula: C7H10O5
Exact mass: 174.05282
SMILES: OC(=O)C(C1)=CC([H])(O)C([H])(O)C([H])(O)1
InChI: InChI=1S/C7H10O5/c8-4-1-3(7(11)12)2-5(9)6(4)10/h1,4-6,8-10H,2H2,(H,11,12)/t4-,5-,6-/m1/s1
Instrument: UPLC Q-Tof Premier, Waters
Instrument type: LC-ESI-QTOF
Ms type: MS2
Ion mode: NEGATIVE
Collision energy: Ramp 5-60 V
Fragmentation mode: LOW-ENERGY CID
Ionization: ESI
Precursor m/z: 173.04502
Precursor type: [M-H]-
m/z	relative intensity
73.0301	287
83.0500	152
93.0348	999
99.0450	126
111.0439	326
137.0236	256
155.0348	161
173.0450	364
