Mass spectrum: Adenosine; GC-EI-TOF; MS; 4 TMS; BP:73
Name: Adenosine
Class: Natural Product
Formula: C10H13N5O4
Exact mass: 267.09675
SMILES: OC[C@@H](O1)[C@@H](O)[C@@H](O)[C@@H]1n(c3)c(n2)c(n3)c(N)nc2
InChI: InChI=1S/C10H13N5O4/c11-8-5-9(13-2-12-8)15(3-14-5)10-7(18)6(17)4(1-16)19-10/h2-4,6-7,10,16-18H,1H2,(H2,11,12,13)/t4-,6-,7-,10-/m1/s1
Instrument: Pegasus III TOF-MS system, Leco; GC 6890, Agilent Technologies
Instrument type: GC-EI-TOF
Ms type: MS
Ion mode: POSITIVE
Retention time: 588.856 sec
Base peak: 73
Derivative form: C22H45N5O4Si4
Derivative mass: 555.25486
Derivative type: 4 TMS
m/z	relative intensity
60	4
61	5
65	1
66	2
67	3
69	7
70	6
71	5
72	17
73	999
74	91
75	57
76	4
77	5
79	3
81	4
82	1
83	3
84	17
85	14
86	4
87	4
88	2
89	9
90	1
93	1
95	2
96	1
97	5
98	3
99	14
100	5
101	19
102	3
103	107
104	10
105	5
106	1
108	1
109	4
110	2
111	15
112	2
113	8
114	2
115	19
116	11
117	20
118	2
119	5
120	1
121	1
122	1
123	2
124	1
125	2
126	2
127	4
128	1
129	31
130	5
131	15
132	4
133	27
134	4
135	5
136	2
137	3
138	5
139	1
140	1
141	3
142	4
143	14
144	4
145	5
146	1
147	84
148	14
149	12
150	3
151	3
152	1
153	4
154	1
155	1
156	1
157	6
158	2
159	1
161	1
162	3
163	1
164	4
165	21
166	5
167	1
168	1
169	20
170	3
171	3
173	1
175	1
176	5
177	3
178	1
179	2
180	4
181	2
189	8
190	3
191	8
192	76
193	12
194	3
203	1
204	4
205	3
206	20
207	15
208	44
209	9
210	2
215	3
216	2
217	73
218	17
219	9
220	4
221	2
222	1
223	1
229	2
230	185
231	42
232	19
233	3
234	3
235	1
236	162
237	28
238	8
239	1
243	30
244	7
245	72
246	16
247	7
248	2
250	1
257	2
258	8
259	16
260	4
261	1
262	1
263	1
264	11
265	3
266	2
278	4
279	10
280	20
281	5
282	2
291	1
292	1
306	9
307	2
308	2
320	2
321	1
322	13
323	3
324	1
334	5
335	1
337	4
338	1
348	6
349	2
350	1
362	1
375	1
376	1
394	1
450	1
452	1
465	1
539	2
540	7
541	4
542	2
555	1
