Mass spectrum: 1-Methylhistamine; LC-ESI-QTOF; MS2; CE:Ramp 5-60 V; [M+H]+
Name: 1-Methylhistamine
Name: 1-Methyl-4-(beta-aminoethyl)imidazole
Class: Histamine
Formula: C6H11N3
Exact mass: 125.09530
SMILES: NCCc(n1)cn(C)c1
InChI: InChI=1S/C6H11N3/c1-9-4-6(2-3-7)8-5-9/h4-5H,2-3,7H2,1H3
Instrument: UPLC Q-Tof Premier, Waters
Instrument type: LC-ESI-QTOF
Ms type: MS2
Ion mode: POSITIVE
Collision energy: Ramp 5-60 V
Fragmentation mode: LOW-ENERGY CID
Ionization: ESI
Precursor m/z: 126.10309
Precursor type: [M+H]+
m/z	relative intensity
109.0761	49
126.1031	999
