Mass spectrum: (3S)-3,7-diaminoheptanoic acid; LC-ESI-QTOF; MS2; CE:Ramp 5-60 V; [M+H]+
Name: L-beta-Homolysine
Name: (3S)-3,7-diaminoheptanoic acid
Class: Amino acids
Formula: C7H16N2O2
Exact mass: 160.12118
SMILES: NCCCCC(N)CC(O)=O
InChI: InChI=1S/C7H16N2O2/c8-4-2-1-3-6(9)5-7(10)11/h6H,1-5,8-9H2,(H,10,11)/t6-/m0/s1
Instrument: UPLC Q-Tof Premier, Waters
Instrument type: LC-ESI-QTOF
Ms type: MS2
Ion mode: POSITIVE
Collision energy: Ramp 5-60 V
Fragmentation mode: LOW-ENERGY CID
Ionization: ESI
Precursor m/z: 161.12897
Precursor type: [M+H]+
m/z	relative intensity
84.0814	999
144.1032	377
161.1290	105
