Mass spectrum: 3-(Methylsulfinyl)propylglucosinolate; LC-ESI-QTOF; MS2; CE:Ramp 5-60 V; [M+K]+
Name: 3-(Methylsulfinyl)propylglucosinolate
Name: Glucoiberin
Name: 3-Methylsulfinylpropyl glucosinolate
Name: beta-D-Glucopyranose,1-thio-,1-(4-(methylsulfinyl)-N-(sulfooxy)butanimidate)
Class: Glucosinolate
Formula: C11H21NO10S3
Exact mass: 423.03276
SMILES: OC[C@@H](O1)[C@@H](O)[C@H](O)[C@@H](O)[C@@H]1SC(CCCS(C)=O)=NOS(O)(=O)=O
InChI: InChI=1S/C11H21NO10S3/c1-24(17)4-2-3-7(12-22-25(18,19)20)23-11-10(16)9(15)8(14)6(5-13)21-11/h6,8-11,13-16H,2-5H2,1H3,(H,18,19,20)/t6-,8-,9+,10-,11+,24?/m1/s1
Instrument: UPLC Q-Tof Premier, Waters
Instrument type: LC-ESI-QTOF
Ms type: MS2
Ion mode: POSITIVE
Collision energy: Ramp 5-60 V
Fragmentation mode: LOW-ENERGY CID
Ionization: ESI
Derivative form: C11H21NO10S3.K.H2O
Derivative mass: 479.59
Precursor m/z: 461.99644
Precursor type: [M+K]+
m/z	relative intensity
170.0009	144
219.9893	258
246.0134	173
382.0433	999
461.9964	236
