Mass spectrum: 1-Isothiocyanato-7-(methylsulfinyl)-heptane; LC-ESI-QTOF; MS2; CE:Ramp 5-60 V; [M+H]+
Name: 1-Isothiocyanato-7-(methylsulfinyl)-heptane
Name: 7-Methylsulfinylheptyl isothiocyanate
Class: Isothiocyanate
Formula: C9H17NOS2
Exact mass: 219.07516
SMILES: S=C=NCCCCCCCS(C)=O
InChI: InChI=1S/C9H17NOS2/c1-13(11)8-6-4-2-3-5-7-10-9-12/h2-8H2,1H3
Instrument: UPLC Q-Tof Premier, Waters
Instrument type: LC-ESI-QTOF
Ms type: MS2
Ion mode: POSITIVE
Collision energy: Ramp 5-60 V
Fragmentation mode: LOW-ENERGY CID
Ionization: ESI
Precursor m/z: 220.08295
Precursor type: [M+H]+
m/z	relative intensity
55.0583	231
65.0096	102
69.0734	245
71.9941	147
80.0533	64
95.0863	129
97.1039	399
100.0251	109
101.0333	60
108.0837	262
112.1153	72
114.0404	152
122.1002	145
123.1070	606
147.0870	144
156.0860	999
220.0829	921
