Mass spectrum: Uridine 5'-diphospho-N-acetylglucosamine; GC-EI-TOF; MS; n TMS; BP:73
Name: Uridine 5'-diphospho-N-acetylglucosamine
Class: Natural Product
Formula: C17H27N3O17P2
Exact mass: 607.08157
SMILES: OCC(O1)C(O)C(O)C(NC(C)=O)C1OP(O)(=O)OP(O)(=O)OCC(O2)C(O)C(O)C2N(C=3)C(=O)NC(=O)C3
InChI: InChI=1S/C17H27N3O17P2/c1-6(22)18-10-13(26)11(24)7(4-21)35-16(10)36-39(31,32)37-38(29,30)33-5-8-12(25)14(27)15(34-8)20-3-2-9(23)19-17(20)28/h2-3,7-8,10-16,21,24-27H,4-5H2,1H3,(H,18,22)(H,29,30)(H,31,32)(H,19,23,28)/t7-,8-,10-,11-,12-,13-,14-,15-,16-/m1/s1
Instrument: Pegasus III TOF-MS system, Leco; GC 6890, Agilent Technologies
Instrument type: GC-EI-TOF
Ms type: MS
Ion mode: POSITIVE
Retention time: 477.898 sec
Base peak: 73
Derivative form: C{17+3*n}H{27+8*n}N3O17P2Si{n}
Derivative mass: 607.08157+72.03953*n
Derivative type: n TMS
m/z	relative intensity
60	9
61	18
62	1
63	1
65	1
66	9
67	4
68	1
69	8
70	9
71	7
72	22
73	999
74	91
75	106
76	9
77	13
78	1
79	6
80	4
81	6
82	5
83	29
84	69
85	12
86	4
87	8
88	4
89	36
90	3
91	2
94	2
95	1
96	8
97	2
98	3
99	10
100	15
101	28
102	7
103	68
104	7
105	5
108	4
109	2
110	2
111	7
112	3
113	19
114	9
115	18
116	24
117	99
118	11
119	11
120	1
121	1
122	2
124	2
125	1
126	2
127	3
128	14
129	52
130	12
131	30
132	7
133	50
134	7
135	6
136	3
138	1
140	1
141	2
142	5
143	12
144	7
145	4
146	1
147	159
148	25
149	28
150	5
151	2
152	1
153	1
154	2
155	2
156	26
157	12
158	7
159	15
160	9
161	2
162	1
163	10
164	1
165	1
168	6
169	4
170	15
171	2
172	2
173	15
174	5
175	5
176	1
177	6
178	1
181	1
182	6
183	2
184	6
185	2
186	2
187	1
189	26
190	6
191	42
192	8
193	4
194	1
196	4
197	3
198	12
199	2
200	1
201	2
202	10
203	24
204	42
205	14
206	4
207	1
210	5
211	3
212	1
215	4
216	1
217	55
218	51
219	13
220	4
221	1
224	3
225	1
226	28
227	5
228	2
229	1
230	5
231	23
232	5
233	13
234	2
235	1
239	3
240	1
243	1
244	1
245	1
246	4
247	1
257	1
258	2
272	2
273	1
274	1
275	1
284	1
300	4
301	1
314	2
316	3
317	1
318	4
319	3
320	1
329	12
330	3
331	1
404	3
405	1
