Mass spectrum: 2-Oxobutyric acid; LC-ESI-QTOF; MS2; CE:Ramp 5-60 V; [M-H]-
Name: 2-Oxobutyrate
Name: 2-Oxobutyric acid
Name: alpha-ketobutyrate
Name: 2-Oxobutanoic acid
Name: Propionylformic acid
Name: 3-Methylpyruvic acid
Class: Carboxylic acids
Formula: C4H6O3
Exact mass: 102.03169
SMILES: CCC(=O)C(O)=O
InChI: InChI=1S/C4H6O3/c1-2-3(5)4(6)7/h2H2,1H3,(H,6,7)
Instrument: UPLC Q-Tof Premier, Waters
Instrument type: LC-ESI-QTOF
Ms type: MS2
Ion mode: NEGATIVE
Collision energy: Ramp 5-60 V
Fragmentation mode: LOW-ENERGY CID
Ionization: ESI
Precursor m/z: 101.02389
Precursor type: [M-H]-
m/z	relative intensity
101.0239	999
