Mass spectrum: Daphnetin; LC-ESI-QTOF; MS2; CE:Ramp 5-60 V; [M+H]+
Name: Daphnetin
Name: 7,8-Dihydroxycoumarin
Name: Daphnetol
Class: Coumarins
Formula: C9H6O4
Exact mass: 178.02661
SMILES: O=C(C=2)Oc(c(O)1)c(C2)ccc(O)1
InChI: InChI=1S/C9H6O4/c10-6-3-1-5-2-4-7(11)13-9(5)8(6)12/h1-4,10,12H
Instrument: UPLC Q-Tof Premier, Waters
Instrument type: LC-ESI-QTOF
Ms type: MS2
Ion mode: POSITIVE
Collision energy: Ramp 5-60 V
Fragmentation mode: LOW-ENERGY CID
Ionization: ESI
Precursor m/z: 179.03441
Precursor type: [M+H]+
m/z	relative intensity
77.0404	245
89.0406	63
105.0353	167
123.0452	184
133.0300	476
135.0449	80
179.0344	999
