Mass spectrum: Maltotriose; GC-EI-TOF; MS; 11 TMS; 1 MEOX; BP:73
Name: Maltotriose
Name: Amylotriose
Class: Natural Product
Formula: C18H32O16
Exact mass: 504.16903
SMILES: OCC(O1)C(O)C(O)C(O)C1OC(C(CO)3)C(O)C(O)C(O3)OC(C(CO)2)C(O)C(O)C(O)O2
InChI: InChI=1S/C18H32O16/c19-1-4-7(22)8(23)12(27)17(31-4)34-15-6(3-21)32-18(13(28)10(15)25)33-14-5(2-20)30-16(29)11(26)9(14)24/h4-29H,1-3H2/t4-,5-,6-,7-,8+,9-,10-,11-,12-,13-,14-,15-,16?,17-,18-/m1/s1
Instrument: Pegasus III TOF-MS system, Leco; GC 6890, Agilent Technologies
Instrument type: GC-EI-TOF
Ms type: MS
Ion mode: POSITIVE
Retention time: 800.484 sec
Base peak: 73
Derivative form: C52H123NO16Si11
Derivative mass: 1325.63038
Derivative type: 11 TMS; 1 MEOX
m/z	relative intensity
60	3
61	4
62	3
65	4
66	6
67	7
68	4
69	28
70	1
72	10
73	999
74	79
75	62
76	6
81	23
82	10
83	11
84	5
85	4
86	2
87	3
88	3
89	34
90	7
91	6
92	1
94	4
97	16
98	5
99	5
100	14
101	13
102	9
103	208
104	21
105	15
106	4
107	3
108	4
109	8
110	4
111	2
112	2
113	4
114	3
115	6
116	8
117	90
118	6
119	9
121	2
122	2
124	2
125	1
127	5
128	4
129	112
130	12
131	19
132	1
133	33
134	4
135	1
136	3
137	2
141	3
142	5
143	24
144	5
145	9
146	2
147	171
148	33
149	22
150	6
151	3
152	2
153	6
154	3
155	20
156	6
157	23
158	6
159	3
160	33
161	6
162	1
163	7
164	2
165	2
166	6
167	2
168	3
169	86
170	12
171	6
172	7
173	6
174	1
175	3
176	1
178	3
179	4
180	4
181	2
182	4
183	6
184	2
185	3
186	3
187	3
188	2
189	25
190	5
191	41
192	7
195	3
196	2
198	4
199	4
200	2
201	5
203	8
204	415
205	117
206	44
210	1
211	2
214	4
215	4
216	4
217	125
218	26
219	16
220	2
221	2
226	1
228	3
229	10
230	10
231	16
232	6
233	7
234	5
235	1
238	1
240	6
241	3
242	3
243	31
244	7
245	11
246	1
247	4
252	1
254	2
255	4
256	2
257	7
259	7
262	3
266	1
268	4
269	2
270	5
271	60
272	16
273	13
274	4
276	2
280	2
282	2
283	1
284	2
285	2
288	2
289	2
290	1
291	4
292	1
295	2
296	4
299	1
300	6
305	5
306	1
307	2
311	3
312	1
315	3
317	2
318	2
319	13
320	4
322	1
326	2
331	6
332	1
333	4
337	1
338	3
339	1
343	4
344	1
345	1
346	4
347	3
348	4
349	2
352	3
354	2
355	2
356	2
357	6
358	1
359	4
360	10
361	126
362	43
363	22
364	5
370	2
371	1
375	3
376	1
377	3
378	1
380	1
382	1
387	3
388	2
389	2
390	5
391	1
394	1
395	5
397	1
398	2
400	3
407	1
408	3
424	2
426	1
428	1
433	1
437	1
440	1
441	3
443	2
446	1
447	2
448	1
449	2
450	3
451	3
452	3
453	1
460	2
463	2
464	3
474	1
475	2
476	2
478	1
481	2
484	1
485	3
488	1
494	1
498	1
501	1
503	1
510	1
513	2
515	3
517	1
518	3
519	3
520	2
523	3
526	1
530	2
531	1
534	1
535	1
536	1
538	2
539	2
542	1
547	1
548	2
549	3
550	1
552	4
553	1
554	3
555	2
558	2
560	2
563	2
567	1
569	1
570	3
572	1
573	1
574	3
575	1
578	1
579	2
582	1
590	1
592	1
596	2
598	3
599	4
601	2
606	2
610	1
618	1
626	1
631	1
635	1
636	1
641	1
651	2
653	1
654	1
657	3
661	1
664	3
666	3
668	2
671	3
672	1
673	4
674	1
675	1
676	3
678	1
679	1
680	2
681	1
684	1
687	2
690	1
694	1
699	2
707	1
708	4
709	4
712	2
717	1
721	1
729	3
730	1
733	2
735	1
749	2
750	4
751	2
756	2
765	1
766	1
769	1
775	1
777	1
780	2
793	2
794	1
797	2
