Mass spectrum: D-Fructose-6-phosphate; LC-ESI-QTOF; MS2; CE:Ramp 5-60 V; [M-H]-
Name: D-Fructose-6-phosphate
Name: F6P
Name: Fru-6P
Class: Natural Product; Carbohydrate; Phosphates
Formula: C6H13O9P
Exact mass: 260.02972
SMILES: OCC(O)(O1)[C@@H](O)[C@H](O)[C@@H](COP(O)(O)=O)1
InChI: InChI=1S/C6H13O9P/c7-2-6(10)5(9)4(8)3(15-6)1-14-16(11,12)13/h3-5,7-10H,1-2H2,(H2,11,12,13)/t3-,4-,5+,6?/m1/s1
Instrument: UPLC Q-Tof Premier, Waters
Instrument type: LC-ESI-QTOF
Ms type: MS2
Ion mode: NEGATIVE
Collision energy: Ramp 5-60 V
Fragmentation mode: LOW-ENERGY CID
Ionization: ESI
Precursor m/z: 259.02192
Precursor type: [M-H]-
m/z	relative intensity
78.9595	489
96.9693	999
259.0219	115
