Mass spectrum: Ononin; LC-ESI-QTOF; MS2; CE:Ramp 5-60 V; [M-H]-
Name: Ononin
Name: Fmnn-7-Glc
Name: formononetin-7-O-glucoside
Name: Formononetin-7-O-beta-D-glucopyranoside
Name: 4'-Methoxyisoflavone-7-O-beta-D-glucopyranoside
Name: Glucosyl-7-O-formononetin
Name: calycosin-7-O-beta-D-glucoside
Class: Glucosides
Formula: C22H22O9
Exact mass: 430.12638
SMILES: COc(c4)ccc(c4)C(=C3)C(=O)c(c2)c(O3)cc(c2)O[C@H](O1)[C@H](O)[C@@H](O)[C@H](O)[C@@H](CO)1
InChI: InChI=1S/C22H22O9/c1-28-12-4-2-11(3-5-12)15-10-29-16-8-13(6-7-14(16)18(15)24)30-22-21(27)20(26)19(25)17(9-23)31-22/h2-8,10,17,19-23,25-27H,9H2,1H3/t17-,19-,20+,21-,22-/m1/s1
Instrument: UPLC Q-Tof Premier, Waters
Instrument type: LC-ESI-QTOF
Ms type: MS2
Ion mode: NEGATIVE
Collision energy: Ramp 5-60 V
Fragmentation mode: LOW-ENERGY CID
Ionization: ESI
Precursor m/z: 429.11858
Precursor type: [M-H]-
m/z	relative intensity
162.9133	60
223.0700	87
251.0708	123
252.0762	526
267.1003	999
293.8576	53
341.1086	50
429.1186	217
