Mass spectrum: Arachidonic acid; LC-ESI-QTOF; MS2; CE:Ramp 5-60 V; [M-H]-
Name: Arachidonic acid
Name: 5Z,8Z,11Z,14Z-Eicosatetraenoic acid
Class: Fatty acids
Formula: C20H32O2
Exact mass: 304.24023
SMILES: CCCCC/C=C\C/C=C\C/C=C\C/C=C\CCCC(=O)O
InChI: InChI=1S/C20H32O2/c1-2-3-4-5-6-7-8-9-10-11-12-13-14-15-16-17-18-19-20(21)22/h6-7,9-10,12-13,15-16H,2-5,8,11,14,17-19H2,1H3,(H,21,22)/b7-6-,10-9-,13-12-,16-15-
Instrument: UPLC Q-Tof Premier, Waters
Instrument type: LC-ESI-QTOF
Ms type: MS2
Ion mode: NEGATIVE
Collision energy: Ramp 5-60 V
Fragmentation mode: LOW-ENERGY CID
Ionization: ESI
Precursor m/z: 303.23242
Precursor type: [M-H]-
m/z	relative intensity
156.8889	412
159.8858	747
160.8858	999
161.8904	260
162.8879	492
234.9044	321
272.7850	317
302.7744	696
303.7733	492
