Mass spectrum: Pentachlorophenol; LC-ESI-QTOF; MS2; CE:Ramp 5-60 V; [M-H]-
Name: Pentachlorophenol
Name: PCP
Name: Chlorophen
Name: Permacide
Name: Fungifen
Class: Phenols
Formula: C6HCl5O
Exact mass: 263.84700
SMILES: Oc(c(Cl)1)c(Cl)c(Cl)c(Cl)c(Cl)1
InChI: InChI=1S/C6HCl5O/c7-1-2(8)4(10)6(12)5(11)3(1)9/h12H
Instrument: UPLC Q-Tof Premier, Waters
Instrument type: LC-ESI-QTOF
Ms type: MS2
Ion mode: NEGATIVE
Collision energy: Ramp 5-60 V
Fragmentation mode: LOW-ENERGY CID
Ionization: ESI
Precursor m/z: 262.8392
Precursor type: [M-H]-
m/z	relative intensity
262.8392	999
