Mass spectrum: R-3-Amino-5-(methylthio)pentanoic acid; LC-ESI-QTOF; MS2; CE:Ramp 5-60 V; [M-H]-
Name: L-beta-Homomethionine
Name: R-3-Amino-5-(methylthio)pentanoic acid
Class: Amino acids
Formula: C6H13NO2S
Exact mass: 163.06670
SMILES: CSCCC(N)CC(O)=O
InChI: InChI=1S/C6H13NO2S/c1-10-3-2-5(7)4-6(8)9/h5H,2-4,7H2,1H3,(H,8,9)/t5-/m0/s1
Instrument: UPLC Q-Tof Premier, Waters
Instrument type: LC-ESI-QTOF
Ms type: MS2
Ion mode: NEGATIVE
Collision energy: Ramp 5-60 V
Fragmentation mode: LOW-ENERGY CID
Ionization: ESI
Precursor m/z: 162.0589
Precursor type: [M-H]-
m/z	relative intensity
70.0670	55
114.0547	410
144.8900	393
145.8920	92
161.8925	999
162.0589	207
162.8924	144
