Mass spectrum: D-2-Aminoadipic acid; LC-ESI-QTOF; MS2; CE:Ramp 5-60 V; [M+H]+
Name: D-2-Aminoadipic acid
Name: D-Aad
Name: D-Ho-Glu
Name: D-2-Aminoadipate
Name: D-alpha-Aminoadipic Acid
Name: (R)-2-Aminohexanedioic acid
Name: D-Homoglutamic acid
Name: D-2-Aminohexanedioate
Class: Carboxylic acids
Formula: C6H11NO4
Exact mass: 161.06881
SMILES: OC(=O)CCCC(N)C(O)=O
InChI: InChI=1S/C6H11NO4/c7-4(6(10)11)2-1-3-5(8)9/h4H,1-3,7H2,(H,8,9)(H,10,11)/t4-/m1/s1
Instrument: UPLC Q-Tof Premier, Waters
Instrument type: LC-ESI-QTOF
Ms type: MS2
Ion mode: POSITIVE
Collision energy: Ramp 5-60 V
Fragmentation mode: LOW-ENERGY CID
Ionization: ESI
Precursor m/z: 162.0766
Precursor type: [M+H]+
m/z	relative intensity
70.0658	114
98.0608	999
116.0714	343
144.0670	304
162.0766	154
