Mass spectrum: Rhamnetin; LC-ESI-QTOF; MS2; CE:30 eV; [M+H]+
Name: 3,3',4',5-tetrahydroxy-7-methoxyflavone
Name: Rhamnetin
Name: Ramn
Name: 2-(3,4-dihydroxyphenyl)-3,5-dihydroxy-7-methoxy-chromen-4-one
Class: Natural Product
Formula: C16H12O7
Exact mass: 316.05830
SMILES: COc(c3)cc(O1)c(c(O)3)C(=O)C(O)=C1c(c2)cc(O)c(O)c2
InChI: InChI=1S/C16H12O7/c1-22-8-5-11(19)13-12(6-8)23-16(15(21)14(13)20)7-2-3-9(17)10(18)4-7/h2-6,17-19,21H,1H3
Instrument: UPLC Q-Tof Premier, Waters
Instrument type: LC-ESI-QTOF
Ms type: MS2
Ion mode: POSITIVE
Collision energy: 30 eV
Fragmentation mode: LOW-ENERGY CID
Ionization: ESI
Full scan fragment ion peak: 317.1
Ion type: [M+H]+
m/z	relative intensity
93.0280	45
95.0440	102
109.0250	72
121.0261	99
122.0338	33
123.0058	70
123.0421	585
123.1002	74
124.0133	210
124.0493	30
125.0214	80
134.0350	83
135.0428	38
137.0223	404
137.0837	50
144.0565	47
145.0283	37
149.0233	35
150.0310	70
151.0387	159
155.0491	76
159.0808	37
163.0395	68
167.0342	721
167.1015	87
169.0656	34
172.0527	49
179.0345	206
180.0414	30
183.0447	73
184.0521	52
187.0762	91
193.0506	37
197.0602	38
200.0475	196
201.0555	30
215.0708	268
228.0424	270
233.0828	30
242.0592	41
243.0661	547
243.1469	48
246.0536	30
256.0376	132
257.0456	150
261.0764	35
271.0611	185
273.0397	163
274.0479	999
274.1338	82
275.0520	36
288.0639	65
299.0563	61
302.0431	301
317.0661	362
