Mass spectrum: 6,7-Dihydroxycoumarin; LC-ESI-QTOF; MS2; CE:Ramp 5-60 V; [M+H]+
Name: 6,7-Dihydroxycoumarin
Name: Esculetin
Name: Cichorigenin
Name: Aesculetin
Name: 6,7-dihydroxy-2-benzopyrone
Name: Esculetol
Name: Cichoriin aglycon
Name: 6,7-Dihydroxy-2H-1-benzopyran-2-one
Name: Esculin aglycon
Class: Coumarins
Formula: C9H6O4
Exact mass: 178.02661
SMILES: O=C(C=2)Oc(c1)c(C2)cc(O)c(O)1
InChI: InChI=1S/C9H6O4/c10-6-3-5-1-2-9(12)13-8(5)4-7(6)11/h1-4,10-11H
Instrument: UPLC Q-Tof Premier, Waters
Instrument type: LC-ESI-QTOF
Ms type: MS2
Ion mode: POSITIVE
Collision energy: Ramp 5-60 V
Fragmentation mode: LOW-ENERGY CID
Ionization: ESI
Precursor m/z: 179.03441
Precursor type: [M+H]+
m/z	relative intensity
67.0558	16
77.0398	197
89.0406	38
95.0499	21
105.0349	106
117.0358	17
123.0456	546
133.0298	370
135.0451	48
151.0402	96
179.0344	999
