Mass spectrum: 3-Methoxycinnamic acid; LC-ESI-QTOF; MS2; CE:30 V; [M+H]+
Name: 3-Methoxycinnamic acid
Name: trans-3-Methoxycinnamic acid
Name: (E)-3-(3-methoxyphenyl)prop-2-enoic acid
Class: Natural Product
Formula: C10H10O3
Exact mass: 178.06299
SMILES: COc(c1)cc(cc1)C=CC(O)=O
InChI: InChI=1S/C10H10O3/c1-13-9-4-2-3-8(7-9)5-6-10(11)12/h2-7H,1H3,(H,11,12)/b6-5+
Instrument: UPLC Q-Tof Premier, Waters
Instrument type: LC-ESI-QTOF
Ms type: MS2
Ion mode: POSITIVE
Collision energy: 30 V
Fragmentation mode: LOW-ENERGY CID
Ionization: ESI
Full scan fragment ion peak: 179.1
Ion type: [M+H]+
m/z	relative intensity
77.0406	382
77.0863	72
79.0562	129
89.0408	372
89.0902	67
90.0488	999
90.0980	160
91.0557	45
92.0281	97
101.0411	36
102.0488	54
103.0568	210
103.1096	37
105.0724	34
118.0446	595
118.1004	97
133.0679	81
