Mass spectrum: 4-Methoxycinnamic acid; LC-ESI-QTOF; MS2; CE:30 V; [M-H]-
Name: 4-Methoxycinnamic acid
Name: 3-(4-methoxyphenyl)prop-2-enoic acid
Class: Natural Product
Formula: C10H10O3
Exact mass: 178.06299
SMILES: COC1=CC=C(C=C1)/C=C/C(=O)O
InChI: InChI=1S/C10H10O3/c1-13-9-5-2-8(3-6-9)4-7-10(11)12/h2-7H,1H3,(H,11,12)/b7-4+
Instrument: UPLC Q-Tof Premier, Waters
Instrument type: LC-ESI-QTOF
Ms type: MS2
Ion mode: NEGATIVE
Collision energy: 30 V
Fragmentation mode: LOW-ENERGY CID
Ionization: ESI
Full scan fragment ion peak: 177.1
Ion type: [M-H]-
m/z	relative intensity
53.1413	32
60.6276	38
65.0402	25
89.1182	25
91.9373	45
95.4066	25
104.6637	35
110.7138	29
111.6245	32
116.0094	35
117.0721	999
117.9591	152
118.8310	55
121.7825	32
175.0823	22
188.8847	22
