Mass spectrum: D-Ribose 5-phosphate; LC-ESI-QTOF; MS2; CE:Ramp 5-60 V; [M-H]-
Name: D-Ribose-5-phosphate
Name: Rib-5P
Name: R-5-P
Name: D-Ribofuranose 5-phosphate
Name: D-Ribose 5-phosphate
Class: Natural Product; Carbohydrate; Phosphates
Formula: C5H11O8P
Exact mass: 230.01915
SMILES: OC(O1)[C@H](O)[C@H](O)[C@H]1COP(O)(O)=O
InChI: InChI=1S/C5H11O8P/c6-3-2(1-12-14(9,10)11)13-5(8)4(3)7/h2-8H,1H2,(H2,9,10,11)/t2-,3-,4-,5?/m1/s1
Instrument: UPLC Q-Tof Premier, Waters
Instrument type: LC-ESI-QTOF
Ms type: MS2
Ion mode: NEGATIVE
Collision energy: Ramp 5-60 V
Fragmentation mode: LOW-ENERGY CID
Ionization: ESI
Precursor m/z: 229.01135
Precursor type: [M-H]-
m/z	relative intensity
78.9596	677
96.9695	999
138.9801	130
229.0114	139
