Mass spectrum: S-Adenosyl-L-methionine; LC-ESI-QTOF; MS2; CE:Ramp 5-60 V; [M+H]+
Name: S-(5'-Adenosyl)-L-methionine
Name: AdoMet
Name: SAM
Name: Active methionine
Name: S-Adenosyl-L-methionine
Class: Nucleoside
Formula: C15H22N6O5S
Exact mass: 398.13724
SMILES: [O-1]C(=O)C(N)CC[S+1](C)CC(O1)C(O)C(O)C1n(c3)c(n2)c(n3)c(N)nc2
InChI: InChI=1S/C15H22N6O5S/c1-27(3-2-7(16)15(24)25)4-8-10(22)11(23)14(26-8)21-6-20-9-12(17)18-5-19-13(9)21/h5-8,10-11,14,22-23H,2-4,16H2,1H3,(H2-,17,18,19,24,25)/t7-,8+,10+,11+,14+,27?/m0/s1
Instrument: UPLC Q-Tof Premier, Waters
Instrument type: LC-ESI-QTOF
Ms type: MS2
Ion mode: POSITIVE
Collision energy: Ramp 5-60 V
Fragmentation mode: LOW-ENERGY CID
Ionization: ESI
Precursor m/z: 399.14503
Precursor type: [M+H]+
m/z	relative intensity
250.0971	139
398.6728	65
398.8430	53
398.9208	60
399.0087	106
399.0478	102
399.1472	999
400.1519	68
