Mass spectrum: 2'-Deoxyadenosine 5'-monophosphate; GC-EI-TOF; MS; 6 TMS; BP:81
Name: 2'-Deoxyadenosine 5'-monophosphate
Name: 2'-Deoxyadenosine 5'-phosphate
Name: Deoxyadenosine monophosphate
Name: Deoxyadenylic acid
Name: dAMP
Class: Natural Product
Formula: C10H14N5O6P
Exact mass: 331.06817
SMILES: O[C@@H](C1)[C@@H](COP(O)(O)=O)O[C@H]1n(c3)c(n2)c(n3)c(N)nc2
InChI: InChI=1S/C10H14N5O6P/c11-9-8-10(13-3-12-9)15(4-14-8)7-1-5(16)6(21-7)2-20-22(17,18)19/h3-7,16H,1-2H2,(H2,11,12,13)(H2,17,18,19)/t5-,6+,7+/m0/s1
Instrument: Pegasus III TOF-MS system, Leco; GC 6890, Agilent Technologies
Instrument type: GC-EI-TOF
Ms type: MS
Ion mode: POSITIVE
Retention time: 656.307 sec
Base peak: 81
Derivative form: C28H62N5O6PSi6
Derivative mass: 763.30533
Derivative type: 6 TMS
m/z	relative intensity
60	3
61	4
63	1
65	1
66	1
67	1
70	3
71	4
72	8
73	360
74	38
75	31
76	3
77	12
79	2
80	2
81	999
82	59
83	5
84	12
85	11
86	3
87	2
88	1
89	2
91	1
92	1
93	1
95	1
96	1
97	2
98	2
99	9
100	3
101	11
102	1
103	8
104	1
105	1
107	1
108	1
109	3
110	2
111	9
112	1
113	4
115	3
116	1
117	2
119	2
121	1
122	1
123	2
124	1
125	1
127	10
128	2
129	15
130	2
131	2
133	18
134	3
135	9
136	5
137	5
138	3
139	1
141	1
142	19
143	7
144	1
145	1
147	12
148	2
149	3
150	1
151	4
152	1
153	1
155	7
156	1
157	1
162	3
163	1
164	6
165	20
166	4
167	2
169	5
170	15
171	8
172	1
176	3
177	2
178	1
179	1
180	3
181	5
182	1
183	2
189	1
190	1
191	4
192	84
193	16
194	4
195	4
196	1
197	1
204	1
205	2
206	15
207	29
208	34
209	6
210	2
211	32
212	5
213	3
218	10
219	2
220	2
221	4
222	1
225	5
226	1
227	7
228	1
229	1
232	1
233	3
234	4
235	5
236	17
237	3
243	2
246	1
253	2
260	1
264	3
277	1
278	2
279	3
280	1
285	1
286	1
288	4
289	1
294	1
299	14
300	4
301	1
314	1
315	35
316	9
317	4
318	1
323	14
324	3
325	1
334	1
335	1
336	1
349	3
350	1
362	1
377	2
378	3
387	1
397	1
604	2
605	1
