Mass spectrum: Esculin; LC-ESI-QTOF; MS2; CE:Ramp 5-60 V; [M-H]-
Name: Esculin
Name: Esculoside
Name: 6,7-Dihydroxycoumarin-6-glucoside
Name: Aesculin
Name: Esculetin-6-beta-D-glucopyranoside
Name: Aesculinum
Formula: C15H16O9
Exact mass: 340.07943
SMILES: OCC(O1)C(O)C(O)C(O)C1Oc(c2)c(O)cc(O3)c(C=CC(=O)3)2
InChI: InChI=1S/C15H16O9/c16-5-10-12(19)13(20)14(21)15(24-10)23-9-3-6-1-2-11(18)22-8(6)4-7(9)17/h1-4,10,12-17,19-21H,5H2/t10-,12-,13+,14-,15-/m1/s1
Instrument: UPLC Q-Tof Premier, Waters
Instrument type: LC-ESI-QTOF
Ms type: MS2
Ion mode: NEGATIVE
Collision energy: Ramp 5-60 V
Fragmentation mode: LOW-ENERGY CID
Ionization: ESI
Precursor m/z: 339.07163
Precursor type: [M-H]-
m/z	relative intensity
89.0409	53
105.0354	86
133.0304	155
177.0192	999
177.3528	41
339.0716	206
