Mass spectrum: Hinokitiol; LC-ESI-QTOF; MS2; CE:Ramp 5-60 V; [M-H]-
Name: Hinokitiol
Name: beta-Thujaplicin
Name: beta.-Thujaplicine
Name: 2-Hydroxy-4-isopropyl-2,4,6-cycloheptatrien-1-one
Name: 4-Isopropyltropolon
Formula: C10H12O2
Exact mass: 164.08373
SMILES: CC(C)C(=C1)C=C(O)C(=O)C=C1
InChI: InChI=1S/C10H12O2/c1-7(2)8-4-3-5-9(11)10(12)6-8/h3-7H,1-2H3,(H,11,12)
Instrument: UPLC Q-Tof Premier, Waters
Instrument type: LC-ESI-QTOF
Ms type: MS2
Ion mode: NEGATIVE
Collision energy: Ramp 5-60 V
Fragmentation mode: LOW-ENERGY CID
Ionization: ESI
Precursor m/z: 163.07593
Precursor type: [M-H]-
m/z	relative intensity
119.0747	236
145.9212	485
162.9270	999
163.0759	98
