Mass spectrum: Hesperidin; LC-ESI-QTOF; MS2; CE:Ramp 5-60 V; [M+H]+
Name: Hesperidin
Name: Cirantin
Name: Hesperidoside
Name: (2S)-7-[[6-O-(6-Deoxy-alpha-L-mannopyranosyl)-beta-D-glucopyranosyl]oxy]-2,3-dihydro-5-hydroxy-2-(3-hydroxy-4-methoxyphenyl)-4H-1-benzopyran-4-one
Name: (2S)-5-hydroxy-2-(3-hydroxy-4-methoxy-phenyl)-7-[(2S,3R,4S,5R,6R)-3,4,5-trihydroxy-6-[[(2R,3R,4R,5S,6S)-3,4,5-trihydroxy-6-methyl-oxan-2-yl]oxymethyl]oxan-2-yl]oxy-chroman-4-one
Name: Hesp-7-Glc-6pp-Rha
Name: Hesperetin 7-O-rutinoside
Name: Hesperetin 7-rhamnoglucoside
Class: Flavonoid
Formula: C28H34O15
Exact mass: 610.18977
SMILES: C[C@H]1[C@@H]([C@H]([C@H]([C@@H](O1)OC[C@@H]2[C@H]([C@@H]([C@H]([C@@H](O2)OC3=CC(=C4C(=O)C[C@H](OC4=C3)C5=CC(=C(C=C5)OC)O)O)O)O)O)O)O)O
InChI: InChI=1S/C28H34O15/c1-10-21(32)23(34)25(36)27(40-10)39-9-19-22(33)24(35)26(37)28(43-19)41-12-6-14(30)20-15(31)8-17(42-18(20)7-12)11-3-4-16(38-2)13(29)5-11/h3-7,10,17,19,21-30,32-37H,8-9H2,1-2H3/t10-,17-,19+,21-,22+,23+,24-,25+,26+,27+,28+/m0/s1
Instrument: UPLC Q-Tof Premier, Waters
Instrument type: LC-ESI-QTOF
Ms type: MS2
Ion mode: POSITIVE
Collision energy: Ramp 5-60 V
Fragmentation mode: LOW-ENERGY CID
Ionization: ESI
Precursor m/z: 611.19756
Precursor type: [M+H]+
m/z	relative intensity
71.0507	172
85.0299	253
129.0564	112
153.0198	349
177.0560	259
179.0358	65
195.0307	104
219.0307	47
245.0454	43
263.0567	62
303.0877	999
345.0984	65
369.0991	41
413.1249	69
431.1354	75
449.1454	171
465.1396	115
611.1976	62
