Mass spectrum: Hinokitiol; LC-ESI-QTOF; MS2; CE:Ramp 5-60 V; [M+H]+
Name: Hinokitiol
Name: beta-Thujaplicin
Name: beta.-Thujaplicine
Name: 2-Hydroxy-4-isopropyl-2,4,6-cycloheptatrien-1-one
Name: 4-Isopropyltropolon
Formula: C10H12O2
Exact mass: 164.08373
SMILES: CC(C)C(=C1)C=C(O)C(=O)C=C1
InChI: InChI=1S/C10H12O2/c1-7(2)8-4-3-5-9(11)10(12)6-8/h3-7H,1-2H3,(H,11,12)
Instrument: UPLC Q-Tof Premier, Waters
Instrument type: LC-ESI-QTOF
Ms type: MS2
Ion mode: POSITIVE
Collision energy: Ramp 5-60 V
Fragmentation mode: LOW-ENERGY CID
Ionization: ESI
Precursor m/z: 165.09153
Precursor type: [M+H]+
m/z	relative intensity
69.0541	184
79.0390	192
90.5275	238
91.0786	443
98.9888	147
99.5369	999
100.5336	450
111.0494	231
119.0815	204
147.0849	487
165.0915	123
