Mass spectrum: 1-Aminocyclopropane-1-carboxylic acid; GC-EI-TOF; MS; 2 TMS; BP:73
Name: 1-Aminocyclopropane-1-carboxylic acid
Name: 1-Aminocyclopropane-1-carboxylate
Class: Natural Product
Formula: C4H7NO2
Exact mass: 101.04768
SMILES: OC(=O)C(N)(C1)C1
InChI: InChI=1S/C4H7NO2/c5-4(1-2-4)3(6)7/h1-2,5H2,(H,6,7)
Instrument: Pegasus III TOF-MS system, Leco; GC 6890, Agilent Technologies
Instrument type: GC-EI-TOF
Ms type: MS
Ion mode: POSITIVE
Retention time: 284.101 sec
Base peak: 73
Derivative form: C10H23NO2Si2
Derivative mass: 245.12673
Derivative type: 2 TMS
m/z	relative intensity
60	15
61	17
62	1
63	1
66	26
67	3
69	1
70	15
71	9
72	45
73	999
74	104
75	91
76	8
77	22
78	1
82	2
83	24
84	22
85	17
86	15
87	7
88	2
89	1
94	3
96	3
97	2
98	22
99	7
100	32
101	6
102	5
103	8
104	1
105	2
110	3
111	1
112	39
113	11
114	12
115	8
116	6
117	10
118	2
119	3
126	14
127	28
128	233
129	30
130	13
131	27
132	21
133	41
134	7
135	3
140	2
142	1
143	1
144	2
146	5
147	533
148	88
149	45
150	4
151	1
156	2
157	2
158	7
159	2
160	1
172	5
173	4
174	9
175	5
176	1
186	17
187	3
188	4
189	1
190	7
191	1
202	186
203	43
204	17
205	2
214	1
216	7
217	6
218	1
230	47
231	11
232	4
245	25
246	5
247	2
