Mass spectrum: Marein; LC-ESI-QTOF; MS2; CE:Ramp 5-60 V; [M-H]-
Name: Marein
Name: Okan-4p-Glc
Name: okanin-4'-O-glucoside
Name: 2',3,3',4,4'-Pentahydroxy-4'-glucosylchalcone
Class: Flavonoid
Formula: C21H22O11
Exact mass: 450.11621
SMILES: OCC(O1)C(O)C(O)C(O)C1Oc(c3)c(O)c(O)c(c3)C(=O)C=Cc(c2)cc(O)c(O)c2
InChI: InChI=1S/C21H22O11/c22-8-15-18(28)19(29)20(30)21(32-15)31-14-6-3-10(16(26)17(14)27)11(23)4-1-9-2-5-12(24)13(25)7-9/h1-7,15,18-22,24-30H,8H2/b4-1+/t15-,18-,19+,20-,21-/m1/s1
Instrument: UPLC Q-Tof Premier, Waters
Instrument type: LC-ESI-QTOF
Ms type: MS2
Ion mode: NEGATIVE
Collision energy: Ramp 5-60 V
Fragmentation mode: LOW-ENERGY CID
Ionization: ESI
Precursor m/z: 449.10841
Precursor type: [M-H]-
m/z	relative intensity
107.0148	66
123.0098	94
134.0384	38
135.0457	999
151.0046	550
269.0481	98
287.0576	488
313.0596	34
431.1010	49
449.1084	487
