Mass spectrum: Puerarin; LC-ESI-QTOF; MS2; CE:Ramp 5-60 V; [M-H]-
Name: daidzein-8-C-glucoside
Name: Puerarin
Name: Ddze_8_C_Glc
Name: 7-hydroxy-3-(4-hydroxyphenyl)-8-[(2S,3S,4R,5R,6R)-3,4,5-trihydroxy-6-(hydroxymethyl)oxan-2-yl]chromen-4-one
Class: Natural Product
Formula: C21H20O9
Exact mass: 416.11073
SMILES: OC[C@H]([C@@H](O)4)O[C@H]([C@H](O)[C@@H](O)4)c(c(O)3)c(O2)c(cc3)C(=O)C(=C2)c(c1)ccc(O)c1
InChI: InChI=1S/C21H20O9/c22-7-14-17(26)18(27)19(28)21(30-14)15-13(24)6-5-11-16(25)12(8-29-20(11)15)9-1-3-10(23)4-2-9/h1-6,8,14,17-19,21-24,26-28H,7H2/t14-,17-,18+,19-,21+/m1/s1
Instrument: UPLC Q-Tof Premier, Waters
Instrument type: LC-ESI-QTOF
Ms type: MS2
Ion mode: NEGATIVE
Collision energy: Ramp 5-60 V
Fragmentation mode: LOW-ENERGY CID
Ionization: ESI
Full scan fragment ion peak: 415.1
Ion type: [M-H]-
m/z	relative intensity
132.0213	21
133.0295	47
209.0601	21
221.0597	22
222.0676	46
223.0395	20
223.0756	46
224.0474	30
237.0550	33
239.0703	20
253.0497	39
267.0657	874
268.0697	46
277.0496	97
295.0606	584
296.0643	29
307.0620	24
415.1029	999
416.1081	62
