Mass spectrum: Uridine 5'-diphospho-N-acetylgalactosamine; LC-ESI-QTOF; MS2; CE:30 V; [M-H]-
Name: Uridine 5'-diphospho-N-acetylgalactosamine
Name: UDP-GalNAc
Name: UDP-N-acetylgalactosamine
Name: Uridine diphospho-2-acetamido-2-deoxy-D-galactose
Class: Nucleotide-carbohydrates
Formula: C17H27N3O17P2
Exact mass: 607.08157
SMILES: OCC(O1)C(O)C(O)C(NC(C)=O)C1OP(O)(=O)OP(O)(=O)OCC(O2)C(O)C(O)C2N(C=3)C(=O)NC(=O)C3
InChI: InChI=1S/C17H27N3O17P2/c1-6(22)18-10-13(26)11(24)7(4-21)35-16(10)36-39(31,32)37-38(29,30)33-5-8-12(25)14(27)15(34-8)20-3-2-9(23)19-17(20)28/h2-3,7-8,10-16,21,24-27H,4-5H2,1H3,(H,18,22)(H,29,30)(H,31,32)(H,19,23,28)/t7-,8-,10-,11+,12-,13-,14-,15-,16-/m1/s1
Instrument: UPLC Q-Tof Premier, Waters
Instrument type: LC-ESI-QTOF
Ms type: MS2
Ion mode: NEGATIVE
Collision energy: 30 V
Fragmentation mode: LOW-ENERGY CID
Ionization: ESI
Precursor m/z: 606.07377
Precursor type: [M-H]-
m/z	relative intensity
78.9601	762
96.9703	399
111.0202	294
158.9255	935
174.9803	103
176.9357	331
211.0011	56
260.9576	124
264.0282	100
272.9575	999
282.0391	613
300.0496	116
305.0194	196
323.0296	230
362.0054	148
384.9845	725
402.9949	266
606.0738	61
