Mass spectrum: (2R)-2-Hydroxybut-3-enylglucosinolate; LC-ESI-QTOF; MS2; CE:Ramp 5-60 V; [M+K-2H]-
Name: (2R)-2-Hydroxybut-3-enylglucosinolate
Name: Progoitrin
Name: Glucorapiferin
Name: (R)-2-Hydroxy-3-butenyl-glucosinolate
Class: Alkenylglucosinolate
Formula: C11H19NO10S2
Exact mass: 389.04504
SMILES: C=CC(O)CC(=NOS(O)(=O)=O)SC(O1)C(O)C(O)C(O)C(CO)1
InChI: InChI=1S/C11H19NO10S2/c1-2-5(14)3-7(12-22-24(18,19)20)23-11-10(17)9(16)8(15)6(4-13)21-11/h2,5-6,8-11,13-17H,1,3-4H2,(H,18,19,20)/b12-7-/t5-,6-,8-,9+,10-,11+/m1/s1
Instrument: UPLC Q-Tof Premier, Waters
Instrument type: LC-ESI-QTOF
Ms type: MS2
Ion mode: NEGATIVE
Collision energy: Ramp 5-60 V
Fragmentation mode: LOW-ENERGY CID
Ionization: ESI
Derivative form: C11H19NO10S2.K.H2O
Derivative mass: 445.51
Precursor m/z: 425.99312
Precursor type: [M+K-2H]-
m/z	relative intensity
63.9656	183
71.9916	195
79.9530	152
95.9553	126
96.8322	144
96.9578	813
98.9543	96
134.9138	857
135.9741	213
161.9234	113
167.8958	109
207.9108	591
245.9359	189
263.9386	999
425.9931	136
