Mass spectrum: Deoxycholic acid; LC-ESI-QTOF; MS2; CE:Ramp 5-60 V; [M-H]-
Name: Deoxycholate
Name: Deoxycholic acid
Name: desoxycholate
Name: 3alpha,12alpha-Dihydroxy-5beta-cholanic acid
Name: 3alpha,12alpha-Dihydroxy-5beta-cholanate
Class: Bile acid
Formula: C24H40O4
Exact mass: 392.29266
SMILES: C(C1(C)4)([H])(C(C)CCC(O)=O)CCC1(C(C3([H])CC4O)([H])CCC(C3(C)2)([H])CC(O)CC2)[H]
InChI: InChI=1S/C24H40O4/c1-14(4-9-22(27)28)18-7-8-19-17-6-5-15-12-16(25)10-11-23(15,2)20(17)13-21(26)24(18,19)3/h14-21,25-26H,4-13H2,1-3H3,(H,27,28)/t14-,15-,16-,17+,18-,19+,20+,21+,23+,24-/m1/s1
Instrument: UPLC Q-Tof Premier, Waters
Instrument type: LC-ESI-QTOF
Ms type: MS2
Ion mode: NEGATIVE
Collision energy: Ramp 5-60 V
Fragmentation mode: LOW-ENERGY CID
Ionization: ESI
Precursor m/z: 391.28484
Precursor type: [M-H]-
m/z	relative intensity
327.2710	51
343.2659	56
345.2823	121
391.2849	999
