Mass spectrum: Kaempferol-3-Glucuronide; LC-ESI-QTOF; MS2; CE:Ramp 5-60 V; [M+H]+
Name: Kaempferol-3-Glucuronide
Name: Kaem-3-GlcA
Name: Kaempferol-3-glucuronoside
Class: Flavonoid
Formula: C21H18O12
Exact mass: 462.07983
SMILES: Oc(c4)ccc(c4)C(O1)=C(OC(O3)C(O)C(O)C(O)C(C(O)=O)3)C(=O)c(c(O)2)c(cc(O)c2)1
InChI: InChI=1S/C21H18O12/c22-8-3-1-7(2-4-8)17-18(13(25)12-10(24)5-9(23)6-11(12)31-17)32-21-16(28)14(26)15(27)19(33-21)20(29)30/h1-6,14-16,19,21-24,26-28H,(H,29,30)/t14-,15-,16+,19-,21+/m0/s1
Instrument: UPLC Q-Tof Premier, Waters
Instrument type: LC-ESI-QTOF
Ms type: MS2
Ion mode: POSITIVE
Collision energy: Ramp 5-60 V
Fragmentation mode: LOW-ENERGY CID
Ionization: ESI
Precursor m/z: 463.08764
Precursor type: [M+H]+
m/z	relative intensity
73.0304	24
85.0293	59
95.0133	11
113.0243	48
121.0294	31
137.0225	12
141.0182	15
153.0188	55
159.0289	19
165.0189	29
207.0332	11
213.0551	19
241.0515	11
258.0550	13
287.0553	999
288.0596	27
463.0876	68
