Mass spectrum: N-alpha-Acetyl-L-ornithine; LC-ESI-QTOF; MS2; CE:Ramp 5-60 V; [M-H]-
Name: N-alpha-Acetyl-L-ornithine
Name: Ac-Orn
Name: AOR
Name: (2S)-2-acetamido-5-aminopentanoic acid
Name: Nalpha-Acetyl-L-ornithine
Class: Amino acids
Formula: C7H14N2O3
Exact mass: 174.10044
SMILES: NCCCC(NC(C)=O)C(O)=O
InChI: InChI=1S/C7H14N2O3/c1-5(10)9-6(7(11)12)3-2-4-8/h6H,2-4,8H2,1H3,(H,9,10)(H,11,12)/t6-/m0/s1
Instrument: UPLC Q-Tof Premier, Waters
Instrument type: LC-ESI-QTOF
Ms type: MS2
Ion mode: NEGATIVE
Collision energy: Ramp 5-60 V
Fragmentation mode: LOW-ENERGY CID
Ionization: ESI
Precursor m/z: 173.09264
Precursor type: [M-H]-
m/z	relative intensity
129.1039	88
131.0826	999
173.0926	341
