Mass spectrum: 4-Methylsulfinylbutyl glucosinolate; LC-ESI-QTOF; MS2; CE:Ramp 5-60 V; [M+K]+
Name: 4-Methylsulfinylbutyl glucosinolate
Name: 4MSOB
Name: glucoraphanin
Name: 4-(Methylsulfinyl)butylglucosinolate
Class: Glucosinolate
Formula: C12H23NO10S3
Exact mass: 437.04841
SMILES: OCC(O1)C(O)C(O)C(O)C1SC(CCCCS(C)=O)=NOS(O)(=O)=O
InChI: InChI=1S/C12H23NO10S3/c1-25(18)5-3-2-4-8(13-23-26(19,20)21)24-12-11(17)10(16)9(15)7(6-14)22-12/h7,9-12,14-17H,2-6H2,1H3,(H,19,20,21)/t7-,9-,10+,11-,12+,25?/m1/s1
Instrument: UPLC Q-Tof Premier, Waters
Instrument type: LC-ESI-QTOF
Ms type: MS2
Ion mode: POSITIVE
Collision energy: Ramp 5-60 V
Fragmentation mode: LOW-ENERGY CID
Ionization: ESI
Derivative form: C12H23NO10S3.K.H2O
Derivative mass: 493.62
Precursor m/z: 476.01209
Precursor type: [M+K]+
m/z	relative intensity
234.0055	254
260.0299	218
396.0591	999
476.0121	192
