Mass spectrum: Sarcosine; GC-EI-TOF; MS; 2 TMS; BP:73
Name: Sarcosine
Name: N-Methylglycine
Class: Natural Product
Formula: C3H7NO2
Exact mass: 89.04768
SMILES: CNCC(O)=O
InChI: InChI=1S/C3H7NO2/c1-4-2-3(5)6/h4H,2H2,1H3,(H,5,6)
Instrument: Pegasus III TOF-MS system, Leco; GC 6890, Agilent Technologies
Instrument type: GC-EI-TOF
Ms type: MS
Ion mode: POSITIVE
Retention time: 291.658 sec
Base peak: 73
Derivative form: C9H23NO2Si2
Derivative mass: 233.12673
Derivative type: 2 TMS
m/z	relative intensity
60	46
61	6
62	2
66	7
67	12
70	7
71	26
72	57
73	999
74	123
75	56
77	27
78	2
82	3
83	1
84	7
85	13
86	47
88	6
90	2
93	1
94	2
96	2
97	3
101	23
105	2
106	1
108	2
109	1
113	6
114	12
116	863
117	86
118	17
121	4
129	1
130	6
131	5
134	3
141	1
142	2
144	7
147	177
148	40
149	9
159	2
163	1
166	5
169	1
171	1
173	1
174	2
175	10
176	3
177	4
182	1
185	3
187	2
188	2
190	46
191	1
192	9
195	1
202	1
206	2
208	1
213	2
214	1
218	29
219	2
226	1
227	1
230	1
233	18
234	1
368	1
464	1
475	1
528	1
538	1
542	1
639	1
683	1
704	1
707	2
715	1
753	1
766	1
768	1
