Mass spectrum: Quercetin-3-Glucuronide; LC-ESI-QTOF; MS2; CE:Ramp 5-60 V; [M+H]+
Name: Quercetin-3-Glucuronide
Name: Quer-3-GlcA
Name: Miquelianin
Name: Querciturone
Class: Flavonoid
Formula: C21H18O13
Exact mass: 478.07474
SMILES: OC(=O)C(O1)C(O)C(O)C(O)C1OC(C(=O)3)=C(Oc(c4)c(c(O)cc(O)4)3)c(c2)cc(O)c(O)c2
InChI: InChI=1S/C21H18O13/c22-7-4-10(25)12-11(5-7)32-17(6-1-2-8(23)9(24)3-6)18(13(12)26)33-21-16(29)14(27)15(28)19(34-21)20(30)31/h1-5,14-16,19,21-25,27-29H,(H,30,31)/t14-,15-,16+,19-,21+/m0/s1
Instrument: UPLC Q-Tof Premier, Waters
Instrument type: LC-ESI-QTOF
Ms type: MS2
Ion mode: POSITIVE
Collision energy: Ramp 5-60 V
Fragmentation mode: LOW-ENERGY CID
Ionization: ESI
Precursor m/z: 479.08256
Precursor type: [M+H]+
m/z	relative intensity
73.0303	18
85.0295	55
113.0231	49
137.0238	36
141.0183	16
153.0179	41
159.0285	20
165.0189	30
201.0544	18
229.0496	47
257.0440	27
303.0497	999
304.0533	31
479.0826	82
