Mass spectrum: Kynurenic acid; LC-ESI-QTOF; MS2; CE:Ramp 5-60 V; [M-H]-
Name: Kynurenic acid
Name: Kynurenate
Name: Kynurensaeure
Name: Quinurenic acid
Name: 4-Hydroxyquinaldinic acid
Name: 4-Hydroxyquinaldic acid
Name: 4-Hydroxyquinoline-2-carboxylic acid
Class: Carboxylic acids
Formula: C10H7NO3
Exact mass: 189.04259
SMILES: OC(=O)c(c1)nc(c2)c(ccc2)c(O)1
InChI: InChI=1S/C10H7NO3/c12-9-5-8(10(13)14)11-7-4-2-1-3-6(7)9/h1-5H,(H,11,12)(H,13,14)
Instrument: UPLC Q-Tof Premier, Waters
Instrument type: LC-ESI-QTOF
Ms type: MS2
Ion mode: NEGATIVE
Collision energy: Ramp 5-60 V
Fragmentation mode: LOW-ENERGY CID
Ionization: ESI
Precursor m/z: 188.03479
Precursor type: [M-H]-
m/z	relative intensity
144.0444	999
188.0348	87
