Mass spectrum: D-(-)-Penicillamine; GC-EI-TOF; MS; 3 TMS; BP:73
Name: D-(-)-Penicillamine
Name: Penicillamine
Class: Natural Product
Formula: C5H11NO2S
Exact mass: 149.05105
SMILES: OC(=O)[C@H](N)C(C)(C)S
InChI: InChI=1S/C5H11NO2S/c1-5(2,9)3(6)4(7)8/h3,9H,6H2,1-2H3,(H,7,8)/t3-/m0/s1
Instrument: Pegasus III TOF-MS system, Leco; GC 6890, Agilent Technologies
Instrument type: GC-EI-TOF
Ms type: MS
Ion mode: POSITIVE
Retention time: 396.598 sec
Base peak: 73
Derivative form: C14H35NO2SSi3
Derivative mass: 365.16963
Derivative type: 3 TMS
m/z	relative intensity
60	12
61	8
62	1
63	1
66	2
67	1
69	2
70	17
71	7
72	15
73	999
74	88
75	67
76	6
77	20
78	1
79	2
82	2
83	4
84	4
85	5
86	11
87	4
88	1
89	1
90	5
91	17
92	2
93	2
96	1
97	2
98	3
99	4
100	78
101	98
102	15
103	8
104	1
105	2
106	2
110	1
111	1
112	6
113	3
114	3
115	5
116	2
117	4
118	1
119	2
126	4
127	1
128	38
129	38
130	26
131	12
132	14
133	12
134	2
135	1
142	51
143	29
144	11
145	6
146	4
147	193
148	27
149	17
150	2
156	1
157	1
158	1
159	3
160	4
161	2
163	5
164	1
172	2
174	3
175	1
176	1
190	2
203	5
204	2
216	2
217	1
218	106
219	57
220	15
221	5
232	1
244	1
248	25
249	5
250	3
260	1
291	56
292	15
293	7
294	1
322	2
