Mass spectrum: Melibiose; GC-EI-TOF; MS; 8 TMS; 1 MEOX; BP:73
Name: Melibiose
Name: D-Gal-alpha1->6D-Glucose
Name: 6-O-(alpha-D-Galactopyranosyl)-D-glucopyranose
Class: Natural Product
Formula: C12H22O11
Exact mass: 342.11621
SMILES: OC[C@@H](O1)[C@H](O)[C@H](O)[C@@H](O)[C@@H](OC[C@@H](O2)[C@@H](O)[C@H](O)[C@@H](O)C(O)2)1
InChI: InChI=1S/C12H22O11/c13-1-3-5(14)8(17)10(19)12(23-3)21-2-4-6(15)7(16)9(18)11(20)22-4/h3-20H,1-2H2/t3-,4-,5+,6-,7+,8+,9-,10-,11?,12+/m1/s1
Instrument: Pegasus III TOF-MS system, Leco; GC 6890, Agilent Technologies
Instrument type: GC-EI-TOF
Ms type: MS
Ion mode: POSITIVE
Retention time: 627.862 sec
Base peak: 73
Derivative form: C37H89NO11Si8
Derivative mass: 947.45897
Derivative type: 8 TMS; 1 MEOX
m/z	relative intensity
60	3
61	5
66	5
67	4
69	9
70	2
71	3
72	11
73	999
74	85
75	61
76	4
77	4
81	13
82	2
83	3
84	1
85	5
86	1
87	4
88	2
89	39
90	3
91	2
97	4
98	1
99	3
100	14
101	28
102	9
103	169
104	16
105	15
106	2
109	5
111	4
113	6
114	3
115	5
116	13
117	53
118	6
119	6
125	1
127	4
128	2
129	121
130	17
131	24
132	4
133	59
134	8
135	4
139	1
141	3
142	3
143	17
144	2
145	6
146	1
147	169
148	25
149	21
150	2
151	1
153	2
154	1
155	17
156	4
157	15
158	4
159	4
160	63
161	34
162	5
163	7
167	1
169	78
170	11
171	8
172	2
173	5
174	2
175	3
177	4
178	1
183	2
184	1
185	1
186	1
187	2
188	1
189	20
190	6
191	44
192	8
193	3
196	1
197	1
199	2
201	4
202	1
203	9
204	232
205	62
206	23
207	6
210	1
214	1
215	2
216	1
217	109
218	27
219	12
220	2
221	5
222	1
227	1
228	1
229	6
230	4
231	7
232	2
233	12
234	2
235	4
241	2
242	1
243	23
244	7
245	7
246	2
247	4
255	1
256	1
257	2
259	4
260	1
268	1
269	1
270	1
271	20
272	5
273	10
274	3
275	2
277	1
291	4
292	1
300	1
305	6
306	2
307	4
308	1
315	1
317	2
318	1
319	16
320	5
321	2
331	6
332	3
333	1
337	1
360	4
361	89
362	28
363	18
364	4
365	1
409	1
451	3
452	1
