Mass spectrum: Quercetin; LC-ESI-QTOF; MS2; CE:30 eV; [2M-H]-
Name: 3,3',4',5,7-pentahydroxyflavone
Name: Quercetin
Name: Quer
Name: 2-(3,4-dihydroxyphenyl)-3,5,7-trihydroxy-chromen-4-one
Class: Natural Product
Formula: C15H10O7
Exact mass: 302.04265
SMILES: Oc(c3)c(O)cc(c3)C(O1)=C(O)C(=O)c(c(O)2)c(cc(O)c2)1
InChI: InChI=1S/C15H10O7/c16-7-4-10(19)12-11(5-7)22-15(14(21)13(12)20)6-1-2-8(17)9(18)3-6/h1-5,16-19,21H
Instrument: UPLC Q-Tof Premier, Waters
Instrument type: LC-ESI-QTOF
Ms type: MS2
Ion mode: NEGATIVE
Collision energy: 30 eV
Fragmentation mode: LOW-ENERGY CID
Ionization: ESI
Full scan fragment ion peak: 603.1
Ion type: [2M-H]-
m/z	relative intensity
151.0366	177
151.8514	35
179.0280	152
300.1090	23
301.0501	999
301.9594	156
302.8104	52
303.6890	23
