Mass spectrum: Zearalenone; LC-ESI-QTOF; MS2; CE:Ramp 5-60 V; [M-H]-
Name: Zearalenone
Name: FES
Name: Fusarium toxin
Name: Mycotoxin F2
Name: Benzoxacyclotetradecin-1,7(8H)-dione
Name: Zenone
Name: 6-(10-Hydroxy-6-oxo-trans-1-undecenyl)-beta-resorcylic acid-N-lactone
Class: Polyketides
Formula: C18H22O5
Exact mass: 318.14672
SMILES: O=C(C2)CCC[C@H](C)OC(=O)c(c(O)1)c(C=CCC2)cc(O)c1
InChI: InChI=1S/C18H22O5/c1-12-6-5-9-14(19)8-4-2-3-7-13-10-15(20)11-16(21)17(13)18(22)23-12/h3,7,10-12,20-21H,2,4-6,8-9H2,1H3/b7-3+/t12-/m0/s1
Instrument: UPLC Q-Tof Premier, Waters
Instrument type: LC-ESI-QTOF
Ms type: MS2
Ion mode: NEGATIVE
Collision energy: Ramp 5-60 V
Fragmentation mode: LOW-ENERGY CID
Ionization: ESI
Precursor m/z: 317.13892
Precursor type: [M-H]-
m/z	relative intensity
130.0453	171
131.0527	380
147.0482	107
149.0641	111
160.0201	163
175.0435	320
187.0442	137
273.1557	189
317.1389	999
317.5850	190
