Mass spectrum: Xanthosine-5'-monophosphate; LC-ESI-QTOF; MS2; CE:Ramp 5-60 V; [M+H]+
Name: Xanthosine-5'-monophosphate
Name: XMP
Name: Xanthylic acid
Name: (9-D-Ribosylxanthine)-5'-phosphate
Class: Natural Product; Nucleoside; Phosphates
Formula: C10H13N4O9P
Exact mass: 364.04201
SMILES: O=C(N3)Nc(c2C(=O)3)n(cn2)[C@H](O1)[C@H](O)[C@H](O)[C@@H](COP(O)(O)=O)1
InChI: InChI=1S/C10H13N4O9P/c15-5-3(1-22-24(19,20)21)23-9(6(5)16)14-2-11-4-7(14)12-10(18)13-8(4)17/h2-3,5-6,9,15-16H,1H2,(H2,19,20,21)(H2,12,13,17,18)/t3-,5-,6-,9-/m1/s1
Instrument: UPLC Q-Tof Premier, Waters
Instrument type: LC-ESI-QTOF
Ms type: MS2
Ion mode: POSITIVE
Collision energy: Ramp 5-60 V
Fragmentation mode: LOW-ENERGY CID
Ionization: ESI
Precursor m/z: 365.04981
Precursor type: [M+H]+
m/z	relative intensity
69.0351	20
97.0289	999
99.5098	10
110.0353	58
136.0141	85
153.0414	341
213.0172	41
365.0498	24
