Mass spectrum: Maltitol; LC-ESI-QTOF; MS2; CE:Ramp 5-60 V; [M-H]-
Name: Maltitol
Name: Malbit
Name: Maltisorb
Name: Maltit
Name: 4-O-alpha-Glucopyranosyl-D-glucitol
Name: 4-O-alpha-Glucopyranosyl-D-sorbitol
Name: D-4-O-alpha-D-Glucopyranosylglucitol
Name: Amalti Syrup
Formula: C12H24O11
Exact mass: 344.13186
SMILES: OCC(O)C(O)C([H])(C(O)CO)OC(O1)C(O)C(O)C(O)C(CO)1
InChI: InChI=1S/C12H24O11/c13-1-4(16)7(18)11(5(17)2-14)23-12-10(21)9(20)8(19)6(3-15)22-12/h4-21H,1-3H2/t4-,5+,6+,7+,8+,9-,10+,11+,12+/m0/s1
Instrument: UPLC Q-Tof Premier, Waters
Instrument type: LC-ESI-QTOF
Ms type: MS2
Ion mode: NEGATIVE
Collision energy: Ramp 5-60 V
Fragmentation mode: LOW-ENERGY CID
Ionization: ESI
Precursor m/z: 343.12406
Precursor type: [M-H]-
m/z	relative intensity
59.0154	492
71.0150	799
85.0299	122
89.0247	747
101.0247	694
113.0245	359
119.0352	293
143.0341	102
161.0456	144
179.0564	575
343.1241	999
