Mass spectrum: Thiamine; LC-ESI-QTOF; MS2; CE:Ramp 5-60 V; M+
Name: Thiamine
Name: Vitamin B1
Name: Thiamin
Name: Aneurine
Name: Betaxin
Name: Bethiazine
Name: Eskapen
Name: Thiadoxine
Name: Vinothiam
Name: Vitaneuron
Class: Thiamine
Formula: [C12H17N4OS]+
Exact mass: 265.11231
SMILES: OCCc(s2)c(C)[n+1](c2)Cc(c1)c(N)nc(C)n1
InChI: InChI=1S/C12H17N4OS/c1-8-11(3-4-17)18-7-16(8)6-10-5-14-9(2)15-12(10)13/h5,7,17H,3-4,6H2,1-2H3,(H2,13,14,15)/q+1
Instrument: UPLC Q-Tof Premier, Waters
Instrument type: LC-ESI-QTOF
Ms type: MS2
Ion mode: POSITIVE
Collision energy: Ramp 5-60 V
Fragmentation mode: LOW-ENERGY CID
Ionization: ESI
Precursor m/z: 265
Precursor type: [M]+
m/z	relative intensity
81.0454	176
122.0714	999
144.0489	316
265.1123	57
