Mass spectrum: Cyanidin-3-glucoside; LC-ESI-QTOF; MS2; CE:Ramp 5-60 V; [M-2H+H2O]-
Name: Cyanidin-3-glucoside
Name: (2S,3R,4S,5R,6R)-2-[2-(3,4-dihydroxyphenyl)-5,7-dihydroxy-chromen-3-yl]oxy-6-(hydroxymethyl)oxane-3,4,5-triol
Class: Natural Product
Formula: [C21H21O11]+
Exact mass: 449.10839
SMILES: OC[C@@H](O1)[C@@H](O)[C@H](O)[C@@H](O)[C@@H]1Oc(c3)c([o+1]c(c4)c(c(O)cc(O)4)3)c(c2)cc(O)c(O)c2
InChI: InChI=1S/C21H20O11/c22-7-16-17(27)18(28)19(29)21(32-16)31-15-6-10-12(25)4-9(23)5-14(10)30-20(15)8-1-2-11(24)13(26)3-8/h1-6,16-19,21-22,27-29H,7H2,(H3-,23,24,25,26)/p+1/t16-,17-,18+,19-,21-/m1/s1
Instrument: UPLC Q-Tof Premier, Waters
Instrument type: LC-ESI-QTOF
Ms type: MS2
Ion mode: NEGATIVE
Collision energy: Ramp 5-60 V
Fragmentation mode: LOW-ENERGY CID
Ionization: ESI
Full scan fragment ion peak: 465.1
Ion type: [M-2H+H2O]-
m/z	relative intensity
108.0214	30
109.0291	54
121.0295	34
125.0241	209
137.0241	78
138.0319	139
148.0164	36
149.0240	217
161.0242	45
164.0117	57
165.0191	82
166.0269	255
167.0348	155
174.0317	43
175.0398	193
176.0117	58
192.0061	56
193.0139	55
198.0326	42
199.0398	207
201.0197	49
213.0558	40
217.0508	161
241.0508	422
243.0300	85
285.0404	999
286.0445	74
303.0512	66
329.0880	372
339.0731	92
355.0672	70
465.1033	910
466.1072	96
