Mass spectrum: 2'-Deoxyadenosine; LC-ESI-QTOF; MS2; CE:Ramp 5-60 V; [M+H]+
Name: 2'-Deoxyadenosine
Name: dA
Name: 2'-Deoxy-A
Name: Adenine deoxyriboside
Name: 9-(2-Deoxy-beta-D-ribofuranosyl)adenine
Class: Nucleoside
Formula: C10H13N5O3
Exact mass: 251.10184
SMILES: OC[C@@H](O1)[C@@H](O)C[C@@H]1n(c3)c(n2)c(n3)c(N)nc2
InChI: InChI=1S/C10H13N5O3/c11-9-8-10(13-3-12-9)15(4-14-8)7-1-5(17)6(2-16)18-7/h3-7,16-17H,1-2H2,(H2,11,12,13)/t5-,6+,7+/m0/s1
Instrument: UPLC Q-Tof Premier, Waters
Instrument type: LC-ESI-QTOF
Ms type: MS2
Ion mode: POSITIVE
Collision energy: Ramp 5-60 V
Fragmentation mode: LOW-ENERGY CID
Ionization: ESI
Precursor m/z: 252.10963
Precursor type: [M+H]+
m/z	relative intensity
136.0631	391
252.1096	999
