Mass spectrum: Oleic acid; GC-EI-TOF; MS; 1 TMS; BP:73
Name: Oleic acid
Name: Oleate
Name: (9Z)-Octadecenoic acid
Name: (Z)-Octadec-9-enoic acid
Class: Natural Product
Formula: C18H34O2
Exact mass: 282.25588
SMILES: CCCCCCCCC=CCCCCCCCC(O)=O
InChI: InChI=1S/C18H34O2/c1-2-3-4-5-6-7-8-9-10-11-12-13-14-15-16-17-18(19)20/h9-10H,2-8,11-17H2,1H3,(H,19,20)/b10-9-
Instrument: Pegasus III TOF-MS system, Leco; GC 6890, Agilent Technologies
Instrument type: GC-EI-TOF
Ms type: MS
Ion mode: POSITIVE
Retention time: 555.547 sec
Base peak: 73
Derivative form: C21H42O2Si
Derivative mass: 354.29541
Derivative type: 1 TMS
m/z	relative intensity
60	19
61	81
62	8
63	9
64	1
65	34
66	22
67	302
68	14
69	126
70	76
71	37
72	53
73	999
74	117
75	771
76	78
77	105
78	18
79	121
80	43
81	213
82	105
83	157
84	165
85	42
86	14
87	8
88	6
89	27
90	4
91	42
92	12
93	59
94	31
95	137
96	189
97	123
98	132
99	31
100	4
101	12
102	3
103	6
104	1
105	29
106	7
107	31
108	20
109	69
110	72
111	52
112	26
113	7
114	2
115	7
116	56
117	528
118	56
119	45
120	9
121	30
122	10
123	48
124	30
125	18
126	7
127	4
128	5
129	412
130	55
131	87
132	88
133	42
134	21
135	19
136	6
137	30
138	23
139	9
140	3
141	5
142	4
143	28
144	5
145	146
146	20
147	16
148	10
149	7
150	4
151	18
152	25
153	6
154	2
155	18
156	6
157	13
158	5
159	12
160	2
161	5
162	2
163	3
164	3
165	10
166	15
167	6
168	3
169	12
170	5
171	19
172	8
173	9
174	3
175	3
176	1
177	2
178	1
179	4
180	25
181	7
182	2
183	14
184	3
185	37
186	9
187	7
188	4
189	2
191	1
192	1
193	4
194	3
195	2
197	3
198	1
199	43
200	8
201	10
202	2
203	1
207	3
208	2
209	2
211	3
213	7
214	2
215	2
220	5
221	7
222	27
223	5
225	2
227	8
228	2
229	2
235	3
236	4
237	1
239	1
241	7
242	2
243	2
246	2
255	3
256	1
257	4
258	1
264	22
265	5
267	1
269	1
271	2
272	2
283	1
286	1
295	1
311	1
338	6
339	79
340	23
341	6
342	1
354	7
355	2
