Mass spectrum: D-(+)-Mannose; GC-EI-TOF; MS; 5 TMS; 1 MEOX; BP:73
Name: D-(+)-Mannose
Name: D-Mannose
Name: Seminose
Name: Mannose
Name: Carubinose
Class: Natural Product
Formula: C6H12O6
Exact mass: 180.06339
SMILES: OCC(O1)C(O)C(O)C(O)C(O)1
InChI: InChI=1S/C6H12O6/c7-1-2-3(8)4(9)5(10)6(11)12-2/h2-11H,1H2/t2-,3-,4+,5+,6?/m1/s1
Instrument: Pegasus III TOF-MS system, Leco; GC 6890, Agilent Technologies
Instrument type: GC-EI-TOF
Ms type: MS
Ion mode: POSITIVE
Retention time: 456.79 sec
Base peak: 73
Derivative form: C22H55NO6Si5
Derivative mass: 569.28757
Derivative type: 5 TMS; 1 MEOX
m/z	relative intensity
60	5
61	6
66	5
67	4
69	1
70	4
71	3
72	17
73	999
74	87
75	56
76	4
77	4
81	1
82	6
83	15
84	3
85	3
86	5
87	5
88	4
89	58
90	5
91	2
97	2
98	1
99	4
100	13
101	16
102	10
103	118
104	12
105	27
106	2
107	1
110	1
111	1
112	2
113	4
114	11
115	7
116	6
117	82
118	8
119	8
120	1
126	1
127	3
128	4
129	101
130	18
131	24
132	4
133	54
134	7
135	4
141	1
142	4
143	11
144	2
145	6
146	1
147	255
148	39
149	24
150	2
151	1
156	1
157	71
158	12
159	5
160	118
161	21
162	6
163	7
164	1
168	1
169	1
170	1
172	2
173	3
174	1
175	3
176	1
177	3
186	2
187	1
189	18
190	5
191	11
192	2
193	1
200	1
201	5
202	2
203	3
204	20
205	170
206	33
207	17
208	2
210	2
215	2
216	6
217	71
218	15
219	7
220	1
221	4
222	1
228	1
229	21
230	6
231	8
232	3
233	5
234	3
235	1
243	1
244	2
245	1
246	2
247	1
256	1
260	1
262	2
269	1
270	1
274	3
275	1
277	4
278	1
291	6
292	2
293	1
300	1
305	3
306	1
307	3
308	1
318	2
319	132
320	40
321	20
322	4
323	1
364	2
365	1
