Mass spectrum: Peonidin-3-O-alpha-arabinopyranoside; LC-ESI-QTOF; MS2; CE:Ramp 5-60 V; [M]+
Name: Peonidin-3-O-alpha-arabinopyranoside
Name: Pn 3-Ara
Class: Anthocyanidin
Formula: [C21H21O10]+
Exact mass: 433.11347
SMILES: COc(c(O)4)cc(cc4)c([o+1]1)c(OC(O3)C(O)C(O)C(O)C3)cc(c(O)2)c(cc(O)c2)1
InChI: InChI=1S/C21H20O10/c1-28-16-4-9(2-3-12(16)23)20-17(31-21-19(27)18(26)14(25)8-29-21)7-11-13(24)5-10(22)6-15(11)30-20/h2-7,14,18-19,21,25-27H,8H2,1H3,(H2-,22,23,24)/p+1
Instrument: UPLC Q-Tof Premier, Waters
Instrument type: LC-ESI-QTOF
Ms type: MS2
Ion mode: POSITIVE
Collision energy: Ramp 5-60 V
Fragmentation mode: LOW-ENERGY CID
Ionization: ESI
Derivative form: C21H21O10.Cl
Derivative mass: 468.84
Precursor m/z: 433.11344
Precursor type: [M]+
m/z	relative intensity
258.0558	113
286.0496	301
301.0719	999
433.1134	171
