Mass spectrum: N-Acetylputrescine; GC-EI-TOF; MS; 2 TMS; BP:73
Name: N-acetyl putrescine
Name: N-Acetylputrescine
Class: Natural Product
Formula: C6H14N2O
Exact mass: 130.11061
SMILES: NCCCCNC(C)=O
InChI: InChI=1S/C6H14N2O/c1-6(9)8-5-3-2-4-7/h2-5,7H2,1H3,(H,8,9)
Instrument: Pegasus III TOF-MS system, Leco; GC 6890, Agilent Technologies
Instrument type: GC-EI-TOF
Ms type: MS
Ion mode: POSITIVE
Retention time: 455.259 sec
Base peak: 73
Derivative form: C12H30N2OSi2
Derivative mass: 274.18967
Derivative type: 2 TMS
m/z	relative intensity
60	22
61	19
62	2
63	2
65	1
66	4
67	2
68	3
69	7
70	42
71	14
72	42
73	999
74	108
75	96
76	10
77	21
78	4
79	25
80	2
81	1
82	10
83	5
84	163
85	22
86	174
87	22
88	10
89	2
94	2
95	1
96	8
97	3
98	10
99	19
100	111
101	25
102	78
103	13
104	4
105	1
109	2
110	2
111	1
112	11
113	8
114	20
115	13
116	51
117	36
118	6
119	5
121	1
124	1
126	10
127	2
128	43
129	26
130	56
131	33
132	13
133	39
134	6
135	3
140	5
141	2
142	53
143	11
144	51
145	11
146	33
147	60
148	11
149	5
150	1
154	1
156	7
157	4
158	26
159	120
160	20
161	6
162	1
168	1
169	1
170	7
171	2
172	44
173	11
174	344
175	63
176	31
177	4
178	1
183	22
184	9
185	4
186	33
187	7
188	4
189	1
190	5
191	1
200	36
201	35
202	11
203	5
204	2
213	2
214	7
215	2
216	7
217	1
218	1
230	1
243	5
244	1
245	1
248	4
249	1
273	10
274	2
275	1
330	1
331	20
332	6
333	3
346	6
347	2
348	1
