Mass spectrum: D-(+)-Galactose; GC-EI-TOF; MS; 5 TMS; 1 MEOX; BP:73
Name: D-(+)-Galactose
Name: D-Galactose
Class: Natural Product
Formula: C6H12O6
Exact mass: 180.06339
SMILES: OC[C@@H](O1)[C@H](O)[C@H](O)[C@@H](O)C(O)1
InChI: InChI=1S/C6H12O6/c7-1-2-3(8)4(9)5(10)6(11)12-2/h2-11H,1H2/t2-,3+,4+,5-,6?/m1/s1
Instrument: Pegasus III TOF-MS system, Leco; GC 6890, Agilent Technologies
Instrument type: GC-EI-TOF
Ms type: MS
Ion mode: POSITIVE
Retention time: 462.943 sec
Base peak: 73
Derivative form: C22H55NO6Si5
Derivative mass: 569.28757
Derivative type: 5 TMS; 1 MEOX
m/z	relative intensity
60	4
61	5
66	4
67	2
69	1
70	3
71	3
72	15
73	999
74	84
75	51
76	3
77	3
79	1
81	1
82	2
83	11
84	2
85	3
86	2
87	3
88	3
89	57
90	5
91	2
96	3
97	3
98	1
99	2
100	12
101	12
102	7
103	154
104	15
105	15
106	2
111	1
113	3
114	3
115	4
116	4
117	61
118	6
119	7
126	1
127	2
128	1
129	75
130	12
131	20
132	3
133	47
134	6
135	3
141	1
142	1
143	9
144	1
145	3
146	1
147	203
148	33
149	19
150	2
151	1
154	1
157	51
158	7
159	5
160	56
161	14
162	3
163	6
164	1
169	3
172	2
173	2
174	1
175	3
177	4
178	1
182	1
186	2
187	1
189	14
190	4
191	7
192	1
201	4
202	1
203	2
204	18
205	138
206	28
207	14
208	2
214	4
215	1
216	1
217	72
218	15
219	7
220	1
221	3
229	15
230	4
231	3
232	1
233	6
234	2
235	4
236	1
243	1
244	1
245	1
246	1
247	2
259	1
268	2
274	1
277	3
278	1
291	4
292	1
300	1
305	3
306	1
307	4
308	1
318	2
319	97
320	29
321	14
322	2
