Mass spectrum: Neodiosmin; LC-ESI-QTOF; MS2; CE:Ramp 5-60 V; [M+H]+
Name: Neodiosmin
Name: Dism-7-Glc-2pp-Man
Name: diosmetin-7-O-neohesperidoside
Formula: C28H32O15
Exact mass: 608.17412
SMILES: C(C(O)4)(OC([H])(C(O)5)OC(C)C(O)C(O)5)C(OC(CO)C4O)Oc(c3)cc(c(c(O)3)2)OC(=CC(=O)2)c(c1)ccc(c1O)OC
InChI: InChI=1S/C28H32O15/c1-10-21(33)23(35)25(37)27(39-10)43-26-24(36)22(34)19(9-29)42-28(26)40-12-6-14(31)20-15(32)8-17(41-18(20)7-12)11-3-4-16(38-2)13(30)5-11/h3-8,10,19,21-31,33-37H,9H2,1-2H3/t10-,19+,21-,22+,23+,24-,25+,26+,27-,28+/m0/s1
Instrument: UPLC Q-Tof Premier, Waters
Instrument type: LC-ESI-QTOF
Ms type: MS2
Ion mode: POSITIVE
Collision energy: Ramp 5-60 V
Fragmentation mode: LOW-ENERGY CID
Ionization: ESI
Precursor m/z: 609.18191
Precursor type: [M+H]+
m/z	relative intensity
286.0486	246
301.0719	999
609.1819	167
