Mass spectrum: Peltatoside; LC-ESI-QTOF; MS2; CE:Ramp 5-60 V; [M-H]-
Name: Peltatoside
Name: Quer-3-Ara-Glc
Name: quercetin-3-O-arabinoglucoside
Name: 3-[(6-O-alpha-L-Arabinopyranosyl-beta-D-glucopyranosyl)oxy]-2-(3,4-dihydroxyphenyl)-5,7-dihydroxy-4H-1-benzopyran-4-one
Class: Flavonoid
Formula: C26H28O16
Exact mass: 596.13773
SMILES: c(c5)(O)cc(c(c52)C(C(OC(O3)C(C(C(C3COC(C(O)4)OCC(O)C4O)O)O)O)=C(O2)c(c1)ccc(O)c1O)=O)O
InChI: InChI=1S/C26H28O16/c27-9-4-12(30)16-14(5-9)40-23(8-1-2-10(28)11(29)3-8)24(19(16)34)42-26-22(37)20(35)18(33)15(41-26)7-39-25-21(36)17(32)13(31)6-38-25/h1-5,13,15,17-18,20-22,25-33,35-37H,6-7H2/t13-,15+,17-,18+,20-,21+,22+,25-,26-/m0/s1
Instrument: UPLC Q-Tof Premier, Waters
Instrument type: LC-ESI-QTOF
Ms type: MS2
Ion mode: NEGATIVE
Collision energy: Ramp 5-60 V
Fragmentation mode: LOW-ENERGY CID
Ionization: ESI
Precursor m/z: 595.12993
Precursor type: [M-H]-
m/z	relative intensity
107.0159	12
121.0314	11
151.0051	93
163.0054	17
179.0008	56
211.0429	10
226.0285	11
227.0388	18
243.0331	69
254.0257	20
255.0331	196
271.0275	379
272.0367	20
273.0445	12
283.0284	12
299.0250	15
300.0302	829
300.4638	14
301.0395	418
343.0499	15
595.1299	999
595.5206	11
595.7397	18
596.1514	15
