Mass spectrum: Cadaverine; GC-EI-TOF; MS; 4 TMS; BP:174
Name: Cadaverine
Name: Pentamethylenediamine
Name: 1,5-Pentanediamine
Name: 1,5-Diaminopentane
Class: Natural Product
Formula: C5H14N2
Exact mass: 102.11570
SMILES: NCCCCCN
InChI: InChI=1S/C5H14N2/c6-4-2-1-3-5-7/h1-7H2
Instrument: Pegasus III TOF-MS system, Leco; GC 6890, Agilent Technologies
Instrument type: GC-EI-TOF
Ms type: MS
Ion mode: POSITIVE
Retention time: 450.124 sec
Base peak: 174
Derivative form: C17H46N2Si4
Derivative mass: 390.27381
Derivative type: 4 TMS
m/z	relative intensity
60	20
61	8
67	1
69	1
70	7
71	10
72	20
73	981
74	91
75	26
76	1
77	4
82	1
83	2
84	9
85	16
86	280
87	29
88	36
89	3
90	1
97	3
98	11
99	13
100	120
101	20
102	28
103	6
104	1
106	1
110	1
111	1
112	40
113	12
114	18
115	11
116	20
117	20
118	5
119	1
124	3
126	10
127	2
128	13
129	6
130	67
131	35
132	16
133	3
134	1
138	3
139	1
140	18
141	3
142	10
143	7
144	7
145	3
146	25
147	4
148	2
154	12
155	3
156	10
157	2
158	20
159	4
160	19
161	3
162	1
170	2
171	1
172	18
173	4
174	999
175	200
176	97
177	12
178	2
180	2
184	2
185	1
186	25
187	5
188	7
189	1
198	3
199	1
200	18
201	5
202	3
212	3
213	2
214	7
215	1
216	10
217	2
218	1
227	3
228	3
229	25
230	7
231	2
374	1
375	39
376	16
377	8
378	2
389	2
390	5
391	2
392	1
