Mass spectrum: Kaempferol-3-Galactoside-6''-Rhamnoside-3'''-Rhamnoside; LC-ESI-QTOF; MS2; CE:Ramp 5-60 V; [M+H]+
Name: Kaempferol-3-Galactoside-6''-Rhamnoside-3'''-Rhamnoside
Name: Kaem-3-Gal-6''-Rha-3''-Rha
Name: Kaempferol-3-Galactoside-6-Rhamnoside-3-Rhamnoside
Class: Flavonoid
Formula: C33H40O19
Exact mass: 740.21638
SMILES: C(C(COC(C5O)OC(C(C5OC([H])(O6)C(C(C(C(C)6)O)O)O)O)C)1)(C(O)C(C(OC(=C(c(c4)ccc(O)c4)3)C(=O)c(c2O3)c(cc(c2)O)O)O1)O)O
InChI: InChI=1S/C33H40O19/c1-10-19(37)23(41)25(43)32(48-10)51-29-20(38)11(2)47-31(27(29)45)46-9-17-21(39)24(42)26(44)33(50-17)52-30-22(40)18-15(36)7-14(35)8-16(18)49-28(30)12-3-5-13(34)6-4-12/h3-8,10-11,17,19-21,23-27,29,31-39,41-45H,9H2,1-2H3/t10-,11-,17+,19-,20-,21-,23+,24-,25+,26+,27+,29+,31+,32-,33-/m0/s1
Instrument: UPLC Q-Tof Premier, Waters
Instrument type: LC-ESI-QTOF
Ms type: MS2
Ion mode: POSITIVE
Collision energy: Ramp 5-60 V
Fragmentation mode: LOW-ENERGY CID
Ionization: ESI
Precursor m/z: 741.22419
Precursor type: [M+H]+
m/z	relative intensity
71.0514	37
85.0298	77
117.0557	21
129.0558	45
163.0607	41
287.0560	999
288.0597	45
449.1116	118
595.1708	43
741.2242	89
