Mass spectrum: UDP-D-Glucuronic acid; LC-ESI-QTOF; MS2; CE:Ramp 5-60 V; [M-H]-
Name: Uridine 5'-diphosphoglucuronic acid
Name: UDPGA
Name: UDP-GlcA
Name: UDP-Glucuronate
Name: Uridine-diphosphate-glucuronic acid
Name: UDP-Glucopyranosuronic Acid
Name: UDP-D-Glucuronic acid
Class: Nucleotide-carbohydrates
Formula: C15H22N2O18P2
Exact mass: 580.03428
SMILES: O=C(C=3)NC(=O)N(C3)[C@H](O1)[C@H](O)[C@H](O)[C@@H](COP(O)(=O)OP(O)(=O)O[C@@H](O2)[C@H](O)[C@@H](O)[C@H](O)[C@@H](C(O)=O)2)1
InChI: InChI=1S/C15H22N2O18P2/c18-5-1-2-17(15(26)16-5)12-9(22)6(19)4(32-12)3-31-36(27,28)35-37(29,30)34-14-10(23)7(20)8(21)11(33-14)13(24)25/h1-2,4,6-12,14,19-23H,3H2,(H,24,25)(H,27,28)(H,29,30)(H,16,18,26)/t4-,6-,7+,8+,9-,10-,11+,12-,14-/m1/s1
Instrument: UPLC Q-Tof Premier, Waters
Instrument type: LC-ESI-QTOF
Ms type: MS2
Ion mode: NEGATIVE
Collision energy: Ramp 5-60 V
Fragmentation mode: LOW-ENERGY CID
Ionization: ESI
Precursor m/z: 579.02649
Precursor type: [M-H]-
m/z	relative intensity
78.9602	563
96.9703	202
111.0203	301
158.9253	690
174.9807	33
192.9915	48
211.0030	33
254.9920	235
272.9568	168
290.9683	30
305.0202	112
323.0293	352
384.9875	141
402.9958	661
579.0265	999
