Mass spectrum: Glycyl-L-proline; LC-ESI-QTOF; MS2; CE:Ramp 5-60 V; [M-H]-
Name: Glycyl-L-proline
Name: Gly-Pro
Name: GP-OH
Name: Glycylproline
Class: Amino acids
Formula: C7H12N2O3
Exact mass: 172.08479
SMILES: NCC(=O)N(C1)C(CC1)C(O)=O
InChI: InChI=1S/C7H12N2O3/c8-4-6(10)9-3-1-2-5(9)7(11)12/h5H,1-4,8H2,(H,11,12)/t5-/m0/s1
Instrument: UPLC Q-Tof Premier, Waters
Instrument type: LC-ESI-QTOF
Ms type: MS2
Ion mode: NEGATIVE
Collision energy: Ramp 5-60 V
Fragmentation mode: LOW-ENERGY CID
Ionization: ESI
Precursor m/z: 171.07699
Precursor type: [M-H]-
m/z	relative intensity
98.0618	53
114.0558	999
127.0878	165
171.0770	920
