Mass spectrum: AMP; LC-ESI-QTOF; MS2; CE:Ramp 5-60 V; [M-H]-
Name: Adenosine 5'-monophosphate
Name: AMP
Name: A-5'-P
Name: 5'-Adenylic acid
Name: Phosphaden
Name: Adenovite
Class: Natural Product; Nucleoside; Phosphates
Formula: C10H14N5O7P
Exact mass: 347.06308
SMILES: Nc(n3)c(n2)c(nc3)n(c2)[C@H](O1)[C@H](O)[C@H](O)[C@@H](COP(O)(O)=O)1
InChI: InChI=1S/C10H14N5O7P/c11-8-5-9(13-2-12-8)15(3-14-5)10-7(17)6(16)4(22-10)1-21-23(18,19)20/h2-4,6-7,10,16-17H,1H2,(H2,11,12,13)(H2,18,19,20)/t4-,6-,7-,10-/m1/s1
Instrument: UPLC Q-Tof Premier, Waters
Instrument type: LC-ESI-QTOF
Ms type: MS2
Ion mode: NEGATIVE
Collision energy: Ramp 5-60 V
Fragmentation mode: LOW-ENERGY CID
Ionization: ESI
Precursor m/z: 346.05528
Precursor type: [M-H]-
m/z	relative intensity
78.9598	999
96.9698	379
134.0470	298
346.0553	667
