Mass spectrum: Kaempferol-3-Rhamnoside-4''-Rhamnoside-7-Rhamnoside; LC-ESI-QTOF; MS2; CE:Ramp 5-60 V; [M+H]+
Name: Kaempferol-3-Rhamnoside-4''-Rhamnoside-7-Rhamnoside
Name: Kaem-3-Rha-4''-Rha-7-Rha
Name: Cassinopin
Name: Kaempferol-3-Rhamnoside-4-Rhamnoside,-7-Rhamnoside
Class: Flavonoid
Formula: C33H40O18
Exact mass: 724.22146
SMILES: OC(C1O)C(O)C(Oc(c6)cc(c5c(O)6)OC(=C(C5=O)OC(C(O)3)OC(C)C(OC(O4)C(C(O)C(C4C)O)O)C3O)c(c2)ccc(O)c2)OC1C
InChI: InChI=1S/C33H40O18/c1-10-19(36)22(39)25(42)31(45-10)48-15-8-16(35)18-17(9-15)49-29(13-4-6-14(34)7-5-13)30(21(18)38)51-33-27(44)24(41)28(12(3)47-33)50-32-26(43)23(40)20(37)11(2)46-32/h4-12,19-20,22-28,31-37,39-44H,1-3H3
Instrument: UPLC Q-Tof Premier, Waters
Instrument type: LC-ESI-QTOF
Ms type: MS2
Ion mode: POSITIVE
Collision energy: Ramp 5-60 V
Fragmentation mode: LOW-ENERGY CID
Ionization: ESI
Precursor m/z: 725.22927
Precursor type: [M+H]+
m/z	relative intensity
71.0509	121
83.0502	73
85.0295	249
111.0448	81
129.0553	151
147.0658	44
153.0541	40
171.0656	22
239.0923	122
257.1018	32
275.1136	33
287.0555	999
288.0581	48
293.1229	20
433.1141	618
434.1191	36
579.1735	65
725.2292	144
