Mass spectrum: (S)-(+)-2-(anilinomethyl)pyrrolidine; GC-EI-TOF; MS; 2 TMS; BP:73
Name: (S)-(+)-2-(anilinomethyl)pyrrolidine
Class: Natural Product
Formula: C11H16N2
Exact mass: 176.13135
SMILES: c(c2)ccc(c2)NCC(C1)NCC1
InChI: InChI=1S/C11H16N2/c1-2-5-10(6-3-1)13-9-11-7-4-8-12-11/h1-3,5-6,11-13H,4,7-9H2
Instrument: Pegasus III TOF-MS system, Leco; GC 6890, Agilent Technologies
Instrument type: GC-EI-TOF
Ms type: MS
Ion mode: POSITIVE
Retention time: 478.096 sec
Base peak: 73
Derivative form: C17H32N2Si2
Derivative mass: 320.2104
Derivative type: 2 TMS
m/z	relative intensity
60	9
61	3
62	1
63	12
64	6
65	22
66	6
67	4
68	4
69	6
70	63
71	8
72	78
73	999
74	95
75	30
76	7
77	217
78	25
79	45
80	3
81	1
82	10
83	7
84	13
85	13
86	11
88	2
89	2
90	3
91	11
92	4
93	6
94	2
96	1
97	2
98	8
99	10
100	20
101	4
102	2
103	1
104	27
105	17
106	159
107	25
108	2
110	1
111	1
112	3
113	5
114	2
115	4
116	1
117	5
118	5
119	1
120	3
121	2
124	1
126	2
127	4
128	5
129	1
130	3
132	5
133	1
134	5
135	1
136	1
139	1
140	12
141	8
142	950
143	125
144	40
145	5
146	1
150	15
151	3
152	1
154	3
155	1
158	2
160	2
162	2
171	1
175	1
203	2
213	1
225	1
226	1
231	1
233	7
234	1
248	3
263	1
346	1
373	1
394	1
434	1
464	1
481	1
528	1
567	1
582	1
583	1
653	1
677	1
679	1
730	1
739	1
