Mass spectrum: L-Ascorbic acid; GC-EI-TOF; MS; 4 TMS; BP:73
Name: L-Ascorbic acid
Name: Ascorbic acid
Name: Ascorbate
Name: L-Ascorbate
Name: Vitamin C
Class: Natural Product
Formula: C6H8O6
Exact mass: 176.03209
SMILES: OC[C@H](O)[C@@H](O1)C(O)=C(O)C(=O)1
InChI: InChI=1S/C6H8O6/c7-1-2(8)5-3(9)4(10)6(11)12-5/h2,5,7-10H,1H2/t2-,5+/m0/s1
Instrument: Pegasus III TOF-MS system, Leco; GC 6890, Agilent Technologies
Instrument type: GC-EI-TOF
Ms type: MS
Ion mode: POSITIVE
Retention time: 485.199 sec
Base peak: 73
Derivative form: C18H40O6Si4
Derivative mass: 464.1902
Derivative type: 4 TMS
m/z	relative intensity
60	7
61	7
63	1
66	5
67	1
70	7
71	4
72	18
73	999
74	91
75	51
76	3
77	11
78	1
79	2
80	1
82	1
83	1
84	32
85	5
86	3
87	3
88	3
89	78
90	6
91	3
96	1
98	2
99	2
100	21
101	14
102	4
103	54
104	5
105	7
107	1
111	1
112	2
113	2
114	1
115	3
116	3
117	78
118	8
119	6
125	5
126	4
127	2
128	5
129	6
130	5
131	14
132	2
133	86
134	11
135	5
141	1
142	1
143	2
144	3
145	1
147	168
148	26
149	16
150	2
153	1
154	1
155	1
157	1
158	5
159	1
160	1
161	1
163	7
164	1
165	1
172	20
173	4
174	2
175	5
176	1
177	1
183	1
184	1
185	7
186	2
188	1
189	4
190	13
191	6
192	1
200	1
201	2
202	1
204	3
205	38
206	7
207	4
211	1
216	1
217	6
218	1
221	1
243	3
244	1
246	1
255	1
271	3
272	1
273	1
276	11
277	2
278	1
289	11
290	3
291	1
302	1
303	26
304	8
305	3
334	4
335	1
344	1
347	1
375	1
376	1
406	4
407	1
435	1
