Mass spectrum: L-Isoleucine; GC-EI-TOF; MS; 2 TMS; BP:73
Name: L-Isoleucine
Name: 2-Amino-3-methylvaleric acid
Class: Natural Product
Formula: C6H13NO2
Exact mass: 131.09463
SMILES: CC[C@H](C)[C@H](N)C(O)=O
InChI: InChI=1S/C6H13NO2/c1-3-4(2)5(7)6(8)9/h4-5H,3,7H2,1-2H3,(H,8,9)/t4-,5-/m0/s1
Instrument: Pegasus III TOF-MS system, Leco; GC 6890, Agilent Technologies
Instrument type: GC-EI-TOF
Ms type: MS
Ion mode: POSITIVE
Retention time: 311.392 sec
Base peak: 73
Derivative form: C12H29NO2Si2
Derivative mass: 275.17368
Derivative type: 2 TMS
m/z	relative intensity
60	22
61	17
62	1
63	1
65	1
66	7
67	2
69	24
70	13
71	7
73	999
74	111
75	81
76	7
77	7
80	1
81	1
82	3
83	3
84	13
85	8
86	43
87	7
88	3
89	2
90	9
91	1
96	6
97	5
98	9
99	7
100	139
101	26
102	44
103	22
104	3
105	4
110	1
111	1
112	4
113	2
114	21
115	11
116	9
117	13
118	4
119	6
126	2
127	1
128	17
129	8
130	15
131	15
132	22
133	28
134	6
135	2
142	14
143	9
144	4
145	1
146	6
147	107
148	18
149	9
150	1
156	4
157	1
158	710
159	121
160	41
161	4
163	3
170	12
171	2
172	1
174	3
175	1
188	1
203	6
204	1
216	1
218	166
219	36
220	16
221	2
232	35
233	12
234	5
235	1
246	1
260	9
261	2
