Mass spectrum: Sucrose; LC-ESI-QTOF; MS2; CE:Ramp 5-60 V; [M-H]-
Name: Sucrose
Name: Suc
Name: Fru(beta2-1alpha)Glc
Name: D-(+)-Saccharose
Name: Cane sugar
Name: alpha-D-Glucopyranosyl beta-D-fructofuranoside
Name: Microse
Class: Disaccharide
Formula: C12H22O11
Exact mass: 342.11621
SMILES: OC[C@@H](O1)[C@@H](O)[C@H](O)[C@@H](O)[C@H]1O[C@](CO)(O2)[C@@H](O)[C@H](O)[C@@H](CO)2
InChI: InChI=1S/C12H22O11/c13-1-4-6(16)8(18)9(19)11(21-4)23-12(3-15)10(20)7(17)5(2-14)22-12/h4-11,13-20H,1-3H2/t4-,5-,6-,7-,8+,9-,10+,11-,12+/m1/s1
Instrument: UPLC Q-Tof Premier, Waters
Instrument type: LC-ESI-QTOF
Ms type: MS2
Ion mode: NEGATIVE
Collision energy: Ramp 5-60 V
Fragmentation mode: LOW-ENERGY CID
Ionization: ESI
Precursor m/z: 341.10841
Precursor type: [M-H]-
m/z	relative intensity
59.0153	418
71.0149	800
85.0298	99
89.0247	687
101.0245	569
113.0244	335
119.0350	231
131.0348	65
143.0344	96
161.0453	135
179.0558	490
341.1084	999
