Mass spectrum: Glycocyamine; LC-ESI-QTOF; MS2; CE:Ramp 5-60 V; [M-H]-
Name: Glycocyamine
Name: Guanidineacetic acid
Name: Guanidoacetate
Name: Guanidinoacetate
Name: N-Amidinoglycine
Name: N-Guanylglycine
Name: Betacyamine
Name: Betasyamine
Name: Glykocyamin
Class: Amino acids
Formula: C3H7N3O2
Exact mass: 117.05383
SMILES: NC(=N)NCC(O)=O
InChI: InChI=1S/C3H7N3O2/c4-3(5)6-1-2(7)8/h1H2,(H,7,8)(H4,4,5,6)
Instrument: UPLC Q-Tof Premier, Waters
Instrument type: LC-ESI-QTOF
Ms type: MS2
Ion mode: NEGATIVE
Collision energy: Ramp 5-60 V
Fragmentation mode: LOW-ENERGY CID
Ionization: ESI
Precursor m/z: 116.04602
Precursor type: [M-H]-
m/z	relative intensity
74.0261	999
115.9213	55
116.0460	99
