Mass spectrum: Homoorientin; LC-ESI-QTOF; MS2; CE:Ramp 5-60 V; [M-H]-
Name: Homoorientin
Name: Lutl-6-C-Glc
Name: Isoorientin
Name: luteolin-6-C-glucoside
Name: luteolin- 6-C-beta-D-glucopyranoside
Name: Homoorietin
Class: Flavonoid
Formula: C21H20O11
Exact mass: 448.10056
SMILES: OCC(C(O)4)OC(C(O)C(O)4)c(c(O)1)c(O)c(C(=O)3)c(OC(=C3)c(c2)cc(O)c(O)c2)c1
InChI: InChI=1S/C21H20O11/c22-6-14-17(27)19(29)20(30)21(32-14)16-11(26)5-13-15(18(16)28)10(25)4-12(31-13)7-1-2-8(23)9(24)3-7/h1-5,14,17,19-24,26-30H,6H2/t14-,17-,19+,20-,21+/m1/s1
Instrument: UPLC Q-Tof Premier, Waters
Instrument type: LC-ESI-QTOF
Ms type: MS2
Ion mode: NEGATIVE
Collision energy: Ramp 5-60 V
Fragmentation mode: LOW-ENERGY CID
Ionization: ESI
Precursor m/z: 447.09276
Precursor type: [M-H]-
m/z	relative intensity
133.0302	306
163.0047	72
175.0408	64
284.0350	127
285.0431	241
297.0429	405
298.0510	305
299.0592	249
311.0582	110
327.0530	999
339.0535	132
357.0641	785
429.0859	109
447.0928	949
