Mass spectrum: S-Adenosyl-L-homocysteine; LC-ESI-QTOF; MS2; CE:Ramp 5-60 V; [M+H]+
Name: S-Adenosyl-L-homocysteine
Name: AdoHcy
Name: S-Adenosylhomocysteine
Name: 5'-Deoxy-S-adenosyl-L-homocysteine
Name: S-(5'-Deoxyadenosine-5')-L-homocysteine
Name: Formycinylhomocysteine
Class: Amino acids
Formula: C14H20N6O5S
Exact mass: 384.12159
SMILES: OC(=O)[C@@H](N)CCSC[C@@H](O1)[C@@H](O)[C@@H](O)[C@@H]1n(c3)c(n2)c(n3)c(N)nc2
InChI: InChI=1S/C14H20N6O5S/c15-6(14(23)24)1-2-26-3-7-9(21)10(22)13(25-7)20-5-19-8-11(16)17-4-18-12(8)20/h4-7,9-10,13,21-22H,1-3,15H2,(H,23,24)(H2,16,17,18)/t6-,7+,9+,10+,13+/m0/s1
Instrument: UPLC Q-Tof Premier, Waters
Instrument type: LC-ESI-QTOF
Ms type: MS2
Ion mode: POSITIVE
Collision energy: Ramp 5-60 V
Fragmentation mode: LOW-ENERGY CID
Ionization: ESI
Precursor m/z: 385.12938
Precursor type: [M+H]+
m/z	relative intensity
88.0226	511
134.0285	662
136.0631	999
250.0764	123
385.1294	201
