Mass spectrum: N-Formyl-L-Methionine; GC-EI-TOF; MS; 2 TMS; BP:73
Name: N-Formyl-L-Methionine
Class: Natural Product
Formula: C6H11NO3S
Exact mass: 177.04596
SMILES: [H]C(=O)N[C@@H](CCSC)C(O)=O
InChI: InChI=1S/C6H11NO3S/c1-11-3-2-5(6(9)10)7-4-8/h4-5H,2-3H2,1H3,(H,7,8)(H,9,10)/t5-/m0/s1
Instrument: Pegasus III TOF-MS system, Leco; GC 6890, Agilent Technologies
Instrument type: GC-EI-TOF
Ms type: MS
Ion mode: POSITIVE
Retention time: 449.121 sec
Base peak: 73
Derivative form: C12H27NO3SSi2
Derivative mass: 321.12502
Derivative type: 2 TMS
m/z	relative intensity
60	20
61	507
62	23
63	25
64	1
65	1
66	7
67	5
68	3
69	2
70	16
71	13
72	33
73	999
74	131
75	267
76	27
77	51
78	6
79	24
80	2
82	3
83	3
84	43
85	30
86	12
87	23
88	7
89	5
90	1
91	7
92	2
93	2
94	1
97	3
98	24
99	11
100	152
101	24
102	68
103	18
104	7
105	12
106	1
107	2
110	1
111	1
112	3
113	3
114	30
115	14
116	9
117	9
118	10
119	7
120	1
121	1
124	1
126	3
127	1
128	25
129	187
130	35
131	21
132	5
133	26
134	4
135	3
140	2
141	1
142	66
143	9
144	16
145	3
146	1
147	87
148	14
149	16
150	2
151	1
156	33
157	175
158	45
159	18
160	6
161	5
162	2
163	4
170	21
171	3
172	7
173	1
174	4
175	5
176	15
177	3
178	1
186	5
187	1
188	11
189	3
190	1
191	4
192	1
202	7
203	3
204	28
205	5
206	3
216	2
218	7
219	1
230	14
231	4
232	4
233	1
246	1
247	100
248	21
249	10
250	11
251	2
252	1
260	50
261	11
262	5
278	11
279	3
280	2
306	17
307	4
308	2
321	3
