Mass spectrum: beta-D-(+)-Glucose; GC-EI-TOF; MS; 5 TMS; 1 MEOX; BP:73
Name: beta-D-(+)-Glucose
Name: beta-D-Glucose
Class: Natural Product
Formula: C6H12O6
Exact mass: 180.06339
SMILES: OCC(O1)C(O)C(O)C(O)C(O)1
InChI: InChI=1S/C6H12O6/c7-1-2-3(8)4(9)5(10)6(11)12-2/h2-11H,1H2/t2-,3-,4+,5-,6-/m1/s1
Instrument: Pegasus III TOF-MS system, Leco; GC 6890, Agilent Technologies
Instrument type: GC-EI-TOF
Ms type: MS
Ion mode: POSITIVE
Retention time: 463.951 sec
Base peak: 73
Derivative form: C22H55NO6Si5
Derivative mass: 569.28757
Derivative type: 5 TMS; 1 MEOX
m/z	relative intensity
60	4
61	5
66	4
67	2
69	2
70	3
71	3
72	15
73	999
74	83
75	54
76	4
77	4
81	1
82	2
83	12
84	2
85	3
86	2
87	3
88	3
89	57
90	5
91	3
96	2
97	3
98	1
99	3
100	13
101	12
102	7
103	151
104	15
105	15
106	2
111	2
113	3
114	3
115	4
116	4
117	59
118	6
119	7
126	1
127	2
128	1
129	79
130	13
131	20
132	3
133	54
134	7
135	4
141	1
142	2
143	9
144	1
145	2
146	1
147	198
148	32
149	19
150	2
151	1
154	1
157	54
158	8
159	5
160	81
161	16
162	4
163	6
164	1
169	3
172	2
173	2
174	1
175	3
177	5
178	1
186	3
187	1
188	1
189	17
190	5
191	8
192	1
196	1
201	4
202	1
203	3
204	16
205	124
206	25
207	12
208	2
210	1
214	3
215	1
216	1
217	51
218	11
219	5
220	1
221	3
222	1
229	15
230	4
231	3
232	1
233	8
234	2
235	4
236	1
242	1
243	1
244	1
245	1
246	1
247	1
268	1
269	1
273	1
274	1
277	3
278	1
291	4
292	1
300	1
305	2
306	1
307	3
308	1
318	2
319	93
320	29
321	14
322	2
