Mass spectrum: L-Carnitine; LC-ESI-QTOF; MS2; CE:30 V; [M+H]+
Name: L-Carnitine
Name: Vitamin BT
Name: (-)-beta-Hydroxy-gamma-(trimethylammonio)butyrate
Name: Levocarnitine
Name: L-gamma-Trimethyl-beta-hydroxybutyrobetaine
Class: Carnitine
Formula: C7H15NO3
Exact mass: 161.10519
SMILES: [O-1]C(=O)C[C@H](O)C[N+1](C)(C)C
InChI: InChI=1S/C7H15NO3/c1-8(2,3)5-6(9)4-7(10)11/h6,9H,4-5H2,1-3H3/t6-/m1/s1
Instrument: UPLC Q-Tof Premier, Waters
Instrument type: LC-ESI-QTOF
Ms type: MS2
Ion mode: POSITIVE
Collision energy: 30 V
Fragmentation mode: LOW-ENERGY CID
Ionization: ESI
Precursor m/z: 162.11299
Precursor type: [M+H]+
m/z	relative intensity
57.0337	52
58.0661	426
59.0737	143
60.0819	395
61.0322	29
85.0287	999
102.0911	696
103.0393	405
162.1130	28
