Mass spectrum: Cyanidin; LC-ESI-QTOF; MS2; CE:30 eV; [M]+
Name: 3,3',4',5,7-pentahydroxy flavylium
Name: Cyanidin
Name: Cynd
Name: 2-(3,4-dihydroxyphenyl)chromene-3,5,7-triol
Class: Natural Product
Formula: [C15H11O6]+
Exact mass: 287.05556
SMILES: Oc(c3)c(O)cc(c3)c([o+1]1)c(O)cc(c(O)2)c(cc(O)c2)1
InChI: InChI=1S/C15H10O6/c16-8-4-11(18)9-6-13(20)15(21-14(9)5-8)7-1-2-10(17)12(19)3-7/h1-6H,(H4-,16,17,18,19,20)/p+1
Instrument: UPLC Q-Tof Premier, Waters
Instrument type: LC-ESI-QTOF
Ms type: MS2
Ion mode: POSITIVE
Collision energy: 30 eV
Fragmentation mode: LOW-ENERGY CID
Ionization: ESI
Full scan fragment ion peak: 287.1
Ion type: [M]+
m/z	relative intensity
68.9872	100
81.0261	91
91.0486	32
93.0281	33
105.0657	33
109.0247	349
109.0786	39
111.0044	35
115.0515	204
117.0671	33
121.0260	354
121.0823	38
123.0417	92
127.0522	71
128.0603	147
129.0682	148
131.0483	34
133.0634	31
137.0221	956
137.0819	93
138.0262	30
139.0533	180
141.0691	62
143.0483	140
145.0647	50
147.0435	105
149.0230	147
150.0300	47
157.0647	318
160.0517	38
161.0599	91
163.0389	50
165.0183	86
167.0495	117
168.0570	49
171.0444	157
175.0392	74
175.0761	41
177.0184	66
184.0521	55
185.0603	299
187.0394	34
188.0473	42
189.0546	80
195.0443	45
199.0395	64
201.0553	30
203.0715	30
212.0476	33
213.0553	843
213.1290	61
214.0603	57
216.0422	128
231.0654	132
240.0430	31
241.0500	338
242.0568	105
258.0521	41
269.0449	89
287.0556	999
287.1406	64
288.0597	57
