Mass spectrum: D-(+)-Glucose; GC-EI-TOF; MS; 5 TMS; 1 MEOX; BP:73
Name: D-(+)-Glucose
Name: Grape sugar
Name: Dextrose
Name: D-Glucose
Class: Natural Product
Formula: C6H12O6
Exact mass: 180.06339
SMILES: OC[C@@H](O1)[C@@H](O)[C@H](O)[C@@H](O)C(O)1
InChI: InChI=1S/C6H12O6/c7-1-2-3(8)4(9)5(10)6(11)12-2/h2-11H,1H2/t2-,3-,4+,5-,6?/m1/s1
Instrument: Pegasus III TOF-MS system, Leco; GC 6890, Agilent Technologies
Instrument type: GC-EI-TOF
Ms type: MS
Ion mode: POSITIVE
Retention time: 459.397 sec
Base peak: 73
Derivative form: C22H55NO6Si5
Derivative mass: 569.28757
Derivative type: 5 TMS; 1 MEOX
m/z	relative intensity
60	5
61	7
66	5
67	4
69	1
70	4
71	3
72	17
73	999
74	86
75	63
76	5
77	6
81	1
82	5
83	14
84	4
85	4
86	5
87	5
88	4
89	59
90	5
91	2
97	2
98	1
99	4
100	13
101	16
102	9
103	117
104	12
105	26
106	2
107	1
110	1
111	2
112	1
113	3
114	11
115	7
116	6
117	78
118	8
119	8
126	1
127	3
128	3
129	98
130	18
131	23
132	4
133	53
134	7
135	4
141	1
142	4
143	12
144	2
145	6
146	1
147	247
148	38
149	24
150	2
151	1
155	1
156	1
157	67
158	12
159	5
160	123
161	22
162	6
163	7
164	1
168	1
169	1
170	1
172	3
173	3
174	1
175	3
176	1
177	3
186	2
187	1
188	1
189	22
190	6
191	11
192	2
193	1
200	1
201	7
202	2
203	3
204	23
205	159
206	31
207	16
208	2
210	2
215	2
216	6
217	73
218	15
219	7
220	1
221	5
222	1
229	19
230	6
231	8
232	3
233	5
234	2
235	1
243	1
244	2
245	1
246	2
247	1
256	1
262	3
263	1
268	1
269	1
270	1
274	3
275	1
276	1
277	4
278	1
291	6
292	1
293	1
300	1
305	4
306	1
307	3
308	1
318	1
319	123
320	37
321	18
322	3
364	2
365	1
374	1
