Mass spectrum: 1-Methylnicotinamide; LC-ESI-QTOF; MS2; CE:Ramp 5-60 V; [M]+
Name: 1-Methylnicotinamide
Name: N-Methylnicotinic acid amide
Name: 3-Carbamoyl-1-methylpyridinium
Name: Nicotinamide methiodide
Class: Nicotinamide
Formula: [C7H9N2O]+
Exact mass: 137.07149
SMILES: NC(=O)c(c1)c[n+1](C)cc1
InChI: InChI=1S/C7H8N2O/c1-9-4-2-3-6(5-9)7(8)10/h2-5H,1H3,(H-,8,10)/p+1
Instrument: UPLC Q-Tof Premier, Waters
Instrument type: LC-ESI-QTOF
Ms type: MS2
Ion mode: POSITIVE
Collision energy: Ramp 5-60 V
Fragmentation mode: LOW-ENERGY CID
Ionization: ESI
Precursor m/z: 137.07146
Precursor type: [M]+
m/z	relative intensity
78.0370	93
92.0527	191
94.0681	466
137.0715	999
