Mass spectrum: DL-2-Hydroxyvaleric acid; LC-ESI-QTOF; MS2; CE:Ramp 5-60 V; [M-H]-
Name: DL-2-Hydroxyvaleric acid
Name: 2-hydroxy-pentanoic acid
Class: Hydroxy fatty acids
Formula: C5H10O3
Exact mass: 118.06299
SMILES: CCCC(O)C(O)=O
InChI: InChI=1S/C5H10O3/c1-2-3-4(6)5(7)8/h4,6H,2-3H2,1H3,(H,7,8)
Instrument: UPLC Q-Tof Premier, Waters
Instrument type: LC-ESI-QTOF
Ms type: MS2
Ion mode: NEGATIVE
Collision energy: Ramp 5-60 V
Fragmentation mode: LOW-ENERGY CID
Ionization: ESI
Precursor m/z: 117.05519
Precursor type: [M-H]-
m/z	relative intensity
71.0507	630
116.9296	39
117.0552	999
