Mass spectrum: (+)-Epicatechin; LC-ESI-QTOF; MS2; CE:Ramp 5-60 V; [M-H]-
Name: (+)-Epicatechin
Name: EpCt-pl
Name: ent-Epicatechin
Name: Epicatechol
Name: (+)-3,3',4',5,7-Pentahydroxyflavan
Class: Flavonoid
Formula: C15H14O6
Exact mass: 290.07904
SMILES: Oc(c3)c(O)cc(c3)[C@H](O1)[C@@H](O)Cc(c(O)2)c(cc(O)c2)1
InChI: InChI=1S/C15H14O6/c16-8-4-11(18)9-6-13(20)15(21-14(9)5-8)7-1-2-10(17)12(19)3-7/h1-5,13,15-20H,6H2/t13-,15-/m0/s1
Instrument: UPLC Q-Tof Premier, Waters
Instrument type: LC-ESI-QTOF
Ms type: MS2
Ion mode: NEGATIVE
Collision energy: Ramp 5-60 V
Fragmentation mode: LOW-ENERGY CID
Ionization: ESI
Precursor m/z: 289.07123
Precursor type: [M-H]-
m/z	relative intensity
97.0302	126
109.0299	466
121.0301	110
123.0456	422
125.0251	276
137.0249	179
151.0406	171
161.0616	110
179.0357	112
187.0406	91
203.0720	249
205.0519	203
245.0830	362
289.0712	999
