Mass spectrum: D-Erythrose-4-phosphate; LC-ESI-QTOF; MS2; CE:Ramp 5-60 V; [M-H]-
Name: D-Erythrose-4-phosphate
Name: D-erythrose-4P
Name: 4-Phospho-D-erythrose
Class: Natural Product; Carbohydrate; Phosphates
Formula: C4H9O7P
Exact mass: 200.00859
SMILES: [H]C(=O)C(O)C(O)COP(O)(O)=O
InChI: InChI=1S/C4H9O7P/c5-1-3(6)4(7)2-11-12(8,9)10/h1,3-4,6-7H,2H2,(H2,8,9,10)/t3-,4+/m0/s1
Instrument: UPLC Q-Tof Premier, Waters
Instrument type: LC-ESI-QTOF
Ms type: MS2
Ion mode: NEGATIVE
Collision energy: Ramp 5-60 V
Fragmentation mode: LOW-ENERGY CID
Ionization: ESI
Precursor m/z: 199.00079
Precursor type: [M-H]-
m/z	relative intensity
78.9602	716
96.9703	999
138.9800	85
154.9088	32
199.0008	33
