Mass spectrum: (+)-Epicatechin; LC-ESI-QTOF; MS2; CE:Ramp 5-60 V; [M+H]+
Name: (+)-Epicatechin
Name: EpCt-pl
Name: ent-Epicatechin
Name: Epicatechol
Name: (+)-3,3',4',5,7-Pentahydroxyflavan
Class: Flavonoid
Formula: C15H14O6
Exact mass: 290.07904
SMILES: Oc(c3)c(O)cc(c3)[C@H](O1)[C@@H](O)Cc(c(O)2)c(cc(O)c2)1
InChI: InChI=1S/C15H14O6/c16-8-4-11(18)9-6-13(20)15(21-14(9)5-8)7-1-2-10(17)12(19)3-7/h1-5,13,15-20H,6H2/t13-,15-/m0/s1
Instrument: UPLC Q-Tof Premier, Waters
Instrument type: LC-ESI-QTOF
Ms type: MS2
Ion mode: POSITIVE
Collision energy: Ramp 5-60 V
Fragmentation mode: LOW-ENERGY CID
Ionization: ESI
Precursor m/z: 291.08683
Precursor type: [M+H]+
m/z	relative intensity
123.0450	794
139.0397	999
147.0451	242
161.0609	99
165.0558	148
291.0868	155
