Mass spectrum: Genistein; LC-ESI-QTOF; MS2; CE:30 eV; [M-H]-
Name: 4',5,7-trihydroxyisoflavone
Name: Genistein
Name: Gens
Name: 5,7-dihydroxy-3-(4-hydroxyphenyl)chromen-4-one
Class: Natural Product
Formula: C15H10O5
Exact mass: 270.05282
SMILES: Oc(c3)ccc(c3)C(=C1)C(=O)c(c(O)2)c(cc(O)c2)O1
InChI: InChI=1S/C15H10O5/c16-9-3-1-8(2-4-9)11-7-20-13-6-10(17)5-12(18)14(13)15(11)19/h1-7,16-18H
Instrument: UPLC Q-Tof Premier, Waters
Instrument type: LC-ESI-QTOF
Ms type: MS2
Ion mode: NEGATIVE
Collision energy: 30 eV
Fragmentation mode: LOW-ENERGY CID
Ionization: ESI
Full scan fragment ion peak: 269.04
Ion type: [M-H]-
m/z	relative intensity
63.0702	123
65.0276	82
77.0768	24
83.0211	37
89.0595	63
91.0549	176
91.9634	30
105.0659	85
105.9782	22
107.0497	232
107.8089	27
114.9693	20
117.0889	73
119.0844	23
123.0513	38
128.9860	25
130.0214	45
131.0755	83
132.0664	290
133.0557	999
133.9624	227
135.0580	413
135.9138	66
136.8202	28
141.0467	42
143.0737	50
145.0572	26
151.0260	69
152.0056	26
154.0720	41
155.0772	121
156.0519	75
157.0531	163
158.0000	79
159.0722	344
159.8858	46
161.0839	31
167.0948	50
168.0993	38
169.1026	80
170.0317	24
171.0786	61
171.9733	22
173.0701	44
178.9771	22
180.0948	193
181.0542	134
182.0383	95
183.0535	158
183.9426	34
184.9512	28
195.0648	71
196.0605	100
197.0564	55
198.0570	37
199.0384	48
201.0718	82
211.0919	28
213.0498	52
223.0404	93
224.0430	138
225.0337	59
225.9780	22
227.0727	29
239.0484	50
240.0233	40
241.0411	30
269.0671	259
269.9571	37
