Mass spectrum: Uridine 5'-diphospho-N-acetylglucosamine; LC-ESI-QTOF; MS2; CE:30 V; [M-H]-
Name: Uridine 5'-diphospho-N-acetylglucosamine
Name: UDPAG
Name: UDP-GlcNAc
Name: UDP-N-acetylglucosamine
Class: Nucleotide-carbohydrates
Formula: C17H27N3O17P2
Exact mass: 607.08157
SMILES: OCC(O1)C(O)C(O)C(NC(C)=O)C1OP(O)(=O)OP(O)(=O)OCC(O2)C(O)C(O)C2N(C=3)C(=O)NC(=O)C3
InChI: InChI=1S/C17H27N3O17P2/c1-6(22)18-10-13(26)11(24)7(4-21)35-16(10)36-39(31,32)37-38(29,30)33-5-8-12(25)14(27)15(34-8)20-3-2-9(23)19-17(20)28/h2-3,7-8,10-16,21,24-27H,4-5H2,1H3,(H,18,22)(H,29,30)(H,31,32)(H,19,23,28)/t7-,8-,10-,11-,12-,13-,14-,15-,16-/m1/s1
Instrument: UPLC Q-Tof Premier, Waters
Instrument type: LC-ESI-QTOF
Ms type: MS2
Ion mode: NEGATIVE
Collision energy: 30 V
Fragmentation mode: LOW-ENERGY CID
Ionization: ESI
Precursor m/z: 606.07377
Precursor type: [M-H]-
m/z	relative intensity
78.9599	758
96.9698	312
111.0203	214
158.9251	884
174.9800	111
176.9359	398
260.9575	143
264.0286	69
272.9576	999
282.0388	748
300.0489	127
305.0190	153
323.0292	171
343.9947	59
362.0050	151
384.9844	722
402.9955	164
606.0738	56
