Mass spectrum: DL-alpha,epsilon-Diaminopimelic acid; LC-ESI-QTOF; MS2; CE:Ramp 5-60 V; [M-H]-
Name: DL-alpha,epsilon-Diaminopimelic acid
Name: DL-Dapm
Name: M-DAP
Name: DL-2,6-Diaminoheptanedioic acid
Name: DL-2,6-Diaminopimelate
Class: Amino acids
Formula: C7H14N2O4
Exact mass: 190.09536
SMILES: OC(=O)C(N)CCCC(N)C(O)=O
InChI: InChI=1S/C7H14N2O4/c8-4(6(10)11)2-1-3-5(9)7(12)13/h4-5H,1-3,8-9H2,(H,10,11)(H,12,13)
Instrument: UPLC Q-Tof Premier, Waters
Instrument type: LC-ESI-QTOF
Ms type: MS2
Ion mode: NEGATIVE
Collision energy: Ramp 5-60 V
Fragmentation mode: LOW-ENERGY CID
Ionization: ESI
Precursor m/z: 189.08755
Precursor type: [M-H]-
m/z	relative intensity
111.0460	124
127.0871	92
128.0717	390
171.0763	184
189.0876	999
