Mass spectrum: 1-Methyl-2-pyridinium aldoxime; LC-ESI-QTOF; MS2; CE:Ramp 5-60 V; [M]+
Name: 1-Methyl-2-pyridinium aldoxime
Name: Pyridine-2-aldoxime methochloride
Name: 2-PAM
Name: Pralidoxime chloride
Name: Protopam chloride
Name: 2-Formyl-1-methylpyridinium chloride oxime
Name: Pyridine-2-carbaldoxime Methochloride
Name: 1-Methyl-2-aldoximinopyridinium chloride
Name: Pyridine-2-aldoxime
Name: Pralidoxime
Class: Pyridines
Formula: [C7H9N2O]+
Exact mass: 137.07149
SMILES: ON=Cc(c1)[n+1](C)ccc1
InChI: InChI=1S/C7H8N2O/c1-9-5-3-2-4-7(9)6-8-10/h2-6H,1H3/p+1
Instrument: UPLC Q-Tof Premier, Waters
Instrument type: LC-ESI-QTOF
Ms type: MS2
Ion mode: POSITIVE
Collision energy: Ramp 5-60 V
Fragmentation mode: LOW-ENERGY CID
Ionization: ESI
Derivative form: C7H9N2O.Cl
Derivative mass: 172.61
Precursor m/z: 137.07146
Precursor type: [M]+
m/z	relative intensity
92.0523	145
93.0595	856
119.0627	999
120.0714	283
137.0715	922
