Mass spectrum: Callistephin; LC-ESI-QTOF; MS2; CE:30 V; [M-2H+H2O]-
Name: pelargonidin-3-O-glucoside
Name: pelargonidin 3-O-beta-D-glucopyranoside
Name: Callistephin
Class: Natural Product
Formula: [C21H21O10]+
Exact mass: 433.11347
SMILES: OCC(O1)C(O)C(O)C(O)C1Oc(c3)c([o+1]c(c4)c(c(O)cc(O)4)3)c(c2)ccc(O)c2
InChI: InChI=1S/C21H20O10/c22-8-16-17(26)18(27)19(28)21(31-16)30-15-7-12-13(25)5-11(24)6-14(12)29-20(15)9-1-3-10(23)4-2-9/h1-7,16-19,21-22,26-28H,8H2,(H2-,23,24,25)/p+1/t16-,17-,18+,19-,21-/m1/s1
Instrument: UPLC Q-Tof Premier, Waters
Instrument type: LC-ESI-QTOF
Ms type: MS2
Ion mode: NEGATIVE
Collision energy: 30 V
Fragmentation mode: LOW-ENERGY CID
Ionization: ESI
Full scan fragment ion peak: 449.1
Ion type: [M-2H+H2O]-
m/z	relative intensity
92.0462	41
93.0520	157
97.0543	32
107.0407	32
117.1146	43
120.0568	134
121.0482	128
123.0038	49
125.0490	42
137.0604	257
138.0050	60
139.0670	44
147.0517	53
148.0710	62
149.0601	999
149.9156	140
150.9223	49
159.0937	54
160.0359	42
163.0071	53
164.0285	245
165.0435	779
165.9564	205
167.0256	160
168.0028	50
168.9840	32
171.1103	30
173.0949	53
177.0089	32
183.0053	42
192.0390	421
193.0152	415
193.9110	79
194.8885	31
197.0046	42
199.0589	53
201.0768	145
201.9413	40
202.9503	32
219.1162	53
224.1080	32
225.1132	113
226.9492	35
241.0336	45
243.0986	41
268.0354	38
269.0670	646
269.9722	137
270.8754	32
287.0907	36
