Mass spectrum: Petunidin; LC-ESI-QTOF; MS2; CE:Ramp 5-60 V; [M]+
Name: Petunidin
Name: Pt
Name: Petunidol
Name: Myrtillidin
Name: 3,3',4',5,7-Pentahydroxy-5'-methoxy flavylium
Name: 2-(3,4-Dihydroxy-5-methoxyphenyl)-3,5,7-trihydroxy-1-benzopyrylium
Class: Anthocyanidin
Formula: [C16H13O7]+
Exact mass: 317.06613
SMILES: COc(c1)c(O)c(O)cc1c([o+1]2)c(O)cc(c(O)3)c(cc(O)c3)2
InChI: InChI=1S/C16H12O7/c1-22-14-3-7(2-11(19)15(14)21)16-12(20)6-9-10(18)4-8(17)5-13(9)23-16/h2-6H,1H3,(H4-,17,18,19,20,21)/p+1
Instrument: UPLC Q-Tof Premier, Waters
Instrument type: LC-ESI-QTOF
Ms type: MS2
Ion mode: POSITIVE
Collision energy: Ramp 5-60 V
Fragmentation mode: LOW-ENERGY CID
Ionization: ESI
Derivative form: C16H13O7.Cl
Derivative mass: 352.72
Precursor m/z: 317.0661
Precursor type: [M]+
m/z	relative intensity
121.0289	425
177.0177	422
191.0027	434
192.0037	304
192.9998	777
207.0333	940
208.0355	696
209.0297	999
224.0689	358
225.0586	641
257.0491	753
283.0393	377
285.0345	345
317.0661	964
