Mass spectrum: Luteolin-7-O-glucoside; LC-ESI-QTOF; MS2; CE:Ramp 5-60 V; [M-H]-
Name: Luteolin-7-O-glucoside
Name: Lutl-7-Glc
Name: Cynaroside
Name: Cinaroside
Name: Glucoluteolin
Name: 7-Glucosylluteolin
Name: Luteoloside
Name: Luteolin 7-O-beta-D-glucoside
Name: Luteolin 7-O-glucopyranoside
Name: 7-O-beta-D-Glucosyl-5,7,3',4'-tetrahydroxyflavone
Name: 2-(3,4-Dihydroxyphenyl)-7-(beta-D-glucopyranosyloxy)-5-hydroxy-4H-1-benzopyran-4-one
Class: Flavonoid
Formula: C21H20O11
Exact mass: 448.10056
SMILES: OC[C@@H](O1)[C@@H](O)[C@H](O)[C@@H](O)[C@@H]1Oc(c4)cc(O2)c(c(O)4)C(=O)C=C2c(c3)cc(O)c(O)c3
InChI: InChI=1S/C21H20O11/c22-7-16-18(27)19(28)20(29)21(32-16)30-9-4-12(25)17-13(26)6-14(31-15(17)5-9)8-1-2-10(23)11(24)3-8/h1-6,16,18-25,27-29H,7H2/t16-,18-,19+,20-,21-/m1/s1
Instrument: UPLC Q-Tof Premier, Waters
Instrument type: LC-ESI-QTOF
Ms type: MS2
Ion mode: NEGATIVE
Collision energy: Ramp 5-60 V
Fragmentation mode: LOW-ENERGY CID
Ionization: ESI
Precursor m/z: 447.09276
Precursor type: [M-H]-
m/z	relative intensity
107.0145	52
133.0300	68
151.0047	72
199.0414	30
227.0359	39
256.0395	60
284.0346	655
285.0419	999
447.0928	820
