Mass spectrum: Quercetin-3-Glucuronide; LC-ESI-QTOF; MS2; CE:Ramp 5-60 V; [M-H]-
Name: Quercetin-3-Glucuronide
Name: Quer-3-GlcA
Name: Miquelianin
Name: Querciturone
Class: Flavonoid
Formula: C21H18O13
Exact mass: 478.07474
SMILES: OC(=O)C(O1)C(O)C(O)C(O)C1OC(C(=O)3)=C(Oc(c4)c(c(O)cc(O)4)3)c(c2)cc(O)c(O)c2
InChI: InChI=1S/C21H18O13/c22-7-4-10(25)12-11(5-7)32-17(6-1-2-8(23)9(24)3-6)18(13(12)26)33-21-16(29)14(27)15(28)19(34-21)20(30)31/h1-5,14-16,19,21-25,27-29H,(H,30,31)/t14-,15-,16+,19-,21+/m0/s1
Instrument: UPLC Q-Tof Premier, Waters
Instrument type: LC-ESI-QTOF
Ms type: MS2
Ion mode: NEGATIVE
Collision energy: Ramp 5-60 V
Fragmentation mode: LOW-ENERGY CID
Ionization: ESI
Precursor m/z: 477.06692
Precursor type: [M-H]-
m/z	relative intensity
107.0143	79
109.0299	57
121.0298	84
151.0035	352
163.0036	63
178.9989	169
255.0311	71
301.0353	999
302.0432	82
477.0669	472
478.0759	51
