Mass spectrum: Sinapoyl malate; LC-ESI-QTOF; MS2; CE:Ramp 5-60 V; [M+H]+
Name: Sinapoyl malate
Name: Sinapoyl-(S)-malate
Name: 2-O-sinapoylmalate
Class: Carboxylic ester
Formula: C15H16O9
Exact mass: 340.07943
SMILES: OC(=O)CC(C(O)=O)OC(=O)C=Cc(c1)cc(OC)c(O)c(OC)1
InChI: InChI=1S/C15H16O9/c1-22-9-5-8(6-10(23-2)14(9)19)3-4-13(18)24-11(15(20)21)7-12(16)17/h3-6,11,19H,7H2,1-2H3,(H,16,17)(H,20,21)/b4-3+/t11-/m0/s1
Instrument: UPLC Q-Tof Premier, Waters
Instrument type: LC-ESI-QTOF
Ms type: MS2
Ion mode: POSITIVE
Collision energy: Ramp 5-60 V
Fragmentation mode: LOW-ENERGY CID
Ionization: ESI
Precursor m/z: 341.08725
Precursor type: [M+H]+
m/z	relative intensity
65.0419	42
76.0336	27
89.0402	42
91.0560	406
101.0395	35
104.0279	22
117.0341	33
118.0443	25
119.0504	410
129.0339	76
132.0219	54
135.0455	33
147.0454	312
149.0258	51
164.0465	29
175.0409	539
176.0469	25
179.0716	34
207.0663	999
341.0872	37
