Mass spectrum: Riboflavin-5'-monophosphate; LC-ESI-QTOF; MS2; CE:Ramp 5-60 V; [M-H]-
Name: Riboflavin-5'-monophosphate
Name: FMN
Name: Flavin mononucleotide
Class: Natural Product; Nucleoside; Phosphates
Formula: C17H21N4O9P
Exact mass: 456.10461
SMILES: O=C(N3)N=C(C(C(=O)3)=1)N(CC(O)C(O)C(O)COP(O)(O)=O)c(c2)c(cc(C)c(C)2)N1
InChI: InChI=1S/C17H21N4O9P/c1-7-3-9-10(4-8(7)2)21(15-13(18-9)16(25)20-17(26)19-15)5-11(22)14(24)12(23)6-30-31(27,28)29/h3-4,11-12,14,22-24H,5-6H2,1-2H3,(H,20,25,26)(H2,27,28,29)/t11-,12+,14-/m0/s1
Instrument: UPLC Q-Tof Premier, Waters
Instrument type: LC-ESI-QTOF
Ms type: MS2
Ion mode: NEGATIVE
Collision energy: Ramp 5-60 V
Fragmentation mode: LOW-ENERGY CID
Ionization: ESI
Precursor m/z: 455.104
Precursor type: [M-H]-
m/z	relative intensity
78.9612	324
96.9706	999
242.0826	96
454.0890	157
455.1043	243
