Mass spectrum: Indole-3-acetaldehyde; LC-ESI-QTOF; MS2; CE:Ramp 5-60 V; [M-H]-
Name: Indole-3-acetaldehyde
Class: Indole
Formula: C10H9NO
Exact mass: 159.06841
SMILES: C1=CC=C2C(=C1)C(=CN2)CC=O
InChI: InChI=1S/C10H9NO/c12-6-5-8-7-11-10-4-2-1-3-9(8)10/h1-4,6-7,11H,5H2
Instrument: UPLC Q-Tof Premier, Waters
Instrument type: LC-ESI-QTOF
Ms type: MS2
Ion mode: NEGATIVE
Collision energy: Ramp 5-60 V
Fragmentation mode: LOW-ENERGY CID
Ionization: ESI
Precursor m/z: 158.06061
Precursor type: [M-H]-
m/z	relative intensity
128.0500	519
130.0656	571
158.0606	999
