Mass spectrum: Peonidin; LC-ESI-QTOF; MS2; CE:Ramp 5-60 V; [M-2H]-
Name: Peonidin
Name: Pn
Name: 3,4',5,7-tetrahydroxy-3'-methoxyflavylium
Name: 3,4',5,7-tetrahydroxy-3'-methoxy-2-phenylbenzopyrylium
Class: Anthocyanidin
Formula: [C16H13O6]+
Exact mass: 301.07121
SMILES: COc(c(O)3)cc(cc3)c([o+1]1)c(O)cc(c(O)2)c(cc(O)c2)1
InChI: InChI=1S/C16H12O6/c1-21-15-4-8(2-3-11(15)18)16-13(20)7-10-12(19)5-9(17)6-14(10)22-16/h2-7H,1H3,(H3-,17,18,19,20)/p+1
Instrument: UPLC Q-Tof Premier, Waters
Instrument type: LC-ESI-QTOF
Ms type: MS2
Ion mode: NEGATIVE
Collision energy: Ramp 5-60 V
Fragmentation mode: LOW-ENERGY CID
Ionization: ESI
Derivative form: C16H13O6.Cl
Derivative mass: 336.72
Precursor m/z: 299.05559
Precursor type: [M-2H]-
m/z	relative intensity
134.9682	197
151.0029	276
207.0281	270
208.9967	123
256.0620	90
266.9895	249
283.0225	558
284.0571	171
299.0556	999
