Mass spectrum: Uracil; GC-EI-TOF; MS; 2 TMS; BP:99
Name: Uracil
Class: Natural Product
Formula: C4H4N2O2
Exact mass: 112.02728
SMILES: O=C(C=1)NC(=O)NC1
InChI: InChI=1S/C4H4N2O2/c7-3-1-2-5-4(8)6-3/h1-2H,(H2,5,6,7,8)
Instrument: Pegasus III TOF-MS system, Leco; GC 6890, Agilent Technologies
Instrument type: GC-EI-TOF
Ms type: MS
Ion mode: POSITIVE
Retention time: 323.107 sec
Base peak: 99
Derivative form: C10H20N2O2Si2
Derivative mass: 256.10633
Derivative type: 2 TMS
m/z	relative intensity
60	13
61	16
62	4
63	3
64	1
65	3
66	37
67	18
68	2
69	19
70	98
71	45
72	118
73	794
74	77
75	63
76	22
77	20
78	4
79	19
80	3
81	1
82	8
83	12
84	27
85	79
86	35
87	19
88	3
89	4
90	1
91	3
92	3
93	3
94	4
95	8
96	26
97	14
98	43
99	999
100	207
101	80
102	17
103	16
104	3
105	31
106	7
107	1
108	1
109	34
110	8
111	15
112	9
113	260
114	28
115	18
116	6
117	29
118	5
119	6
120	5
121	1
123	1
124	6
125	5
126	227
127	35
128	14
129	4
130	3
131	86
132	17
133	45
134	7
135	3
137	1
138	2
139	4
140	6
141	7
142	7
143	3
144	4
145	1
146	1
147	536
148	81
149	42
150	4
151	1
152	1
153	17
154	3
155	2
156	9
157	14
158	15
159	4
160	2
161	1
166	5
167	7
168	3
169	18
170	4
171	3
172	4
173	2
174	6
175	1
181	2
182	6
183	16
184	8
185	17
186	4
187	2
195	1
196	1
197	3
198	3
199	3
200	1
211	4
212	4
213	3
214	1
225	4
226	1
227	1
239	20
240	8
241	501
242	107
243	46
244	7
245	1
254	2
255	251
256	225
257	61
258	19
259	3
