Mass spectrum: N-Acetyl-DL-serine; LC-ESI-QTOF; MS2; CE:Ramp 5-60 V; [M-H]-
Name: N-Acetyl-DL-serine
Name: Ser(Ac)
Name: 2-Acetylamino-3-hydroxy-propionic acid
Class: Amino acids
Formula: C5H9NO4
Exact mass: 147.05316
SMILES: OCC(NC(C)=O)C(O)=O
InChI: InChI=1S/C5H9NO4/c1-3(8)6-4(2-7)5(9)10/h4,7H,2H2,1H3,(H,6,8)(H,9,10)
Instrument: UPLC Q-Tof Premier, Waters
Instrument type: LC-ESI-QTOF
Ms type: MS2
Ion mode: NEGATIVE
Collision energy: Ramp 5-60 V
Fragmentation mode: LOW-ENERGY CID
Ionization: ESI
Precursor m/z: 146.04536
Precursor type: [M-H]-
m/z	relative intensity
74.0271	999
116.0350	613
146.0454	718
