Mass spectrum: Homoorientin; LC-ESI-QTOF; MS2; CE:30 V; [M+H]+
Name: luteolin-6-C-glucoside
Name: Homoorietin
Name: Isoorientin
Name: Lutl_6_C_Glc
Name: 2-(3,4-dihydroxyphenyl)-5,7-dihydroxy-6-[(2S,3S,4R,5R,6R)-3,4,5-trihydroxy-6-(hydroxymethyl)oxan-2-yl]chromen-4-one
Name: Homoorientin
Class: Natural Product
Formula: C21H20O11
Exact mass: 448.10056
SMILES: OCC(C(O)4)OC(C(O)C(O)4)c(c(O)1)c(O)c(C(=O)3)c(OC(=C3)c(c2)cc(O)c(O)c2)c1
InChI: InChI=1S/C21H20O11/c22-6-14-17(27)19(29)20(30)21(32-14)16-11(26)5-13-15(18(16)28)10(25)4-12(31-13)7-1-2-8(23)9(24)3-7/h1-5,14,17,19-24,26-30H,6H2/t14-,17-,19+,20-,21+/m1/s1
Instrument: UPLC Q-Tof Premier, Waters
Instrument type: LC-ESI-QTOF
Ms type: MS2
Ion mode: POSITIVE
Collision energy: 30 V
Fragmentation mode: LOW-ENERGY CID
Ionization: ESI
Full scan fragment ion peak: 449.1
Ion type: [M+H]+
m/z	relative intensity
137.0230	24
165.0199	49
283.0631	92
286.0511	33
287.0579	63
297.0790	92
299.0582	999
299.1482	182
300.0640	134
300.1537	31
311.0588	128
311.0947	31
311.1515	21
313.0732	41
321.0795	41
323.0582	31
324.0663	31
325.0367	22
325.0741	326
325.1671	56
326.0778	24
329.0692	604
329.1634	97
330.0723	47
337.0744	40
339.0901	239
339.1860	40
349.0746	61
353.0696	125
365.0701	151
365.1686	21
377.0704	95
395.0809	44
