Mass spectrum: Betaine; LC-ESI-QTOF; MS2; CE:Ramp 5-60 V; [M+H]+
Name: Betaine
Name: Trimethylglycine
Name: Trimethylammonioacetate
Name: Oxyneurine
Name: (Carboxymethyl)trimethylammonium inner salt
Name: alpha-Earleine
Name: Trimethylaminoacetic acid
Name: Abromine
Name: Glycylbetaine
Name: Lycine
Name: Jortaine
Name: Trimethylglycocoll
Class: Amino acids
Formula: C5H11NO2
Exact mass: 117.07898
SMILES: [O-1]C(=O)C[N+1](C)(C)C
InChI: InChI=1S/C5H11NO2/c1-6(2,3)4-5(7)8/h4H2,1-3H3
Instrument: UPLC Q-Tof Premier, Waters
Instrument type: LC-ESI-QTOF
Ms type: MS2
Ion mode: POSITIVE
Collision energy: Ramp 5-60 V
Fragmentation mode: LOW-ENERGY CID
Ionization: ESI
Precursor m/z: 118.08677
Precursor type: [M+H]+
m/z	relative intensity
58.0670	76
59.0751	46
118.0868	999
