Mass spectrum: Luteolin; LC-ESI-QTOF; MS2; CE:Ramp 5-60 eV; [M-H]-
Name: 3',4',5,7-tetrahydroxyflavone
Name: Luteolin
Name: Lutl
Name: 2-(3,4-dihydroxyphenyl)-5,7-dihydroxychromen-4-one
Class: Natural Product
Formula: C15H10O6
Exact mass: 286.04774
SMILES: Oc(c3)c(O)cc(c3)C(=C1)Oc(c2)c(c(O)cc(O)2)C(=O)1
InChI: InChI=1S/C15H10O6/c16-8-4-11(19)15-12(20)6-13(21-14(15)5-8)7-1-2-9(17)10(18)3-7/h1-6,16-19H
Instrument: UPLC Q-Tof Premier, Waters
Instrument type: LC-ESI-QTOF
Ms type: MS2
Ion mode: NEGATIVE
Collision energy: Ramp 5-60 eV
Fragmentation mode: LOW-ENERGY CID
Ionization: ESI
Full scan fragment ion peak: 285
Ion type: [M-H]-
m/z	relative intensity
65.0013	11
83.0129	11
105.0341	11
107.0137	38
121.0296	12
132.0216	45
133.0294	326
134.0333	13
149.0244	29
151.0038	75
175.0403	44
199.0405	36
201.0195	16
217.0508	22
241.0504	14
243.0303	10
285.0399	999
285.2979	26
285.5068	12
285.6699	10
285.7968	10
286.0444	72
