Mass spectrum: Uridine 5'-diphospho-N-acetylgalactosamine; LC-ESI-QTOF; MS2; CE:Ramp 5-60 V; [M+H]+
Name: Uridine 5'-diphospho-N-acetylgalactosamine
Name: UDP-GalNAc
Name: UDP-N-acetylgalactosamine
Name: Uridine diphospho-2-acetamido-2-deoxy-D-galactose
Class: Nucleotide-carbohydrates
Formula: C17H27N3O17P2
Exact mass: 607.08157
SMILES: OCC(O1)C(O)C(O)C(NC(C)=O)C1OP(O)(=O)OP(O)(=O)OCC(O2)C(O)C(O)C2N(C=3)C(=O)NC(=O)C3
InChI: InChI=1S/C17H27N3O17P2/c1-6(22)18-10-13(26)11(24)7(4-21)35-16(10)36-39(31,32)37-38(29,30)33-5-8-12(25)14(27)15(34-8)20-3-2-9(23)19-17(20)28/h2-3,7-8,10-16,21,24-27H,4-5H2,1H3,(H,18,22)(H,29,30)(H,31,32)(H,19,23,28)/t7-,8-,10-,11+,12-,13-,14-,15-,16-/m1/s1
Instrument: UPLC Q-Tof Premier, Waters
Instrument type: LC-ESI-QTOF
Ms type: MS2
Ion mode: POSITIVE
Collision energy: Ramp 5-60 V
Fragmentation mode: LOW-ENERGY CID
Ionization: ESI
Precursor m/z: 608.08937
Precursor type: [M+H]+
m/z	relative intensity
96.0432	126
98.0603	115
105.0705	186
121.0660	131
126.0564	154
138.0568	255
144.0667	335
168.0670	117
175.0224	81
186.0761	415
204.0888	999
235.0529	87
295.0777	99
355.1045	69
415.1355	86
608.0894	51
727.2400	51
