Mass spectrum: N-Methyl-DL-Alanine; LC-ESI-QTOF; MS2; CE:Ramp 5-60 V; [M+H]+
Name: N-Methyl-DL-Alanine
Name: N-Me-DL-Ala
Name: DL-N-Methylalanine
Class: Amino acids
Formula: C4H9NO2
Exact mass: 103.06333
SMILES: CNC(C)C(O)=O
InChI: InChI=1S/C4H9NO2/c1-3(5-2)4(6)7/h3,5H,1-2H3,(H,6,7)/t3-/m0/s1
Instrument: UPLC Q-Tof Premier, Waters
Instrument type: LC-ESI-QTOF
Ms type: MS2
Ion mode: POSITIVE
Collision energy: Ramp 5-60 V
Fragmentation mode: LOW-ENERGY CID
Ionization: ESI
Precursor m/z: 104.07113
Precursor type: [M+H]+
m/z	relative intensity
58.0658	999
104.0711	730
