Mass spectrum: o-Phenanthroline; LC-ESI-QTOF; MS2; CE:30 V; [M+H]+
Name: 1,10-Phenanthroline
Name: o-Phenanthroline
Class: Phenanthroline
Formula: C12H8N2
Exact mass: 180.06875
SMILES: c(c3)cc(c1)c(n3)c(n2)c(ccc2)c1
InChI: InChI=1S/C12H8N2/c1-3-9-5-6-10-4-2-8-14-12(10)11(9)13-7-1/h1-8H
Instrument: UPLC Q-Tof Premier, Waters
Instrument type: LC-ESI-QTOF
Ms type: MS2
Ion mode: POSITIVE
Collision energy: 30 V
Fragmentation mode: LOW-ENERGY CID
Ionization: ESI
Precursor m/z: 181.07654
Precursor type: [M+H]+
m/z	relative intensity
77.0403	133
101.0408	83
126.0491	88
127.0559	516
128.0521	152
152.0506	72
153.0593	112
154.0676	765
179.0623	228
181.0786	999
