Mass spectrum: 1,3-Dimethyluric acid; LC-ESI-QTOF; MS2; CE:Ramp 5-60 V; [M-H]-
Name: 1,3-Dimethylurate
Name: 1,3-Dimethyluric acid
Name: 1,3-Dimethyl-2,6,8-trihydroxypurine
Name: Oxytheophylline
Formula: C7H8N4O3
Exact mass: 196.05964
SMILES: O=C(N1)NC(N(C)2)=C1C(=O)N(C)C(=O)2
InChI: InChI=1S/C7H8N4O3/c1-10-4-3(8-6(13)9-4)5(12)11(2)7(10)14/h1-2H3,(H2,8,9,13)
Instrument: UPLC Q-Tof Premier, Waters
Instrument type: LC-ESI-QTOF
Ms type: MS2
Ion mode: NEGATIVE
Collision energy: Ramp 5-60 V
Fragmentation mode: LOW-ENERGY CID
Ionization: ESI
Precursor m/z: 195.05184
Precursor type: [M-H]-
m/z	relative intensity
110.0371	155
137.0235	104
138.0318	123
180.0298	309
195.0518	999
195.4028	37
