Mass spectrum: 3-Methoxycinnamic acid; LC-ESI-QTOF; MS2; CE:Ramp 5-60 V; [M+H]+
Name: 3-Methoxycinnamic acid
Name: trans-3-Methoxycinnamic acid
Name: (E)-3-(3-methoxyphenyl)prop-2-enoic acid
Class: Natural Product
Formula: C10H10O3
Exact mass: 178.06299
SMILES: COc(c1)cc(cc1)C=CC(O)=O
InChI: InChI=1S/C10H10O3/c1-13-9-4-2-3-8(7-9)5-6-10(11)12/h2-7H,1H3,(H,11,12)/b6-5+
Instrument: UPLC Q-Tof Premier, Waters
Instrument type: LC-ESI-QTOF
Ms type: MS2
Ion mode: POSITIVE
Collision energy: Ramp 5-60 V
Fragmentation mode: LOW-ENERGY CID
Ionization: ESI
Full scan fragment ion peak: 179.1
Ion type: [M+H]+
m/z	relative intensity
77.0388	69
79.0547	54
89.0392	56
90.0467	201
90.0967	40
103.0548	111
103.1081	22
105.0705	47
118.0417	352
118.0990	70
133.0656	420
133.1266	83
161.0603	999
161.1275	193
161.2570	30
162.0631	20
