Mass spectrum: N-Acetyl-D-glucosamine; GC-EI-TOF; MS; 4 TMS; BP:73
Name: N-Acetyl-D-glucosamine
Name: GlcNAc
Name: N-Acetylchitosamine
Name: 2-Acetamido-2-deoxy-D-glucose
Class: Natural Product
Formula: C8H15NO6
Exact mass: 221.08994
SMILES: OC[C@@H](O1)[C@@H](O)[C@H](O)[C@@H](NC(C)=O)C(O)1
InChI: InChI=1S/C8H15NO6/c1-3(11)9-5-7(13)6(12)4(2-10)15-8(5)14/h4-8,10,12-14H,2H2,1H3,(H,9,11)/t4-,5-,6-,7-,8?/m1/s1
Instrument: Pegasus III TOF-MS system, Leco; GC 6890, Agilent Technologies
Instrument type: GC-EI-TOF
Ms type: MS
Ion mode: POSITIVE
Retention time: 528.883 sec
Base peak: 73
Derivative form: C20H47NO6Si4
Derivative mass: 509.24804
Derivative type: 4 TMS
m/z	relative intensity
60	17
61	11
62	1
65	1
66	7
67	4
68	1
69	5
70	8
71	6
72	27
73	999
74	94
75	108
76	10
77	12
78	3
79	18
80	4
81	6
82	9
83	11
84	8
85	7
86	5
87	177
88	12
89	47
90	5
91	3
92	1
93	1
94	1
95	2
96	4
97	8
98	4
99	15
100	14
101	19
102	6
103	87
104	8
105	9
106	2
107	2
108	1
109	3
110	5
111	5
112	7
113	13
114	8
115	10
116	29
117	79
118	10
119	8
120	1
121	1
122	1
123	3
124	1
125	1
126	3
127	6
128	8
129	136
130	27
131	32
132	14
133	47
134	7
135	5
136	1
137	5
138	2
139	1
140	2
141	12
142	7
143	18
144	9
145	3
146	1
147	188
148	31
149	21
150	2
151	2
152	1
153	9
154	9
155	6
156	4
157	32
158	18
159	4
160	2
161	2
162	1
163	4
164	1
165	1
166	1
167	2
168	3
169	6
170	6
171	21
172	5
173	49
174	9
175	5
176	1
177	2
178	1
179	3
180	1
181	2
182	1
183	2
184	2
185	4
186	7
187	2
188	1
189	18
190	5
191	4
192	1
195	3
196	2
197	2
198	2
199	1
200	7
201	6
202	96
203	17
204	22
205	81
206	16
207	8
208	1
209	1
210	4
211	2
212	3
213	14
214	3
215	3
216	1
217	28
218	8
219	3
221	3
222	1
223	1
225	1
227	3
228	1
229	9
230	3
231	17
232	4
233	1
237	2
238	3
239	1
240	1
242	1
243	22
244	5
245	2
246	3
247	1
255	4
256	1
260	1
268	1
269	4
270	1
271	1
273	2
274	22
275	6
276	2
277	2
285	3
286	1
291	2
292	1
300	1
301	1
302	1
303	1
305	2
306	1
307	1
312	1
318	1
319	34
320	11
321	5
322	1
327	2
328	1
332	1
333	18
334	5
335	2
345	2
523	2
524	1
