Mass spectrum: Sucrose; GC-EI-TOF; MS; 8 TMS; BP:73
Name: Sucrose
Name: 1-alpha-D-Glucopyranosyl-2-beta-D-fructofuranoside
Name: Cane sugar
Name: Saccharose
Class: Natural Product
Formula: C12H22O11
Exact mass: 342.11621
SMILES: OC[C@@H](O1)[C@@H](O)[C@H](O)[C@@H](O)[C@H]1O[C@](CO)(O2)[C@@H](O)[C@H](O)[C@@H](CO)2
InChI: InChI=1S/C12H22O11/c13-1-4-6(16)8(18)9(19)11(21-4)23-12(3-15)10(20)7(17)5(2-14)22-12/h4-11,13-20H,1-3H2/t4-,5-,6-,7-,8+,9-,10+,11-,12+/m1/s1
Instrument: Pegasus III TOF-MS system, Leco; GC 6890, Agilent Technologies
Instrument type: GC-EI-TOF
Ms type: MS
Ion mode: POSITIVE
Retention time: 588.625 sec
Base peak: 73
Derivative form: C36H86O11Si8
Derivative mass: 918.43243
Derivative type: 8 TMS
m/z	relative intensity
60	2
61	5
65	1
66	4
67	4
69	11
70	2
71	3
72	12
73	999
74	85
75	66
76	5
77	7
81	17
82	1
83	5
85	5
87	4
88	2
89	11
90	1
91	1
95	1
97	2
99	5
101	13
102	6
103	175
104	16
105	7
109	9
111	4
113	7
114	1
115	5
116	5
117	36
118	4
119	4
125	1
127	4
128	1
129	115
130	15
131	24
132	3
133	34
134	5
135	3
139	3
140	1
141	5
142	5
143	20
144	2
145	5
146	1
147	178
148	27
149	22
150	2
151	2
153	3
154	1
155	15
156	2
157	19
158	2
159	3
161	2
163	3
167	1
169	91
170	14
171	8
172	1
173	3
175	3
177	3
181	1
183	5
185	2
187	1
189	19
190	4
191	29
192	5
193	2
199	3
201	2
202	1
203	7
204	17
205	13
206	3
207	3
215	6
216	1
217	164
218	37
219	17
220	3
221	6
222	1
227	2
229	8
230	11
231	8
232	2
233	3
241	2
242	1
243	30
244	8
245	8
246	2
247	2
255	1
257	9
258	2
259	3
260	1
271	36
272	9
273	5
274	1
291	3
292	1
293	1
303	1
305	3
306	1
317	1
318	1
319	11
320	5
321	2
331	4
332	2
333	1
345	1
347	1
360	3
361	144
362	47
363	24
364	5
365	1
435	1
436	2
437	26
438	11
439	6
440	1
450	3
451	13
452	5
453	2
