Mass spectrum: Daphnetin; LC-ESI-QTOF; MS2; CE:Ramp 5-60 V; [M-H]-
Name: Daphnetin
Name: 7,8-Dihydroxycoumarin
Name: Daphnetol
Class: Coumarins
Formula: C9H6O4
Exact mass: 178.02661
SMILES: O=C(C=2)Oc(c(O)1)c(C2)ccc(O)1
InChI: InChI=1S/C9H6O4/c10-6-3-1-5-2-4-7(11)13-9(5)8(6)12/h1-4,10,12H
Instrument: UPLC Q-Tof Premier, Waters
Instrument type: LC-ESI-QTOF
Ms type: MS2
Ion mode: NEGATIVE
Collision energy: Ramp 5-60 V
Fragmentation mode: LOW-ENERGY CID
Ionization: ESI
Precursor m/z: 177.01881
Precursor type: [M-H]-
m/z	relative intensity
93.0357	106
105.0356	108
121.0301	201
133.0304	101
149.0251	106
177.0188	999
