Mass spectrum: Prostaglandin E1; LC-ESI-QTOF; MS2; CE:Ramp 5-60 V; [M-H]-
Name: Prostaglandin E1
Name: PGE1
Name: Alprostadil
Name: (11alpha,13E,15S)-11,15-Dihydroxy-9-oxoprost-13-enoic acid
Name: (13E)-(15S)-11alpha,15-Dihydroxy-9-oxoprost-13-enoate
Name: 11,15-Dihydroxy-9-oxoprost-13-en-1-oic Acid
Name: Caverject
Name: Lipoprost
Name: Liple
Name: Minprog
Name: Prostandin
Name: Prostivas
Name: Topiglan
Name: 3-Hydroxy-2-(3-hydroxy-1-octenyl)-5-oxocyclopentaneheptanoic acid
Name: Liprostin
Class: Prostaglandins
Formula: C20H34O5
Exact mass: 354.24062
SMILES: CCCCC[C@H](O)C=C[C@@H]([C@H](O)1)[C@@H](CCCCCCC(O)=O)C(=O)C1
InChI: InChI=1S/C20H34O5/c1-2-3-6-9-15(21)12-13-17-16(18(22)14-19(17)23)10-7-4-5-8-11-20(24)25/h12-13,15-17,19,21,23H,2-11,14H2,1H3,(H,24,25)/b13-12+/t15-,16+,17+,19+/m0/s1
Instrument: UPLC Q-Tof Premier, Waters
Instrument type: LC-ESI-QTOF
Ms type: MS2
Ion mode: NEGATIVE
Collision energy: Ramp 5-60 V
Fragmentation mode: LOW-ENERGY CID
Ionization: ESI
Precursor m/z: 353.23281
Precursor type: [M-H]-
m/z	relative intensity
113.0977	103
191.1441	121
235.1341	448
273.2233	339
317.2104	999
335.2249	273
353.2328	207
