Mass spectrum: Urocanic acid; LC-ESI-QTOF; MS2; CE:Ramp 5-60 V; [M+H]+
Name: Urocanic acid
Name: Urocanate
Name: Urocaninic acid
Name: 4-Imidazoleacrylic acid
Name: 3-(4-Imidazolyl)acrylic acid
Name: 3-Imidazol-4-ylacrylic acid
Name: 3-(1H-Imidazol-4-yl)-2-propenoic acid
Class: ImidazolylCarboxylic acids
Formula: C6H6N2O2
Exact mass: 138.04293
SMILES: C1=C(NC=N1)C=CC(=O)O
InChI: InChI=1S/C6H6N2O2/c9-6(10)2-1-5-3-7-4-8-5/h1-4H,(H,7,8)(H,9,10)/b2-1+
Instrument: UPLC Q-Tof Premier, Waters
Instrument type: LC-ESI-QTOF
Ms type: MS2
Ion mode: POSITIVE
Collision energy: Ramp 5-60 V
Fragmentation mode: LOW-ENERGY CID
Ionization: ESI
Precursor m/z: 139.05073
Precursor type: [M+H]+
m/z	relative intensity
66.0357	111
93.0463	692
95.0623	257
121.0410	999
139.0507	874
