Mass spectrum: Thymidine-3',5'-cyclic monophosphate; LC-ESI-QTOF; MS2; CE:Ramp 5-60 V; [M+H]+
Name: Thymidine-3',5'-cyclic monophosphate
Name: cdTMP
Name: 3',5'-Cyclic deoxy-TMP
Name: Deoxythymidine-3',5'-cyclic monophosphate
Class: Thymidine
Formula: C10H13N2O7P
Exact mass: 304.04604
SMILES: O=C(N3)C(C)=CN(C(=O)3)C(O1)CC([H])(O2)C([H])(COP(O)(=O)2)1
InChI: InChI=1S/C10H13N2O7P/c1-5-3-12(10(14)11-9(5)13)8-2-6-7(18-8)4-17-20(15,16)19-6/h3,6-8H,2,4H2,1H3,(H,15,16)(H,11,13,14)/t6-,7+,8+/m0/s1
Instrument: UPLC Q-Tof Premier, Waters
Instrument type: LC-ESI-QTOF
Ms type: MS2
Ion mode: POSITIVE
Collision energy: Ramp 5-60 V
Fragmentation mode: LOW-ENERGY CID
Ionization: ESI
Precursor m/z: 305.05384
Precursor type: [M+H]+
m/z	relative intensity
81.0338	999
127.0508	330
305.0538	295
