Mass spectrum: L-Glutamine; GC-EI-TOF; MS; 3 TMS; BP:73
Name: L-Glutamine
Name: L-2-Aminoglutaramic acid
Class: Natural Product
Formula: C5H10N2O3
Exact mass: 146.06914
SMILES: NC(=O)CC[C@H](N)C(O)=O
InChI: InChI=1S/C5H10N2O3/c6-3(5(9)10)1-2-4(7)8/h3H,1-2,6H2,(H2,7,8)(H,9,10)/t3-/m0/s1
Instrument: Pegasus III TOF-MS system, Leco; GC 6890, Agilent Technologies
Instrument type: GC-EI-TOF
Ms type: MS
Ion mode: POSITIVE
Retention time: 434.102 sec
Base peak: 73
Derivative form: C14H34N2O3Si3
Derivative mass: 362.18772
Derivative type: 3 TMS
m/z	relative intensity
60	16
61	29
62	2
63	2
66	9
67	2
69	1
70	14
71	6
72	39
73	999
74	136
75	230
76	24
77	34
78	3
79	12
80	1
81	2
82	5
83	36
84	19
85	8
86	11
87	5
88	2
89	4
90	4
91	2
92	1
93	1
94	1
95	1
96	1
97	2
98	8
99	4
100	53
101	12
102	9
103	9
104	1
105	2
110	2
111	1
112	14
113	10
114	43
115	33
116	33
117	13
118	4
119	4
124	1
126	13
127	4
128	67
129	20
130	22
131	61
132	20
133	36
134	6
135	4
139	37
140	14
141	4
142	17
143	3
144	6
145	33
146	8
147	125
148	24
149	25
150	4
151	1
153	2
154	3
155	228
156	684
157	98
158	32
159	4
160	2
161	1
162	1
163	1
167	2
168	1
171	1
172	5
173	5
174	3
176	1
183	2
185	1
186	1
188	10
189	2
190	1
200	1
202	2
203	51
204	12
205	5
206	1
211	2
213	2
214	2
215	1
216	6
217	4
218	13
219	4
220	1
221	3
227	6
228	3
229	20
230	12
231	4
232	7
233	1
243	1
244	4
245	78
246	18
247	6
248	1
257	4
258	2
272	3
273	5
274	1
301	5
302	2
303	1
347	11
348	3
349	1
362	4
363	1
