Mass spectrum: Maltose; GC-EI-TOF; MS; 8 TMS; BP:73
Name: Maltose
Class: Natural Product
Formula: C12H22O11
Exact mass: 342.11621
SMILES: OCC(O1)C(O)C(O)C(O)C1OC(C(CO)2)C(O)C(O)C(O)O2
InChI: InChI=1S/C12H22O11/c13-1-3-5(15)6(16)9(19)12(22-3)23-10-4(2-14)21-11(20)8(18)7(10)17/h3-20H,1-2H2/t3-,4-,5-,6+,7-,8-,9-,10-,11-,12-/m1/s1
Instrument: Pegasus III TOF-MS system, Leco; GC 6890, Agilent Technologies
Instrument type: GC-EI-TOF
Ms type: MS
Ion mode: POSITIVE
Retention time: 639.598 sec
Base peak: 73
Derivative form: C36H86O11Si8
Derivative mass: 918.43243
Derivative type: 8 TMS
m/z	relative intensity
60	5
61	7
63	1
65	1
66	7
67	5
69	9
70	4
71	4
72	14
73	999
74	89
75	66
76	5
77	9
78	1
79	2
80	1
81	10
82	3
83	3
84	2
85	5
86	3
87	5
88	3
89	41
90	3
91	2
95	1
97	4
98	1
99	5
100	11
101	16
102	9
103	125
104	12
105	19
106	2
107	1
109	4
110	1
111	4
112	1
113	5
114	6
115	7
116	7
117	76
118	8
119	6
125	1
126	1
127	4
128	2
129	79
130	14
131	20
132	3
133	42
134	5
135	3
139	1
140	1
141	3
142	4
143	15
144	2
145	6
146	1
147	200
148	33
149	23
150	2
151	1
152	1
153	2
154	1
155	10
156	2
157	14
158	4
159	3
160	36
161	7
162	2
163	6
164	1
167	1
168	1
169	40
170	6
171	4
172	2
173	4
174	2
175	3
177	2
181	1
183	2
184	1
185	1
186	2
187	1
189	21
190	5
191	30
192	5
193	2
196	1
198	1
199	1
200	1
201	2
202	1
203	7
204	132
205	60
206	18
207	7
208	1
210	4
211	1
215	3
216	6
217	88
218	21
219	10
220	2
221	5
222	1
223	1
227	1
228	1
229	6
230	3
231	11
232	3
233	5
234	2
235	1
240	1
241	1
242	1
243	18
244	6
245	5
246	2
247	3
255	1
256	1
257	2
258	1
259	2
260	1
262	1
265	1
268	1
269	1
270	1
271	17
272	4
273	3
274	2
275	1
276	1
291	2
300	3
301	1
304	1
305	4
306	1
307	1
317	1
318	1
319	19
320	6
321	3
331	4
332	2
333	1
345	1
359	1
360	7
361	96
362	33
363	16
364	4
365	1
451	2
452	1
479	1
480	3
481	2
482	1
598	1
