Mass spectrum: cis-Nerolidol; LC-ESI-QTOF; MS2; CE:Ramp 5-60 V; [M+H]+
Name: cis-Nerolidol
Name: (6Z)-3,7,11-trimethyl-1,6,10-dodecatrien-3-ol
Name: cis-3,7,11-Trimethyldodeca-1,6,10-trien-3-ol
Class: Prenol Lipids; Isoprenoids
Formula: C15H26O
Exact mass: 222.19837
SMILES: CC(C)=CCCC(C)=CCCC(C)(O)C=C
InChI: InChI=1S/C15H26O/c1-6-15(5,16)12-8-11-14(4)10-7-9-13(2)3/h6,9,11,16H,1,7-8,10,12H2,2-5H3/b14-11-
Instrument: UPLC Q-Tof Premier, Waters
Instrument type: LC-ESI-QTOF
Ms type: MS2
Ion mode: POSITIVE
Collision energy: Ramp 5-60 V
Fragmentation mode: LOW-ENERGY CID
Ionization: ESI
Precursor m/z: 223.20615
Precursor type: [M+H]+
m/z	relative intensity
73.0643	109
191.0455	477
207.0800	999
209.0598	108
223.1143	193
225.0956	115
