Mass spectrum: Thiabendazole; LC-ESI-QTOF; MS2; CE:Ramp 5-60 V; [M-H]-
Name: Thiabendazole
Name: LSP
Name: Thiabendazol
Name: 2-(4-Thiazolyl)benzimidazole
Name: Merfect
Name: Decco
Name: Bioguard
Name: Bovizole
Name: Cropasal
Name: Lombristop
Name: Omnizole
Class: Benzimidazoles
Formula: C10H7N3S
Exact mass: 201.03607
SMILES: C1=CC=C2C(=C1)NC(=N2)C3=CSC=N3
InChI: InChI=1S/C10H7N3S/c1-2-4-8-7(3-1)12-10(13-8)9-5-14-6-11-9/h1-6H,(H,12,13)
Instrument: UPLC Q-Tof Premier, Waters
Instrument type: LC-ESI-QTOF
Ms type: MS2
Ion mode: NEGATIVE
Collision energy: Ramp 5-60 V
Fragmentation mode: LOW-ENERGY CID
Ionization: ESI
Precursor m/z: 200.02827
Precursor type: [M-H]-
m/z	relative intensity
141.0440	152
172.0106	99
173.0156	999
200.0283	753
