Mass spectrum: 4-Methoxycinnamic acid; LC-ESI-QTOF; MS2; CE:Ramp 5-60 V; [M-H]-
Name: 4-Methoxycinnamic acid
Name: 3-(4-methoxyphenyl)prop-2-enoic acid
Class: Natural Product
Formula: C10H10O3
Exact mass: 178.06299
SMILES: COC1=CC=C(C=C1)/C=C/C(=O)O
InChI: InChI=1S/C10H10O3/c1-13-9-5-2-8(3-6-9)4-7-10(11)12/h2-7H,1H3,(H,11,12)/b7-4+
Instrument: UPLC Q-Tof Premier, Waters
Instrument type: LC-ESI-QTOF
Ms type: MS2
Ion mode: NEGATIVE
Collision energy: Ramp 5-60 V
Fragmentation mode: LOW-ENERGY CID
Ionization: ESI
Full scan fragment ion peak: 177.1
Ion type: [M-H]-
m/z	relative intensity
88.9985	22
103.0551	675
105.0702	39
131.0510	42
133.0663	295
176.9785	28
177.0552	999
