Mass spectrum: 1-Isothiocyanato-6-(methylsulfonyl)-hexane; LC-ESI-QTOF; MS2; CE:Ramp 5-60 V; [M+H]+
Name: 1-Isothiocyanato-6-(methylsulfonyl)-hexane
Name: 6-Methylsulfonylhexyl isothiocyanate
Class: Isothiocyanate
Formula: C8H15NO2S2
Exact mass: 221.05442
SMILES: S=C=NCCCCCCS(C)(=O)=O
InChI: InChI=1S/C8H15NO2S2/c1-13(10,11)7-5-3-2-4-6-9-8-12/h2-7H2,1H3
Instrument: UPLC Q-Tof Premier, Waters
Instrument type: LC-ESI-QTOF
Ms type: MS2
Ion mode: POSITIVE
Collision energy: Ramp 5-60 V
Fragmentation mode: LOW-ENERGY CID
Ionization: ESI
Precursor m/z: 222.06222
Precursor type: [M+H]+
m/z	relative intensity
55.0573	149
81.0023	372
83.0863	999
163.0796	115
222.0622	126
