Mass spectrum: 3-Indoxyl sulfate; LC-ESI-QTOF; MS2; CE:Ramp 5-60 V; [M-H]-
Name: 3-Indoxylsulfate
Name: IOS
Name: 3-Indolyl Sulfate
Name: Urinary indican
Name: indol-3-yl sulfate
Name: 3-Indoxylsulfuric acid
Name: 3-Sulfooxy-1H-Indole
Name: 3-Indoxyl sulfate
Class: Indole
Formula: C8H7NO4S
Exact mass: 213.00958
SMILES: C1=CC=C2C(=C1)C(=CN2)OS(=O)(=O)O
InChI: InChI=1S/C8H7NO4S/c10-14(11,12)13-8-5-9-7-4-2-1-3-6(7)8/h1-5,9H,(H,10,11,12)
Instrument: UPLC Q-Tof Premier, Waters
Instrument type: LC-ESI-QTOF
Ms type: MS2
Ion mode: NEGATIVE
Collision energy: Ramp 5-60 V
Fragmentation mode: LOW-ENERGY CID
Ionization: ESI
Precursor m/z: 212.00178
Precursor type: [M-H]-
m/z	relative intensity
79.9588	999
80.9665	529
132.0460	533
212.0018	980
