Mass spectrum: L-Homocarnosine; LC-ESI-QTOF; MS2; CE:Ramp 5-60 V; [M-H]-
Name: L-Homocarnosine
Name: GABA-His
Name: gamma-Aminobutyryl-L-histidine
Name: gamma-aminobutyrylhistidine
Class: Dipeptide
Formula: C10H16N4O3
Exact mass: 240.12224
SMILES: C1=C(NC=N1)C[C@@H](C(=O)O)NC(=O)CCCN
InChI: InChI=1S/C10H16N4O3/c11-3-1-2-9(15)14-8(10(16)17)4-7-5-12-6-13-7/h5-6,8H,1-4,11H2,(H,12,13)(H,14,15)(H,16,17)/t8-/m0/s1
Instrument: UPLC Q-Tof Premier, Waters
Instrument type: LC-ESI-QTOF
Ms type: MS2
Ion mode: NEGATIVE
Collision energy: Ramp 5-60 V
Fragmentation mode: LOW-ENERGY CID
Ionization: ESI
Precursor m/z: 239.11443
Precursor type: [M-H]-
m/z	relative intensity
81.0465	137
110.0723	999
154.0617	761
239.1144	713
