Mass spectrum: Quercetin-3-O-beta-glucopyranosyl-7-O-alpha-rhamnopyranoside; LC-ESI-QTOF; MS2; CE:Ramp 5-60 V; [M-H]-
Name: Quercetin-3-O-beta-glucopyranosyl-7-O-alpha-rhamnopyranoside
Name: Quer-3-Glc-7-Rha
Name: SPECIES
Name: quercetin-3-glucoside-7-rhamnoside
Name: Quercetin-3-O-b-glucopyranosyl-7-O-a-rhamnopyranoside
Class: Flavonoid
Formula: C27H30O16
Exact mass: 610.15338
SMILES: C(C1O)(C)OC(Oc(c5)cc(O2)c(c5O)C(C(OC(O4)C(C(C(C4CO)O)O)O)=C(c(c3)ccc(O)c3O)2)=O)C(C1O)O
InChI: InChI=1S/C27H30O16/c1-8-17(32)20(35)22(37)26(39-8)40-10-5-13(31)16-14(6-10)41-24(9-2-3-11(29)12(30)4-9)25(19(16)34)43-27-23(38)21(36)18(33)15(7-28)42-27/h2-6,8,15,17-18,20-23,26-33,35-38H,7H2,1H3/t8-,15+,17-,18+,20+,21-,22+,23+,26-,27-/m0/s1
Instrument: UPLC Q-Tof Premier, Waters
Instrument type: LC-ESI-QTOF
Ms type: MS2
Ion mode: NEGATIVE
Collision energy: Ramp 5-60 V
Fragmentation mode: LOW-ENERGY CID
Ionization: ESI
Precursor m/z: 609.14556
Precursor type: [M-H]-
m/z	relative intensity
151.0034	30
255.0307	25
271.0249	278
272.0294	31
299.0197	818
300.0261	149
301.0363	383
302.0391	41
446.0865	411
447.0937	246
448.0980	30
463.0895	108
609.1456	999
610.1531	176
