Mass spectrum: 3,4-Dimethoxycinnamic acid; LC-ESI-QTOF; MS2; CE:Ramp 5-60 V; [M+H]+
Name: 3,4-Dimethoxycinnamic acid
Name: Dimethyl caffeic acid
Name: (E)-3-(3,4-dimethoxyphenyl)prop-2-enoic acid
Class: Natural Product
Formula: C11H12O4
Exact mass: 208.07356
SMILES: COc(c1)c(OC)cc(C=CC(O)=O)c1
InChI: InChI=1S/C11H12O4/c1-14-9-5-3-8(4-6-11(12)13)7-10(9)15-2/h3-7H,1-2H3,(H,12,13)/b6-4+
Instrument: UPLC Q-Tof Premier, Waters
Instrument type: LC-ESI-QTOF
Ms type: MS2
Ion mode: POSITIVE
Collision energy: Ramp 5-60 V
Fragmentation mode: LOW-ENERGY CID
Ionization: ESI
Full scan fragment ion peak: 209.1
Ion type: [M+H]+
m/z	relative intensity
77.0389	48
79.0545	25
89.0388	41
90.0465	21
91.0544	120
91.1048	22
102.0466	39
103.0546	58
105.0338	57
105.0704	30
117.0338	28
118.0418	41
119.0496	106
120.0574	55
132.0575	106
133.0289	84
133.0650	29
147.0449	53
148.0525	184
148.1167	28
160.0530	44
163.0759	315
163.1437	53
176.0477	55
191.0701	999
191.1441	196
191.2828	52
192.0748	45
209.0814	39
