Mass spectrum: 1-Lauroyl-2-hydroxy-sn-glycero-3-phosphocholine; LC-ESI-QTOF; MS2; CE:Ramp 5-60 V; [M-H]-
Name: 1-Lauroyl-2-hydroxy-sn-glycero-3-phosphocholine
Name: 12:0 LysoPC
Name: 1-Dodecanoyllysolecithin
Name: Phosphocholine,1-Lauroyl-2-Hydroxy-sn-Glycero-3-
Class: Glycerophospholipids
Formula: C20H42NO7P
Exact mass: 439.26989
SMILES: CCCCCCCCCCCC(=O)OCC(O)COP([O-1])(=O)OCC[N+1](C)(C)C
InChI: InChI=1S/C20H42NO7P/c1-5-6-7-8-9-10-11-12-13-14-20(23)26-17-19(22)18-28-29(24,25)27-16-15-21(2,3)4/h19,22H,5-18H2,1-4H3/t19-/m1/s1
Instrument: UPLC Q-Tof Premier, Waters
Instrument type: LC-ESI-QTOF
Ms type: MS2
Ion mode: NEGATIVE
Collision energy: Ramp 5-60 V
Fragmentation mode: LOW-ENERGY CID
Ionization: ESI
Precursor m/z: 438.26208
Precursor type: [M-H]-
m/z	relative intensity
77.4146	124
77.4302	90
77.4440	96
77.5720	130
78.6619	94
78.9649	211
199.1827	108
213.1656	999
438.2621	510
