Mass spectrum: Naringenin; LC-ESI-QTOF; MS2; CE:Ramp 5-60 eV; [M-H]-
Name: 4',5,7-trihydroxyflavanone
Name: Naringenin
Name: Nari
Name: (2S)-5,7-dihydroxy-2-(4-hydroxyphenyl)chroman-4-one
Class: Natural Product
Formula: C15H12O5
Exact mass: 272.06847
SMILES: Oc(c3)ccc(c3)[C@H](C1)Oc(c2)c(c(O)cc(O)2)C(=O)1
InChI: InChI=1S/C15H12O5/c16-9-3-1-8(2-4-9)13-7-12(19)15-11(18)5-10(17)6-14(15)20-13/h1-6,13,16-18H,7H2/t13-/m0/s1
Instrument: UPLC Q-Tof Premier, Waters
Instrument type: LC-ESI-QTOF
Ms type: MS2
Ion mode: NEGATIVE
Collision energy: Ramp 5-60 eV
Fragmentation mode: LOW-ENERGY CID
Ionization: ESI
Full scan fragment ion peak: 271.1
Ion type: [M-H]-
m/z	relative intensity
63.0218	21
65.0013	49
83.0129	70
93.0339	76
107.0135	182
117.0348	15
119.0501	607
120.0534	17
145.0299	18
151.0038	600
152.0069	15
161.0612	15
165.0199	32
177.0196	87
187.0401	27
271.0606	999
271.2796	17
271.3123	40
271.7530	16
272.0655	62
