Mass spectrum: Mesaconic acid; LC-ESI-QTOF; MS2; CE:Ramp 5-60 V; [M-H]-
Name: Mesaconic acid
Name: Methylfumaric acid
Name: trans-2-Methyl-2-butenedioic acid
Name: Mesaconate
Class: Dicarboxylic acids
Formula: C5H6O4
Exact mass: 130.02661
SMILES: OC(=O)C=C(C)C(O)=O
InChI: InChI=1S/C5H6O4/c1-3(5(8)9)2-4(6)7/h2H,1H3,(H,6,7)(H,8,9)/b3-2+
Instrument: UPLC Q-Tof Premier, Waters
Instrument type: LC-ESI-QTOF
Ms type: MS2
Ion mode: NEGATIVE
Collision energy: Ramp 5-60 V
Fragmentation mode: LOW-ENERGY CID
Ionization: ESI
Precursor m/z: 129.01881
Precursor type: [M-H]-
m/z	relative intensity
85.0291	999
129.0188	161
