Mass spectrum: (+-)-Baclofen; LC-ESI-QTOF; MS2; CE:30 V; [M+H]+
Name: (+-)-Baclofen
Name: Lioresal
Name: Kemstro
Name: Baclon
Name: Gabalon
Name: beta-(Aminomethyl)-p-chlorohydrocinnamic acid
Name: gamma-amino-beta-(p-chlorophenyl)butyric acid
Name: (+/-)-beta-(Aminomethyl)-4-chlorobenzenepropanoic acid
Class: Carboxylic acids
Formula: C10H12ClNO2
Exact mass: 213.05566
SMILES: NCC(CC(O)=O)c(c1)ccc(Cl)c1
InChI: InChI=1S/C10H12ClNO2/c11-9-3-1-7(2-4-9)8(6-12)5-10(13)14/h1-4,8H,5-6,12H2,(H,13,14)
Instrument: UPLC Q-Tof Premier, Waters
Instrument type: LC-ESI-QTOF
Ms type: MS2
Ion mode: POSITIVE
Collision energy: 30 V
Fragmentation mode: LOW-ENERGY CID
Ionization: ESI
Precursor m/z: 214.0635
Precursor type: [M+H]+
m/z	relative intensity
151.0270	544
179.0220	98
196.0484	116
197.0356	171
213.9756	87
214.0545	999
