Mass spectrum: Hypotaurine; GC-EI-TOF; MS; 3 TMS; BP:73
Name: Hypotaurine
Name: 2-Aminoethanesulfinic acid
Class: Natural Product
Formula: C2H7NO2S
Exact mass: 109.01975
SMILES: NCCS(O)=O
InChI: InChI=1S/C2H7NO2S/c3-1-2-6(4)5/h1-3H2,(H,4,5)
Instrument: Pegasus III TOF-MS system, Leco; GC 6890, Agilent Technologies
Instrument type: GC-EI-TOF
Ms type: MS
Ion mode: POSITIVE
Retention time: 396.365 sec
Base peak: 73
Derivative form: C11H31NO2SSi3
Derivative mass: 325.13833
Derivative type: 3 TMS
m/z	relative intensity
60	20
61	15
62	3
63	1
64	11
66	4
70	14
71	8
72	25
73	999
74	96
75	88
76	8
77	18
78	2
79	8
83	1
84	4
85	6
86	82
87	11
88	5
89	2
90	1
91	3
92	1
93	1
98	4
99	5
100	629
101	72
102	33
103	6
104	2
105	2
106	1
113	9
114	107
115	22
116	35
117	13
118	3
119	7
120	1
121	1
122	10
123	1
124	1
129	4
130	86
131	28
132	16
133	52
134	8
135	10
136	1
137	5
138	1
142	1
144	1
145	1
146	19
147	156
148	28
149	16
150	2
151	1
156	1
158	3
159	1
160	3
161	1
172	65
173	12
174	98
175	17
176	32
177	5
178	2
187	10
188	509
189	103
190	44
191	5
192	1
194	2
209	4
220	1
222	2
248	11
249	2
250	1
310	18
311	5
312	3
