Mass spectrum: Ethanolamine; GC-EI-TOF; MS; 3 TMS; BP:73
Name: Ethanolamine
Name: Aminoethanol
Name: 2-Hydroxyethylamine
Class: Natural Product
Formula: C2H7NO
Exact mass: 61.05276
SMILES: NCCO
InChI: InChI=1S/C2H7NO/c3-1-2-4/h4H,1-3H2
Instrument: Pegasus III TOF-MS system, Leco; GC 6890, Agilent Technologies
Instrument type: GC-EI-TOF
Ms type: MS
Ion mode: POSITIVE
Retention time: 336.307 sec
Base peak: 73
Derivative form: C11H31NOSi3
Derivative mass: 277.17134
Derivative type: 3 TMS
m/z	relative intensity
60	23
61	15
62	1
66	10
67	1
69	1
70	17
71	11
72	30
73	999
74	92
75	45
76	3
77	8
83	2
84	5
85	9
86	281
87	36
88	23
89	12
90	1
98	2
99	5
100	291
101	44
102	35
103	27
104	4
105	5
113	9
114	37
115	18
116	20
117	30
118	6
119	13
120	1
121	1
128	1
129	4
130	49
131	44
132	13
133	96
134	14
135	7
142	1
143	1
144	10
145	3
146	6
147	155
148	25
149	12
150	1
158	7
159	2
160	1
172	11
173	3
174	605
175	117
176	60
177	7
178	1
187	1
188	7
189	2
190	1
204	1
262	14
263	4
264	2
