Mass spectrum: DOPA; LC-ESI-QTOF; MS2; CE:Ramp 5-60 V; [M+H]+
Name: 3,4-Dihydroxy-L-phenylalanine
Name: L-DOPA
Name: L-3-Hydroxytyrosine
Name: Levodopa
Name: 3-(3,4-Dihydroxyphenyl)-L-alanine
Name: DOPA
Class: Amino acids
Formula: C9H11NO4
Exact mass: 197.06881
SMILES: OC(=O)C([H])(N)Cc(c1)cc(O)c(O)c1
InChI: InChI=1S/C9H11NO4/c10-6(9(13)14)3-5-1-2-7(11)8(12)4-5/h1-2,4,6,11-12H,3,10H2,(H,13,14)/t6-/m0/s1
Instrument: UPLC Q-Tof Premier, Waters
Instrument type: LC-ESI-QTOF
Ms type: MS2
Ion mode: POSITIVE
Collision energy: Ramp 5-60 V
Fragmentation mode: LOW-ENERGY CID
Ionization: ESI
Precursor m/z: 198.0766
Precursor type: [M+H]+
m/z	relative intensity
152.0717	104
181.0496	61
198.0766	999
