Mass spectrum: Cysteamine; GC-EI-TOF; MS; 3 TMS; BP:73
Name: Cysteamine
Name: beta-Mercaptoethylamine
Name: Thioethanolamine
Name: beta-Aminoethanethiol
Name: Mercaptamine
Name: 2-Aminoethanethiol
Class: Natural Product
Formula: C2H7NS
Exact mass: 77.02992
SMILES: NCCS
InChI: InChI=1S/C2H7NS/c3-1-2-4/h4H,1-3H2
Instrument: Pegasus III TOF-MS system, Leco; GC 6890, Agilent Technologies
Instrument type: GC-EI-TOF
Ms type: MS
Ion mode: POSITIVE
Retention time: 555.72 sec
Base peak: 73
Derivative form: C11H31NSSi3
Derivative mass: 293.1485
Derivative type: 3 TMS
m/z	relative intensity
60	27
61	14
63	1
66	1
67	1
69	1
70	21
71	11
72	33
73	999
74	98
75	36
76	3
77	9
78	1
79	1
83	1
84	6
85	9
86	272
87	27
88	12
89	4
90	2
91	11
92	1
93	1
98	5
99	6
100	251
101	38
102	23
103	4
104	3
105	14
106	1
107	1
113	9
114	28
115	11
116	44
117	16
118	15
119	3
120	1
128	1
129	4
130	87
131	25
132	32
133	7
134	3
135	1
142	1
143	1
144	4
145	1
146	21
147	7
148	11
149	5
150	1
151	1
158	7
159	1
160	1
161	1
163	1
172	30
173	6
174	863
175	163
176	82
177	10
178	2
187	1
188	49
189	10
190	51
191	10
192	7
193	1
204	6
205	2
206	2
219	1
220	68
221	14
222	8
223	1
