Mass spectrum: Kaempferol; LC-ESI-QTOF; MS2; CE:Ramp 5-60 eV; [M+H]+
Name: 3,4',5,7-tetrahydroxyflavone
Name: Kaempferol
Name: Kaem
Name: 3,5,7-trihydroxy-2-(4-hydroxyphenyl)chromen-4-one
Class: Natural Product
Formula: C15H10O6
Exact mass: 286.04774
SMILES: Oc(c3)ccc(c3)C(O1)=C(O)C(=O)c(c(O)2)c(cc(O)c2)1
InChI: InChI=1S/C15H10O6/c16-8-3-1-7(2-4-8)15-14(20)13(19)12-10(18)5-9(17)6-11(12)21-15/h1-6,16-18,20H
Instrument: UPLC Q-Tof Premier, Waters
Instrument type: LC-ESI-QTOF
Ms type: MS2
Ion mode: POSITIVE
Collision energy: Ramp 5-60 eV
Fragmentation mode: LOW-ENERGY CID
Ionization: ESI
Full scan fragment ion peak: 287
Ion type: [M+H]+
m/z	relative intensity
68.9875	26
77.0304	12
93.0281	17
105.0297	10
107.0456	15
111.0045	11
115.0519	12
121.0263	64
128.0604	15
137.0226	21
147.0437	14
153.0182	114
157.0649	20
165.0187	44
185.0607	10
213.0558	35
231.0665	10
241.0511	15
258.0534	23
287.0556	999
287.1405	56
288.0591	65
