Mass spectrum: Daidzein; LC-ESI-QTOF; MS2; CE:30 eV; [M-H]-
Name: 4',7-dihydroxyisoflavone
Name: Daidzein
Name: Ddze
Name: 7-hydroxy-3-(4-hydroxyphenyl)chromen-4-one
Class: Natural Product
Formula: C15H10O4
Exact mass: 254.05791
SMILES: Oc(c3)ccc(c3)C(=C1)C(=O)c(c2)c(cc(O)c2)O1
InChI: InChI=1S/C15H10O4/c16-10-3-1-9(2-4-10)13-8-19-14-7-11(17)5-6-12(14)15(13)18/h1-8,16-17H
Instrument: UPLC Q-Tof Premier, Waters
Instrument type: LC-ESI-QTOF
Ms type: MS2
Ion mode: NEGATIVE
Collision energy: 30 eV
Fragmentation mode: LOW-ENERGY CID
Ionization: ESI
Full scan fragment ion peak: 253.1
Ion type: [M-H]-
m/z	relative intensity
62.7565	25
65.0151	25
77.0722	38
89.0752	79
90.2187	24
91.0558	768
91.9125	94
92.9029	42
104.0592	62
105.0474	38
106.9890	21
114.7521	21
116.0826	39
117.0687	114
117.9439	20
118.8909	20
127.0760	26
129.0623	23
131.0936	38
132.0513	697
133.0414	779
133.8823	115
135.0326	387
135.8874	55
136.8368	23
141.0919	39
143.0760	36
151.0774	28
152.0607	37
153.0485	33
154.0581	43
155.0671	64
155.9915	23
157.0185	24
159.0578	34
160.0085	39
167.0906	107
168.0707	75
169.0874	168
169.9429	34
170.9452	29
178.0943	24
179.0972	72
180.0875	393
181.0255	113
182.0613	112
183.0476	92
183.9760	37
185.0175	28
186.4148	25
189.8226	20
194.0992	28
195.0712	484
196.0538	348
197.0313	184
197.9339	55
198.8823	25
206.1730	34
207.0893	65
208.0772	871
209.0291	340
209.9723	115
210.9529	67
212.5217	22
221.1788	30
222.1178	39
223.0614	999
224.0370	653
225.0066	253
225.9181	74
226.8116	31
227.7544	19
251.0387	87
252.0604	116
253.0633	552
253.9465	85
254.8336	26
