Mass spectrum: Palatinose; LC-ESI-QTOF; MS2; CE:Ramp 5-60 V; [M+H]+
Name: Palatinose
Name: Glc(alpha1-6)Fru
Name: Isomaltulose
Name: 6-O-alpha-D-glucopyranosyl-D-fructose
Class: Disaccharide
Formula: C12H22O11
Exact mass: 342.11621
SMILES: OC[C@@H](O1)[C@@H](O)[C@H](O)[C@@H](O)[C@@H](OC[C@@H](O2)[C@@H](O)[C@H](O)C(O)(CO)2)1
InChI: InChI=1S/C12H22O11/c13-1-4-6(15)8(17)9(18)11(22-4)21-2-5-7(16)10(19)12(20,3-14)23-5/h4-11,13-20H,1-3H2/t4-,5-,6-,7-,8+,9-,10+,11+,12?/m1/s1
Instrument: UPLC Q-Tof Premier, Waters
Instrument type: LC-ESI-QTOF
Ms type: MS2
Ion mode: POSITIVE
Collision energy: Ramp 5-60 V
Fragmentation mode: LOW-ENERGY CID
Ionization: ESI
Precursor m/z: 343.12401
Precursor type: [M+H]+
m/z	relative intensity
85.0284	226
97.0279	186
99.5072	246
127.0355	151
178.9655	410
192.9773	999
206.9410	101
210.9899	117
236.8958	144
250.9116	328
274.9148	104
276.9304	684
278.9421	562
280.9548	206
296.9911	377
343.0038	112
