Mass spectrum: Callistephin; LC-ESI-QTOF; MS2; CE:Ramp 5-60 V; [M]+
Name: Callistephin
Name: Pelg-Glc
Name: Pelargonidin-3-O-glucoside
Name: pelargonidin 3-O-beta-d-glucopyranoside
Name: 3-(Glucosyloxy)-4',5,7-trihydroxyflavylium
Class: Anthocyanidin
Formula: [C21H21O10]+
Exact mass: 433.11347
SMILES: OCC(O1)C(O)C(O)C(O)C1Oc(c3)c([o+1]c(c4)c(c(O)cc(O)4)3)c(c2)ccc(O)c2
InChI: InChI=1S/C21H20O10/c22-8-16-17(26)18(27)19(28)21(31-16)30-15-7-12-13(25)5-11(24)6-14(12)29-20(15)9-1-3-10(23)4-2-9/h1-7,16-19,21-22,26-28H,8H2,(H2-,23,24,25)/p+1/t16-,17-,18+,19-,21-/m1/s1
Instrument: UPLC Q-Tof Premier, Waters
Instrument type: LC-ESI-QTOF
Ms type: MS2
Ion mode: POSITIVE
Collision energy: Ramp 5-60 V
Fragmentation mode: LOW-ENERGY CID
Ionization: ESI
Precursor m/z: 433.11347
Precursor type: [M]+
m/z	relative intensity
121.0305	80
197.0629	25
271.0618	999
433.1134	117
