Mass spectrum: Malvin; LC-ESI-QTOF; MS2; CE:Ramp 5-60 V; [M]+
Name: Malvin
Name: Malv-3-Glc-5-Glc
Name: malvidin-3,5-di-O-glucoside
Name: Malvoside
Name: 3,5-Bis(beta-D-glucopyranosyloxy)-7-hydroxy-2-(4-hydroxy-3,5-dimethoxyphenyl)-1-benzopyrylium
Class: Anthocyanidin
Formula: [C29H35O17]+
Exact mass: 655.18742
SMILES: c(c41)([o+1]c(c(OC(O5)C(O)C(O)C(O)C5CO)c4)c(c3)cc(OC)c(O)c(OC)3)cc(O)cc1OC(O2)C(O)C(O)C(O)C2CO
InChI: InChI=1S/C29H34O17/c1-40-15-3-10(4-16(41-2)20(15)33)27-17(44-29-26(39)24(37)22(35)19(9-31)46-29)7-12-13(42-27)5-11(32)6-14(12)43-28-25(38)23(36)21(34)18(8-30)45-28/h3-7,18-19,21-26,28-31,34-39H,8-9H2,1-2H3,(H-,32,33)/p+1/t18-,19-,21-,22-,23+,24+,25-,26-,28-,29-/m1/s1
Instrument: UPLC Q-Tof Premier, Waters
Instrument type: LC-ESI-QTOF
Ms type: MS2
Ion mode: POSITIVE
Collision energy: Ramp 5-60 V
Fragmentation mode: LOW-ENERGY CID
Ionization: ESI
Precursor m/z: 655.18739
Precursor type: [M]+
m/z	relative intensity
315.0507	53
331.0823	999
493.1358	176
655.1874	278
