Mass spectrum: Pyridoxamine; LC-ESI-QTOF; MS2; CE:Ramp 5-60 V; [M-H]-
Name: Pyridoxamine
Name: Pyridoxylamine
Name: 4-(Aminomethyl)-5-hydroxy-6-methyl-3-pyridinemethanol
Class: Thiamine
Formula: C8H12N2O2
Exact mass: 168.08988
SMILES: OCc(c1)c(CN)c(O)c(C)n1
InChI: InChI=1S/C8H12N2O2/c1-5-8(12)7(2-9)6(4-11)3-10-5/h3,11-12H,2,4,9H2,1H3
Instrument: UPLC Q-Tof Premier, Waters
Instrument type: LC-ESI-QTOF
Ms type: MS2
Ion mode: NEGATIVE
Collision energy: Ramp 5-60 V
Fragmentation mode: LOW-ENERGY CID
Ionization: ESI
Precursor m/z: 167.08207
Precursor type: [M-H]-
m/z	relative intensity
107.0363	70
108.0441	283
121.0527	344
122.0598	329
135.0582	84
137.0712	239
138.0560	127
147.0544	110
150.0559	182
151.0086	62
166.8352	244
167.0821	999
