Mass spectrum: O-Succinyl-L-Homoserine; LC-ESI-QTOF; MS2; CE:Ramp 5-60 V; [M+H]+
Name: O-Succinyl-L-Homoserine
Name: O-Succinylhomoserine
Name: (2S)-2-amino-4-(3-carboxypropanoyloxy)butanoic acid
Class: Amino acids
Formula: C8H13NO6
Exact mass: 219.07429
SMILES: OC(=O)CCC(=O)OCCC(N)C(O)=O
InChI: InChI=1S/C8H13NO6/c9-5(8(13)14)3-4-15-7(12)2-1-6(10)11/h5H,1-4,9H2,(H,10,11)(H,13,14)/t5-/m0/s1
Instrument: UPLC Q-Tof Premier, Waters
Instrument type: LC-ESI-QTOF
Ms type: MS2
Ion mode: POSITIVE
Collision energy: Ramp 5-60 V
Fragmentation mode: LOW-ENERGY CID
Ionization: ESI
Precursor m/z: 220.08208
Precursor type: [M+H]+
m/z	relative intensity
73.0298	113
74.0249	175
74.0612	542
84.0457	123
101.0247	288
102.0557	999
120.0668	299
220.0821	282
