Mass spectrum: Malvidin-3-O-beta-D-galactoside; LC-ESI-QTOF; MS2; CE:30 V; [M-2H]-
Name: Malvidin-3-galactoside
Name: Primulin
Name: (2S,3R,4S,5S,6R)-2-[5,7-dihydroxy-2-(4-hydroxy-3,5-dimethoxy-phenyl)chromen-3-yl]oxy-6-(hydroxymethyl)oxane-3,4,5-triol
Name: Malvidin-3-O-beta-D-galactoside
Class: Natural Product
Formula: [C23H25O12]+
Exact mass: 493.13460
SMILES: OCC(O1)C(O)C(O)C(O)C1Oc(c3)c([o+1]c(c4)c(c(O)cc(O)4)3)c(c2)cc(OC)c(O)c(OC)2
InChI: InChI=1S/C23H24O12/c1-31-14-3-9(4-15(32-2)18(14)27)22-16(7-11-12(26)5-10(25)6-13(11)33-22)34-23-21(30)20(29)19(28)17(8-24)35-23/h3-7,17,19-21,23-24,28-30H,8H2,1-2H3,(H2-,25,26,27)/p+1/t17-,19+,20+,21-,23-/m1/s1
Instrument: UPLC Q-Tof Premier, Waters
Instrument type: LC-ESI-QTOF
Ms type: MS2
Ion mode: NEGATIVE
Collision energy: 30 V
Fragmentation mode: LOW-ENERGY CID
Ionization: ESI
Full scan fragment ion peak: 491.1
Ion type: [M-2H]-
m/z	relative intensity
214.0792	42
242.0836	46
254.0123	76
255.0426	58
257.0092	40
269.0515	35
270.0326	104
271.0130	68
281.0110	39
282.0485	38
285.0591	68
286.0309	33
287.0496	32
298.0499	74
299.0264	193
299.9557	48
300.9221	34
311.3752	32
313.0529	999
314.0288	473
314.9658	121
315.8457	45
328.0753	603
329.0466	351
329.9218	72
330.8635	31
