Mass spectrum: Delphinidin; LC-ESI-QTOF; MS2; CE:Ramp 5-60 V; [M-2H]-
Name: Delphinidin
Name: Dp
Name: Delphinidine
Name: Delphinidol
Name: Delfinidol
Name: Ephdine
Name: 3,3',4',5,5',7-Hexahydroxy-2-phenylbenzopyrylium
Name: 3,3',4',5,5',7-Hexahydroxyflavylium
Name: 3,5,7-trihydroxy-2-(3,4,5-trihydroxyphenyl)benzopyrylium
Class: Anthocyanidin
Formula: [C15H11O7]+
Exact mass: 303.05048
SMILES: Oc(c1)cc([o+1]2)c(cc(O)c2c(c3)cc(O)c(O)c(O)3)c(O)1
InChI: InChI=1S/C15H10O7/c16-7-3-9(17)8-5-12(20)15(22-13(8)4-7)6-1-10(18)14(21)11(19)2-6/h1-5H,(H5-,16,17,18,19,20,21)/p+1
Instrument: UPLC Q-Tof Premier, Waters
Instrument type: LC-ESI-QTOF
Ms type: MS2
Ion mode: NEGATIVE
Collision energy: Ramp 5-60 V
Fragmentation mode: LOW-ENERGY CID
Ionization: ESI
Derivative form: C15H11O7.Cl
Derivative mass: 338.70
Precursor m/z: 301.03485
Precursor type: [M-2H]-
m/z	relative intensity
156.8993	368
160.8940	308
208.9769	208
268.9517	207
283.0015	670
284.9957	372
300.7894	337
300.9888	206
301.0349	999
