Mass spectrum: L-Norleucine; GC-EI-TOF; MS; 2 TMS; BP:73
Name: L-Norleucine
Name: L-Aminohexanoate
Name: L-2-Aminohexanoate
Name: L-Aminohexanoic acid
Name: L-2-Aminohexanoic acid
Name: (S)-2-Aminohexanoic acid
Class: Natural Product
Formula: C6H13NO2
Exact mass: 131.09463
SMILES: CCCC[C@H](N)C(O)=O
InChI: InChI=1S/C6H13NO2/c1-2-3-4-5(7)6(8)9/h5H,2-4,7H2,1H3,(H,8,9)/t5-/m0/s1
Instrument: Pegasus III TOF-MS system, Leco; GC 6890, Agilent Technologies
Instrument type: GC-EI-TOF
Ms type: MS
Ion mode: POSITIVE
Retention time: 319.278 sec
Base peak: 73
Derivative form: C12H29NO2Si2
Derivative mass: 275.17368
Derivative type: 2 TMS
m/z	relative intensity
60	24
61	18
62	2
63	1
65	1
66	9
67	4
69	5
70	11
71	7
72	20
73	999
74	100
75	84
76	8
77	14
78	1
79	4
80	2
81	3
82	4
83	2
84	12
85	8
86	38
87	7
88	3
89	2
94	1
95	1
96	3
97	2
98	8
99	3
100	72
101	14
102	33
103	22
104	3
105	4
110	1
112	3
113	2
114	25
115	22
116	6
117	13
118	3
119	4
126	1
128	20
129	7
130	14
131	15
132	14
133	29
134	5
135	2
142	7
143	3
144	2
146	3
147	100
148	16
149	9
150	1
156	3
157	1
158	859
159	134
160	41
161	4
163	1
170	11
171	2
172	1
174	3
175	1
186	2
188	1
202	1
203	1
216	1
218	27
219	6
220	2
232	34
233	11
234	4
260	11
261	2
262	1
