Mass spectrum: 1-Methyl-2-pyridinium aldoxime; LC-ESI-QTOF; MS2; CE:30 V; [M]+
Name: 1-Methyl-2-pyridinium aldoxime
Name: Pyridine-2-aldoxime methochloride
Name: 2-PAM
Name: Pralidoxime chloride
Name: Protopam chloride
Name: 2-Formyl-1-methylpyridinium chloride oxime
Name: Pyridine-2-carbaldoxime Methochloride
Name: 1-Methyl-2-aldoximinopyridinium chloride
Name: Pyridine-2-aldoxime
Name: Pralidoxime
Class: Pyridines
Formula: [C7H9N2O]+
Exact mass: 137.07149
SMILES: ON=Cc(c1)[n+1](C)ccc1
InChI: InChI=1S/C7H8N2O/c1-9-5-3-2-4-7(9)6-8-10/h2-6H,1H3/p+1
Instrument: UPLC Q-Tof Premier, Waters
Instrument type: LC-ESI-QTOF
Ms type: MS2
Ion mode: POSITIVE
Collision energy: 30 V
Fragmentation mode: LOW-ENERGY CID
Ionization: ESI
Derivative form: C7H9N2O.Cl
Derivative mass: 172.61
Precursor m/z: 137.07146
Precursor type: [M]+
m/z	relative intensity
65.0385	101
66.0465	148
67.0419	60
78.0336	147
79.0409	16
92.0491	341
93.0568	999
96.0438	30
110.0587	66
119.0600	450
120.0673	21
137.0715	16
