Mass spectrum: Delphinidin-3-O-beta-glucopyranoside; LC-ESI-QTOF; MS2; CE:Ramp 5-60 V; [M-2H]-
Name: Delphinidin-3-O-beta-glucopyranoside
Name: Dp 3-Glc
Name: Myrtillin
Name: Delphinidin-3-glucoside
Class: Anthocyanidin
Formula: [C21H21O12]+
Exact mass: 465.10330
SMILES: OC[C@@H](O1)[C@@H](O)[C@H](O)[C@@H](O)[C@@H]1Oc(c3)c([o+1]c(c4)c(c(O)cc(O)4)3)c(c2)cc(O)c(O)c(O)2
InChI: InChI=1S/C21H20O12/c22-6-15-17(28)18(29)19(30)21(33-15)32-14-5-9-10(24)3-8(23)4-13(9)31-20(14)7-1-11(25)16(27)12(26)2-7/h1-5,15,17-19,21-22,28-30H,6H2,(H4-,23,24,25,26,27)/p+1/t15-,17-,18+,19-,21-/m1/s1
Instrument: UPLC Q-Tof Premier, Waters
Instrument type: LC-ESI-QTOF
Ms type: MS2
Ion mode: NEGATIVE
Collision energy: Ramp 5-60 V
Fragmentation mode: LOW-ENERGY CID
Ionization: ESI
Derivative form: C21H21O12.Cl
Derivative mass: 500.84
Precursor m/z: 463.08767
Precursor type: [M-2H]-
m/z	relative intensity
125.0252	160
147.0079	91
227.0337	91
255.0306	109
271.0269	187
299.0197	136
300.0284	999
301.0357	465
463.0877	741
