Mass spectrum: L-Anserine; LC-ESI-QTOF; MS2; CE:Ramp 5-60 V; [M+H]+
Name: L-Anserine
Name: beta-Ala-3-Me-His
Name: beta-Alanyl-3-methyl-L-histidine
Class: Amino acids
Formula: C10H16N4O3
Exact mass: 240.12224
SMILES: NCCC(=O)N[C@H](C(O)=O)Cc(c1)n(C)cn1
InChI: InChI=1S/C10H16N4O3/c1-14-6-12-5-7(14)4-8(10(16)17)13-9(15)2-3-11/h5-6,8H,2-4,11H2,1H3,(H,13,15)(H,16,17)/t8-/m0/s1
Instrument: UPLC Q-Tof Premier, Waters
Instrument type: LC-ESI-QTOF
Ms type: MS2
Ion mode: POSITIVE
Collision energy: Ramp 5-60 V
Fragmentation mode: LOW-ENERGY CID
Ionization: ESI
Precursor m/z: 241.13003
Precursor type: [M+H]+
m/z	relative intensity
95.0617	231
96.0696	421
97.0777	124
109.0776	961
126.1046	298
153.0686	187
170.0946	406
224.1054	90
241.1300	999
