Mass spectrum: Kaempferol-3-O-glucoside; LC-ESI-QTOF; MS2; CE:Ramp 5-60 V; [M+H]+
Name: Kaempferol-3-O-glucoside
Name: Kaem-3-Glc
Name: Astragalin
Name: Astragaline
Name: Kaempferol-3-beta-D-glucopyranoside
Name: 4H-1-Benzopyran-4-one, 3-(beta-D-glucopyranosyloxy)-5,7-dihydroxy-2-(4-hydroxyphenyl)-)
Class: Flavonoid
Formula: C21H20O11
Exact mass: 448.10056
SMILES: OC[C@@H](O1)[C@@H](O)[C@H](O)[C@@H](O)[C@@H]1OC(C(=O)2)=C(c(c4)ccc(O)c4)Oc(c3)c(c(O)cc(O)3)2
InChI: InChI=1S/C21H20O11/c22-7-13-15(26)17(28)18(29)21(31-13)32-20-16(27)14-11(25)5-10(24)6-12(14)30-19(20)8-1-3-9(23)4-2-8/h1-6,13,15,17-18,21-26,28-29H,7H2/t13-,15-,17+,18-,21+/m1/s1
Instrument: UPLC Q-Tof Premier, Waters
Instrument type: LC-ESI-QTOF
Ms type: MS2
Ion mode: POSITIVE
Collision energy: Ramp 5-60 V
Fragmentation mode: LOW-ENERGY CID
Ionization: ESI
Precursor m/z: 449.10836
Precursor type: [M+H]+
m/z	relative intensity
68.9993	7
69.0352	18
81.0349	12
85.0299	77
91.0404	6
93.0336	5
97.0299	26
105.0351	5
107.0514	6
109.0302	13
111.0088	9
121.0301	37
127.0413	17
133.0301	7
137.0252	11
145.0531	19
147.0461	8
153.0202	61
157.0675	10
165.0204	33
171.0470	5
185.0624	7
213.0575	21
231.0686	9
241.0523	11
258.0550	14
259.0617	6
286.9850	7
287.0565	999
288.0620	20
449.1084	15
