Mass spectrum: (S)-3-Amino-4-hydroxybutyric acid; LC-ESI-QTOF; MS2; CE:Ramp 5-60 V; [M+H]+
Name: D-beta-Homoserine
Name: (S)-3-Amino-4-hydroxybutyric acid
Name: D-beta-homoserine [(S)-3-Amino-4-hydroxy-butyric acid (-)]
Class: Amino acids
Formula: C4H9NO3
Exact mass: 119.05824
SMILES: OCC(N)CC(O)=O
InChI: InChI=1S/C4H9NO3/c5-3(2-6)1-4(7)8/h3,6H,1-2,5H2,(H,7,8)/t3-/m0/s1
Instrument: UPLC Q-Tof Premier, Waters
Instrument type: LC-ESI-QTOF
Ms type: MS2
Ion mode: POSITIVE
Collision energy: Ramp 5-60 V
Fragmentation mode: LOW-ENERGY CID
Ionization: ESI
Precursor m/z: 120.06604
Precursor type: [M+H]+
m/z	relative intensity
60.0456	999
84.0444	319
102.0553	838
120.0660	598
