Mass spectrum: Nicotinic acid mono nucleotide; LC-ESI-QTOF; MS2; CE:Ramp 5-60 V; [M-H]-
Name: Nicotinic acid mono nucleotide
Name: NCN
Name: NaMN
Name: deamido-NMN
Name: nicotinate-D-ribonucleotide
Class: Natural Product; Nicotinamide; Dinucleotides
Formula: C11H14NO9P
Exact mass: 335.04062
SMILES: [O-1]C(=O)c(c2)c[n+1](cc2)C(O1)C(O)C(O)C(COP(O)(O)=O)1
InChI: InChI=1S/C11H14NO9P/c13-8-7(5-20-22(17,18)19)21-10(9(8)14)12-3-1-2-6(4-12)11(15)16/h1-4,7-10,13-14H,5H2,(H2-,15,16,17,18,19)/t7-,8-,9-,10-/m1/s1
Instrument: UPLC Q-Tof Premier, Waters
Instrument type: LC-ESI-QTOF
Ms type: MS2
Ion mode: NEGATIVE
Collision energy: Ramp 5-60 V
Fragmentation mode: LOW-ENERGY CID
Ionization: ESI
Precursor m/z: 334.03282
Precursor type: [M-H]-
m/z	relative intensity
78.9595	999
79.1067	11
79.5203	11
80.0509	27
96.9693	616
97.6608	11
138.9784	155
150.9770	35
162.9771	12
192.9897	164
210.9994	93
290.0424	522
334.0328	17
