Mass spectrum: Myricetin; LC-ESI-QTOF; MS2; CE:30 eV; [M-H]-
Name: 3,3',4',5,5',7-hexahydroxyflavone
Name: Myricetin
Name: Myrc
Name: 3,5,7-trihydroxy-2-(3,4,5-trihydroxyphenyl)chromen-4-one
Class: Natural Product
Formula: C15H10O8
Exact mass: 318.03757
SMILES: Oc(c3)cc(O1)c(c(O)3)C(=O)C(O)=C1c(c2)cc(O)c(O)c(O)2
InChI: InChI=1S/C15H10O8/c16-6-3-7(17)11-10(4-6)23-15(14(22)13(11)21)5-1-8(18)12(20)9(19)2-5/h1-4,16-20,22H
Instrument: UPLC Q-Tof Premier, Waters
Instrument type: LC-ESI-QTOF
Ms type: MS2
Ion mode: NEGATIVE
Collision energy: 30 eV
Fragmentation mode: LOW-ENERGY CID
Ionization: ESI
Full scan fragment ion peak: 317
Ion type: [M-H]-
m/z	relative intensity
63.0476	75
65.0160	127
81.0829	50
83.0485	176
96.0001	28
107.0459	576
107.9812	91
109.0522	656
109.8396	72
110.7127	27
119.0094	24
120.7409	20
124.0613	36
125.0505	48
135.0691	22
136.0947	47
137.0549	958
137.8844	130
138.8201	34
149.1037	35
150.0721	39
151.0301	999
151.9063	135
152.7854	34
155.0129	33
160.9766	20
163.0161	32
164.0027	52
165.0496	103
179.0262	100
183.0177	25
191.0847	24
193.0330	21
199.0629	23
227.0459	31
243.0653	23
271.0282	79
