Mass spectrum: Peltatoside; LC-ESI-QTOF; MS2; CE:Ramp 5-60 V; [M+H]+
Name: quercetin-3-O-arabinoglucoside
Name: Peltatoside
Name: Quer_3_Ara
Name: 2-(3,4-dihydroxyphenyl)-5,7-dihydroxy-3-[(2S,3R,4S,5S,6R)-3,4,5-trihydroxy-6-[[(2S,3R,4S,5S)-3,4,5-trihydroxyoxan-2-yl]oxymethyl]oxan-2-yl]oxychromen-4-one
Class: Natural Product
Formula: C26H28O16
Exact mass: 596.13773
SMILES: c(c5)(O)cc(c(c52)C(C(OC(O3)C(C(C(C3COC(C(O)4)OCC(O)C4O)O)O)O)=C(O2)c(c1)ccc(O)c1O)=O)O
InChI: InChI=1S/C26H28O16/c27-9-4-12(30)16-14(5-9)40-23(8-1-2-10(28)11(29)3-8)24(19(16)34)42-26-22(37)20(35)18(33)15(41-26)7-39-25-21(36)17(32)13(31)6-38-25/h1-5,13,15,17-18,20-22,25-33,35-37H,6-7H2/t13-,15+,17-,18+,20-,21+,22+,25-,26-/m0/s1
Instrument: UPLC Q-Tof Premier, Waters
Instrument type: LC-ESI-QTOF
Ms type: MS2
Ion mode: POSITIVE
Collision energy: Ramp 5-60 V
Fragmentation mode: LOW-ENERGY CID
Ionization: ESI
Full scan fragment ion peak: 597.1
Ion type: [M+H]+
m/z	relative intensity
73.0188	29
85.0209	24
97.0230	15
115.0351	16
133.0478	13
137.0207	10
145.0482	15
153.0163	12
165.0175	12
229.0488	18
257.0440	13
303.0490	999
303.1367	55
304.0512	25
435.0922	23
465.1024	43
597.1456	103
597.3448	10
