Mass spectrum: Pyridoxal; LC-ESI-QTOF; MS2; CE:Ramp 5-60 V; [M+H]+
Name: Pyridoxal
Name: PL
Name: Vitamin B6
Name: Pyridoxaldehyde
Name: 3-Hydroxy-5-(hydroxymethyl)-2-methyl-4-pyridinecarboxaldehyde
Name: Hydroxy-5-hydroxymethyl-2-methylisonicotinaldehyde
Class: Thiamine
Formula: C8H9NO3
Exact mass: 167.05824
SMILES: OCc(c1)c(C=O)c(O)c(C)n1
InChI: InChI=1S/C8H9NO3/c1-5-8(12)7(4-11)6(3-10)2-9-5/h2,4,10,12H,3H2,1H3
Instrument: UPLC Q-Tof Premier, Waters
Instrument type: LC-ESI-QTOF
Ms type: MS2
Ion mode: POSITIVE
Collision energy: Ramp 5-60 V
Fragmentation mode: LOW-ENERGY CID
Ionization: ESI
Precursor m/z: 168.06604
Precursor type: [M+H]+
m/z	relative intensity
67.0546	73
94.0652	225
106.0655	67
122.0609	137
150.0543	999
168.0660	67
