Mass spectrum: Isoguvacine; GC-EI-TOF; MS; 2 TMS; BP:73
Name: Isoguvacine
Class: Natural Product
Formula: C6H9NO2
Exact mass: 127.06333
SMILES: OC(=O)C(C1)=CCNC1
InChI: InChI=1S/C6H9NO2/c8-6(9)5-1-3-7-4-2-5/h1,7H,2-4H2,(H,8,9)
Instrument: Pegasus III TOF-MS system, Leco; GC 6890, Agilent Technologies
Instrument type: GC-EI-TOF
Ms type: MS
Ion mode: POSITIVE
Retention time: 411.37 sec
Base peak: 73
Derivative form: C12H25NO2Si2
Derivative mass: 271.14238
Derivative type: 2 TMS
m/z	relative intensity
60	27
61	27
62	3
63	3
64	1
65	7
66	18
67	16
69	7
70	12
71	15
72	30
73	999
74	92
75	110
76	10
77	31
78	20
79	18
80	71
81	104
82	48
83	31
84	18
85	23
86	202
87	22
88	9
89	2
91	1
92	5
93	3
94	6
95	9
96	5
97	14
98	5
99	4
100	23
101	81
102	11
103	10
104	1
105	2
106	12
107	4
108	22
109	18
110	6
111	24
112	9
113	5
114	1
115	2
116	2
117	7
118	1
119	4
120	2
121	8
122	5
123	1
124	5
125	2
126	3
127	1
128	2
129	1
130	1
131	10
132	2
133	25
134	4
135	2
136	6
137	2
138	20
139	7
140	4
141	1
143	1
147	94
148	16
149	8
150	3
151	3
152	73
153	38
154	803
155	149
156	43
157	6
158	1
166	3
167	1
168	1
169	1
170	1
180	12
181	28
182	42
183	10
184	4
196	1
197	1
198	2
199	1
211	3
212	1
226	1
228	4
229	1
243	3
255	8
256	58
257	13
258	5
268	1
270	6
271	44
272	10
273	4
