Mass spectrum: N-Tigloylglycine; LC-ESI-QTOF; MS2; CE:Ramp 5-60 V; [M+H]+
Name: N-Tigloylglycine
Name: Tiglylglycine
Class: Amino acids
Formula: C7H11NO3
Exact mass: 157.07389
SMILES: CC=C(C)C(=O)NCC(O)=O
InChI: InChI=1S/C7H11NO3/c1-3-5(2)7(11)8-4-6(9)10/h3H,4H2,1-2H3,(H,8,11)(H,9,10)/b5-3+
Instrument: UPLC Q-Tof Premier, Waters
Instrument type: LC-ESI-QTOF
Ms type: MS2
Ion mode: POSITIVE
Collision energy: Ramp 5-60 V
Fragmentation mode: LOW-ENERGY CID
Ionization: ESI
Precursor m/z: 158.08169
Precursor type: [M+H]+
m/z	relative intensity
55.0551	95
82.9897	6
83.0142	7
83.0492	999
98.9613	5
99.5114	8
106.9914	7
116.9775	11
158.0817	22
