Mass spectrum: Kaempferol; LC-ESI-QTOF; MS2; CE:Ramp 5-60 eV; [M-H]-
Name: 3,4',5,7-tetrahydroxyflavone
Name: Kaempferol
Name: Kaem
Name: 3,5,7-trihydroxy-2-(4-hydroxyphenyl)chromen-4-one
Class: Natural Product
Formula: C15H10O6
Exact mass: 286.04774
SMILES: Oc(c3)ccc(c3)C(O1)=C(O)C(=O)c(c(O)2)c(cc(O)c2)1
InChI: InChI=1S/C15H10O6/c16-8-3-1-7(2-4-8)15-14(20)13(19)12-10(18)5-9(17)6-11(12)21-15/h1-6,16-18,20H
Instrument: UPLC Q-Tof Premier, Waters
Instrument type: LC-ESI-QTOF
Ms type: MS2
Ion mode: NEGATIVE
Collision energy: Ramp 5-60 eV
Fragmentation mode: LOW-ENERGY CID
Ionization: ESI
Full scan fragment ion peak: 285
Ion type: [M-H]-
m/z	relative intensity
93.0338	32
107.0136	15
108.0212	12
117.0346	24
143.0505	19
145.0301	14
151.0043	18
154.0431	11
155.0500	11
159.0456	21
161.0246	11
163.0045	10
169.0660	11
171.0456	15
183.0460	12
185.0615	23
187.0406	21
211.0405	20
213.0562	11
214.0277	10
227.0353	16
229.0511	19
239.0355	21
255.0304	10
257.0461	11
285.0399	999
285.2643	15
285.2979	31
286.0442	62
