Mass spectrum: 3'-Dephosphocoenzyme A; LC-ESI-QTOF; MS2; CE:Ramp 5-60 V; [M-H]-
Name: 3'-Dephosphocoenzyme A
Name: dephospho CoA
Class: Coenzyme A
Formula: C21H35N7O13P2S
Exact mass: 687.14888
SMILES: SCCNC(=O)CCNC(=O)C(O)C(C)(C)COP(O)(=O)OP(O)(=O)OC[C@@H](O1)[C@@H](O)[C@@H](O)[C@@H]1n(c3)c(n2)c(n3)c(N)nc2
InChI: InChI=1S/C21H35N7O13P2S/c1-21(2,16(32)19(33)24-4-3-12(29)23-5-6-44)8-39-43(36,37)41-42(34,35)38-7-11-14(30)15(31)20(40-11)28-10-27-13-17(22)25-9-26-18(13)28/h9-11,14-16,20,30-32,44H,3-8H2,1-2H3,(H,23,29)(H,24,33)(H,34,35)(H,36,37)(H2,22,25,26)/t11-,14-,15-,16+,20-/m1/s1
Instrument: UPLC Q-Tof Premier, Waters
Instrument type: LC-ESI-QTOF
Ms type: MS2
Ion mode: NEGATIVE
Collision energy: Ramp 5-60 V
Fragmentation mode: LOW-ENERGY CID
Ionization: ESI
Precursor m/z: 686.14107
Precursor type: [M-H]-
m/z	relative intensity
78.9601	343
339.0802	236
419.0465	124
686.1411	999
