Mass spectrum: Triethanolamine; LC-ESI-QTOF; MS2; CE:Ramp 5-60 V; [M+H]+
Name: 2,2',2''-Nitrilotriethanol
Name: TEA
Name: Trolamine
Name: Triethanolamine
Name: Tris(2-hydroxyethyl)amine
Name: Tri-beta-hydroxyethylamine
Name: (2-Hydroxyethyl)amine
Name: Trihydroxyethylamine
Name: 2,2',2''-Trihydroxytriethylamine
Name: Daltogen
Name: Triethylolamine
Class: Alcohol
Formula: C6H15NO3
Exact mass: 149.10519
SMILES: OCCN(CCO)CCO
InChI: InChI=1S/C6H15NO3/c8-4-1-7(2-5-9)3-6-10/h8-10H,1-6H2
Instrument: UPLC Q-Tof Premier, Waters
Instrument type: LC-ESI-QTOF
Ms type: MS2
Ion mode: POSITIVE
Collision energy: Ramp 5-60 V
Fragmentation mode: LOW-ENERGY CID
Ionization: ESI
Precursor m/z: 150.11299
Precursor type: [M+H]+
m/z	relative intensity
70.0672	451
88.0778	414
114.0944	159
132.1046	608
150.1130	999
