Mass spectrum: Guanosine; LC-ESI-QTOF; MS2; CE:Ramp 5-60 V; [M-H]-
Name: Guanosine
Class: Nucleoside
Formula: C10H13N5O5
Exact mass: 283.091669
SMILES: C1=NC2=C(N1[C@H]3[C@@H]([C@@H]([C@H](O3)CO)O)O)N=C(NC2=O)N
InChI: InChI=1S/C10H13N5O5/c11-10-13-7-4(8(19)14-10)12-2-15(7)9-6(18)5(17)3(1-16)20-9/h2-3,5-6,9,16-18H,1H2,(H3,11,13,14,19)/t3-,5-,6-,9-/m1/s1
Instrument: UPLC Q-Tof Premier, Waters
Instrument type: LC-ESI-QTOF
Ms type: MS2
Ion mode: NEGATIVE
Collision energy: Ramp 5-60 V
Fragmentation mode: LOW-ENERGY CID
Ionization: ESI
Precursor m/z: 282.08386
Precursor type: [M-H]-
m/z	relative intensity
108.0201	208
133.0154	372
150.0415	999
282.0839	341
