Mass spectrum: Phytol,mixture of isomers; GC-EI-TOF; MS; 1 TMS; BP:143
Name: Phytol
Name: Phytol,mixture of isomers
Class: Natural Product
Formula: C20H40O
Exact mass: 296.30792
SMILES: OCC=C(C)CCC[C@H](C)CCC[C@H](C)CCCC(C)C
InChI: InChI=1S/C20H40O/c1-17(2)9-6-10-18(3)11-7-12-19(4)13-8-14-20(5)15-16-21/h15,17-19,21H,6-14,16H2,1-5H3/b20-15+/t18-,19-/m1/s1
Instrument: Pegasus III TOF-MS system, Leco; GC 6890, Agilent Technologies
Instrument type: GC-EI-TOF
Ms type: MS
Ion mode: POSITIVE
Retention time: 512.922 sec
Base peak: 143
Derivative form: C23H48OSi
Derivative mass: 368.34744
Derivative type: 1 TMS
m/z	relative intensity
60	6
61	29
62	2
63	2
64	7
65	9
66	4
67	90
68	9
69	58
70	35
71	81
72	12
73	594
74	57
75	375
76	34
77	26
78	2
79	32
80	36
81	182
82	69
83	63
84	10
85	27
86	2
87	3
88	1
89	9
90	1
91	11
92	1
93	11
94	11
95	93
96	52
97	56
98	8
99	12
100	1
101	18
102	2
103	47
104	4
105	3
107	6
108	2
109	37
110	17
111	34
112	8
113	16
114	2
115	4
116	7
117	9
118	1
121	3
122	16
123	162
124	64
125	16
126	10
127	19
128	3
129	9
130	2
131	1
135	1
136	1
137	12
138	6
139	3
140	2
141	7
142	3
143	999
144	126
145	40
146	3
149	1
150	1
151	5
152	5
153	2
155	2
156	3
157	15
158	3
165	3
166	1
167	1
169	2
179	2
180	1
181	1
182	6
183	1
185	3
193	2
196	3
197	1
213	10
214	2
278	5
279	1
353	2
