Mass spectrum: Kaempferide; LC-ESI-QTOF; MS2; CE:Ramp 5-60 V; [M+H]+
Name: Kaempferide
Name: Kaer
Name: 3,5,7-trihydroxy-4'-methoxyflavone
Name: Kaempferid
Name: Kaempferol 4'-methyl ether
Name: 4'-O-Methylkaempferol
Name: 4H-1-Benzopyran-4-one, 3,5,7-trihydroxy-2-(4-methoxyphenyl)-
Class: Flavonoid
Formula: C16H12O6
Exact mass: 300.06339
SMILES: COc(c3)ccc(c3)C(O1)=C(O)C(=O)c(c(O)2)c(cc(O)c2)1
InChI: InChI=1S/C16H12O6/c1-21-10-4-2-8(3-5-10)16-15(20)14(19)13-11(18)6-9(17)7-12(13)22-16/h2-7,17-18,20H,1H3
Instrument: UPLC Q-Tof Premier, Waters
Instrument type: LC-ESI-QTOF
Ms type: MS2
Ion mode: POSITIVE
Collision energy: Ramp 5-60 V
Fragmentation mode: LOW-ENERGY CID
Ionization: ESI
Precursor m/z: 301.07119
Precursor type: [M+H]+
m/z	relative intensity
153.0201	118
201.0568	54
229.0518	159
230.0592	119
258.0548	114
286.0504	75
301.0712	999
