Mass spectrum: Quercetin-3-(6''-malonyl)-Glucoside; LC-ESI-QTOF; MS2; CE:Ramp 5-60 V; [M+H]+
Name: Quercetin-3-(6''-malonyl)-Glucoside
Name: Quer-3-Glc-6''-Mal
Name: Quercetin 3-(6''-malonylglucoside)
Name: Quercetin-3-(6-malonyl)-Glucoside
Class: Flavonoid
Formula: C24H22O15
Exact mass: 550.09587
SMILES: OC(=O)CC(=O)OCC(O1)C(O)C(O)C(O)C1OC(C(=O)3)=C(Oc(c4)c(c(O)cc(O)4)3)c(c2)cc(O)c(O)c2
InChI: InChI=1S/C24H22O15/c25-9-4-12(28)17-13(5-9)37-22(8-1-2-10(26)11(27)3-8)23(19(17)33)39-24-21(35)20(34)18(32)14(38-24)7-36-16(31)6-15(29)30/h1-5,14,18,20-21,24-28,32,34-35H,6-7H2,(H,29,30)/t14-,18-,20+,21-,24+/m1/s1
Instrument: UPLC Q-Tof Premier, Waters
Instrument type: LC-ESI-QTOF
Ms type: MS2
Ion mode: POSITIVE
Collision energy: Ramp 5-60 V
Fragmentation mode: LOW-ENERGY CID
Ionization: ESI
Precursor m/z: 551.10369
Precursor type: [M+H]+
m/z	relative intensity
79.0186	60
99.5099	172
100.5104	64
127.0364	59
303.0502	999
303.0952	61
551.1037	163
551.1516	92
