Mass spectrum: Hirsutrin; LC-ESI-QTOF; MS2; CE:Ramp 5-60 V; [M+H]+
Name: quercetin-3-O-beta-glucopyranoside
Name: Quer-3-Glc
Name: Hirsutrin
Name: Isoquercetin
Name: 3-Glucosylquercetin
Name: Isotrifoliin
Name: Quercetin-3-glucoside
Name: 2-(3,4-Dihidroxyphenyl)-3-(beta-D-glucofuranosyloxy)-5,7-dihydroxy-4H-1-benzopyran-4-one
Class: Flavonoid
Formula: C21H20O12
Exact mass: 464.09548
SMILES: OCC(O1)C(O)C(O)C(O)C1OC(C(=O)3)=C(Oc(c4)c(c(O)cc(O)4)3)c(c2)cc(O)c(O)c2
InChI: InChI=1S/C21H20O12/c22-6-13-15(27)17(29)18(30)21(32-13)33-20-16(28)14-11(26)4-8(23)5-12(14)31-19(20)7-1-2-9(24)10(25)3-7/h1-5,13,15,17-18,21-27,29-30H,6H2/t13-,15-,17+,18-,21+/m1/s1
Instrument: UPLC Q-Tof Premier, Waters
Instrument type: LC-ESI-QTOF
Ms type: MS2
Ion mode: POSITIVE
Collision energy: Ramp 5-60 V
Fragmentation mode: LOW-ENERGY CID
Ionization: ESI
Precursor m/z: 465.10327
Precursor type: [M+H]+
m/z	relative intensity
69.0349	16
81.0344	12
85.0290	69
97.0299	24
109.0299	16
111.0091	11
127.0411	20
137.0242	35
145.0529	18
153.0190	49
165.0192	29
201.0566	20
229.0503	48
257.0444	31
285.0385	13
303.0491	999
304.0519	16
465.1033	14
