Mass spectrum: DL-Pipecolinic acid; LC-ESI-QTOF; MS2; CE:30 V; [M+H]+
Name: DL-Pipecolinic acid
Name: HomoPro
Name: pipecolinic acid
Name: pipecolate
Name: Homoproline
Name: pipecolic acid
Name: 2-piperidinecarboxylic acid
Name: piperidine-2-carboxylic acid
Name: Hexahydropicolinic acid
Name: dihydrobaikiane
Class: Piperidinemonocarboxylic acids
Formula: C6H11NO2
Exact mass: 129.07898
SMILES: OC(=O)C(C1)NCCC1
InChI: InChI=1S/C6H11NO2/c8-6(9)5-3-1-2-4-7-5/h5,7H,1-4H2,(H,8,9)
Instrument: UPLC Q-Tof Premier, Waters
Instrument type: LC-ESI-QTOF
Ms type: MS2
Ion mode: POSITIVE
Collision energy: 30 V
Fragmentation mode: LOW-ENERGY CID
Ionization: ESI
Precursor m/z: 130.08677
Precursor type: [M+H]+
m/z	relative intensity
55.0568	5
56.0504	64
67.0547	25
69.0603	13
82.0663	12
83.9932	5
84.0312	6
84.0506	7
84.0818	999
84.6501	5
85.0601	5
130.0868	8
