Mass spectrum: Thymine; LC-ESI-QTOF; MS2; CE:Ramp 5-60 V; [M-H]-
Name: Thymine
Name: T
Name: 2,4-Dihydroxy-5-methylpyrimidine
Name: 5-Methyluracil
Name: 5-Methylpyrimidine-2,4-diol
Class: Pyrimidines
Formula: C5H6N2O2
Exact mass: 126.04293
SMILES: CC(=C1)C(=O)NC(=O)N1
InChI: InChI=1S/C5H6N2O2/c1-3-2-6-5(9)7-4(3)8/h2H,1H3,(H2,6,7,8,9)
Instrument: UPLC Q-Tof Premier, Waters
Instrument type: LC-ESI-QTOF
Ms type: MS2
Ion mode: NEGATIVE
Collision energy: Ramp 5-60 V
Fragmentation mode: LOW-ENERGY CID
Ionization: ESI
Precursor m/z: 125.03513
Precursor type: [M-H]-
m/z	relative intensity
125.0351	999
