Mass spectrum: S-Adenosyl-L-methionine; GC-EI-TOF; MS; 3 TMS; BP:73
Name: S-Adenosyl-L-methionine
Class: Natural Product
Formula: C15H22N6O5S
Exact mass: 398.13724
SMILES: [O-1]C(=O)C(N)CC[S+1](C)CC(O1)C(O)C(O)C1n(c3)c(n2)c(n3)c(N)nc2
InChI: InChI=1S/C15H22N6O5S/c1-27(3-2-7(16)15(24)25)4-8-10(22)11(23)14(26-8)21-6-20-9-12(17)18-5-19-13(9)21/h5-8,10-11,14,22-23H,2-4,16H2,1H3,(H2-,17,18,19,24,25)/t7-,8+,10+,11+,14+,27?/m0/s1
Instrument: Pegasus III TOF-MS system, Leco; GC 6890, Agilent Technologies
Instrument type: GC-EI-TOF
Ms type: MS
Ion mode: POSITIVE
Retention time: 613.342 sec
Base peak: 73
Derivative form: C24H47N6O5SSi3
Derivative mass: 615.26364
Derivative type: 3 TMS
m/z	relative intensity
60	7
61	181
62	7
63	8
64	1
65	4
66	4
67	4
69	8
70	9
71	8
72	16
73	999
74	96
75	78
76	6
77	9
78	1
79	5
80	1
81	8
82	3
83	4
84	30
85	24
86	7
87	19
88	2
89	5
90	1
91	3
92	2
93	2
94	1
95	3
96	2
97	9
98	4
99	23
100	7
101	24
102	4
103	31
104	2
105	15
106	2
107	2
108	3
109	9
110	3
111	21
112	3
113	6
114	2
115	14
116	11
117	9
118	2
119	7
120	2
121	2
122	1
123	4
124	2
125	3
126	2
127	11
128	1
129	58
130	8
131	15
132	3
133	21
134	3
135	6
136	3
137	4
138	7
139	2
140	2
141	5
142	15
143	23
144	3
145	5
146	1
147	73
148	12
149	14
150	3
151	3
152	1
153	3
154	1
155	2
156	2
157	6
158	2
159	2
160	1
161	2
162	5
163	3
164	6
165	32
166	7
167	2
168	1
169	123
170	18
171	12
172	2
173	6
174	2
175	176
176	32
177	19
178	4
179	3
180	8
181	3
182	1
185	1
187	1
188	246
189	41
190	25
191	10
192	95
193	15
194	4
201	3
202	1
203	1
204	7
205	3
206	22
207	35
208	61
209	13
210	3
215	2
216	1
217	17
218	5
219	4
220	5
221	1
230	2
231	2
232	1
234	4
235	4
236	327
237	56
238	16
239	2
243	5
244	2
245	26
246	6
247	3
248	1
258	2
259	2
260	1
262	2
264	7
265	2
266	1
278	4
279	3
280	11
281	3
282	1
289	3
290	1
291	1
292	1
306	5
307	1
308	1
322	2
334	3
335	1
338	3
376	2
466	2
497	2
498	9
499	4
500	2
513	2
