Mass spectrum: Kaempferol-3-O-alpha-L-rhamnoside; LC-ESI-QTOF; MS2; CE:Ramp 5-60 V; [M+H]+
Name: Kaempferol-3-O-alpha-L-rhamnoside
Name: Kaempferol-3-Rhamnoside
Name: Kaem-3-Rha
Name: Afzelin
Class: Flavonoid
Formula: C21H20O10
Exact mass: 432.10565
SMILES: Oc(c4)ccc(c4)C(O1)=C(OC(O3)C(O)C(O)C(O)C(C)3)C(=O)c(c(O)2)c(cc(O)c2)1
InChI: InChI=1S/C21H20O10/c1-8-15(25)17(27)18(28)21(29-8)31-20-16(26)14-12(24)6-11(23)7-13(14)30-19(20)9-2-4-10(22)5-3-9/h2-8,15,17-18,21-25,27-28H,1H3/t8-,15-,17+,18+,21-/m0/s1
Instrument: UPLC Q-Tof Premier, Waters
Instrument type: LC-ESI-QTOF
Ms type: MS2
Ion mode: POSITIVE
Collision energy: Ramp 5-60 V
Fragmentation mode: LOW-ENERGY CID
Ionization: ESI
Precursor m/z: 433.11346
Precursor type: [M+H]+
m/z	relative intensity
57.0360	6
68.9985	7
71.0507	189
73.0298	5
75.0456	6
83.0490	5
85.0287	248
87.0445	14
111.0072	8
115.0387	47
121.0281	32
129.0539	90
133.0264	6
137.0229	10
147.0593	16
153.0173	54
157.0648	8
165.0172	29
185.0594	7
213.0533	18
231.0639	7
241.0486	10
258.0519	14
286.1262	7
286.9723	6
287.0511	999
288.0575	31
433.1135	10
