Mass spectrum: 2-Hydroxyisobutyric acid; GC-EI-TOF; MS; 2 TMS; BP:73
Name: 2-Hydroxyisobutyric acid
Class: Natural Product
Formula: C4H8O3
Exact mass: 104.04734
SMILES: OC(=O)C(C)(C)O
InChI: InChI=1S/C4H8O3/c1-4(2,7)3(5)6/h7H,1-2H3,(H,5,6)
Instrument: Pegasus III TOF-MS system, Leco; GC 6890, Agilent Technologies
Instrument type: GC-EI-TOF
Ms type: MS
Ion mode: POSITIVE
Retention time: 228.892 sec
Base peak: 73
Derivative form: C10H24O3Si2
Derivative mass: 248.1264
Derivative type: 2 TMS
m/z	relative intensity
60	9
61	39
62	3
63	2
66	56
67	6
69	16
70	11
71	7
72	25
73	999
74	92
75	159
76	15
77	27
78	2
79	3
80	1
81	7
84	1
85	3
86	1
87	8
88	1
89	2
94	1
95	53
96	4
99	4
100	1
101	22
102	4
103	12
104	1
105	4
109	3
113	1
115	46
116	10
117	17
118	2
119	4
129	2
130	6
131	703
132	86
133	70
134	8
135	3
143	17
144	2
145	2
146	2
147	454
148	70
149	38
150	4
151	1
163	3
189	1
190	3
205	96
206	21
207	9
208	1
217	3
233	25
234	6
235	2
