Mass spectrum: 2'-Deoxyinosine 5'-monophosphate; GC-EI-TOF; MS; 4 TMS; BP:81
Name: 2'-Deoxyinosine 5'-monophosphate
Class: Natural Product
Formula: C10H13N4O7P
Exact mass: 332.05219
SMILES: OC(C1)C(COP(O)(O)=O)OC1n(c3)c(N2)c(n3)C(=O)N=C2
InChI: InChI=1S/C10H13N4O7P/c15-5-1-7(21-6(5)2-20-22(17,18)19)14-4-13-8-9(14)11-3-12-10(8)16/h3-7,15H,1-2H2,(H,11,12,16)(H2,17,18,19)/t5-,6+,7+/m0/s1
Instrument: Pegasus III TOF-MS system, Leco; GC 6890, Agilent Technologies
Instrument type: GC-EI-TOF
Ms type: MS
Ion mode: POSITIVE
Retention time: 691.275 sec
Base peak: 81
Derivative form: C22H45N4O7PSi4
Derivative mass: 620.21029
Derivative type: 4 TMS
m/z	relative intensity
60	5
61	9
62	1
63	1
65	2
66	2
67	2
70	6
71	5
72	15
73	458
74	43
75	50
76	4
77	17
80	3
81	999
82	59
83	6
84	14
85	10
86	4
87	2
88	1
89	4
90	1
91	2
92	2
93	2
94	1
95	2
96	1
97	4
98	4
99	8
100	4
101	14
102	2
103	12
104	1
105	2
106	1
107	2
108	1
109	2
110	8
111	12
112	3
113	5
114	1
115	6
116	2
117	4
118	1
119	6
120	2
121	2
122	1
123	2
124	2
125	3
126	1
127	11
128	2
129	19
130	2
131	4
132	1
133	28
134	5
135	10
136	3
137	8
138	10
139	4
140	1
141	2
142	13
143	7
144	1
145	2
146	1
147	13
148	3
149	2
150	2
151	4
152	2
153	2
154	1
155	11
156	2
157	2
158	1
159	1
160	1
162	1
163	4
164	2
165	4
166	10
167	4
168	1
169	8
170	20
171	10
172	2
173	1
174	1
175	1
176	1
177	4
178	2
179	3
180	2
181	8
182	1
183	3
184	1
185	1
187	1
189	1
190	1
191	2
192	5
193	95
194	15
195	11
196	1
197	3
203	1
205	2
206	2
207	16
208	6
209	54
210	9
211	58
212	9
213	6
214	1
217	1
219	10
220	2
221	2
222	2
223	1
225	8
226	2
227	16
228	3
229	1
231	1
233	1
234	2
235	3
236	1
237	2
239	1
241	1
243	12
244	2
245	2
247	1
253	3
254	1
255	1
259	1
261	1
265	2
267	1
269	1
275	1
279	2
280	1
281	5
282	2
283	2
285	3
287	1
289	11
290	2
291	1
294	1
298	2
299	27
300	8
301	4
302	1
307	1
309	1
313	1
314	2
315	39
316	11
317	6
318	1
322	1
323	16
324	4
325	1
335	2
336	2
337	1
349	1
350	3
351	1
363	1
365	1
378	4
379	2
380	1
396	1
397	2
398	1
605	1
606	1
