Mass spectrum: Caffeic acid; GC-EI-TOF; MS; 3 TMS; BP:73
Name: Caffeic acid
Name: 3,4-Dihydroxycinnamic acid
Name: Caffeate
Name: cis-Caffeic acid
Class: Natural Product
Formula: C9H8O4
Exact mass: 180.04226
SMILES: C1=CC(=C(C=C1/C=C\C(=O)O)O)O
InChI: InChI=1S/C9H8O4/c10-7-3-1-6(5-8(7)11)2-4-9(12)13/h1-5,10-11H,(H,12,13)/b4-2-
Instrument: Pegasus III TOF-MS system, Leco; GC 6890, Agilent Technologies
Instrument type: GC-EI-TOF
Ms type: MS
Ion mode: POSITIVE
Retention time: 472.036 sec
Base peak: 73
Derivative form: C18H32O4Si3
Derivative mass: 396.16084
Derivative type: 3 TMS
m/z	relative intensity
60	4
61	12
62	3
63	9
64	1
65	1
66	1
67	1
69	1
70	4
71	4
72	14
73	999
74	87
75	104
76	11
77	29
78	3
79	12
81	1
83	8
84	2
85	3
87	3
88	10
89	26
90	2
91	6
92	1
93	2
95	1
99	1
101	2
102	7
103	11
104	2
105	9
106	1
107	3
109	3
113	1
115	24
116	8
117	28
118	3
119	8
121	2
127	2
128	5
129	8
130	1
131	17
132	2
133	22
134	2
135	20
136	3
137	6
139	1
141	2
142	1
143	4
144	1
145	6
146	1
147	30
148	6
149	7
150	1
151	1
159	2
160	11
161	12
162	2
163	16
164	3
165	2
173	3
174	1
175	16
176	3
177	4
178	1
179	9
180	1
181	1
185	1
187	1
188	1
189	7
190	9
191	90
192	26
193	8
194	1
195	1
201	1
203	9
204	3
205	6
206	1
207	2
209	1
216	1
217	3
218	4
219	491
220	87
221	27
222	3
223	4
224	1
231	2
233	12
234	3
235	1
247	2
249	37
250	9
251	3
263	1
265	2
267	6
268	1
277	1
278	1
279	1
280	3
291	3
292	3
293	15
294	3
295	1
305	1
306	1
307	19
308	6
309	2
323	1
380	2
381	30
382	14
383	6
384	1
395	10
396	102
397	39
398	18
399	4
