Mass spectrum: 6,7-Dihydroxycoumarin; LC-ESI-QTOF; MS2; CE:Ramp 5-60 V; [M-H]-
Name: 6,7-Dihydroxycoumarin
Name: Esculetin
Name: Cichorigenin
Name: Aesculetin
Name: 6,7-dihydroxy-2-benzopyrone
Name: Esculetol
Name: Cichoriin aglycon
Name: 6,7-Dihydroxy-2H-1-benzopyran-2-one
Name: Esculin aglycon
Class: Coumarins
Formula: C9H6O4
Exact mass: 178.02661
SMILES: O=C(C=2)Oc(c1)c(C2)cc(O)c(O)1
InChI: InChI=1S/C9H6O4/c10-6-3-5-1-2-9(12)13-8(5)4-7(6)11/h1-4,10-11H
Instrument: UPLC Q-Tof Premier, Waters
Instrument type: LC-ESI-QTOF
Ms type: MS2
Ion mode: NEGATIVE
Collision energy: Ramp 5-60 V
Fragmentation mode: LOW-ENERGY CID
Ionization: ESI
Precursor m/z: 177.01881
Precursor type: [M-H]-
m/z	relative intensity
77.0411	36
79.0206	13
81.0363	33
89.0412	126
93.0361	41
105.0357	198
107.0145	31
121.0304	33
133.0306	308
149.0251	59
177.0188	999
177.2365	15
177.3530	42
178.0287	11
