Mass spectrum: L-Threonine; GC-EI-TOF; MS; 3 TMS; BP:73
Name: L-Threonine
Name: 2-Amino-3-hydroxybutyric acid
Class: Natural Product
Formula: C4H9NO3
Exact mass: 119.05824
SMILES: C[C@H](O)[C@H](N)C(O)=O
InChI: InChI=1S/C4H9NO3/c1-2(6)3(5)4(7)8/h2-3,6H,5H2,1H3,(H,7,8)/t2-,3-/m0/s1
Instrument: Pegasus III TOF-MS system, Leco; GC 6890, Agilent Technologies
Instrument type: GC-EI-TOF
Ms type: MS
Ion mode: POSITIVE
Retention time: 337.759 sec
Base peak: 73
Derivative form: C13H33NO3Si3
Derivative mass: 335.17682
Derivative type: 3 TMS
m/z	relative intensity
60	15
61	16
62	1
63	1
66	6
67	1
69	2
70	8
71	6
72	25
73	999
74	95
75	100
76	9
77	18
78	1
79	2
82	1
83	1
84	14
85	8
86	23
87	19
88	3
89	2
93	1
96	1
97	1
98	5
99	4
100	106
101	238
102	35
103	21
104	2
105	3
112	4
113	2
114	24
115	19
116	9
117	300
118	33
119	17
120	1
126	1
127	1
128	70
129	79
130	40
131	42
132	37
133	45
134	8
135	4
142	1
143	1
144	5
145	2
146	7
147	134
148	22
149	15
150	1
156	2
157	1
158	5
159	10
160	8
161	2
162	1
163	3
172	4
173	1
174	5
175	1
176	3
177	3
186	4
187	1
188	3
189	1
190	2
191	6
192	1
202	22
203	25
204	9
205	3
206	1
216	1
217	2
218	196
219	206
220	47
221	20
222	3
230	5
231	2
232	1
248	1
276	1
291	56
292	36
293	14
294	4
295	1
320	9
321	2
322	1
