Mass spectrum: Glutaric acid; GC-EI-TOF; MS; 2 TMS; BP:73
Name: Glutaric acid
Name: Pentanedioic acid
Name: Glutarate
Name: 1,3-Propanedicarboxylic acid
Class: Natural Product
Formula: C5H8O4
Exact mass: 132.04226
SMILES: OC(=O)CCCC(O)=O
InChI: InChI=1S/C5H8O4/c6-4(7)2-1-3-5(8)9/h1-3H2,(H,6,7)(H,8,9)
Instrument: Pegasus III TOF-MS system, Leco; GC 6890, Agilent Technologies
Instrument type: GC-EI-TOF
Ms type: MS
Ion mode: POSITIVE
Retention time: 376.468 sec
Base peak: 73
Derivative form: C11H24O4Si2
Derivative mass: 276.12131
Derivative type: 2 TMS
m/z	relative intensity
60	31
61	105
62	10
63	8
64	1
65	2
66	27
67	6
68	2
69	20
70	16
71	14
72	136
73	999
74	126
75	640
76	64
77	95
78	7
79	15
80	1
81	1
83	2
84	4
85	63
86	8
87	12
88	25
89	16
90	2
91	1
92	2
93	2
95	4
96	2
97	125
98	10
99	21
100	5
101	50
102	8
103	11
104	2
105	4
109	1
111	3
113	9
114	1
115	20
116	118
117	54
118	9
119	7
123	11
124	1
125	1
127	11
128	4
129	181
130	70
131	33
132	8
133	55
134	8
135	6
142	2
143	13
144	2
145	15
146	3
147	778
148	129
149	109
150	13
151	5
157	1
158	156
159	43
160	10
161	2
162	6
163	3
164	1
171	5
173	1
186	49
187	21
188	4
189	14
190	3
191	2
201	2
203	39
204	44
205	10
206	4
217	4
218	1
219	3
233	42
234	12
235	4
236	1
260	1
261	123
262	26
263	12
264	1
