Mass spectrum: gamma-Glu-Cys; LC-ESI-QTOF; MS2; CE:Ramp 5-60 V; [M+H]+
Name: gamma-Glu-Cys
Name: L-gamma-Glutamyl-L-cysteine
Name: Des-Gly-glutathione Reduced Form
Name: 5-L-Glutamyl-L-cysteine
Name: L-gamma-Glutamylcysteine
Class: Amino acids
Formula: C8H14N2O5S
Exact mass: 250.06234
SMILES: SC[C@@H](C(O)=O)NC(=O)CC[C@H](N)C(O)=O
InChI: InChI=1S/C8H14N2O5S/c9-4(7(12)13)1-2-6(11)10-5(3-16)8(14)15/h4-5,16H,1-3,9H2,(H,10,11)(H,12,13)(H,14,15)/t4-,5-/m0/s1
Instrument: UPLC Q-Tof Premier, Waters
Instrument type: LC-ESI-QTOF
Ms type: MS2
Ion mode: POSITIVE
Collision energy: Ramp 5-60 V
Fragmentation mode: LOW-ENERGY CID
Ionization: ESI
Precursor m/z: 251.07014
Precursor type: [M+H]+
m/z	relative intensity
74.0229	90
84.0455	999
85.0449	84
120.0135	82
122.0290	111
130.0507	236
151.9860	113
186.0245	110
188.0435	51
241.0334	122
251.0701	52
