Mass spectrum: Kaempferol; LC-ESI-QTOF; MS2; CE:30 eV; [M+H]+
Name: 3,4',5,7-tetrahydroxyflavone
Name: Kaempferol
Name: Kaem
Name: 3,5,7-trihydroxy-2-(4-hydroxyphenyl)chromen-4-one
Class: Natural Product
Formula: C15H10O6
Exact mass: 286.04774
SMILES: Oc(c3)ccc(c3)C(O1)=C(O)C(=O)c(c(O)2)c(cc(O)c2)1
InChI: InChI=1S/C15H10O6/c16-8-3-1-7(2-4-8)15-14(20)13(19)12-10(18)5-9(17)6-11(12)21-15/h1-6,16-18,20H
Instrument: UPLC Q-Tof Premier, Waters
Instrument type: LC-ESI-QTOF
Ms type: MS2
Ion mode: POSITIVE
Collision energy: 30 eV
Fragmentation mode: LOW-ENERGY CID
Ionization: ESI
Full scan fragment ion peak: 287
Ion type: [M+H]+
m/z	relative intensity
68.9872	126
69.0266	36
77.0303	46
79.0464	48
93.0279	97
105.0296	73
107.0454	120
109.0248	84
111.0043	74
115.0513	40
121.0260	492
121.0823	53
127.0525	35
128.0606	47
129.0677	54
133.0267	50
137.0220	184
145.0639	47
147.0436	117
153.0179	999
153.0811	97
157.0646	184
161.0599	40
165.0185	255
171.0443	78
185.0602	99
213.0555	267
229.0500	81
231.0657	55
241.0503	75
258.0530	142
259.0598	42
287.0556	324
