Mass spectrum: D-(-)-Ribose; GC-EI-TOF; MS; 4 TMS; 1 MEOX; BP:73
Name: D-(-)-Ribose
Name: D-Ribose
Class: Natural Product
Formula: C5H10O5
Exact mass: 150.05282
SMILES: OC[C@@H](O1)[C@@H](O)[C@@H](O)C(O)1
InChI: InChI=1S/C5H10O5/c6-1-2-3(7)4(8)5(9)10-2/h2-9H,1H2/t2-,3-,4-,5?/m1/s1
Instrument: Pegasus III TOF-MS system, Leco; GC 6890, Agilent Technologies
Instrument type: GC-EI-TOF
Ms type: MS
Ion mode: POSITIVE
Retention time: 410.59 sec
Base peak: 73
Derivative form: C18H45NO5Si4
Derivative mass: 467.23748
Derivative type: 4 TMS; 1 MEOX
m/z	relative intensity
60	7
61	10
66	4
67	3
69	1
70	7
71	4
72	20
73	999
74	87
75	65
76	5
77	6
82	3
83	1
84	3
85	4
86	6
87	6
88	4
89	61
90	5
91	3
94	1
98	2
99	4
100	23
101	20
102	11
103	563
104	54
105	37
106	2
107	1
111	1
112	2
113	5
114	11
115	8
116	6
117	47
118	5
119	7
126	2
127	3
128	3
129	43
130	10
131	22
132	4
133	57
134	8
135	5
140	1
141	1
142	4
143	10
144	2
145	8
146	1
147	177
148	27
149	17
150	2
151	1
156	1
157	3
158	5
159	2
160	42
161	11
162	2
163	8
164	1
168	3
169	1
170	1
172	2
173	3
174	7
175	6
176	1
177	2
186	1
189	66
190	13
191	18
192	3
193	1
198	2
200	2
201	5
202	1
203	2
204	15
205	19
206	4
207	3
215	1
216	5
217	223
218	47
219	20
220	3
221	4
228	1
230	1
231	3
232	2
233	17
234	5
235	1
242	1
248	1
256	1
257	1
262	6
263	1
272	1
274	2
277	17
278	6
279	3
288	1
291	1
306	1
307	87
308	25
309	12
310	2
331	1
362	1
467	1
