Mass spectrum: Quisqualic acid; LC-ESI-QTOF; MS2; CE:Ramp 5-60 V; [M+H]+
Name: Quisqualic acid
Name: Quisqualate
Name: 3-(3,5-Dioxo-1,2,4-oxadiazolidin-2-yl)-L-alanine
Name: L-(+)-a-Amino-3,5-dioxo-1,2,4-oxadiazolidine-2-propanoic Acid
Formula: C5H7N3O5
Exact mass: 189.03857
SMILES: N[C@H](C(O)=O)CN(O1)C(=O)NC(=O)1
InChI: InChI=1S/C5H7N3O5/c6-2(3(9)10)1-8-4(11)7-5(12)13-8/h2H,1,6H2,(H,9,10)(H,7,11,12)/t2-/m0/s1
Instrument: UPLC Q-Tof Premier, Waters
Instrument type: LC-ESI-QTOF
Ms type: MS2
Ion mode: POSITIVE
Collision energy: Ramp 5-60 V
Fragmentation mode: LOW-ENERGY CID
Ionization: ESI
Precursor m/z: 190.04637
Precursor type: [M+H]+
m/z	relative intensity
57.0458	437
133.0176	362
144.0412	999
149.0433	403
151.0212	163
190.0464	814
