Mass spectrum: D-(-)-Fructose; GC-EI-TOF; MS; 5 TMS; 1 MEOX; BP:73
Name: D-(-)-Fructose
Name: Levulose
Name: Fruit sugar
Name: D-arabino-Hexulose
Name: D-Fructose
Class: Natural Product
Formula: C6H12O6
Exact mass: 180.06339
SMILES: OC[C@@H](O1)[C@@H](O)[C@H](O)C(O)(CO)1
InChI: InChI=1S/C6H12O6/c7-1-3-4(9)5(10)6(11,2-8)12-3/h3-5,7-11H,1-2H2/t3-,4-,5+,6?/m1/s1
Instrument: Pegasus III TOF-MS system, Leco; GC 6890, Agilent Technologies
Instrument type: GC-EI-TOF
Ms type: MS
Ion mode: POSITIVE
Retention time: 453.919 sec
Base peak: 73
Derivative form: C22H55NO6Si5
Derivative mass: 569.28757
Derivative type: 5 TMS; 1 MEOX
m/z	relative intensity
60	4
61	6
66	4
67	1
69	1
70	4
71	4
72	18
73	999
74	86
75	51
76	3
77	8
82	4
83	1
84	19
85	4
86	1
87	5
88	5
89	62
90	5
91	2
98	1
99	3
100	11
101	14
102	5
103	501
104	48
105	22
106	1
111	1
113	4
114	12
115	7
116	5
117	53
118	7
119	7
126	2
127	1
128	3
129	36
130	7
131	20
132	3
133	68
134	8
135	4
140	1
141	1
142	4
143	7
144	2
145	5
146	1
147	173
148	26
149	16
150	2
151	1
156	1
157	6
158	2
159	2
161	1
163	7
164	1
168	1
172	14
173	17
174	3
175	5
176	1
177	4
186	1
187	1
188	2
189	26
190	6
191	15
192	2
193	1
200	1
201	8
202	5
203	4
204	12
205	19
206	4
207	5
214	2
216	4
217	233
218	47
219	21
220	3
221	5
222	1
229	1
230	2
231	5
232	1
233	1
235	1
244	2
246	1
247	1
256	3
260	1
261	1
262	2
263	6
264	1
276	1
277	16
278	6
279	2
288	1
291	3
292	1
302	1
305	1
306	1
307	79
308	23
309	11
310	2
318	1
330	1
333	1
334	2
335	5
336	1
364	10
365	3
366	1
