Mass spectrum: Pelargonin; LC-ESI-QTOF; MS2; CE:Ramp 5-60 V; [M]+
Name: Pelargonin
Name: Pelargonidin 3,5-di-beta-D-glucoside
Name: Monardin
Name: 3,5-Bis(glucosyloxy)-4',7-dihydroxyflavylium
Class: Anthocyanidin
Formula: [C27H31O15]+
Exact mass: 595.16630
SMILES: O(C5CO)C(C(C(C5O)O)O)Oc(c4)c(c1)c(cc4O)[o+1]c(c(c3)ccc(O)c3)c(OC(O2)C(C(C(C2CO)O)O)O)1
InChI: InChI=1S/C27H30O15/c28-8-17-19(32)21(34)23(36)26(41-17)39-15-6-12(31)5-14-13(15)7-16(25(38-14)10-1-3-11(30)4-2-10)40-27-24(37)22(35)20(33)18(9-29)42-27/h1-7,17-24,26-29,32-37H,8-9H2,(H-,30,31)/p+1/t17-,18-,19-,20-,21+,22+,23-,24-,26-,27-/m1/s1
Instrument: UPLC Q-Tof Premier, Waters
Instrument type: LC-ESI-QTOF
Ms type: MS2
Ion mode: POSITIVE
Collision energy: Ramp 5-60 V
Fragmentation mode: LOW-ENERGY CID
Ionization: ESI
Precursor m/z: 595.16626
Precursor type: [M]+
m/z	relative intensity
271.0614	999
433.1137	150
595.1663	194
