Mass spectrum: Pelargonin; LC-ESI-QTOF; MS2; CE:30 V; [M-H+OH]-
Name: pelargonidin-3,5-di-O-glucoside
Name: Pelargonin
Name: (2S,3R,4S,5S,6R)-2-[7-hydroxy-2-(4-hydroxyphenyl)-5-[(2S,3R,4S,5S,6R)-3,4,5-trihydroxy-6-(hydroxymethyl)oxan-2-yl]oxychromenylium-3-yl]oxy-6-(hydroxym
Class: Natural Product
Formula: [C27H31O15]+
Exact mass: 595.16630
SMILES: O(C5CO)C(C(C(C5O)O)O)Oc(c4)c(c1)c(cc4O)[o+1]c(c(c3)ccc(O)c3)c(OC(O2)C(C(C(C2CO)O)O)O)1
InChI: InChI=1S/C27H30O15/c28-8-17-19(32)21(34)23(36)26(41-17)39-15-6-12(31)5-14-13(15)7-16(25(38-14)10-1-3-11(30)4-2-10)40-27-24(37)22(35)20(33)18(9-29)42-27/h1-7,17-24,26-29,32-37H,8-9H2,(H-,30,31)/p+1/t17-,18-,19-,20-,21+,22+,23-,24-,26-,27-/m1/s1
Instrument: UPLC Q-Tof Premier, Waters
Instrument type: LC-ESI-QTOF
Ms type: MS2
Ion mode: NEGATIVE
Collision energy: 30 V
Fragmentation mode: LOW-ENERGY CID
Ionization: ESI
Full scan fragment ion peak: 611.2
Ion type: [M-H+OH]-
m/z	relative intensity
93.0880	44
120.0111	50
121.0426	42
137.0052	30
149.0368	194
149.9786	32
162.8624	26
164.0144	35
165.0577	325
165.9522	52
167.0741	86
167.9676	26
176.9560	24
189.0343	38
191.0415	72
191.9960	96
193.0361	999
193.8484	140
194.7722	57
195.7278	25
201.0735	91
202.0577	20
207.0651	25
217.0471	36
219.0334	23
243.1017	51
259.0803	32
266.7198	22
267.9894	41
269.0642	666
269.9733	124
270.9926	56
271.9611	21
284.8800	29
286.1010	53
287.0693	996
287.9695	176
288.9263	65
290.1624	31
311.0742	124
312.0058	21
329.1100	41
354.0515	44
355.0806	211
356.0510	44
449.1219	204
450.0271	41
