Mass spectrum: D,L-alpha,epsilon-Diaminopimelic acid; GC-EI-TOF; MS; 4 TMS; BP:73
Name: D,L-alpha,epsilon-Diaminopimelic acid
Class: Natural Product
Formula: C7H14N2O4
Exact mass: 190.09536
SMILES: OC(=O)C(N)CCCC(N)C(O)=O
InChI: InChI=1S/C7H14N2O4/c8-4(6(10)11)2-1-3-5(9)7(12)13/h4-5H,1-3,8-9H2,(H,10,11)(H,12,13)/t4-,5-/m1/s1
Instrument: Pegasus III TOF-MS system, Leco; GC 6890, Agilent Technologies
Instrument type: GC-EI-TOF
Ms type: MS
Ion mode: POSITIVE
Retention time: 471.508 sec
Base peak: 73
Derivative form: C19H46N2O4Si4
Derivative mass: 478.25346
Derivative type: 4 TMS
m/z	relative intensity
60	11
61	10
62	2
63	2
65	1
66	3
67	3
68	1
69	1
70	10
71	5
72	21
73	999
74	114
75	90
76	9
77	40
78	3
79	4
80	6
81	3
82	183
83	14
84	6
85	6
86	9
87	4
88	3
89	2
90	3
92	4
93	3
94	1
95	1
96	2
97	2
98	9
99	4
100	78
101	15
102	21
103	16
104	2
105	2
108	2
109	10
110	12
111	2
112	9
113	3
114	23
115	22
116	20
117	18
118	5
119	4
120	2
122	12
123	1
124	1
126	34
127	8
128	242
129	38
130	22
131	19
132	15
133	27
134	5
135	3
138	2
139	1
140	6
141	3
142	15
143	3
144	17
145	3
146	8
147	124
148	23
149	14
150	2
151	1
152	2
153	1
154	35
155	41
156	23
157	7
158	3
159	2
160	2
161	1
162	3
163	2
164	1
165	2
166	5
167	2
168	3
169	2
170	5
171	7
172	16
173	4
174	5
175	1
176	1
177	1
180	1
181	43
182	41
183	10
184	20
185	3
186	4
187	1
188	8
189	2
190	12
191	11
192	3
193	2
194	1
198	1
199	1
200	407
201	61
202	27
203	5
204	2
205	1
214	1
215	1
216	3
217	2
218	22
219	12
220	4
221	2
227	1
228	3
229	2
230	6
231	1
232	3
242	2
243	2
244	4
245	2
246	1
255	6
256	4
257	1
258	1
260	1
271	25
272	242
273	60
274	24
275	4
283	2
284	2
299	1
345	1
346	3
347	1
361	2
373	6
374	4
375	2
463	1
477	2
478	11
479	5
480	2
