Mass spectrum: Caffeic acid; LC-ESI-QTOF; MS2; CE:Ramp 5-60 V; [M+H]+
Name: 3,4-dihydroxycinnamic acid
Name: Caffeic acid
Name: (E)-3-(3,4-dihydroxyphenyl)prop-2-enoic acid
Class: Natural Product
Formula: C9H8O4
Exact mass: 180.04226
SMILES: C1=CC(=C(C=C1/C=C/C(=O)O)O)O
InChI: InChI=1S/C9H8O4/c10-7-3-1-6(5-8(7)11)2-4-9(12)13/h1-5,10-11H,(H,12,13)/b4-2+
Instrument: UPLC Q-Tof Premier, Waters
Instrument type: LC-ESI-QTOF
Ms type: MS2
Ion mode: POSITIVE
Collision energy: Ramp 5-60 V
Fragmentation mode: LOW-ENERGY CID
Ionization: ESI
Full scan fragment ion peak: 181.1
Ion type: [M+H]+
m/z	relative intensity
77.0386	38
79.0543	33
89.0386	390
89.0880	108
107.0491	57
117.0336	289
117.0906	77
135.0445	308
135.1052	81
145.0289	290
145.0916	72
163.0393	999
163.1061	260
181.0501	46
