Mass spectrum: L-Alanine; CE-ESI-TOF; MS; [M+H]+
Name: L-Alanine
Name: L-2-Aminopropionic acid
Name: L-alpha-Alanine
Formula: C3H7NO2
Exact mass: 89.04768
SMILES: CC(N)C(O)=O
InChI: InChI=1S/C3H7NO2/c1-2(4)3(5)6/h2H,4H2,1H3,(H,5,6)/t2-/m0/s1
Instrument: CE-system connected to 6210 Time-of-Flight MS, Agilent
Instrument type: CE-ESI-TOF
Ms type: MS
Ion mode: POSITIVE
Ionization: ESI
Column name: Fused sillica capillary id=50 um L=100 cm (HMT Inc., Tsuruoka, Japan)
Ion type: [M+H]+
m/z	relative intensity
90.0540	999
90.1726	23
91.0575	34
112.0354	11
