Mass spectrum: L-(-)-Proline; CE-ESI-TOF; MS; [M+H]+
Name: L-Proline
Name: 2-Pyrrolidinecarboxylic acid
Name: L-(-)-Proline
Formula: C5H9NO2
Exact mass: 115.06333
SMILES: OC(=O)C([H])(C1)NCC1
InChI: InChI=1S/C5H9NO2/c7-5(8)4-2-1-3-6-4/h4,6H,1-3H2,(H,7,8)/t4-/m0/s1
Instrument: CE-system connected to 6210 Time-of-Flight MS, Agilent
Instrument type: CE-ESI-TOF
Ms type: MS
Ion mode: POSITIVE
Ionization: ESI
Column name: Fused sillica capillary id=50 um L=100 cm (HMT Inc., Tsuruoka, Japan)
Ion type: [M+H]+
m/z	relative intensity
116.0692	999
