Mass spectrum: 4-Aminobenzoic acid; LC-ESI-QTOF; MS2; CE:Ramp 5-60 V; [M+H]+
Name: 4-Aminobenzoic acid
Name: PABA
Name: ABEE
Name: Vitamin Bx
Name: Vitamin H1
Name: gamma-Aminobenzoic acid
Name: 1-Amino-4-carboxybenzene
Name: 4-Aminobenzoate
Name: Paraminol
Name: 4-Carboxyaniline
Name: Amben
Class: Carboxylic acids
Formula: C7H7NO2
Exact mass: 137.04768
SMILES: Nc(c1)ccc(c1)C(O)=O
InChI: InChI=1S/C7H7NO2/c8-6-3-1-5(2-4-6)7(9)10/h1-4H,8H2,(H,9,10)
Instrument: UPLC Q-Tof Premier, Waters
Instrument type: LC-ESI-QTOF
Ms type: MS2
Ion mode: POSITIVE
Collision energy: Ramp 5-60 V
Fragmentation mode: LOW-ENERGY CID
Ionization: ESI
Precursor m/z: 138.05548
Precursor type: [M+H]+
m/z	relative intensity
77.0404	406
94.0670	407
138.0555	999
