Mass spectrum: L-Glutamic acid; GC-EI-TOF; MS; 3 TMS; BP:73
Name: L-Glutamic acid
Name: L-Glutamate
Name: L-Glutaminic acid
Class: Natural Product
Formula: C5H9NO4
Exact mass: 147.05316
SMILES: OC(=O)CC[C@H](N)C(O)=O
InChI: InChI=1S/C5H9NO4/c6-3(5(9)10)1-2-4(7)8/h3H,1-2,6H2,(H,7,8)(H,9,10)/t3-/m0/s1
Instrument: Pegasus III TOF-MS system, Leco; GC 6890, Agilent Technologies
Instrument type: GC-EI-TOF
Ms type: MS
Ion mode: POSITIVE
Retention time: 398.56 sec
Base peak: 73
Derivative form: C14H33NO4Si3
Derivative mass: 363.17174
Derivative type: 3 TMS
m/z	relative intensity
60	16
61	27
62	2
63	3
65	1
66	13
67	3
69	1
70	9
71	6
72	35
73	999
74	100
75	246
76	24
77	45
78	3
79	8
80	1
82	6
83	8
84	213
85	21
86	12
87	6
88	3
89	5
90	1
91	1
92	1
93	2
94	1
95	3
96	2
97	2
98	9
99	8
100	82
101	17
102	9
103	13
104	2
105	3
110	2
111	1
112	11
113	13
114	20
115	18
116	8
117	15
118	3
119	5
126	2
127	1
128	281
129	57
130	23
131	24
132	16
133	48
134	8
135	5
140	26
141	4
142	3
143	3
144	3
145	2
146	2
147	177
148	34
149	41
150	5
151	2
154	2
155	3
156	157
157	27
158	29
159	5
160	2
161	1
162	1
163	2
168	1
170	1
172	3
173	2
174	10
175	2
176	1
177	1
184	1
186	3
187	1
188	2
189	2
190	1
191	1
198	1
202	5
203	4
204	19
205	4
206	2
214	6
215	1
216	3
217	1
218	20
219	5
220	2
221	6
222	1
229	1
230	62
231	14
232	7
233	1
244	1
245	6
246	388
247	84
248	36
249	5
250	1
258	10
259	2
260	1
273	1
274	3
275	1
276	1
320	3
348	16
349	5
350	2
363	7
364	2
365	1
