Mass spectrum: Inosine; LC-ESI-QTOF; MS2; CE:Ramp 5-60 V; [M-H]-
Name: Inosine
Name: INO
Name: (?)-Inosine
Name: beta-Inosine
Name: Hypoxanthine 9-beta-D-ribofuranoside
Name: 9-beta-D-ribofuranosylhypoxanthine
Name: Hypoxanthine ribonucleoside
Name: Oxiamin
Name: Ribonosine
Name: Trophicardyl
Class: Nucleoside
Formula: C10H12N4O5
Exact mass: 268.08077
SMILES: OC[C@@H](O1)[C@@H](O)[C@@H](O)[C@@H]1n(c3)c(N=2)c(n3)C(=O)NC2
InChI: InChI=1S/C10H12N4O5/c15-1-4-6(16)7(17)10(19-4)14-3-13-5-8(14)11-2-12-9(5)18/h2-4,6-7,10,15-17H,1H2,(H,11,12,18)/t4-,6-,7-,10-/m1/s1
Instrument: UPLC Q-Tof Premier, Waters
Instrument type: LC-ESI-QTOF
Ms type: MS2
Ion mode: NEGATIVE
Collision energy: Ramp 5-60 V
Fragmentation mode: LOW-ENERGY CID
Ionization: ESI
Precursor m/z: 267.07297
Precursor type: [M-H]-
m/z	relative intensity
92.0259	113
108.0207	160
135.0310	999
267.0730	387
