Mass spectrum: Malvidin-3-O-beta-D-galactoside; LC-ESI-QTOF; MS2; CE:30 V; [M-2H+H2O]-
Name: Malvidin-3-galactoside
Name: Primulin
Name: (2S,3R,4S,5S,6R)-2-[5,7-dihydroxy-2-(4-hydroxy-3,5-dimethoxy-phenyl)chromen-3-yl]oxy-6-(hydroxymethyl)oxane-3,4,5-triol
Name: Malvidin-3-O-beta-D-galactoside
Class: Natural Product
Formula: [C23H25O12]+
Exact mass: 493.13460
SMILES: OCC(O1)C(O)C(O)C(O)C1Oc(c3)c([o+1]c(c4)c(c(O)cc(O)4)3)c(c2)cc(OC)c(O)c(OC)2
InChI: InChI=1S/C23H24O12/c1-31-14-3-9(4-15(32-2)18(14)27)22-16(7-11-12(26)5-10(25)6-13(11)33-22)34-23-21(30)20(29)19(28)17(8-24)35-23/h3-7,17,19-21,23-24,28-30H,8H2,1-2H3,(H2-,25,26,27)/p+1/t17-,19+,20+,21-,23-/m1/s1
Instrument: UPLC Q-Tof Premier, Waters
Instrument type: LC-ESI-QTOF
Ms type: MS2
Ion mode: NEGATIVE
Collision energy: 30 V
Fragmentation mode: LOW-ENERGY CID
Ionization: ESI
Full scan fragment ion peak: 509.1
Ion type: [M-2H+H2O]-
m/z	relative intensity
121.0396	37
125.0551	64
137.0517	201
138.0224	93
148.0807	36
149.0529	724
149.8871	111
150.8217	37
152.0964	88
153.0776	83
164.0498	113
165.0448	366
166.0200	133
167.0428	82
180.0652	95
192.0300	322
193.0172	189
193.9611	37
205.0359	36
220.0264	34
246.0692	35
254.9815	32
260.0527	32
261.0716	104
262.8081	30
269.9762	30
271.0186	44
288.0366	34
299.0410	528
299.9529	93
300.9111	37
301.9432	30
303.0633	37
313.0278	59
314.0568	999
314.9634	180
315.8851	63
328.0616	49
329.0828	652
329.9904	127
330.9395	42
346.0862	70
347.0623	54
