Mass spectrum: Guanosine 5'-diphosphoglucose; LC-ESI-QTOF; MS2; CE:Ramp 5-60 V; [M+H]+
Name: Guanosine 5'-diphosphoglucose
Name: GDPG
Name: GDP-glucose
Name: GDP-Glc
Class: Nucleotide-carbohydrates
Formula: C16H25N5O16P2
Exact mass: 605.07715
SMILES: OCC(O1)C(O)C(O)C(O)C1OP(O)(=O)OP(O)(=O)OCC(O2)C(O)C(O)C2n(c4)c(N=3)c(n4)C(=O)NC(N)3
InChI: InChI=1S/C16H25N5O16P2/c17-16-19-12-6(13(28)20-16)18-3-21(12)14-10(26)8(24)5(34-14)2-33-38(29,30)37-39(31,32)36-15-11(27)9(25)7(23)4(1-22)35-15/h3-5,7-11,14-15,22-27H,1-2H2,(H,29,30)(H,31,32)(H3,17,19,20,28)/t4-,5-,7-,8-,9+,10-,11-,14-,15-/m1/s1
Instrument: UPLC Q-Tof Premier, Waters
Instrument type: LC-ESI-QTOF
Ms type: MS2
Ion mode: POSITIVE
Collision energy: Ramp 5-60 V
Fragmentation mode: LOW-ENERGY CID
Ionization: ESI
Precursor m/z: 606.08495
Precursor type: [M+H]+
m/z	relative intensity
444.0401	229
605.8243	67
605.9110	63
606.0850	999
