Mass spectrum: Prunin; LC-ESI-QTOF; MS2; CE:Ramp 5-60 V; [M+H]+
Name: naringenin-7-O-glucoside
Name: Nari-7-Glc
Name: Prunin
Name: Naringenin 7-O-beta-D-glucoside
Name: 4',5-Dihydroxy-7-glucosyloxyflavanone
Name: (S)-7-(beta-D-Glucopyranosyloxy)-2,3-dihydro-5-hydroxy-2-(4-hydroxyphenyl)-4H-1-benzopyran-4-one
Class: Glucosides
Formula: C21H22O10
Exact mass: 434.12130
SMILES: OCC(O1)C(O)C(O)C(O)C1Oc(c4)cc(O2)c(c(O)4)C(=O)CC(c(c3)ccc(O)c3)2
InChI: InChI=1S/C21H22O10/c22-8-16-18(26)19(27)20(28)21(31-16)29-11-5-12(24)17-13(25)7-14(30-15(17)6-11)9-1-3-10(23)4-2-9/h1-6,14,16,18-24,26-28H,7-8H2/t14-,16+,18+,19-,20+,21+/m0/s1
Instrument: UPLC Q-Tof Premier, Waters
Instrument type: LC-ESI-QTOF
Ms type: MS2
Ion mode: POSITIVE
Collision energy: Ramp 5-60 V
Fragmentation mode: LOW-ENERGY CID
Ionization: ESI
Precursor m/z: 435.12909
Precursor type: [M+H]+
m/z	relative intensity
91.0547	36
119.0502	93
123.0450	24
147.0451	280
153.0193	653
273.0759	999
435.1291	22
