Mass spectrum: Flavanone; LC-ESI-QTOF; MS2; CE:30 eV; [M+H]+
Name: 2,3-dihydroflavone
Name: Flavanone
Name: Flva
Name: 2-phenylchroman-4-one
Class: Natural Product
Formula: C15H12O2
Exact mass: 224.08373
SMILES: c(c3)ccc(c3)C(C1)Oc(c2)c(ccc2)C(=O)1
InChI: InChI=1S/C15H12O2/c16-13-10-15(11-6-2-1-3-7-11)17-14-9-5-4-8-12(13)14/h1-9,15H,10H2
Instrument: UPLC Q-Tof Premier, Waters
Instrument type: LC-ESI-QTOF
Ms type: MS2
Ion mode: POSITIVE
Collision energy: 30 eV
Fragmentation mode: LOW-ENERGY CID
Ionization: ESI
Full scan fragment ion peak: 225.1
Ion type: [M+H]+
m/z	relative intensity
65.0272	322
65.0688	41
77.0298	171
79.0458	47
91.0479	58
93.0274	404
93.0770	45
103.0492	726
103.1012	77
121.0250	999
121.0814	103
131.0467	107
147.0421	31
152.0608	30
177.0685	33
178.0765	477
178.1446	38
179.0838	65
181.0636	92
