Mass spectrum: PIPES; LC-ESI-QTOF; MS2; CE:30 V; [M+H]+
Name: PIPES
Name: 1,4-Piperazinediethanesulfonic acid
Name: Piperazine-1,4-bis(2-ethanesulfonic acid)
Name: Piperazine-N,N'-bis(2-ethanesulfonic acid)
Class: N-(sulfoalkyl)piperazines
Formula: C8H18N2O6S2
Exact mass: 302.06063
SMILES: OS(=O)(=O)CCN(C1)CCN(C1)CCS(O)(=O)=O
InChI: InChI=1S/C8H18N2O6S2/c11-17(12,13)7-5-9-1-2-10(4-3-9)6-8-18(14,15)16/h1-8H2,(H,11,12,13)(H,14,15,16)
Instrument: UPLC Q-Tof Premier, Waters
Instrument type: LC-ESI-QTOF
Ms type: MS2
Ion mode: POSITIVE
Collision energy: 30 V
Fragmentation mode: LOW-ENERGY CID
Ionization: ESI
Precursor m/z: 303.06842
Precursor type: [M+H]+
m/z	relative intensity
70.0658	999
84.0808	359
97.0772	376
98.0848	647
112.1011	233
113.1082	293
127.1239	374
152.0387	966
192.0580	298
