Mass spectrum: Succinic acid; LC-ESI-QTOF; MS2; CE:Ramp 5-60 V; [M-H]-
Name: Succinic acid
Name: Succinate
Name: Butanedioic acid
Name: Ethylene Dicarboxylic Acid
Name: Asuccin
Name: Amber acid
Name: Dihydrofumaric acid
Name: Wormwood acid
Name: Dicarboxylic Acid C4
Name: 1,2-Ethanedicarboxylic acid
Class: Carboxylic acids
Formula: C4H6O4
Exact mass: 118.02661
SMILES: OC(=O)CCC(O)=O
InChI: InChI=1S/C4H6O4/c5-3(6)1-2-4(7)8/h1-2H2,(H,5,6)(H,7,8)
Instrument: UPLC Q-Tof Premier, Waters
Instrument type: LC-ESI-QTOF
Ms type: MS2
Ion mode: NEGATIVE
Collision energy: Ramp 5-60 V
Fragmentation mode: LOW-ENERGY CID
Ionization: ESI
Precursor m/z: 117.01881
Precursor type: [M-H]-
m/z	relative intensity
73.0296	999
99.0086	113
117.0188	560
