Mass spectrum: Kaempferol-3-Glucoside-3''-Rhamnoside; LC-ESI-QTOF; MS2; CE:Ramp 5-60 V; [M-H]-
Name: Kaempferol-3-Glucoside-3''-Rhamnoside
Name: Kaem-3-Glc-3''-Rha
Name: Kaempferol-3-rungioside
Name: Kaempferol-3-Glucoside-3-Rhamnoside
Class: Flavonoid
Formula: C27H30O15
Exact mass: 594.15847
SMILES: c(c5)(O)cc(c(c51)C(C(OC(O4)C(C(C(C4CO)O)OC(O3)(C(C(C(C3C)O)O)O)[H])O)=C(c(c2)ccc(O)c2)O1)=O)O
InChI: InChI=1S/C27H30O15/c1-9-17(32)20(35)21(36)26(38-9)41-24-18(33)15(8-28)40-27(22(24)37)42-25-19(34)16-13(31)6-12(30)7-14(16)39-23(25)10-2-4-11(29)5-3-10/h2-7,9,15,17-18,20-22,24,26-33,35-37H,8H2,1H3/t9-,15+,17-,18+,20+,21+,22+,24-,26-,27-/m0/s1
Instrument: UPLC Q-Tof Premier, Waters
Instrument type: LC-ESI-QTOF
Ms type: MS2
Ion mode: NEGATIVE
Collision energy: Ramp 5-60 V
Fragmentation mode: LOW-ENERGY CID
Ionization: ESI
Precursor m/z: 593.15064
Precursor type: [M-H]-
m/z	relative intensity
227.0364	165
255.0313	348
284.0344	605
285.0420	817
286.0474	97
593.1506	999
594.1629	214
