Mass spectrum: Sebacic acid; GC-EI-TOF; MS; 2 TMS; BP:73
Name: Sebacic acid
Name: Decanedioic acid
Class: Natural Product
Formula: C10H18O4
Exact mass: 202.12051
SMILES: OC(=O)CCCCCCCCC(O)=O
InChI: InChI=1S/C10H18O4/c11-9(12)7-5-3-1-2-4-6-8-10(13)14/h1-8H2,(H,11,12)(H,13,14)
Instrument: Pegasus III TOF-MS system, Leco; GC 6890, Agilent Technologies
Instrument type: GC-EI-TOF
Ms type: MS
Ion mode: POSITIVE
Retention time: 491.362 sec
Base peak: 73
Derivative form: C16H34O4Si2
Derivative mass: 346.19956
Derivative type: 2 TMS
m/z	relative intensity
60	22
61	85
62	9
63	9
64	1
65	6
66	6
67	64
68	1
69	61
70	15
71	20
72	69
73	999
74	119
75	769
76	76
77	102
78	10
79	85
80	9
81	79
82	10
83	54
84	14
85	24
86	18
87	9
88	9
89	15
90	2
91	21
92	4
93	75
94	9
95	51
96	13
97	81
98	21
99	23
100	4
101	17
102	4
103	9
104	1
105	19
106	2
107	49
108	5
109	7
110	10
111	12
112	5
113	3
114	1
115	10
116	50
117	165
118	18
119	25
120	8
121	60
122	7
123	6
124	7
125	63
126	6
127	2
128	2
129	208
130	30
131	47
132	18
133	30
134	5
135	3
136	1
137	13
138	43
139	13
140	1
141	3
142	2
143	19
144	3
145	18
146	3
147	84
148	23
149	126
150	19
151	12
152	1
153	1
155	6
156	9
157	12
158	5
159	11
160	2
161	1
162	1
163	2
165	2
166	34
167	10
168	1
169	3
170	7
171	9
172	2
173	9
174	2
175	1
177	1
181	2
182	1
183	6
184	1
185	27
186	4
187	3
189	4
190	2
191	2
195	1
197	5
198	1
199	9
200	2
201	1
202	5
203	7
204	51
205	13
206	5
207	1
211	2
213	11
214	5
215	81
216	14
217	43
218	10
219	4
223	5
224	1
228	14
229	3
230	1
231	2
238	1
239	3
241	1
256	1
257	2
259	2
287	6
288	1
313	1
315	6
316	2
330	4
331	79
332	22
333	8
334	1
