Mass spectrum: D-(+)-Glyceric acid; LC-ESI-QTOF; MS2; CE:Ramp 5-60 V; [M-H]-
Name: D-(+)-Glyceric acid
Name: Glycerate
Name: 2,3-Dihydroxypropanoic acid
Class: Carboxylic acids
Formula: C3H6O4
Exact mass: 106.02661
SMILES: OC[C@@H](O)C(O)=O
InChI: InChI=1S/C3H6O4/c4-1-2(5)3(6)7/h2,4-5H,1H2,(H,6,7)/t2-/m1/s1
Instrument: UPLC Q-Tof Premier, Waters
Instrument type: LC-ESI-QTOF
Ms type: MS2
Ion mode: NEGATIVE
Collision energy: Ramp 5-60 V
Fragmentation mode: LOW-ENERGY CID
Ionization: ESI
Precursor m/z: 105.01881
Precursor type: [M-H]-
m/z	relative intensity
72.9940	98
75.0098	122
105.0188	999
