Mass spectrum: Inosine-5'-diphosphate; LC-ESI-QTOF; MS2; CE:Ramp 5-60 V; [M-H]-
Name: Inosine-5'-diphosphate
Name: IDP
Name: 5'-IDP
Class: Natural Product; Nucleoside; Phosphates
Formula: C10H14N4O11P2
Exact mass: 428.01343
SMILES: O=C(N3)c(n2)c(N=C3)n(c2)[C@H](O1)[C@H](O)[C@H](O)[C@@H](COP(O)(=O)OP(O)(O)=O)1
InChI: InChI=1S/C10H14N4O11P2/c15-6-4(1-23-27(21,22)25-26(18,19)20)24-10(7(6)16)14-3-13-5-8(14)11-2-12-9(5)17/h2-4,6-7,10,15-16H,1H2,(H,21,22)(H,11,12,17)(H2,18,19,20)/t4-,6-,7-,10-/m1/s1
Instrument: UPLC Q-Tof Premier, Waters
Instrument type: LC-ESI-QTOF
Ms type: MS2
Ion mode: NEGATIVE
Collision energy: Ramp 5-60 V
Fragmentation mode: LOW-ENERGY CID
Ionization: ESI
Precursor m/z: 427.00563
Precursor type: [M-H]-
m/z	relative intensity
78.9602	988
92.0267	66
96.9711	67
135.0320	907
158.9256	879
272.9583	101
329.0290	310
369.0252	75
408.9914	128
427.0056	999
