Mass spectrum: L-Homocarnosine; GC-EI-TOF; MS; 3 TMS; BP:73
Name: L-Homocarnosine
Name: Homocarnosine
Name: gamma-Aminobutyryl histidine
Name: N-(4-Amino-1-oxobutyryl)histidine
Class: Natural Product
Formula: C10H16N4O3
Exact mass: 240.12224
SMILES: C1=C(NC=N1)C[C@@H](C(=O)O)NC(=O)CCCN
InChI: InChI=1S/C10H16N4O3/c11-3-1-2-9(15)14-8(10(16)17)4-7-5-12-6-13-7/h5-6,8H,1-4,11H2,(H,12,13)(H,14,15)(H,16,17)/t8-/m0/s1
Instrument: Pegasus III TOF-MS system, Leco; GC 6890, Agilent Technologies
Instrument type: GC-EI-TOF
Ms type: MS
Ion mode: POSITIVE
Retention time: 498.688 sec
Base peak: 73
Derivative form: C19H40N4O3Si3
Derivative mass: 456.24082
Derivative type: 3 TMS
m/z	relative intensity
60	8
61	7
62	1
63	2
65	1
66	3
67	2
69	2
70	13
71	7
72	24
73	999
74	96
75	73
76	6
77	26
78	3
79	15
80	2
81	28
82	38
83	15
84	23
85	12
86	10
87	3
88	1
89	1
92	1
93	1
94	1
95	1
96	4
97	3
98	8
99	3
100	56
101	10
102	6
103	4
105	1
107	1
109	2
110	6
111	5
112	13
113	3
114	1
115	3
116	2
117	5
118	1
119	2
120	1
121	1
123	2
124	2
125	3
126	9
127	2
128	3
129	1
130	7
131	9
132	16
133	11
134	2
135	2
136	1
137	1
138	2
139	5
140	2
141	1
142	1
144	2
145	1
146	1
147	40
148	6
149	3
150	3
151	2
152	1
153	30
154	668
155	146
156	38
157	5
158	2
159	3
160	3
161	1
163	2
165	2
166	15
167	5
168	2
169	1
170	1
172	1
174	2
175	1
180	1
181	1
182	5
183	3
184	1
190	1
203	3
204	1
211	1
218	30
219	5
220	2
221	1
223	1
225	2
226	8
227	3
228	1
238	23
239	6
240	3
241	1
252	1
253	2
254	111
255	27
256	11
257	6
258	1
266	5
267	1
268	1
281	1
328	3
329	1
330	1
355	1
356	8
357	2
358	1
371	3
372	1
