Mass spectrum: L-(+)-Lysine; LC-ESI-QTOF; MS2; CE:Ramp 5-60 V; [M+H]+
Name: L-(+)-Lysine
Name: Lys
Name: Lysine acid
Name: 2,6-diaminohexanoic acid
Class: Amino acids
Formula: C6H14N2O2
Exact mass: 146.10553
SMILES: NCCCC[C@H](N)C(O)=O
InChI: InChI=1S/C6H14N2O2/c7-4-2-1-3-5(8)6(9)10/h5H,1-4,7-8H2,(H,9,10)/t5-/m0/s1
Instrument: UPLC Q-Tof Premier, Waters
Instrument type: LC-ESI-QTOF
Ms type: MS2
Ion mode: POSITIVE
Collision energy: Ramp 5-60 V
Fragmentation mode: LOW-ENERGY CID
Ionization: ESI
Precursor m/z: 147.11332
Precursor type: [M+H]+
m/z	relative intensity
67.0558	54
84.0786	999
84.3087	90
130.0841	326
147.1133	104
