Mass spectrum: Sabinene; LC-ESI-QTOF; MS2; CE:Ramp 5-60 V; [M+H]+
Name: Sabinene
Name: Sabinen
Name: Thuj-4(10)-ene
Name: 1-Isopropyl-4-methylenebicyclo(3.1.0)hexane
Class: Prenol Lipids; Isoprenoids
Formula: C10H16
Exact mass: 136.12520
SMILES: CC(C)[C@@](C2)(C1)[C@@H]([C@@](=C)C2)1
InChI: InChI=1S/C10H16/c1-7(2)10-5-4-8(3)9(10)6-10/h7,9H,3-6H2,1-2H3
Instrument: UPLC Q-Tof Premier, Waters
Instrument type: LC-ESI-QTOF
Ms type: MS2
Ion mode: POSITIVE
Collision energy: Ramp 5-60 V
Fragmentation mode: LOW-ENERGY CID
Ionization: ESI
Precursor m/z: 137.13299
Precursor type: [M+H]+
m/z	relative intensity
66.0836	98
94.0934	467
122.1034	515
137.1330	999
