Mass spectrum: Pentachlorophenol; GC-EI-TOF; MS; 1 TMS; BP:93
Name: Pentachlorophenol
Name: PCP
Class: Natural Product
Formula: C6HCl5O
Exact mass: 263.84700
SMILES: Oc(c(Cl)1)c(Cl)c(Cl)c(Cl)c(Cl)1
InChI: InChI=1S/C6HCl5O/c7-1-2(8)4(10)6(12)5(11)3(1)9/h12H
Instrument: Pegasus III TOF-MS system, Leco; GC 6890, Agilent Technologies
Instrument type: GC-EI-TOF
Ms type: MS
Ion mode: POSITIVE
Retention time: 459.364 sec
Base peak: 93
Derivative form: C9H9Cl5OSi
Derivative mass: 335.88653
Derivative type: 1 TMS
m/z	relative intensity
60	26
61	13
62	4
63	238
64	22
65	298
66	22
67	78
69	1
70	6
71	24
72	27
73	429
74	56
75	35
76	5
77	14
78	18
79	94
80	13
81	33
82	3
83	8
84	9
85	12
86	6
87	26
88	3
89	15
90	2
91	2
92	22
93	999
94	85
95	447
96	44
97	45
98	9
99	15
100	5
101	15
102	5
103	6
104	4
105	5
106	15
107	34
108	22
109	42
110	12
111	16
112	5
113	115
114	10
115	79
116	6
117	27
118	12
119	13
120	9
121	7
122	2
123	10
124	2
125	9
126	2
127	7
129	4
130	87
131	18
132	58
133	33
134	11
135	25
136	4
137	12
138	2
139	3
141	18
142	26
143	28
144	19
145	22
146	6
147	10
148	1
149	3
151	1
152	1
153	1
155	2
157	6
158	6
159	6
160	4
161	7
162	7
163	5
164	2
165	97
166	7
167	92
168	7
169	30
170	3
171	7
172	4
173	8
174	3
175	4
177	7
178	1
179	9
180	3
181	6
182	2
183	2
184	1
185	1
186	1
187	1
188	1
189	1
191	4
192	2
193	7
194	3
195	6
196	2
197	2
198	1
200	19
201	3
202	26
203	4
204	13
205	3
206	3
207	3
208	1
209	2
211	1
212	3
213	1
214	5
215	28
216	10
217	19
218	5
219	4
220	1
221	1
223	2
225	2
226	1
227	23
228	10
229	30
230	13
231	16
232	6
233	4
234	1
235	19
236	2
237	30
238	3
239	19
240	2
241	6
243	2
245	2
247	1
249	5
250	9
251	26
252	15
253	23
254	8
255	8
256	2
257	2
259	1
261	1
263	6
264	3
265	10
266	6
267	7
268	4
269	2
270	1
271	2
272	1
273	2
275	1
285	7
286	22
287	17
288	30
289	15
290	16
291	8
292	4
293	3
295	1
320	2
321	200
322	35
323	339
324	54
325	232
326	35
327	81
328	11
329	14
330	2
331	1
336	38
337	6
338	61
339	10
340	40
341	6
342	13
343	2
344	2
