Mass spectrum: Uridine 5'-monophosphate; LC-ESI-QTOF; MS2; CE:Ramp 5-60 V; [M-H]-
Name: Uridine 5'-monophosphate
Name: UMP
Name: U 5'-P
Name: Uridylic acid
Name: uridylate
Class: Natural Product; Nucleoside; Phosphates
Formula: C9H13N2O9P
Exact mass: 324.03587
SMILES: O=C(C=2)NC(=O)N(C2)[C@H](O1)[C@H](O)[C@H](O)[C@@H](COP(O)(O)=O)1
InChI: InChI=1S/C9H13N2O9P/c12-5-1-2-11(9(15)10-5)8-7(14)6(13)4(20-8)3-19-21(16,17)18/h1-2,4,6-8,13-14H,3H2,(H,10,12,15)(H2,16,17,18)/t4-,6-,7-,8-/m1/s1
Instrument: UPLC Q-Tof Premier, Waters
Instrument type: LC-ESI-QTOF
Ms type: MS2
Ion mode: NEGATIVE
Collision energy: Ramp 5-60 V
Fragmentation mode: LOW-ENERGY CID
Ionization: ESI
Precursor m/z: 323.02807
Precursor type: [M-H]-
m/z	relative intensity
78.9604	999
96.9705	653
111.0208	190
211.0024	113
323.0281	524
