Mass spectrum: Chalcone; LC-ESI-QTOF; MS2; CE:Ramp 5-60 V; [M+H]+
Name: Chalcone
Name: Benzalacetophenone
Name: 1,3-Diphenyl-2-propenone
Name: Phenyl styryl ketone
Class: Chalcones
Formula: C15H12O
Exact mass: 208.08882
SMILES: O=C(C=Cc(c2)cccc2)c(c1)cccc1
InChI: InChI=1S/C15H12O/c16-15(14-9-5-2-6-10-14)12-11-13-7-3-1-4-8-13/h1-12H/b12-11+
Instrument: UPLC Q-Tof Premier, Waters
Instrument type: LC-ESI-QTOF
Ms type: MS2
Ion mode: POSITIVE
Collision energy: Ramp 5-60 V
Fragmentation mode: LOW-ENERGY CID
Ionization: ESI
Precursor m/z: 209.09661
Precursor type: [M+H]+
m/z	relative intensity
77.0412	403
103.0566	972
105.0363	329
131.0510	999
209.0966	531
