Mass spectrum: Hirsutrin; LC-ESI-QTOF; MS2; CE:30 V; [M-H]-
Name: Quercetin-3-O-glucoside
Name: Hirsutrin
Name: Isoquercetin
Name: Quer_3_Glc
Name: 2-(3,4-dihydroxyphenyl)-5,7-dihydroxy-3-[(2S,3R,4S,5S,6R)-3,4,5-trihydroxy-6-(hydroxymethyl)oxan-2-yl]oxy-chromen-4-one
Class: Natural Product
Formula: C21H20O12
Exact mass: 464.09548
SMILES: OCC(O1)C(O)C(O)C(O)C1OC(C(=O)3)=C(Oc(c4)c(c(O)cc(O)4)3)c(c2)cc(O)c(O)c2
InChI: InChI=1S/C21H20O12/c22-6-13-15(27)17(29)18(30)21(32-13)33-20-16(28)14-11(26)4-8(23)5-12(14)31-19(20)7-1-2-9(24)10(25)3-7/h1-5,13,15,17-18,21-27,29-30H,6H2/t13-,15-,17+,18-,21+/m1/s1
Instrument: UPLC Q-Tof Premier, Waters
Instrument type: LC-ESI-QTOF
Ms type: MS2
Ion mode: NEGATIVE
Collision energy: 30 V
Fragmentation mode: LOW-ENERGY CID
Ionization: ESI
Full scan fragment ion peak: 463.1
Ion type: [M-H]-
m/z	relative intensity
151.0494	99
151.9679	21
179.0329	52
243.0550	45
254.0434	32
255.0425	210
255.9785	53
271.0453	405
272.0024	113
272.9251	41
297.3372	29
298.9362	38
300.0397	999
301.0162	439
301.9424	103
302.8185	34
303.7666	23
