Mass spectrum: Tryptamine; GC-EI-TOF; MS; 2 TMS; BP:174
Name: 3-(2-Aminoethyl)indole [Tryptamine]
Name: Tryptamine
Name: 3-(2-Aminoethyl)indole
Class: Natural Product
Formula: C10H12N2
Exact mass: 160.10005
SMILES: C1=CC=C2C(=C1)C(=CN2)CCN
InChI: InChI=1S/C10H12N2/c11-6-5-8-7-12-10-4-2-1-3-9(8)10/h1-4,7,12H,5-6,11H2
Instrument: Pegasus III TOF-MS system, Leco; GC 6890, Agilent Technologies
Instrument type: GC-EI-TOF
Ms type: MS
Ion mode: POSITIVE
Retention time: 523.153 sec
Base peak: 174
Derivative form: C16H28N2Si2
Derivative mass: 304.1791
Derivative type: 2 TMS
m/z	relative intensity
60	22
61	10
62	3
63	10
64	2
65	6
66	1
67	1
69	1
70	12
71	9
72	24
73	987
74	93
75	33
76	15
77	88
78	9
79	2
83	2
84	6
85	9
86	501
87	46
88	20
89	11
90	6
91	6
92	1
93	1
98	1
99	5
100	223
101	43
102	58
103	60
104	8
105	2
113	6
114	7
115	34
116	27
117	47
118	8
119	4
120	2
127	4
128	23
129	17
130	215
131	45
132	12
133	3
134	6
135	1
136	1
137	34
138	3
140	1
141	1
142	8
143	20
144	27
145	10
146	35
147	7
148	5
149	1
154	1
155	1
156	3
157	1
158	12
159	4
160	15
161	2
162	1
170	3
171	1
172	16
173	5
174	999
175	188
176	90
177	10
178	1
184	4
185	1
186	6
187	2
188	20
189	4
190	2
199	3
200	3
201	38
202	8
203	2
214	3
215	29
216	6
217	1
287	2
289	32
290	8
291	3
304	3
305	1
