Mass spectrum: Methylmalonic acid; GC-EI-TOF; MS; 2 TMS; BP:147
Name: Methylmalonic acid
Name: Methylmalonate
Class: Natural Product
Formula: C4H6O4
Exact mass: 118.02661
SMILES: OC(=O)C(C)C(O)=O
InChI: InChI=1S/C4H6O4/c1-2(3(5)6)4(7)8/h2H,1H3,(H,5,6)(H,7,8)
Instrument: Pegasus III TOF-MS system, Leco; GC 6890, Agilent Technologies
Instrument type: GC-EI-TOF
Ms type: MS
Ion mode: POSITIVE
Retention time: 283.802 sec
Base peak: 147
Derivative form: C10H22O4Si2
Derivative mass: 262.10566
Derivative type: 2 TMS
m/z	relative intensity
60	15
61	38
62	3
63	2
65	1
66	128
67	11
69	2
70	7
71	9
72	42
73	815
74	77
75	186
76	18
77	26
78	1
79	3
81	1
83	46
84	5
85	9
86	24
87	10
88	2
89	4
93	3
94	17
95	2
99	4
100	1
101	3
102	3
103	9
104	1
105	5
113	32
114	3
115	19
116	17
117	23
118	3
119	5
129	20
130	12
131	34
132	6
133	47
134	6
135	4
143	1
145	1
146	1
147	999
148	160
149	83
150	8
151	2
157	14
158	1
159	1
163	4
172	5
173	1
175	1
190	2
191	1
203	12
204	2
205	1
217	1
218	41
219	8
220	3
231	4
232	1
247	46
248	9
249	4
262	4
