Mass spectrum: 3-Hydroxy-DL-kynurenine; LC-ESI-QTOF; MS2; CE:Ramp 5-60 V; [M-H]-
Name: 3-Hydroxy-DL-kynurenine
Name: DL-3-Hydroxykynurenine
Name: alpha,2-Diamino-3-hydroxy-gamma-oxobenzenebutanoic acid
Name: 3-(3-hydroxyanthraniloyl)alanine
Class: Amino acids
Formula: C10H12N2O4
Exact mass: 224.07971
SMILES: OC(=O)C(N)CC(=O)c(c1)c(N)c(O)cc1
InChI: InChI=1S/C10H12N2O4/c11-6(10(15)16)4-8(14)5-2-1-3-7(13)9(5)12/h1-3,6,13H,4,11-12H2,(H,15,16)
Instrument: UPLC Q-Tof Premier, Waters
Instrument type: LC-ESI-QTOF
Ms type: MS2
Ion mode: NEGATIVE
Collision energy: Ramp 5-60 V
Fragmentation mode: LOW-ENERGY CID
Ionization: ESI
Precursor m/z: 223.0719
Precursor type: [M-H]-
m/z	relative intensity
108.0652	143
134.0891	240
144.0730	242
147.0609	741
160.0722	343
160.8744	232
162.0872	999
162.8725	317
164.8728	190
188.0709	247
197.8502	156
206.0879	635
223.0719	200
