Mass spectrum: L-Methionine; GC-EI-TOF; MS; 2 TMS; BP:73
Name: L-Methionine
Name: L-2-Amino-4methylthiobutyric acid
Class: Natural Product
Formula: C5H11NO2S
Exact mass: 149.05105
SMILES: N[C@@H](CCSC)C(O)=O
InChI: InChI=1S/C5H11NO2S/c1-9-3-2-4(6)5(7)8/h4H,2-3,6H2,1H3,(H,7,8)/t4-/m0/s1
Instrument: Pegasus III TOF-MS system, Leco; GC 6890, Agilent Technologies
Instrument type: GC-EI-TOF
Ms type: MS
Ion mode: POSITIVE
Retention time: 375.28 sec
Base peak: 73
Derivative form: C11H27NO2SSi2
Derivative mass: 293.1301
Derivative type: 2 TMS
m/z	relative intensity
60	28
61	450
62	16
63	21
65	1
66	9
67	2
69	1
70	18
71	10
72	30
73	999
74	111
75	147
76	14
77	35
78	3
79	6
80	1
82	5
83	7
84	11
85	11
86	22
87	12
88	8
89	5
90	2
91	8
92	2
93	2
95	1
96	3
97	2
98	16
99	4
100	105
101	24
102	22
103	29
104	18
105	30
106	4
107	4
110	1
112	10
113	4
114	46
115	15
116	10
117	15
118	5
119	6
120	1
121	1
126	3
127	2
128	665
129	90
130	48
131	28
132	21
133	30
134	6
135	2
140	2
141	2
142	3
143	1
144	9
145	2
146	6
147	155
148	26
149	14
150	2
151	2
154	1
155	1
156	3
157	4
158	4
159	3
160	25
161	4
162	3
163	3
164	1
172	3
173	3
174	8
175	2
176	832
177	116
178	64
179	7
180	1
186	1
188	25
189	3
190	2
202	36
203	17
204	5
205	2
216	1
218	32
219	65
220	14
221	7
230	4
231	1
232	13
233	2
234	1
250	35
251	8
252	5
263	3
278	3
293	40
294	9
295	5
296	1
