Mass spectrum: Cyanidin-3,5-di-O-glucoside; LC-ESI-QTOF; MS2; CE:30 V; [M-2H+H2O]-
Name: Cyanidin-3, 5-di-O-glucoside
Name: Cyanin
Name: (2S,3R,4S,5S,6R)-2-[2-(3,4-dihydroxyphenyl)-7-hydroxy-5-[(2S,3R,4S,5S,6R)-3,4,5-trihydroxy-6-(hydroxymethyl)oxan-2-yl]oxychromenylium-3-yl]oxy-6-(hydroxymethyl)oxane-3,4,5-triol
Name: Cyanidin-3,5-di-O-glucoside
Class: Natural Product
Formula: [C27H31O16]+
Exact mass: 611.16121
SMILES: c(c(c([o+1]2)c(OC(O5)C(C(C(C5CO)O)O)O)cc(c3OC(O4)C(C(C(C4CO)O)O)O)c(cc(c3)O)2)1)c(O)c(O)cc1
InChI: InChI=1S/C27H30O16/c28-7-17-19(33)21(35)23(37)26(42-17)40-15-5-10(30)4-14-11(15)6-16(25(39-14)9-1-2-12(31)13(32)3-9)41-27-24(38)22(36)20(34)18(8-29)43-27/h1-6,17-24,26-29,33-38H,7-8H2,(H2-,30,31,32)/p+1/t17-,18-,19-,20-,21+,22+,23-,24-,26-,27-/m1/s1
Instrument: UPLC Q-Tof Premier, Waters
Instrument type: LC-ESI-QTOF
Ms type: MS2
Ion mode: NEGATIVE
Collision energy: 30 V
Fragmentation mode: LOW-ENERGY CID
Ionization: ESI
Full scan fragment ion peak: 627.2
Ion type: [M-2H+H2O]-
m/z	relative intensity
109.0594	62
125.0676	115
149.0526	117
161.0469	38
165.0541	72
166.0034	44
167.0672	203
167.9388	34
177.0198	33
191.0601	51
192.0010	78
193.0387	695
193.8999	103
194.7905	33
199.0582	44
217.0728	52
241.0714	230
241.9727	52
243.0061	55
259.0710	39
267.0481	621
267.9599	111
268.8550	36
283.0251	35
284.0511	160
285.0544	999
285.9684	170
286.8893	61
303.0665	415
303.9741	78
309.0463	49
329.1024	421
330.0061	73
339.0810	103
354.0624	45
355.0789	309
356.0136	58
447.1039	161
448.0699	33
465.1080	115
