Mass spectrum: D-Sorbitol; LC-ESI-QTOF; MS2; CE:Ramp 5-60 V; [M+H]+
Name: D-Sorbitol
Name: D-Sorbit
Name: D-Glucitol
Name: D-1,2,3,4,5,6-Hexanehexol
Name: D-Sorbol
Name: Cystosol
Name: Glucarine
Name: Diakarmon
Name: Esasorb
Name: Sorbol
Class: Alditol
Formula: C6H14O6
Exact mass: 182.07904
SMILES: OCC(O)C(O)C(O)C(O)CO
InChI: InChI=1S/C6H14O6/c7-1-3(9)5(11)6(12)4(10)2-8/h3-12H,1-2H2/t3-,4+,5-,6+
Instrument: UPLC Q-Tof Premier, Waters
Instrument type: LC-ESI-QTOF
Ms type: MS2
Ion mode: POSITIVE
Collision energy: Ramp 5-60 V
Fragmentation mode: LOW-ENERGY CID
Ionization: ESI
Precursor m/z: 183.08683
Precursor type: [M+H]+
m/z	relative intensity
69.0348	999
83.0515	495
85.0293	301
87.0457	181
97.9702	164
99.0441	265
99.5119	289
111.0456	323
129.0571	484
147.0670	267
183.0868	164
