Mass spectrum: Spiraeoside; LC-ESI-QTOF; MS2; CE:Ramp 5-60 V; [M+H]+
Name: Spiraeoside
Name: Quer-4p-Glc
Name: quercetin-4'-glucoside
Name: Spiraein
Class: Flavonoid
Formula: C21H20O12
Exact mass: 464.09548
SMILES: OCC(O1)C(O)C(O)C(O)C1Oc(c4)c(O)cc(c4)C(O2)=C(O)C(=O)c(c(O)3)c(cc(O)c3)2
InChI: InChI=1S/C21H20O12/c22-6-13-15(26)17(28)19(30)21(33-13)32-11-2-1-7(3-9(11)24)20-18(29)16(27)14-10(25)4-8(23)5-12(14)31-20/h1-5,13,15,17,19,21-26,28-30H,6H2/t13-,15-,17+,19-,21-/m1/s1
Instrument: UPLC Q-Tof Premier, Waters
Instrument type: LC-ESI-QTOF
Ms type: MS2
Ion mode: POSITIVE
Collision energy: Ramp 5-60 V
Fragmentation mode: LOW-ENERGY CID
Ionization: ESI
Precursor m/z: 465.10327
Precursor type: [M+H]+
m/z	relative intensity
109.0287	12
111.0108	14
121.0290	14
137.0249	47
153.0194	67
163.0414	11
165.0199	36
183.0435	11
201.0563	28
229.0520	66
257.0468	39
274.0504	13
285.0397	14
303.0508	999
304.0547	17
465.1033	160
