Mass spectrum: L-Iditol; LC-ESI-QTOF; MS2; CE:Ramp 5-60 V; [M-H]-
Name: L-Iditol
Name: (2S,3R,4R,5S)-hexane-1,2,3,4,5,6-hexol
Class: Alditol
Formula: C6H14O6
Exact mass: 182.07904
SMILES: OC[C@H](O)[C@@H](O)[C@H](O)[C@@H](O)CO
InChI: InChI=1S/C6H14O6/c7-1-3(9)5(11)6(12)4(10)2-8/h3-12H,1-2H2/t3-,4-,5+,6+/m0/s1
Instrument: UPLC Q-Tof Premier, Waters
Instrument type: LC-ESI-QTOF
Ms type: MS2
Ion mode: NEGATIVE
Collision energy: Ramp 5-60 V
Fragmentation mode: LOW-ENERGY CID
Ionization: ESI
Precursor m/z: 181.07123
Precursor type: [M-H]-
m/z	relative intensity
59.0149	124
71.0150	353
73.0309	167
89.0242	131
101.0249	263
181.0712	999
