Mass spectrum: O-Acetyl-L-serine; LC-ESI-QTOF; MS2; CE:Ramp 5-60 V; [M+H]+
Name: O-Acetyl-L-serine
Name: Ser(Ac)
Name: 3-acetyloxy-2-aminopropanoic acid
Class: Amino acids
Formula: C5H9NO4
Exact mass: 147.05316
SMILES: CC(=O)OC[C@H](N)C(O)=O
InChI: InChI=1S/C5H9NO4/c1-3(7)10-2-4(6)5(8)9/h4H,2,6H2,1H3,(H,8,9)/t4-/m0/s1
Instrument: UPLC Q-Tof Premier, Waters
Instrument type: LC-ESI-QTOF
Ms type: MS2
Ion mode: POSITIVE
Collision energy: Ramp 5-60 V
Fragmentation mode: LOW-ENERGY CID
Ionization: ESI
Precursor m/z: 148.06096
Precursor type: [M+H]+
m/z	relative intensity
60.0452	269
70.0297	66
88.0393	999
102.0557	68
106.0499	792
130.0500	105
131.0346	51
148.0610	140
