Mass spectrum: Eriodictyol-7-O-glucoside; LC-ESI-QTOF; MS2; CE:Ramp 5-60 V; [M-H]-
Name: Eriodictyol-7-O-glucoside
Name: Erid-7-Glc
Name: Miscanthoside
Name: Pyracanthoside
Name: ((S)-2-(3,4-Dihydroxyphenyl)-7-(beta-D-glucopyranosyloxy)-2,3-dihydro-5-hydroxy-4H-1-benzopyran-4-one
Class: Flavonoid
Formula: C21H22O11
Exact mass: 450.11621
SMILES: OCC(O1)C(O)C(O)C(O)C1Oc(c4)cc(O2)c(c(O)4)C(=O)CC2c(c3)cc(O)c(O)c3
InChI: InChI=1S/C21H22O11/c22-7-16-18(27)19(28)20(29)21(32-16)30-9-4-12(25)17-13(26)6-14(31-15(17)5-9)8-1-2-10(23)11(24)3-8/h1-5,14,16,18-25,27-29H,6-7H2/t14-,16+,18+,19-,20+,21+/m0/s1
Instrument: UPLC Q-Tof Premier, Waters
Instrument type: LC-ESI-QTOF
Ms type: MS2
Ion mode: NEGATIVE
Collision energy: Ramp 5-60 V
Fragmentation mode: LOW-ENERGY CID
Ionization: ESI
Precursor m/z: 449.10841
Precursor type: [M-H]-
m/z	relative intensity
65.0048	41
83.0151	34
107.0142	141
125.0252	39
135.0453	750
151.0037	915
175.0041	72
287.0558	999
449.1084	169
