Mass spectrum: DL-beta-Hydroxybutyric acid; LC-ESI-QTOF; MS2; CE:Ramp 5-60 V; [M-H]-
Name: DL-beta-Hydroxybutyric acid
Name: DL-3-Hydroxybutyrate
Name: DL-3-Hydroxybutyric acid
Name: (+/-)-3-Hydroxybutanoic acid
Class: Carboxylic acids
Formula: C4H8O3
Exact mass: 104.04734
SMILES: CC(O)CC(O)=O
InChI: InChI=1S/C4H8O3/c1-3(5)2-4(6)7/h3,5H,2H2,1H3,(H,6,7)
Instrument: UPLC Q-Tof Premier, Waters
Instrument type: LC-ESI-QTOF
Ms type: MS2
Ion mode: NEGATIVE
Collision energy: Ramp 5-60 V
Fragmentation mode: LOW-ENERGY CID
Ionization: ESI
Precursor m/z: 103.03954
Precursor type: [M-H]-
m/z	relative intensity
59.0141	519
103.0395	999
