Mass spectrum: Cyanidin; LC-ESI-QTOF; MS2; CE:Ramp 5-60 eV; [M]+
Name: 3,3',4',5,7-pentahydroxy flavylium
Name: Cyanidin
Name: Cynd
Name: 2-(3,4-dihydroxyphenyl)chromene-3,5,7-triol
Class: Natural Product
Formula: [C15H11O6]+
Exact mass: 287.05556
SMILES: Oc(c3)c(O)cc(c3)c([o+1]1)c(O)cc(c(O)2)c(cc(O)c2)1
InChI: InChI=1S/C15H10O6/c16-8-4-11(18)9-6-13(20)15(21-14(9)5-8)7-1-2-10(17)12(19)3-7/h1-6H,(H4-,16,17,18,19,20)/p+1
Instrument: UPLC Q-Tof Premier, Waters
Instrument type: LC-ESI-QTOF
Ms type: MS2
Ion mode: POSITIVE
Collision energy: Ramp 5-60 eV
Fragmentation mode: LOW-ENERGY CID
Ionization: ESI
Full scan fragment ion peak: 287.1
Ion type: [M]+
m/z	relative intensity
68.9874	12
81.0264	17
109.0253	34
115.0515	28
121.0261	27
127.0530	11
128.0612	26
129.0685	11
137.0224	64
139.0534	25
143.0488	10
149.0232	13
157.0650	21
171.0446	10
185.0608	21
213.0556	59
231.0665	16
241.0505	22
287.0556	999
287.1408	51
288.0593	66
