Mass spectrum: Hypoxanthine; GC-EI-TOF; MS; 2 TMS; BP:73
Name: Hypoxanthine
Name: Purine-6-ol
Class: Natural Product
Formula: C5H4N4O
Exact mass: 136.03851
SMILES: C1=NC2=C(N1)C(=O)N=CN2
InChI: InChI=1S/C5H4N4O/c10-5-3-4(7-1-6-3)8-2-9-5/h1-2H,(H2,6,7,8,9,10)
Instrument: Pegasus III TOF-MS system, Leco; GC 6890, Agilent Technologies
Instrument type: GC-EI-TOF
Ms type: MS
Ion mode: POSITIVE
Retention time: 476.908 sec
Base peak: 73
Derivative form: C11H20N4OSi2
Derivative mass: 280.11756
Derivative type: 2 TMS
m/z	relative intensity
60	13
61	15
62	3
63	4
64	6
65	14
66	20
67	8
68	2
69	13
70	65
71	26
72	68
73	999
74	99
75	70
76	8
77	39
78	11
79	46
80	8
81	7
82	5
83	8
84	168
85	53
86	28
87	7
88	2
89	3
90	2
91	3
92	6
93	9
94	6
95	23
96	12
97	9
98	19
99	22
100	49
101	9
102	5
103	3
104	1
105	2
106	2
107	4
108	2
109	4
110	19
111	35
112	14
113	5
114	3
115	5
116	3
117	5
118	2
119	5
120	1
121	2
122	3
123	20
124	12
125	44
126	7
127	2
128	6
129	1
130	4
131	26
132	8
133	9
134	2
135	1
136	4
137	4
138	13
139	11
140	3
141	3
142	3
143	3
144	2
147	32
148	8
149	3
150	7
151	4
152	13
153	7
154	3
155	2
156	3
157	3
158	30
159	7
160	2
163	3
164	3
165	12
166	41
167	8
168	3
169	2
170	3
171	3
172	33
173	15
174	4
175	2
177	9
178	2
179	4
180	11
181	30
182	6
183	3
184	1
185	1
191	10
192	12
193	41
194	7
195	3
196	1
197	5
198	1
205	2
206	54
207	30
208	13
209	3
210	1
211	6
212	2
213	1
221	1
222	7
223	6
224	4
225	1
235	4
236	2
237	3
238	16
239	8
240	3
249	10
250	3
251	2
252	2
253	1
263	1
264	7
265	410
266	99
267	39
268	6
269	1
279	15
280	134
281	34
282	12
283	2
