Mass spectrum: L-(+)-Rhamnose; LC-ESI-QTOF; MS2; CE:Ramp 5-60 V; [M-H]-
Name: L-(+)-Rhamnose
Name: Rha
Name: dMan
Name: 6-Deoxy-L-mannose
Name: L(+)Rhamnopyranose
Name: Isodulcitol
Name: Mannomethylose
Name: Locaose
Class: Monosaccharide
Formula: C6H12O5
Exact mass: 164.06847
SMILES: C[C@H](O1)[C@H](O)[C@@H](O)[C@@H](O)C(O)1
InChI: InChI=1S/C6H12O5/c1-2-3(7)4(8)5(9)6(10)11-2/h2-10H,1H3/t2-,3-,4+,5+,6?/m0/s1
Instrument: UPLC Q-Tof Premier, Waters
Instrument type: LC-ESI-QTOF
Ms type: MS2
Ion mode: NEGATIVE
Collision energy: Ramp 5-60 V
Fragmentation mode: LOW-ENERGY CID
Ionization: ESI
Precursor m/z: 163.06067
Precursor type: [M-H]-
m/z	relative intensity
145.8914	438
162.8945	999
163.0607	59
