Mass spectrum: D-Arabinose 5-phosphate; LC-ESI-QTOF; MS2; CE:Ramp 5-60 V; [M-H]-
Name: D-Arabinose-5-phosphate
Name: Ara-5P
Name: D-Arabinose 5-phosphate
Class: Natural Product; Carbohydrate; Phosphates
Formula: C5H11O8P
Exact mass: 230.01915
SMILES: O=C[C@@H](O)[C@H](O)[C@H](O)COP(O)(O)=O
InChI: InChI=1S/C5H11O8P/c6-1-3(7)5(9)4(8)2-13-14(10,11)12/h1,3-5,7-9H,2H2,(H2,10,11,12)/t3-,4-,5+/m1/s1
Instrument: UPLC Q-Tof Premier, Waters
Instrument type: LC-ESI-QTOF
Ms type: MS2
Ion mode: NEGATIVE
Collision energy: Ramp 5-60 V
Fragmentation mode: LOW-ENERGY CID
Ionization: ESI
Precursor m/z: 229.01135
Precursor type: [M-H]-
m/z	relative intensity
78.9593	769
96.9692	999
138.9789	148
229.0114	101
