Mass spectrum: DL-4-Hydroxy-3-methoxymandelic acid; LC-ESI-QTOF; MS2; CE:Ramp 5-60 V; [M-H]-
Name: DL-4-Hydroxy-3-methoxymandelic acid
Name: VMA
Name: 4-Hydroxy-3-methoxymandelate
Name: Vanillylmandelic acid
Name: Vanillomandelic acid
Name: Vanilmandelic acid
Name: Vanilinmandelic Acid
Name: alpha,4-Dihydroxy-3-methoxybenzeneacetic acid
Class: Carboxylic acids
Formula: C9H10O5
Exact mass: 198.05282
SMILES: COc(c1)c(O)ccc1C(O)C(O)=O
InChI: InChI=1S/C9H10O5/c1-14-7-4-5(2-3-6(7)10)8(11)9(12)13/h2-4,8,10-11H,1H3,(H,12,13)
Instrument: UPLC Q-Tof Premier, Waters
Instrument type: LC-ESI-QTOF
Ms type: MS2
Ion mode: NEGATIVE
Collision energy: Ramp 5-60 V
Fragmentation mode: LOW-ENERGY CID
Ionization: ESI
Precursor m/z: 197.04502
Precursor type: [M-H]-
m/z	relative intensity
137.0244	999
138.0318	439
197.0450	437
