Mass spectrum: 2-Deoxyribose 5-phosphate; LC-ESI-QTOF; MS2; CE:Ramp 5-60 V; [M-H]-
Name: 2-Deoxyribose-5-phosphate
Name: d-ribose-5P
Name: 2-Deoxyribose 5-phosphate
Class: Natural Product; Carbohydrate; Phosphates
Formula: C5H11O7P
Exact mass: 214.02424
SMILES: OC(C1)O[C@H](COP(O)(O)=O)[C@@H](O)1
InChI: InChI=1S/C5H11O7P/c6-3-1-5(7)12-4(3)2-11-13(8,9)10/h3-7H,1-2H2,(H2,8,9,10)/t3-,4+,5?/m0/s1
Instrument: UPLC Q-Tof Premier, Waters
Instrument type: LC-ESI-QTOF
Ms type: MS2
Ion mode: NEGATIVE
Collision energy: Ramp 5-60 V
Fragmentation mode: LOW-ENERGY CID
Ionization: ESI
Precursor m/z: 213.01644
Precursor type: [M-H]-
m/z	relative intensity
78.9596	587
96.9694	999
213.0164	165
