Mass spectrum: 6-(gamma,gamma-Dimethylallylamino)purine; GC-EI-TOF; MS; 1 TMS; BP:73
Name: 6-(gamma,gamma-Dimethylallylamino)purine
Name: N6-Dimethylallyladenine
Name: N6-(delta2-Isopentenyl)-adenine
Name: N6-(3-Methylbut-2-enyl)adenine
Class: Natural Product
Formula: C10H13N5
Exact mass: 203.11710
SMILES: CC(C)=CCNC(=N2)C(N=1)C(N=C2)=NC1
InChI: InChI=1S/C10H13N5/c1-7(2)3-4-11-9-8-10(13-5-12-8)15-6-14-9/h3,5-6,8H,4H2,1-2H3,(H,11,12,13,14,15)
Instrument: Pegasus III TOF-MS system, Leco; GC 6890, Agilent Technologies
Instrument type: GC-EI-TOF
Ms type: MS
Ion mode: POSITIVE
Retention time: 515.265 sec
Base peak: 73
Derivative form: C13H21N5Si
Derivative mass: 275.15662
Derivative type: 1 TMS
m/z	relative intensity
60	13
61	3
62	2
63	3
64	5
65	29
66	29
67	75
68	7
69	37
70	56
71	28
72	67
73	999
74	156
75	36
76	5
77	15
78	10
79	26
80	18
81	15
82	20
83	16
84	188
85	62
86	19
87	6
88	5
89	2
90	1
91	4
92	24
93	38
94	24
95	21
96	12
97	11
98	15
99	50
100	18
101	74
102	7
103	3
104	2
105	8
106	9
107	12
108	21
109	17
110	11
111	30
112	6
113	5
114	1
115	2
117	2
118	4
119	51
120	18
121	15
122	10
123	26
124	9
125	6
126	6
127	1
130	1
131	4
132	8
133	9
134	13
135	26
136	20
137	12
138	20
139	5
140	2
142	1
144	2
145	3
146	5
147	5
148	12
149	7
150	20
151	14
152	9
153	2
154	1
157	1
158	5
159	17
160	44
161	30
162	11
163	5
164	28
165	51
166	38
167	7
168	1
171	5
172	5
173	6
174	5
175	23
176	14
177	11
178	7
179	11
180	14
181	3
185	18
186	12
187	5
188	23
189	4
190	5
191	19
192	247
193	46
194	11
195	1
200	3
201	2
202	16
203	4
204	2
205	3
206	50
207	90
208	19
209	4
216	9
217	5
218	3
219	4
220	27
221	5
222	1
230	1
231	10
232	606
233	147
234	41
235	5
243	5
244	7
245	14
246	7
247	16
248	5
249	1
257	11
258	6
259	14
260	254
261	54
262	13
263	1
272	1
274	19
275	99
276	21
277	5
