Mass spectrum: Inosine-5'-monophosphate; LC-ESI-QTOF; MS2; CE:Ramp 5-60 V; [M-H]-
Name: Inosine-5'-monophosphate
Name: 5'-IMP
Name: IMP
Name: Inosinic acid
Class: Natural Product; Nucleoside; Phosphates
Formula: C10H13N4O8P
Exact mass: 348.04710
SMILES: C1=NC2=C(C(=O)N1)N=CN2[C@H]3[C@@H]([C@@H]([C@H](O3)COP(=O)(O)O)O)O
InChI: InChI=1S/C10H13N4O8P/c15-6-4(1-21-23(18,19)20)22-10(7(6)16)14-3-13-5-8(14)11-2-12-9(5)17/h2-4,6-7,10,15-16H,1H2,(H,11,12,17)(H2,18,19,20)/t4-,6-,7-,10-/m1/s1
Instrument: UPLC Q-Tof Premier, Waters
Instrument type: LC-ESI-QTOF
Ms type: MS2
Ion mode: NEGATIVE
Collision energy: Ramp 5-60 V
Fragmentation mode: LOW-ENERGY CID
Ionization: ESI
Precursor m/z: 347.0393
Precursor type: [M-H]-
m/z	relative intensity
78.9602	999
92.0260	132
96.9704	496
135.0315	360
150.9805	56
211.0021	89
347.0393	639
