Mass spectrum: trans-Cinnamic acid; GC-EI-TOF; MS; 1 TMS; BP:77
Name: trans-Cinnamic acid
Name: trans-Cinnamate
Class: Natural Product
Formula: C9H8O2
Exact mass: 148.05243
SMILES: OC(=O)C=Cc(c1)cccc1
InChI: InChI=1S/C9H8O2/c10-9(11)7-6-8-4-2-1-3-5-8/h1-7H,(H,10,11)/b7-6+
Instrument: Pegasus III TOF-MS system, Leco; GC 6890, Agilent Technologies
Instrument type: GC-EI-TOF
Ms type: MS
Ion mode: POSITIVE
Retention time: 417.244 sec
Base peak: 77
Derivative form: C12H16O2Si
Derivative mass: 220.09196
Derivative type: 1 TMS
m/z	relative intensity
60	45
61	92
62	50
63	119
64	13
65	18
66	7
67	7
69	2
70	6
71	7
72	29
73	248
74	172
75	695
76	271
77	999
78	85
79	44
80	3
81	5
83	5
84	4
85	31
86	9
87	13
88	4
89	19
90	9
91	31
92	6
93	6
94	2
95	2
96	1
97	1
98	11
99	34
100	5
101	42
102	459
103	912
104	88
105	20
106	2
107	4
108	1
109	2
111	1
113	1
114	1
115	27
116	9
117	13
118	9
119	6
120	2
121	7
122	1
123	1
127	2
128	6
129	29
130	29
131	790
132	83
133	44
134	7
135	197
136	28
137	9
138	1
141	1
142	10
143	15
144	5
145	340
146	59
147	28
148	36
149	6
150	2
151	1
152	1
153	1
154	1
155	1
156	1
157	1
158	1
159	53
160	12
161	597
162	97
163	27
164	3
175	1
176	17
177	4
178	1
179	1
180	1
182	1
185	1
186	1
187	1
188	1
189	2
190	1
191	1
192	17
193	4
194	1
201	1
203	2
204	3
205	601
206	107
207	31
208	4
219	20
220	166
221	32
222	8
223	1
