Mass spectrum: Syringaldehyde; LC-ESI-QTOF; MS2; CE:Ramp 5-60 V; [M+H]+
Name: Syringaldehyde
Name: Syringic aldehyde
Name: Syringylaldehyde
Name: Syringealdehyde
Name: Gallaldehyde 3,5-dimethyl ether
Name: 4-Hydroxy-3,5-dimethoxybenzaldehyde
Name: 3,5-Dimethoxy-4-hydroxybenzene carbonal
Formula: C9H10O4
Exact mass: 182.05791
SMILES: O=Cc(c1)cc(OC)c(O)c(OC)1
InChI: InChI=1S/C9H10O4/c1-12-7-3-6(5-10)4-8(13-2)9(7)11/h3-5,11H,1-2H3
Instrument: UPLC Q-Tof Premier, Waters
Instrument type: LC-ESI-QTOF
Ms type: MS2
Ion mode: POSITIVE
Collision energy: Ramp 5-60 V
Fragmentation mode: LOW-ENERGY CID
Ionization: ESI
Precursor m/z: 183.06573
Precursor type: [M+H]+
m/z	relative intensity
65.0416	106
67.0571	84
77.0406	779
79.0206	14
80.0284	39
93.0355	61
95.0504	894
96.9401	22
97.0300	72
97.9451	17
97.9704	119
99.5116	18
99.9731	11
100.5083	11
107.0159	12
110.0361	16
111.0447	12
114.9513	18
123.0450	999
125.0241	157
137.9680	24
140.0477	421
141.9553	39
155.0713	418
183.0657	268
