Mass spectrum: Creatine; LC-ESI-QTOF; MS2; CE:Ramp 5-60 V; [M-H]-
Name: Creatine
Name: N-Amidinosarcosine
Name: (alpha-Methylguanido)acetic acid
Name: Krebiozon
Name: Methyl Glycocyamine
Name: alpha-Methylguanidinoacetic Acid
Class: Amino acids
Formula: C4H9N3O2
Exact mass: 131.06948
SMILES: OC(=O)CN(C)C(N)=N
InChI: InChI=1S/C4H9N3O2/c1-7(4(5)6)2-3(8)9/h2H2,1H3,(H3,5,6)(H,8,9)
Instrument: UPLC Q-Tof Premier, Waters
Instrument type: LC-ESI-QTOF
Ms type: MS2
Ion mode: NEGATIVE
Collision energy: Ramp 5-60 V
Fragmentation mode: LOW-ENERGY CID
Ionization: ESI
Precursor m/z: 130.06167
Precursor type: [M-H]-
m/z	relative intensity
88.0423	999
130.0617	51
