Mass spectrum: L-Serine; GC-EI-TOF; MS; 3 TMS; BP:73
Name: L-Serine
Name: L-3-Hydroxy-alanine
Name: L-2-Amino-3-hydroxypropionic acid
Class: Natural Product
Formula: C3H7NO3
Exact mass: 105.04259
SMILES: OC[C@H](N)C(O)=O
InChI: InChI=1S/C3H7NO3/c4-2(1-5)3(6)7/h2,5H,1,4H2,(H,6,7)/t2-/m0/s1
Instrument: Pegasus III TOF-MS system, Leco; GC 6890, Agilent Technologies
Instrument type: GC-EI-TOF
Ms type: MS
Ion mode: POSITIVE
Retention time: 362.937 sec
Base peak: 73
Derivative form: C12H31NO3Si3
Derivative mass: 321.16117
Derivative type: 3 TMS
m/z	relative intensity
60	14
61	18
62	2
63	2
66	9
67	1
69	1
70	16
71	7
72	31
73	999
74	99
75	112
76	10
77	24
78	2
79	6
82	1
83	1
84	7
85	5
86	15
87	8
88	18
89	12
90	1
91	1
92	1
98	3
99	3
100	189
101	32
102	16
103	37
104	4
105	5
113	2
114	23
115	20
116	59
117	29
118	7
119	8
120	1
121	1
128	2
129	3
130	16
131	22
132	29
133	53
134	10
135	6
142	1
143	1
144	7
145	1
146	5
147	121
148	21
149	13
150	1
158	4
159	5
160	3
161	1
162	1
163	6
164	1
172	5
173	1
174	10
175	3
176	1
177	1
188	46
189	17
190	8
191	3
202	1
203	8
204	310
205	64
206	28
207	4
216	9
217	3
218	158
219	31
220	14
221	4
222	1
278	16
279	5
280	2
306	8
307	2
308	1
