Mass spectrum: 2-Hydroxy-3-phenylpropyl-b-D-glucopyranoside; MS2; QqQ; [M+NH4]+; n.d.
Name: 2-Hydroxy-3-phenylpropyl-b-D-glucopyranoside
Class: CLASS1 Other
Class: CLASS2 Other
Class: CLASS3 Other
Formula: C15H22O7
Exact mass: 314.14 
Ion type: [M+NH4]+
Precursor m/z: 332
m/z	relative intensity
297	29
179	22
163	10
133	30
119	65
117	100
91	35
