Mass spectrum: 3-Phenyl-1-propanol glucoside; MS2; QqQ; [M+NH4]+; n.d.
Name: 3-Phenyl-1-propanol glucoside
Name: 3-phenylpropyl-b-D-Glucopyranoside
Class: CLASS1 Phenylpropanoid
Class: CLASS2 Phenylpropanoid glycoside
Class: CLASS3 Other
Formula: C15H22O6
Exact mass: 298.14 
Ion type: [M+NH4]+
Precursor m/z: 316
m/z	relative intensity
299	3
180	10
163	100
145	60
137	15
119	20
91	10
85	35
