Mass spectrum: 3-Phenyl-1-propanol glucoside; MS2; QqQ; [M-H]-; n.d.
Name: 3-Phenyl-1-propanol glucoside
Name: 3-phenylpropyl-b-D-Glucopyranoside
Class: CLASS1 Phenylpropanoid
Class: CLASS2 Phenylpropanoid glycoside
Class: CLASS3 Other
Formula: C15H22O6
Exact mass: 298.14 
Ion type: [M-H]-
Precursor m/z: 297
m/z	relative intensity
297	25
161	40
143	3
119	3
101	100
85	20
