Mass spectrum: (2E)-3-(4-Methoxyphenyl)-2-propenyl 6-O-a-L-arabinopyranosyl-b-D-glucopyranoside; MS2; QqQ; [M+Na]+; 30V
Name: (2E)-3-(4-Methoxyphenyl)-2-propenyl 6-O-a-L-arabinopyranosyl-b-D-glucopyranoside
Class: CLASS1 Other
Class: CLASS2 Other
Class: CLASS3 Other
Formula: C21H30O11
Exact mass: 458.18 
Ion type: [M+Na]+
Precursor m/z: 481
m/z	relative intensity
481	30
333	25
275	6
201	5
147	100
