Mass spectrum: (2E)-3-(4-Methoxyphenyl)-2-propenyl 6-O-a-L-arabinopyranosyl-b-D-glucopyranoside; MS2; QqQ; [M-H]-; 15V
Name: (2E)-3-(4-Methoxyphenyl)-2-propenyl 6-O-a-L-arabinopyranosyl-b-D-glucopyranoside
Class: CLASS1 Other
Class: CLASS2 Other
Class: CLASS3 Other
Formula: C21H30O11
Exact mass: 458.18 
Ion type: [M-H]-
Precursor m/z: 457
m/z	relative intensity
457	20
192	65
233	20
191	25
161	20
149	100
131	50
125	30
113	15
101	10
