Mass spectrum: Chlorogenic acid; MS2; QqQ; [M-H]-; 35
Name: Chlorogenic acid
Class: CLASS1 Phenylpropanoid
Class: CLASS2 Phenylpropanoid ester
Class: CLASS3 Quinic acid
Formula: C16H18O9
Exact mass: 354.10 
Ion type: [M-H]-
Precursor m/z: 353
m/z	relative intensity
191	100
179	76
135	19
161	10
