Mass spectrum: (2E)-3-Phenyl-2-propenyl 6-O-b-D-xylopyranosyl-b-D-glucopyranoside; MS2; QqQ; [M-H]-; 15V
Name: (2E)-3-Phenyl-2-propenyl 6-O-b-D-xylopyranosyl-b-D-glucopyranoside
Class: CLASS1 Other
Class: CLASS2 Other
Class: CLASS3 Other
Formula: C20H28O10
Exact mass: 428.17 
Ion type: [M-H]-
Precursor m/z: 427
m/z	relative intensity
427	85
293	45
233	7
191	35
161	100
149	85
131	25
125	30
113	15
101	30
