Mass spectrum: 1-O-Caffeoylquinic acid; MS2; QqQ; [M-H]-; 35
Name: 1-O-Caffeoylquinic acid
Class: CLASS1 Phenylpropanoid
Class: CLASS2 Phenylpropanoid ester
Class: CLASS3 Quinic acid
Formula: C16H18O9
Exact mass: 354.10 
Ion type: [M-H]-
Precursor m/z: 353
m/z	relative intensity
191	100
179	65
