Mass spectrum: 2-Hydroxy-3-phenylpropyl-b-D-glucopyranoside; MS2; QqQ; [M-H]-; n.d.
Name: 2-Hydroxy-3-phenylpropyl-b-D-glucopyranoside
Class: CLASS1 Other
Class: CLASS2 Other
Class: CLASS3 Other
Formula: C15H22O7
Exact mass: 314.14 
Ion type: [M-H]-
Precursor m/z: 313
m/z	relative intensity
131	40
179	3
161	100
143	3
119	40
113	30
101	70
89	70
