Mass spectrum: (2E)-3-Phenyl-2-propenyl 6-O-b-D-xylopyranosyl-b-D-glucopyranoside; MS2; QqQ; [M+Na]+; 30V
Name: (2E)-3-Phenyl-2-propenyl 6-O-b-D-xylopyranosyl-b-D-glucopyranoside
Class: CLASS1 Other
Class: CLASS2 Other
Class: CLASS3 Other
Formula: C20H28O10
Exact mass: 428.17 
Ion type: [M+Na]+
Precursor m/z: 451
m/z	relative intensity
451	60
333	70
319	25
275	6
201	20
155	6
117	100
