Mass spectrum: Indole-3-acetyl-L-phenylalanine; LC-ESI-QQ; MS2; CE:10.0 eV; [M+H]+
Name: Indole-3-acetyl-L-phenylalanine
Name: IAA-L-Phe
Name: Indole-3-acetylphenylalanine
Name: L-phenylalanine, N-(1H-indol-3-ylacetyl)-
Name: L-Phenylalanine, N-(1H-indol-3-ylacetyl)- (9CI)
Formula: C19H18N2O3
Exact mass: 322.13174
SMILES: C1=CC=C(C=C1)C[C@@H](C(=O)O)NC(=O)CC2=CNC3=CC=CC=C32
InChI: InChI=1S/C19H18N2O3/c22-18(11-14-12-20-16-9-5-4-8-15(14)16)21-17(19(23)24)10-13-6-2-1-3-7-13/h1-9,12,17,20H,10-11H2,(H,21,22)(H,23,24)
Instrument: UPLC Waters, Quattro Ultima Pt Micromass
Instrument type: LC-ESI-QQ
Ms type: MS2
Ion mode: POSITIVE
Collision energy: 10.0 eV
Ionization: ESI
Column name: ACQUITY UPLC BEH C18 2.1 by 50 mm (Waters, Milford, MA, USA)
Retention time: 12.82 min
Full scan fragment ion peak: 322
Precursor m/z: 323
Precursor type: [M+H]+
m/z	relative intensity
119.759	270
120.321	12
129.836	655
130.376	17
157.834	11
165.258	12
165.927	999
185.046	13
240.878	16
276.363	25
276.963	569
281.483	13
304.749	22
305.329	41
322.461	119
323.067	556
323.663	18
