Mass spectrum: Gibberellin A24; LC-ESI-QQ; MS2; CE:30.0 eV; [M-H]-
Name: Gibberellin A24
Formula: C20H26O5
Exact mass: 346.17802
SMILES: OC(=O)[C@](C)(C4)[C@@]([H])([C@H](C(O)=O)1)[C@@](C=O)(CC4)[C@]([H])(C3)[C@](C2)(C[C@@H](C3)C(=C)2)1
InChI: InChI=1S/C20H26O5/c1-11-8-20-9-12(11)4-5-13(20)19(10-21)7-3-6-18(2,17(24)25)15(19)14(20)16(22)23/h10,12-15H,1,3-9H2,2H3,(H,22,23)(H,24,25)/t12-,13+,14-,15-,18-,19-,20+/m1/s1
Instrument: UPLC Waters, Quattro Ultima Pt Micromass
Instrument type: LC-ESI-QQ
Ms type: MS2
Ion mode: NEGATIVE
Collision energy: 30.0 eV
Ionization: ESI
Column name: ACQUITY UPLC BEH C18 2.1 by 50 mm (Waters, Milford, MA, USA)
Retention time: 10.09 min
Full scan fragment ion peak: 346
Precursor m/z: 345
Precursor type: [M-H]-
m/z	relative intensity
50.593	13
60.198	10
80.914	14
98.732	12
100.211	15
109.115	19
119.698	76
120.304	39
120.867	68
121.479	12
135.256	49
136.580	17
139.940	10
142.713	20
145.566	11
147.042	26
156.667	14
158.918	16
161.225	17
171.299	15
177.638	12
184.514	20
186.634	157
195.681	10
196.451	12
199.265	13
210.396	17
212.545	37
213.243	428
226.996	29
236.415	10
237.432	37
242.367	32
244.485	16
252.876	98
253.538	29
255.070	250
256.422	23
257.087	729
257.619	20
264.668	54
268.529	40
270.544	10
272.824	20
282.868	26
283.511	26
290.974	10
293.632	13
295.134	12
300.985	268
301.823	45
327.009	46
329.979	10
331.854	10
334.180	10
341.434	12
344.906	999
345.872	16
349.364	11
350.465	15
351.398	11
373.262	11
389.261	12
390.645	15
398.690	13
