Mass spectrum: Baicalin; LC-ESI-QTOF; MS
Name: Baicalein-7-O-glucuronide
Name: (2S,3S,4S,5R,6S)-6-(5,6-dihydroxy-4-oxo-2-phenyl-chromen-7-yl)oxy-3,4,5-trihydroxy-oxane-2-carboxylic acid
Name: baicalein-7-O-glucuronide
Name: Baicalein 7-O-glucuronide
Name: Baicalin
Formula: C21H18O11
Exact mass: 446.08491
SMILES: OC(=O)[C@@H](O1)[C@@H](O)[C@H](O)[C@@H](O)[C@@H]1Oc(c2)c(O)c(O)c(C(=O)3)c(OC(c(c4)cccc4)=C3)2
InChI: InChI=1S/C21H18O11/c22-9-6-10(8-4-2-1-3-5-8)30-11-7-12(14(23)15(24)13(9)11)31-21-18(27)16(25)17(26)19(32-21)20(28)29/h1-7,16-19,21,23-27H,(H,28,29)/t16-,17-,18+,19-,21+/m0/s1
Instrument: UPLC Q-Tof Premier, Waters
Instrument type: LC-ESI-QTOF
Ms type: MS
Ion mode: POSITIVE
Collision energy: 5.0 V
Ionization: ESI
Column name: ACQUITY UPLC BEH C18 2.1 by 100 mm (Waters, Milford, MA,USA)
Retention time: 18.9 min
Full scan fragment ion peak: 447/287/269
Ion type: [M+H]+
m/z	relative intensity
269.0646	142
270.0655	10
271.0753	34
287.0681	184
288.0762	36
445.0900	19
447.0995	999
448.1231	190
449.0948	51
450.0627	25
463.1107	28
464.1032	11
