Mass spectrum: N-(3-Indolylacetyl)-L-leucine; LC-ESI-QQ; MS2; CE:10.0 eV; [M+H]+
Name: N-(3-Indolylacetyl)-L-leucine
Name: Indole-3-acetyl-L-leucine
Formula: C16H20N2O3
Exact mass: 288.14739
SMILES: CC(C)C[C@@H](C(=O)O)NC(=O)CC1=CNC2=CC=CC=C21
InChI: InChI=1S/C16H20N2O3/c1-10(2)7-14(16(20)21)18-15(19)8-11-9-17-13-6-4-3-5-12(11)13/h3-6,9-10,14,17H,7-8H2,1-2H3,(H,18,19)(H,20,21)/t14-/m0/s1
Instrument: UPLC Waters, Quattro Ultima Pt Micromass
Instrument type: LC-ESI-QQ
Ms type: MS2
Ion mode: POSITIVE
Collision energy: 10.0 eV
Ionization: ESI
Column name: ACQUITY UPLC BEH C18 2.1 by 50 mm (Waters, Milford, MA, USA)
Retention time: 12.38 min
Full scan fragment ion peak: 288
Precursor m/z: 289
Precursor type: [M+H]+
m/z	relative intensity
85.804	359
88.100	10
129.319	23
129.861	714
131.336	41
131.882	728
197.701	11
206.888	33
227.572	13
242.409	42
243.026	999
243.698	24
247.719	10
270.511	22
271.204	73
288.948	474
289.577	52
