Mass spectrum: Myricetin; LC-ESI-QTOF; MS
Name: 3 3' 4' 5 5' 7-hexahydroxyflavone
Name: Myricetin
Name: 3,5,7-trihydroxy-2-(3,4,5-trihydroxyphenyl)chromen-4-one
Name: 3,5,7,3',4',5'-Hexahydroxyflavone
Formula: C15H10O8
Exact mass: 318.03757
SMILES: Oc(c3)cc(O1)c(c(O)3)C(=O)C(O)=C1c(c2)cc(O)c(O)c(O)2
InChI: InChI=1S/C15H10O8/c16-6-3-7(17)11-10(4-6)23-15(14(22)13(11)21)5-1-8(18)12(20)9(19)2-5/h1-4,16-20,22H
Instrument: UPLC Q-Tof Premier, Waters
Instrument type: LC-ESI-QTOF
Ms type: MS
Ion mode: POSITIVE
Collision energy: 5.0 V
Ionization: ESI
Column name: ACQUITY UPLC BEH C18 2.1 by 100 mm (Waters, Milford, MA,USA)
Retention time: 12.52 min
Full scan fragment ion peak: 319
Ion type: [M+H]+
m/z	relative intensity
317.0435	78
318.0351	28
319.0529	999
320.0716	162
321.0323	43
667.0696	11
690.0396	13
