Mass spectrum: Dihydrozeatin; LC-ESI-QQ; MS2; CE:30.0 eV; [M+H]+
Name: Dihydrozeatin
Name: 2-Methyl-4-(1H-purin-6-ylamino)butan-1-ol
Name: N6-(4-Hydroxyisopentanyl)adenine
Formula: C10H15N5O
Exact mass: 221.12766
SMILES: CC(CCNC1=NC=NC2=C1NC=N2)CO
InChI: InChI=1S/C10H15N5O/c1-7(4-16)2-3-11-9-8-10(13-5-12-8)15-6-14-9/h5-7,16H,2-4H2,1H3,(H2,11,12,13,14,15)
Instrument: UPLC Waters, Quattro Ultima Pt Micromass
Instrument type: LC-ESI-QQ
Ms type: MS2
Ion mode: POSITIVE
Collision energy: 30.0 eV
Ionization: ESI
Column name: ACQUITY UPLC BEH C18 2.1 by 50 mm (Waters, Milford, MA, USA)
Retention time: 6.33 min
Full scan fragment ion peak: 221
Ion type: [M+H]+
Precursor m/z: 222
Precursor type: [M+H]+
m/z	relative intensity
56.554	21
67.032	34
68.721	255
91.589	21
93.297	11
93.993	35
108.672	11
118.796	375
119.460	18
120.769	25
135.342	70
135.964	999
136.904	28
147.334	30
147.932	333
148.499	10
204.215	28
221.795	11
