Mass spectrum: Spiraeoside; LC-ESI-QTOF; MS
Name: Quercetin-4'-glucoside
Name: Spiraeoside
Name: quercetin-4'-glucoside
Name: 3,5,7-trihydroxy-2-[3-hydroxy-4-[(2S,3R,4S,5R,6R)-3,4,5-trihydroxy-6-(hydroxymethyl)oxan-2-yl]oxy-phenyl]chromen-4-one
Formula: C21H20O12
Exact mass: 464.09548
SMILES: OCC(O1)C(O)C(O)C(O)C1Oc(c4)c(O)cc(c4)C(O2)=C(O)C(=O)c(c(O)3)c(cc(O)c3)2
InChI: InChI=1S/C21H20O12/c22-6-13-15(26)17(28)19(30)21(33-13)32-11-2-1-7(3-9(11)24)20-18(29)16(27)14-10(25)4-8(23)5-12(14)31-20/h1-5,13,15,17,19,21-26,28-30H,6H2/t13-,15-,17+,19-,21-/m1/s1
Instrument: UPLC Q-Tof Premier, Waters
Instrument type: LC-ESI-QTOF
Ms type: MS
Ion mode: POSITIVE
Collision energy: 5.0 V
Ionization: ESI
Column name: ACQUITY UPLC BEH C18 2.1 by 100 mm (Waters, Milford, MA,USA)
Retention time: 12.35 min
Full scan fragment ion peak: 465
Ion type: [M+H]+
m/z	relative intensity
301.0546	18
303.0625	12
319.0608	14
465.1172	999
466.1261	159
467.0971	56
468.0426	15
