Mass spectrum: Tiliroside; LC-ESI-QTOF; MS
Name: Kaempferol-3-O-(6''-p-coumaroyl)-glucoside
Name: kaempferol-3-O-(6''-p-coumaroyl)-glucoside
Name: [(2R,3R,4S,5R,6S)-6-[5,7-dihydroxy-2-(4-hydroxyphenyl)-4-oxo-chromen-3-yl]oxy-3,4,5-trihydroxy-oxan-2-yl]methyl (E)-3-(4-hydroxyphenyl)prop-2-enoate
Name: Tiliroside
Formula: C30H26O13
Exact mass: 594.13734
SMILES: Oc(c1)cc(O2)c(C(C(OC(C5O)OC(C(C5O)O)COC(=O)C=Cc(c4)ccc(O)c4)=C2c(c3)ccc(c3)O)=O)c(O)1
InChI: InChI=1S/C30H26O13/c31-16-6-1-14(2-7-16)3-10-22(35)40-13-21-24(36)26(38)27(39)30(42-21)43-29-25(37)23-19(34)11-18(33)12-20(23)41-28(29)15-4-8-17(32)9-5-15/h1-12,21,24,26-27,30-34,36,38-39H,13H2/b10-3+/t21-,24-,26+,27-,30+/m1/s1
Instrument: UPLC Q-Tof Premier, Waters
Instrument type: LC-ESI-QTOF
Ms type: MS
Ion mode: POSITIVE
Collision energy: 5.0 V
Ionization: ESI
Column name: ACQUITY UPLC BEH C18 2.1 by 100 mm (Waters, Milford, MA,USA)
Retention time: 21.5 min
Full scan fragment ion peak: 595/309
Ion type: [M+H]+
m/z	relative intensity
287.0646	27
309.1043	112
310.1146	20
595.1443	999
596.1605	212
597.1713	51
598.1848	17
