Mass spectrum: 2',6'-Dihydroxy-4-methoxychalcone-4'-O-neohesperidoside; LC-ESI-QTOF; MS
Name: 2', 6'-dihydroxy-4-methoxychalcone-4'-O-neohesperidoside
Name: 2',6'-Dihydroxy-4-methoxychalcone-4'-O-neohesperidoside
Formula: C28H34O14
Exact mass: 594.19486
SMILES: C(O4)(C(O)C(O)C(O)C(C)4)OC(C(O)3)C(OC(CO)C3O)Oc(c1)cc(O)c(C(=O)C=Cc(c2)ccc(c2)OC)c1O
InChI: InChI=1S/C28H34O14/c1-12-21(33)23(35)25(37)27(39-12)42-26-24(36)22(34)19(11-29)41-28(26)40-15-9-17(31)20(18(32)10-15)16(30)8-5-13-3-6-14(38-2)7-4-13/h3-10,12,19,21-29,31-37H,11H2,1-2H3/b8-5+/t12-,19+,21-,22+,23+,24-,25+,26+,27-,28+/m0/s1
Instrument: UPLC Q-Tof Premier, Waters
Instrument type: LC-ESI-QTOF
Ms type: MS
Ion mode: POSITIVE
Collision energy: 5.0 V
Ionization: ESI
Column name: ACQUITY UPLC BEH C18 2.1 by 100 mm (Waters, Milford, MA,USA)
Retention time: 21.95 min
Full scan fragment ion peak: 595/287
Ion type: [M+H]+
m/z	relative intensity
287.1025	157
288.1177	29
433.1624	10
449.1634	13
595.2072	999
596.2232	198
597.2141	45
598.1444	14
1189.4143	45
1190.4341	24
