Mass spectrum: Gibberellin A8; LC-ESI-QQ; MS2; CE:10.0 eV; [M-H]-
Name: Gibberellin A8
Name: 2beta-Hydroxygibberellin 1
Formula: C19H24O7
Exact mass: 364.15220
SMILES: OC(=O)C(C321)C([H])(C(C)54)C(CC(O)C(O)5)(OC(=O)4)C([H])(CCC(O)(C(=C)C3)C2)1
InChI: InChI=1S/C19H24O7/c1-8-5-17-7-18(8,25)4-3-10(17)19-6-9(20)13(21)16(2,15(24)26-19)12(19)11(17)14(22)23/h9-13,20-21,25H,1,3-7H2,2H3,(H,22,23)/t9-,10+,11+,12+,13-,16-,17-,18-,19+/m0/s1
Instrument: UPLC Waters, Quattro Ultima Pt Micromass
Instrument type: LC-ESI-QQ
Ms type: MS2
Ion mode: NEGATIVE
Collision energy: 10.0 eV
Ionization: ESI
Column name: ACQUITY UPLC BEH C18 2.1 by 50 mm (Waters, Milford, MA, USA)
Retention time: 2.84 min
Full scan fragment ion peak: 364
Precursor m/z: 363
Precursor type: [M-H]-
m/z	relative intensity
160.678	12
256.633	12
257.329	48
274.933	157
275.636	10
318.633	35
319.437	34
362.341	79
362.984	999
363.586	82
