Mass spectrum: Peltatoside; LC-ESI-QTOF; MS
Name: Quercetin-3-O-arabinoglucoside
Name: quercetin-3-O-arabinoglucoside
Name: 2-(3,4-dihydroxyphenyl)-5,7-dihydroxy-3-[(2S,3R,4S,5R,6R)-3,4,5-trihydroxy-6-[[(2R,3R,4S,5S)-3,4,5-trihydroxyoxan-2-yl]oxymethyl]oxan-2-yl]oxy-chromen-4-one
Name: Peltatoside
Formula: C26H28O16
Exact mass: 596.13773
SMILES: c(c5)(O)cc(c(c52)C(C(OC(O3)C(C(C(C3COC(C(O)4)OCC(O)C4O)O)O)O)=C(O2)c(c1)ccc(O)c1O)=O)O
InChI: InChI=1S/C26H28O16/c27-9-4-12(30)16-14(5-9)40-23(8-1-2-10(28)11(29)3-8)24(19(16)34)42-26-22(37)20(35)18(33)15(41-26)7-39-25-21(36)17(32)13(31)6-38-25/h1-5,13,15,17-18,20-22,25-33,35-37H,6-7H2/t13-,15+,17-,18+,20-,21+,22+,25-,26-/m0/s1
Instrument: UPLC Q-Tof Premier, Waters
Instrument type: LC-ESI-QTOF
Ms type: MS
Ion mode: POSITIVE
Collision energy: 5.0 V
Ionization: ESI
Column name: ACQUITY UPLC BEH C18 2.1 by 100 mm (Waters, Milford, MA,USA)
Retention time: 7.91 min
Full scan fragment ion peak: 597/303
Ion type: [M+H]+
m/z	relative intensity
301.0446	49
302.0945	15
303.0583	411
304.0675	85
305.0670	18
435.1003	37
436.1763	12
465.1182	40
466.1637	11
597.1473	999
598.1656	217
599.1563	65
600.2526	26
601.1418	20
602.0350	10
603.1204	10
612.1635	18
1193.2979	12
