Mass spectrum: trans-Zeatin; LC-ESI-QQ; MS2; CE:30.0 eV; [M+H]+
Name: trans-Zeatin
Name: (E)-2-Methyl-4-(1H-purin-6-ylamino)but-2-en-1-ol
Name: N6-(4-Hydroxyisopentenyl)adenine
Name: Zeatin
Formula: C10H13N5O
Exact mass: 219.11201
SMILES: C/C(=C\CNC1=NC=NC2=C1NC=N2)/CO
InChI: InChI=1S/C10H13N5O/c1-7(4-16)2-3-11-9-8-10(13-5-12-8)15-6-14-9/h2,5-6,16H,3-4H2,1H3,(H2,11,12,13,14,15)/b7-2+
Instrument: UPLC Waters, Quattro Ultima Pt Micromass
Instrument type: LC-ESI-QQ
Ms type: MS2
Ion mode: POSITIVE
Collision energy: 30.0 eV
Ionization: ESI
Column name: ACQUITY UPLC BEH C18 2.1 by 50 mm (Waters, Milford, MA, USA)
Retention time: 5.91 min
Full scan fragment ion peak: 219
Precursor m/z: 220
Precursor type: [M+H]+
m/z	relative intensity
54.523	10
56.854	30
64.761	12
66.727	64
81.872	12
91.831	51
93.876	62
104.560	14
108.743	31
118.800	681
119.303	14
120.845	18
127.595	25
134.341	24
135.127	52
135.870	999
147.267	12
147.904	86
158.170	11
170.371	16
173.035	17
184.936	30
187.508	14
