Mass spectrum: Orientin; LC-ESI-QTOF; MS
Name: Luteolin-8-C-glucoside
Name: luteolin-8-C-glucoside
Name: Orientin
Name: Luteolin 8-C-glucoside
Name: 2-(3,4-dihydroxyphenyl)-5,7-dihydroxy-8-[(2S,3S,4R,5R,6R)-3,4,5-trihydroxy-6-(hydroxymethyl)oxan-2-yl]chromen-4-one
Formula: C21H20O11
Exact mass: 448.10056
SMILES: OC[C@H]([C@@H](O)4)O[C@H]([C@H](O)[C@@H](O)4)c(c(O)3)c(O1)c(c(O)c3)C(=O)C=C(c(c2)cc(O)c(O)c2)1
InChI: InChI=1S/C21H20O11/c22-6-14-17(28)18(29)19(30)21(32-14)16-11(26)4-10(25)15-12(27)5-13(31-20(15)16)7-1-2-8(23)9(24)3-7/h1-5,14,17-19,21-26,28-30H,6H2/t14-,17-,18+,19-,21+/m1/s1
Instrument: UPLC Q-Tof Premier, Waters
Instrument type: LC-ESI-QTOF
Ms type: MS
Ion mode: POSITIVE
Collision energy: 5.0 V
Ionization: ESI
Column name: ACQUITY UPLC BEH C18 2.1 by 100 mm (Waters, Milford, MA,USA)
Retention time: 7.37 min
Full scan fragment ion peak: 449
Ion type: [M+H]+
m/z	relative intensity
447.1080	20
448.1658	11
449.1146	999
450.1325	181
451.1049	58
452.0042	19
