Mass spectrum: Isopentenyladenine; LC-ESI-QQ; MS2; CE:20.0 eV; [M+H]+
Name: Isopentenyladenine
Name: 6-(gamma,gamma-Dimethylallylamino)purine
Name: N6-(3-Methylbut-2-enyl)adenine
Name: N6-(delta2-Isopentenyl)-adenine
Name: N6-Dimethylallyladenine
Formula: C10H13N5
Exact mass: 203.11710
SMILES: CC(=CCNC1=NC=NC2=C1NC=N2)C
InChI: InChI=1S/C10H13N5/c1-7(2)3-4-11-9-8-10(13-5-12-8)15-6-14-9/h3,5-6H,4H2,1-2H3,(H2,11,12,13,14,15)
Instrument: UPLC Waters, Quattro Ultima Pt Micromass
Instrument type: LC-ESI-QQ
Ms type: MS2
Ion mode: POSITIVE
Collision energy: 20.0 eV
Ionization: ESI
Column name: ACQUITY UPLC BEH C18 2.1 by 50 mm (Waters, Milford, MA, USA)
Retention time: 11.72 min
Full scan fragment ion peak: 203
Ion type: [M+H]+
Precursor m/z: 204
Precursor type: [M+H]+
m/z	relative intensity
68.811	329
93.828	11
118.837	68
135.862	999
147.878	196
203.649	10
