Mass spectrum: cis-Zeatin riboside; LC-ESI-QQ; MS2; CE:20.0 eV; [M+H]+
Name: cis-Zeatin riboside
Formula: C15H21N5O5
Exact mass: 351.15427
SMILES: OCC(C)=CCNc(n3)c(n2)c(nc3)n(c2)C(O1)C(O)C(O)C(CO)1
InChI: InChI=1S/C15H21N5O5/c1-8(4-21)2-3-16-13-10-14(18-6-17-13)20(7-19-10)15-12(24)11(23)9(5-22)25-15/h2,6-7,9,11-12,15,21-24H,3-5H2,1H3,(H,16,17,18)/b8-2-/t9-,11-,12-,15-/m1/s1
Instrument: UPLC Waters, Quattro Ultima Pt Micromass
Instrument type: LC-ESI-QQ
Ms type: MS2
Ion mode: POSITIVE
Collision energy: 20.0 eV
Ionization: ESI
Column name: ACQUITY UPLC BEH C18 2.1 by 50 mm (Waters, Milford, MA, USA)
Retention time: 10.29 min
Full scan fragment ion peak: 351
Precursor m/z: 352
Precursor type: [M+H]+
m/z	relative intensity
135.876	478
147.914	15
184.955	35
201.965	106
219.986	999
