Mass spectrum: (+/-)-cis,trans-abscisic acid; LC-ESI-QQ; MS2; CE:5.0 eV; [M-H]-
Name: (+/-)-cis,trans-abscisic acid
Name: ABSCISIC ACID
Formula: C15H20O4
Exact mass: 264.13616
SMILES: OC(=O)C=C(C)C=CC(O)(C(C)=1)C(C)(C)CC(=O)C1
InChI: InChI=1S/C15H20O4/c1-10(7-13(17)18)5-6-15(19)11(2)8-12(16)9-14(15,3)4/h5-8,19H,9H2,1-4H3,(H,17,18)/b6-5+,10-7-/t15-/m1/s1
Instrument: UPLC Waters, Quattro Ultima Pt Micromass
Instrument type: LC-ESI-QQ
Ms type: MS2
Ion mode: NEGATIVE
Collision energy: 5.0 eV
Ionization: ESI
Column name: ACQUITY UPLC BEH C18 2.1 by 50 mm (Waters, Milford, MA, USA)
Retention time: 6.97 min
Full scan fragment ion peak: 264
Ion type: [M-H]-
Precursor m/z: 263
Precursor type: [M-H]-
m/z	relative intensity
110.650	10
152.061	14
152.858	558
200.933	16
204.025	20
218.931	104
262.459	28
263.020	999
263.627	13
