Mass spectrum: Indole-3-acetyl-L-alanine; LC-ESI-QQ; MS2; CE:10.0 eV; [M+H]+
Name: Indole-3-acetyl-L-alanine
Name: IAA-L-Ala
Name: L-alanine, N-(1H-indol-3-ylacetyl)-
Name: L-Alanine, N-(1H-indol-3-ylacetyl)- (9CI)
Name: Alanine, N-indol-3-ylacetyl- (6CI) Indole-3-acetylalanine N-(3-Indolylacetyl)-L-alanine
Formula: C13H14N2O3
Exact mass: 246.10044
SMILES: CC(C(=O)O)NC(=O)CC1=CNC2=CC=CC=C21
InChI: InChI=1S/C13H14N2O3/c1-8(13(17)18)15-12(16)6-9-7-14-11-5-3-2-4-10(9)11/h2-5,7-8,14H,6H2,1H3,(H,15,16)(H,17,18)
Instrument: UPLC Waters, Quattro Ultima Pt Micromass
Instrument type: LC-ESI-QQ
Ms type: MS2
Ion mode: POSITIVE
Collision energy: 10.0 eV
Ionization: ESI
Column name: ACQUITY UPLC BEH C18 2.1 by 50 mm (Waters, Milford, MA, USA)
Retention time: 7.49 min
Full scan fragment ion peak: 246
Precursor m/z: 247
Precursor type: [M+H]+
m/z	relative intensity
89.767	510
129.299	87
129.876	999
158.101	28
164.520	25
187.650	10
200.375	17
201.039	172
205.839	23
229.030	34
246.536	67
247.198	162
