Mass spectrum: Quercetin; LC-ESI-QTOF; MS
Name: 3 3' 4' 5 7-pentahydroxyflavone
Name: 3,5,7,3',4'-Pentahydroxyflavone
Name: 2-(3,4-dihydroxyphenyl)-3,5,7-trihydroxy-chromen-4-one
Name: Quercetin
Name: 3,3',4,5,7-Pentahydroxyflavone
Formula: C15H10O7
Exact mass: 302.04265
SMILES: Oc(c3)c(O)cc(c3)C(O1)=C(O)C(=O)c(c(O)2)c(cc(O)c2)1
InChI: InChI=1S/C15H10O7/c16-7-4-10(19)12-11(5-7)22-15(14(21)13(12)20)6-1-2-8(17)9(18)3-6/h1-5,16-19,21H
Instrument: UPLC Q-Tof Premier, Waters
Instrument type: LC-ESI-QTOF
Ms type: MS
Ion mode: POSITIVE
Collision energy: 5.0 V
Ionization: ESI
Column name: ACQUITY UPLC BEH C18 2.1 by 100 mm (Waters, Milford, MA,USA)
Retention time: 19.26 min
Full scan fragment ion peak: 303
Ion type: [M+H]+
m/z	relative intensity
251.0160	12
301.0591	119
302.0872	39
303.0656	999
304.0564	150
305.0138	57
658.0372	17
659.1448	17
660.1511	10
960.0659	18
