Mass spectrum: trans-Zeatin riboside-O-glucoside; LC-ESI-QQ; MS2; CE:30.0 eV; [M+H]+
Name: trans-Zeatin riboside-O-glucoside
Formula: C21H31N5O10
Exact mass: 513.20709
SMILES: OCC(O1)C(O)C(O)C(O)C(OCC(C)=CCNc(n4)c(n3)c(nc4)n(c3)C(O2)C(O)C(O)C(CO)2)1
InChI: InChI=1S/C21H31N5O10/c1-9(6-34-21-17(33)15(31)13(29)11(5-28)36-21)2-3-22-18-12-19(24-7-23-18)26(8-25-12)20-16(32)14(30)10(4-27)35-20/h2,7-8,10-11,13-17,20-21,27-33H,3-6H2,1H3,(H,22,23,24)/b9-2+/t10-,11-,13-,14-,15+,16-,17-,20-,21-/m1/s1
Instrument: UPLC Waters, Quattro Ultima Pt Micromass
Instrument type: LC-ESI-QQ
Ms type: MS2
Ion mode: POSITIVE
Collision energy: 30.0 eV
Ionization: ESI
Column name: ACQUITY UPLC BEH C18 2.1 by 50 mm (Waters, Milford, MA, USA)
Retention time: 9.53 min
Full scan fragment ion peak: 514
Ion type: [M+H]+
Precursor m/z: 514
Precursor type: [M+H]+
m/z	relative intensity
84.600	72
86.572	13
96.611	34
98.602	11
109.154	11
126.353	10
126.960	25
135.861	583
144.828	50
147.851	146
184.597	78
185.252	66
201.879	950
219.915	999
352.028	41
381.384	54
382.222	74
