Mass spectrum: Vitexin-2''-O-rhamnoside; LC-ESI-QTOF; MS
Name: Vitexin-2''-O-rhamnoside
Name: Vitexin 2''-rhamnoside
Name: Vitexin 2''-O-beta-L-rhamnoside
Name: 2''-O-Rhamnosylvitexin
Name: 8-[(2S,3S,4R,5R,6R)-4,5-dihydroxy-6-(hydroxymethyl)-3-[(2S,3R,4R,5S,6S)-3,4,5-trihydroxy-6-methyl-oxan-2-yl]oxy-oxan-2-yl]-5,7-dihydroxy-2-(4-hydroxyphenyl)chromen-4-one
Formula: C27H30O14
Exact mass: 578.16356
SMILES: [C@H](O1)([C@@H]([C@H]([C@H]([C@@H]1O[C@H]([C@H]5O)[C@@H](O[C@@H]([C@H]5O)CO)c(c2O)c(O3)c(C(C=C(c(c4)ccc(O)c4)3)=O)c(c2)O)O)O)O)C
InChI: InChI=1S/C27H30O14/c1-9-19(33)21(35)23(37)27(38-9)41-26-22(36)20(34)16(8-28)40-25(26)18-13(31)6-12(30)17-14(32)7-15(39-24(17)18)10-2-4-11(29)5-3-10/h2-7,9,16,19-23,25-31,33-37H,8H2,1H3/t9-,16+,19-,20+,21+,22-,23+,25-,26+,27-/m0/s1
Instrument: UPLC Q-Tof Premier, Waters
Instrument type: LC-ESI-QTOF
Ms type: MS
Ion mode: POSITIVE
Collision energy: 5.0 V
Ionization: ESI
Column name: ACQUITY UPLC BEH C18 2.1 by 100 mm (Waters, Milford, MA,USA)
Retention time: 8.56 min
Full scan fragment ion peak: 579
Ion type: [M+H]+
m/z	relative intensity
229.0462	10
565.1707	47
566.1918	28
567.2954	14
578.2604	15
579.1821	999
580.2024	271
581.1828	56
582.1497	17
1157.3512	17
