Mass spectrum: Acacetin; LC-ESI-QTOF; MS
Name: Acacetin
Name: 4'-Methoxy-5,7-dihydroxyflavone
Name: 5,7-dihydroxy-2-(4-methoxyphenyl)chromen-4-one
Name: 5,7-Dihydroxy-4'-methoxyflavone
Formula: C16H12O5
Exact mass: 284.06847
SMILES: COc(c3)ccc(c3)C(=C1)Oc(c2)c(c(O)cc(O)2)C(=O)1
InChI: InChI=1S/C16H12O5/c1-20-11-4-2-9(3-5-11)14-8-13(19)16-12(18)6-10(17)7-15(16)21-14/h2-8,17-18H,1H3
Instrument: UPLC Q-Tof Premier, Waters
Instrument type: LC-ESI-QTOF
Ms type: MS
Ion mode: POSITIVE
Collision energy: 5.0 V
Ionization: ESI
Column name: ACQUITY UPLC BEH C18 2.1 by 100 mm (Waters, Milford, MA,USA)
Retention time: 22.74 min
Full scan fragment ion peak: 285
Ion type: [M+H]+
m/z	relative intensity
285.0820	999
286.0860	134
287.0412	37
366.2913	16
622.0728	70
623.0820	31
