Mass spectrum: (+/-)-cis,trans-abscisic acid; LC-ESI-QQ; MS2; CE:10.0 eV; [M-H]-
Name: (+/-)-cis,trans-abscisic acid
Name: ABSCISIC ACID
Formula: C15H20O4
Exact mass: 264.13616
SMILES: OC(=O)C=C(C)C=CC(O)(C(C)=1)C(C)(C)CC(=O)C1
InChI: InChI=1S/C15H20O4/c1-10(7-13(17)18)5-6-15(19)11(2)8-12(16)9-14(15,3)4/h5-8,19H,9H2,1-4H3,(H,17,18)/b6-5+,10-7-/t15-/m1/s1
Instrument: UPLC Waters, Quattro Ultima Pt Micromass
Instrument type: LC-ESI-QQ
Ms type: MS2
Ion mode: NEGATIVE
Collision energy: 10.0 eV
Ionization: ESI
Column name: ACQUITY UPLC BEH C18 2.1 by 50 mm (Waters, Milford, MA, USA)
Retention time: 6.97 min
Full scan fragment ion peak: 264
Precursor m/z: 263
Precursor type: [M-H]-
m/z	relative intensity
110.734	24
151.455	34
152.846	999
153.423	26
160.833	22
162.767	15
201.070	74
201.586	11
203.829	148
218.440	19
219.057	288
219.601	15
263.021	98
