Mass spectrum: Hyperoside; LC-ESI-QTOF; MS
Name: Quercetin-3-beta-O-galactoside
Name: 2-(3,4-dihydroxyphenyl)-5,7-dihydroxy-3-[(2S,3R,4S,5S,6R)-3,4,5-trihydroxy-6-(hydroxymethyl)oxan-2-yl]oxy-chromen-4-one
Name: Quercetin 3-galactoside
Name: quercetin-3-beta-O-galactoside
Name: Hyperoside
Name: Hyperin
Formula: C21H20O12
Exact mass: 464.09548
SMILES: OC[C@@H](O1)[C@H](O)[C@H](O)[C@@H](O)[C@@H]1OC(C(=O)3)=C(Oc(c4)c(c(O)cc(O)4)3)c(c2)cc(O)c(O)c2
InChI: InChI=1S/C21H20O12/c22-6-13-15(27)17(29)18(30)21(32-13)33-20-16(28)14-11(26)4-8(23)5-12(14)31-19(20)7-1-2-9(24)10(25)3-7/h1-5,13,15,17-18,21-27,29-30H,6H2/t13-,15+,17+,18-,21+/m1/s1
Instrument: UPLC Q-Tof Premier, Waters
Instrument type: LC-ESI-QTOF
Ms type: MS
Ion mode: POSITIVE
Collision energy: 5.0 V
Ionization: ESI
Column name: ACQUITY UPLC BEH C18 2.1 by 100 mm (Waters, Milford, MA,USA)
Retention time: 8.95 min
Full scan fragment ion peak: 465/303
Ion type: [M+H]+
m/z	relative intensity
301.0475	114
302.0816	23
303.0581	999
304.0683	149
305.0555	44
305.8517	11
465.1112	651
466.1252	136
467.1010	39
467.9774	12
