Mass spectrum: Hirsutrin; LC-ESI-QTOF; MS
Name: Quercetin-3-O-beta-glucopyranoside
Name: Isoquercitrin
Name: Quercetin 3-O-glucoside
Name: 2-(3,4-dihydroxyphenyl)-5,7-dihydroxy-3-[(2S,3R,4S,5R,6R)-3,4,5-trihydroxy-6-(hydroxymethyl)oxan-2-yl]oxy-chromen-4-one
Name: quercetin-3-O-beta-glucopyranoside
Name: 4H-1-benzopyran-4-one
Name: Isotrifoliin
Name: 2-(3,4-Dihidroxyphenyl)-3-(beta-D-glucofuranosyloxy)-5,7-dihydroxy-
Name: Hirsutrin
Formula: C21H20O12
Exact mass: 464.09548
SMILES: OCC(O1)C(O)C(O)C(O)C1OC(C(=O)3)=C(Oc(c4)c(c(O)cc(O)4)3)c(c2)cc(O)c(O)c2
InChI: InChI=1S/C21H20O12/c22-6-13-15(27)17(29)18(30)21(32-13)33-20-16(28)14-11(26)4-8(23)5-12(14)31-19(20)7-1-2-9(24)10(25)3-7/h1-5,13,15,17-18,21-27,29-30H,6H2/t13-,15-,17+,18-,21+/m1/s1
Instrument: UPLC Q-Tof Premier, Waters
Instrument type: LC-ESI-QTOF
Ms type: MS
Ion mode: POSITIVE
Collision energy: 5.0 V
Ionization: ESI
Column name: ACQUITY UPLC BEH C18 2.1 by 100 mm (Waters, Milford, MA,USA)
Retention time: 9.25 min
Full scan fragment ion peak: 465/303
Ion type: [M+H]+
m/z	relative intensity
301.0536	133
302.1253	37
303.0627	999
304.0790	150
305.0206	51
305.8335	16
465.1179	456
466.1229	92
467.0793	26
467.9789	17
468.9442	10
518.0309	10
658.0511	20
