Mass spectrum: Flavanone; LC-ESI-QTOF; MS
Name: 2 3-dihydroflavone
Name: Flavanone
Name: 2-phenylchroman-4-one
Name: 2,3-Dihydroflavone
Formula: C15H12O2
Exact mass: 224.08373
SMILES: c(c3)ccc(c3)C(C1)Oc(c2)c(ccc2)C(=O)1
InChI: InChI=1S/C15H12O2/c16-13-10-15(11-6-2-1-3-7-11)17-14-9-5-4-8-12(13)14/h1-9,15H,10H2
Instrument: UPLC Q-Tof Premier, Waters
Instrument type: LC-ESI-QTOF
Ms type: MS
Ion mode: POSITIVE
Collision energy: 5.0 V
Ionization: ESI
Column name: ACQUITY UPLC BEH C18 2.1 by 100 mm (Waters, Milford, MA,USA)
Retention time: 23.28 min
Full scan fragment ion peak: 225
Ion type: [M+H]+
m/z	relative intensity
207.0897	16
210.0499	18
224.5345	21
225.2768	999
226.0377	546
226.9938	132
227.9228	15
243.1025	76
410.0056	11
