Mass spectrum: Gibberellin A20; LC-ESI-QQ; MS2; CE:30.0 eV; [M-H]-
Name: Gibberellin A20
Name: Gibberellin 20
Formula: C19H24O5
Exact mass: 332.16237
SMILES: OC(=O)C(C321)C([H])(C(C)54)C(CCC5)(OC(=O)4)C([H])(CCC(O)(C(=C)C3)C2)1
InChI: InChI=1S/C19H24O5/c1-10-8-17-9-18(10,23)7-4-11(17)19-6-3-5-16(2,15(22)24-19)13(19)12(17)14(20)21/h11-13,23H,1,3-9H2,2H3,(H,20,21)/t11-,12-,13-,16-,17+,18+,19-/m1/s1
Instrument: UPLC Waters, Quattro Ultima Pt Micromass
Instrument type: LC-ESI-QQ
Ms type: MS2
Ion mode: NEGATIVE
Collision energy: 30.0 eV
Ionization: ESI
Column name: ACQUITY UPLC BEH C18 2.1 by 50 mm (Waters, Milford, MA, USA)
Retention time: 7.52 min
Full scan fragment ion peak: 332
Precursor m/z: 331
Precursor type: [M-H]-
m/z	relative intensity
52.472	55
53.916	10
54.975	36
56.168	21
61.801	71
62.627	38
63.403	24
70.559	47
71.541	69
72.244	11
75.752	10
77.245	25
83.400	528
86.073	43
89.503	15
93.712	54
94.273	33
95.243	35
96.027	22
98.619	670
100.516	14
103.460	19
110.120	47
110.681	11
111.242	25
112.662	36
114.734	14
117.989	22
119.093	299
123.065	35
126.872	26
127.433	99
131.917	16
132.618	17
133.529	17
137.278	13
142.496	76
143.197	13
147.189	999
151.102	58
151.865	120
155.697	31
157.135	12
161.617	22
166.814	22
167.568	11
171.559	62
173.169	194
174.359	25
175.187	19
176.054	33
176.807	14
184.249	55
190.196	39
191.158	104
192.698	25
200.472	63
201.446	11
207.451	11
208.933	14
209.694	13
211.013	15
211.871	41
216.698	12
219.310	26
220.145	26
220.976	15
222.143	23
222.994	17
223.764	13
224.678	439
228.001	11
228.660	33
230.332	33
231.318	59
232.018	13
232.577	26
239.222	22
239.991	101
240.913	39
241.872	10
247.858	64
248.943	34
249.852	20
256.000	19
257.055	43
258.470	24
259.968	67
267.752	14
268.591	143
269.430	11
275.965	52
276.841	33
278.042	21
279.259	16
286.549	550
287.778	120
288.796	20
296.012	54
296.625	106
297.521	49
300.432	11
306.061	93
306.854	51
307.727	56
315.217	17
315.797	142
316.476	65
321.228	16
324.459	36
325.282	130
326.385	41
330.803	238
332.119	10
334.524	92
335.625	100
336.324	30
337.233	13
340.587	19
344.130	114
344.850	146
345.758	15
353.865	94
354.701	108
355.820	18
360.829	19
363.029	31
363.858	117
364.705	109
370.752	10
372.469	49
373.361	55
379.939	14
381.118	19
382.509	57
383.703	47
384.896	37
390.976	14
392.088	52
393.206	30
