Mass spectrum: Gibberellin A44; LC-ESI-QQ; MS2; CE:10.0 eV; [M-H]-
Name: Gibberellin A44
Name: Gibberellin 44
Formula: C20H26O5
Exact mass: 346.17802
SMILES: OC(=O)C(C321)C([H])(C(C)54)C(CCC5)(COC(=O)4)C([H])(CCC(O)(C(=C)C3)C2)1
InChI: InChI=1S/C20H26O5/c1-11-8-19-9-20(11,24)7-4-12(19)18-6-3-5-17(2,16(23)25-10-18)14(18)13(19)15(21)22/h12-14,24H,1,3-10H2,2H3,(H,21,22)/t12-,13+,14+,17+,18+,19-,20-/m0/s1
Instrument: UPLC Waters, Quattro Ultima Pt Micromass
Instrument type: LC-ESI-QQ
Ms type: MS2
Ion mode: NEGATIVE
Collision energy: 10.0 eV
Ionization: ESI
Column name: ACQUITY UPLC BEH C18 2.1 by 50 mm (Waters, Milford, MA, USA)
Retention time: 7.71 min
Full scan fragment ion peak: 346
Precursor m/z: 345
Precursor type: [M-H]-
m/z	relative intensity
345.100	999
