Mass spectrum: trans-Zeatin-9-glucoside; LC-ESI-QQ; MS2; CE:30.0 eV; [M+H]+
Name: trans-Zeatin-9-glucoside
Formula: C16H23N5O6
Exact mass: 381.16483
SMILES: OCC(C)=CCNc(n3)c(n2)c(nc3)n(c2)C(O1)C(O)C(O)C(O)C(CO)1
InChI: InChI=1S/C16H23N5O6/c1-8(4-22)2-3-17-14-10-15(19-6-18-14)21(7-20-10)16-13(26)12(25)11(24)9(5-23)27-16/h2,6-7,9,11-13,16,22-26H,3-5H2,1H3,(H,17,18,19)/b8-2+/t9-,11-,12+,13-,16-/m1/s1
Instrument: UPLC Waters, Quattro Ultima Pt Micromass
Instrument type: LC-ESI-QQ
Ms type: MS2
Ion mode: POSITIVE
Collision energy: 30.0 eV
Ionization: ESI
Column name: ACQUITY UPLC BEH C18 2.1 by 50 mm (Waters, Milford, MA, USA)
Retention time: 6.55 min
Full scan fragment ion peak: 381
Precursor m/z: 382
Precursor type: [M+H]+
m/z	relative intensity
68.669	11
84.759	24
96.811	10
135.843	999
147.889	92
159.131	10
184.926	72
202.066	118
219.469	12
220.006	392
