Mass spectrum: Oenin; LC-ESI-QTOF; MS
Name: Malvidin-3-O-glucoside chloride
Name: Oenin
Name: malvidin-3-O-glucoside chloride
Name: Malvidin 3-O-glucoside
Name: Malvidin-3-glucoside
Name: Enin
Name: (2S,3R,4S,5R,6R)-2-[5,7-dihydroxy-2-(4-hydroxy-3,5-dimethoxy-phenyl)chromen-3-yl]oxy-6-(hydroxymethyl)oxane-3,4,5-triol
Formula: [C23H25O12]+
Exact mass: 493.13460
SMILES: OCC(O1)C(O)C(O)C(O)C1Oc(c3)c([o+1]c(c4)c(c(O)cc(O)4)3)c(c2)cc(OC)c(O)c(OC)2
InChI: InChI=1S/C23H24O12/c1-31-14-3-9(4-15(32-2)18(14)27)22-16(7-11-12(26)5-10(25)6-13(11)33-22)34-23-21(30)20(29)19(28)17(8-24)35-23/h3-7,17,19-21,23-24,28-30H,8H2,1-2H3,(H2-,25,26,27)/p+1/t17-,19-,20+,21-,23-/m1/s1
Instrument: UPLC Q-Tof Premier, Waters
Instrument type: LC-ESI-QTOF
Ms type: MS
Ion mode: POSITIVE
Collision energy: 5.0 V
Ionization: ESI
Column name: ACQUITY UPLC BEH C18 2.1 by 100 mm (Waters, Milford, MA,USA)
Retention time: 7.68 min
Full scan fragment ion peak: 493
Ion type: [M]+
m/z	relative intensity
210.9776	13
221.1233	11
224.0945	13
226.9695	14
245.0276	20
251.0011	16
311.9954	11
331.1207	16
332.0954	16
363.1293	13
493.1515	999
494.1700	47
495.1685	28
497.0770	23
499.9436	13
507.8757	18
564.0720	11
605.1522	16
660.0723	22
661.1048	13
662.0485	13
678.1451	11
985.2976	16
989.4868	11
1039.1674	11
