Mass spectrum: Gibberellin A5; LC-ESI-QQ; MS2; CE:10.0 eV; [M-H]-
Name: Gibberellin A5
Formula: C19H22O5
Exact mass: 330.14672
SMILES: OC(=O)C(C321)C([H])(C(C)54)C(CC=C5)(OC(=O)4)C([H])(CCC(O)(C(=C)C3)C2)1
InChI: InChI=1S/C19H22O5/c1-10-8-17-9-18(10,23)7-4-11(17)19-6-3-5-16(2,15(22)24-19)13(19)12(17)14(20)21/h3,5,11-13,23H,1,4,6-9H2,2H3,(H,20,21)/t11-,12-,13-,16-,17+,18+,19-/m1/s1
Instrument: UPLC Waters, Quattro Ultima Pt Micromass
Instrument type: LC-ESI-QQ
Ms type: MS2
Ion mode: NEGATIVE
Collision energy: 10.0 eV
Ionization: ESI
Column name: ACQUITY UPLC BEH C18 2.1 by 50 mm (Waters, Milford, MA, USA)
Retention time: 7.48 min
Full scan fragment ion peak: 330
Precursor m/z: 329
Precursor type: [M-H]-
m/z	relative intensity
144.859	24
241.123	58
284.996	46
329.062	999
