Mass spectrum: trans-Zeatin-O-glucoside; LC-ESI-QQ; MS2; CE:10.0 eV; [M+H]+
Name: trans-Zeatin-O-glucoside
Formula: C16H23N5O6
Exact mass: 381.16483
SMILES: C/C(=C\CNC1=NC=NC2=C1NC=N2)/CO[C@H]3[C@@H]([C@H]([C@@H]([C@H](O3)CO)O)O)O
InChI: InChI=1S/C16H23N5O6/c1-8(2-3-17-14-10-15(19-6-18-10)21-7-20-14)5-26-16-13(25)12(24)11(23)9(4-22)27-16/h2,6-7,9,11-13,16,22-25H,3-5H2,1H3,(H2,17,18,19,20,21)/b8-2+/t9-,11-,12+,13-,16-/m1/s1
Instrument: UPLC Waters, Quattro Ultima Pt Micromass
Instrument type: LC-ESI-QQ
Ms type: MS2
Ion mode: POSITIVE
Collision energy: 10.0 eV
Ionization: ESI
Column name: ACQUITY UPLC BEH C18 2.1 by 50 mm (Waters, Milford, MA, USA)
Retention time: 5.94 min
Full scan fragment ion peak: 381
Ion type: [M+H]+
Precursor m/z: 382
Precursor type: [M+H]+
m/z	relative intensity
135.912	72
201.884	75
202.507	12
219.250	12
219.936	228
220.508	18
381.425	384
382.109	999
382.658	94
