Mass spectrum: Dihydrozeatin-9-beta-D-glucoside; LC-ESI-QQ; MS2; CE:10.0 eV; [M+H]+
Name: dihydrozeatin-9-b-D-glucoside
Name: Dihydrozeatin-9-beta-D-glucoside
Formula: C16H25N5O6
Exact mass: 383.18048
SMILES: OCC(C)CCNc(n3)c(n2)c(nc3)n(c2)C(O1)C(O)C(O)C(O)C(CO)1
InChI: InChI=1S/C16H25N5O6/c1-8(4-22)2-3-17-14-10-15(19-6-18-14)21(7-20-10)16-13(26)12(25)11(24)9(5-23)27-16/h6-9,11-13,16,22-26H,2-5H2,1H3,(H,17,18,19)/t8?,9-,11-,12+,13-,16-/m1/s1
Instrument: UPLC Waters, Quattro Ultima Pt Micromass
Instrument type: LC-ESI-QQ
Ms type: MS2
Ion mode: POSITIVE
Collision energy: 10.0 eV
Ionization: ESI
Column name: ACQUITY UPLC BEH C18 2.1 by 50 mm (Waters, Milford, MA, USA)
Retention time: 6.98 min
Full scan fragment ion peak: 383
Precursor m/z: 384
Precursor type: [M+H]+
m/z	relative intensity
221.974	200
383.345	71
383.992	999
