Mass spectrum: Benzyl glucosinolate; LC-ESI-QTOF; MS
Name: Benzyl glucosinolate
Name: Glucotropeolin
Formula: C14H19NO9S2
Exact mass: 409.05012
SMILES: OCC(O1)C(O)C(O)C(O)C1SC(Cc(c2)cccc2)=NOS(O)(=O)=O
InChI: InChI=1S/C14H19NO9S2/c16-7-9-11(17)12(18)13(19)14(23-9)25-10(15-24-26(20,21)22)6-8-4-2-1-3-5-8/h1-5,9,11-14,16-19H,6-7H2,(H,20,21,22)/t9-,11-,12+,13-,14+/m1/s1
Instrument: UPLC Q-Tof Premier, Waters
Instrument type: LC-ESI-QTOF
Ms type: MS
Ion mode: NEGATIVE
Collision energy: 5.0 V
Ionization: ESI
Column name: ACQUITY UPLC BEH C18 2.1 by 100 mm (Waters, Milford, MA,USA)
Full scan fragment ion peak: 408
Ion type: [M]-
m/z	relative intensity
408.0533	999
409.0698	260
410.0584	192
411.0385	55
411.9936	24
412.9249	11
488.0080	71
489.0167	19
489.9911	16
737.1405	21
817.1014	249
818.1151	96
819.1111	81
820.1139	27
821.0925	16
897.0736	13
