Mass spectrum: Gibberellin A44; LC-ESI-QQ; MS2; CE:30.0 eV; [M-H]-
Name: Gibberellin A44
Name: Gibberellin 44
Formula: C20H26O5
Exact mass: 346.17802
SMILES: OC(=O)C(C321)C([H])(C(C)54)C(CCC5)(COC(=O)4)C([H])(CCC(O)(C(=C)C3)C2)1
InChI: InChI=1S/C20H26O5/c1-11-8-19-9-20(11,24)7-4-12(19)18-6-3-5-17(2,16(23)25-10-18)14(18)13(19)15(21)22/h12-14,24H,1,3-10H2,2H3,(H,21,22)/t12-,13+,14+,17+,18+,19-,20-/m0/s1
Instrument: UPLC Waters, Quattro Ultima Pt Micromass
Instrument type: LC-ESI-QQ
Ms type: MS2
Ion mode: NEGATIVE
Collision energy: 30.0 eV
Ionization: ESI
Column name: ACQUITY UPLC BEH C18 2.1 by 50 mm (Waters, Milford, MA, USA)
Retention time: 7.71 min
Full scan fragment ion peak: 346
Precursor m/z: 345
Precursor type: [M-H]-
m/z	relative intensity
54.485	10
58.623	12
59.978	14
68.220	11
69.019	14
70.477	82
71.196	33
78.215	20
79.085	22
82.480	167
83.174	10
84.944	48
87.556	12
92.454	19
97.133	10
104.259	18
105.068	41
106.760	56
108.805	32
116.976	12
117.857	13
118.869	15
125.464	10
126.354	19
128.862	13
132.981	12
134.000	36
135.118	54
136.236	17
146.012	28
148.898	33
153.076	13
155.676	10
157.555	10
166.053	10
168.265	21
173.948	11
174.797	71
175.714	13
176.771	11
182.797	55
184.055	17
188.887	46
189.575	10
193.717	16
196.683	37
201.410	15
202.860	144
204.866	143
205.530	31
211.740	27
212.834	30
213.745	17
214.927	20
223.350	19
224.196	10
228.740	103
229.549	21
231.702	10
232.577	25
233.406	12
235.169	13
236.579	12
237.604	28
241.671	12
242.572	21
252.323	21
253.154	117
254.915	89
256.502	66
258.504	18
262.380	11
271.020	213
272.426	43
272.985	90
273.591	222
279.796	10
280.591	36
283.013	14
288.709	10
289.730	16
298.454	71
299.132	232
301.017	266
301.762	73
309.997	12
318.956	17
327.716	11
328.645	15
329.387	26
338.485	16
344.460	168
345.164	999
345.728	55
347.586	11
348.313	10
366.814	10
368.484	14
377.199	16
378.021	10
386.276	24
387.220	15
395.621	11
