Mass spectrum: Gibberellin A44; LC-ESI-QQ; MS2; CE:40.0 eV; [M-H]-
Name: Gibberellin A44
Name: Gibberellin 44
Formula: C20H26O5
Exact mass: 346.17802
SMILES: OC(=O)C(C321)C([H])(C(C)54)C(CCC5)(COC(=O)4)C([H])(CCC(O)(C(=C)C3)C2)1
InChI: InChI=1S/C20H26O5/c1-11-8-19-9-20(11,24)7-4-12(19)18-6-3-5-17(2,16(23)25-10-18)14(18)13(19)15(21)22/h12-14,24H,1,3-10H2,2H3,(H,21,22)/t12-,13+,14+,17+,18+,19-,20-/m0/s1
Instrument: UPLC Waters, Quattro Ultima Pt Micromass
Instrument type: LC-ESI-QQ
Ms type: MS2
Ion mode: NEGATIVE
Collision energy: 40.0 eV
Ionization: ESI
Column name: ACQUITY UPLC BEH C18 2.1 by 50 mm (Waters, Milford, MA, USA)
Retention time: 7.71 min
Full scan fragment ion peak: 346
Precursor m/z: 345
Precursor type: [M-H]-
m/z	relative intensity
50.763	16
51.463	11
58.836	45
59.538	124
60.980	29
66.699	29
67.611	20
68.875	234
70.770	304
75.202	48
75.752	10
76.506	61
77.998	13
84.891	56
91.678	15
96.868	572
98.109	39
99.266	91
100.024	14
107.666	48
108.858	999
113.643	13
114.425	30
116.493	39
117.270	34
117.997	33
122.877	15
123.788	40
124.700	22
132.208	25
133.108	39
136.654	11
137.427	12
138.956	27
140.114	12
147.433	45
148.682	23
155.244	17
156.224	49
157.188	48
157.813	10
165.376	23
170.655	34
171.513	14
172.469	17
174.664	21
179.509	21
180.380	21
185.209	620
188.364	33
189.199	56
189.993	39
194.448	24
195.358	21
200.536	12
203.830	46
204.594	68
205.363	35
208.438	15
214.044	104
223.888	15
227.321	27
228.795	12
229.646	11
233.487	23
236.354	12
236.984	32
242.299	13
243.208	38
243.957	17
245.376	20
246.495	19
251.849	35
252.500	67
253.348	326
254.257	17
261.473	22
262.369	37
267.802	12
268.750	12
271.135	13
272.017	13
273.474	17
282.924	14
283.577	196
284.566	35
292.291	55
293.340	57
294.114	23
300.260	10
300.917	12
301.867	78
303.056	21
308.295	26
309.556	12
310.832	20
311.989	21
312.701	13
316.524	12
318.283	12
320.599	15
321.368	14
330.454	36
331.255	23
339.399	29
340.517	46
341.216	17
344.920	880
348.706	51
349.392	86
350.274	32
357.229	44
358.547	73
359.459	68
365.571	10
368.129	89
369.042	43
377.023	29
377.973	75
379.032	46
384.377	11
386.993	37
388.036	42
388.771	30
396.798	113
397.958	62
398.600	24
