Mass spectrum: Rhamnetin; LC-ESI-QTOF; MS
Name: 3 3' 4' 5-tetrahydroxy-7-methoxyflavone
Name: Rhamnetin
Name: Quercetin 7-methyl ether
Name: 2-(3,4-dihydroxyphenyl)-3,5-dihydroxy-7-methoxy-chromen-4-one
Formula: C16H12O7
Exact mass: 316.05830
SMILES: COc(c3)cc(O1)c(c(O)3)C(=O)C(O)=C1c(c2)cc(O)c(O)c2
InChI: InChI=1S/C16H12O7/c1-22-8-5-11(19)13-12(6-8)23-16(15(21)14(13)20)7-2-3-9(17)10(18)4-7/h2-6,17-19,21H,1H3
Instrument: UPLC Q-Tof Premier, Waters
Instrument type: LC-ESI-QTOF
Ms type: MS
Ion mode: POSITIVE
Collision energy: 5.0 V
Ionization: ESI
Column name: ACQUITY UPLC BEH C18 2.1 by 100 mm (Waters, Milford, MA,USA)
Retention time: 22.43 min
Full scan fragment ion peak: 317
Ion type: [M+H]+
m/z	relative intensity
315.0900	30
316.1523	14
317.0800	999
318.1030	191
319.0313	37
319.8709	17
320.8872	11
483.9974	29
645.1037	17
686.0457	42
687.0731	15
