Mass spectrum: Quercitrin; LC-ESI-QTOF; MS
Name: Quercetin-3-O-rhamnoside
Name: Quercitrin
Name: quercetin-3-O-rhamnoside
Name: 2-(3,4-dihydroxyphenyl)-5,7-dihydroxy-3-[(2S,3R,4R,5S,6S)-3,4,5-trihydroxy-6-methyl-oxan-2-yl]oxy-chromen-4-one
Formula: C21H20O11
Exact mass: 448.10056
SMILES: Oc(c4)c(O)cc(c4)C(O1)=C(O[C@H](O3)[C@H](O)[C@H](O)[C@@H](O)[C@H](C)3)C(=O)c(c(O)2)c(cc(O)c2)1
InChI: InChI=1S/C21H20O11/c1-7-15(26)17(28)18(29)21(30-7)32-20-16(27)14-12(25)5-9(22)6-13(14)31-19(20)8-2-3-10(23)11(24)4-8/h2-7,15,17-18,21-26,28-29H,1H3/t7-,15-,17+,18+,21-/m0/s1
Instrument: UPLC Q-Tof Premier, Waters
Instrument type: LC-ESI-QTOF
Ms type: MS
Ion mode: POSITIVE
Collision energy: 5.0 V
Ionization: ESI
Column name: ACQUITY UPLC BEH C18 2.1 by 100 mm (Waters, Milford, MA,USA)
Retention time: 11.91 min
Full scan fragment ion peak: 449/303
Ion type: [M+H]+
m/z	relative intensity
301.0597	66
302.1016	11
303.0620	999
304.0737	152
305.0493	50
305.9502	11
449.1252	128
450.1561	44
451.1339	14
