Mass spectrum: Acaciin; LC-ESI-QTOF; MS
Name: Acacetin-7-O-rutinoside
Name: acacetin-7-O-rutinoside
Name: Linarin
Name: 5-hydroxy-2-(4-methoxyphenyl)-7-[(2S,3R,4S,5R,6R)-3,4,5-trihydroxy-6-[[(2R,3R,4R,5S,6S)-3,4,5-trihydroxy-6-methyl-oxan-2-yl]oxymethyl]oxan-2-yl]oxy-chromen-4-one
Name: Acaciin
Formula: C28H32O14
Exact mass: 592.17921
SMILES: c(O)(c3)c(C(=O)2)c(cc3OC(O4)C(O)C(O)C(O)C(COC(O5)C(O)C(C(C5C)O)O)4)OC(=C2)c(c1)ccc(OC)c1
InChI: InChI=1S/C28H32O14/c1-11-21(31)23(33)25(35)27(39-11)38-10-19-22(32)24(34)26(36)28(42-19)40-14-7-15(29)20-16(30)9-17(41-18(20)8-14)12-3-5-13(37-2)6-4-12/h3-9,11,19,21-29,31-36H,10H2,1-2H3/t11-,19+,21-,22+,23+,24-,25+,26+,27+,28+/m0/s1
Instrument: UPLC Q-Tof Premier, Waters
Instrument type: LC-ESI-QTOF
Ms type: MS
Ion mode: POSITIVE
Collision energy: 5.0 V
Ionization: ESI
Column name: ACQUITY UPLC BEH C18 2.1 by 100 mm (Waters, Milford, MA,USA)
Retention time: 21.39 min
Full scan fragment ion peak: 593
Ion type: [M+H]+
m/z	relative intensity
593.2045	999
594.2176	204
595.2122	50
596.1982	25
597.1823	11
