Mass spectrum: trans-Zeatin; LC-ESI-QQ; MS2; CE:20.0 eV; [M+H]+
Name: trans-Zeatin
Name: (E)-2-Methyl-4-(1H-purin-6-ylamino)but-2-en-1-ol
Name: N6-(4-Hydroxyisopentenyl)adenine
Name: Zeatin
Formula: C10H13N5O
Exact mass: 219.11201
SMILES: C/C(=C\CNC1=NC=NC2=C1NC=N2)/CO
InChI: InChI=1S/C10H13N5O/c1-7(4-16)2-3-11-9-8-10(13-5-12-8)15-6-14-9/h2,5-6,16H,3-4H2,1H3,(H2,11,12,13,14,15)/b7-2+
Instrument: UPLC Waters, Quattro Ultima Pt Micromass
Instrument type: LC-ESI-QQ
Ms type: MS2
Ion mode: POSITIVE
Collision energy: 20.0 eV
Ionization: ESI
Column name: ACQUITY UPLC BEH C18 2.1 by 50 mm (Waters, Milford, MA, USA)
Retention time: 5.91 min
Full scan fragment ion peak: 219
Precursor m/z: 220
Precursor type: [M+H]+
m/z	relative intensity
66.798	22
118.888	52
127.632	11
135.857	999
147.789	150
158.931	28
184.894	81
201.883	33
220.205	24
