Mass spectrum: Sinigrin; LC-ESI-QTOF; MS
Name: 2-propenyl glucosinolate
Name: Sinigrin
Name: (2R,3R,4S,5R,6S)-3,4,5-trihydroxy-2-(hydroxymethyl)-6-(C-prop-2-enyl-N-sulfonatooxy-carbonimidoyl)sulfanyl-oxane
Name: sinigrin
Name: (2R,3R,4S,5R,6S)-3,4,5-trihydroxy-2-(hydroxymethyl)-6-(C-prop-2-enyl-N-sulfooxy-carbonimidoyl)sulfanyl-oxane
Formula: C10H17NO9S2
Exact mass: 359.03447
SMILES: C=CCC(=NOS(O)(=O)=O)SC(O1)C(O)C(O)C(O)C(CO)1
InChI: InChI=1S/C10H17NO9S2/c1-2-3-6(11-20-22(16,17)18)21-10-9(15)8(14)7(13)5(4-12)19-10/h2,5,7-10,12-15H,1,3-4H2,(H,16,17,18)/t5-,7-,8+,9-,10+/m1/s1
Instrument: UPLC Q-Tof Premier, Waters
Instrument type: LC-ESI-QTOF
Ms type: MS
Ion mode: NEGATIVE
Collision energy: 5.0 V
Ionization: ESI
Column name: ACQUITY UPLC BEH C18 2.1 by 100 mm (Waters, Milford, MA,USA)
Full scan fragment ion peak: 358
Ion type: [M]-
m/z	relative intensity
358.0422	999
359.0505	178
360.0094	224
360.9752	51
361.9128	10
362.9124	13
437.9997	79
439.0278	10
439.9753	19
517.9689	13
717.0774	62
718.0876	21
719.0649	19
797.0460	35
799.0339	18
