Mass spectrum: Daidzein; LC-ESI-QTOF; MS
Name: 4' 7-dihydroxyisoflavone
Name: 7-hydroxy-3-(4-hydroxyphenyl)chromen-4-one
Name: Daidzein
Formula: C15H10O4
Exact mass: 254.05791
SMILES: Oc(c3)ccc(c3)C(=C1)C(=O)c(c2)c(cc(O)c2)O1
InChI: InChI=1S/C15H10O4/c16-10-3-1-9(2-4-10)13-8-19-14-7-11(17)5-6-12(14)15(13)18/h1-8,16-17H
Instrument: UPLC Q-Tof Premier, Waters
Instrument type: LC-ESI-QTOF
Ms type: MS
Ion mode: POSITIVE
Collision energy: 5.0 V
Ionization: ESI
Column name: ACQUITY UPLC BEH C18 2.1 by 100 mm (Waters, Milford, MA,USA)
Retention time: 16.21 min
Full scan fragment ion peak: 255
Ion type: [M+H]+
m/z	relative intensity
255.0729	999
256.0851	148
257.0117	24
277.0641	14
