Mass spectrum: Gibberellin A1; LC-ESI-QQ; MS2; CE:10.0 eV; [M-H]-
Name: Gibberellin A1
Name: Gibberellin 1
Formula: C19H24O6
Exact mass: 348.15729
SMILES: OC(=O)C(C321)C([H])(C(C)54)C(CCC(O)5)(OC(=O)4)C([H])(CCC(O)(C(=C)C3)C2)1
InChI: InChI=1S/C19H24O6/c1-9-7-17-8-18(9,24)5-3-10(17)19-6-4-11(20)16(2,15(23)25-19)13(19)12(17)14(21)22/h10-13,20,24H,1,3-8H2,2H3,(H,21,22)/t10-,11+,12-,13-,16-,17+,18+,19-/m1/s1
Instrument: UPLC Waters, Quattro Ultima Pt Micromass
Instrument type: LC-ESI-QQ
Ms type: MS2
Ion mode: NEGATIVE
Collision energy: 10.0 eV
Ionization: ESI
Column name: ACQUITY UPLC BEH C18 2.1 by 50 mm (Waters, Milford, MA, USA)
Retention time: 4.71 min
Full scan fragment ion peak: 348
Precursor m/z: 347
Precursor type: [M-H]-
m/z	relative intensity
241.006	21
346.478	44
347.039	999
347.575	28
