Mass spectrum: N6-Isopentenyladenine-7-glucoside; LC-ESI-QQ; MS2; CE:20.0 eV; [M+H]+
Name: N6-Isopentenyladenine-7-glucoside
Formula: C16H23N5O5
Exact mass: 365.16992
SMILES: CC(C)=CCNc(n3)c(c(nc3)2)n(cn2)C(O1)C(O)C(O)C(O)C(CO)1
InChI: InChI=1S/C16H23N5O5/c1-8(2)3-4-17-14-10-15(19-6-18-14)20-7-21(10)16-13(25)12(24)11(23)9(5-22)26-16/h3,6-7,9,11-13,16,22-25H,4-5H2,1-2H3,(H,17,18,19)/t9-,11-,12+,13-,16-/m1/s1
Instrument: UPLC Waters, Quattro Ultima Pt Micromass
Instrument type: LC-ESI-QQ
Ms type: MS2
Ion mode: POSITIVE
Collision energy: 20.0 eV
Ionization: ESI
Column name: ACQUITY UPLC BEH C18 2.1 by 50 mm (Waters, Milford, MA, USA)
Retention time: 9.62 min
Full scan fragment ion peak: 365
Ion type: [M+H]+
Precursor m/z: 366
Precursor type: [M+H]+
m/z	relative intensity
135.845	265
147.820	23
203.970	999
365.406	16
366.102	57
