Mass spectrum: Kaempferol-3-O-rutinoside; LC-ESI-QTOF; MS
Name: Kaempferol-3-O-rutinoside
Name: Nicotiflorin
Formula: C27H30O15
Exact mass: 594.15847
SMILES: c(c5)(O)cc(c(c51)C(C(OC(O3)C(C(C(C3COC(C4O)OC(C(C4O)O)C)O)O)O)=C(c(c2)ccc(O)c2)O1)=O)O
InChI: InChI=1S/C27H30O15/c1-9-17(31)20(34)22(36)26(39-9)38-8-15-18(32)21(35)23(37)27(41-15)42-25-19(33)16-13(30)6-12(29)7-14(16)40-24(25)10-2-4-11(28)5-3-10/h2-7,9,15,17-18,20-23,26-32,34-37H,8H2,1H3/t9-,15+,17-,18+,20+,21-,22+,23+,26+,27-/m0/s1
Instrument: UPLC Q-Tof Premier, Waters
Instrument type: LC-ESI-QTOF
Ms type: MS
Ion mode: POSITIVE
Collision energy: 5.0 V
Ionization: ESI
Column name: ACQUITY UPLC BEH C18 2.1 by 100 mm (Waters, Milford, MA,USA)
Retention time: 11.37 min
Full scan fragment ion peak: 595/449/287
Ion type: [M+H]+
m/z	relative intensity
287.0644	218
288.0849	38
289.0666	13
433.1247	10
449.1191	108
450.1266	23
451.0779	10
595.1714	999
596.1949	197
597.1765	61
598.2712	20
599.2134	10
