Mass spectrum: Malvidin; LC-ESI-QTOF; MS
Name: 3 4' 5 7-tetrahydroxy-3' 5'-dimethoxyflavylium  chloride
Name: Malvidin
Name: Malvidin chloride
Name: 2-(4-hydroxy-3,5-dimethoxy-phenyl)chromene-3,5,7-triol
Formula: [C17H15O7]+
Exact mass: 331.08178
SMILES: COc(c1)c(O)c(OC)cc1c([o+1]2)c(O)cc(c(O)3)c(cc(O)c3)2
InChI: InChI=1S/C17H14O7/c1-22-14-3-8(4-15(23-2)16(14)21)17-12(20)7-10-11(19)5-9(18)6-13(10)24-17/h3-7H,1-2H3,(H3-,18,19,20,21)/p+1
Instrument: UPLC Q-Tof Premier, Waters
Instrument type: LC-ESI-QTOF
Ms type: MS
Ion mode: POSITIVE
Collision energy: 5.0 V
Ionization: ESI
Column name: ACQUITY UPLC BEH C18 2.1 by 100 mm (Waters, Milford, MA,USA)
Retention time: 14.13 min
Full scan fragment ion peak: 331
Ion type: [M]+
m/z	relative intensity
204.2063	45
206.0756	11
207.1212	34
210.8779	17
215.9753	17
217.1122	11
230.0410	12
232.1262	11
235.1501	12
242.0181	11
244.9659	18
253.0171	36
254.0637	23
254.9723	18
258.2085	11
259.0312	12
260.9058	11
264.2278	11
265.1838	11
267.0948	22
268.0298	23
269.0228	23
277.1879	17
280.1223	22
282.3185	17
284.0040	11
285.2953	11
289.8748	17
293.0143	11
293.9778	46
295.9427	11
297.4195	17
304.0220	12
305.0123	28
306.7743	11
312.0120	11
320.9623	17
329.0862	62
330.1296	28
331.0983	999
332.1133	218
333.0215	51
334.9268	34
347.1454	34
352.9904	11
366.4338	11
368.9362	11
374.1450	11
379.9276	11
391.2047	22
392.8744	17
396.9394	11
399.9807	28
400.9811	11
417.1502	11
421.8793	11
430.9846	17
437.7518	11
438.8797	17
450.9680	17
451.8801	11
453.9043	11
454.9069	28
456.8947	11
459.0103	23
461.5715	17
470.9492	13
473.9095	29
475.0892	17
475.9097	12
480.3051	11
492.9327	11
497.7760	11
505.0208	11
508.8823	17
512.8708	23
514.8630	11
523.9214	45
539.1802	17
540.7860	11
543.8802	17
558.0358	34
558.8429	11
564.0516	17
579.9822	11
588.9405	28
594.7473	11
597.8281	11
606.1523	11
622.9482	11
625.9580	11
632.9694	17
641.0297	11
642.9205	11
644.9434	11
647.8571	23
649.0263	11
649.7706	11
655.8992	28
657.0756	11
658.8920	17
662.9824	11
665.8499	56
667.8428	17
669.9069	17
670.9592	34
673.9442	11
680.9371	11
684.9412	12
687.1496	11
697.8188	22
704.9124	11
712.9092	11
725.9668	11
741.8937	11
746.5935	17
752.8260	11
754.8196	28
771.9426	22
786.7661	11
796.7617	23
797.8533	11
808.6572	17
814.5175	28
816.0297	11
817.9210	11
834.1619	17
836.9302	11
838.0347	11
858.6472	22
864.7763	17
865.8143	11
870.9081	22
875.1083	11
876.1147	11
881.9847	11
887.7712	11
892.9734	17
896.9145	17
897.7830	17
918.8661	11
924.9028	22
937.8762	11
938.7995	11
969.6492	17
979.8471	23
982.0635	11
984.7275	17
987.8202	17
995.8798	11
998.7440	22
1003.7493	11
1006.2914	11
1017.7795	11
1022.8095	17
1032.2748	11
1033.8600	11
1040.2374	11
1042.7882	11
1044.9495	11
1048.0615	11
1050.8750	17
1055.6946	17
1056.8893	22
1065.9510	11
1071.0959	11
1076.7493	11
1079.0012	17
1093.6794	11
1096.8901	34
1104.7904	11
1174.5492	11
1183.7644	17
1244.2598	11
1260.5317	11
1288.5938	11
1312.6002	11
1346.3466	11
1392.7090	11
