Mass spectrum: 4-Deoxyphloridzin; LC-ESI-QTOF; MS
Name: 4-Deoxyphloridzin
Formula: C21H24O9
Exact mass: 420.14203
SMILES: OCC(O1)C(O)C(O)C(O)C1Oc(c2)c(C(=O)CCc(c3)cccc3)c(O)cc(O)2
InChI: InChI=1S/C21H24O9/c22-10-16-18(26)19(27)20(28)21(30-16)29-15-9-12(23)8-14(25)17(15)13(24)7-6-11-4-2-1-3-5-11/h1-5,8-9,16,18-23,25-28H,6-7,10H2/t16-,18-,19+,20-,21-/m1/s1
Instrument: UPLC Q-Tof Premier, Waters
Instrument type: LC-ESI-QTOF
Ms type: MS
Ion mode: POSITIVE
Collision energy: 5.0 V
Ionization: ESI
Column name: ACQUITY UPLC BEH C18 2.1 by 100 mm (Waters, Milford, MA,USA)
Retention time: 15.43 min
Full scan fragment ion peak: 259
Ion type: [M+H]+
m/z	relative intensity
259.1085	999
260.1164	133
261.0566	36
301.1307	12
325.1265	11
403.1501	23
421.1931	19
438.2110	12
515.2061	32
659.3305	11
894.3093	24
1314.3911	18
1315.4313	10
