Mass spectrum: Pelargonidin; LC-ESI-QTOF; MS
Name: Pelargonidin chloride
Name: 3,5,7-Trihydroxy-2-(4-hydroxyphenyl)benzopyrylium chloride
Name: Pelargonidol chloride
Name: 2-(4-hydroxyphenyl)chromene-3,5,7-triol
Name: 3,4',5,7-Tetrahydroxyflavylium chloride
Name: Pelargonidin
Name: pelargonidin chloride
Formula: [C15H11O5]+
Exact mass: 271.06065
SMILES: Oc(c3)ccc(c3)c([o+1]1)c(O)cc(c(O)2)c(cc(O)c2)1
InChI: InChI=1S/C15H10O5/c16-9-3-1-8(2-4-9)15-13(19)7-11-12(18)5-10(17)6-14(11)20-15/h1-7H,(H3-,16,17,18,19)/p+1
Instrument: UPLC Q-Tof Premier, Waters
Instrument type: LC-ESI-QTOF
Ms type: MS
Ion mode: POSITIVE
Collision energy: 5.0 V
Ionization: ESI
Column name: ACQUITY UPLC BEH C18 2.1 by 100 mm (Waters, Milford, MA,USA)
Retention time: 12.03 min
Full scan fragment ion peak: 271
Ion type: [M]+
m/z	relative intensity
271.0538	999
272.0663	175
273.0281	33
274.0409	12
