Mass spectrum: Gibberellin A5; LC-ESI-QQ; MS2; CE:20.0 eV; [M-H]-
Name: Gibberellin A5
Formula: C19H22O5
Exact mass: 330.14672
SMILES: OC(=O)C(C321)C([H])(C(C)54)C(CC=C5)(OC(=O)4)C([H])(CCC(O)(C(=C)C3)C2)1
InChI: InChI=1S/C19H22O5/c1-10-8-17-9-18(10,23)7-4-11(17)19-6-3-5-16(2,15(22)24-19)13(19)12(17)14(20)21/h3,5,11-13,23H,1,4,6-9H2,2H3,(H,20,21)/t11-,12-,13-,16-,17+,18+,19-/m1/s1
Instrument: UPLC Waters, Quattro Ultima Pt Micromass
Instrument type: LC-ESI-QQ
Ms type: MS2
Ion mode: NEGATIVE
Collision energy: 20.0 eV
Ionization: ESI
Column name: ACQUITY UPLC BEH C18 2.1 by 50 mm (Waters, Milford, MA, USA)
Retention time: 7.48 min
Full scan fragment ion peak: 330
Precursor m/z: 329
Precursor type: [M-H]-
m/z	relative intensity
70.803	65
82.529	20
84.698	21
104.924	235
122.918	92
142.715	25
144.337	36
144.929	999
145.482	48
148.620	31
156.748	12
160.987	12
171.162	10
222.533	25
223.146	208
238.893	75
239.564	10
241.076	243
266.462	23
267.096	81
267.658	24
285.001	320
285.605	14
328.508	84
329.082	487
329.685	15
