Mass spectrum: Flavanomarein; LC-ESI-QTOF; MS
Name: Isookanin-7-glucoside
Name: Flavanomarein
Name: isookanin-7-glucoside
Formula: C21H22O11
Exact mass: 450.11621
SMILES: OCC(O1)C(O)C(O)C(O)C1Oc(c4)c(O)c(O2)c(c4)C(=O)CC2c(c3)cc(O)c(O)c3
InChI: InChI=1S/C21H22O11/c22-7-15-16(26)18(28)19(29)21(32-15)31-13-4-2-9-11(24)6-14(30-20(9)17(13)27)8-1-3-10(23)12(25)5-8/h1-5,14-16,18-19,21-23,25-29H,6-7H2/t14-,15+,16+,18-,19+,21+/m0/s1
Instrument: UPLC Q-Tof Premier, Waters
Instrument type: LC-ESI-QTOF
Ms type: MS
Ion mode: POSITIVE
Collision energy: 5.0 V
Ionization: ESI
Column name: ACQUITY UPLC BEH C18 2.1 by 100 mm (Waters, Milford, MA,USA)
Retention time: 6.39 min
Full scan fragment ion peak: 451/289
Ion type: [M+H]+
m/z	relative intensity
287.0737	24
288.1567	12
289.0783	999
290.0958	138
291.0309	29
451.1426	77
452.1454	17
577.1499	11
739.2101	27
740.2200	17
