Mass spectrum: Indoleacetic acid; LC-ESI-QQ; MS2; CE:10.0 eV; [M+H]+
Name: Indoleacetic acid
Name: Indole-3-acetate
Name: Indole-3-acetic acid
Name: Indoleacetate
Formula: C10H9NO2
Exact mass: 175.06333
SMILES: C1=CC=C2C(=C1)C(=CN2)CC(=O)O
InChI: InChI=1S/C10H9NO2/c12-10(13)5-7-6-11-9-4-2-1-3-8(7)9/h1-4,6,11H,5H2,(H,12,13)
Instrument: UPLC Waters, Quattro Ultima Pt Micromass
Instrument type: LC-ESI-QQ
Ms type: MS2
Ion mode: POSITIVE
Collision energy: 10.0 eV
Ionization: ESI
Column name: ACQUITY UPLC BEH C18 2.1 by 50 mm (Waters, Milford, MA, USA)
Retention time: 8.19 min
Full scan fragment ion peak: 175
Ion type: [M+H]+
Precursor m/z: 176
Precursor type: [M+H]+
m/z	relative intensity
106.638	13
116.795	40
129.816	999
157.187	20
157.941	97
175.821	322
176.428	12
