Mass spectrum: R-2-Hydroxy-3-butenyl glucosinolate; LC-ESI-QTOF; MS
Name: R-2-Hydroxy-3-butenyl glucosinolate
Name: Progoitrin
Name: Epiporogoitrin
Formula: C11H19NO10S2
Exact mass: 389.04504
SMILES: C=C[C@H](O)CC(=NOS(O)(=O)=O)S[C@H](O1)[C@H](O)[C@@H](O)[C@H](O)[C@@H](CO)1
InChI: InChI=1S/C11H19NO10S2/c1-2-5(14)3-7(12-22-24(18,19)20)23-11-10(17)9(16)8(15)6(4-13)21-11/h2,5-6,8-11,13-17H,1,3-4H2,(H,18,19,20)/t5-,6+,8+,9-,10+,11-/m0/s1
Instrument: UPLC Q-Tof Premier, Waters
Instrument type: LC-ESI-QTOF
Ms type: MS
Ion mode: NEGATIVE
Collision energy: 5.0 V
Ionization: ESI
Column name: ACQUITY UPLC BEH C18 2.1 by 100 mm (Waters, Milford, MA,USA)
Full scan fragment ion peak: 388
Ion type: [M]-
m/z	relative intensity
200.6471	18
211.9806	10
213.8050	13
214.6359	13
215.9443	10
216.9388	12
219.9029	13
233.3751	11
240.0001	14
251.2567	11
252.9685	10
255.5020	11
262.2743	11
264.0171	15
264.9899	16
268.7955	11
270.8758	12
278.9113	22
280.0639	13
284.9343	17
286.0019	25
287.4162	12
289.8603	26
290.9219	22
308.0352	19
311.0953	11
324.9557	20
326.4671	11
351.2566	16
357.4693	15
365.0930	17
366.9124	15
368.3407	22
374.0278	10
381.8929	10
388.0475	999
389.0604	272
390.0279	181
391.0092	60
391.9619	26
392.9938	24
401.1581	11
403.7552	18
419.8507	20
430.3301	10
441.0325	15
449.0291	23
458.9919	12
460.0695	15
468.0424	70
469.9323	21
473.9921	15
482.0522	10
486.0684	10
494.1774	17
497.1385	13
500.2490	19
511.7365	14
522.9116	12
529.0748	13
529.8647	13
547.8799	16
582.9069	11
587.8777	11
590.2033	11
613.1602	12
657.8266	19
666.2205	12
695.4205	11
731.8445	10
736.7783	12
777.0826	139
778.0929	30
779.0869	62
794.1098	32
799.0554	18
811.8317	16
813.7407	10
823.1285	13
832.0004	21
834.1111	20
843.9958	14
873.9813	12
879.0018	10
883.7327	12
909.0389	16
934.7838	10
938.1189	17
970.1286	11
