Mass spectrum: Indole-3-acetyl-L-aspartic acid; LC-ESI-QQ; MS2; CE:10.0 eV; [M+H]+
Name: Indole-3-acetyl-L-aspartic acid
Name: Indoleacetylaspartate
Name: IAASP
Name: Indolyl-3-aspartic acid
Name: IAA-L-Asp
Name: (Indoleacetyl)aspartic acid
Name: Indol-3-ylacetylaspartic acid
Name: Indole-3-acetylasparaginic acid
Name: (Indole-3-acetyl)aspartic acid
Name: 3-Indolylacetyl-L-aspartic acid
Formula: C14H14N2O5
Exact mass: 290.09027
SMILES: C1=CC=C2C(=C1)C(=CN2)CC(=O)NC(CC(=O)O)C(=O)O
InChI: InChI=1S/C14H14N2O5/c17-12(16-11(14(20)21)6-13(18)19)5-8-7-15-10-4-2-1-3-9(8)10/h1-4,7,11,15H,5-6H2,(H,16,17)(H,18,19)(H,20,21)
Instrument: UPLC Waters, Quattro Ultima Pt Micromass
Instrument type: LC-ESI-QQ
Ms type: MS2
Ion mode: POSITIVE
Collision energy: 10.0 eV
Ionization: ESI
Column name: ACQUITY UPLC BEH C18 2.1 by 50 mm (Waters, Milford, MA, USA)
Retention time: 5.92 min
Full scan fragment ion peak: 290
Precursor m/z: 291
Precursor type: [M+H]+
m/z	relative intensity
87.890	26
115.731	11
129.244	42
129.802	999
130.401	25
131.104	16
133.715	471
134.260	20
175.853	14
198.601	13
199.383	21
200.349	10
207.867	17
208.953	52
209.493	10
226.906	32
244.342	12
245.114	61
249.193	21
250.019	27
272.672	80
273.532	17
290.836	338
291.516	56
