Mass spectrum: Neohesperidin; LC-ESI-QTOF; MS
Name: Hesperetin-7-O-neohesperidoside
Name: Neohesperidin
Name: Hesperetin 7-O-neohesperidoside
Name: (2S)-7-[(2S,3R,4S,5R,6R)-4,5-dihydroxy-6-(hydroxymethyl)-3-[(2S,3R,4R,5S,6S)-3,4,5-trihydroxy-6-methyl-oxan-2-yl]oxy-oxan-2-yl]oxy-5-hydroxy-2-(3-hydroxy-4-methoxy-phenyl)chroman-4-one
Name: hesperetin-7-O-neohesperidoside
Formula: C28H34O15
Exact mass: 610.18977
SMILES: c(O)(c3)c(C(=O)2)c(cc3O[C@H](O5)[C@@H]([C@@H](O)[C@H](O)[C@@H](CO)5)O[C@H](O4)[C@H](O)[C@H](O)[C@@H](O)[C@H](C)4)O[C@@H](C2)c(c1)ccc(c1O)OC
InChI: InChI=1S/C28H34O15/c1-10-21(33)23(35)25(37)27(39-10)43-26-24(36)22(34)19(9-29)42-28(26)40-12-6-14(31)20-15(32)8-17(41-18(20)7-12)11-3-4-16(38-2)13(30)5-11/h3-7,10,17,19,21-31,33-37H,8-9H2,1-2H3/t10-,17-,19+,21-,22+,23+,24-,25+,26+,27-,28+/m0/s1
Instrument: UPLC Q-Tof Premier, Waters
Instrument type: LC-ESI-QTOF
Ms type: MS
Ion mode: POSITIVE
Collision energy: 5.0 V
Ionization: ESI
Column name: ACQUITY UPLC BEH C18 2.1 by 100 mm (Waters, Milford, MA,USA)
Retention time: 15.26 min
Full scan fragment ion peak: 611/449/303
Ion type: [M+H]+
m/z	relative intensity
303.0951	999
304.1106	147
305.0871	37
305.9885	15
345.1197	20
431.1561	24
447.1418	13
449.1571	274
450.1866	46
451.1194	16
465.1554	78
466.1719	13
593.2177	13
611.2098	803
612.2303	174
613.2576	68
614.1409	15
615.0688	18
616.0417	11
757.2792	58
758.2892	19
759.3212	12
1221.4166	20
1222.3844	10
