Mass spectrum: Hesperidin; LC-ESI-QTOF; MS
Name: Hesperidin
Name: Cirantin
Name: Hesperidoside
Name: (2S)-7-[[6-O-(6-Deoxy-alpha-L-mannopyranosyl)-beta-D-glucopyranosyl]oxy]-2,3-dihydro-5-hydroxy-2-(3-hydroxy-4-methoxyphenyl)-4H-1-benzopyran-4-one
Name: (2S)-5-hydroxy-2-(3-hydroxy-4-methoxy-phenyl)-7-[(2S,3R,4S,5R,6R)-3,4,5-trihydroxy-6-[[(2R,3R,4R,5S,6S)-3,4,5-trihydroxy-6-methyl-oxan-2-yl]oxymethyl]oxan-2-yl]oxy-chroman-4-one
Name: Hesp-7-Glc-6pp-Rha
Name: Hesperetin 7-O-rutinoside
Name: Hesperetin 7-rhamnoglucoside
Formula: C28H34O15
Exact mass: 610.18977
SMILES: C[C@H]1[C@@H]([C@H]([C@H]([C@@H](O1)OC[C@@H]2[C@H]([C@@H]([C@H]([C@@H](O2)OC3=CC(=C4C(=O)C[C@H](OC4=C3)C5=CC(=C(C=C5)OC)O)O)O)O)O)O)O)O
InChI: InChI=1S/C28H34O15/c1-10-21(32)23(34)25(36)27(40-10)39-9-19-22(33)24(35)26(37)28(43-19)41-12-6-14(30)20-15(31)8-17(42-18(20)7-12)11-3-4-16(38-2)13(29)5-11/h3-7,10,17,19,21-30,32-37H,8-9H2,1-2H3/t10-,17-,19+,21-,22+,23+,24-,25+,26+,27+,28+/m0/s1
Instrument: UPLC Q-Tof Premier, Waters
Instrument type: LC-ESI-QTOF
Ms type: MS
Ion mode: POSITIVE
Collision energy: 5.0 V
Ionization: ESI
Column name: ACQUITY UPLC BEH C18 2.1 by 100 mm (Waters, Milford, MA,USA)
Retention time: 18.77 min
Full scan fragment ion peak: 611/465/449/303
Ion type: [M+H]+
m/z	relative intensity
303.1021	160
304.1131	44
305.0649	17
345.1137	18
431.1549	22
449.1581	335
450.1700	84
451.1657	26
452.0989	11
465.1587	70
466.1661	21
611.2136	999
612.2345	222
613.2032	75
614.2091	18
615.0728	13
757.2906	13
1221.4264	12
