Mass spectrum: Cosmosiin; LC-ESI-QTOF; MS
Name: Apigenin-7-O-glucoside
Name: Apigetrin
Name: Cosmosiin
Name: 5-hydroxy-2-(4-hydroxyphenyl)-7-[(2S,3R,4S,5R,6R)-3,4,5-trihydroxy-6-(hydroxymethyl)oxan-2-yl]oxy-chromen-4-one
Formula: C21H20O10
Exact mass: 432.10565
SMILES: C1=CC(=CC=C1C2=CC(=O)C3=C(C=C(C=C3O2)O[C@H]4[C@@H]([C@H]([C@@H]([C@H](O4)CO)O)O)O)O)O
InChI: InChI=1S/C21H20O10/c22-8-16-18(26)19(27)20(28)21(31-16)29-11-5-12(24)17-13(25)7-14(30-15(17)6-11)9-1-3-10(23)4-2-9/h1-7,16,18-24,26-28H,8H2/t16-,18-,19+,20-,21-/m1/s1
Instrument: UPLC Q-Tof Premier, Waters
Instrument type: LC-ESI-QTOF
Ms type: MS
Ion mode: POSITIVE
Collision energy: 5.0 V
Ionization: ESI
Column name: ACQUITY UPLC BEH C18 2.1 by 100 mm (Waters, Milford, MA,USA)
Retention time: 12.67 min
Full scan fragment ion peak: 433/271
Ion type: [M+H]+
m/z	relative intensity
250.9961	10
271.0795	40
272.0566	10
433.1220	999
434.1415	225
435.0995	51
436.0383	22
865.2406	10
866.2333	11
