Mass spectrum: Marein; LC-ESI-QTOF; MS
Name: Okanin-4'-O-glucoside
Name: Marein
Name: okanin-4'-O-glucoside
Name: (E)-3-(3,4-dihydroxyphenyl)-1-[2,3-dihydroxy-4-[(2S,3R,4S,5R,6R)-3,4,5-trihydroxy-6-(hydroxymethyl)oxan-2-yl]oxy-phenyl]prop-2-en-1-one
Formula: C21H22O11
Exact mass: 450.11621
SMILES: OCC(O1)C(O)C(O)C(O)C1Oc(c3)c(O)c(O)c(c3)C(=O)C=Cc(c2)cc(O)c(O)c2
InChI: InChI=1S/C21H22O11/c22-8-15-18(28)19(29)20(30)21(32-15)31-14-6-3-10(16(26)17(14)27)11(23)4-1-9-2-5-12(24)13(25)7-9/h1-7,15,18-22,24-30H,8H2/b4-1+/t15-,18-,19+,20-,21-/m1/s1
Instrument: UPLC Q-Tof Premier, Waters
Instrument type: LC-ESI-QTOF
Ms type: MS
Ion mode: POSITIVE
Collision energy: 5.0 V
Ionization: ESI
Column name: ACQUITY UPLC BEH C18 2.1 by 100 mm (Waters, Milford, MA,USA)
Retention time: 9.47 min
Full scan fragment ion peak: 451/289
Ion type: [M+H]+
m/z	relative intensity
259.0854	11
287.0793	46
288.0508	21
289.0839	692
290.0932	112
291.0336	25
303.0849	10
449.1339	11
451.1389	999
452.1554	205
453.1447	40
454.0635	22
