Mass spectrum: Isopentenyladenosine; LC-ESI-QQ; MS2; CE:20.0 eV; [M+H]+
Name: Isopentenyladenosine
Name: Riboprine
Name: Dimethylallyladenosine
Name: N-Isopentenyladenosine
Name: 2iPA
Name: N6-Isopentenyladenosine
Formula: C15H21N5O4
Exact mass: 335.15935
SMILES: CC(C)=CCNc(n3)c(n2)c(nc3)n(c2)C(O1)C(O)C(O)C(CO)1
InChI: InChI=1S/C15H21N5O4/c1-8(2)3-4-16-13-10-14(18-6-17-13)20(7-19-10)15-12(23)11(22)9(5-21)24-15/h3,6-7,9,11-12,15,21-23H,4-5H2,1-2H3,(H,16,17,18)/t9-,11-,12-,15-/m1/s1
Instrument: UPLC Waters, Quattro Ultima Pt Micromass
Instrument type: LC-ESI-QQ
Ms type: MS2
Ion mode: POSITIVE
Collision energy: 20.0 eV
Ionization: ESI
Column name: ACQUITY UPLC BEH C18 2.1 by 50 mm (Waters, Milford, MA, USA)
Retention time: 12.59 min
Full scan fragment ion peak: 335
Ion type: [M+H]+
Precursor m/z: 336
Precursor type: [M+H]+
m/z	relative intensity
68.798	12
135.864	583
147.888	387
203.962	999
335.558	14
336.259	33
