Mass spectrum: Maritimein; LC-ESI-QTOF; MS
Name: Maritimetin-6-O-glucoside
Name: maritimetin-6-O-glucoside
Name: Maritimein
Name: (2Z)-2-[(3,4-dihydroxyphenyl)methylidene]-7-hydroxy-6-[(2S,3R,4S,5R,6R)-3,4,5-trihydroxy-6-(hydroxymethyl)oxan-2-yl]oxy-benzofuran-3-one
Formula: C21H20O11
Exact mass: 448.10056
SMILES: OCC(O1)C(O)C(O)C(O)C1Oc(c4)c(O)c(o2)c(c4)c(=O)c(=Cc(c3)cc(O)c(O)c3)2
InChI: InChI=1S/C21H20O11/c22-7-14-16(26)18(28)19(29)21(32-14)31-12-4-2-9-15(25)13(30-20(9)17(12)27)6-8-1-3-10(23)11(24)5-8/h1-6,14,16,18-19,21-24,26-29H,7H2/b13-6-/t14-,16-,18+,19-,21-/m1/s1
Instrument: UPLC Q-Tof Premier, Waters
Instrument type: LC-ESI-QTOF
Ms type: MS
Ion mode: POSITIVE
Collision energy: 5.0 V
Ionization: ESI
Column name: ACQUITY UPLC BEH C18 2.1 by 100 mm (Waters, Milford, MA,USA)
Retention time: 9.17 min
Full scan fragment ion peak: 449/287
Ion type: [M+H]+
m/z	relative intensity
285.0518	137
286.0650	23
287.0667	357
288.0799	68
288.9829	11
447.1015	16
449.1162	999
450.1338	159
451.0610	54
452.0709	24
453.0446	12
897.2263	90
898.2364	35
899.2009	13
