Mass spectrum: Homoorientin; LC-ESI-QTOF; MS
Name: Luteolin-6-C-glucoside
Name: 2-(3,4-dihydroxyphenyl)-5,7-dihydroxy-6-[(2S,3S,4R,5R,6R)-3,4,5-trihydroxy-6-(hydroxymethyl)oxan-2-yl]chromen-4-one
Name: Isoorientin
Name: Homoorietin
Name: luteolin-6-C-glucoside
Name: Homoorientin
Formula: C21H20O11
Exact mass: 448.10056
SMILES: OCC(C(O)4)OC(C(O)C(O)4)c(c(O)1)c(O)c(C(=O)3)c(OC(=C3)c(c2)cc(O)c(O)c2)c1
InChI: InChI=1S/C21H20O11/c22-6-14-17(27)19(29)20(30)21(32-14)16-11(26)5-13-15(18(16)28)10(25)4-12(31-13)7-1-2-8(23)9(24)3-7/h1-5,14,17,19-24,26-30H,6H2/t14-,17-,19+,20-,21+/m1/s1
Instrument: UPLC Q-Tof Premier, Waters
Instrument type: LC-ESI-QTOF
Ms type: MS
Ion mode: POSITIVE
Collision energy: 5.0 V
Ionization: ESI
Column name: ACQUITY UPLC BEH C18 2.1 by 100 mm (Waters, Milford, MA,USA)
Retention time: 7.27 min
Full scan fragment ion peak: 449
Ion type: [M+H]+
m/z	relative intensity
447.0897	61
448.1491	19
449.0969	999
450.1159	183
451.0652	62
451.9706	19
