Mass spectrum: Luteolin-7-O-glucoside; LC-ESI-QTOF; MS
Name: Luteolin-7-O-glucoside
Name: Luteolin 7-O-glucoside
Name: 7-O-beta-D-Glucosyl-5,7,3',4'-tetrahydroxyflavone
Name: 2-(3,4-dihydroxyphenyl)-5-hydroxy-7-[(2S,3R,4S,5R,6R)-3,4,5-trihydroxy-6-(hydroxymethyl)oxan-2-yl]oxy-chromen-4-one
Name: Luteolin 7-O-beta-D-glucoside
Name: Cynaroside
Formula: C21H20O11
Exact mass: 448.10056
SMILES: OC[C@@H](O1)[C@@H](O)[C@H](O)[C@@H](O)[C@@H]1Oc(c4)cc(O2)c(c(O)4)C(=O)C=C2c(c3)cc(O)c(O)c3
InChI: InChI=1S/C21H20O11/c22-7-16-18(27)19(28)20(29)21(32-16)30-9-4-12(25)17-13(26)6-14(31-15(17)5-9)8-1-2-10(23)11(24)3-8/h1-6,16,18-25,27-29H,7H2/t16-,18-,19+,20-,21-/m1/s1
Instrument: UPLC Q-Tof Premier, Waters
Instrument type: LC-ESI-QTOF
Ms type: MS
Ion mode: POSITIVE
Collision energy: 5.0 V
Ionization: ESI
Column name: ACQUITY UPLC BEH C18 2.1 by 100 mm (Waters, Milford, MA,USA)
Retention time: 9.91 min
Full scan fragment ion peak: 449
Ion type: [M+H]+
m/z	relative intensity
220.1576	12
285.0560	61
287.0798	27
288.0693	19
447.1109	61
448.1487	14
449.1213	999
450.1427	234
451.0995	50
452.0799	32
452.8918	10
897.2278	33
949.9989	19
