Mass spectrum: Quercetin 3-(6-O-acetyl-beta-glucoside); LC-ESI-QTOF; MS
Name: Quercetin-3-O-beta-glucopyranosyl-6''-acetate
Name: quercetin-3-O-beta-glucopyranosyl-6''-acetate
Name: Quercetin 3-(6-O-acetyl-beta-glucoside)
Formula: C23H22O13
Exact mass: 506.10604
SMILES: CC(=O)OCC(O1)C(O)C(O)C(O)C1OC(C(=O)3)=C(Oc(c4)c(c(O)cc(O)4)3)c(c2)cc(O)c(O)c2
InChI: InChI=1S/C23H22O13/c1-8(24)33-7-15-17(29)19(31)20(32)23(35-15)36-22-18(30)16-13(28)5-10(25)6-14(16)34-21(22)9-2-3-11(26)12(27)4-9/h2-6,15,17,19-20,23,25-29,31-32H,7H2,1H3/t15-,17-,19+,20-,23+/m1/s1
Instrument: UPLC Q-Tof Premier, Waters
Instrument type: LC-ESI-QTOF
Ms type: MS
Ion mode: POSITIVE
Collision energy: 5.0 V
Ionization: ESI
Column name: ACQUITY UPLC BEH C18 2.1 by 100 mm (Waters, Milford, MA,USA)
Retention time: 12.6 min
Full scan fragment ion peak: 507/303
Ion type: [M+H]+
m/z	relative intensity
273.0383	10
301.0571	92
302.1079	28
303.0674	261
304.0856	42
507.1285	999
508.1484	197
509.1707	54
510.1828	29
511.0531	15
1066.2537	12
