Mass spectrum: Kaempferide; LC-ESI-QTOF; MS
Name: 3 5 7-trihydroxy-4'-methoxyflavone
Name: 3,5,7-trihydroxy-2-(4-methoxyphenyl)chromen-4-one
Name: Kaempferide
Name: Kaempferol 4'-methyl ether
Formula: C16H12O6
Exact mass: 300.06339
SMILES: COc(c3)ccc(c3)C(O1)=C(O)C(=O)c(c(O)2)c(cc(O)c2)1
InChI: InChI=1S/C16H12O6/c1-21-10-4-2-8(3-5-10)16-15(20)14(19)13-11(18)6-9(17)7-12(13)22-16/h2-7,17-18,20H,1H3
Instrument: UPLC Q-Tof Premier, Waters
Instrument type: LC-ESI-QTOF
Ms type: MS
Ion mode: POSITIVE
Collision energy: 5.0 V
Ionization: ESI
Column name: ACQUITY UPLC BEH C18 2.1 by 100 mm (Waters, Milford, MA,USA)
Retention time: 22.83 min
Full scan fragment ion peak: 432/387/301
Ion type: [M+H]+
m/z	relative intensity
267.1260	21
281.1237	10
299.0507	10
301.0761	999
302.0799	182
303.0466	41
375.3316	12
387.1889	332
388.2119	82
389.2693	14
390.2543	12
404.2172	77
405.2197	19
409.1767	24
425.1546	35
430.1971	10
432.2458	103
433.2636	16
434.2259	10
467.9783	15
474.2479	24
475.2717	15
488.2689	10
654.0366	46
655.0315	22
790.4048	13
