Mass spectrum: 4-Methylsulfinylbutyl glucosinolate; LC-ESI-QTOF; MS
Name: 4-Methylsulfinylbutyl glucosinolate
Name: beta-D-Glucopyranose, 1-thio-,
Name: Glucoraphenin
Name: (2R,3R,4S,5R,6S)-3,4,5-trihydroxy-2-(hydroxymethyl)-6-(C-(4-methylsulfinylbutyl)-N-sulfonatooxy-carbonimidoyl)sulfanyl-oxane
Name: 1-(5-(methylsulfinyl)-N-(sulfooxy)pentanimidate)
Name: Glucoraphanin
Formula: C12H23NO10S3
Exact mass: 437.04841
SMILES: OCC(O1)C(O)C(O)C(O)C1SC(CCCCS(C)=O)=NOS(O)(=O)=O
InChI: InChI=1S/C12H23NO10S3/c1-25(18)5-3-2-4-8(13-23-26(19,20)21)24-12-11(17)10(16)9(15)7(6-14)22-12/h7,9-12,14-17H,2-6H2,1H3,(H,19,20,21)/t7-,9-,10+,11-,12+,25?/m1/s1
Instrument: UPLC Q-Tof Premier, Waters
Instrument type: LC-ESI-QTOF
Ms type: MS
Ion mode: NEGATIVE
Collision energy: 5.0 V
Ionization: ESI
Column name: ACQUITY UPLC BEH C18 2.1 by 100 mm (Waters, Milford, MA,USA)
Full scan fragment ion peak: 436
Ion type: [M]-
m/z	relative intensity
225.7747	17
229.7692	10
275.0551	13
281.0634	11
372.0561	25
388.0811	11
436.0548	999
437.0811	199
438.0638	216
439.0469	54
439.9989	45
443.9102	14
452.0277	11
468.0296	15
516.0164	30
550.0046	13
873.0983	116
874.1139	40
875.1077	54
877.1005	16
