Mass spectrum: Gibberellin A9; LC-ESI-QQ; MS2; CE:20.0 eV; [M-H]-
Name: Gibberellin A9
Formula: C19H24O4
Exact mass: 316.16746
SMILES: C=C([C@H]45)C[C@@](C5)([C@@H](C(O)=O)1)[C@@]([H])(CC4)[C@@](C3)(O2)[C@]([H])([C@@](C)(CC3)C(=O)2)1
InChI: InChI=1S/C19H24O4/c1-10-8-18-9-11(10)4-5-12(18)19-7-3-6-17(2,16(22)23-19)14(19)13(18)15(20)21/h11-14H,1,3-9H2,2H3,(H,20,21)/t11-,12-,13-,14-,17-,18+,19-/m1/s1
Instrument: UPLC Waters, Quattro Ultima Pt Micromass
Instrument type: LC-ESI-QQ
Ms type: MS2
Ion mode: NEGATIVE
Collision energy: 20.0 eV
Ionization: ESI
Column name: ACQUITY UPLC BEH C18 2.1 by 50 mm (Waters, Milford, MA, USA)
Retention time: 11.43 min
Full scan fragment ion peak: 316
Precursor m/z: 315
Precursor type: [M-H]-
m/z	relative intensity
53.104	13
62.656	10
72.229	13
73.684	14
82.874	10
91.644	13
111.648	13
119.809	11
121.017	13
128.111	13
129.076	12
130.648	15
139.888	12
148.713	13
156.987	14
167.029	14
168.096	12
169.039	13
176.991	11
178.503	12
179.637	11
188.057	11
205.037	10
224.661	15
234.148	10
252.513	19
253.325	56
263.662	10
265.381	10
271.084	550
271.680	31
284.761	15
294.354	11
302.463	14
303.526	20
314.943	999
315.572	36
323.187	11
342.433	12
351.345	13
360.165	11
397.876	10
398.826	15
