Mass spectrum: Kaempferol; LC-ESI-QTOF; MS
Name: 3 4' 5 7-tetrahydroxyflavone
Name: 4H-1-Benzopyran-4-one,
Name: Kaempferol
Name: 3,5,7-trihydroxy-2-(4-hydroxyphenyl)-5,7,4'-Trihydroxyflavonol
Name: Indigo yellow
Name: Rhamnolutein
Name: 3,4',5,7-Tetrahydroxyflavone
Name: 3,5,7-trihydroxy-2-(4-hydroxyphenyl)chromen-4-one
Name: Rhamnolutin
Name: Trifolitin
Name: Pelargidenolon
Name: Populnetin
Name: C.I. 75640
Name: Robigenin
Name: Kaempherol
Name: Swartziol
Name: Nimbecetin
Name: Kempferol
Formula: C15H10O6
Exact mass: 286.04774
SMILES: Oc(c3)ccc(c3)C(O1)=C(O)C(=O)c(c(O)2)c(cc(O)c2)1
InChI: InChI=1S/C15H10O6/c16-8-3-1-7(2-4-8)15-14(20)13(19)12-10(18)5-9(17)6-11(12)21-15/h1-6,16-18,20H
Instrument: UPLC Q-Tof Premier, Waters
Instrument type: LC-ESI-QTOF
Ms type: MS
Ion mode: POSITIVE
Collision energy: 5.0 V
Ionization: ESI
Column name: ACQUITY UPLC BEH C18 2.1 by 100 mm (Waters, Milford, MA,USA)
Retention time: 21.86 min
Full scan fragment ion peak: 287
Ion type: [M+H]+
m/z	relative intensity
285.0619	26
287.0620	999
288.0736	150
289.0319	32
289.9965	11
626.0358	75
627.0331	28
