Mass spectrum: Sinapic acid; LC-ESI-QTOF; MS
Name: Sinapic acid
Name: 3,5-dimethoxy-4-hydroxycinnamic acid
Name: 3-(4-hydroxy-3,5-dimethoxy-phenyl)prop-2-enoic acid
Formula: C11H12O5
Exact mass: 224.06847
SMILES: COC1=CC(=CC(=C1O)OC)/C=C/C(=O)O
InChI: InChI=1S/C11H12O5/c1-15-8-5-7(3-4-10(12)13)6-9(16-2)11(8)14/h3-6,14H,1-2H3,(H,12,13)/b4-3+
Instrument: UPLC Q-Tof Premier, Waters
Instrument type: LC-ESI-QTOF
Ms type: MS
Ion mode: POSITIVE
Collision energy: 5.0 V
Ionization: ESI
Column name: ACQUITY UPLC BEH C18 2.1 by 100 mm (Waters, Milford, MA,USA)
Retention time: 8.06 min
Full scan fragment ion peak: 225/207
Ion type: [M+H]+
m/z	relative intensity
207.0505	999
208.0618	428
209.0366	85
209.9744	16
224.0844	11
225.0762	489
226.0875	55
249.0889	22
293.0860	37
325.1203	24
331.1263	67
332.1472	16
357.1383	170
358.1583	31
401.1412	14
447.1423	24
