Mass spectrum: (+)-Epicatechin; LC-ESI-QTOF; MS
Name: (+)-3 3' 4' 5 7-Pentahydroxyflavan
Name: ent-Epicatechin
Name: (+)-Epicatechin
Name: (2S,3S)-2-(3,4-dihydroxyphenyl)chroman-3,5,7-triol
Formula: C15H14O6
Exact mass: 290.07904
SMILES: Oc(c3)c(O)cc(c3)[C@H](O1)[C@@H](O)Cc(c(O)2)c(cc(O)c2)1
InChI: InChI=1S/C15H14O6/c16-8-4-11(18)9-6-13(20)15(21-14(9)5-8)7-1-2-10(17)12(19)3-7/h1-5,13,15-20H,6H2/t13-,15-/m0/s1
Instrument: UPLC Q-Tof Premier, Waters
Instrument type: LC-ESI-QTOF
Ms type: MS
Ion mode: POSITIVE
Collision energy: 5.0 V
Ionization: ESI
Column name: ACQUITY UPLC BEH C18 2.1 by 100 mm (Waters, Milford, MA,USA)
Retention time: 6.12 min
Full scan fragment ion peak: 291
Ion type: [M+H]+
m/z	relative intensity
273.0963	22
289.0860	107
290.1184	14
291.0959	999
292.1126	162
293.0542	34
579.1688	37
580.1794	15
