Mass spectrum: cis-Zeatin; LC-ESI-QQ; MS2; CE:20.0 eV; [M+H]+
Name: cis-Zeatin
Name: (Z)-2-Methyl-4-(1H-purin-6-ylamino)but-2-en-1-ol
Formula: C10H13N5O
Exact mass: 219.11201
SMILES: C/C(=C/CNC1=NC=NC2=C1NC=N2)/CO
InChI: InChI=1S/C10H13N5O/c1-7(4-16)2-3-11-9-8-10(13-5-12-8)15-6-14-9/h2,5-6,16H,3-4H2,1H3,(H2,11,12,13,14,15)/b7-2-
Instrument: UPLC Waters, Quattro Ultima Pt Micromass
Instrument type: LC-ESI-QQ
Ms type: MS2
Ion mode: POSITIVE
Collision energy: 20.0 eV
Ionization: ESI
Column name: ACQUITY UPLC BEH C18 2.1 by 50 mm (Waters, Milford, MA, USA)
Retention time: 6.98 min
Full scan fragment ion peak: 219
Precursor m/z: 220
Precursor type: [M+H]+
m/z	relative intensity
56.764	10
66.801	20
114.945	10
118.791	33
127.803	11
135.853	999
147.862	36
158.092	10
158.842	33
174.832	16
184.841	110
201.837	27
220.072	12
