Mass spectrum: Gibberellin A1; LC-ESI-QQ; MS2; CE:20.0 eV; [M-H]-
Name: Gibberellin A1
Name: Gibberellin 1
Formula: C19H24O6
Exact mass: 348.15729
SMILES: OC(=O)C(C321)C([H])(C(C)54)C(CCC(O)5)(OC(=O)4)C([H])(CCC(O)(C(=C)C3)C2)1
InChI: InChI=1S/C19H24O6/c1-9-7-17-8-18(9,24)5-3-10(17)19-6-4-11(20)16(2,15(23)25-19)13(19)12(17)14(21)22/h10-13,20,24H,1,3-8H2,2H3,(H,21,22)/t10-,11+,12-,13-,16-,17+,18+,19-/m1/s1
Instrument: UPLC Waters, Quattro Ultima Pt Micromass
Instrument type: LC-ESI-QQ
Ms type: MS2
Ion mode: NEGATIVE
Collision energy: 20.0 eV
Ionization: ESI
Column name: ACQUITY UPLC BEH C18 2.1 by 50 mm (Waters, Milford, MA, USA)
Retention time: 4.71 min
Full scan fragment ion peak: 348
Precursor m/z: 347
Precursor type: [M-H]-
m/z	relative intensity
73.072	18
144.956	87
172.929	43
184.647	10
185.601	15
198.752	48
201.395	10
202.836	25
215.165	18
228.789	103
229.619	51
238.860	12
240.517	10
241.062	180
241.697	25
256.951	27
258.435	20
259.097	238
259.661	14
267.080	12
272.447	27
273.033	308
284.514	15
285.131	192
300.664	32
301.532	10
303.036	163
303.627	17
328.466	52
329.125	150
346.327	61
347.052	999
347.749	49
