Mass spectrum: Sakuranetin; LC-ESI-QTOF; MS
Name: 4',5-dihydroxy-7-methoxyflavone
Name: Naringenin 7-methyl ether
Name: (2S)-5-hydroxy-2-(4-hydroxyphenyl)-7-methoxy-chroman-4-one
Name: Sakuranetin
Formula: C16H14O5
Exact mass: 286.08412
SMILES: COc(c3)cc(O1)c(c(O)3)C(=O)CC1c(c2)ccc(O)c2
InChI: InChI=1S/C16H14O5/c1-20-11-6-12(18)16-13(19)8-14(21-15(16)7-11)9-2-4-10(17)5-3-9/h2-7,14,17-18H,8H2,1H3/t14-/m0/s1
Instrument: UPLC Q-Tof Premier, Waters
Instrument type: LC-ESI-QTOF
Ms type: MS
Ion mode: POSITIVE
Collision energy: 5.0 V
Ionization: ESI
Column name: ACQUITY UPLC BEH C18 2.1 by 100 mm (Waters, Milford, MA,USA)
Retention time: 22.73 min
Full scan fragment ion peak: 287
Ion type: [M+H]+
m/z	relative intensity
287.0736	999
288.0949	410
289.0634	65
289.9538	16
366.2719	10
626.0919	284
627.1064	74
628.0933	18
638.1044	19
639.1104	10
