Mass spectrum: Isopentenyladenine; LC-ESI-QQ; MS2; CE:10.0 eV; [M+H]+
Name: Isopentenyladenine
Name: 6-(gamma,gamma-Dimethylallylamino)purine
Name: N6-(3-Methylbut-2-enyl)adenine
Name: N6-(delta2-Isopentenyl)-adenine
Name: N6-Dimethylallyladenine
Formula: C10H15N5
Exact mass: 205.13275
SMILES: CC(C)=CCNC(=N2)C(N=1)C(N=C2)NC1
InChI: InChI=1S/C10H15N5/c1-7(2)3-4-11-9-8-10(13-5-12-8)15-6-14-9/h3,5-6,8,10H,4H2,1-2H3,(H,12,13)(H,11,14,15)
Instrument: UPLC Waters, Quattro Ultima Pt Micromass
Instrument type: LC-ESI-QQ
Ms type: MS2
Ion mode: POSITIVE
Collision energy: 10.0 eV
Ionization: ESI
Column name: ACQUITY UPLC BEH C18 2.1 by 50 mm (Waters, Milford, MA, USA)
Retention time: 11.72 min
Full scan fragment ion peak: 203
Ion type: [M+H]+
Precursor m/z: 206
Precursor type: [M+H]+
m/z	relative intensity
68.801	67
98.736	12
135.847	999
147.840	398
203.948	849
