Mass spectrum: Gibberellin A19; LC-ESI-QQ; MS2; CE:10.0 eV; [M-H]-
Name: Gibberellin A19
Name: Gibberellin 19
Formula: C20H26O6
Exact mass: 362.17294
SMILES: OC(=O)C(C)(C4)C([H])(C(C(O)=O)1)C(C=O)(CC4)C([H])(C3)C(C2)(CC(O)(C3)C(=C)2)1
InChI: InChI=1S/C20H26O6/c1-11-8-19-9-20(11,26)7-4-12(19)18(10-21)6-3-5-17(2,16(24)25)14(18)13(19)15(22)23/h10,12-14,26H,1,3-9H2,2H3,(H,22,23)(H,24,25)/t12-,13+,14+,17+,18+,19-,20-/m0/s1
Instrument: UPLC Waters, Quattro Ultima Pt Micromass
Instrument type: LC-ESI-QQ
Ms type: MS2
Ion mode: NEGATIVE
Collision energy: 10.0 eV
Ionization: ESI
Column name: ACQUITY UPLC BEH C18 2.1 by 50 mm (Waters, Milford, MA, USA)
Retention time: 7.2 min
Full scan fragment ion peak: 362
Precursor m/z: 361
Precursor type: [M-H]-
m/z	relative intensity
360.294	18
361.054	999
361.622	43
