Mass spectrum: Genistein; LC-ESI-QTOF; MS
Name: 4' 5 7-trihydroxyisoflavone
Name: 5,7-dihydroxy-3-(4-hydroxyphenyl)chromen-4-one
Name: Genistein
Name: 5,7,4'-Trihydroxyisoflavone
Formula: C15H10O5
Exact mass: 270.05282
SMILES: Oc(c3)ccc(c3)C(=C1)C(=O)c(c(O)2)c(cc(O)c2)O1
InChI: InChI=1S/C15H10O5/c16-9-3-1-8(2-4-9)11-7-20-13-6-10(17)5-12(18)14(13)15(11)19/h1-7,16-18H
Instrument: UPLC Q-Tof Premier, Waters
Instrument type: LC-ESI-QTOF
Ms type: MS
Ion mode: POSITIVE
Collision energy: 5.0 V
Ionization: ESI
Column name: ACQUITY UPLC BEH C18 2.1 by 100 mm (Waters, Milford, MA,USA)
Retention time: 21.66 min
Full scan fragment ion peak: 271
Ion type: [M+H]+
m/z	relative intensity
271.0595	999
272.0756	173
273.0298	35
273.9001	11
594.0483	18
864.1172	12
