Mass spectrum: Gibberellin A4; LC-ESI-QQ; MS2; CE:30.0 eV; [M-H]-
Name: Gibberellin A4
Formula: C19H24O5
Exact mass: 332.16237
SMILES: C=C([C@H]45)C[C@@](C5)([C@@H](C(O)=O)1)[C@@]([H])(CC4)[C@@](C3)(O2)[C@]([H])([C@@](C)([C@@H](O)C3)C(=O)2)1
InChI: InChI=1S/C19H24O5/c1-9-7-18-8-10(9)3-4-11(18)19-6-5-12(20)17(2,16(23)24-19)14(19)13(18)15(21)22/h10-14,20H,1,3-8H2,2H3,(H,21,22)/t10-,11-,12+,13-,14-,17-,18+,19-/m1/s1
Instrument: UPLC Waters, Quattro Ultima Pt Micromass
Instrument type: LC-ESI-QQ
Ms type: MS2
Ion mode: NEGATIVE
Collision energy: 30.0 eV
Ionization: ESI
Column name: ACQUITY UPLC BEH C18 2.1 by 50 mm (Waters, Milford, MA, USA)
Retention time: 9.75 min
Full scan fragment ion peak: 332
Precursor m/z: 331
Precursor type: [M-H]-
m/z	relative intensity
50.627	11
57.081	48
58.716	14
59.794	45
60.765	63
68.874	28
70.120	58
70.968	24
73.227	57
78.010	20
78.653	82
79.367	52
85.742	11
86.956	16
88.088	58
88.851	17
94.151	12
97.854	46
98.742	42
99.661	17
102.891	11
107.090	26
107.849	27
109.041	20
109.941	11
116.712	50
117.581	57
118.766	28
126.429	76
127.278	55
136.063	68
136.979	44
137.779	14
145.972	53
146.670	30
150.532	11
153.588	13
154.749	33
155.624	43
156.535	173
165.140	22
166.042	27
173.890	25
174.751	72
175.460	18
178.399	15
179.870	13
183.029	16
184.004	44
185.909	10
191.606	16
193.451	30
194.221	24
195.214	433
196.044	11
197.097	18
200.954	10
202.020	21
202.801	10
203.809	25
210.725	12
213.092	999
213.937	17
214.949	41
215.877	12
222.703	34
223.470	16
225.237	38
230.016	15
231.126	12
232.077	37
232.864	10
234.111	13
234.655	41
235.522	13
238.930	460
239.805	23
241.870	10
242.958	20
243.892	31
244.700	25
251.044	345
251.947	20
252.911	25
253.800	21
257.121	324
257.918	10
258.923	19
262.896	24
267.230	13
269.358	116
270.433	23
271.585	33
272.411	39
274.452	13
279.986	13
282.407	25
286.928	69
287.730	20
290.441	30
291.434	44
292.155	14
292.871	10
296.215	12
300.241	26
305.094	15
306.342	11
309.860	34
310.899	28
311.690	20
312.487	156
313.330	126
314.566	12
319.535	39
320.204	16
324.996	15
327.116	11
328.533	28
329.138	10
329.905	21
330.759	230
334.775	16
338.115	11
339.028	39
344.186	23
347.639	22
348.517	54
349.868	15
352.361	15
353.814	16
357.260	18
357.983	32
359.210	16
361.213	13
363.244	21
366.838	10
367.502	43
368.383	42
369.841	11
370.961	25
371.718	15
376.455	10
378.287	16
379.631	16
383.639	15
386.384	29
387.473	57
388.181	17
391.826	12
395.834	35
396.920	14
