Mass spectrum: Gibberellin A24; LC-ESI-QQ; MS2; CE:10.0 eV; [M-H]-
Name: Gibberellin A24
Formula: C20H26O5
Exact mass: 346.17802
SMILES: OC(=O)[C@](C)(C4)[C@@]([H])([C@H](C(O)=O)1)[C@@](C=O)(CC4)[C@]([H])(C3)[C@](C2)(C[C@@H](C3)C(=C)2)1
InChI: InChI=1S/C20H26O5/c1-11-8-20-9-12(11)4-5-13(20)19(10-21)7-3-6-18(2,17(24)25)15(19)14(20)16(22)23/h10,12-15H,1,3-9H2,2H3,(H,22,23)(H,24,25)/t12-,13+,14-,15-,18-,19-,20+/m1/s1
Instrument: UPLC Waters, Quattro Ultima Pt Micromass
Instrument type: LC-ESI-QQ
Ms type: MS2
Ion mode: NEGATIVE
Collision energy: 10.0 eV
Ionization: ESI
Column name: ACQUITY UPLC BEH C18 2.1 by 50 mm (Waters, Milford, MA, USA)
Retention time: 10.09 min
Full scan fragment ion peak: 346
Precursor m/z: 345
Precursor type: [M-H]-
m/z	relative intensity
344.391	14
345.016	999
345.649	10
