Mass spectrum: Syringetin-3-O-galactoside; LC-ESI-QTOF; MS
Name: Syringetin-3-O-galactoside
Formula: C23H24O13
Exact mass: 508.12169
SMILES: OCC(O1)C(O)C(O)C(O)C1OC(C(=O)3)=C(Oc(c4)c(c(O)cc(O)4)3)c(c2)cc(OC)c(O)c(OC)2
InChI: InChI=1S/C23H24O13/c1-32-12-3-8(4-13(33-2)16(12)27)21-22(18(29)15-10(26)5-9(25)6-11(15)34-21)36-23-20(31)19(30)17(28)14(7-24)35-23/h3-6,14,17,19-20,23-28,30-31H,7H2,1-2H3/t14-,17+,19+,20-,23+/m1/s1
Instrument: UPLC Q-Tof Premier, Waters
Instrument type: LC-ESI-QTOF
Ms type: MS
Ion mode: POSITIVE
Collision energy: 5.0 V
Ionization: ESI
Column name: ACQUITY UPLC BEH C18 2.1 by 100 mm (Waters, Milford, MA,USA)
Retention time: 12.17 min
Full scan fragment ion peak: 509/347
Ion type: [M+H]+
m/z	relative intensity
331.0648	46
345.0927	10
346.1132	28
347.0822	999
348.1000	135
349.0759	50
349.9966	10
509.1374	516
510.1574	111
511.1923	27
