Mass spectrum: Gibberellin A19; LC-ESI-QQ; MS2; CE:30.0 eV; [M-H]-
Name: Gibberellin A19
Name: Gibberellin 19
Formula: C20H26O6
Exact mass: 362.17294
SMILES: OC(=O)C(C)(C4)C([H])(C(C(O)=O)1)C(C=O)(CC4)C([H])(C3)C(C2)(CC(O)(C3)C(=C)2)1
InChI: InChI=1S/C20H26O6/c1-11-8-19-9-20(11,26)7-4-12(19)18(10-21)6-3-5-17(2,16(24)25)14(18)13(19)15(22)23/h10,12-14,26H,1,3-9H2,2H3,(H,22,23)(H,24,25)/t12-,13+,14+,17+,18+,19-,20-/m0/s1
Instrument: UPLC Waters, Quattro Ultima Pt Micromass
Instrument type: LC-ESI-QQ
Ms type: MS2
Ion mode: NEGATIVE
Collision energy: 30.0 eV
Ionization: ESI
Column name: ACQUITY UPLC BEH C18 2.1 by 50 mm (Waters, Milford, MA, USA)
Retention time: 7.2 min
Full scan fragment ion peak: 362
Precursor m/z: 361
Precursor type: [M-H]-
m/z	relative intensity
56.818	12
80.171	20
81.468	12
82.757	114
89.739	11
94.747	26
96.654	26
99.202	16
106.819	26
109.128	39
110.607	28
116.635	17
118.953	43
122.635	10
128.653	13
130.691	14
132.711	134
133.252	54
135.731	55
138.066	17
138.969	10
145.437	64
146.247	75
147.093	11
148.446	59
149.167	15
150.408	18
158.462	25
159.876	23
161.105	68
162.729	89
165.068	10
171.065	56
173.268	19
174.839	156
176.988	172
178.487	13
184.871	90
187.378	27
189.240	19
190.572	16
194.413	11
195.668	12
196.651	11
198.275	58
200.826	88
201.586	16
202.494	18
203.105	566
210.945	18
212.559	23
213.414	69
215.279	13
224.266	10
226.345	10
229.129	266
229.645	26
231.237	61
234.590	23
237.730	15
241.441	42
243.790	13
244.722	10
250.694	17
253.257	61
254.831	94
255.717	46
256.910	21
258.555	11
263.173	12
271.457	18
272.491	54
273.012	543
273.726	110
274.735	10
282.146	13
282.889	16
288.487	81
291.821	14
292.765	16
296.765	28
298.621	47
299.446	83
301.955	10
302.861	12
311.154	13
313.166	11
317.010	343
317.547	60
321.575	15
322.507	12
330.532	19
338.996	11
340.194	12
342.567	64
343.311	89
350.258	15
359.446	13
360.828	999
361.703	106
368.547	11
369.420	18
370.367	10
378.283	10
379.110	13
387.865	10
388.654	10
389.522	10
397.940	13
