Mass spectrum: Luteolin-3',7-di-O-glucoside; LC-ESI-QTOF; MS
Name: 5-hydroxy-2-[4-hydroxy-3-[(2S,3R,4S,5R,6R)-3,4,5-trihydroxy-6-(hydroxymethyl)oxan-2-yl]oxy-phenyl]-7-[(2S,3R,4S,5R,6R)-3,4,5-trihydroxy-6-(hydroxymethyl)oxan-2-yl]oxy-chromen-4-one
Name: luteolin-3',7-di-O-glucoside
Name: Luteolin 3',7-O-diglucoside
Name: Luteolin-7,3'-di-O-glucoside
Name: Lutl-3p-Glc-7-Glc
Formula: C27H30O16
Exact mass: 610.15338
SMILES: C1=CC(=C(C=C1C2=CC(=O)C3=C(C=C(C=C3O2)O[C@H]4[C@@H]([C@H]([C@@H]([C@H](O4)CO)O)O)O)O)O[C@H]5[C@@H]([C@H]([C@@H]([C@H](O5)CO)O)O)O)O
InChI: InChI=1S/C27H30O16/c28-7-17-20(33)22(35)24(37)26(42-17)39-10-4-12(31)19-13(32)6-14(40-16(19)5-10)9-1-2-11(30)15(3-9)41-27-25(38)23(36)21(34)18(8-29)43-27/h1-6,17-18,20-31,33-38H,7-8H2/t17-,18-,20-,21-,22+,23+,24-,25-,26-,27-/m1/s1
Instrument: UPLC Q-Tof Premier, Waters
Instrument type: LC-ESI-QTOF
Ms type: MS
Ion mode: POSITIVE
Collision energy: 5.0 V
Ionization: ESI
Column name: ACQUITY UPLC BEH C18 2.1 by 100 mm (Waters, Milford, MA,USA)
Retention time: 8.04 min
Full scan fragment ion peak: 611
Ion type: [M+H]+
m/z	relative intensity
610.1203	17
611.1841	999
612.2023	222
613.1368	72
614.1435	48
615.0616	21
616.0273	15
637.5760	12
664.1467	14
1221.3855	16
1222.3396	12
1223.6140	10
