Mass spectrum: Cyanidin; LC-ESI-QTOF; MS
Name: 3 3' 4' 5 7-pentahydroxy flavylium  chloride
Name: Cyanidin chloride
Name: Cyanidol
Name: Cyanidol chloride
Name: Chlorure de 3,3',4',5,7-pentahydroxyflavylium
Name: Cyanidin
Name: 2-(3,4-dihydroxyphenyl)chromene-3,5,7-triol
Name: IdB 1027
Name: 2-(3,4-Dihydroxyphenyl)-3,5,7-trihydroxy-1-benzopyrylium chloride
Name: 3,3',4',5,7-Pentahydroxyflavyliumchlorid
Name: 3,3',4',5,7-Pentahydroxyflavylium chloride
Name: Cyanidine
Name: 3,3',4',5,7-Pentahydroxy-2-phenylbenzopyrylium chloride
Formula: [C15H11O6]+
Exact mass: 287.05556
SMILES: Oc(c3)c(O)cc(c3)c([o+1]1)c(O)cc(c(O)2)c(cc(O)c2)1
InChI: InChI=1S/C15H10O6/c16-8-4-11(18)9-6-13(20)15(21-14(9)5-8)7-1-2-10(17)12(19)3-7/h1-6H,(H4-,16,17,18,19,20)/p+1
Instrument: UPLC Q-Tof Premier, Waters
Instrument type: LC-ESI-QTOF
Ms type: MS
Ion mode: POSITIVE
Collision energy: 5.0 V
Ionization: ESI
Column name: ACQUITY UPLC BEH C18 2.1 by 100 mm (Waters, Milford, MA,USA)
Retention time: 9.25 min
Full scan fragment ion peak: 287
Ion type: [M]+
m/z	relative intensity
287.0549	999
288.0612	146
289.0526	27
