Mass spectrum: Peonidin-3-O-beta-D-glucoside; LC-ESI-QTOF; MS
Name: Peonidine-3-O-glucoside chloride
Name: peonidine-3-O-glucoside chloride
Name: Peonidin-3-O-beta-D-glucoside
Formula: [C22H23O11]+
Exact mass: 463.12404
SMILES: COc(c(O)4)cc(cc4)c([o+1]1)c(OC(O3)C(O)C(O)C(O)C(CO)3)cc(c(O)2)c(cc(O)c2)1
InChI: InChI=1S/C22H22O11/c1-30-15-4-9(2-3-12(15)25)21-16(7-11-13(26)5-10(24)6-14(11)31-21)32-22-20(29)19(28)18(27)17(8-23)33-22/h2-7,17-20,22-23,27-29H,8H2,1H3,(H2-,24,25,26)/p+1/t17-,18-,19+,20-,22-/m1/s1
Instrument: UPLC Q-Tof Premier, Waters
Instrument type: LC-ESI-QTOF
Ms type: MS
Ion mode: POSITIVE
Collision energy: 5.0 V
Ionization: ESI
Column name: ACQUITY UPLC BEH C18 2.1 by 100 mm (Waters, Milford, MA,USA)
Retention time: 7.29 min
Full scan fragment ion peak: 463
Ion type: [M]+
m/z	relative intensity
463.1350	999
464.1577	170
465.1444	45
466.1067	11
925.2796	17
926.2840	11
