Mass spectrum: Gibberellin A9; LC-ESI-QQ; MS2; CE:10.0 eV; [M-H]-
Name: Gibberellin A9
Formula: C19H24O4
Exact mass: 316.16746
SMILES: C=C([C@H]45)C[C@@](C5)([C@@H](C(O)=O)1)[C@@]([H])(CC4)[C@@](C3)(O2)[C@]([H])([C@@](C)(CC3)C(=O)2)1
InChI: InChI=1S/C19H24O4/c1-10-8-18-9-11(10)4-5-12(18)19-7-3-6-17(2,16(22)23-19)14(19)13(18)15(20)21/h11-14H,1,3-9H2,2H3,(H,20,21)/t11-,12-,13-,14-,17-,18+,19-/m1/s1
Instrument: UPLC Waters, Quattro Ultima Pt Micromass
Instrument type: LC-ESI-QQ
Ms type: MS2
Ion mode: NEGATIVE
Collision energy: 10.0 eV
Ionization: ESI
Column name: ACQUITY UPLC BEH C18 2.1 by 50 mm (Waters, Milford, MA, USA)
Retention time: 11.43 min
Full scan fragment ion peak: 316
Precursor m/z: 315
Precursor type: [M-H]-
m/z	relative intensity
270.798	12
271.546	24
314.456	87
315.172	999
