Mass spectrum: trans-Zeatin riboside-O-glucoside; LC-ESI-QQ; MS2; CE:20.0 eV; [M+H]+
Name: trans-Zeatin riboside-O-glucoside
Formula: C21H31N5O10
Exact mass: 513.20709
SMILES: OCC(O1)C(O)C(O)C(O)C(OCC(C)=CCNc(n4)c(n3)c(nc4)n(c3)C(O2)C(O)C(O)C(CO)2)1
InChI: InChI=1S/C21H31N5O10/c1-9(6-34-21-17(33)15(31)13(29)11(5-28)36-21)2-3-22-18-12-19(24-7-23-18)26(8-25-12)20-16(32)14(30)10(4-27)35-20/h2,7-8,10-11,13-17,20-21,27-33H,3-6H2,1H3,(H,22,23,24)/b9-2+/t10-,11-,13-,14-,15+,16-,17-,20-,21-/m1/s1
Instrument: UPLC Waters, Quattro Ultima Pt Micromass
Instrument type: LC-ESI-QQ
Ms type: MS2
Ion mode: POSITIVE
Collision energy: 20.0 eV
Ionization: ESI
Column name: ACQUITY UPLC BEH C18 2.1 by 50 mm (Waters, Milford, MA, USA)
Retention time: 9.53 min
Full scan fragment ion peak: 514
Precursor m/z: 514
Precursor type: [M+H]+
m/z	relative intensity
85.309	14
136.394	159
145.365	21
148.277	24
202.381	273
220.436	575
268.581	19
334.670	15
351.975	37
352.602	128
382.549	999
383.109	21
513.943	49
514.690	216
