Mass spectrum: Luteolin; LC-ESI-QTOF; MS
Name: 3' 4' 5 7-tetrahydroxyflavone
Name: 5,7,3',4'-Tetrahydroxyflavone
Name: 3',4',5,7-Tetrahydroxyflavone
Name: 2-(3,4-dihydroxyphenyl)-5,7-dihydroxy-chromen-4-one
Name: Luteolin
Formula: C15H10O6
Exact mass: 286.04774
SMILES: Oc(c3)c(O)cc(c3)C(=C1)Oc(c2)c(c(O)cc(O)2)C(=O)1
InChI: InChI=1S/C15H10O6/c16-8-4-11(19)15-12(20)6-13(21-14(15)5-8)7-1-2-9(17)10(18)3-7/h1-6,16-19H
Instrument: UPLC Q-Tof Premier, Waters
Instrument type: LC-ESI-QTOF
Ms type: MS
Ion mode: POSITIVE
Collision energy: 5.0 V
Ionization: ESI
Column name: ACQUITY UPLC BEH C18 2.1 by 100 mm (Waters, Milford, MA,USA)
Retention time: 19.85 min
Full scan fragment ion peak: 287
Ion type: [M+H]+
m/z	relative intensity
257.0596	24
285.0555	32
286.1532	13
287.0621	999
288.0658	142
289.0284	40
626.0334	55
627.0405	14
629.1605	11
