Mass spectrum: Neoeriocitrin; LC-ESI-QTOF; MS
Name: Eriodictyol-7-O-neohesperidoside
Name: Eriodictyol 7-O-neohesperidoside
Name: (2S)-7-[(2S,3R,4S,5R,6R)-4,5-dihydroxy-6-(hydroxymethyl)-3-[(2S,3R,4R,5S,6S)-3,4,5-trihydroxy-6-methyl-oxan-2-yl]oxy-oxan-2-yl]oxy-2-(3,4-dihydroxyphenyl)-5-hydroxy-chroman-4-one
Name: eriodictyol-7-O-neohesperidoside
Name: Neoeriocitrin
Formula: C27H32O15
Exact mass: 596.17412
SMILES: O([C@H]5C)[C@H]([C@@H]([C@@H]([C@H]5O)O)O)O[C@H]([C@H]4O)[C@@H](O[C@@H]([C@H]4O)CO)Oc(c3)cc(O1)c(c3O)C(C[C@@H](c(c2)cc(O)c(O)c2)1)=O
InChI: InChI=1S/C27H32O15/c1-9-20(33)22(35)24(37)26(38-9)42-25-23(36)21(34)18(8-28)41-27(25)39-11-5-14(31)19-15(32)7-16(40-17(19)6-11)10-2-3-12(29)13(30)4-10/h2-6,9,16,18,20-31,33-37H,7-8H2,1H3/t9-,16-,18+,20-,21+,22+,23-,24+,25+,26-,27+/m0/s1
Instrument: UPLC Q-Tof Premier, Waters
Instrument type: LC-ESI-QTOF
Ms type: MS
Ion mode: POSITIVE
Collision energy: 5.0 V
Ionization: ESI
Column name: ACQUITY UPLC BEH C18 2.1 by 100 mm (Waters, Milford, MA,USA)
Retention time: 9.66 min
Full scan fragment ion peak: 597/435/289
Ion type: [M+H]+
m/z	relative intensity
287.0760	58
288.1226	15
289.0871	999
290.1010	165
291.0689	36
292.0312	16
293.0130	15
309.1431	27
331.1053	19
399.1359	11
417.1403	35
418.1282	12
433.1331	35
434.2100	12
435.1532	267
436.1682	70
437.0751	17
451.1432	93
452.1612	13
579.2031	19
581.2573	13
597.2049	581
598.2289	162
599.2092	62
600.2587	35
601.1384	12
743.2764	80
744.3087	32
745.2819	14
1193.3861	18
1194.4908	15
