Mass spectrum: Gibberellin A4; LC-ESI-QQ; MS2; CE:20.0 eV; [M-H]-
Name: Gibberellin A4
Formula: C19H24O5
Exact mass: 332.16237
SMILES: C=C([C@H]45)C[C@@](C5)([C@@H](C(O)=O)1)[C@@]([H])(CC4)[C@@](C3)(O2)[C@]([H])([C@@](C)([C@@H](O)C3)C(=O)2)1
InChI: InChI=1S/C19H24O5/c1-9-7-18-8-10(9)3-4-11(18)19-6-5-12(20)17(2,16(23)24-19)14(19)13(18)15(21)22/h10-14,20H,1,3-8H2,2H3,(H,21,22)/t10-,11-,12+,13-,14-,17-,18+,19-/m1/s1
Instrument: UPLC Waters, Quattro Ultima Pt Micromass
Instrument type: LC-ESI-QQ
Ms type: MS2
Ion mode: NEGATIVE
Collision energy: 20.0 eV
Ionization: ESI
Column name: ACQUITY UPLC BEH C18 2.1 by 50 mm (Waters, Milford, MA, USA)
Retention time: 9.75 min
Full scan fragment ion peak: 332
Precursor m/z: 331
Precursor type: [M-H]-
m/z	relative intensity
57.761	10
58.912	12
60.958	30
72.374	22
96.746	11
97.585	14
116.620	12
136.512	16
137.371	10
144.990	14
154.480	15
155.279	12
169.044	47
174.189	14
175.062	16
182.468	46
187.404	17
193.021	10
193.702	10
202.242	14
203.183	10
212.161	11
213.152	276
214.491	11
224.553	109
225.342	375
232.748	11
240.782	11
242.743	349
243.528	124
250.438	11
251.060	57
251.976	12
254.088	19
256.573	97
257.405	190
260.998	13
266.699	52
268.917	517
269.627	55
271.431	13
285.089	15
286.990	202
287.668	53
289.359	12
291.035	10
299.193	12
309.476	16
310.403	11
312.483	32
313.079	244
327.699	10
328.898	13
330.515	362
331.123	999
331.642	15
347.417	17
348.654	10
357.198	11
365.980	11
375.778	11
377.074	12
385.664	10
387.155	13
395.669	13
