Mass spectrum: N-(3-Indolylacetyl)-L-isoleucine; LC-ESI-QQ; MS2; CE:10.0 eV; [M+H]+
Name: N-(3-Indolylacetyl)-L-isoleucine
Name: Indole-3-acetyl-L-isoleucine
Name: IAA-Ile
Name: IAA-L-Ile
Name: L-isoleucine, N-(1H-indol-3-ylacetyl)-
Name: L-Isoleucine, N-(1H-indol-3-ylacetyl)- (9CI)
Formula: C16H20N2O3
Exact mass: 288.14739
SMILES: CC[C@H](C)[C@@H](C(=O)O)NC(=O)CC1=CNC2=CC=CC=C21
InChI: InChI=1S/C16H20N2O3/c1-3-10(2)15(16(20)21)18-14(19)8-11-9-17-13-7-5-4-6-12(11)13/h4-7,9-10,15,17H,3,8H2,1-2H3,(H,18,19)(H,20,21)
Instrument: UPLC Waters, Quattro Ultima Pt Micromass
Instrument type: LC-ESI-QQ
Ms type: MS2
Ion mode: POSITIVE
Collision energy: 10.0 eV
Ionization: ESI
Column name: ACQUITY UPLC BEH C18 2.1 by 50 mm (Waters, Milford, MA, USA)
Retention time: 12.2 min
Full scan fragment ion peak: 288
Precursor m/z: 289
Precursor type: [M+H]+
m/z	relative intensity
85.797	227
129.313	21
129.851	329
131.435	55
132.024	246
206.852	35
227.913	10
242.495	59
243.030	999
243.694	13
248.118	22
270.962	65
288.939	298
289.560	97
