Mass spectrum: Prunin; LC-ESI-QTOF; MS
Name: Naringenin-7-O-glucoside
Name: Naringenin 7-O-beta-D-glucoside
Name: (2S)-5-hydroxy-2-(4-hydroxyphenyl)-7-[(2S,3R,4S,5R,6R)-3,4,5-trihydroxy-6-(hydroxymethyl)oxan-2-yl]oxy-chroman-4-one
Name: Prunin
Name: naringenin-7-O-glucoside
Formula: C21H22O10
Exact mass: 434.12130
SMILES: OCC(O1)C(O)C(O)C(O)C1Oc(c4)cc(O2)c(c(O)4)C(=O)CC(c(c3)ccc(O)c3)2
InChI: InChI=1S/C21H22O10/c22-8-16-18(26)19(27)20(28)21(31-16)29-11-5-12(24)17-13(25)7-14(30-15(17)6-11)9-1-3-10(23)4-2-9/h1-6,14,16,18-24,26-28H,7-8H2/t14-,16+,18+,19-,20+,21+/m0/s1
Instrument: UPLC Q-Tof Premier, Waters
Instrument type: LC-ESI-QTOF
Ms type: MS
Ion mode: POSITIVE
Collision energy: 5.0 V
Ionization: ESI
Column name: ACQUITY UPLC BEH C18 2.1 by 100 mm (Waters, Milford, MA,USA)
Retention time: 12.28 min
Full scan fragment ion peak: 435/273
Ion type: [M+H]+
m/z	relative intensity
273.0869	999
274.0960	138
275.0826	33
276.1447	11
435.1413	916
436.1612	191
437.1552	41
438.0933	14
439.2302	12
869.2791	94
870.2721	21
871.3078	23
