Mass spectrum: Cyanidin-3,5-di-O-glucoside; LC-ESI-QTOF; MS
Name: Cyanidin-3, 5-di-O-glucoside
Name: (2S,3R,4S,5R,6R)-2-[2-(3,4-dihydroxyphenyl)-7-hydroxy-3-[(2S,3R,4S,5R,6R)-3,4,5-trihydroxy-6-(hydroxymethyl)oxan-2-yl]oxy-chromen-5-yl]oxy-6-(hydroxymethyl)oxane-3,4,5-triol
Name: Cyanidin 3,5-di-O-glucoside
Name: Cyanidin 3,5-O-diglucoside
Name: Cyanin
Name: cyanidin-3, 5-di-O-glucoside
Name: Cyanidin-3,5-di-O-glucoside
Formula: [C27H31O16]+
Exact mass: 611.16121
SMILES: c(c(c([o+1]2)c(OC(O5)C(C(C(C5CO)O)O)O)cc(c3OC(O4)C(C(C(C4CO)O)O)O)c(cc(c3)O)2)1)c(O)c(O)cc1
InChI: InChI=1S/C27H30O16/c28-7-17-19(33)21(35)23(37)26(42-17)40-15-5-10(30)4-14-11(15)6-16(25(39-14)9-1-2-12(31)13(32)3-9)41-27-24(38)22(36)20(34)18(8-29)43-27/h1-6,17-24,26-29,33-38H,7-8H2,(H2-,30,31,32)/p+1/t17-,18-,19-,20-,21+,22+,23-,24-,26-,27-/m1/s1
Instrument: UPLC Q-Tof Premier, Waters
Instrument type: LC-ESI-QTOF
Ms type: MS
Ion mode: POSITIVE
Collision energy: 5.0 V
Ionization: ESI
Column name: ACQUITY UPLC BEH C18 2.1 by 100 mm (Waters, Milford, MA,USA)
Retention time: 5.25 min
Full scan fragment ion peak: 611
Ion type: [M]+
m/z	relative intensity
611.1779	999
612.1988	210
613.1926	49
614.2315	14
615.2401	14
616.8010	10
629.1918	11
