Mass spectrum: Gibberellin A29; LC-ESI-QQ; MS2; CE:20.0 eV; [M-H]-
Name: Gibberellin A29
Formula: C19H24O6
Exact mass: 348.15729
SMILES: OC(C4)CC(O5)(C([H])31)C([H])(C(C)4C(=O)5)C(C(O)=O)C(C2)(CC(O)(CC3)C(=C)2)1
InChI: InChI=1S/C19H24O6/c1-9-5-17-8-18(9,24)4-3-11(17)19-7-10(20)6-16(2,15(23)25-19)13(19)12(17)14(21)22/h10-13,20,24H,1,3-8H2,2H3,(H,21,22)/t10-,11-,12-,13-,16-,17+,18+,19-/m1/s1
Instrument: UPLC Waters, Quattro Ultima Pt Micromass
Instrument type: LC-ESI-QQ
Ms type: MS2
Ion mode: NEGATIVE
Collision energy: 20.0 eV
Ionization: ESI
Column name: ACQUITY UPLC BEH C18 2.1 by 50 mm (Waters, Milford, MA, USA)
Retention time: 3.28 min
Full scan fragment ion peak: 348
Precursor m/z: 347
Precursor type: [M-H]-
m/z	relative intensity
56.798	18
70.800	26
71.746	11
80.048	11
82.737	114
89.542	17
92.692	23
96.373	21
112.706	11
118.943	15
128.244	11
129.217	12
144.655	88
146.699	19
160.425	43
162.721	184
163.260	64
172.719	116
175.473	19
186.983	10
196.745	92
197.317	34
205.270	11
214.308	17
215.262	24
225.571	44
238.732	24
239.293	27
240.321	41
240.972	137
241.725	16
256.772	53
257.436	160
258.763	151
259.378	324
266.606	24
285.064	84
302.555	21
303.089	263
303.625	17
321.909	10
347.080	999
347.717	90
361.147	10
369.761	11
397.616	10
