Mass spectrum: Isorhamnetin; LC-ESI-QTOF; MS
Name: 3 4' 5 7-tetrahydroxy-3'-methoxy flavone
Name: 3-Methylquercetin
Name: 3,5,7-trihydroxy-2-(4-hydroxy-3-methoxy-phenyl)chromen-4-one
Name: Isorhamnetin
Name: Quercetin 3'-methyl ether
Formula: C16H12O7
Exact mass: 316.05830
SMILES: COc(c(O)3)cc(cc3)C(O1)=C(O)C(=O)c(c(O)2)c(cc(O)c2)1
InChI: InChI=1S/C16H12O7/c1-22-11-4-7(2-3-9(11)18)16-15(21)14(20)13-10(19)5-8(17)6-12(13)23-16/h2-6,17-19,21H,1H3
Instrument: UPLC Q-Tof Premier, Waters
Instrument type: LC-ESI-QTOF
Ms type: MS
Ion mode: POSITIVE
Collision energy: 5.0 V
Ionization: ESI
Column name: ACQUITY UPLC BEH C18 2.1 by 100 mm (Waters, Milford, MA,USA)
Retention time: 21.96 min
Full scan fragment ion peak: 317
Ion type: [M+H]+
m/z	relative intensity
287.0597	23
288.0351	14
315.0577	33
316.0578	22
317.0817	999
318.0782	222
319.0872	52
320.1806	16
483.9918	13
543.0581	15
686.0703	62
687.0744	19
687.9828	11
1002.1097	17
1004.1669	10
