Mass spectrum: trans-Zeatin-O-glucoside; LC-ESI-QQ; MS2; CE:20.0 eV; [M+H]+
Name: trans-Zeatin-O-glucoside
Formula: C16H23N5O6
Exact mass: 381.16483
SMILES: C/C(=C\CNC1=NC=NC2=C1NC=N2)/CO[C@H]3[C@@H]([C@H]([C@@H]([C@H](O3)CO)O)O)O
InChI: InChI=1S/C16H23N5O6/c1-8(2-3-17-14-10-15(19-6-18-10)21-7-20-14)5-26-16-13(25)12(24)11(23)9(4-22)27-16/h2,6-7,9,11-13,16,22-25H,3-5H2,1H3,(H2,17,18,19,20,21)/b8-2+/t9-,11-,12+,13-,16-/m1/s1
Instrument: UPLC Waters, Quattro Ultima Pt Micromass
Instrument type: LC-ESI-QQ
Ms type: MS2
Ion mode: POSITIVE
Collision energy: 20.0 eV
Ionization: ESI
Column name: ACQUITY UPLC BEH C18 2.1 by 50 mm (Waters, Milford, MA, USA)
Retention time: 5.94 min
Full scan fragment ion peak: 381
Precursor m/z: 382
Precursor type: [M+H]+
m/z	relative intensity
80.856	28
84.680	175
86.374	16
96.564	23
99.070	10
103.039	10
109.085	14
126.658	80
135.210	67
135.829	814
136.471	22
144.445	24
145.158	62
147.717	154
148.308	46
177.403	12
184.436	29
185.057	258
201.366	129
201.905	999
202.565	160
219.410	78
220.043	971
220.594	33
381.979	46
