Mass spectrum: Indole-3-acetyl-L-tryptophan; LC-ESI-QQ; MS2; CE:10.0 eV; [M+H]+
Name: Indole-3-acetyl-L-tryptophan
Name: IAA-L-Trp
Name: Tryptophan, N-indol-3-ylacetyl- (6CI)
Name: L-tryptophan, N-(1H-indol-3-ylacetyl)-
Name: L-Tryptophan, N-(1H-indol-3-ylacetyl)- (9CI)
Formula: C21H19N3O3
Exact mass: 361.14264
SMILES: C1=CC=C2C(=C1)C(=CN2)CC(C(=O)O)NC(=O)CC3=CNC4=CC=CC=C43
InChI: InChI=1S/C21H19N3O3/c25-20(10-14-12-23-18-8-4-2-6-16(14)18)24-19(21(26)27)9-13-11-22-17-7-3-1-5-15(13)17/h1-8,11-12,19,22-23H,9-10H2,(H,24,25)(H,26,27)
Instrument: UPLC Waters, Quattro Ultima Pt Micromass
Instrument type: LC-ESI-QQ
Ms type: MS2
Ion mode: POSITIVE
Collision energy: 10.0 eV
Ionization: ESI
Column name: ACQUITY UPLC BEH C18 2.1 by 50 mm (Waters, Milford, MA, USA)
Retention time: 12.44 min
Full scan fragment ion peak: ---
Precursor m/z: 362
Precursor type: [M+H]+
m/z	relative intensity
129.218	14
129.861	362
157.815	10
158.508	56
159.137	23
175.036	29
184.345	51
184.942	665
185.494	26
187.071	18
187.803	302
188.460	17
204.423	97
204.995	740
216.897	11
289.110	11
315.387	19
316.149	126
320.637	57
321.380	24
343.402	115
344.346	201
344.926	12
361.349	228
362.027	999
362.643	112
