Mass spectrum: Luteolin-4'-O-glucoside; LC-ESI-QTOF; MS
Name: Luteolin-4'-O-glucoside
Formula: C21H20O11
Exact mass: 448.10056
SMILES: OCC(O1)C(O)C(O)C(O)C1Oc(c4)c(O)cc(c4)C(=C2)Oc(c3)c(c(O)cc(O)3)C(=O)2
InChI: InChI=1S/C21H20O11/c22-7-16-18(27)19(28)20(29)21(32-16)31-13-2-1-8(3-10(13)24)14-6-12(26)17-11(25)4-9(23)5-15(17)30-14/h1-6,16,18-25,27-29H,7H2/t16-,18-,19+,20-,21-/m1/s1
Instrument: UPLC Q-Tof Premier, Waters
Instrument type: LC-ESI-QTOF
Ms type: MS
Ion mode: POSITIVE
Collision energy: 5.0 V
Ionization: ESI
Column name: ACQUITY UPLC BEH C18 2.1 by 100 mm (Waters, Milford, MA,USA)
Retention time: 12.37 min
Full scan fragment ion peak: 449
Ion type: [M+H]+
m/z	relative intensity
449.1161	999
450.1407	155
451.1138	40
452.0768	17
