Mass spectrum: Poncirin; LC-ESI-QTOF; MS
Name: Isosakuranetin-7-O-neohesperidoside
Name: Poncirin
Name: Isosakuranetin 7-O-neohesperidoside
Name: isosakuranetin-7-O-neohesperidoside
Name: (2S)-7-[(2S,3R,4S,5R,6R)-4,5-dihydroxy-6-(hydroxymethyl)-3-[(2S,3R,4R,5S,6S)-3,4,5-trihydroxy-6-methyl-oxan-2-yl]oxy-oxan-2-yl]oxy-5-hydroxy-2-(4-methoxyphenyl)chroman-4-one
Formula: C28H34O14
Exact mass: 594.19486
SMILES: c(O)(c3)c(C(=O)2)c(cc3O[C@H](O5)[C@@H]([C@@H](O)[C@H](O)[C@@H](CO)5)O[C@H](O4)[C@H](O)[C@H](O)[C@@H](O)[C@H](C)4)O[C@@H](C2)c(c1)ccc(OC)c1
InChI: InChI=1S/C28H34O14/c1-11-21(32)23(34)25(36)27(38-11)42-26-24(35)22(33)19(10-29)41-28(26)39-14-7-15(30)20-16(31)9-17(40-18(20)8-14)12-3-5-13(37-2)6-4-12/h3-8,11,17,19,21-30,32-36H,9-10H2,1-2H3/t11-,17-,19+,21-,22+,23+,24-,25+,26+,27-,28+/m0/s1
Instrument: UPLC Q-Tof Premier, Waters
Instrument type: LC-ESI-QTOF
Ms type: MS
Ion mode: POSITIVE
Collision energy: 5.0 V
Ionization: ESI
Column name: ACQUITY UPLC BEH C18 2.1 by 100 mm (Waters, Milford, MA,USA)
Retention time: 21.59 min
Full scan fragment ion peak: 741/595/433/287
Ion type: [M+H]+
m/z	relative intensity
287.0998	999
288.1131	150
289.0717	34
289.9951	10
309.1471	11
329.1210	16
415.1589	19
431.1571	14
433.1668	197
434.1874	48
435.1858	15
449.1653	73
450.1638	16
577.2174	11
595.2188	583
596.2351	124
597.2784	35
598.2782	13
741.2859	97
742.2991	31
743.3295	13
1189.4371	21
1190.4653	11
