Mass spectrum: Gibberellin A53; LC-ESI-QQ; MS2; CE:20.0 eV; [M-H]-
Name: Gibberellin A53
Formula: C20H28O5
Exact mass: 348.19367
SMILES: OC(=O)C(C)(C4)C([H])(C(C(O)=O)1)C(C)(CC4)C([H])(C3)C(C2)(CC(O)(C3)C(=C)2)1
InChI: InChI=1S/C20H28O5/c1-11-9-19-10-20(11,25)8-5-12(19)17(2)6-4-7-18(3,16(23)24)14(17)13(19)15(21)22/h12-14,25H,1,4-10H2,2-3H3,(H,21,22)(H,23,24)/t12-,13+,14-,17-,18+,19-,20-/m0/s1
Instrument: UPLC Waters, Quattro Ultima Pt Micromass
Instrument type: LC-ESI-QQ
Ms type: MS2
Ion mode: NEGATIVE
Collision energy: 20.0 eV
Ionization: ESI
Column name: ACQUITY UPLC BEH C18 2.1 by 50 mm (Waters, Milford, MA, USA)
Retention time: 8.77 min
Full scan fragment ion peak: 348
Precursor m/z: 347
Precursor type: [M-H]-
m/z	relative intensity
303.202	41
328.757	49
329.487	22
346.485	154
347.078	999
347.785	25
