Mass spectrum: Myricitrin; LC-ESI-QTOF; MS
Name: Myricetin-3-O-rhamnoside
Name: myricetin-3-O-rhamnoside
Name: 5,7-dihydroxy-3-[(2S,3R,4R,5S,6S)-3,4,5-trihydroxy-6-methyl-oxan-2-yl]oxy-2-(3,4,5-trihydroxyphenyl)chromen-4-one
Name: Myricetin 3-O-rhamnoside
Name: Myricitrin
Formula: C21H20O12
Exact mass: 464.09548
SMILES: Oc(c4)cc(O1)c(c(O)4)C(=O)C(O[C@H](O3)[C@H](O)[C@H](O)[C@@H](O)[C@H](C)3)=C1c(c2)cc(O)c(O)c(O)2
InChI: InChI=1S/C21H20O12/c1-6-14(26)17(29)18(30)21(31-6)33-20-16(28)13-9(23)4-8(22)5-12(13)32-19(20)7-2-10(24)15(27)11(25)3-7/h2-6,14,17-18,21-27,29-30H,1H3/t6-,14-,17+,18+,21-/m0/s1
Instrument: UPLC Q-Tof Premier, Waters
Instrument type: LC-ESI-QTOF
Ms type: MS
Ion mode: POSITIVE
Collision energy: 5.0 V
Ionization: ESI
Column name: ACQUITY UPLC BEH C18 2.1 by 100 mm (Waters, Milford, MA,USA)
Retention time: 8.75 min
Full scan fragment ion peak: 465/319
Ion type: [M+H]+
m/z	relative intensity
317.0456	14
319.0429	999
320.0586	149
321.0134	32
465.1099	109
466.1346	24
611.1697	10
