Mass spectrum: Gibberellin A7; LC-ESI-QQ; MS2; CE:10.0 eV; [M-H]-
Name: Gibberellin A7
Formula: C19H22O5
Exact mass: 330.14672
SMILES: C=C([C@H]45)C[C@@](C5)([C@@H](C(O)=O)1)[C@@]([H])(CC4)[C@@](C=3)(O2)[C@]([H])([C@@](C)([C@@H](O)C3)C(=O)2)1
InChI: InChI=1S/C19H22O5/c1-9-7-18-8-10(9)3-4-11(18)19-6-5-12(20)17(2,16(23)24-19)14(19)13(18)15(21)22/h5-6,10-14,20H,1,3-4,7-8H2,2H3,(H,21,22)/t10-,11-,12+,13-,14-,17-,18+,19-/m1/s1
Instrument: UPLC Waters, Quattro Ultima Pt Micromass
Instrument type: LC-ESI-QQ
Ms type: MS2
Ion mode: NEGATIVE
Collision energy: 10.0 eV
Ionization: ESI
Column name: ACQUITY UPLC BEH C18 2.1 by 50 mm (Waters, Milford, MA, USA)
Retention time: 9.43 min
Full scan fragment ion peak: 330
Precursor m/z: 329
Precursor type: [M-H]-
m/z	relative intensity
211.349	14
223.164	534
240.989	13
255.032	40
267.386	17
284.682	18
328.427	60
329.103	999
