Mass spectrum: Gibberellin A3; LC-ESI-QQ; MS2; CE:20.0 eV; [M-H]-
Name: Gibberellin A3
Name: Gibberellic acid
Name: Gibberellin
Formula: C19H22O6
Exact mass: 346.14164
SMILES: OC(=O)[C@H]([C@@]321)[C@]([H])([C@@](C)54)[C@](C=C[C@H](O)5)(OC(=O)4)[C@]([H])(CC[C@@](O)(C(=C)C3)C2)1
InChI: InChI=1S/C19H22O6/c1-9-7-17-8-18(9,24)5-3-10(17)19-6-4-11(20)16(2,15(23)25-19)13(19)12(17)14(21)22/h4,6,10-13,20,24H,1,3,5,7-8H2,2H3,(H,21,22)/t10-,11+,12-,13-,16-,17+,18+,19-/m1/s1
Instrument: UPLC Waters, Quattro Ultima Pt Micromass
Instrument type: LC-ESI-QQ
Ms type: MS2
Ion mode: NEGATIVE
Collision energy: 20.0 eV
Ionization: ESI
Column name: ACQUITY UPLC BEH C18 2.1 by 50 mm (Waters, Milford, MA, USA)
Retention time: 4.3 min
Full scan fragment ion peak: 346
Precursor m/z: 345
Precursor type: [M-H]-
m/z	relative intensity
54.626	13
64.328	23
65.235	17
70.469	66
71.199	18
73.619	10
74.450	13
80.375	16
82.650	92
93.991	10
103.508	22
104.489	13
113.146	18
119.296	13
122.646	15
142.879	999
145.419	26
151.085	10
152.079	10
154.766	39
160.516	25
161.310	55
169.287	13
170.282	12
172.544	13
180.790	23
182.482	75
183.543	26
185.618	12
199.560	16
200.550	30
201.157	69
208.163	11
209.096	14
211.601	25
213.091	68
218.194	10
219.151	32
220.616	195
221.208	484
226.491	20
227.027	328
227.691	17
230.674	13
237.241	21
238.421	43
239.208	538
257.329	124
258.769	11
267.874	10
270.441	63
273.356	19
283.207	116
296.192	13
300.641	130
301.378	31
315.337	21
318.786	52
326.951	12
327.525	15
335.027	12
344.628	54
345.217	193
353.267	18
363.194	12
372.330	14
373.225	10
392.309	14
393.177	11
