Mass spectrum: Isorhamnetin-3-O-glucoside; LC-ESI-QTOF; MS
Name: Isorhamnetin-3-O-glucoside
Formula: C22H22O12
Exact mass: 478.11113
SMILES: COc(c(O)4)cc(cc4)C(O1)=C(OC(O3)C(O)C(O)C(O)C(CO)3)C(=O)c(c(O)2)c(cc(O)c2)1
InChI: InChI=1S/C22H22O12/c1-31-12-4-8(2-3-10(12)25)20-21(17(28)15-11(26)5-9(24)6-13(15)32-20)34-22-19(30)18(29)16(27)14(7-23)33-22/h2-6,14,16,18-19,22-27,29-30H,7H2,1H3/t14-,16-,18+,19-,22+/m1/s1
Instrument: UPLC Q-Tof Premier, Waters
Instrument type: LC-ESI-QTOF
Ms type: MS
Ion mode: POSITIVE
Collision energy: 5.0 V
Ionization: ESI
Column name: ACQUITY UPLC BEH C18 2.1 by 100 mm (Waters, Milford, MA,USA)
Retention time: 12.34 min
Full scan fragment ion peak: 479/317
Ion type: [M+H]+
m/z	relative intensity
301.0454	10
317.0771	999
318.0839	150
319.0809	31
320.0231	14
479.1349	524
480.1596	106
481.1152	26
