Mass spectrum: Phloridzin; LC-ESI-QTOF; MS
Name: Phloretin-2'-O-glucoside
Name: Phlorhizin
Name: phloretin-2'-O-glucoside
Name: 1-[2,4-dihydroxy-6-[(2S,3R,4S,5R,6R)-3,4,5-trihydroxy-6-(hydroxymethyl)oxan-2-yl]oxy-phenyl]-3-(4-hydroxyphenyl)propan-1-one
Name: Phlorizin
Name: Phloridzin
Formula: C21H24O10
Exact mass: 436.13695
SMILES: OC[C@@H](O1)[C@@H](O)[C@H](O)[C@@H](O)[C@@H]1Oc(c2)c(C(=O)CCc(c3)ccc(O)c3)c(O)cc(O)2
InChI: InChI=1S/C21H24O10/c22-9-16-18(27)19(28)20(29)21(31-16)30-15-8-12(24)7-14(26)17(15)13(25)6-3-10-1-4-11(23)5-2-10/h1-2,4-5,7-8,16,18-24,26-29H,3,6,9H2/t16-,18-,19+,20-,21-/m1/s1
Instrument: UPLC Q-Tof Premier, Waters
Instrument type: LC-ESI-QTOF
Ms type: MS
Ion mode: POSITIVE
Collision energy: 5.0 V
Ionization: ESI
Column name: ACQUITY UPLC BEH C18 2.1 by 100 mm (Waters, Milford, MA,USA)
Retention time: 14.93 min
Full scan fragment ion peak: 437/275
Ion type: [M+H]+
m/z	relative intensity
275.0953	999
276.1059	156
277.0750	36
437.1630	44
438.2037	11
599.2261	10
