Mass spectrum: Isosakuranetin; LC-ESI-QTOF; MS
Name: Isosakuranetin
Name: 4'-Methoxy-5,7-dihydroxyflavonone
Name: 4'-Methylnaringenin
Name: (2S)-5,7-dihydroxy-2-(4-methoxyphenyl)chroman-4-one
Formula: C16H14O5
Exact mass: 286.08412
SMILES: COc(c3)ccc(c3)[C@H](C1)Oc(c2)c(c(O)cc(O)2)C(=O)1
InChI: InChI=1S/C16H14O5/c1-20-11-4-2-9(3-5-11)14-8-13(19)16-12(18)6-10(17)7-15(16)21-14/h2-7,14,17-18H,8H2,1H3/t14-/m0/s1
Instrument: UPLC Q-Tof Premier, Waters
Instrument type: LC-ESI-QTOF
Ms type: MS
Ion mode: POSITIVE
Collision energy: 5.0 V
Ionization: ESI
Column name: ACQUITY UPLC BEH C18 2.1 by 100 mm (Waters, Milford, MA,USA)
Retention time: 22.75 min
Full scan fragment ion peak: 287
Ion type: [M+H]+
m/z	relative intensity
287.0806	999
288.0969	315
289.0743	51
289.9840	12
626.1026	116
627.1254	35
638.1092	12
