Mass spectrum: Malvin; LC-ESI-QTOF; MS
Name: Malvidin-3, 5-di-O-glucoside chloride
Name: Malvin
Name: malvidin-3, 5-di-O-glucoside chloride
Name: (2S,3R,4S,5R,6R)-2-[7-hydroxy-2-(4-hydroxy-3,5-dimethoxy-phenyl)-3-[(2S,3R,4S,5R,6R)-3,4,5-trihydroxy-6-(hydroxymethyl)oxan-2-yl]oxy-chromen-5-yl]oxy-6-(hydroxymethyl)oxane-3,4,5-triol
Formula: [C29H35O17]+
Exact mass: 655.18742
SMILES: c(c41)([o+1]c(c(OC(O5)C(O)C(O)C(O)C5CO)c4)c(c3)cc(OC)c(O)c(OC)3)cc(O)cc1OC(O2)C(O)C(O)C(O)C2CO
InChI: InChI=1S/C29H34O17/c1-40-15-3-10(4-16(41-2)20(15)33)27-17(44-29-26(39)24(37)22(35)19(9-31)46-29)7-12-13(42-27)5-11(32)6-14(12)43-28-25(38)23(36)21(34)18(8-30)45-28/h3-7,18-19,21-26,28-31,34-39H,8-9H2,1-2H3,(H-,32,33)/p+1/t18-,19-,21-,22-,23+,24+,25-,26-,28-,29-/m1/s1
Instrument: UPLC Q-Tof Premier, Waters
Instrument type: LC-ESI-QTOF
Ms type: MS
Ion mode: POSITIVE
Collision energy: 5.0 V
Ionization: ESI
Column name: ACQUITY UPLC BEH C18 2.1 by 100 mm (Waters, Milford, MA,USA)
Retention time: 5.87 min
Full scan fragment ion peak: 655
Ion type: [M]+
m/z	relative intensity
654.2840	11
655.2077	999
656.2236	153
657.2405	59
