Mass spectrum: Gibberellin A3; LC-ESI-QQ; MS2; CE:10.0 eV; [M-H]-
Name: Gibberellin A3
Name: Gibberellic acid
Name: Gibberellin
Formula: C19H22O6
Exact mass: 346.14164
SMILES: OC(=O)[C@H]([C@@]321)[C@]([H])([C@@](C)54)[C@](C=C[C@H](O)5)(OC(=O)4)[C@]([H])(CC[C@@](O)(C(=C)C3)C2)1
InChI: InChI=1S/C19H22O6/c1-9-7-17-8-18(9,24)5-3-10(17)19-6-4-11(20)16(2,15(23)25-19)13(19)12(17)14(21)22/h4,6,10-13,20,24H,1,3,5,7-8H2,2H3,(H,21,22)/t10-,11+,12-,13-,16-,17+,18+,19-/m1/s1
Instrument: UPLC Waters, Quattro Ultima Pt Micromass
Instrument type: LC-ESI-QQ
Ms type: MS2
Ion mode: NEGATIVE
Collision energy: 10.0 eV
Ionization: ESI
Column name: ACQUITY UPLC BEH C18 2.1 by 50 mm (Waters, Milford, MA, USA)
Retention time: 4.3 min
Full scan fragment ion peak: 346
Ion type: [M-H]-
Precursor m/z: 345
Precursor type: [M-H]-
m/z	relative intensity
82.870	21
142.966	100
221.154	56
226.810	18
238.381	30
239.128	432
239.686	13
276.213	12
283.237	30
301.339	14
344.623	691
345.382	999
