Mass spectrum: Eriodictyol; LC-ESI-QTOF; MS
Name: 3' 4' 5 7-tetrahydroxyflavanone
Name: Eriodictyol
Name: (2S)-2-(3,4-dihydroxyphenyl)-5,7-dihydroxy-chroman-4-one
Formula: C15H12O6
Exact mass: 288.06339
SMILES: Oc(c3)c(O)cc(c3)[C@H](C1)Oc(c2)c(c(O)cc(O)2)C(=O)1
InChI: InChI=1S/C15H12O6/c16-8-4-11(19)15-12(20)6-13(21-14(15)5-8)7-1-2-9(17)10(18)3-7/h1-5,13,16-19H,6H2/t13-/m0/s1
Instrument: UPLC Q-Tof Premier, Waters
Instrument type: LC-ESI-QTOF
Ms type: MS
Ion mode: POSITIVE
Collision energy: 5.0 V
Ionization: ESI
Column name: ACQUITY UPLC BEH C18 2.1 by 100 mm (Waters, Milford, MA,USA)
Retention time: 17.62 min
Full scan fragment ion peak: 289
Ion type: [M+H]+
m/z	relative intensity
209.9915	11
287.0606	60
289.0730	999
290.0987	172
291.0291	29
601.0848	14
630.0521	36
