Mass spectrum: Neohesperidin dihydrochalcone; LC-ESI-QTOF; MS
Name: Dihydrohesperetin-7-O-neohesperidoside
Name: 1-[4-[(2S,3R,4S,5R,6R)-4,5-dihydroxy-6-(hydroxymethyl)-3-[(2S,3R,4R,5S,6S)-3,4,5-trihydroxy-6-methyl-oxan-2-yl]oxy-oxan-2-yl]oxy-2,6-dihydroxy-phenyl]-3-(3-hydroxy-4-methoxy-phenyl)propan-1-one
Name: dihydrohesperetin-7-O-neohesperidoside
Name: Neohesperidin dihydrochalcone
Formula: C28H36O15
Exact mass: 612.20542
SMILES: [H]C([H])([H])Oc(c([H])1)c(c(c(C(C([H])([H])C(c(c4O[H])c(c([H])c(c4[H])O[C@](O2)([C@]([H])(O[C@@](O3)([H])[C@@]([H])([C@]([C@@]([H])(O[H])[C@@]([H])3C([H])([H])[H])([H])O[H])O[H])[C@]([C@@](O[H])([H])[C@@]([H])(C([H])([H])O[H])2)(O[H])[H])[H])O[H])=O)([H])[H])c1[H])[H])O[H]
InChI: InChI=1S/C28H36O15/c1-11-21(34)23(36)25(38)27(40-11)43-26-24(37)22(35)19(10-29)42-28(26)41-13-8-16(32)20(17(33)9-13)14(30)5-3-12-4-6-18(39-2)15(31)7-12/h4,6-9,11,19,21-29,31-38H,3,5,10H2,1-2H3/t11-,19+,21-,22+,23+,24-,25+,26+,27-,28+/m0/s1
Instrument: UPLC Q-Tof Premier, Waters
Instrument type: LC-ESI-QTOF
Ms type: MS
Ion mode: POSITIVE
Collision energy: 5.0 V
Ionization: ESI
Column name: ACQUITY UPLC BEH C18 2.1 by 100 mm (Waters, Milford, MA,USA)
Retention time: 21.26 min
Full scan fragment ion peak: 613/451/305
Ion type: [M+H]+
m/z	relative intensity
305.1134	174
306.1215	28
347.1306	10
433.1689	25
451.1696	397
452.1975	72
453.2109	20
467.1752	30
595.2266	15
613.2222	999
614.2394	196
615.2427	47
616.1661	15
759.2974	11
1225.4346	183
1226.4503	81
1227.4617	28
1228.5229	12
