Mass spectrum: 4-Methylthiobutyl glucosinolate; LC-ESI-QTOF; MS
Name: 4-Methylthiobutyl glucosinolate
Name: (2R,3R,4S,5R,6S)-3,4,5-trihydroxy-2-(hydroxymethyl)-6-(C-(4-methylsulfanylbutyl)-N-sulfonatooxy-carbonimidoyl)sulfanyl-oxane
Name: Glucoerucin
Formula: C12H23NO9S3
Exact mass: 421.05349
SMILES: CSCCCCC(=NOS(O)(=O)=O)SC(O1)C(O)C(O)C(O)C(CO)1
InChI: InChI=1S/C12H23NO9S3/c1-23-5-3-2-4-8(13-22-25(18,19)20)24-12-11(17)10(16)9(15)7(6-14)21-12/h7,9-12,14-17H,2-6H2,1H3,(H,18,19,20)/b13-8-
Instrument: UPLC Q-Tof Premier, Waters
Instrument type: LC-ESI-QTOF
Ms type: MS
Ion mode: NEGATIVE
Collision energy: 5.0 V
Ionization: ESI
Column name: ACQUITY UPLC BEH C18 2.1 by 100 mm (Waters, Milford, MA,USA)
Full scan fragment ion peak: 420
Ion type: [M]-
m/z	relative intensity
420.0533	999
421.1093	355
422.0606	345
423.0155	101
423.9780	59
424.9917	21
500.0150	44
501.9870	10
841.1067	24
843.1156	14
921.0659	13
