Mass spectrum: Eriodictyol-7-O-glucoside; LC-ESI-QTOF; MS
Name: Eriodictyol-7-O-glucoside
Name: 2-(3,4-dihydroxyphenyl)-5-hydroxy-7-[(2R,3R,4S,5R,6R)-3,4,5-trihydroxy-6-(hydroxymethyl)oxan-2-yl]oxy-chroman-4-one
Name: Pyracanthoside
Formula: C21H22O11
Exact mass: 450.11621
SMILES: OCC(O1)C(O)C(O)C(O)C1Oc(c4)cc(O2)c(c(O)4)C(=O)CC2c(c3)cc(O)c(O)c3
InChI: InChI=1S/C21H22O11/c22-7-16-18(27)19(28)20(29)21(32-16)30-9-4-12(25)17-13(26)6-14(31-15(17)5-9)8-1-2-10(23)11(24)3-8/h1-5,14,16,18-25,27-29H,6-7H2/t14-,16+,18+,19-,20+,21+/m0/s1
Instrument: UPLC Q-Tof Premier, Waters
Instrument type: LC-ESI-QTOF
Ms type: MS
Ion mode: POSITIVE
Collision energy: 5.0 V
Ionization: ESI
Column name: ACQUITY UPLC BEH C18 2.1 by 100 mm (Waters, Milford, MA,USA)
Retention time: 9.29 min
Full scan fragment ion peak: 451/289
Ion type: [M+H]+
m/z	relative intensity
207.2081	12
213.9834	13
220.2186	25
223.0528	10
259.0636	12
287.0721	127
288.1206	16
289.0754	999
290.0741	174
290.9851	58
451.1287	527
452.1413	149
453.0888	49
453.9349	17
455.1419	19
466.1444	31
468.1977	15
475.0567	10
489.0989	12
494.1696	17
901.2386	56
903.2355	13
904.1472	20
916.2566	12
919.2494	10
923.2176	10
954.1628	10
