Mass spectrum: Saponarin; LC-ESI-QTOF; MS
Name: Apigenin-6-C-glucoside -7-O-glucoside
Name: Isovitexin-7-O-beta-D-glucopyranoside
Name: Saponarin
Name: apigenin-6-C-glucoside -7-O-glucoside
Name: 5-hydroxy-2-(4-hydroxyphenyl)-6-[(2S,3R,4S,5R,6R)-3,4,5-trihydroxy-6-(hydroxymethyl)oxan-2-yl]-7-[(2S,3R,4S,5R,6R)-3,4,5-trihydroxy-6-(hydroxymethyl)oxan-2-yl]oxy-chromen-4-one
Formula: C27H30O15
Exact mass: 594.15847
SMILES: O([C@@H]5CO)[C@H]([C@@H]([C@H]([C@@H]5O)O)O)Oc(c1)c([C@H](O4)[C@@H]([C@H]([C@@H]([C@H]4CO)O)O)O)c(c(C2=O)c(OC(c(c3)ccc(O)c3)=C2)1)O
InChI: InChI=1S/C27H30O15/c28-7-15-19(32)22(35)24(37)26(40-15)18-14(41-27-25(38)23(36)20(33)16(8-29)42-27)6-13-17(21(18)34)11(31)5-12(39-13)9-1-3-10(30)4-2-9/h1-6,15-16,19-20,22-30,32-38H,7-8H2/t15-,16-,19-,20-,22+,23+,24-,25-,26+,27-/m1/s1
Instrument: UPLC Q-Tof Premier, Waters
Instrument type: LC-ESI-QTOF
Ms type: MS
Ion mode: POSITIVE
Collision energy: 5.0 V
Ionization: ESI
Column name: ACQUITY UPLC BEH C18 2.1 by 100 mm (Waters, Milford, MA,USA)
Retention time: 6.78 min
Full scan fragment ion peak: 595
Ion type: [M+H]+
m/z	relative intensity
595.1670	999
596.1862	185
597.1735	48
598.0969	18
