Mass spectrum: Datiscin; LC-ESI-QTOF; MS
Name: Datiscetin-3-O-rutinoside
Name: Datiscin
Name: datiscetin-3-O-rutinoside
Formula: C27H30O15
Exact mass: 594.15847
SMILES: c(c5)(O)cc(c(c52)C(C(OC(O3)C(C(C(C3COC(C4O)OC(C(C4O)O)C)O)O)O)=C(O2)c(c(O)1)cccc1)=O)O
InChI: InChI=1S/C27H30O15/c1-9-17(31)20(34)22(36)26(39-9)38-8-15-18(32)21(35)23(37)27(41-15)42-25-19(33)16-13(30)6-10(28)7-14(16)40-24(25)11-4-2-3-5-12(11)29/h2-7,9,15,17-18,20-23,26-32,34-37H,8H2,1H3/t9-,15+,17-,18+,20+,21-,22+,23+,26+,27-/m0/s1
Instrument: UPLC Q-Tof Premier, Waters
Instrument type: LC-ESI-QTOF
Ms type: MS
Ion mode: POSITIVE
Collision energy: 5.0 V
Ionization: ESI
Column name: ACQUITY UPLC BEH C18 2.1 by 100 mm (Waters, Milford, MA,USA)
Retention time: 10.4 min
Full scan fragment ion peak: 595/449/287
Ion type: [M+H]+
m/z	relative intensity
287.0655	999
288.0760	165
289.0599	42
433.1316	31
449.1229	204
450.1505	47
451.2137	17
595.1772	696
596.1931	147
597.1760	53
598.1511	19
599.0884	12
