Mass spectrum: Gibberellin A3; LC-ESI-QQ; MS2; CE:30.0 eV; [M-H]-
Name: Gibberellin A3
Name: Gibberellic acid
Name: Gibberellin
Formula: C19H22O6
Exact mass: 346.14164
SMILES: OC(=O)[C@H]([C@@]321)[C@]([H])([C@@](C)54)[C@](C=C[C@H](O)5)(OC(=O)4)[C@]([H])(CC[C@@](O)(C(=C)C3)C2)1
InChI: InChI=1S/C19H22O6/c1-9-7-17-8-18(9,24)5-3-10(17)19-6-4-11(20)16(2,15(23)25-19)13(19)12(17)14(21)22/h4,6,10-13,20,24H,1,3,5,7-8H2,2H3,(H,21,22)/t10-,11+,12-,13-,16-,17+,18+,19-/m1/s1
Instrument: UPLC Waters, Quattro Ultima Pt Micromass
Instrument type: LC-ESI-QQ
Ms type: MS2
Ion mode: NEGATIVE
Collision energy: 30.0 eV
Ionization: ESI
Column name: ACQUITY UPLC BEH C18 2.1 by 50 mm (Waters, Milford, MA, USA)
Retention time: 4.3 min
Full scan fragment ion peak: 346
Precursor m/z: 345
Precursor type: [M-H]-
m/z	relative intensity
50.478	10
65.725	27
66.637	10
74.827	18
75.660	11
82.701	155
84.329	22
104.348	69
105.238	10
106.795	12
113.861	21
122.098	12
123.139	23
124.213	15
142.748	999
147.186	22
153.827	12
154.860	12
161.081	132
162.512	15
163.525	13
166.798	25
170.798	16
173.703	11
178.679	11
179.403	23
181.152	17
183.126	30
197.098	12
200.486	54
202.225	18
203.173	11
206.401	77
208.795	14
209.442	14
210.690	15
219.032	14
219.735	19
221.158	515
226.996	252
229.474	15
234.905	15
238.805	57
239.625	11
242.586	43
249.508	11
250.563	11
258.660	28
259.562	15
267.630	17
268.507	13
277.625	50
281.252	11
286.285	10
287.430	11
296.298	11
306.797	24
315.057	10
315.832	33
316.346	12
317.162	12
325.094	18
325.811	13
334.381	13
345.521	50
354.788	30
363.482	17
364.385	17
365.275	14
373.806	16
380.542	10
