Mass spectrum: Ononin; LC-ESI-QTOF; MS
Name: Formononetin-7-O-glucoside
Name: formononetin-7-O-glucoside
Name: 3-(4-methoxyphenyl)-7-[(2S,3R,4S,5R,6R)-3,4,5-trihydroxy-6-(hydroxymethyl)oxan-2-yl]oxy-chromen-4-one
Name: Ononin
Formula: C22H22O9
Exact mass: 430.12638
SMILES: COc(c4)ccc(c4)C(=C3)C(=O)c(c2)c(O3)cc(c2)O[C@H](O1)[C@H](O)[C@@H](O)[C@H](O)[C@@H](CO)1
InChI: InChI=1S/C22H22O9/c1-28-12-4-2-11(3-5-12)15-10-29-16-8-13(6-7-14(16)18(15)24)30-22-21(27)20(26)19(25)17(9-23)31-22/h2-8,10,17,19-23,25-27H,9H2,1H3/t17-,19-,20+,21-,22-/m1/s1
Instrument: UPLC Q-Tof Premier, Waters
Instrument type: LC-ESI-QTOF
Ms type: MS
Ion mode: POSITIVE
Collision energy: 5.0 V
Ionization: ESI
Column name: ACQUITY UPLC BEH C18 2.1 by 100 mm (Waters, Milford, MA,USA)
Retention time: 16.2 min
Full scan fragment ion peak: 431/269
Ion type: [M+H]+
m/z	relative intensity
269.0883	109
270.0974	18
431.1317	999
432.1534	159
433.1426	28
434.0737	11
