Mass spectrum: Naringenin; LC-ESI-QTOF; MS
Name: 4' 5 7-trihydroxyflavanone
Name: Naringenin
Name: 4',5,7-Trihydroxyflavanone
Name: (2S)-5,7-dihydroxy-2-(4-hydroxyphenyl)chroman-4-one
Formula: C15H12O5
Exact mass: 272.06847
SMILES: Oc(c3)ccc(c3)[C@H](C1)Oc(c2)c(c(O)cc(O)2)C(=O)1
InChI: InChI=1S/C15H12O5/c16-9-3-1-8(2-4-9)13-7-12(19)15-11(18)5-10(17)6-14(15)20-13/h1-6,13,16-18H,7H2/t13-/m0/s1
Instrument: UPLC Q-Tof Premier, Waters
Instrument type: LC-ESI-QTOF
Ms type: MS
Ion mode: POSITIVE
Collision energy: 5.0 V
Ionization: ESI
Column name: ACQUITY UPLC BEH C18 2.1 by 100 mm (Waters, Milford, MA,USA)
Retention time: 21.68 min
Full scan fragment ion peak: 273
Ion type: [M+H]+
m/z	relative intensity
273.0760	999
274.0863	153
275.0729	34
598.0677	96
599.0642	34
600.0978	15
