Mass spectrum: Apigenin; LC-ESI-QTOF; MS
Name: 4' 5 7-trihydroxyflavone
Name: 5,7-dihydroxy-2-(4-hydroxyphenyl)chromen-4-one
Name: Apigenin
Name: 5,7,4'-Trihydroxyflavone
Name: 4',5,7-Trihydroxyflavone
Formula: C15H10O5
Exact mass: 270.05282
SMILES: Oc(c3)ccc(c3)C(=C1)Oc(c2)c(c(O)cc(O)2)C(=O)1
InChI: InChI=1S/C15H10O5/c16-9-3-1-8(2-4-9)13-7-12(19)15-11(18)5-10(17)6-14(15)20-13/h1-7,16-18H
Instrument: UPLC Q-Tof Premier, Waters
Instrument type: LC-ESI-QTOF
Ms type: MS
Ion mode: POSITIVE
Collision energy: 5.0 V
Ionization: ESI
Column name: ACQUITY UPLC BEH C18 2.1 by 100 mm (Waters, Milford, MA,USA)
Retention time: 21.80 min
Full scan fragment ion peak: 594/271
Ion type: [M+H]+
m/z	relative intensity
271.0576	999
272.0810	151
273.0652	35
594.0310	92
595.0435	35
596.0413	11
