Mass spectrum: L-Leucine; CE-ESI-TOF; MS; [M+H]+
Name: L-Leucine
Name: (2S)-alpha-2-Amino-4-methylvaleric acid
Name: (2S)-alpha-Leucine
Name: 2-Amino-4-methylvaleric acid
Formula: C6H13NO2
Exact mass: 131.09463
SMILES: CC(C)C[C@H](N)C(O)=O
InChI: InChI=1S/C6H13NO2/c1-4(2)3-5(7)6(8)9/h4-5H,3,7H2,1-2H3,(H,8,9)/t5-/m0/s1
Instrument: CE-system connected to 6210 Time-of-Flight MS, Agilent
Instrument type: CE-ESI-TOF
Ms type: MS
Ion mode: POSITIVE
Ionization: ESI
Column name: Fused sillica capillary id=50 um L=100 cm (HMT Inc., Tsuruoka, Japan)
Ion type: [M+H]+
m/z	relative intensity
132.1004	999
