Mass spectrum: L-Threonine; CE-ESI-TOF; MS; [M+H]+
Name: L-Threonine
Name: 2-Amino-3-hydroxybutyric acid
Formula: C4H9NO3
Exact mass: 119.05824
SMILES: C[C@H](O)[C@H](N)C(O)=O
InChI: InChI=1S/C4H9NO3/c1-2(6)3(5)4(7)8/h2-3,6H,5H2,1H3,(H,7,8)/t2-,3-/m0/s1
Instrument: CE-system connected to 6210 Time-of-Flight MS, Agilent
Instrument type: CE-ESI-TOF
Ms type: MS
Ion mode: POSITIVE
Ionization: ESI
Column name: Fused sillica capillary id=50 um L=100 cm (HMT Inc., Tsuruoka, Japan)
Ion type: [M+H]+
m/z	relative intensity
120.0642	999
