Mass spectrum: Pelargonin; LC-ESI-QTOF; MS2; CE:Ramp 5-60 V; [M]+
Name: pelargonidin-3,5-di-O-glucoside
Name: Pelargonin
Name: (2S,3R,4S,5S,6R)-2-[7-hydroxy-2-(4-hydroxyphenyl)-5-[(2S,3R,4S,5S,6R)-3,4,5-trihydroxy-6-(hydroxymethyl)oxan-2-yl]oxychromenylium-3-yl]oxy-6-(hydroxym
Class: Natural Product
Formula: [C27H31O15]+
Exact mass: 595.16630
SMILES: O(C5CO)C(C(C(C5O)O)O)Oc(c4)c(c1)c(cc4O)[o+1]c(c(c3)ccc(O)c3)c(OC(O2)C(C(C(C2CO)O)O)O)1
InChI: InChI=1S/C27H30O15/c28-8-17-19(32)21(34)23(36)26(41-17)39-15-6-12(31)5-14-13(15)7-16(25(38-14)10-1-3-11(30)4-2-10)40-27-24(37)22(35)20(33)18(9-29)42-27/h1-7,17-24,26-29,32-37H,8-9H2,(H-,30,31)/p+1/t17-,18-,19-,20-,21+,22+,23-,24-,26-,27-/m1/s1
Instrument: UPLC Q-Tof Premier, Waters
Instrument type: LC-ESI-QTOF
Ms type: MS2
Ion mode: POSITIVE
Collision energy: Ramp 5-60 V
Ionization: ESI
Full scan fragment ion peak: 595.2
Ion type: [M]+
m/z	relative intensity
121.0252	9
271.0595	999
271.1423	55
271.4360	6
271.6135	6
272.0638	43
433.1123	169
434.1151	7
595.1663	295
595.2839	6
596.1709	19
