Mass spectrum: Cosmosiin; LC-ESI-QTOF; MS2; CE:30 eV; [M+H]+
Name: Apigenin-7-O-glucoside
Name: Apigetrin
Name: Cosmosiin
Name: 5-hydroxy-2-(4-hydroxyphenyl)-7-[(2S,3R,4S,5R,6R)-3,4,5-trihydroxy-6-(hydroxymethyl)oxan-2-yl]oxy-chromen-4-one
Class: Natural Product
Formula: C21H20O10
Exact mass: 432.10565
SMILES: C1=CC(=CC=C1C2=CC(=O)C3=C(C=C(C=C3O2)O[C@H]4[C@@H]([C@H]([C@@H]([C@H](O4)CO)O)O)O)O)O
InChI: InChI=1S/C21H20O10/c22-8-16-18(26)19(27)20(28)21(31-16)29-11-5-12(24)17-13(25)7-14(30-15(17)6-11)9-1-3-10(23)4-2-9/h1-7,16,18-24,26-28H,8H2/t16-,18-,19+,20-,21-/m1/s1
Instrument: UPLC Q-Tof Premier, Waters
Instrument type: LC-ESI-QTOF
Ms type: MS2
Ion mode: POSITIVE
Collision energy: 30 eV
Ionization: ESI
Full scan fragment ion peak: 433.1
Ion type: [M+H]+
m/z	relative intensity
153.0178	26
271.0595	999
271.1478	140
271.3136	27
271.4309	10
271.4998	10
271.5576	10
271.6829	13
272.0643	67
272.1513	12
