Mass spectrum: Rhoifolin; LC-ESI-QTOF; MS2; CE:Ramp 5-60 eV; [M+H]+
Name: apigenin-7-O-neohesperidoside
Name: Rhoifolin
Name: 7-[(2S,3R,4S,5R,6R)-4,5-dihydroxy-6-(hydroxymethyl)-3-[(2S,3R,4R,5S,6S)-3,4,5-trihydroxy-6-methyl-oxan-2-yl]oxy-oxan-2-yl]oxy-5-hydroxy-2-(4-hydroxyphenyl)chromen-4-one
Class: Natural Product
Formula: C27H30O14
Exact mass: 578.16356
SMILES: O([C@H]5C)[C@H]([C@@H]([C@@H]([C@H]5O)O)O)O[C@H]([C@H]4O)[C@@H](O[C@@H]([C@H]4O)CO)Oc(c3)cc(O1)c(c3O)C(C=C(c(c2)ccc(O)c2)1)=O
InChI: InChI=1S/C27H30O14/c1-10-20(32)22(34)24(36)26(37-10)41-25-23(35)21(33)18(9-28)40-27(25)38-13-6-14(30)19-15(31)8-16(39-17(19)7-13)11-2-4-12(29)5-3-11/h2-8,10,18,20-30,32-36H,9H2,1H3/t10-,18+,20-,21+,22+,23-,24+,25+,26-,27+/m0/s1
Instrument: UPLC Q-Tof Premier, Waters
Instrument type: LC-ESI-QTOF
Ms type: MS2
Ion mode: POSITIVE
Collision energy: Ramp 5-60 eV
Ionization: ESI
Full scan fragment ion peak: 579.2
Ion type: [M+H]+
m/z	relative intensity
119.0463	10
153.0174	32
271.0593	999
271.1426	59
272.0634	32
433.1129	10
579.1714	194
580.1761	10
