Mass spectrum: Isorhamnetin-3-O-glucoside; LC-ESI-QTOF; MS2; CE:Ramp 5-60 V; [2M-H]-
Name: Isorhamnetin-3-O-glucoside
Name: Isor_3_Glc
Name: 5,7-dihydroxy-2-(4-hydroxy-3-methoxyphenyl)-3-[(2S,3R,4S,5S,6R)-3,4,5-trihydroxy-6-(hydroxymethyl)oxan-2-yl]oxychromen-4-one
Class: Natural Product
Formula: C22H22O12
Exact mass: 478.11113
SMILES: COc(c(O)4)cc(cc4)C(O1)=C(OC(O3)C(O)C(O)C(O)C(CO)3)C(=O)c(c(O)2)c(cc(O)c2)1
InChI: InChI=1S/C22H22O12/c1-31-12-4-8(2-3-10(12)25)20-21(17(28)15-11(26)5-9(24)6-13(15)32-20)34-22-19(30)18(29)16(27)14(7-23)33-22/h2-6,14,16,18-19,22-27,29-30H,7H2,1H3/t14-,16-,18+,19-,22+/m1/s1
Instrument: UPLC Q-Tof Premier, Waters
Instrument type: LC-ESI-QTOF
Ms type: MS2
Ion mode: NEGATIVE
Collision energy: Ramp 5-60 V
Ionization: ESI
Full scan fragment ion peak: 955.2
Ion type: [2M-H]-
m/z	relative intensity
271.0233	11
314.0422	150
315.0495	45
477.1029	999
477.7931	10
478.1078	33
955.2144	153
