Mass spectrum: Rhamnetin; LC-ESI-QTOF; MS2; CE:Ramp 5-60 eV; [M+H]+
Name: 3,3',4',5-tetrahydroxy-7-methoxyflavone
Name: Rhamnetin
Name: Ramn
Name: 2-(3,4-dihydroxyphenyl)-3,5-dihydroxy-7-methoxy-chromen-4-one
Class: Natural Product
Formula: C16H12O7
Exact mass: 316.05830
SMILES: COc(c3)cc(O1)c(c(O)3)C(=O)C(O)=C1c(c2)cc(O)c(O)c2
InChI: InChI=1S/C16H12O7/c1-22-8-5-11(19)13-12(6-8)23-16(15(21)14(13)20)7-2-3-9(17)10(18)4-7/h2-6,17-19,21H,1H3
Instrument: UPLC Q-Tof Premier, Waters
Instrument type: LC-ESI-QTOF
Ms type: MS2
Ion mode: POSITIVE
Collision energy: Ramp 5-60 eV
Ionization: ESI
Full scan fragment ion peak: 317.1
Ion type: [M+H]+
m/z	relative intensity
95.0437	14
109.0255	13
121.0264	14
122.0346	11
123.0060	15
123.0420	96
124.0134	23
134.0355	26
137.0226	60
144.0565	10
151.0389	14
155.0490	10
167.0343	68
172.0522	10
179.0345	29
200.0476	23
215.0716	24
228.0430	27
243.0672	61
256.0376	10
257.0458	14
271.0607	31
273.0407	12
274.0486	69
288.0642	11
299.0562	14
302.0435	38
317.0661	999
