Mass spectrum: Quercetin 3-(6-O-acetyl-beta-glucoside); LC-ESI-QTOF; MS2; CE:30 V; [M-H]-
Name: Quercetin-3-O-glucose-6''-acetate
Name: Quercetin 3-(6''-acetylglucoside)
Name: Quercetin 3-(6-O-acetyl-beta-glucoside)
Class: Natural Product
Formula: C23H22O13
Exact mass: 506.10604
SMILES: CC(=O)OCC(O1)C(O)C(O)C(O)C1OC(C(=O)3)=C(Oc(c4)c(c(O)cc(O)4)3)c(c2)cc(O)c(O)c2
InChI: InChI=1S/C23H22O13/c1-8(24)33-7-15-17(29)19(31)20(32)23(35-15)36-22-18(30)16-13(28)5-10(25)6-14(16)34-21(22)9-2-3-11(26)12(27)4-9/h2-6,15,17,19-20,23,25-29,31-32H,7H2,1H3/t15-,17-,19+,20-,23+/m1/s1
Instrument: UPLC Q-Tof Premier, Waters
Instrument type: LC-ESI-QTOF
Ms type: MS2
Ion mode: NEGATIVE
Collision energy: 30 V
Ionization: ESI
Full scan fragment ion peak: 505.1
Ion type: [M-H]-
m/z	relative intensity
151.0361	59
179.0325	38
243.0332	30
254.0505	23
255.0475	124
255.9445	26
271.0415	252
271.9783	57
272.9527	26
297.8257	25
298.9233	33
300.0408	999
301.0128	354
301.9240	74
302.8560	33
