Mass spectrum: Eriodictyol; LC-ESI-QTOF; MS2; CE:Ramp 5-60 eV; [M-H]-
Name: 3',4',5,7-tetrahydroxyflavanone
Name: Eriodictyol
Name: Erid
Name: (2S)-2-(3,4-dihydroxyphenyl)-5,7-dihydroxy-chroman-4-one
Class: Natural Product
Formula: C15H12O6
Exact mass: 288.06339
SMILES: Oc(c3)c(O)cc(c3)[C@H](C1)Oc(c2)c(c(O)cc(O)2)C(=O)1
InChI: InChI=1S/C15H12O6/c16-8-4-11(19)15-12(20)6-13(21-14(15)5-8)7-1-2-9(17)10(18)3-7/h1-5,13,16-19H,6H2/t13-/m0/s1
Instrument: UPLC Q-Tof Premier, Waters
Instrument type: LC-ESI-QTOF
Ms type: MS2
Ion mode: NEGATIVE
Collision energy: Ramp 5-60 eV
Ionization: ESI
Full scan fragment ion peak: 287.1
Ion type: [M-H]-
m/z	relative intensity
65.0012	32
83.0128	37
107.0133	117
125.0241	31
134.0372	84
135.0449	999
136.0486	43
151.0034	735
152.0072	26
287.0556	277
288.0591	22
