Mass spectrum: Daidzin; LC-ESI-QTOF; MS2; CE:Ramp 5-60 V; [M-H]-
Name: Daidzin
Name: Daidzein-7-O-glucoside
Name: Daidzoside
Name: 3-(4-hydroxyphenyl)-7-[(2S,3R,4S,5S,6R)-3,4,5-trihydroxy-6-(hydroxymethyl)oxan-2-yl]oxychromen-4-one
Name: 4',7-hydroxyisoflavone-7-glucoside
Class: Natural Product
Formula: C21H20O9
Exact mass: 416.11073
SMILES: C1=CC(=CC=C1C2=COC3=C(C2=O)C=CC(=C3)O[C@H]4[C@@H]([C@H]([C@@H]([C@H](O4)CO)O)O)O)O
InChI: InChI=1S/C21H20O9/c22-8-16-18(25)19(26)20(27)21(30-16)29-12-5-6-13-15(7-12)28-9-14(17(13)24)10-1-3-11(23)4-2-10/h1-7,9,16,18-23,25-27H,8H2/t16-,18-,19+,20-,21-/m1/s1
Instrument: UPLC Q-Tof Premier, Waters
Instrument type: LC-ESI-QTOF
Ms type: MS2
Ion mode: NEGATIVE
Collision energy: Ramp 5-60 V
Ionization: ESI
Full scan fragment ion peak: 415.1
Ion type: [M-H]-
m/z	relative intensity
91.0183	30
132.0211	80
135.0079	43
167.0504	24
195.0447	180
196.0510	20
208.0524	40
223.0391	279
224.0466	75
251.0347	169
252.0420	999
253.0497	335
415.1029	752
416.1048	51
