Mass spectrum: Hyperoside; LC-ESI-QTOF; MS2; CE:30 V; [M+H]+
Name: quercetin-3-beta-O-galactoside
Name: Hyperoside
Name: Quer_3_Gal
Name: 2-(3,4-dihydroxyphenyl)-5,7-dihydroxy-3-[(2S,3R,4S,5R,6R)-3,4,5-trihydroxy-6-(hydroxymethyl)oxan-2-yl]oxychromen-4-one
Class: Natural Product
Formula: C21H20O12
Exact mass: 464.09548
SMILES: OC[C@@H](O1)[C@H](O)[C@H](O)[C@@H](O)[C@@H]1OC(C(=O)3)=C(Oc(c4)c(c(O)cc(O)4)3)c(c2)cc(O)c(O)c2
InChI: InChI=1S/C21H20O12/c22-6-13-15(27)17(29)18(30)21(32-13)33-20-16(28)14-11(26)4-8(23)5-12(14)31-19(20)7-1-2-9(24)10(25)3-7/h1-5,13,15,17-18,21-27,29-30H,6H2/t13-,15+,17+,18-,21+/m1/s1
Instrument: UPLC Q-Tof Premier, Waters
Instrument type: LC-ESI-QTOF
Ms type: MS2
Ion mode: POSITIVE
Collision energy: 30 V
Ionization: ESI
Full scan fragment ion peak: 465.1
Ion type: [M+H]+
m/z	relative intensity
85.0229	31
91.0346	19
97.0250	18
153.0201	16
165.0211	23
229.0541	31
257.0506	30
285.0456	15
303.0559	999
303.1464	174
304.0599	56
