Mass spectrum: Hirsutrin; LC-ESI-QTOF; MS2; CE:Ramp 5-60 V; [M-H]-
Name: Quercetin-3-O-glucoside
Name: Hirsutrin
Name: Isoquercetin
Name: Quer_3_Glc
Name: 2-(3,4-dihydroxyphenyl)-5,7-dihydroxy-3-[(2S,3R,4S,5S,6R)-3,4,5-trihydroxy-6-(hydroxymethyl)oxan-2-yl]oxy-chromen-4-one
Class: Natural Product
Formula: C21H20O12
Exact mass: 464.09548
SMILES: OCC(O1)C(O)C(O)C(O)C1OC(C(=O)3)=C(Oc(c4)c(c(O)cc(O)4)3)c(c2)cc(O)c(O)c2
InChI: InChI=1S/C21H20O12/c22-6-13-15(27)17(29)18(30)21(32-13)33-20-16(28)14-11(26)4-8(23)5-12(14)31-19(20)7-1-2-9(24)10(25)3-7/h1-5,13,15,17-18,21-27,29-30H,6H2/t13-,15-,17+,18-,21+/m1/s1
Instrument: UPLC Q-Tof Premier, Waters
Instrument type: LC-ESI-QTOF
Ms type: MS2
Ion mode: NEGATIVE
Collision energy: Ramp 5-60 V
Ionization: ESI
Full scan fragment ion peak: 463.1
Ion type: [M-H]-
m/z	relative intensity
108.0211	21
148.0154	21
151.0031	68
163.0033	23
178.9984	40
199.0394	30
215.0343	26
226.0270	20
227.0341	53
243.0298	148
244.0325	26
254.0220	23
255.0294	255
256.0326	41
271.0241	586
272.0283	99
300.0268	890
301.0338	531
302.0385	55
463.0876	999
464.0917	182
