Mass spectrum: Naringenin; LC-ESI-QTOF; MS2; CE:30 eV; [M+H]+
Name: 4',5,7-trihydroxyflavanone
Name: Naringenin
Name: Nari
Name: (2S)-5,7-dihydroxy-2-(4-hydroxyphenyl)chroman-4-one
Class: Natural Product
Formula: C15H12O5
Exact mass: 272.06847
SMILES: Oc(c3)ccc(c3)[C@H](C1)Oc(c2)c(c(O)cc(O)2)C(=O)1
InChI: InChI=1S/C15H12O5/c16-9-3-1-8(2-4-9)13-7-12(19)15-11(18)5-10(17)6-14(15)20-13/h1-6,13,16-18H,7H2/t13-/m0/s1
Instrument: UPLC Q-Tof Premier, Waters
Instrument type: LC-ESI-QTOF
Ms type: MS2
Ion mode: POSITIVE
Collision energy: 30 eV
Ionization: ESI
Full scan fragment ion peak: 273.1
Ion type: [M+H]+
m/z	relative intensity
67.0083	40
68.9879	33
69.0245	43
77.0310	12
83.0069	16
91.0493	222
91.0991	27
95.0448	37
97.0244	36
107.0467	26
111.0055	13
119.0479	333
119.1045	37
123.0432	31
147.0451	190
147.1077	19
153.0195	999
153.0835	109
153.2110	12
154.0234	21
