Mass spectrum: Rosmarinic acid; LC-ESI-QTOF; MS2; CE:Ramp 5-60 V; [M+H]+
Name: Rosmarinic acid
Name: (2R)-3-(3,4-dihydroxyphenyl)-2-[(E)-3-(3,4-dihydroxyphenyl)prop-2-enoyl]oxypropanoic acid
Class: Natural Product
Formula: C18H16O8
Exact mass: 360.08452
SMILES: OC(=O)C(OC(=O)C=Cc(c2)cc(O)c(O)c2)Cc(c1)cc(O)c(O)c1
InChI: InChI=1S/C18H16O8/c19-12-4-1-10(7-14(12)21)3-6-17(23)26-16(18(24)25)9-11-2-5-13(20)15(22)8-11/h1-8,16,19-22H,9H2,(H,24,25)/b6-3+/t16-/m1/s1
Instrument: UPLC Q-Tof Premier, Waters
Instrument type: LC-ESI-QTOF
Ms type: MS2
Ion mode: POSITIVE
Collision energy: Ramp 5-60 V
Ionization: ESI
Full scan fragment ion peak: 361.1
Ion type: [M+H]+
m/z	relative intensity
89.0387	127
89.0881	37
93.0334	40
107.0490	39
111.0441	25
117.0336	131
117.0903	28
135.0445	173
135.1050	42
139.0395	68
145.0290	162
145.0912	39
163.0395	999
163.1067	237
164.0432	32
181.0491	36
