Mass spectrum: Isorhamnetin-3-O-rutinoside; LC-ESI-QTOF; MS2; CE:30 V; [M+H]+
Name: Isorhamnetin-3-O-rutinoside
Name: Narcissin
Name: Isor_3_Glc_6pp_Rha
Name: 5,7-dihydroxy-2-(4-hydroxy-3-methoxy-phenyl)-3-[(2S,3R,4S,5R,6R)-3,4,5-trihydroxy-6-[[(2R,3R,4R,5S,6S)-3,4,5-trihydroxy-6-methyl-oxan-2-yl]oxymethyl]oxan-2-yl]oxy-chromen-4-one
Class: Natural Product
Formula: C28H32O16
Exact mass: 624.16903
SMILES: O(CC(O2)C(O)C(O)C(C(OC(C5=O)=C(Oc(c45)cc(O)cc4O)c(c3)cc(c(O)c3)OC)2)O)C(O1)C(O)C(C(C1C)O)O
InChI: InChI=1S/C28H32O16/c1-9-18(32)21(35)23(37)27(41-9)40-8-16-19(33)22(36)24(38)28(43-16)44-26-20(34)17-13(31)6-11(29)7-15(17)42-25(26)10-3-4-12(30)14(5-10)39-2/h3-7,9,16,18-19,21-24,27-33,35-38H,8H2,1-2H3/t9-,16+,18-,19+,21+,22-,23+,24+,27+,28-/m0/s1
Instrument: UPLC Q-Tof Premier, Waters
Instrument type: LC-ESI-QTOF
Ms type: MS2
Ion mode: POSITIVE
Collision energy: 30 V
Ionization: ESI
Full scan fragment ion peak: 625.1
Ion type: [M+H]+
m/z	relative intensity
71.0403	22
85.0221	54
129.0540	20
317.0686	999
317.1623	114
318.0727	45
