Mass spectrum: Taurine; LC-ESI-QTOF; MS2; CE:Ramp 5-60 V; [M+H]+
Name: Taurine
Name: O-Due
Name: 2-Aminoethanesulfonic Acid
Name: 2-Sulfoethylamine
Name: Tauphon
Class: Organosulfonic acid
Formula: C2H7NO3S
Exact mass: 125.01466
SMILES: NCCS(O)(=O)=O
InChI: InChI=1S/C2H7NO3S/c3-1-2-7(4,5)6/h1-3H2,(H,4,5,6)
Instrument: UPLC Q-Tof Premier, Waters
Instrument type: LC-ESI-QTOF
Ms type: MS2
Ion mode: POSITIVE
Collision energy: Ramp 5-60 V
Ionization: ESI
Precursor m/z: 126.02246
Precursor type: [M+H]+
m/z	relative intensity
84.9396	97
108.0122	411
126.0225	999
