Mass spectrum: Hirsutrin; LC-ESI-QTOF; MS2; CE:Ramp 5-60 V; [M-H]-
Name: quercetin-3-O-beta-glucopyranoside
Name: Quer-3-Glc
Name: Hirsutrin
Name: Isoquercetin
Name: 3-Glucosylquercetin
Name: Isotrifoliin
Name: Quercetin-3-glucoside
Name: 2-(3,4-Dihidroxyphenyl)-3-(beta-D-glucofuranosyloxy)-5,7-dihydroxy-4H-1-benzopyran-4-one
Class: Flavonoid
Formula: C21H20O12
Exact mass: 464.09548
SMILES: OCC(O1)C(O)C(O)C(O)C1OC(C(=O)3)=C(Oc(c4)c(c(O)cc(O)4)3)c(c2)cc(O)c(O)c2
InChI: InChI=1S/C21H20O12/c22-6-13-15(27)17(29)18(30)21(32-13)33-20-16(28)14-11(26)4-8(23)5-12(14)31-19(20)7-1-2-9(24)10(25)3-7/h1-5,13,15,17-18,21-27,29-30H,6H2/t13-,15-,17+,18-,21+/m1/s1
Instrument: UPLC Q-Tof Premier, Waters
Instrument type: LC-ESI-QTOF
Ms type: MS2
Ion mode: NEGATIVE
Collision energy: Ramp 5-60 V
Ionization: ESI
Precursor m/z: 463.08767
Precursor type: [M-H]-
m/z	relative intensity
151.0050	118
243.0328	185
255.0325	342
271.0276	729
300.0299	999
301.0388	520
463.0877	793
