Mass spectrum: Kaempferol-3-O-beta-glucopyranosyl-7-O-alpha-rhamnopyranoside; LC-ESI-QTOF; MS2; CE:Ramp 5-60 V; [M+H]+
Name: Kaempferol-3-O-beta-glucopyranosyl-7-O-alpha-rhamnopyranoside
Name: Kaempferol-3-O-beta-D-glucoside-7-O-alpha-L-rhamnoside
Name: Kaem-3-Glc-7-Rha
Name: Kaempferol-3-glucoside-7-rhamnoside
Name: Kaempferol-3-O-b-glucopyranosyl-7-O-a-rhamnopyranoside
Class: Flavonoid
Formula: C27H30O15
Exact mass: 594.15847
SMILES: C(C1O)(C)OC(Oc(c5)cc(O2)c(c5O)C(C(OC(O4)C(C(C(C4CO)O)O)O)=C(c(c3)ccc(O)c3)2)=O)C(C1O)O
InChI: InChI=1S/C27H30O15/c1-9-17(31)20(34)22(36)26(38-9)39-12-6-13(30)16-14(7-12)40-24(10-2-4-11(29)5-3-10)25(19(16)33)42-27-23(37)21(35)18(32)15(8-28)41-27/h2-7,9,15,17-18,20-23,26-32,34-37H,8H2,1H3/t9-,15+,17-,18+,20+,21-,22+,23+,26-,27-/m0/s1
Instrument: UPLC Q-Tof Premier, Waters
Instrument type: LC-ESI-QTOF
Ms type: MS2
Ion mode: POSITIVE
Collision energy: Ramp 5-60 V
Ionization: ESI
Precursor m/z: 595.16628
Precursor type: [M+H]+
m/z	relative intensity
85.0293	53
287.0549	999
303.0508	52
433.1123	251
595.1663	81
