Mass spectrum: Piperacillin; LC-ESI-QTOF; MS2; CE:Ramp 5-60 V; [M-H]-
Name: Piperacillin
Name: Pentcillin
Name: Pipracil
Name: Pipril
Class: Penicillanic acid
Formula: C23H27N5O7S
Exact mass: 517.16312
SMILES: CCN(C4)C(=O)C(=O)N(C4)C(=O)NC(c(c3)cccc3)C(=O)NC(C(=O)1)C(S2)N1C(C(O)=O)C(C)(C)2
InChI: InChI=1S/C23H27N5O7S/c1-4-26-10-11-27(19(32)18(26)31)22(35)25-13(12-8-6-5-7-9-12)16(29)24-14-17(30)28-15(21(33)34)23(2,3)36-20(14)28/h5-9,13-15,20H,4,10-11H2,1-3H3,(H,24,29)(H,25,35)(H,33,34)/t13-,14-,15+,20-/m1/s1
Instrument: UPLC Q-Tof Premier, Waters
Instrument type: LC-ESI-QTOF
Ms type: MS2
Ion mode: NEGATIVE
Collision energy: Ramp 5-60 V
Ionization: ESI
Precursor m/z: 516.15531
Precursor type: [M-H]-
m/z	relative intensity
71.9925	103
190.0334	93
233.0395	999
270.1241	59
330.0934	520
516.1553	60
