Mass spectrum: 4-Nitrophenol; LC-ESI-QTOF; MS2; CE:Ramp 5-60 V; [M-H]-
Name: 4-Nitrophenol
Name: PNP
Name: p-Nitrophenol
Name: 4-Nitrohydroxybenzene
Name: 4-Hydroxynitrobenzene
Name: Niphen
Name: Paranitrophenol
Class: Phenols
Formula: C6H5NO3
Exact mass: 139.02694
SMILES: Oc(c1)ccc(c1)[N+1]([O-1])=O
InChI: InChI=1S/C6H5NO3/c8-6-3-1-5(2-4-6)7(9)10/h1-4,8H
Instrument: UPLC Q-Tof Premier, Waters
Instrument type: LC-ESI-QTOF
Ms type: MS2
Ion mode: NEGATIVE
Collision energy: Ramp 5-60 V
Ionization: ESI
Precursor m/z: 138.01914
Precursor type: [M-H]-
m/z	relative intensity
92.0285	59
108.0228	572
138.0191	999
138.3134	96
