Mass spectrum: Keracyanin; LC-ESI-QTOF; MS2; CE:Ramp 5-60 V; [M-2H]-
Name: Keracyanin
Name: Cynd-Rut
Name: cyanidin-3-O-rutinoside
Name: Rutinosyl-3-cyanidine
Name: cyaninoside
Name: Cyanidin 3-O-rhamnosylglucoside
Name: Cyanidin 3-rhamnoglucoside
Class: Anthocyanidin
Formula: [C27H31O15]+
Exact mass: 595.16630
SMILES: c(c(c([o+1]2)c(O[C@H](O4)[C@@H]([C@H]([C@@H]([C@H]4CO[C@@H]([C@@H]5O)O[C@H]([C@@H]([C@H]5O)O)C)O)O)O)cc(c(O)3)c(cc(O)c3)2)1)c(O)c(O)cc1
InChI: InChI=1S/C27H30O15/c1-9-19(32)21(34)23(36)26(39-9)38-8-18-20(33)22(35)24(37)27(42-18)41-17-7-12-14(30)5-11(28)6-16(12)40-25(17)10-2-3-13(29)15(31)4-10/h2-7,9,18-24,26-27,32-37H,8H2,1H3,(H3-,28,29,30,31)/p+1/t9-,18+,19-,20+,21+,22-,23+,24+,26+,27+/m0/s1
Instrument: UPLC Q-Tof Premier, Waters
Instrument type: LC-ESI-QTOF
Ms type: MS2
Ion mode: NEGATIVE
Collision energy: Ramp 5-60 V
Ionization: ESI
Precursor m/z: 593.15066
Precursor type: [M-2H]-
m/z	relative intensity
125.0251	54
147.0090	66
255.0314	103
256.0382	56
283.0266	93
284.0339	748
285.0420	473
299.0570	54
593.1506	999
