Mass spectrum: Choline; LC-ESI-QTOF; MS2; CE:Ramp 5-60 V; [M]+
Name: Choline
Name: 2-Hydroxyethyl trimethylammonium
Name: Bilineurine
Name: 2-Hydroxy-N,N,N-trimethylethanaminium
Name: Bilineurin
Name: Hepacholine
Name: Lipotril
Class: Choline
Formula: [C5H14NO]+
Exact mass: 104.10754
SMILES: OCC[N+1](C)(C)C
InChI: InChI=1S/C5H14NO/c1-6(2,3)4-5-7/h7H,4-5H2,1-3H3/q+1
Instrument: UPLC Q-Tof Premier, Waters
Instrument type: LC-ESI-QTOF
Ms type: MS2
Ion mode: POSITIVE
Collision energy: Ramp 5-60 V
Ionization: ESI
Precursor m/z: 104.10751
Precursor type: [M]+
m/z	relative intensity
60.0827	95
104.1075	999
