Mass spectrum: Acaciin; LC-ESI-QTOF; MS2; CE:Ramp 5-60 V; [M+H]+
Name: Linarin
Name: Acac-7-Glc-6pp-Rha
Name: acacetin-7-O-rutinoside
Name: Acaciin
Name: Buddieoflavonoloside
Formula: C28H32O14
Exact mass: 592.17921
SMILES: c(O)(c3)c(C(=O)2)c(cc3OC(O4)C(O)C(O)C(O)C(COC(O5)C(O)C(C(C5C)O)O)4)OC(=C2)c(c1)ccc(OC)c1
InChI: InChI=1S/C28H32O14/c1-11-21(31)23(33)25(35)27(39-11)38-10-19-22(32)24(34)26(36)28(42-19)40-14-7-15(29)20-16(30)9-17(41-18(20)8-14)12-3-5-13(37-2)6-4-12/h3-9,11,19,21-29,31-36H,10H2,1-2H3/t11-,19+,21-,22+,23+,24-,25+,26+,27+,28+/m0/s1
Instrument: UPLC Q-Tof Premier, Waters
Instrument type: LC-ESI-QTOF
Ms type: MS2
Ion mode: POSITIVE
Collision energy: Ramp 5-60 V
Ionization: ESI
Precursor m/z: 593.187
Precursor type: [M+H]+
m/z	relative intensity
242.0597	50
270.0538	52
285.0770	999
447.1298	237
593.1870	150
