Mass spectrum: (S)-3-Amino-4-phenylbutyric acid; LC-ESI-QTOF; MS2; CE:Ramp 5-60 V; [M+H]+
Name: L-beta-Homophenylalanine
Name: (S)-3-Amino-4-phenylbutyric acid
Class: Amino acids
Formula: C10H13NO2
Exact mass: 179.09463
SMILES: OC(=O)CC(N)Cc(c1)cccc1
InChI: InChI=1S/C10H13NO2/c11-9(7-10(12)13)6-8-4-2-1-3-5-8/h1-5,9H,6-7,11H2,(H,12,13)/t9-/m0/s1
Instrument: UPLC Q-Tof Premier, Waters
Instrument type: LC-ESI-QTOF
Ms type: MS2
Ion mode: POSITIVE
Collision energy: Ramp 5-60 V
Ionization: ESI
Precursor m/z: 180.10242
Precursor type: [M+H]+
m/z	relative intensity
77.0398	58
91.0557	125
103.0558	210
115.0560	163
117.0708	558
120.0807	999
145.0673	112
163.0775	90
180.1024	160
