Mass spectrum: Inosine; LC-ESI-QTOF; MS2; CE:30 V; [M+H]+
Name: Inosine
Name: INO
Name: (?)-Inosine
Name: beta-Inosine
Name: Hypoxanthine 9-beta-D-ribofuranoside
Name: 9-beta-D-ribofuranosylhypoxanthine
Name: Hypoxanthine ribonucleoside
Name: Oxiamin
Name: Ribonosine
Name: Trophicardyl
Class: Nucleoside
Formula: C10H12N4O5
Exact mass: 268.08077
SMILES: OC[C@@H](O1)[C@@H](O)[C@@H](O)[C@@H]1n(c3)c(N=2)c(n3)C(=O)NC2
InChI: InChI=1S/C10H12N4O5/c15-1-4-6(16)7(17)10(19-4)14-3-13-5-8(14)11-2-12-9(5)18/h2-4,6-7,10,15-17H,1H2,(H,11,12,18)/t4-,6-,7-,10-/m1/s1
Instrument: UPLC Q-Tof Premier, Waters
Instrument type: LC-ESI-QTOF
Ms type: MS2
Ion mode: POSITIVE
Collision energy: 30 V
Ionization: ESI
Precursor m/z: 269.08857
Precursor type: [M+H]+
m/z	relative intensity
94.0411	85
110.0359	182
119.0363	148
137.0474	999
