Mass spectrum: L-Homoserine; LC-ESI-QTOF; MS2; CE:Ramp 5-60 V; [M+H]+
Name: L-Homoserine
Name: Hse
Name: HoSer
Name: (S)-2-Amino-4-hydroxybutyric acid
Name: 2-Amino-4-hydroxybutanoic acid
Class: Amino acids
Formula: C4H9NO3
Exact mass: 119.05824
SMILES: OCC[C@H](N)C(O)=O
InChI: InChI=1S/C4H9NO3/c5-3(1-2-6)4(7)8/h3,6H,1-2,5H2,(H,7,8)/t3-/m0/s1
Instrument: UPLC Q-Tof Premier, Waters
Instrument type: LC-ESI-QTOF
Ms type: MS2
Ion mode: POSITIVE
Collision energy: Ramp 5-60 V
Ionization: ESI
Precursor m/z: 120.06604
Precursor type: [M+H]+
m/z	relative intensity
74.0604	999
120.0660	267
