Mass spectrum: L-allo-Threonine; LC-ESI-QTOF; MS2; CE:Ramp 5-60 V; [M-H]-
Name: L-allo-Threonine
Name: allo-Thr
Name: L-Allothreonine
Name: (2S,3S)-2-Amino-3-hydroxybutyric Acid
Class: Amino acids
Formula: C4H9NO3
Exact mass: 119.05824
SMILES: CC(O)C(N)C(O)=O
InChI: InChI=1S/C4H9NO3/c1-2(6)3(5)4(7)8/h2-3,6H,5H2,1H3,(H,7,8)/t2-,3-/m0/s1
Instrument: UPLC Q-Tof Premier, Waters
Instrument type: LC-ESI-QTOF
Ms type: MS2
Ion mode: NEGATIVE
Collision energy: Ramp 5-60 V
Ionization: ESI
Precursor m/z: 118.05044
Precursor type: [M-H]-
m/z	relative intensity
74.0254	999
118.0504	602
