Mass spectrum: beta-Nicotinamide adenine dinucleotide; LC-ESI-QTOF; MS2; CE:Ramp 5-60 V; [M+H]+
Name: beta-Nicotinamide adenine dinucleotide
Name: beta-NAD
Name: beta-DPN
Name: Diphosphopyridine nucleotide
Name: Coenzyme1
Name: Cozymase
Name: Nadide
Name: beta-Nicotinamide adenine dinucleotide oxidized form
Class: Nicotinamide; Dinucleotides
Formula: C21H27N7O14P2
Exact mass: 663.10912
SMILES: NC(=O)c(c5)c[n+1](cc5)C(O1)C(O)C(O)C(COP([O-1])(=O)OP(O)(=O)OCC(O2)C(O)C(O)C2n(c4)c(n3)c(n4)c(N)nc3)1
InChI: InChI=1S/C21H27N7O14P2/c22-17-12-19(25-7-24-17)28(8-26-12)21-16(32)14(30)11(41-21)6-39-44(36,37)42-43(34,35)38-5-10-13(29)15(31)20(40-10)27-3-1-2-9(4-27)18(23)33/h1-4,7-8,10-11,13-16,20-21,29-32H,5-6H2,(H5-,22,23,24,25,33,34,35,36,37)/t10-,11-,13-,14-,15-,16-,20-,21-/m1/s1
Instrument: UPLC Q-Tof Premier, Waters
Instrument type: LC-ESI-QTOF
Ms type: MS2
Ion mode: POSITIVE
Collision energy: Ramp 5-60 V
Ionization: ESI
Precursor m/z: 664.11692
Precursor type: [M+H]+
m/z	relative intensity
136.0622	999
232.0822	134
348.0700	109
428.0358	318
524.0590	180
542.0682	153
664.1169	299
