Mass spectrum: 4-Nitrophenyl phosphate; LC-ESI-QTOF; MS2; CE:30 V; [M-H]-
Name: 4-Nitrophenyl phosphate
Name: pNPP
Class: Aryl phosphate
Formula: C6H6NO6P
Exact mass: 218.99327
SMILES: [O-1][N+1](=O)c(c1)ccc(c1)OP(O)(O)=O
InChI: InChI=1S/C6H6NO6P/c8-7(9)5-1-3-6(4-2-5)13-14(10,11)12/h1-4H,(H2,10,11,12)
Instrument: UPLC Q-Tof Premier, Waters
Instrument type: LC-ESI-QTOF
Ms type: MS2
Ion mode: NEGATIVE
Collision energy: 30 V
Ionization: ESI
Precursor m/z: 217.98547
Precursor type: [M-H]-
m/z	relative intensity
78.9446	999
