Mass spectrum: Kaempferol-3-O-glucoside; LC-ESI-QTOF; MS2; CE:30 V; [M-H]-
Name: Kaempferol-3-O-glucoside
Name: Kaem-3-Glc
Name: Astragalin
Name: Astragaline
Name: Kaempferol-3-beta-D-glucopyranoside
Name: 4H-1-Benzopyran-4-one, 3-(beta-D-glucopyranosyloxy)-5,7-dihydroxy-2-(4-hydroxyphenyl)-)
Class: Flavonoid
Formula: C21H20O11
Exact mass: 448.10056
SMILES: OC[C@@H](O1)[C@@H](O)[C@H](O)[C@@H](O)[C@@H]1OC(C(=O)2)=C(c(c4)ccc(O)c4)Oc(c3)c(c(O)cc(O)3)2
InChI: InChI=1S/C21H20O11/c22-7-13-15(26)17(28)18(29)21(31-13)32-20-16(27)14-11(25)5-10(24)6-12(14)30-19(20)8-1-3-9(23)4-2-8/h1-6,13,15,17-18,21-26,28-29H,7H2/t13-,15-,17+,18-,21+/m1/s1
Instrument: UPLC Q-Tof Premier, Waters
Instrument type: LC-ESI-QTOF
Ms type: MS2
Ion mode: NEGATIVE
Collision energy: 30 V
Ionization: ESI
Precursor m/z: 447.09276
Precursor type: [M-H]-
m/z	relative intensity
151.0036	21
163.0040	10
211.0401	13
227.0345	641
228.0424	15
229.0512	43
239.0348	12
255.0290	999
255.2883	13
255.4290	26
256.0391	142
257.0477	34
284.0327	744
285.0419	219
447.0928	10
