Mass spectrum: Methylsuccinic acid; LC-ESI-QTOF; MS2; CE:30 V; [M-H]-
Name: Methylsuccinic acid
Name: 2-Methylsuccinate
Name: Pyrotartaric Acid
Name: 2-Methylbutanedioic acid
Name: 1,2-Propanedicarboxylic acid
Name: Propane-1,2-dicarboxylic Acid
Class: Dicarboxylic acids
Formula: C5H8O4
Exact mass: 132.04226
SMILES: OC(=O)CC(C)C(O)=O
InChI: InChI=1S/C5H8O4/c1-3(5(8)9)2-4(6)7/h3H,2H2,1H3,(H,6,7)(H,8,9)
Instrument: UPLC Q-Tof Premier, Waters
Instrument type: LC-ESI-QTOF
Ms type: MS2
Ion mode: NEGATIVE
Collision energy: 30 V
Ionization: ESI
Precursor m/z: 131.03446
Precursor type: [M-H]-
m/z	relative intensity
87.0453	999
131.0345	513
