Mass spectrum: Daidzin; LC-ESI-QTOF; MS2; CE:Ramp 5-60 V; [M-H]-
Name: Daidzin
Name: Ddzi
Name: Daidzein-7-O-glucoside
Name: 4'-hydroxyisoflavone-7-O-glucoside
Name: Cannabiscetin
Name: Daidzoside
Name: Glucosyl-7-daidzein
Name: 7,4'-Dihydroxyisoflavone 7-glucoside
Class: Glucosides
Formula: C21H20O9
Exact mass: 416.11073
SMILES: OC[C@@H](O1)[C@@H](O)[C@H](O)[C@@H](O)[C@@H]1Oc(c4)cc(O3)c(c4)C(=O)C(=C3)c(c2)ccc(O)c2
InChI: InChI=1S/C21H20O9/c22-8-16-18(25)19(26)20(27)21(30-16)29-12-5-6-13-15(7-12)28-9-14(17(13)24)10-1-3-11(23)4-2-10/h1-7,9,16,18-23,25-27H,8H2/t16-,18-,19+,20-,21-/m1/s1
Instrument: UPLC Q-Tof Premier, Waters
Instrument type: LC-ESI-QTOF
Ms type: MS2
Ion mode: NEGATIVE
Collision energy: Ramp 5-60 V
Ionization: ESI
Precursor m/z: 415.10293
Precursor type: [M-H]-
m/z	relative intensity
132.0217	106
135.0087	55
195.0460	164
223.0403	291
224.0491	75
251.0357	179
252.0435	999
253.0517	281
267.0679	98
295.0620	68
415.1029	633
