Mass spectrum: Procyanidin B2; LC-ESI-QTOF; MS2; CE:Ramp 5-60 V; [M+H]+
Name: Procyanidin B2
Name: 4,8'-Bi((+)-epicatechin))
Name: cis,cis'-4,8'-Bi(3,3',4',5,7-pentahydroxyflavane)
Name: (-)-Epicatechin-(4-beta-8)-(-)-epicatechin
Class: Flavonoid
Formula: C30H26O12
Exact mass: 578.14243
SMILES: C1[C@H]([C@H](OC2=C1C(=CC(=C2[C@@H]3[C@H]([C@H](OC4=CC(=CC(=C34)O)O)C5=CC(=C(C=C5)O)O)O)O)O)C6=CC(=C(C=C6)O)O)O
InChI: InChI=1S/C30H26O12/c31-13-7-20(37)24-23(8-13)41-29(12-2-4-16(33)19(36)6-12)27(40)26(24)25-21(38)10-17(34)14-9-22(39)28(42-30(14)25)11-1-3-15(32)18(35)5-11/h1-8,10,22,26-29,31-40H,9H2/t22-,26-,27-,28-,29-/m1/s1
Instrument: UPLC Q-Tof Premier, Waters
Instrument type: LC-ESI-QTOF
Ms type: MS2
Ion mode: POSITIVE
Collision energy: Ramp 5-60 V
Ionization: ESI
Precursor m/z: 579.15022
Precursor type: [M+H]+
m/z	relative intensity
127.0394	999
139.0390	590
579.1502	643
