Mass spectrum: 1,6-Anhydro-beta-D-glucose; LC-ESI-QTOF; MS2; CE:30 V; [M-H]-
Name: 1,6-Anhydro-beta-D-glucose
Name: Levoglucosan
Name: Leucoglucosan
Name: 1,6-Anhydro-beta-D-glucopyranose
Class: Monosaccharide
Formula: C6H10O5
Exact mass: 162.05282
SMILES: OC(C(O)1)C(C2)OC(O2)C(O)1
InChI: InChI=1S/C6H10O5/c7-3-2-1-10-6(11-2)5(9)4(3)8/h2-9H,1H2/t2-,3-,4+,5-,6-/m1/s1
Instrument: UPLC Q-Tof Premier, Waters
Instrument type: LC-ESI-QTOF
Ms type: MS2
Ion mode: NEGATIVE
Collision energy: 30 V
Ionization: ESI
Precursor m/z: 161.04502
Precursor type: [M-H]-
m/z	relative intensity
143.8917	999
160.8933	62
