Mass spectrum: Peonidin-3,5-O-di-beta-glucopyranoside; LC-ESI-QTOF; MS2; CE:Ramp 5-60 V; [M-2H]-
Name: Peonidin-3,5-O-di-beta-glucopyranoside
Name: Pn 3,5-di-Glc
Name: Peonin
Name: Paeonin
Class: Anthocyanidin
Formula: [C28H33O16]+
Exact mass: 625.17686
SMILES: c(O)(c(OC)1)ccc(c(c(OC(O5)C(O)C(O)C(O)C5CO)4)[o+1]c(c(c4)2)cc(O)cc2OC(O3)C(O)C(O)C(O)C3CO)c1
InChI: InChI=1S/C28H32O16/c1-39-16-4-10(2-3-13(16)32)26-17(42-28-25(38)23(36)21(34)19(9-30)44-28)7-12-14(40-26)5-11(31)6-15(12)41-27-24(37)22(35)20(33)18(8-29)43-27/h2-7,18-25,27-30,33-38H,8-9H2,1H3,(H-,31,32)/p+1/t18-,19-,20-,21-,22+,23+,24-,25-,27-,28-/m1/s1
Instrument: UPLC Q-Tof Premier, Waters
Instrument type: LC-ESI-QTOF
Ms type: MS2
Ion mode: NEGATIVE
Collision energy: Ramp 5-60 V
Ionization: ESI
Derivative form: C28H33O16.Cl
Derivative mass: 661.00
Precursor m/z: 623.16123
Precursor type: [M-2H]-
m/z	relative intensity
147.0073	54
283.0272	94
284.0342	231
297.0421	359
298.0521	108
299.0569	999
460.1021	150
461.1102	833
623.1613	304
