Mass spectrum: Agmatine; LC-ESI-QTOF; MS2; CE:Ramp 5-60 V; [M+H]+
Name: Agmatine
Name: 1-Amino-4-guanidinobutane
Name: 4-Guanidinobutylamine
Name: N-(4-Aminobutyl)guanidine
Class: Guanidine
Formula: C5H14N4
Exact mass: 130.12185
SMILES: NCCCCNC(N)=N
InChI: InChI=1S/C5H14N4/c6-3-1-2-4-9-5(7)8/h1-4,6H2,(H4,7,8,9)
Instrument: UPLC Q-Tof Premier, Waters
Instrument type: LC-ESI-QTOF
Ms type: MS2
Ion mode: POSITIVE
Collision energy: Ramp 5-60 V
Ionization: ESI
Precursor m/z: 131.12964
Precursor type: [M+H]+
m/z	relative intensity
72.0798	34
131.1256	999
