Mass spectrum: Pyridoxine; LC-ESI-QTOF; MS2; CE:Ramp 5-60 V; [M-H]-
Name: Pyridoxine
Name: Vitamin B6
Name: Pyridoxol
Name: 2-Methyl-3-hydroxy-4,5-dihydroxymethylpyridine
Name: Pyroxin
Name: Naturetime B6
Name: Adermine
Name: Gravidox
Name: Hydoxin
Name: -Hydroxy-4,5-dimethylol-alpha-picoline
Name: 5-Hydroxy-6-methyl-3,4-pyridinedimethanol
Name: Pridoxine
Class: Pyridines
Formula: C8H11NO3
Exact mass: 169.07389
SMILES: OCc(c1)c(CO)c(O)c(C)n1
InChI: InChI=1S/C8H11NO3/c1-5-8(12)7(4-11)6(3-10)2-9-5/h2,10-12H,3-4H2,1H3
Instrument: UPLC Q-Tof Premier, Waters
Instrument type: LC-ESI-QTOF
Ms type: MS2
Ion mode: NEGATIVE
Collision energy: Ramp 5-60 V
Ionization: ESI
Precursor m/z: 168.06609
Precursor type: [M-H]-
m/z	relative intensity
92.0508	62
107.0385	143
108.0459	356
121.0541	187
122.0613	660
138.0564	215
150.0563	999
162.8412	55
166.0502	262
168.0661	504
