Mass spectrum: L-Tryptophan; LC-ESI-QTOF; MS2; CE:30 V; [M+H]+
Name: L-Tryptophane
Name: L-Trp
Name: L-alpha-Amino-3-indolepropionic Acid
Name: 3-beta-Indolylalanine
Name: (S)-2-Amino-3-(3-indolyl)propionic acid
Name: L-Tryptophan
Class: Amino acids
Formula: C11H12N2O2
Exact mass: 204.08988
SMILES: C1=CC=C2C(=C1)C(=CN2)C[C@@H](C(=O)O)N
InChI: InChI=1S/C11H12N2O2/c12-9(11(14)15)5-7-6-13-10-4-2-1-3-8(7)10/h1-4,6,9,13H,5,12H2,(H,14,15)/t9-/m0/s1
Instrument: UPLC Q-Tof Premier, Waters
Instrument type: LC-ESI-QTOF
Ms type: MS2
Ion mode: POSITIVE
Collision energy: 30 V
Ionization: ESI
Precursor m/z: 205.09767
Precursor type: [M+H]+
m/z	relative intensity
146.0634	308
159.0952	153
188.0755	630
205.0977	999
