Mass spectrum: Kaempferol-3-O-rutinoside; LC-ESI-QTOF; MS2; CE:Ramp 5-60 V; [M+H]+
Name: Kaempferol-3-O-rutinoside
Name: Kaem-3-Glc-6pp-Rha
Name: Nicotiflorin
Name: kaempferol-3-rhamnoglucoside
Class: Flavonoid
Formula: C27H30O15
Exact mass: 594.15847
SMILES: c(c5)(O)cc(c(c51)C(C(OC(O3)C(C(C(C3COC(C4O)OC(C(C4O)O)C)O)O)O)=C(c(c2)ccc(O)c2)O1)=O)O
InChI: InChI=1S/C27H30O15/c1-9-17(31)20(34)22(36)26(39-9)38-8-15-18(32)21(35)23(37)27(41-15)42-25-19(33)16-13(30)6-12(29)7-14(16)40-24(25)10-2-4-11(28)5-3-10/h2-7,9,15,17-18,20-23,26-32,34-37H,8H2,1H3/t9-,15+,17-,18+,20+,21-,22+,23+,26+,27-/m0/s1
Instrument: UPLC Q-Tof Premier, Waters
Instrument type: LC-ESI-QTOF
Ms type: MS2
Ion mode: POSITIVE
Collision energy: Ramp 5-60 V
Ionization: ESI
Precursor m/z: 595.16626
Precursor type: [M+H]+
m/z	relative intensity
71.0506	48
85.0293	93
129.0554	32
153.0191	13
165.0204	11
287.0551	999
288.0587	13
449.1075	85
595.1663	40
