Mass spectrum: Quercetin-3-O-alpha-L-rhamnopyranosyl(1-2)-beta-D-glucopyranoside-7-O-alpha-L-rhamnopyranoside; LC-ESI-QTOF; MS2; CE:30 V; [M-H]-
Name: Quercetin-3-O-alpha-L-rhamnopyranosyl(1-2)-beta-D-glucopyranoside-7-O-alpha-L-rhamnopyranoside
Name: Quer-3-(Rha-Glu)-7-Rha
Name: Quercetin-3-neohesperidoside-7-rhamnoside
Name: Quercetin-3-O-alpha-L-rhamnopyranosyl(1->2)-beta-D-glucopyranoside-7-O-alpha-L-rhamnopyranoside
Class: Flavonoid
Formula: C33H40O20
Exact mass: 756.21129
SMILES: OC(C1O)C(O)C(Oc(c6)cc(c(c62)C(C(OC(C(OC(O5)(C(O)C(C(O)C(C)5)O)[H])4)OC(CO)C(C4O)O)=C(c(c3)cc(c(O)c3)O)O2)=O)O)OC1C
InChI: InChI=1S/C33H40O20/c1-9-19(38)23(42)26(45)31(47-9)49-12-6-15(37)18-16(7-12)50-28(11-3-4-13(35)14(36)5-11)29(22(18)41)52-33-30(25(44)21(40)17(8-34)51-33)53-32-27(46)24(43)20(39)10(2)48-32/h3-7,9-10,17,19-21,23-27,30-40,42-46H,8H2,1-2H3/t9-,10-,17+,19-,20-,21+,23+,24+,25-,26+,27+,30+,31-,32-,33-/m0/s1
Instrument: UPLC Q-Tof Premier, Waters
Instrument type: LC-ESI-QTOF
Ms type: MS2
Ion mode: NEGATIVE
Collision energy: 30 V
Ionization: ESI
Precursor m/z: 755.20346
Precursor type: [M-H]-
m/z	relative intensity
299.0190	175
300.0268	110
301.0344	55
445.0777	25
446.0846	999
447.0901	236
609.1453	423
610.1496	99
755.2034	689
756.2067	219
