Mass spectrum: Betaine; LC-ESI-QTOF; MS2; CE:30 V; [M+H]+
Name: Betaine
Name: Trimethylglycine
Name: Trimethylammonioacetate
Name: Oxyneurine
Name: (Carboxymethyl)trimethylammonium inner salt
Name: alpha-Earleine
Name: Trimethylaminoacetic acid
Name: Abromine
Name: Glycylbetaine
Name: Lycine
Name: Jortaine
Name: Trimethylglycocoll
Class: Amino acids
Formula: C5H11NO2
Exact mass: 117.07898
SMILES: [O-1]C(=O)C[N+1](C)(C)C
InChI: InChI=1S/C5H11NO2/c1-6(2,3)4-5(7)8/h4H2,1-3H3
Instrument: UPLC Q-Tof Premier, Waters
Instrument type: LC-ESI-QTOF
Ms type: MS2
Ion mode: POSITIVE
Collision energy: 30 V
Ionization: ESI
Precursor m/z: 118.08677
Precursor type: [M+H]+
m/z	relative intensity
58.0662	999
59.0743	307
118.0868	829
