Mass spectrum: 1-O-beta-D-Glucopyranosyl sinapate; LC-ESI-QTOF; MS2; CE:Ramp 5-60 V; [M-H]-
Name: 1-O-b-D-glucopyranosyl sinapate
Name: 1-O-Sinapoyl-beta-D-glucose
Name: 1-O-Sinapoyl beta-D-glucoside
Class: Carboxylic acids
Formula: C17H22O10
Exact mass: 386.12130
SMILES: OCC(O1)C(O)C(O)C(O)C(OC(=O)C=Cc(c2)cc(OC)c(O)c(OC)2)1
InChI: InChI=1S/C17H22O10/c1-24-9-5-8(6-10(25-2)13(9)20)3-4-12(19)27-17-16(23)15(22)14(21)11(7-18)26-17/h3-6,11,14-18,20-23H,7H2,1-2H3/b4-3+/t11-,14-,15+,16-,17+/m1/s1
Instrument: UPLC Q-Tof Premier, Waters
Instrument type: LC-ESI-QTOF
Ms type: MS2
Ion mode: NEGATIVE
Collision energy: Ramp 5-60 V
Ionization: ESI
Precursor m/z: 385.11347
Precursor type: [M-H]-
m/z	relative intensity
71.0151	56
91.0194	65
119.0138	150
147.0079	90
149.0241	70
164.0474	81
175.0030	333
190.0263	697
205.0494	999
223.0609	218
247.0612	90
385.1135	323
