Mass spectrum: Delphinidin-3-O-(2''-O-beta-xylopyranosyl-beta-glucopyranoside); LC-ESI-QTOF; MS2; CE:Ramp 5-60 V; [M-2H]-
Name: Delphinidin-3-O-(2''-O-beta-xylopyranosyl-beta-glucopyranoside)
Name: Dp 3-Samb
Name: delphinidin-3-sambubioside
Name: Cannabinin
Name: Hibiscin
Class: Anthocyanidin
Formula: [C26H29O16]+
Exact mass: 597.14556
SMILES: C(C5O)(O)COC(C5O)(OC(C4O)C(OC(C4O)CO)Oc(c2)c([o+1]c(c3)c(c(O)cc3O)2)c(c1)cc(c(c1O)O)O)[H]
InChI: InChI=1S/C26H28O16/c27-6-17-20(35)21(36)24(42-25-22(37)19(34)14(32)7-38-25)26(41-17)40-16-5-10-11(29)3-9(28)4-15(10)39-23(16)8-1-12(30)18(33)13(31)2-8/h1-5,14,17,19-22,24-27,32,34-37H,6-7H2,(H4-,28,29,30,31,33)/p+1/t14-,17-,19+,20-,21+,22-,24-,25+,26-/m1/s1
Instrument: UPLC Q-Tof Premier, Waters
Instrument type: LC-ESI-QTOF
Ms type: MS2
Ion mode: NEGATIVE
Collision energy: Ramp 5-60 V
Ionization: ESI
Derivative form: C26H29O16.Cl
Derivative mass: 632.95
Precursor m/z: 595.12993
Precursor type: [M-2H]-
m/z	relative intensity
271.0254	124
299.0219	141
300.0285	999
355.0489	113
595.1299	880
