Mass spectrum: Caffeic acid; LC-ESI-QTOF; MS2; CE:Ramp 5-60 V; [M-H]-
Name: Caffeic acid
Name: trans-Caffeate
Name: 3,4-Dihydroxycinnamic acid
Name: 3,4-Dihydroxybenzeneacrylic acid
Name: 3-(3,4-Dihydroxyphenyl)propenoic acid
Class: Caffeic acid
Formula: C9H8O4
Exact mass: 180.04226
SMILES: OC(=O)C=Cc(c1)cc(O)c(O)c1
InChI: InChI=1S/C9H8O4/c10-7-3-1-6(5-8(7)11)2-4-9(12)13/h1-5,10-11H,(H,12,13)/b4-2-
Instrument: UPLC Q-Tof Premier, Waters
Instrument type: LC-ESI-QTOF
Ms type: MS2
Ion mode: NEGATIVE
Collision energy: Ramp 5-60 V
Ionization: ESI
Precursor m/z: 179.03446
Precursor type: [M-H]-
m/z	relative intensity
134.0369	151
135.0447	999
179.0345	317
