Mass spectrum: Ciliatine; LC-ESI-QTOF; MS2; CE:Ramp 5-60 V; [M+H]+
Name: 2-Aminoethylphosphonic acid
Name: 2-AEP
Name: Ciliatine
Name: Phosphonoethylamine
Class: Oxoacid
Formula: C2H8NO3P
Exact mass: 125.02418
SMILES: NCCP(O)(O)=O
InChI: InChI=1S/C2H8NO3P/c3-1-2-7(4,5)6/h1-3H2,(H2,4,5,6)
Instrument: UPLC Q-Tof Premier, Waters
Instrument type: LC-ESI-QTOF
Ms type: MS2
Ion mode: POSITIVE
Collision energy: Ramp 5-60 V
Ionization: ESI
Precursor m/z: 126.03198
Precursor type: [M+H]+
m/z	relative intensity
84.9604	104
125.9838	280
126.0320	999
