Mass spectrum: Acetylcholine; LC-ESI-QTOF; MS2; CE:Ramp 5-60 V; M+
Name: Acetylcholine
Name: Ach
Name: 2-Acetoxyethyltrimethylammonium
Name: Acetylcholinium
Name: Aceolinc
Name: Arterocholine
Name: Miochol
Name: Ovisot
Class: Acylcholine
Formula: [C7H16NO2]+
Exact mass: 146.11810
SMILES: CC(=O)OCC[N+1](C)(C)C
InChI: InChI=1S/C7H16NO2/c1-7(9)10-6-5-8(2,3)4/h5-6H2,1-4H3/q+1
Instrument: UPLC Q-Tof Premier, Waters
Instrument type: LC-ESI-QTOF
Ms type: MS2
Ion mode: POSITIVE
Collision energy: Ramp 5-60 V
Ionization: ESI
Precursor m/z: 146.11807
Precursor type: [M]+
m/z	relative intensity
87.0457	105
145.9591	11
146.1181	999
