Mass spectrum: L-beta-Homotryptophan; LC-ESI-QTOF; MS2; CE:Ramp 5-60 V; [M+H]+
Name: L-beta-Homotryptophan
Name: (S)-3-Amino-4-(3-indolyl)butyric acid
Class: Amino acids
Formula: C12H14N2O2
Exact mass: 218.10553
SMILES: C1=CC=C2C(=C1)C(=CN2)C[C@@H](CC(=O)O)N
InChI: InChI=1S/C12H14N2O2/c13-9(6-12(15)16)5-8-7-14-11-4-2-1-3-10(8)11/h1-4,7,9,14H,5-6,13H2,(H,15,16)/t9-/m0/s1
Instrument: UPLC Q-Tof Premier, Waters
Instrument type: LC-ESI-QTOF
Ms type: MS2
Ion mode: POSITIVE
Collision energy: Ramp 5-60 V
Ionization: ESI
Precursor m/z: 219.11332
Precursor type: [M+H]+
m/z	relative intensity
88.0396	160
117.0581	193
128.0623	216
129.0709	658
132.0817	409
143.0741	114
156.0813	999
184.0765	476
202.0863	898
219.1133	113
