Mass spectrum: D-Glucosamine-6-phosphate; LC-ESI-QTOF; MS2; CE:Ramp 5-60 V; [M+H]+
Name: D-Glucosamine-6-phosphate
Name: 2-amino-2-deoxy-6-O-phosphono-alpha-D-glucopyranose
Class: Carbohydrate Phosphates
Formula: C6H14NO8P
Exact mass: 259.04570
SMILES: O[C@@H](O1)[C@H](N)[C@@H](O)[C@H](O)[C@H]1COP(O)(O)=O
InChI: InChI=1S/C6H14NO8P/c7-3-5(9)4(8)2(15-6(3)10)1-14-16(11,12)13/h2-6,8-10H,1,7H2,(H2,11,12,13)/t2-,3-,4-,5-,6+/m1/s1
Instrument: UPLC Q-Tof Premier, Waters
Instrument type: LC-ESI-QTOF
Ms type: MS2
Ion mode: POSITIVE
Collision energy: Ramp 5-60 V
Ionization: ESI
Precursor m/z: 260.0535
Precursor type: [M+H]+
m/z	relative intensity
126.0558	120
260.0535	999
