Mass spectrum: Isorhamnetin-3-Glucoside-4'-Glucoside; LC-ESI-QTOF; MS2; CE:Ramp 5-60 V; [M-1]-
Name: Isorhamnetin-3-Glucoside-4'-Glucoside
Name: Isor-3-Glc-4'-Glc
Name: Isorhamnetin 3,4'-diglucoside
Name: Dactylin
Name: Dactilin
Class: Flavonoid
Formula: C28H32O17
Exact mass: 640.16395
SMILES: c(c1)(c(C4=O)c(OC(=C4OC(O5)C(O)C(O)C(O)C5CO)c(c3)cc(OC)c(c3)OC(O2)C(O)C(O)C(O)C2CO)cc(O)1)O
InChI: InChI=1S/C28H32O17/c1-40-13-4-9(2-3-12(13)42-27-23(38)21(36)18(33)15(7-29)43-27)25-26(20(35)17-11(32)5-10(31)6-14(17)41-25)45-28-24(39)22(37)19(34)16(8-30)44-28/h2-6,15-16,18-19,21-24,27-34,36-39H,7-8H2,1H3/t15-,16-,18-,19-,21+,22+,23-,24-,27-,28+/m1/s1
Instrument: UPLC Q-Tof Premier, Waters
Instrument type: LC-ESI-QTOF
Ms type: MS2
Ion mode: NEGATIVE
Collision energy: Ramp 5-60 V
Ionization: ESI
Precursor m/z: 639.1561
Precursor type: [M-H]-
m/z	relative intensity
243.0271	86
255.0282	73
271.0252	172
299.0206	275
300.0261	266
314.0442	316
315.0506	774
316.0539	103
623.1612	999
624.1628	246
