Mass spectrum: Benzamidine; LC-ESI-QTOF; MS2; CE:Ramp 5-60 V; [M+H]+
Name: Benzamidine
Name: Amidinobenzene
Name: Benzamidinium chloride
Name: Benzenecarboximidamide
Class: Amidine
Formula: C7H8N2
Exact mass: 120.06875
SMILES: NC(=N)c(c1)cccc1
InChI: InChI=1S/C7H8N2/c8-7(9)6-4-2-1-3-5-6/h1-5H,(H3,8,9)
Instrument: UPLC Q-Tof Premier, Waters
Instrument type: LC-ESI-QTOF
Ms type: MS2
Ion mode: POSITIVE
Collision energy: Ramp 5-60 V
Ionization: ESI
Precursor m/z: 121.07654
Precursor type: [M+H]+
m/z	relative intensity
104.0497	21
121.0172	17
121.0765	999
