Mass spectrum: alpha-Methyl-DL-histidine; LC-ESI-QTOF; MS2; CE:Ramp 5-60 V; [M-H]-
Name: alpha-Methyl-DL-histidine
Name: alpha-Me-His
Name: N-alpha-Methylhistidine
Class: Amino acids
Formula: C7H11N3O2
Exact mass: 169.08513
SMILES: CC(CC1=CN=CN1)(C(=O)O)N
InChI: InChI=1S/C7H11N3O2/c1-7(8,6(11)12)2-5-3-9-4-10-5/h3-4H,2,8H2,1H3,(H,9,10)(H,11,12)
Instrument: UPLC Q-Tof Premier, Waters
Instrument type: LC-ESI-QTOF
Ms type: MS2
Ion mode: NEGATIVE
Collision energy: Ramp 5-60 V
Ionization: ESI
Precursor m/z: 168.07732
Precursor type: [M-H]-
m/z	relative intensity
80.0389	86
81.0468	71
86.0258	114
107.0618	512
122.0723	51
124.0887	110
151.0515	64
168.0773	999
