Mass spectrum: Pyridoxamine; LC-ESI-QTOF; MS2; CE:Ramp 5-60 V; [M+H]+
Name: Pyridoxamine
Name: Pyridoxylamine
Name: 4-(Aminomethyl)-5-hydroxy-6-methyl-3-pyridinemethanol
Class: Thiamine
Formula: C8H12N2O2
Exact mass: 168.08988
SMILES: OCc(c1)c(CN)c(O)c(C)n1
InChI: InChI=1S/C8H12N2O2/c1-5-8(12)7(2-9)6(4-11)3-10-5/h3,11-12H,2,4,9H2,1H3
Instrument: UPLC Q-Tof Premier, Waters
Instrument type: LC-ESI-QTOF
Ms type: MS2
Ion mode: POSITIVE
Collision energy: Ramp 5-60 V
Ionization: ESI
Precursor m/z: 169.09767
Precursor type: [M+H]+
m/z	relative intensity
152.0691	163
169.0946	999
