Mass spectrum: Guanosine; LC-ESI-QTOF; MS2; CE:30 V; [M+H]+
Name: Guanosine
Name: GR
Name: Guanidine
Name: Guanine Riboside
Name: Vernine
Name: 9-(beta-D-Ribofuranosyl)guanine
Name: Guanine-9-beta-D-ribofuranoside
Class: Nucleoside
Formula: C10H13N5O5
Exact mass: 283.09167
SMILES: OC[C@@H](O1)[C@@H](O)[C@@H](O)[C@@H]1n(c3)c(N=2)c(n3)C(=O)NC(N)2
InChI: InChI=1S/C10H13N5O5/c11-10-13-7-4(8(19)14-10)12-2-15(7)9-6(18)5(17)3(1-16)20-9/h2-3,5-6,9,16-18H,1H2,(H3,11,13,14,19)/t3-,5-,6-,9-/m1/s1
Instrument: UPLC Q-Tof Premier, Waters
Instrument type: LC-ESI-QTOF
Ms type: MS2
Ion mode: POSITIVE
Collision energy: 30 V
Ionization: ESI
Precursor m/z: 284.09946
Precursor type: [M+H]+
m/z	relative intensity
152.0615	999
283.9937	34
284.0132	34
284.0995	319
