Mass spectrum: 3-Methyladenine; LC-ESI-QTOF; MS2; CE:30 V; [M+H]+
Name: 3-Methyladenine
Name: 6-Amino-3-methylpurine
Class: Adenine
Formula: C6H7N5
Exact mass: 149.07015
SMILES: CN(C=1)C(=N2)C(N=C2)=C(N)N1
InChI: InChI=1S/C6H7N5/c1-11-3-10-5(7)4-6(11)9-2-8-4/h2-3H,7H2,1H3
Instrument: UPLC Q-Tof Premier, Waters
Instrument type: LC-ESI-QTOF
Ms type: MS2
Ion mode: POSITIVE
Collision energy: 30 V
Ionization: ESI
Precursor m/z: 150.07794
Precursor type: [M+H]+
m/z	relative intensity
123.0651	72
150.0779	999
