Mass spectrum: D-Carnitine; LC-ESI-QTOF; MS2; CE:Ramp 5-60 V; [M+H]+
Name: D-Carnitine
Name: D-Vitamin BT
Name: beta-Hydroxy-gamma-trimethylaminobutyric Acid
Class: Carnitine
Formula: C7H15NO3
Exact mass: 161.10519
SMILES: [O-1]C(=O)C[C@H](O)C[N+1](C)(C)C
InChI: InChI=1S/C7H15NO3/c1-8(2,3)5-6(9)4-7(10)11/h6,9H,4-5H2,1-3H3/t6-/m0/s1
Instrument: UPLC Q-Tof Premier, Waters
Instrument type: LC-ESI-QTOF
Ms type: MS2
Ion mode: POSITIVE
Collision energy: Ramp 5-60 V
Ionization: ESI
Precursor m/z: 162.11299
Precursor type: [M+H]+
m/z	relative intensity
103.0409	17
162.1130	999
