Mass spectrum: Indole-3-carboxyaldehyde; LC-ESI-QTOF; MS2; CE:Ramp 5-60 V; [M+H]+
Name: Indole-3-carboxyaldehyde
Name: Indole-3-aldehyde
Name: 3-Formylindole
Name: 1H-indole-3-carbaldehyde
Name: beta-Indolylaldehyde
Class: Indole
Formula: C9H7NO
Exact mass: 145.05276
SMILES: C1=CC=C2C(=C1)C(=CN2)C=O
InChI: InChI=1S/C9H7NO/c11-6-7-5-10-9-4-2-1-3-8(7)9/h1-6,10H
Instrument: UPLC Q-Tof Premier, Waters
Instrument type: LC-ESI-QTOF
Ms type: MS2
Ion mode: POSITIVE
Collision energy: Ramp 5-60 V
Ionization: ESI
Precursor m/z: 146.06056
Precursor type: [M+H]+
m/z	relative intensity
65.0400	28
89.0403	27
90.0485	36
91.0556	509
117.0590	177
118.0652	999
146.0606	346
