Mass spectrum: N,N-Dimethylformamide; LC-ESI-QTOF; MS2; CE:Ramp 5-60 V; [M+H]+
Name: N,N-Dimethylformamide
Name: DMF
Name: DMFA
Name: N,N-Dimethylmethanamide
Name: Formyldimethylamine
Name: Formic acid dimethylamide
Name: N,N-Dimethylformamide(DMF)
Class: Amidine
Formula: C3H7NO
Exact mass: 73.05276
SMILES: [H]C(=O)N(C)C
InChI: InChI=1S/C3H7NO/c1-4(2)3-5/h3H,1-2H3
Instrument: UPLC Q-Tof Premier, Waters
Instrument type: LC-ESI-QTOF
Ms type: MS2
Ion mode: POSITIVE
Collision energy: Ramp 5-60 V
Ionization: ESI
Precursor m/z: 74.06056
Precursor type: [M+H]+
m/z	relative intensity
74.0606	999
90.5199	23
99.5101	32
