Mass spectrum: 5-Aminoimidazole-4-carboxamide-1-beta-D-ribofuranosyl 5'-monophosphate; LC-ESI-QTOF; MS2; CE:Ramp 5-60 V; [M-H]-
Name: 5-Aminoimidazole-4-carboxamide-1-beta-D-ribofuranosyl 5'-monophosphate
Name: ZMP
Name: AICAR
Name: AICAR monophosphate
Name: Z-nucleotide
Name: AICAriboside 5'-monophosphate
Name: N1-(beta-D-5'-Phosphoribofuranosyl)-5-aminoimidazole-4-carboxamide
Name: 5-Phosphoribosyl-4-carbamoyl-5-aminoimidazole
Name: 5'-Phospho-ribosyl-5-amino-4-imidazole carboxamide
Name: 1-(5'-Phosphoribosyl)-5-amino-4-imidazolecarboxamide
Name: 5'-Phosphoribosyl-5-amino-4-imidazolecarboxamide
Class: Natural Product; Carbohydrate; Phosphates
Formula: C9H15N4O8P
Exact mass: 338.06275
SMILES: NC(=O)c(n2)c(N)n(c2)[C@H](O1)[C@H](O)[C@H](O)[C@@H](COP(O)(O)=O)1
InChI: InChI=1S/C9H15N4O8P/c10-7-4(8(11)16)12-2-13(7)9-6(15)5(14)3(21-9)1-20-22(17,18)19/h2-3,5-6,9,14-15H,1,10H2,(H2,11,16)(H2,17,18,19)/t3-,5-,6-,9-/m1/s1
Instrument: UPLC Q-Tof Premier, Waters
Instrument type: LC-ESI-QTOF
Ms type: MS2
Ion mode: NEGATIVE
Collision energy: Ramp 5-60 V
Ionization: ESI
Precursor m/z: 337.05495
Precursor type: [M-H]-
m/z	relative intensity
78.9601	999
96.9702	451
125.0471	206
337.0550	671
