Mass spectrum: L-beta-Homotryptophan; LC-ESI-QTOF; MS2; CE:Ramp 5-60 V; [M-H]-
Name: L-beta-Homotryptophan
Name: (S)-3-Amino-4-(3-indolyl)butyric acid
Class: Amino acids
Formula: C12H14N2O2
Exact mass: 218.10553
SMILES: C1=CC=C2C(=C1)C(=CN2)C[C@@H](CC(=O)O)N
InChI: InChI=1S/C12H14N2O2/c13-9(7-12(15)16)6-10-5-8-3-1-2-4-11(8)14-10/h1-5,9,14H,6-7,13H2,(H,15,16)/t9-/m0/s1
Instrument: UPLC Q-Tof Premier, Waters
Instrument type: LC-ESI-QTOF
Ms type: MS2
Ion mode: NEGATIVE
Collision energy: Ramp 5-60 V
Ionization: ESI
Precursor m/z: 217.09772
Precursor type: [M-H]-
m/z	relative intensity
156.0819	999
157.0767	271
200.0708	150
217.0977	842
