Mass spectrum: 3-Hydroxymandelic acid; LC-ESI-QTOF; MS2; CE:Ramp 5-60 V; [M-H]-
Name: 3-Hydroxymandelic acid
Name: 3-Hydroxymandelate
Name: m-Hydroxymandelic Acid
Name: 3-Hydroxyphenylglycolic acid
Class: Carboxylic acids
Formula: C8H8O4
Exact mass: 168.04226
SMILES: OC(=O)C(O)c(c1)cc(O)cc1
InChI: InChI=1S/C8H8O4/c9-6-3-1-2-5(4-6)7(10)8(11)12/h1-4,7,9-10H,(H,11,12)
Instrument: UPLC Q-Tof Premier, Waters
Instrument type: LC-ESI-QTOF
Ms type: MS2
Ion mode: NEGATIVE
Collision energy: Ramp 5-60 V
Ionization: ESI
Precursor m/z: 167.03446
Precursor type: [M-H]-
m/z	relative intensity
121.0287	999
123.0441	235
167.0345	122
