Mass spectrum: (S)-(+)-Citramailc acid; LC-ESI-QTOF; MS2; CE:Ramp 5-60 V; [M-H]-
Name: (S)-(+)-Citramailc acid
Name: L-Citramalate
Name: (S)-2-Hydroxy-2-methylsuccinic acid
Name: 2-Hydroxy-2-methylbutanedioic acid
Name: 2-Methylmalic acid
Name: L-(+)-2-Methylmalic acid
Name: S-alpha-Hydroxypyrotartaric acid
Class: Carboxylic acids
Formula: C5H8O5
Exact mass: 148.03717
SMILES: OC(=O)CC(C)(O)C(O)=O
InChI: InChI=1S/C5H8O5/c1-5(10,4(8)9)2-3(6)7/h10H,2H2,1H3,(H,6,7)(H,8,9)/t5-/m0/s1
Instrument: UPLC Q-Tof Premier, Waters
Instrument type: LC-ESI-QTOF
Ms type: MS2
Ion mode: NEGATIVE
Collision energy: Ramp 5-60 V
Ionization: ESI
Precursor m/z: 147.02937
Precursor type: [M-H]-
m/z	relative intensity
85.0298	507
87.0092	884
129.0189	178
146.8984	389
147.0294	999
