Mass spectrum: Cyanidin-3-glucoside; LC-ESI-QTOF; MS2; CE:Ramp 5-60 V; [M-2H]-
Name: Cyanidin-3-glucoside
Name: Cynd-3-Glc
Name: Kuromanin
Name: Asterin
Name: Chrysanthemin
Name: Chrysontemin
Name: Glucocyanidin
Name: Cyanidin 3-beta-glucopyranoside
Name: 3,3',4',5,7-Pentahydroxyflavylium, 3-glucoside
Class: Anthocyanidin
Formula: [C21H21O11]+
Exact mass: 449.10839
SMILES: OC[C@@H](O1)[C@@H](O)[C@H](O)[C@@H](O)[C@@H]1Oc(c3)c([o+1]c(c4)c(c(O)cc(O)4)3)c(c2)cc(O)c(O)c2
InChI: InChI=1S/C21H20O11/c22-7-16-17(27)18(28)19(29)21(32-16)31-15-6-10-12(25)4-9(23)5-14(10)30-20(15)8-1-2-11(24)13(26)3-8/h1-6,16-19,21-22,27-29H,7H2,(H3-,23,24,25,26)/p+1/t16-,17-,18+,19-,21-/m1/s1
Instrument: UPLC Q-Tof Premier, Waters
Instrument type: LC-ESI-QTOF
Ms type: MS2
Ion mode: NEGATIVE
Collision energy: Ramp 5-60 V
Ionization: ESI
Precursor m/z: 447.09276
Precursor type: [M-2H]-
m/z	relative intensity
147.0088	150
211.0405	117
227.0361	98
255.0309	194
256.0388	98
283.0253	122
284.0334	999
285.0409	693
447.0928	673
