Mass spectrum: Procyanidin B1; LC-ESI-QTOF; MS2; CE:Ramp 5-60 V; [M-H]-
Name: Procyanidin B1
Name: (-)-Epicatechin-(4-beta-8)-(+)-catechin
Name: cis,trans''-4,8''-Bi-(3,3',4',5,7-pentahydroxyflavane)
Class: Flavonoid
Formula: C30H26O12
Exact mass: 578.14243
SMILES: c(O)(c1)c(cc(C(C(O)2)Oc(c3C(c65)C(O)C(Oc5cc(O)cc6O)c(c4)cc(c(O)c4)O)c(c(cc(O)3)O)C2)c1)O
InChI: InChI=1S/C30H26O12/c31-13-7-20(37)24-23(8-13)41-29(12-2-4-16(33)19(36)6-12)27(40)26(24)25-21(38)10-17(34)14-9-22(39)28(42-30(14)25)11-1-3-15(32)18(35)5-11/h1-8,10,22,26-29,31-40H,9H2/t22-,26+,27+,28+,29+/m0/s1
Instrument: UPLC Q-Tof Premier, Waters
Instrument type: LC-ESI-QTOF
Ms type: MS2
Ion mode: NEGATIVE
Collision energy: Ramp 5-60 V
Ionization: ESI
Precursor m/z: 577.13462
Precursor type: [M-H]-
m/z	relative intensity
109.0306	126
123.0457	100
125.0250	914
137.0251	188
151.0413	124
161.0254	297
175.0413	91
203.0722	126
205.0522	106
245.0832	209
287.0585	131
289.0739	850
407.0797	750
425.0901	396
451.1057	173
577.1346	999
