Mass spectrum: Indoleacetic acid; LC-ESI-QTOF; MS2; CE:Ramp 5-60 V; [M-H]-
Name: 3-Indoleacetic acid
Name: IAA
Name: 3-IAA
Name: Indoleacetate
Name: Indole-3-acetic acid
Name: Heteroauxin
Name: Rhizopin
Name: omega-Skatole carboxylic acid
Name: Rhizopon A
Name: Indoleacetic acid
Class: Indole
Formula: C10H9NO2
Exact mass: 175.06333
SMILES: C1=CC=C2C(=C1)C(=CN2)CC(=O)O
InChI: InChI=1S/C10H9NO2/c12-10(13)5-7-6-11-9-4-2-1-3-8(7)9/h1-4,6,11H,5H2,(H,12,13)
Instrument: UPLC Q-Tof Premier, Waters
Instrument type: LC-ESI-QTOF
Ms type: MS2
Ion mode: NEGATIVE
Collision energy: Ramp 5-60 V
Ionization: ESI
Precursor m/z: 174.05553
Precursor type: [M-H]-
m/z	relative intensity
128.0507	173
130.0664	999
143.8976	88
174.0555	388
