Mass spectrum: (R)-3-Amino-4-hydroxybutyric acid; LC-ESI-QTOF; MS2; CE:Ramp 5-60 V; [M+H]+
Name: L-beta-Homoserine
Name: (R)-3-Amino-4-hydroxybutyric acid
Name: L-beta-homoserine [(R)-3-Amino-4-hydroxy-butyric acid (+)]
Class: Amino acids
Formula: C4H9NO3
Exact mass: 119.05824
SMILES: OCC(N)CC(O)=O
InChI: InChI=1S/C4H9NO3/c5-3(2-6)1-4(7)8/h3,6H,1-2,5H2,(H,7,8)/t3-/m1/s1
Instrument: UPLC Q-Tof Premier, Waters
Instrument type: LC-ESI-QTOF
Ms type: MS2
Ion mode: POSITIVE
Collision energy: Ramp 5-60 V
Ionization: ESI
Precursor m/z: 120.06604
Precursor type: [M+H]+
m/z	relative intensity
60.0453	999
84.0450	343
102.0552	777
120.0660	590
