Mass spectrum: Xanthosine-5'-monophosphate; LC-ESI-QTOF; MS2; CE:Ramp 5-60 V; [M-H]-
Name: Xanthosine-5'-monophosphate
Name: XMP
Name: Xanthylic acid
Name: (9-D-Ribosylxanthine)-5'-phosphate
Class: Natural Product; Nucleoside; Phosphates
Formula: C10H13N4O9P
Exact mass: 364.04201
SMILES: O=C(N3)Nc(c2C(=O)3)n(cn2)[C@H](O1)[C@H](O)[C@H](O)[C@@H](COP(O)(O)=O)1
InChI: InChI=1S/C10H13N4O9P/c15-5-3(1-22-24(19,20)21)23-9(6(5)16)14-2-11-4-7(14)12-10(18)13-8(4)17/h2-3,5-6,9,15-16H,1H2,(H2,19,20,21)(H2,12,13,17,18)/t3-,5-,6-,9-/m1/s1
Instrument: UPLC Q-Tof Premier, Waters
Instrument type: LC-ESI-QTOF
Ms type: MS2
Ion mode: NEGATIVE
Collision energy: Ramp 5-60 V
Ionization: ESI
Precursor m/z: 363.03421
Precursor type: [M-H]-
m/z	relative intensity
78.9602	691
96.9700	444
108.0205	259
120.9695	51
151.0260	999
211.0015	922
363.0342	665
