Mass spectrum: Amantadine; LC-ESI-QTOF; MS2; CE:30 V; [M+H]+
Name: Amantadine
Name: 1-Adamantanamine
Name: 1-Adamantylamine
Name: 1-Aminoadamantane
Name: Tricyclodecane
Name: Amazolon
Name: Mantadine
Name: Mantadix
Name: Midantan
Name: Symadine
Name: Symmetrel
Name: Virofral
Name: Virasol
Class: Adamantane
Formula: C10H17N
Exact mass: 151.13610
SMILES: NC(C3)(C1)CC(C2)CC(CC23)1
InChI: InChI=1S/C10H17N/c11-10-4-7-1-8(5-10)3-9(2-7)6-10/h7-9H,1-6,11H2
Instrument: UPLC Q-Tof Premier, Waters
Instrument type: LC-ESI-QTOF
Ms type: MS2
Ion mode: POSITIVE
Collision energy: 30 V
Ionization: ESI
Precursor m/z: 152.14389
Precursor type: [M+H]+
m/z	relative intensity
135.1189	895
152.1095	57
152.1439	999
