Mass spectrum: 1-Aminocyclopropane-1-carboxylic acid; LC-ESI-QTOF; MS2; CE:Ramp 5-60 V; [M-H]-
Name: 1-Aminocyclopropane-1-carboxylic acid
Name: ACPC
Name: 1-Aminocyclopropanecarboxylic acid
Class: Amino acids
Formula: C4H7NO2
Exact mass: 101.04768
SMILES: OC(=O)C(N)(C1)C1
InChI: InChI=1S/C4H7NO2/c5-4(1-2-4)3(6)7/h1-2,5H2,(H,6,7)
Instrument: UPLC Q-Tof Premier, Waters
Instrument type: LC-ESI-QTOF
Ms type: MS2
Ion mode: NEGATIVE
Collision energy: Ramp 5-60 V
Ionization: ESI
Precursor m/z: 100.03988
Precursor type: [M-H]-
m/z	relative intensity
99.9251	131
100.0399	999
