Mass spectrum: L-Norvaline; LC-ESI-QTOF; MS2; CE:Ramp 5-60 V; [M+H]+
Name: L-Norvaline
Name: Nva
Name: L-2-Aminovaleric acid
Name: (S)-(+)-2-Aminopentanoic acid
Name: (S)-2-Aminovaleric acid
Class: Amino acids
Formula: C5H11NO2
Exact mass: 117.07898
SMILES: CCC[C@H](N)C(O)=O
InChI: InChI=1S/C5H11NO2/c1-2-3-4(6)5(7)8/h4H,2-3,6H2,1H3,(H,7,8)/t4-/m0/s1
Instrument: UPLC Q-Tof Premier, Waters
Instrument type: LC-ESI-QTOF
Ms type: MS2
Ion mode: POSITIVE
Collision energy: Ramp 5-60 V
Ionization: ESI
Precursor m/z: 118.08677
Precursor type: [M+H]+
m/z	relative intensity
72.0813	999
118.0868	72
