Mass spectrum: 4-Methylumbelliferone; LC-ESI-QTOF; MS2; CE:Ramp 5-60 V; [M-H]-
Name: 7-Hydroxy-4-methylcoumarin
Name: 4-MU
Name: 4-Methylumbelliferone
Name: beta-Methylumbelliferone
Name: Hymecromone
Name: Cholestil
Class: Coumarins
Formula: C10H8O3
Exact mass: 176.04734
SMILES: Oc(c2)cc(O1)c(c2)C(C)=CC(=O)1
InChI: InChI=1S/C10H8O3/c1-6-4-10(12)13-9-5-7(11)2-3-8(6)9/h2-5,11H,1H3
Instrument: UPLC Q-Tof Premier, Waters
Instrument type: LC-ESI-QTOF
Ms type: MS2
Ion mode: NEGATIVE
Collision energy: Ramp 5-60 V
Ionization: ESI
Precursor m/z: 175.03954
Precursor type: [M-H]-
m/z	relative intensity
119.0518	118
131.0520	128
133.0312	180
147.0468	110
175.0395	999
