Mass spectrum: DL-beta-Aminobutyric acid; LC-ESI-QTOF; MS2; CE:Ramp 5-60 V; [M+H]+
Name: DL-beta-Aminobutyric acid
Name: BABA
Name: DL-3-Aminobutyric acid
Name: 3-Aminobutanoic acid
Class: Carboxylic acids
Formula: C4H9NO2
Exact mass: 103.06333
SMILES: CC(N)CC(O)=O
InChI: InChI=1S/C4H9NO2/c1-3(5)2-4(6)7/h3H,2,5H2,1H3,(H,6,7)
Instrument: UPLC Q-Tof Premier, Waters
Instrument type: LC-ESI-QTOF
Ms type: MS2
Ion mode: POSITIVE
Collision energy: Ramp 5-60 V
Ionization: ESI
Precursor m/z: 104.07113
Precursor type: [M+H]+
m/z	relative intensity
99.5126	83
104.0711	999
