Mass spectrum: 5-Aminolevulinic acid; LC-ESI-QTOF; MS2; CE:Ramp 5-60 V; [M-H]-
Name: delta-Aminolevulinic acid
Name: ALA
Name: 5-Aminolevulinate
Name: 5-Amino-4-oxopentanoic acid
Name: 5-Amino-4-oxopentanoate
Name: 5-Aminolaevulinic acid
Name: Levulan
Name: Kerastick
Name: Aladerm
Name: 5-Aminolevulinic acid
Class: Amino acids
Formula: C5H9NO3
Exact mass: 131.05824
SMILES: NCC(=O)CCC(O)=O
InChI: InChI=1S/C5H9NO3/c6-3-4(7)1-2-5(8)9/h1-3,6H2,(H,8,9)
Instrument: UPLC Q-Tof Premier, Waters
Instrument type: LC-ESI-QTOF
Ms type: MS2
Ion mode: NEGATIVE
Collision energy: Ramp 5-60 V
Ionization: ESI
Precursor m/z: 130.05044
Precursor type: [M-H]-
m/z	relative intensity
112.0390	224
130.0504	999
