Mass spectrum: Adenosine 5'-diphospho-glucose; LC-ESI-QTOF; MS2; CE:30 V; [M+H]+
Name: Adenosine 5'-diphospho-glucose
Name: ADPG
Name: ADP-glc
Name: ADP-Glucose
Class: Nucleotide-carbohydrates
Formula: C16H25N5O15P2
Exact mass: 589.08224
SMILES: OC[C@@H](O1)[C@@H](O)[C@H](O)[C@@H](O)[C@H]1OP(O)(=O)OP(O)(=O)OC[C@@H](O2)[C@@H](O)[C@@H](O)[C@@H]2n(c4)c(n3)c(n4)c(N)nc3
InChI: InChI=1S/C16H25N5O15P2/c17-13-7-14(19-3-18-13)21(4-20-7)15-11(26)9(24)6(33-15)2-32-37(28,29)36-38(30,31)35-16-12(27)10(25)8(23)5(1-22)34-16/h3-6,8-12,15-16,22-27H,1-2H2,(H,28,29)(H,30,31)(H2,17,18,19)/t5-,6-,8-,9-,10+,11-,12-,15-,16-/m1/s1
Instrument: UPLC Q-Tof Premier, Waters
Instrument type: LC-ESI-QTOF
Ms type: MS2
Ion mode: POSITIVE
Collision energy: 30 V
Ionization: ESI
Precursor m/z: 590.09004
Precursor type: [M+H]+
m/z	relative intensity
428.0386	999
590.0900	475
590.1827	126
