Mass spectrum: Niacinamide; LC-ESI-QTOF; MS2; CE:30 V; [M+H]+
Name: Nicotinamide
Name: NAM
Name: Vitamin B3
Name: Vitamin PP
Name: Niacinamide
Name: Nicotinic acid amide
Name: Pyridine-3-carboxylic acid amide
Name: Amide PP
Name: Benicot
Name: Delonin amide
Name: Amnicotin
Name: Endobion
Name: Nicobion
Name: Pelonin amide
Name: 3-Pyridinecarboxamide
Class: Pyridines
Formula: C6H6N2O
Exact mass: 122.04801
SMILES: NC(=O)c(c1)cncc1
InChI: InChI=1S/C6H6N2O/c7-6(9)5-2-1-3-8-4-5/h1-4H,(H2,7,9)
Instrument: UPLC Q-Tof Premier, Waters
Instrument type: LC-ESI-QTOF
Ms type: MS2
Ion mode: POSITIVE
Collision energy: 30 V
Ionization: ESI
Precursor m/z: 123.05581
Precursor type: [M+H]+
m/z	relative intensity
78.0331	395
79.0411	70
80.0494	999
96.0460	106
123.0558	253
