Mass spectrum: Anthranilic acid; LC-ESI-QTOF; MS2; CE:Ramp 5-60 V; [M-H]-
Name: Anthranilic acid
Name: 2-AA
Name: o-Aminobenzoic acid
Name: Vitamin L1
Name: 2-Carboxyaniline
Name: 2-aminobenzoate
Class: Carboxylic acids
Formula: C7H7NO2
Exact mass: 137.04768
SMILES: OC(=O)c(c1)c(N)ccc1
InChI: InChI=1S/C7H7NO2/c8-6-4-2-1-3-5(6)7(9)10/h1-4H,8H2,(H,9,10)
Instrument: UPLC Q-Tof Premier, Waters
Instrument type: LC-ESI-QTOF
Ms type: MS2
Ion mode: NEGATIVE
Collision energy: Ramp 5-60 V
Ionization: ESI
Precursor m/z: 136.03988
Precursor type: [M-H]-
m/z	relative intensity
92.0509	999
136.0399	339
