Mass spectrum: Pyridoxal; LC-ESI-QTOF; MS2; CE:Ramp 5-60 V; [M-H]-
Name: Pyridoxal
Name: PL
Name: Vitamin B6
Name: Pyridoxaldehyde
Name: 3-Hydroxy-5-(hydroxymethyl)-2-methyl-4-pyridinecarboxaldehyde
Name: Hydroxy-5-hydroxymethyl-2-methylisonicotinaldehyde
Class: Thiamine
Formula: C8H9NO3
Exact mass: 167.05824
SMILES: OCc(c1)c(C=O)c(O)c(C)n1
InChI: InChI=1S/C8H9NO3/c1-5-8(12)7(4-11)6(3-10)2-9-5/h2,4,10,12H,3H2,1H3
Instrument: UPLC Q-Tof Premier, Waters
Instrument type: LC-ESI-QTOF
Ms type: MS2
Ion mode: NEGATIVE
Collision energy: Ramp 5-60 V
Ionization: ESI
Precursor m/z: 166.05044
Precursor type: [M-H]-
m/z	relative intensity
108.0449	999
136.0404	482
138.0553	888
166.0504	801
