Mass spectrum: Flavanomarein; LC-ESI-QTOF; MS2; CE:Ramp 5-60 V; [M-H]-
Name: Flavanomarein
Name: iOkn-7-Glc
Name: isookanin-7-glucoside
Name: iso-Okanin-7-glucoside
Name: 3',4',7,8-Tetrahydroxyflavanone-7-O-glucoside
Class: Flavonoid
Formula: C21H22O11
Exact mass: 450.11621
SMILES: OCC(O1)C(O)C(O)C(O)C1Oc(c4)c(O)c(O2)c(c4)C(=O)CC2c(c3)cc(O)c(O)c3
InChI: InChI=1S/C21H22O11/c22-7-15-16(26)18(28)19(29)21(32-15)31-13-4-2-9-11(24)6-14(30-20(9)17(13)27)8-1-3-10(23)12(25)5-8/h1-5,14-16,18-19,21-23,25-29H,6-7H2/t14-,15+,16+,18-,19+,21+/m0/s1
Instrument: UPLC Q-Tof Premier, Waters
Instrument type: LC-ESI-QTOF
Ms type: MS2
Ion mode: NEGATIVE
Collision energy: Ramp 5-60 V
Ionization: ESI
Precursor m/z: 449.10841
Precursor type: [M-H]-
m/z	relative intensity
135.0460	999
151.0043	563
269.0485	102
287.0574	480
449.1084	482
