Mass spectrum: Callistephin; LC-ESI-QTOF; MS2; CE:Ramp 5-60 V; [M-2H]-
Name: Callistephin
Name: Pelg-Glc
Name: Pelargonidin-3-O-glucoside
Name: pelargonidin 3-O-beta-d-glucopyranoside
Name: 3-(Glucosyloxy)-4',5,7-trihydroxyflavylium
Class: Anthocyanidin
Formula: [C21H21O10]+
Exact mass: 433.11347
SMILES: OCC(O1)C(O)C(O)C(O)C1Oc(c3)c([o+1]c(c4)c(c(O)cc(O)4)3)c(c2)ccc(O)c2
InChI: InChI=1S/C21H20O10/c22-8-16-17(26)18(27)19(28)21(31-16)30-15-7-12-13(25)5-11(24)6-14(12)29-20(15)9-1-3-10(23)4-2-9/h1-7,16-19,21-22,26-28H,8H2,(H2-,23,24,25)/p+1/t16-,17-,18+,19-,21-/m1/s1
Instrument: UPLC Q-Tof Premier, Waters
Instrument type: LC-ESI-QTOF
Ms type: MS2
Ion mode: NEGATIVE
Collision energy: Ramp 5-60 V
Ionization: ESI
Precursor m/z: 431.09784
Precursor type: [M-2H]-
m/z	relative intensity
147.0082	195
148.0172	85
195.0465	73
196.0528	52
211.0396	68
224.0474	100
239.0361	102
240.0440	75
241.0509	94
268.0385	674
269.0459	999
431.0978	440
