Mass spectrum: Uracil; LC-ESI-QTOF; MS2; CE:Ramp 5-60 V; [M-H]-
Name: Uracil
Name: 2,4-Dihydroxypyrimidine
Name: 2,4(1H,3H)-Pyrimidinedione
Name: 2,4-Pyrimidinediol
Class: Pyrimidines
Formula: C4H4N2O2
Exact mass: 112.02728
SMILES: O=C(C=1)NC(=O)NC1
InChI: InChI=1S/C4H4N2O2/c7-3-1-2-5-4(8)6-3/h1-2H,(H2,5,6,7,8)
Instrument: UPLC Q-Tof Premier, Waters
Instrument type: LC-ESI-QTOF
Ms type: MS2
Ion mode: NEGATIVE
Collision energy: Ramp 5-60 V
Ionization: ESI
Precursor m/z: 111.01948
Precursor type: [M-H]-
m/z	relative intensity
111.0195	999
