Mass spectrum: Baicalin; LC-ESI-QTOF; MS2; CE:Ramp 5-60 V; [M+H]+
Name: Baicalin
Name: Baic-7-GlcA
Name: baicalein-7-O-glucuronide
Name: Baicalein 7beta-D-Glucopyranosiduronate
Class: Flavonoid
Formula: C21H18O11
Exact mass: 446.08491
SMILES: OC(=O)[C@@H](O1)[C@@H](O)[C@H](O)[C@@H](O)[C@@H]1Oc(c2)c(O)c(O)c(C(=O)3)c(OC(c(c4)cccc4)=C3)2
InChI: InChI=1S/C21H18O11/c22-9-6-10(8-4-2-1-3-5-8)30-11-7-12(14(23)15(24)13(9)11)31-21-18(27)16(25)17(26)19(32-21)20(28)29/h1-7,16-19,21,23-27H,(H,28,29)/t16-,17-,18+,19-,21+/m0/s1
Instrument: UPLC Q-Tof Premier, Waters
Instrument type: LC-ESI-QTOF
Ms type: MS2
Ion mode: POSITIVE
Collision energy: Ramp 5-60 V
Ionization: ESI
Precursor m/z: 447.09271
Precursor type: [M+H]+
m/z	relative intensity
123.0098	112
271.0619	999
447.0927	102
