Mass spectrum: Isonicotinic acid; LC-ESI-QTOF; MS2; CE:Ramp 5-60 V; [M-H]-
Name: Isonicotinic acid
Name: INA
Name: 4-Picolinic acid
Name: 4-Pyridinecarboxylic Acid
Name: 4-Carboxypyridine
Class: Carboxylic acids
Formula: C6H5NO2
Exact mass: 123.03203
SMILES: OC(=O)c(c1)ccnc1
InChI: InChI=1S/C6H5NO2/c8-6(9)5-1-3-7-4-2-5/h1-4H,(H,8,9)
Instrument: UPLC Q-Tof Premier, Waters
Instrument type: LC-ESI-QTOF
Ms type: MS2
Ion mode: NEGATIVE
Collision energy: Ramp 5-60 V
Ionization: ESI
Precursor m/z: 122.02423
Precursor type: [M-H]-
m/z	relative intensity
78.0353	999
122.0242	438
