Mass spectrum: Quercitrin; LC-ESI-QTOF; MS2; CE:Ramp 5-60 V; [M-H]-
Name: Quercetin-3-O-alpha-L-rhamnopyranoside
Name: Quercetin-3-Rhamnoside
Name: Quer-3-Rha
Name: Quercitrin
Name: thujin
Name: Quercetrin
Name: Quercimelin
Name: Quercitroside
Name: quercetin-3-O-rhamnoside
Name: Quercetin- 3-(6-deoxy-alpha-L-mannopyranoside)
Name: 3,3',4',5,7-Pentahydroxyflavone-3-L-rhamnoside
Class: Flavonoid
Formula: C21H20O11
Exact mass: 448.10056
SMILES: Oc(c4)c(O)cc(c4)C(O1)=C(O[C@H](O3)[C@H](O)[C@H](O)[C@@H](O)[C@H](C)3)C(=O)c(c(O)2)c(cc(O)c2)1
InChI: InChI=1S/C21H20O11/c1-7-15(26)17(28)18(29)21(30-7)32-20-16(27)14-12(25)5-9(22)6-13(14)31-19(20)8-2-3-10(23)11(24)4-8/h2-7,15,17-18,21-26,28-29H,1H3/t7-,15-,17+,18+,21-/m0/s1
Instrument: UPLC Q-Tof Premier, Waters
Instrument type: LC-ESI-QTOF
Ms type: MS2
Ion mode: NEGATIVE
Collision energy: Ramp 5-60 V
Ionization: ESI
Precursor m/z: 447.09276
Precursor type: [M-H]-
m/z	relative intensity
151.0051	194
179.0007	93
243.0323	199
255.0327	371
271.0276	726
300.0298	999
301.0385	766
447.0928	900
