Mass spectrum: 3-Methylxanthine; LC-ESI-QTOF; MS2; CE:Ramp 5-60 V; [M+H]+
Name: 3-Methylxanthine
Name: 3-MX
Name: 2,6-Dihydroxy-3-methylpurine
Name: 3,7-dihydro-3-methyl-1H-purine-2,6-dione
Class: Purines
Formula: C6H6N4O2
Exact mass: 166.04908
SMILES: CN1C2=C(C(=O)NC1=O)NC=N2
InChI: InChI=1S/C6H6N4O2/c1-10-4-3(7-2-8-4)5(11)9-6(10)12/h2H,1H3,(H,7,8)(H,9,11,12)
Instrument: UPLC Q-Tof Premier, Waters
Instrument type: LC-ESI-QTOF
Ms type: MS2
Ion mode: POSITIVE
Collision energy: Ramp 5-60 V
Ionization: ESI
Precursor m/z: 167.05687
Precursor type: [M+H]+
m/z	relative intensity
69.0459	68
94.0422	48
96.0565	152
123.0682	67
124.0517	493
133.0145	33
149.0473	242
167.0569	999
