Mass spectrum: Adenine; LC-ESI-QTOF; MS2; CE:Ramp 5-60 V; [M+H]+
Name: Adenine
Name: 6-AP
Name: ADE
Name: 6-Aminopurine
Name: Vitamin B4
Name: Adeninimine
Name: Leucon
Name: 1,6-Dihydro-6-iminopurine
Class: Adenine
Formula: C5H5N5
Exact mass: 135.05450
SMILES: C1=NC2=C(N1)C(=NC=N2)N
InChI: InChI=1S/C5H5N5/c6-4-3-5(9-1-7-3)10-2-8-4/h1-2H,(H3,6,7,8,9,10)
Instrument: UPLC Q-Tof Premier, Waters
Instrument type: LC-ESI-QTOF
Ms type: MS2
Ion mode: POSITIVE
Collision energy: Ramp 5-60 V
Ionization: ESI
Precursor m/z: 136.06229
Precursor type: [M+H]+
m/z	relative intensity
135.9462	10
136.0623	999
