Mass spectrum: But-3-enylglucosinolate; LC-ESI-QTOF; MS2; CE:Ramp 5-60 V; [M+K]+
Name: But-3-enylglucosinolate
Name: Gluconapin
Name: Butenyl glucosinolate
Name: 3-butenylglucosinolate
Class: Alkenylglucosinolate
Formula: C11H19NO9S2
Exact mass: 373.05012
SMILES: C=CCCC(=NOS(O)(=O)=O)SC(O1)C(O)C(O)C(O)C(CO)1
InChI: InChI=1S/C11H19NO9S2/c1-2-3-4-7(12-21-23(17,18)19)22-11-10(16)9(15)8(14)6(5-13)20-11/h2,6,8-11,13-16H,1,3-5H2,(H,17,18,19)/b12-7+/t6-,8-,9+,10-,11+/m1/s1
Instrument: UPLC Q-Tof Premier, Waters
Instrument type: LC-ESI-QTOF
Ms type: MS2
Ion mode: POSITIVE
Collision energy: Ramp 5-60 V
Ionization: ESI
Derivative form: C11H19NO9S2.K.H2O
Derivative mass: 429.51
Precursor m/z: 412.0138
Precursor type: [M+K]+
m/z	relative intensity
98.9568	833
99.4915	187
105.0457	104
121.0397	213
122.9314	93
158.9632	392
314.8909	373
331.9902	695
411.0060	423
411.0872	999
411.9225	377
412.0154	469
412.0853	323
