Mass spectrum: 3-Hydroxy-DL-kynurenine; LC-ESI-QTOF; MS2; CE:Ramp 5-60 V; [M+H]+
Name: 3-Hydroxy-DL-kynurenine
Name: DL-3-Hydroxykynurenine
Name: alpha,2-Diamino-3-hydroxy-gamma-oxobenzenebutanoic acid
Name: 3-(3-hydroxyanthraniloyl)alanine
Class: Amino acids
Formula: C10H12N2O4
Exact mass: 224.07971
SMILES: OC(=O)C(N)CC(=O)c(c1)c(N)c(O)cc1
InChI: InChI=1S/C10H12N2O4/c11-6(10(15)16)4-8(14)5-2-1-3-7(13)9(5)12/h1-3,6,13H,4,11-12H2,(H,15,16)
Instrument: UPLC Q-Tof Premier, Waters
Instrument type: LC-ESI-QTOF
Ms type: MS2
Ion mode: POSITIVE
Collision energy: Ramp 5-60 V
Ionization: ESI
Precursor m/z: 225.0875
Precursor type: [M+H]+
m/z	relative intensity
208.0697	116
224.0759	133
225.0875	999
