Mass spectrum: Harmaline; LC-ESI-QTOF; MS2; CE:30 V; [M+H]+
Name: Harmaline
Name: Dihydroharmine
Name: Harmidine
Name: 1-Methyl-7-methoxy-3,4-dihydro-beta-carboline
Name: Harmalol methyl ether
Formula: C13H14N2O
Exact mass: 214.11061
SMILES: COc(c3)cc(=N1)c(c3)=C(C2)C(=C(C)NC2)1
InChI: InChI=1S/C13H14N2O/c1-8-13-11(5-6-14-8)10-4-3-9(16-2)7-12(10)15-13/h3-4,7,14H,5-6H2,1-2H3
Instrument: UPLC Q-Tof Premier, Waters
Instrument type: LC-ESI-QTOF
Ms type: MS2
Ion mode: POSITIVE
Collision energy: 30 V
Ionization: ESI
Precursor m/z: 215.11841
Precursor type: [M+H]+
m/z	relative intensity
200.0910	60
215.1110	999
