Mass spectrum: Oxoglaucine; LC-ESI-QTOF; MS2; CE 10 ev; [M+H]+
Name: Oxoglaucine
Formula: C20H17NO5
Exact mass: 351.110673
SMILES: COC1=C(C2=C3C(=C1)C=CN=C3C(=O)C4=CC(=C(C=C42)OC)OC)OC
InChI: InChI=1S/C20H17NO5/c1-23-13-8-11-12(9-14(13)24-2)19(22)18-16-10(5-6-21-18)7-15(25-3)20(26-4)17(11)16/h5-9H,1-4H3
Instrument: Agilent 1200 RRLC; Agilent 6520 QTOF
Instrument type: LC-ESI-QTOF
Ms type: MS2
Ion mode: POSITIVE
Collision energy: 10 ev
Column name: Agilent C8 Cartridge Column 2.1X30mm 3.5 micron (guard); Agilent SB-Aq 2.1x50mm 1.8 micron (analytical)
Retention time: 9.152
Base peak: 352
Precursor m/z: 352.1180
Precursor type: [M+H]+
m/z	relative intensity
306.0744	56
322.0638	11
337.0852	19
337.1071	11
352.1143	999
