Mass spectrum: Psoralen; LC-ESI-QTOF; MS2; CE 20 ev; [M+H]+
Name: Psoralen
Formula: C11H6O3
Exact mass: 186.031694
SMILES: C1=CC(=O)OC2=CC3=C(C=CO3)C=C21
InChI: InChI=1S/C11H6O3/c12-11-2-1-7-5-8-3-4-13-9(8)6-10(7)14-11/h1-6H
Instrument: Agilent 1200 RRLC; Agilent 6520 QTOF
Instrument type: LC-ESI-QTOF
Ms type: MS2
Ion mode: POSITIVE
Collision energy: 20 ev
Column name: Agilent C8 Cartridge Column 2.1X30mm 3.5 micron (guard); Agilent SB-Aq 2.1x50mm 1.8 micron (analytical)
Retention time: 6.271
Base peak: 131
Precursor m/z: 187.0390
Precursor type: [M+H]+
m/z	relative intensity
102.049	19
103.0518	25
115.0544	557
131.0488	999
131.0751	14
131.1546	14
143.0492	157
158.0355	33
159.0454	47
187.0384	238
