Mass spectrum: Asiatic acid; LC-ESI-QTOF; MS2; CE 40 ev; [M-H]-
Name: Asiatic acid
Formula: C30H48O5
Exact mass: 488.350175
SMILES: C[C@@H]1CC[C@@]2(CC[C@@]3(C(=CC[C@H]4[C@]3(CC[C@@H]5[C@@]4(C[C@H]([C@@H]([C@@]5(C)CO)O)O)C)C)[C@@H]2[C@H]1C)C)C(=O)O
InChI: InChI=1S/C30H48O5/c1-17-9-12-30(25(34)35)14-13-28(5)19(23(30)18(17)2)7-8-22-26(3)15-20(32)24(33)27(4,16-31)21(26)10-11-29(22,28)6/h7,17-18,20-24,31-33H,8-16H2,1-6H3,(H,34,35)/t17-,18+,20-,21-,22-,23+,24+,26+,27+,28-,29-,30+/m1/s1
Instrument: Agilent 1200 RRLC; Agilent 6520 QTOF
Instrument type: LC-ESI-QTOF
Ms type: MS2
Ion mode: NEGATIVE
Collision energy: 40 ev
Column name: Agilent C8 Cartridge Column 2.1X30mm 3.5 micron (guard); Agilent SB-Aq 2.1x50mm 1.8 micron (analytical)
Retention time: 10.157
Base peak: 487
Precursor m/z: 487.3429
Precursor type: [M-H]-
m/z	relative intensity
130.6502	21
162.7214	13
241.217	15
271.0172	17
333.1672	23
347.9084	21
370.2877	16
391.0458	17
409.306	17
421.3083	19
487.3404	999
