Mass spectrum: Flindersine; LC-ESI-QTOF; MS2; CE 10 ev; [M-H]-
Name: Flindersine
Formula: C14H13NO2
Exact mass: 227.094629
SMILES: CC1(C=CC2=C(O1)C3=CC=CC=C3NC2=O)C
InChI: InChI=1S/C14H13NO2/c1-14(2)8-7-10-12(17-14)9-5-3-4-6-11(9)15-13(10)16/h3-8H,1-2H3,(H,15,16)
Instrument: Agilent 1200 RRLC; Agilent 6520 QTOF
Instrument type: LC-ESI-QTOF
Ms type: MS2
Ion mode: NEGATIVE
Collision energy: 10 ev
Column name: Agilent C8 Cartridge Column 2.1X30mm 3.5 micron (guard); Agilent SB-Aq 2.1x50mm 1.8 micron (analytical)
Retention time: 8.373
Base peak: 226
Precursor m/z: 226.0873
Precursor type: [M-H]-
m/z	relative intensity
100.9817	17
107.0524	18
115.1555	30
181.1577	22
208.078	34
210.0656	20
225.1435	60
226.0887	999
