Mass spectrum: Resveratrol; LC-ESI-QTOF; MS2; CE 10 ev; [M-H]-
Name: Resveratrol
Formula: C14H12O3
Exact mass: 228.078644
SMILES: C1=CC(=CC=C1C=CC2=CC(=CC(=C2)O)O)O
InChI: InChI=1S/C14H12O3/c15-12-5-3-10(4-6-12)1-2-11-7-13(16)9-14(17)8-11/h1-9,15-17H
Instrument: Agilent 1200 RRLC; Agilent 6520 QTOF
Instrument type: LC-ESI-QTOF
Ms type: MS2
Ion mode: NEGATIVE
Collision energy: 10 ev
Column name: Agilent C8 Cartridge Column 2.1X30mm 3.5 micron (guard); Agilent SB-Aq 2.1x50mm 1.8 micron (analytical)
Retention time: 5.386
Base peak: 227
Precursor m/z: 227.0713
Precursor type: [M-H]-
m/z	relative intensity
143.0499	24
157.0645	7
159.0828	11
183.0818	12
185.0609	37
227.0706	999
