Mass spectrum: Folic acid; LC-ESI-QTOF; MS2; CE 10 ev; [M+H]+
Name: Folic acid
Formula: C19H19N7O6
Exact mass: 441.139681
SMILES: C1=CC(=CC=C1C(=O)NC(CCC(=O)O)C(=O)O)NCC2=CN=C3C(=N2)C(=O)N=C(N3)N
InChI: InChI=1S/C19H19N7O6/c20-19-25-15-14(17(30)26-19)23-11(8-22-15)7-21-10-3-1-9(2-4-10)16(29)24-12(18(31)32)5-6-13(27)28/h1-4,8,12,21H,5-7H2,(H,24,29)(H,27,28)(H,31,32)(H3,20,22,25,26,30)
Instrument: Agilent 1200 RRLC; Agilent 6520 QTOF
Instrument type: LC-ESI-QTOF
Ms type: MS2
Ion mode: POSITIVE
Collision energy: 10 ev
Column name: Agilent C8 Cartridge Column 2.1X30mm 3.5 micron (guard); Agilent SB-Aq 2.1x50mm 1.8 micron (analytical)
Retention time: 3.987
Base peak: 295
Precursor m/z: 442.1470
Precursor type: [M+H]+
m/z	relative intensity
120.0443	24
176.0547	21
269.1161	13
295.0924	999
295.1424	31
295.1873	18
295.2479	14
