Mass spectrum: Glutamic acid; LC-ESI-QTOF; MS2; CE 20 ev; [M+H]+
Name: Glutamic acid
Formula: C5H9NO4
Exact mass: 147.053158
SMILES: C(CC(=O)O)C(C(=O)O)N
InChI: InChI=1S/C5H9NO4/c6-3(5(9)10)1-2-4(7)8/h3H,1-2,6H2,(H,7,8)(H,9,10)
Instrument: Agilent 1200 RRLC; Agilent 6520 QTOF
Instrument type: LC-ESI-QTOF
Ms type: MS2
Ion mode: POSITIVE
Collision energy: 20 ev
Column name: Agilent C8 Cartridge Column 2.1X30mm 3.5 micron (guard); Agilent SB-Aq 2.1x50mm 1.8 micron (analytical)
Retention time: 0.372
Base peak: 102
Precursor m/z: 148.0605
Precursor type: [M+H]+
m/z	relative intensity
102.0566	999
130.0495	279
