Mass spectrum: Curcumine; LC-ESI-QTOF; MS2; CE 20 ev; [M-H]-
Name: Curcumine
Formula: C21H20O6
Exact mass: 368.125988
SMILES: COC1=C(C=CC(=C1)/C=C/C(=O)CC(=O)/C=C/C2=CC(=C(C=C2)O)OC)O
InChI: InChI=1S/C21H20O6/c1-26-20-11-14(5-9-18(20)24)3-7-16(22)13-17(23)8-4-15-6-10-19(25)21(12-15)27-2/h3-12,24-25H,13H2,1-2H3/b7-3+,8-4+
Instrument: Agilent 1200 RRLC; Agilent 6520 QTOF
Instrument type: LC-ESI-QTOF
Ms type: MS2
Ion mode: NEGATIVE
Collision energy: 20 ev
Column name: Agilent C8 Cartridge Column 2.1X30mm 3.5 micron (guard); Agilent SB-Aq 2.1x50mm 1.8 micron (analytical)
Retention time: 9.503
Base peak: 173
Precursor m/z: 367.1187
Precursor type: [M-H]-
m/z	relative intensity
173.0604	999
173.0948	36
175.0373	91
202.0258	167
217.0468	419
222.1133	42
272.9464	34
