Mass spectrum: 6-Bromo-3'-methylflavone; LC-ESI-QTOF; MS2; CE 40 ev; [M+H]+
Name: 6-Bromo-3'-methylflavone
Formula: C16H11BrO2
Exact mass: 313.994242
SMILES: CC1=CC=CC(=C1)C2=CC(=O)C3=C(O2)C=CC(=C3)Br
InChI: InChI=1S/C16H11BrO2/c1-10-3-2-4-11(7-10)16-9-14(18)13-8-12(17)5-6-15(13)19-16/h2-9H,1H3
Instrument: Agilent 1200 RRLC; Agilent 6520 QTOF
Instrument type: LC-ESI-QTOF
Ms type: MS2
Ion mode: POSITIVE
Collision energy: 40 ev
Column name: Agilent C8 Cartridge Column 2.1X30mm 3.5 micron (guard); Agilent SB-Aq 2.1x50mm 1.8 micron (analytical)
Retention time: 10.406
Base peak: 208
Precursor m/z: 315.0015
Precursor type: [M+H]+
m/z	relative intensity
115.0555	616
116.0619	228
117.0682	314
120.019	611
142.9482	340
143.0478	303
154.9501	670
165.0704	510
170.9424	255
179.0861	207
193.0629	154
198.9378	303
208.0886	999
221.0616	744
235.0754	515
236.0818	266
315.0024	303
