Mass spectrum: N2-Isobutyryl-2'-deoxyguanosine; LC-ESI-QTOF; MS2; CE 10 ev; [M-H]-
Name: N2-Isobutyryl-2'-deoxyguanosine
Formula: C14H19N5O5
Exact mass: 337.138619
SMILES: CC(C)C(=O)NC1=NC(=O)C2=C(N1)N(C=N2)[C@H]3C[C@@H]([C@H](O3)CO)O
InChI: InChI=1S/C14H19N5O5/c1-6(2)12(22)17-14-16-11-10(13(23)18-14)15-5-19(11)9-3-7(21)8(4-20)24-9/h5-9,20-21H,3-4H2,1-2H3,(H2,16,17,18,22,23)/t7-,8+,9+/m0/s1
Instrument: Agilent 1200 RRLC; Agilent 6520 QTOF
Instrument type: LC-ESI-QTOF
Ms type: MS2
Ion mode: NEGATIVE
Collision energy: 10 ev
Column name: Agilent C8 Cartridge Column 2.1X30mm 3.5 micron (guard); Agilent SB-Aq 2.1x50mm 1.8 micron (analytical)
Retention time: 4.289
Base peak: 336
Precursor m/z: 336.1313
Precursor type: [M-H]-
m/z	relative intensity
107.0365	2
108.0182	3
133.0145	7
150.0425	60
150.078	2
176.057	4
183.0408	2
220.0862	19
220.1092	2
223.0793	1
266.0899	244
266.1371	12
266.1765	2
266.1949	2
266.2385	3
266.3046	2
266.5261	1
266.6039	1
266.7598	1
267.0927	2
281.1149	1
335.9989	2
336.1309	999
