Mass spectrum: 7-Hydroxy-3-Methylflavone; LC-ESI-QTOF; MS2; CE 10 ev; [M-H]-
Name: 7-Hydroxy-3-Methylflavone
Formula: C16H12O3
Exact mass: 252.078644
SMILES: CC1=C(OC2=C(C1=O)C=CC(=C2)O)C3=CC=CC=C3
InChI: InChI=1S/C16H12O3/c1-10-15(18)13-8-7-12(17)9-14(13)19-16(10)11-5-3-2-4-6-11/h2-9,17H,1H3
Instrument: Agilent 1200 RRLC; Agilent 6520 QTOF
Instrument type: LC-ESI-QTOF
Ms type: MS2
Ion mode: NEGATIVE
Collision energy: 10 ev
Column name: Agilent C8 Cartridge Column 2.1X30mm 3.5 micron (guard); Agilent SB-Aq 2.1x50mm 1.8 micron (analytical)
Retention time: 8.514
Base peak: 251
Precursor m/z: 251.0713
Precursor type: [M-H]-
m/z	relative intensity
251.0708	999
