Mass spectrum: Ouabain; LC-ESI-QTOF; MS2; CE 20 ev; [M+H]+
Name: Ouabain
Formula: C29H44O12
Exact mass: 584.283277
SMILES: C[C@H]1[C@@H]([C@H]([C@H]([C@@H](O1)O[C@H]2C[C@H]([C@@]3([C@@H]4[C@@H](CC[C@@]3(C2)O)[C@]5(CC[C@@H]([C@]5(C[C@H]4O)C)C6=CC(=O)OC6)O)CO)O)O)O)O
InChI: InChI=1S/C29H44O12/c1-13-22(34)23(35)24(36)25(40-13)41-15-8-19(32)28(12-30)21-17(3-5-27(28,37)9-15)29(38)6-4-16(14-7-20(33)39-11-14)26(29,2)10-18(21)31/h7,13,15-19,21-25,30-32,34-38H,3-6,8-12H2,1-2H3/t13-,15-,16+,17+,18+,19+,21+,22-,23+,24+,25-,26+,27-,28+,29-/m0/s1
Instrument: Agilent 1200 RRLC; Agilent 6520 QTOF
Instrument type: LC-ESI-QTOF
Ms type: MS2
Ion mode: POSITIVE
Collision energy: 20 ev
Column name: Agilent C8 Cartridge Column 2.1X30mm 3.5 micron (guard); Agilent SB-Aq 2.1x50mm 1.8 micron (analytical)
Retention time: 4.532
Base peak: 367
Precursor m/z: 585.2906
Precursor type: [M+H]+
m/z	relative intensity
129.0537	235
157.0993	397
157.1058	150
319.1693	632
321.1848	199
331.1663	217
337.1759	716
339.1953	295
349.1756	445
351.193	132
355.1908	885
367.186	999
373.1989	530
385.1981	861
403.205	704
421.219	132
