Mass spectrum: Tuberostemonine; LC-ESI-QTOF; MS2; CE 20 ev; [M+H]+
Name: Tuberostemonine
Formula: C22H33NO4
Exact mass: 375.240959
SMILES: CCC1C2CCCCN3C2C(CC3C4CC(C(=O)O4)C)C5C1OC(=O)C5C
InChI: InChI=1S/C22H33NO4/c1-4-13-14-7-5-6-8-23-16(17-9-11(2)21(24)26-17)10-15(19(14)23)18-12(3)22(25)27-20(13)18/h11-20H,4-10H2,1-3H3
Instrument: Agilent 1200 RRLC; Agilent 6520 QTOF
Instrument type: LC-ESI-QTOF
Ms type: MS2
Ion mode: POSITIVE
Collision energy: 20 ev
Column name: Agilent C8 Cartridge Column 2.1X30mm 3.5 micron (guard); Agilent SB-Aq 2.1x50mm 1.8 micron (analytical)
Retention time: 3.895
Base peak: 376
Precursor m/z: 376.2483
Precursor type: [M+H]+
m/z	relative intensity
376.2444	999
