Mass spectrum: Rutine; LC-ESI-QTOF; MS2; CE 10 ev; [M-H]-
Name: Rutine
Formula: C27H30O16
Exact mass: 610.153385
SMILES: CC1C(C(C(C(O1)OCC2C(C(C(C(O2)OC3=C(OC4=CC(=CC(=C4C3=O)O)O)C5=CC(=C(C=C5)O)O)O)O)O)O)O)O
InChI: InChI=1S/C27H30O16/c1-8-17(32)20(35)22(37)26(40-8)39-7-15-18(33)21(36)23(38)27(42-15)43-25-19(34)16-13(31)5-10(28)6-14(16)41-24(25)9-2-3-11(29)12(30)4-9/h2-6,8,15,17-18,20-23,26-33,35-38H,7H2,1H3
Instrument: Agilent 1200 RRLC; Agilent 6520 QTOF
Instrument type: LC-ESI-QTOF
Ms type: MS2
Ion mode: NEGATIVE
Collision energy: 10 ev
Column name: Agilent C8 Cartridge Column 2.1X30mm 3.5 micron (guard); Agilent SB-Aq 2.1x50mm 1.8 micron (analytical)
Retention time: 5.341
Base peak: 609
Precursor m/z: 609.1461
Precursor type: [M-H]-
m/z	relative intensity
103.0999	18
133.5309	7
142.5755	6
211.8614	11
246.5117	9
283.0407	6
296.2994	7
298.0022	10
299.0269	7
300.012	7
300.0362	15
301.0323	23
355.2659	5
362.5073	14
362.9855	8
449.1192	5
503.4865	6
549.0647	5
608.1176	18
608.1438	32
609.0454	9
609.144	999
