Mass spectrum: Pinocembrine; LC-ESI-QTOF; MS2; CE 40 ev; [M+H]+
Name: Pinocembrine
Formula: C15H12O4
Exact mass: 256.073559
SMILES: C1[C@@H](OC2=CC(=CC(=C2C1=O)O)O)C3=CC=CC=C3
InChI: InChI=1S/C15H12O4/c16-10-6-11(17)15-12(18)8-13(19-14(15)7-10)9-4-2-1-3-5-9/h1-7,13,16-17H,8H2/t13-/m1/s1
Instrument: Agilent 1200 RRLC; Agilent 6520 QTOF
Instrument type: LC-ESI-QTOF
Ms type: MS2
Ion mode: POSITIVE
Collision energy: 40 ev
Column name: Agilent C8 Cartridge Column 2.1X30mm 3.5 micron (guard); Agilent SB-Aq 2.1x50mm 1.8 micron (analytical)
Retention time: 7.842
Base peak: 153
Precursor m/z: 257.0809
Precursor type: [M+H]+
m/z	relative intensity
103.0525	624
153.0173	999
