Mass spectrum: 8-Methoxypsoralen; LC-ESI-QTOF; MS2; CE 10 ev; [M+H]+
Name: 8-Methoxypsoralen
Formula: C12H8O4
Exact mass: 216.042259
SMILES: COC1=C2C(=CC3=C1OC=C3)C=CC(=O)O2
InChI: InChI=1S/C12H8O4/c1-14-12-10-8(4-5-15-10)6-7-2-3-9(13)16-11(7)12/h2-6H,1H3
Instrument: Agilent 1200 RRLC; Agilent 6520 QTOF
Instrument type: LC-ESI-QTOF
Ms type: MS2
Ion mode: POSITIVE
Collision energy: 10 ev
Column name: Agilent C8 Cartridge Column 2.1X30mm 3.5 micron (guard); Agilent SB-Aq 2.1x50mm 1.8 micron (analytical)
Retention time: 6.673
Base peak: 217
Precursor m/z: 217.0496
Precursor type: [M+H]+
m/z	relative intensity
115.0543	9
117.0705	8
118.0395	12
131.0502	5
146.0378	9
161.0591	58
173.0577	28
174.0312	35
185.0239	30
189.0532	42
201.0172	5
202.0259	193
202.0551	8
202.0759	6
216.0372	5
217.05	999
