Mass spectrum: 4-Methylumbelliferyl glucuronide; LC-ESI-QTOF; MS2; CE 20 ev; [M+H]+
Name: 4-Methylumbelliferyl glucuronide
Formula: C16H16O9
Exact mass: 352.079432
SMILES: CC1=CC(=O)OC2=C1C=CC(=C2)O[C@H]3[C@@H]([C@H]([C@@H]([C@H](O3)C(=O)O)O)O)O
InChI: InChI=1S/C16H16O9/c1-6-4-10(17)24-9-5-7(2-3-8(6)9)23-16-13(20)11(18)12(19)14(25-16)15(21)22/h2-5,11-14,16,18-20H,1H3,(H,21,22)/t11-,12-,13+,14-,16+/m0/s1
Instrument: Agilent 1200 RRLC; Agilent 6520 QTOF
Instrument type: LC-ESI-QTOF
Ms type: MS2
Ion mode: POSITIVE
Collision energy: 20 ev
Column name: Agilent C8 Cartridge Column 2.1X30mm 3.5 micron (guard); Agilent SB-Aq 2.1x50mm 1.8 micron (analytical)
Retention time: 3.587
Base peak: 177
Precursor m/z: 353.0867
Precursor type: [M+H]+
m/z	relative intensity
121.0713	19
133.0595	18
177.0538	999
