Mass spectrum: Epinephrine; LC-ESI-QTOF; MS2; CE 20 ev; [M-H]-
Name: Epinephrine
Formula: C9H13NO3
Exact mass: 183.089543
SMILES: CNCC(C1=CC(=C(C=C1)O)O)O
InChI: InChI=1S/C9H13NO3/c1-10-5-9(13)6-2-3-7(11)8(12)4-6/h2-4,9-13H,5H2,1H3
Instrument: Agilent 1200 RRLC; Agilent 6520 QTOF
Instrument type: LC-ESI-QTOF
Ms type: MS2
Ion mode: NEGATIVE
Collision energy: 20 ev
Column name: Agilent C8 Cartridge Column 2.1X30mm 3.5 micron (guard); Agilent SB-Aq 2.1x50mm 1.8 micron (analytical)
Retention time: 0.369
Base peak: 122
Precursor m/z: 182.0822
Precursor type: [M-H]-
m/z	relative intensity
103.0992	65
106.9702	90
122.0375	999
149.0441	115
149.0557	103
164.0727	414
164.1235	65
