Mass spectrum: Justicidin B; LC-ESI-QTOF; MS2; CE 20 ev; [M+H]+
Name: Justicidin B
Formula: C21H16O6
Exact mass: 364.094688
SMILES: COC1=CC2=CC3=C(C(=C2C=C1OC)C4=CC5=C(C=C4)OCO5)C(=O)OC3
InChI: InChI=1S/C21H16O6/c1-23-16-7-12-5-13-9-25-21(22)20(13)19(14(12)8-17(16)24-2)11-3-4-15-18(6-11)27-10-26-15/h3-8H,9-10H2,1-2H3
Instrument: Agilent 1200 RRLC; Agilent 6520 QTOF
Instrument type: LC-ESI-QTOF
Ms type: MS2
Ion mode: POSITIVE
Collision energy: 20 ev
Column name: Agilent C8 Cartridge Column 2.1X30mm 3.5 micron (guard); Agilent SB-Aq 2.1x50mm 1.8 micron (analytical)
Retention time: 8.922
Base peak: 365
Precursor m/z: 365.1020
Precursor type: [M+H]+
m/z	relative intensity
246.0631	52
260.0837	110
262.09	43
263.1014	122
275.0671	135
276.075	97
289.0885	135
291.1002	290
293.1184	49
303.0663	350
307.0922	187
317.085	49
319.0987	79
321.1118	539
333.074	107
335.0902	434
347.0987	97
365.1016	999
