Mass spectrum: 6-Methylflavonol; LC-ESI-QTOF; MS2; CE 20 ev; [M+H]+
Name: 6-Methylflavonol
Formula: C16H12O3
Exact mass: 252.078644
SMILES: CC1=CC2=C(C=C1)OC(=C(C2=O)O)C3=CC=CC=C3
InChI: InChI=1S/C16H12O3/c1-10-7-8-13-12(9-10)14(17)15(18)16(19-13)11-5-3-2-4-6-11/h2-9,18H,1H3
Instrument: Agilent 1200 RRLC; Agilent 6520 QTOF
Instrument type: LC-ESI-QTOF
Ms type: MS2
Ion mode: POSITIVE
Collision energy: 20 ev
Column name: Agilent C8 Cartridge Column 2.1X30mm 3.5 micron (guard); Agilent SB-Aq 2.1x50mm 1.8 micron (analytical)
Retention time: 9.582
Base peak: 253
Precursor m/z: 253.0859
Precursor type: [M+H]+
m/z	relative intensity
105.0295	39
105.035	47
119.0492	65
135.0438	105
148.9714	52
178.0788	39
253.0846	999
