Mass spectrum: Capsaicin; LC-ESI-QTOF; MS2; CE 10 ev; [M-H]-
Name: Capsaicin
Name: (6E)-N-[(4-Hydroxy-3-methoxyphenyl)methyl]-8-methyl-6-nonenamide
Name: E-Capsaicin
Formula: C18H27NO3
Exact mass: 305.199094
SMILES: CC(C)/C=C/CCCCC(=O)NCC1=CC(=C(C=C1)O)OC
InChI: InChI=1S/C18H27NO3/c1-14(2)8-6-4-5-7-9-18(21)19-13-15-10-11-16(20)17(12-15)22-3/h6,8,10-12,14,20H,4-5,7,9,13H2,1-3H3,(H,19,21)/b8-6+
Instrument: Agilent 1200 RRLC; Agilent 6520 QTOF
Instrument type: LC-ESI-QTOF
Ms type: MS2
Ion mode: NEGATIVE
Collision energy: 10 ev
Column name: Agilent C8 Cartridge Column 2.1X30mm 3.5 micron (guard); Agilent SB-Aq 2.1x50mm 1.8 micron (analytical)
Retention time: 8.907
Base peak: 168
Precursor m/z: 304.1918
Precursor type: [M-H]-
m/z	relative intensity
168.1387	999
168.1767	35
168.2301	7
168.2585	15
304.1906	86
