Mass spectrum: Histidine; LC-ESI-QTOF; MS2; CE 20 ev; [M-H]-
Name: Histidine
Formula: C6H9N3O2
Exact mass: 155.069477
SMILES: C1=C(NC=N1)CC(C(=O)O)N
InChI: InChI=1S/C6H9N3O2/c7-5(6(10)11)1-4-2-8-3-9-4/h2-3,5H,1,7H2,(H,8,9)(H,10,11)
Instrument: Agilent 1200 RRLC; Agilent 6520 QTOF
Instrument type: LC-ESI-QTOF
Ms type: MS2
Ion mode: NEGATIVE
Collision energy: 20 ev
Column name: Agilent C8 Cartridge Column 2.1X30mm 3.5 micron (guard); Agilent SB-Aq 2.1x50mm 1.8 micron (analytical)
Retention time: 0.330
Base peak: 137
Precursor m/z: 154.0622
Precursor type: [M-H]-
m/z	relative intensity
106.0393	40
106.995	14
107.0202	14
108.0607	123
108.4412	12
108.5586	13
109.0375	185
109.0846	16
110.072	775
110.1055	18
110.1712	13
112.562	17
112.6568	13
118.0387	282
118.0671	14
118.3419	12
129.6159	15
136.0498	358
136.1597	16
137.003	12
137.0347	999
137.0719	51
137.0874	27
137.1432	13
137.3026	13
137.476	12
140.8289	12
154.0373	35
154.0613	739
