Mass spectrum: Riboflavin; LC-ESI-QTOF; MS2; CE 20 ev; [M+H]+
Name: Riboflavin
Name: 7,8-dimethyl-10-(2,3,4,5-tetrahydroxypentyl)-3,10-dihydrobenzo[g]pteridine-2,4 -dione
Formula: C17H20N4O6
Exact mass: 376.138284
SMILES: CC1=CC2=C(C=C1C)N(C3=NC(=O)NC(=O)C3=N2)CC(C(C(CO)O)O)O
InChI: InChI=1S/C17H20N4O6/c1-7-3-9-10(4-8(7)2)21(5-11(23)14(25)12(24)6-22)15-13(18-9)16(26)20-17(27)19-15/h3-4,11-12,14,22-25H,5-6H2,1-2H3,(H,20,26,27)
Instrument: Agilent 1200 RRLC; Agilent 6520 QTOF
Instrument type: LC-ESI-QTOF
Ms type: MS2
Ion mode: POSITIVE
Collision energy: 20 ev
Column name: Agilent C8 Cartridge Column 2.1X30mm 3.5 micron (guard); Agilent SB-Aq 2.1x50mm 1.8 micron (analytical)
Retention time: 4.254
Base peak: 243
Precursor m/z: 377.1456
Precursor type: [M+H]+
m/z	relative intensity
149.1365	62
172.0832	141
198.0683	161
243.0879	999
243.1365	60
316.131	55
377.1465	316
