Mass spectrum: Yohimbinic acid; LC-ESI-QTOF; MS2; CE 10 ev; [M-H]-
Name: Yohimbinic acid
Formula: C20H24N2O3
Exact mass: 340.178693
SMILES: C1CC(C(C2C1CN3CCC4=C(C3C2)NC5=CC=CC=C45)C(=O)O)O
InChI: InChI=1S/C20H24N2O3/c23-17-6-5-11-10-22-8-7-13-12-3-1-2-4-15(12)21-19(13)16(22)9-14(11)18(17)20(24)25/h1-4,11,14,16-18,21,23H,5-10H2,(H,24,25)
Instrument: Agilent 1200 RRLC; Agilent 6520 QTOF
Instrument type: LC-ESI-QTOF
Ms type: MS2
Ion mode: NEGATIVE
Collision energy: 10 ev
Column name: Agilent C8 Cartridge Column 2.1X30mm 3.5 micron (guard); Agilent SB-Aq 2.1x50mm 1.8 micron (analytical)
Retention time: 3.216
Base peak: 339
Precursor m/z: 339.1714
Precursor type: [M-H]-
m/z	relative intensity
120.1798	8
277.1669	36
295.1831	11
321.1585	13
339.171	999
