Mass spectrum: N-Allyladenosine; LC-ESI-QTOF; MS2; CE 10 ev; [M+H]+
Name: N-Allyladenosine
Formula: C13H17N5O4
Exact mass: 307.128054
SMILES: C=CCNC1=NC=NC2=C1N=CN2C3C(C(C(O3)CO)O)O
InChI: InChI=1S/C13H17N5O4/c1-2-3-14-11-8-12(16-5-15-11)18(6-17-8)13-10(21)9(20)7(4-19)22-13/h2,5-7,9-10,13,19-21H,1,3-4H2,(H,14,15,16)
Instrument: Agilent 1200 RRLC; Agilent 6520 QTOF
Instrument type: LC-ESI-QTOF
Ms type: MS2
Ion mode: POSITIVE
Collision energy: 10 ev
Column name: Agilent C8 Cartridge Column 2.1X30mm 3.5 micron (guard); Agilent SB-Aq 2.1x50mm 1.8 micron (analytical)
Retention time: 3.806
Base peak: 176
Precursor m/z: 308.1354
Precursor type: [M+H]+
m/z	relative intensity
176.0927	999
176.1307	36
176.1528	9
176.1745	6
176.1856	5
176.216	11
176.7602	5
308.1353	239
