Mass spectrum: haploside D; LC-ESI-QTOF; MS2; CE 20 ev; [M+H]+
Name: haploside D
Formula: C30H34O18
Exact mass: 682.174514
SMILES: CC1C(C(C(C(O1)OC2C(C(C(OC2OC3=C(C4=C(C(=C3)O)C(=O)C(=C(O4)C5=CC(=C(C=C5)O)OC)O)O)COC(=O)C)O)O)O)O)O
InChI: InChI=1S/C30H34O18/c1-9-18(34)22(38)25(41)29(44-9)48-28-23(39)19(35)16(8-43-10(2)31)46-30(28)45-15-7-13(33)17-21(37)24(40)26(47-27(17)20(15)36)11-4-5-12(32)14(6-11)42-3/h4-7,9,16,18-19,22-23,25,28-30,32-36,38-41H,8H2,1-3H3
Instrument: Agilent 1200 RRLC; Agilent 6520 QTOF
Instrument type: LC-ESI-QTOF
Ms type: MS2
Ion mode: POSITIVE
Collision energy: 20 ev
Column name: Agilent C8 Cartridge Column 2.1X30mm 3.5 micron (guard); Agilent SB-Aq 2.1x50mm 1.8 micron (analytical)
Retention time: 7.190
Base peak: 333
Precursor m/z: 683.1818
Precursor type: [M+H]+
m/z	relative intensity
103.0363	31
109.0252	32
127.0376	44
129.0501	87
187.0554	23
205.0741	36
237.0721	27
333.0597	999
333.1178	38
537.1277	90
683.1855	89
