Mass spectrum: Thymidine; LC-ESI-QTOF; MS2; CE 10 ev; [M-H]-
Name: Thymidine
Formula: C10H14N2O5
Exact mass: 242.090272
SMILES: CC1=CN(C(=O)NC1=O)C2CC(C(O2)CO)O
InChI: InChI=1S/C10H14N2O5/c1-5-3-12(10(16)11-9(5)15)8-2-6(14)7(4-13)17-8/h3,6-8,13-14H,2,4H2,1H3,(H,11,15,16)
Instrument: Agilent 1200 RRLC; Agilent 6520 QTOF
Instrument type: LC-ESI-QTOF
Ms type: MS2
Ion mode: NEGATIVE
Collision energy: 10 ev
Column name: Agilent C8 Cartridge Column 2.1X30mm 3.5 micron (guard); Agilent SB-Aq 2.1x50mm 1.8 micron (analytical)
Retention time: 1.554
Base peak: 241
Precursor m/z: 241.0830
Precursor type: [M-H]-
m/z	relative intensity
104.4793	20
108.047	21
125.0353	81
150.0542	26
151.0504	240
168.0657	20
240.8697	19
241.0822	999
