Mass spectrum: Brucine; LC-ESI-QTOF; MS2; CE 40 ev; [M+H]+
Name: Brucine
Name: (11S,18S,22S,1R,20R,21R)-4,5-dimethoxy-12-oxa-8,17-diazaheptacyclo[15.5.2.0<1, 18>.0<2,7>.0<8,22>.0<11,21>.0<15,20>]tetracosa-2,4,6,14-tetraen-9-one
Formula: C23H26N2O4
Exact mass: 394.189257
SMILES: COC1=C(C=C2C(=C1)C34CCN5C3CC6C7C4N2C(=O)CC7OCC=C6C5)OC
InChI: InChI=1S/C23H26N2O4/c1-27-16-8-14-15(9-17(16)28-2)25-20(26)10-18-21-13-7-19-23(14,22(21)25)4-5-24(19)11-12(13)3-6-29-18/h3,8-9,13,18-19,21-22H,4-7,10-11H2,1-2H3
Instrument: Agilent 1200 RRLC; Agilent 6520 QTOF
Instrument type: LC-ESI-QTOF
Ms type: MS2
Ion mode: POSITIVE
Collision energy: 40 ev
Column name: Agilent C8 Cartridge Column 2.1X30mm 3.5 micron (guard); Agilent SB-Aq 2.1x50mm 1.8 micron (analytical)
Retention time: 3.968
Base peak: 244
Precursor m/z: 395.1966
Precursor type: [M+H]+
m/z	relative intensity
108.0808	98
124.0736	106
158.0621	82
198.0496	168
213.0763	439
216.1008	286
228.0957	114
229.0736	533
244.0965	999
251.0895	106
254.1157	121
256.0957	184
263.0928	309
263.1145	94
267.0869	212
280.092	204
282.1129	302
294.1114	180
301.1063	94
306.1063	94
308.1189	106
317.1025	118
322.1326	153
324.121	690
324.1398	98
350.1372	137
351.1625	121
352.1397	98
367.1602	129
367.1752	149
379.167	98
395.1876	118
395.2	380
