Mass spectrum: Histidylserine; LC-ESI-QTOF; MS2; CE 10 ev; [M-H]-
Name: Histidylserine
Name: 2-(2-amino-3-imidazol-5-ylpropanoylamino)-3-hydroxypropanoic acid
Formula: C9H14N4O4
Exact mass: 242.101505
SMILES: C1=C(NC=N1)CC(C(=O)NC(CO)C(=O)O)N
InChI: InChI=1S/C9H14N4O4/c10-6(1-5-2-11-4-12-5)8(15)13-7(3-14)9(16)17/h2,4,6-7,14H,1,3,10H2,(H,11,12)(H,13,15)(H,16,17)
Instrument: Agilent 1200 RRLC; Agilent 6520 QTOF
Instrument type: LC-ESI-QTOF
Ms type: MS2
Ion mode: NEGATIVE
Collision energy: 10 ev
Column name: Agilent C8 Cartridge Column 2.1X30mm 3.5 micron (guard); Agilent SB-Aq 2.1x50mm 1.8 micron (analytical)
Retention time: 0.314
Base peak: 211
Precursor m/z: 241.0942
Precursor type: [M-H]-
m/z	relative intensity
104.0353	166
105.0347	19
108.0585	57
122.3952	19
136.0516	65
136.0881	37
138.0669	25
149.0807	15
149.0898	16
150.0646	21
154.0631	257
160.6453	16
167.0928	147
179.0943	150
193.0765	19
197.1094	75
211.0834	999
211.1001	16
211.1196	47
211.1529	14
211.2175	17
241.093	913
