Mass spectrum: 8-Benzylcanadine; LC-ESI-QTOF; MS2; CE 10 ev; [M+H]+
Name: 8-Benzylcanadine
Formula: C27H27NO4
Exact mass: 429.194008
SMILES: COC1=C(C2=C(CC3C4=CC5=C(C=C4CCN3C2CC6=CC=CC=C6)OCO5)C=C1)OC
InChI: InChI=1S/C27H27NO4/c1-29-23-9-8-19-13-21-20-15-25-24(31-16-32-25)14-18(20)10-11-28(21)22(26(19)27(23)30-2)12-17-6-4-3-5-7-17/h3-9,14-15,21-22H,10-13,16H2,1-2H3
Instrument: Agilent 1200 RRLC; Agilent 6520 QTOF
Instrument type: LC-ESI-QTOF
Ms type: MS2
Ion mode: POSITIVE
Collision energy: 10 ev
Column name: Agilent C8 Cartridge Column 2.1X30mm 3.5 micron (guard); Agilent SB-Aq 2.1x50mm 1.8 micron (analytical)
Retention time: 8.575
Base peak: 430
Precursor m/z: 430.2013
Precursor type: [M+H]+
m/z	relative intensity
174.0578	5
176.0688	125
176.0967	8
250.0966	13
338.1384	17
430.1983	999
