Mass spectrum: Hydrocortisone; LC-ESI-QTOF; MS2; CE 10 ev; [M+H]+
Name: Hydrocortisone
Formula: C21H30O5
Exact mass: 362.209324
SMILES: CC12CCC(=O)C=C1CCC3C2C(CC4(C3CCC4(C(=O)CO)O)C)O
InChI: InChI=1S/C21H30O5/c1-19-7-5-13(23)9-12(19)3-4-14-15-6-8-21(26,17(25)11-22)20(15,2)10-16(24)18(14)19/h9,14-16,18,22,24,26H,3-8,10-11H2,1-2H3
Instrument: Agilent 1200 RRLC; Agilent 6520 QTOF
Instrument type: LC-ESI-QTOF
Ms type: MS2
Ion mode: POSITIVE
Collision energy: 10 ev
Column name: Agilent C8 Cartridge Column 2.1X30mm 3.5 micron (guard); Agilent SB-Aq 2.1x50mm 1.8 micron (analytical)
Retention time: 7.353
Base peak: 363
Precursor m/z: 363.2166
Precursor type: [M+H]+
m/z	relative intensity
119.0852	30
121.0646	100
123.0821	26
201.1317	40
225.1658	27
231.1322	25
241.156	51
243.1715	26
249.1654	29
251.1319	25
267.1681	88
267.1905	31
269.1835	32
281.1842	31
291.1538	26
291.1834	35
297.1805	74
309.1841	87
327.1823	32
327.201	147
345.204	93
363.2149	999
