Mass spectrum: Apigenin; LC-ESI-QTOF; MS2; CE 10 ev; [M-H]-
Name: Apigenin
Formula: C15H10O5
Exact mass: 270.052823
SMILES: C1=CC(=CC=C1C2=CC(=O)C3=C(C=C(C=C3O2)O)O)O
InChI: InChI=1S/C15H10O5/c16-9-3-1-8(2-4-9)13-7-12(19)15-11(18)5-10(17)6-14(15)20-13/h1-7,16-18H
Instrument: Agilent 1200 RRLC; Agilent 6520 QTOF
Instrument type: LC-ESI-QTOF
Ms type: MS2
Ion mode: NEGATIVE
Collision energy: 10 ev
Column name: Agilent C8 Cartridge Column 2.1X30mm 3.5 micron (guard); Agilent SB-Aq 2.1x50mm 1.8 micron (analytical)
Retention time: 7.806
Base peak: 269
Precursor m/z: 269.0455
Precursor type: [M-H]-
m/z	relative intensity
117.0339	11
149.025	7
151.0047	10
225.0546	8
269.0453	999
