Mass spectrum: 3(2'-Chlorophenyl)-7-hydroxy-4-phenylcoumarin; LC-ESI-QTOF; MS2; CE 20 ev; [M+H]+
Name: 3(2'-Chlorophenyl)-7-hydroxy-4-phenylcoumarin
Formula: C21H13ClO3
Exact mass: 348.055322
SMILES: C1=CC=C(C=C1)C2=C(C(=O)OC3=C2C=CC(=C3)O)C4=CC=CC=C4Cl
InChI: InChI=1S/C21H13ClO3/c22-17-9-5-4-8-15(17)20-19(13-6-2-1-3-7-13)16-11-10-14(23)12-18(16)25-21(20)24/h1-12,23H
Instrument: Agilent 1200 RRLC; Agilent 6520 QTOF
Instrument type: LC-ESI-QTOF
Ms type: MS2
Ion mode: POSITIVE
Collision energy: 20 ev
Column name: Agilent C8 Cartridge Column 2.1X30mm 3.5 micron (guard); Agilent SB-Aq 2.1x50mm 1.8 micron (analytical)
Retention time: 9.324
Base peak: 349
Precursor m/z: 349.0626
Precursor type: [M+H]+
m/z	relative intensity
181.0655	63
257.0979	38
258.0985	40
269.0938	44
270.1016	52
275.0594	20
286.0971	179
293.0731	168
313.0867	46
321.065	20
349.0614	999
