Mass spectrum: Dichlorobenzimidazole Riboside, DRB (5,6-Dichloro-1-b-D-ribofuranosylbenzimidazole); LC-ESI-QTOF; MS2; CE 10 ev; [M-H]-
Name: Dichlorobenzimidazole Riboside, DRB (5,6-Dichloro-1-b-D-ribofuranosylbenzimidazole)
Formula: C12H12Cl2N2O4
Exact mass: 318.017412
SMILES: C1=C2C(=CC(=C1Cl)Cl)N(C=N2)C3C(C(C(O3)CO)O)O
InChI: InChI=1S/C12H12Cl2N2O4/c13-5-1-7-8(2-6(5)14)16(4-15-7)12-11(19)10(18)9(3-17)20-12/h1-2,4,9-12,17-19H,3H2
Instrument: Agilent 1200 RRLC; Agilent 6520 QTOF
Instrument type: LC-ESI-QTOF
Ms type: MS2
Ion mode: NEGATIVE
Collision energy: 10 ev
Column name: Agilent C8 Cartridge Column 2.1X30mm 3.5 micron (guard); Agilent SB-Aq 2.1x50mm 1.8 micron (analytical)
Retention time: 5.520
Base peak: 185
Precursor m/z: 317.0101
Precursor type: [M-H]-
m/z	relative intensity
148.9883	6
184.9668	999
185.0049	40
185.0287	12
185.0445	4
185.0578	6
185.0933	12
185.1459	5
185.1948	5
185.2245	4
185.2903	5
185.3237	6
185.3701	5
185.5132	4
185.5644	3
185.6012	5
185.7234	6
228.3104	4
234.976	9
317.0024	10
