Mass spectrum: Histidylserine; LC-ESI-QTOF; MS2; CE 20 ev; [M-H]-
Name: Histidylserine
Name: 2-(2-amino-3-imidazol-5-ylpropanoylamino)-3-hydroxypropanoic acid
Formula: C9H14N4O4
Exact mass: 242.101505
SMILES: C1=C(NC=N1)CC(C(=O)NC(CO)C(=O)O)N
InChI: InChI=1S/C9H14N4O4/c10-6(1-5-2-11-4-12-5)8(15)13-7(3-14)9(16)17/h2,4,6-7,14H,1,3,10H2,(H,11,12)(H,13,15)(H,16,17)
Instrument: Agilent 1200 RRLC; Agilent 6520 QTOF
Instrument type: LC-ESI-QTOF
Ms type: MS2
Ion mode: NEGATIVE
Collision energy: 20 ev
Column name: Agilent C8 Cartridge Column 2.1X30mm 3.5 micron (guard); Agilent SB-Aq 2.1x50mm 1.8 micron (analytical)
Retention time: 0.314
Base peak: 167
Precursor m/z: 241.0942
Precursor type: [M-H]-
m/z	relative intensity
104.0353	182
105.0313	201
108.058	522
109.0371	46
109.0467	35
110.0747	42
115.0495	38
120.0552	39
125.0382	35
134.0719	120
135.3298	40
136.0534	411
136.0876	231
149.0852	84
150.0658	445
153.0791	33
154.062	321
167.0929	999
167.1329	32
167.1501	48
179.0911	111
180.077	64
193.0747	72
197.098	46
211.0843	489
223.086	35
