Mass spectrum: 4-Hydroxy-2',3,4',6'-tetramethoxychalcone; LC-ESI-QTOF; MS2; CE 10 ev; [M+H]+
Name: 4-Hydroxy-2',3,4',6'-tetramethoxychalcone
Formula: C19H20O6
Exact mass: 344.125988
SMILES: COC1=CC(=C(C(=C1)OC)C(=O)/C=C/C2=CC(=C(C=C2)O)OC)OC
InChI: InChI=1S/C19H20O6/c1-22-13-10-17(24-3)19(18(11-13)25-4)15(21)8-6-12-5-7-14(20)16(9-12)23-2/h5-11,20H,1-4H3/b8-6+
Instrument: Agilent 1200 RRLC; Agilent 6520 QTOF
Instrument type: LC-ESI-QTOF
Ms type: MS2
Ion mode: POSITIVE
Collision energy: 10 ev
Column name: Agilent C8 Cartridge Column 2.1X30mm 3.5 micron (guard); Agilent SB-Aq 2.1x50mm 1.8 micron (analytical)
Retention time: 7.788
Base peak: 345
Precursor m/z: 345.1333
Precursor type: [M+H]+
m/z	relative intensity
104.9936	13
145.0312	20
177.0537	132
180.038	13
195.0641	650
195.1021	33
262.9872	21
327.1275	13
345.1321	999
