Mass spectrum: Hesperidin; LC-ESI-QTOF; MS2; CE 20 ev; [M-H]-
Name: Hesperidin
Formula: C28H34O15
Exact mass: 610.18977
SMILES: CC1C(C(C(C(O1)OCC2C(C(C(C(O2)OC3=CC(=C4C(=O)CC(OC4=C3)C5=CC(=C(C=C5)OC)O)O)O)O)O)O)O)O
InChI: InChI=1S/C28H34O15/c1-10-21(32)23(34)25(36)27(40-10)39-9-19-22(33)24(35)26(37)28(43-19)41-12-6-14(30)20-15(31)8-17(42-18(20)7-12)11-3-4-16(38-2)13(29)5-11/h3-7,10,17,19,21-30,32-37H,8-9H2,1-2H3
Instrument: Agilent 1200 RRLC; Agilent 6520 QTOF
Instrument type: LC-ESI-QTOF
Ms type: MS2
Ion mode: NEGATIVE
Collision energy: 20 ev
Column name: Agilent C8 Cartridge Column 2.1X30mm 3.5 micron (guard); Agilent SB-Aq 2.1x50mm 1.8 micron (analytical)
Retention time: 5.657
Base peak: 301
Precursor m/z: 609.1825
Precursor type: [M-H]-
m/z	relative intensity
112.6611	6
141.0107	8
257.0853	8
301.0715	999
301.1102	26
301.1671	14
301.1943	5
301.2288	12
301.3344	6
301.4091	8
301.439	5
301.5736	7
301.7298	5
302.0774	7
302.1283	6
325.0666	21
343.0825	9
609.1808	220
