Mass spectrum: Fisetin; LC-ESI-QTOF; MS2; CE 20 ev; [M-H]-
Name: Fisetin
Formula: C15H10O6
Exact mass: 286.047738
SMILES: C1=CC(=C(C=C1C2=C(C(=O)C3=C(O2)C=C(C=C3)O)O)O)O
InChI: InChI=1S/C15H10O6/c16-8-2-3-9-12(6-8)21-15(14(20)13(9)19)7-1-4-10(17)11(18)5-7/h1-6,16-18,20H
Instrument: Agilent 1200 RRLC; Agilent 6520 QTOF
Instrument type: LC-ESI-QTOF
Ms type: MS2
Ion mode: NEGATIVE
Collision energy: 20 ev
Column name: Agilent C8 Cartridge Column 2.1X30mm 3.5 micron (guard); Agilent SB-Aq 2.1x50mm 1.8 micron (analytical)
Retention time: 6.240
Base peak: 285
Precursor m/z: 285.0404
Precursor type: [M-H]-
m/z	relative intensity
227.0021	31
229.0526	196
240.049	32
241.0446	38
241.0615	30
255.0241	37
256.0315	43
256.0396	96
257.0475	241
268.0424	44
284.2687	59
285.0395	999
