Mass spectrum: 7-acetyloxy-2-(3,4-diacetyloxyphenyl)-4-oxochromen-5-yl acetate; LC-ESI-QTOF; MS2; CE 20 ev; [M+H]+
Name: 7-acetyloxy-2-(3,4-diacetyloxyphenyl)-4-oxochromen-5-yl acetate
Formula: C23H18O10
Exact mass: 454.089997
SMILES: CC(=O)OC1=C(C=C(C=C1)C2=CC(=O)C3=C(C=C(C=C3O2)OC(=O)C)OC(=O)C)OC(=O)C
InChI: InChI=1S/C23H18O10/c1-11(24)29-16-8-21(32-14(4)27)23-17(28)10-19(33-22(23)9-16)15-5-6-18(30-12(2)25)20(7-15)31-13(3)26/h5-10H,1-4H3
Instrument: Agilent 1200 RRLC; Agilent 6520 QTOF
Instrument type: LC-ESI-QTOF
Ms type: MS2
Ion mode: POSITIVE
Collision energy: 20 ev
Column name: Agilent C8 Cartridge Column 2.1X30mm 3.5 micron (guard); Agilent SB-Aq 2.1x50mm 1.8 micron (analytical)
Retention time: 8.738
Base peak: 371
Precursor m/z: 455.0973
Precursor type: [M+H]+
m/z	relative intensity
287.0595	75
329.063	706
329.1253	42
371.0737	999
371.1265	57
413.0766	61
413.0998	146
