Mass spectrum: Daphnoretine Acetate; LC-ESI-QTOF; MS2; CE 20 ev; [M+H]+
Name: Daphnoretine Acetate
Formula: C21H14O8
Exact mass: 394.068867
SMILES: CC(=O)OC1=C(C=C2C=C(C(=O)OC2=C1)OC3=CC4=C(C=C3)C=CC(=O)O4)OC
InChI: InChI=1S/C21H14O8/c1-11(22)26-18-10-16-13(7-17(18)25-2)8-19(21(24)29-16)27-14-5-3-12-4-6-20(23)28-15(12)9-14/h3-10H,1-2H3
Instrument: Agilent 1200 RRLC; Agilent 6520 QTOF
Instrument type: LC-ESI-QTOF
Ms type: MS2
Ion mode: POSITIVE
Collision energy: 20 ev
Column name: Agilent C8 Cartridge Column 2.1X30mm 3.5 micron (guard); Agilent SB-Aq 2.1x50mm 1.8 micron (analytical)
Retention time: 8.105
Base peak: 353
Precursor m/z: 395.0762
Precursor type: [M+H]+
m/z	relative intensity
179.0313	146
293.0446	49
321.033	132
338.0407	68
353.0639	999
