Mass spectrum: 7-Methoxyisoflavone; LC-ESI-QTOF; MS2; CE 40 ev; [M+H]+
Name: 7-Methoxyisoflavone
Formula: C16H12O3
Exact mass: 252.078644
SMILES: COC1=CC2=C(C=C1)C(=O)C(=CO2)C3=CC=CC=C3
InChI: InChI=1S/C16H12O3/c1-18-12-7-8-13-15(9-12)19-10-14(16(13)17)11-5-3-2-4-6-11/h2-10H,1H3
Instrument: Agilent 1200 RRLC; Agilent 6520 QTOF
Instrument type: LC-ESI-QTOF
Ms type: MS2
Ion mode: POSITIVE
Collision energy: 40 ev
Column name: Agilent C8 Cartridge Column 2.1X30mm 3.5 micron (guard); Agilent SB-Aq 2.1x50mm 1.8 micron (analytical)
Retention time: 8.628
Base peak: 210
Precursor m/z: 253.0859
Precursor type: [M+H]+
m/z	relative intensity
102.0446	194
103.0535	246
108.0222	407
128.0598	84
151.0388	100
152.0596	213
153.0674	588
154.0768	349
165.0679	469
178.0744	68
181.0595	307
182.0731	87
192.0555	71
197.0917	68
209.0592	133
210.0662	999
