Mass spectrum: 4',7-Dimethoxy-3-hydroxyflavone; LC-ESI-QTOF; MS2; CE 10 ev; [M+H]+
Name: 4',7-Dimethoxy-3-hydroxyflavone
Formula: C17H14O5
Exact mass: 298.084124
SMILES: COC1=CC=C(C=C1)C2=C(C(=O)C3=C(O2)C=C(C=C3)OC)O
InChI: InChI=1S/C17H14O5/c1-20-11-5-3-10(4-6-11)17-16(19)15(18)13-8-7-12(21-2)9-14(13)22-17/h3-9,19H,1-2H3
Instrument: Agilent 1200 RRLC; Agilent 6520 QTOF
Instrument type: LC-ESI-QTOF
Ms type: MS2
Ion mode: POSITIVE
Collision energy: 10 ev
Column name: Agilent C8 Cartridge Column 2.1X30mm 3.5 micron (guard); Agilent SB-Aq 2.1x50mm 1.8 micron (analytical)
Retention time: 9.640
Base peak: 299
Precursor m/z: 299.0914
Precursor type: [M+H]+
m/z	relative intensity
178.9787	145
299.0881	999
