Mass spectrum: Chelidonine; LC-ESI-QTOF; MS2; CE 10 ev; [M+H]+
Name: Chelidonin
Name: (+)-Chelidonine
Name: [1,3]Benzodioxolo[5,6-c]-1,3-dioxolo[4,5-i]phenanthridin-6-ol, 5b,6,7,12b,13,14-hexahydro-13-methyl-, (5bR,6S,12bS)-
Formula: C20H19NO5
Exact mass: 353.126323
SMILES: CN1CC2=C(C=CC3=C2OCO3)[C@@H]4[C@H]1C5=CC6=C(C=C5C[C@@H]4O)OCO6
InChI: InChI=1S/C20H19NO5/c1-21-7-13-11(2-3-15-20(13)26-9-23-15)18-14(22)4-10-5-16-17(25-8-24-16)6-12(10)19(18)21/h2-3,5-6,14,18-19,22H,4,7-9H2,1H3/t14-,18-,19+/m0/s1
Instrument: Agilent 1200 RRLC; Agilent 6520 QTOF
Instrument type: LC-ESI-QTOF
Ms type: MS2
Ion mode: POSITIVE
Collision energy: 10 ev
Column name: Agilent C8 Cartridge Column 2.1X30mm 3.5 micron (guard); Agilent SB-Aq 2.1x50mm 1.8 micron (analytical)
Retention time: 4.576
Base peak: 354
Precursor m/z: 354.1336
Precursor type: [M+H]+
m/z	relative intensity
135.0433	9
163.0343	6
163.0467	6
176.0687	7
189.071	6
245.0542	5
247.0756	38
275.0689	138
275.1222	7
293.0749	6
295.0946	19
305.079	164
305.1454	5
323.0879	157
323.1429	7
336.1252	24
354.1324	999
