Mass spectrum: 5,3'-Dihydroxyflavone; LC-ESI-QTOF; MS2; CE 20 ev; [M+H]+
Name: 5,3'-Dihydroxyflavone
Formula: C15H10O4
Exact mass: 254.057909
SMILES: C1=CC(=CC(=C1)O)C2=CC(=O)C3=C(O2)C=CC=C3O
InChI: InChI=1S/C15H10O4/c16-10-4-1-3-9(7-10)14-8-12(18)15-11(17)5-2-6-13(15)19-14/h1-8,16-17H
Instrument: Agilent 1200 RRLC; Agilent 6520 QTOF
Instrument type: LC-ESI-QTOF
Ms type: MS2
Ion mode: POSITIVE
Collision energy: 20 ev
Column name: Agilent C8 Cartridge Column 2.1X30mm 3.5 micron (guard); Agilent SB-Aq 2.1x50mm 1.8 micron (analytical)
Retention time: 8.434
Base peak: 255
Precursor m/z: 255.0652
Precursor type: [M+H]+
m/z	relative intensity
119.0456	14
137.0231	68
152.0629	7
176.9872	41
181.0627	17
227.0687	12
255.0648	999
