Mass spectrum: Deoxycholic acid methyl ester; LC-ESI-QTOF; MS2; CE 10 ev; [M+CH3COOH-H]-
Name: Deoxycholic acid methyl ester
Formula: C25H42O4
Exact mass: 406.30831
SMILES: CC(CCC(=O)OC)C1CCC2C1(C(CC3C2CCC4C3(CCC(C4)O)C)O)C
InChI: InChI=1S/C25H42O4/c1-15(5-10-23(28)29-4)19-8-9-20-18-7-6-16-13-17(26)11-12-24(16,2)21(18)14-22(27)25(19,20)3/h15-22,26-27H,5-14H2,1-4H3
Instrument: Agilent 1200 RRLC; Agilent 6520 QTOF
Instrument type: LC-ESI-QTOF
Ms type: MS2
Ion mode: NEGATIVE
Collision energy: 10 ev
Column name: Agilent C8 Cartridge Column 2.1X30mm 3.5 micron (guard); Agilent SB-Aq 2.1x50mm 1.8 micron (analytical)
Retention time: 11.515
Base peak: 465
Precursor m/z: 465.3216
Precursor type: [M+CH3COOH-H]-
m/z	relative intensity
101.5153	17
103.7478	11
113.1331	18
129.8693	20
192.2444	12
216.994	17
218.9983	16
219.0137	18
219.5832	20
220.391	17
299.4981	20
383.0064	11
465.2294	19
465.3188	999
