Mass spectrum: Cholic acid; LC-ESI-QTOF; MS2; CE 40 ev; [M-H]-
Name: Cholic acid
Formula: C24H40O5
Exact mass: 408.287574
SMILES: CC(CCC(=O)O)C1CCC2C1(C(CC3C2C(CC4C3(CCC(C4)O)C)O)O)C
InChI: InChI=1S/C24H40O5/c1-13(4-7-21(28)29)16-5-6-17-22-18(12-20(27)24(16,17)3)23(2)9-8-15(25)10-14(23)11-19(22)26/h13-20,22,25-27H,4-12H2,1-3H3,(H,28,29)
Instrument: Agilent 1200 RRLC; Agilent 6520 QTOF
Instrument type: LC-ESI-QTOF
Ms type: MS2
Ion mode: NEGATIVE
Collision energy: 40 ev
Column name: Agilent C8 Cartridge Column 2.1X30mm 3.5 micron (guard); Agilent SB-Aq 2.1x50mm 1.8 micron (analytical)
Retention time: 10.065
Base peak: 407
Precursor m/z: 407.2803
Precursor type: [M-H]-
m/z	relative intensity
195.1796	32
201.1297	28
205.1593	44
215.5872	27
223.1675	33
231.1767	60
233.1956	38
249.1811	55
251.1959	79
271.2075	33
287.1975	41
289.2163	242
325.2481	125
327.2679	44
335.247	33
341.2449	64
343.2621	313
345.2672	39
345.2866	120
353.2491	120
369.2315	30
405.2739	62
407.2531	27
407.2772	999
