Mass spectrum: Coumarin 106; LC-ESI-QTOF; MS2; CE 40 ev; [M+H]+
Name: Coumarin 106
Formula: C18H19NO2
Exact mass: 281.141579
SMILES: C1CC2=C(C1)C(=O)OC3=C4CCCN5C4=C(CCC5)C=C23
InChI: InChI=1S/C18H19NO2/c20-18-13-6-1-5-12(13)15-10-11-4-2-8-19-9-3-7-14(16(11)19)17(15)21-18/h10H,1-9H2
Instrument: Agilent 1200 RRLC; Agilent 6520 QTOF
Instrument type: LC-ESI-QTOF
Ms type: MS2
Ion mode: POSITIVE
Collision energy: 40 ev
Column name: Agilent C8 Cartridge Column 2.1X30mm 3.5 micron (guard); Agilent SB-Aq 2.1x50mm 1.8 micron (analytical)
Retention time: 10.438
Base peak: 226
Precursor m/z: 282.1489
Precursor type: [M+H]+
m/z	relative intensity
128.0576	28
160.0739	121
161.0789	42
167.0719	49
168.0816	40
170.0948	71
181.0923	27
182.0937	67
183.0972	32
184.1117	88
186.092	66
187.0924	34
194.0925	47
196.1116	36
197.0874	27
198.0888	83
198.1257	142
208.1134	26
209.1156	26
210.0916	81
210.1273	72
211.1347	26
224.1061	107
224.1417	60
225.1152	36
226.1223	999
226.1622	102
237.1087	26
238.087	29
252.104	37
252.1378	97
253.1077	36
253.1428	43
254.1152	154
280.1322	179
281.1357	92
282.1483	125
