Mass spectrum: Phloridzin; LC-ESI-QTOF; MS2; CE 40 ev; [M-H]-
Name: Phloridzin
Formula: C21H24O10
Exact mass: 436.136947
SMILES: C1=CC(=CC=C1CCC(=O)C2=C(C=C(C=C2OC3C(C(C(C(O3)CO)O)O)O)O)O)O
InChI: InChI=1S/C21H24O10/c22-9-16-18(27)19(28)20(29)21(31-16)30-15-8-12(24)7-14(26)17(15)13(25)6-3-10-1-4-11(23)5-2-10/h1-2,4-5,7-8,16,18-24,26-29H,3,6,9H2
Instrument: Agilent 1200 RRLC; Agilent 6520 QTOF
Instrument type: LC-ESI-QTOF
Ms type: MS2
Ion mode: NEGATIVE
Collision energy: 40 ev
Column name: Agilent C8 Cartridge Column 2.1X30mm 3.5 micron (guard); Agilent SB-Aq 2.1x50mm 1.8 micron (analytical)
Retention time: 5.265
Base peak: 179
Precursor m/z: 435.1296
Precursor type: [M-H]-
m/z	relative intensity
167.0659	265
167.089	144
167.0982	39
167.1094	76
167.1252	59
167.1546	108
167.2904	48
179.0332	999
179.0766	48
187.0735	54
189.0561	105
191.0369	90
201.0473	57
229.0864	78
255.0696	157
273.0781	576
