Mass spectrum: Laudanosine; LC-ESI-QTOF; MS2; CE 10 ev; [M+H]+
Name: Laudanosine
Formula: C21H27NO4
Exact mass: 357.194008
SMILES: CN1CCC2=CC(=C(C=C2C1CC3=CC(=C(C=C3)OC)OC)OC)OC
InChI: InChI=1S/C21H27NO4/c1-22-9-8-15-12-20(25-4)21(26-5)13-16(15)17(22)10-14-6-7-18(23-2)19(11-14)24-3/h6-7,11-13,17H,8-10H2,1-5H3
Instrument: Agilent 1200 RRLC; Agilent 6520 QTOF
Instrument type: LC-ESI-QTOF
Ms type: MS2
Ion mode: POSITIVE
Collision energy: 10 ev
Column name: Agilent C8 Cartridge Column 2.1X30mm 3.5 micron (guard); Agilent SB-Aq 2.1x50mm 1.8 micron (analytical)
Retention time: 4.567
Base peak: 206
Precursor m/z: 358.2013
Precursor type: [M+H]+
m/z	relative intensity
151.0726	43
158.0733	9
162.0895	8
165.0882	31
174.0686	13
189.0907	55
206.1171	999
206.1534	38
206.1684	15
206.1888	12
206.2233	11
206.2486	19
206.6099	7
296.1354	11
315.1545	10
327.1572	103
327.2004	11
358.1447	7
358.2002	972
