Mass spectrum: Asiatic acid; LC-ESI-QTOF; MS2; CE 20 ev; [M-H]-
Name: Asiatic acid
Formula: C30H48O5
Exact mass: 488.350175
SMILES: CC1CCC2(CCC3(C(=CCC4C3(CCC5C4(CC(C(C5(C)CO)O)O)C)C)C2C1C)C)C(=O)O
InChI: InChI=1S/C30H48O5/c1-17-9-12-30(25(34)35)14-13-28(5)19(23(30)18(17)2)7-8-22-26(3)15-20(32)24(33)27(4,16-31)21(26)10-11-29(22,28)6/h7,17-18,20-24,31-33H,8-16H2,1-6H3,(H,34,35)
Instrument: Agilent 1200 RRLC; Agilent 6520 QTOF
Instrument type: LC-ESI-QTOF
Ms type: MS2
Ion mode: NEGATIVE
Collision energy: 20 ev
Column name: Agilent C8 Cartridge Column 2.1X30mm 3.5 micron (guard); Agilent SB-Aq 2.1x50mm 1.8 micron (analytical)
Retention time: 10.157
Base peak: 487
Precursor m/z: 487.3429
Precursor type: [M-H]-
m/z	relative intensity
131.771	16
141.0088	11
198.6043	11
296.9117	19
428.298	11
487.2741	24
487.3399	999
