Mass spectrum: Homoharringtonine; LC-ESI-QTOF; MS2; CE 10 ev; [M+H]+
Name: Homoharringtonine
Formula: C29H39NO9
Exact mass: 545.262482
SMILES: CC(C)(CCCC(CC(=O)OC)(C(=O)OC1C2C3=CC4=C(C=C3CCN5C2(CCC5)C=C1OC)OCO4)O)O
InChI: InChI=1S/C29H39NO9/c1-27(2,33)8-5-10-29(34,16-23(31)36-4)26(32)39-25-22(35-3)15-28-9-6-11-30(28)12-7-18-13-20-21(38-17-37-20)14-19(18)24(25)28/h13-15,24-25,33-34H,5-12,16-17H2,1-4H3
Instrument: Agilent 1200 RRLC; Agilent 6520 QTOF
Instrument type: LC-ESI-QTOF
Ms type: MS2
Ion mode: POSITIVE
Collision energy: 10 ev
Column name: Agilent C8 Cartridge Column 2.1X30mm 3.5 micron (guard); Agilent SB-Aq 2.1x50mm 1.8 micron (analytical)
Retention time: 4.743
Base peak: 546
Precursor m/z: 546.2698
Precursor type: [M+H]+
m/z	relative intensity
251.1005	6
298.1419	77
546.2675	999
