Mass spectrum: N-Allyladenosine; LC-ESI-QTOF; MS2; CE 20 ev; [M-H]-
Name: N-Allyladenosine
Formula: C13H17N5O4
Exact mass: 307.128054
SMILES: C=CCNC1=NC=NC2=C1N=CN2C3C(C(C(O3)CO)O)O
InChI: InChI=1S/C13H17N5O4/c1-2-3-14-11-8-12(16-5-15-11)18(6-17-8)13-10(21)9(20)7(4-19)22-13/h2,5-7,9-10,13,19-21H,1,3-4H2,(H,14,15,16)
Instrument: Agilent 1200 RRLC; Agilent 6520 QTOF
Instrument type: LC-ESI-QTOF
Ms type: MS2
Ion mode: NEGATIVE
Collision energy: 20 ev
Column name: Agilent C8 Cartridge Column 2.1X30mm 3.5 micron (guard); Agilent SB-Aq 2.1x50mm 1.8 micron (analytical)
Retention time: 3.800
Base peak: 174
Precursor m/z: 306.1208
Precursor type: [M-H]-
m/z	relative intensity
133.0375	154
134.0426	17
137.3507	14
147.0681	17
174.078	999
174.1004	24
174.1136	46
174.1444	21
264.1615	12
306.1189	21
