Mass spectrum: Rhein; LC-ESI-QTOF; MS2; CE 10 ev; [M+H]+
Name: Rhein
Formula: C15H8O6
Exact mass: 284.032088
SMILES: C1=CC2=C(C(=C1)O)C(=O)C3=C(C=C(C=C3C2=O)C(=O)O)O
InChI: InChI=1S/C15H8O6/c16-9-3-1-2-7-11(9)14(19)12-8(13(7)18)4-6(15(20)21)5-10(12)17/h1-5,16-17H,(H,20,21)
Instrument: Agilent 1200 RRLC; Agilent 6520 QTOF
Instrument type: LC-ESI-QTOF
Ms type: MS2
Ion mode: POSITIVE
Collision energy: 10 ev
Column name: Agilent C8 Cartridge Column 2.1X30mm 3.5 micron (guard); Agilent SB-Aq 2.1x50mm 1.8 micron (analytical)
Retention time: 8.508
Base peak: 285
Precursor m/z: 285.0394
Precursor type: [M+H]+
m/z	relative intensity
241.0462	222
285.0395	999
