Mass spectrum: Hydrocortisone; LC-ESI-QTOF; MS2; CE 40 ev; [M-H]-
Name: Hydrocortisone
Formula: C21H30O5
Exact mass: 362.209324
SMILES: CC12CCC(=O)C=C1CCC3C2C(CC4(C3CCC4(C(=O)CO)O)C)O
InChI: InChI=1S/C21H30O5/c1-19-7-5-13(23)9-12(19)3-4-14-15-6-8-21(26,17(25)11-22)20(15,2)10-16(24)18(14)19/h9,14-16,18,22,24,26H,3-8,10-11H2,1-2H3
Instrument: Agilent 1200 RRLC; Agilent 6520 QTOF
Instrument type: LC-ESI-QTOF
Ms type: MS2
Ion mode: NEGATIVE
Collision energy: 40 ev
Column name: Agilent C8 Cartridge Column 2.1X30mm 3.5 micron (guard); Agilent SB-Aq 2.1x50mm 1.8 micron (analytical)
Retention time: 7.409
Base peak: 282
Precursor m/z: 361.2020
Precursor type: [M-H]-
m/z	relative intensity
107.0433	88
107.0497	73
116.9251	167
123.0792	199
125.0635	662
135.0839	105
149.0591	64
161.0983	126
174.0604	85
174.0704	103
178.8424	85
189.0901	185
267.1347	103
282.1243	999
282.1608	64
295.1316	62
297.1501	316
300.3515	94
315.1446	59
