Mass spectrum: Phloretin; LC-ESI-QTOF; MS2; CE 40 ev; [M+H]+
Name: Phloretin
Formula: C15H14O5
Exact mass: 274.084124
SMILES: C1=CC(=CC=C1CCC(=O)C2=C(C=C(C=C2O)O)O)O
InChI: InChI=1S/C15H14O5/c16-10-4-1-9(2-5-10)3-6-12(18)15-13(19)7-11(17)8-14(15)20/h1-2,4-5,7-8,16-17,19-20H,3,6H2
Instrument: Agilent 1200 RRLC; Agilent 6520 QTOF
Instrument type: LC-ESI-QTOF
Ms type: MS2
Ion mode: POSITIVE
Collision energy: 40 ev
Column name: Agilent C8 Cartridge Column 2.1X30mm 3.5 micron (guard); Agilent SB-Aq 2.1x50mm 1.8 micron (analytical)
Retention time: 6.713
Base peak: 107
Precursor m/z: 275.0914
Precursor type: [M+H]+
m/z	relative intensity
107.0495	999
107.0772	27
107.0831	15
107.0958	15
107.1466	17
