Mass spectrum: Bergapten; LC-ESI-QTOF; MS2; CE 20 ev; [M+H]+
Name: Bergapten
Formula: C12H8O4
Exact mass: 216.042259
SMILES: COC1=C2C=CC(=O)OC2=CC3=C1C=CO3
InChI: InChI=1S/C12H8O4/c1-14-12-7-2-3-11(13)16-10(7)6-9-8(12)4-5-15-9/h2-6H,1H3
Instrument: Agilent 1200 RRLC; Agilent 6520 QTOF
Instrument type: LC-ESI-QTOF
Ms type: MS2
Ion mode: POSITIVE
Collision energy: 20 ev
Column name: Agilent C8 Cartridge Column 2.1X30mm 3.5 micron (guard); Agilent SB-Aq 2.1x50mm 1.8 micron (analytical)
Retention time: 7.327
Base peak: 202
Precursor m/z: 217.0496
Precursor type: [M+H]+
m/z	relative intensity
100.0304	6
105.0719	7
115.0551	56
117.0723	8
118.0425	46
130.0394	9
131.0498	40
143.0495	13
145.0235	11
145.0627	10
146.0356	37
158.032	16
161.0558	18
161.065	6
173.025	6
173.0574	27
174.0295	202
174.076	6
202.0247	999
202.0644	35
202.0851	14
202.1249	8
202.1568	17
202.202	6
202.3609	5
217.0466	232
