Mass spectrum: Theobromine; LC-ESI-QTOF; MS2; CE 20 ev; [M+H]+
Name: Theobromine
Formula: C7H8N4O2
Exact mass: 180.064726
SMILES: CN1C=NC2=C1C(=O)NC(=O)N2C
InChI: InChI=1S/C7H8N4O2/c1-10-3-8-5-4(10)6(12)9-7(13)11(5)2/h3H,1-2H3,(H,9,12,13)
Instrument: Agilent 1200 RRLC; Agilent 6520 QTOF
Instrument type: LC-ESI-QTOF
Ms type: MS2
Ion mode: POSITIVE
Collision energy: 20 ev
Column name: Agilent C8 Cartridge Column 2.1X30mm 3.5 micron (guard); Agilent SB-Aq 2.1x50mm 1.8 micron (analytical)
Retention time: 2.641
Base peak: 138
Precursor m/z: 181.0720
Precursor type: [M+H]+
m/z	relative intensity
108.0543	215
110.0707	748
135.0664	196
137.0823	300
138.0642	999
138.0709	288
163.0588	466
181.0716	711
