Mass spectrum: Caffeine; LC-ESI-QTOF; MS2; CE 40 ev; [M+H]+
Name: Caffeine
Formula: C8H10N4O2
Exact mass: 194.080376
SMILES: CN1C=NC2=C1C(=O)N(C(=O)N2C)C
InChI: InChI=1S/C8H10N4O2/c1-10-4-9-6-5(10)7(13)12(3)8(14)11(6)2/h4H,1-3H3
Instrument: Agilent 1200 RRLC; Agilent 6520 QTOF
Instrument type: LC-ESI-QTOF
Ms type: MS2
Ion mode: POSITIVE
Collision energy: 40 ev
Column name: Agilent C8 Cartridge Column 2.1X30mm 3.5 micron (guard); Agilent SB-Aq 2.1x50mm 1.8 micron (analytical)
Retention time: 4.122
Base peak: 123
Precursor m/z: 195.0877
Precursor type: [M+H]+
m/z	relative intensity
108.0533	74
109.038	244
110.0718	354
123.0423	999
123.0812	50
138.0644	233
