Mass spectrum: Scopoletin; LC-ESI-QTOF; MS2; CE 10 ev; [M-H]-
Name: Scopoletin
Formula: C10H8O4
Exact mass: 192.042259
SMILES: COC1=C(C=C2C(=C1)C=CC(=O)O2)O
InChI: InChI=1S/C10H8O4/c1-13-9-4-6-2-3-10(12)14-8(6)5-7(9)11/h2-5,11H,1H3
Instrument: Agilent 1200 RRLC; Agilent 6520 QTOF
Instrument type: LC-ESI-QTOF
Ms type: MS2
Ion mode: NEGATIVE
Collision energy: 10 ev
Column name: Agilent C8 Cartridge Column 2.1X30mm 3.5 micron (guard); Agilent SB-Aq 2.1x50mm 1.8 micron (analytical)
Retention time: 4.630
Base peak: 176
Precursor m/z: 191.0350
Precursor type: [M-H]-
m/z	relative intensity
104.0258	32
105.351	6
120.023	8
148.0168	50
176.0111	999
176.0486	27
176.0694	11
176.0885	7
176.134	14
191.0342	495
