Mass spectrum: Limocitrin; LC-ESI-QTOF; MS2; CE 20 ev; [M+H]+
Name: Limocitrin
Formula: C17H14O8
Exact mass: 346.068867
SMILES: COC1=C(C=CC(=C1)C2=C(C(=O)C3=C(O2)C(=C(C=C3O)O)OC)O)O
InChI: InChI=1S/C17H14O8/c1-23-11-5-7(3-4-8(11)18)15-14(22)13(21)12-9(19)6-10(20)16(24-2)17(12)25-15/h3-6,18-20,22H,1-2H3
Instrument: Agilent 1200 RRLC; Agilent 6520 QTOF
Instrument type: LC-ESI-QTOF
Ms type: MS2
Ion mode: POSITIVE
Collision energy: 20 ev
Column name: Agilent C8 Cartridge Column 2.1X30mm 3.5 micron (guard); Agilent SB-Aq 2.1x50mm 1.8 micron (analytical)
Retention time: 7.909
Base peak: 347
Precursor m/z: 347.0762
Precursor type: [M+H]+
m/z	relative intensity
301.0299	135
332.0521	917
347.0746	999
