Mass spectrum: 8-Chlro-1-tetrahydronorharmanone; LC-ESI-QTOF; MS2; CE 10 ev; [M+H]+
Name: 8-Chlro-1-tetrahydronorharmanone
Formula: C11H9ClN2O
Exact mass: 220.040341
SMILES: C1CNC(=O)C2=C1C3=C(N2)C(=CC=C3)Cl
InChI: InChI=1S/C11H9ClN2O/c12-8-3-1-2-6-7-4-5-13-11(15)10(7)14-9(6)8/h1-3,14H,4-5H2,(H,13,15)
Instrument: Agilent 1200 RRLC; Agilent 6520 QTOF
Instrument type: LC-ESI-QTOF
Ms type: MS2
Ion mode: POSITIVE
Collision energy: 10 ev
Column name: Agilent C8 Cartridge Column 2.1X30mm 3.5 micron (guard); Agilent SB-Aq 2.1x50mm 1.8 micron (analytical)
Retention time: 7.065
Base peak: 221
Precursor m/z: 221.0476
Precursor type: [M+H]+
m/z	relative intensity
131.0728	15
143.0738	23
157.0808	16
158.0822	95
164.028	16
166.04	54
176.025	12
178.0407	45
191.0367	15
192.0179	19
192.0409	20
193.0512	296
193.086	10
204.0183	15
221.0462	999
