Mass spectrum: Estrone; LC-ESI-QTOF; MS2; CE 40 ev; [M-H]-
Name: Estrone
Formula: C18H22O2
Exact mass: 270.16198
SMILES: CC12CCC3C(C1CCC2=O)CCC4=C3C=CC(=C4)O
InChI: InChI=1S/C18H22O2/c1-18-9-8-14-13-5-3-12(19)10-11(13)2-4-15(14)16(18)6-7-17(18)20/h3,5,10,14-16,19H,2,4,6-9H2,1H3
Instrument: Agilent 1200 RRLC; Agilent 6520 QTOF
Instrument type: LC-ESI-QTOF
Ms type: MS2
Ion mode: NEGATIVE
Collision energy: 40 ev
Column name: Agilent C8 Cartridge Column 2.1X30mm 3.5 micron (guard); Agilent SB-Aq 2.1x50mm 1.8 micron (analytical)
Retention time: 8.651
Base peak: 145
Precursor m/z: 269.1547
Precursor type: [M-H]-
m/z	relative intensity
122.8051	34
141.0307	43
143.0469	89
145.0657	999
145.1065	32
145.179	25
158.0778	28
159.0805	174
169.0398	35
183.0773	125
197.0932	41
198.1039	37
235.0787	29
251.1052	35
254.1479	42
269.1562	314
