Mass spectrum: Ketoprofen; LC-ESI-QTOF; MS2; CE 40 ev; [M+H]+
Name: Ketoprofen
Formula: C16H14O3
Exact mass: 254.094294
SMILES: CC(C1=CC=CC(=C1)C(=O)C2=CC=CC=C2)C(=O)O
InChI: InChI=1S/C16H14O3/c1-11(16(18)19)13-8-5-9-14(10-13)15(17)12-6-3-2-4-7-12/h2-11H,1H3,(H,18,19)
Instrument: Agilent 1200 RRLC; Agilent 6520 QTOF
Instrument type: LC-ESI-QTOF
Ms type: MS2
Ion mode: POSITIVE
Collision energy: 40 ev
Column name: Agilent C8 Cartridge Column 2.1X30mm 3.5 micron (guard); Agilent SB-Aq 2.1x50mm 1.8 micron (analytical)
Retention time: 7.850
Base peak: 105
Precursor m/z: 255.1016
Precursor type: [M+H]+
m/z	relative intensity
103.0541	559
105.034	999
105.0674	81
165.0698	147
194.0679	100
