Mass spectrum: Sinomenine; LC-ESI-QTOF; MS2; CE 20 ev; [M+H]+
Name: Sinomenine
Name: (9S,10S,1R)-3-hydroxy-4,12-dimethoxy-17-methyl-17-azatetracyclo[7.5.3.0<1,10>. 0<2,7>]heptadeca-2,4,6,11-tetraen-13-one
Formula: C19H23NO4
Exact mass: 329.162708
SMILES: CN1CC[C@@]23CC(=O)C(=C[C@@H]2[C@@H]1CC4=C3C(=C(C=C4)OC)O)OC
InChI: InChI=1S/C19H23NO4/c1-20-7-6-19-10-14(21)16(24-3)9-12(19)13(20)8-11-4-5-15(23-2)18(22)17(11)19/h4-5,9,12-13,22H,6-8,10H2,1-3H3/t12-,13+,19-/m1/s1
Instrument: Agilent 1200 RRLC; Agilent 6520 QTOF
Instrument type: LC-ESI-QTOF
Ms type: MS2
Ion mode: POSITIVE
Collision energy: 20 ev
Column name: Agilent C8 Cartridge Column 2.1X30mm 3.5 micron (guard); Agilent SB-Aq 2.1x50mm 1.8 micron (analytical)
Retention time: 2.660
Base peak: 330
Precursor m/z: 330.1700
Precursor type: [M+H]+
m/z	relative intensity
195.0771	52
207.0431	58
209.0638	71
210.0827	29
213.0847	117
223.0724	123
235.0684	82
237.0961	35
239.0658	94
241.0842	67
251.9708	25
255.0996	72
271.0901	38
330.1276	42
330.1711	999
