Mass spectrum: Sophoricoside; LC-ESI-QTOF; MS2; CE 10 ev; [M-H]-
Name: Sophoricoside
Name: 5,7-dihydroxy-3-(4-{[(2S,3R,4S,5S,6R)-3,4,5-trihydroxy-6-(hydroxymethyl)tetrahydro-2H-pyran-2-yl]oxy}phenyl)-4H-chromen-4-one
Formula: C21H20O10
Exact mass: 432.105647
SMILES: C1=CC(=CC=C1C2=COC3=CC(=CC(=C3C2=O)O)O)OC4C(C(C(C(O4)CO)O)O)O
InChI: InChI=1S/C21H20O10/c22-7-15-18(26)19(27)20(28)21(31-15)30-11-3-1-9(2-4-11)12-8-29-14-6-10(23)5-13(24)16(14)17(12)25/h1-6,8,15,18-24,26-28H,7H2
Instrument: Agilent 1200 RRLC; Agilent 6520 QTOF
Instrument type: LC-ESI-QTOF
Ms type: MS2
Ion mode: NEGATIVE
Collision energy: 10 ev
Column name: Agilent C8 Cartridge Column 2.1X30mm 3.5 micron (guard); Agilent SB-Aq 2.1x50mm 1.8 micron (analytical)
Retention time: 5.732
Base peak: 431
Precursor m/z: 431.0983
Precursor type: [M-H]-
m/z	relative intensity
100.1529	1
104.029	2
150.2625	1
153.374	2
195.0274	1
218.0419	1
224.0337	1
239.024	1
239.0392	3
267.0378	2
268.0343	34
268.0527	2
268.0732	1
269.044	7
282.0426	1
291.0276	1
311.0546	1
323.1076	1
430.2088	1
431.0977	999
