Mass spectrum: Acacetin; LC-ESI-QTOF; MS2; CE 40 ev; [M+H]+
Name: Acacetin
Formula: C16H12O5
Exact mass: 284.068473
SMILES: COC1=CC=C(C=C1)C2=CC(=O)C3=C(C=C(C=C3O2)O)O
InChI: InChI=1S/C16H12O5/c1-20-11-4-2-9(3-5-11)14-8-13(19)16-12(18)6-10(17)7-15(16)21-14/h2-8,17-18H,1H3
Instrument: Agilent 1200 RRLC; Agilent 6520 QTOF
Instrument type: LC-ESI-QTOF
Ms type: MS2
Ion mode: POSITIVE
Collision energy: 40 ev
Column name: Agilent C8 Cartridge Column 2.1X30mm 3.5 micron (guard); Agilent SB-Aq 2.1x50mm 1.8 micron (analytical)
Retention time: 8.970
Base peak: 242
Precursor m/z: 285.0758
Precursor type: [M+H]+
m/z	relative intensity
115.0563	22
133.0647	29
152.0122	25
153.0168	437
185.0466	17
203.0273	21
213.0572	39
241.0451	58
242.0559	999
242.1041	50
242.129	23
270.0494	56
