Mass spectrum: Histidine; LC-ESI-QTOF; MS; NEGATIVE
Name: Histidine
Formula: C6H9N3O2
Exact mass: 155.069477
SMILES: C1=C(NC=N1)CC(C(=O)O)N
InChI: InChI=1S/C6H9N3O2/c7-5(6(10)11)1-4-2-8-3-9-4/h2-3,5H,1,7H2,(H,8,9)(H,10,11)
Instrument: Agilent 1200 RRLC; Agilent 6520 QTOF
Instrument type: LC-ESI-QTOF
Ms type: MS
Ion mode: NEGATIVE
Column name: Agilent C8 Cartridge Column 2.1X30mm 3.5 micron (guard); Agilent SB-Aq 2.1x50mm 1.8 micron (analytical)
Retention time: 0.330
m/z	relative intensity
154.0622235	999
