Mass spectrum: 1,9-dimethyluric acid; LC-APCI-QTOF; MS; NEGATIVE
Name: 1,9-dimethyluric acid
Formula: C7H8N4O3
Exact mass: 196.05964
SMILES: CN1C2=C(C(=O)N(C(=O)N2)C)NC1=O
InChI: InChI=1S/C7H8N4O3/c1-10-4-3(8-6(10)13)5(12)11(2)7(14)9-4/h1-2H3,(H,8,13)(H,9,14)
Instrument: Agilent 1200 RRLC; Agilent 6520 QTOF
Instrument type: LC-APCI-QTOF
Ms type: MS
Ion mode: NEGATIVE
Column name: Agilent C8 Cartridge Column 2.1X30mm 3.5 micron (guard); Agilent SB-Aq 2.1x50mm 1.8 micron (analytical)
Retention time: 1.862
m/z	relative intensity
195.0523235	999
