Mass spectrum: 3-Hydroxy-3',4'-Dimethoxyflavone; LC-APCI-QTOF; MS; NEGATIVE
Name: 3-Hydroxy-3',4'-Dimethoxyflavone
Formula: C17H14O5
Exact mass: 298.084124
SMILES: COC1=C(C=C(C=C1)C2=C(C(=O)C3=CC=CC=C3O2)O)OC
InChI: InChI=1S/C17H14O5/c1-20-13-8-7-10(9-14(13)21-2)17-16(19)15(18)11-5-3-4-6-12(11)22-17/h3-9,19H,1-2H3
Instrument: Agilent 1200 RRLC; Agilent 6520 QTOF
Instrument type: LC-APCI-QTOF
Ms type: MS
Ion mode: NEGATIVE
Column name: Agilent C8 Cartridge Column 2.1X30mm 3.5 micron (guard); Agilent SB-Aq 2.1x50mm 1.8 micron (analytical)
Retention time: 9.010
m/z	relative intensity
297.0768235	999
