Mass spectrum: Lactulose; LC-ESI-QTOF; MS; NEGATIVE
Name: Lactulose
Formula: C12H22O11
Exact mass: 342.116212
SMILES: C(C1C(C(C(C(O1)OC2C(OC(C2O)(CO)O)CO)O)O)O)O
InChI: InChI=1S/C12H22O11/c13-1-4-6(16)7(17)8(18)11(21-4)22-9-5(2-14)23-12(20,3-15)10(9)19/h4-11,13-20H,1-3H2
Instrument: Agilent 1200 RRLC; Agilent 6520 QTOF
Instrument type: LC-ESI-QTOF
Ms type: MS
Ion mode: NEGATIVE
Column name: Agilent C8 Cartridge Column 2.1X30mm 3.5 micron (guard); Agilent SB-Aq 2.1x50mm 1.8 micron (analytical)
Retention time: 0.373
m/z	relative intensity
341.1089235	999
401.129504	369
