Mass spectrum: Psoralen; LC-ESI-QTOF; MS; POSITIVE
Name: Psoralen
Formula: C11H6O3
Exact mass: 186.031694
SMILES: C1=CC(=O)OC2=CC3=C(C=CO3)C=C21
InChI: InChI=1S/C11H6O3/c12-11-2-1-7-5-8-3-4-13-9(8)6-10(7)14-11/h1-6H
Instrument: Agilent 1200 RRLC; Agilent 6520 QTOF
Instrument type: LC-ESI-QTOF
Ms type: MS
Ion mode: POSITIVE
Column name: Agilent C8 Cartridge Column 2.1X30mm 3.5 micron (guard); Agilent SB-Aq 2.1x50mm 1.8 micron (analytical)
Retention time: 6.271
m/z	relative intensity
187.0389765	999
209.020918	526
