Mass spectrum: O2,2'-Cyclouridine; LC-APCI-QTOF; MS; POSITIVE
Name: O2,2'-Cyclouridine
Formula: C9H10N2O5
Exact mass: 226.058971
SMILES: C1=CN2C3C(C(C(O3)CO)O)OC2=NC1=O
InChI: InChI=1S/C9H10N2O5/c12-3-4-6(14)7-8(15-4)11-2-1-5(13)10-9(11)16-7/h1-2,4,6-8,12,14H,3H2
Instrument: Agilent 1200 RRLC; Agilent 6520 QTOF
Instrument type: LC-APCI-QTOF
Ms type: MS
Ion mode: POSITIVE
Column name: Agilent C8 Cartridge Column 2.1X30mm 3.5 micron (guard); Agilent SB-Aq 2.1x50mm 1.8 micron (analytical)
Retention time: 0.400
m/z	relative intensity
227.0662765	999
