Mass spectrum: D-Pinitol; LC-ESI-QTOF; MS; POSITIVE
Name: D-Pinitol
Formula: C7H14O6
Exact mass: 194.079038
SMILES: COC1C(C(C(C(C1O)O)O)O)O
InChI: InChI=1S/C7H14O6/c1-13-7-5(11)3(9)2(8)4(10)6(7)12/h2-12H,1H3
Instrument: Agilent 1200 RRLC; Agilent 6520 QTOF
Instrument type: LC-ESI-QTOF
Ms type: MS
Ion mode: POSITIVE
Column name: Agilent C8 Cartridge Column 2.1X30mm 3.5 micron (guard); Agilent SB-Aq 2.1x50mm 1.8 micron (analytical)
Retention time: 0.363
m/z	relative intensity
195.0862765	831
217.068218	999
