Mass spectrum: Fructose (Generic Ketohexose); LC-APCI-QTOF; MS; NEGATIVE
Name: Fructose (Generic Ketohexose)
Formula: C6H12O6
Exact mass: 180.063388
SMILES: C1C(C(C(C(O1)(CO)O)O)O)O
InChI: InChI=1S/C6H12O6/c7-2-6(11)5(10)4(9)3(8)1-12-6/h3-5,7-11H,1-2H2
Instrument: Agilent 1200 RRLC; Agilent 6520 QTOF
Instrument type: LC-APCI-QTOF
Ms type: MS
Ion mode: NEGATIVE
Column name: Agilent C8 Cartridge Column 2.1X30mm 3.5 micron (guard); Agilent SB-Aq 2.1x50mm 1.8 micron (analytical)
Retention time: 0.401
m/z	relative intensity
179.0561235	999
