Mass spectrum: Esculetin; LC-APCI-QTOF; MS; POSITIVE
Name: Esculetin
Formula: C9H6O4
Exact mass: 178.026609
SMILES: C1=CC(=O)OC2=CC(=C(C=C21)O)O
InChI: InChI=1S/C9H6O4/c10-6-3-5-1-2-9(12)13-8(5)4-7(6)11/h1-4,10-11H
Instrument: Agilent 1200 RRLC; Agilent 6520 QTOF
Instrument type: LC-APCI-QTOF
Ms type: MS
Ion mode: POSITIVE
Column name: Agilent C8 Cartridge Column 2.1X30mm 3.5 micron (guard); Agilent SB-Aq 2.1x50mm 1.8 micron (analytical)
Retention time: 3.213
m/z	relative intensity
179.0338765	999
