Mass spectrum: Ricinine; LC-APCI-QTOF; MS; POSITIVE
Name: Ricinine
Name: 4-methoxy-1-methyl-2-oxohydropyridine-3-carbonitrile
Formula: C8H8N2O2
Exact mass: 164.058578
SMILES: CN1C=CC(=C(C1=O)C#N)OC
InChI: InChI=1S/C8H8N2O2/c1-10-4-3-7(12-2)6(5-9)8(10)11/h3-4H,1-2H3
Instrument: Agilent 1200 RRLC; Agilent 6520 QTOF
Instrument type: LC-APCI-QTOF
Ms type: MS
Ion mode: POSITIVE
Column name: Agilent C8 Cartridge Column 2.1X30mm 3.5 micron (guard); Agilent SB-Aq 2.1x50mm 1.8 micron (analytical)
Retention time: 2.783
m/z	relative intensity
165.0658765	999
