Mass spectrum: Hematoxylin; LC-ESI-QTOF; MS; NEGATIVE
Name: Hematoxylin
Formula: C16H14O6
Exact mass: 302.079038
SMILES: C1C2=CC(=C(C=C2C3C1(COC4=C3C=CC(=C4O)O)O)O)O
InChI: InChI=1S/C16H14O6/c17-10-2-1-8-13-9-4-12(19)11(18)3-7(9)5-16(13,21)6-22-15(8)14(10)20/h1-4,13,17-21H,5-6H2
Instrument: Agilent 1200 RRLC; Agilent 6520 QTOF
Instrument type: LC-ESI-QTOF
Ms type: MS
Ion mode: NEGATIVE
Column name: Agilent C8 Cartridge Column 2.1X30mm 3.5 micron (guard); Agilent SB-Aq 2.1x50mm 1.8 micron (analytical)
Retention time: 2.262
m/z	relative intensity
301.0717235	999
