Mass spectrum: Hippuric acid; LC-ESI-QTOF; MS; POSITIVE
Name: Hippuric acid
Formula: C9H9NO3
Exact mass: 179.058243
SMILES: C1=CC=C(C=C1)C(=O)NCC(=O)O
InChI: InChI=1S/C9H9NO3/c11-8(12)6-10-9(13)7-4-2-1-3-5-7/h1-5H,6H2,(H,10,13)(H,11,12)
Instrument: Agilent 1200 RRLC; Agilent 6520 QTOF
Instrument type: LC-ESI-QTOF
Ms type: MS
Ion mode: POSITIVE
Column name: Agilent C8 Cartridge Column 2.1X30mm 3.5 micron (guard); Agilent SB-Aq 2.1x50mm 1.8 micron (analytical)
Retention time: 2.320
m/z	relative intensity
180.0654765	999
202.047418	334
