Mass spectrum: 5-Methyl-2-thiouridine; LC-APCI-QTOF; MS; NEGATIVE
Name: 5-Methyl-2-thiouridine
Formula: C10H14N2O5S
Exact mass: 274.062343
SMILES: CC1=CN(C(=S)NC1=O)C2C(C(C(O2)CO)O)O
InChI: InChI=1S/C10H14N2O5S/c1-4-2-12(10(18)11-8(4)16)9-7(15)6(14)5(3-13)17-9/h2,5-7,9,13-15H,3H2,1H3,(H,11,16,18)
Instrument: Agilent 1200 RRLC; Agilent 6520 QTOF
Instrument type: LC-APCI-QTOF
Ms type: MS
Ion mode: NEGATIVE
Column name: Agilent C8 Cartridge Column 2.1X30mm 3.5 micron (guard); Agilent SB-Aq 2.1x50mm 1.8 micron (analytical)
Retention time: 1.739
m/z	relative intensity
273.0550235	999
