Mass spectrum: Otosenine; LC-ESI-QTOF; MS; POSITIVE
Name: Otosenine
Formula: C19H27NO7
Exact mass: 381.178752
SMILES: C[C@@H]1C[C@]2([C@@H](O2)C)C(=O)O[C@@H]3CCN(C/C=C(\C3=O)/COC(=O)[C@]1(C)O)C
InChI: InChI=1S/C19H27NO7/c1-11-9-19(12(2)27-19)17(23)26-14-6-8-20(4)7-5-13(15(14)21)10-25-16(22)18(11,3)24/h5,11-12,14,24H,6-10H2,1-4H3/b13-5-/t11-,12+,14-,18-,19+/m1/s1
Instrument: Agilent 1200 RRLC; Agilent 6520 QTOF
Instrument type: LC-ESI-QTOF
Ms type: MS
Ion mode: POSITIVE
Column name: Agilent C8 Cartridge Column 2.1X30mm 3.5 micron (guard); Agilent SB-Aq 2.1x50mm 1.8 micron (analytical)
Retention time: 1.819
m/z	relative intensity
382.1860765	999
404.168018	28
