Mass spectrum: 2'-Deoxyadenosine; LC-APCI-QTOF; MS; POSITIVE
Name: 2'-Deoxyadenosine
Formula: C10H13N5O3
Exact mass: 251.101839
SMILES: C1C(C(OC1N2C=NC3=C2N=CN=C3N)CO)O
InChI: InChI=1S/C10H13N5O3/c11-9-8-10(13-3-12-9)15(4-14-8)7-1-5(17)6(2-16)18-7/h3-7,16-17H,1-2H2,(H2,11,12,13)
Instrument: Agilent 1200 RRLC; Agilent 6520 QTOF
Instrument type: LC-APCI-QTOF
Ms type: MS
Ion mode: POSITIVE
Column name: Agilent C8 Cartridge Column 2.1X30mm 3.5 micron (guard); Agilent SB-Aq 2.1x50mm 1.8 micron (analytical)
Retention time: 1.987
m/z	relative intensity
252.1090765	999
