Mass spectrum: Ammodendrine; LC-APCI-QTOF; MS; POSITIVE
Name: Ammodendrine
Formula: C12H20N2O
Exact mass: 208.157563
SMILES: CC(=O)N1CCCC(=C1)C2CCCCN2
InChI: InChI=1S/C12H20N2O/c1-10(15)14-8-4-5-11(9-14)12-6-2-3-7-13-12/h9,12-13H,2-8H2,1H3
Instrument: Agilent 1200 RRLC; Agilent 6520 QTOF
Instrument type: LC-APCI-QTOF
Ms type: MS
Ion mode: POSITIVE
Column name: Agilent C8 Cartridge Column 2.1X30mm 3.5 micron (guard); Agilent SB-Aq 2.1x50mm 1.8 micron (analytical)
Retention time: 2.372
m/z	relative intensity
209.1648765	999
