Mass spectrum: Haploperoside C Acetate; LC-APCI-QTOF; MS; POSITIVE
Name: Haploperoside C Acetate
Formula: C34H40O19
Exact mass: 752.216379
SMILES: CC1C(C(C(C(O1)OCC2C(C(C(C(O2)OC3=C(C=C4C=CC(=O)OC4=C3)OC)OC(=O)C)OC(=O)C)OC(=O)C)OC(=O)C)OC(=O)C)OC(=O)C
InChI: InChI=1S/C34H40O19/c1-14-27(45-15(2)35)29(47-17(4)37)31(49-19(6)39)33(44-14)43-13-25-28(46-16(3)36)30(48-18(5)38)32(50-20(7)40)34(53-25)52-24-12-22-21(11-23(24)42-8)9-10-26(41)51-22/h9-12,14,25,27-34H,13H2,1-8H3
Instrument: Agilent 1200 RRLC; Agilent 6520 QTOF
Instrument type: LC-APCI-QTOF
Ms type: MS
Ion mode: POSITIVE
Column name: Agilent C8 Cartridge Column 2.1X30mm 3.5 micron (guard); Agilent SB-Aq 2.1x50mm 1.8 micron (analytical)
Retention time: 9.162
m/z	relative intensity
753.2236765	999
