Mass spectrum: Carbocysteine; LC-ESI-QTOF; MS; POSITIVE
Name: Carbocysteine
Formula: C5H9NO4S
Exact mass: 179.025229
SMILES: C(C(C(=O)O)N)SCC(=O)O
InChI: InChI=1S/C5H9NO4S/c6-3(5(9)10)1-11-2-4(7)8/h3H,1-2,6H2,(H,7,8)(H,9,10)
Instrument: Agilent 1200 RRLC; Agilent 6520 QTOF
Instrument type: LC-ESI-QTOF
Ms type: MS
Ion mode: POSITIVE
Column name: Agilent C8 Cartridge Column 2.1X30mm 3.5 micron (guard); Agilent SB-Aq 2.1x50mm 1.8 micron (analytical)
Retention time: 0.395
m/z	relative intensity
180.0324765	999
