Mass spectrum: L(-)-Verbenone; LC-ESI-QTOF; MS; POSITIVE
Name: L(-)-Verbenone
Formula: C10H14O
Exact mass: 150.104465
SMILES: CC1=CC(=O)[C@H]2C[C@@H]1C2(C)C
InChI: InChI=1S/C10H14O/c1-6-4-9(11)8-5-7(6)10(8,2)3/h4,7-8H,5H2,1-3H3/t7-,8+/m0/s1
Instrument: Agilent 1200 RRLC; Agilent 6520 QTOF
Instrument type: LC-ESI-QTOF
Ms type: MS
Ion mode: POSITIVE
Column name: Agilent C8 Cartridge Column 2.1X30mm 3.5 micron (guard); Agilent SB-Aq 2.1x50mm 1.8 micron (analytical)
Retention time: 6.408
m/z	relative intensity
151.1117765	540
173.093718	999
