Mass spectrum: Brivudine; LC-ESI-QTOF; MS; NEGATIVE
Name: Brivudine
Formula: C11H13BrN2O5
Exact mass: 332.000784
SMILES: C1C(C(OC1N2C=C(C(=O)NC2=O)C=CBr)CO)O
InChI: InChI=1S/C11H13BrN2O5/c12-2-1-6-4-14(11(18)13-10(6)17)9-3-7(16)8(5-15)19-9/h1-2,4,7-9,15-16H,3,5H2,(H,13,17,18)
Instrument: Agilent 1200 RRLC; Agilent 6520 QTOF
Instrument type: LC-ESI-QTOF
Ms type: MS
Ion mode: NEGATIVE
Column name: Agilent C8 Cartridge Column 2.1X30mm 3.5 micron (guard); Agilent SB-Aq 2.1x50mm 1.8 micron (analytical)
Retention time: 3.859
m/z	relative intensity
330.9935235	999
391.014104	2
