Mass spectrum: Kynurenic Acid; LC-ESI-QTOF; MS; NEGATIVE
Name: Kynurenic Acid
Formula: C10H7NO3
Exact mass: 189.042593
SMILES: C1=CC=C2C(=C1)C(=O)C=C(N2)C(=O)O
InChI: InChI=1S/C10H7NO3/c12-9-5-8(10(13)14)11-7-4-2-1-3-6(7)9/h1-5H,(H,11,12)(H,13,14)
Instrument: Agilent 1200 RRLC; Agilent 6520 QTOF
Instrument type: LC-ESI-QTOF
Ms type: MS
Ion mode: NEGATIVE
Column name: Agilent C8 Cartridge Column 2.1X30mm 3.5 micron (guard); Agilent SB-Aq 2.1x50mm 1.8 micron (analytical)
Retention time: 2.729
m/z	relative intensity
188.0353235	999
