Mass spectrum: Caffeic acid; LC-ESI-QTOF; MS; NEGATIVE
Name: Caffeic acid
Formula: C9H8O4
Exact mass: 180.042259
SMILES: C1=CC(=C(C=C1C=CC(=O)O)O)O
InChI: InChI=1S/C9H8O4/c10-7-3-1-6(5-8(7)11)2-4-9(12)13/h1-5,10-11H,(H,12,13)
Instrument: Agilent 1200 RRLC; Agilent 6520 QTOF
Instrument type: LC-ESI-QTOF
Ms type: MS
Ion mode: NEGATIVE
Column name: Agilent C8 Cartridge Column 2.1X30mm 3.5 micron (guard); Agilent SB-Aq 2.1x50mm 1.8 micron (analytical)
Retention time: 2.971
m/z	relative intensity
179.0350235	999
