Mass spectrum: 3',4'-Dimethoxy-3-hydroxy-6-methylflavone; LC-ESI-QTOF; MS; POSITIVE
Name: 3',4'-Dimethoxy-3-hydroxy-6-methylflavone
Formula: C18H16O5
Exact mass: 312.099774
SMILES: CC1=CC2=C(C=C1)OC(=C(C2=O)O)C3=CC(=C(C=C3)OC)OC
InChI: InChI=1S/C18H16O5/c1-10-4-6-13-12(8-10)16(19)17(20)18(23-13)11-5-7-14(21-2)15(9-11)22-3/h4-9,20H,1-3H3
Instrument: Agilent 1200 RRLC; Agilent 6520 QTOF
Instrument type: LC-ESI-QTOF
Ms type: MS
Ion mode: POSITIVE
Column name: Agilent C8 Cartridge Column 2.1X30mm 3.5 micron (guard); Agilent SB-Aq 2.1x50mm 1.8 micron (analytical)
Retention time: 9.671
m/z	relative intensity
313.1070765	944
335.089018	999
