Mass spectrum: Dehydroepiandrosterone; LC-ESI-QTOF; MS; POSITIVE
Name: Dehydroepiandrosterone
Formula: C19H28O2
Exact mass: 288.20893
SMILES: CC12CCC3C(C1CCC2=O)CC=C4C3(CCC(C4)O)C
InChI: InChI=1S/C19H28O2/c1-18-9-7-13(20)11-12(18)3-4-14-15-5-6-17(21)19(15,2)10-8-16(14)18/h3,13-16,20H,4-11H2,1-2H3
Instrument: Agilent 1200 RRLC; Agilent 6520 QTOF
Instrument type: LC-ESI-QTOF
Ms type: MS
Ion mode: POSITIVE
Column name: Agilent C8 Cartridge Column 2.1X30mm 3.5 micron (guard); Agilent SB-Aq 2.1x50mm 1.8 micron (analytical)
Retention time: 9.336
m/z	relative intensity
289.2161765	269
311.198118	999
