Mass spectrum: Cotinine; LC-APCI-QTOF; MS; POSITIVE
Name: Cotinine
Formula: C10H12N2O
Exact mass: 176.094963
SMILES: CN1C(CCC1=O)C2=CN=CC=C2
InChI: InChI=1S/C10H12N2O/c1-12-9(4-5-10(12)13)8-3-2-6-11-7-8/h2-3,6-7,9H,4-5H2,1H3
Instrument: Agilent 1200 RRLC; Agilent 6520 QTOF
Instrument type: LC-APCI-QTOF
Ms type: MS
Ion mode: POSITIVE
Column name: Agilent C8 Cartridge Column 2.1X30mm 3.5 micron (guard); Agilent SB-Aq 2.1x50mm 1.8 micron (analytical)
Retention time: 1.997
m/z	relative intensity
177.1022765	999
