Mass spectrum: 2'-Deoxyguanosine 5'-monophosphate; LC-ESI-QTOF; MS; POSITIVE
Name: 2'-Deoxyguanosine 5'-monophosphate
Formula: C10H14N5O7P
Exact mass: 347.063084
SMILES: C1[C@@H](O[C@@H](C1O)COP(=O)(O)O)N2C=NC3=C2NC(=NC3=O)N
InChI: InChI=1S/C10H14N5O7P/c11-10-13-8-7(9(17)14-10)12-3-15(8)6-1-4(16)5(22-6)2-21-23(18,19)20/h3-6,16H,1-2H2,(H2,18,19,20)(H3,11,13,14,17)/t4?,5-,6-/m1/s1
Instrument: Agilent 1200 RRLC; Agilent 6520 QTOF
Instrument type: LC-ESI-QTOF
Ms type: MS
Ion mode: POSITIVE
Column name: Agilent C8 Cartridge Column 2.1X30mm 3.5 micron (guard); Agilent SB-Aq 2.1x50mm 1.8 micron (analytical)
Retention time: 0.399
m/z	relative intensity
348.0703765	999
