Mass spectrum: DL-Norphenylephrine; LC-APCI-QTOF; MS; NEGATIVE
Name: DL-Norphenylephrine
Formula: C8H11NO2
Exact mass: 153.078979
SMILES: C1=CC(=CC(=C1)O)C(CN)O
InChI: InChI=1S/C8H11NO2/c9-5-8(11)6-2-1-3-7(10)4-6/h1-4,8,10-11H,5,9H2
Instrument: Agilent 1200 RRLC; Agilent 6520 QTOF
Instrument type: LC-APCI-QTOF
Ms type: MS
Ion mode: NEGATIVE
Column name: Agilent C8 Cartridge Column 2.1X30mm 3.5 micron (guard); Agilent SB-Aq 2.1x50mm 1.8 micron (analytical)
Retention time: 0.401
m/z	relative intensity
152.0717235	999
