Mass spectrum: Rhamnopterin; LC-APCI-QTOF; MS; NEGATIVE
Name: Rhamnopterin
Formula: C10H13N5O4
Exact mass: 267.096754
SMILES: C[C@@H]([C@@H]([C@H](C1=CN=C2C(=N1)C(=O)N=C(N2)N)O)O)O
InChI: InChI=1S/C10H13N5O4/c1-3(16)6(17)7(18)4-2-12-8-5(13-4)9(19)15-10(11)14-8/h2-3,6-7,16-18H,1H3,(H3,11,12,14,15,19)/t3-,6-,7-/m0/s1
Instrument: Agilent 1200 RRLC; Agilent 6520 QTOF
Instrument type: LC-APCI-QTOF
Ms type: MS
Ion mode: NEGATIVE
Column name: Agilent C8 Cartridge Column 2.1X30mm 3.5 micron (guard); Agilent SB-Aq 2.1x50mm 1.8 micron (analytical)
Retention time: 0.406
m/z	relative intensity
266.0895235	999
