Mass spectrum: Reserpine; LC-ESI-QTOF; MS; NEGATIVE
Name: Reserpine
Name: 3,8-dimethoxy-4-(methoxycarbonyl)-1,2,3,4,5,11,14,14a,4a,5a-decahydrobenzo[3,4 -g]indolo[2,3-a]quinolizin-2-yl 3,4,5-trimethoxybenzoate
Formula: C33H40N2O9
Exact mass: 608.273381
SMILES: COC1C(CC2CN3CCC4=C(C3CC2C1C(=O)OC)NC5=C4C=CC(=C5)OC)OC(=O)C6=CC(=C(C(=C6)OC)OC)OC
InChI: InChI=1S/C33H40N2O9/c1-38-19-7-8-20-21-9-10-35-16-18-13-27(44-32(36)17-11-25(39-2)30(41-4)26(12-17)40-3)31(42-5)28(33(37)43-6)22(18)15-24(35)29(21)34-23(20)14-19/h7-8,11-12,14,18,22,24,27-28,31,34H,9-10,13,15-16H2,1-6H3
Instrument: Agilent 1200 RRLC; Agilent 6520 QTOF
Instrument type: LC-ESI-QTOF
Ms type: MS
Ion mode: NEGATIVE
Column name: Agilent C8 Cartridge Column 2.1X30mm 3.5 micron (guard); Agilent SB-Aq 2.1x50mm 1.8 micron (analytical)
Retention time: 7.541
m/z	relative intensity
607.2661235	381
667.286704	999
