Mass spectrum: Salicin; LC-ESI-QTOF; MS; POSITIVE
Name: Salicin
Formula: C13H18O7
Exact mass: 286.105253
SMILES: C1=CC=C(C(=C1)CO)OC2C(C(C(C(O2)CO)O)O)O
InChI: InChI=1S/C13H18O7/c14-5-7-3-1-2-4-8(7)19-13-12(18)11(17)10(16)9(6-15)20-13/h1-4,9-18H,5-6H2
Instrument: Agilent 1200 RRLC; Agilent 6520 QTOF
Instrument type: LC-ESI-QTOF
Ms type: MS
Ion mode: POSITIVE
Column name: Agilent C8 Cartridge Column 2.1X30mm 3.5 micron (guard); Agilent SB-Aq 2.1x50mm 1.8 micron (analytical)
Retention time: 1.816
m/z	relative intensity
287.1125765	25
309.094518	999
