Mass spectrum: 7-Benzyloxytryptamine; LC-ESI-QTOF; MS; POSITIVE
Name: 7-Benzyloxytryptamine
Formula: C17H18N2O
Exact mass: 266.141913
SMILES: C1=CC=C(C=C1)COC2=CC=CC3=C2NC=C3CCN
InChI: InChI=1S/C17H18N2O/c18-10-9-14-11-19-17-15(14)7-4-8-16(17)20-12-13-5-2-1-3-6-13/h1-8,11,19H,9-10,12,18H2
Instrument: Agilent 1200 RRLC; Agilent 6520 QTOF
Instrument type: LC-ESI-QTOF
Ms type: MS
Ion mode: POSITIVE
Column name: Agilent C8 Cartridge Column 2.1X30mm 3.5 micron (guard); Agilent SB-Aq 2.1x50mm 1.8 micron (analytical)
Retention time: 5.468
m/z	relative intensity
267.1491765	999
289.131118	56
