Mass spectrum: Harmalol; LC-ESI-QTOF; MS; POSITIVE
Name: Harmalol
Formula: C12H12N2O
Exact mass: 200.094963
SMILES: CC1=C2C(=C3C=CC(=O)C=C3N2)CCN1
InChI: InChI=1S/C12H12N2O/c1-7-12-10(4-5-13-7)9-3-2-8(15)6-11(9)14-12/h2-3,6,13-14H,4-5H2,1H3
Instrument: Agilent 1200 RRLC; Agilent 6520 QTOF
Instrument type: LC-ESI-QTOF
Ms type: MS
Ion mode: POSITIVE
Column name: Agilent C8 Cartridge Column 2.1X30mm 3.5 micron (guard); Agilent SB-Aq 2.1x50mm 1.8 micron (analytical)
Retention time: 2.843
m/z	relative intensity
201.1022765	999
223.084218	6
