Mass spectrum: Santonin; LC-APCI-QTOF; MS; POSITIVE
Name: Santonin
Formula: C15H18O3
Exact mass: 246.125594
SMILES: CC1C2CCC3(C=CC(=O)C(=C3C2OC1=O)C)C
InChI: InChI=1S/C15H18O3/c1-8-10-4-6-15(3)7-5-11(16)9(2)12(15)13(10)18-14(8)17/h5,7-8,10,13H,4,6H2,1-3H3
Instrument: Agilent 1200 RRLC; Agilent 6520 QTOF
Instrument type: LC-APCI-QTOF
Ms type: MS
Ion mode: POSITIVE
Column name: Agilent C8 Cartridge Column 2.1X30mm 3.5 micron (guard); Agilent SB-Aq 2.1x50mm 1.8 micron (analytical)
Retention time: 6.771
m/z	relative intensity
247.1328765	999
