Mass spectrum: Cytisine; LC-APCI-QTOF; MS; POSITIVE
Name: Cytisine
Formula: C11H14N2O
Exact mass: 190.110613
SMILES: C1[C@H]2CNC[C@@H]1C3=CC=CC(=O)N3C2
InChI: InChI=1S/C11H14N2O/c14-11-3-1-2-10-9-4-8(5-12-6-9)7-13(10)11/h1-3,8-9,12H,4-7H2/t8-,9+/m0/s1
Instrument: Agilent 1200 RRLC; Agilent 6520 QTOF
Instrument type: LC-APCI-QTOF
Ms type: MS
Ion mode: POSITIVE
Column name: Agilent C8 Cartridge Column 2.1X30mm 3.5 micron (guard); Agilent SB-Aq 2.1x50mm 1.8 micron (analytical)
Retention time: 0.395
m/z	relative intensity
191.1178765	999
