Mass spectrum: Aloe-Emodin-8-O-glycoside; LC-ESI-QTOF; MS; NEGATIVE
Name: Aloe-Emodin-8-O-glycoside
Formula: C21H20O10
Exact mass: 432.105647
SMILES: C1=CC2=C(C(=C1)OC3C(C(C(C(O3)CO)O)O)O)C(=O)C4=C(C=C(C=C4C2=O)CO)O
InChI: InChI=1S/C21H20O10/c22-6-8-4-10-14(11(24)5-8)18(27)15-9(16(10)25)2-1-3-12(15)30-21-20(29)19(28)17(26)13(7-23)31-21/h1-5,13,17,19-24,26,28-29H,6-7H2
Instrument: Agilent 1200 RRLC; Agilent 6520 QTOF
Instrument type: LC-ESI-QTOF
Ms type: MS
Ion mode: NEGATIVE
Column name: Agilent C8 Cartridge Column 2.1X30mm 3.5 micron (guard); Agilent SB-Aq 2.1x50mm 1.8 micron (analytical)
Retention time: 5.207
m/z	relative intensity
431.0983235	191
491.118904	999
