Mass spectrum: Pilocarpine; LC-ESI-QTOF; MS; POSITIVE
Name: Pilocarpine
Formula: C11H16N2O2
Exact mass: 208.121178
SMILES: CC[C@H]1[C@H](COC1=O)CC2=CN=CN2C
InChI: InChI=1S/C11H16N2O2/c1-3-10-8(6-15-11(10)14)4-9-5-12-7-13(9)2/h5,7-8,10H,3-4,6H2,1-2H3/t8-,10-/m0/s1
Instrument: Agilent 1200 RRLC; Agilent 6520 QTOF
Instrument type: LC-ESI-QTOF
Ms type: MS
Ion mode: POSITIVE
Column name: Agilent C8 Cartridge Column 2.1X30mm 3.5 micron (guard); Agilent SB-Aq 2.1x50mm 1.8 micron (analytical)
Retention time: 0.387
m/z	relative intensity
209.1284765	999
231.110418	2
