Mass spectrum: 7,3'-Dihydroxyflavone; LC-APCI-QTOF; MS; NEGATIVE
Name: 7,3'-Dihydroxyflavone
Formula: C15H10O4
Exact mass: 254.057909
SMILES: C1=CC(=CC(=C1)O)C2=CC(=O)C3=C(O2)C=C(C=C3)O
InChI: InChI=1S/C15H10O4/c16-10-3-1-2-9(6-10)14-8-13(18)12-5-4-11(17)7-15(12)19-14/h1-8,16-17H
Instrument: Agilent 1200 RRLC; Agilent 6520 QTOF
Instrument type: LC-APCI-QTOF
Ms type: MS
Ion mode: NEGATIVE
Column name: Agilent C8 Cartridge Column 2.1X30mm 3.5 micron (guard); Agilent SB-Aq 2.1x50mm 1.8 micron (analytical)
Retention time: 7.405
m/z	relative intensity
253.0506235	999
