Mass spectrum: Harman; LC-ESI-QTOF; MS; NEGATIVE
Name: Harman
Formula: C12H10N2
Exact mass: 182.084398
SMILES: CC1=NC=CC2=C1NC3=CC=CC=C23
InChI: InChI=1S/C12H10N2/c1-8-12-10(6-7-13-8)9-4-2-3-5-11(9)14-12/h2-7,14H,1H3
Instrument: Agilent 1200 RRLC; Agilent 6520 QTOF
Instrument type: LC-ESI-QTOF
Ms type: MS
Ion mode: NEGATIVE
Column name: Agilent C8 Cartridge Column 2.1X30mm 3.5 micron (guard); Agilent SB-Aq 2.1x50mm 1.8 micron (analytical)
Retention time: 3.645
m/z	relative intensity
181.0771235	999
