Mass spectrum: L-Cysteic acid; LC-ESI-QTOF; MS; NEGATIVE
Name: L-Cysteic acid
Formula: C3H7NO5S
Exact mass: 169.004493
SMILES: C(C(C(=O)O)N)S(=O)(=O)O
InChI: InChI=1S/C3H7NO5S/c4-2(3(5)6)1-10(7,8)9/h2H,1,4H2,(H,5,6)(H,7,8,9)
Instrument: Agilent 1200 RRLC; Agilent 6520 QTOF
Instrument type: LC-ESI-QTOF
Ms type: MS
Ion mode: NEGATIVE
Column name: Agilent C8 Cartridge Column 2.1X30mm 3.5 micron (guard); Agilent SB-Aq 2.1x50mm 1.8 micron (analytical)
Retention time: 0.381
m/z	relative intensity
167.9972235	999
