Mass spectrum: 6-Bromo-2-naphthyl-beta-D-galactopyranoside; LC-ESI-QTOF; MS; POSITIVE
Name: 6-Bromo-2-naphthyl-beta-D-galactopyranoside
Formula: C16H17BrO6
Exact mass: 384.02085
SMILES: C1=CC2=C(C=CC(=C2)Br)C=C1OC3C(C(C(C(O3)CO)O)O)O
InChI: InChI=1S/C16H17BrO6/c17-10-3-1-9-6-11(4-2-8(9)5-10)22-16-15(21)14(20)13(19)12(7-18)23-16/h1-6,12-16,18-21H,7H2
Instrument: Agilent 1200 RRLC; Agilent 6520 QTOF
Instrument type: LC-ESI-QTOF
Ms type: MS
Ion mode: POSITIVE
Column name: Agilent C8 Cartridge Column 2.1X30mm 3.5 micron (guard); Agilent SB-Aq 2.1x50mm 1.8 micron (analytical)
Retention time: 5.872
m/z	relative intensity
385.0281765	7
407.010118	999
