Mass spectrum: 2'-Deoxycytidine 5'-monophosphate; LC-ESI-QTOF; MS; POSITIVE
Name: 2'-Deoxycytidine 5'-monophosphate
Formula: C9H14N3O7P
Exact mass: 307.056936
SMILES: C1C(C(OC1N2C=CC(=NC2=O)N)COP(=O)(O)O)O
InChI: InChI=1S/C9H14N3O7P/c10-7-1-2-12(9(14)11-7)8-3-5(13)6(19-8)4-18-20(15,16)17/h1-2,5-6,8,13H,3-4H2,(H2,10,11,14)(H2,15,16,17)
Instrument: Agilent 1200 RRLC; Agilent 6520 QTOF
Instrument type: LC-ESI-QTOF
Ms type: MS
Ion mode: POSITIVE
Column name: Agilent C8 Cartridge Column 2.1X30mm 3.5 micron (guard); Agilent SB-Aq 2.1x50mm 1.8 micron (analytical)
Retention time: 0.400
m/z	relative intensity
308.0641765	999
