Mass spectrum: Nebularine; LC-ESI-QTOF; MS; POSITIVE
Name: Nebularine
Formula: C10H12N4O4
Exact mass: 252.085855
SMILES: C1=C2C(=NC=N1)N(C=N2)C3C(C(C(O3)CO)O)O
InChI: InChI=1S/C10H12N4O4/c15-2-6-7(16)8(17)10(18-6)14-4-13-5-1-11-3-12-9(5)14/h1,3-4,6-8,10,15-17H,2H2
Instrument: Agilent 1200 RRLC; Agilent 6520 QTOF
Instrument type: LC-ESI-QTOF
Ms type: MS
Ion mode: POSITIVE
Column name: Agilent C8 Cartridge Column 2.1X30mm 3.5 micron (guard); Agilent SB-Aq 2.1x50mm 1.8 micron (analytical)
Retention time: 1.825
m/z	relative intensity
253.0931765	999
