Mass spectrum: Brefeldin A; LC-APCI-QTOF; MS; NEGATIVE
Name: Brefeldin A
Formula: C16H24O4
Exact mass: 280.167459
SMILES: CC1CCCC=CC2CC(CC2C(C=CC(=O)O1)O)O
InChI: InChI=1S/C16H24O4/c1-11-5-3-2-4-6-12-9-13(17)10-14(12)15(18)7-8-16(19)20-11/h4,6-8,11-15,17-18H,2-3,5,9-10H2,1H3
Instrument: Agilent 1200 RRLC; Agilent 6520 QTOF
Instrument type: LC-APCI-QTOF
Ms type: MS
Ion mode: NEGATIVE
Column name: Agilent C8 Cartridge Column 2.1X30mm 3.5 micron (guard); Agilent SB-Aq 2.1x50mm 1.8 micron (analytical)
Retention time: 7.696
m/z	relative intensity
279.1602235	999
