Mass spectrum: 1,9-dideoxyforskolin; LC-ESI-QTOF; MS; POSITIVE
Name: 1,9-dideoxyforskolin
Formula: C22H34O5
Exact mass: 378.240624
SMILES: CC(=O)O[C@H]1[C@H]([C@@H]2[C@](CCCC2(C)C)([C@@H]3[C@@]1(O[C@@](CC3=O)(C)C=C)C)C)O
InChI: InChI=1S/C22H34O5/c1-8-20(5)12-14(24)16-21(6)11-9-10-19(3,4)17(21)15(25)18(26-13(2)23)22(16,7)27-20/h8,15-18,25H,1,9-12H2,2-7H3/t15-,16+,17-,18-,20-,21+,22-/m0/s1
Instrument: Agilent 1200 RRLC; Agilent 6520 QTOF
Instrument type: LC-ESI-QTOF
Ms type: MS
Ion mode: POSITIVE
Column name: Agilent C8 Cartridge Column 2.1X30mm 3.5 micron (guard); Agilent SB-Aq 2.1x50mm 1.8 micron (analytical)
Retention time: 9.067
m/z	relative intensity
379.2479	7
401.229842	999
