Mass spectrum: Hydroquinidine; LC-APCI-QTOF; MS; NEGATIVE
Name: Hydroquinidine
Formula: C20H26N2O2
Exact mass: 326.199428
SMILES: CCC1CN2CCC1CC2C(C3=C4C=C(C=CC4=NC=C3)OC)O
InChI: InChI=1S/C20H26N2O2/c1-3-13-12-22-9-7-14(13)10-19(22)20(23)16-6-8-21-18-5-4-15(24-2)11-17(16)18/h4-6,8,11,13-14,19-20,23H,3,7,9-10,12H2,1-2H3
Instrument: Agilent 1200 RRLC; Agilent 6520 QTOF
Instrument type: LC-APCI-QTOF
Ms type: MS
Ion mode: NEGATIVE
Column name: Agilent C8 Cartridge Column 2.1X30mm 3.5 micron (guard); Agilent SB-Aq 2.1x50mm 1.8 micron (analytical)
Retention time: 5.557
m/z	relative intensity
361.168802	999
