Mass spectrum: 2'-Deoxycytidine; LC-ESI-QTOF; MS; NEGATIVE
Name: 2'-Deoxycytidine
Formula: C9H13N3O4
Exact mass: 227.090606
SMILES: C1[C@@H]([C@H](O[C@H]1N2C=CC(=NC2=O)N)CO)O
InChI: InChI=1S/C9H13N3O4/c10-7-1-2-12(9(15)11-7)8-3-5(14)6(4-13)16-8/h1-2,5-6,8,13-14H,3-4H2,(H2,10,11,15)/t5-,6+,8+/m0/s1
Instrument: Agilent 1200 RRLC; Agilent 6520 QTOF
Instrument type: LC-ESI-QTOF
Ms type: MS
Ion mode: NEGATIVE
Column name: Agilent C8 Cartridge Column 2.1X30mm 3.5 micron (guard); Agilent SB-Aq 2.1x50mm 1.8 micron (analytical)
Retention time: 0.387
m/z	relative intensity
226.0833235	999
286.103904	381
