Mass spectrum: Tectochrysin; LC-ESI-QTOF; MS; POSITIVE
Name: Tectochrysin
Formula: C16H12O4
Exact mass: 268.073559
SMILES: COC1=CC(=C2C(=C1)OC(=CC2=O)C3=CC=CC=C3)O
InChI: InChI=1S/C16H12O4/c1-19-11-7-12(17)16-13(18)9-14(20-15(16)8-11)10-5-3-2-4-6-10/h2-9,17H,1H3
Instrument: Agilent 1200 RRLC; Agilent 6520 QTOF
Instrument type: LC-ESI-QTOF
Ms type: MS
Ion mode: POSITIVE
Column name: Agilent C8 Cartridge Column 2.1X30mm 3.5 micron (guard); Agilent SB-Aq 2.1x50mm 1.8 micron (analytical)
Retention time: 9.779
m/z	relative intensity
269.0808765	999
291.062818	615
