Mass spectrum: Coumarin 338; LC-ESI-QTOF; MS; POSITIVE
Name: Coumarin 338
Formula: C20H23NO4
Exact mass: 341.162708
SMILES: CC(C)(C)OC(=O)C1=CC2=CC3=C4C(=C2OC1=O)CCCN4CCC3
InChI: InChI=1S/C20H23NO4/c1-20(2,3)25-19(23)15-11-13-10-12-6-4-8-21-9-5-7-14(16(12)21)17(13)24-18(15)22/h10-11H,4-9H2,1-3H3
Instrument: Agilent 1200 RRLC; Agilent 6520 QTOF
Instrument type: LC-ESI-QTOF
Ms type: MS
Ion mode: POSITIVE
Column name: Agilent C8 Cartridge Column 2.1X30mm 3.5 micron (guard); Agilent SB-Aq 2.1x50mm 1.8 micron (analytical)
Retention time: 10.486
m/z	relative intensity
342.1699765	32
364.151918	999
