Mass spectrum: 2',3',6-Trimethoxyflavone; LC-ESI-QTOF; MS2; CE 40 ev; [M+H]+
Name: 2',3',6-Trimethoxyflavone
Formula: C18H16O5
Exact mass: 312.099774
SMILES: COC1=CC2=C(C=C1)OC(=CC2=O)C3=C(C(=CC=C3)OC)OC
InChI: InChI=1S/C18H16O5/c1-20-11-7-8-15-13(9-11)14(19)10-17(23-15)12-5-4-6-16(21-2)18(12)22-3/h4-10H,1-3H3
Instrument: Agilent 1200 RRLC; Agilent 6520 QTOF
Instrument type: LC-ESI-QTOF
Ms type: MS2
Ion mode: POSITIVE
Collision energy: 40 ev
Column name: Agilent C8 Cartridge Column 2.1X30mm 3.5 micron (guard); Agilent SB-Aq 2.1x50mm 1.8 micron (analytical)
Retention time: 9.458
Base peak: 151
Precursor m/z: 313.1071
Precursor type: [M+H]+
m/z	relative intensity
107.0138	529
107.0377	45
108.0203	165
117.0305	45
118.0412	44
120.0561	47
122.0352	376
123.0434	197
135.006	159
145.0241	44
147.0452	42
150.0309	461
151.0389	999
151.0826	39
152.0603	129
153.0681	83
157.0635	39
162.031	38
164.0553	50
168.053	47
177.0458	39
177.056	54
181.0616	83
181.07	90
183.0451	120
184.0508	50
184.0609	56
193.0588	47
195.0872	36
198.0655	35
201.0551	38
209.059	251
210.0588	53
211.0832	56
212.0466	32
224.0551	41
226.0591	249
226.0782	35
237.0535	628
238.0704	36
240.0423	42
251.0659	122
252.0738	266
252.1009	30
253.092	33
254.0592	221
255.0614	300
265.0458	419
267.0687	147
268.0648	45
269.078	329
279.0639	140
281.079	138
282.0493	72
295.0625	299
297.073	656
