Mass spectrum: 6,7-Dimethoxy-4-methylcoumarin; LC-ESI-QTOF; MS2; CE 20 ev; [M+H]+
Name: 6,7-Dimethoxy-4-methylcoumarin
Formula: C12H12O4
Exact mass: 220.073559
SMILES: CC1=CC(=O)OC2=CC(=C(C=C12)OC)OC
InChI: InChI=1S/C12H12O4/c1-7-4-12(13)16-9-6-11(15-3)10(14-2)5-8(7)9/h4-6H,1-3H3
Instrument: Agilent 1200 RRLC; Agilent 6520 QTOF
Instrument type: LC-ESI-QTOF
Ms type: MS2
Ion mode: POSITIVE
Collision energy: 20 ev
Column name: Agilent C8 Cartridge Column 2.1X30mm 3.5 micron (guard); Agilent SB-Aq 2.1x50mm 1.8 micron (analytical)
Retention time: 6.585
Base peak: 221
Precursor m/z: 221.0809
Precursor type: [M+H]+
m/z	relative intensity
105.0702	88
115.0534	59
121.0639	103
131.0497	90
132.0559	69
133.065	132
135.0796	59
146.0736	103
146.0789	46
147.0411	67
150.0668	239
160.0527	271
161.0593	67
162.0673	336
165.0906	462
176.0426	65
177.0547	353
177.0859	55
178.0634	44
193.0849	82
205.0472	806
205.0668	50
206.0554	342
221.0803	999
