Mass spectrum: 7,3'-Dihydroxyflavone; LC-ESI-QTOF; MS2; CE 40 ev; [M-H]-
Name: 7,3'-Dihydroxyflavone
Formula: C15H10O4
Exact mass: 254.057909
SMILES: C1=CC(=CC(=C1)O)C2=CC(=O)C3=C(O2)C=C(C=C3)O
InChI: InChI=1S/C15H10O4/c16-10-3-1-2-9(6-10)14-8-13(18)12-5-4-11(17)7-15(12)19-14/h1-8,16-17H
Instrument: Agilent 1200 RRLC; Agilent 6520 QTOF
Instrument type: LC-ESI-QTOF
Ms type: MS2
Ion mode: NEGATIVE
Collision energy: 40 ev
Column name: Agilent C8 Cartridge Column 2.1X30mm 3.5 micron (guard); Agilent SB-Aq 2.1x50mm 1.8 micron (analytical)
Retention time: 7.394
Base peak: 117
Precursor m/z: 253.0506
Precursor type: [M-H]-
m/z	relative intensity
101.0371	24
103.0181	22
103.0291	9
103.0568	24
104.0271	55
105.0354	49
105.4516	8
107.0102	23
108.2649	6
110.5857	12
113.0385	40
115.0121	12
115.0186	32
115.0526	30
116.0328	18
117.0344	999
117.0656	29
117.0914	10
117.1359	11
117.2508	7
127.0548	22
127.8374	6
128.0554	7
128.3062	12
129.0341	130
129.063	6
130.0399	22
131.0461	25
132.0215	114
133.0287	146
133.0647	6
135.0073	488
135.0424	10
135.0555	7
135.0803	9
135.9049	7
139.0547	23
140.5702	9
141.0314	101
141.0675	47
142.0411	11
142.0487	8
142.7131	8
143.0495	35
145.0272	25
145.6513	8
149.0039	6
151.0534	57
151.0682	12
152.0611	79
153.0722	34
153.3834	7
154.043	71
155.049	75
155.788	7
156.0586	39
157.0301	38
157.0616	16
158.0345	23
158.0451	7
159.0442	70
160.0149	49
161.024	66
161.8953	11
163.0294	6
165.0328	14
165.0703	16
167.0484	94
168.061	34
169.032	15
169.0666	136
169.0962	10
170.7135	7
171.0464	17
178.0528	7
179.0484	78
180.0572	328
180.0978	12
180.8883	8
181.0653	94
182.0368	174
183.0428	131
184.0453	13
185.0223	90
185.063	43
185.1108	8
187.0072	8
187.0431	15
191.0576	8
194.0381	7
195.0437	356
195.0775	9
195.0882	10
196.0512	329
196.0962	19
197.062	94
198.0252	23
199.0455	18
207.0385	20
208.0536	133
208.0938	7
209.0181	8
209.0623	102
209.0993	12
210.0355	65
211.0415	67
223.0388	116
224.0477	408
224.0869	22
224.1379	8
225.0602	45
235.0339	22
238.1795	8
251.0324	19
252.0477	28
252.0735	15
253.0508	282
