Mass spectrum: Ajmaline; LC-ESI-QTOF; MS2; CE 20 ev; [M+H]+
Name: Ajmaline
Formula: C20H26N2O2
Exact mass: 326.199428
SMILES: CCC1C2CC3C4C5(CC(C2C5O)N3C1O)C6=CC=CC=C6N4C
InChI: InChI=1S/C20H26N2O2/c1-3-10-11-8-14-17-20(12-6-4-5-7-13(12)21(17)2)9-15(16(11)18(20)23)22(14)19(10)24/h4-7,10-11,14-19,23-24H,3,8-9H2,1-2H3
Instrument: Agilent 1200 RRLC; Agilent 6520 QTOF
Instrument type: LC-ESI-QTOF
Ms type: MS2
Ion mode: POSITIVE
Collision energy: 20 ev
Column name: Agilent C8 Cartridge Column 2.1X30mm 3.5 micron (guard); Agilent SB-Aq 2.1x50mm 1.8 micron (analytical)
Retention time: 4.178
Base peak: 327
Precursor m/z: 327.2067
Precursor type: [M+H]+
m/z	relative intensity
108.0834	6
110.0963	17
136.077	6
138.0905	15
144.0765	14
158.0942	23
170.0885	6
182.0964	13
182.1176	5
184.1103	15
210.1218	14
212.1044	14
237.1322	8
238.1239	16
264.1659	6
274.1533	6
291.1858	8
292.1688	6
309.2007	9
310.1713	9
327.2049	999
