Mass spectrum: L-Histidine beta-naphthylamide; LC-APCI-QTOF; MS; NEGATIVE
Name: L-Histidine beta-naphthylamide
Formula: C16H16N4O
Exact mass: 280.132411
SMILES: C1=CC=C2C=C(C=CC2=C1)NC(=O)C(CC3=CN=CN3)N
InChI: InChI=1S/C16H16N4O/c17-15(8-14-9-18-10-19-14)16(21)20-13-6-5-11-3-1-2-4-12(11)7-13/h1-7,9-10,15H,8,17H2,(H,18,19)(H,20,21)
Instrument: Agilent 1200 RRLC; Agilent 6520 QTOF
Instrument type: LC-APCI-QTOF
Ms type: MS
Ion mode: NEGATIVE
Column name: Agilent C8 Cartridge Column 2.1X30mm 3.5 micron (guard); Agilent SB-Aq 2.1x50mm 1.8 micron (analytical)
Retention time: 1.897
m/z	relative intensity
279.1251235	999
315.101802	123
