Mass spectrum: Mycophenolic acid; LC-ESI-QTOF; MS2; CE 20 ev; [M-H]-
Name: Mycophenolic acid
Formula: C17H20O6
Exact mass: 320.125988
SMILES: CC1=C(C(=C(C2=C1COC2=O)O)CC=C(C)CCC(=O)O)OC
InChI: InChI=1S/C17H20O6/c1-9(5-7-13(18)19)4-6-11-15(20)14-12(8-23-17(14)21)10(2)16(11)22-3/h4,20H,5-8H2,1-3H3,(H,18,19)
Instrument: Agilent 1200 RRLC; Agilent 6520 QTOF
Instrument type: LC-ESI-QTOF
Ms type: MS2
Ion mode: NEGATIVE
Collision energy: 20 ev
Column name: Agilent C8 Cartridge Column 2.1X30mm 3.5 micron (guard); Agilent SB-Aq 2.1x50mm 1.8 micron (analytical)
Retention time: 8.089
Base peak: 319
Precursor m/z: 319.1187
Precursor type: [M-H]-
m/z	relative intensity
107.051	8
133.0619	11
135.048	20
139.0734	6
147.0417	6
148.0522	67
149.0611	15
158.0771	9
160.0493	7
161.0606	12
161.1002	6
163.0389	8
171.1203	7
173.0576	16
174.0773	6
175.1104	5
176.0034	5
176.0475	6
177.018	12
178.0228	14
179.0341	393
179.0599	10
179.0765	12
179.0988	8
179.1619	7
183.0918	8
184.0845	8
187.075	23
188.0839	14
189.091	9
191.0338	725
191.0757	23
191.1043	10
191.1647	7
192.0422	359
192.0981	12
192.1666	5
198.1016	6
199.1131	65
201.0623	9
201.0853	23
201.1045	12
203.0345	21
203.0693	8
205.0501	211
205.0943	7
206.0596	17
207.0668	138
207.1086	11
215.0743	5
215.1073	49
216.124	16
225.094	25
228.0756	5
231.0625	26
231.1323	9
232.0682	11
233.0786	26
241.0834	13
242.0972	19
243.1012	111
243.1341	9
245.0809	62
245.1193	5
247.0968	10
247.1286	11
259.1005	7
260.1118	6
269.0789	56
273.105	7
275.1281	507
275.1786	25
275.2284	8
275.2791	6
285.0726	17
287.093	272
287.1466	16
291.1274	8
301.113	19
319.1177	999
