Mass spectrum: Harmaline; LC-ESI-QTOF; MS2; CE 40 ev; [M-H]-
Name: Harmaline
Formula: C13H14N2O
Exact mass: 214.110613
SMILES: CC1=C2C(=C3C=CC(=CC3=N2)OC)CCN1
InChI: InChI=1S/C13H14N2O/c1-8-13-11(5-6-14-8)10-4-3-9(16-2)7-12(10)15-13/h3-4,7,14H,5-6H2,1-2H3
Instrument: Agilent 1200 RRLC; Agilent 6520 QTOF
Instrument type: LC-ESI-QTOF
Ms type: MS2
Ion mode: NEGATIVE
Collision energy: 40 ev
Column name: Agilent C8 Cartridge Column 2.1X30mm 3.5 micron (guard); Agilent SB-Aq 2.1x50mm 1.8 micron (analytical)
Retention time: 4.145
Base peak: 197
Precursor m/z: 213.1033
Precursor type: [M-H]-
m/z	relative intensity
141.3171	48
154.0521	62
168.0734	54
169.0359	27
169.0564	46
169.0782	39
170.0602	200
170.0737	29
180.5438	25
182.0511	143
183.057	37
189.7438	28
196.0671	85
197.0692	999
197.0937	61
197.1216	29
198.0788	55
