Mass spectrum: Esculetin; LC-ESI-QTOF; MS2; CE 10 ev; [M-H]-
Name: Esculetin
Formula: C9H6O4
Exact mass: 178.026609
SMILES: C1=CC(=O)OC2=CC(=C(C=C21)O)O
InChI: InChI=1S/C9H6O4/c10-6-3-5-1-2-9(12)13-8(5)4-7(6)11/h1-4,10-11H
Instrument: Agilent 1200 RRLC; Agilent 6520 QTOF
Instrument type: LC-ESI-QTOF
Ms type: MS2
Ion mode: NEGATIVE
Collision energy: 10 ev
Column name: Agilent C8 Cartridge Column 2.1X30mm 3.5 micron (guard); Agilent SB-Aq 2.1x50mm 1.8 micron (analytical)
Retention time: 3.125
Base peak: 177
Precursor m/z: 177.0193
Precursor type: [M-H]-
m/z	relative intensity
105.0329	43
121.0309	5
131.0081	5
133.0301	76
133.059	3
149.0274	7
176.0134	14
177.019	999
