Mass spectrum: methyl (2S,13bS,14aS,1R,4aR)-2-hydroxy-1,2,3,4,5,8,14,13b,14a,4a-decahydrobenz o[1,2-g]indolo[2,3-a]quinolizinecarboxylate; LC-ESI-QTOF; MS2; CE 20 ev; [M]+
Name: methyl (2S,13bS,14aS,1R,4aR)-2-hydroxy-1,2,3,4,5,8,14,13b,14a,4a-decahydrobenz o[1,2-g]indolo[2,3-a]quinolizinecarboxylate
Formula: C21H26N2O3
Exact mass: 354.194
SMILES: COC(=O)[C@H]1[C@H](CC[C@@H]2[C@@H]1C[C@H]3C4=C(CCN3C2)C5=CC=CC=C5N4)O
InChI: InChI=1S/C21H26N2O3/c1-26-21(25)19-15-10-17-20-14(13-4-2-3-5-16(13)22-20)8-9-23(17)11-12(15)6-7-18(19)24/h2-5,12,15,17-19,22,24H,6-11H2,1H3/t12-,15-,17-,18-,19+/m0/s1
Instrument: Agilent 1200 RRLC; Agilent 6520 QTOF
Instrument type: LC-ESI-QTOF
Ms type: MS2
Ion mode: POSITIVE
Collision energy: 20 ev
Column name: Agilent C8 Cartridge Column 2.1X30mm 3.5 micron (guard); Agilent SB-Aq 2.1x50mm 1.8 micron (analytical)
Retention time: 4.060
Base peak: 144
Precursor m/z: 355.2022
Precursor type: [M+H]+
m/z	relative intensity
106.0651	5
114.37	6
115.0529	5
117.0703	12
127.0524	11
128.0488	4
130.0638	4
131.0855	4
132.0765	5
134.0925	6
134.0999	16
143.0733	11
144.0798	999
144.1141	32
144.1249	5
144.1365	20
144.1644	11
144.1915	15
144.252	4
144.2764	3
144.3361	3
144.4759	4
144.5316	3
144.5663	3
144.835	3
144.8892	3
146.0915	4
158.0968	7
162.0884	14
177.0839	6
180.1026	26
186.0855	5
191.9406	4
192.1031	3
194.118	30
194.1277	4
195.1062	3
198.1073	4
206.1419	3
208.109	4
212.1271	511
212.1704	24
212.26	6
212.4693	4
212.7911	6
213.1838	3
222.1167	3
224.1265	83
226.1381	10
248.1524	6
250.1275	4
260.1561	4
282.1554	3
288.1384	3
290.1384	4
294.1483	21
306.1463	4
308.1683	4
312.1468	4
326.1771	17
337.1838	4
338.1764	10
355.0322	3
355.1524	4
355.1995	804
