Mass spectrum: Demecolcine; LC-ESI-QTOF; MS2; CE 20 ev; [M+H]+
Name: Demecolcine
Formula: C21H25NO5
Exact mass: 371.173273
SMILES: CNC1CCC2=CC(=C(C(=C2C3=CC=C(C(=O)C=C13)OC)OC)OC)OC
InChI: InChI=1S/C21H25NO5/c1-22-15-8-6-12-10-18(25-3)20(26-4)21(27-5)19(12)13-7-9-17(24-2)16(23)11-14(13)15/h7,9-11,15,22H,6,8H2,1-5H3
Instrument: Agilent 1200 RRLC; Agilent 6520 QTOF
Instrument type: LC-ESI-QTOF
Ms type: MS2
Ion mode: POSITIVE
Collision energy: 20 ev
Column name: Agilent C8 Cartridge Column 2.1X30mm 3.5 micron (guard); Agilent SB-Aq 2.1x50mm 1.8 micron (analytical)
Retention time: 4.950
Base peak: 310
Precursor m/z: 372.1806
Precursor type: [M+H]+
m/z	relative intensity
137.0576	39
164.0713	36
178.0786	48
181.0839	76
207.0825	57
223.0686	34
235.0776	32
237.095	35
241.0824	48
249.0831	46
250.093	34
251.1037	32
252.0747	40
253.0804	36
254.0952	27
255.1	62
256.1083	156
257.0788	40
258.0822	34
263.0673	41
264.0984	41
265.078	30
266.0889	34
266.1041	40
267.0961	124
268.1074	35
269.0844	65
270.0865	39
270.1256	40
271.0866	27
271.1327	44
272.1031	107
277.0809	32
277.1015	79
278.0954	129
279.0595	32
279.1134	116
280.1074	49
280.1307	27
281.1127	90
282.1184	244
283.0938	125
283.1332	68
284.1064	101
285.1109	125
286.1361	28
287.0819	54
287.126	128
293.0922	39
294.0919	85
294.1097	116
294.1458	27
295.092	235
296.1228	103
297.1096	39
298.1009	49
298.1222	99
299.1276	111
300.0984	125
301.1023	40
301.1436	49
302.114	40
308.1273	94
309.1316	275
310.1158	999
310.171	68
311.088	185
311.1167	96
311.1304	70
312.1579	368
313.1026	58
313.1343	114
313.1456	37
314.1051	132
315.119	191
316.1372	34
323.1466	76
324.1187	147
325.1322	199
326.1178	387
328.1582	50
329.1373	44
338.1344	41
339.1477	102
340.1495	500
340.1841	32
341.1357	341
341.1627	77
342.13	194
342.1422	74
344.1448	119
354.1783	50
356.1493	52
357.1544	183
372.1789	977
