Mass spectrum: Corynanthine; LC-ESI-QTOF; MS2; CE 20 ev; [M-H]-
Name: Corynanthine
Formula: C21H26N2O3
Exact mass: 354.194343
SMILES: COC(=O)[C@@H]1[C@H](CC[C@@H]2[C@@H]1C[C@H]3C4=C(CCN3C2)C5=CC=CC=C5N4)O
InChI: InChI=1S/C21H26N2O3/c1-26-21(25)19-15-10-17-20-14(13-4-2-3-5-16(13)22-20)8-9-23(17)11-12(15)6-7-18(19)24/h2-5,12,15,17-19,22,24H,6-11H2,1H3/t12-,15-,17-,18-,19-/m0/s1
Instrument: Agilent 1200 RRLC; Agilent 6520 QTOF
Instrument type: LC-ESI-QTOF
Ms type: MS2
Ion mode: NEGATIVE
Collision energy: 20 ev
Column name: Agilent C8 Cartridge Column 2.1X30mm 3.5 micron (guard); Agilent SB-Aq 2.1x50mm 1.8 micron (analytical)
Retention time: 4.181
Base peak: 353
Precursor m/z: 353.1870
Precursor type: [M-H]-
m/z	relative intensity
142.064	15
169.084	15
172.9518	32
179.9518	26
182.0589	51
191.0995	14
205.9181	32
208.1136	13
210.0891	15
210.7386	21
212.777	13
291.1488	13
293.1344	12
293.1745	47
321.1644	85
353.1856	999
