Mass spectrum: Biotin; LC-ESI-QTOF; MS2; CE 10 ev; [M-H]-
Name: Biotin
Formula: C10H16N2O3S
Exact mass: 244.088163
SMILES: C1C2C(C(S1)CCCCC(=O)O)NC(=O)N2
InChI: InChI=1S/C10H16N2O3S/c13-8(14)4-2-1-3-7-9-6(5-16-7)11-10(15)12-9/h6-7,9H,1-5H2,(H,13,14)(H2,11,12,15)
Instrument: Agilent 1200 RRLC; Agilent 6520 QTOF
Instrument type: LC-ESI-QTOF
Ms type: MS2
Ion mode: NEGATIVE
Collision energy: 10 ev
Column name: Agilent C8 Cartridge Column 2.1X30mm 3.5 micron (guard); Agilent SB-Aq 2.1x50mm 1.8 micron (analytical)
Retention time: 3.460
Base peak: 243
Precursor m/z: 243.0809
Precursor type: [M-H]-
m/z	relative intensity
111.0484	6
122.095	16
156.0829	7
165.1057	19
166.0866	88
191.0802	7
197.0914	9
199.0906	46
200.0746	167
209.0938	39
243.0806	999
