Mass spectrum: Loline; LC-ESI-QTOF; MS2; CE 10 ev; [M+H]+
Name: Loline
Formula: C8H14N2O
Exact mass: 154.110613
SMILES: CN[C@H]1[C@H]2CN3[C@@H]1C(O2)CC3
InChI: InChI=1S/C8H14N2O/c1-9-7-6-4-10-3-2-5(11-6)8(7)10/h5-9H,2-4H2,1H3/t5?,6-,7+,8-/m1/s1
Instrument: Agilent 1200 RRLC; Agilent 6520 QTOF
Instrument type: LC-ESI-QTOF
Ms type: MS2
Ion mode: POSITIVE
Collision energy: 10 ev
Column name: Agilent C8 Cartridge Column 2.1X30mm 3.5 micron (guard); Agilent SB-Aq 2.1x50mm 1.8 micron (analytical)
Retention time: 0.361
Base peak: 155
Precursor m/z: 155.1179
Precursor type: [M+H]+
m/z	relative intensity
108.0808	7
110.0936	6
112.0753	226
112.1035	9
124.0757	98
126.0905	26
155.1175	999
