Mass spectrum: alpha-Codeimethine; LC-ESI-QTOF; MS2; CE 20 ev; [M+H]+
Name: alpha-Codeimethine
Formula: C19H23NO3
Exact mass: 313.167794
SMILES: CN(C)CCC12C3C=CC(C1OC4=C(C=CC(=C24)C=C3)OC)O
InChI: InChI=1S/C19H23NO3/c1-20(2)11-10-19-13-6-4-12-5-9-15(22-3)17(16(12)19)23-18(19)14(21)8-7-13/h4-9,13-14,18,21H,10-11H2,1-3H3
Instrument: Agilent 1200 RRLC; Agilent 6520 QTOF
Instrument type: LC-ESI-QTOF
Ms type: MS2
Ion mode: POSITIVE
Collision energy: 20 ev
Column name: Agilent C8 Cartridge Column 2.1X30mm 3.5 micron (guard); Agilent SB-Aq 2.1x50mm 1.8 micron (analytical)
Retention time: 3.506
Base peak: 215
Precursor m/z: 314.1751
Precursor type: [M+H]+
m/z	relative intensity
115.0522	38
141.0696	76
153.0729	43
155.0813	130
156.0554	38
159.0726	40
161.0567	224
165.0694	180
171.0768	47
174.0657	88
181.0617	99
183.0784	346
185.0543	61
187.0677	76
187.0793	110
187.1062	74
191.0817	63
193.0661	162
194.0711	50
195.0753	43
197.0932	60
199.0739	427
200.0821	81
209.0663	43
209.0946	106
211.0966	38
213.0927	180
215.1074	999
215.1576	50
219.0831	45
220.0858	38
223.1171	40
225.0888	317
236.0723	36
237.0876	137
239.0951	40
241.0833	198
241.1232	58
243.1013	563
251.0995	96
269.1116	92
314.1724	366
