Mass spectrum: Eserine; LC-ESI-QTOF; MS2; CE 40 ev; [M+H]+
Name: Eserine
Formula: C15H21N3O2
Exact mass: 275.163377
SMILES: CC12CCN(C1N(C3=C2C=C(C=C3)OC(=O)NC)C)C
InChI: InChI=1S/C15H21N3O2/c1-15-7-8-17(3)13(15)18(4)12-6-5-10(9-11(12)15)20-14(19)16-2/h5-6,9,13H,7-8H2,1-4H3,(H,16,19)
Instrument: Agilent 1200 RRLC; Agilent 6520 QTOF
Instrument type: LC-ESI-QTOF
Ms type: MS2
Ion mode: POSITIVE
Collision energy: 40 ev
Column name: Agilent C8 Cartridge Column 2.1X30mm 3.5 micron (guard); Agilent SB-Aq 2.1x50mm 1.8 micron (analytical)
Retention time: 3.215
Base peak: 147
Precursor m/z: 276.1707
Precursor type: [M+H]+
m/z	relative intensity
117.0559	18
119.0744	32
121.0663	71
131.0518	24
134.094	71
146.0592	229
147.0672	999
147.0983	34
154.0618	30
160.0734	129
160.1105	24
161.0823	313
161.0938	51
162.0913	340
172.0773	23
173.0831	124
174.0875	39
176.1017	36
