Mass spectrum: 7-Hydroxy-3'-methoxyflavone; LC-ESI-QTOF; MS2; CE 20 ev; [M+H]+
Name: 7-Hydroxy-3'-methoxyflavone
Formula: C16H12O4
Exact mass: 268.073559
SMILES: COC1=CC=CC(=C1)C2=CC(=O)C3=C(O2)C=C(C=C3)O
InChI: InChI=1S/C16H12O4/c1-19-12-4-2-3-10(7-12)15-9-14(18)13-6-5-11(17)8-16(13)20-15/h2-9,17H,1H3
Instrument: Agilent 1200 RRLC; Agilent 6520 QTOF
Instrument type: LC-ESI-QTOF
Ms type: MS2
Ion mode: POSITIVE
Collision energy: 20 ev
Column name: Agilent C8 Cartridge Column 2.1X30mm 3.5 micron (guard); Agilent SB-Aq 2.1x50mm 1.8 micron (analytical)
Retention time: 8.603
Base peak: 269
Precursor m/z: 269.0809
Precursor type: [M+H]+
m/z	relative intensity
104.9917	26
116.0219	15
131.0486	17
137.0218	52
159.0394	13
197.0642	14
226.0622	362
226.098	26
241.0806	12
254.0553	165
254.0714	14
269.0805	999
269.126	24
269.2305	12
