Mass spectrum: 5-methoxypodophyllotoxin; LC-APCI-QTOF; MS; POSITIVE
Name: 5-methoxypodophyllotoxin
Formula: C23H24O9
Exact mass: 444.142032
SMILES: COC1=CC(=CC(=C1OC)OC)[C@H]2[C@@H]3[C@H](COC3=O)[C@H](C4=C(C5=C(C=C24)OCO5)OC)O
InChI: InChI=1S/C23H24O9/c1-26-13-5-10(6-14(27-2)20(13)28-3)16-11-7-15-21(32-9-31-15)22(29-4)18(11)19(24)12-8-30-23(25)17(12)16/h5-7,12,16-17,19,24H,8-9H2,1-4H3/t12-,16+,17-,19+/m0/s1
Instrument: Agilent 1200 RRLC; Agilent 6520 QTOF
Instrument type: LC-APCI-QTOF
Ms type: MS
Ion mode: POSITIVE
Column name: Agilent C8 Cartridge Column 2.1X30mm 3.5 micron (guard); Agilent SB-Aq 2.1x50mm 1.8 micron (analytical)
Retention time: 8.055
m/z	relative intensity
445.149308	999
