Mass spectrum: DL-Thioctic acid; LC-ESI-QTOF; MS2; CE 10 ev; [M-H]-
Name: DL-Thioctic acid
Formula: C8H14O2S2
Exact mass: 206.043522
SMILES: C1CSSC1CCCCC(=O)O
InChI: InChI=1S/C8H14O2S2/c9-8(10)4-2-1-3-7-5-6-11-12-7/h7H,1-6H2,(H,9,10)
Instrument: Agilent 1200 RRLC; Agilent 6520 QTOF
Instrument type: LC-ESI-QTOF
Ms type: MS2
Ion mode: NEGATIVE
Collision energy: 10 ev
Column name: Agilent C8 Cartridge Column 2.1X30mm 3.5 micron (guard); Agilent SB-Aq 2.1x50mm 1.8 micron (analytical)
Retention time: 6.545
Base peak: 171
Precursor m/z: 205.0362
Precursor type: [M-H]-
m/z	relative intensity
127.0587	244
127.0911	11
127.1125	3
127.1636	3
137.0625	8
139.0747	24
141.0919	10
159.0486	35
171.0483	999
171.0854	36
171.1128	11
171.1311	3
171.1415	7
171.1698	14
171.1898	2
171.2329	4
171.292	3
171.3359	5
171.359	3
171.3922	2
171.4004	3
171.4141	2
171.47	3
171.5765	3
171.6276	2
171.8573	2
205.036	21
