Mass spectrum: 3-Methyluridine; LC-ESI-QTOF; MS; POSITIVE
Name: 3-Methyluridine
Formula: C10H14N2O6
Exact mass: 258.085186
SMILES: CN1C(=O)C=CN(C1=O)C2C(C(C(O2)CO)O)O
InChI: InChI=1S/C10H14N2O6/c1-11-6(14)2-3-12(10(11)17)9-8(16)7(15)5(4-13)18-9/h2-3,5,7-9,13,15-16H,4H2,1H3
Instrument: Agilent 1200 RRLC; Agilent 6520 QTOF
Instrument type: LC-ESI-QTOF
Ms type: MS
Ion mode: POSITIVE
Column name: Agilent C8 Cartridge Column 2.1X30mm 3.5 micron (guard); Agilent SB-Aq 2.1x50mm 1.8 micron (analytical)
Retention time: 0.802
m/z	relative intensity
259.0924765	999
