Mass spectrum: haploside D; LC-ESI-QTOF; MS2; CE 40 ev; [M-H]-
Name: haploside D
Formula: C30H34O18
Exact mass: 682.174514
SMILES: CC1C(C(C(C(O1)OC2C(C(C(OC2OC3=C(C4=C(C(=C3)O)C(=O)C(=C(O4)C5=CC(=C(C=C5)O)OC)O)O)COC(=O)C)O)O)O)O)O
InChI: InChI=1S/C30H34O18/c1-9-18(34)22(38)25(41)29(44-9)48-28-23(39)19(35)16(8-43-10(2)31)46-30(28)45-15-7-13(33)17-21(37)24(40)26(47-27(17)20(15)36)11-4-5-12(32)14(6-11)42-3/h4-7,9,16,18-19,22-23,25,28-30,32-36,38-41H,8H2,1-3H3
Instrument: Agilent 1200 RRLC; Agilent 6520 QTOF
Instrument type: LC-ESI-QTOF
Ms type: MS2
Ion mode: NEGATIVE
Collision energy: 40 ev
Column name: Agilent C8 Cartridge Column 2.1X30mm 3.5 micron (guard); Agilent SB-Aq 2.1x50mm 1.8 micron (analytical)
Retention time: 7.186
Base peak: 331
Precursor m/z: 681.1672
Precursor type: [M-H]-
m/z	relative intensity
120.8462	4
139.005	25
141.0111	7
164.9841	11
165.9902	13
166.9983	6
177.0173	5
190.0343	4
195.0835	5
199.8255	6
204.0375	5
205.0183	5
211.0389	6
219.0344	9
232.0557	4
258.0455	7
259.0253	10
260.4549	5
271.0157	5
272.033	9
272.6805	4
285.0433	9
287.0087	6
299.7569	4
301.0335	18
303.0281	8
303.0524	9
311.0613	5
313.0704	9
315.0134	19
315.0525	7
316.0219	108
316.0585	8
324.0503	5
329.025	44
329.0699	7
330.0359	347
330.0942	5
330.1178	9
330.1935	7
330.5069	5
330.9629	5
331.0453	999
331.0918	40
331.139	17
331.1607	7
331.2001	6
331.2256	9
331.2934	5
331.3933	6
331.4277	4
331.4969	8
331.5601	7
331.6031	5
331.6229	7
331.6548	5
331.7774	8
332.0326	7
332.1661	5
332.281	5
354.0545	5
357.0563	6
373.0675	6
385.0833	5
442.0412	5
457.0781	11
458.0737	5
475.0829	24
502.1328	5
517.0951	51
517.1247	12
527.4164	7
535.1107	9
621.1449	29
639.1572	13
660.541	5
681.1666	19
