Mass spectrum: Loline; LC-ESI-QTOF; MS2; CE 20 ev; [M+H]+
Name: Loline
Formula: C8H14N2O
Exact mass: 154.110613
SMILES: CN[C@H]1[C@H]2CN3[C@@H]1C(O2)CC3
InChI: InChI=1S/C8H14N2O/c1-9-7-6-4-10-3-2-5(11-6)8(7)10/h5-9H,2-4H2,1H3/t5?,6-,7+,8-/m1/s1
Instrument: Agilent 1200 RRLC; Agilent 6520 QTOF
Instrument type: LC-ESI-QTOF
Ms type: MS2
Ion mode: POSITIVE
Collision energy: 20 ev
Column name: Agilent C8 Cartridge Column 2.1X30mm 3.5 micron (guard); Agilent SB-Aq 2.1x50mm 1.8 micron (analytical)
Retention time: 0.361
Base peak: 112
Precursor m/z: 155.1179
Precursor type: [M+H]+
m/z	relative intensity
106.0641	27
108.0821	56
109.0868	11
110.0945	27
111.0915	43
112.0752	999
112.0939	12
112.1014	17
112.1251	16
112.1468	9
112.1725	17
124.0743	274
126.0895	92
138.0929	16
155.1175	642
