Mass spectrum: (1S,9S)-11-but-3-enyl-7,11-diazatricyclo[7.3.1.0<2,7>]trideca-2,4-dien-6-one; LC-ESI-QTOF; MS; POSITIVE
Name: (1S,9S)-11-but-3-enyl-7,11-diazatricyclo[7.3.1.0<2,7>]trideca-2,4-dien-6-one
Formula: C15H20N2O
Exact mass: 244.157563
SMILES: C=CCCN1C[C@@H]2CC(C1)C3=CC=CC(=O)N3C2
InChI: InChI=1S/C15H20N2O/c1-2-3-7-16-9-12-8-13(11-16)14-5-4-6-15(18)17(14)10-12/h2,4-6,12-13H,1,3,7-11H2/t12-,13?/m0/s1
Instrument: Agilent 1200 RRLC; Agilent 6520 QTOF
Instrument type: LC-ESI-QTOF
Ms type: MS
Ion mode: POSITIVE
Column name: Agilent C8 Cartridge Column 2.1X30mm 3.5 micron (guard); Agilent SB-Aq 2.1x50mm 1.8 micron (analytical)
Retention time: 1.698
m/z	relative intensity
245.1648765	999
