Mass spectrum: Santonin; LC-ESI-QTOF; MS2; CE 40 ev; [M+H]+
Name: Santonin
Formula: C15H18O3
Exact mass: 246.125594
SMILES: CC1C2CCC3(C=CC(=O)C(=C3C2OC1=O)C)C
InChI: InChI=1S/C15H18O3/c1-8-10-4-6-15(3)7-5-11(16)9(2)12(15)13(10)18-14(8)17/h5,7-8,10,13H,4,6H2,1-3H3
Instrument: Agilent 1200 RRLC; Agilent 6520 QTOF
Instrument type: LC-ESI-QTOF
Ms type: MS2
Ion mode: POSITIVE
Collision energy: 40 ev
Column name: Agilent C8 Cartridge Column 2.1X30mm 3.5 micron (guard); Agilent SB-Aq 2.1x50mm 1.8 micron (analytical)
Retention time: 6.741
Base peak: 158
Precursor m/z: 247.1329
Precursor type: [M+H]+
m/z	relative intensity
103.0527	63
105.0703	406
107.0506	32
107.0839	95
115.0534	525
115.0842	27
116.0629	222
117.0687	206
117.0764	45
119.0868	46
121.0655	47
127.0529	120
128.0617	232
129.0707	585
129.1058	37
130.0779	350
131.045	28
131.0525	70
131.0878	126
133.0552	31
135.0798	704
135.1135	31
140.0545	31
140.0653	37
141.068	132
143.0861	90
144.0564	63
145.06	95
145.068	88
145.0969	156
145.1047	105
146.0768	68
152.0629	31
153.0684	184
154.0786	74
155.085	141
157.0644	327
157.0985	50
158.0724	999
158.1065	70
159.0781	169
160.0873	42
161.093	40
171.0809	178
172.0876	64
173.0954	263
185.0994	27
