Mass spectrum: 4'-hydroxyflavanone; LC-ESI-QTOF; MS2; CE 10 ev; [M+H]+
Name: 4'-hydroxyflavanone
Formula: C15H12O3
Exact mass: 240.078644
SMILES: C1C(OC2=CC=CC=C2C1=O)C3=CC=C(C=C3)O
InChI: InChI=1S/C15H12O3/c16-11-7-5-10(6-8-11)15-9-13(17)12-3-1-2-4-14(12)18-15/h1-8,15-16H,9H2
Instrument: Agilent 1200 RRLC; Agilent 6520 QTOF
Instrument type: LC-ESI-QTOF
Ms type: MS2
Ion mode: POSITIVE
Collision energy: 10 ev
Column name: Agilent C8 Cartridge Column 2.1X30mm 3.5 micron (guard); Agilent SB-Aq 2.1x50mm 1.8 micron (analytical)
Retention time: 7.168
Base peak: 241
Precursor m/z: 241.0859
Precursor type: [M+H]+
m/z	relative intensity
121.0286	746
123.0408	34
147.0424	293
163.0104	47
195.0802	118
223.0732	87
226.0633	122
241.0856	999
