Mass spectrum: Amorphigenin; LC-ESI-QTOF; MS2; CE 40 ev; [M-H]-
Name: Amorphigenin
Formula: C23H22O7
Exact mass: 410.136553
SMILES: COC1=C(C=C2C(=C1)[C@H]3[C@@H](CO2)OC4=C(C3=O)C=CC5=C4C[C@@H](O5)C(=C)CO)OC
InChI: InChI=1S/C23H22O7/c1-11(9-24)16-7-14-15(29-16)5-4-12-22(25)21-13-6-18(26-2)19(27-3)8-17(13)28-10-20(21)30-23(12)14/h4-6,8,16,20-21,24H,1,7,9-10H2,2-3H3/t16-,20-,21+/m1/s1
Instrument: Agilent 1200 RRLC; Agilent 6520 QTOF
Instrument type: LC-ESI-QTOF
Ms type: MS2
Ion mode: NEGATIVE
Collision energy: 40 ev
Column name: Agilent C8 Cartridge Column 2.1X30mm 3.5 micron (guard); Agilent SB-Aq 2.1x50mm 1.8 micron (analytical)
Retention time: 8.024
Base peak: 161
Precursor m/z: 409.1293
Precursor type: [M-H]-
m/z	relative intensity
105.035	10
108.0216	14
117.0323	11
119.0479	6
121.0298	10
122.0366	9
123.0077	10
129.0698	12
130.0433	23
132.0221	10
133.0284	86
133.0629	7
135.0093	5
143.0472	13
145.0318	7
145.0658	29
147.0452	15
148.0165	6
149.0233	14
150.029	9
155.0525	8
157.063	6
158.0348	32
159.0454	45
160.0163	7
161.0233	999
161.055	44
161.0846	15
161.1407	11
161.278	5
162.0324	31
163.0046	22
163.0396	26
163.0743	21
171.0459	11
172.0528	17
173.025	6
173.0603	65
173.0857	5
174.0321	15
175.0381	33
176.0115	9
176.0465	44
177.0195	31
185.0264	5
187.0018	24
187.0379	20
188.0139	6
188.0484	7
189.0196	19
189.0549	31
190.0636	12
191.069	14
199.0462	6
201.0517	22
201.0632	6
213.0207	11
215.0345	6
217.0507	66
217.0991	5
219.0872	5
235.0788	5
236.0437	7
238.0639	5
251.0432	6
255.0283	7
261.0935	8
265.0493	6
266.0581	5
271.0558	5
275.0771	6
279.1004	5
281.0892	9
289.0825	5
292.039	7
293.0391	8
293.0744	5
295.0842	9
296.0434	6
303.0502	8
305.0809	7
307.0569	10
307.0929	13
309.0336	7
309.0814	11
310.047	7
315.0601	6
317.08	14
321.0361	16
321.0723	8
322.0472	24
323.0901	21
333.0812	7
337.0759	18
351.0884	22
352.0951	6
361.0758	26
364.051	6
377.1025	5
379.0844	24
393.0965	5
