Mass spectrum: Cephalomannine; LC-APCI-QTOF; MS; NEGATIVE
Name: Cephalomannine
Formula: C45H53NO14
Exact mass: 831.346605
SMILES: C/C=C(\C)/C(=O)N[C@@H](C1=CC=CC=C1)[C@H](C(=O)O[C@H]2C[C@]3([C@H](C4[C@@]([C@H](C[C@@H]5[C@]4(CO5)OC(=O)C)O)(C(=O)[C@@H](C(=C2C)C3(C)C)OC(=O)C)C)OC(=O)C6=CC=CC=C6)O)O
InChI: InChI=1S/C45H53NO14/c1-9-23(2)39(52)46-33(27-16-12-10-13-17-27)34(50)41(54)58-29-21-45(55)38(59-40(53)28-18-14-11-15-19-28)36-43(8,30(49)20-31-44(36,22-56-31)60-26(5)48)37(51)35(57-25(4)47)32(24(29)3)42(45,6)7/h9-19,29-31,33-36,38,49-50,55H,20-22H2,1-8H3,(H,46,52)/b23-9+/t29-,30-,31+,33-,34+,35+,36?,38-,43+,44-,45+/m0/s1
Instrument: Agilent 1200 RRLC; Agilent 6520 QTOF
Instrument type: LC-APCI-QTOF
Ms type: MS
Ion mode: NEGATIVE
Column name: Agilent C8 Cartridge Column 2.1X30mm 3.5 micron (guard); Agilent SB-Aq 2.1x50mm 1.8 micron (analytical)
Retention time: 8.665
m/z	relative intensity
830.339343	999
