Mass spectrum: Cycloheximide; LC-ESI-QTOF; MS2; CE 40 ev; [M-H]-
Name: Cycloheximide
Formula: C15H23NO4
Exact mass: 281.162708
SMILES: C[C@H]1C[C@@H](C(=O)[C@@H](C1)[C@@H](CC2CC(=O)NC(=O)C2)O)C
InChI: InChI=1S/C15H23NO4/c1-8-3-9(2)15(20)11(4-8)12(17)5-10-6-13(18)16-14(19)7-10/h8-12,17H,3-7H2,1-2H3,(H,16,18,19)/t8-,9-,11-,12+/m0/s1
Instrument: Agilent 1200 RRLC; Agilent 6520 QTOF
Instrument type: LC-ESI-QTOF
Ms type: MS2
Ion mode: NEGATIVE
Collision energy: 40 ev
Column name: Agilent C8 Cartridge Column 2.1X30mm 3.5 micron (guard); Agilent SB-Aq 2.1x50mm 1.8 micron (analytical)
Retention time: 5.704
Base peak: 110
Precursor m/z: 280.1554
Precursor type: [M-H]-
m/z	relative intensity
107.0433	15
107.0493	19
107.9295	18
108.037	13
110.0246	999
110.0617	21
110.0864	18
111.0521	15
121.0659	66
123.0816	725
123.1131	29
123.1325	16
123.175	13
125.0967	290
125.1186	13
146.9386	17
149.0978	35
151.1137	125
151.1386	27
154.0524	42
156.107	28
161.096	18
177.1263	55
183.9951	14
187.7225	13
194.9099	29
203.0979	14
257.0358	15
