Mass spectrum: Histidylserine; LC-ESI-QTOF; MS; NEGATIVE
Name: Histidylserine
Name: 2-(2-amino-3-imidazol-5-ylpropanoylamino)-3-hydroxypropanoic acid
Formula: C9H14N4O4
Exact mass: 242.101505
SMILES: C1=C(NC=N1)CC(C(=O)NC(CO)C(=O)O)N
InChI: InChI=1S/C9H14N4O4/c10-6(1-5-2-11-4-12-5)8(15)13-7(3-14)9(16)17/h2,4,6-7,14H,1,3,10H2,(H,11,12)(H,13,15)(H,16,17)
Instrument: Agilent 1200 RRLC; Agilent 6520 QTOF
Instrument type: LC-ESI-QTOF
Ms type: MS
Ion mode: NEGATIVE
Column name: Agilent C8 Cartridge Column 2.1X30mm 3.5 micron (guard); Agilent SB-Aq 2.1x50mm 1.8 micron (analytical)
Retention time: 0.314
m/z	relative intensity
241.0942235	999
