Mass spectrum: Naringin; LC-ESI-QTOF; MS2; CE 40 ev; [M-H]-
Name: Naringin
Formula: C27H32O14
Exact mass: 580.179206
SMILES: C[C@H]1[C@@H]([C@H]([C@H]([C@@H](O1)O[C@@H]2[C@H]([C@@H]([C@H](O[C@H]2OC3=CC(=C4C(=O)C[C@H](OC4=C3)C5=CC=C(C=C5)O)O)CO)O)O)O)O)O
InChI: InChI=1S/C27H32O14/c1-10-20(32)22(34)24(36)26(37-10)41-25-23(35)21(33)18(9-28)40-27(25)38-13-6-14(30)19-15(31)8-16(39-17(19)7-13)11-2-4-12(29)5-3-11/h2-7,10,16,18,20-30,32-36H,8-9H2,1H3/t10-,16-,18+,20-,21+,22+,23-,24+,25+,26-,27+/m0/s1
Instrument: Agilent 1200 RRLC; Agilent 6520 QTOF
Instrument type: LC-ESI-QTOF
Ms type: MS2
Ion mode: NEGATIVE
Collision energy: 40 ev
Column name: Agilent C8 Cartridge Column 2.1X30mm 3.5 micron (guard); Agilent SB-Aq 2.1x50mm 1.8 micron (analytical)
Retention time: 5.458
Base peak: 151
Precursor m/z: 579.1719
Precursor type: [M-H]-
m/z	relative intensity
101.0232	5
107.0149	91
115.0399	8
117.0367	5
119.0501	122
121.9995	6
125.0249	40
145.0268	63
149.0294	6
151.0032	999
151.044	27
151.0859	11
151.1164	13
151.1494	4
151.1921	5
151.2198	5
151.2522	4
151.2681	4
151.3496	6
151.3634	6
151.3857	5
152.3833	4
164.0106	29
165.0185	34
167.0381	6
171.3248	8
173.0602	6
175.0042	34
177.0159	67
185.0586	5
187.0386	8
188.3838	6
188.901	4
191.0253	5
193.0142	36
203.962	4
205.0147	29
207.0305	5
212.7674	6
217.0181	11
227.0653	17
227.0848	10
229.0488	27
230.8454	4
235.0256	47
235.0808	4
236.4842	9
249.0586	4
255.0711	6
269.0394	6
269.0884	6
270.0571	8
271.0605	980
271.114	7
271.1325	27
271.1624	10
271.2087	13
271.2532	5
271.352	6
271.4038	7
271.4479	5
271.4999	6
271.6051	5
271.7585	6
271.8804	4
272.1319	5
272.2129	6
272.3467	14
295.0576	16
297.0535	8
301.5506	6
313.0606	8
313.0741	39
325.0774	5
339.0697	35
357.0797	11
368.5703	5
397.7921	8
399.3213	9
405.4115	6
408.653	7
415.1228	8
417.1155	7
441.1277	8
448.7761	9
459.1084	103
459.1682	5
459.19	7
473.1147	6
504.559	8
579.1665	85
