Mass spectrum: 5-Methoxyflavanone; LC-ESI-QTOF; MS2; CE 40 ev; [M+H]+
Name: 5-Methoxyflavanone
Formula: C16H14O3
Exact mass: 254.094294
SMILES: COC1=CC=CC2=C1C(=O)CC(O2)C3=CC=CC=C3
InChI: InChI=1S/C16H14O3/c1-18-13-8-5-9-14-16(13)12(17)10-15(19-14)11-6-3-2-4-7-11/h2-9,15H,10H2,1H3
Instrument: Agilent 1200 RRLC; Agilent 6520 QTOF
Instrument type: LC-ESI-QTOF
Ms type: MS2
Ion mode: POSITIVE
Collision energy: 40 ev
Column name: Agilent C8 Cartridge Column 2.1X30mm 3.5 micron (guard); Agilent SB-Aq 2.1x50mm 1.8 micron (analytical)
Retention time: 8.284
Base peak: 108
Precursor m/z: 255.1016
Precursor type: [M+H]+
m/z	relative intensity
103.0538	89
108.0204	999
108.051	18
121.0284	72
123.0411	55
136.015	779
136.0392	21
136.05	21
151.0384	691
151.0675	41
165.0673	20
239.061	21
