Mass spectrum: 6-Azauridine; LC-ESI-QTOF; MS; NEGATIVE
Name: 6-Azauridine
Formula: C8H11N3O6
Exact mass: 245.064785
SMILES: C1=NN(C(=O)NC1=O)C2C(C(C(O2)CO)O)O
InChI: InChI=1S/C8H11N3O6/c12-2-3-5(14)6(15)7(17-3)11-8(16)10-4(13)1-9-11/h1,3,5-7,12,14-15H,2H2,(H,10,13,16)
Instrument: Agilent 1200 RRLC; Agilent 6520 QTOF
Instrument type: LC-ESI-QTOF
Ms type: MS
Ion mode: NEGATIVE
Column name: Agilent C8 Cartridge Column 2.1X30mm 3.5 micron (guard); Agilent SB-Aq 2.1x50mm 1.8 micron (analytical)
Retention time: 0.385
m/z	relative intensity
244.0575235	999
