Mass spectrum: L-Tryptophan; LC-APCI-QTOF; MS; POSITIVE
Name: L-Tryptophan
Formula: C11H12N2O2
Exact mass: 204.089878
SMILES: C1=CC=C2C(=C1)C(=CN2)CC(C(=O)O)N
InChI: InChI=1S/C11H12N2O2/c12-9(11(14)15)5-7-6-13-10-4-2-1-3-8(7)10/h1-4,6,9,13H,5,12H2,(H,14,15)
Instrument: Agilent 1200 RRLC; Agilent 6520 QTOF
Instrument type: LC-APCI-QTOF
Ms type: MS
Ion mode: POSITIVE
Column name: Agilent C8 Cartridge Column 2.1X30mm 3.5 micron (guard); Agilent SB-Aq 2.1x50mm 1.8 micron (analytical)
Retention time: 1.295
m/z	relative intensity
205.0971765	999
