Mass spectrum: Hydroquinidine; LC-ESI-QTOF; MS2; CE 40 ev; [M+H]+
Name: Hydroquinidine
Formula: C20H26N2O2
Exact mass: 326.199428
SMILES: CC[C@H]1CN2CC[C@H]1C[C@@H]2[C@H](C3=C4C=C(C=CC4=NC=C3)OC)O
InChI: InChI=1S/C20H26N2O2/c1-3-13-12-22-9-7-14(13)10-19(22)20(23)16-6-8-21-18-5-4-15(24-2)11-17(16)18/h4-6,8,11,13-14,19-20,23H,3,7,9-10,12H2,1-2H3/t13-,14-,19+,20-/m0/s1
Instrument: Agilent 1200 RRLC; Agilent 6520 QTOF
Instrument type: LC-ESI-QTOF
Ms type: MS2
Ion mode: POSITIVE
Collision energy: 40 ev
Column name: Agilent C8 Cartridge Column 2.1X30mm 3.5 micron (guard); Agilent SB-Aq 2.1x50mm 1.8 micron (analytical)
Retention time: 5.452
Base peak: 172
Precursor m/z: 327.2067
Precursor type: [M+H]+
m/z	relative intensity
106.0669	71
108.0801	284
110.0956	159
115.0562	88
120.0776	85
124.1108	135
126.1231	71
136.1121	383
138.1263	88
143.0722	244
145.0548	119
154.0622	247
154.0699	78
155.0708	213
160.0763	555
162.0894	85
166.0675	135
167.0693	315
169.0506	193
171.0628	129
172.0751	999
173.0792	102
174.0691	85
174.0846	119
180.0791	227
181.0875	91
182.0906	85
183.063	135
183.0748	88
184.0726	433
186.0888	836
189.0761	95
195.0872	91
196.0701	200
198.0764	85
198.0929	251
200.1034	78
206.0856	75
208.0947	122
210.0825	139
210.0986	244
211.0823	169
212.1087	179
213.1063	88
219.0964	139
223.1046	105
224.1023	71
225.1059	85
227.1157	159
236.1243	75
237.1018	78
238.1171	119
239.1266	98
240.1303	108
251.1174	227
253.1232	183
265.1331	115
266.153	68
277.1491	68
281.1617	81
309.1991	142
