Mass spectrum: Reserpine; LC-ESI-QTOF; MS2; CE 20 ev; [M+H]+
Name: Reserpine
Name: 3,8-dimethoxy-4-(methoxycarbonyl)-1,2,3,4,5,11,14,14a,4a,5a-decahydrobenzo[3,4 -g]indolo[2,3-a]quinolizin-2-yl 3,4,5-trimethoxybenzoate
Formula: C33H40N2O9
Exact mass: 608.273381
SMILES: CO[C@H]1[C@@H](C[C@@H]2CN3CCC4=C([C@H]3C[C@@H]2[C@@H]1C(=O)OC)NC5=C4C=CC(=C5)OC)OC(=O)C6=CC(=C(C(=C6)OC)OC)OC
InChI: InChI=1S/C33H40N2O9/c1-38-19-7-8-20-21-9-10-35-16-18-13-27(44-32(36)17-11-25(39-2)30(41-4)26(12-17)40-3)31(42-5)28(33(37)43-6)22(18)15-24(35)29(21)34-23(20)14-19/h7-8,11-12,14,18,22,24,27-28,31,34H,9-10,13,15-16H2,1-6H3/t18-,22+,24-,27-,28+,31+/m1/s1
Instrument: Agilent 1200 RRLC; Agilent 6520 QTOF
Instrument type: LC-ESI-QTOF
Ms type: MS2
Ion mode: POSITIVE
Collision energy: 20 ev
Column name: Agilent C8 Cartridge Column 2.1X30mm 3.5 micron (guard); Agilent SB-Aq 2.1x50mm 1.8 micron (analytical)
Retention time: 7.531
Base peak: 609
Precursor m/z: 609.2807
Precursor type: [M+H]+
m/z	relative intensity
174.0898	91
188.1035	8
192.0982	11
195.0654	203
195.1022	6
215.1082	6
224.1244	8
236.1248	19
322.1478	5
336.1547	11
348.1591	8
354.1669	5
365.1883	18
366.1751	5
368.1766	6
397.2122	188
397.2718	13
398.2098	8
413.2029	6
436.2064	13
448.1936	52
577.252	25
591.2754	7
609.2787	999
