Mass spectrum: 3-{[(7-methoxy-2-oxochromen-4-yl)methyl]methylamino}propanenitrile; LC-ESI-QTOF; MS2; CE 40 ev; [M-H]-
Name: 3-{[(7-methoxy-2-oxochromen-4-yl)methyl]methylamino}propanenitrile
Formula: C15H16N2O3
Exact mass: 272.116092
SMILES: CN(CCC#N)CC1=CC(=O)OC2=C1C=CC(=C2)OC
InChI: InChI=1S/C15H16N2O3/c1-17(7-3-6-16)10-11-8-15(18)20-14-9-12(19-2)4-5-13(11)14/h4-5,8-9H,3,7,10H2,1-2H3
Instrument: Agilent 1200 RRLC; Agilent 6520 QTOF
Instrument type: LC-ESI-QTOF
Ms type: MS2
Ion mode: NEGATIVE
Collision energy: 40 ev
Column name: Agilent C8 Cartridge Column 2.1X30mm 3.5 micron (guard); Agilent SB-Aq 2.1x50mm 1.8 micron (analytical)
Retention time: 6.961
Base peak: 132
Precursor m/z: 271.1088
Precursor type: [M-H]-
m/z	relative intensity
104.0235	53
105.0326	44
118.0395	41
129.7288	118
132.0198	999
133.0286	488
133.0595	38
145.0314	109
146.0359	174
147.044	377
160.038	491
161.0231	399
161.0326	41
170.4859	46
175.0682	56
186.0237	72
188.0331	765
198.5694	38
201.0477	48
202.0467	159
