Mass spectrum: Norcantharidin; LC-ESI-QTOF; MS; POSITIVE
Name: Norcantharidin
Formula: C8H8O4
Exact mass: 168.042259
SMILES: C1CC2C3C(C1O2)C(=O)OC3=O
InChI: InChI=1S/C8H8O4/c9-7-5-3-1-2-4(11-3)6(5)8(10)12-7/h3-6H,1-2H2
Instrument: Agilent 1200 RRLC; Agilent 6520 QTOF
Instrument type: LC-ESI-QTOF
Ms type: MS
Ion mode: POSITIVE
Column name: Agilent C8 Cartridge Column 2.1X30mm 3.5 micron (guard); Agilent SB-Aq 2.1x50mm 1.8 micron (analytical)
Retention time: 1.295
m/z	relative intensity
169.0495765	999
