Mass spectrum: DL-Methionine sulfoxide; LC-APCI-QTOF; MS; POSITIVE
Name: DL-Methionine sulfoxide
Formula: C5H11NO3S
Exact mass: 165.045964
SMILES: CS(=O)CCC(C(=O)O)N
InChI: InChI=1S/C5H11NO3S/c1-10(9)3-2-4(6)5(7)8/h4H,2-3,6H2,1H3,(H,7,8)
Instrument: Agilent 1200 RRLC; Agilent 6520 QTOF
Instrument type: LC-APCI-QTOF
Ms type: MS
Ion mode: POSITIVE
Column name: Agilent C8 Cartridge Column 2.1X30mm 3.5 micron (guard); Agilent SB-Aq 2.1x50mm 1.8 micron (analytical)
Retention time: 0.383
m/z	relative intensity
166.0532765	999
