Mass spectrum: Fraxetin; LC-ESI-QTOF; MS2; CE 20 ev; [M-H]-
Name: Fraxetin
Formula: C10H8O5
Exact mass: 208.037173
SMILES: COC1=C(C(=C2C(=C1)C=CC(=O)O2)O)O
InChI: InChI=1S/C10H8O5/c1-14-6-4-5-2-3-7(11)15-10(5)9(13)8(6)12/h2-4,12-13H,1H3
Instrument: Agilent 1200 RRLC; Agilent 6520 QTOF
Instrument type: LC-ESI-QTOF
Ms type: MS2
Ion mode: NEGATIVE
Collision energy: 20 ev
Column name: Agilent C8 Cartridge Column 2.1X30mm 3.5 micron (guard); Agilent SB-Aq 2.1x50mm 1.8 micron (analytical)
Retention time: 4.007
Base peak: 192
Precursor m/z: 207.0299
Precursor type: [M-H]-
m/z	relative intensity
108.022	260
120.022	58
126.3215	8
136.016	26
147.0077	11
162.9969	15
163.0049	8
164.0137	62
175.0091	17
190.9935	25
192.0055	999
192.0401	14
192.0496	37
192.135	10
192.2874	7
192.5233	8
207.0275	32
