Mass spectrum: 5-Methoxyflavanone; LC-ESI-QTOF; MS2; CE 20 ev; [M+H]+
Name: 5-Methoxyflavanone
Formula: C16H14O3
Exact mass: 254.094294
SMILES: COC1=CC=CC2=C1C(=O)CC(O2)C3=CC=CC=C3
InChI: InChI=1S/C16H14O3/c1-18-13-8-5-9-14-16(13)12(17)10-15(19-14)11-6-3-2-4-7-11/h2-9,15H,10H2,1H3
Instrument: Agilent 1200 RRLC; Agilent 6520 QTOF
Instrument type: LC-ESI-QTOF
Ms type: MS2
Ion mode: POSITIVE
Collision energy: 20 ev
Column name: Agilent C8 Cartridge Column 2.1X30mm 3.5 micron (guard); Agilent SB-Aq 2.1x50mm 1.8 micron (analytical)
Retention time: 8.284
Base peak: 151
Precursor m/z: 255.1016
Precursor type: [M+H]+
m/z	relative intensity
103.0509	7
108.0193	21
121.0319	9
122.031	4
123.0425	6
136.015	49
151.0387	999
151.0622	5
151.0732	20
151.1006	18
151.122	5
151.1534	14
176.9916	17
255.0914	6
255.1082	9
