Mass spectrum: Luteolin; LC-ESI-QTOF; MS2; CE 40 ev; [M-H]-
Name: Luteolin
Formula: C15H10O6
Exact mass: 286.047738
SMILES: C1=CC(=C(C=C1C2=CC(=O)C3=C(C=C(C=C3O2)O)O)O)O
InChI: InChI=1S/C15H10O6/c16-8-4-11(19)15-12(20)6-13(21-14(15)5-8)7-1-2-9(17)10(18)3-7/h1-6,16-19H
Instrument: Agilent 1200 RRLC; Agilent 6520 QTOF
Instrument type: LC-ESI-QTOF
Ms type: MS2
Ion mode: NEGATIVE
Collision energy: 40 ev
Column name: Agilent C8 Cartridge Column 2.1X30mm 3.5 micron (guard); Agilent SB-Aq 2.1x50mm 1.8 micron (analytical)
Retention time: 7.144
Base peak: 133
Precursor m/z: 285.0404
Precursor type: [M-H]-
m/z	relative intensity
104.0275	7
105.0346	39
107.0136	139
115.0166	5
115.0544	6
117.0331	11
121.029	47
132.021	84
133.0291	999
133.0632	16
133.0804	14
133.112	5
133.1366	15
143.0474	9
145.0314	18
146.0388	7
147.0475	9
149.0251	43
151.0026	69
167.0507	7
169.0283	9
171.0424	8
173.0258	12
174.0296	10
175.0402	76
182.036	11
183.0574	6
185.0553	9
187.04	9
195.0467	7
197.0227	10
198.0341	23
199.038	35
201.0197	30
211.0378	10
214.0221	7
215.0341	10
217.0487	8
223.0412	7
229.0493	5
239.0378	8
242.0196	7
255.032	6
256.0379	7
285.04	16
