Mass spectrum: 6-Fluoro-DL-tryptophan; LC-ESI-QTOF; MS2; CE 20 ev; [M+H]+
Name: 6-Fluoro-DL-tryptophan
Formula: C11H11FN2O2
Exact mass: 222.080456
SMILES: C1=CC2=C(C=C1F)NC=C2CC(C(=O)O)N
InChI: InChI=1S/C11H11FN2O2/c12-7-1-2-8-6(3-9(13)11(15)16)5-14-10(8)4-7/h1-2,4-5,9,14H,3,13H2,(H,15,16)
Instrument: Agilent 1200 RRLC; Agilent 6520 QTOF
Instrument type: LC-ESI-QTOF
Ms type: MS2
Ion mode: POSITIVE
Collision energy: 20 ev
Column name: Agilent C8 Cartridge Column 2.1X30mm 3.5 micron (guard); Agilent SB-Aq 2.1x50mm 1.8 micron (analytical)
Retention time: 1.641
Base peak: 164
Precursor m/z: 223.0878
Precursor type: [M+H]+
m/z	relative intensity
108.0416	11
109.043	67
115.0532	59
123.0628	7
130.0644	9
133.0436	58
135.0472	16
135.0564	21
136.055	769
136.0905	25
142.0667	29
145.0053	7
148.0547	44
150.0709	129
160.0559	87
161.0628	64
162.0375	13
162.0702	185
164.0501	999
164.0822	41
164.102	19
164.14	9
164.1685	10
177.0815	73
178.0687	11
188.0493	72
206.0613	42
