Mass spectrum: Papaverine; LC-ESI-QTOF; MS2; CE 40 ev; [M+H]+
Name: Papaverine
Formula: C20H21NO4
Exact mass: 339.147058
SMILES: COC1=C(C=C(C=C1)CC2=NC=CC3=CC(=C(C=C32)OC)OC)OC
InChI: InChI=1S/C20H21NO4/c1-22-17-6-5-13(10-18(17)23-2)9-16-15-12-20(25-4)19(24-3)11-14(15)7-8-21-16/h5-8,10-12H,9H2,1-4H3
Instrument: Agilent 1200 RRLC; Agilent 6520 QTOF
Instrument type: LC-ESI-QTOF
Ms type: MS2
Ion mode: POSITIVE
Collision energy: 40 ev
Column name: Agilent C8 Cartridge Column 2.1X30mm 3.5 micron (guard); Agilent SB-Aq 2.1x50mm 1.8 micron (analytical)
Retention time: 5.538
Base peak: 324
Precursor m/z: 340.1544
Precursor type: [M+H]+
m/z	relative intensity
158.0647	51
159.0645	66
170.0592	68
171.0669	732
172.075	51
186.0522	105
187.0629	124
202.0855	646
252.1012	49
280.0989	213
280.1371	49
294.1141	82
296.1271	138
308.0835	49
308.0925	267
309.1002	73
324.1238	999
