Mass spectrum: Daphnoretin; LC-ESI-QTOF; MS2; CE 10 ev; [M-H]-
Name: Daphnoretin
Formula: C19H12O7
Exact mass: 352.058303
SMILES: COC1=C(C=C2C(=C1)C=C(C(=O)O2)OC3=CC4=C(C=C3)C=CC(=O)O4)O
InChI: InChI=1S/C19H12O7/c1-23-16-6-11-7-17(19(22)26-15(11)9-13(16)20)24-12-4-2-10-3-5-18(21)25-14(10)8-12/h2-9,20H,1H3
Instrument: Agilent 1200 RRLC; Agilent 6520 QTOF
Instrument type: LC-ESI-QTOF
Ms type: MS2
Ion mode: NEGATIVE
Collision energy: 10 ev
Column name: Agilent C8 Cartridge Column 2.1X30mm 3.5 micron (guard); Agilent SB-Aq 2.1x50mm 1.8 micron (analytical)
Retention time: 7.458
Base peak: 351
Precursor m/z: 351.0510
Precursor type: [M-H]-
m/z	relative intensity
163.0027	23
190.9969	30
308.0318	9
336.027	116
351.0507	999
