Mass spectrum: Quinine; LC-ESI-QTOF; MS2; CE 10 ev; [M+H]+
Name: Quinine
Formula: C20H24N2O2
Exact mass: 324.183778
SMILES: COC1=CC2=C(C=CN=C2C=C1)C(C3CC4CCN3CC4C=C)O
InChI: InChI=1S/C20H24N2O2/c1-3-13-12-22-9-7-14(13)10-19(22)20(23)16-6-8-21-18-5-4-15(24-2)11-17(16)18/h3-6,8,11,13-14,19-20,23H,1,7,9-10,12H2,2H3
Instrument: Agilent 1200 RRLC; Agilent 6520 QTOF
Instrument type: LC-ESI-QTOF
Ms type: MS2
Ion mode: POSITIVE
Collision energy: 10 ev
Column name: Agilent C8 Cartridge Column 2.1X30mm 3.5 micron (guard); Agilent SB-Aq 2.1x50mm 1.8 micron (analytical)
Retention time: 5.289
Base peak: 325
Precursor m/z: 325.1911
Precursor type: [M+H]+
m/z	relative intensity
110.0961	9
160.0707	6
172.0771	7
184.0697	6
186.0895	8
227.119	5
253.1333	13
264.1428	9
297.1922	9
307.1787	38
325.1899	999
