Mass spectrum: Protopine; LC-ESI-QTOF; MS2; CE 20 ev; [M+H]+
Name: Protopine
Formula: C20H19NO5
Exact mass: 353.126323
SMILES: CN1CCC2=CC3=C(C=C2C(=O)CC4=C(C1)C5=C(C=C4)OCO5)OCO3
InChI: InChI=1S/C20H19NO5/c1-21-5-4-13-7-18-19(25-10-24-18)8-14(13)16(22)6-12-2-3-17-20(15(12)9-21)26-11-23-17/h2-3,7-8H,4-6,9-11H2,1H3
Instrument: Agilent 1200 RRLC; Agilent 6520 QTOF
Instrument type: LC-ESI-QTOF
Ms type: MS2
Ion mode: POSITIVE
Collision energy: 20 ev
Column name: Agilent C8 Cartridge Column 2.1X30mm 3.5 micron (guard); Agilent SB-Aq 2.1x50mm 1.8 micron (analytical)
Retention time: 4.379
Base peak: 354
Precursor m/z: 354.1336
Precursor type: [M+H]+
m/z	relative intensity
107.0476	8
119.0437	9
119.05	25
135.0376	9
135.0429	22
149.0597	207
149.0899	7
159.066	11
165.0539	113
175.0379	19
176.0722	17
177.0772	20
178.0779	10
178.0904	25
188.0706	319
188.1091	10
188.1365	7
189.0784	353
189.1206	11
190.0814	24
192.1014	14
195.08	12
204.0635	10
206.0798	115
206.1165	11
207.0746	24
219.0858	6
223.077	7
225.1001	8
235.0762	11
237.0531	7
247.0753	43
253.0744	10
265.0845	36
267.0661	21
275.0711	75
275.0905	7
278.1181	12
292.0712	6
293.0826	24
295.0983	20
305.084	26
306.1181	15
321.1085	7
323.0888	34
324.1195	8
334.1136	11
336.0729	7
336.1212	68
354.1344	999
