Mass spectrum: Demecolcine; LC-ESI-QTOF; MS2; CE 40 ev; [M+H]+
Name: Demecolcine
Formula: C21H25NO5
Exact mass: 371.173273
SMILES: CNC1CCC2=CC(=C(C(=C2C3=CC=C(C(=O)C=C13)OC)OC)OC)OC
InChI: InChI=1S/C21H25NO5/c1-22-15-8-6-12-10-18(25-3)20(26-4)21(27-5)19(12)13-7-9-17(24-2)16(23)11-14(13)15/h7,9-11,15,22H,6,8H2,1-5H3
Instrument: Agilent 1200 RRLC; Agilent 6520 QTOF
Instrument type: LC-ESI-QTOF
Ms type: MS2
Ion mode: POSITIVE
Collision energy: 40 ev
Column name: Agilent C8 Cartridge Column 2.1X30mm 3.5 micron (guard); Agilent SB-Aq 2.1x50mm 1.8 micron (analytical)
Retention time: 4.950
Base peak: 282
Precursor m/z: 372.1806
Precursor type: [M+H]+
m/z	relative intensity
137.0628	131
148.0496	113
149.0543	150
152.0591	108
153.0683	174
164.0658	136
164.0756	122
165.0677	539
166.078	169
167.0855	155
169.0664	338
176.0771	178
177.0612	122
178.081	230
179.0863	206
181.0651	464
181.1018	103
182.072	281
183.0824	94
185.0604	98
188.0794	108
192.0656	127
192.0809	155
193.0633	145
194.0803	127
195.0795	460
196.0781	174
197.0581	502
198.0613	202
199.0739	211
205.0646	239
206.0709	113
207.0805	643
208.0878	291
208.107	113
209.0591	478
209.0962	310
210.0713	183
210.0991	94
211.067	206
211.0799	277
212.0783	159
213.0909	328
215.068	98
217.0702	94
219.0777	258
220.085	188
220.111	188
221.0567	211
221.0864	141
221.1107	103
222.0628	145
222.0802	183
222.1026	136
223.0756	816
224.0478	127
224.0826	680
225.0537	310
225.0909	366
226.0639	150
226.1008	183
227.0683	460
227.0853	94
229.0827	197
233.0599	380
234.0598	164
234.0858	108
235.0749	886
235.0981	94
236.0426	145
236.0817	291
236.1104	117
237.0475	155
237.0928	549
238.0957	103
239.0678	249
239.0971	957
240.0751	281
240.0973	136
240.1088	178
241.0854	840
242.0609	183
242.096	145
243.0581	108
247.0702	188
247.0949	141
248.0979	253
249.058	220
249.0874	216
250.0798	338
250.1247	202
251.0704	352
251.0823	230
251.1056	249
252.0759	188
252.0916	225
253.0507	113
253.0897	474
254.0769	324
254.1132	286
255.0657	244
255.0938	371
256.0719	145
256.1049	385
257.0862	178
259.0892	164
262.0878	155
263.0605	183
263.0747	267
264.0745	131
264.0982	591
264.1183	122
265.0869	591
266.0861	141
266.1007	103
266.1181	342
267.0666	286
267.0963	849
268.0731	643
268.0958	235
268.1165	122
269.0793	441
269.1132	103
270.0866	216
270.1159	98
272.0966	127
276.1041	131
277.0821	178
277.1044	127
278.0788	272
278.1091	338
279.0599	122
279.0776	169
279.0957	169
279.1143	267
280.067	98
280.0843	108
280.1103	220
280.142	117
281.0431	202
281.0818	324
281.1103	244
282.0742	122
282.1151	999
283.0946	413
283.1251	98
284.0865	131
284.1008	113
285.0798	131
286.0983	122
287.092	174
292.0941	267
293.0858	258
294.0808	225
294.1098	220
295.0581	122
295.0962	840
296.0696	150
296.0865	98
296.1293	591
298.1101	188
298.1437	108
299.1042	136
306.1137	127
308.0913	94
308.1282	108
309.0964	422
309.1311	159
310.1128	614
311.0874	408
312.091	108
313.1158	131
314.1395	103
324.1207	286
342.1223	131
