Mass spectrum: Kinetin-9-riboside; LC-ESI-QTOF; MS2; CE 40 ev; [M-H]-
Name: Kinetin-9-riboside
Formula: C15H17N5O5
Exact mass: 347.122969
SMILES: C1=COC(=C1)CNC2=NC=NC3=C2N=CN3[C@H]4[C@@H]([C@@H]([C@H](O4)CO)O)O
InChI: InChI=1S/C15H17N5O5/c21-5-9-11(22)12(23)15(25-9)20-7-19-10-13(17-6-18-14(10)20)16-4-8-2-1-3-24-8/h1-3,6-7,9,11-12,15,21-23H,4-5H2,(H,16,17,18)/t9-,11-,12-,15-/m1/s1
Instrument: Agilent 1200 RRLC; Agilent 6520 QTOF
Instrument type: LC-ESI-QTOF
Ms type: MS2
Ion mode: NEGATIVE
Collision energy: 40 ev
Column name: Agilent C8 Cartridge Column 2.1X30mm 3.5 micron (guard); Agilent SB-Aq 2.1x50mm 1.8 micron (analytical)
Retention time: 4.735
Base peak: 134
Precursor m/z: 346.1157
Precursor type: [M-H]-
m/z	relative intensity
105.0454	18
106.0284	314
106.0419	30
107.0343	38
108.498	22
117.0194	45
118.026	30
132.0253	20
132.0328	61
133.0389	860
133.0603	21
133.0774	20
133.0966	15
134.0465	999
134.0661	22
134.0856	45
134.1548	14
138.5012	18
142.0401	27
144.0294	19
146.0464	57
158.044	22
159.0663	25
159.7792	38
163.3925	28
169.0521	117
170.0507	70
172.0635	40
173.0293	47
180.305	25
182.7885	13
184.0629	14
186.077	57
196.0613	109
199.0514	16
211.4276	18
213.0569	16
214.0492	16
214.0728	455
214.1399	13
225.7232	20
311.1666	18
317.6944	19
328.5004	19
