Mass spectrum: Ketoprofen; LC-ESI-QTOF; MS2; CE 10 ev; [M+H]+
Name: Ketoprofen
Formula: C16H14O3
Exact mass: 254.094294
SMILES: CC(C1=CC=CC(=C1)C(=O)C2=CC=CC=C2)C(=O)O
InChI: InChI=1S/C16H14O3/c1-11(16(18)19)13-8-5-9-14(10-13)15(17)12-6-3-2-4-7-12/h2-11H,1H3,(H,18,19)
Instrument: Agilent 1200 RRLC; Agilent 6520 QTOF
Instrument type: LC-ESI-QTOF
Ms type: MS2
Ion mode: POSITIVE
Collision energy: 10 ev
Column name: Agilent C8 Cartridge Column 2.1X30mm 3.5 micron (guard); Agilent SB-Aq 2.1x50mm 1.8 micron (analytical)
Retention time: 7.850
Base peak: 209
Precursor m/z: 255.1016
Precursor type: [M+H]+
m/z	relative intensity
105.0332	380
176.9878	376
177.0213	23
177.0526	76
194.0714	22
209.0941	999
209.1343	46
209.1533	19
209.1739	17
255.0986	181
