Mass spectrum: Citrulline; LC-ESI-QTOF; MS2; CE 10 ev; [M+H]+
Name: Citrulline
Formula: C6H13N3O3
Exact mass: 175.095691
SMILES: C(CC(C(=O)O)N)CNC(=O)N
InChI: InChI=1S/C6H13N3O3/c7-4(5(10)11)2-1-3-9-6(8)12/h4H,1-3,7H2,(H,10,11)(H3,8,9,12)
Instrument: Agilent 1200 RRLC; Agilent 6520 QTOF
Instrument type: LC-ESI-QTOF
Ms type: MS2
Ion mode: POSITIVE
Collision energy: 10 ev
Column name: Agilent C8 Cartridge Column 2.1X30mm 3.5 micron (guard); Agilent SB-Aq 2.1x50mm 1.8 micron (analytical)
Retention time: 0.364
Base peak: 159
Precursor m/z: 176.1030
Precursor type: [M+H]+
m/z	relative intensity
113.0711	818
113.0776	133
114.0574	309
115.0859	333
116.0702	266
159.0755	999
