Mass spectrum: Justicidin B; LC-ESI-QTOF; MS2; CE 40 ev; [M+H]+
Name: Justicidin B
Formula: C21H16O6
Exact mass: 364.094688
SMILES: COC1=CC2=CC3=C(C(=C2C=C1OC)C4=CC5=C(C=C4)OCO5)C(=O)OC3
InChI: InChI=1S/C21H16O6/c1-23-16-7-12-5-13-9-25-21(22)20(13)19(14(12)8-17(16)24-2)11-3-4-15-18(6-11)27-10-26-15/h3-8H,9-10H2,1-2H3
Instrument: Agilent 1200 RRLC; Agilent 6520 QTOF
Instrument type: LC-ESI-QTOF
Ms type: MS2
Ion mode: POSITIVE
Collision energy: 40 ev
Column name: Agilent C8 Cartridge Column 2.1X30mm 3.5 micron (guard); Agilent SB-Aq 2.1x50mm 1.8 micron (analytical)
Retention time: 8.922
Base peak: 247
Precursor m/z: 365.1020
Precursor type: [M+H]+
m/z	relative intensity
189.0652	435
190.0784	208
191.0813	111
193.0648	116
201.0703	130
202.0748	254
203.0831	352
205.064	509
216.0533	199
217.0595	236
217.0737	111
218.0715	648
219.0806	749
220.0876	328
230.0708	338
231.0782	222
232.0887	222
233.0613	486
233.0931	153
235.0735	176
245.0563	213
246.0681	717
247.0746	999
248.0804	606
249.0495	97
258.0704	162
259.073	194
260.0789	180
260.0921	162
261.0513	130
261.0969	324
262.0624	120
262.0935	241
263.0697	102
263.1065	245
264.0782	222
274.0624	236
275.0701	911
276.0745	412
277.0544	116
277.0847	245
279.0979	162
289.0868	315
290.0604	208
291.0649	254
291.1037	213
303.0631	555
304.0661	97
305.0831	134
306.0967	97
321.1091	282
335.0914	97
