Mass spectrum: 7,3'-Dihydroxyflavone; LC-ESI-QTOF; MS2; CE 40 ev; [M+H]+
Name: 7,3'-Dihydroxyflavone
Formula: C15H10O4
Exact mass: 254.057909
SMILES: C1=CC(=CC(=C1)O)C2=CC(=O)C3=C(O2)C=C(C=C3)O
InChI: InChI=1S/C15H10O4/c16-10-3-1-2-9(6-10)14-8-13(18)12-5-4-11(17)7-15(12)19-14/h1-8,16-17H
Instrument: Agilent 1200 RRLC; Agilent 6520 QTOF
Instrument type: LC-ESI-QTOF
Ms type: MS2
Ion mode: POSITIVE
Collision energy: 40 ev
Column name: Agilent C8 Cartridge Column 2.1X30mm 3.5 micron (guard); Agilent SB-Aq 2.1x50mm 1.8 micron (analytical)
Retention time: 7.372
Base peak: 145
Precursor m/z: 255.0652
Precursor type: [M+H]+
m/z	relative intensity
105.0312	80
109.0303	112
119.0541	130
121.0359	78
127.0503	143
128.0647	93
131.0828	35
137.0212	705
141.072	42
145.0261	999
152.0577	108
153.2197	65
164.0589	140
165.0616	38
165.0753	95
181.064	177
193.445	35
226.066	110
227.0701	60
255.0611	238
