Mass spectrum: Bergapten; LC-ESI-QTOF; MS2; CE 40 ev; [M+H]+
Name: Bergapten
Formula: C12H8O4
Exact mass: 216.042259
SMILES: COC1=C2C=CC(=O)OC2=CC3=C1C=CO3
InChI: InChI=1S/C12H8O4/c1-14-12-7-2-3-11(13)16-10(7)6-9-8(12)4-5-15-9/h2-6H,1H3
Instrument: Agilent 1200 RRLC; Agilent 6520 QTOF
Instrument type: LC-ESI-QTOF
Ms type: MS2
Ion mode: POSITIVE
Collision energy: 40 ev
Column name: Agilent C8 Cartridge Column 2.1X30mm 3.5 micron (guard); Agilent SB-Aq 2.1x50mm 1.8 micron (analytical)
Retention time: 7.327
Base peak: 118
Precursor m/z: 217.0496
Precursor type: [M+H]+
m/z	relative intensity
100.0311	116
102.0445	134
103.0511	38
105.0347	29
115.0539	146
117.0331	91
118.041	999
118.0748	29
118.0938	19
118.1426	17
119.0145	24
120.0173	31
127.0177	17
128.025	75
129.0314	17
131.0475	84
145.0263	172
146.034	347
146.0681	19
156.0195	89
173.02	33
174.0294	652
202.0236	113
