Mass spectrum: Nicergoline; LC-ESI-QTOF; MS2; CE 20 ev; [M+H]+
Name: Nicergoline
Formula: C24H26BrN3O3
Exact mass: 483.115754
SMILES: CN1CC(CC2(C1CC3=CN(C4=CC=CC2=C34)C)OC)COC(=O)C5=CC(=CN=C5)Br
InChI: InChI=1S/C24H26BrN3O3/c1-27-13-17-8-21-24(30-3,19-5-4-6-20(27)22(17)19)9-15(12-28(21)2)14-31-23(29)16-7-18(25)11-26-10-16/h4-7,10-11,13,15,21H,8-9,12,14H2,1-3H3
Instrument: Agilent 1200 RRLC; Agilent 6520 QTOF
Instrument type: LC-ESI-QTOF
Ms type: MS2
Ion mode: POSITIVE
Collision energy: 20 ev
Column name: Agilent C8 Cartridge Column 2.1X30mm 3.5 micron (guard); Agilent SB-Aq 2.1x50mm 1.8 micron (analytical)
Retention time: 7.214
Base peak: 452
Precursor m/z: 484.1231
Precursor type: [M+H]+
m/z	relative intensity
167.0693	9
182.0959	28
208.1068	15
210.1188	8
211.1241	32
220.1127	11
221.1067	23
222.1121	11
222.1272	6
223.1258	6
234.1226	15
235.1197	15
236.1263	34
249.1387	31
251.1534	112
267.1452	9
268.1623	8
421.0617	6
437.0728	40
452.0943	999
452.1633	34
452.2036	15
452.2352	14
452.2791	14
452.3546	7
452.3973	10
452.5266	13
452.5704	9
452.693	12
452.7682	6
452.8147	6
452.8564	12
452.8931	9
452.9738	9
453.1047	7
453.2534	7
453.4517	7
453.6085	5
484.1213	16
