Mass spectrum: Atropine; LC-ESI-QTOF; MS2; CE 20 ev; [M+H]+
Name: Atropine
Formula: C17H23NO3
Exact mass: 289.167794
SMILES: CN1C2CCC1CC(C2)OC(=O)C(CO)C3=CC=CC=C3
InChI: InChI=1S/C17H23NO3/c1-18-13-7-8-14(18)10-15(9-13)21-17(20)16(11-19)12-5-3-2-4-6-12/h2-6,13-16,19H,7-11H2,1H3
Instrument: Agilent 1200 RRLC; Agilent 6520 QTOF
Instrument type: LC-ESI-QTOF
Ms type: MS2
Ion mode: POSITIVE
Collision energy: 20 ev
Column name: Agilent C8 Cartridge Column 2.1X30mm 3.5 micron (guard); Agilent SB-Aq 2.1x50mm 1.8 micron (analytical)
Retention time: 3.068
Base peak: 124
Precursor m/z: 290.1751
Precursor type: [M+H]+
m/z	relative intensity
103.0517	15
124.1114	999
124.145	38
124.1641	12
124.1855	7
124.2157	18
125.116	13
142.1205	29
214.1559	8
260.1631	17
290.1721	721
