Mass spectrum: N-?-Benzoyl-L-arginine; LC-ESI-QTOF; MS; POSITIVE
Name: N-?-Benzoyl-L-arginine
Formula: C13H18N4O3
Exact mass: 278.13789
SMILES: C1=CC=C(C=C1)C(=O)NC(CCCN=C(N)N)C(=O)O
InChI: InChI=1S/C13H18N4O3/c14-13(15)16-8-4-7-10(12(19)20)17-11(18)9-5-2-1-3-6-9/h1-3,5-6,10H,4,7-8H2,(H,17,18)(H,19,20)(H4,14,15,16)
Instrument: Agilent 1200 RRLC; Agilent 6520 QTOF
Instrument type: LC-ESI-QTOF
Ms type: MS
Ion mode: POSITIVE
Column name: Agilent C8 Cartridge Column 2.1X30mm 3.5 micron (guard); Agilent SB-Aq 2.1x50mm 1.8 micron (analytical)
Retention time: 2.129
m/z	relative intensity
279.1451765	999
301.127118	5
