Mass spectrum: 6-methoxy-2-oxo-2H-chromen-7-yl 2-O-acetyl-6-O-(6-deoxyhexopyranosyl)hexopyranoside; LC-ESI-QTOF; MS2; CE 10 ev; [M+H]+
Name: 6-methoxy-2-oxo-2H-chromen-7-yl 2-O-acetyl-6-O-(6-deoxyhexopyranosyl)hexopyranoside
Formula: C24H30O14
Exact mass: 542.163556
SMILES: CC1C(C(C(C(O1)OCC2C(C(C(C(O2)OC3=C(C=C4C=CC(=O)OC4=C3)OC)OC(=O)C)O)O)O)O)O
InChI: InChI=1S/C24H30O14/c1-9-17(27)19(29)21(31)23(34-9)33-8-15-18(28)20(30)22(35-10(2)25)24(38-15)37-14-7-12-11(6-13(14)32-3)4-5-16(26)36-12/h4-7,9,15,17-24,27-31H,8H2,1-3H3
Instrument: Agilent 1200 RRLC; Agilent 6520 QTOF
Instrument type: LC-ESI-QTOF
Ms type: MS2
Ion mode: POSITIVE
Collision energy: 10 ev
Column name: Agilent C8 Cartridge Column 2.1X30mm 3.5 micron (guard); Agilent SB-Aq 2.1x50mm 1.8 micron (analytical)
Retention time: 5.423
Base peak: 193
Precursor m/z: 543.1709
Precursor type: [M+H]+
m/z	relative intensity
109.0262	90
111.0466	42
127.0387	82
129.0549	57
139.0356	18
145.0458	25
147.0627	46
169.0462	55
169.0558	20
187.059	125
187.1056	16
193.049	999
193.0828	17
193.0949	19
205.0692	541
205.0933	24
205.1102	18
297.1058	15
315.1032	29
397.1125	15
