Mass spectrum: Luteolin-7-glucoside; LC-ESI-QTOF; MS2; CE 40 ev; [M-H]-
Name: Luteolin-7-glucoside
Formula: C21H20O11
Exact mass: 448.100561
SMILES: C1=CC(=C(C=C1C2=CC(=O)C3=C(C=C(C=C3O2)O[C@H]4[C@@H]([C@H]([C@@H]([C@H](O4)CO)O)O)O)O)O)O
InChI: InChI=1S/C21H20O11/c22-7-16-18(27)19(28)20(29)21(32-16)30-9-4-12(25)17-13(26)6-14(31-15(17)5-9)8-1-2-10(23)11(24)3-8/h1-6,16,18-25,27-29H,7H2/t16-,18-,19+,20-,21-/m1/s1
Instrument: Agilent 1200 RRLC; Agilent 6520 QTOF
Instrument type: LC-ESI-QTOF
Ms type: MS2
Ion mode: NEGATIVE
Collision energy: 40 ev
Column name: Agilent C8 Cartridge Column 2.1X30mm 3.5 micron (guard); Agilent SB-Aq 2.1x50mm 1.8 micron (analytical)
Retention time: 5.612
Base peak: 285
Precursor m/z: 447.0933
Precursor type: [M-H]-
m/z	relative intensity
103.6185	18
107.0128	12
116.1986	16
119.034	8
133.031	15
147.5337	9
149.991	17
151.0033	54
151.0322	10
172.9781	8
175.036	8
175.0557	8
194.7266	15
196.0549	8
198.6422	8
199.042	18
201.0433	12
203.6675	7
203.8725	11
216.0327	8
227.0343	23
255.0271	11
255.0448	8
256.0378	35
283.0259	9
284.0308	779
284.0722	28
284.0894	17
284.1076	11
284.1888	9
284.9496	9
285.0393	999
285.0858	33
285.1023	16
285.1245	27
285.1981	18
285.3126	11
285.3738	9
285.4334	8
285.6585	10
286.2645	12
286.7346	7
297.0404	25
330.9191	10
357.8011	13
360.4881	34
