Mass spectrum: 6-Ethoxy-3(4'-hydroxyphenyl)-4-methylcoumarin; LC-ESI-QTOF; MS2; CE 20 ev; [M+H]+
Name: 6-Ethoxy-3(4'-hydroxyphenyl)-4-methylcoumarin
Formula: C18H16O4
Exact mass: 296.104859
SMILES: CCOC1=CC2=C(C=C1)OC(=O)C(=C2C)C3=CC=C(C=C3)O
InChI: InChI=1S/C18H16O4/c1-3-21-14-8-9-16-15(10-14)11(2)17(18(20)22-16)12-4-6-13(19)7-5-12/h4-10,19H,3H2,1-2H3
Instrument: Agilent 1200 RRLC; Agilent 6520 QTOF
Instrument type: LC-ESI-QTOF
Ms type: MS2
Ion mode: POSITIVE
Collision energy: 20 ev
Column name: Agilent C8 Cartridge Column 2.1X30mm 3.5 micron (guard); Agilent SB-Aq 2.1x50mm 1.8 micron (analytical)
Retention time: 8.617
Base peak: 297
Precursor m/z: 297.1122
Precursor type: [M+H]+
m/z	relative intensity
107.0501	26
119.0501	93
131.0488	45
147.0431	142
147.0814	36
167.0798	25
195.0788	55
210.0694	33
213.0888	119
240.0784	48
241.0858	39
241.1223	60
268.0677	21
269.0796	311
269.1164	40
297.1114	999
