Mass spectrum: Chrysoeriol; LC-ESI-QTOF; MS2; CE 10 ev; [M-H]-
Name: Chrysoeriol
Formula: C16H12O6
Exact mass: 300.063388
SMILES: COC1=C(C=CC(=C1)C2=CC(=O)C3=C(C=C(C=C3O2)O)O)O
InChI: InChI=1S/C16H12O6/c1-21-14-4-8(2-3-10(14)18)13-7-12(20)16-11(19)5-9(17)6-15(16)22-13/h2-7,17-19H,1H3
Instrument: Agilent 1200 RRLC; Agilent 6520 QTOF
Instrument type: LC-ESI-QTOF
Ms type: MS2
Ion mode: NEGATIVE
Collision energy: 10 ev
Column name: Agilent C8 Cartridge Column 2.1X30mm 3.5 micron (guard); Agilent SB-Aq 2.1x50mm 1.8 micron (analytical)
Retention time: 8.058
Base peak: 299
Precursor m/z: 299.0561
Precursor type: [M-H]-
m/z	relative intensity
101.1889	3
102.2563	3
124.0475	6
137.477	3
147.8658	3
156.9867	3
192.5906	3
192.6255	3
210.7842	8
217.0011	53
217.055	2
256.0375	16
256.0535	5
269.0472	3
284.0306	190
284.0832	8
284.1213	3
284.1674	3
284.7149	4
284.9808	3
288.481	2
298.5344	3
298.9971	4
299.0547	999
