Mass spectrum: 3-Hydroxy-3',4'-Dimethoxyflavone; LC-ESI-QTOF; MS2; CE 40 ev; [M+H]+
Name: 3-Hydroxy-3',4'-Dimethoxyflavone
Formula: C17H14O5
Exact mass: 298.084124
SMILES: COC1=C(C=C(C=C1)C2=C(C(=O)C3=CC=CC=C3O2)O)OC
InChI: InChI=1S/C17H14O5/c1-20-13-8-7-10(9-14(13)21-2)17-16(19)15(18)11-5-3-4-6-12(11)22-17/h3-9,19H,1-2H3
Instrument: Agilent 1200 RRLC; Agilent 6520 QTOF
Instrument type: LC-ESI-QTOF
Ms type: MS2
Ion mode: POSITIVE
Collision energy: 40 ev
Column name: Agilent C8 Cartridge Column 2.1X30mm 3.5 micron (guard); Agilent SB-Aq 2.1x50mm 1.8 micron (analytical)
Retention time: 8.955
Base peak: 255
Precursor m/z: 299.0914
Precursor type: [M+H]+
m/z	relative intensity
105.033	389
107.0491	96
121.0279	887
133.0269	192
152.0603	96
153.0694	99
162.0286	86
163.038	144
165.0646	185
181.0633	383
196.0509	109
197.0594	223
199.0776	102
209.0604	246
210.0722	73
211.0386	73
213.0527	115
225.0542	112
226.0665	150
227.0715	118
237.0529	664
238.0682	96
239.07	89
254.066	77
255.0661	999
255.1102	83
265.0485	220
267.0684	236
283.0591	871
283.084	134
