Mass spectrum: Ginkgolide A; LC-ESI-QTOF; MS2; CE 20 ev; [M-H]-
Name: Ginkgolide A
Formula: C20H24O9
Exact mass: 408.142032
SMILES: CC1C(=O)OC2C1(C34C(=O)OC5C3(C2)C6(C(C5)C(C)(C)C)C(C(=O)OC6O4)O)O
InChI: InChI=1S/C20H24O9/c1-7-12(22)26-10-6-17-9-5-8(16(2,3)4)18(17)11(21)13(23)28-15(18)29-20(17,14(24)27-9)19(7,10)25/h7-11,15,21,25H,5-6H2,1-4H3
Instrument: Agilent 1200 RRLC; Agilent 6520 QTOF
Instrument type: LC-ESI-QTOF
Ms type: MS2
Ion mode: NEGATIVE
Collision energy: 20 ev
Column name: Agilent C8 Cartridge Column 2.1X30mm 3.5 micron (guard); Agilent SB-Aq 2.1x50mm 1.8 micron (analytical)
Retention time: 5.255
Base peak: 351
Precursor m/z: 407.1347
Precursor type: [M-H]-
m/z	relative intensity
109.3305	40
132.2706	37
135.0806	39
136.8503	39
149.0232	36
152.7737	48
156.0415	42
159.8915	37
164.0838	48
172.094	42
187.4642	44
191.1447	34
203.0998	47
205.1331	56
205.1577	65
216.1088	76
217.1318	56
217.1586	79
229.1589	119
229.1697	50
230.0676	36
230.8509	47
231.1389	36
233.1195	63
235.1339	45
235.1722	71
245.112	44
245.1514	107
245.1648	84
247.1662	58
255.1394	131
257.1487	86
260.1101	107
263.1695	66
271.1366	123
273.1457	157
275.1635	90
277.1374	58
289.1522	126
301.1393	82
307.149	160
317.1261	36
319.1074	34
326.5422	36
333.1353	202
333.1615	63
335.1333	39
335.158	76
351.1416	999
351.1813	76
351.2297	32
354.1596	39
363.1434	124
367.6836	32
407.1306	236
