Mass spectrum: N4-Anisoyl-2'-deoxycytidine; LC-ESI-QTOF; MS2; CE 10 ev; [M-H]-
Name: N4-Anisoyl-2'-deoxycytidine
Formula: C17H19N3O6
Exact mass: 361.127385
SMILES: COC1=CC=C(C=C1)C(=O)NC2=NC(=O)N(C=C2)C3C[C@H]([C@@H](O3)CO)O
InChI: InChI=1S/C17H19N3O6/c1-25-11-4-2-10(3-5-11)16(23)18-14-6-7-20(17(24)19-14)15-8-12(22)13(9-21)26-15/h2-7,12-13,15,21-22H,8-9H2,1H3,(H,18,19,23,24)/t12-,13+,15?/m1/s1
Instrument: Agilent 1200 RRLC; Agilent 6520 QTOF
Instrument type: LC-ESI-QTOF
Ms type: MS2
Ion mode: NEGATIVE
Collision energy: 10 ev
Column name: Agilent C8 Cartridge Column 2.1X30mm 3.5 micron (guard); Agilent SB-Aq 2.1x50mm 1.8 micron (analytical)
Retention time: 5.844
Base peak: 360
Precursor m/z: 360.1201
Precursor type: [M-H]-
m/z	relative intensity
151.0435	2
160.2494	2
172.4715	2
183.0834	2
208.2285	2
227.0792	17
244.0741	32
244.0977	2
251.1173	2
271.551	2
317.1135	525
317.1659	6
317.2019	11
317.2327	3
317.2774	8
317.3295	3
317.3683	2
317.4257	5
317.4622	2
317.4896	3
317.5603	3
317.6001	5
317.6763	3
317.7047	3
317.7735	2
317.8075	2
317.8521	2
317.8698	2
317.905	2
317.9637	4
318.027	2
318.1334	4
318.7595	3
319.237	3
360.1186	999
