Mass spectrum: Lithocholic acid; LC-ESI-QTOF; MS2; CE 20 ev; [M-H]-
Name: Lithocholic acid
Formula: C24H40O3
Exact mass: 376.297745
SMILES: CC(CCC(=O)O)C1CCC2C1(CCC3C2CCC4C3(CCC(C4)O)C)C
InChI: InChI=1S/C24H40O3/c1-15(4-9-22(26)27)19-7-8-20-18-6-5-16-14-17(25)10-12-23(16,2)21(18)11-13-24(19,20)3/h15-21,25H,4-14H2,1-3H3,(H,26,27)
Instrument: Agilent 1200 RRLC; Agilent 6520 QTOF
Instrument type: LC-ESI-QTOF
Ms type: MS2
Ion mode: NEGATIVE
Collision energy: 20 ev
Column name: Agilent C8 Cartridge Column 2.1X30mm 3.5 micron (guard); Agilent SB-Aq 2.1x50mm 1.8 micron (analytical)
Retention time: 11.556
Base peak: 375
Precursor m/z: 375.2904
Precursor type: [M-H]-
m/z	relative intensity
100.3599	5
154.9277	6
189.917	6
191.1284	5
217.0011	44
227.8859	6
285.0581	6
285.3436	7
293.1778	12
317.3261	5
347.1956	5
353.7115	6
375.2892	999
