Mass spectrum: 3-{[(7-methoxy-2-oxochromen-4-yl)methyl]methylamino}propanenitrile; LC-ESI-QTOF; MS2; CE 20 ev; [M+H]+
Name: 3-{[(7-methoxy-2-oxochromen-4-yl)methyl]methylamino}propanenitrile
Formula: C15H16N2O3
Exact mass: 272.116092
SMILES: CN(CCC#N)CC1=CC(=O)OC2=C1C=CC(=C2)OC
InChI: InChI=1S/C15H16N2O3/c1-17(7-3-6-16)10-11-8-15(18)20-14-9-12(19-2)4-5-13(11)14/h4-5,8-9H,3,7,10H2,1-2H3
Instrument: Agilent 1200 RRLC; Agilent 6520 QTOF
Instrument type: LC-ESI-QTOF
Ms type: MS2
Ion mode: POSITIVE
Collision energy: 20 ev
Column name: Agilent C8 Cartridge Column 2.1X30mm 3.5 micron (guard); Agilent SB-Aq 2.1x50mm 1.8 micron (analytical)
Retention time: 6.978
Base peak: 232
Precursor m/z: 273.1234
Precursor type: [M+H]+
m/z	relative intensity
102.0454	17
105.066	9
108.0416	23
121.061	9
133.0577	7
133.0649	10
133.0713	8
135.079	8
144.0809	9
145.0646	42
147.0814	50
150.0944	11
161.0587	128
163.0783	9
173.0584	60
173.0764	11
175.0747	278
176.0709	21
177.0542	54
178.0853	44
188.1062	11
189.0539	82
189.0753	28
190.0747	15
190.089	28
191.0695	57
203.0707	16
204.101	235
204.1395	14
217.0723	8
232.0962	999
232.1335	56
232.1599	16
232.2357	10
245.1265	12
273.1259	9
