Mass spectrum: Coumarin 106; LC-ESI-QTOF; MS; POSITIVE
Name: Coumarin 106
Formula: C18H19NO2
Exact mass: 281.141579
SMILES: C1CC2=C(C1)C(=O)OC3=C4CCCN5C4=C(CCC5)C=C23
InChI: InChI=1S/C18H19NO2/c20-18-13-6-1-5-12(13)15-10-11-4-2-8-19-9-3-7-14(16(11)19)17(15)21-18/h10H,1-9H2
Instrument: Agilent 1200 RRLC; Agilent 6520 QTOF
Instrument type: LC-ESI-QTOF
Ms type: MS
Ion mode: POSITIVE
Column name: Agilent C8 Cartridge Column 2.1X30mm 3.5 micron (guard); Agilent SB-Aq 2.1x50mm 1.8 micron (analytical)
Retention time: 10.438
m/z	relative intensity
282.1488765	999
304.130818	498
