Mass spectrum: (+)-Bicuculline; LC-ESI-QTOF; MS2; CE 40 ev; [M+H]+
Name: (+)-Bicuculline
Formula: C20H17NO6
Exact mass: 367.105587
SMILES: CN1CCC2=CC3=C(C=C2[C@H]1[C@H]4C5=C(C6=C(C=C5)OCO6)C(=O)O4)OCO3
InChI: InChI=1S/C20H17NO6/c1-21-5-4-10-6-14-15(25-8-24-14)7-12(10)17(21)18-11-2-3-13-19(26-9-23-13)16(11)20(22)27-18/h2-3,6-7,17-18H,4-5,8-9H2,1H3/t17-,18+/m0/s1
Instrument: Agilent 1200 RRLC; Agilent 6520 QTOF
Instrument type: LC-ESI-QTOF
Ms type: MS2
Ion mode: POSITIVE
Collision energy: 40 ev
Column name: Agilent C8 Cartridge Column 2.1X30mm 3.5 micron (guard); Agilent SB-Aq 2.1x50mm 1.8 micron (analytical)
Retention time: 3.936
Base peak: 249
Precursor m/z: 368.1129
Precursor type: [M+H]+
m/z	relative intensity
131.0467	14
131.0701	10
135.0426	16
139.0498	12
149.0578	12
159.0428	12
159.0687	18
160.0735	10
161.0445	10
163.0519	67
165.0697	168
167.0873	16
175.0556	28
176.0688	87
176.1074	11
177.0111	26
177.064	25
188.0699	30
188.0805	12
189.0732	48
190.0851	138
191.0488	146
191.0816	13
192.0555	10
193.0617	122
195.0778	12
203.0466	25
205.0663	77
209.0576	26
217.0584	12
219.0402	112
220.0508	14
221.058	220
221.0902	13
221.1079	13
222.0652	10
223.0728	64
231.0469	16
233.0561	106
237.0524	24
245.0689	10
247.035	47
249.0532	999
249.0869	25
249.109	14
249.1241	12
249.1965	15
251.0682	57
261.052	101
262.0622	10
267.0635	32
277.0477	477
277.1047	15
278.0532	11
279.0648	185
280.0719	13
289.0426	37
291.0609	15
303.064	14
307.0591	93
320.05	10
320.0671	11
