Mass spectrum: Thaliporphine; LC-APCI-QTOF; MS; POSITIVE
Name: Thaliporphine
Formula: C20H23NO4
Exact mass: 341.162708
SMILES: CN1CCC2=CC(=C(C3=C2C1CC4=CC(=C(C=C43)OC)OC)O)OC
InChI: InChI=1S/C20H23NO4/c1-21-6-5-11-8-17(25-4)20(22)19-13-10-16(24-3)15(23-2)9-12(13)7-14(21)18(11)19/h8-10,14,22H,5-7H2,1-4H3
Instrument: Agilent 1200 RRLC; Agilent 6520 QTOF
Instrument type: LC-APCI-QTOF
Ms type: MS
Ion mode: POSITIVE
Column name: Agilent C8 Cartridge Column 2.1X30mm 3.5 micron (guard); Agilent SB-Aq 2.1x50mm 1.8 micron (analytical)
Retention time: 4.684
m/z	relative intensity
342.1699765	999
