Mass spectrum: Pergolide; LC-ESI-QTOF; MS2; CE 10 ev; [M+H]+
Name: Pergolide
Formula: C19H26N2S
Exact mass: 314.18167
SMILES: CCCN1C[C@@H](C[C@H]2[C@H]1CC3=CNC4=CC=CC2=C34)CSC
InChI: InChI=1S/C19H26N2S/c1-3-7-21-11-13(12-22-2)8-16-15-5-4-6-17-19(15)14(10-20-17)9-18(16)21/h4-6,10,13,16,18,20H,3,7-9,11-12H2,1-2H3/t13-,16-,18-/m1/s1
Instrument: Agilent 1200 RRLC; Agilent 6520 QTOF
Instrument type: LC-ESI-QTOF
Ms type: MS2
Ion mode: POSITIVE
Collision energy: 10 ev
Column name: Agilent C8 Cartridge Column 2.1X30mm 3.5 micron (guard); Agilent SB-Aq 2.1x50mm 1.8 micron (analytical)
Retention time: 5.397
Base peak: 315
Precursor m/z: 315.1890
Precursor type: [M+H]+
m/z	relative intensity
154.0645	8
167.0737	7
193.087	8
208.1108	39
267.1818	8
315.1869	999
