Mass spectrum: Liquiritin; LC-ESI-QTOF; MS2; CE 40 ev; [M-H]-
Name: Liquiritin
Formula: C21H22O9
Exact mass: 418.126382
SMILES: C1C(OC2=C(C1=O)C=CC(=C2)O)C3=CC=C(C=C3)OC4C(C(C(C(O4)CO)O)O)O
InChI: InChI=1S/C21H22O9/c22-9-17-18(25)19(26)20(27)21(30-17)28-12-4-1-10(2-5-12)15-8-14(24)13-6-3-11(23)7-16(13)29-15/h1-7,15,17-23,25-27H,8-9H2
Instrument: Agilent 1200 RRLC; Agilent 6520 QTOF
Instrument type: LC-ESI-QTOF
Ms type: MS2
Ion mode: NEGATIVE
Collision energy: 40 ev
Column name: Agilent C8 Cartridge Column 2.1X30mm 3.5 micron (guard); Agilent SB-Aq 2.1x50mm 1.8 micron (analytical)
Retention time: 5.069
Base peak: 135
Precursor m/z: 417.1191
Precursor type: [M-H]-
m/z	relative intensity
119.0496	921
119.0833	41
119.0976	12
119.1053	6
119.1509	12
119.3487	4
120.0206	19
129.7107	4
135.0077	999
135.0421	26
135.0607	12
135.0784	6
135.1158	11
135.1629	5
135.2255	4
135.587	5
135.981	4
148.0126	31
149.0253	20
169.0613	4
203.2957	8
211.0717	4
213.0505	11
222.8857	4
226.0704	4
255.0666	161
255.1027	8
255.1232	6
294.1083	4
298.693	4
335.913	6
348.1144	5
