Mass spectrum: Gibberellic Acid; LC-ESI-QTOF; MS2; CE 40 ev; [M-H]-
Name: Gibberellic Acid
Formula: C19H22O6
Exact mass: 346.141638
SMILES: CC12C(C=CC3(C1C(C45C3CCC(C4)(C(=C)C5)O)C(=O)O)OC2=O)O
InChI: InChI=1S/C19H22O6/c1-9-7-17-8-18(9,24)5-3-10(17)19-6-4-11(20)16(2,15(23)25-19)13(19)12(17)14(21)22/h4,6,10-13,20,24H,1,3,5,7-8H2,2H3,(H,21,22)
Instrument: Agilent 1200 RRLC; Agilent 6520 QTOF
Instrument type: LC-ESI-QTOF
Ms type: MS2
Ion mode: NEGATIVE
Collision energy: 40 ev
Column name: Agilent C8 Cartridge Column 2.1X30mm 3.5 micron (guard); Agilent SB-Aq 2.1x50mm 1.8 micron (analytical)
Retention time: 4.730
Base peak: 221
Precursor m/z: 345.1343
Precursor type: [M-H]-
m/z	relative intensity
199.1215	36
201.1262	57
205.1018	244
206.1088	55
209.0972	181
211.0674	39
213.1298	63
219.1128	203
221.1314	999
225.0946	30
227.1075	642
239.1079	47
239.139	47
243.0659	29
253.1275	30
255.1373	39
262.0807	38
271.1022	28
