Mass spectrum: Fraxetin; LC-ESI-QTOF; MS2; CE 10 ev; [M+H]+
Name: Fraxetin
Formula: C10H8O5
Exact mass: 208.037173
SMILES: COC1=C(C(=C2C(=C1)C=CC(=O)O2)O)O
InChI: InChI=1S/C10H8O5/c1-14-6-4-5-2-3-7(11)15-10(5)9(13)8(6)12/h2-4,12-13H,1H3
Instrument: Agilent 1200 RRLC; Agilent 6520 QTOF
Instrument type: LC-ESI-QTOF
Ms type: MS2
Ion mode: POSITIVE
Collision energy: 10 ev
Column name: Agilent C8 Cartridge Column 2.1X30mm 3.5 micron (guard); Agilent SB-Aq 2.1x50mm 1.8 micron (analytical)
Retention time: 3.997
Base peak: 209
Precursor m/z: 209.0445
Precursor type: [M+H]+
m/z	relative intensity
107.0474	52
149.0216	102
163.0411	61
194.0211	48
209.0441	999
