Mass spectrum: Dehydroabietylamine; LC-ESI-QTOF; MS2; CE 10 ev; [M+H]+
Name: Dehydroabietylamine
Formula: C20H31N
Exact mass: 285.24565
SMILES: CC(C)C1=CC2=C(C=C1)C3(CCCC(C3CC2)(C)CN)C
InChI: InChI=1S/C20H31N/c1-14(2)15-6-8-17-16(12-15)7-9-18-19(3,13-21)10-5-11-20(17,18)4/h6,8,12,14,18H,5,7,9-11,13,21H2,1-4H3
Instrument: Agilent 1200 RRLC; Agilent 6520 QTOF
Instrument type: LC-ESI-QTOF
Ms type: MS2
Ion mode: POSITIVE
Collision energy: 10 ev
Column name: Agilent C8 Cartridge Column 2.1X30mm 3.5 micron (guard); Agilent SB-Aq 2.1x50mm 1.8 micron (analytical)
Retention time: 8.340
Base peak: 173
Precursor m/z: 286.2529
Precursor type: [M+H]+
m/z	relative intensity
117.0741	13
123.1116	12
131.0847	77
143.0872	13
145.1019	20
157.097	8
159.1171	65
171.1108	11
173.131	999
173.1719	44
173.2547	17
173.4934	8
173.6848	8
173.7663	6
185.1301	93
187.1427	36
187.1498	53
199.1481	12
213.1615	39
227.1795	17
269.2267	57
286.2507	479
