Mass spectrum: Piperine; LC-ESI-QTOF; MS2; CE 20 ev; [M+H]+
Name: Piperine
Formula: C17H19NO3
Exact mass: 285.136493
SMILES: C1CCN(CC1)C(=O)C=CC=CC2=CC3=C(C=C2)OCO3
InChI: InChI=1S/C17H19NO3/c19-17(18-10-4-1-5-11-18)7-3-2-6-14-8-9-15-16(12-14)21-13-20-15/h2-3,6-9,12H,1,4-5,10-11,13H2
Instrument: Agilent 1200 RRLC; Agilent 6520 QTOF
Instrument type: LC-ESI-QTOF
Ms type: MS2
Ion mode: POSITIVE
Collision energy: 20 ev
Column name: Agilent C8 Cartridge Column 2.1X30mm 3.5 micron (guard); Agilent SB-Aq 2.1x50mm 1.8 micron (analytical)
Retention time: 9.165
Base peak: 201
Precursor m/z: 286.1438
Precursor type: [M+H]+
m/z	relative intensity
112.0752	68
114.0888	6
115.0543	100
115.0825	5
117.069	7
121.0501	5
127.0633	6
135.0436	236
135.0719	9
143.0485	148
143.0847	8
150.0933	6
151.0932	17
151.1022	7
159.0437	30
171.0453	85
173.0582	56
187.0769	5
201.0538	999
201.0927	35
201.1196	21
201.1544	9
201.1875	9
201.3912	5
201.4098	5
258.1544	4
286.1414	74
