Mass spectrum: 4-hydroxy-2,5,5,9-tetramethylcycloundeca-2,9-dienyl 4-hydroxybenzoate; LC-ESI-QTOF; MS2; CE 40 ev; [M-H]-
Name: 4-hydroxy-2,5,5,9-tetramethylcycloundeca-2,9-dienyl 4-hydroxybenzoate
Formula: C22H30O4
Exact mass: 358.214409
SMILES: CC1=CCC(C(=CC(C(CCC1)(C)C)O)C)OC(=O)C2=CC=C(C=C2)O
InChI: InChI=1S/C22H30O4/c1-15-6-5-13-22(3,4)20(24)14-16(2)19(12-7-15)26-21(25)17-8-10-18(23)11-9-17/h7-11,14,19-20,23-24H,5-6,12-13H2,1-4H3
Instrument: Agilent 1200 RRLC; Agilent 6520 QTOF
Instrument type: LC-ESI-QTOF
Ms type: MS2
Ion mode: NEGATIVE
Collision energy: 40 ev
Column name: Agilent C8 Cartridge Column 2.1X30mm 3.5 micron (guard); Agilent SB-Aq 2.1x50mm 1.8 micron (analytical)
Retention time: 10.662
Base peak: 137
Precursor m/z: 357.2071
Precursor type: [M-H]-
m/z	relative intensity
121.0983	6
136.0163	181
137.0239	999
137.0611	28
137.0754	12
137.0934	6
137.132	11
137.4603	6
149.0962	787
149.1318	28
149.155	11
149.1809	5
149.2095	9
201.1657	23
219.1745	265
219.2182	15
295.2	6
357.2077	29
