Mass spectrum: N-Acetylneuraminic acid methyl ester 1; LC-APCI-QTOF; MS; POSITIVE
Name: N-Acetylneuraminic acid methyl ester 1
Formula: C12H21NO9
Exact mass: 323.121631
SMILES: CC(=O)NC1C(CC(OC1C(C(CO)O)O)(C(=O)OC)O)O
InChI: InChI=1S/C12H21NO9/c1-5(15)13-8-6(16)3-12(20,11(19)21-2)22-10(8)9(18)7(17)4-14/h6-10,14,16-18,20H,3-4H2,1-2H3,(H,13,15)
Instrument: Agilent 1200 RRLC; Agilent 6520 QTOF
Instrument type: LC-APCI-QTOF
Ms type: MS
Ion mode: POSITIVE
Column name: Agilent C8 Cartridge Column 2.1X30mm 3.5 micron (guard); Agilent SB-Aq 2.1x50mm 1.8 micron (analytical)
Retention time: 0.390
m/z	relative intensity
324.1288765	999
