Mass spectrum: 11-(phenylcarbonyl)-7,11-diazatricyclo[7.3.1.0<2,7>]trideca-2,4-dien-6-one; LC-ESI-QTOF; MS; POSITIVE
Name: 11-(phenylcarbonyl)-7,11-diazatricyclo[7.3.1.0<2,7>]trideca-2,4-dien-6-one
Formula: C18H18N2O2
Exact mass: 294.136828
SMILES: C1C2CN(CC1C3=CC=CC(=O)N3C2)C(=O)C4=CC=CC=C4
InChI: InChI=1S/C18H18N2O2/c21-17-8-4-7-16-15-9-13(11-20(16)17)10-19(12-15)18(22)14-5-2-1-3-6-14/h1-8,13,15H,9-12H2
Instrument: Agilent 1200 RRLC; Agilent 6520 QTOF
Instrument type: LC-ESI-QTOF
Ms type: MS
Ion mode: POSITIVE
Column name: Agilent C8 Cartridge Column 2.1X30mm 3.5 micron (guard); Agilent SB-Aq 2.1x50mm 1.8 micron (analytical)
Retention time: 5.408
m/z	relative intensity
295.1440765	999
317.126018	384
