Mass spectrum: N-methylcorydaldine; LC-ESI-QTOF; MS2; CE 20 ev; [M+H]+
Name: N-methylcorydaldine
Formula: C12H15NO3
Exact mass: 221.105193
SMILES: CN1CCC2=CC(=C(C=C2C1=O)OC)OC
InChI: InChI=1S/C12H15NO3/c1-13-5-4-8-6-10(15-2)11(16-3)7-9(8)12(13)14/h6-7H,4-5H2,1-3H3
Instrument: Agilent 1200 RRLC; Agilent 6520 QTOF
Instrument type: LC-ESI-QTOF
Ms type: MS2
Ion mode: POSITIVE
Collision energy: 20 ev
Column name: Agilent C8 Cartridge Column 2.1X30mm 3.5 micron (guard); Agilent SB-Aq 2.1x50mm 1.8 micron (analytical)
Retention time: 5.830
Base peak: 165
Precursor m/z: 222.1125
Precursor type: [M+H]+
m/z	relative intensity
103.0548	59
104.0617	20
105.0696	153
105.0814	14
107.047	50
118.0386	33
119.0494	25
120.0579	46
121.0645	41
131.0495	11
132.0533	11
133.0632	87
134.0714	74
135.0399	79
135.0795	79
137.0934	13
149.0607	21
150.0667	529
150.1006	21
150.1225	12
163.076	32
163.1013	25
165.0894	999
165.1257	40
165.1725	10
165.2081	16
178.0811	18
179.0678	13
179.0931	19
188.0667	17
194.1166	41
204.0997	33
206.0778	48
207.0857	24
222.1127	251
