Mass spectrum: Hesperetin; LC-ESI-QTOF; MS2; CE 20 ev; [M-H]-
Name: Hesperetin
Formula: C16H14O6
Exact mass: 302.079038
SMILES: COC1=C(C=C(C=C1)C2CC(=O)C3=C(C=C(C=C3O2)O)O)O
InChI: InChI=1S/C16H14O6/c1-21-13-3-2-8(4-10(13)18)14-7-12(20)16-11(19)5-9(17)6-15(16)22-14/h2-6,14,17-19H,7H2,1H3
Instrument: Agilent 1200 RRLC; Agilent 6520 QTOF
Instrument type: LC-ESI-QTOF
Ms type: MS2
Ion mode: NEGATIVE
Collision energy: 20 ev
Column name: Agilent C8 Cartridge Column 2.1X30mm 3.5 micron (guard); Agilent SB-Aq 2.1x50mm 1.8 micron (analytical)
Retention time: 7.053
Base peak: 301
Precursor m/z: 301.0717
Precursor type: [M-H]-
m/z	relative intensity
136.051	7
146.0374	8
149.0605	59
151.0029	289
151.0381	10
151.0647	6
152.0143	13
158.0386	55
164.0105	720
164.0424	17
164.0525	8
164.0681	10
164.0976	8
164.1265	9
164.5952	5
165.0188	5
172.054	19
173.0297	7
173.0608	52
174.0313	226
174.0617	6
175.0395	12
176.0162	6
176.0475	19
177.0179	20
183.0463	7
185.0263	31
186.0661	7
187.0382	15
188.047	29
191.0701	38
192.0266	7
198.0338	26
199.0385	192
200.0158	31
200.0468	75
201.0175	221
201.0608	8
202.0246	21
203.0297	8
211.0752	7
212.0493	11
213.0521	20
213.07	6
214.0641	45
215.0357	110
215.0735	36
215.1203	6
216.0396	46
217.0496	53
218.0604	8
224.0455	19
225.0518	9
227.0362	69
230.0551	22
230.0771	6
233.0791	45
239.0736	26
240.0434	63
241.0496	115
241.0873	7
242.0566	440
242.1017	10
242.1383	5
242.1995	5
242.8863	7
243.0359	7
255.062	6
257.0809	200
257.129	9
258.0526	138
258.0982	7
259.0619	18
261.076	7
267.0344	5
268.0382	75
269.0858	6
283.0613	79
283.1017	6
285.0412	36
285.0695	5
286.0478	417
286.1042	16
286.1462	7
286.2063	7
286.3362	6
301.07	999
