Mass spectrum: (1,2,9,10-tetramethoxy-6-methyl-5,6,6a,7-tetrahydro-4H-dibenzo[de,g]quinolin-3-yl)methanol; LC-ESI-QTOF; MS2; CE 10 ev; [M+H]+
Name: (1,2,9,10-tetramethoxy-6-methyl-5,6,6a,7-tetrahydro-4H-dibenzo[de,g]quinolin-3-yl)methanol
Formula: C22H27NO5
Exact mass: 385.188923
SMILES: CN1CCC2=C(C(=C(C3=C2C1CC4=CC(=C(C=C43)OC)OC)OC)OC)CO
InChI: InChI=1S/C22H27NO5/c1-23-7-6-13-15(11-24)21(27-4)22(28-5)20-14-10-18(26-3)17(25-2)9-12(14)8-16(23)19(13)20/h9-10,16,24H,6-8,11H2,1-5H3
Instrument: Agilent 1200 RRLC; Agilent 6520 QTOF
Instrument type: LC-ESI-QTOF
Ms type: MS2
Ion mode: POSITIVE
Collision energy: 10 ev
Column name: Agilent C8 Cartridge Column 2.1X30mm 3.5 micron (guard); Agilent SB-Aq 2.1x50mm 1.8 micron (analytical)
Retention time: 4.971
Base peak: 368
Precursor m/z: 386.1962
Precursor type: [M+H]+
m/z	relative intensity
291.1007	12
294.1237	44
308.136	74
308.1518	25
310.118	84
324.1325	14
325.1418	342
325.175	15
325.1956	20
325.2272	14
336.1672	16
337.1424	159
338.1282	11
339.1653	32
351.1474	13
368.1843	999
368.2436	54
368.2989	21
368.3596	18
386.194	586
