Mass spectrum: Flindersine; LC-APCI-QTOF; MS; POSITIVE
Name: Flindersine
Formula: C14H13NO2
Exact mass: 227.094629
SMILES: CC1(C=CC2=C(O1)C3=CC=CC=C3NC2=O)C
InChI: InChI=1S/C14H13NO2/c1-14(2)8-7-10-12(17-14)9-5-3-4-6-11(9)15-13(10)16/h3-8H,1-2H3,(H,15,16)
Instrument: Agilent 1200 RRLC; Agilent 6520 QTOF
Instrument type: LC-APCI-QTOF
Ms type: MS
Ion mode: POSITIVE
Column name: Agilent C8 Cartridge Column 2.1X30mm 3.5 micron (guard); Agilent SB-Aq 2.1x50mm 1.8 micron (analytical)
Retention time: 8.407
m/z	relative intensity
228.1018765	999
