Mass spectrum: Fusaric acid; LC-ESI-QTOF; MS2; CE 40 ev; [M+H]+
Name: Fusaric acid
Formula: C10H13NO2
Exact mass: 179.094629
SMILES: CCCCC1=CN=C(C=C1)C(=O)O
InChI: InChI=1S/C10H13NO2/c1-2-3-4-8-5-6-9(10(12)13)11-7-8/h5-7H,2-4H2,1H3,(H,12,13)
Instrument: Agilent 1200 RRLC; Agilent 6520 QTOF
Instrument type: LC-ESI-QTOF
Ms type: MS2
Ion mode: POSITIVE
Collision energy: 40 ev
Column name: Agilent C8 Cartridge Column 2.1X30mm 3.5 micron (guard); Agilent SB-Aq 2.1x50mm 1.8 micron (analytical)
Retention time: 3.928
Base peak: 118
Precursor m/z: 180.1019
Precursor type: [M+H]+
m/z	relative intensity
104.0503	121
105.0701	113
106.0642	105
115.049	118
115.0546	293
117.0546	92
117.0624	98
117.0709	69
118.065	999
118.0933	56
119.0697	103
119.0769	62
132.0835	56
