Mass spectrum: Histidylserine; LC-ESI-QTOF; MS2; CE 20 ev; [M+H]+
Name: Histidylserine
Name: 2-(2-amino-3-imidazol-5-ylpropanoylamino)-3-hydroxypropanoic acid
Formula: C9H14N4O4
Exact mass: 242.101505
SMILES: C1=C(NC=N1)CC(C(=O)NC(CO)C(=O)O)N
InChI: InChI=1S/C9H14N4O4/c10-6(1-5-2-11-4-12-5)8(15)13-7(3-14)9(16)17/h2,4,6-7,14H,1,3,10H2,(H,11,12)(H,13,15)(H,16,17)
Instrument: Agilent 1200 RRLC; Agilent 6520 QTOF
Instrument type: LC-ESI-QTOF
Ms type: MS2
Ion mode: POSITIVE
Collision energy: 20 ev
Column name: Agilent C8 Cartridge Column 2.1X30mm 3.5 micron (guard); Agilent SB-Aq 2.1x50mm 1.8 micron (analytical)
Retention time: 0.320
Base peak: 110
Precursor m/z: 243.1088
Precursor type: [M+H]+
m/z	relative intensity
110.0713	999
110.1024	22
110.1219	10
110.1427	6
110.1683	21
110.1984	3
110.2268	2
110.2991	3
110.3428	3
110.374	2
110.416	1
110.4302	2
110.4498	2
110.6139	2
110.7166	2
111.0714	2
121.0417	2
122.0719	3
124.0836	2
138.061	2
150.0694	2
152.08	11
156.0771	13
179.0937	6
180.0761	2
195.0884	2
207.0861	2
225.0969	3
