Mass spectrum: Animicin A; LC-ESI-QTOF; MS2; CE 20 ev; [M-H]-
Name: Animicin A
Formula: C28H40N2O9
Exact mass: 548.273381
SMILES: CCCCCCC1C(C(OC(=O)C(C(OC1=O)C)NC(=O)C2=C(C(=CC=C2)NC=O)O)C)OC(=O)CC(C)C
InChI: InChI=1S/C28H40N2O9/c1-6-7-8-9-11-20-25(39-22(32)14-16(2)3)18(5)38-28(36)23(17(4)37-27(20)35)30-26(34)19-12-10-13-21(24(19)33)29-15-31/h10,12-13,15-18,20,23,25,33H,6-9,11,14H2,1-5H3,(H,29,31)(H,30,34)
Instrument: Agilent 1200 RRLC; Agilent 6520 QTOF
Instrument type: LC-ESI-QTOF
Ms type: MS2
Ion mode: NEGATIVE
Collision energy: 20 ev
Column name: Agilent C8 Cartridge Column 2.1X30mm 3.5 micron (guard); Agilent SB-Aq 2.1x50mm 1.8 micron (analytical)
Retention time: 11.631
Base peak: 245
Precursor m/z: 547.2661
Precursor type: [M-H]-
m/z	relative intensity
100.0413	4
101.0605	481
101.0915	14
101.096	3
101.1054	4
101.1257	6
101.1548	7
108.0451	18
117.047	11
127.0225	2
129.0922	7
133.0404	33
136.0396	5
155.0663	2
158.0509	3
161.0344	211
161.072	11
161.1537	3
162.0423	2
164.0712	4
173.0704	46
173.1057	2
190.0703	3
190.0814	3
191.0818	376
191.1201	11
191.1356	8
191.1608	3
191.1838	2
191.2096	4
191.3904	2
191.5642	2
191.6237	3
199.1328	2
201.0715	8
203.0522	2
211.1021	2
217.0594	39
218.0039	2
218.0284	4
218.0706	7
218.9912	2
219.0057	3
219.0766	729
219.1239	31
219.1598	3
219.1811	3
219.2124	8
219.2554	3
219.2929	4
219.3384	3
219.365	3
219.4109	2
219.4532	4
219.5809	3
219.612	3
219.6682	2
219.7264	2
219.8008	2
219.9705	2
220.0084	2
220.0813	3
234.0671	3
234.4751	3
235.0719	2
244.0456	2
244.9971	2
245.0556	999
245.1046	22
245.1292	14
245.1647	8
245.1996	12
245.2436	5
245.2924	3
245.3305	5
245.3565	4
245.425	2
245.457	3
245.5263	3
245.5673	4
245.6214	3
245.6547	3
245.6792	4
245.7255	4
245.7551	3
245.7988	2
245.8921	2
245.9217	3
245.9405	3
246.0639	5
246.1293	2
246.1971	2
246.2323	2
262.0576	16
262.0752	2
262.1065	2
263.0662	662
263.1117	29
263.1441	8
263.1804	5
263.2151	8
263.2745	3
263.3303	2
263.358	3
263.3897	2
263.4099	2
263.4453	2
263.5164	3
263.557	2
263.7524	2
263.8131	2
263.8679	4
264.2842	2
301.0088	2
301.1936	3
329.2307	7
341.9004	2
357.216	6
373.1634	3
373.2065	20
394.1803	3
401.2072	442
401.2699	17
401.3042	11
401.3386	3
401.3936	6
401.4332	4
401.4664	2
401.492	3
401.5214	3
401.5458	2
401.5984	2
401.6921	3
401.7777	4
402.0027	2
402.1588	4
402.2082	2
402.3577	2
445.201	26
445.2622	3
478.4931	3
547.2657	46
