Mass spectrum: Verapamil; LC-ESI-QTOF; MS2; CE 40 ev; [M+H]+
Name: Verapamil
Formula: C27H38N2O4
Exact mass: 454.283158
SMILES: CC(C)C(CCCN(C)CCC1=CC(=C(C=C1)OC)OC)(C#N)C2=CC(=C(C=C2)OC)OC
InChI: InChI=1S/C27H38N2O4/c1-20(2)27(19-28,22-10-12-24(31-5)26(18-22)33-7)14-8-15-29(3)16-13-21-9-11-23(30-4)25(17-21)32-6/h9-12,17-18,20H,8,13-16H2,1-7H3
Instrument: Agilent 1200 RRLC; Agilent 6520 QTOF
Instrument type: LC-ESI-QTOF
Ms type: MS2
Ion mode: POSITIVE
Collision energy: 40 ev
Column name: Agilent C8 Cartridge Column 2.1X30mm 3.5 micron (guard); Agilent SB-Aq 2.1x50mm 1.8 micron (analytical)
Retention time: 6.649
Base peak: 165
Precursor m/z: 455.2905
Precursor type: [M+H]+
m/z	relative intensity
103.0535	35
104.0605	9
105.0699	120
107.0524	9
118.0406	31
119.0508	11
120.0564	24
121.063	37
122.0732	12
122.0997	18
131.0494	10
133.0638	116
134.0718	78
135.0437	62
135.0792	52
136.0543	9
137.0566	9
138.0693	12
149.0575	11
150.0667	527
150.099	14
150.1101	12
151.0723	68
165.0898	999
165.1293	28
165.149	11
165.2075	11
177.089	54
191.1051	14
202.0875	8
217.1135	11
218.1145	28
243.1382	15
245.1429	12
260.1605	77
261.1579	18
303.2063	49
