Mass spectrum: 1,2,6,6,10,17,20-heptamethyl-12-oxo-17-[(2-piperidylethyl)oxycarbonyl]pentacyclo[12.8.0.0<2,11>.0<5,10>.0<15,20>]docos-13-en-7-yl acetate; LC-ESI-QTOF; MS2; CE 20 ev; [M+H]+
Name: 1,2,6,6,10,17,20-heptamethyl-12-oxo-17-[(2-piperidylethyl)oxycarbonyl]pentacyclo[12.8.0.0<2,11>.0<5,10>.0<15,20>]docos-13-en-7-yl acetate
Formula: C39H61NO5
Exact mass: 623.454974
SMILES: CC(=O)OC1CCC2(C(C1(C)C)CCC3(C2C(=O)C=C4C3(CCC5(C4CC(CC5)(C)C(=O)OCCN6CCCCC6)C)C)C)C
InChI: InChI=1S/C39H61NO5/c1-26(41)45-31-13-14-37(6)30(34(31,2)3)12-15-39(8)32(37)29(42)24-27-28-25-36(5,17-16-35(28,4)18-19-38(27,39)7)33(43)44-23-22-40-20-10-9-11-21-40/h24,28,30-32H,9-23,25H2,1-8H3
Instrument: Agilent 1200 RRLC; Agilent 6520 QTOF
Instrument type: LC-ESI-QTOF
Ms type: MS2
Ion mode: POSITIVE
Collision energy: 20 ev
Column name: Agilent C8 Cartridge Column 2.1X30mm 3.5 micron (guard); Agilent SB-Aq 2.1x50mm 1.8 micron (analytical)
Retention time: 10.717
Base peak: 624
Precursor m/z: 624.4623
Precursor type: [M+H]+
m/z	relative intensity
624.4577	999
