Mass spectrum: DL-Thioctic acid; LC-ESI-QTOF; MS; NEGATIVE
Name: DL-Thioctic acid
Formula: C8H14O2S2
Exact mass: 206.043522
SMILES: C1CSSC1CCCCC(=O)O
InChI: InChI=1S/C8H14O2S2/c9-8(10)4-2-1-3-7-5-6-11-12-7/h7H,1-6H2,(H,9,10)
Instrument: Agilent 1200 RRLC; Agilent 6520 QTOF
Instrument type: LC-ESI-QTOF
Ms type: MS
Ion mode: NEGATIVE
Column name: Agilent C8 Cartridge Column 2.1X30mm 3.5 micron (guard); Agilent SB-Aq 2.1x50mm 1.8 micron (analytical)
Retention time: 6.545
m/z	relative intensity
205.0362235	999
