Mass spectrum: 4,6-Dimethyl-3(4'-hydroxyphenyl)coumarin; LC-APCI-QTOF; MS; NEGATIVE
Name: 4,6-Dimethyl-3(4'-hydroxyphenyl)coumarin
Formula: C17H14O3
Exact mass: 266.094294
SMILES: CC1=CC2=C(C=C1)OC(=O)C(=C2C)C3=CC=C(C=C3)O
InChI: InChI=1S/C17H14O3/c1-10-3-8-15-14(9-10)11(2)16(17(19)20-15)12-4-6-13(18)7-5-12/h3-9,18H,1-2H3
Instrument: Agilent 1200 RRLC; Agilent 6520 QTOF
Instrument type: LC-APCI-QTOF
Ms type: MS
Ion mode: NEGATIVE
Column name: Agilent C8 Cartridge Column 2.1X30mm 3.5 micron (guard); Agilent SB-Aq 2.1x50mm 1.8 micron (analytical)
Retention time: 8.444
m/z	relative intensity
265.0870235	999
