Mass spectrum: Abrine; LC-ESI-QTOF; MS2; CE 40 ev; [M+H]+
Name: Abrine
Formula: C12H14N2O2
Exact mass: 218.105528
SMILES: CNC(CC1=CNC2=CC=CC=C21)C(=O)O
InChI: InChI=1S/C12H14N2O2/c1-13-11(12(15)16)6-8-7-14-10-5-3-2-4-9(8)10/h2-5,7,11,13-14H,6H2,1H3,(H,15,16)
Instrument: Agilent 1200 RRLC; Agilent 6520 QTOF
Instrument type: LC-ESI-QTOF
Ms type: MS2
Ion mode: POSITIVE
Collision energy: 40 ev
Column name: Agilent C8 Cartridge Column 2.1X30mm 3.5 micron (guard); Agilent SB-Aq 2.1x50mm 1.8 micron (analytical)
Retention time: 1.548
Base peak: 118
Precursor m/z: 219.1128
Precursor type: [M+H]+
m/z	relative intensity
103.0545	65
105.0682	103
115.0538	829
116.0576	70
116.0637	67
117.0574	998
117.0846	28
118.0653	999
118.0951	49
127.0528	87
128.0481	45
130.0661	275
131.0756	96
132.0795	304
140.0459	28
142.0667	159
143.0716	340
144.08	89
