Mass spectrum: Methylergometrine; LC-ESI-QTOF; MS2; CE 10 ev; [M-H]-
Name: Methylergometrine
Formula: C20H25N3O2
Exact mass: 339.194677
SMILES: CCC(CO)NC(=O)C1CN(C2CC3=CNC4=CC=CC(=C34)C2=C1)C
InChI: InChI=1S/C20H25N3O2/c1-3-14(11-24)22-20(25)13-7-16-15-5-4-6-17-19(15)12(9-21-17)8-18(16)23(2)10-13/h4-7,9,13-14,18,21,24H,3,8,10-11H2,1-2H3,(H,22,25)
Instrument: Agilent 1200 RRLC; Agilent 6520 QTOF
Instrument type: LC-ESI-QTOF
Ms type: MS2
Ion mode: NEGATIVE
Collision energy: 10 ev
Column name: Agilent C8 Cartridge Column 2.1X30mm 3.5 micron (guard); Agilent SB-Aq 2.1x50mm 1.8 micron (analytical)
Retention time: 3.314
Base peak: 338
Precursor m/z: 338.1874
Precursor type: [M-H]-
m/z	relative intensity
129.487	8
135.3748	4
154.0535	4
180.0808	12
182.0846	5
194.0993	5
195.0918	18
200.7673	7
223.1234	69
237.1191	7
249.1025	38
251.1169	6
275.8554	9
301.1151	4
335.1258	4
337.235	6
337.2544	6
338.1867	999
