Mass spectrum: Kaempferide; LC-ESI-QTOF; MS2; CE 20 ev; [M-H]-
Name: Kaempferide
Formula: C16H12O6
Exact mass: 300.063388
SMILES: COC1=CC=C(C=C1)C2=C(C(=O)C3=C(C=C(C=C3O2)O)O)O
InChI: InChI=1S/C16H12O6/c1-21-10-4-2-8(3-5-10)16-15(20)14(19)13-11(18)6-9(17)7-12(13)22-16/h2-7,17-18,20H,1H3
Instrument: Agilent 1200 RRLC; Agilent 6520 QTOF
Instrument type: LC-ESI-QTOF
Ms type: MS2
Ion mode: NEGATIVE
Collision energy: 20 ev
Column name: Agilent C8 Cartridge Column 2.1X30mm 3.5 micron (guard); Agilent SB-Aq 2.1x50mm 1.8 micron (analytical)
Retention time: 8.763
Base peak: 284
Precursor m/z: 299.0561
Precursor type: [M-H]-
m/z	relative intensity
107.0129	19
109.911	13
122.004	8
122.9185	5
133.9952	4
136.8007	5
149.9959	15
151.0016	88
151.0363	4
151.959	5
163.0032	7
164.0119	12
173.0057	15
173.0313	4
208.2566	8
211.0454	7
217.0016	34
227.0371	7
228.0434	4
228.1301	4
247.8312	5
255.0372	10
256.0435	13
282.8523	6
283.0189	11
283.0372	7
284.0316	999
284.084	53
284.1024	14
284.1205	10
284.1448	12
284.1865	15
284.2416	8
284.2663	6
284.3424	3
284.3727	8
284.3925	3
284.5398	5
284.585	5
284.6153	4
284.6604	4
284.6891	4
284.7691	4
284.7966	4
284.8265	5
284.9419	4
285.0537	5
285.2382	5
285.4223	5
286.2883	4
299.0556	508
