Mass spectrum: 3,4-Dihydroxy-L-phenylalanine; LC-ESI-QTOF; MS2; CE 10 ev; [M-H]-
Name: 3,4-Dihydroxy-L-phenylalanine
Formula: C9H11NO4
Exact mass: 197.068808
SMILES: C1=CC(=C(C=C1CC(C(=O)O)N)O)O
InChI: InChI=1S/C9H11NO4/c10-6(9(13)14)3-5-1-2-7(11)8(12)4-5/h1-2,4,6,11-12H,3,10H2,(H,13,14)
Instrument: Agilent 1200 RRLC; Agilent 6520 QTOF
Instrument type: LC-ESI-QTOF
Ms type: MS2
Ion mode: NEGATIVE
Collision energy: 10 ev
Column name: Agilent C8 Cartridge Column 2.1X30mm 3.5 micron (guard); Agilent SB-Aq 2.1x50mm 1.8 micron (analytical)
Retention time: 0.388
Base peak: 196
Precursor m/z: 196.0615
Precursor type: [M-H]-
m/z	relative intensity
101.7069	9
107.052	28
108.0464	11
109.0296	166
121.0236	8
122.0371	141
123.0468	20
134.0602	55
134.067	21
135.0442	726
135.0751	31
135.0958	17
152.0717	234
160.8416	72
179.0341	478
179.0737	23
179.1006	9
189.6483	8
195.0467	10
195.8084	131
195.8395	8
196.0237	7
196.061	999
