Mass spectrum: Histidinol; LC-ESI-QTOF; MS2; CE 10 ev; [M-H]-
Name: Histidinol
Formula: C6H11N3O
Exact mass: 141.090212
SMILES: C1=C(NC=N1)CC(CO)N
InChI: InChI=1S/C6H11N3O/c7-5(3-10)1-6-2-8-4-9-6/h2,4-5,10H,1,3,7H2,(H,8,9)
Instrument: Agilent 1200 RRLC; Agilent 6520 QTOF
Instrument type: LC-ESI-QTOF
Ms type: MS2
Ion mode: NEGATIVE
Collision energy: 10 ev
Column name: Agilent C8 Cartridge Column 2.1X30mm 3.5 micron (guard); Agilent SB-Aq 2.1x50mm 1.8 micron (analytical)
Retention time: 0.305
Base peak: 140
Precursor m/z: 140.0829
Precursor type: [M-H]-
m/z	relative intensity
105.0459	74
108.0572	3
121.0392	5
122.0712	7
122.0817	5
122.4072	4
123.0549	95
123.0911	4
138.0667	285
138.1027	12
138.1318	6
138.1484	7
138.1894	4
139.0291	3
139.1089	5
140.0823	999
