Mass spectrum: Epinephrine; LC-ESI-QTOF; MS2; CE 10 ev; [M+H]+
Name: Epinephrine
Formula: C9H13NO3
Exact mass: 183.089543
SMILES: CNCC(C1=CC(=C(C=C1)O)O)O
InChI: InChI=1S/C9H13NO3/c1-10-5-9(13)6-2-3-7(11)8(12)4-6/h2-4,9-13H,5H2,1H3
Instrument: Agilent 1200 RRLC; Agilent 6520 QTOF
Instrument type: LC-ESI-QTOF
Ms type: MS2
Ion mode: POSITIVE
Collision energy: 10 ev
Column name: Agilent C8 Cartridge Column 2.1X30mm 3.5 micron (guard); Agilent SB-Aq 2.1x50mm 1.8 micron (analytical)
Retention time: 0.371
Base peak: 166
Precursor m/z: 184.0968
Precursor type: [M+H]+
m/z	relative intensity
107.0519	129
109.0254	42
120.0793	48
133.0552	43
135.043	140
137.0576	35
148.0767	48
151.0618	85
166.086	999
166.1285	36
166.1439	25
166.1757	19
166.2041	18
181.0678	26
