Mass spectrum: 3',7-Dimethoxy-3-hydroxyflavone; LC-ESI-QTOF; MS2; CE 40 ev; [M-H]-
Name: 3',7-Dimethoxy-3-hydroxyflavone
Formula: C17H14O5
Exact mass: 298.084124
SMILES: COC1=CC2=C(C=C1)C(=O)C(=C(O2)C3=CC(=CC=C3)OC)O
InChI: InChI=1S/C17H14O5/c1-20-11-5-3-4-10(8-11)17-16(19)15(18)13-7-6-12(21-2)9-14(13)22-17/h3-9,19H,1-2H3
Instrument: Agilent 1200 RRLC; Agilent 6520 QTOF
Instrument type: LC-ESI-QTOF
Ms type: MS2
Ion mode: NEGATIVE
Collision energy: 40 ev
Column name: Agilent C8 Cartridge Column 2.1X30mm 3.5 micron (guard); Agilent SB-Aq 2.1x50mm 1.8 micron (analytical)
Retention time: 9.510
Base peak: 211
Precursor m/z: 297.0768
Precursor type: [M-H]-
m/z	relative intensity
103.2939	94
109.683	41
117.6703	66
121.0475	39
150.7217	44
155.8785	60
167.0513	78
168.0572	74
182.0354	158
183.0392	96
195.0439	119
197.0586	101
199.796	64
210.0327	871
210.0569	43
211.0404	999
211.0882	55
218.9278	55
225.0517	349
225.0625	78
225.273	39
238.0245	273
239.0383	90
253.051	96
255.9614	37
