Mass spectrum: Laudanosine; LC-ESI-QTOF; MS2; CE 40 ev; [M+H]+
Name: Laudanosine
Formula: C21H27NO4
Exact mass: 357.194008
SMILES: CN1CCC2=CC(=C(C=C2C1CC3=CC(=C(C=C3)OC)OC)OC)OC
InChI: InChI=1S/C21H27NO4/c1-22-9-8-15-12-20(25-4)21(26-5)13-16(15)17(22)10-14-6-7-18(23-2)19(11-14)24-3/h6-7,11-13,17H,8-10H2,1-5H3
Instrument: Agilent 1200 RRLC; Agilent 6520 QTOF
Instrument type: LC-ESI-QTOF
Ms type: MS2
Ion mode: POSITIVE
Collision energy: 40 ev
Column name: Agilent C8 Cartridge Column 2.1X30mm 3.5 micron (guard); Agilent SB-Aq 2.1x50mm 1.8 micron (analytical)
Retention time: 4.567
Base peak: 151
Precursor m/z: 358.2013
Precursor type: [M+H]+
m/z	relative intensity
105.0709	71
107.0468	167
107.0557	39
108.058	65
115.0546	48
121.0646	95
124.0476	37
127.0515	48
129.0676	49
131.0535	92
133.0662	70
135.0445	97
136.0477	46
143.0501	78
144.0569	82
145.0594	49
145.086	157
145.0967	82
146.0747	78
150.0707	170
151.0744	999
151.094	39
151.1092	53
158.0721	495
159.0434	134
159.0795	90
162.0911	163
163.0807	39
165.0903	100
173.086	65
174.0661	296
174.0928	78
188.0939	34
189.0869	146
190.0846	521
190.0949	39
191.0919	291
192.0931	39
206.116	791
206.1224	94
206.1554	36
226.0925	41
238.0923	58
251.1023	44
266.0945	37
269.1075	39
281.1138	85
284.1337	58
296.1409	49
