Mass spectrum: trans-Zeatin; LC-ESI-QTOF; MS2; CE 20 ev; [M-H]-
Name: trans-Zeatin
Formula: C10H13N5O
Exact mass: 219.11201
SMILES: C/C(=C\CNC1=NC=NC2=C1NC=N2)/CO
InChI: InChI=1S/C10H13N5O/c1-7(4-16)2-3-11-9-8-10(13-5-12-8)15-6-14-9/h2,5-6,16H,3-4H2,1H3,(H2,11,12,13,14,15)/b7-2+
Instrument: Agilent 1200 RRLC; Agilent 6520 QTOF
Instrument type: LC-ESI-QTOF
Ms type: MS2
Ion mode: NEGATIVE
Collision energy: 20 ev
Column name: Agilent C8 Cartridge Column 2.1X30mm 3.5 micron (guard); Agilent SB-Aq 2.1x50mm 1.8 micron (analytical)
Retention time: 3.241
Base peak: 134
Precursor m/z: 218.1047
Precursor type: [M-H]-
m/z	relative intensity
107.0346	85
117.0209	17
118.0318	14
119.035	14
119.0472	8
123.9015	12
124.4101	9
132.0328	86
133.0383	602
133.0717	28
133.1477	9
133.6319	9
134.0462	999
134.081	42
134.1028	18
134.12	10
134.1531	12
144.0348	12
145.051	8
146.0424	29
146.0773	12
158.0448	35
160.0582	22
160.0672	12
160.084	9
173.0821	19
184.0596	20
185.6797	40
186.0854	29
187.0866	31
188.0936	155
188.1284	9
189.0432	8
200.0924	355
200.1365	18
200.4886	8
218.1057	138
