Mass spectrum: Caffeine; LC-ESI-QTOF; MS2; CE 10 ev; [M+H]+
Name: Caffeine
Formula: C8H10N4O2
Exact mass: 194.080376
SMILES: CN1C=NC2=C1C(=O)N(C(=O)N2C)C
InChI: InChI=1S/C8H10N4O2/c1-10-4-9-6-5(10)7(13)12(3)8(14)11(6)2/h4H,1-3H3
Instrument: Agilent 1200 RRLC; Agilent 6520 QTOF
Instrument type: LC-ESI-QTOF
Ms type: MS2
Ion mode: POSITIVE
Collision energy: 10 ev
Column name: Agilent C8 Cartridge Column 2.1X30mm 3.5 micron (guard); Agilent SB-Aq 2.1x50mm 1.8 micron (analytical)
Retention time: 4.122
Base peak: 195
Precursor m/z: 195.0877
Precursor type: [M+H]+
m/z	relative intensity
110.071	38
138.0655	323
138.1057	8
138.1742	5
195.0864	999
