Mass spectrum: L-Tryptophan; LC-ESI-QTOF; MS2; CE 10 ev; [M-H]-
Name: L-Tryptophan
Formula: C11H12N2O2
Exact mass: 204.089878
SMILES: C1=CC=C2C(=C1)C(=CN2)CC(C(=O)O)N
InChI: InChI=1S/C11H12N2O2/c12-9(11(14)15)5-7-6-13-10-4-2-1-3-8(7)10/h1-4,6,9,13H,5,12H2,(H,14,15)
Instrument: Agilent 1200 RRLC; Agilent 6520 QTOF
Instrument type: LC-ESI-QTOF
Ms type: MS2
Ion mode: NEGATIVE
Collision energy: 10 ev
Column name: Agilent C8 Cartridge Column 2.1X30mm 3.5 micron (guard); Agilent SB-Aq 2.1x50mm 1.8 micron (analytical)
Retention time: 1.255
Base peak: 203
Precursor m/z: 203.0826
Precursor type: [M-H]-
m/z	relative intensity
109.2003	14
116.0505	449
116.0803	24
117.0542	6
129.0618	14
130.0639	9
131.0601	10
132.0826	10
142.0652	118
142.0955	8
149.7625	7
159.0921	271
159.1218	9
159.133	8
160.8921	12
186.0509	33
186.0645	17
202.903	8
203.0186	8
203.0824	999
