Mass spectrum: Cyclocytidine; LC-ESI-QTOF; MS2; CE 40 ev; [M+H]+
Name: Cyclocytidine
Formula: C9H11N3O4
Exact mass: 225.074956
SMILES: C1=CN2C3C(C(C(O3)CO)O)OC2=NC1=N
InChI: InChI=1S/C9H11N3O4/c10-5-1-2-12-8-7(16-9(12)11-5)6(14)4(3-13)15-8/h1-2,4,6-8,10,13-14H,3H2
Instrument: Agilent 1200 RRLC; Agilent 6520 QTOF
Instrument type: LC-ESI-QTOF
Ms type: MS2
Ion mode: POSITIVE
Collision energy: 40 ev
Column name: Agilent C8 Cartridge Column 2.1X30mm 3.5 micron (guard); Agilent SB-Aq 2.1x50mm 1.8 micron (analytical)
Retention time: 0.351
Base peak: 107
Precursor m/z: 226.0823
Precursor type: [M+H]+
m/z	relative intensity
104.0354	24
105.045	537
106.0291	50
106.051	120
107.0198	33
107.0266	55
107.0596	999
107.0901	42
108.0437	606
108.0665	22
109.0381	25
110.0268	141
111.0562	47
112.0493	503
117.0434	386
117.0566	31
118.023	45
118.0572	57
119.0416	37
119.0581	334
119.0767	34
120.0439	32
120.0513	109
121.0327	30
121.061	134
122.0347	85
122.0705	99
123.0511	113
133.0329	24
133.0447	123
133.0655	36
135.0163	67
135.0543	773
135.0848	39
136.053	53
148.048	72
149.0538	191
150.0648	174
151.051	98
159.0435	31
160.0498	101
161.0359	230
162.0668	331
178.0588	152
