Mass spectrum: Yohimbinic acid; LC-ESI-QTOF; MS2; CE 40 ev; [M-H]-
Name: Yohimbinic acid
Formula: C20H24N2O3
Exact mass: 340.178693
SMILES: C1CC(C(C2C1CN3CCC4=C(C3C2)NC5=CC=CC=C45)C(=O)O)O
InChI: InChI=1S/C20H24N2O3/c23-17-6-5-11-10-22-8-7-13-12-3-1-2-4-15(12)21-19(13)16(22)9-14(11)18(17)20(24)25/h1-4,11,14,16-18,21,23H,5-10H2,(H,24,25)
Instrument: Agilent 1200 RRLC; Agilent 6520 QTOF
Instrument type: LC-ESI-QTOF
Ms type: MS2
Ion mode: NEGATIVE
Collision energy: 40 ev
Column name: Agilent C8 Cartridge Column 2.1X30mm 3.5 micron (guard); Agilent SB-Aq 2.1x50mm 1.8 micron (analytical)
Retention time: 3.216
Base peak: 277
Precursor m/z: 339.1714
Precursor type: [M-H]-
m/z	relative intensity
109.0675	39
116.0549	74
142.066	246
144.0745	105
144.0824	33
155.0768	201
156.0742	102
156.0842	163
166.0556	42
168.9398	54
169.0764	449
178.0846	60
182.089	67
182.0988	48
183.0973	129
184.1117	36
207.0848	34
211.1232	169
223.1203	113
237.1412	31
239.153	59
264.6776	46
265.1794	31
267.1583	87
275.1511	172
277.1715	999
277.2179	77
291.1572	70
293.167	384
295.1797	449
305.0838	40
321.1684	76
339.1544	36
