Mass spectrum: Tryptophylglycine; LC-ESI-QTOF; MS; NEGATIVE
Name: Tryptophylglycine
Formula: C13H15N3O3
Exact mass: 261.111341
SMILES: C1=CC=C2C(=C1)C(=CN2)CC(C(=O)NCC(=O)O)N
InChI: InChI=1S/C13H15N3O3/c14-10(13(19)16-7-12(17)18)5-8-6-15-11-4-2-1-3-9(8)11/h1-4,6,10,15H,5,7,14H2,(H,16,19)(H,17,18)
Instrument: Agilent 1200 RRLC; Agilent 6520 QTOF
Instrument type: LC-ESI-QTOF
Ms type: MS
Ion mode: NEGATIVE
Column name: Agilent C8 Cartridge Column 2.1X30mm 3.5 micron (guard); Agilent SB-Aq 2.1x50mm 1.8 micron (analytical)
Retention time: 0.412
m/z	relative intensity
260.1040235	999
