Mass spectrum: 3(2'-Chlorophenyl)-7-hydroxy-4-phenylcoumarin; LC-ESI-QTOF; MS2; CE 40 ev; [M-H]-
Name: 3(2'-Chlorophenyl)-7-hydroxy-4-phenylcoumarin
Formula: C21H13ClO3
Exact mass: 348.055322
SMILES: C1=CC=C(C=C1)C2=C(C(=O)OC3=C2C=CC(=C3)O)C4=CC=CC=C4Cl
InChI: InChI=1S/C21H13ClO3/c22-17-9-5-4-8-15(17)20-19(13-6-2-1-3-7-13)16-11-10-14(23)12-18(16)25-21(20)24/h1-12,23H
Instrument: Agilent 1200 RRLC; Agilent 6520 QTOF
Instrument type: LC-ESI-QTOF
Ms type: MS2
Ion mode: NEGATIVE
Collision energy: 40 ev
Column name: Agilent C8 Cartridge Column 2.1X30mm 3.5 micron (guard); Agilent SB-Aq 2.1x50mm 1.8 micron (analytical)
Retention time: 9.299
Base peak: 267
Precursor m/z: 347.0480
Precursor type: [M-H]-
m/z	relative intensity
117.6395	49
130.2938	63
150.9994	237
189.6655	45
193.7892	41
206.2221	41
226.0786	47
239.0923	86
241.0621	111
251.8861	86
254.0686	72
259.5376	70
267.0458	63
267.0822	999
267.1037	53
267.1278	41
267.1451	43
269.0517	90
282.0663	49
283.0747	53
285.0497	61
285.067	84
311.0717	377
311.0969	49
328.8755	90
347.0467	446
