Mass spectrum: Formononetin; LC-ESI-QTOF; MS2; CE 10 ev; [M-H]-
Name: Formononetin
Formula: C16H12O4
Exact mass: 268.073559
SMILES: COC1=CC=C(C=C1)C2=COC3=C(C2=O)C=CC(=C3)O
InChI: InChI=1S/C16H12O4/c1-19-12-5-2-10(3-6-12)14-9-20-15-8-11(17)4-7-13(15)16(14)18/h2-9,17H,1H3
Instrument: Agilent 1200 RRLC; Agilent 6520 QTOF
Instrument type: LC-ESI-QTOF
Ms type: MS2
Ion mode: NEGATIVE
Collision energy: 10 ev
Column name: Agilent C8 Cartridge Column 2.1X30mm 3.5 micron (guard); Agilent SB-Aq 2.1x50mm 1.8 micron (analytical)
Retention time: 7.823
Base peak: 267
Precursor m/z: 267.0663
Precursor type: [M-H]-
m/z	relative intensity
132.0217	6
195.0409	7
206.022	33
223.038	11
252.0421	152
267.066	999
