Mass spectrum: 3,4-Dihydroxy-L-phenylalanine; LC-ESI-QTOF; MS2; CE 20 ev; [M+H]+
Name: 3,4-Dihydroxy-L-phenylalanine
Formula: C9H11NO4
Exact mass: 197.068808
SMILES: C1=CC(=C(C=C1CC(C(=O)O)N)O)O
InChI: InChI=1S/C9H11NO4/c10-6(9(13)14)3-5-1-2-7(11)8(12)4-5/h1-2,4,6,11-12H,3,10H2,(H,13,14)
Instrument: Agilent 1200 RRLC; Agilent 6520 QTOF
Instrument type: LC-ESI-QTOF
Ms type: MS2
Ion mode: POSITIVE
Collision energy: 20 ev
Column name: Agilent C8 Cartridge Column 2.1X30mm 3.5 micron (guard); Agilent SB-Aq 2.1x50mm 1.8 micron (analytical)
Retention time: 0.385
Base peak: 107
Precursor m/z: 198.0761
Precursor type: [M+H]+
m/z	relative intensity
106.0664	152
106.0904	4
106.0975	3
107.0504	999
107.0754	18
107.0826	9
107.0935	8
107.1041	4
107.1185	5
107.1251	2
107.1462	13
107.1923	2
107.2411	2
107.2772	3
107.346	2
107.3796	2
107.5242	2
109.0289	69
109.0618	3
109.0698	3
109.0762	2
111.0457	321
111.0789	9
111.0929	3
111.1421	4
116.051	16
117.0344	27
117.0687	2
119.0514	17
123.0455	25
124.0727	2
125.0586	9
134.0607	194
134.0998	4
134.1158	2
134.1694	2
135.045	753
135.0782	29
135.098	7
135.1132	3
135.1213	6
135.1522	10
135.1803	2
135.2333	2
135.2769	2
135.38	2
135.4126	3
135.6873	2
135.7823	2
137.0279	2
137.0582	5
139.0401	428
139.0718	18
139.1488	5
145.0287	2
152.0711	586
152.106	11
152.1869	6
152.2748	2
152.3013	2
152.3779	2
152.5281	2
152.7511	2
153.0559	3
163.0389	42
163.0822	2
163.6145	2
181.0518	9
