Mass spectrum: Sennoside; LC-ESI-QTOF; MS2; CE 40 ev; [M-H]-
Name: Sennoside
Formula: C42H38O20
Exact mass: 862.195644
SMILES: C1=CC2=C(C(=C1)OC3C(C(C(C(O3)CO)O)O)O)C(=O)C4=C(C2C5C6=C(C(=CC=C6)OC7C(C(C(C(O7)CO)O)O)O)C(=O)C8=C5C=C(C=C8O)C(=O)O)C=C(C=C4O)C(=O)O
InChI: InChI=1S/C42H38O20/c43-11-23-31(47)35(51)37(53)41(61-23)59-21-5-1-3-15-25(17-7-13(39(55)56)9-19(45)27(17)33(49)29(15)21)26-16-4-2-6-22(60-42-38(54)36(52)32(48)24(12-44)62-42)30(16)34(50)28-18(26)8-14(40(57)58)10-20(28)46/h1-10,23-26,31-32,35-38,41-48,51-54H,11-12H2,(H,55,56)(H,57,58)
Instrument: Agilent 1200 RRLC; Agilent 6520 QTOF
Instrument type: LC-ESI-QTOF
Ms type: MS2
Ion mode: NEGATIVE
Collision energy: 40 ev
Column name: Agilent C8 Cartridge Column 2.1X30mm 3.5 micron (guard); Agilent SB-Aq 2.1x50mm 1.8 micron (analytical)
Retention time: 6.351
Base peak: 386
Precursor m/z: 861.1883
Precursor type: [M-H]-
m/z	relative intensity
141.0125	21
141.0418	23
153.8002	25
223.0362	22
224.0448	236
224.0824	19
228.1211	30
252.0294	19
252.049	20
261.8997	20
268.0386	71
269.0442	54
282.0491	23
386.1008	999
386.1377	25
386.2	29
386.7037	20
387.1001	20
431.0807	37
431.1013	49
447.0773	51
448.073	19
449.0951	53
490.0865	18
492.0699	20
492.1035	23
493.0924	34
518.1076	25
536.0631	49
537.0837	72
537.1109	35
593.1419	30
603.8915	18
609.1446	45
610.1532	41
611.1437	61
622.4033	20
637.1347	38
654.1359	108
655.1359	158
655.2195	23
681.1132	24
697.1553	19
698.1135	99
699.1359	362
699.1856	37
699.2221	20
711.1369	24
713.158	21
817.1921	112
817.2459	44
821.6414	40
861.1735	306
