Mass spectrum: N2-Isobutyryl-5'-O-(4,4'-dimethoxytrityl)-2'-deoxyguanosine; LC-ESI-QTOF; MS; POSITIVE
Name: N2-Isobutyryl-5'-O-(4,4'-dimethoxytrityl)-2'-deoxyguanosine
Formula: C35H37N5O7
Exact mass: 639.269299
SMILES: CC(C)C(=O)NC1=NC2=C(C(=O)N1)N=CN2[C@H]3C[C@@H]([C@H](O3)COC(C4=CC=CC=C4)(C5=CC=C(C=C5)OC)C6=CC=C(C=C6)OC)O
InChI: InChI=1S/C35H37N5O7/c1-21(2)32(42)38-34-37-31-30(33(43)39-34)36-20-40(31)29-18-27(41)28(47-29)19-46-35(22-8-6-5-7-9-22,23-10-14-25(44-3)15-11-23)24-12-16-26(45-4)17-13-24/h5-17,20-21,27-29,41H,18-19H2,1-4H3,(H2,37,38,39,42,43)/t27-,28+,29+/m0/s1
Instrument: Agilent 1200 RRLC; Agilent 6520 QTOF
Instrument type: LC-ESI-QTOF
Ms type: MS
Ion mode: POSITIVE
Column name: Agilent C8 Cartridge Column 2.1X30mm 3.5 micron (guard); Agilent SB-Aq 2.1x50mm 1.8 micron (analytical)
Retention time: 10.038
m/z	relative intensity
640.2765765	999
662.258518	485
