Mass spectrum: Nicergoline; LC-ESI-QTOF; MS2; CE 40 ev; [M+H]+
Name: Nicergoline
Formula: C24H26BrN3O3
Exact mass: 483.115754
SMILES: CN1CC(CC2(C1CC3=CN(C4=CC=CC2=C34)C)OC)COC(=O)C5=CC(=CN=C5)Br
InChI: InChI=1S/C24H26BrN3O3/c1-27-13-17-8-21-24(30-3,19-5-4-6-20(27)22(17)19)9-15(12-28(21)2)14-31-23(29)16-7-18(25)11-26-10-16/h4-7,10-11,13,15,21H,8-9,12,14H2,1-3H3
Instrument: Agilent 1200 RRLC; Agilent 6520 QTOF
Instrument type: LC-ESI-QTOF
Ms type: MS2
Ion mode: POSITIVE
Collision energy: 40 ev
Column name: Agilent C8 Cartridge Column 2.1X30mm 3.5 micron (guard); Agilent SB-Aq 2.1x50mm 1.8 micron (analytical)
Retention time: 7.214
Base peak: 251
Precursor m/z: 484.1231
Precursor type: [M+H]+
m/z	relative intensity
144.0775	106
152.063	66
153.0674	90
168.0822	146
170.0947	238
171.9744	56
181.0918	72
182.095	519
183.9378	58
193.0871	77
194.0941	193
195.0834	87
195.1004	77
196.0954	284
201.9494	72
205.0898	196
206.0904	162
207.0968	429
208.1099	437
209.1119	117
209.5796	61
210.1055	58
210.1226	199
211.1218	787
219.0896	66
219.1019	111
220.1083	697
221.1058	755
221.1397	66
222.115	363
223.1234	313
234.1088	159
235.1202	986
236.1305	662
236.1704	56
249.1366	289
249.1488	106
250.1445	103
251.1538	999
253.1339	111
267.146	201
268.1571	347
436.0379	85
436.0647	85
437.0767	289
452.0984	639
