Mass spectrum: Daphnoretine Acetate; LC-ESI-QTOF; MS2; CE 10 ev; [M+CH3COOH-H]-
Name: Daphnoretine Acetate
Formula: C21H14O8
Exact mass: 394.068867
SMILES: CC(=O)OC1=C(C=C2C=C(C(=O)OC2=C1)OC3=CC4=C(C=C3)C=CC(=O)O4)OC
InChI: InChI=1S/C21H14O8/c1-11(22)26-18-10-16-13(7-17(18)25-2)8-19(21(24)29-16)27-14-5-3-12-4-6-20(23)28-15(12)9-14/h3-10H,1-2H3
Instrument: Agilent 1200 RRLC; Agilent 6520 QTOF
Instrument type: LC-ESI-QTOF
Ms type: MS2
Ion mode: NEGATIVE
Collision energy: 10 ev
Column name: Agilent C8 Cartridge Column 2.1X30mm 3.5 micron (guard); Agilent SB-Aq 2.1x50mm 1.8 micron (analytical)
Retention time: 8.123
Base peak: 351
Precursor m/z: 453.0822
Precursor type: [M+CH3COOH-H]-
m/z	relative intensity
117.8435	4
119.9297	2
122.1174	3
140.5	4
163.0082	5
185.8336	4
190.9949	6
251.5014	3
253.9327	3
295.0906	4
323.0506	5
336.033	16
350.4168	2
351.0501	999
351.0947	6
351.1132	22
351.1345	3
351.1661	12
351.2228	10
351.2482	3
351.2728	6
351.327	4
351.3576	2
351.4373	7
351.4623	4
351.488	3
351.5193	3
351.55	6
351.6057	3
351.633	5
351.6805	3
351.7421	5
351.8813	3
351.9469	6
352.0196	4
352.0457	5
352.0876	2
352.1307	3
352.1593	4
352.2681	3
352.3481	2
352.3861	4
352.6003	4
352.82	2
373.6707	3
387.1017	3
401.7068	3
453.1881	2
