Mass spectrum: Achillin; LC-ESI-QTOF; MS; POSITIVE
Name: Achillin
Formula: C15H18O3
Exact mass: 246.125594
SMILES: CC1C2CCC(=C3C(C2OC1=O)C(=CC3=O)C)C
InChI: InChI=1S/C15H18O3/c1-7-4-5-10-9(3)15(17)18-14(10)13-8(2)6-11(16)12(7)13/h6,9-10,13-14H,4-5H2,1-3H3
Instrument: Agilent 1200 RRLC; Agilent 6520 QTOF
Instrument type: LC-ESI-QTOF
Ms type: MS
Ion mode: POSITIVE
Column name: Agilent C8 Cartridge Column 2.1X30mm 3.5 micron (guard); Agilent SB-Aq 2.1x50mm 1.8 micron (analytical)
Retention time: 7.261
m/z	relative intensity
247.1328765	999
269.114818	199
