Mass spectrum: Biochanin A; LC-ESI-QTOF; MS2; CE 10 ev; [M+H]+
Name: Biochanin A
Formula: C16H12O5
Exact mass: 284.068473
SMILES: COC1=CC=C(C=C1)C2=COC3=CC(=CC(=C3C2=O)O)O
InChI: InChI=1S/C16H12O5/c1-20-11-4-2-9(3-5-11)12-8-21-14-7-10(17)6-13(18)15(14)16(12)19/h2-8,17-18H,1H3
Instrument: Agilent 1200 RRLC; Agilent 6520 QTOF
Instrument type: LC-ESI-QTOF
Ms type: MS2
Ion mode: POSITIVE
Collision energy: 10 ev
Column name: Agilent C8 Cartridge Column 2.1X30mm 3.5 micron (guard); Agilent SB-Aq 2.1x50mm 1.8 micron (analytical)
Retention time: 8.401
Base peak: 285
Precursor m/z: 285.0758
Precursor type: [M+H]+
m/z	relative intensity
123.0407	7
124.0115	6
152.0093	11
229.07	7
241.0442	9
253.0508	5
270.0522	17
285.0738	999
