Mass spectrum: Dihydroquercetin; LC-ESI-QTOF; MS2; CE 20 ev; [M-H]-
Name: Dihydroquercetin
Name: 2-(3,4-dihydroxyphenyl)-3,5,7-trihydroxychroman-4-one
Formula: C15H12O7
Exact mass: 304.058303
SMILES: C1=CC(=C(C=C1C2C(C(=O)C3=C(C=C(C=C3O2)O)O)O)O)O
InChI: InChI=1S/C15H12O7/c16-7-4-10(19)12-11(5-7)22-15(14(21)13(12)20)6-1-2-8(17)9(18)3-6/h1-5,14-19,21H
Instrument: Agilent 1200 RRLC; Agilent 6520 QTOF
Instrument type: LC-ESI-QTOF
Ms type: MS2
Ion mode: NEGATIVE
Collision energy: 20 ev
Column name: Agilent C8 Cartridge Column 2.1X30mm 3.5 micron (guard); Agilent SB-Aq 2.1x50mm 1.8 micron (analytical)
Retention time: 4.365
Base peak: 125
Precursor m/z: 303.0510
Precursor type: [M-H]-
m/z	relative intensity
107.0115	18
109.0276	14
109.0313	18
121.0287	29
122.036	12
123.0432	18
123.0503	9
125.0243	999
125.0576	15
125.0659	23
125.1009	9
125.1255	13
125.7053	8
133.0303	15
137.0214	30
145.0683	7
146.0345	10
149.0225	53
150.0303	33
151.0037	118
151.0402	96
152.0101	88
153.0175	146
161.021	28
171.0438	22
173.0282	10
173.0611	14
174.0292	16
175.0391	234
175.0654	9
177.0193	160
177.8714	8
178.9985	91
179.0522	8
180.0056	32
181.0171	34
188.0443	16
189.0578	37
191.0746	10
193.0504	43
197.0652	18
199.0393	121
200.0087	7
201.0213	30
202.0253	9
213.0512	15
216.038	24
217.0486	181
217.0997	9
219.0383	17
231.0597	24
231.0711	10
241.0542	96
242.0138	15
243.0265	24
257.0462	48
259.0576	62
274.0454	25
275.0554	46
285.0408	310
285.0812	12
285.1268	8
303.038	13
