Mass spectrum: Digitoxin; LC-ESI-QTOF; MS2; CE 10 ev; [M+CH3COOH-H]-
Name: Digitoxin
Formula: C41H64O13
Exact mass: 764.434692
SMILES: CC1C(C(CC(O1)OC2C(OC(CC2O)OC3C(OC(CC3O)OC4CCC5(C(C4)CCC6C5CCC7(C6(CCC7C8=CC(=O)OC8)O)C)C)C)C)O)O
InChI: InChI=1S/C41H64O13/c1-20-36(46)29(42)16-34(49-20)53-38-22(3)51-35(18-31(38)44)54-37-21(2)50-33(17-30(37)43)52-25-8-11-39(4)24(15-25)6-7-28-27(39)9-12-40(5)26(10-13-41(28,40)47)23-14-32(45)48-19-23/h14,20-22,24-31,33-38,42-44,46-47H,6-13,15-19H2,1-5H3
Instrument: Agilent 1200 RRLC; Agilent 6520 QTOF
Instrument type: LC-ESI-QTOF
Ms type: MS2
Ion mode: NEGATIVE
Collision energy: 10 ev
Column name: Agilent C8 Cartridge Column 2.1X30mm 3.5 micron (guard); Agilent SB-Aq 2.1x50mm 1.8 micron (analytical)
Retention time: 10.830
Base peak: 823
Precursor m/z: 823.4480
Precursor type: [M+CH3COOH-H]-
m/z	relative intensity
189.0922	1
228.2991	1
393.447	3
397.9505	3
404.3474	3
502.1236	1
503.302	2
530.8402	3
633.3588	5
763.3589	1
763.4235	182
763.5185	8
763.5559	3
763.5992	3
763.6506	4
763.6887	3
763.7848	3
763.9402	14
764.0027	2
764.0683	2
764.1429	2
764.1968	3
764.2677	2
764.3278	2
764.4151	5
764.4814	3
764.5557	2
764.6117	2
764.8197	2
764.8519	2
764.9246	1
764.9594	2
765.0282	2
765.1305	3
765.195	2
765.2852	2
765.4932	2
766.1212	2
793.4261	19
793.5043	2
793.5663	1
793.9164	7
793.9743	2
823.1749	2
823.237	5
823.4461	999
