Mass spectrum: Phloridzin; LC-ESI-QTOF; MS2; CE 10 ev; [M-H]-
Name: Phloridzin
Formula: C21H24O10
Exact mass: 436.136947
SMILES: C1=CC(=CC=C1CCC(=O)C2=C(C=C(C=C2O[C@H]3[C@@H]([C@H]([C@@H]([C@H](O3)CO)O)O)O)O)O)O
InChI: InChI=1S/C21H24O10/c22-9-16-18(27)19(28)20(29)21(31-16)30-15-8-12(24)7-14(26)17(15)13(25)6-3-10-1-4-11(23)5-2-10/h1-2,4-5,7-8,16,18-24,26-29H,3,6,9H2/t16-,18-,19+,20-,21-/m1/s1
Instrument: Agilent 1200 RRLC; Agilent 6520 QTOF
Instrument type: LC-ESI-QTOF
Ms type: MS2
Ion mode: NEGATIVE
Collision energy: 10 ev
Column name: Agilent C8 Cartridge Column 2.1X30mm 3.5 micron (guard); Agilent SB-Aq 2.1x50mm 1.8 micron (analytical)
Retention time: 5.265
Base peak: 273
Precursor m/z: 435.1296
Precursor type: [M-H]-
m/z	relative intensity
119.4928	5
125.0212	8
167.0349	50
273.0756	999
273.1199	19
273.1642	17
273.2236	13
273.4112	8
273.439	6
273.6668	6
297.0705	9
435.1265	211
