Mass spectrum: Scopoletin; LC-ESI-QTOF; MS2; CE 40 ev; [M-H]-
Name: Scopoletin
Formula: C10H8O4
Exact mass: 192.042259
SMILES: COC1=C(C=C2C(=C1)C=CC(=O)O2)O
InChI: InChI=1S/C10H8O4/c1-13-9-4-6-2-3-10(12)14-8(6)5-7(9)11/h2-5,11H,1H3
Instrument: Agilent 1200 RRLC; Agilent 6520 QTOF
Instrument type: LC-ESI-QTOF
Ms type: MS2
Ion mode: NEGATIVE
Collision energy: 40 ev
Column name: Agilent C8 Cartridge Column 2.1X30mm 3.5 micron (guard); Agilent SB-Aq 2.1x50mm 1.8 micron (analytical)
Retention time: 4.630
Base peak: 104
Precursor m/z: 191.0350
Precursor type: [M-H]-
m/z	relative intensity
104.0269	999
104.0583	37
104.1212	19
119.0174	27
120.0144	12
120.0219	289
120.0544	11
148.0144	118
171.8806	15
176.0136	17
176.4056	9
