Mass spectrum: Austricine; LC-ESI-QTOF; MS2; CE 20 ev; [M-H]-
Name: Austricine
Formula: C15H18O4
Exact mass: 262.120509
SMILES: CC1C2C(CC(=C3C(C2OC1=O)C(=CC3=O)C)C)O
InChI: InChI=1S/C15H18O4/c1-6-4-10(17)13-8(3)15(18)19-14(13)12-7(2)5-9(16)11(6)12/h5,8,10,12-14,17H,4H2,1-3H3
Instrument: Agilent 1200 RRLC; Agilent 6520 QTOF
Instrument type: LC-ESI-QTOF
Ms type: MS2
Ion mode: NEGATIVE
Collision energy: 20 ev
Column name: Agilent C8 Cartridge Column 2.1X30mm 3.5 micron (guard); Agilent SB-Aq 2.1x50mm 1.8 micron (analytical)
Retention time: 5.595
Base peak: 199
Precursor m/z: 261.1132
Precursor type: [M-H]-
m/z	relative intensity
101.0048	11
107.0515	47
107.2585	11
114.0497	11
119.0771	9
120.0565	12
121.0632	14
124.8701	11
126.7432	11
131.0794	22
131.0917	10
135.0466	54
135.0816	54
145.0611	19
145.7704	9
147.0808	33
149.8347	17
157.1001	40
158.069	17
158.0896	13
160.0558	25
160.085	20
170.0749	24
173.0573	8
174.9857	9
175.0754	16
175.1127	34
183.0811	248
183.1255	17
184.0888	380
184.1297	11
184.4153	10
187.0961	20
188.0887	11
189.1294	30
194.0759	17
197.0967	281
197.1326	10
199.1119	999
199.1492	25
199.1827	31
199.2435	11
200.1216	16
217.1127	16
224.6822	9
243.1146	13
261.1125	28
