Mass spectrum: Histidylserine; LC-ESI-QTOF; MS2; CE 10 ev; [M+H]+
Name: Histidylserine
Name: 2-(2-amino-3-imidazol-5-ylpropanoylamino)-3-hydroxypropanoic acid
Formula: C9H14N4O4
Exact mass: 242.101505
SMILES: C1=C(NC=N1)CC(C(=O)NC(CO)C(=O)O)N
InChI: InChI=1S/C9H14N4O4/c10-6(1-5-2-11-4-12-5)8(15)13-7(3-14)9(16)17/h2,4,6-7,14H,1,3,10H2,(H,11,12)(H,13,15)(H,16,17)
Instrument: Agilent 1200 RRLC; Agilent 6520 QTOF
Instrument type: LC-ESI-QTOF
Ms type: MS2
Ion mode: POSITIVE
Collision energy: 10 ev
Column name: Agilent C8 Cartridge Column 2.1X30mm 3.5 micron (guard); Agilent SB-Aq 2.1x50mm 1.8 micron (analytical)
Retention time: 0.320
Base peak: 110
Precursor m/z: 243.1088
Precursor type: [M+H]+
m/z	relative intensity
110.0714	999
110.1041	20
110.1206	14
110.141	8
110.1686	19
110.2086	2
110.2441	2
110.2701	2
110.2948	2
110.3706	2
110.3859	3
110.4079	2
110.4477	2
110.4738	2
110.5868	2
110.616	2
116.0283	2
138.066	28
152.0776	11
156.0764	83
156.112	4
164.0824	3
166.0637	4
167.089	5
179.0918	15
180.0752	3
195.086	9
197.1058	15
207.0895	8
208.0705	6
225.0973	213
225.1477	7
225.1706	4
225.1936	2
225.2348	3
226.0811	2
243.1079	127
243.1503	6
243.1789	3
243.2545	2
