Mass spectrum: 5-Methyltryptamine; LC-ESI-QTOF; MS2; CE 10 ev; [M+H]+
Name: 5-Methyltryptamine
Formula: C11H14N2
Exact mass: 174.115698
SMILES: CC1=CC2=C(C=C1)NC=C2CCN
InChI: InChI=1S/C11H14N2/c1-8-2-3-11-10(6-8)9(4-5-12)7-13-11/h2-3,6-7,13H,4-5,12H2,1H3
Instrument: Agilent 1200 RRLC; Agilent 6520 QTOF
Instrument type: LC-ESI-QTOF
Ms type: MS2
Ion mode: POSITIVE
Collision energy: 10 ev
Column name: Agilent C8 Cartridge Column 2.1X30mm 3.5 micron (guard); Agilent SB-Aq 2.1x50mm 1.8 micron (analytical)
Retention time: 2.410
Base peak: 158
Precursor m/z: 175.1230
Precursor type: [M+H]+
m/z	relative intensity
101.0079	7
114.9476	28
115.0513	7
116.0636	5
130.064	7
131.0869	7
132.9567	9
143.073	66
158.0955	999
158.1317	29
158.1492	8
158.1572	7
158.1749	7
158.2108	11
159.095	6
