Mass spectrum: Folic acid; LC-ESI-QTOF; MS2; CE 40 ev; [M-H]-
Name: Folic acid
Name: (2S)-2-[[4-[(2-amino-4-oxo-1H-pteridin-6-yl)methylamino]benzoyl]amino]pentanedioic acid
Name: Vitamin B11
Name: Vitamin B9
Name: Vitamin M
Formula: C19H19N7O6
Exact mass: 441.139681
SMILES: C1=CC(=CC=C1C(=O)N[C@@H](CCC(=O)O)C(=O)O)NCC2=CN=C3C(=N2)C(=O)NC(=N3)N
InChI: InChI=1S/C19H19N7O6/c20-19-25-15-14(17(30)26-19)23-11(8-22-15)7-21-10-3-1-9(2-4-10)16(29)24-12(18(31)32)5-6-13(27)28/h1-4,8,12,21H,5-7H2,(H,24,29)(H,27,28)(H,31,32)(H3,20,22,25,26,30)/t12-/m0/s1
Instrument: Agilent 1200 RRLC; Agilent 6520 QTOF
Instrument type: LC-ESI-QTOF
Ms type: MS2
Ion mode: NEGATIVE
Collision energy: 40 ev
Column name: Agilent C8 Cartridge Column 2.1X30mm 3.5 micron (guard); Agilent SB-Aq 2.1x50mm 1.8 micron (analytical)
Retention time: 3.998
Base peak: 175
Precursor m/z: 440.1324
Precursor type: [M-H]-
m/z	relative intensity
102.0533	67
104.0229	19
119.0386	45
128.0344	134
131.0328	22
132.0434	707
133.0268	28
133.0465	42
135.0578	87
136.0375	191
136.045	33
146.0457	49
147.0506	49
148.0659	45
149.0304	25
149.086	20
157.0392	23
159.0916	25
161.0259	29
161.0719	24
162.0412	152
174.0424	105
175.0477	999
175.0719	25
175.0941	76
175.1109	20
175.1738	19
175.5728	19
176.0588	72
177.1015	135
177.1215	25
198.065	21
203.0817	113
205.4107	34
219.6079	18
221.0938	116
224.0932	38
265.078	41
266.0936	20
267.0919	33
267.1171	32
268.0816	54
268.1048	20
274.0566	21
282.0893	18
293.0621	31
293.0788	54
298.2027	26
308.1121	19
309.1382	40
310.11	18
311.0896	191
326.1163	18
335.1302	66
336.1401	18
352.1607	40
353.1367	98
378.125	91
378.1623	20
396.1343	132
396.1677	19
414.5283	18
438.5249	21
