Mass spectrum: trans-Zeatin; LC-ESI-QTOF; MS2; CE 40 ev; [M-H]-
Name: trans-Zeatin
Formula: C10H13N5O
Exact mass: 219.11201
SMILES: C/C(=C\CNC1=NC=NC2=C1NC=N2)/CO
InChI: InChI=1S/C10H13N5O/c1-7(4-16)2-3-11-9-8-10(13-5-12-8)15-6-14-9/h2,5-6,16H,3-4H2,1H3,(H2,11,12,13,14,15)/b7-2+
Instrument: Agilent 1200 RRLC; Agilent 6520 QTOF
Instrument type: LC-ESI-QTOF
Ms type: MS2
Ion mode: NEGATIVE
Collision energy: 40 ev
Column name: Agilent C8 Cartridge Column 2.1X30mm 3.5 micron (guard); Agilent SB-Aq 2.1x50mm 1.8 micron (analytical)
Retention time: 3.241
Base peak: 132
Precursor m/z: 218.1047
Precursor type: [M-H]-
m/z	relative intensity
105.0204	54
106.0286	321
107.0362	406
111.4156	21
117.0218	304
118.0279	46
119.0375	102
124.8583	20
130.0319	16
132.031	999
132.0712	24
133.0395	603
133.0714	21
134.0455	439
144.037	41
146.0517	80
147.5352	16
158.0066	25
158.0465	66
174.1394	21
184.0642	16
186.0776	80
