Mass spectrum: 7-Hydroxy-3'-methoxyflavone; LC-ESI-QTOF; MS2; CE 10 ev; [M+H]+
Name: 7-Hydroxy-3'-methoxyflavone
Formula: C16H12O4
Exact mass: 268.073559
SMILES: COC1=CC=CC(=C1)C2=CC(=O)C3=C(O2)C=C(C=C3)O
InChI: InChI=1S/C16H12O4/c1-19-12-4-2-3-10(7-12)15-9-14(18)13-6-5-11(17)8-16(13)20-15/h2-9,17H,1H3
Instrument: Agilent 1200 RRLC; Agilent 6520 QTOF
Instrument type: LC-ESI-QTOF
Ms type: MS2
Ion mode: POSITIVE
Collision energy: 10 ev
Column name: Agilent C8 Cartridge Column 2.1X30mm 3.5 micron (guard); Agilent SB-Aq 2.1x50mm 1.8 micron (analytical)
Retention time: 8.603
Base peak: 269
Precursor m/z: 269.0809
Precursor type: [M+H]+
m/z	relative intensity
104.9947	14
116.0273	6
137.0222	5
226.0603	43
254.0552	7
254.0638	13
269.0799	999
269.1287	37
269.1594	11
269.1885	9
269.2306	10
269.6118	6
