Mass spectrum: Colchicine; LC-ESI-QTOF; MS2; CE 20 ev; [M+H]+
Name: Colchicine
Formula: C22H25NO6
Exact mass: 399.168188
SMILES: CC(=O)NC1CCC2=CC(=C(C(=C2C3=CC=C(C(=O)C=C13)OC)OC)OC)OC
InChI: InChI=1S/C22H25NO6/c1-12(24)23-16-8-6-13-10-19(27-3)21(28-4)22(29-5)20(13)14-7-9-18(26-2)17(25)11-15(14)16/h7,9-11,16H,6,8H2,1-5H3,(H,23,24)
Instrument: Agilent 1200 RRLC; Agilent 6520 QTOF
Instrument type: LC-ESI-QTOF
Ms type: MS2
Ion mode: POSITIVE
Collision energy: 20 ev
Column name: Agilent C8 Cartridge Column 2.1X30mm 3.5 micron (guard); Agilent SB-Aq 2.1x50mm 1.8 micron (analytical)
Retention time: 7.217
Base peak: 400
Precursor m/z: 400.1755
Precursor type: [M+H]+
m/z	relative intensity
138.0489	8
160.05	9
181.0589	8
190.0805	7
203.0963	8
206.0746	8
219.0932	7
219.112	12
222.1042	13
226.0977	11
234.1063	12
235.0716	10
239.0994	8
242.0887	12
247.122	9
250.0952	20
251.0736	9
251.1095	11
262.0502	9
263.1152	8
265.0937	27
266.094	24
266.1149	25
267.0903	17
267.1034	14
268.106	18
270.0827	12
271.0985	9
273.1194	7
277.1156	14
278.0959	27
279.0627	9
279.1003	16
280.0825	10
281.1157	46
282.1233	129
282.1625	8
283.0923	10
283.1131	9
283.1312	16
284.1064	16
284.1267	13
285.1112	44
285.1396	13
286.1112	8
287.0801	19
292.0964	26
292.1209	12
294.0873	20
294.1056	7
295.0798	11
295.1048	44
295.1293	10
296.0928	17
297.123	11
298.1371	61
299.1237	16
300.0683	8
300.1	9
300.1182	10
302.1104	21
302.1399	7
308.1145	38
308.1622	9
309.1091	69
310.1177	190
310.1644	13
310.1759	8
311.0996	43
311.1241	14
312.1397	12
313.1036	28
313.1244	22
313.1386	38
315.1266	7
315.1387	15
316.1459	48
323.1512	10
324.1062	7
325.131	32
326.119	43
326.1367	137
326.1689	14
327.129	9
328.1145	8
329.1343	19
330.1354	16
330.1563	17
339.1434	19
340.149	78
341.138	184
341.19	10
342.135	17
343.1389	35
350.1276	15
350.1558	8
352.1144	20
354.1778	7
357.1468	9
358.163	347
358.2223	17
358.2566	11
367.1364	32
368.1486	37
382.1608	137
382.207	10
385.1331	9
400.1724	999
