Mass spectrum: Homoharringtonine; LC-ESI-QTOF; MS2; CE 20 ev; [M+H]+
Name: Homoharringtonine
Formula: C29H39NO9
Exact mass: 545.262482
SMILES: CC(C)(CCCC(CC(=O)OC)(C(=O)OC1C2C3=CC4=C(C=C3CCN5C2(CCC5)C=C1OC)OCO4)O)O
InChI: InChI=1S/C29H39NO9/c1-27(2,33)8-5-10-29(34,16-23(31)36-4)26(32)39-25-22(35-3)15-28-9-6-11-30(28)12-7-18-13-20-21(38-17-37-20)14-19(18)24(25)28/h13-15,24-25,33-34H,5-12,16-17H2,1-4H3
Instrument: Agilent 1200 RRLC; Agilent 6520 QTOF
Instrument type: LC-ESI-QTOF
Ms type: MS2
Ion mode: POSITIVE
Collision energy: 20 ev
Column name: Agilent C8 Cartridge Column 2.1X30mm 3.5 micron (guard); Agilent SB-Aq 2.1x50mm 1.8 micron (analytical)
Retention time: 4.743
Base peak: 546
Precursor m/z: 546.2698
Precursor type: [M+H]+
m/z	relative intensity
120.0751	7
126.0886	14
126.0985	6
150.0894	25
176.0635	12
215.0678	7
226.0816	26
227.0937	29
229.0807	8
240.0998	17
251.1047	27
253.0854	7
255.1042	14
266.113	45
267.1223	7
268.1339	8
269.1223	19
281.1092	7
283.118	9
284.1271	33
298.1416	740
298.1883	17
298.2187	16
298.264	12
298.305	11
316.1512	44
472.2272	8
546.267	999
