Mass spectrum: Chrysin; LC-ESI-QTOF; MS2; CE 10 ev; [M-H]-
Name: Chrysin
Formula: C15H10O4
Exact mass: 254.057909
SMILES: C1=CC=C(C=C1)C2=CC(=O)C3=C(C=C(C=C3O2)O)O
InChI: InChI=1S/C15H10O4/c16-10-6-11(17)15-12(18)8-13(19-14(15)7-10)9-4-2-1-3-5-9/h1-8,16-17H
Instrument: Agilent 1200 RRLC; Agilent 6520 QTOF
Instrument type: LC-ESI-QTOF
Ms type: MS2
Ion mode: NEGATIVE
Collision energy: 10 ev
Column name: Agilent C8 Cartridge Column 2.1X30mm 3.5 micron (guard); Agilent SB-Aq 2.1x50mm 1.8 micron (analytical)
Retention time: 8.643
Base peak: 253
Precursor m/z: 253.0506
Precursor type: [M-H]-
m/z	relative intensity
101.0388	1
107.0151	2
115.0566	1
117.0343	0
118.4439	0
119.0483	0
121.0294	1
131.7029	0
133.2249	1
134.9792	1
139.0566	0
140.2202	0
141.2373	1
143.0485	5
145.0277	3
151.0022	1
152.0618	0
153.0699	1
155.0517	0
165.0715	1
167.0501	1
171.0924	0
171.8888	0
176.6389	0
180.0562	1
181.0775	1
183.0438	1
185.0559	1
187.045	1
197.0604	0
208.0581	0
209.0617	5
209.1234	1
211.0393	1
251.0912	0
252.693	0
252.9669	1
253.0501	999
