Mass spectrum: {3,4,5-triacetyloxy-6-[3-(4-methoxyphenyl)-4-oxochromen-6-yloxy]-2H-3,4,5,6-te trahydropyran-2-yl}methyl acetate; LC-APCI-QTOF; MS; POSITIVE
Name: {3,4,5-triacetyloxy-6-[3-(4-methoxyphenyl)-4-oxochromen-6-yloxy]-2H-3,4,5,6-te trahydropyran-2-yl}methyl acetate
Formula: C30H30O13
Exact mass: 598.168641
SMILES: CC(=O)OCC1C(C(C(C(O1)OC2=CC3=C(C=C2)OC=C(C3=O)C4=CC=C(C=C4)OC)OC(=O)C)OC(=O)C)OC(=O)C
InChI: InChI=1S/C30H30O13/c1-15(31)37-14-25-27(39-16(2)32)28(40-17(3)33)29(41-18(4)34)30(43-25)42-21-10-11-24-22(12-21)26(35)23(13-38-24)19-6-8-20(36-5)9-7-19/h6-13,25,27-30H,14H2,1-5H3
Instrument: Agilent 1200 RRLC; Agilent 6520 QTOF
Instrument type: LC-APCI-QTOF
Ms type: MS
Ion mode: POSITIVE
Column name: Agilent C8 Cartridge Column 2.1X30mm 3.5 micron (guard); Agilent SB-Aq 2.1x50mm 1.8 micron (analytical)
Retention time: 10.016
m/z	relative intensity
599.1758765	999
