Mass spectrum: Limocitrin; LC-ESI-QTOF; MS2; CE 10 ev; [M-H]-
Name: Limocitrin
Formula: C17H14O8
Exact mass: 346.068867
SMILES: COC1=C(C=CC(=C1)C2=C(C(=O)C3=C(O2)C(=C(C=C3O)O)OC)O)O
InChI: InChI=1S/C17H14O8/c1-23-11-5-7(3-4-8(11)18)15-14(22)13(21)12-9(19)6-10(20)16(24-2)17(12)25-15/h3-6,18-20,22H,1-2H3
Instrument: Agilent 1200 RRLC; Agilent 6520 QTOF
Instrument type: LC-ESI-QTOF
Ms type: MS2
Ion mode: NEGATIVE
Collision energy: 10 ev
Column name: Agilent C8 Cartridge Column 2.1X30mm 3.5 micron (guard); Agilent SB-Aq 2.1x50mm 1.8 micron (analytical)
Retention time: 7.905
Base peak: 345
Precursor m/z: 345.0616
Precursor type: [M-H]-
m/z	relative intensity
104.5206	14
109.0272	8
144.0999	7
149.0203	10
151.5803	10
167.0352	6
175.0019	5
195.9089	5
205.9959	4
213.5641	7
217.0207	9
239.9181	5
243.0247	6
285.0265	6
285.044	7
286.0207	4
315.009	22
329.0219	19
330.037	431
330.0883	28
330.1104	20
330.1983	5
330.4757	9
330.973	4
344.0515	15
345.0605	999
