Mass spectrum: phenyl(1,2,9,10-tetramethoxy-6-methyl-5,6-dihydro-4H-dibenzo[de,g]quinolin-7-yl)methanone; LC-ESI-QTOF; MS2; CE 40 ev; [M+H]+
Name: phenyl(1,2,9,10-tetramethoxy-6-methyl-5,6-dihydro-4H-dibenzo[de,g]quinolin-7-yl)methanone
Formula: C28H27NO5
Exact mass: 457.188923
SMILES: CN1CCC2=CC(=C(C3=C2C1=C(C4=CC(=C(C=C43)OC)OC)C(=O)C5=CC=CC=C5)OC)OC
InChI: InChI=1S/C28H27NO5/c1-29-12-11-17-13-22(33-4)28(34-5)24-18-14-20(31-2)21(32-3)15-19(18)25(26(29)23(17)24)27(30)16-9-7-6-8-10-16/h6-10,13-15H,11-12H2,1-5H3
Instrument: Agilent 1200 RRLC; Agilent 6520 QTOF
Instrument type: LC-ESI-QTOF
Ms type: MS2
Ion mode: POSITIVE
Collision energy: 40 ev
Column name: Agilent C8 Cartridge Column 2.1X30mm 3.5 micron (guard); Agilent SB-Aq 2.1x50mm 1.8 micron (analytical)
Retention time: 10.537
Base peak: 428
Precursor m/z: 458.1962
Precursor type: [M+H]+
m/z	relative intensity
105.0329	611
252.0969	58
263.0868	70
264.0999	84
265.0912	125
265.112	77
266.0728	104
266.1282	48
279.0886	121
279.1219	68
280.0937	253
281.0961	111
291.0867	60
292.094	123
293.1021	316
293.1432	58
294.1067	159
295.1195	258
296.1157	75
306.1124	65
307.1094	89
307.1313	130
308.0886	425
309.1	111
320.1043	70
321.0971	135
322.1056	306
323.1082	335
324.1163	355
334.1136	142
336.1171	169
337.0942	123
338.1369	541
338.1906	51
339.1417	48
349.1306	56
350.1001	89
351.106	92
352.115	579
352.153	135
353.1494	82
354.137	75
356.1255	58
364.1356	87
365.1396	87
366.1019	58
366.1436	374
366.1709	48
367.1425	268
368.1185	65
368.1463	53
370.0984	56
378.1007	56
380.1381	65
382.1053	60
382.1372	70
383.1302	97
384.1287	147
385.1294	101
394.1431	430
395.1393	263
396.1161	51
396.1471	176
397.163	53
398.1379	70
399.1417	212
400.1448	80
409.1667	282
410.1405	200
410.1602	195
410.1887	104
411.1346	63
411.1595	80
412.1175	104
413.1102	84
414.1676	84
425.1512	51
426.1299	123
426.1585	70
427.1299	75
428.1455	999
428.2151	65
442.1643	208
443.1705	181
