Mass spectrum: 5-Ethyl-2'-deoxyuridine; LC-ESI-QTOF; MS2; CE 10 ev; [M+H]+
Name: 5-Ethyl-2'-deoxyuridine
Formula: C11H16N2O5
Exact mass: 256.105922
SMILES: CCC1=CN(C(=O)NC1=O)C2CC(C(O2)CO)O
InChI: InChI=1S/C11H16N2O5/c1-2-6-4-13(11(17)12-10(6)16)9-3-7(15)8(5-14)18-9/h4,7-9,14-15H,2-3,5H2,1H3,(H,12,16,17)
Instrument: Agilent 1200 RRLC; Agilent 6520 QTOF
Instrument type: LC-ESI-QTOF
Ms type: MS2
Ion mode: POSITIVE
Collision energy: 10 ev
Column name: Agilent C8 Cartridge Column 2.1X30mm 3.5 micron (guard); Agilent SB-Aq 2.1x50mm 1.8 micron (analytical)
Retention time: 2.438
Base peak: 141
Precursor m/z: 257.1132
Precursor type: [M+H]+
m/z	relative intensity
124.0444	42
141.0646	999
