Mass spectrum: 4'-Hydroxy-5,7-dimethoxyflavanone; LC-ESI-QTOF; MS2; CE 40 ev; [M-H]-
Name: 4'-Hydroxy-5,7-dimethoxyflavanone
Formula: C17H16O5
Exact mass: 300.099774
SMILES: COC1=CC(=C2C(=O)CC(OC2=C1)C3=CC=C(C=C3)O)OC
InChI: InChI=1S/C17H16O5/c1-20-12-7-15(21-2)17-13(19)9-14(22-16(17)8-12)10-3-5-11(18)6-4-10/h3-8,14,18H,9H2,1-2H3
Instrument: Agilent 1200 RRLC; Agilent 6520 QTOF
Instrument type: LC-ESI-QTOF
Ms type: MS2
Ion mode: NEGATIVE
Collision energy: 40 ev
Column name: Agilent C8 Cartridge Column 2.1X30mm 3.5 micron (guard); Agilent SB-Aq 2.1x50mm 1.8 micron (analytical)
Retention time: 7.515
Base peak: 119
Precursor m/z: 299.0925
Precursor type: [M-H]-
m/z	relative intensity
104.0247	1
104.5361	0
108.0235	1
117.035	7
117.0551	1
118.8546	1
118.9484	1
119.0497	999
119.0811	29
119.0983	18
119.1236	9
119.1508	17
119.1791	4
119.2318	3
119.2561	2
119.2783	3
119.3052	2
119.3348	2
119.3504	1
119.3805	2
119.3884	1
119.4158	1
119.4372	1
119.4572	1
119.4871	2
119.5099	1
119.5469	1
119.5625	2
119.5811	1
119.5951	1
119.6184	1
119.6308	0
119.6383	1
119.6545	1
119.6738	1
119.6858	1
119.7007	1
119.7073	1
119.7236	1
119.7405	1
119.7887	1
119.8156	1
119.822	1
119.8669	1
119.8914	1
119.9295	1
119.9502	1
119.9674	1
120.0228	1
120.0398	1
120.0469	1
120.0562	2
120.084	1
120.1321	1
120.1442	1
120.1682	1
120.2151	1
120.2279	0
120.2803	1
120.2986	1
120.5096	1
120.5676	1
120.6142	0
120.8882	0
121.0282	4
121.881	1
138.03	1
141.9619	1
145.0318	1
147.0413	1
149.0229	6
149.0416	1
165.0216	2
173.7805	1
176.0136	1
223.0409	1
225.0466	1
228.2048	1
241.0463	1
268.0369	2
269.0467	1
284.0631	0
297.6477	0
