Mass spectrum: 12-(3-Hydroxyethyl)-cytisine; LC-APCI-QTOF; MS; POSITIVE
Name: 12-(3-Hydroxyethyl)-cytisine
Formula: C13H18N2O2
Exact mass: 234.136828
SMILES: C1C2CN(CC1C3=CC=CC(=O)N3C2)CCO
InChI: InChI=1S/C13H18N2O2/c16-5-4-14-7-10-6-11(9-14)12-2-1-3-13(17)15(12)8-10/h1-3,10-11,16H,4-9H2
Instrument: Agilent 1200 RRLC; Agilent 6520 QTOF
Instrument type: LC-APCI-QTOF
Ms type: MS
Ion mode: POSITIVE
Column name: Agilent C8 Cartridge Column 2.1X30mm 3.5 micron (guard); Agilent SB-Aq 2.1x50mm 1.8 micron (analytical)
Retention time: 0.395
m/z	relative intensity
235.1440765	999
