Mass spectrum: Isosafrole; LC-APCI-QTOF; MS; POSITIVE
Name: Isosafrole
Formula: C10H10O2
Exact mass: 162.06808
SMILES: CC=CC1=CC2=C(C=C1)OCO2
InChI: InChI=1S/C10H10O2/c1-2-3-8-4-5-9-10(6-8)12-7-11-9/h2-6H,7H2,1H3
Instrument: Agilent 1200 RRLC; Agilent 6520 QTOF
Instrument type: LC-APCI-QTOF
Ms type: MS
Ion mode: POSITIVE
Column name: Agilent C8 Cartridge Column 2.1X30mm 3.5 micron (guard); Agilent SB-Aq 2.1x50mm 1.8 micron (analytical)
Retention time: 8.053
m/z	relative intensity
163.0753765	999
