Mass spectrum: N-methylcorydaldine; LC-ESI-QTOF; MS2; CE 40 ev; [M+H]+
Name: N-methylcorydaldine
Formula: C12H15NO3
Exact mass: 221.105193
SMILES: CN1CCC2=CC(=C(C=C2C1=O)OC)OC
InChI: InChI=1S/C12H15NO3/c1-13-5-4-8-6-10(15-2)11(16-3)7-9(8)12(13)14/h6-7H,4-5H2,1-3H3
Instrument: Agilent 1200 RRLC; Agilent 6520 QTOF
Instrument type: LC-ESI-QTOF
Ms type: MS2
Ion mode: POSITIVE
Collision energy: 40 ev
Column name: Agilent C8 Cartridge Column 2.1X30mm 3.5 micron (guard); Agilent SB-Aq 2.1x50mm 1.8 micron (analytical)
Retention time: 5.830
Base peak: 135
Precursor m/z: 222.1125
Precursor type: [M+H]+
m/z	relative intensity
102.045	249
103.054	889
103.0819	45
104.0626	299
105.0316	105
105.0671	475
105.0757	137
107.0491	707
117.0294	64
118.0431	314
118.0634	51
119.0491	776
120.0568	430
121.0296	54
121.0642	720
122.069	47
123.0457	47
130.064	73
131.0474	243
132.057	64
132.079	86
133.0258	95
133.0646	196
134.0703	453
135.0438	999
135.0794	47
147.0444	39
148.0477	52
148.0731	251
149.0586	266
149.0791	39
150.0656	423
160.0741	82
163.0449	52
165.0934	107
186.0533	37
188.0671	71
206.088	37
