Mass spectrum: Daphnoretine Acetate; LC-ESI-QTOF; MS2; CE 20 ev; [M+CH3COOH-H]-
Name: Daphnoretine Acetate
Formula: C21H14O8
Exact mass: 394.068867
SMILES: CC(=O)OC1=C(C=C2C=C(C(=O)OC2=C1)OC3=CC4=C(C=C3)C=CC(=O)O4)OC
InChI: InChI=1S/C21H14O8/c1-11(22)26-18-10-16-13(7-17(18)25-2)8-19(21(24)29-16)27-14-5-3-12-4-6-20(23)28-15(12)9-14/h3-10H,1-2H3
Instrument: Agilent 1200 RRLC; Agilent 6520 QTOF
Instrument type: LC-ESI-QTOF
Ms type: MS2
Ion mode: NEGATIVE
Collision energy: 20 ev
Column name: Agilent C8 Cartridge Column 2.1X30mm 3.5 micron (guard); Agilent SB-Aq 2.1x50mm 1.8 micron (analytical)
Retention time: 8.123
Base peak: 351
Precursor m/z: 453.0822
Precursor type: [M+CH3COOH-H]-
m/z	relative intensity
123.1986	8
147.584	14
163.0015	18
183.9298	9
190.9975	45
201.9489	10
206.0287	8
242.012	7
279.0639	7
295.056	9
308.0364	19
323.0595	8
336.0239	248
336.0453	10
336.0798	18
350.9929	7
351.05	999
351.1139	24
351.1466	23
351.187	9
351.2259	14
351.3619	7
351.4878	9
351.5208	7
351.5548	7
351.5874	7
351.6284	6
351.6936	8
351.8518	6
351.926	9
351.9878	8
352.0398	6
364.5261	7
