Mass spectrum: N4-Anisoyl-2'-deoxycytidine; LC-ESI-QTOF; MS2; CE 20 ev; [M-H]-
Name: N4-Anisoyl-2'-deoxycytidine
Formula: C17H19N3O6
Exact mass: 361.127385
SMILES: COC1=CC=C(C=C1)C(=O)NC2=NC(=O)N(C=C2)C3C[C@H]([C@@H](O3)CO)O
InChI: InChI=1S/C17H19N3O6/c1-25-11-4-2-10(3-5-11)16(23)18-14-6-7-20(17(24)19-14)15-8-12(22)13(9-21)26-15/h2-7,12-13,15,21-22H,8-9H2,1H3,(H,18,19,23,24)/t12-,13+,15?/m1/s1
Instrument: Agilent 1200 RRLC; Agilent 6520 QTOF
Instrument type: LC-ESI-QTOF
Ms type: MS2
Ion mode: NEGATIVE
Collision energy: 20 ev
Column name: Agilent C8 Cartridge Column 2.1X30mm 3.5 micron (guard); Agilent SB-Aq 2.1x50mm 1.8 micron (analytical)
Retention time: 5.844
Base peak: 317
Precursor m/z: 360.1201
Precursor type: [M-H]-
m/z	relative intensity
107.0488	4
135.0591	3
142.2275	6
150.0545	13
151.0361	4
151.0425	5
177.0863	5
191.2445	4
199.0494	6
201.0672	13
203.074	5
211.0511	11
212.055	10
227.082	296
227.1077	3
227.1282	10
227.2246	5
244.0718	21
257.0909	5
269.0911	8
269.6387	4
270.0901	4
299.1036	6
317.1141	999
317.1691	54
317.2047	15
317.2407	7
317.2762	13
317.3394	6
317.3888	5
317.4294	4
317.5027	6
317.5304	3
317.6132	5
317.6881	4
317.8221	6
317.8492	3
317.9179	4
317.9914	4
318.0218	4
318.0571	4
360.1217	61
