Mass spectrum: 7-Hydroxy-3'-methoxyflavone; LC-ESI-QTOF; MS2; CE 20 ev; [M-H]-
Name: 7-Hydroxy-3'-methoxyflavone
Formula: C16H12O4
Exact mass: 268.073559
SMILES: COC1=CC=CC(=C1)C2=CC(=O)C3=C(O2)C=C(C=C3)O
InChI: InChI=1S/C16H12O4/c1-19-12-4-2-3-10(7-12)15-9-14(18)13-6-5-11(17)8-16(13)20-15/h2-9,17H,1H3
Instrument: Agilent 1200 RRLC; Agilent 6520 QTOF
Instrument type: LC-ESI-QTOF
Ms type: MS2
Ion mode: NEGATIVE
Collision energy: 20 ev
Column name: Agilent C8 Cartridge Column 2.1X30mm 3.5 micron (guard); Agilent SB-Aq 2.1x50mm 1.8 micron (analytical)
Retention time: 8.607
Base peak: 252
Precursor m/z: 267.0663
Precursor type: [M-H]-
m/z	relative intensity
135.0074	6
135.0146	6
145.9525	2
167.0459	6
167.0731	4
173.9444	4
195.0411	32
195.0731	3
196.0484	3
224.0459	231
224.0927	9
224.1324	3
224.1855	3
224.2353	2
224.3312	3
224.565	3
225.6597	3
226.4104	6
251.9629	4
252.042	999
252.0901	8
252.1471	13
252.1862	11
252.2708	6
252.3219	4
252.3604	4
252.4209	5
252.457	4
252.5266	2
252.5714	3
252.6046	5
252.6903	3
252.7363	5
252.7823	2
252.9205	3
252.9534	3
253.057	5
253.122	2
253.2036	3
253.2963	3
253.4631	3
253.7802	3
255.6434	3
267.0662	864
