Mass spectrum: Kinetin; LC-ESI-QTOF; MS2; CE 20 ev; [M+H]+
Name: Kinetin
Formula: C10H9N5O
Exact mass: 215.08071
SMILES: C1=COC(=C1)CNC2=NC=NC3=C2NC=N3
InChI: InChI=1S/C10H9N5O/c1-2-7(16-3-1)4-11-9-8-10(13-5-12-8)15-6-14-9/h1-3,5-6H,4H2,(H2,11,12,13,14,15)
Instrument: Agilent 1200 RRLC; Agilent 6520 QTOF
Instrument type: LC-ESI-QTOF
Ms type: MS2
Ion mode: POSITIVE
Collision energy: 20 ev
Column name: Agilent C8 Cartridge Column 2.1X30mm 3.5 micron (guard); Agilent SB-Aq 2.1x50mm 1.8 micron (analytical)
Retention time: 4.405
Base peak: 148
Precursor m/z: 216.0880
Precursor type: [M+H]+
m/z	relative intensity
109.0512	8
119.0348	63
121.0508	42
134.0703	7
135.0662	27
136.0615	202
146.0569	6
147.0633	7
148.0609	999
148.0935	28
148.1039	8
148.111	9
148.1233	5
148.1431	7
148.1732	15
160.0605	6
161.083	21
162.0786	11
171.0662	42
172.061	11
173.0687	127
186.0746	5
188.0914	223
188.1291	9
198.0738	22
199.062	5
216.0865	128
