Mass spectrum: Jasmonic acid; LC-ESI-QTOF; MS; POSITIVE
Name: Jasmonic acid
Formula: C12H18O3
Exact mass: 210.125594
SMILES: CCC=CCC1C(CCC1=O)CC(=O)O
InChI: InChI=1S/C12H18O3/c1-2-3-4-5-10-9(8-12(14)15)6-7-11(10)13/h3-4,9-10H,2,5-8H2,1H3,(H,14,15)
Instrument: Agilent 1200 RRLC; Agilent 6520 QTOF
Instrument type: LC-ESI-QTOF
Ms type: MS
Ion mode: POSITIVE
Column name: Agilent C8 Cartridge Column 2.1X30mm 3.5 micron (guard); Agilent SB-Aq 2.1x50mm 1.8 micron (analytical)
Retention time: 6.707
m/z	relative intensity
211.1328765	999
233.114818	688
