Mass spectrum: Epinephrine; LC-APCI-QTOF; MS; NEGATIVE
Name: Epinephrine
Formula: C9H13NO3
Exact mass: 183.089543
SMILES: CNCC(C1=CC(=C(C=C1)O)O)O
InChI: InChI=1S/C9H13NO3/c1-10-5-9(13)6-2-3-7(11)8(12)4-6/h2-4,9-13H,5H2,1H3
Instrument: Agilent 1200 RRLC; Agilent 6520 QTOF
Instrument type: LC-APCI-QTOF
Ms type: MS
Ion mode: NEGATIVE
Column name: Agilent C8 Cartridge Column 2.1X30mm 3.5 micron (guard); Agilent SB-Aq 2.1x50mm 1.8 micron (analytical)
Retention time: 0.390
m/z	relative intensity
182.0822235	999
