Mass spectrum: 3-Hydroxy-3',4',5'-trimethoxyflavone; LC-ESI-QTOF; MS2; CE 20 ev; [M+H]+
Name: 3-Hydroxy-3',4',5'-trimethoxyflavone
Formula: C18H16O6
Exact mass: 328.094688
SMILES: COC1=CC(=CC(=C1OC)OC)C2=C(C(=O)C3=CC=CC=C3O2)O
InChI: InChI=1S/C18H16O6/c1-21-13-8-10(9-14(22-2)18(13)23-3)17-16(20)15(19)11-6-4-5-7-12(11)24-17/h4-9,20H,1-3H3
Instrument: Agilent 1200 RRLC; Agilent 6520 QTOF
Instrument type: LC-ESI-QTOF
Ms type: MS2
Ion mode: POSITIVE
Collision energy: 20 ev
Column name: Agilent C8 Cartridge Column 2.1X30mm 3.5 micron (guard); Agilent SB-Aq 2.1x50mm 1.8 micron (analytical)
Retention time: 9.280
Base peak: 329
Precursor m/z: 329.1020
Precursor type: [M+H]+
m/z	relative intensity
105.0342	41
121.0294	105
165.0512	44
167.0678	236
168.0761	142
175.0395	59
193.0495	61
239.0719	70
241.0817	42
255.0602	48
265.0426	125
267.0638	111
268.0723	337
269.0765	94
270.0829	41
281.0419	105
285.0767	61
286.0767	42
295.0625	46
296.0624	88
297.0756	122
298.084	96
299.0513	313
313.0718	61
314.0695	74
329.101	999
