Mass spectrum: Picrotin; LC-ESI-QTOF; MS2; CE 40 ev; [M-H]-
Name: Picrotin
Formula: C15H18O7
Exact mass: 310.105253
SMILES: CC12C3C4C(C(C1(CC5C2(O5)C(=O)O3)O)C(=O)O4)C(C)(C)O
InChI: InChI=1S/C15H18O7/c1-12(2,18)6-7-10(16)20-8(6)9-13(3)14(7,19)4-5-15(13,22-5)11(17)21-9/h5-9,18-19H,4H2,1-3H3
Instrument: Agilent 1200 RRLC; Agilent 6520 QTOF
Instrument type: LC-ESI-QTOF
Ms type: MS2
Ion mode: NEGATIVE
Collision energy: 40 ev
Column name: Agilent C8 Cartridge Column 2.1X30mm 3.5 micron (guard); Agilent SB-Aq 2.1x50mm 1.8 micron (analytical)
Retention time: 3.702
Base peak: 109
Precursor m/z: 309.0980
Precursor type: [M-H]-
m/z	relative intensity
105.0398	8
105.0665	6
105.278	6
107.0492	99
107.9627	8
108.021	62
109.0294	999
109.0657	49
109.0945	5
109.127	10
109.2231	6
109.4311	6
109.4566	8
109.7728	6
110.0353	6
110.712	5
111.0454	373
111.0801	18
111.0987	5
111.1455	6
111.6279	5
112.7607	5
115.0555	9
117.0647	21
117.0737	6
119.0533	9
119.0839	10
120.0576	9
120.3424	15
121.0265	7
121.0637	14
122.0359	8
123.0453	72
125.058	8
127.0353	11
130.0412	18
133.065	14
134.0309	13
134.074	6
135.0421	16
135.0813	18
136.0568	5
137.0236	257
137.0533	7
137.0629	21
140.2391	6
143.0431	17
143.0509	65
143.6144	5
145.0636	14
146.035	17
146.0683	5
147.0445	17
147.0828	6
148.0513	37
151.0394	11
151.0722	18
156.0243	9
160.0425	8
161.0562	34
162.0677	14
163.0667	16
171.0437	6
175.1145	9
177.0897	7
188.0529	30
191.0395	10
192.0423	8
201.4456	8
207.0686	9
242.8657	11
250.4408	8
276.4801	6
279.4348	9
297.2424	5
299.5014	7
