Mass spectrum: 3-Hydroxy-3',4',5'-trimethoxyflavone; LC-ESI-QTOF; MS2; CE 40 ev; [M-H]-
Name: 3-Hydroxy-3',4',5'-trimethoxyflavone
Formula: C18H16O6
Exact mass: 328.094688
SMILES: COC1=CC(=CC(=C1OC)OC)C2=C(C(=O)C3=CC=CC=C3O2)O
InChI: InChI=1S/C18H16O6/c1-21-13-8-10(9-14(22-2)18(13)23-3)17-16(20)15(19)11-6-4-5-7-12(11)24-17/h4-9,20H,1-3H3
Instrument: Agilent 1200 RRLC; Agilent 6520 QTOF
Instrument type: LC-ESI-QTOF
Ms type: MS2
Ion mode: NEGATIVE
Collision energy: 40 ev
Column name: Agilent C8 Cartridge Column 2.1X30mm 3.5 micron (guard); Agilent SB-Aq 2.1x50mm 1.8 micron (analytical)
Retention time: 9.258
Base peak: 210
Precursor m/z: 327.0874
Precursor type: [M-H]-
m/z	relative intensity
106.0029	72
109.5628	39
117.0349	34
133.0244	39
136.0163	41
142.0411	41
145.0235	46
147.0444	46
148.9015	39
149.0241	214
153.0375	52
154.0482	67
161.9933	38
166.0336	34
167.0533	60
169.0245	59
169.0604	38
170.0337	85
181.866	49
182.0385	375
182.5569	41
193.0337	44
194.0317	70
195.0441	158
198.0286	973
198.0718	54
209.0223	153
210.034	999
210.0729	59
211.04	121
223.0357	54
225.0164	207
225.0692	46
226.024	594
227.0787	47
232.4178	52
237.01	42
238.0331	380
238.068	47
239.0303	155
253.0449	34
254.0216	488
266.0247	441
267.0277	501
267.0848	52
269.0439	157
269.0815	51
297.0386	514
326.0027	64
