Mass spectrum: (-)-Eseroline; LC-ESI-QTOF; MS; POSITIVE
Name: (-)-Eseroline
Formula: C13H18N2O
Exact mass: 218.141913
SMILES: C[C@@]12CCN([C@@H]1N(C3=C2C=C(C=C3)O)C)C
InChI: InChI=1S/C13H18N2O/c1-13-6-7-14(2)12(13)15(3)11-5-4-9(16)8-10(11)13/h4-5,8,12,16H,6-7H2,1-3H3/t12-,13+/m1/s1
Instrument: Agilent 1200 RRLC; Agilent 6520 QTOF
Instrument type: LC-ESI-QTOF
Ms type: MS
Ion mode: POSITIVE
Column name: Agilent C8 Cartridge Column 2.1X30mm 3.5 micron (guard); Agilent SB-Aq 2.1x50mm 1.8 micron (analytical)
Retention time: 2.003
m/z	relative intensity
219.1491765	999
