Mass spectrum: {3,4,5-triacetyloxy-6-[5-acetyloxy-3-(4-methoxyphenyl)-4-oxochromen-6-yloxy]-2 H-3,4,5,6-tetrahydropyran-2-yl}methyl acetate; LC-ESI-QTOF; MS2; CE 20 ev; [M+CH3COOH-H]-
Name: {3,4,5-triacetyloxy-6-[5-acetyloxy-3-(4-methoxyphenyl)-4-oxochromen-6-yloxy]-2 H-3,4,5,6-tetrahydropyran-2-yl}methyl acetate
Formula: C32H32O15
Exact mass: 656.17412
SMILES: CC(=O)OCC1C(C(C(C(O1)OC2=C(C3=C(C=C2)OC=C(C3=O)C4=CC=C(C=C4)OC)OC(=O)C)OC(=O)C)OC(=O)C)OC(=O)C
InChI: InChI=1S/C32H32O15/c1-15(33)40-14-25-29(43-17(3)35)30(44-18(4)36)31(45-19(5)37)32(47-25)46-24-12-11-23-26(28(24)42-16(2)34)27(38)22(13-41-23)20-7-9-21(39-6)10-8-20/h7-13,25,29-32H,14H2,1-6H3
Instrument: Agilent 1200 RRLC; Agilent 6520 QTOF
Instrument type: LC-ESI-QTOF
Ms type: MS2
Ion mode: NEGATIVE
Collision energy: 20 ev
Column name: Agilent C8 Cartridge Column 2.1X30mm 3.5 micron (guard); Agilent SB-Aq 2.1x50mm 1.8 micron (analytical)
Retention time: 9.897
Base peak: 387
Precursor m/z: 715.1874
Precursor type: [M+CH3COOH-H]-
m/z	relative intensity
121.3184	60
140.5361	32
141.0172	608
141.08	28
141.991	35
188.2494	35
195.6842	32
202.9388	31
212.9474	28
223.0214	483
226.4289	28
283.0611	85
305.0204	819
305.0798	35
387.0246	999
387.0666	71
387.7759	29
387.9197	35
395.8449	31
395.8957	29
406.0023	54
469.0121	166
469.0403	188
477.765	35
537.2166	57
551.0339	45
561.3986	31
571.1322	40
589.1736	43
590.6517	36
613.1564	73
641.2616	39
657.7649	35
