Mass spectrum: Daphnoretin; LC-ESI-QTOF; MS2; CE 20 ev; [M-H]-
Name: Daphnoretin
Formula: C19H12O7
Exact mass: 352.058303
SMILES: COC1=C(C=C2C(=C1)C=C(C(=O)O2)OC3=CC4=C(C=C3)C=CC(=O)O4)O
InChI: InChI=1S/C19H12O7/c1-23-16-6-11-7-17(19(22)26-15(11)9-13(16)20)24-12-4-2-10-3-5-18(21)25-14(10)8-12/h2-9,20H,1H3
Instrument: Agilent 1200 RRLC; Agilent 6520 QTOF
Instrument type: LC-ESI-QTOF
Ms type: MS2
Ion mode: NEGATIVE
Collision energy: 20 ev
Column name: Agilent C8 Cartridge Column 2.1X30mm 3.5 micron (guard); Agilent SB-Aq 2.1x50mm 1.8 micron (analytical)
Retention time: 7.458
Base peak: 336
Precursor m/z: 351.0510
Precursor type: [M-H]-
m/z	relative intensity
135.009	11
163.0031	193
163.0468	7
190.9982	399
191.0398	15
191.0595	5
206.0211	52
252.0423	32
264.0466	5
279.0295	8
279.0675	9
280.0377	31
292.038	23
293.0394	5
295.0622	9
307.0205	6
308.0315	31
323.0599	16
336.0272	999
336.1026	14
336.1912	12
336.2466	6
336.3011	5
351.0504	357
