Mass spectrum: Cinoxacin; LC-ESI-QTOF; MS; POSITIVE
Name: Cinoxacin
Formula: C12H10N2O5
Exact mass: 262.058971
SMILES: CCN1C2=CC3=C(C=C2C(=O)C(=N1)C(=O)O)OCO3
InChI: InChI=1S/C12H10N2O5/c1-2-14-7-4-9-8(18-5-19-9)3-6(7)11(15)10(13-14)12(16)17/h3-4H,2,5H2,1H3,(H,16,17)
Instrument: Agilent 1200 RRLC; Agilent 6520 QTOF
Instrument type: LC-ESI-QTOF
Ms type: MS
Ion mode: POSITIVE
Column name: Agilent C8 Cartridge Column 2.1X30mm 3.5 micron (guard); Agilent SB-Aq 2.1x50mm 1.8 micron (analytical)
Retention time: 5.440
m/z	relative intensity
263.0662765	999
285.048218	841
