Mass spectrum: Dihydroergocristine; LC-ESI-QTOF; MS2; CE 20 ev; [M-H]-
Name: Dihydroergocristine
Formula: C35H41N5O5
Exact mass: 611.310769
SMILES: CC(C)C1(C(=O)N2C(C(=O)N3CCCC3C2(O1)O)CC4=CC=CC=C4)NC(=O)C5CC6C(CC7=CNC8=CC=CC6=C78)N(C5)C
InChI: InChI=1S/C35H41N5O5/c1-20(2)34(37-31(41)23-16-25-24-11-7-12-26-30(24)22(18-36-26)17-27(25)38(3)19-23)33(43)40-28(15-21-9-5-4-6-10-21)32(42)39-14-8-13-29(39)35(40,44)45-34/h4-7,9-12,18,20,23,25,27-29,36,44H,8,13-17,19H2,1-3H3,(H,37,41)
Instrument: Agilent 1200 RRLC; Agilent 6520 QTOF
Instrument type: LC-ESI-QTOF
Ms type: MS2
Ion mode: NEGATIVE
Collision energy: 20 ev
Column name: Agilent C8 Cartridge Column 2.1X30mm 3.5 micron (guard); Agilent SB-Aq 2.1x50mm 1.8 micron (analytical)
Retention time: 7.110
Base peak: 610
Precursor m/z: 610.3035
Precursor type: [M-H]-
m/z	relative intensity
109.0932	11
114.0556	227
115.0376	31
116.968	7
118.3821	7
123.6085	7
149.6264	8
152.0619	8
174.0573	14
199.1267	26
226.0885	52
239.8717	8
243.1072	16
250.0929	11
250.1396	22
251.1157	13
261.1218	147
265.6054	16
268.1448	27
296.7839	9
313.1462	11
314.1858	8
322.1928	16
334.2077	8
341.152	28
346.1857	22
347.1854	7
348.1683	10
360.1856	8
365.1903	14
366.1828	28
424.2159	9
451.2497	217
451.3091	12
478.2063	9
495.2393	249
495.3096	19
527.9711	12
538.1805	8
566.3213	31
566.345	7
567.3103	27
596.9684	8
610.2389	6
610.3012	999
