Mass spectrum: 2',4-Dihydroxychalcone; LC-ESI-QTOF; MS2; CE 10 ev; [M-H]-
Name: 2',4-Dihydroxychalcone
Formula: C15H12O3
Exact mass: 240.078644
SMILES: C1=CC=C(C(=C1)C(=O)/C=C/C2=CC=C(C=C2)O)O
InChI: InChI=1S/C15H12O3/c16-12-8-5-11(6-9-12)7-10-15(18)13-3-1-2-4-14(13)17/h1-10,16-17H/b10-7+
Instrument: Agilent 1200 RRLC; Agilent 6520 QTOF
Instrument type: LC-ESI-QTOF
Ms type: MS2
Ion mode: NEGATIVE
Collision energy: 10 ev
Column name: Agilent C8 Cartridge Column 2.1X30mm 3.5 micron (guard); Agilent SB-Aq 2.1x50mm 1.8 micron (analytical)
Retention time: 8.359
Base peak: 239
Precursor m/z: 239.0713
Precursor type: [M-H]-
m/z	relative intensity
106.0095	0
117.0282	1
118.9834	0
119.0455	734
119.0817	19
119.1196	5
119.1465	14
119.1867	2
119.2278	2
119.2557	1
119.2803	2
119.2945	0
119.3096	1
119.3185	1
119.3306	2
119.3501	1
119.3578	1
119.3687	1
119.3811	1
119.3934	1
119.4081	1
119.432	1
119.4508	1
119.4871	1
119.5106	0
119.5279	1
119.5575	1
119.5726	1
119.5919	1
119.6168	1
119.6432	1
119.6543	0
119.6772	0
119.6867	0
119.7026	1
119.7154	1
119.7588	0
119.7728	0
119.7853	1
119.8178	0
119.8311	1
119.8514	0
119.899	1
119.9141	0
119.9324	0
119.9682	0
120.048	0
120.0567	0
120.1555	0
120.2134	0
120.2759	0
120.5484	0
121.0169	0
121.2382	0
145.0225	1
157.1172	1
193.0594	1
195.0761	70
195.1211	2
195.141	1
195.1645	0
195.1826	0
195.205	1
195.3543	0
196.3052	0
211.6068	0
221.0505	1
223.0141	1
223.0283	1
230.0492	0
238.9911	1
239.0659	999
