Mass spectrum: 4'-Hydroxy-5,7-dimethoxyflavanone; LC-ESI-QTOF; MS2; CE 20 ev; [M+H]+
Name: 4'-Hydroxy-5,7-dimethoxyflavanone
Formula: C17H16O5
Exact mass: 300.099774
SMILES: COC1=CC(=C2C(=O)CC(OC2=C1)C3=CC=C(C=C3)O)OC
InChI: InChI=1S/C17H16O5/c1-20-12-7-15(21-2)17-13(19)9-14(22-16(17)8-12)10-3-5-11(18)6-4-10/h3-8,14,18H,9H2,1-2H3
Instrument: Agilent 1200 RRLC; Agilent 6520 QTOF
Instrument type: LC-ESI-QTOF
Ms type: MS2
Ion mode: POSITIVE
Collision energy: 20 ev
Column name: Agilent C8 Cartridge Column 2.1X30mm 3.5 micron (guard); Agilent SB-Aq 2.1x50mm 1.8 micron (analytical)
Retention time: 7.513
Base peak: 181
Precursor m/z: 301.1071
Precursor type: [M+H]+
m/z	relative intensity
119.0474	15
123.047	15
147.0435	112
166.0091	11
166.0275	25
181.0485	999
181.0824	13
181.1039	16
301.1041	68
