Mass spectrum: 4-Hydroxy-2',3,4',6'-tetramethoxychalcone; LC-ESI-QTOF; MS2; CE 20 ev; [M+H]+
Name: 4-Hydroxy-2',3,4',6'-tetramethoxychalcone
Formula: C19H20O6
Exact mass: 344.125988
SMILES: COC1=CC(=C(C(=C1)OC)C(=O)/C=C/C2=CC(=C(C=C2)O)OC)OC
InChI: InChI=1S/C19H20O6/c1-22-13-10-17(24-3)19(18(11-13)25-4)15(21)8-6-12-5-7-14(20)16(9-12)23-2/h5-11,20H,1-4H3/b8-6+
Instrument: Agilent 1200 RRLC; Agilent 6520 QTOF
Instrument type: LC-ESI-QTOF
Ms type: MS2
Ion mode: POSITIVE
Collision energy: 20 ev
Column name: Agilent C8 Cartridge Column 2.1X30mm 3.5 micron (guard); Agilent SB-Aq 2.1x50mm 1.8 micron (analytical)
Retention time: 7.788
Base peak: 195
Precursor m/z: 345.1333
Precursor type: [M+H]+
m/z	relative intensity
104.9932	16
117.0329	16
145.0269	102
152.0465	20
177.0536	148
180.0418	57
195.0648	999
195.1024	36
195.1266	12
345.132	55
