Mass spectrum: Orobole 7-O-Glucoside, Acetate; LC-ESI-QTOF; MS2; CE 40 ev; [M+CH3COOH-H]-
Name: Orobole 7-O-Glucoside, Acetate
Formula: C35H34O18
Exact mass: 742.174514
SMILES: CC(=O)OCC1C(C(C(C(O1)OC2=CC(=C3C(=C2)OC=C(C3=O)C4=CC(=C(C=C4)OC(=O)C)OC(=O)C)OC(=O)C)OC(=O)C)OC(=O)C)OC(=O)C
InChI: InChI=1S/C35H34O18/c1-15(36)44-14-29-32(49-19(5)40)33(50-20(6)41)34(51-21(7)42)35(53-29)52-23-11-27-30(28(12-23)48-18(4)39)31(43)24(13-45-27)22-8-9-25(46-16(2)37)26(10-22)47-17(3)38/h8-13,29,32-35H,14H2,1-7H3
Instrument: Agilent 1200 RRLC; Agilent 6520 QTOF
Instrument type: LC-ESI-QTOF
Ms type: MS2
Ion mode: NEGATIVE
Collision energy: 40 ev
Column name: Agilent C8 Cartridge Column 2.1X30mm 3.5 micron (guard); Agilent SB-Aq 2.1x50mm 1.8 micron (analytical)
Retention time: 9.554
Base peak: 369
Precursor m/z: 801.1878
Precursor type: [M+CH3COOH-H]-
m/z	relative intensity
143.9857	63
182.9365	79
216.9924	85
217.0051	142
218.8604	90
273.2466	63
285.0508	60
327.0538	85
369.0121	85
369.0579	999
369.0923	191
382.0872	104
411.0652	85
416.4109	82
435.0655	104
553.6004	60
600.7423	60
657.1479	399
672.5047	63
