Mass spectrum: Laudanosine; LC-ESI-QTOF; MS2; CE 20 ev; [M+H]+
Name: Laudanosine
Formula: C21H27NO4
Exact mass: 357.194008
SMILES: CN1CCC2=CC(=C(C=C2C1CC3=CC(=C(C=C3)OC)OC)OC)OC
InChI: InChI=1S/C21H27NO4/c1-22-9-8-15-12-20(25-4)21(26-5)13-16(15)17(22)10-14-6-7-18(23-2)19(11-14)24-3/h6-7,11-13,17H,8-10H2,1-5H3
Instrument: Agilent 1200 RRLC; Agilent 6520 QTOF
Instrument type: LC-ESI-QTOF
Ms type: MS2
Ion mode: POSITIVE
Collision energy: 20 ev
Column name: Agilent C8 Cartridge Column 2.1X30mm 3.5 micron (guard); Agilent SB-Aq 2.1x50mm 1.8 micron (analytical)
Retention time: 4.567
Base peak: 206
Precursor m/z: 358.2013
Precursor type: [M+H]+
m/z	relative intensity
121.0609	15
136.0521	12
150.0651	13
151.0747	183
158.0726	36
159.0805	24
165.0884	73
174.0684	38
177.0902	16
189.0913	281
189.1314	9
190.0863	11
191.0923	13
206.1174	999
206.1532	29
206.1725	16
206.1916	15
206.2489	18
264.1175	9
280.1071	9
284.1438	17
295.1361	15
296.1385	38
312.1471	18
327.1587	95
358.201	76
