Mass spectrum: 3,7-Dihydroxy-3',4'-dimethoxyflavone; LC-ESI-QTOF; MS2; CE 40 ev; [M-H]-
Name: 3,7-Dihydroxy-3',4'-dimethoxyflavone
Formula: C17H14O6
Exact mass: 314.079038
SMILES: COC1=C(C=C(C=C1)C2=C(C(=O)C3=C(O2)C=C(C=C3)O)O)OC
InChI: InChI=1S/C17H14O6/c1-21-12-6-3-9(7-14(12)22-2)17-16(20)15(19)11-5-4-10(18)8-13(11)23-17/h3-8,18,20H,1-2H3
Instrument: Agilent 1200 RRLC; Agilent 6520 QTOF
Instrument type: LC-ESI-QTOF
Ms type: MS2
Ion mode: NEGATIVE
Collision energy: 40 ev
Column name: Agilent C8 Cartridge Column 2.1X30mm 3.5 micron (guard); Agilent SB-Aq 2.1x50mm 1.8 micron (analytical)
Retention time: 8.273
Base peak: 255
Precursor m/z: 313.0717
Precursor type: [M-H]-
m/z	relative intensity
100.029	15
102.3237	21
119.0174	18
121.0272	7
133.0305	18
135.0092	102
139.0587	10
143.0537	11
145.0287	12
147.0066	21
155.0481	38
167.0479	17
171.0438	32
173.0274	8
176.0075	39
180.0444	19
181.0185	6
182.0339	9
182.0598	10
183.0438	56
185.0272	18
185.0588	6
197.0674	11
198.0289	20
199.041	41
199.6587	6
211.038	91
211.074	7
211.4234	7
213.0447	12
213.0614	32
214.0301	10
215.0376	12
216.0983	6
223.0422	28
224.0481	17
224.1563	6
226.0259	17
227.0329	366
227.0785	20
227.1179	6
227.1751	6
227.973	6
233.6934	10
237.0143	9
237.0567	9
238.0335	24
239.0352	65
241.0462	14
241.0635	18
255.0291	999
255.0764	53
255.1011	9
255.1353	11
255.1679	12
255.214	7
255.5381	7
266.0156	6
267.037	8
268.039	15
268.063	14
269.0466	141
270.0518	9
281.0349	7
281.0515	6
283.0215	167
283.0655	25
283.0828	11
283.8419	6
284.1886	7
295.0125	12
295.6072	7
297.0401	195
297.1099	6
