Mass spectrum: Primuliten; LC-ESI-QTOF; MS2; CE 40 ev; [M+H]+
Name: Primuliten
Formula: C15H10O3
Exact mass: 238.062994
SMILES: C1=CC=C(C=C1)C2=CC(=O)C3=C(O2)C=CC=C3O
InChI: InChI=1S/C15H10O3/c16-11-7-4-8-13-15(11)12(17)9-14(18-13)10-5-2-1-3-6-10/h1-9,16H
Instrument: Agilent 1200 RRLC; Agilent 6520 QTOF
Instrument type: LC-ESI-QTOF
Ms type: MS2
Ion mode: POSITIVE
Collision energy: 40 ev
Column name: Agilent C8 Cartridge Column 2.1X30mm 3.5 micron (guard); Agilent SB-Aq 2.1x50mm 1.8 micron (analytical)
Retention time: 9.250
Base peak: 103
Precursor m/z: 239.0703
Precursor type: [M+H]+
m/z	relative intensity
103.0547	999
115.0606	244
129.0265	175
129.0333	450
137.0206	702
139.0525	801
164.0568	343
165.0691	724
239.0716	275
