Mass spectrum: Limocitrin; LC-ESI-QTOF; MS2; CE 20 ev; [M-H]-
Name: Limocitrin
Formula: C17H14O8
Exact mass: 346.068867
SMILES: COC1=C(C=CC(=C1)C2=C(C(=O)C3=C(O2)C(=C(C=C3O)O)OC)O)O
InChI: InChI=1S/C17H14O8/c1-23-11-5-7(3-4-8(11)18)15-14(22)13(21)12-9(19)6-10(20)16(24-2)17(12)25-15/h3-6,18-20,22H,1-2H3
Instrument: Agilent 1200 RRLC; Agilent 6520 QTOF
Instrument type: LC-ESI-QTOF
Ms type: MS2
Ion mode: NEGATIVE
Collision energy: 20 ev
Column name: Agilent C8 Cartridge Column 2.1X30mm 3.5 micron (guard); Agilent SB-Aq 2.1x50mm 1.8 micron (analytical)
Retention time: 7.905
Base peak: 330
Precursor m/z: 345.0616
Precursor type: [M-H]-
m/z	relative intensity
110.0001	8
124.9908	5
131.5369	6
139.0039	5
148.1172	4
149.015	4
149.0313	5
164.9853	7
165.9887	10
171.0496	8
175.0001	11
177.9923	12
178.9901	5
187.0365	28
192.0012	4
193.9898	4
200.4597	5
203.0231	4
204.034	5
204.049	7
218.0494	9
228.0205	6
232.0418	6
232.0579	5
257.0429	4
270.0243	8
271.0281	11
273.0398	14
276.9316	6
285.0269	7
285.0421	6
286.0162	6
286.0527	14
287.0154	16
301.0337	8
314.8345	10
315.0142	149
315.0666	7
315.9199	4
329.0217	7
329.9558	7
329.9773	8
330.0375	999
330.0908	60
330.1297	11
330.1673	12
330.2102	9
330.2624	5
330.4015	5
330.4357	10
330.4645	7
330.5143	6
330.5374	5
330.5688	9
330.6636	13
330.7198	7
331.1083	6
331.2193	5
345.063	102
