Mass spectrum: Kaempferol; LC-ESI-QTOF; MS2; CE 20 ev; [M-H]-
Name: Kaempferol
Formula: C15H10O6
Exact mass: 286.047738
SMILES: C1=CC(=CC=C1C2=C(C(=O)C3=C(C=C(C=C3O2)O)O)O)O
InChI: InChI=1S/C15H10O6/c16-8-3-1-7(2-4-8)15-14(20)13(19)12-10(18)5-9(17)6-11(12)21-15/h1-6,16-18,20H
Instrument: Agilent 1200 RRLC; Agilent 6520 QTOF
Instrument type: LC-ESI-QTOF
Ms type: MS2
Ion mode: NEGATIVE
Collision energy: 20 ev
Column name: Agilent C8 Cartridge Column 2.1X30mm 3.5 micron (guard); Agilent SB-Aq 2.1x50mm 1.8 micron (analytical)
Retention time: 7.453
Base peak: 285
Precursor m/z: 285.0404
Precursor type: [M-H]-
m/z	relative intensity
107.0187	10
108.0193	5
131.0536	6
135.0077	12
137.0243	10
142.0284	6
147.0111	11
151.0054	24
159.0388	8
163.0044	5
167.0552	10
167.8625	7
169.0666	12
172.6648	11
173.019	18
185.0623	16
187.043	17
188.1568	8
197.0607	7
213.0527	10
214.0256	7
215.0297	13
229.054	19
239.0414	7
240.034	10
255.0367	9
267.9402	6
268.046	5
284.9227	8
284.9954	10
285.04	999
