Mass spectrum: Glucuronic acid; LC-ESI-QTOF; MS; NEGATIVE
Name: Glucuronic acid
Name: 3,4,5,6-tetrahydroxyoxane-2-carboxylic acid
Name: 3,4,5,6-tetrahydroxy-2H-3,4,5,6-tetrahydropyran-2-carboxylic acid
Formula: C6H10O7
Exact mass: 194.042653
SMILES: C1(C(C(OC(C1O)O)C(=O)O)O)O
InChI: InChI=1S/C6H10O7/c7-1-2(8)4(5(10)11)13-6(12)3(1)9/h1-4,6-9,12H,(H,10,11)
Instrument: Agilent 1200 RRLC; Agilent 6520 QTOF
Instrument type: LC-ESI-QTOF
Ms type: MS
Ion mode: NEGATIVE
Column name: Agilent C8 Cartridge Column 2.1X30mm 3.5 micron (guard); Agilent SB-Aq 2.1x50mm 1.8 micron (analytical)
Retention time: 0.382
m/z	relative intensity
193.0354235	999
