Mass spectrum: Abrine; LC-ESI-QTOF; MS; POSITIVE
Name: Abrine
Formula: C12H14N2O2
Exact mass: 218.105528
SMILES: CNC(CC1=CNC2=CC=CC=C21)C(=O)O
InChI: InChI=1S/C12H14N2O2/c1-13-11(12(15)16)6-8-7-14-10-5-3-2-4-9(8)10/h2-5,7,11,13-14H,6H2,1H3,(H,15,16)
Instrument: Agilent 1200 RRLC; Agilent 6520 QTOF
Instrument type: LC-ESI-QTOF
Ms type: MS
Ion mode: POSITIVE
Column name: Agilent C8 Cartridge Column 2.1X30mm 3.5 micron (guard); Agilent SB-Aq 2.1x50mm 1.8 micron (analytical)
Retention time: 1.548
m/z	relative intensity
219.1127765	999
241.094718	27
