Mass spectrum: Picrotoxinin; LC-ESI-QTOF; MS2; CE 10 ev; [M+H]+
Name: Picrotoxinin
Formula: C15H16O6
Exact mass: 292.094688
SMILES: CC(=C)C1C2C3C4(C(C1C(=O)O2)(CC5C4(O5)C(=O)O3)O)C
InChI: InChI=1S/C15H16O6/c1-5(2)7-8-11(16)19-9(7)10-13(3)14(8,18)4-6-15(13,21-6)12(17)20-10/h6-10,18H,1,4H2,2-3H3
Instrument: Agilent 1200 RRLC; Agilent 6520 QTOF
Instrument type: LC-ESI-QTOF
Ms type: MS2
Ion mode: POSITIVE
Collision energy: 10 ev
Column name: Agilent C8 Cartridge Column 2.1X30mm 3.5 micron (guard); Agilent SB-Aq 2.1x50mm 1.8 micron (analytical)
Retention time: 4.221
Base peak: 175
Precursor m/z: 293.1020
Precursor type: [M+H]+
m/z	relative intensity
137.0609	446
159.0721	415
175.1096	999
203.1064	415
219.1072	323
257.0763	338
