Mass spectrum: Dihydroergocristine; LC-ESI-QTOF; MS2; CE 10 ev; [M-H]-
Name: Dihydroergocristine
Formula: C35H41N5O5
Exact mass: 611.310769
SMILES: CC(C)C1(C(=O)N2C(C(=O)N3CCCC3C2(O1)O)CC4=CC=CC=C4)NC(=O)C5CC6C(CC7=CNC8=CC=CC6=C78)N(C5)C
InChI: InChI=1S/C35H41N5O5/c1-20(2)34(37-31(41)23-16-25-24-11-7-12-26-30(24)22(18-36-26)17-27(25)38(3)19-23)33(43)40-28(15-21-9-5-4-6-10-21)32(42)39-14-8-13-29(39)35(40,44)45-34/h4-7,9-12,18,20,23,25,27-29,36,44H,8,13-17,19H2,1-3H3,(H,37,41)
Instrument: Agilent 1200 RRLC; Agilent 6520 QTOF
Instrument type: LC-ESI-QTOF
Ms type: MS2
Ion mode: NEGATIVE
Collision energy: 10 ev
Column name: Agilent C8 Cartridge Column 2.1X30mm 3.5 micron (guard); Agilent SB-Aq 2.1x50mm 1.8 micron (analytical)
Retention time: 7.110
Base peak: 610
Precursor m/z: 610.3035
Precursor type: [M-H]-
m/z	relative intensity
114.058	32
148.4681	8
226.0912	6
243.116	10
244.6292	15
249.1174	8
261.1267	14
338.1686	6
348.184	5
366.1761	15
366.2099	7
387.7571	5
451.2603	20
495.2104	5
495.2412	40
566.2918	7
577.9034	5
610.3005	999
