Mass spectrum: Liquiritin; LC-ESI-QTOF; MS2; CE 10 ev; [M-H]-
Name: Liquiritin
Formula: C21H22O9
Exact mass: 418.126382
SMILES: C1C(OC2=C(C1=O)C=CC(=C2)O)C3=CC=C(C=C3)OC4C(C(C(C(O4)CO)O)O)O
InChI: InChI=1S/C21H22O9/c22-9-17-18(25)19(26)20(27)21(30-17)28-12-4-1-10(2-5-12)15-8-14(24)13-6-3-11(23)7-16(13)29-15/h1-7,15,17-23,25-27H,8-9H2
Instrument: Agilent 1200 RRLC; Agilent 6520 QTOF
Instrument type: LC-ESI-QTOF
Ms type: MS2
Ion mode: NEGATIVE
Collision energy: 10 ev
Column name: Agilent C8 Cartridge Column 2.1X30mm 3.5 micron (guard); Agilent SB-Aq 2.1x50mm 1.8 micron (analytical)
Retention time: 5.069
Base peak: 417
Precursor m/z: 417.1191
Precursor type: [M-H]-
m/z	relative intensity
119.0492	24
132.8763	3
135.0081	34
255.0661	700
255.1162	25
255.1383	6
255.1508	8
255.1763	4
255.2139	8
255.2704	4
255.3182	3
255.3835	3
255.4406	4
255.5079	5
255.6379	3
255.6791	3
255.7576	3
256.0663	5
311.3334	4
334.9908	5
357.1267	4
417.1177	999
