Mass spectrum: 2',5-Dimethoxyflavone; LC-ESI-QTOF; MS2; CE 40 ev; [M+H]+
Name: 2',5-Dimethoxyflavone
Formula: C17H14O4
Exact mass: 282.089209
SMILES: COC1=CC=CC=C1C2=CC(=O)C3=C(O2)C=CC=C3OC
InChI: InChI=1S/C17H14O4/c1-19-13-7-4-3-6-11(13)16-10-12(18)17-14(20-2)8-5-9-15(17)21-16/h3-10H,1-2H3
Instrument: Agilent 1200 RRLC; Agilent 6520 QTOF
Instrument type: LC-ESI-QTOF
Ms type: MS2
Ion mode: POSITIVE
Collision energy: 40 ev
Column name: Agilent C8 Cartridge Column 2.1X30mm 3.5 micron (guard); Agilent SB-Aq 2.1x50mm 1.8 micron (analytical)
Retention time: 9.025
Base peak: 137
Precursor m/z: 283.0965
Precursor type: [M+H]+
m/z	relative intensity
103.0548	33
104.0626	21
105.0684	26
107.0137	69
108.0207	139
109.0233	16
109.0298	21
115.0554	16
118.0407	36
118.0487	12
121.0256	63
122.0334	56
122.0398	19
129.0328	24
131.0486	232
132.0533	12
132.059	60
135.0456	15
136.016	32
137.023	999
137.0543	29
141.0717	19
147.0421	57
150.0302	49
151.0357	28
152.0609	25
165.0639	25
165.0703	43
168.0563	15
181.0634	90
193.0659	22
194.0657	15
194.0759	13
197.0599	318
205.0628	15
208.052	12
211.0761	19
221.0588	44
222.0673	40
223.0751	18
225.053	47
236.0463	64
237.0528	53
237.0646	14
239.0687	96
240.0777	119
249.055	188
250.0593	12
251.0691	84
252.0418	114
253.0511	24
267.067	71
268.0761	42
