Mass spectrum: 1,2,9,10-tetramethoxy-6,7-dimethyl-5,6-dihydro-4H-dibenzo[de,g]quinoline; LC-ESI-QTOF; MS; POSITIVE
Name: 1,2,9,10-tetramethoxy-6,7-dimethyl-5,6-dihydro-4H-dibenzo[de,g]quinoline
Formula: C22H25NO4
Exact mass: 367.178358
SMILES: CC1=C2C3=C(C4=CC(=C(C=C14)OC)OC)C(=C(C=C3CCN2C)OC)OC
InChI: InChI=1S/C22H25NO4/c1-12-14-10-16(24-3)17(25-4)11-15(14)20-19-13(7-8-23(2)21(12)19)9-18(26-5)22(20)27-6/h9-11H,7-8H2,1-6H3
Instrument: Agilent 1200 RRLC; Agilent 6520 QTOF
Instrument type: LC-ESI-QTOF
Ms type: MS
Ion mode: POSITIVE
Column name: Agilent C8 Cartridge Column 2.1X30mm 3.5 micron (guard); Agilent SB-Aq 2.1x50mm 1.8 micron (analytical)
Retention time: 8.375
m/z	relative intensity
368.1856765	999
390.167618	20
