Mass spectrum: 3(2'-Chlorophenyl)-7-hydroxy-4-phenylcoumarin; LC-ESI-QTOF; MS2; CE 20 ev; [M-H]-
Name: 3(2'-Chlorophenyl)-7-hydroxy-4-phenylcoumarin
Formula: C21H13ClO3
Exact mass: 348.055322
SMILES: C1=CC=C(C=C1)C2=C(C(=O)OC3=C2C=CC(=C3)O)C4=CC=CC=C4Cl
InChI: InChI=1S/C21H13ClO3/c22-17-9-5-4-8-15(17)20-19(13-6-2-1-3-7-13)16-11-10-14(23)12-18(16)25-21(20)24/h1-12,23H
Instrument: Agilent 1200 RRLC; Agilent 6520 QTOF
Instrument type: LC-ESI-QTOF
Ms type: MS2
Ion mode: NEGATIVE
Collision energy: 20 ev
Column name: Agilent C8 Cartridge Column 2.1X30mm 3.5 micron (guard); Agilent SB-Aq 2.1x50mm 1.8 micron (analytical)
Retention time: 9.299
Base peak: 347
Precursor m/z: 347.0480
Precursor type: [M-H]-
m/z	relative intensity
101.0295	1
104.3003	1
133.9678	1
194.8814	1
206.1843	1
213.9371	2
217.9552	1
217.9716	1
267.0818	3
269.051	1
303.0539	1
311.0717	7
341.7991	1
343.4778	1
345.9777	1
346.0659	1
346.9431	1
347.0475	999
