Mass spectrum: Aspartic Acid; LC-ESI-QTOF; MS2; CE 10 ev; [M-H]-
Name: Aspartic Acid
Formula: C4H7NO4
Exact mass: 133.037508
SMILES: C(C(C(=O)O)N)C(=O)O
InChI: InChI=1S/C4H7NO4/c5-2(4(8)9)1-3(6)7/h2H,1,5H2,(H,6,7)(H,8,9)
Instrument: Agilent 1200 RRLC; Agilent 6520 QTOF
Instrument type: LC-ESI-QTOF
Ms type: MS2
Ion mode: NEGATIVE
Collision energy: 10 ev
Column name: Agilent C8 Cartridge Column 2.1X30mm 3.5 micron (guard); Agilent SB-Aq 2.1x50mm 1.8 micron (analytical)
Retention time: 0.367
Base peak: 132
Precursor m/z: 132.0302
Precursor type: [M-H]-
m/z	relative intensity
113.1805	12
114.0212	117
115.003	457
115.035	16
131.0862	14
132.0308	999
