Mass spectrum: 3,4-Dihydroxy-L-phenylalanine; LC-ESI-QTOF; MS; NEGATIVE
Name: 3,4-Dihydroxy-L-phenylalanine
Formula: C9H11NO4
Exact mass: 197.068808
SMILES: C1=CC(=C(C=C1CC(C(=O)O)N)O)O
InChI: InChI=1S/C9H11NO4/c10-6(9(13)14)3-5-1-2-7(11)8(12)4-5/h1-2,4,6,11-12H,3,10H2,(H,13,14)
Instrument: Agilent 1200 RRLC; Agilent 6520 QTOF
Instrument type: LC-ESI-QTOF
Ms type: MS
Ion mode: NEGATIVE
Column name: Agilent C8 Cartridge Column 2.1X30mm 3.5 micron (guard); Agilent SB-Aq 2.1x50mm 1.8 micron (analytical)
Retention time: 0.388
m/z	relative intensity
196.0615235	999
