Mass spectrum: Ouabain; LC-ESI-QTOF; MS2; CE 10 ev; [M+H]+
Name: Ouabain
Formula: C29H44O12
Exact mass: 584.283277
SMILES: C[C@H]1[C@@H]([C@H]([C@H]([C@@H](O1)O[C@H]2C[C@H]([C@@]3([C@@H]4[C@@H](CC[C@@]3(C2)O)[C@]5(CC[C@@H]([C@]5(C[C@H]4O)C)C6=CC(=O)OC6)O)CO)O)O)O)O
InChI: InChI=1S/C29H44O12/c1-13-22(34)23(35)24(36)25(40-13)41-15-8-19(32)28(12-30)21-17(3-5-27(28,37)9-15)29(38)6-4-16(14-7-20(33)39-11-14)26(29,2)10-18(21)31/h7,13,15-19,21-25,30-32,34-38H,3-6,8-12H2,1-2H3/t13-,15-,16+,17+,18+,19+,21+,22-,23+,24+,25-,26+,27-,28+,29-/m0/s1
Instrument: Agilent 1200 RRLC; Agilent 6520 QTOF
Instrument type: LC-ESI-QTOF
Ms type: MS2
Ion mode: POSITIVE
Collision energy: 10 ev
Column name: Agilent C8 Cartridge Column 2.1X30mm 3.5 micron (guard); Agilent SB-Aq 2.1x50mm 1.8 micron (analytical)
Retention time: 4.532
Base peak: 385
Precursor m/z: 585.2906
Precursor type: [M+H]+
m/z	relative intensity
129.054	171
319.1675	225
337.1805	646
349.1764	176
355.1927	402
367.1868	534
373.1944	451
373.2045	171
385.1989	999
403.2117	970
421.2194	338
439.2276	744
531.257	108
585.2933	328
