Mass spectrum: Nicergoline; LC-ESI-QTOF; MS2; CE 10 ev; [M+H]+
Name: Nicergoline
Formula: C24H26BrN3O3
Exact mass: 483.115754
SMILES: CN1CC(CC2(C1CC3=CN(C4=CC=CC2=C34)C)OC)COC(=O)C5=CC(=CN=C5)Br
InChI: InChI=1S/C24H26BrN3O3/c1-27-13-17-8-21-24(30-3,19-5-4-6-20(27)22(17)19)9-15(12-28(21)2)14-31-23(29)16-7-18(25)11-26-10-16/h4-7,10-11,13,15,21H,8-9,12,14H2,1-3H3
Instrument: Agilent 1200 RRLC; Agilent 6520 QTOF
Instrument type: LC-ESI-QTOF
Ms type: MS2
Ion mode: POSITIVE
Collision energy: 10 ev
Column name: Agilent C8 Cartridge Column 2.1X30mm 3.5 micron (guard); Agilent SB-Aq 2.1x50mm 1.8 micron (analytical)
Retention time: 7.214
Base peak: 452
Precursor m/z: 484.1231
Precursor type: [M+H]+
m/z	relative intensity
208.1128	6
220.1147	7
221.1167	5
249.1399	6
251.1521	27
267.1448	7
437.0748	10
452.0961	999
452.162	51
452.2182	13
452.2435	5
452.2896	13
452.3799	10
452.4715	9
452.5662	8
452.7301	10
452.7889	7
452.866	11
452.9389	11
453.0101	6
453.1078	6
453.2257	6
484.1161	17
