Mass spectrum: 9-{6-[(6,7-dimethoxy-2-methyl-1,2,3,4-tetrahydroisoquinolin-1-yl)methyl]-2,3-dimethoxyphenoxy}-1,2,10-trimethoxy-6-methyl-5,6,6a,7-tetrahydro-4H-dibenzo[de,g]quinoline; LC-ESI-QTOF; MS; POSITIVE
Name: 9-{6-[(6,7-dimethoxy-2-methyl-1,2,3,4-tetrahydroisoquinolin-1-yl)methyl]-2,3-dimethoxyphenoxy}-1,2,10-trimethoxy-6-methyl-5,6,6a,7-tetrahydro-4H-dibenzo[de,g]quinoline
Formula: C41H48N2O8
Exact mass: 696.341067
SMILES: CN1CCC2=CC(=C(C3=C2C1CC4=CC(=C(C=C43)OC)OC5=C(C=CC(=C5OC)OC)CC6C7=CC(=C(C=C7CCN6C)OC)OC)OC)OC
InChI: InChI=1S/C41H48N2O8/c1-42-14-12-23-18-32(45-4)33(46-5)21-27(23)29(42)16-25-10-11-31(44-3)41(50-9)39(25)51-35-20-26-17-30-37-24(13-15-43(30)2)19-36(48-7)40(49-8)38(37)28(26)22-34(35)47-6/h10-11,18-22,29-30H,12-17H2,1-9H3
Instrument: Agilent 1200 RRLC; Agilent 6520 QTOF
Instrument type: LC-ESI-QTOF
Ms type: MS
Ion mode: POSITIVE
Column name: Agilent C8 Cartridge Column 2.1X30mm 3.5 micron (guard); Agilent SB-Aq 2.1x50mm 1.8 micron (analytical)
Retention time: 5.379
m/z	relative intensity
697.3483765	999
719.330318	622
