Mass spectrum: alpha-Codeimethine; LC-ESI-QTOF; MS2; CE 40 ev; [M+H]+
Name: alpha-Codeimethine
Formula: C19H23NO3
Exact mass: 313.167794
SMILES: CN(C)CCC12C3C=CC(C1OC4=C(C=CC(=C24)C=C3)OC)O
InChI: InChI=1S/C19H23NO3/c1-20(2)11-10-19-13-6-4-12-5-9-15(22-3)17(16(12)19)23-18(19)14(21)8-7-13/h4-9,13-14,18,21H,10-11H2,1-3H3
Instrument: Agilent 1200 RRLC; Agilent 6520 QTOF
Instrument type: LC-ESI-QTOF
Ms type: MS2
Ion mode: POSITIVE
Collision energy: 40 ev
Column name: Agilent C8 Cartridge Column 2.1X30mm 3.5 micron (guard); Agilent SB-Aq 2.1x50mm 1.8 micron (analytical)
Retention time: 3.506
Base peak: 165
Precursor m/z: 314.1751
Precursor type: [M+H]+
m/z	relative intensity
115.0558	138
121.0639	72
127.0514	87
128.0598	257
129.0728	101
137.056	56
141.0686	109
143.0839	56
144.058	188
152.0602	228
153.0695	450
154.081	95
155.0468	74
155.0889	204
156.0558	207
158.0752	93
159.0776	109
161.0592	140
164.065	61
165.0708	999
167.0836	77
168.0573	90
170.0406	106
171.0784	315
172.0537	61
172.0783	69
181.061	294
181.0992	58
182.0718	164
183.0403	87
183.0477	103
183.0756	151
185.0589	201
187.0761	79
190.081	98
191.0813	101
193.0608	98
194.0731	299
197.0623	56
198.0701	207
199.0727	183
201.0936	64
210.0606	122
211.0683	69
213.0962	53
223.0757	77
225.0889	109
241.0855	58
