Mass spectrum: trans-Zeatin; LC-ESI-QTOF; MS; NEGATIVE
Name: trans-Zeatin
Formula: C10H13N5O
Exact mass: 219.11201
SMILES: C/C(=C\CNC1=NC=NC2=C1NC=N2)/CO
InChI: InChI=1S/C10H13N5O/c1-7(4-16)2-3-11-9-8-10(13-5-12-8)15-6-14-9/h2,5-6,16H,3-4H2,1H3,(H2,11,12,13,14,15)/b7-2+
Instrument: Agilent 1200 RRLC; Agilent 6520 QTOF
Instrument type: LC-ESI-QTOF
Ms type: MS
Ion mode: NEGATIVE
Column name: Agilent C8 Cartridge Column 2.1X30mm 3.5 micron (guard); Agilent SB-Aq 2.1x50mm 1.8 micron (analytical)
Retention time: 3.241
m/z	relative intensity
218.1047235	999
