Mass spectrum: Ipriflavone; LC-ESI-QTOF; MS2; CE 10 ev; [M+H]+
Name: Ipriflavone
Formula: C18H16O3
Exact mass: 280.109944
SMILES: CC(C)OC1=CC2=C(C=C1)C(=O)C(=CO2)C3=CC=CC=C3
InChI: InChI=1S/C18H16O3/c1-12(2)21-14-8-9-15-17(10-14)20-11-16(18(15)19)13-6-4-3-5-7-13/h3-12H,1-2H3
Instrument: Agilent 1200 RRLC; Agilent 6520 QTOF
Instrument type: LC-ESI-QTOF
Ms type: MS2
Ion mode: POSITIVE
Collision energy: 10 ev
Column name: Agilent C8 Cartridge Column 2.1X30mm 3.5 micron (guard); Agilent SB-Aq 2.1x50mm 1.8 micron (analytical)
Retention time: 9.790
Base peak: 239
Precursor m/z: 281.1172
Precursor type: [M+H]+
m/z	relative intensity
102.045	16
239.0695	999
239.1148	31
281.1166	806
