Mass spectrum: Kinetin; LC-ESI-QTOF; MS2; CE 40 ev; [M+H]+
Name: Kinetin
Formula: C10H9N5O
Exact mass: 215.08071
SMILES: C1=COC(=C1)CNC2=NC=NC3=C2NC=N3
InChI: InChI=1S/C10H9N5O/c1-2-7(16-3-1)4-11-9-8-10(13-5-12-8)15-6-14-9/h1-3,5-6H,4H2,(H2,11,12,13,14,15)
Instrument: Agilent 1200 RRLC; Agilent 6520 QTOF
Instrument type: LC-ESI-QTOF
Ms type: MS2
Ion mode: POSITIVE
Collision energy: 40 ev
Column name: Agilent C8 Cartridge Column 2.1X30mm 3.5 micron (guard); Agilent SB-Aq 2.1x50mm 1.8 micron (analytical)
Retention time: 4.405
Base peak: 119
Precursor m/z: 216.0880
Precursor type: [M+H]+
m/z	relative intensity
104.0344	29
107.0607	16
108.0461	14
117.0425	20
118.0419	39
119.0347	999
119.0524	21
119.0647	29
119.0742	19
120.0421	38
121.0489	135
134.0621	20
135.069	29
136.0602	204
144.0554	24
145.045	22
145.0554	17
146.0569	21
148.0586	152
148.064	27
171.0593	13
172.061	77
173.0688	28
