Mass spectrum: Biochanin A; LC-ESI-QTOF; MS2; CE 40 ev; [M-H]-
Name: Biochanin A
Formula: C16H12O5
Exact mass: 284.068473
SMILES: COC1=CC=C(C=C1)C2=COC3=CC(=CC(=C3C2=O)O)O
InChI: InChI=1S/C16H12O5/c1-20-11-4-2-9(3-5-11)12-8-21-14-7-10(17)6-13(18)15(14)16(12)19/h2-8,17-18H,1H3
Instrument: Agilent 1200 RRLC; Agilent 6520 QTOF
Instrument type: LC-ESI-QTOF
Ms type: MS2
Ion mode: NEGATIVE
Collision energy: 40 ev
Column name: Agilent C8 Cartridge Column 2.1X30mm 3.5 micron (guard); Agilent SB-Aq 2.1x50mm 1.8 micron (analytical)
Retention time: 8.408
Base peak: 211
Precursor m/z: 283.0612
Precursor type: [M-H]-
m/z	relative intensity
104.027	124
104.0543	6
105.0356	19
107.0154	32
112.6482	7
117.0342	10
117.3468	5
127.0511	7
128.0644	6
130.0408	18
132.021	567
132.0536	13
132.0744	11
132.1291	11
134.0377	52
135.0065	102
141.032	5
142.044	38
143.0534	14
147.0048	16
151.0019	61
151.0604	7
152.0604	8
153.0344	9
154.0399	69
155.0479	25
156.0579	18
158.0335	8
166.0401	27
167.0489	173
167.087	6
168.0573	11
170.0397	25
171.0452	21
178.0408	14
179.0495	37
180.0563	33
182.0372	29
183.0434	129
184.0521	107
194.0368	19
195.0447	259
195.0913	12
196.0519	96
197.0239	32
198.0349	37
199.0459	21
200.0396	5
207.0801	7
210.0319	24
211.0398	999
211.0857	37
211.1319	11
211.1746	12
211.2794	5
211.3926	5
211.6107	5
212.0479	70
212.0913	7
222.0298	8
223.04	255
223.0859	9
223.1134	5
224.0486	71
225.021	7
226.0262	71
239.0347	989
239.0812	43
239.1408	8
239.1793	9
239.2208	5
239.2711	5
239.4677	5
239.8219	5
240.0166	6
240.0424	149
240.0905	7
240.1063	10
240.2566	6
250.0245	15
251.0388	16
267.0297	930
267.0878	14
267.1349	10
267.1822	11
267.2177	7
267.2814	6
267.3368	6
267.3686	5
267.5639	8
268.0132	9
268.036	315
268.0929	9
268.1307	7
268.2772	5
