Mass spectrum: 1,2,9,10-tetramethoxy-6-methyl-5,6-dihydro-4H-dibenzo[de,g]quinoline-7-carbaldehyde; LC-ESI-QTOF; MS2; CE 10 ev; [M+H]+
Name: 1,2,9,10-tetramethoxy-6-methyl-5,6-dihydro-4H-dibenzo[de,g]quinoline-7-carbaldehyde
Formula: C22H23NO5
Exact mass: 381.157623
SMILES: CN1CCC2=CC(=C(C3=C2C1=C(C4=CC(=C(C=C43)OC)OC)C=O)OC)OC
InChI: InChI=1S/C22H23NO5/c1-23-7-6-12-8-18(27-4)22(28-5)20-14-10-17(26-3)16(25-2)9-13(14)15(11-24)21(23)19(12)20/h8-11H,6-7H2,1-5H3
Instrument: Agilent 1200 RRLC; Agilent 6520 QTOF
Instrument type: LC-ESI-QTOF
Ms type: MS2
Ion mode: POSITIVE
Collision energy: 10 ev
Column name: Agilent C8 Cartridge Column 2.1X30mm 3.5 micron (guard); Agilent SB-Aq 2.1x50mm 1.8 micron (analytical)
Retention time: 9.329
Base peak: 382
Precursor m/z: 382.1649
Precursor type: [M+H]+
m/z	relative intensity
308.1266	10
323.117	6
323.1439	17
324.1126	7
338.1169	7
339.1371	10
351.1445	36
351.177	6
352.1162	17
352.1432	10
353.1624	15
354.1705	40
364.1541	21
365.1542	13
366.1366	27
367.1349	106
367.1827	11
381.1533	60
382.162	999
