Mass spectrum: Ginkgolide A; LC-ESI-QTOF; MS2; CE 20 ev; [M+H]+
Name: Ginkgolide A
Formula: C20H24O9
Exact mass: 408.142032
SMILES: CC1C(=O)OC2C1(C34C(=O)OC5C3(C2)C6(C(C5)C(C)(C)C)C(C(=O)OC6O4)O)O
InChI: InChI=1S/C20H24O9/c1-7-12(22)26-10-6-17-9-5-8(16(2,3)4)18(17)11(21)13(23)28-15(18)29-20(17,14(24)27-9)19(7,10)25/h7-11,15,21,25H,5-6H2,1-4H3
Instrument: Agilent 1200 RRLC; Agilent 6520 QTOF
Instrument type: LC-ESI-QTOF
Ms type: MS2
Ion mode: POSITIVE
Collision energy: 20 ev
Column name: Agilent C8 Cartridge Column 2.1X30mm 3.5 micron (guard); Agilent SB-Aq 2.1x50mm 1.8 micron (analytical)
Retention time: 5.259
Base peak: 327
Precursor m/z: 409.1493
Precursor type: [M+H]+
m/z	relative intensity
253.1219	922
255.1325	948
287.0861	897
299.1352	743
317.1422	717
327.1166	692
327.1356	999
345.1272	999
409.1588	615
