Mass spectrum: (6aS)-1,2,9,10-tetramethoxy-6-methyl-5,6,6a,7-tetrahydro-4H-dibenzo[de,g]quinoline-3-carbaldehyde; LC-ESI-QTOF; MS2; CE 40 ev; [M+H]+
Name: (6aS)-1,2,9,10-tetramethoxy-6-methyl-5,6,6a,7-tetrahydro-4H-dibenzo[de,g]quinoline-3-carbaldehyde
Formula: C22H25NO5
Exact mass: 383.173273
SMILES: CN1CCC2=C(C(=C(C3=C2[C@@H]1CC4=CC(=C(C=C43)OC)OC)OC)OC)C=O
InChI: InChI=1S/C22H25NO5/c1-23-7-6-13-15(11-24)21(27-4)22(28-5)20-14-10-18(26-3)17(25-2)9-12(14)8-16(23)19(13)20/h9-11,16H,6-8H2,1-5H3/t16-/m0/s1
Instrument: Agilent 1200 RRLC; Agilent 6520 QTOF
Instrument type: LC-ESI-QTOF
Ms type: MS2
Ion mode: POSITIVE
Collision energy: 40 ev
Column name: Agilent C8 Cartridge Column 2.1X30mm 3.5 micron (guard); Agilent SB-Aq 2.1x50mm 1.8 micron (analytical)
Retention time: 5.665
Base peak: 295
Precursor m/z: 384.1806
Precursor type: [M+H]+
m/z	relative intensity
153.0678	40
165.0673	67
166.0751	25
167.0794	26
169.0599	20
176.0602	19
177.0695	41
178.069	24
178.0816	24
179.0856	80
181.0615	26
181.099	22
189.069	51
190.0819	42
191.08	95
193.1006	26
194.0713	53
195.0774	89
195.0834	19
196.0764	22
196.0897	30
197.1024	20
203.079	28
203.0932	27
204.0899	24
205.0641	42
206.0736	23
207.0806	100
208.0846	110
209.0601	30
209.0967	73
210.0773	19
211.0767	57
211.1104	24
212.0738	45
215.0861	28
217.0626	26
218.0675	62
219.0785	163
220.0512	20
220.0893	107
221.0917	98
222.0593	19
223.0785	73
223.1057	121
224.0799	241
225.0919	41
226.0966	21
227.1034	85
231.0646	19
231.0869	29
232.0863	26
233.0524	24
233.0986	122
234.0632	126
234.0892	18
235.0716	103
235.1011	43
236.0801	258
236.1088	30
237.0534	40
237.0851	127
238.0674	25
239.0713	24
239.1028	387
240.0741	37
241.0802	29
246.0656	35
247.0741	144
248.0758	19
248.0942	22
249.0897	123
249.1155	31
250.0583	41
250.0934	62
251.0716	65
251.1021	310
252.074	94
252.1146	30
253.1026	34
253.1235	23
254.0911	73
255.0999	120
261.0832	120
261.0959	51
261.1114	41
262.0621	70
262.0902	85
262.1124	17
263.0624	27
263.0799	108
263.111	41
264.0698	76
264.0833	86
264.1231	31
264.1454	24
265.0439	23
265.0807	113
265.1006	77
265.1264	40
266.0528	33
266.0915	62
267.099	528
267.1314	27
267.1456	21
268.0715	25
269.0811	19
269.1179	201
270.0919	28
274.081	28
275.0664	19
275.0859	40
276.0762	47
276.0999	29
277.0871	283
278.0869	128
278.1215	30
279.045	18
279.1008	601
280.0623	19
280.0774	55
280.1017	94
280.1346	21
281.0662	19
281.087	23
281.1121	94
281.1241	23
282.078	24
282.1207	195
283.0928	327
285.1069	29
287.0859	38
288.0912	30
289.0854	296
289.1264	40
290.0764	41
290.1153	27
291.073	48
291.0991	78
291.1278	45
292.0863	75
292.1066	18
292.1385	31
293.0718	49
293.103	203
293.1395	19
294.0799	42
294.1208	188
295.0931	999
295.5315	17
296.0981	24
297.1128	31
298.1153	111
298.1423	26
301.0997	18
303.0807	25
304.0953	86
304.1234	21
305.0794	170
305.1012	69
306.0766	28
306.1142	55
307.0816	30
307.0975	251
307.1744	25
308.1234	395
308.1486	19
309.1077	73
310.1102	76
310.1266	68
310.1478	18
311.089	116
311.1105	58
313.1025	18
313.1403	218
318.1073	71
319.1158	57
320.0888	56
320.1284	99
321.1061	76
322.0827	19
322.1137	94
323.0854	308
324.0832	119
324.1236	28
325.1355	78
326.1266	63
334.1074	115
334.137	102
335.1116	187
335.1563	21
336.1191	343
336.1517	19
336.17	17
337.1146	22
338.1059	94
339.1061	100
350.1405	96
352.1143	33
353.1316	27
354.1293	405
354.1768	45
