Mass spectrum: 1,2,6,6,10,17,20-heptamethyl-12-oxo-17-[(6-oxo-7,11-diazatricyclo[7.3.1.0<2,7> ]trideca-2,4-dien-11-yl)carbonyl]pentacyclo[12.8.0.0<2,11>.0<5,10>.0<15,20>]do cos-13-en-7-yl acetate; LC-ESI-QTOF; MS; POSITIVE
Name: 1,2,6,6,10,17,20-heptamethyl-12-oxo-17-[(6-oxo-7,11-diazatricyclo[7.3.1.0<2,7> ]trideca-2,4-dien-11-yl)carbonyl]pentacyclo[12.8.0.0<2,11>.0<5,10>.0<15,20>]do cos-13-en-7-yl acetate
Formula: C43H60N2O5
Exact mass: 684.450223
SMILES: CC(=O)OC1CCC2(C(C1(C)C)CCC3(C2C(=O)C=C4C3(CCC5(C4CC(CC5)(C)C(=O)N6CC7CC(C6)C8=CC=CC(=O)N8C7)C)C)C)C
InChI: InChI=1S/C43H60N2O5/c1-26(46)50-34-13-14-41(6)33(38(34,2)3)12-15-43(8)36(41)32(47)21-29-30-22-40(5,17-16-39(30,4)18-19-42(29,43)7)37(49)44-23-27-20-28(25-44)31-10-9-11-35(48)45(31)24-27/h9-11,21,27-28,30,33-34,36H,12-20,22-25H2,1-8H3
Instrument: Agilent 1200 RRLC; Agilent 6520 QTOF
Instrument type: LC-ESI-QTOF
Ms type: MS
Ion mode: POSITIVE
Column name: Agilent C8 Cartridge Column 2.1X30mm 3.5 micron (guard); Agilent SB-Aq 2.1x50mm 1.8 micron (analytical)
Retention time: 12.229
m/z	relative intensity
685.4574765	583
707.439418	999
