Mass spectrum: 3-(2-Naphthyl)-D-alanine; LC-APCI-QTOF; MS; POSITIVE
Name: 3-(2-Naphthyl)-D-alanine
Formula: C13H13NO2
Exact mass: 215.094629
SMILES: C1=CC=C2C=C(C=CC2=C1)CC(C(=O)O)N
InChI: InChI=1S/C13H13NO2/c14-12(13(15)16)8-9-5-6-10-3-1-2-4-11(10)7-9/h1-7,12H,8,14H2,(H,15,16)
Instrument: Agilent 1200 RRLC; Agilent 6520 QTOF
Instrument type: LC-APCI-QTOF
Ms type: MS
Ion mode: POSITIVE
Column name: Agilent C8 Cartridge Column 2.1X30mm 3.5 micron (guard); Agilent SB-Aq 2.1x50mm 1.8 micron (analytical)
Retention time: 3.519
m/z	relative intensity
216.1018765	999
