Mass spectrum: Tyrosine; LC-ESI-QTOF; MS2; CE 10 ev; [M-H]-
Name: Tyrosine
Formula: C9H11NO3
Exact mass: 181.073893
SMILES: C1=CC(=CC=C1CC(C(=O)O)N)O
InChI: InChI=1S/C9H11NO3/c10-8(9(12)13)5-6-1-3-7(11)4-2-6/h1-4,8,11H,5,10H2,(H,12,13)
Instrument: Agilent 1200 RRLC; Agilent 6520 QTOF
Instrument type: LC-ESI-QTOF
Ms type: MS2
Ion mode: NEGATIVE
Collision energy: 10 ev
Column name: Agilent C8 Cartridge Column 2.1X30mm 3.5 micron (guard); Agilent SB-Aq 2.1x50mm 1.8 micron (analytical)
Retention time: 0.389
Base peak: 180
Precursor m/z: 180.0666
Precursor type: [M-H]-
m/z	relative intensity
106.0423	8
106.4527	3
107.0488	10
108.5559	2
119.0512	213
119.0803	5
119.0889	4
119.102	5
119.4995	2
136.0761	37
162.0514	3
163.0397	404
163.0752	14
163.0945	3
163.1298	4
163.1583	5
163.2274	5
163.294	3
163.4411	4
163.5873	2
163.7091	3
164.0121	3
180.0662	999
