Mass spectrum: 8-Chlro-1-tetrahydronorharmanone; LC-ESI-QTOF; MS2; CE 10 ev; [M-H]-
Name: 8-Chlro-1-tetrahydronorharmanone
Formula: C11H9ClN2O
Exact mass: 220.040341
SMILES: C1CNC(=O)C2=C1C3=C(N2)C(=CC=C3)Cl
InChI: InChI=1S/C11H9ClN2O/c12-8-3-1-2-6-7-4-5-13-11(15)10(7)14-9(6)8/h1-3,14H,4-5H2,(H,13,15)
Instrument: Agilent 1200 RRLC; Agilent 6520 QTOF
Instrument type: LC-ESI-QTOF
Ms type: MS2
Ion mode: NEGATIVE
Collision energy: 10 ev
Column name: Agilent C8 Cartridge Column 2.1X30mm 3.5 micron (guard); Agilent SB-Aq 2.1x50mm 1.8 micron (analytical)
Retention time: 7.067
Base peak: 219
Precursor m/z: 219.0330
Precursor type: [M-H]-
m/z	relative intensity
175.2134	20
185.2403	18
205.8704	18
218.0132	21
218.9634	23
219.0317	999
