Mass spectrum: Reserpine; LC-ESI-QTOF; MS2; CE 40 ev; [M+H]+
Name: Reserpine
Name: 3,8-dimethoxy-4-(methoxycarbonyl)-1,2,3,4,5,11,14,14a,4a,5a-decahydrobenzo[3,4 -g]indolo[2,3-a]quinolizin-2-yl 3,4,5-trimethoxybenzoate
Formula: C33H40N2O9
Exact mass: 608.273381
SMILES: CO[C@H]1[C@@H](C[C@@H]2CN3CCC4=C([C@H]3C[C@@H]2[C@@H]1C(=O)OC)NC5=C4C=CC(=C5)OC)OC(=O)C6=CC(=C(C(=C6)OC)OC)OC
InChI: InChI=1S/C33H40N2O9/c1-38-19-7-8-20-21-9-10-35-16-18-13-27(44-32(36)17-11-25(39-2)30(41-4)26(12-17)40-3)31(42-5)28(33(37)43-6)22(18)15-24(35)29(21)34-23(20)14-19/h7-8,11-12,14,18,22,24,27-28,31,34H,9-10,13,15-16H2,1-6H3/t18-,22+,24-,27-,28+,31+/m1/s1
Instrument: Agilent 1200 RRLC; Agilent 6520 QTOF
Instrument type: LC-ESI-QTOF
Ms type: MS2
Ion mode: POSITIVE
Collision energy: 40 ev
Column name: Agilent C8 Cartridge Column 2.1X30mm 3.5 micron (guard); Agilent SB-Aq 2.1x50mm 1.8 micron (analytical)
Retention time: 7.531
Base peak: 195
Precursor m/z: 609.2807
Precursor type: [M+H]+
m/z	relative intensity
101.0572	9
102.0567	12
104.9897	7
105.0307	7
106.0631	10
108.0561	8
109.0688	9
111.0425	43
111.0808	12
112.0821	15
115.0519	8
117.0662	11
118.0676	18
120.0747	12
121.0522	7
121.0668	5
122.0341	14
122.0678	9
122.08	6
124.0498	9
129.0565	5
130.0637	20
131.0718	15
132.082	12
135.0427	7
137.0594	9
137.0901	7
139.0736	39
142.0595	9
143.0455	12
143.072	24
144.0766	7
146.1011	6
147.0859	7
148.0676	18
148.0795	28
152.0436	19
158.0605	5
159.0666	51
160.0787	22
161.0752	6
161.089	9
167.0697	24
169.0864	6
172.0711	18
173.0776	7
174.089	857
174.1262	32
174.1533	14
174.2097	10
174.3616	5
174.4137	7
174.5418	7
174.6068	6
174.7998	6
175.0767	10
176.111	12
178.0842	36
179.0636	10
185.0793	7
186.0858	12
188.1051	49
189.0788	10
189.0968	5
190.0882	10
192.1024	116
192.1479	6
195.0639	999
195.1101	18
195.1604	5
195.1945	11
195.236	8
195.3141	8
195.3684	12
195.4552	6
195.4748	5
195.5112	6
195.5426	9
195.5929	8
195.6166	5
196.0733	13
198.0829	10
199.0987	11
200.1039	45
200.118	6
204.0827	5
204.1042	24
210.0874	15
212.1121	19
214.1055	7
214.1201	10
215.1166	23
216.118	10
216.9319	6
222.1159	9
223.0967	6
224.118	16
224.127	46
226.1271	12
227.114	10
229.1368	14
235.0949	5
236.1286	81
236.1734	7
237.1146	16
238.1177	7
247.0989	11
250.1266	5
251.1251	21
255.1176	8
263.1031	5
264.1202	17
274.1272	13
276.1419	16
276.4838	6
278.1168	6
281.1512	7
288.143	24
289.1386	9
290.1105	14
291.1517	6
293.1548	8
302.1061	7
304.1421	8
305.1672	20
309.1298	8
322.1421	13
333.1608	12
336.1576	41
337.1888	8
347.1739	8
348.1596	12
351.1634	6
352.1809	7
365.1813	97
366.1272	10
366.161	10
366.208	6
368.1533	18
368.1903	20
369.1793	13
381.1828	11
382.1796	12
382.2013	10
395.176	9
397.2123	146
402.1502	7
403.6421	6
413.2145	9
434.176	18
436.1889	7
436.2115	9
448.2017	96
516.1788	6
577.2514	23
609.2797	31
