Mass spectrum: 2',6-Dihydroxyflavanone; LC-ESI-QTOF; MS2; CE 40 ev; [M-H]-
Name: 2',6-Dihydroxyflavanone
Formula: C15H12O4
Exact mass: 256.073559
SMILES: C1C(OC2=C(C1=O)C=C(C=C2)O)C3=CC=CC=C3O
InChI: InChI=1S/C15H12O4/c16-9-5-6-14-11(7-9)13(18)8-15(19-14)10-3-1-2-4-12(10)17/h1-7,15-17H,8H2
Instrument: Agilent 1200 RRLC; Agilent 6520 QTOF
Instrument type: LC-ESI-QTOF
Ms type: MS2
Ion mode: NEGATIVE
Collision energy: 40 ev
Column name: Agilent C8 Cartridge Column 2.1X30mm 3.5 micron (guard); Agilent SB-Aq 2.1x50mm 1.8 micron (analytical)
Retention time: 6.828
Base peak: 119
Precursor m/z: 255.0663
Precursor type: [M-H]-
m/z	relative intensity
105.0405	6
107.0129	10
108.0218	307
108.0518	7
108.1186	6
109.028	128
117.0335	88
117.0408	5
117.0644	7
119.0502	999
119.0822	34
119.1	19
119.1146	6
119.1314	6
119.151	13
119.1823	6
119.574	6
119.7151	5
119.7305	5
121.0306	12
133.0299	12
149.026	20
160.0122	26
160.0223	8
161.0231	33
195.0409	6
209.053	17
