Mass spectrum: 5-Methylcytidine; LC-ESI-QTOF; MS2; CE 20 ev; [M+H]+
Name: 5-Methylcytidine
Formula: C10H15N3O5
Exact mass: 257.101171
SMILES: CC1=CN(C(=O)N=C1N)C2C(C(C(O2)CO)O)O
InChI: InChI=1S/C10H15N3O5/c1-4-2-13(10(17)12-8(4)11)9-7(16)6(15)5(3-14)18-9/h2,5-7,9,14-16H,3H2,1H3,(H2,11,12,17)
Instrument: Agilent 1200 RRLC; Agilent 6520 QTOF
Instrument type: LC-ESI-QTOF
Ms type: MS2
Ion mode: POSITIVE
Collision energy: 20 ev
Column name: Agilent C8 Cartridge Column 2.1X30mm 3.5 micron (guard); Agilent SB-Aq 2.1x50mm 1.8 micron (analytical)
Retention time: 0.389
Base peak: 126
Precursor m/z: 258.1085
Precursor type: [M+H]+
m/z	relative intensity
101.9486	2
108.0545	14
109.04	26
109.0735	1
115.043	1
126.0661	999
126.0993	26
126.1199	11
126.1409	3
126.1698	16
126.2245	3
126.3132	2
126.3287	1
126.3506	1
126.3806	1
126.4074	2
126.4639	2
126.513	1
126.5454	2
126.5767	1
126.6404	1
126.6768	1
126.7347	1
126.8027	1
126.918	1
127.0712	2
