Mass spectrum: 4-Hydroxy-2',3,4',6'-tetramethoxychalcone; LC-ESI-QTOF; MS2; CE 20 ev; [M-H]-
Name: 4-Hydroxy-2',3,4',6'-tetramethoxychalcone
Formula: C19H20O6
Exact mass: 344.125988
SMILES: COC1=CC(=C(C(=C1)OC)C(=O)/C=C/C2=CC(=C(C=C2)O)OC)OC
InChI: InChI=1S/C19H20O6/c1-22-13-10-17(24-3)19(18(11-13)25-4)15(21)8-6-12-5-7-14(20)16(9-12)23-2/h5-11,20H,1-4H3/b8-6+
Instrument: Agilent 1200 RRLC; Agilent 6520 QTOF
Instrument type: LC-ESI-QTOF
Ms type: MS2
Ion mode: NEGATIVE
Collision energy: 20 ev
Column name: Agilent C8 Cartridge Column 2.1X30mm 3.5 micron (guard); Agilent SB-Aq 2.1x50mm 1.8 micron (analytical)
Retention time: 7.788
Base peak: 328
Precursor m/z: 343.1187
Precursor type: [M-H]-
m/z	relative intensity
100.0502	2
103.3059	2
104.027	2
105.0305	5
120.0177	2
123.8303	3
131.0205	2
133.0319	3
139.0362	3
147.0462	3
148.0458	2
160.0198	5
165.0178	3
166.0372	2
175.0299	2
177.0186	2
177.0526	2
179.0371	3
183.0441	2
191.8916	2
195.7834	2
198.0256	4
207.0499	2
211.041	3
212.0432	3
214.0531	2
222.0311	10
225.0543	3
226.0214	2
233.5422	4
237.0579	17
239.0262	3
240.0771	2
242.0589	2
249.0176	10
249.0451	3
251.0467	2
253.048	14
254.0557	18
255.0341	10
257.0973	3
257.4668	4
266.0213	11
267.0408	3
269.0393	3
269.0558	2
269.0821	24
269.1001	2
269.1258	2
270.0525	8
274.1666	2
281.0472	39
281.1022	2
282.0657	5
283.0264	8
283.059	5
285.0779	14
295.0665	2
296.0615	2
296.0783	2
297.0708	6
298.0127	2
298.0487	41
299.0932	2
300.0906	2
300.0987	6
311.1115	3
313.0714	64
313.1178	3
328.0944	999
328.1488	40
328.1725	15
328.2137	9
328.2363	3
328.2637	12
328.291	2
328.3242	5
328.3563	5
328.4019	4
328.4208	4
328.4731	4
328.5134	3
328.5383	4
328.6002	2
328.6387	3
328.6691	4
328.7045	6
328.7319	2
328.7705	2
328.7998	4
328.814	3
328.8563	3
328.883	3
328.939	4
328.9909	4
329.0376	2
329.0904	6
329.1346	4
329.1829	2
329.2396	4
329.2716	2
329.3042	3
329.3482	2
329.3866	3
329.4194	2
329.5216	2
329.5672	2
329.6429	2
329.6988	2
330.2088	2
343.117	198
