Mass spectrum: Cycloheximide; LC-ESI-QTOF; MS2; CE 20 ev; [M+H]+
Name: Cycloheximide
Formula: C15H23NO4
Exact mass: 281.162708
SMILES: C[C@H]1C[C@@H](C(=O)[C@@H](C1)[C@@H](CC2CC(=O)NC(=O)C2)O)C
InChI: InChI=1S/C15H23NO4/c1-8-3-9(2)15(20)11(4-8)12(17)5-10-6-13(18)16-14(19)7-10/h8-12,17H,3-7H2,1-2H3,(H,16,18,19)/t8-,9-,11-,12+/m0/s1
Instrument: Agilent 1200 RRLC; Agilent 6520 QTOF
Instrument type: LC-ESI-QTOF
Ms type: MS2
Ion mode: POSITIVE
Collision energy: 20 ev
Column name: Agilent C8 Cartridge Column 2.1X30mm 3.5 micron (guard); Agilent SB-Aq 2.1x50mm 1.8 micron (analytical)
Retention time: 5.689
Base peak: 247
Precursor m/z: 282.1700
Precursor type: [M+H]+
m/z	relative intensity
107.0453	297
107.086	445
112.0393	138
121.0264	480
121.0669	143
121.0909	173
123.0768	138
125.0983	257
129.0631	163
131.0849	302
133.0564	119
133.1026	213
135.0774	163
135.1175	223
136.0754	168
137.0915	168
138.051	341
138.0891	124
143.0813	331
145.1022	183
147.0806	272
149.0629	218
149.0918	168
153.0575	168
153.0938	232
155.0828	287
156.0594	129
157.0983	396
159.1155	796
161.0904	158
161.1278	163
166.0924	104
169.0943	109
170.101	193
173.1288	603
175.1031	183
177.0834	178
177.1313	371
181.0427	158
183.1073	163
183.1221	148
187.0687	134
187.1105	747
189.0913	252
201.1293	495
202.1215	178
203.1362	183
205.1213	336
211.1065	396
218.1551	242
219.135	331
228.1361	114
229.1201	554
246.1492	440
247.1305	999
264.1606	208
