Mass spectrum: Flindersine; LC-ESI-QTOF; MS2; CE 10 ev; [M+H]+
Name: Flindersine
Formula: C14H13NO2
Exact mass: 227.094629
SMILES: CC1(C=CC2=C(O1)C3=CC=CC=C3NC2=O)C
InChI: InChI=1S/C14H13NO2/c1-14(2)8-7-10-12(17-14)9-5-3-4-6-11(9)15-13(10)16/h3-8H,1-2H3,(H,15,16)
Instrument: Agilent 1200 RRLC; Agilent 6520 QTOF
Instrument type: LC-ESI-QTOF
Ms type: MS2
Ion mode: POSITIVE
Collision energy: 10 ev
Column name: Agilent C8 Cartridge Column 2.1X30mm 3.5 micron (guard); Agilent SB-Aq 2.1x50mm 1.8 micron (analytical)
Retention time: 8.328
Base peak: 228
Precursor m/z: 228.1019
Precursor type: [M+H]+
m/z	relative intensity
130.0617	3
132.0455	3
158.0596	6
162.0507	2
168.043	3
170.0572	4
172.5361	4
174.0529	33
186.0537	68
186.0901	20
186.1186	3
192.0804	2
198.0536	2
200.1042	14
200.1142	3
210.0889	26
213.0733	5
228.1007	999
