Mass spectrum: Seneciphylline; LC-ESI-QTOF; MS2; CE 40 ev; [M+H]+
Name: Seneciphylline
Formula: C18H23NO5
Exact mass: 333.157623
SMILES: CC=C1CC(=C)C(C(=O)OCC2=CCN3C2C(CC3)OC1=O)(C)O
InChI: InChI=1S/C18H23NO5/c1-4-12-9-11(2)18(3,22)17(21)23-10-13-5-7-19-8-6-14(15(13)19)24-16(12)20/h4-5,14-15,22H,2,6-10H2,1,3H3
Instrument: Agilent 1200 RRLC; Agilent 6520 QTOF
Instrument type: LC-ESI-QTOF
Ms type: MS2
Ion mode: POSITIVE
Collision energy: 40 ev
Column name: Agilent C8 Cartridge Column 2.1X30mm 3.5 micron (guard); Agilent SB-Aq 2.1x50mm 1.8 micron (analytical)
Retention time: 2.920
Base peak: 120
Precursor m/z: 334.1649
Precursor type: [M+H]+
m/z	relative intensity
103.0553	159
103.0602	147
106.0708	131
107.0714	115
108.0805	222
109.0642	333
110.0951	230
118.0633	452
120.0797	999
121.0654	167
122.1017	151
123.078	254
133.064	111
138.0898	579
140.1057	83
151.0748	103
306.1573	95
