Mass spectrum: 2-{2-benzimidazol-2-yl-1-[(4-methylphenyl)methyl]ethyl}benzimidazole; LC-ESI-QTOF; MS2; CE 20 ev; [M+H]+
Name: 2-{2-benzimidazol-2-yl-1-[(4-methylphenyl)methyl]ethyl}benzimidazole
Formula: C24H22N4
Exact mass: 366.184447
SMILES: CC1=CC=C(C=C1)CC(CC2=NC3=CC=CC=C3N2)C4=NC5=CC=CC=C5N4
InChI: InChI=1S/C24H22N4/c1-16-10-12-17(13-11-16)14-18(24-27-21-8-4-5-9-22(21)28-24)15-23-25-19-6-2-3-7-20(19)26-23/h2-13,18H,14-15H2,1H3,(H,25,26)(H,27,28)
Instrument: Agilent 1200 RRLC; Agilent 6520 QTOF
Instrument type: LC-ESI-QTOF
Ms type: MS2
Ion mode: POSITIVE
Collision energy: 20 ev
Column name: Agilent C8 Cartridge Column 2.1X30mm 3.5 micron (guard); Agilent SB-Aq 2.1x50mm 1.8 micron (analytical)
Retention time: 7.064
Base peak: 367
Precursor m/z: 367.1917
Precursor type: [M+H]+
m/z	relative intensity
119.0601	53
131.0606	11
132.0718	10
144.0712	13
157.0743	26
235.1251	27
236.1269	19
249.137	299
249.1839	14
261.1146	69
262.1201	197
262.169	10
367.1898	999
367.3137	15
367.3634	17
