Mass spectrum: L-Tryptophan; LC-ESI-QTOF; MS2; CE 20 ev; [M-H]-
Name: L-Tryptophan
Formula: C11H12N2O2
Exact mass: 204.089878
SMILES: C1=CC=C2C(=C1)C(=CN2)CC(C(=O)O)N
InChI: InChI=1S/C11H12N2O2/c12-9(11(14)15)5-7-6-13-10-4-2-1-3-8(7)10/h1-4,6,9,13H,5,12H2,(H,14,15)
Instrument: Agilent 1200 RRLC; Agilent 6520 QTOF
Instrument type: LC-ESI-QTOF
Ms type: MS2
Ion mode: NEGATIVE
Collision energy: 20 ev
Column name: Agilent C8 Cartridge Column 2.1X30mm 3.5 micron (guard); Agilent SB-Aq 2.1x50mm 1.8 micron (analytical)
Retention time: 1.255
Base peak: 116
Precursor m/z: 203.0826
Precursor type: [M-H]-
m/z	relative intensity
116.0506	999
116.0797	33
116.0905	19
116.1548	20
124.6606	30
130.0602	102
142.0669	336
142.1045	18
157.0819	16
159.0905	27
160.9057	18
184.9786	20
203.0784	27
