Mass spectrum: 7-Benzyloxygramine; LC-ESI-QTOF; MS; POSITIVE
Name: 7-Benzyloxygramine
Formula: C18H20N2O
Exact mass: 280.157563
SMILES: CN(C)CC1=CNC2=C1C=CC=C2OCC3=CC=CC=C3
InChI: InChI=1S/C18H20N2O/c1-20(2)12-15-11-19-18-16(15)9-6-10-17(18)21-13-14-7-4-3-5-8-14/h3-11,19H,12-13H2,1-2H3
Instrument: Agilent 1200 RRLC; Agilent 6520 QTOF
Instrument type: LC-ESI-QTOF
Ms type: MS
Ion mode: POSITIVE
Column name: Agilent C8 Cartridge Column 2.1X30mm 3.5 micron (guard); Agilent SB-Aq 2.1x50mm 1.8 micron (analytical)
Retention time: 5.460
m/z	relative intensity
281.1648765	999
303.146818	194
