Mass spectrum: 3',6-Dimethylflavone; LC-ESI-QTOF; MS; POSITIVE
Name: 3',6-Dimethylflavone
Formula: C17H14O2
Exact mass: 250.09938
SMILES: CC1=CC2=C(C=C1)OC(=CC2=O)C3=CC(=CC=C3)C
InChI: InChI=1S/C17H14O2/c1-11-4-3-5-13(8-11)17-10-15(18)14-9-12(2)6-7-16(14)19-17/h3-10H,1-2H3
Instrument: Agilent 1200 RRLC; Agilent 6520 QTOF
Instrument type: LC-ESI-QTOF
Ms type: MS
Ion mode: POSITIVE
Column name: Agilent C8 Cartridge Column 2.1X30mm 3.5 micron (guard); Agilent SB-Aq 2.1x50mm 1.8 micron (analytical)
Retention time: 10.217
m/z	relative intensity
251.1066765	801
273.088618	999
