Mass spectrum: 6-Fluoro-DL-tryptophan; LC-ESI-QTOF; MS2; CE 10 ev; [M+H]+
Name: 6-Fluoro-DL-tryptophan
Formula: C11H11FN2O2
Exact mass: 222.080456
SMILES: C1=CC2=C(C=C1F)NC=C2CC(C(=O)O)N
InChI: InChI=1S/C11H11FN2O2/c12-7-1-2-8-6(3-9(13)11(15)16)5-14-10(8)4-7/h1-2,4-5,9,14H,3,13H2,(H,15,16)
Instrument: Agilent 1200 RRLC; Agilent 6520 QTOF
Instrument type: LC-ESI-QTOF
Ms type: MS2
Ion mode: POSITIVE
Collision energy: 10 ev
Column name: Agilent C8 Cartridge Column 2.1X30mm 3.5 micron (guard); Agilent SB-Aq 2.1x50mm 1.8 micron (analytical)
Retention time: 1.641
Base peak: 206
Precursor m/z: 223.0878
Precursor type: [M+H]+
m/z	relative intensity
109.0452	24
133.0497	14
135.048	8
136.0558	122
145.0068	11
148.0539	11
150.0697	55
160.054	18
162.0705	113
164.0501	888
164.0808	16
164.0879	11
164.1171	12
164.1673	11
177.0809	113
178.0637	12
188.0508	40
206.0604	999
206.1013	25
206.1228	8
206.1937	8
207.0626	9
223.0147	10
