Mass spectrum: 3-[(4-methylphenyl)sulfonyl]-1,2,3,4,5,6-hexahydro-8H-1,5-methanopyrido[1,2-a][1,5]diazocin-8-one, 11-[(4-methylphenyl)sulfonyl]-7,11-diazatricyclo[7.3.1.0<2,7>]trideca-2,4-dien -6-one; LC-ESI-QTOF; MS2; CE 40 ev; [M+H]+
Name: 3-[(4-methylphenyl)sulfonyl]-1,2,3,4,5,6-hexahydro-8H-1,5-methanopyrido[1,2-a][1,5]diazocin-8-one, 11-[(4-methylphenyl)sulfonyl]-7,11-diazatricyclo[7.3.1.0<2,7>]trideca-2,4-dien -6-one
Formula: C18H20N2O3S
Exact mass: 344.119464
SMILES: CC1=CC=C(C=C1)S(=O)(=O)N2CC3CC(C2)C4=CC=CC(=O)N4C3
InChI: InChI=1S/C18H20N2O3S/c1-13-5-7-16(8-6-13)24(22,23)19-10-14-9-15(12-19)17-3-2-4-18(21)20(17)11-14/h2-8,14-15H,9-12H2,1H3
Instrument: Agilent 1200 RRLC; Agilent 6520 QTOF
Instrument type: LC-ESI-QTOF
Ms type: MS2
Ion mode: POSITIVE
Collision energy: 40 ev
Column name: Agilent C8 Cartridge Column 2.1X30mm 3.5 micron (guard); Agilent SB-Aq 2.1x50mm 1.8 micron (analytical)
Retention time: 6.766
Base peak: 146
Precursor m/z: 345.1268
Precursor type: [M+H]+
m/z	relative intensity
109.052	219
109.0797	12
110.0575	20
117.0578	21
118.0575	14
118.0674	19
122.056	13
131.0668	14
131.0761	26
133.0536	27
134.06	214
146.0594	999
146.0916	40
146.11	21
147.0675	521
147.1034	22
148.0724	60
148.077	29
155.0163	293
159.0669	42
160.0742	75
161.0804	14
189.1001	21
198.0598	37
345.1255	93
