Mass spectrum: Nebularine; LC-ESI-QTOF; MS2; CE 10 ev; [M+H]+
Name: Nebularine
Formula: C10H12N4O4
Exact mass: 252.085855
SMILES: C1=C2C(=NC=N1)N(C=N2)C3C(C(C(O3)CO)O)O
InChI: InChI=1S/C10H12N4O4/c15-2-6-7(16)8(17)10(18-6)14-4-13-5-1-11-3-12-9(5)14/h1,3-4,6-8,10,15-17H,2H2
Instrument: Agilent 1200 RRLC; Agilent 6520 QTOF
Instrument type: LC-ESI-QTOF
Ms type: MS2
Ion mode: POSITIVE
Collision energy: 10 ev
Column name: Agilent C8 Cartridge Column 2.1X30mm 3.5 micron (guard); Agilent SB-Aq 2.1x50mm 1.8 micron (analytical)
Retention time: 1.825
Base peak: 136
Precursor m/z: 253.0932
Precursor type: [M+H]+
m/z	relative intensity
117.0549	9
119.0358	14
121.0509	572
121.076	22
121.0987	11
136.0612	999
136.0934	32
136.1133	21
136.1446	10
136.1694	9
137.0628	92
173.9619	8
181.0073	10
192.9596	18
193.9632	13
252.1101	13
253.1072	20
