Mass spectrum: (S)-(-)-Perillic acid; LC-ESI-QTOF; MS2; CE 10 ev; [M-H]-
Name: (S)-(-)-Perillic acid
Formula: C10H14O2
Exact mass: 166.09938
SMILES: CC(=C)[C@H]1CCC(=CC1)C(=O)O
InChI: InChI=1S/C10H14O2/c1-7(2)8-3-5-9(6-4-8)10(11)12/h5,8H,1,3-4,6H2,2H3,(H,11,12)/t8-/m1/s1
Instrument: Agilent 1200 RRLC; Agilent 6520 QTOF
Instrument type: LC-ESI-QTOF
Ms type: MS2
Ion mode: NEGATIVE
Collision energy: 10 ev
Column name: Agilent C8 Cartridge Column 2.1X30mm 3.5 micron (guard); Agilent SB-Aq 2.1x50mm 1.8 micron (analytical)
Retention time: 7.680
Base peak: 165
Precursor m/z: 165.0921
Precursor type: [M-H]-
m/z	relative intensity
118.1612	1
121.1007	10
143.5617	4
146.3944	3
149.0658	3
165.0438	2
165.0915	999
