Mass spectrum: Harmine; LC-ESI-QTOF; MS2; CE 20 ev; [M-H]-
Name: Harmine
Formula: C13H12N2O
Exact mass: 212.094963
SMILES: CC1=NC=CC2=C1NC3=C2C=CC(=C3)OC
InChI: InChI=1S/C13H12N2O/c1-8-13-11(5-6-14-8)10-4-3-9(16-2)7-12(10)15-13/h3-7,15H,1-2H3
Instrument: Agilent 1200 RRLC; Agilent 6520 QTOF
Instrument type: LC-ESI-QTOF
Ms type: MS2
Ion mode: NEGATIVE
Collision energy: 20 ev
Column name: Agilent C8 Cartridge Column 2.1X30mm 3.5 micron (guard); Agilent SB-Aq 2.1x50mm 1.8 micron (analytical)
Retention time: 4.509
Base peak: 196
Precursor m/z: 211.0877
Precursor type: [M-H]-
m/z	relative intensity
137.4207	5
168.0688	49
168.1042	3
195.0551	10
196.0291	4
196.0634	999
196.105	42
196.1654	9
196.1949	13
196.2169	4
196.249	4
196.3067	4
196.412	5
196.5241	4
196.63	4
196.8204	4
197.0689	3
197.8538	4
211.0866	46
