Mass spectrum: trans-Zeatin; LC-ESI-QTOF; MS2; CE 20 ev; [M+H]+
Name: trans-Zeatin
Formula: C10H13N5O
Exact mass: 219.11201
SMILES: C/C(=C\CNC1=NC=NC2=C1NC=N2)/CO
InChI: InChI=1S/C10H13N5O/c1-7(4-16)2-3-11-9-8-10(13-5-12-8)15-6-14-9/h2,5-6,16H,3-4H2,1H3,(H2,11,12,13,14,15)/b7-2+
Instrument: Agilent 1200 RRLC; Agilent 6520 QTOF
Instrument type: LC-ESI-QTOF
Ms type: MS2
Ion mode: POSITIVE
Collision energy: 20 ev
Column name: Agilent C8 Cartridge Column 2.1X30mm 3.5 micron (guard); Agilent SB-Aq 2.1x50mm 1.8 micron (analytical)
Retention time: 3.258
Base peak: 136
Precursor m/z: 220.1193
Precursor type: [M+H]+
m/z	relative intensity
109.0526	10
119.035	79
136.0612	999
136.0942	30
136.1166	18
136.143	9
136.1683	16
148.0611	79
159.0668	18
175.0958	9
185.0807	30
202.1031	23
202.1154	13
220.119	11
