Mass spectrum: Chloramphenicol; LC-ESI-QTOF; MS2; CE 20 ev; [M+H]+
Name: Chloramphenicol
Formula: C11H12Cl2N2O5
Exact mass: 322.012327
SMILES: C1=CC(=CC=C1[C@H]([C@@H](CO)NC(=O)C(Cl)Cl)O)[N+](=O)[O-]
InChI: InChI=1S/C11H12Cl2N2O5/c12-10(13)11(18)14-8(5-16)9(17)6-1-3-7(4-2-6)15(19)20/h1-4,8-10,16-17H,5H2,(H,14,18)/t8-,9-/m1/s1
Instrument: Agilent 1200 RRLC; Agilent 6520 QTOF
Instrument type: LC-ESI-QTOF
Ms type: MS2
Ion mode: POSITIVE
Collision energy: 20 ev
Column name: Agilent C8 Cartridge Column 2.1X30mm 3.5 micron (guard); Agilent SB-Aq 2.1x50mm 1.8 micron (analytical)
Retention time: 4.211
Base peak: 165
Precursor m/z: 323.0196
Precursor type: [M+H]+
m/z	relative intensity
118.0669	110
146.0548	91
148.058	110
165.0664	999
206.0357	76
241.0155	118
257.9915	319
274.9982	365
