Mass spectrum: 3(4'-Chlorophenyl)-4,6-dimethylcoumarin; LC-ESI-QTOF; MS2; CE 10 ev; [M+H]+
Name: 3(4'-Chlorophenyl)-4,6-dimethylcoumarin
Formula: C17H13ClO2
Exact mass: 284.060407
SMILES: CC1=CC2=C(C=C1)OC(=O)C(=C2C)C3=CC=C(C=C3)Cl
InChI: InChI=1S/C17H13ClO2/c1-10-3-8-15-14(9-10)11(2)16(17(19)20-15)12-4-6-13(18)7-5-12/h3-9H,1-2H3
Instrument: Agilent 1200 RRLC; Agilent 6520 QTOF
Instrument type: LC-ESI-QTOF
Ms type: MS2
Ion mode: POSITIVE
Collision energy: 10 ev
Column name: Agilent C8 Cartridge Column 2.1X30mm 3.5 micron (guard); Agilent SB-Aq 2.1x50mm 1.8 micron (analytical)
Retention time: 9.947
Base peak: 285
Precursor m/z: 285.0677
Precursor type: [M+H]+
m/z	relative intensity
137.0137	8
137.0229	4
149.0153	7
178.0697	9
179.0853	6
193.103	5
194.1037	8
206.1074	5
221.0961	11
222.1062	27
229.0788	15
242.0467	6
283.0495	8
284.0582	6
285.0672	999
