Mass spectrum: Vinpocetine; LC-ESI-QTOF; MS2; CE 10 ev; [M+H]+
Name: Vinpocetine
Formula: C22H26N2O2
Exact mass: 350.199428
SMILES: CCC12CCCN3C1C4=C(CC3)C5=CC=CC=C5N4C(=C2)C(=O)OCC
InChI: InChI=1S/C22H26N2O2/c1-3-22-11-7-12-23-13-10-16-15-8-5-6-9-17(15)24(19(16)20(22)23)18(14-22)21(25)26-4-2/h5-6,8-9,14,20H,3-4,7,10-13H2,1-2H3
Instrument: Agilent 1200 RRLC; Agilent 6520 QTOF
Instrument type: LC-ESI-QTOF
Ms type: MS2
Ion mode: POSITIVE
Collision energy: 10 ev
Column name: Agilent C8 Cartridge Column 2.1X30mm 3.5 micron (guard); Agilent SB-Aq 2.1x50mm 1.8 micron (analytical)
Retention time: 6.557
Base peak: 351
Precursor m/z: 351.2067
Precursor type: [M+H]+
m/z	relative intensity
186.9954	143
351.2033	999
