Mass spectrum: Hesperidin; LC-ESI-QTOF; MS2; CE 20 ev; [M+H]+
Name: Hesperidin
Name: Cirantin
Name: Hesperidoside
Name: (2S)-7-[[6-O-(6-Deoxy-alpha-L-mannopyranosyl)-beta-D-glucopyranosyl]oxy]-2,3-dihydro-5-hydroxy-2-(3-hydroxy-4-methoxyphenyl)-4H-1-benzopyran-4-one
Name: (2S)-5-hydroxy-2-(3-hydroxy-4-methoxy-phenyl)-7-[(2S,3R,4S,5R,6R)-3,4,5-trihydroxy-6-[[(2R,3R,4R,5S,6S)-3,4,5-trihydroxy-6-methyl-oxan-2-yl]oxymethyl]oxan-2-yl]oxy-chroman-4-one
Name: Hesp-7-Glc-6pp-Rha
Name: Hesperetin 7-O-rutinoside
Name: Hesperetin 7-rhamnoglucoside
Formula: C28H34O15
Exact mass: 610.18977
SMILES: C[C@H]1[C@@H]([C@H]([C@H]([C@@H](O1)OC[C@@H]2[C@H]([C@@H]([C@H]([C@@H](O2)OC3=CC(=C4C(=O)C[C@H](OC4=C3)C5=CC(=C(C=C5)OC)O)O)O)O)O)O)O)O
InChI: InChI=1S/C28H34O15/c1-10-21(32)23(34)25(36)27(40-10)39-9-19-22(33)24(35)26(37)28(43-19)41-12-6-14(30)20-15(31)8-17(42-18(20)7-12)11-3-4-16(38-2)13(29)5-11/h3-7,10,17,19,21-30,32-37H,8-9H2,1-2H3/t10-,17-,19+,21-,22+,23+,24-,25+,26+,27+,28+/m0/s1
Instrument: Agilent 1200 RRLC; Agilent 6520 QTOF
Instrument type: LC-ESI-QTOF
Ms type: MS2
Ion mode: POSITIVE
Collision energy: 20 ev
Column name: Agilent C8 Cartridge Column 2.1X30mm 3.5 micron (guard); Agilent SB-Aq 2.1x50mm 1.8 micron (analytical)
Retention time: 5.670
Base peak: 303
Precursor m/z: 611.1971
Precursor type: [M+H]+
m/z	relative intensity
129.0559	100
153.0162	143
179.0328	45
195.0273	76
263.0519	111
281.0596	55
281.0871	23
285.0624	22
303.0835	999
303.1238	29
303.1389	31
303.1632	27
345.0979	48
369.0887	67
413.1096	69
431.1414	34
449.1452	26
465.1555	26
