Mass spectrum: Nebularine; LC-ESI-QTOF; MS2; CE 20 ev; [M+H]+
Name: Nebularine
Formula: C10H12N4O4
Exact mass: 252.085855
SMILES: C1=C2C(=NC=N1)N(C=N2)C3C(C(C(O3)CO)O)O
InChI: InChI=1S/C10H12N4O4/c15-2-6-7(16)8(17)10(18-6)14-4-13-5-1-11-3-12-9(5)14/h1,3-4,6-8,10,15-17H,2H2
Instrument: Agilent 1200 RRLC; Agilent 6520 QTOF
Instrument type: LC-ESI-QTOF
Ms type: MS2
Ion mode: POSITIVE
Collision energy: 20 ev
Column name: Agilent C8 Cartridge Column 2.1X30mm 3.5 micron (guard); Agilent SB-Aq 2.1x50mm 1.8 micron (analytical)
Retention time: 1.825
Base peak: 136
Precursor m/z: 253.0932
Precursor type: [M+H]+
m/z	relative intensity
102.9264	12
117.0549	34
119.0347	42
121.0505	841
121.0831	21
121.1507	9
136.0604	999
136.0952	39
136.1166	16
136.1495	11
136.1711	12
137.0645	138
137.1013	13
149.9764	17
193.9603	11
