Mass spectrum: 2',3',6-Trimethoxyflavone; LC-ESI-QTOF; MS2; CE 10 ev; [M+H]+
Name: 2',3',6-Trimethoxyflavone
Formula: C18H16O5
Exact mass: 312.099774
SMILES: COC1=CC2=C(C=C1)OC(=CC2=O)C3=C(C(=CC=C3)OC)OC
InChI: InChI=1S/C18H16O5/c1-20-11-7-8-15-13(9-11)14(19)10-17(23-15)12-5-4-6-16(21-2)18(12)22-3/h4-10H,1-3H3
Instrument: Agilent 1200 RRLC; Agilent 6520 QTOF
Instrument type: LC-ESI-QTOF
Ms type: MS2
Ion mode: POSITIVE
Collision energy: 10 ev
Column name: Agilent C8 Cartridge Column 2.1X30mm 3.5 micron (guard); Agilent SB-Aq 2.1x50mm 1.8 micron (analytical)
Retention time: 9.458
Base peak: 313
Precursor m/z: 313.1071
Precursor type: [M+H]+
m/z	relative intensity
150.0313	5
151.038	14
163.0411	4
237.0529	7
252.0768	26
265.0434	8
269.0819	8
280.0723	32
297.078	18
298.0785	19
313.1055	999
