Mass spectrum: 6a,12a-Didehydroamorphigenin; LC-ESI-QTOF; MS2; CE 20 ev; [M-H]-
Name: 6a,12a-Didehydroamorphigenin
Name: 2-(2-hydroxy-1-methyleneethyl)-8,9-dimethoxy-1,2-dihydro-12H-chromeno[3,4-b]fu rano[2,3-h]chromen-6-one
Formula: C23H20O7
Exact mass: 408.120903
SMILES: COC1=C(C=C2C(=C1)C3=C(CO2)OC4=C(C3=O)C=CC5=C4CC(O5)C(=C)CO)OC
InChI: InChI=1S/C23H20O7/c1-11(9-24)16-7-14-15(29-16)5-4-12-22(25)21-13-6-18(26-2)19(27-3)8-17(13)28-10-20(21)30-23(12)14/h4-6,8,16,24H,1,7,9-10H2,2-3H3
Instrument: Agilent 1200 RRLC; Agilent 6520 QTOF
Instrument type: LC-ESI-QTOF
Ms type: MS2
Ion mode: NEGATIVE
Collision energy: 20 ev
Column name: Agilent C8 Cartridge Column 2.1X30mm 3.5 micron (guard); Agilent SB-Aq 2.1x50mm 1.8 micron (analytical)
Retention time: 9.449
Base peak: 377
Precursor m/z: 407.1136
Precursor type: [M-H]-
m/z	relative intensity
104.3464	23
116.5439	39
124.6985	25
141.4733	32
176.0471	22
179.5337	23
207.0468	40
211.9223	29
244.4364	22
263.0282	49
291.0191	74
294.0865	23
318.4029	38
322.0565	64
333.5337	24
335.0409	59
349.078	74
357.6326	35
359.0504	40
359.0691	23
362.0712	43
364.0704	29
374.0699	25
374.2807	53
375.0754	33
377.0632	999
377.1172	84
377.1516	29
389.0969	27
391.0851	64
392.0845	809
392.152	50
407.1155	745
