Mass spectrum: Caffeic acid; LC-ESI-QTOF; MS2; CE 10 ev; [M-H]-
Name: Caffeic acid
Formula: C9H8O4
Exact mass: 180.042259
SMILES: C1=CC(=C(C=C1/C=C/C(=O)O)O)O
InChI: InChI=1S/C9H8O4/c10-7-3-1-6(5-8(7)11)2-4-9(12)13/h1-5,10-11H,(H,12,13)/b4-2+
Instrument: Agilent 1200 RRLC; Agilent 6520 QTOF
Instrument type: LC-ESI-QTOF
Ms type: MS2
Ion mode: NEGATIVE
Collision energy: 10 ev
Column name: Agilent C8 Cartridge Column 2.1X30mm 3.5 micron (guard); Agilent SB-Aq 2.1x50mm 1.8 micron (analytical)
Retention time: 2.971
Base peak: 135
Precursor m/z: 179.0350
Precursor type: [M-H]-
m/z	relative intensity
107.05	13
134.0337	26
134.0408	11
135.0449	999
135.0804	29
135.1216	9
135.1531	13
135.4627	6
179.0348	497
