Mass spectrum: Esculetin; LC-ESI-QTOF; MS2; CE 20 ev; [M+H]+
Name: Esculetin
Formula: C9H6O4
Exact mass: 178.026609
SMILES: C1=CC(=O)OC2=CC(=C(C=C21)O)O
InChI: InChI=1S/C9H6O4/c10-6-3-5-1-2-9(12)13-8(5)4-7(6)11/h1-4,10-11H
Instrument: Agilent 1200 RRLC; Agilent 6520 QTOF
Instrument type: LC-ESI-QTOF
Ms type: MS2
Ion mode: POSITIVE
Collision energy: 20 ev
Column name: Agilent C8 Cartridge Column 2.1X30mm 3.5 micron (guard); Agilent SB-Aq 2.1x50mm 1.8 micron (analytical)
Retention time: 3.168
Base peak: 123
Precursor m/z: 179.0339
Precursor type: [M+H]+
m/z	relative intensity
105.0335	144
123.0438	999
133.0277	580
150.029	239
179.0319	132
