Mass spectrum: 2',6-Dihydroxyflavanone; LC-ESI-QTOF; MS2; CE 20 ev; [M+H]+
Name: 2',6-Dihydroxyflavanone
Formula: C15H12O4
Exact mass: 256.073559
SMILES: C1C(OC2=C(C1=O)C=C(C=C2)O)C3=CC=CC=C3O
InChI: InChI=1S/C15H12O4/c16-9-5-6-14-11(7-9)13(18)8-15(19-14)10-3-1-2-4-12(10)17/h1-7,15-17H,8H2
Instrument: Agilent 1200 RRLC; Agilent 6520 QTOF
Instrument type: LC-ESI-QTOF
Ms type: MS2
Ion mode: POSITIVE
Collision energy: 20 ev
Column name: Agilent C8 Cartridge Column 2.1X30mm 3.5 micron (guard); Agilent SB-Aq 2.1x50mm 1.8 micron (analytical)
Retention time: 6.812
Base peak: 137
Precursor m/z: 257.0809
Precursor type: [M+H]+
m/z	relative intensity
109.0272	114
137.0227	999
137.0575	43
163.0416	50
187.0713	44
239.0678	60
