Mass spectrum: Ryscinic Acid; LC-ESI-QTOF; MS; POSITIVE
Name: Ryscinic Acid
Formula: C7H6N2O2
Exact mass: 150.042927
SMILES: CN1C=CC(=C(C1=O)C#N)O
InChI: InChI=1S/C7H6N2O2/c1-9-3-2-6(10)5(4-8)7(9)11/h2-3,10H,1H3
Instrument: Agilent 1200 RRLC; Agilent 6520 QTOF
Instrument type: LC-ESI-QTOF
Ms type: MS
Ion mode: POSITIVE
Column name: Agilent C8 Cartridge Column 2.1X30mm 3.5 micron (guard); Agilent SB-Aq 2.1x50mm 1.8 micron (analytical)
Retention time: 1.358
m/z	relative intensity
151.0501765	999
