Mass spectrum: 3(2'-Chlorophenyl)-7-ethoxycoumarin; LC-ESI-QTOF; MS2; CE 20 ev; [M+H]+
Name: 3(2'-Chlorophenyl)-7-ethoxycoumarin
Formula: C17H13ClO3
Exact mass: 300.055322
SMILES: CCOC1=CC2=C(C=C1)C=C(C(=O)O2)C3=CC=CC=C3Cl
InChI: InChI=1S/C17H13ClO3/c1-2-20-12-8-7-11-9-14(17(19)21-16(11)10-12)13-5-3-4-6-15(13)18/h3-10H,2H2,1H3
Instrument: Agilent 1200 RRLC; Agilent 6520 QTOF
Instrument type: LC-ESI-QTOF
Ms type: MS2
Ion mode: POSITIVE
Collision energy: 20 ev
Column name: Agilent C8 Cartridge Column 2.1X30mm 3.5 micron (guard); Agilent SB-Aq 2.1x50mm 1.8 micron (analytical)
Retention time: 9.534
Base peak: 273
Precursor m/z: 301.0626
Precursor type: [M+H]+
m/z	relative intensity
153.0682	36
166.075	67
181.0623	122
182.0715	156
194.0701	51
210.0673	360
217.0402	631
237.0603	60
238.0635	71
238.0939	29
245.0349	31
245.0669	66
266.0826	41
266.098	35
273.0303	999
273.0677	87
301.0619	801
