Mass spectrum: Rotenone; LC-ESI-QTOF; MS2; CE 10 ev; [M+H]+
Name: Rotenone
Formula: C23H22O6
Exact mass: 394.141638
SMILES: CC(=C)[C@H]1CC2=C(O1)C=CC3=C2O[C@@H]4COC5=CC(=C(C=C5[C@@H]4C3=O)OC)OC
InChI: InChI=1S/C23H22O6/c1-11(2)16-8-14-15(28-16)6-5-12-22(24)21-13-7-18(25-3)19(26-4)9-17(13)27-10-20(21)29-23(12)14/h5-7,9,16,20-21H,1,8,10H2,2-4H3/t16-,20-,21+/m1/s1
Instrument: Agilent 1200 RRLC; Agilent 6520 QTOF
Instrument type: LC-ESI-QTOF
Ms type: MS2
Ion mode: POSITIVE
Collision energy: 10 ev
Column name: Agilent C8 Cartridge Column 2.1X30mm 3.5 micron (guard); Agilent SB-Aq 2.1x50mm 1.8 micron (analytical)
Retention time: 9.447
Base peak: 395
Precursor m/z: 395.1489
Precursor type: [M+H]+
m/z	relative intensity
124.0556	13
139.0764	16
167.0722	19
179.072	42
189.0922	20
191.0641	53
192.077	175
193.085	35
195.0765	17
203.0618	42
213.0898	180
241.0826	62
321.1049	18
335.1292	14
367.1521	55
395.1466	999
