Mass spectrum: Ginkgolide B; LC-ESI-QTOF; MS2; CE 20 ev; [M-H]-
Name: Ginkgolide B
Formula: C20H24O10
Exact mass: 424.136947
SMILES: CC1C(=O)OC2C1(C34C(=O)OC5C3(C2O)C6(C(C5)C(C)(C)C)C(C(=O)OC6O4)O)O
InChI: InChI=1S/C20H24O10/c1-6-12(23)28-11-9(21)18-8-5-7(16(2,3)4)17(18)10(22)13(24)29-15(17)30-20(18,14(25)27-8)19(6,11)26/h6-11,15,21-22,26H,5H2,1-4H3
Instrument: Agilent 1200 RRLC; Agilent 6520 QTOF
Instrument type: LC-ESI-QTOF
Ms type: MS2
Ion mode: NEGATIVE
Collision energy: 20 ev
Column name: Agilent C8 Cartridge Column 2.1X30mm 3.5 micron (guard); Agilent SB-Aq 2.1x50mm 1.8 micron (analytical)
Retention time: 5.383
Base peak: 367
Precursor m/z: 423.1296
Precursor type: [M-H]-
m/z	relative intensity
143.0318	19
163.1123	5
174.0333	7
176.9856	8
177.0889	6
179.109	13
193.1188	6
204.1118	9
209.0444	16
215.1449	10
225.1083	12
231.0985	22
231.1381	9
232.1122	27
233.1518	11
243.1364	21
249.1114	6
253.1049	6
259.1263	7
261.148	78
261.2003	5
269.1132	6
275.1293	14
277.1453	7
287.1288	21
293.1339	7
305.1371	41
307.116	19
321.1181	6
321.1432	10
323.1486	6
339.1446	8
349.1289	92
367.1392	999
367.1963	17
367.2332	8
367.2709	12
367.3151	13
367.376	5
367.4128	5
367.5301	6
367.6251	6
367.7414	6
367.872	7
368.0666	6
395.135	66
423.1281	25
