Mass spectrum: 2',4-Dihydroxychalcone; LC-ESI-QTOF; MS2; CE 20 ev; [M-H]-
Name: 2',4-Dihydroxychalcone
Formula: C15H12O3
Exact mass: 240.078644
SMILES: C1=CC=C(C(=C1)C(=O)/C=C/C2=CC=C(C=C2)O)O
InChI: InChI=1S/C15H12O3/c16-12-8-5-11(6-9-12)7-10-15(18)13-3-1-2-4-14(13)17/h1-10,16-17H/b10-7+
Instrument: Agilent 1200 RRLC; Agilent 6520 QTOF
Instrument type: LC-ESI-QTOF
Ms type: MS2
Ion mode: NEGATIVE
Collision energy: 20 ev
Column name: Agilent C8 Cartridge Column 2.1X30mm 3.5 micron (guard); Agilent SB-Aq 2.1x50mm 1.8 micron (analytical)
Retention time: 8.359
Base peak: 119
Precursor m/z: 239.0713
Precursor type: [M-H]-
m/z	relative intensity
104.0192	1
117.0277	1
118.5072	0
118.6294	0
118.7106	0
118.9307	0
118.9459	0
118.9751	0
119.0019	0
119.0084	0
119.0443	999
119.0767	15
119.0934	16
119.1162	10
119.1457	25
119.1773	1
119.1855	3
119.2022	1
119.2112	1
119.2338	0
119.2481	2
119.2545	0
119.2668	0
119.274	2
119.3013	0
119.3147	1
119.3284	2
119.354	0
119.3673	1
119.3957	0
119.4109	0
119.4197	1
119.4332	1
119.4412	0
119.4556	1
119.4788	1
119.5149	2
119.5525	1
119.5716	0
119.5896	1
119.5997	0
119.6168	1
119.6322	0
119.6548	1
119.6856	0
119.7213	0
119.736	1
119.7571	1
119.8105	1
119.8502	1
119.8818	1
119.9267	1
119.9375	1
119.955	0
119.9832	1
120.0058	0
120.0311	0
120.0367	0
120.0441	0
120.0509	0
120.083	0
120.0907	0
120.1057	0
120.1168	0
120.1433	0
120.1615	0
120.1891	0
120.2189	0
120.2314	0
120.2581	0
120.2736	0
120.2979	0
120.3177	0
120.3583	0
120.3914	0
120.4259	0
120.4588	0
120.4928	0
120.4993	0
120.593	0
120.64	0
120.7001	0
120.717	0
120.7473	0
120.7683	0
120.7873	0
121.0243	1
121.8713	0
145.0246	1
147.7345	0
151.6455	0
157.1166	0
173.6793	0
193.0685	0
195.0745	14
195.1146	0
195.1559	0
221.0607	0
223.0173	1
238.1477	0
239.065	21
