Mass spectrum: Camptothecin; LC-ESI-QTOF; MS2; CE 40 ev; [M-H]-
Name: Camptothecin
Formula: C20H16N2O4
Exact mass: 348.111007
SMILES: CCC1(C2=C(COC1=O)C(=O)N3CC4=CC5=CC=CC=C5N=C4C3=C2)O
InChI: InChI=1S/C20H16N2O4/c1-2-20(25)14-8-16-17-12(7-11-5-3-4-6-15(11)21-17)9-22(16)18(23)13(14)10-26-19(20)24/h3-8,25H,2,9-10H2,1H3
Instrument: Agilent 1200 RRLC; Agilent 6520 QTOF
Instrument type: LC-ESI-QTOF
Ms type: MS2
Ion mode: NEGATIVE
Collision energy: 40 ev
Column name: Agilent C8 Cartridge Column 2.1X30mm 3.5 micron (guard); Agilent SB-Aq 2.1x50mm 1.8 micron (analytical)
Retention time: 7.594
Base peak: 288
Precursor m/z: 347.1037
Precursor type: [M-H]-
m/z	relative intensity
167.0615	900
170.1092	60
180.0606	67
191.0658	52
193.0797	119
202.0567	52
203.065	253
204.0789	72
205.0688	47
217.0724	170
218.0858	150
219.0498	67
219.0923	473
219.1086	85
229.0774	293
230.0869	157
230.7411	83
231.0662	47
231.1162	74
232.0595	148
232.0823	141
232.1066	72
232.1279	52
233.0762	47
243.0929	484
244.0982	60
245.0683	699
245.1115	58
246.0687	108
246.0839	168
247.0825	423
247.1174	49
257.1044	121
258.9579	52
259.0511	141
259.0823	504
259.1167	90
260.0673	123
260.0906	293
261.1007	47
271.0943	74
273.0692	457
287.0788	473
288.0629	52
288.0894	999
288.1369	54
303.1089	325
