Mass spectrum: L-Carnosine; LC-ESI-QTOF; MS; NEGATIVE
Name: L-Carnosine
Formula: C9H14N4O3
Exact mass: 226.10659
SMILES: C1=C(NC=N1)CC(C(=O)O)NC(=O)CCN
InChI: InChI=1S/C9H14N4O3/c10-2-1-8(14)13-7(9(15)16)3-6-4-11-5-12-6/h4-5,7H,1-3,10H2,(H,11,12)(H,13,14)(H,15,16)
Instrument: Agilent 1200 RRLC; Agilent 6520 QTOF
Instrument type: LC-ESI-QTOF
Ms type: MS
Ion mode: NEGATIVE
Column name: Agilent C8 Cartridge Column 2.1X30mm 3.5 micron (guard); Agilent SB-Aq 2.1x50mm 1.8 micron (analytical)
Retention time: 0.330
m/z	relative intensity
225.0993235	999
