Mass spectrum: Biochanin A; LC-ESI-QTOF; MS2; CE 40 ev; [M+H]+
Name: Biochanin A
Formula: C16H12O5
Exact mass: 284.068473
SMILES: COC1=CC=C(C=C1)C2=COC3=CC(=CC(=C3C2=O)O)O
InChI: InChI=1S/C16H12O5/c1-20-11-4-2-9(3-5-11)12-8-21-14-7-10(17)6-13(18)15(14)16(12)19/h2-8,17-18H,1H3
Instrument: Agilent 1200 RRLC; Agilent 6520 QTOF
Instrument type: LC-ESI-QTOF
Ms type: MS2
Ion mode: POSITIVE
Collision energy: 40 ev
Column name: Agilent C8 Cartridge Column 2.1X30mm 3.5 micron (guard); Agilent SB-Aq 2.1x50mm 1.8 micron (analytical)
Retention time: 8.401
Base peak: 213
Precursor m/z: 285.0758
Precursor type: [M+H]+
m/z	relative intensity
103.0506	94
111.0103	77
115.0557	72
118.0391	408
121.0296	50
123.0433	176
124.0146	480
127.0556	77
130.0401	157
131.0468	102
133.064	82
141.0678	97
144.058	82
152.006	112
152.0131	216
153.0188	348
158.0363	288
158.077	109
168.0586	77
169.0664	60
171.0395	80
185.0616	171
186.0664	82
196.047	57
196.0565	50
197.0559	221
213.0529	999
214.0628	104
216.0345	55
225.0492	122
229.0827	99
241.0473	378
242.0554	266
253.0447	189
269.0412	497
270.0551	80
