Mass spectrum: Hesperidin; LC-ESI-QTOF; MS2; CE 40 ev; [M-H]-
Name: Hesperidin
Name: Cirantin
Name: Hesperidoside
Name: (2S)-7-[[6-O-(6-Deoxy-alpha-L-mannopyranosyl)-beta-D-glucopyranosyl]oxy]-2,3-dihydro-5-hydroxy-2-(3-hydroxy-4-methoxyphenyl)-4H-1-benzopyran-4-one
Name: (2S)-5-hydroxy-2-(3-hydroxy-4-methoxy-phenyl)-7-[(2S,3R,4S,5R,6R)-3,4,5-trihydroxy-6-[[(2R,3R,4R,5S,6S)-3,4,5-trihydroxy-6-methyl-oxan-2-yl]oxymethyl]oxan-2-yl]oxy-chroman-4-one
Name: Hesp-7-Glc-6pp-Rha
Name: Hesperetin 7-O-rutinoside
Name: Hesperetin 7-rhamnoglucoside
Formula: C28H34O15
Exact mass: 610.18977
SMILES: C[C@H]1[C@@H]([C@H]([C@H]([C@@H](O1)OC[C@@H]2[C@H]([C@@H]([C@H]([C@@H](O2)OC3=CC(=C4C(=O)C[C@H](OC4=C3)C5=CC(=C(C=C5)OC)O)O)O)O)O)O)O)O
InChI: InChI=1S/C28H34O15/c1-10-21(32)23(34)25(36)27(40-10)39-9-19-22(33)24(35)26(37)28(43-19)41-12-6-14(30)20-15(31)8-17(42-18(20)7-12)11-3-4-16(38-2)13(29)5-11/h3-7,10,17,19,21-30,32-37H,8-9H2,1-2H3/t10-,17-,19+,21-,22+,23+,24-,25+,26+,27+,28+/m0/s1
Instrument: Agilent 1200 RRLC; Agilent 6520 QTOF
Instrument type: LC-ESI-QTOF
Ms type: MS2
Ion mode: NEGATIVE
Collision energy: 40 ev
Column name: Agilent C8 Cartridge Column 2.1X30mm 3.5 micron (guard); Agilent SB-Aq 2.1x50mm 1.8 micron (analytical)
Retention time: 5.657
Base peak: 301
Precursor m/z: 609.1825
Precursor type: [M-H]-
m/z	relative intensity
107.0131	12
107.0196	8
125.0261	57
134.0324	20
135.043	7
139.0406	12
150.9998	22
152.0145	8
158.03	13
164.0117	56
164.8089	6
173.0635	16
174.0311	24
174.0491	9
175.0084	10
185.0171	8
187.0314	7
187.8717	15
198.0345	8
199.0347	27
200.0532	14
200.51	19
201.0124	17
201.0346	6
206.0289	9
211.308	7
215.0178	6
215.0418	10
215.0704	12
216.0473	14
217.0434	16
227.0254	6
229.0136	9
233.082	7
240.0433	8
240.0604	8
241.0564	16
242.0563	93
243.8114	7
251.2224	7
257.0798	38
258.0486	29
267.025	13
268.0417	9
269.0334	6
279.6739	6
283.0487	6
283.069	14
286.0473	103
286.0909	10
286.2392	10
287.0545	6
291.0745	9
292.0373	7
300.0585	7
301.0701	999
301.1149	27
301.136	17
301.1641	16
301.1874	12
301.2308	25
301.3153	9
301.3676	10
301.4187	16
301.603	12
301.6402	9
301.7316	9
302.0726	10
302.1372	9
303.0761	7
310.0502	18
311.0427	6
325.0735	24
332.9801	7
343.0952	12
367.0865	6
401.0383	8
432.7707	7
438.9886	6
475.9886	6
483.6848	7
488.3331	9
546.9826	40
551.6568	12
