Mass spectrum: Luteolin-7-glucoside; LC-ESI-QTOF; MS2; CE 10 ev; [M-H]-
Name: Luteolin-7-glucoside
Formula: C21H20O11
Exact mass: 448.100561
SMILES: C1=CC(=C(C=C1C2=CC(=O)C3=C(C=C(C=C3O2)O[C@H]4[C@@H]([C@H]([C@@H]([C@H](O4)CO)O)O)O)O)O)O
InChI: InChI=1S/C21H20O11/c22-7-16-18(27)19(28)20(29)21(32-16)30-9-4-12(25)17-13(26)6-14(31-15(17)5-9)8-1-2-10(23)11(24)3-8/h1-6,16,18-25,27-29H,7H2/t16-,18-,19+,20-,21-/m1/s1
Instrument: Agilent 1200 RRLC; Agilent 6520 QTOF
Instrument type: LC-ESI-QTOF
Ms type: MS2
Ion mode: NEGATIVE
Collision energy: 10 ev
Column name: Agilent C8 Cartridge Column 2.1X30mm 3.5 micron (guard); Agilent SB-Aq 2.1x50mm 1.8 micron (analytical)
Retention time: 5.612
Base peak: 447
Precursor m/z: 447.0933
Precursor type: [M-H]-
m/z	relative intensity
239.7738	10
284.0295	28
285.0398	71
447.0924	999
