Mass spectrum: Solasodine; LC-ESI-QTOF; MS2; CE 20 ev; [M+H]+
Name: Solasodine
Formula: C27H43NO2
Exact mass: 413.32938
SMILES: CC1CCC2(C(C3C(O2)CC4C3(CCC5C4CC=C6C5(CCC(C6)O)C)C)C)NC1
InChI: InChI=1S/C27H43NO2/c1-16-7-12-27(28-15-16)17(2)24-23(30-27)14-22-20-6-5-18-13-19(29)8-10-25(18,3)21(20)9-11-26(22,24)4/h5,16-17,19-24,28-29H,6-15H2,1-4H3
Instrument: Agilent 1200 RRLC; Agilent 6520 QTOF
Instrument type: LC-ESI-QTOF
Ms type: MS2
Ion mode: POSITIVE
Collision energy: 20 ev
Column name: Agilent C8 Cartridge Column 2.1X30mm 3.5 micron (guard); Agilent SB-Aq 2.1x50mm 1.8 micron (analytical)
Retention time: 8.831
Base peak: 414
Precursor m/z: 414.3367
Precursor type: [M+H]+
m/z	relative intensity
107.0834	23
109.1029	15
114.0891	21
121.1	21
124.1145	10
126.1258	15
133.0995	13
157.1006	23
253.1942	48
271.2019	61
396.3241	85
414.3337	999
