Mass spectrum: 2',4-Dihydroxychalcone; LC-ESI-QTOF; MS2; CE 20 ev; [M+H]+
Name: 2',4-Dihydroxychalcone
Formula: C15H12O3
Exact mass: 240.078644
SMILES: C1=CC=C(C(=C1)C(=O)/C=C/C2=CC=C(C=C2)O)O
InChI: InChI=1S/C15H12O3/c16-12-8-5-11(6-9-12)7-10-15(18)13-3-1-2-4-14(13)17/h1-10,16-17H/b10-7+
Instrument: Agilent 1200 RRLC; Agilent 6520 QTOF
Instrument type: LC-ESI-QTOF
Ms type: MS2
Ion mode: POSITIVE
Collision energy: 20 ev
Column name: Agilent C8 Cartridge Column 2.1X30mm 3.5 micron (guard); Agilent SB-Aq 2.1x50mm 1.8 micron (analytical)
Retention time: 8.359
Base peak: 121
Precursor m/z: 241.0859
Precursor type: [M+H]+
m/z	relative intensity
119.0489	87
121.0278	999
121.0521	21
121.0598	17
147.0436	199
167.0857	23
177.07	21
195.0792	93
197.0532	13
223.0784	47
226.0604	56
241.0858	52
