Mass spectrum: (S,R)-Noscapine; LC-ESI-QTOF; MS2; CE 40 ev; [M+H]+
Name: (S,R)-Noscapine
Formula: C22H23NO7
Exact mass: 413.147452
SMILES: CN1CCC2=CC3=C(C(=C2[C@@H]1[C@@H]4C5=C(C(=C(C=C5)OC)OC)C(=O)O4)OC)OCO3
InChI: InChI=1S/C22H23NO7/c1-23-8-7-11-9-14-20(29-10-28-14)21(27-4)15(11)17(23)18-12-5-6-13(25-2)19(26-3)16(12)22(24)30-18/h5-6,9,17-18H,7-8,10H2,1-4H3/t17-,18+/m1/s1
Instrument: Agilent 1200 RRLC; Agilent 6520 QTOF
Instrument type: LC-ESI-QTOF
Ms type: MS2
Ion mode: POSITIVE
Collision energy: 40 ev
Column name: Agilent C8 Cartridge Column 2.1X30mm 3.5 micron (guard); Agilent SB-Aq 2.1x50mm 1.8 micron (analytical)
Retention time: 5.352
Base peak: 323
Precursor m/z: 414.1548
Precursor type: [M+H]+
m/z	relative intensity
265.0491	773
265.0862	488
276.0374	321
276.0751	381
277.0464	464
277.0784	583
279.0701	559
280.0719	821
281.0852	345
289.0468	333
292.0761	357
293.0771	309
294.0808	250
295.0573	297
295.0823	369
306.0595	333
307.065	761
309.0688	559
310.0824	404
319.0517	464
322.0856	452
323.0918	999
325.1019	702
334.0938	309
335.0526	428
337.0711	666
338.0677	274
350.0731	321
351.0669	333
352.1174	309
366.0951	274
