Mass spectrum: N-alpha-(tert-Butoxycarbonyl)-L-histidine; LC-ESI-QTOF; MS2; CE 10 ev; [M-H]-
Name: N-alpha-(tert-Butoxycarbonyl)-L-histidine
Formula: C11H17N3O4
Exact mass: 255.121906
SMILES: CC(C)(C)OC(=O)NC(CC1=CN=CN1)C(=O)O
InChI: InChI=1S/C11H17N3O4/c1-11(2,3)18-10(17)14-8(9(15)16)4-7-5-12-6-13-7/h5-6,8H,4H2,1-3H3,(H,12,13)(H,14,17)(H,15,16)
Instrument: Agilent 1200 RRLC; Agilent 6520 QTOF
Instrument type: LC-ESI-QTOF
Ms type: MS2
Ion mode: NEGATIVE
Collision energy: 10 ev
Column name: Agilent C8 Cartridge Column 2.1X30mm 3.5 micron (guard); Agilent SB-Aq 2.1x50mm 1.8 micron (analytical)
Retention time: 2.034
Base peak: 180
Precursor m/z: 254.1146
Precursor type: [M-H]-
m/z	relative intensity
108.054	12
109.0397	40
136.0542	39
137.0343	109
158.7564	16
164.421	11
166.6137	20
180.0417	999
180.0806	35
180.106	14
180.131	11
180.1659	13
180.2399	12
251.0969	11
254.1105	25
