Mass spectrum: Fusaric acid; LC-ESI-QTOF; MS2; CE 20 ev; [M+H]+
Name: Fusaric acid
Formula: C10H13NO2
Exact mass: 179.094629
SMILES: CCCCC1=CN=C(C=C1)C(=O)O
InChI: InChI=1S/C10H13NO2/c1-2-3-4-8-5-6-9(10(12)13)11-7-8/h5-7H,2-4H2,1H3,(H,12,13)
Instrument: Agilent 1200 RRLC; Agilent 6520 QTOF
Instrument type: LC-ESI-QTOF
Ms type: MS2
Ion mode: POSITIVE
Collision energy: 20 ev
Column name: Agilent C8 Cartridge Column 2.1X30mm 3.5 micron (guard); Agilent SB-Aq 2.1x50mm 1.8 micron (analytical)
Retention time: 3.928
Base peak: 134
Precursor m/z: 180.1019
Precursor type: [M+H]+
m/z	relative intensity
105.0704	34
106.0644	84
107.0842	67
115.0537	94
116.059	9
117.069	126
118.0662	59
119.073	98
132.0789	64
133.0818	10
134.0956	999
134.1319	39
134.175	7
134.2021	15
152.1071	15
162.0917	19
166.1156	9
