Mass spectrum: Harmaline; LC-ESI-QTOF; MS2; CE 40 ev; [M+H]+
Name: Harmaline
Formula: C13H14N2O
Exact mass: 214.110613
SMILES: CC1=C2C(=C3C=CC(=CC3=N2)OC)CCN1
InChI: InChI=1S/C13H14N2O/c1-8-13-11(5-6-14-8)10-4-3-9(16-2)7-12(10)15-13/h3-4,7,14H,5-6H2,1-2H3
Instrument: Agilent 1200 RRLC; Agilent 6520 QTOF
Instrument type: LC-ESI-QTOF
Ms type: MS2
Ion mode: POSITIVE
Collision energy: 40 ev
Column name: Agilent C8 Cartridge Column 2.1X30mm 3.5 micron (guard); Agilent SB-Aq 2.1x50mm 1.8 micron (analytical)
Retention time: 4.125
Base peak: 171
Precursor m/z: 215.1179
Precursor type: [M+H]+
m/z	relative intensity
130.066	309
131.0726	761
143.0704	180
144.0778	193
154.0613	148
157.0778	135
171.091	999
172.0957	690
172.1024	296
