Mass spectrum: Jasmonic acid; LC-ESI-QTOF; MS2; CE 10 ev; [M-H]-
Name: Jasmonic acid
Formula: C12H18O3
Exact mass: 210.125594
SMILES: CCC=CCC1C(CCC1=O)CC(=O)O
InChI: InChI=1S/C12H18O3/c1-2-3-4-5-10-9(8-12(14)15)6-7-11(10)13/h3-4,9-10H,2,5-8H2,1H3,(H,14,15)
Instrument: Agilent 1200 RRLC; Agilent 6520 QTOF
Instrument type: LC-ESI-QTOF
Ms type: MS2
Ion mode: NEGATIVE
Collision energy: 10 ev
Column name: Agilent C8 Cartridge Column 2.1X30mm 3.5 micron (guard); Agilent SB-Aq 2.1x50mm 1.8 micron (analytical)
Retention time: 6.706
Base peak: 209
Precursor m/z: 209.1183
Precursor type: [M-H]-
m/z	relative intensity
109.0654	14
123.121	9
126.9749	6
149.0987	7
152.6637	9
165.1291	85
209.0727	15
209.1175	999
