Mass spectrum: 5,7-Dimethoxyflavanone; LC-ESI-QTOF; MS; POSITIVE
Name: 5,7-Dimethoxyflavanone
Formula: C17H16O4
Exact mass: 284.104859
SMILES: COC1=CC(=C2C(=O)CC(OC2=C1)C3=CC=CC=C3)OC
InChI: InChI=1S/C17H16O4/c1-19-12-8-15(20-2)17-13(18)10-14(21-16(17)9-12)11-6-4-3-5-7-11/h3-9,14H,10H2,1-2H3
Instrument: Agilent 1200 RRLC; Agilent 6520 QTOF
Instrument type: LC-ESI-QTOF
Ms type: MS
Ion mode: POSITIVE
Column name: Agilent C8 Cartridge Column 2.1X30mm 3.5 micron (guard); Agilent SB-Aq 2.1x50mm 1.8 micron (analytical)
Retention time: 8.709
m/z	relative intensity
285.1121765	975
307.094118	999
