Mass spectrum: Melatonin; LC-ESI-QTOF; MS; NEGATIVE
Name: Melatonin
Formula: C13H16N2O2
Exact mass: 232.121178
SMILES: CC(=O)NCCC1=CNC2=C1C=C(C=C2)OC
InChI: InChI=1S/C13H16N2O2/c1-9(16)14-6-5-10-8-15-13-4-3-11(17-2)7-12(10)13/h3-4,7-8,15H,5-6H2,1-2H3,(H,14,16)
Instrument: Agilent 1200 RRLC; Agilent 6520 QTOF
Instrument type: LC-ESI-QTOF
Ms type: MS
Ion mode: NEGATIVE
Column name: Agilent C8 Cartridge Column 2.1X30mm 3.5 micron (guard); Agilent SB-Aq 2.1x50mm 1.8 micron (analytical)
Retention time: 5.009
m/z	relative intensity
231.1139235	999
