Mass spectrum: Oxitriptan 1; LC-ESI-QTOF; MS2; CE 20 ev; [M+H]+
Name: Oxitriptan 1
Formula: C11H12N2O3
Exact mass: 220.084792
SMILES: C1=CC2=C(C=C1O)C(=CN2)C[C@@H](C(=O)O)N
InChI: InChI=1S/C11H12N2O3/c12-9(11(15)16)3-6-5-13-10-2-1-7(14)4-8(6)10/h1-2,4-5,9,13-14H,3,12H2,(H,15,16)/t9-/m0/s1
Instrument: Agilent 1200 RRLC; Agilent 6520 QTOF
Instrument type: LC-ESI-QTOF
Ms type: MS2
Ion mode: POSITIVE
Collision energy: 20 ev
Column name: Agilent C8 Cartridge Column 2.1X30mm 3.5 micron (guard); Agilent SB-Aq 2.1x50mm 1.8 micron (analytical)
Retention time: 0.388
Base peak: 162
Precursor m/z: 221.0921
Precursor type: [M+H]+
m/z	relative intensity
103.0544	30
105.0695	22
106.0646	66
107.048	23
115.0528	40
116.0503	88
117.0563	57
118.0597	8
127.9692	8
130.0643	58
131.0516	66
132.0802	86
133.0486	31
134.0591	820
134.093	32
134.1662	8
142.0616	48
142.9885	37
142.9981	13
143.0715	9
146.059	53
148.0756	98
158.0586	205
158.0946	7
159.0676	127
160.0358	30
160.0748	291
160.1104	9
162.0543	999
162.0825	16
162.1084	8
162.1723	8
175.0884	50
176.0687	11
186.0528	154
204.0636	115
