Mass spectrum: 2',6-Dihydroxyflavanone; LC-ESI-QTOF; MS2; CE 20 ev; [M-H]-
Name: 2',6-Dihydroxyflavanone
Formula: C15H12O4
Exact mass: 256.073559
SMILES: C1C(OC2=C(C1=O)C=C(C=C2)O)C3=CC=CC=C3O
InChI: InChI=1S/C15H12O4/c16-9-5-6-14-11(7-9)13(18)8-15(19-14)10-3-1-2-4-12(10)17/h1-7,15-17H,8H2
Instrument: Agilent 1200 RRLC; Agilent 6520 QTOF
Instrument type: LC-ESI-QTOF
Ms type: MS2
Ion mode: NEGATIVE
Collision energy: 20 ev
Column name: Agilent C8 Cartridge Column 2.1X30mm 3.5 micron (guard); Agilent SB-Aq 2.1x50mm 1.8 micron (analytical)
Retention time: 6.828
Base peak: 109
Precursor m/z: 255.0663
Precursor type: [M-H]-
m/z	relative intensity
107.0141	129
107.0402	5
108.0218	228
108.0521	4
108.1198	4
109.0295	999
109.0649	19
109.081	7
109.098	11
109.127	12
109.1588	4
109.2257	4
109.2679	4
109.2756	4
109.4357	6
109.5461	6
110.7705	7
117.0339	105
117.0587	7
119.0504	450
119.0826	14
119.1507	6
121.0219	6
133.0279	6
135.0082	93
135.0465	4
137.0243	11
145.0294	17
149.0236	82
149.0599	5
161.0243	203
161.0446	5
161.0536	7
193.0614	13
196.0567	10
205.6641	5
209.0479	4
209.0617	21
211.0704	7
211.0842	6
213.0571	7
219.0395	5
219.0535	4
237.054	50
255.0569	9
255.0744	9
255.2328	37
