Mass spectrum: Dihydroquercetin; LC-ESI-QTOF; MS2; CE 40 ev; [M-H]-
Name: Dihydroquercetin
Name: 2-(3,4-dihydroxyphenyl)-3,5,7-trihydroxychroman-4-one
Formula: C15H12O7
Exact mass: 304.058303
SMILES: C1=CC(=C(C=C1C2C(C(=O)C3=C(C=C(C=C3O2)O)O)O)O)O
InChI: InChI=1S/C15H12O7/c16-7-4-10(19)12-11(5-7)22-15(14(21)13(12)20)6-1-2-8(17)9(18)3-6/h1-5,14-19,21H
Instrument: Agilent 1200 RRLC; Agilent 6520 QTOF
Instrument type: LC-ESI-QTOF
Ms type: MS2
Ion mode: NEGATIVE
Collision energy: 40 ev
Column name: Agilent C8 Cartridge Column 2.1X30mm 3.5 micron (guard); Agilent SB-Aq 2.1x50mm 1.8 micron (analytical)
Retention time: 4.365
Base peak: 125
Precursor m/z: 303.0510
Precursor type: [M-H]-
m/z	relative intensity
103.0534	48
105.0344	81
107.0137	178
107.0437	36
109.03	180
111.0079	56
115.0534	29
119.0486	37
121.0293	168
122.0378	98
123.0454	608
124.0158	187
125.0233	999
125.0404	32
125.0624	32
129.0325	48
130.041	38
143.0501	106
145.0296	86
146.0418	79
147.0459	37
148.0551	45
149.026	85
150.0316	321
151.0039	348
151.0366	118
151.0632	29
152.0111	114
153.0169	50
157.0347	62
159.0445	69
161.0597	26
164.0489	60
171.0468	81
173.0143	29
173.0244	50
174.0315	130
175.0405	203
176.0152	26
184.0465	30
185.0559	45
187.0398	60
188.0429	79
188.0542	30
189.0557	30
193.0488	32
199.044	45
201.0187	40
207.0218	26
209.6871	32
217.0453	54
259.3664	29
