Mass spectrum: 5,7-Dimethoxyflavanone; LC-ESI-QTOF; MS2; CE 20 ev; [M+H]+
Name: 5,7-Dimethoxyflavanone
Formula: C17H16O4
Exact mass: 284.104859
SMILES: COC1=CC(=C2C(=O)CC(OC2=C1)C3=CC=CC=C3)OC
InChI: InChI=1S/C17H16O4/c1-19-12-8-15(20-2)17-13(18)10-14(21-16(17)9-12)11-6-4-3-5-7-11/h3-9,14H,10H2,1-2H3
Instrument: Agilent 1200 RRLC; Agilent 6520 QTOF
Instrument type: LC-ESI-QTOF
Ms type: MS2
Ion mode: POSITIVE
Collision energy: 20 ev
Column name: Agilent C8 Cartridge Column 2.1X30mm 3.5 micron (guard); Agilent SB-Aq 2.1x50mm 1.8 micron (analytical)
Retention time: 8.709
Base peak: 181
Precursor m/z: 285.1122
Precursor type: [M+H]+
m/z	relative intensity
103.0522	16
103.0575	7
110.0385	5
131.0474	82
138.0295	19
166.0271	24
179.0642	4
181.0484	999
181.0877	32
181.1121	9
181.1378	7
181.1723	13
181.469	6
182.0432	5
243.104	11
285.1094	86
