Mass spectrum: Naringenin; LC-ESI-QTOF; MS2; CE 40 ev; [M-H]-
Name: Naringenin
Formula: C15H12O5
Exact mass: 272.068473
SMILES: C1[C@H](OC2=CC(=CC(=C2C1=O)O)O)C3=CC=C(C=C3)O
InChI: InChI=1S/C15H12O5/c16-9-3-1-8(2-4-9)13-7-12(19)15-11(18)5-10(17)6-14(15)20-13/h1-6,13,16-18H,7H2/t13-/m0/s1
Instrument: Agilent 1200 RRLC; Agilent 6520 QTOF
Instrument type: LC-ESI-QTOF
Ms type: MS2
Ion mode: NEGATIVE
Collision energy: 40 ev
Column name: Agilent C8 Cartridge Column 2.1X30mm 3.5 micron (guard); Agilent SB-Aq 2.1x50mm 1.8 micron (analytical)
Retention time: 6.647
Base peak: 119
Precursor m/z: 271.0612
Precursor type: [M-H]-
m/z	relative intensity
107.0128	123
108.022	12
109.0285	15
117.0344	29
119.0496	999
119.0798	30
119.1019	15
119.1237	7
119.1512	15
119.1861	5
121.0323	6
143.0492	29
145.0264	18
151.0026	45
157.0614	8
161.0603	12
177.0175	11
185.0583	5
187.043	26
201.0573	6
