Mass spectrum: N-methylcorydaldine; LC-ESI-QTOF; MS; POSITIVE
Name: N-methylcorydaldine
Formula: C12H15NO3
Exact mass: 221.105193
SMILES: CN1CCC2=CC(=C(C=C2C1=O)OC)OC
InChI: InChI=1S/C12H15NO3/c1-13-5-4-8-6-10(15-2)11(16-3)7-9(8)12(13)14/h6-7H,4-5H2,1-3H3
Instrument: Agilent 1200 RRLC; Agilent 6520 QTOF
Instrument type: LC-ESI-QTOF
Ms type: MS
Ion mode: POSITIVE
Column name: Agilent C8 Cartridge Column 2.1X30mm 3.5 micron (guard); Agilent SB-Aq 2.1x50mm 1.8 micron (analytical)
Retention time: 5.830
m/z	relative intensity
222.1124765	999
244.094418	435
