Mass spectrum: 3-Hydroxy-3',4',5'-trimethoxyflavone; LC-ESI-QTOF; MS2; CE 40 ev; [M+H]+
Name: 3-Hydroxy-3',4',5'-trimethoxyflavone
Formula: C18H16O6
Exact mass: 328.094688
SMILES: COC1=CC(=CC(=C1OC)OC)C2=C(C(=O)C3=CC=CC=C3O2)O
InChI: InChI=1S/C18H16O6/c1-21-13-8-10(9-14(22-2)18(13)23-3)17-16(20)15(19)11-6-4-5-7-12(11)24-17/h4-9,20H,1-3H3
Instrument: Agilent 1200 RRLC; Agilent 6520 QTOF
Instrument type: LC-ESI-QTOF
Ms type: MS2
Ion mode: POSITIVE
Collision energy: 40 ev
Column name: Agilent C8 Cartridge Column 2.1X30mm 3.5 micron (guard); Agilent SB-Aq 2.1x50mm 1.8 micron (analytical)
Retention time: 9.280
Base peak: 121
Precursor m/z: 329.1020
Precursor type: [M+H]+
m/z	relative intensity
105.0342	107
115.0534	91
118.0407	140
121.0277	999
133.0285	116
134.0327	91
141.0719	99
150.0313	99
165.0685	83
169.0632	91
181.0596	252
185.0647	87
197.0594	367
200.0475	107
201.0504	268
209.0613	87
211.0343	165
211.074	190
225.0518	161
228.0409	83
229.0498	178
237.0549	268
239.0689	821
242.0585	99
243.063	239
252.0393	87
253.0487	553
255.0644	252
267.0669	359
268.0719	87
270.049	227
281.0455	206
285.0777	103
295.0587	107
299.0533	132
