Mass spectrum: Abscisic acid; LC-ESI-QTOF; MS2; CE 10 ev; [M-H]-
Name: Abscisic acid
Formula: C15H20O4
Exact mass: 264.136159
SMILES: CC1=CC(=O)CC(C1(C=CC(=CC(=O)O)C)O)(C)C
InChI: InChI=1S/C15H20O4/c1-10(7-13(17)18)5-6-15(19)11(2)8-12(16)9-14(15,3)4/h5-8,19H,9H2,1-4H3,(H,17,18)
Instrument: Agilent 1200 RRLC; Agilent 6520 QTOF
Instrument type: LC-ESI-QTOF
Ms type: MS2
Ion mode: NEGATIVE
Collision energy: 10 ev
Column name: Agilent C8 Cartridge Column 2.1X30mm 3.5 micron (guard); Agilent SB-Aq 2.1x50mm 1.8 micron (analytical)
Retention time: 6.450
Base peak: 153
Precursor m/z: 263.1289
Precursor type: [M-H]-
m/z	relative intensity
139.075	6
151.0736	7
152.0834	81
153.0914	999
153.1258	29
153.1509	12
153.1776	8
153.2064	14
159.1155	7
161.0964	19
163.0737	16
186.103	7
201.1269	65
203.1042	5
204.115	96
219.1382	276
219.1799	9
263.1277	60
