Mass spectrum: Histidinol; LC-ESI-QTOF; MS2; CE 10 ev; [M+H]+
Name: Histidinol
Formula: C6H11N3O
Exact mass: 141.090212
SMILES: C1=C(NC=N1)CC(CO)N
InChI: InChI=1S/C6H11N3O/c7-5(3-10)1-6-2-8-4-9-6/h2,4-5,10H,1,3,7H2,(H,8,9)
Instrument: Agilent 1200 RRLC; Agilent 6520 QTOF
Instrument type: LC-ESI-QTOF
Ms type: MS2
Ion mode: POSITIVE
Collision energy: 10 ev
Column name: Agilent C8 Cartridge Column 2.1X30mm 3.5 micron (guard); Agilent SB-Aq 2.1x50mm 1.8 micron (analytical)
Retention time: 0.298
Base peak: 124
Precursor m/z: 142.0975
Precursor type: [M+H]+
m/z	relative intensity
107.0599	61
124.0864	999
124.1169	17
124.1236	6
124.1387	17
124.1623	8
124.1894	13
124.22	4
125.0709	171
125.1046	6
142.0969	287
