Mass spectrum: Linolenic acid; LC-APCI-QTOF; MS; POSITIVE
Name: Linolenic acid
Formula: C18H30O2
Exact mass: 278.22458
SMILES: CCC=CCC=CCC=CCCCCCCCC(=O)O
InChI: InChI=1S/C18H30O2/c1-2-3-4-5-6-7-8-9-10-11-12-13-14-15-16-17-18(19)20/h3-4,6-7,9-10H,2,5,8,11-17H2,1H3,(H,19,20)
Instrument: Agilent 1200 RRLC; Agilent 6520 QTOF
Instrument type: LC-APCI-QTOF
Ms type: MS
Ion mode: POSITIVE
Column name: Agilent C8 Cartridge Column 2.1X30mm 3.5 micron (guard); Agilent SB-Aq 2.1x50mm 1.8 micron (analytical)
Retention time: 11.577
m/z	relative intensity
279.2318765	999
