Mass spectrum: Rubone; LC-APCI-QTOF; MS; POSITIVE
Name: Rubone
Formula: C20H22O7
Exact mass: 374.136553
SMILES: COC1=CC(=C(C(=C1)OC)C(=O)C=CC2=CC(=C(C=C2OC)OC)OC)O
InChI: InChI=1S/C20H22O7/c1-23-13-9-15(22)20(19(10-13)27-5)14(21)7-6-12-8-17(25-3)18(26-4)11-16(12)24-2/h6-11,22H,1-5H3
Instrument: Agilent 1200 RRLC; Agilent 6520 QTOF
Instrument type: LC-APCI-QTOF
Ms type: MS
Ion mode: POSITIVE
Column name: Agilent C8 Cartridge Column 2.1X30mm 3.5 micron (guard); Agilent SB-Aq 2.1x50mm 1.8 micron (analytical)
Retention time: 10.230
m/z	relative intensity
375.1438765	999
