Mass spectrum: Kynurenic Acid; LC-ESI-QTOF; MS2; CE 20 ev; [M+H]+
Name: Kynurenic Acid
Formula: C10H7NO3
Exact mass: 189.042593
SMILES: C1=CC=C2C(=C1)C(=O)C=C(N2)C(=O)O
InChI: InChI=1S/C10H7NO3/c12-9-5-8(10(13)14)11-7-4-2-1-3-6(7)9/h1-5H,(H,11,12)(H,13,14)
Instrument: Agilent 1200 RRLC; Agilent 6520 QTOF
Instrument type: LC-ESI-QTOF
Ms type: MS2
Ion mode: POSITIVE
Collision energy: 20 ev
Column name: Agilent C8 Cartridge Column 2.1X30mm 3.5 micron (guard); Agilent SB-Aq 2.1x50mm 1.8 micron (analytical)
Retention time: 2.730
Base peak: 144
Precursor m/z: 190.0499
Precursor type: [M+H]+
m/z	relative intensity
116.0486	107
144.0441	999
144.0797	28
144.0967	11
144.1118	5
144.1274	9
144.1553	26
172.0349	10
