Mass spectrum: Biochanin A; LC-ESI-QTOF; MS2; CE 20 ev; [M-H]-
Name: Biochanin A
Formula: C16H12O5
Exact mass: 284.068473
SMILES: COC1=CC=C(C=C1)C2=COC3=CC(=CC(=C3C2=O)O)O
InChI: InChI=1S/C16H12O5/c1-20-11-4-2-9(3-5-11)12-8-21-14-7-10(17)6-13(18)15(14)16(12)19/h2-8,17-18H,1H3
Instrument: Agilent 1200 RRLC; Agilent 6520 QTOF
Instrument type: LC-ESI-QTOF
Ms type: MS2
Ion mode: NEGATIVE
Collision energy: 20 ev
Column name: Agilent C8 Cartridge Column 2.1X30mm 3.5 micron (guard); Agilent SB-Aq 2.1x50mm 1.8 micron (analytical)
Retention time: 8.408
Base peak: 268
Precursor m/z: 283.0612
Precursor type: [M-H]-
m/z	relative intensity
132.02	12
195.0444	6
211.0366	20
212.0474	8
223.0416	8
224.0459	13
226.0275	8
239.0339	30
240.0416	19
267.0303	41
268.0374	999
268.0923	11
268.1875	15
283.0603	521
