Mass spectrum: 6-Ethoxy-3(4'-hydroxyphenyl)-4-methylcoumarin; LC-ESI-QTOF; MS2; CE 40 ev; [M+H]+
Name: 6-Ethoxy-3(4'-hydroxyphenyl)-4-methylcoumarin
Formula: C18H16O4
Exact mass: 296.104859
SMILES: CCOC1=CC2=C(C=C1)OC(=O)C(=C2C)C3=CC=C(C=C3)O
InChI: InChI=1S/C18H16O4/c1-3-21-14-8-9-16-15(10-14)11(2)17(18(20)22-16)12-4-6-13(19)7-5-12/h4-10,19H,3H2,1-2H3
Instrument: Agilent 1200 RRLC; Agilent 6520 QTOF
Instrument type: LC-ESI-QTOF
Ms type: MS2
Ion mode: POSITIVE
Collision energy: 40 ev
Column name: Agilent C8 Cartridge Column 2.1X30mm 3.5 micron (guard); Agilent SB-Aq 2.1x50mm 1.8 micron (analytical)
Retention time: 8.617
Base peak: 119
Precursor m/z: 297.1122
Precursor type: [M+H]+
m/z	relative intensity
103.0515	165
107.0488	376
119.0483	999
131.0472	227
141.0679	115
147.0428	310
147.0769	86
148.0495	82
152.06	214
153.0708	122
165.0685	165
167.0853	79
169.0648	158
170.0715	69
177.0692	119
179.086	109
181.0635	191
182.0729	165
184.0878	138
195.0776	290
197.0593	326
198.0685	175
210.0642	112
212.0851	73
213.0908	122
226.0606	274
269.0783	73
