Mass spectrum: Skimmianine; LC-ESI-QTOF; MS2; CE 20 ev; [M+H]+
Name: Skimmianine
Formula: C14H13NO4
Exact mass: 259.084458
SMILES: COC1=C(C2=C(C=C1)C(=C3C=COC3=N2)OC)OC
InChI: InChI=1S/C14H13NO4/c1-16-10-5-4-8-11(13(10)18-3)15-14-9(6-7-19-14)12(8)17-2/h4-7H,1-3H3
Instrument: Agilent 1200 RRLC; Agilent 6520 QTOF
Instrument type: LC-ESI-QTOF
Ms type: MS2
Ion mode: POSITIVE
Collision energy: 20 ev
Column name: Agilent C8 Cartridge Column 2.1X30mm 3.5 micron (guard); Agilent SB-Aq 2.1x50mm 1.8 micron (analytical)
Retention time: 7.701
Base peak: 227
Precursor m/z: 260.0918
Precursor type: [M+H]+
m/z	relative intensity
156.0445	28
184.0367	52
199.063	213
199.1029	13
212.037	18
216.0646	164
227.0571	999
227.1144	14
227.1307	14
227.1957	13
230.0439	93
244.0586	56
245.0678	249
245.1017	14
260.0922	232
