Mass spectrum: Demethoxycentaureidin 7-O-rutinoside; LC-ESI-QTOF; MS2; CE 20 ev; [M-H]-
Name: Demethoxycentaureidin 7-O-rutinoside
Formula: C29H34O16
Exact mass: 638.184685
SMILES: CC1C(C(C(C(O1)OCC2C(C(C(C(O2)OC3=C(C(=C4C(=C3)OC(=CC4=O)C5=CC(=C(C=C5)O)OC)O)OC)O)O)O)O)O)O
InChI: InChI=1S/C29H34O16/c1-10-20(32)23(35)25(37)28(42-10)41-9-18-21(33)24(36)26(38)29(45-18)44-17-8-16-19(22(34)27(17)40-3)13(31)7-14(43-16)11-4-5-12(30)15(6-11)39-2/h4-8,10,18,20-21,23-26,28-30,32-38H,9H2,1-3H3
Instrument: Agilent 1200 RRLC; Agilent 6520 QTOF
Instrument type: LC-ESI-QTOF
Ms type: MS2
Ion mode: NEGATIVE
Collision energy: 20 ev
Column name: Agilent C8 Cartridge Column 2.1X30mm 3.5 micron (guard); Agilent SB-Aq 2.1x50mm 1.8 micron (analytical)
Retention time: 6.612
Base peak: 329
Precursor m/z: 637.1774
Precursor type: [M-H]-
m/z	relative intensity
127.8404	13
147.7058	7
216.9967	10
298.994	8
299.0274	12
314.0532	14
323.7724	10
329.0662	999
329.1141	26
329.1349	8
329.1544	31
329.178	8
329.2338	11
329.4855	9
329.8318	9
329.9217	11
330.0643	8
371.0832	14
488.9434	13
576.5863	8
588.7201	8
637.1789	338
