Mass spectrum: Quinic acid; LC-APCI-QTOF; MS; NEGATIVE
Name: Quinic acid
Formula: C7H12O6
Exact mass: 192.063388
SMILES: C1C(C(C(CC1(C(=O)O)O)O)O)O
InChI: InChI=1S/C7H12O6/c8-3-1-7(13,6(11)12)2-4(9)5(3)10/h3-5,8-10,13H,1-2H2,(H,11,12)
Instrument: Agilent 1200 RRLC; Agilent 6520 QTOF
Instrument type: LC-APCI-QTOF
Ms type: MS
Ion mode: NEGATIVE
Column name: Agilent C8 Cartridge Column 2.1X30mm 3.5 micron (guard); Agilent SB-Aq 2.1x50mm 1.8 micron (analytical)
Retention time: 0.403
m/z	relative intensity
191.0561235	999
