Mass spectrum: Kaempferol; LC-ESI-QTOF; MS2; CE 40 ev; [M-H]-
Name: Kaempferol
Formula: C15H10O6
Exact mass: 286.047738
SMILES: C1=CC(=CC=C1C2=C(C(=O)C3=C(C=C(C=C3O2)O)O)O)O
InChI: InChI=1S/C15H10O6/c16-8-3-1-7(2-4-8)15-14(20)13(19)12-10(18)5-9(17)6-11(12)21-15/h1-6,16-18,20H
Instrument: Agilent 1200 RRLC; Agilent 6520 QTOF
Instrument type: LC-ESI-QTOF
Ms type: MS2
Ion mode: NEGATIVE
Collision energy: 40 ev
Column name: Agilent C8 Cartridge Column 2.1X30mm 3.5 micron (guard); Agilent SB-Aq 2.1x50mm 1.8 micron (analytical)
Retention time: 7.453
Base peak: 159
Precursor m/z: 285.0404
Precursor type: [M-H]-
m/z	relative intensity
100.4873	43
103.0552	61
105.0354	124
107.0173	174
108.0217	666
108.0467	47
109.0292	249
115.0566	134
117.0341	637
117.0632	72
119.0137	104
119.0501	75
120.0228	229
121.0272	322
123.0108	104
123.7443	50
127.0496	118
129.0327	183
129.0642	84
131.0463	415
132.0237	129
132.0352	54
133.0315	115
135.0083	274
135.0417	129
136.0141	73
137.0248	227
141.0345	64
143.0492	392
145.0262	439
147.0394	43
147.7113	41
148.9871	39
149.0254	39
151.002	190
151.0428	84
154.0409	122
155.047	202
155.061	56
156.0573	252
157.0273	215
157.0623	374
158.0379	430
159.0448	999
159.5159	38
161.0257	410
161.0529	82
163.0043	57
164.0064	95
167.0502	329
168.0525	158
170.0357	132
171.0446	240
173.0247	140
175.041	38
182.0342	206
183.0454	281
183.0654	41
184.0523	102
185.0313	120
185.0621	238
187.0384	476
189.051	129
190.9959	86
195.0394	168
196.05	79
197.0204	86
197.0601	48
198.0311	167
199.0374	81
201.0517	77
201.0669	124
210.0323	138
211.0398	320
211.0709	47
213.0524	188
214.0281	104
226.0378	45
227.0267	236
227.0498	56
227.1762	39
229.0498	276
230.0176	43
238.0136	59
239.0238	66
239.0408	152
240.0419	231
243.0174	47
255.0292	319
267.0224	102
284.0261	70
285.0413	299
