Mass spectrum: Dehydroglaucine; LC-APCI-QTOF; MS; POSITIVE
Name: Dehydroglaucine
Formula: C21H23NO4
Exact mass: 353.162708
SMILES: CN1CCC2=CC(=C(C3=C4C=C(C(=CC4=CC1=C23)OC)OC)OC)OC
InChI: InChI=1S/C21H23NO4/c1-22-7-6-12-9-18(25-4)21(26-5)20-14-11-17(24-3)16(23-2)10-13(14)8-15(22)19(12)20/h8-11H,6-7H2,1-5H3
Instrument: Agilent 1200 RRLC; Agilent 6520 QTOF
Instrument type: LC-APCI-QTOF
Ms type: MS
Ion mode: POSITIVE
Column name: Agilent C8 Cartridge Column 2.1X30mm 3.5 micron (guard); Agilent SB-Aq 2.1x50mm 1.8 micron (analytical)
Retention time: 9.759
m/z	relative intensity
354.1699765	999
