Mass spectrum: Genipin; LC-APCI-QTOF; MS; NEGATIVE
Name: Genipin
Formula: C11H14O5
Exact mass: 226.084124
SMILES: COC(=O)C1=COC(C2C1CC=C2CO)O
InChI: InChI=1S/C11H14O5/c1-15-10(13)8-5-16-11(14)9-6(4-12)2-3-7(8)9/h2,5,7,9,11-12,14H,3-4H2,1H3
Instrument: Agilent 1200 RRLC; Agilent 6520 QTOF
Instrument type: LC-APCI-QTOF
Ms type: MS
Ion mode: NEGATIVE
Column name: Agilent C8 Cartridge Column 2.1X30mm 3.5 micron (guard); Agilent SB-Aq 2.1x50mm 1.8 micron (analytical)
Retention time: 4.386
m/z	relative intensity
225.0768235	999
