Mass spectrum: 4'-Hydroxy-5,7-dimethoxyflavanone; LC-ESI-QTOF; MS; POSITIVE
Name: 4'-Hydroxy-5,7-dimethoxyflavanone
Formula: C17H16O5
Exact mass: 300.099774
SMILES: COC1=CC(=C2C(=O)CC(OC2=C1)C3=CC=C(C=C3)O)OC
InChI: InChI=1S/C17H16O5/c1-20-12-7-15(21-2)17-13(19)9-14(22-16(17)8-12)10-3-5-11(18)6-4-10/h3-8,14,18H,9H2,1-2H3
Instrument: Agilent 1200 RRLC; Agilent 6520 QTOF
Instrument type: LC-ESI-QTOF
Ms type: MS
Ion mode: POSITIVE
Column name: Agilent C8 Cartridge Column 2.1X30mm 3.5 micron (guard); Agilent SB-Aq 2.1x50mm 1.8 micron (analytical)
Retention time: 7.513
m/z	relative intensity
301.1070765	999
323.089018	688
