Mass spectrum: 3',7-Dimethoxy-3-hydroxyflavone; LC-ESI-QTOF; MS2; CE 40 ev; [M+H]+
Name: 3',7-Dimethoxy-3-hydroxyflavone
Formula: C17H14O5
Exact mass: 298.084124
SMILES: COC1=CC2=C(C=C1)C(=O)C(=C(O2)C3=CC(=CC=C3)OC)O
InChI: InChI=1S/C17H14O5/c1-20-11-5-3-4-10(8-11)17-16(19)15(18)13-7-6-12(21-2)9-14(13)22-17/h3-9,19H,1-2H3
Instrument: Agilent 1200 RRLC; Agilent 6520 QTOF
Instrument type: LC-ESI-QTOF
Ms type: MS2
Ion mode: POSITIVE
Collision energy: 40 ev
Column name: Agilent C8 Cartridge Column 2.1X30mm 3.5 micron (guard); Agilent SB-Aq 2.1x50mm 1.8 micron (analytical)
Retention time: 9.542
Base peak: 151
Precursor m/z: 299.0914
Precursor type: [M+H]+
m/z	relative intensity
107.0479	182
108.0203	355
122.0362	87
128.0518	91
129.0694	231
135.0416	396
137.0568	144
139.0489	87
150.0353	111
151.039	999
152.0632	103
154.0796	87
157.0668	161
163.0386	87
168.0554	140
169.0636	202
182.0752	103
184.0533	107
185.0575	219
197.0631	128
199.0758	277
210.0704	202
211.0726	169
213.0538	838
225.0525	120
227.0692	846
228.0817	471
241.0542	128
255.0697	219
256.0705	826
267.0642	198
284.0708	87
299.0899	132
