Mass spectrum: Dichlorobenzimidazole Riboside, DRB (5,6-Dichloro-1-b-D-ribofuranosylbenzimidazole); LC-ESI-QTOF; MS2; CE 40 ev; [M-H]-
Name: Dichlorobenzimidazole Riboside, DRB (5,6-Dichloro-1-b-D-ribofuranosylbenzimidazole)
Formula: C12H12Cl2N2O4
Exact mass: 318.017412
SMILES: C1=C2C(=CC(=C1Cl)Cl)N(C=N2)C3C(C(C(O3)CO)O)O
InChI: InChI=1S/C12H12Cl2N2O4/c13-5-1-7-8(2-6(5)14)16(4-15-7)12-11(19)10(18)9(3-17)20-12/h1-2,4,9-12,17-19H,3H2
Instrument: Agilent 1200 RRLC; Agilent 6520 QTOF
Instrument type: LC-ESI-QTOF
Ms type: MS2
Ion mode: NEGATIVE
Collision energy: 40 ev
Column name: Agilent C8 Cartridge Column 2.1X30mm 3.5 micron (guard); Agilent SB-Aq 2.1x50mm 1.8 micron (analytical)
Retention time: 5.520
Base peak: 185
Precursor m/z: 317.0101
Precursor type: [M-H]-
m/z	relative intensity
113.0124	11
148.9909	226
149.0308	12
149.9962	17
160.8637	5
180.4915	5
184.9673	999
184.9988	6
185.0093	40
185.0577	9
185.0935	13
185.117	6
185.1941	6
185.2396	5
185.5347	11
185.6884	5
209.1849	5
244.7819	5
298.0765	8
305.659	6
