Mass spectrum: Moroxydine; LC-ESI-QTOF; MS; POSITIVE
Name: Moroxydine
Formula: C6H13N5O
Exact mass: 171.11201
SMILES: C1COCCN1C(=N)N=C(N)N
InChI: InChI=1S/C6H13N5O/c7-5(8)10-6(9)11-1-3-12-4-2-11/h1-4H2,(H5,7,8,9,10)
Instrument: Agilent 1200 RRLC; Agilent 6520 QTOF
Instrument type: LC-ESI-QTOF
Ms type: MS
Ion mode: POSITIVE
Column name: Agilent C8 Cartridge Column 2.1X30mm 3.5 micron (guard); Agilent SB-Aq 2.1x50mm 1.8 micron (analytical)
Retention time: 0.391
m/z	relative intensity
172.1192765	999
