Mass spectrum: Cycloheximide; LC-ESI-QTOF; MS2; CE 10 ev; [M+H]+
Name: Cycloheximide
Formula: C15H23NO4
Exact mass: 281.162708
SMILES: C[C@H]1C[C@@H](C(=O)[C@@H](C1)[C@@H](CC2CC(=O)NC(=O)C2)O)C
InChI: InChI=1S/C15H23NO4/c1-8-3-9(2)15(20)11(4-8)12(17)5-10-6-13(18)16-14(19)7-10/h8-12,17H,3-7H2,1-2H3,(H,16,18,19)/t8-,9-,11-,12+/m0/s1
Instrument: Agilent 1200 RRLC; Agilent 6520 QTOF
Instrument type: LC-ESI-QTOF
Ms type: MS2
Ion mode: POSITIVE
Collision energy: 10 ev
Column name: Agilent C8 Cartridge Column 2.1X30mm 3.5 micron (guard); Agilent SB-Aq 2.1x50mm 1.8 micron (analytical)
Retention time: 5.689
Base peak: 246
Precursor m/z: 282.1700
Precursor type: [M+H]+
m/z	relative intensity
107.0487	101
107.0859	106
109.0973	61
121.0244	53
135.1128	61
143.0825	56
145.0988	157
153.0882	81
157.0999	86
159.1105	71
159.1277	56
173.1339	223
177.1284	53
185.0897	63
187.1061	142
205.127	96
218.149	51
219.1418	119
228.1241	66
229.1218	387
236.1534	61
246.1477	999
247.1324	410
264.1542	470
264.1964	91
265.1427	599
282.1585	245
