Mass spectrum: Scopoletin; LC-APCI-QTOF; MS; NEGATIVE
Name: Scopoletin
Formula: C10H8O4
Exact mass: 192.042259
SMILES: COC1=C(C=C2C(=C1)C=CC(=O)O2)O
InChI: InChI=1S/C10H8O4/c1-13-9-4-6-2-3-10(12)14-8(6)5-7(9)11/h2-5,11H,1H3
Instrument: Agilent 1200 RRLC; Agilent 6520 QTOF
Instrument type: LC-APCI-QTOF
Ms type: MS
Ion mode: NEGATIVE
Column name: Agilent C8 Cartridge Column 2.1X30mm 3.5 micron (guard); Agilent SB-Aq 2.1x50mm 1.8 micron (analytical)
Retention time: 4.705
m/z	relative intensity
191.0350235	999
