Mass spectrum: 5-Ethyl-2'-deoxyuridine; LC-APCI-QTOF; MS; NEGATIVE
Name: 5-Ethyl-2'-deoxyuridine
Formula: C11H16N2O5
Exact mass: 256.105922
SMILES: CCC1=CN(C(=O)NC1=O)C2CC(C(O2)CO)O
InChI: InChI=1S/C11H16N2O5/c1-2-6-4-13(11(17)12-10(6)16)9-3-7(15)8(5-14)18-9/h4,7-9,14-15H,2-3,5H2,1H3,(H,12,16,17)
Instrument: Agilent 1200 RRLC; Agilent 6520 QTOF
Instrument type: LC-APCI-QTOF
Ms type: MS
Ion mode: NEGATIVE
Column name: Agilent C8 Cartridge Column 2.1X30mm 3.5 micron (guard); Agilent SB-Aq 2.1x50mm 1.8 micron (analytical)
Retention time: 2.508
m/z	relative intensity
255.0986235	999
291.075302	392
