Mass spectrum: Luteolin; LC-ESI-QTOF; MS2; CE 20 ev; [M-H]-
Name: Luteolin
Formula: C15H10O6
Exact mass: 286.047738
SMILES: C1=CC(=C(C=C1C2=CC(=O)C3=C(C=C(C=C3O2)O)O)O)O
InChI: InChI=1S/C15H10O6/c16-8-4-11(19)15-12(20)6-13(21-14(15)5-8)7-1-2-9(17)10(18)3-7/h1-6,16-19H
Instrument: Agilent 1200 RRLC; Agilent 6520 QTOF
Instrument type: LC-ESI-QTOF
Ms type: MS2
Ion mode: NEGATIVE
Collision energy: 20 ev
Column name: Agilent C8 Cartridge Column 2.1X30mm 3.5 micron (guard); Agilent SB-Aq 2.1x50mm 1.8 micron (analytical)
Retention time: 7.144
Base peak: 285
Precursor m/z: 285.0404
Precursor type: [M-H]-
m/z	relative intensity
107.0138	14
133.0288	70
149.0248	20
151.0028	54
175.0397	36
197.0613	9
198.0336	8
199.0414	29
201.0198	8
213.0586	11
215.0376	9
217.0495	25
241.0509	19
243.0288	13
256.0324	24
257.0378	16
285.0398	999
