Mass spectrum: Cytidine; LC-ESI-QTOF; MS2; CE 10 ev; [M+H]+
Name: Cytidine
Formula: C9H13N3O5
Exact mass: 243.085521
SMILES: C1=CN(C(=O)N=C1N)C2C(C(C(O2)CO)O)O
InChI: InChI=1S/C9H13N3O5/c10-5-1-2-12(9(16)11-5)8-7(15)6(14)4(3-13)17-8/h1-2,4,6-8,13-15H,3H2,(H2,10,11,16)
Instrument: Agilent 1200 RRLC; Agilent 6520 QTOF
Instrument type: LC-ESI-QTOF
Ms type: MS2
Ion mode: POSITIVE
Collision energy: 10 ev
Column name: Agilent C8 Cartridge Column 2.1X30mm 3.5 micron (guard); Agilent SB-Aq 2.1x50mm 1.8 micron (analytical)
Retention time: 0.390
Base peak: 112
Precursor m/z: 244.0928
Precursor type: [M+H]+
m/z	relative intensity
112.0502	999
112.0818	27
112.1	13
112.1205	5
112.1479	18
112.1788	1
112.1973	3
112.216	1
112.2499	3
112.279	2
112.3012	1
112.3115	1
112.3233	1
112.3316	1
112.3515	2
112.3888	2
112.4368	1
112.4449	1
112.4873	3
112.5078	2
112.5239	2
112.5689	1
112.6188	1
112.654	2
112.7101	1
112.8204	1
112.871	1
112.8876	1
112.9371	1
113.4194	1
115.0286	1
115.0394	1
133.0523	2
244.0848	1
