Mass spectrum: Pinocembrine; LC-ESI-QTOF; MS2; CE 40 ev; [M-H]-
Name: Pinocembrine
Formula: C15H12O4
Exact mass: 256.073559
SMILES: C1[C@@H](OC2=CC(=CC(=C2C1=O)O)O)C3=CC=CC=C3
InChI: InChI=1S/C15H12O4/c16-10-6-11(17)15-12(18)8-13(19-14(15)7-10)9-4-2-1-3-5-9/h1-7,13,16-17H,8H2/t13-/m1/s1
Instrument: Agilent 1200 RRLC; Agilent 6520 QTOF
Instrument type: LC-ESI-QTOF
Ms type: MS2
Ion mode: NEGATIVE
Collision energy: 40 ev
Column name: Agilent C8 Cartridge Column 2.1X30mm 3.5 micron (guard); Agilent SB-Aq 2.1x50mm 1.8 micron (analytical)
Retention time: 7.874
Base peak: 107
Precursor m/z: 255.0663
Precursor type: [M-H]-
m/z	relative intensity
101.0404	283
101.0741	10
103.0543	221
103.0806	9
105.0332	15
107.0136	999
107.0445	21
107.0506	14
107.0667	12
107.0847	9
107.1107	12
108.022	473
108.0535	21
108.9864	8
108.9943	9
109.0272	36
115.0546	147
117.0346	143
117.0696	78
119.0197	12
120.0201	43
121.028	12
122.0005	62
123.0077	111
125.0231	31
127.0551	183
129.074	11
130.0426	160
131.0501	9
132.0258	10
133.0276	17
136.0144	152
136.0586	8
137.5486	8
139.052	25
139.061	11
141.0704	287
143.0492	163
145.0279	8
145.0651	633
145.1001	37
147.0455	10
150.7863	8
151.0028	322
151.052	29
152.0678	16
154.0583	9
155.0834	29
157.0627	37
163.0027	32
164.0117	64
165.0739	8
165.6639	19
167.0462	40
169.0672	178
171.0442	937
171.0831	14
171.0991	20
171.1296	8
171.1662	14
172.0507	105
172.093	7
177.0159	16
181.0692	14
182.0808	8
183.0819	34
184.0521	23
184.7318	9
185.0601	552
185.0942	25
185.1247	10
185.1868	10
187.0745	26
193.0721	11
195.0467	19
199.075	12
209.0564	10
210.0636	10
211.0805	41
213.0546	152
227.0657	21
227.0785	11
237.0701	8
255.0608	13
255.0738	17
