Mass spectrum: Camptothecin; LC-ESI-QTOF; MS2; CE 20 ev; [M-H]-
Name: Camptothecin
Formula: C20H16N2O4
Exact mass: 348.111007
SMILES: CCC1(C2=C(COC1=O)C(=O)N3CC4=CC5=CC=CC=C5N=C4C3=C2)O
InChI: InChI=1S/C20H16N2O4/c1-2-20(25)14-8-16-17-12(7-11-5-3-4-6-15(11)21-17)9-22(16)18(23)13(14)10-26-19(20)24/h3-8,25H,2,9-10H2,1H3
Instrument: Agilent 1200 RRLC; Agilent 6520 QTOF
Instrument type: LC-ESI-QTOF
Ms type: MS2
Ion mode: NEGATIVE
Collision energy: 20 ev
Column name: Agilent C8 Cartridge Column 2.1X30mm 3.5 micron (guard); Agilent SB-Aq 2.1x50mm 1.8 micron (analytical)
Retention time: 7.594
Base peak: 303
Precursor m/z: 347.1037
Precursor type: [M-H]-
m/z	relative intensity
100.9996	5
121.0301	5
123.0445	32
135.8938	6
167.061	28
218.0887	6
230.0854	23
231.1027	7
246.0757	23
247.0849	34
247.117	5
247.1405	6
257.1064	7
259.1194	39
276.0913	6
288.0891	58
303.112	999
303.1559	18
303.2113	6
303.2298	8
303.2665	14
303.3552	9
303.3954	6
303.4247	8
303.4849	9
303.5412	8
303.6097	6
303.8643	6
303.9995	6
304.2947	7
