Mass spectrum: 3,4,2',4',6'-Pentamethoxychalcone; LC-ESI-QTOF; MS2; CE 20 ev; [M+H]+
Name: 3,4,2',4',6'-Pentamethoxychalcone
Formula: C20H22O6
Exact mass: 358.141638
SMILES: COC1=C(C=C(C=C1)/C=C/C(=O)C2=C(C=C(C=C2OC)OC)OC)OC
InChI: InChI=1S/C20H22O6/c1-22-14-11-18(25-4)20(19(12-14)26-5)15(21)8-6-13-7-9-16(23-2)17(10-13)24-3/h6-12H,1-5H3/b8-6+
Instrument: Agilent 1200 RRLC; Agilent 6520 QTOF
Instrument type: LC-ESI-QTOF
Ms type: MS2
Ion mode: POSITIVE
Collision energy: 20 ev
Column name: Agilent C8 Cartridge Column 2.1X30mm 3.5 micron (guard); Agilent SB-Aq 2.1x50mm 1.8 micron (analytical)
Retention time: 8.601
Base peak: 195
Precursor m/z: 359.1489
Precursor type: [M+H]+
m/z	relative intensity
137.0284	10
152.0465	16
163.0746	25
180.0339	16
180.0432	11
191.07	246
195.0641	999
195.1047	27
195.1916	11
341.1392	9
359.151	53
