Mass spectrum: 5-(6-acetyloxy-3,5,7-trimethoxy-4-oxochromen-2-yl)-2-methoxyphenyl acetate; LC-ESI-QTOF; MS2; CE 20 ev; [M+H]+
Name: 5-(6-acetyloxy-3,5,7-trimethoxy-4-oxochromen-2-yl)-2-methoxyphenyl acetate
Formula: C23H22O10
Exact mass: 458.121297
SMILES: CC(=O)OC1=C(C=CC(=C1)C2=C(C(=O)C3=C(C(=C(C=C3O2)OC)OC(=O)C)OC)OC)OC
InChI: InChI=1S/C23H22O10/c1-11(24)31-15-9-13(7-8-14(15)27-3)20-23(30-6)19(26)18-16(33-20)10-17(28-4)21(22(18)29-5)32-12(2)25/h7-10H,1-6H3
Instrument: Agilent 1200 RRLC; Agilent 6520 QTOF
Instrument type: LC-ESI-QTOF
Ms type: MS2
Ion mode: POSITIVE
Collision energy: 20 ev
Column name: Agilent C8 Cartridge Column 2.1X30mm 3.5 micron (guard); Agilent SB-Aq 2.1x50mm 1.8 micron (analytical)
Retention time: 9.204
Base peak: 417
Precursor m/z: 459.1286
Precursor type: [M+H]+
m/z	relative intensity
284.5025	19
299.0582	15
342.0747	33
345.0583	28
359.0679	22
359.0844	18
360.0877	29
375.0369	18
375.1085	966
375.1638	42
375.2	25
417.1173	999
417.1732	31
417.2132	17
