Mass spectrum: Linolenic acid; LC-ESI-QTOF; MS2; CE 20 ev; [M-H]-
Name: Linolenic acid
Formula: C18H30O2
Exact mass: 278.22458
SMILES: CCC=CCC=CCC=CCCCCCCCC(=O)O
InChI: InChI=1S/C18H30O2/c1-2-3-4-5-6-7-8-9-10-11-12-13-14-15-16-17-18(19)20/h3-4,6-7,9-10H,2,5,8,11-17H2,1H3,(H,19,20)
Instrument: Agilent 1200 RRLC; Agilent 6520 QTOF
Instrument type: LC-ESI-QTOF
Ms type: MS2
Ion mode: NEGATIVE
Collision energy: 20 ev
Column name: Agilent C8 Cartridge Column 2.1X30mm 3.5 micron (guard); Agilent SB-Aq 2.1x50mm 1.8 micron (analytical)
Retention time: 11.536
Base peak: 277
Precursor m/z: 277.2173
Precursor type: [M-H]-
m/z	relative intensity
116.7604	31
117.8034	33
119.0322	58
123.9125	33
137.1653	85
155.1045	36
182.1333	31
206.2378	57
277.2168	999
