Mass spectrum: 3-Hydroxy-3',4',5'-trimethoxyflavone; LC-ESI-QTOF; MS2; CE 10 ev; [M-H]-
Name: 3-Hydroxy-3',4',5'-trimethoxyflavone
Formula: C18H16O6
Exact mass: 328.094688
SMILES: COC1=CC(=CC(=C1OC)OC)C2=C(C(=O)C3=CC=CC=C3O2)O
InChI: InChI=1S/C18H16O6/c1-21-13-8-10(9-14(22-2)18(13)23-3)17-16(20)15(19)11-6-4-5-7-12(11)24-17/h4-9,20H,1-3H3
Instrument: Agilent 1200 RRLC; Agilent 6520 QTOF
Instrument type: LC-ESI-QTOF
Ms type: MS2
Ion mode: NEGATIVE
Collision energy: 10 ev
Column name: Agilent C8 Cartridge Column 2.1X30mm 3.5 micron (guard); Agilent SB-Aq 2.1x50mm 1.8 micron (analytical)
Retention time: 9.258
Base peak: 327
Precursor m/z: 327.0874
Precursor type: [M-H]-
m/z	relative intensity
138.3904	8
210.0293	13
225.0466	9
234.9555	10
246.4758	10
248.1907	19
254.0351	11
269.0461	15
281.6074	8
284.0737	9
297.0393	195
297.0903	8
312.0632	834
312.0997	25
312.1293	8
312.2271	10
312.4358	8
312.5167	8
312.5514	13
313.3799	11
317.4586	22
327.0865	999
