Mass spectrum: 2',5-Dimethoxyflavone; LC-ESI-QTOF; MS2; CE 20 ev; [M+H]+
Name: 2',5-Dimethoxyflavone
Formula: C17H14O4
Exact mass: 282.089209
SMILES: COC1=CC=CC=C1C2=CC(=O)C3=C(O2)C=CC=C3OC
InChI: InChI=1S/C17H14O4/c1-19-13-7-4-3-6-11(13)16-10-12(18)17-14(20-2)8-5-9-15(17)21-16/h3-10H,1-2H3
Instrument: Agilent 1200 RRLC; Agilent 6520 QTOF
Instrument type: LC-ESI-QTOF
Ms type: MS2
Ion mode: POSITIVE
Collision energy: 20 ev
Column name: Agilent C8 Cartridge Column 2.1X30mm 3.5 micron (guard); Agilent SB-Aq 2.1x50mm 1.8 micron (analytical)
Retention time: 9.025
Base peak: 283
Precursor m/z: 283.0965
Precursor type: [M+H]+
m/z	relative intensity
108.0159	6
108.0218	6
115.0532	6
122.034	6
131.0514	18
132.0558	13
136.0186	6
137.0231	296
137.0495	6
137.0585	9
150.0295	21
151.0387	22
175.0407	6
181.0656	10
197.0545	14
222.066	15
239.0658	13
240.0775	34
249.0529	67
250.0635	12
251.0677	24
267.0652	28
268.072	706
268.1204	24
268.2272	7
283.0959	999
