Mass spectrum: 3(2'-Chlorophenyl)-7-hydroxy-4-phenylcoumarin; LC-ESI-QTOF; MS2; CE 10 ev; [M-H]-
Name: 3(2'-Chlorophenyl)-7-hydroxy-4-phenylcoumarin
Formula: C21H13ClO3
Exact mass: 348.055322
SMILES: C1=CC=C(C=C1)C2=C(C(=O)OC3=C2C=CC(=C3)O)C4=CC=CC=C4Cl
InChI: InChI=1S/C21H13ClO3/c22-17-9-5-4-8-15(17)20-19(13-6-2-1-3-7-13)16-11-10-14(23)12-18(16)25-21(20)24/h1-12,23H
Instrument: Agilent 1200 RRLC; Agilent 6520 QTOF
Instrument type: LC-ESI-QTOF
Ms type: MS2
Ion mode: NEGATIVE
Collision energy: 10 ev
Column name: Agilent C8 Cartridge Column 2.1X30mm 3.5 micron (guard); Agilent SB-Aq 2.1x50mm 1.8 micron (analytical)
Retention time: 9.299
Base peak: 347
Precursor m/z: 347.0480
Precursor type: [M-H]-
m/z	relative intensity
125.5305	0
141.0134	0
150.0583	1
175.3796	0
179.3036	0
185.0237	0
229.0359	1
231.4738	0
241.0535	0
255.5254	0
262.3875	0
273.8559	1
311.0657	1
311.0841	1
345.7089	0
346.4807	1
346.9587	0
346.9859	2
347.0476	999
