Mass spectrum: Cyclocytidine; LC-ESI-QTOF; MS; NEGATIVE
Name: Cyclocytidine
Formula: C9H11N3O4
Exact mass: 225.074956
SMILES: C1=CN2C3C(C(C(O3)CO)O)OC2=NC1=N
InChI: InChI=1S/C9H11N3O4/c10-5-1-2-12-8-7(16-9(12)11-5)6(14)4(3-13)15-8/h1-2,4,6-8,10,13-14H,3H2
Instrument: Agilent 1200 RRLC; Agilent 6520 QTOF
Instrument type: LC-ESI-QTOF
Ms type: MS
Ion mode: NEGATIVE
Column name: Agilent C8 Cartridge Column 2.1X30mm 3.5 micron (guard); Agilent SB-Aq 2.1x50mm 1.8 micron (analytical)
Retention time: 0.361
m/z	relative intensity
224.0677235	198
284.088304	999
