Mass spectrum: 7-amino-8-(2,4-dihydroxy-6-methylphenyl)-1,9-dimethyl-3H-phenoxazin-3-one; LC-ESI-QTOF; MS2; CE 40 ev; [M+H]+
Name: 7-amino-8-(2,4-dihydroxy-6-methylphenyl)-1,9-dimethyl-3H-phenoxazin-3-one
Formula: C21H18N2O4
Exact mass: 362.126657
SMILES: CC1=CC(=CC(=C1C2=C(C3=C(C=C2N)OC4=CC(=O)C=C(C4=N3)C)C)O)O
InChI: InChI=1S/C21H18N2O4/c1-9-4-12(24)6-15(26)18(9)19-11(3)21-17(8-14(19)22)27-16-7-13(25)5-10(2)20(16)23-21/h4-8,24,26H,22H2,1-3H3
Instrument: Agilent 1200 RRLC; Agilent 6520 QTOF
Instrument type: LC-ESI-QTOF
Ms type: MS2
Ion mode: POSITIVE
Collision energy: 40 ev
Column name: Agilent C8 Cartridge Column 2.1X30mm 3.5 micron (guard); Agilent SB-Aq 2.1x50mm 1.8 micron (analytical)
Retention time: 8.071
Base peak: 303
Precursor m/z: 363.1340
Precursor type: [M+H]+
m/z	relative intensity
223.0551	247
240.0897	326
277.1084	314
279.1064	606
303.0867	999
330.1027	258
331.0756	415
331.0999	965
332.0827	909
345.1114	483
346.1308	269
347.1046	831
347.1512	303
348.1086	752
