Mass spectrum: 3,7,4'-Trihydroxyflavone; LC-ESI-QTOF; MS2; CE 40 ev; [M-H]-
Name: 3,7,4'-Trihydroxyflavone
Formula: C15H10O5
Exact mass: 270.052823
SMILES: C1=CC(=CC=C1C2=C(C(=O)C3=C(O2)C=C(C=C3)O)O)O
InChI: InChI=1S/C15H10O5/c16-9-3-1-8(2-4-9)15-14(19)13(18)11-6-5-10(17)7-12(11)20-15/h1-7,16-17,19H
Instrument: Agilent 1200 RRLC; Agilent 6520 QTOF
Instrument type: LC-ESI-QTOF
Ms type: MS2
Ion mode: NEGATIVE
Collision energy: 40 ev
Column name: Agilent C8 Cartridge Column 2.1X30mm 3.5 micron (guard); Agilent SB-Aq 2.1x50mm 1.8 micron (analytical)
Retention time: 7.030
Base peak: 195
Precursor m/z: 269.0455
Precursor type: [M-H]-
m/z	relative intensity
105.034	413
115.0548	51
117.035	160
119.0124	157
120.0195	192
121.0278	379
123.0091	48
130.0413	55
132.0222	304
133.0287	67
135.0086	289
139.0553	34
141.0647	63
141.074	91
142.042	52
143.051	148
147.0102	160
148.0162	66
149.0251	150
156.0206	31
156.0617	55
158.0361	37
159.0445	46
161.0317	33
167.0491	587
168.062	138
169.0278	48
169.0604	231
169.07	129
170.0344	40
171.0427	177
174.9974	69
182.0382	223
183.0342	43
183.0469	73
184.0523	106
185.019	30
185.0582	132
186.0282	64
195.0447	999
196.0533	265
197.03	34
197.0601	144
198.0309	37
199.037	129
208.054	31
210.0289	162
211.0397	957
213.0554	111
223.0386	830
223.0847	51
223.1141	31
224.048	403
226.0256	39
239.0343	692
239.0707	40
240.0465	37
241.0439	33
241.0684	30
251.037	415
252.043	129
268.0371	63
269.0442	334
