Mass spectrum: Podophyllotoxin; LC-ESI-QTOF; MS2; CE 10 ev; [M+H]+
Name: Podophyllotoxin
Formula: C22H22O8
Exact mass: 414.131468
SMILES: COC1=CC(=CC(=C1OC)OC)C2C3C(COC3=O)C(C4=CC5=C(C=C24)OCO5)O
InChI: InChI=1S/C22H22O8/c1-25-16-4-10(5-17(26-2)21(16)27-3)18-11-6-14-15(30-9-29-14)7-12(11)20(23)13-8-28-22(24)19(13)18/h4-7,13,18-20,23H,8-9H2,1-3H3
Instrument: Agilent 1200 RRLC; Agilent 6520 QTOF
Instrument type: LC-ESI-QTOF
Ms type: MS2
Ion mode: POSITIVE
Collision energy: 10 ev
Column name: Agilent C8 Cartridge Column 2.1X30mm 3.5 micron (guard); Agilent SB-Aq 2.1x50mm 1.8 micron (analytical)
Retention time: 7.276
Base peak: 247
Precursor m/z: 415.1388
Precursor type: [M+H]+
m/z	relative intensity
185.0547	111
185.0637	91
219.0595	238
229.0454	519
247.0563	999
282.0809	163
313.1045	373
336.0025	174
351.127	95
397.122	932
397.1729	99
414.1248	218
415.1348	115
