Mass spectrum: Glutamic acid; LC-ESI-QTOF; MS2; CE 10 ev; [M-H]-
Name: Glutamic acid
Formula: C5H9NO4
Exact mass: 147.053158
SMILES: C(CC(=O)O)C(C(=O)O)N
InChI: InChI=1S/C5H9NO4/c6-3(5(9)10)1-2-4(7)8/h3H,1-2,6H2,(H,7,8)(H,9,10)
Instrument: Agilent 1200 RRLC; Agilent 6520 QTOF
Instrument type: LC-ESI-QTOF
Ms type: MS2
Ion mode: NEGATIVE
Collision energy: 10 ev
Column name: Agilent C8 Cartridge Column 2.1X30mm 3.5 micron (guard); Agilent SB-Aq 2.1x50mm 1.8 micron (analytical)
Retention time: 0.361
Base peak: 102
Precursor m/z: 146.0459
Precursor type: [M-H]-
m/z	relative intensity
100.041	11
102.056	999
102.0882	35
102.1042	7
102.127	4
102.15	15
102.1992	4
102.2393	6
102.3581	4
102.45	5
102.9531	4
127.9639	3
128.0346	739
128.0698	27
128.0848	4
128.11	8
128.1404	10
128.1877	3
128.4901	4
128.8276	4
146.0456	558
