Mass spectrum: Thermopsoside, crotonoyl; LC-ESI-QTOF; MS2; CE 10 ev; [M-H]-
Name: Thermopsoside, crotonoyl
Formula: C26H26O12
Exact mass: 530.142426
SMILES: C/C=C/C(=O)OCC1C(C(C(C(O1)OC2=CC(=C3C(=C2)OC(=CC3=O)C4=CC(=C(C=C4)O)OC)O)O)O)O
InChI: InChI=1S/C26H26O12/c1-3-4-21(30)35-11-20-23(31)24(32)25(33)26(38-20)36-13-8-15(28)22-16(29)10-17(37-19(22)9-13)12-5-6-14(27)18(7-12)34-2/h3-10,20,23-28,31-33H,11H2,1-2H3/b4-3+
Instrument: Agilent 1200 RRLC; Agilent 6520 QTOF
Instrument type: LC-ESI-QTOF
Ms type: MS2
Ion mode: NEGATIVE
Collision energy: 10 ev
Column name: Agilent C8 Cartridge Column 2.1X30mm 3.5 micron (guard); Agilent SB-Aq 2.1x50mm 1.8 micron (analytical)
Retention time: 8.482
Base peak: 529
Precursor m/z: 529.1351
Precursor type: [M-H]-
m/z	relative intensity
188.6653	5
283.0295	17
284.0307	5
299.0524	160
299.0692	8
299.1105	8
299.5453	4
313.9791	4
364.9777	7
365.0419	5
491.8066	6
514.107	19
528.9853	6
529.1332	999
