Mass spectrum: Cytisine; LC-ESI-QTOF; MS2; CE 20 ev; [M+H]+
Name: Cytisine
Formula: C11H14N2O
Exact mass: 190.110613
SMILES: C1[C@H]2CNC[C@@H]1C3=CC=CC(=O)N3C2
InChI: InChI=1S/C11H14N2O/c14-11-3-1-2-10-9-4-8(5-12-6-9)7-13(10)11/h1-3,8-9,12H,4-7H2/t8-,9+/m0/s1
Instrument: Agilent 1200 RRLC; Agilent 6520 QTOF
Instrument type: LC-ESI-QTOF
Ms type: MS2
Ion mode: POSITIVE
Collision energy: 20 ev
Column name: Agilent C8 Cartridge Column 2.1X30mm 3.5 micron (guard); Agilent SB-Aq 2.1x50mm 1.8 micron (analytical)
Retention time: 0.384
Base peak: 148
Precursor m/z: 191.1179
Precursor type: [M+H]+
m/z	relative intensity
120.0805	18
130.0652	13
133.0512	16
134.0586	17
146.0606	15
148.0755	999
148.1124	19
148.1288	13
148.1582	11
148.1883	22
160.0762	12
162.0892	31
174.0923	11
191.1175	620
191.1614	15
191.2455	11
