Mass spectrum: Histidinol; LC-ESI-QTOF; MS2; CE 20 ev; [M-H]-
Name: Histidinol
Formula: C6H11N3O
Exact mass: 141.090212
SMILES: C1=C(NC=N1)CC(CO)N
InChI: InChI=1S/C6H11N3O/c7-5(3-10)1-6-2-8-4-9-6/h2,4-5,10H,1,3,7H2,(H,8,9)
Instrument: Agilent 1200 RRLC; Agilent 6520 QTOF
Instrument type: LC-ESI-QTOF
Ms type: MS2
Ion mode: NEGATIVE
Collision energy: 20 ev
Column name: Agilent C8 Cartridge Column 2.1X30mm 3.5 micron (guard); Agilent SB-Aq 2.1x50mm 1.8 micron (analytical)
Retention time: 0.305
Base peak: 138
Precursor m/z: 140.0829
Precursor type: [M-H]-
m/z	relative intensity
105.0468	873
105.0774	54
107.0485	28
108.0349	122
109.0369	39
110.0749	66
121.0408	130
122.0712	32
123.0544	312
138.0664	999
138.0797	32
138.0926	36
140.0829	572
