Mass spectrum: Kinetin; LC-ESI-QTOF; MS2; CE 40 ev; [M-H]-
Name: Kinetin
Formula: C10H9N5O
Exact mass: 215.08071
SMILES: C1=COC(=C1)CNC2=NC=NC3=C2NC=N3
InChI: InChI=1S/C10H9N5O/c1-2-7(16-3-1)4-11-9-8-10(13-5-12-8)15-6-14-9/h1-3,5-6H,4H2,(H2,11,12,13,14,15)
Instrument: Agilent 1200 RRLC; Agilent 6520 QTOF
Instrument type: LC-ESI-QTOF
Ms type: MS2
Ion mode: NEGATIVE
Collision energy: 40 ev
Column name: Agilent C8 Cartridge Column 2.1X30mm 3.5 micron (guard); Agilent SB-Aq 2.1x50mm 1.8 micron (analytical)
Retention time: 4.385
Base peak: 132
Precursor m/z: 214.0734
Precursor type: [M-H]-
m/z	relative intensity
105.0198	44
106.0284	280
106.0607	10
107.0359	296
107.0655	9
117.02	261
117.0507	12
118.027	14
119.0347	17
132.0314	999
132.0648	26
132.082	12
132.1056	8
132.1376	16
133.0389	617
133.0716	7
133.1196	6
133.146	10
134.047	260
134.0782	11
142.0398	16
143.0372	13
144.031	38
146.0485	13
158.0527	8
170.0466	15
184.0634	16
