Mass spectrum: Pinocembrin; LC-ESI-QTOF; MS2; CE 20 ev; [M-H]-
Name: Pinocembrin
Formula: C15H12O4
Exact mass: 256.073559
SMILES: C1C(OC2=CC(=CC(=C2C1=O)O)O)C3=CC=CC=C3
InChI: InChI=1S/C15H12O4/c16-10-6-11(17)15-12(18)8-13(19-14(15)7-10)9-4-2-1-3-5-9/h1-7,13,16-17H,8H2
Instrument: Agilent 1200 RRLC; Agilent 6520 QTOF
Instrument type: LC-ESI-QTOF
Ms type: MS2
Ion mode: NEGATIVE
Collision energy: 20 ev
Column name: Agilent C8 Cartridge Column 2.1X30mm 3.5 micron (guard); Agilent SB-Aq 2.1x50mm 1.8 micron (analytical)
Retention time: 7.859
Base peak: 255
Precursor m/z: 255.0663
Precursor type: [M-H]-
m/z	relative intensity
107.0137	70
108.0229	5
123.0096	8
125.0241	11
133.0282	5
136.0155	12
141.0694	8
145.0649	73
151.0026	158
164.0101	33
169.066	38
171.0436	62
172.0523	18
177.0181	7
183.0803	14
185.06	23
187.0751	51
193.0674	6
211.0745	56
213.0554	200
213.093	11
227.0707	18
255.0657	999
