Mass spectrum: Paclitaxel; LC-ESI-QTOF; MS2; CE 20 ev; [M+H]+
Name: Paclitaxel
Formula: C47H51NO14
Exact mass: 853.330955
SMILES: CC1=C2C(C(=O)C3(C(CC4C(C3C(C(C2(C)C)(CC1OC(=O)C(C(C5=CC=CC=C5)NC(=O)C6=CC=CC=C6)O)O)OC(=O)C7=CC=CC=C7)(CO4)OC(=O)C)O)C)OC(=O)C
InChI: InChI=1S/C47H51NO14/c1-25-31(60-43(56)36(52)35(28-16-10-7-11-17-28)48-41(54)29-18-12-8-13-19-29)23-47(57)40(61-42(55)30-20-14-9-15-21-30)38-45(6,32(51)22-33-46(38,24-58-33)62-27(3)50)39(53)37(59-26(2)49)34(25)44(47,4)5/h7-21,31-33,35-38,40,51-52,57H,22-24H2,1-6H3,(H,48,54)
Instrument: Agilent 1200 RRLC; Agilent 6520 QTOF
Instrument type: LC-ESI-QTOF
Ms type: MS2
Ion mode: POSITIVE
Collision energy: 20 ev
Column name: Agilent C8 Cartridge Column 2.1X30mm 3.5 micron (guard); Agilent SB-Aq 2.1x50mm 1.8 micron (analytical)
Retention time: 9.620
Base peak: 286
Precursor m/z: 854.3383
Precursor type: [M+H]+
m/z	relative intensity
105.0316	284
105.0706	96
119.086	69
122.058	341
135.08	50
147.1145	53
149.0548	57
149.0994	105
161.1014	76
177.0877	87
223.1527	62
239.1011	48
239.1434	94
240.0998	447
249.1294	48
259.0935	46
263.1397	170
267.1376	62
268.0981	94
269.0807	55
281.151	202
286.1039	999
286.1579	53
291.1384	137
297.1407	60
309.143	394
327.1567	339
345.1659	78
351.1573	50
359.192	48
369.1696	128
387.1752	142
491.2062	89
509.188	96
509.2186	406
509.2672	64
551.2073	55
551.2514	66
569.2363	124
655.2518	103
