Mass spectrum: 4-Hydroxy-2',3,4',6'-tetramethoxychalcone; LC-ESI-QTOF; MS2; CE 40 ev; [M-H]-
Name: 4-Hydroxy-2',3,4',6'-tetramethoxychalcone
Formula: C19H20O6
Exact mass: 344.125988
SMILES: COC1=CC(=C(C(=C1)OC)C(=O)/C=C/C2=CC(=C(C=C2)O)OC)OC
InChI: InChI=1S/C19H20O6/c1-22-13-10-17(24-3)19(18(11-13)25-4)15(21)8-6-12-5-7-14(20)16(9-12)23-2/h5-11,20H,1-4H3/b8-6+
Instrument: Agilent 1200 RRLC; Agilent 6520 QTOF
Instrument type: LC-ESI-QTOF
Ms type: MS2
Ion mode: NEGATIVE
Collision energy: 40 ev
Column name: Agilent C8 Cartridge Column 2.1X30mm 3.5 micron (guard); Agilent SB-Aq 2.1x50mm 1.8 micron (analytical)
Retention time: 7.788
Base peak: 298
Precursor m/z: 343.1187
Precursor type: [M-H]-
m/z	relative intensity
105.0353	70
119.6895	19
120.0196	25
121.0298	33
125.8538	17
127.6907	19
132.0207	159
133.0291	263
135.052	25
136.0151	24
138.0292	51
147.0415	19
149.0255	63
153.0489	34
153.0573	85
155.0457	19
160.0147	169
162.0273	22
163.037	30
165.0296	71
166.0416	95
167.0506	19
177.0537	80
182.0331	40
182.0425	32
183.0454	109
184.0506	29
185.0587	19
189.029	20
193.0242	66
194.033	34
195.0452	55
197.0632	38
198.0237	19
198.0759	19
199.0392	78
205.0282	27
207.0506	30
208.0449	25
210.028	90
210.0382	30
211.0399	320
211.0731	19
213.0553	28
214.0628	36
221.0175	53
222.0323	235
222.0537	19
223.0388	41
224.0464	74
225.0574	119
226.0309	89
226.0618	32
227.0337	369
235.0438	41
236.0426	50
236.0614	27
237.0646	28
238.0044	19
238.0256	107
239.0329	190
239.0541	18
239.0785	18
240.0449	48
241.0471	133
242.0584	111
249.0173	39
252.0401	27
253.0505	552
253.071	34
253.0916	20
253.1245	21
254.0582	180
255.03	767
255.072	62
255.0949	21
255.1123	18
257.0822	73
257.0994	19
266.0235	140
267.0311	149
268.0374	31
269.0459	97
269.085	28
270.0531	286
280.0375	37
281.0459	140
282.0571	77
283.0237	582
283.0809	25
285.0775	176
290.9901	37
297.0367	111
297.0521	19
297.0728	36
298.0467	999
298.0971	46
298.1229	26
313.0728	68
328.0919	61
329.791	21
