Mass spectrum: Panthenol; LC-ESI-QTOF; MS2; CE 10 ev; [M-H]-
Name: Panthenol
Formula: C9H19NO4
Exact mass: 205.131408
SMILES: CC(C)(CO)C(C(=O)NCCCO)O
InChI: InChI=1S/C9H19NO4/c1-9(2,6-12)7(13)8(14)10-4-3-5-11/h7,11-13H,3-6H2,1-2H3,(H,10,14)
Instrument: Agilent 1200 RRLC; Agilent 6520 QTOF
Instrument type: LC-ESI-QTOF
Ms type: MS2
Ion mode: NEGATIVE
Collision energy: 10 ev
Column name: Agilent C8 Cartridge Column 2.1X30mm 3.5 micron (guard); Agilent SB-Aq 2.1x50mm 1.8 micron (analytical)
Retention time: 1.629
Base peak: 204
Precursor m/z: 204.1241
Precursor type: [M-H]-
m/z	relative intensity
100.0421	6
101.0607	29
102.0562	180
102.0824	1
102.0878	5
102.1027	2
102.1213	1
102.1507	3
102.2453	1
102.325	1
102.4417	1
102.5961	1
120.6234	1
126.0936	20
129.0556	23
129.0847	1
130.0499	10
146.0796	2
146.0879	2
156.1024	18
172.0993	8
174.1142	12
204.0884	2
204.1241	999
