Mass spectrum: {3,4,5-triacetyloxy-6-[5-acetyloxy-3-(4-methoxyphenyl)-4-oxochromen-6-yloxy]-2 H-3,4,5,6-tetrahydropyran-2-yl}methyl acetate; LC-ESI-QTOF; MS2; CE 10 ev; [M+CH3COOH-H]-
Name: {3,4,5-triacetyloxy-6-[5-acetyloxy-3-(4-methoxyphenyl)-4-oxochromen-6-yloxy]-2 H-3,4,5,6-tetrahydropyran-2-yl}methyl acetate
Formula: C32H32O15
Exact mass: 656.17412
SMILES: CC(=O)OCC1C(C(C(C(O1)OC2=C(C3=C(C=C2)OC=C(C3=O)C4=CC=C(C=C4)OC)OC(=O)C)OC(=O)C)OC(=O)C)OC(=O)C
InChI: InChI=1S/C32H32O15/c1-15(33)40-14-25-29(43-17(3)35)30(44-18(4)36)31(45-19(5)37)32(47-25)46-24-12-11-23-26(28(24)42-16(2)34)27(38)22(13-41-23)20-7-9-21(39-6)10-8-20/h7-13,25,29-32H,14H2,1-6H3
Instrument: Agilent 1200 RRLC; Agilent 6520 QTOF
Instrument type: LC-ESI-QTOF
Ms type: MS2
Ion mode: NEGATIVE
Collision energy: 10 ev
Column name: Agilent C8 Cartridge Column 2.1X30mm 3.5 micron (guard); Agilent SB-Aq 2.1x50mm 1.8 micron (analytical)
Retention time: 9.897
Base peak: 551
Precursor m/z: 715.1874
Precursor type: [M+CH3COOH-H]-
m/z	relative intensity
141.018	130
154.8158	55
169.654	53
170.1668	75
173.7076	64
176.693	80
217.7358	91
232.9401	41
283.0539	66
305.0265	270
321.4992	53
339.4421	33
387.0196	684
387.0707	83
469.0261	503
477.6841	53
498.3099	44
547.897	41
551.0288	999
551.1308	36
554.8722	41
603.1587	34
613.1544	395
613.2481	73
626.7968	66
633.0304	273
633.0924	76
715.0304	332
