Mass spectrum: Acacetin; LC-ESI-QTOF; MS2; CE 20 ev; [M-H]-
Name: Acacetin
Formula: C16H12O5
Exact mass: 284.068473
SMILES: COC1=CC=C(C=C1)C2=CC(=O)C3=C(C=C(C=C3O2)O)O
InChI: InChI=1S/C16H12O5/c1-20-11-4-2-9(3-5-11)14-8-13(19)16-12(18)6-10(17)7-15(16)21-14/h2-8,17-18H,1H3
Instrument: Agilent 1200 RRLC; Agilent 6520 QTOF
Instrument type: LC-ESI-QTOF
Ms type: MS2
Ion mode: NEGATIVE
Collision energy: 20 ev
Column name: Agilent C8 Cartridge Column 2.1X30mm 3.5 micron (guard); Agilent SB-Aq 2.1x50mm 1.8 micron (analytical)
Retention time: 8.982
Base peak: 268
Precursor m/z: 283.0612
Precursor type: [M-H]-
m/z	relative intensity
211.0397	5
239.0344	10
240.0442	11
268.0372	999
268.0899	24
268.1427	8
268.1881	16
283.0604	383
