Mass spectrum: Haploperozide; LC-ESI-QTOF; MS2; CE 10 ev; [M+H]+
Name: Haploperozide
Formula: C28H38O17
Exact mass: 646.2109
SMILES: CC1C(C(C(C(O1)OCC2C(C(C(C(O2)OC3=C(C=C4C=CC(=O)OC4=C3)OC)OC5C(C(C(C(O5)C)O)O)O)O)O)O)O)O
InChI: InChI=1S/C28H38O17/c1-9-17(30)20(33)23(36)26(40-9)39-8-15-19(32)22(35)25(45-27-24(37)21(34)18(31)10(2)41-27)28(44-15)43-14-7-12-11(6-13(14)38-3)4-5-16(29)42-12/h4-7,9-10,15,17-28,30-37H,8H2,1-3H3
Instrument: Agilent 1200 RRLC; Agilent 6520 QTOF
Instrument type: LC-ESI-QTOF
Ms type: MS2
Ion mode: POSITIVE
Collision energy: 10 ev
Column name: Agilent C8 Cartridge Column 2.1X30mm 3.5 micron (guard); Agilent SB-Aq 2.1x50mm 1.8 micron (analytical)
Retention time: 4.245
Base peak: 193
Precursor m/z: 647.2182
Precursor type: [M+H]+
m/z	relative intensity
129.0544	73
147.0625	32
193.0489	999
193.0927	28
239.0906	26
257.1078	24
293.1219	48
355.1005	135
501.1549	77
647.2261	24
