Mass spectrum: Methyllycaconitine; LC-ESI-QTOF; MS2; CE 20 ev; [M+H]+
Name: Methyllycaconitine
Formula: C37H50N2O10
Exact mass: 682.346546
SMILES: CCN1CC2(CCC(C34C2C(C(C31)(C5(CC(C6CC4C5C6OC)OC)O)O)OC)OC)COC(=O)C7=CC=CC=C7N8C(=O)CC(C8=O)C
InChI: InChI=1S/C37H50N2O10/c1-7-38-17-34(18-49-32(42)20-10-8-9-11-23(20)39-26(40)14-19(2)31(39)41)13-12-25(46-4)36-22-15-21-24(45-3)16-35(43,27(22)28(21)47-5)37(44,33(36)38)30(48-6)29(34)36/h8-11,19,21-22,24-25,27-30,33,43-44H,7,12-18H2,1-6H3
Instrument: Agilent 1200 RRLC; Agilent 6520 QTOF
Instrument type: LC-ESI-QTOF
Ms type: MS2
Ion mode: POSITIVE
Collision energy: 20 ev
Column name: Agilent C8 Cartridge Column 2.1X30mm 3.5 micron (guard); Agilent SB-Aq 2.1x50mm 1.8 micron (analytical)
Retention time: 6.075
Base peak: 683
Precursor m/z: 683.3538
Precursor type: [M+H]+
m/z	relative intensity
619.3056	14
651.3382	10
683.3535	999
683.4346	41
683.5851	15
683.7142	13
684.1884	11
684.3663	16
