Mass spectrum: 2'-O-Methylcytidine; LC-ESI-QTOF; MS2; CE 20 ev; [M+H]+
Name: 2'-O-Methylcytidine
Formula: C10H15N3O5
Exact mass: 257.101171
SMILES: COC1C(C(OC1N2C=CC(=NC2=O)N)CO)O
InChI: InChI=1S/C10H15N3O5/c1-17-8-7(15)5(4-14)18-9(8)13-3-2-6(11)12-10(13)16/h2-3,5,7-9,14-15H,4H2,1H3,(H2,11,12,16)
Instrument: Agilent 1200 RRLC; Agilent 6520 QTOF
Instrument type: LC-ESI-QTOF
Ms type: MS2
Ion mode: POSITIVE
Collision energy: 20 ev
Column name: Agilent C8 Cartridge Column 2.1X30mm 3.5 micron (guard); Agilent SB-Aq 2.1x50mm 1.8 micron (analytical)
Retention time: 0.389
Base peak: 112
Precursor m/z: 258.1085
Precursor type: [M+H]+
m/z	relative intensity
101.0603	11
111.0459	1
112.0505	999
112.0814	26
112.099	10
112.1196	1
112.1266	2
112.1483	15
112.1878	3
112.2272	1
112.2568	1
112.2826	1
112.3339	1
112.3391	1
112.4011	2
112.4144	1
112.4391	1
112.4817	1
112.5322	1
112.574	1
112.6218	1
112.7047	1
112.7267	1
112.7747	1
113.0027	1
113.0559	2
113.084	1
115.0362	2
129.0537	1
