Mass spectrum: Dihydroergocristine; LC-ESI-QTOF; MS2; CE 40 ev; [M+H]+
Name: Dihydroergocristine
Formula: C35H41N5O5
Exact mass: 611.310769
SMILES: CC(C)C1(C(=O)N2C(C(=O)N3CCCC3C2(O1)O)CC4=CC=CC=C4)NC(=O)C5CC6C(CC7=CNC8=CC=CC6=C78)N(C5)C
InChI: InChI=1S/C35H41N5O5/c1-20(2)34(37-31(41)23-16-25-24-11-7-12-26-30(24)22(18-36-26)17-27(25)38(3)19-23)33(43)40-28(15-21-9-5-4-6-10-21)32(42)39-14-8-13-29(39)35(40,44)45-34/h4-7,9-12,18,20,23,25,27-29,36,44H,8,13-17,19H2,1-3H3,(H,37,41)
Instrument: Agilent 1200 RRLC; Agilent 6520 QTOF
Instrument type: LC-ESI-QTOF
Ms type: MS2
Ion mode: POSITIVE
Collision energy: 40 ev
Column name: Agilent C8 Cartridge Column 2.1X30mm 3.5 micron (guard); Agilent SB-Aq 2.1x50mm 1.8 micron (analytical)
Retention time: 7.107
Base peak: 270
Precursor m/z: 612.3181
Precursor type: [M+H]+
m/z	relative intensity
222.1115	10
223.1211	6
225.1369	117
225.1778	6
227.1169	12
235.1179	11
237.1364	7
238.1106	12
243.1131	27
253.1316	225
253.1994	5
270.1585	999
270.2073	26
270.2366	7
270.3082	13
270.5077	6
271.1637	8
294.188	5
322.1888	44
325.1474	24
350.1849	57
