Mass spectrum: Corynanthine; LC-ESI-QTOF; MS2; CE 20 ev; [M+H]+
Name: Corynanthine
Formula: C21H26N2O3
Exact mass: 354.194343
SMILES: COC(=O)[C@@H]1[C@H](CC[C@@H]2[C@@H]1C[C@H]3C4=C(CCN3C2)C5=CC=CC=C5N4)O
InChI: InChI=1S/C21H26N2O3/c1-26-21(25)19-15-10-17-20-14(13-4-2-3-5-16(13)22-20)8-9-23(17)11-12(15)6-7-18(19)24/h2-5,12,15,17-19,22,24H,6-11H2,1H3/t12-,15-,17-,18-,19-/m0/s1
Instrument: Agilent 1200 RRLC; Agilent 6520 QTOF
Instrument type: LC-ESI-QTOF
Ms type: MS2
Ion mode: POSITIVE
Collision energy: 20 ev
Column name: Agilent C8 Cartridge Column 2.1X30mm 3.5 micron (guard); Agilent SB-Aq 2.1x50mm 1.8 micron (analytical)
Retention time: 4.180
Base peak: 355
Precursor m/z: 355.2016
Precursor type: [M+H]+
m/z	relative intensity
105.0697	19
115.051	10
117.0706	28
129.0675	12
132.0803	11
136.1154	7
144.0799	794
144.1162	33
144.139	7
144.171	9
144.1904	10
162.0889	24
180.0999	35
192.0967	13
194.1137	10
212.1261	572
212.1696	18
212.1887	15
224.1258	135
246.1208	8
278.1553	8
308.1539	11
312.1584	9
324.1528	8
326.1566	13
326.1748	14
338.1763	37
355.1999	999
