Mass spectrum: Eserine; LC-ESI-QTOF; MS2; CE 10 ev; [M+H]+
Name: Eserine
Formula: C15H21N3O2
Exact mass: 275.163377
SMILES: CC12CCN(C1N(C3=C2C=C(C=C3)OC(=O)NC)C)C
InChI: InChI=1S/C15H21N3O2/c1-15-7-8-17(3)13(15)18(4)12-6-5-10(9-11(12)15)20-14(19)16-2/h5-6,9,13H,7-8H2,1-4H3,(H,16,19)
Instrument: Agilent 1200 RRLC; Agilent 6520 QTOF
Instrument type: LC-ESI-QTOF
Ms type: MS2
Ion mode: POSITIVE
Collision energy: 10 ev
Column name: Agilent C8 Cartridge Column 2.1X30mm 3.5 micron (guard); Agilent SB-Aq 2.1x50mm 1.8 micron (analytical)
Retention time: 3.215
Base peak: 162
Precursor m/z: 276.1707
Precursor type: [M+H]+
m/z	relative intensity
160.0723	31
162.0911	999
162.1168	30
162.1287	25
162.1423	18
162.2102	22
176.1071	143
188.1057	38
219.1109	707
219.1499	29
233.1265	76
233.144	18
