Mass spectrum: Chloramphenicol; LC-ESI-QTOF; MS2; CE 20 ev; [M-H]-
Name: Chloramphenicol
Formula: C11H12Cl2N2O5
Exact mass: 322.012327
SMILES: C1=CC(=CC=C1[C@H]([C@@H](CO)NC(=O)C(Cl)Cl)O)[N+](=O)[O-]
InChI: InChI=1S/C11H12Cl2N2O5/c12-10(13)11(18)14-8(5-16)9(17)6-1-3-7(4-2-6)15(19)20/h1-4,8-10,16-17H,5H2,(H,14,18)/t8-,9-/m1/s1
Instrument: Agilent 1200 RRLC; Agilent 6520 QTOF
Instrument type: LC-ESI-QTOF
Ms type: MS2
Ion mode: NEGATIVE
Collision energy: 20 ev
Column name: Agilent C8 Cartridge Column 2.1X30mm 3.5 micron (guard); Agilent SB-Aq 2.1x50mm 1.8 micron (analytical)
Retention time: 4.234
Base peak: 176
Precursor m/z: 321.0050
Precursor type: [M-H]-
m/z	relative intensity
162.0168	269
176.0371	999
192.3427	131
194.0488	276
205.5826	138
219.0378	171
256.5456	197
290.2683	171
302.609	223
309.7059	269
320.0087	138
