Mass spectrum: 1-(2,3-dibenzimidazol-2-ylpropyl)-2-methoxybenzene; LC-ESI-QTOF; MS2; CE 40 ev; [M+H]+
Name: 1-(2,3-dibenzimidazol-2-ylpropyl)-2-methoxybenzene
Formula: C24H22N4O
Exact mass: 382.179361
SMILES: COC1=CC=CC=C1CC(CC2=NC3=CC=CC=C3N2)C4=NC5=CC=CC=C5N4
InChI: InChI=1S/C24H22N4O/c1-29-22-13-7-2-8-16(22)14-17(24-27-20-11-5-6-12-21(20)28-24)15-23-25-18-9-3-4-10-19(18)26-23/h2-13,17H,14-15H2,1H3,(H,25,26)(H,27,28)
Instrument: Agilent 1200 RRLC; Agilent 6520 QTOF
Instrument type: LC-ESI-QTOF
Ms type: MS2
Ion mode: POSITIVE
Collision energy: 40 ev
Column name: Agilent C8 Cartridge Column 2.1X30mm 3.5 micron (guard); Agilent SB-Aq 2.1x50mm 1.8 micron (analytical)
Retention time: 6.711
Base peak: 261
Precursor m/z: 383.1867
Precursor type: [M+H]+
m/z	relative intensity
107.0549	10
107.0607	8
118.0483	12
119.0591	160
121.0628	87
131.0599	58
132.0673	295
132.1025	16
133.0736	41
143.0596	38
144.0668	137
145.0758	85
157.0749	132
159.0937	8
219.0898	98
221.107	101
221.1395	11
222.1139	8
223.1202	23
232.101	9
233.1071	225
233.1441	12
234.0911	11
235.0887	62
236.1062	13
237.094	27
247.0902	12
249.0923	15
249.106	21
250.117	9
251.1186	38
261.113	999
261.1554	35
261.1807	16
261.1973	8
261.26	14
261.4837	7
262.1204	167
262.1339	8
262.1619	8
265.1324	285
265.1764	10
265.19	10
383.1955	9
