Mass spectrum: (19R)-9-acetyl-19-hydroxy-10,14-dimethyl-20-oxopentacyclo[11.8.0.0<2,10>.0<4,9 >.0<14,19>]henicos-17-yl acetate; LC-APCI-QTOF; MS; POSITIVE
Name: (19R)-9-acetyl-19-hydroxy-10,14-dimethyl-20-oxopentacyclo[11.8.0.0<2,10>.0<4,9 >.0<14,19>]henicos-17-yl acetate
Formula: C27H40O5
Exact mass: 444.287574
SMILES: CC(=O)C12CCCCC1CC3C2(CCC4C3CC(=O)C5(C4(CCC(C5)OC(=O)C)C)O)C
InChI: InChI=1S/C27H40O5/c1-16(28)26-10-6-5-7-18(26)13-22-20-14-23(30)27(31)15-19(32-17(2)29)8-11-25(27,4)21(20)9-12-24(22,26)3/h18-22,31H,5-15H2,1-4H3
Instrument: Agilent 1200 RRLC; Agilent 6520 QTOF
Instrument type: LC-APCI-QTOF
Ms type: MS
Ion mode: POSITIVE
Column name: Agilent C8 Cartridge Column 2.1X30mm 3.5 micron (guard); Agilent SB-Aq 2.1x50mm 1.8 micron (analytical)
Retention time: 10.892
m/z	relative intensity
445.2948765	999
