Mass spectrum: N-alpha-(tert-Butoxycarbonyl)-L-histidine; LC-APCI-QTOF; MS; POSITIVE
Name: N-alpha-(tert-Butoxycarbonyl)-L-histidine
Formula: C11H17N3O4
Exact mass: 255.121906
SMILES: CC(C)(C)OC(=O)NC(CC1=CN=CN1)C(=O)O
InChI: InChI=1S/C11H17N3O4/c1-11(2,3)18-10(17)14-8(9(15)16)4-7-5-12-6-13-7/h5-6,8H,4H2,1-3H3,(H,12,13)(H,14,17)(H,15,16)
Instrument: Agilent 1200 RRLC; Agilent 6520 QTOF
Instrument type: LC-APCI-QTOF
Ms type: MS
Ion mode: POSITIVE
Column name: Agilent C8 Cartridge Column 2.1X30mm 3.5 micron (guard); Agilent SB-Aq 2.1x50mm 1.8 micron (analytical)
Retention time: 2.099
m/z	relative intensity
256.1291765	999
