Mass spectrum: Genistein -7-O-Glc-Xyl, Acetate; LC-ESI-QTOF; MS2; CE 10 ev; [M+CH3COOH-H]-
Name: Genistein -7-O-Glc-Xyl, Acetate
Formula: C42H44O22
Exact mass: 900.232423
SMILES: CC(=O)OC1COC(C(C1OC(=O)C)OC(=O)C)OCC2C(C(C(C(O2)OC3=CC(=C4C(=C3)OC=C(C4=O)C5=CC=C(C=C5)OC(=O)C)OC(=O)C)OC(=O)C)OC(=O)C)OC(=O)C
InChI: InChI=1S/C42H44O22/c1-18(43)55-27-11-9-26(10-12-27)29-15-52-30-13-28(14-31(56-19(2)44)34(30)35(29)51)63-42-40(62-25(8)50)38(60-23(6)48)36(58-21(4)46)33(64-42)17-54-41-39(61-24(7)49)37(59-22(5)47)32(16-53-41)57-20(3)45/h9-15,32-33,36-42H,16-17H2,1-8H3
Instrument: Agilent 1200 RRLC; Agilent 6520 QTOF
Instrument type: LC-ESI-QTOF
Ms type: MS2
Ion mode: NEGATIVE
Collision energy: 10 ev
Column name: Agilent C8 Cartridge Column 2.1X30mm 3.5 micron (guard); Agilent SB-Aq 2.1x50mm 1.8 micron (analytical)
Retention time: 10.037
Base peak: 959
Precursor m/z: 959.2457
Precursor type: [M+CH3COOH-H]-
m/z	relative intensity
152.341	14
159.1479	12
221.7296	9
297.4322	9
305.0193	11
321.1329	16
325.8858	9
353.0567	15
528.5955	14
598.0291	10
632.0047	12
794.9478	19
815.2031	27
857.2101	540
857.2907	30
857.3483	12
857.4269	15
857.5122	13
857.8856	9
857.9389	9
858.2361	11
858.596	17
858.6995	9
876.981	10
899.2286	21
900.0658	10
917.25	18
958.9555	14
959.0045	18
959.2428	999
