Mass spectrum: Oxitriptan 1; LC-ESI-QTOF; MS2; CE 10 ev; [M+H]+
Name: Oxitriptan 1
Formula: C11H12N2O3
Exact mass: 220.084792
SMILES: C1=CC2=C(C=C1O)C(=CN2)C[C@@H](C(=O)O)N
InChI: InChI=1S/C11H12N2O3/c12-9(11(15)16)3-6-5-13-10-2-1-7(14)4-8(6)10/h1-2,4-5,9,13-14H,3,12H2,(H,15,16)/t9-/m0/s1
Instrument: Agilent 1200 RRLC; Agilent 6520 QTOF
Instrument type: LC-ESI-QTOF
Ms type: MS2
Ion mode: POSITIVE
Collision energy: 10 ev
Column name: Agilent C8 Cartridge Column 2.1X30mm 3.5 micron (guard); Agilent SB-Aq 2.1x50mm 1.8 micron (analytical)
Retention time: 0.388
Base peak: 204
Precursor m/z: 221.0921
Precursor type: [M+H]+
m/z	relative intensity
103.0535	6
106.0637	11
115.0511	5
116.0508	8
117.0531	5
130.069	4
131.0477	6
132.0783	8
133.0501	4
134.0587	64
142.9905	11
146.0584	9
148.0753	20
158.0573	24
159.063	16
160.0361	4
160.0737	93
162.0541	474
162.0896	23
162.1432	3
162.1705	4
175.0888	35
176.0705	5
186.0545	62
204.0648	999
204.1047	38
204.132	19
204.1951	10
204.279	6
204.4374	8
204.5091	4
204.7231	3
221.0051	11
221.0854	7
