Mass spectrum: Genistein -7-O-Glc-Xyl, Acetate; LC-ESI-QTOF; MS2; CE 10 ev; [M+H]+
Name: Genistein -7-O-Glc-Xyl, Acetate
Formula: C42H44O22
Exact mass: 900.232423
SMILES: CC(=O)OC1COC(C(C1OC(=O)C)OC(=O)C)OCC2C(C(C(C(O2)OC3=CC(=C4C(=C3)OC=C(C4=O)C5=CC=C(C=C5)OC(=O)C)OC(=O)C)OC(=O)C)OC(=O)C)OC(=O)C
InChI: InChI=1S/C42H44O22/c1-18(43)55-27-11-9-26(10-12-27)29-15-52-30-13-28(14-31(56-19(2)44)34(30)35(29)51)63-42-40(62-25(8)50)38(60-23(6)48)36(58-21(4)46)33(64-42)17-54-41-39(61-24(7)49)37(59-22(5)47)32(16-53-41)57-20(3)45/h9-15,32-33,36-42H,16-17H2,1-8H3
Instrument: Agilent 1200 RRLC; Agilent 6520 QTOF
Instrument type: LC-ESI-QTOF
Ms type: MS2
Ion mode: POSITIVE
Collision energy: 10 ev
Column name: Agilent C8 Cartridge Column 2.1X30mm 3.5 micron (guard); Agilent SB-Aq 2.1x50mm 1.8 micron (analytical)
Retention time: 10.041
Base peak: 859
Precursor m/z: 901.2397
Precursor type: [M+H]+
m/z	relative intensity
139.0412	384
157.048	150
199.0596	427
259.0811	393
313.0698	74
571.1292	37
859.2278	999
859.3113	58
901.2447	341
