Mass spectrum: Griseofulvin; LC-ESI-QTOF; MS2; CE 10 ev; [M+H]+
Name: Griseofulvin
Formula: C17H17ClO6
Exact mass: 352.071366
SMILES: CC1CC(=O)C=C(C12C(=O)C3=C(O2)C(=C(C=C3OC)OC)Cl)OC
InChI: InChI=1S/C17H17ClO6/c1-8-5-9(19)6-12(23-4)17(8)16(20)13-10(21-2)7-11(22-3)14(18)15(13)24-17/h6-8H,5H2,1-4H3
Instrument: Agilent 1200 RRLC; Agilent 6520 QTOF
Instrument type: LC-ESI-QTOF
Ms type: MS2
Ion mode: POSITIVE
Collision energy: 10 ev
Column name: Agilent C8 Cartridge Column 2.1X30mm 3.5 micron (guard); Agilent SB-Aq 2.1x50mm 1.8 micron (analytical)
Retention time: 7.903
Base peak: 353
Precursor m/z: 353.0787
Precursor type: [M+H]+
m/z	relative intensity
165.0532	468
199.9853	65
215.0106	740
285.0487	531
321.0467	173
353.0797	999
