Mass spectrum: 8-Methoxypsoralen; LC-ESI-QTOF; MS2; CE 20 ev; [M+H]+
Name: 8-Methoxypsoralen
Formula: C12H8O4
Exact mass: 216.042259
SMILES: COC1=C2C(=CC3=C1OC=C3)C=CC(=O)O2
InChI: InChI=1S/C12H8O4/c1-14-12-10-8(4-5-15-10)6-7-2-3-9(13)16-11(7)12/h2-6H,1H3
Instrument: Agilent 1200 RRLC; Agilent 6520 QTOF
Instrument type: LC-ESI-QTOF
Ms type: MS2
Ion mode: POSITIVE
Collision energy: 20 ev
Column name: Agilent C8 Cartridge Column 2.1X30mm 3.5 micron (guard); Agilent SB-Aq 2.1x50mm 1.8 micron (analytical)
Retention time: 6.673
Base peak: 202
Precursor m/z: 217.0496
Precursor type: [M+H]+
m/z	relative intensity
105.0709	12
115.0539	89
117.0674	23
118.0398	70
118.0442	14
129.0323	18
130.0425	18
131.0474	70
132.0192	11
143.05	15
145.0274	16
145.0312	23
145.062	16
146.037	80
157.0277	24
158.0388	43
161.0588	356
161.0962	18
173.0226	25
173.0574	42
174.0305	498
174.0684	24
174.0924	10
185.0227	60
185.0269	45
189.0546	53
189.0613	13
202.0252	999
202.0627	17
202.0764	30
202.157	14
217.0485	299
