Mass spectrum: Sparteine; LC-ESI-QTOF; MS; POSITIVE
Name: Sparteine
Name: (2R)-7,15-diazatetracyclo[7.7.1.0<2,7>.0<10,15>]heptadecane
Formula: C15H26N2
Exact mass: 234.209599
SMILES: C1CCN2CC3CC(C2C1)CN4C3CCCC4
InChI: InChI=1S/C15H26N2/c1-3-7-16-11-13-9-12(14(16)5-1)10-17-8-4-2-6-15(13)17/h12-15H,1-11H2
Instrument: Agilent 1200 RRLC; Agilent 6520 QTOF
Instrument type: LC-ESI-QTOF
Ms type: MS
Ion mode: POSITIVE
Column name: Agilent C8 Cartridge Column 2.1X30mm 3.5 micron (guard); Agilent SB-Aq 2.1x50mm 1.8 micron (analytical)
Retention time: 2.894
m/z	relative intensity
235.2168765	999
257.198818	1
