Mass spectrum: 3,7-Dihydroxy-3',4'-dimethoxyflavone; LC-ESI-QTOF; MS2; CE 40 ev; [M+H]+
Name: 3,7-Dihydroxy-3',4'-dimethoxyflavone
Formula: C17H14O6
Exact mass: 314.079038
SMILES: COC1=C(C=C(C=C1)C2=C(C(=O)C3=C(O2)C=C(C=C3)O)O)OC
InChI: InChI=1S/C17H14O6/c1-21-12-6-3-9(7-14(12)22-2)17-16(20)15(19)11-5-4-10(18)8-13(11)23-17/h3-8,18,20H,1-2H3
Instrument: Agilent 1200 RRLC; Agilent 6520 QTOF
Instrument type: LC-ESI-QTOF
Ms type: MS2
Ion mode: POSITIVE
Collision energy: 40 ev
Column name: Agilent C8 Cartridge Column 2.1X30mm 3.5 micron (guard); Agilent SB-Aq 2.1x50mm 1.8 micron (analytical)
Retention time: 8.305
Base peak: 299
Precursor m/z: 315.0863
Precursor type: [M+H]+
m/z	relative intensity
137.0236	400
149.0232	163
197.0604	244
243.0691	200
253.0391	237
253.0606	252
254.0549	274
271.0581	444
271.0648	355
299.053	999
