Mass spectrum: Hydrastine; LC-ESI-QTOF; MS2; CE 10 ev; [M+H]+
Name: Hydrastine
Formula: C21H21NO6
Exact mass: 383.136887
SMILES: CN1CCC2=CC3=C(C=C2C1C4C5=C(C(=C(C=C5)OC)OC)C(=O)O4)OCO3
InChI: InChI=1S/C21H21NO6/c1-22-7-6-11-8-15-16(27-10-26-15)9-13(11)18(22)19-12-4-5-14(24-2)20(25-3)17(12)21(23)28-19/h4-5,8-9,18-19H,6-7,10H2,1-3H3
Instrument: Agilent 1200 RRLC; Agilent 6520 QTOF
Instrument type: LC-ESI-QTOF
Ms type: MS2
Ion mode: POSITIVE
Collision energy: 10 ev
Column name: Agilent C8 Cartridge Column 2.1X30mm 3.5 micron (guard); Agilent SB-Aq 2.1x50mm 1.8 micron (analytical)
Retention time: 4.258
Base peak: 384
Precursor m/z: 384.1442
Precursor type: [M+H]+
m/z	relative intensity
149.0587	12
190.085	153
190.1236	6
282.0896	5
293.0784	16
294.0893	8
297.1106	11
308.0684	7
323.0891	160
323.1394	7
323.1741	6
335.0882	28
341.1111	8
353.1023	7
366.124	14
384.1427	999
