Mass spectrum: Haploperoside C; LC-ESI-QTOF; MS2; CE 40 ev; [M+H]+
Name: Haploperoside C
Formula: C22H28O13
Exact mass: 500.152991
SMILES: CC1C(C(C(C(O1)OCC2C(C(C(C(O2)OC3=C(C=C4C=CC(=O)OC4=C3)OC)O)O)O)O)O)O
InChI: InChI=1S/C22H28O13/c1-8-15(24)17(26)19(28)21(32-8)31-7-13-16(25)18(27)20(29)22(35-13)34-12-6-10-9(5-11(12)30-2)3-4-14(23)33-10/h3-6,8,13,15-22,24-29H,7H2,1-2H3
Instrument: Agilent 1200 RRLC; Agilent 6520 QTOF
Instrument type: LC-ESI-QTOF
Ms type: MS2
Ion mode: POSITIVE
Collision energy: 40 ev
Column name: Agilent C8 Cartridge Column 2.1X30mm 3.5 micron (guard); Agilent SB-Aq 2.1x50mm 1.8 micron (analytical)
Retention time: 3.997
Base peak: 193
Precursor m/z: 501.1603
Precursor type: [M+H]+
m/z	relative intensity
133.0275	116
150.0278	25
178.0248	76
193.0492	999
193.0946	36
