Mass spectrum: Kinetin; LC-ESI-QTOF; MS2; CE 20 ev; [M-H]-
Name: Kinetin
Formula: C10H9N5O
Exact mass: 215.08071
SMILES: C1=COC(=C1)CNC2=NC=NC3=C2NC=N3
InChI: InChI=1S/C10H9N5O/c1-2-7(16-3-1)4-11-9-8-10(13-5-12-8)15-6-14-9/h1-3,5-6H,4H2,(H2,11,12,13,14,15)
Instrument: Agilent 1200 RRLC; Agilent 6520 QTOF
Instrument type: LC-ESI-QTOF
Ms type: MS2
Ion mode: NEGATIVE
Collision energy: 20 ev
Column name: Agilent C8 Cartridge Column 2.1X30mm 3.5 micron (guard); Agilent SB-Aq 2.1x50mm 1.8 micron (analytical)
Retention time: 4.385
Base peak: 133
Precursor m/z: 214.0734
Precursor type: [M-H]-
m/z	relative intensity
106.0279	26
107.0368	35
117.0204	32
118.0282	8
119.0359	5
132.0308	86
133.0389	999
133.0725	23
133.0872	12
133.1181	9
133.1461	20
134.0468	675
134.0796	18
134.101	12
134.1542	11
142.0405	23
144.0318	6
146.0467	12
158.047	19
160.0232	8
160.0618	13
169.051	45
170.0459	60
172.0615	8
173.0348	8
186.077	46
196.0622	146
196.1049	5
199.0507	5
214.0722	132
