Mass spectrum: Glabranine; LC-ESI-QTOF; MS2; CE 20 ev; [M-H]-
Name: Glabranine
Formula: C20H20O4
Exact mass: 324.136159
SMILES: CC(=CCC1=C(C=C(C2=C1OC(CC2=O)C3=CC=CC=C3)O)O)C
InChI: InChI=1S/C20H20O4/c1-12(2)8-9-14-15(21)10-16(22)19-17(23)11-18(24-20(14)19)13-6-4-3-5-7-13/h3-8,10,18,21-22H,9,11H2,1-2H3
Instrument: Agilent 1200 RRLC; Agilent 6520 QTOF
Instrument type: LC-ESI-QTOF
Ms type: MS2
Ion mode: NEGATIVE
Collision energy: 20 ev
Column name: Agilent C8 Cartridge Column 2.1X30mm 3.5 micron (guard); Agilent SB-Aq 2.1x50mm 1.8 micron (analytical)
Retention time: 10.124
Base peak: 323
Precursor m/z: 323.1289
Precursor type: [M-H]-
m/z	relative intensity
109.0664	8
133.0661	17
136.0158	18
145.0651	6
151.0757	19
161.0234	6
164.0106	49
169.0659	6
171.0439	19
175.0743	9
176.0115	7
219.0651	44
232.0773	5
237.1275	9
245.0811	7
267.0653	8
268.0743	18
279.1404	22
280.0719	7
281.1166	47
295.1325	9
323.1286	999
