Mass spectrum: 3-Hydroxy-3',4',5'-trimethoxyflavone; LC-ESI-QTOF; MS; NEGATIVE
Name: 3-Hydroxy-3',4',5'-trimethoxyflavone
Formula: C18H16O6
Exact mass: 328.094688
SMILES: COC1=CC(=CC(=C1OC)OC)C2=C(C(=O)C3=CC=CC=C3O2)O
InChI: InChI=1S/C18H16O6/c1-21-13-8-10(9-14(22-2)18(13)23-3)17-16(20)15(19)11-6-4-5-7-12(11)24-17/h4-9,20H,1-3H3
Instrument: Agilent 1200 RRLC; Agilent 6520 QTOF
Instrument type: LC-ESI-QTOF
Ms type: MS
Ion mode: NEGATIVE
Column name: Agilent C8 Cartridge Column 2.1X30mm 3.5 micron (guard); Agilent SB-Aq 2.1x50mm 1.8 micron (analytical)
Retention time: 9.258
m/z	relative intensity
327.0874235	999
