Mass spectrum: 9-methoxy-2,2-dimethyl-6-hydro-2H-pyrano[5,6-c]quinolin-5-one; LC-ESI-QTOF; MS2; CE 20 ev; [M+H]+
Name: 9-methoxy-2,2-dimethyl-6-hydro-2H-pyrano[5,6-c]quinolin-5-one
Formula: C15H15NO3
Exact mass: 257.105193
SMILES: CC1(C=CC2=C(O1)C3=C(C=CC(=C3)OC)NC2=O)C
InChI: InChI=1S/C15H15NO3/c1-15(2)7-6-10-13(19-15)11-8-9(18-3)4-5-12(11)16-14(10)17/h4-8H,1-3H3,(H,16,17)
Instrument: Agilent 1200 RRLC; Agilent 6520 QTOF
Instrument type: LC-ESI-QTOF
Ms type: MS2
Ion mode: POSITIVE
Collision energy: 20 ev
Column name: Agilent C8 Cartridge Column 2.1X30mm 3.5 micron (guard); Agilent SB-Aq 2.1x50mm 1.8 micron (analytical)
Retention time: 8.513
Base peak: 258
Precursor m/z: 258.1125
Precursor type: [M+H]+
m/z	relative intensity
101.947	33
109.0645	34
122.0599	35
123.0671	15
135.0431	21
150.056	21
160.0735	39
160.0854	18
162.0566	19
173.0454	20
174.0623	15
174.0876	20
176.032	22
176.0718	28
178.0503	20
180.0738	11
186.0551	14
186.0898	11
188.0701	120
188.1022	14
192.0652	39
197.0815	52
198.0565	55
198.0911	32
200.0694	21
201.0357	13
201.0465	12
202.0838	17
202.122	17
204.0655	248
212.0988	32
212.1133	18
214.0486	12
215.0926	22
216.0649	349
216.0711	13
216.0981	137
222.0916	41
225.0774	37
228.0672	40
229.072	21
230.0748	12
230.0834	17
230.1197	81
240.1029	196
240.1374	12
242.0844	10
243.0909	116
258.1121	999
258.1465	12
258.1624	36
258.1939	15
