Mass spectrum: Capensine; LC-ESI-QTOF; MS2; CE 40 ev; [M-H]-
Name: Capensine
Formula: C15H16O5
Exact mass: 276.099774
SMILES: CC(=CCOC1=C(C=C2C=CC(=O)OC2=C1O)OC)C
InChI: InChI=1S/C15H16O5/c1-9(2)6-7-19-15-11(18-3)8-10-4-5-12(16)20-14(10)13(15)17/h4-6,8,17H,7H2,1-3H3
Instrument: Agilent 1200 RRLC; Agilent 6520 QTOF
Instrument type: LC-ESI-QTOF
Ms type: MS2
Ion mode: NEGATIVE
Collision energy: 40 ev
Column name: Agilent C8 Cartridge Column 2.1X30mm 3.5 micron (guard); Agilent SB-Aq 2.1x50mm 1.8 micron (analytical)
Retention time: 7.753
Base peak: 163
Precursor m/z: 275.0925
Precursor type: [M-H]-
m/z	relative intensity
105.0304	64
107.0143	845
107.0441	41
107.0621	33
107.097	20
107.326	14
107.7293	22
110.9402	51
112.4442	46
113.8482	14
117.1293	154
119.0122	152
119.0475	16
135.0084	753
135.0328	33
135.0456	34
135.1034	15
135.7393	19
135.9764	22
137.4605	78
144.4919	16
147.0123	37
148.9168	26
154.0014	14
158.8725	21
159.0028	32
163.0017	999
163.0448	39
163.0889	17
163.1226	20
163.6274	14
164.3103	18
177.0147	34
187.856	19
188.7099	35
190.9969	270
191.0313	15
194.1799	15
210.1081	20
210.6162	15
214.5101	27
230.0365	18
252.8719	16
