Mass spectrum: (S)-(-)-Perillic acid; LC-APCI-QTOF; MS; NEGATIVE
Name: (S)-(-)-Perillic acid
Formula: C10H14O2
Exact mass: 166.09938
SMILES: CC(=C)[C@H]1CCC(=CC1)C(=O)O
InChI: InChI=1S/C10H14O2/c1-7(2)8-3-5-9(6-4-8)10(11)12/h5,8H,1,3-4,6H2,2H3,(H,11,12)/t8-/m1/s1
Instrument: Agilent 1200 RRLC; Agilent 6520 QTOF
Instrument type: LC-APCI-QTOF
Ms type: MS
Ion mode: NEGATIVE
Column name: Agilent C8 Cartridge Column 2.1X30mm 3.5 micron (guard); Agilent SB-Aq 2.1x50mm 1.8 micron (analytical)
Retention time: 7.734
m/z	relative intensity
165.0921235	999
