Mass spectrum: methyl (2S,13bS,14aS,1R,4aR)-2-hydroxy-1,2,3,4,5,8,14,13b,14a,4a-decahydrobenz o[1,2-g]indolo[2,3-a]quinolizinecarboxylate; LC-ESI-QTOF; MS2; CE 40 ev; [M]+
Name: methyl (2S,13bS,14aS,1R,4aR)-2-hydroxy-1,2,3,4,5,8,14,13b,14a,4a-decahydrobenz o[1,2-g]indolo[2,3-a]quinolizinecarboxylate
Formula: C21H26N2O3
Exact mass: 354.194
SMILES: COC(=O)[C@H]1[C@H](CC[C@@H]2[C@@H]1C[C@H]3C4=C(CCN3C2)C5=CC=CC=C5N4)O
InChI: InChI=1S/C21H26N2O3/c1-26-21(25)19-15-10-17-20-14(13-4-2-3-5-16(13)22-20)8-9-23(17)11-12(15)6-7-18(19)24/h2-5,12,15,17-19,22,24H,6-11H2,1H3/t12-,15-,17-,18-,19+/m0/s1
Instrument: Agilent 1200 RRLC; Agilent 6520 QTOF
Instrument type: LC-ESI-QTOF
Ms type: MS2
Ion mode: POSITIVE
Collision energy: 40 ev
Column name: Agilent C8 Cartridge Column 2.1X30mm 3.5 micron (guard); Agilent SB-Aq 2.1x50mm 1.8 micron (analytical)
Retention time: 4.060
Base peak: 144
Precursor m/z: 355.2022
Precursor type: [M+H]+
m/z	relative intensity
106.0654	48
115.0525	55
116.0552	7
117.0691	139
118.0656	6
127.053	50
128.0589	12
129.0714	9
130.0653	19
131.0695	6
132.074	7
133.0861	6
134.0934	79
136.0626	7
142.0667	6
143.0722	59
144.0801	999
144.1159	36
144.133	11
144.1638	9
144.1915	16
144.5025	6
145.062	6
152.1034	9
157.0862	6
158.0958	21
162.0908	27
180.1004	21
181.0881	6
186.0847	10
194.1206	32
196.1108	6
206.0906	17
207.1039	11
212.1268	43
220.1078	9
224.1208	6
231.1021	9
245.114	7
248.1416	8
260.1482	8
