Mass spectrum: Harmine; LC-ESI-QTOF; MS2; CE 10 ev; [M+H]+
Name: Harmine
Formula: C13H12N2O
Exact mass: 212.094963
SMILES: CC1=NC=CC2=C1NC3=C2C=CC(=C3)OC
InChI: InChI=1S/C13H12N2O/c1-8-13-11(5-6-14-8)10-4-3-9(16-2)7-12(10)15-13/h3-7,15H,1-2H3
Instrument: Agilent 1200 RRLC; Agilent 6520 QTOF
Instrument type: LC-ESI-QTOF
Ms type: MS2
Ion mode: POSITIVE
Collision energy: 10 ev
Column name: Agilent C8 Cartridge Column 2.1X30mm 3.5 micron (guard); Agilent SB-Aq 2.1x50mm 1.8 micron (analytical)
Retention time: 4.499
Base peak: 213
Precursor m/z: 213.1023
Precursor type: [M+H]+
m/z	relative intensity
169.0725	14
170.0798	38
198.0789	68
213.1013	999
