Mass spectrum: 7-Hydroxy-3'-methoxyflavone; LC-ESI-QTOF; MS2; CE 10 ev; [M-H]-
Name: 7-Hydroxy-3'-methoxyflavone
Formula: C16H12O4
Exact mass: 268.073559
SMILES: COC1=CC=CC(=C1)C2=CC(=O)C3=C(O2)C=C(C=C3)O
InChI: InChI=1S/C16H12O4/c1-19-12-4-2-3-10(7-12)15-9-14(18)13-6-5-11(17)8-16(13)20-15/h2-9,17H,1H3
Instrument: Agilent 1200 RRLC; Agilent 6520 QTOF
Instrument type: LC-ESI-QTOF
Ms type: MS2
Ion mode: NEGATIVE
Collision energy: 10 ev
Column name: Agilent C8 Cartridge Column 2.1X30mm 3.5 micron (guard); Agilent SB-Aq 2.1x50mm 1.8 micron (analytical)
Retention time: 8.607
Base peak: 267
Precursor m/z: 267.0663
Precursor type: [M-H]-
m/z	relative intensity
105.5788	1
130.8647	1
135.0089	3
146.4501	1
167.0508	2
195.0459	3
216.1928	1
223.4839	1
224.0479	23
224.0968	2
241.2402	2
249.4473	1
252.0427	65
252.1139	1
252.1317	1
266.2953	1
266.5558	1
267.0653	999
