Mass spectrum: Luteolin-7-glucoside; LC-ESI-QTOF; MS2; CE 20 ev; [M-H]-
Name: Luteolin-7-glucoside
Formula: C21H20O11
Exact mass: 448.100561
SMILES: C1=CC(=C(C=C1C2=CC(=O)C3=C(C=C(C=C3O2)O[C@H]4[C@@H]([C@H]([C@@H]([C@H](O4)CO)O)O)O)O)O)O
InChI: InChI=1S/C21H20O11/c22-7-16-18(27)19(28)20(29)21(32-16)30-9-4-12(25)17-13(26)6-14(31-15(17)5-9)8-1-2-10(23)11(24)3-8/h1-6,16,18-25,27-29H,7H2/t16-,18-,19+,20-,21-/m1/s1
Instrument: Agilent 1200 RRLC; Agilent 6520 QTOF
Instrument type: LC-ESI-QTOF
Ms type: MS2
Ion mode: NEGATIVE
Collision energy: 20 ev
Column name: Agilent C8 Cartridge Column 2.1X30mm 3.5 micron (guard); Agilent SB-Aq 2.1x50mm 1.8 micron (analytical)
Retention time: 5.612
Base peak: 447
Precursor m/z: 447.0933
Precursor type: [M-H]-
m/z	relative intensity
106.1401	6
112.2768	9
127.2041	14
133.0273	7
133.0371	14
170.6014	9
176.8272	6
209.1888	7
227.0387	7
244.0797	8
255.03	14
265.0236	10
273.52	7
283.0214	19
284.0292	123
285.0396	755
285.0983	41
285.1493	7
285.2022	11
285.4314	8
285.6132	7
285.7664	8
285.7956	9
285.9215	8
285.9491	10
287.276	8
296.0387	15
327.0523	23
427.9876	16
430.115	6
430.6091	13
446.0899	13
447.0905	999
