Mass spectrum: Cyclocytidine; LC-ESI-QTOF; MS2; CE 20 ev; [M+H]+
Name: Cyclocytidine
Formula: C9H11N3O4
Exact mass: 225.074956
SMILES: C1=CN2C3C(C(C(O3)CO)O)OC2=NC1=N
InChI: InChI=1S/C9H11N3O4/c10-5-1-2-12-8-7(16-9(12)11-5)6(14)4(3-13)15-8/h1-2,4,6-8,10,13-14H,3H2
Instrument: Agilent 1200 RRLC; Agilent 6520 QTOF
Instrument type: LC-ESI-QTOF
Ms type: MS2
Ion mode: POSITIVE
Collision energy: 20 ev
Column name: Agilent C8 Cartridge Column 2.1X30mm 3.5 micron (guard); Agilent SB-Aq 2.1x50mm 1.8 micron (analytical)
Retention time: 0.351
Base peak: 178
Precursor m/z: 226.0823
Precursor type: [M+H]+
m/z	relative intensity
105.0428	8
107.0606	69
108.045	15
110.0227	19
112.0497	67
117.0439	10
119.059	20
122.07	12
123.0572	10
132.0551	7
133.0388	21
133.0592	10
135.0548	191
135.0928	6
145.0322	5
147.0581	14
149.057	42
150.0655	88
151.0491	9
160.0493	23
161.0303	19
161.0542	9
162.0659	87
162.0997	7
178.0606	999
178.0995	19
178.1247	18
178.1457	11
178.1831	29
178.2326	8
178.3316	5
190.0561	13
208.0614	10
226.0825	54
