Mass spectrum: Melatonin; LC-ESI-QTOF; MS2; CE 20 ev; [M+H]+
Name: Melatonin
Formula: C13H16N2O2
Exact mass: 232.121178
SMILES: CC(=O)NCCC1=CNC2=C1C=C(C=C2)OC
InChI: InChI=1S/C13H16N2O2/c1-9(16)14-6-5-10-8-15-13-4-3-11(17-2)7-12(10)13/h3-4,7-8,15H,5-6H2,1-2H3,(H,14,16)
Instrument: Agilent 1200 RRLC; Agilent 6520 QTOF
Instrument type: LC-ESI-QTOF
Ms type: MS2
Ion mode: POSITIVE
Collision energy: 20 ev
Column name: Agilent C8 Cartridge Column 2.1X30mm 3.5 micron (guard); Agilent SB-Aq 2.1x50mm 1.8 micron (analytical)
Retention time: 5.018
Base peak: 174
Precursor m/z: 233.1285
Precursor type: [M+H]+
m/z	relative intensity
103.0575	23
115.0527	27
117.0688	8
130.061	13
130.068	28
131.0717	88
131.0839	9
142.0652	45
143.0709	98
144.0813	37
146.0973	21
147.0708	10
158.0617	13
159.0666	332
159.105	11
174.0897	999
174.1273	45
174.1484	23
174.167	8
174.2124	15
216.0975	19
216.1043	15
