Mass spectrum: 8-benzyl-9,10-dimethoxy-5,8-dihydro-6H-[1,3]dioxolo[4,5-g]isoquino[3,2-a]isoquinoline; LC-ESI-QTOF; MS2; CE 10 ev; [M+H]+
Name: 8-benzyl-9,10-dimethoxy-5,8-dihydro-6H-[1,3]dioxolo[4,5-g]isoquino[3,2-a]isoquinoline
Formula: C27H25NO4
Exact mass: 427.178358
SMILES: COC1=C(C2=C(C=C1)C=C3C4=CC5=C(C=C4CCN3C2CC6=CC=CC=C6)OCO5)OC
InChI: InChI=1S/C27H25NO4/c1-29-23-9-8-19-13-21-20-15-25-24(31-16-32-25)14-18(20)10-11-28(21)22(26(19)27(23)30-2)12-17-6-4-3-5-7-17/h3-9,13-15,22H,10-12,16H2,1-2H3
Instrument: Agilent 1200 RRLC; Agilent 6520 QTOF
Instrument type: LC-ESI-QTOF
Ms type: MS2
Ion mode: POSITIVE
Collision energy: 10 ev
Column name: Agilent C8 Cartridge Column 2.1X30mm 3.5 micron (guard); Agilent SB-Aq 2.1x50mm 1.8 micron (analytical)
Retention time: 7.291
Base peak: 523
Precursor m/z: 428.1857
Precursor type: [M+H]+
m/z	relative intensity
119.3022	298
134.9573	272
303.0084	389
336.1269	285
427.2757	272
428.1979	298
432.5574	259
523.1654	999
733.6779	428
733.7259	272
