Mass spectrum: (+/-)-Catechin; LC-ESI-QTOF; MS2; CE 20 ev; [M-H]-
Name: (+/-)-Catechin
Name: Catechin
Formula: C15H14O6
Exact mass: 290.079038
SMILES: C1C(C(OC2=CC(=CC(=C21)O)O)C3=CC(=C(C=C3)O)O)O
InChI: InChI=1S/C15H14O6/c16-8-4-11(18)9-6-13(20)15(21-14(9)5-8)7-1-2-10(17)12(19)3-7/h1-5,13,15-20H,6H2
Instrument: Agilent 1200 RRLC; Agilent 6520 QTOF
Instrument type: LC-ESI-QTOF
Ms type: MS2
Ion mode: NEGATIVE
Collision energy: 20 ev
Column name: Agilent C8 Cartridge Column 2.1X30mm 3.5 micron (guard); Agilent SB-Aq 2.1x50mm 1.8 micron (analytical)
Retention time: 2.546
Base peak: 125
Precursor m/z: 289.0717
Precursor type: [M-H]-
m/z	relative intensity
105.0344	62
107.0513	37
108.0256	53
109.0292	976
109.0502	45
121.0291	169
123.0455	564
123.0752	41
125.0228	999
135.0392	59
137.0241	500
138.0297	91
139.0368	94
139.0486	37
145.0298	84
149.023	301
150.0349	71
151.0396	629
159.0445	94
160.0475	112
161.0587	262
161.0741	45
162.0313	59
163.041	130
164.0097	139
165.0198	207
166.0286	62
167.032	93
173.0572	59
174.0557	62
175.0413	180
175.0682	37
177.0549	162
179.0313	335
179.0651	82
181.0497	52
181.064	45
185.0623	69
187.0402	433
188.0431	69
188.0535	109
192.8596	41
202.0674	134
203.0716	954
203.3535	41
204.9857	37
205.0479	454
212.041	52
217.0478	75
217.086	57
217.1104	52
221.0794	201
227.074	164
229.05	64
231.0314	53
245.0812	892
245.1317	50
247.0676	61
277.9751	107
289.0725	456
