Mass spectrum: 3-(4,6-dipyrrolidin-1-yl-1,3,5-triazin-2-yl)-1,2,3,4,5,6-hexahydro-8H-1,5-methanopyrido[1,2-a][1,5]diazocin-8-one, 11-(4,6-dipyrrolidinyl-1,3,5-triazin-2-yl)-7,11-diazatricyclo[7.3.1.0<2,7>]tri deca-2,4-dien-6-one; LC-ESI-QTOF; MS2; CE 40 ev; [M+H]+
Name: 3-(4,6-dipyrrolidin-1-yl-1,3,5-triazin-2-yl)-1,2,3,4,5,6-hexahydro-8H-1,5-methanopyrido[1,2-a][1,5]diazocin-8-one, 11-(4,6-dipyrrolidinyl-1,3,5-triazin-2-yl)-7,11-diazatricyclo[7.3.1.0<2,7>]tri deca-2,4-dien-6-one
Formula: C22H29N7O
Exact mass: 407.243359
SMILES: C1CCN(C1)C2=NC(=NC(=N2)N3CC4CC(C3)C5=CC=CC(=O)N5C4)N6CCCC6
InChI: InChI=1S/C22H29N7O/c30-19-7-5-6-18-17-12-16(14-29(18)19)13-28(15-17)22-24-20(26-8-1-2-9-26)23-21(25-22)27-10-3-4-11-27/h5-7,16-17H,1-4,8-15H2
Instrument: Agilent 1200 RRLC; Agilent 6520 QTOF
Instrument type: LC-ESI-QTOF
Ms type: MS2
Ion mode: POSITIVE
Collision energy: 40 ev
Column name: Agilent C8 Cartridge Column 2.1X30mm 3.5 micron (guard); Agilent SB-Aq 2.1x50mm 1.8 micron (analytical)
Retention time: 7.117
Base peak: 261
Precursor m/z: 408.2507
Precursor type: [M+H]+
m/z	relative intensity
117.0567	14
122.0707	249
142.064	15
149.0803	51
153.1127	16
160.0753	279
165.1138	24
192.1209	24
207.1357	14
218.139	101
219.1384	11
235.1678	13
247.1653	84
249.1811	463
249.2299	16
259.1635	50
261.1812	999
261.2286	42
287.1943	14
313.209	14
366.198	16
406.2302	35
408.2504	753
