Mass spectrum: 6-Fluoro-DL-tryptophan; LC-ESI-QTOF; MS2; CE 40 ev; [M+H]+
Name: 6-Fluoro-DL-tryptophan
Formula: C11H11FN2O2
Exact mass: 222.080456
SMILES: C1=CC2=C(C=C1F)NC=C2CC(C(=O)O)N
InChI: InChI=1S/C11H11FN2O2/c12-7-1-2-8-6(3-9(13)11(15)16)5-14-10(8)4-7/h1-2,4-5,9,14H,3,13H2,(H,15,16)
Instrument: Agilent 1200 RRLC; Agilent 6520 QTOF
Instrument type: LC-ESI-QTOF
Ms type: MS2
Ion mode: POSITIVE
Collision energy: 40 ev
Column name: Agilent C8 Cartridge Column 2.1X30mm 3.5 micron (guard); Agilent SB-Aq 2.1x50mm 1.8 micron (analytical)
Retention time: 1.641
Base peak: 109
Precursor m/z: 223.0878
Precursor type: [M+H]+
m/z	relative intensity
101.0383	53
103.0536	44
107.0304	51
108.0372	68
109.0447	999
109.0736	31
111.0496	14
115.0543	171
116.0498	70
123.0597	15
126.0289	18
128.0532	14
130.0617	38
133.0439	426
133.0766	19
134.0376	39
134.0444	47
135.0483	375
135.0823	19
136.0549	405
140.0502	44
146.0431	21
148.0548	81
150.0698	46
158.0425	26
160.0575	114
161.0626	131
