Mass spectrum: 7-Hydroxy-3'-methoxyflavone; LC-ESI-QTOF; MS2; CE 40 ev; [M-H]-
Name: 7-Hydroxy-3'-methoxyflavone
Formula: C16H12O4
Exact mass: 268.073559
SMILES: COC1=CC=CC(=C1)C2=CC(=O)C3=C(O2)C=C(C=C3)O
InChI: InChI=1S/C16H12O4/c1-19-12-4-2-3-10(7-12)15-9-14(18)13-6-5-11(17)8-16(13)20-15/h2-9,17H,1H3
Instrument: Agilent 1200 RRLC; Agilent 6520 QTOF
Instrument type: LC-ESI-QTOF
Ms type: MS2
Ion mode: NEGATIVE
Collision energy: 40 ev
Column name: Agilent C8 Cartridge Column 2.1X30mm 3.5 micron (guard); Agilent SB-Aq 2.1x50mm 1.8 micron (analytical)
Retention time: 8.607
Base peak: 195
Precursor m/z: 267.0663
Precursor type: [M-H]-
m/z	relative intensity
103.0701	3
117.0383	9
120.4454	9
132.0242	19
135.0074	345
135.0428	10
135.0642	5
135.0868	4
135.1129	4
135.4515	4
139.0582	4
139.7781	5
152.0586	8
159.0038	4
167.0491	78
167.0846	6
168.0572	43
179.0468	3
180.0565	9
182.0401	15
182.4852	3
183.0459	4
188.5357	5
195.0441	999
195.0837	43
195.1126	4
195.1748	15
195.2239	4
195.2896	3
195.3124	4
195.3828	3
195.4913	6
195.6669	4
195.6876	3
195.7492	5
196.0525	54
196.0805	14
196.3531	5
196.6868	3
197.4883	3
198.0255	5
198.0361	13
198.5711	4
222.5174	4
223.0388	53
224.0465	715
224.0846	28
224.1139	16
224.1473	6
224.1839	11
224.2326	4
224.288	5
224.3277	6
224.3819	4
224.4244	5
224.5671	4
224.6217	6
224.6861	5
224.7254	4
229.588	3
251.0293	5
252.0407	95
252.3745	3
267.2647	3
