Mass spectrum: haploside D; LC-ESI-QTOF; MS2; CE 20 ev; [M-H]-
Name: haploside D
Formula: C30H34O18
Exact mass: 682.174514
SMILES: CC1C(C(C(C(O1)OC2C(C(C(OC2OC3=C(C4=C(C(=C3)O)C(=O)C(=C(O4)C5=CC(=C(C=C5)O)OC)O)O)COC(=O)C)O)O)O)O)O
InChI: InChI=1S/C30H34O18/c1-9-18(34)22(38)25(41)29(44-9)48-28-23(39)19(35)16(8-43-10(2)31)46-30(28)45-15-7-13(33)17-21(37)24(40)26(47-27(17)20(15)36)11-4-5-12(32)14(6-11)42-3/h4-7,9,16,18-19,22-23,25,28-30,32-36,38-41H,8H2,1-3H3
Instrument: Agilent 1200 RRLC; Agilent 6520 QTOF
Instrument type: LC-ESI-QTOF
Ms type: MS2
Ion mode: NEGATIVE
Collision energy: 20 ev
Column name: Agilent C8 Cartridge Column 2.1X30mm 3.5 micron (guard); Agilent SB-Aq 2.1x50mm 1.8 micron (analytical)
Retention time: 7.186
Base peak: 681
Precursor m/z: 681.1672
Precursor type: [M-H]-
m/z	relative intensity
131.7555	4
135.5945	4
137.9236	6
222.3841	10
260.6421	6
287.1998	5
289.0363	5
313.0693	8
316.0213	15
329.0283	9
329.0635	6
330.0366	36
330.9744	7
331.0445	266
331.0893	6
331.1353	6
331.5943	7
422.9837	5
444.7369	8
457.0767	8
465.6366	4
517.0948	146
517.188	6
517.4545	5
535.1032	24
535.1499	6
584.8757	6
621.1451	70
621.2044	10
639.1606	39
653.1546	8
680.141	7
681.1646	999
