Mass spectrum: Robinetin trimethyl ether; LC-ESI-QTOF; MS2; CE 10 ev; [M-H]-
Name: Robinetin trimethyl ether
Formula: C18H16O7
Exact mass: 344.089603
SMILES: COC1=CC(=CC(=C1OC)OC)C2=C(C(=O)C3=C(O2)C=C(C=C3)O)O
InChI: InChI=1S/C18H16O7/c1-22-13-6-9(7-14(23-2)18(13)24-3)17-16(21)15(20)11-5-4-10(19)8-12(11)25-17/h4-8,19,21H,1-3H3
Instrument: Agilent 1200 RRLC; Agilent 6520 QTOF
Instrument type: LC-ESI-QTOF
Ms type: MS2
Ion mode: NEGATIVE
Collision energy: 10 ev
Column name: Agilent C8 Cartridge Column 2.1X30mm 3.5 micron (guard); Agilent SB-Aq 2.1x50mm 1.8 micron (analytical)
Retention time: 8.669
Base peak: 343
Precursor m/z: 343.0823
Precursor type: [M-H]-
m/z	relative intensity
104.7684	1
117.0349	2
144.0224	2
153.1647	2
154.6954	1
186.0261	1
192.1455	2
198.2797	2
199.9839	1
206.1631	2
211.0357	2
214.0316	5
242.0185	6
261.0661	2
270.0153	7
272.4063	2
283.1568	1
285.0372	6
299.0268	2
299.0506	4
299.0742	1
312.9908	1
313.0333	61
313.0841	6
313.1924	1
313.9668	1
327.0414	4
327.0634	1
328.0579	121
328.122	3
328.1456	2
328.1884	2
328.6362	2
328.7238	2
341.0073	2
341.1786	2
342.3345	2
342.9778	1
343.0174	4
343.0814	999
