Mass spectrum: Foliosidine; LC-ESI-QTOF; MS; POSITIVE
Name: Foliosidine
Name: 8-(2,3-dihydroxy-3-methylbutoxy)-4-methoxy-1-methylhydroquinolin-2-one
Formula: C16H21NO5
Exact mass: 307.141973
SMILES: CC(C)(C(COC1=CC=CC2=C1N(C(=O)C=C2OC)C)O)O
InChI: InChI=1S/C16H21NO5/c1-16(2,20)13(18)9-22-11-7-5-6-10-12(21-4)8-14(19)17(3)15(10)11/h5-8,13,18,20H,9H2,1-4H3
Instrument: Agilent 1200 RRLC; Agilent 6520 QTOF
Instrument type: LC-ESI-QTOF
Ms type: MS
Ion mode: POSITIVE
Column name: Agilent C8 Cartridge Column 2.1X30mm 3.5 micron (guard); Agilent SB-Aq 2.1x50mm 1.8 micron (analytical)
Retention time: 7.276
m/z	relative intensity
308.1492765	999
330.131218	185
