Mass spectrum: 5-Methylcytidine; LC-APCI-QTOF; MS; NEGATIVE
Name: 5-Methylcytidine
Formula: C10H15N3O5
Exact mass: 257.101171
SMILES: CC1=CN(C(=O)N=C1N)C2C(C(C(O2)CO)O)O
InChI: InChI=1S/C10H15N3O5/c1-4-2-13(10(17)12-8(4)11)9-7(16)6(15)5(3-14)18-9/h2,5-7,9,14-16H,3H2,1H3,(H2,11,12,17)
Instrument: Agilent 1200 RRLC; Agilent 6520 QTOF
Instrument type: LC-APCI-QTOF
Ms type: MS
Ion mode: NEGATIVE
Column name: Agilent C8 Cartridge Column 2.1X30mm 3.5 micron (guard); Agilent SB-Aq 2.1x50mm 1.8 micron (analytical)
Retention time: 0.401
m/z	relative intensity
256.0939235	999
