Mass spectrum: N-methylcorydaldine; LC-ESI-QTOF; MS2; CE 10 ev; [M+H]+
Name: N-methylcorydaldine
Formula: C12H15NO3
Exact mass: 221.105193
SMILES: CN1CCC2=CC(=C(C=C2C1=O)OC)OC
InChI: InChI=1S/C12H15NO3/c1-13-5-4-8-6-10(15-2)11(16-3)7-9(8)12(13)14/h6-7H,4-5H2,1-3H3
Instrument: Agilent 1200 RRLC; Agilent 6520 QTOF
Instrument type: LC-ESI-QTOF
Ms type: MS2
Ion mode: POSITIVE
Collision energy: 10 ev
Column name: Agilent C8 Cartridge Column 2.1X30mm 3.5 micron (guard); Agilent SB-Aq 2.1x50mm 1.8 micron (analytical)
Retention time: 5.830
Base peak: 222
Precursor m/z: 222.1125
Precursor type: [M+H]+
m/z	relative intensity
165.0896	292
165.1305	8
165.1601	6
179.071	5
191.0688	11
194.1179	14
204.0996	12
206.0782	5
222.1113	999
