Mass spectrum: Reserpiline; LC-ESI-QTOF; MS2; CE 40 ev; [M-H]-
Name: Reserpiline
Formula: C22H26N2O4
Exact mass: 382.189257
SMILES: CC1C2CN3CCC4=C(C3CC2C(=CO1)C(=O)OC)NC5=C4C=CC(=C5)OC
InChI: InChI=1S/C22H26N2O4/c1-12-17-10-24-7-6-15-14-5-4-13(26-2)8-19(14)23-21(15)20(24)9-16(17)18(11-28-12)22(25)27-3/h4-5,8,11-12,16-17,20,23H,6-7,9-10H2,1-3H3
Instrument: Agilent 1200 RRLC; Agilent 6520 QTOF
Instrument type: LC-ESI-QTOF
Ms type: MS2
Ion mode: NEGATIVE
Collision energy: 40 ev
Column name: Agilent C8 Cartridge Column 2.1X30mm 3.5 micron (guard); Agilent SB-Aq 2.1x50mm 1.8 micron (analytical)
Retention time: 5.606
Base peak: 127
Precursor m/z: 381.1820
Precursor type: [M-H]-
m/z	relative intensity
101.0245	50
105.1644	17
120.0424	19
127.0385	999
127.0726	35
128.0413	15
129.4919	25
133.6986	15
144.0376	15
156.9808	21
158.0541	17
161.746	16
170.0596	304
171.07	29
172.0767	20
173.0111	52
182.0484	30
183.064	59
184.0638	120
185.076	30
189.7712	15
196.0679	17
196.0842	17
198.0666	28
198.0958	17
209.0823	17
210.0505	15
217.0029	34
224.0823	19
234.0732	37
250.0492	17
265.0653	17
266.0746	17
278.1096	21
278.1388	24
280.5182	16
289.0984	17
292.1053	20
294.1066	22
305.1314	14
306.1294	89
306.1553	41
307.1421	18
319.1186	30
322.1414	17
336.1494	15
338.1704	17
354.889	16
365.1456	24
366.1585	482
