Mass spectrum: 2',5-Dimethoxyflavone; LC-ESI-QTOF; MS; POSITIVE
Name: 2',5-Dimethoxyflavone
Formula: C17H14O4
Exact mass: 282.089209
SMILES: COC1=CC=CC=C1C2=CC(=O)C3=C(O2)C=CC=C3OC
InChI: InChI=1S/C17H14O4/c1-19-13-7-4-3-6-11(13)16-10-12(18)17-14(20-2)8-5-9-15(17)21-16/h3-10H,1-2H3
Instrument: Agilent 1200 RRLC; Agilent 6520 QTOF
Instrument type: LC-ESI-QTOF
Ms type: MS
Ion mode: POSITIVE
Column name: Agilent C8 Cartridge Column 2.1X30mm 3.5 micron (guard); Agilent SB-Aq 2.1x50mm 1.8 micron (analytical)
Retention time: 9.025
m/z	relative intensity
283.0964765	999
305.078418	844
