Mass spectrum: 4'-hydroxyflavanone; LC-ESI-QTOF; MS2; CE 20 ev; [M-H]-
Name: 4'-hydroxyflavanone
Formula: C15H12O3
Exact mass: 240.078644
SMILES: C1C(OC2=CC=CC=C2C1=O)C3=CC=C(C=C3)O
InChI: InChI=1S/C15H12O3/c16-11-7-5-10(6-8-11)15-9-13(17)12-3-1-2-4-14(12)18-15/h1-8,15-16H,9H2
Instrument: Agilent 1200 RRLC; Agilent 6520 QTOF
Instrument type: LC-ESI-QTOF
Ms type: MS2
Ion mode: NEGATIVE
Collision energy: 20 ev
Column name: Agilent C8 Cartridge Column 2.1X30mm 3.5 micron (guard); Agilent SB-Aq 2.1x50mm 1.8 micron (analytical)
Retention time: 7.143
Base peak: 119
Precursor m/z: 239.0713
Precursor type: [M-H]-
m/z	relative intensity
107.6726	1
117.0328	2
119.012	1
119.0494	999
119.0813	26
119.1003	18
119.1255	4
119.1506	17
119.1916	4
119.2314	2
119.239	1
119.2467	1
119.267	3
119.2853	1
119.3036	3
119.3279	1
119.3343	1
119.342	1
119.3585	1
119.3827	2
119.3923	1
119.4133	1
119.4411	2
119.4585	1
119.4707	1
119.4951	1
119.5034	1
119.5146	1
119.5888	1
119.607	1
119.6422	1
119.6631	1
119.6837	1
119.7566	1
119.7647	1
119.7873	1
119.8015	1
119.8222	1
119.8498	1
119.8673	1
119.9174	1
119.9562	1
120.0255	1
120.0502	2
120.109	1
145.0293	1
174.4931	1
195.0805	16
195.1088	1
219.0572	1
232.754	1
239.0693	24
