Mass spectrum: Chrysophanic acid; LC-ESI-QTOF; MS2; CE 40 ev; [M-H]-
Name: Chrysophanic acid
Formula: C15H10O4
Exact mass: 254.057909
SMILES: CC1=CC(=C2C(=C1)C(=O)C3=C(C2=O)C(=CC=C3)O)O
InChI: InChI=1S/C15H10O4/c1-7-5-9-13(11(17)6-7)15(19)12-8(14(9)18)3-2-4-10(12)16/h2-6,16-17H,1H3
Instrument: Agilent 1200 RRLC; Agilent 6520 QTOF
Instrument type: LC-ESI-QTOF
Ms type: MS2
Ion mode: NEGATIVE
Collision energy: 40 ev
Column name: Agilent C8 Cartridge Column 2.1X30mm 3.5 micron (guard); Agilent SB-Aq 2.1x50mm 1.8 micron (analytical)
Retention time: 9.711
Base peak: 225
Precursor m/z: 253.0506
Precursor type: [M-H]-
m/z	relative intensity
154.0348	75
155.0525	77
180.0554	72
180.2998	145
181.0642	266
181.5387	61
182.0351	84
195.0429	54
196.0496	54
196.083	68
207.0495	79
210.0298	278
224.0482	273
225.0566	999
225.0871	93
