Mass spectrum: 7,3'-Dihydroxyflavone; LC-ESI-QTOF; MS2; CE 20 ev; [M-H]-
Name: 7,3'-Dihydroxyflavone
Formula: C15H10O4
Exact mass: 254.057909
SMILES: C1=CC(=CC(=C1)O)C2=CC(=O)C3=C(O2)C=C(C=C3)O
InChI: InChI=1S/C15H10O4/c16-10-3-1-2-9(6-10)14-8-13(18)12-5-4-11(17)7-15(12)19-14/h1-8,16-17H
Instrument: Agilent 1200 RRLC; Agilent 6520 QTOF
Instrument type: LC-ESI-QTOF
Ms type: MS2
Ion mode: NEGATIVE
Collision energy: 20 ev
Column name: Agilent C8 Cartridge Column 2.1X30mm 3.5 micron (guard); Agilent SB-Aq 2.1x50mm 1.8 micron (analytical)
Retention time: 7.394
Base peak: 253
Precursor m/z: 253.0506
Precursor type: [M-H]-
m/z	relative intensity
117.0358	7
133.0282	5
135.0076	43
180.0597	6
181.0631	6
196.0488	6
209.0641	9
224.0487	15
225.0567	10
253.0503	999
