Mass spectrum: Cycloheximide; LC-ESI-QTOF; MS2; CE 10 ev; [M-H]-
Name: Cycloheximide
Formula: C15H23NO4
Exact mass: 281.162708
SMILES: C[C@H]1C[C@@H](C(=O)[C@@H](C1)[C@@H](CC2CC(=O)NC(=O)C2)O)C
InChI: InChI=1S/C15H23NO4/c1-8-3-9(2)15(20)11(4-8)12(17)5-10-6-13(18)16-14(19)7-10/h8-12,17H,3-7H2,1-2H3,(H,16,18,19)/t8-,9-,11-,12+/m0/s1
Instrument: Agilent 1200 RRLC; Agilent 6520 QTOF
Instrument type: LC-ESI-QTOF
Ms type: MS2
Ion mode: NEGATIVE
Collision energy: 10 ev
Column name: Agilent C8 Cartridge Column 2.1X30mm 3.5 micron (guard); Agilent SB-Aq 2.1x50mm 1.8 micron (analytical)
Retention time: 5.704
Base peak: 154
Precursor m/z: 280.1554
Precursor type: [M-H]-
m/z	relative intensity
110.0245	278
110.0573	9
110.1222	6
112.044	10
123.0816	6
125.0977	51
151.1136	21
154.0504	999
154.0881	31
154.1385	8
154.1656	14
154.7631	5
177.1279	6
244.824	6
262.1438	14
280.1547	43
