Mass spectrum: 2',6-Dihydroxyflavanone; LC-ESI-QTOF; MS2; CE 10 ev; [M-H]-
Name: 2',6-Dihydroxyflavanone
Formula: C15H12O4
Exact mass: 256.073559
SMILES: C1C(OC2=C(C1=O)C=C(C=C2)O)C3=CC=CC=C3O
InChI: InChI=1S/C15H12O4/c16-9-5-6-14-11(7-9)13(18)8-15(19-14)10-3-1-2-4-12(10)17/h1-7,15-17H,8H2
Instrument: Agilent 1200 RRLC; Agilent 6520 QTOF
Instrument type: LC-ESI-QTOF
Ms type: MS2
Ion mode: NEGATIVE
Collision energy: 10 ev
Column name: Agilent C8 Cartridge Column 2.1X30mm 3.5 micron (guard); Agilent SB-Aq 2.1x50mm 1.8 micron (analytical)
Retention time: 6.828
Base peak: 109
Precursor m/z: 255.0663
Precursor type: [M-H]-
m/z	relative intensity
107.0143	16
108.0213	45
109.0293	999
109.0613	28
109.0771	4
109.098	5
109.1271	16
109.1932	2
109.2303	5
109.255	2
109.263	2
109.287	2
109.3283	3
109.3395	2
109.3474	2
109.3947	2
109.4139	3
109.4855	3
109.7241	2
109.8417	2
109.9387	2
110.0344	4
117.036	10
119.0502	65
119.0731	2
133.0329	3
134.9893	4
135.0086	29
135.0307	2
137.0221	7
145.0275	21
145.0373	6
149.0208	10
160.0085	4
160.0192	2
161.0231	142
161.0561	3
161.0718	2
161.1428	2
193.0652	3
196.0449	2
196.0598	3
209.0609	5
211.079	25
237.0554	18
255.0644	398
