Mass spectrum: Salsoline; LC-APCI-QTOF; MS; POSITIVE
Name: Salsoline
Formula: C11H15NO2
Exact mass: 193.110279
SMILES: CC1C2=CC(=C(C=C2CCN1)O)OC
InChI: InChI=1S/C11H15NO2/c1-7-9-6-11(14-2)10(13)5-8(9)3-4-12-7/h5-7,12-13H,3-4H2,1-2H3
Instrument: Agilent 1200 RRLC; Agilent 6520 QTOF
Instrument type: LC-APCI-QTOF
Ms type: MS
Ion mode: POSITIVE
Column name: Agilent C8 Cartridge Column 2.1X30mm 3.5 micron (guard); Agilent SB-Aq 2.1x50mm 1.8 micron (analytical)
Retention time: 1.174
m/z	relative intensity
194.1175765	999
