Mass spectrum: Plumbagin; LC-APCI-QTOF; MS; POSITIVE
Name: Plumbagin
Formula: C11H8O3
Exact mass: 188.047344
SMILES: CC1=CC(=O)C2=C(C1=O)C=CC=C2O
InChI: InChI=1S/C11H8O3/c1-6-5-9(13)10-7(11(6)14)3-2-4-8(10)12/h2-5,12H,1H3
Instrument: Agilent 1200 RRLC; Agilent 6520 QTOF
Instrument type: LC-APCI-QTOF
Ms type: MS
Ion mode: POSITIVE
Column name: Agilent C8 Cartridge Column 2.1X30mm 3.5 micron (guard); Agilent SB-Aq 2.1x50mm 1.8 micron (analytical)
Retention time: 7.077
m/z	relative intensity
189.0545765	999
