Mass spectrum: Carbobenzoxy-L-asparagine; LC-ESI-QTOF; MS; NEGATIVE
Name: Carbobenzoxy-L-asparagine
Formula: C12H14N2O5
Exact mass: 266.090272
SMILES: C1=CC=C(C=C1)COC(=O)N[C@H](CC(=O)N)C(=O)O
InChI: InChI=1S/C12H14N2O5/c13-10(15)6-9(11(16)17)14-12(18)19-7-8-4-2-1-3-5-8/h1-5,9H,6-7H2,(H2,13,15)(H,14,18)(H,16,17)/t9-/m1/s1
Instrument: Agilent 1200 RRLC; Agilent 6520 QTOF
Instrument type: LC-ESI-QTOF
Ms type: MS
Ion mode: NEGATIVE
Column name: Agilent C8 Cartridge Column 2.1X30mm 3.5 micron (guard); Agilent SB-Aq 2.1x50mm 1.8 micron (analytical)
Retention time: 3.510
m/z	relative intensity
265.0830235	999
