Mass spectrum: (6aS)-1,2,9,10-tetramethoxy-6-methyl-5,6,6a,7-tetrahydro-4H-dibenzo[de,g]quinoline-3-carbaldehyde; LC-ESI-QTOF; MS2; CE 20 ev; [M+H]+
Name: (6aS)-1,2,9,10-tetramethoxy-6-methyl-5,6,6a,7-tetrahydro-4H-dibenzo[de,g]quinoline-3-carbaldehyde
Formula: C22H25NO5
Exact mass: 383.173273
SMILES: CN1CCC2=C(C(=C(C3=C2[C@@H]1CC4=CC(=C(C=C43)OC)OC)OC)OC)C=O
InChI: InChI=1S/C22H25NO5/c1-23-7-6-13-15(11-24)21(27-4)22(28-5)20-14-10-18(26-3)17(25-2)9-12(14)8-16(23)19(13)20/h9-11,16H,6-8H2,1-5H3/t16-/m0/s1
Instrument: Agilent 1200 RRLC; Agilent 6520 QTOF
Instrument type: LC-ESI-QTOF
Ms type: MS2
Ion mode: POSITIVE
Collision energy: 20 ev
Column name: Agilent C8 Cartridge Column 2.1X30mm 3.5 micron (guard); Agilent SB-Aq 2.1x50mm 1.8 micron (analytical)
Retention time: 5.665
Base peak: 353
Precursor m/z: 384.1806
Precursor type: [M+H]+
m/z	relative intensity
235.0754	12
247.0707	14
251.1022	18
262.0989	25
263.0972	13
264.1088	13
267.0933	12
267.1055	30
277.0857	19
278.0977	34
279.09	27
279.1017	55
280.1062	19
281.1152	34
281.1315	12
282.126	155
283.0975	35
292.1236	12
293.1168	101
293.1607	13
294.1223	460
295.0896	85
295.1344	50
296.1054	17
298.118	76
305.0835	17
307.0918	177
307.127	18
308.0992	38
308.1297	22
308.1477	22
309.1146	24
310.1179	277
310.1575	13
311.0915	54
311.1254	20
313.1412	278
313.1784	16
320.108	44
320.1251	43
321.1132	29
322.1214	81
323.0915	183
323.1223	33
323.1533	13
324.1231	17
324.1577	32
325.1412	270
325.1929	17
326.1135	79
334.1364	101
334.1735	15
335.1506	81
336.1195	251
336.1631	20
337.1051	11
338.1148	148
338.1569	16
341.1326	216
350.138	98
351.1307	22
351.1437	76
353.1369	999
353.1944	60
353.2316	32
353.309	19
353.8207	12
354.1322	171
366.0986	15
366.1656	641
366.2272	29
368.1421	15
369.1528	266
369.2099	18
384.1774	351
