Mass spectrum: 2',6-Dihydroxyflavone; LC-ESI-QTOF; MS2; CE 20 ev; [M-H]-
Name: 2',6-Dihydroxyflavone
Formula: C15H10O4
Exact mass: 254.057909
SMILES: C1=CC=C(C(=C1)C2=CC(=O)C3=C(O2)C=CC(=C3)O)O
InChI: InChI=1S/C15H10O4/c16-9-5-6-14-11(7-9)13(18)8-15(19-14)10-3-1-2-4-12(10)17/h1-8,16-17H
Instrument: Agilent 1200 RRLC; Agilent 6520 QTOF
Instrument type: LC-ESI-QTOF
Ms type: MS2
Ion mode: NEGATIVE
Collision energy: 20 ev
Column name: Agilent C8 Cartridge Column 2.1X30mm 3.5 micron (guard); Agilent SB-Aq 2.1x50mm 1.8 micron (analytical)
Retention time: 7.464
Base peak: 253
Precursor m/z: 253.0506
Precursor type: [M-H]-
m/z	relative intensity
101.038	3
105.033	3
107.014	159
107.0444	4
107.0642	2
107.1114	3
108.0218	52
108.0528	3
109.0293	3
117.0348	261
117.0588	3
117.0659	5
117.0732	2
117.0896	3
117.1328	4
117.2282	2
117.3416	2
120.0289	2
133.0284	38
135.009	153
135.0339	3
135.0592	4
145.0239	6
145.0312	6
147.0064	4
152.0626	3
153.0684	5
153.0762	7
155.0468	3
160.0151	16
161.0203	12
165.0691	7
167.0511	2
169.0641	13
175.001	3
177.0179	10
179.048	5
180.0528	5
180.0637	11
180.3878	2
181.0496	4
181.0652	41
181.0967	3
181.1137	2
183.044	13
191.043	2
195.0576	2
196.0501	5
197.0603	55
197.104	2
198.0343	8
199.0383	2
207.0382	2
207.0511	4
208.0521	23
209.0601	154
209.1022	5
209.1232	4
209.1543	2
209.1958	2
210.0362	9
211.0394	31
211.0754	2
223.0355	4
224.0468	21
225.0571	107
225.1034	6
228.4485	2
233.1528	2
234.546	2
235.0408	43
235.0744	3
238.0973	2
251.0286	11
252.0398	14
253.0503	999
