Mass spectrum: Quinine; LC-ESI-QTOF; MS2; CE 20 ev; [M+H]+
Name: Quinine
Formula: C20H24N2O2
Exact mass: 324.183778
SMILES: COC1=CC2=C(C=CN=C2C=C1)C(C3CC4CCN3CC4C=C)O
InChI: InChI=1S/C20H24N2O2/c1-3-13-12-22-9-7-14(13)10-19(22)20(23)16-6-8-21-18-5-4-15(24-2)11-17(16)18/h3-6,8,11,13-14,19-20,23H,1,7,9-10,12H2,2H3
Instrument: Agilent 1200 RRLC; Agilent 6520 QTOF
Instrument type: LC-ESI-QTOF
Ms type: MS2
Ion mode: POSITIVE
Collision energy: 20 ev
Column name: Agilent C8 Cartridge Column 2.1X30mm 3.5 micron (guard); Agilent SB-Aq 2.1x50mm 1.8 micron (analytical)
Retention time: 5.289
Base peak: 325
Precursor m/z: 325.1911
Precursor type: [M+H]+
m/z	relative intensity
110.0951	72
134.0914	18
145.0531	15
160.0732	79
160.0798	37
166.1228	41
172.0744	46
173.0785	23
174.0926	25
184.0739	125
186.0918	41
198.088	21
200.1016	16
202.0851	23
210.094	19
224.1099	19
226.1199	30
234.0872	16
252.1315	19
253.1296	114
253.144	37
254.1547	17
264.1315	55
265.1334	20
266.149	18
276.1323	21
278.157	40
279.1521	71
307.1782	232
307.1925	21
325.189	999
