Mass spectrum: Chrysoeriol; LC-ESI-QTOF; MS2; CE 20 ev; [M-H]-
Name: Chrysoeriol
Formula: C16H12O6
Exact mass: 300.063388
SMILES: COC1=C(C=CC(=C1)C2=CC(=O)C3=C(C=C(C=C3O2)O)O)O
InChI: InChI=1S/C16H12O6/c1-21-14-4-8(2-3-10(14)18)13-7-12(20)16-11(19)5-9(17)6-15(16)22-13/h2-7,17-19H,1H3
Instrument: Agilent 1200 RRLC; Agilent 6520 QTOF
Instrument type: LC-ESI-QTOF
Ms type: MS2
Ion mode: NEGATIVE
Collision energy: 20 ev
Column name: Agilent C8 Cartridge Column 2.1X30mm 3.5 micron (guard); Agilent SB-Aq 2.1x50mm 1.8 micron (analytical)
Retention time: 8.058
Base peak: 284
Precursor m/z: 299.0561
Precursor type: [M-H]-
m/z	relative intensity
101.0591	5
134.0318	3
138.9932	4
145.0325	3
156.9842	4
159.0039	6
173.0125	18
181.211	3
212.0369	5
215.2641	7
217.0016	29
227.0363	11
230.0275	3
242.2534	3
255.0263	9
255.6497	3
256.037	86
256.0834	5
256.1206	4
257.0468	3
268.2201	4
283.0228	4
283.9762	3
284.0325	999
284.0852	41
284.1228	9
284.1812	13
284.2103	5
284.2333	6
284.2589	7
284.3028	3
284.3394	5
284.3919	3
284.4242	7
284.4512	4
284.4783	3
284.5384	5
284.6036	3
284.6734	5
284.7102	6
284.8157	6
284.9639	4
285.0321	6
285.0775	4
298.7929	3
299.0536	253
