Mass spectrum: 2-(6-amino-8-sulfanylpurin-9-yl)-5-(hydroxymethyl)oxolane-3,4-diol; LC-ESI-QTOF; MS2; CE 40 ev; [M-H]-
Name: 2-(6-amino-8-sulfanylpurin-9-yl)-5-(hydroxymethyl)oxolane-3,4-diol
Formula: C10H13N5O4S
Exact mass: 299.068825
SMILES: C1=NC2=C(C(=N1)N)NC(=S)N2C3C(C(C(O3)CO)O)O
InChI: InChI=1S/C10H13N5O4S/c11-7-4-8(13-2-12-7)15(10(20)14-4)9-6(18)5(17)3(1-16)19-9/h2-3,5-6,9,16-18H,1H2,(H,14,20)(H2,11,12,13)
Instrument: Agilent 1200 RRLC; Agilent 6520 QTOF
Instrument type: LC-ESI-QTOF
Ms type: MS2
Ion mode: NEGATIVE
Collision energy: 40 ev
Column name: Agilent C8 Cartridge Column 2.1X30mm 3.5 micron (guard); Agilent SB-Aq 2.1x50mm 1.8 micron (analytical)
Retention time: 2.434
Base peak: 180
Precursor m/z: 298.0615
Precursor type: [M-H]-
m/z	relative intensity
119.036	163
134.0466	168
134.9194	379
139.005	636
144.8001	373
146.0465	478
147.0551	478
149.098	163
151.0048	131
153.0246	105
153.4263	121
165.0117	752
166.0219	862
171.9271	147
178.0164	221
179.0223	216
180.0368	999
208.0317	300
222.0325	152
242.427	284
272.4784	110
428.0075	216
432.7158	126
535.9505	131
541.6736	110
563.4826	326
630.3476	189
667.6826	237
685.4387	226
750.2866	252
982.4646	179
983.346	200
989.2351	152
