Mass spectrum: (+)-Bicuculline; LC-ESI-QTOF; MS2; CE 10 ev; [M+H]+
Name: (+)-Bicuculline
Formula: C20H17NO6
Exact mass: 367.105587
SMILES: CN1CCC2=CC3=C(C=C2[C@H]1[C@H]4C5=C(C6=C(C=C5)OCO6)C(=O)O4)OCO3
InChI: InChI=1S/C20H17NO6/c1-21-5-4-10-6-14-15(25-8-24-14)7-12(10)17(21)18-11-2-3-13-19(26-9-23-13)16(11)20(22)27-18/h2-3,6-7,17-18H,4-5,8-9H2,1H3/t17-,18+/m0/s1
Instrument: Agilent 1200 RRLC; Agilent 6520 QTOF
Instrument type: LC-ESI-QTOF
Ms type: MS2
Ion mode: POSITIVE
Collision energy: 10 ev
Column name: Agilent C8 Cartridge Column 2.1X30mm 3.5 micron (guard); Agilent SB-Aq 2.1x50mm 1.8 micron (analytical)
Retention time: 3.936
Base peak: 368
Precursor m/z: 368.1129
Precursor type: [M+H]+
m/z	relative intensity
149.0564	10
176.0658	9
190.0832	48
249.0475	10
261.0502	6
277.0486	23
279.0637	8
289.0425	6
307.0585	196
319.0579	29
325.068	18
337.0677	20
368.1105	999
