Mass spectrum: Oxoglaucine; LC-ESI-QTOF; MS2; CE 40 ev; [M+H]+
Name: Oxoglaucine
Formula: C20H17NO5
Exact mass: 351.110673
SMILES: COC1=C(C2=C3C(=C1)C=CN=C3C(=O)C4=CC(=C(C=C42)OC)OC)OC
InChI: InChI=1S/C20H17NO5/c1-23-13-8-11-12(9-14(13)24-2)19(22)18-16-10(5-6-21-18)7-15(25-3)20(26-4)17(11)16/h5-9H,1-4H3
Instrument: Agilent 1200 RRLC; Agilent 6520 QTOF
Instrument type: LC-ESI-QTOF
Ms type: MS2
Ion mode: POSITIVE
Collision energy: 40 ev
Column name: Agilent C8 Cartridge Column 2.1X30mm 3.5 micron (guard); Agilent SB-Aq 2.1x50mm 1.8 micron (analytical)
Retention time: 9.152
Base peak: 306
Precursor m/z: 352.1180
Precursor type: [M+H]+
m/z	relative intensity
178.0642	19
206.0586	56
207.0663	48
219.0635	29
223.0606	29
231.0649	16
234.0517	39
235.0601	440
235.0886	18
235.105	16
236.0666	71
246.0517	24
247.057	39
247.069	21
248.066	91
250.0911	18
251.053	99
259.0489	19
260.0669	32
262.0411	41
262.0533	22
262.0912	34
263.0536	193
264.0641	177
265.0725	76
266.0795	19
274.0401	44
275.0552	28
276.0648	131
277.0768	15
278.0798	105
279.0494	88
291.0495	56
291.0818	20
292.059	156
292.0984	17
293.065	205
293.1147	15
294.0719	90
294.0901	15
304.059	66
306.0725	999
306.1201	49
306.2252	17
307.0414	26
307.0616	19
308.0912	118
320.0403	16
320.0889	16
321.0611	52
322.066	119
336.0853	71
