Mass spectrum: 3-(2-Naphthyl)-D-alanine; LC-ESI-QTOF; MS2; CE 20 ev; [M-H]-
Name: 3-(2-Naphthyl)-D-alanine
Formula: C13H13NO2
Exact mass: 215.094629
SMILES: C1=CC=C2C=C(C=CC2=C1)CC(C(=O)O)N
InChI: InChI=1S/C13H13NO2/c14-12(13(15)16)8-9-5-6-10-3-1-2-4-11(10)7-9/h1-7,12H,8,14H2,(H,15,16)
Instrument: Agilent 1200 RRLC; Agilent 6520 QTOF
Instrument type: LC-ESI-QTOF
Ms type: MS2
Ion mode: NEGATIVE
Collision energy: 20 ev
Column name: Agilent C8 Cartridge Column 2.1X30mm 3.5 micron (guard); Agilent SB-Aq 2.1x50mm 1.8 micron (analytical)
Retention time: 3.443
Base peak: 153
Precursor m/z: 214.0873
Precursor type: [M-H]-
m/z	relative intensity
120.7705	53
123.0392	22
124.0684	15
127.0528	74
141.071	309
153.0705	999
153.108	31
153.6759	29
168.079	145
170.6675	15
197.0601	355
197.1046	16
212.7703	17
