Mass spectrum: Camptothecin; LC-ESI-QTOF; MS2; CE 40 ev; [M+H]+
Name: Camptothecin
Formula: C20H16N2O4
Exact mass: 348.111007
SMILES: CCC1(C2=C(COC1=O)C(=O)N3CC4=CC5=CC=CC=C5N=C4C3=C2)O
InChI: InChI=1S/C20H16N2O4/c1-2-20(25)14-8-16-17-12(7-11-5-3-4-6-15(11)21-17)9-22(16)18(23)13(14)10-26-19(20)24/h3-8,25H,2,9-10H2,1H3
Instrument: Agilent 1200 RRLC; Agilent 6520 QTOF
Instrument type: LC-ESI-QTOF
Ms type: MS2
Ion mode: POSITIVE
Collision energy: 40 ev
Column name: Agilent C8 Cartridge Column 2.1X30mm 3.5 micron (guard); Agilent SB-Aq 2.1x50mm 1.8 micron (analytical)
Retention time: 7.573
Base peak: 219
Precursor m/z: 349.1183
Precursor type: [M+H]+
m/z	relative intensity
121.0455	155
123.042	52
141.0574	85
153.0568	82
168.0648	504
180.0748	72
181.0756	220
191.073	117
193.0881	182
194.1004	75
199.0281	92
205.075	307
206.0888	372
209.0732	52
217.0849	115
218.0882	172
219.0924	999
219.1392	60
220.0986	664
220.9018	55
221.0901	72
221.1068	192
232.078	105
233.1141	65
235.085	57
235.1172	60
245.0954	112
246.0706	165
246.119	80
247.1212	130
248.0886	207
249.0737	72
249.0998	347
258.1115	70
278.0952	85
287.1131	75
291.0687	65
291.1224	72
305.128	222
475.6068	52
