Mass spectrum: Pinocembrine; LC-ESI-QTOF; MS2; CE 20 ev; [M-H]-
Name: Pinocembrine
Formula: C15H12O4
Exact mass: 256.073559
SMILES: C1[C@@H](OC2=CC(=CC(=C2C1=O)O)O)C3=CC=CC=C3
InChI: InChI=1S/C15H12O4/c16-10-6-11(17)15-12(18)8-13(19-14(15)7-10)9-4-2-1-3-5-9/h1-7,13,16-17H,8H2/t13-/m1/s1
Instrument: Agilent 1200 RRLC; Agilent 6520 QTOF
Instrument type: LC-ESI-QTOF
Ms type: MS2
Ion mode: NEGATIVE
Collision energy: 20 ev
Column name: Agilent C8 Cartridge Column 2.1X30mm 3.5 micron (guard); Agilent SB-Aq 2.1x50mm 1.8 micron (analytical)
Retention time: 7.874
Base peak: 255
Precursor m/z: 255.0663
Precursor type: [M-H]-
m/z	relative intensity
133.0282	7
136.0167	14
141.0699	6
145.0654	80
151.0035	159
164.0106	28
169.066	41
171.0443	66
172.0529	16
177.0183	5
183.0811	14
185.0608	22
187.0759	41
193.0654	6
211.0764	63
213.0552	205
213.0968	8
227.0726	18
255.0664	999
