Mass spectrum: Melatonin; LC-ESI-QTOF; MS2; CE 10 ev; [M-H]-
Name: Melatonin
Formula: C13H16N2O2
Exact mass: 232.121178
SMILES: CC(=O)NCCC1=CNC2=C1C=C(C=C2)OC
InChI: InChI=1S/C13H16N2O2/c1-9(16)14-6-5-10-8-15-13-4-3-11(17-2)7-12(10)13/h3-4,7-8,15H,5-6H2,1-2H3,(H,14,16)
Instrument: Agilent 1200 RRLC; Agilent 6520 QTOF
Instrument type: LC-ESI-QTOF
Ms type: MS2
Ion mode: NEGATIVE
Collision energy: 10 ev
Column name: Agilent C8 Cartridge Column 2.1X30mm 3.5 micron (guard); Agilent SB-Aq 2.1x50mm 1.8 micron (analytical)
Retention time: 5.009
Base peak: 231
Precursor m/z: 231.1139
Precursor type: [M-H]-
m/z	relative intensity
144.0462	74
145.0516	92
216.0894	917
216.1326	37
216.175	13
216.1977	5
216.2257	9
216.2637	6
216.3209	6
216.632	6
230.9915	15
231.114	999
