Mass spectrum: Ajmaline; LC-ESI-QTOF; MS2; CE 40 ev; [M+H]+
Name: Ajmaline
Formula: C20H26N2O2
Exact mass: 326.199428
SMILES: CCC1C2CC3C4C5(CC(C2C5O)N3C1O)C6=CC=CC=C6N4C
InChI: InChI=1S/C20H26N2O2/c1-3-10-11-8-14-17-20(12-6-4-5-7-13(12)21(17)2)9-15(16(11)18(20)23)22(14)19(10)24/h4-7,10-11,14-19,23-24H,3,8-9H2,1-2H3
Instrument: Agilent 1200 RRLC; Agilent 6520 QTOF
Instrument type: LC-ESI-QTOF
Ms type: MS2
Ion mode: POSITIVE
Collision energy: 40 ev
Column name: Agilent C8 Cartridge Column 2.1X30mm 3.5 micron (guard); Agilent SB-Aq 2.1x50mm 1.8 micron (analytical)
Retention time: 4.178
Base peak: 158
Precursor m/z: 327.2067
Precursor type: [M+H]+
m/z	relative intensity
106.0655	56
107.0743	44
108.079	93
108.084	57
109.0618	57
110.0606	110
110.0937	137
110.0989	76
111.0789	56
115.056	47
116.057	31
117.0604	62
118.0628	89
119.0881	35
120.078	49
124.0716	28
129.0668	42
130.0619	101
131.0712	132
132.0809	108
134.0956	68
136.0675	32
136.0756	49
136.1138	33
138.0927	79
141.0701	33
143.0728	140
144.0797	931
144.116	33
145.0846	92
145.0977	29
146.0946	103
157.0863	216
158.0954	999
158.1283	50
159.0956	44
160.076	37
167.0693	139
167.075	37
168.0784	179
169.0889	143
169.1017	32
170.0949	155
170.1096	37
171.0991	57
172.073	67
172.1096	104
174.0888	87
180.0796	32
181.0863	144
182.0956	364
183.0965	87
183.1071	29
184.1111	233
186.0864	44
193.0852	44
194.0954	383
195.1052	146
195.1194	44
196.0737	31
196.1131	118
197.0754	56
197.1018	33
205.0953	42
207.1007	32
208.108	123
209.1172	75
210.1267	275
211.0933	33
211.1042	37
211.1219	32
212.1076	103
219.1091	31
220.1111	85
221.1134	35
222.1207	56
222.133	46
223.1231	33
224.1347	31
225.1479	29
226.1176	42
233.1174	51
235.124	69
237.1365	54
238.1473	29
239.1516	168
255.1506	36
262.1531	43
263.1514	37
264.1293	36
292.1652	28
327.2027	286
