Mass spectrum: 4'-hydroxyflavanone; LC-ESI-QTOF; MS2; CE 40 ev; [M-H]-
Name: 4'-hydroxyflavanone
Formula: C15H12O3
Exact mass: 240.078644
SMILES: C1C(OC2=CC=CC=C2C1=O)C3=CC=C(C=C3)O
InChI: InChI=1S/C15H12O3/c16-11-7-5-10(6-8-11)15-9-13(17)12-3-1-2-4-14(12)18-15/h1-8,15-16H,9H2
Instrument: Agilent 1200 RRLC; Agilent 6520 QTOF
Instrument type: LC-ESI-QTOF
Ms type: MS2
Ion mode: NEGATIVE
Collision energy: 40 ev
Column name: Agilent C8 Cartridge Column 2.1X30mm 3.5 micron (guard); Agilent SB-Aq 2.1x50mm 1.8 micron (analytical)
Retention time: 7.143
Base peak: 119
Precursor m/z: 239.0713
Precursor type: [M-H]-
m/z	relative intensity
103.0197	1
104.0274	4
108.6904	2
117.0338	12
119.0494	999
119.0826	28
119.1005	13
119.124	4
119.1512	16
119.187	3
119.2249	3
119.2319	1
119.2553	1
119.2744	3
119.2946	1
119.3167	3
119.357	1
119.3716	2
119.417	2
119.4544	2
119.4687	2
119.4906	1
119.5208	3
119.5739	1
119.5811	1
119.6133	2
119.6271	1
119.6486	1
119.6738	1
119.6907	1
119.7144	1
119.7422	1
119.7597	1
119.7824	1
119.8032	1
119.8243	1
119.8352	1
119.8805	1
119.9066	1
119.9439	1
119.9605	1
119.9828	1
120.0149	1
120.0442	1
120.0744	1
120.0973	1
120.3472	1
120.651	1
120.9453	1
128.695	1
166.0862	1
167.0828	1
227.5694	1
