Mass spectrum: Usnic acid; LC-ESI-QTOF; MS2; CE 10 ev; [M-H]-
Name: Usnic acid
Formula: C18H16O7
Exact mass: 344.089603
SMILES: CC1=C(C(=C2C(=C1O)C3(C(=CC(=O)C(C3=O)C(=O)C)O2)C)C(=O)C)O
InChI: InChI=1S/C18H16O7/c1-6-14(22)12(8(3)20)16-13(15(6)23)18(4)10(25-16)5-9(21)11(7(2)19)17(18)24/h5,11,22-23H,1-4H3
Instrument: Agilent 1200 RRLC; Agilent 6520 QTOF
Instrument type: LC-ESI-QTOF
Ms type: MS2
Ion mode: NEGATIVE
Collision energy: 10 ev
Column name: Agilent C8 Cartridge Column 2.1X30mm 3.5 micron (guard); Agilent SB-Aq 2.1x50mm 1.8 micron (analytical)
Retention time: 10.751
Base peak: 343
Precursor m/z: 343.0823
Precursor type: [M-H]-
m/z	relative intensity
144.9712	5
231.0684	11
259.0604	58
299.0909	36
301.0717	19
313.0308	7
327.181	6
328.0582	144
328.1209	7
343.0811	999
