Mass spectrum: Sissotrine; LC-ESI-QTOF; MS2; CE 40 ev; [M+H]+
Name: Sissotrine
Formula: C22H22O10
Exact mass: 446.121297
SMILES: COC1=CC=C(C=C1)C2=COC3=CC(=CC(=C3C2=O)O)OC4C(C(C(C(O4)CO)O)O)O
InChI: InChI=1S/C22H22O10/c1-29-11-4-2-10(3-5-11)13-9-30-15-7-12(6-14(24)17(15)18(13)25)31-22-21(28)20(27)19(26)16(8-23)32-22/h2-7,9,16,19-24,26-28H,8H2,1H3
Instrument: Agilent 1200 RRLC; Agilent 6520 QTOF
Instrument type: LC-ESI-QTOF
Ms type: MS2
Ion mode: POSITIVE
Collision energy: 40 ev
Column name: Agilent C8 Cartridge Column 2.1X30mm 3.5 micron (guard); Agilent SB-Aq 2.1x50mm 1.8 micron (analytical)
Retention time: 6.683
Base peak: 285
Precursor m/z: 447.1286
Precursor type: [M+H]+
m/z	relative intensity
123.04	68
149.0274	39
152.0088	143
153.0204	37
229.084	169
242.0424	49
242.0587	59
253.0511	54
257.0809	47
269.0387	47
270.0504	89
285.0741	999
285.121	86
