Mass spectrum: 7,3'-Dihydroxyflavone; LC-ESI-QTOF; MS2; CE 20 ev; [M+H]+
Name: 7,3'-Dihydroxyflavone
Formula: C15H10O4
Exact mass: 254.057909
SMILES: C1=CC(=CC(=C1)O)C2=CC(=O)C3=C(O2)C=C(C=C3)O
InChI: InChI=1S/C15H10O4/c16-10-3-1-2-9(6-10)14-8-13(18)12-5-4-11(17)7-15(12)19-14/h1-8,16-17H
Instrument: Agilent 1200 RRLC; Agilent 6520 QTOF
Instrument type: LC-ESI-QTOF
Ms type: MS2
Ion mode: POSITIVE
Collision energy: 20 ev
Column name: Agilent C8 Cartridge Column 2.1X30mm 3.5 micron (guard); Agilent SB-Aq 2.1x50mm 1.8 micron (analytical)
Retention time: 7.372
Base peak: 255
Precursor m/z: 255.0652
Precursor type: [M+H]+
m/z	relative intensity
119.0492	15
121.0266	9
137.0208	100
141.0709	7
145.025	56
159.0363	8
159.0837	10
176.9896	30
181.0641	22
187.085	7
199.0759	8
227.0696	21
255.0645	999
