Mass spectrum: 4'-Methoxyflavonol; LC-ESI-QTOF; MS2; CE 10 ev; [M+H]+
Name: 4'-Methoxyflavonol
Formula: C16H12O4
Exact mass: 268.073559
SMILES: COC1=CC=C(C=C1)C2=C(C(=O)C3=CC=CC=C3O2)O
InChI: InChI=1S/C16H12O4/c1-19-11-8-6-10(7-9-11)16-15(18)14(17)12-4-2-3-5-13(12)20-16/h2-9,18H,1H3
Instrument: Agilent 1200 RRLC; Agilent 6520 QTOF
Instrument type: LC-ESI-QTOF
Ms type: MS2
Ion mode: POSITIVE
Collision energy: 10 ev
Column name: Agilent C8 Cartridge Column 2.1X30mm 3.5 micron (guard); Agilent SB-Aq 2.1x50mm 1.8 micron (analytical)
Retention time: 9.158
Base peak: 269
Precursor m/z: 269.0809
Precursor type: [M+H]+
m/z	relative intensity
104.9907	288
176.9843	56
186.9913	32
269.0787	999
