Mass spectrum: Himbacine; LC-ESI-QTOF; MS; POSITIVE
Name: Himbacine
Name: (3S,3aR,4R,4aS,8aR,9aS)-4-[(1E)-2-[(2R,6S)-1,6-dimethyl-2-piperdinyl]ethenyl]decahydro-3-methyl-naphtho[2,3-c]furan-1(3H)-one
Formula: C22H35NO2
Exact mass: 345.266779
SMILES: CC1CCCC(N1C)C=CC2C3CCCCC3CC4C2C(OC4=O)C
InChI: InChI=1S/C22H35NO2/c1-14-7-6-9-17(23(14)3)11-12-19-18-10-5-4-8-16(18)13-20-21(19)15(2)25-22(20)24/h11-12,14-21H,4-10,13H2,1-3H3
Instrument: Agilent 1200 RRLC; Agilent 6520 QTOF
Instrument type: LC-ESI-QTOF
Ms type: MS
Ion mode: POSITIVE
Column name: Agilent C8 Cartridge Column 2.1X30mm 3.5 micron (guard); Agilent SB-Aq 2.1x50mm 1.8 micron (analytical)
Retention time: 5.943
m/z	relative intensity
346.2740765	999
368.256018	37
