Mass spectrum: Eserine; LC-APCI-QTOF; MS; POSITIVE
Name: Eserine
Formula: C15H21N3O2
Exact mass: 275.163377
SMILES: CC12CCN(C1N(C3=C2C=C(C=C3)OC(=O)NC)C)C
InChI: InChI=1S/C15H21N3O2/c1-15-7-8-17(3)13(15)18(4)12-6-5-10(9-11(12)15)20-14(19)16-2/h5-6,9,13H,7-8H2,1-4H3,(H,16,19)
Instrument: Agilent 1200 RRLC; Agilent 6520 QTOF
Instrument type: LC-APCI-QTOF
Ms type: MS
Ion mode: POSITIVE
Column name: Agilent C8 Cartridge Column 2.1X30mm 3.5 micron (guard); Agilent SB-Aq 2.1x50mm 1.8 micron (analytical)
Retention time: 3.268
m/z	relative intensity
276.1706765	999
