Mass spectrum: N-acetylcytisine; LC-ESI-QTOF; MS2; CE 40 ev; [M+H]+
Name: N-acetylcytisine
Name: 11-acetyl-6-oxo-7,11-diazatricyclo[7.3.1.0<2,7>]trideca-2,4-diene
Formula: C13H16N2O2
Exact mass: 232.121178
SMILES: CC(=O)N1CC2CC(C1)C3=CC=CC(=O)N3C2
InChI: InChI=1S/C13H16N2O2/c1-9(16)14-6-10-5-11(8-14)12-3-2-4-13(17)15(12)7-10/h2-4,10-11H,5-8H2,1H3
Instrument: Agilent 1200 RRLC; Agilent 6520 QTOF
Instrument type: LC-ESI-QTOF
Ms type: MS2
Ion mode: POSITIVE
Collision energy: 40 ev
Column name: Agilent C8 Cartridge Column 2.1X30mm 3.5 micron (guard); Agilent SB-Aq 2.1x50mm 1.8 micron (analytical)
Retention time: 3.273
Base peak: 148
Precursor m/z: 233.1285
Precursor type: [M+H]+
m/z	relative intensity
103.0544	132
104.0503	38
105.0728	67
106.071	22
115.0541	199
116.0553	35
117.058	182
117.0891	19
120.0786	172
120.0998	16
122.0621	59
122.0868	30
130.0672	60
130.0966	16
131.0497	34
131.0634	80
132.0415	38
132.0796	207
133.0543	60
133.4502	17
134.0548	23
134.0958	27
134.1097	17
140.0433	39
142.064	129
142.0779	19
143.072	32
145.0441	37
145.0578	35
146.0594	174
146.1066	37
147.0569	22
148.0728	999
148.1084	49
148.1281	31
148.1868	16
149.0889	22
160.0768	122
160.0978	17
162.0904	171
231.6781	16
