Mass spectrum: Abrine; LC-ESI-QTOF; MS2; CE 10 ev; [M+H]+
Name: Abrine
Formula: C12H14N2O2
Exact mass: 218.105528
SMILES: CNC(CC1=CNC2=CC=CC=C21)C(=O)O
InChI: InChI=1S/C12H14N2O2/c1-13-11(12(15)16)6-8-7-14-10-5-3-2-4-9(8)10/h2-5,7,11,13-14H,6H2,1H3,(H,15,16)
Instrument: Agilent 1200 RRLC; Agilent 6520 QTOF
Instrument type: LC-ESI-QTOF
Ms type: MS2
Ion mode: POSITIVE
Collision energy: 10 ev
Column name: Agilent C8 Cartridge Column 2.1X30mm 3.5 micron (guard); Agilent SB-Aq 2.1x50mm 1.8 micron (analytical)
Retention time: 1.548
Base peak: 188
Precursor m/z: 219.1128
Precursor type: [M+H]+
m/z	relative intensity
115.0517	14
117.0547	19
118.0633	67
132.08	749
132.1129	28
132.1299	15
144.0796	112
146.0589	499
146.0898	14
170.0573	39
173.1064	33
188.069	999
188.0947	24
188.1061	38
188.1317	14
188.193	13
219.1106	46
