Mass spectrum: Tocopherol acid succinate; LC-APCI-QTOF; MS; POSITIVE
Name: Tocopherol acid succinate
Formula: C33H54O5
Exact mass: 530.397125
SMILES: CC1=C2C(=C(C(=C1C)OC(=O)CCC(=O)O)C)CCC(O2)(C)CCCC(C)CCCC(C)CCCC(C)C
InChI: InChI=1S/C33H54O5/c1-22(2)12-9-13-23(3)14-10-15-24(4)16-11-20-33(8)21-19-28-27(7)31(25(5)26(6)32(28)38-33)37-30(36)18-17-29(34)35/h22-24H,9-21H2,1-8H3,(H,34,35)
Instrument: Agilent 1200 RRLC; Agilent 6520 QTOF
Instrument type: LC-APCI-QTOF
Ms type: MS
Ion mode: POSITIVE
Column name: Agilent C8 Cartridge Column 2.1X30mm 3.5 micron (guard); Agilent SB-Aq 2.1x50mm 1.8 micron (analytical)
Retention time: 13.398
m/z	relative intensity
531.4043765	999
