Mass spectrum: 3,7,4'-Trihydroxyflavone; LC-ESI-QTOF; MS; POSITIVE
Name: 3,7,4'-Trihydroxyflavone
Formula: C15H10O5
Exact mass: 270.052823
SMILES: C1=CC(=CC=C1C2=C(C(=O)C3=C(O2)C=C(C=C3)O)O)O
InChI: InChI=1S/C15H10O5/c16-9-3-1-8(2-4-9)15-14(19)13(18)11-6-5-10(17)7-12(11)20-15/h1-7,16-17,19H
Instrument: Agilent 1200 RRLC; Agilent 6520 QTOF
Instrument type: LC-ESI-QTOF
Ms type: MS
Ion mode: POSITIVE
Column name: Agilent C8 Cartridge Column 2.1X30mm 3.5 micron (guard); Agilent SB-Aq 2.1x50mm 1.8 micron (analytical)
Retention time: 6.979
m/z	relative intensity
271.0600765	999
293.042018	436
