Mass spectrum: Vanillin; LC-APCI-QTOF; MS; POSITIVE
Name: Vanillin
Formula: C8H8O3
Exact mass: 152.047344
SMILES: COC1=C(C=CC(=C1)C=O)O
InChI: InChI=1S/C8H8O3/c1-11-8-4-6(5-9)2-3-7(8)10/h2-5,10H,1H3
Instrument: Agilent 1200 RRLC; Agilent 6520 QTOF
Instrument type: LC-APCI-QTOF
Ms type: MS
Ion mode: POSITIVE
Column name: Agilent C8 Cartridge Column 2.1X30mm 3.5 micron (guard); Agilent SB-Aq 2.1x50mm 1.8 micron (analytical)
Retention time: 3.709
m/z	relative intensity
153.0545765	999
