Mass spectrum: 6-Chloropurine riboside; LC-ESI-QTOF; MS; POSITIVE
Name: 6-Chloropurine riboside
Formula: C10H11ClN4O4
Exact mass: 286.046883
SMILES: C1=NC2=C(C(=N1)Cl)N=CN2C3C(C(C(O3)CO)O)O
InChI: InChI=1S/C10H11ClN4O4/c11-8-5-9(13-2-12-8)15(3-14-5)10-7(18)6(17)4(1-16)19-10/h2-4,6-7,10,16-18H,1H2
Instrument: Agilent 1200 RRLC; Agilent 6520 QTOF
Instrument type: LC-ESI-QTOF
Ms type: MS
Ion mode: POSITIVE
Column name: Agilent C8 Cartridge Column 2.1X30mm 3.5 micron (guard); Agilent SB-Aq 2.1x50mm 1.8 micron (analytical)
Retention time: 2.522
m/z	relative intensity
287.0541765	999
309.036118	46
