Mass spectrum: Bucharaine; LC-ESI-QTOF; MS2; CE 10 ev; [M-H]-
Name: Bucharaine
Formula: C19H25NO4
Exact mass: 331.178358
SMILES: C/C(=C\COC1=CC(=O)NC2=CC=CC=C21)/CCC(C(C)(C)O)O
InChI: InChI=1S/C19H25NO4/c1-13(8-9-17(21)19(2,3)23)10-11-24-16-12-18(22)20-15-7-5-4-6-14(15)16/h4-7,10,12,17,21,23H,8-9,11H2,1-3H3,(H,20,22)/b13-10+
Instrument: Agilent 1200 RRLC; Agilent 6520 QTOF
Instrument type: LC-ESI-QTOF
Ms type: MS2
Ion mode: NEGATIVE
Collision energy: 10 ev
Column name: Agilent C8 Cartridge Column 2.1X30mm 3.5 micron (guard); Agilent SB-Aq 2.1x50mm 1.8 micron (analytical)
Retention time: 8.276
Base peak: 160
Precursor m/z: 330.1711
Precursor type: [M-H]-
m/z	relative intensity
101.955	13
151.9383	12
160.0392	999
160.0806	36
160.1567	17
213.0806	16
226.3709	11
330.1698	494
