Mass spectrum: 3,4-Dihydroxy-L-phenylalanine; LC-ESI-QTOF; MS2; CE 40 ev; [M+H]+
Name: 3,4-Dihydroxy-L-phenylalanine
Formula: C9H11NO4
Exact mass: 197.068808
SMILES: C1=CC(=C(C=C1CC(C(=O)O)N)O)O
InChI: InChI=1S/C9H11NO4/c10-6(9(13)14)3-5-1-2-7(11)8(12)4-5/h1-2,4,6,11-12H,3,10H2,(H,13,14)
Instrument: Agilent 1200 RRLC; Agilent 6520 QTOF
Instrument type: LC-ESI-QTOF
Ms type: MS2
Ion mode: POSITIVE
Collision energy: 40 ev
Column name: Agilent C8 Cartridge Column 2.1X30mm 3.5 micron (guard); Agilent SB-Aq 2.1x50mm 1.8 micron (analytical)
Retention time: 0.385
Base peak: 107
Precursor m/z: 198.0761
Precursor type: [M+H]+
m/z	relative intensity
104.0519	10
105.0359	34
105.0588	19
106.0669	240
106.0997	10
107.051	999
107.0764	15
107.0829	14
107.0918	9
107.1048	5
107.1226	8
107.1474	14
107.6021	4
108.0607	6
109.0292	61
110.0364	25
111.0398	7
111.0471	23
116.0525	36
117.0292	5
117.0356	31
117.0581	5
117.0648	5
120.0443	7
123.0454	113
133.0508	18
134.0607	136
135.0468	50
135.0692	10
136.0552	7
152.0716	4
