Mass spectrum: Cotinine; LC-ESI-QTOF; MS2; CE 20 ev; [M+H]+
Name: Cotinine
Formula: C10H12N2O
Exact mass: 176.094963
SMILES: CN1C(CCC1=O)C2=CN=CC=C2
InChI: InChI=1S/C10H12N2O/c1-12-9(4-5-10(12)13)8-3-2-6-11-7-8/h2-3,6-7,9H,4-5H2,1H3
Instrument: Agilent 1200 RRLC; Agilent 6520 QTOF
Instrument type: LC-ESI-QTOF
Ms type: MS2
Ion mode: POSITIVE
Collision energy: 20 ev
Column name: Agilent C8 Cartridge Column 2.1X30mm 3.5 micron (guard); Agilent SB-Aq 2.1x50mm 1.8 micron (analytical)
Retention time: 1.977
Base peak: 177
Precursor m/z: 177.1023
Precursor type: [M+H]+
m/z	relative intensity
106.0633	30
116.9485	19
118.0646	212
119.0484	25
120.0794	129
146.0593	279
149.0761	23
177.101	999
