Mass spectrum: N-acetylcytisine; LC-ESI-QTOF; MS2; CE 10 ev; [M+H]+
Name: N-acetylcytisine
Name: 11-acetyl-6-oxo-7,11-diazatricyclo[7.3.1.0<2,7>]trideca-2,4-diene
Formula: C13H16N2O2
Exact mass: 232.121178
SMILES: CC(=O)N1CC2CC(C1)C3=CC=CC(=O)N3C2
InChI: InChI=1S/C13H16N2O2/c1-9(16)14-6-10-5-11(8-14)12-3-2-4-13(17)15(12)7-10/h2-4,10-11H,5-8H2,1H3
Instrument: Agilent 1200 RRLC; Agilent 6520 QTOF
Instrument type: LC-ESI-QTOF
Ms type: MS2
Ion mode: POSITIVE
Collision energy: 10 ev
Column name: Agilent C8 Cartridge Column 2.1X30mm 3.5 micron (guard); Agilent SB-Aq 2.1x50mm 1.8 micron (analytical)
Retention time: 3.273
Base peak: 233
Precursor m/z: 233.1285
Precursor type: [M+H]+
m/z	relative intensity
148.0738	24
160.0726	28
191.1166	73
233.1266	999
