Mass spectrum: Xylure; LC-ESI-QTOF; MS; POSITIVE
Name: Xylure
Formula: C12H20N2O5Si
Exact mass: 300.114148
SMILES: C[Si](C)(C)C1=CN(C(=O)NC1=O)C2CC(C(O2)CO)O
InChI: InChI=1S/C12H20N2O5Si/c1-20(2,3)9-5-14(12(18)13-11(9)17)10-4-7(16)8(6-15)19-10/h5,7-8,10,15-16H,4,6H2,1-3H3,(H,13,17,18)
Instrument: Agilent 1200 RRLC; Agilent 6520 QTOF
Instrument type: LC-ESI-QTOF
Ms type: MS
Ion mode: POSITIVE
Column name: Agilent C8 Cartridge Column 2.1X30mm 3.5 micron (guard); Agilent SB-Aq 2.1x50mm 1.8 micron (analytical)
Retention time: 5.243
m/z	relative intensity
301.1213765	874
323.103318	999
