Mass spectrum: 3-(2-Naphthyl)-D-alanine; LC-ESI-QTOF; MS2; CE 20 ev; [M+H]+
Name: 3-(2-Naphthyl)-D-alanine
Formula: C13H13NO2
Exact mass: 215.094629
SMILES: C1=CC=C2C=C(C=CC2=C1)CC(C(=O)O)N
InChI: InChI=1S/C13H13NO2/c14-12(13(15)16)8-9-5-6-10-3-1-2-4-11(10)7-9/h1-7,12H,8,14H2,(H,15,16)
Instrument: Agilent 1200 RRLC; Agilent 6520 QTOF
Instrument type: LC-ESI-QTOF
Ms type: MS2
Ion mode: POSITIVE
Collision energy: 20 ev
Column name: Agilent C8 Cartridge Column 2.1X30mm 3.5 micron (guard); Agilent SB-Aq 2.1x50mm 1.8 micron (analytical)
Retention time: 3.475
Base peak: 153
Precursor m/z: 216.1019
Precursor type: [M+H]+
m/z	relative intensity
115.0538	6
127.055	16
128.0615	55
129.0697	362
129.0985	9
129.1177	6
129.1747	4
137.9467	3
141.0717	13
143.0848	146
151.0548	7
152.0624	40
153.0697	999
153.0952	10
153.1044	15
153.1156	8
153.1268	13
153.1518	5
153.1842	14
153.227	3
153.3954	4
153.4853	3
154.0701	5
155.0853	15
157.0645	136
157.1043	5
168.0794	5
169.0869	4
170.0959	458
170.1329	13
170.1641	3
170.2167	4
181.0643	38
199.0735	4
