Mass spectrum: DL-Thioctic acid; LC-ESI-QTOF; MS2; CE 20 ev; [M-H]-
Name: DL-Thioctic acid
Formula: C8H14O2S2
Exact mass: 206.043522
SMILES: C1CSSC1CCCCC(=O)O
InChI: InChI=1S/C8H14O2S2/c9-8(10)4-2-1-3-7-5-6-11-12-7/h7H,1-6H2,(H,9,10)
Instrument: Agilent 1200 RRLC; Agilent 6520 QTOF
Instrument type: LC-ESI-QTOF
Ms type: MS2
Ion mode: NEGATIVE
Collision energy: 20 ev
Column name: Agilent C8 Cartridge Column 2.1X30mm 3.5 micron (guard); Agilent SB-Aq 2.1x50mm 1.8 micron (analytical)
Retention time: 6.545
Base peak: 127
Precursor m/z: 205.0362
Precursor type: [M-H]-
m/z	relative intensity
111.0282	21
111.0469	20
115.0584	76
127.0585	999
127.0895	46
137.0599	36
139.0759	75
159.0481	71
171.0489	287
195.2955	33
