Mass spectrum: 5'-Deoxythymidine; LC-APCI-QTOF; MS; NEGATIVE
Name: 5'-Deoxythymidine
Formula: C10H14N2O4
Exact mass: 226.095357
SMILES: C[C@@H]1[C@H](C[C@@H](O1)N2C=C(C(=O)NC2=O)C)O
InChI: InChI=1S/C10H14N2O4/c1-5-4-12(10(15)11-9(5)14)8-3-7(13)6(2)16-8/h4,6-8,13H,3H2,1-2H3,(H,11,14,15)/t6-,7+,8-/m1/s1
Instrument: Agilent 1200 RRLC; Agilent 6520 QTOF
Instrument type: LC-APCI-QTOF
Ms type: MS
Ion mode: NEGATIVE
Column name: Agilent C8 Cartridge Column 2.1X30mm 3.5 micron (guard); Agilent SB-Aq 2.1x50mm 1.8 micron (analytical)
Retention time: 2.948
m/z	relative intensity
225.0881235	999
