Mass spectrum: Beta-Peltatin; LC-APCI-QTOF; MS; POSITIVE
Name: Beta-Peltatin
Formula: C22H22O8
Exact mass: 414.131468
SMILES: COC1=CC(=CC(=C1OC)OC)[C@H]2[C@@H]3[C@@H](CC4=C(C5=C(C=C24)OCO5)O)COC3=O
InChI: InChI=1S/C22H22O8/c1-25-14-5-10(6-15(26-2)20(14)27-3)17-12-7-16-21(30-9-29-16)19(23)13(12)4-11-8-28-22(24)18(11)17/h5-7,11,17-18,23H,4,8-9H2,1-3H3/t11-,17+,18-/m0/s1
Instrument: Agilent 1200 RRLC; Agilent 6520 QTOF
Instrument type: LC-APCI-QTOF
Ms type: MS
Ion mode: POSITIVE
Column name: Agilent C8 Cartridge Column 2.1X30mm 3.5 micron (guard); Agilent SB-Aq 2.1x50mm 1.8 micron (analytical)
Retention time: 7.477
m/z	relative intensity
415.138744	999
