Mass spectrum: Cycloheximide; LC-ESI-QTOF; MS2; CE 40 ev; [M+H]+
Name: Cycloheximide
Formula: C15H23NO4
Exact mass: 281.162708
SMILES: C[C@H]1C[C@@H](C(=O)[C@@H](C1)[C@@H](CC2CC(=O)NC(=O)C2)O)C
InChI: InChI=1S/C15H23NO4/c1-8-3-9(2)15(20)11(4-8)12(17)5-10-6-13(18)16-14(19)7-10/h8-12,17H,3-7H2,1-2H3,(H,16,18,19)/t8-,9-,11-,12+/m0/s1
Instrument: Agilent 1200 RRLC; Agilent 6520 QTOF
Instrument type: LC-ESI-QTOF
Ms type: MS2
Ion mode: POSITIVE
Collision energy: 40 ev
Column name: Agilent C8 Cartridge Column 2.1X30mm 3.5 micron (guard); Agilent SB-Aq 2.1x50mm 1.8 micron (analytical)
Retention time: 5.689
Base peak: 119
Precursor m/z: 282.1700
Precursor type: [M+H]+
m/z	relative intensity
105.07	821
107.0483	366
107.0839	311
107.0909	333
109.0985	311
115.0507	366
117.0705	844
119.0831	999
121.0212	289
121.0665	278
121.1008	266
123.0455	666
127.0519	433
128.0602	255
129.0678	300
131.0875	666
142.0761	444
143.0808	289
144.0932	444
159.0881	389
159.1148	355
170.1117	222
