Mass spectrum: Luteolin; LC-ESI-QTOF; MS2; CE 10 ev; [M-H]-
Name: Luteolin
Formula: C15H10O6
Exact mass: 286.047738
SMILES: C1=CC(=C(C=C1C2=CC(=O)C3=C(C=C(C=C3O2)O)O)O)O
InChI: InChI=1S/C15H10O6/c16-8-4-11(19)15-12(20)6-13(21-14(15)5-8)7-1-2-9(17)10(18)3-7/h1-6,16-19H
Instrument: Agilent 1200 RRLC; Agilent 6520 QTOF
Instrument type: LC-ESI-QTOF
Ms type: MS2
Ion mode: NEGATIVE
Collision energy: 10 ev
Column name: Agilent C8 Cartridge Column 2.1X30mm 3.5 micron (guard); Agilent SB-Aq 2.1x50mm 1.8 micron (analytical)
Retention time: 7.144
Base peak: 285
Precursor m/z: 285.0404
Precursor type: [M-H]-
m/z	relative intensity
133.0282	14
151.0049	6
256.0361	12
257.0327	5
284.0311	14
284.2706	6
285.04	999
