Mass spectrum: Methylergometrine; LC-ESI-QTOF; MS2; CE 20 ev; [M-H]-
Name: Methylergometrine
Formula: C20H25N3O2
Exact mass: 339.194677
SMILES: CCC(CO)NC(=O)C1CN(C2CC3=CNC4=CC=CC(=C34)C2=C1)C
InChI: InChI=1S/C20H25N3O2/c1-3-14(11-24)22-20(25)13-7-16-15-5-4-6-17-19(15)12(9-21-17)8-18(16)23(2)10-13/h4-7,9,13-14,18,21,24H,3,8,10-11H2,1-2H3,(H,22,25)
Instrument: Agilent 1200 RRLC; Agilent 6520 QTOF
Instrument type: LC-ESI-QTOF
Ms type: MS2
Ion mode: NEGATIVE
Collision energy: 20 ev
Column name: Agilent C8 Cartridge Column 2.1X30mm 3.5 micron (guard); Agilent SB-Aq 2.1x50mm 1.8 micron (analytical)
Retention time: 3.314
Base peak: 338
Precursor m/z: 338.1874
Precursor type: [M-H]-
m/z	relative intensity
114.054	22
140.0743	24
142.0894	40
154.0852	42
156.0997	68
156.1098	24
175.2895	23
179.0802	18
180.0757	126
181.0767	110
193.0786	47
193.0877	18
195.0917	202
208.1047	31
219.0929	28
221.1094	39
223.1229	699
223.1336	19
223.1711	23
234.0781	36
235.092	19
249.1042	412
256.2315	34
295.1453	21
297.4068	27
336.1712	29
338.188	999
