Mass spectrum: 4'-Hydroxy-5,7-dimethoxyflavanone; LC-ESI-QTOF; MS2; CE 10 ev; [M-H]-
Name: 4'-Hydroxy-5,7-dimethoxyflavanone
Formula: C17H16O5
Exact mass: 300.099774
SMILES: COC1=CC(=C2C(=O)CC(OC2=C1)C3=CC=C(C=C3)O)OC
InChI: InChI=1S/C17H16O5/c1-20-12-7-15(21-2)17-13(19)9-14(22-16(17)8-12)10-3-5-11(18)6-4-10/h3-8,14,18H,9H2,1-2H3
Instrument: Agilent 1200 RRLC; Agilent 6520 QTOF
Instrument type: LC-ESI-QTOF
Ms type: MS2
Ion mode: NEGATIVE
Collision energy: 10 ev
Column name: Agilent C8 Cartridge Column 2.1X30mm 3.5 micron (guard); Agilent SB-Aq 2.1x50mm 1.8 micron (analytical)
Retention time: 7.515
Base peak: 299
Precursor m/z: 299.0925
Precursor type: [M-H]-
m/z	relative intensity
104.0259	1
117.0343	1
119.0494	772
119.0823	23
119.1279	5
119.151	11
119.19	2
119.2042	1
119.2176	1
119.2501	2
119.2752	1
119.2818	1
119.2965	1
119.3048	1
119.3152	3
119.3317	1
119.3399	1
119.3647	3
119.3841	1
119.4056	1
119.4241	1
119.4444	1
119.4567	1
119.4692	1
119.4786	1
119.5145	1
119.5334	1
119.5617	1
119.576	2
119.6021	1
119.6384	1
119.6943	1
119.7725	1
119.7941	1
119.8368	2
119.8616	1
119.9092	1
119.9206	1
119.9566	1
120.0377	1
120.0545	2
120.0741	1
120.3201	1
121.0245	1
145.027	6
153.0586	1
160.9024	1
183.4204	1
216.681	2
217.001	28
217.0316	2
217.0815	1
218.8872	1
248.7621	1
250.1702	2
255.0989	1
267.0676	3
273.8008	1
284.0677	4
297.3868	1
297.7239	1
298.2572	1
298.4742	1
298.9977	1
299.0919	999
