Mass spectrum: Bergapten; LC-ESI-QTOF; MS2; CE 10 ev; [M+H]+
Name: Bergapten
Formula: C12H8O4
Exact mass: 216.042259
SMILES: COC1=C2C=CC(=O)OC2=CC3=C1C=CO3
InChI: InChI=1S/C12H8O4/c1-14-12-7-2-3-11(13)16-10(7)6-9-8(12)4-5-15-9/h2-6H,1H3
Instrument: Agilent 1200 RRLC; Agilent 6520 QTOF
Instrument type: LC-ESI-QTOF
Ms type: MS2
Ion mode: POSITIVE
Collision energy: 10 ev
Column name: Agilent C8 Cartridge Column 2.1X30mm 3.5 micron (guard); Agilent SB-Aq 2.1x50mm 1.8 micron (analytical)
Retention time: 7.327
Base peak: 217
Precursor m/z: 217.0496
Precursor type: [M+H]+
m/z	relative intensity
115.0523	10
117.067	5
118.0419	13
131.0491	8
173.0585	20
174.0292	37
202.0251	293
202.0732	11
217.0473	999
