Mass spectrum: Digoxigenin; LC-ESI-QTOF; MS2; CE 10 ev; [M+H]+
Name: Digoxigenin
Formula: C23H34O5
Exact mass: 390.240624
SMILES: C[C@]12CC[C@@H](C[C@H]1CC[C@@H]3[C@@H]2C[C@H]([C@]4([C@@]3(CC[C@@H]4C5=CC(=O)OC5)O)C)O)O
InChI: InChI=1S/C23H34O5/c1-21-7-5-15(24)10-14(21)3-4-17-18(21)11-19(25)22(2)16(6-8-23(17,22)27)13-9-20(26)28-12-13/h9,14-19,24-25,27H,3-8,10-12H2,1-2H3/t14-,15+,16-,17-,18+,19-,21+,22+,23+/m1/s1
Instrument: Agilent 1200 RRLC; Agilent 6520 QTOF
Instrument type: LC-ESI-QTOF
Ms type: MS2
Ion mode: POSITIVE
Collision energy: 10 ev
Column name: Agilent C8 Cartridge Column 2.1X30mm 3.5 micron (guard); Agilent SB-Aq 2.1x50mm 1.8 micron (analytical)
Retention time: 6.251
Base peak: 355
Precursor m/z: 391.2479
Precursor type: [M+H]+
m/z	relative intensity
147.118	52
153.0561	110
155.0705	102
161.1332	92
189.1657	46
201.1639	96
209.1219	56
291.2124	50
309.2055	64
309.2194	58
319.2084	42
337.2138	538
355.2229	999
355.2831	82
373.2329	369
