Mass spectrum: Oxitriptan 1; LC-APCI-QTOF; MS; NEGATIVE
Name: Oxitriptan 1
Formula: C11H12N2O3
Exact mass: 220.084792
SMILES: C1=CC2=C(C=C1O)C(=CN2)C[C@@H](C(=O)O)N
InChI: InChI=1S/C11H12N2O3/c12-9(11(15)16)3-6-5-13-10-2-1-7(14)4-8(6)10/h1-2,4-5,9,13-14H,3,12H2,(H,15,16)/t9-/m0/s1
Instrument: Agilent 1200 RRLC; Agilent 6520 QTOF
Instrument type: LC-APCI-QTOF
Ms type: MS
Ion mode: NEGATIVE
Column name: Agilent C8 Cartridge Column 2.1X30mm 3.5 micron (guard); Agilent SB-Aq 2.1x50mm 1.8 micron (analytical)
Retention time: 0.396
m/z	relative intensity
219.0775235	999
