Mass spectrum: haploside D; LC-ESI-QTOF; MS2; CE 10 ev; [M-H]-
Name: haploside D
Formula: C30H34O18
Exact mass: 682.174514
SMILES: CC1C(C(C(C(O1)OC2C(C(C(OC2OC3=C(C4=C(C(=C3)O)C(=O)C(=C(O4)C5=CC(=C(C=C5)O)OC)O)O)COC(=O)C)O)O)O)O)O
InChI: InChI=1S/C30H34O18/c1-9-18(34)22(38)25(41)29(44-9)48-28-23(39)19(35)16(8-43-10(2)31)46-30(28)45-15-7-13(33)17-21(37)24(40)26(47-27(17)20(15)36)11-4-5-12(32)14(6-11)42-3/h4-7,9,16,18-19,22-23,25,28-30,32-36,38-41H,8H2,1-3H3
Instrument: Agilent 1200 RRLC; Agilent 6520 QTOF
Instrument type: LC-ESI-QTOF
Ms type: MS2
Ion mode: NEGATIVE
Collision energy: 10 ev
Column name: Agilent C8 Cartridge Column 2.1X30mm 3.5 micron (guard); Agilent SB-Aq 2.1x50mm 1.8 micron (analytical)
Retention time: 7.186
Base peak: 681
Precursor m/z: 681.1672
Precursor type: [M-H]-
m/z	relative intensity
108.4581	3
109.7833	3
112.9233	3
158.5075	3
179.1154	6
269.0338	3
301.0274	3
329.0116	8
330.0333	11
331.0475	28
397.9436	7
416.7434	3
432.9221	4
448.3112	4
460.3135	5
484.3023	5
511.6535	3
517.1119	17
577.8486	3
600.6529	3
617.7024	3
620.9273	4
621.1317	12
621.1679	11
621.9183	3
639.1869	3
680.1466	15
681.1653	999
