Mass spectrum: 3-Hydroxy-3',4'-Dimethoxyflavone; LC-ESI-QTOF; MS2; CE 40 ev; [M-H]-
Name: 3-Hydroxy-3',4'-Dimethoxyflavone
Formula: C17H14O5
Exact mass: 298.084124
SMILES: COC1=C(C=C(C=C1)C2=C(C(=O)C3=CC=CC=C3O2)O)OC
InChI: InChI=1S/C17H14O5/c1-20-13-8-7-10(9-14(13)21-2)17-16(19)15(18)11-5-3-4-6-12(11)22-17/h3-9,19H,1-2H3
Instrument: Agilent 1200 RRLC; Agilent 6520 QTOF
Instrument type: LC-ESI-QTOF
Ms type: MS2
Ion mode: NEGATIVE
Collision energy: 40 ev
Column name: Agilent C8 Cartridge Column 2.1X30mm 3.5 micron (guard); Agilent SB-Aq 2.1x50mm 1.8 micron (analytical)
Retention time: 8.963
Base peak: 167
Precursor m/z: 297.0768
Precursor type: [M-H]-
m/z	relative intensity
101.0329	41
103.0179	45
103.0249	63
109.7309	34
119.0143	146
133.0338	41
147.0036	68
151.0534	80
155.047	120
167.047	999
167.0795	122
183.0461	218
195.0425	530
195.0552	34
210.0299	50
211.0379	481
223.0376	195
239.0342	205
267.0297	114
275.5469	32
