Mass spectrum: 3,4,2',4',6'-Pentamethoxychalcone; LC-ESI-QTOF; MS2; CE 40 ev; [M+H]+
Name: 3,4,2',4',6'-Pentamethoxychalcone
Formula: C20H22O6
Exact mass: 358.141638
SMILES: COC1=C(C=C(C=C1)/C=C/C(=O)C2=C(C=C(C=C2OC)OC)OC)OC
InChI: InChI=1S/C20H22O6/c1-22-14-11-18(25-4)20(19(12-14)26-5)15(21)8-6-13-7-9-16(23-2)17(10-13)24-3/h6-12H,1-5H3/b8-6+
Instrument: Agilent 1200 RRLC; Agilent 6520 QTOF
Instrument type: LC-ESI-QTOF
Ms type: MS2
Ion mode: POSITIVE
Collision energy: 40 ev
Column name: Agilent C8 Cartridge Column 2.1X30mm 3.5 micron (guard); Agilent SB-Aq 2.1x50mm 1.8 micron (analytical)
Retention time: 8.601
Base peak: 195
Precursor m/z: 359.1489
Precursor type: [M+H]+
m/z	relative intensity
103.0504	25
105.0294	29
105.0708	31
107.012	20
107.048	106
109.0736	17
111.0447	17
113.0562	23
118.0395	20
119.0484	60
120.0586	29
122.0344	40
132.0553	61
133.0287	35
133.0653	25
135.0419	56
135.0824	19
137.0217	318
137.0559	69
139.073	17
147.0457	33
148.0465	26
148.052	49
150.0286	31
151.0373	96
151.075	37
152.0465	489
152.0669	22
160.0521	59
163.0382	19
163.0749	192
165.054	53
180.0408	576
191.0716	130
195.0641	999
195.0939	24
195.126	22
