Mass spectrum: 7-methoxy-4-methylcoumarin; LC-ESI-QTOF; MS2; CE 20 ev; [M+H]+
Name: 7-methoxy-4-methylcoumarin
Formula: C11H10O3
Exact mass: 190.062994
SMILES: CC1=CC(=O)OC2=C1C=CC(=C2)OC
InChI: InChI=1S/C11H10O3/c1-7-5-11(12)14-10-6-8(13-2)3-4-9(7)10/h3-6H,1-2H3
Instrument: Agilent 1200 RRLC; Agilent 6520 QTOF
Instrument type: LC-ESI-QTOF
Ms type: MS2
Ion mode: POSITIVE
Collision energy: 20 ev
Column name: Agilent C8 Cartridge Column 2.1X30mm 3.5 micron (guard); Agilent SB-Aq 2.1x50mm 1.8 micron (analytical)
Retention time: 6.772
Base peak: 191
Precursor m/z: 191.0703
Precursor type: [M+H]+
m/z	relative intensity
103.0537	284
104.0622	77
105.0696	522
105.0989	24
107.0487	223
115.0536	353
116.0611	90
117.0694	130
120.0571	79
121.0639	36
123.0434	21
127.0523	24
128.0608	37
131.0482	153
132.0574	234
135.0802	681
135.1189	15
147.0451	35
147.079	115
148.0512	238
163.0737	54
176.046	170
191.0694	999
