Mass spectrum: N-{[3,4-dihydroxy-5-(hydroxymethyl)oxolan-2-yl]amino}(3-methoxyphenyl)carboxamide; LC-ESI-QTOF; MS; POSITIVE
Name: N-{[3,4-dihydroxy-5-(hydroxymethyl)oxolan-2-yl]amino}(3-methoxyphenyl)carboxamide
Formula: C13H18N2O6
Exact mass: 298.116486
SMILES: COC1=CC=CC(=C1)C(=O)NNC2C(C(C(O2)CO)O)O
InChI: InChI=1S/C13H18N2O6/c1-20-8-4-2-3-7(5-8)12(19)14-15-13-11(18)10(17)9(6-16)21-13/h2-5,9-11,13,15-18H,6H2,1H3,(H,14,19)
Instrument: Agilent 1200 RRLC; Agilent 6520 QTOF
Instrument type: LC-ESI-QTOF
Ms type: MS
Ion mode: POSITIVE
Column name: Agilent C8 Cartridge Column 2.1X30mm 3.5 micron (guard); Agilent SB-Aq 2.1x50mm 1.8 micron (analytical)
Retention time: 2.888
m/z	relative intensity
299.1237765	999
321.105718	638
