Mass spectrum: Biotin; LC-ESI-QTOF; MS2; CE 20 ev; [M+H]+
Name: Biotin
Formula: C10H16N2O3S
Exact mass: 244.088163
SMILES: C1C2C(C(S1)CCCCC(=O)O)NC(=O)N2
InChI: InChI=1S/C10H16N2O3S/c13-8(14)4-2-1-3-7-9-6(5-16-7)11-10(15)12-9/h6-7,9H,1-5H2,(H,13,14)(H2,11,12,15)
Instrument: Agilent 1200 RRLC; Agilent 6520 QTOF
Instrument type: LC-ESI-QTOF
Ms type: MS2
Ion mode: POSITIVE
Collision energy: 20 ev
Column name: Agilent C8 Cartridge Column 2.1X30mm 3.5 micron (guard); Agilent SB-Aq 2.1x50mm 1.8 micron (analytical)
Retention time: 3.467
Base peak: 227
Precursor m/z: 245.0955
Precursor type: [M+H]+
m/z	relative intensity
100.022	47
100.0761	40
123.0173	137
123.0307	73
130.0655	32
143.0236	37
147.0265	40
165.1	37
166.0714	104
167.0469	40
167.06	38
185.0689	32
199.091	114
209.0769	73
227.0844	999
227.1158	41
