Mass spectrum: 3(2'-Chlorophenyl)-7-hydroxy-4-phenylcoumarin; LC-ESI-QTOF; MS2; CE 40 ev; [M+H]+
Name: 3(2'-Chlorophenyl)-7-hydroxy-4-phenylcoumarin
Formula: C21H13ClO3
Exact mass: 348.055322
SMILES: C1=CC=C(C=C1)C2=C(C(=O)OC3=C2C=CC(=C3)O)C4=CC=CC=C4Cl
InChI: InChI=1S/C21H13ClO3/c22-17-9-5-4-8-15(17)20-19(13-6-2-1-3-7-13)16-11-10-14(23)12-18(16)25-21(20)24/h1-12,23H
Instrument: Agilent 1200 RRLC; Agilent 6520 QTOF
Instrument type: LC-ESI-QTOF
Ms type: MS2
Ion mode: POSITIVE
Collision energy: 40 ev
Column name: Agilent C8 Cartridge Column 2.1X30mm 3.5 micron (guard); Agilent SB-Aq 2.1x50mm 1.8 micron (analytical)
Retention time: 9.324
Base peak: 181
Precursor m/z: 349.0626
Precursor type: [M+H]+
m/z	relative intensity
152.0617	201
153.074	131
165.0666	85
181.0636	999
199.0311	355
215.0257	305
215.0809	270
216.0987	89
226.0748	158
228.0903	158
229.098	127
239.0838	752
240.0986	162
241.1003	370
250.0755	235
251.0858	185
252.0921	243
253.105	96
255.0757	100
257.0947	949
258.1087	96
268.0863	447
269.096	316
271.074	432
275.0589	123
284.0819	312
285.0888	351
286.0972	621
293.0692	104
313.0845	255
