Mass spectrum: 3-(2-Naphthyl)-D-alanine; LC-ESI-QTOF; MS2; CE 40 ev; [M+H]+
Name: 3-(2-Naphthyl)-D-alanine
Formula: C13H13NO2
Exact mass: 215.094629
SMILES: C1=CC=C2C=C(C=CC2=C1)CC(C(=O)O)N
InChI: InChI=1S/C13H13NO2/c14-12(13(15)16)8-9-5-6-10-3-1-2-4-11(10)7-9/h1-7,12H,8,14H2,(H,15,16)
Instrument: Agilent 1200 RRLC; Agilent 6520 QTOF
Instrument type: LC-ESI-QTOF
Ms type: MS2
Ion mode: POSITIVE
Collision energy: 40 ev
Column name: Agilent C8 Cartridge Column 2.1X30mm 3.5 micron (guard); Agilent SB-Aq 2.1x50mm 1.8 micron (analytical)
Retention time: 3.475
Base peak: 152
Precursor m/z: 216.1019
Precursor type: [M+H]+
m/z	relative intensity
101.0404	8
102.0437	16
102.0488	8
115.0543	66
126.0446	10
127.0537	302
127.0967	8
128.0616	856
128.0846	9
128.0933	21
128.1128	19
128.1671	11
129.0692	324
129.0934	9
129.1029	9
141.0692	119
142.0732	7
143.0704	13
143.0853	34
150.0475	25
151.0537	172
152.0621	999
152.0966	31
152.1147	14
152.1751	11
153.0689	765
153.0984	7
153.1081	8
153.1229	14
153.1822	9
154.0689	24
167.0756	7
168.0821	33
169.0897	8
