Mass spectrum: Strictosidine; LC-ESI-QTOF; MS; POSITIVE
Name: Strictosidine
Formula: C27H34N2O9
Exact mass: 530.226431
SMILES: COC(=O)C1=CO[C@H]([C@@H]([C@@H]1C[C@H]2C3=C(CCN2)C4=CC=CC=C4N3)C=C)O[C@H]5[C@@H]([C@H]([C@@H]([C@H](O5)CO)O)O)O
InChI: InChI=1S/C27H34N2O9/c1-3-13-16(10-19-21-15(8-9-28-19)14-6-4-5-7-18(14)29-21)17(25(34)35-2)12-36-26(13)38-27-24(33)23(32)22(31)20(11-30)37-27/h3-7,12-13,16,19-20,22-24,26-33H,1,8-11H2,2H3/t13-,16+,19+,20-,22-,23+,24-,26+,27+/m1/s1
Instrument: Agilent 1200 RRLC; Agilent 6520 QTOF
Instrument type: LC-ESI-QTOF
Ms type: MS
Ion mode: POSITIVE
Column name: Agilent C8 Cartridge Column 2.1X30mm 3.5 micron (guard); Agilent SB-Aq 2.1x50mm 1.8 micron (analytical)
Retention time: 4.999
m/z	relative intensity
531.233707	999
553.215649	17
