Mass spectrum: 2-{2-benzimidazol-2-yl-1-[(4-methylphenyl)methyl]ethyl}benzimidazole; LC-APCI-QTOF; MS; POSITIVE
Name: 2-{2-benzimidazol-2-yl-1-[(4-methylphenyl)methyl]ethyl}benzimidazole
Formula: C24H22N4
Exact mass: 366.184447
SMILES: CC1=CC=C(C=C1)CC(CC2=NC3=CC=CC=C3N2)C4=NC5=CC=CC=C5N4
InChI: InChI=1S/C24H22N4/c1-16-10-12-17(13-11-16)14-18(24-27-21-8-4-5-9-22(21)28-24)15-23-25-19-6-2-3-7-20(19)26-23/h2-13,18H,14-15H2,1H3,(H,25,26)(H,27,28)
Instrument: Agilent 1200 RRLC; Agilent 6520 QTOF
Instrument type: LC-APCI-QTOF
Ms type: MS
Ion mode: POSITIVE
Column name: Agilent C8 Cartridge Column 2.1X30mm 3.5 micron (guard); Agilent SB-Aq 2.1x50mm 1.8 micron (analytical)
Retention time: 7.146
m/z	relative intensity
367.1916765	999
