Mass spectrum: Dihydroquercetin; LC-ESI-QTOF; MS; NEGATIVE
Name: Dihydroquercetin
Name: 2-(3,4-dihydroxyphenyl)-3,5,7-trihydroxychroman-4-one
Formula: C15H12O7
Exact mass: 304.058303
SMILES: C1=CC(=C(C=C1C2C(C(=O)C3=C(C=C(C=C3O2)O)O)O)O)O
InChI: InChI=1S/C15H12O7/c16-7-4-10(19)12-11(5-7)22-15(14(21)13(12)20)6-1-2-8(17)9(18)3-6/h1-5,14-19,21H
Instrument: Agilent 1200 RRLC; Agilent 6520 QTOF
Instrument type: LC-ESI-QTOF
Ms type: MS
Ion mode: NEGATIVE
Column name: Agilent C8 Cartridge Column 2.1X30mm 3.5 micron (guard); Agilent SB-Aq 2.1x50mm 1.8 micron (analytical)
Retention time: 4.365
m/z	relative intensity
303.0510235	999
