Mass spectrum: alpha-Codeimethine; LC-ESI-QTOF; MS2; CE 10 ev; [M+H]+
Name: alpha-Codeimethine
Formula: C19H23NO3
Exact mass: 313.167794
SMILES: CN(C)CCC12C3C=CC(C1OC4=C(C=CC(=C24)C=C3)OC)O
InChI: InChI=1S/C19H23NO3/c1-20(2)11-10-19-13-6-4-12-5-9-15(22-3)17(16(12)19)23-18(19)14(21)8-7-13/h4-9,13-14,18,21H,10-11H2,1-3H3
Instrument: Agilent 1200 RRLC; Agilent 6520 QTOF
Instrument type: LC-ESI-QTOF
Ms type: MS2
Ion mode: POSITIVE
Collision energy: 10 ev
Column name: Agilent C8 Cartridge Column 2.1X30mm 3.5 micron (guard); Agilent SB-Aq 2.1x50mm 1.8 micron (analytical)
Retention time: 3.506
Base peak: 314
Precursor m/z: 314.1751
Precursor type: [M+H]+
m/z	relative intensity
137.065	9
161.0573	9
165.0686	8
171.4484	9
174.07	9
181.0579	9
183.0791	16
187.0755	23
193.0672	9
194.0688	8
199.0682	24
215.1058	100
225.0907	35
237.0905	15
241.0831	9
243.0989	261
243.1412	17
254.1013	8
269.1145	30
296.1575	8
314.1736	999
