Mass spectrum: Phloretin; LC-ESI-QTOF; MS2; CE 40 ev; [M-H]-
Name: Phloretin
Formula: C15H14O5
Exact mass: 274.084124
SMILES: C1=CC(=CC=C1CCC(=O)C2=C(C=C(C=C2O)O)O)O
InChI: InChI=1S/C15H14O5/c16-10-4-1-9(2-5-10)3-6-12(18)15-13(19)7-11(17)8-14(15)20/h1-2,4-5,7-8,16-17,19-20H,3,6H2
Instrument: Agilent 1200 RRLC; Agilent 6520 QTOF
Instrument type: LC-ESI-QTOF
Ms type: MS2
Ion mode: NEGATIVE
Collision energy: 40 ev
Column name: Agilent C8 Cartridge Column 2.1X30mm 3.5 micron (guard); Agilent SB-Aq 2.1x50mm 1.8 micron (analytical)
Retention time: 6.714
Base peak: 119
Precursor m/z: 273.0768
Precursor type: [M-H]-
m/z	relative intensity
104.0244	6
105.0349	21
107.0142	191
107.052	9
108.0253	13
109.0315	15
111.0456	5
115.0526	9
117.0352	33
119.05	999
119.0833	39
119.1009	6
119.1276	9
119.1498	14
119.2635	9
120.0289	6
121.0312	24
122.0343	12
123.0446	785
123.0761	29
123.0997	10
123.1213	6
123.1481	11
124.0157	23
125.0242	167
125.0564	7
130.0397	13
133.0666	6
135.0455	20
137.0229	21
142.1095	5
143.0517	48
145.0277	23
145.0647	35
147.046	47
149.0254	15
151.0026	207
151.0426	12
152.0118	7
157.0659	8
161.0581	30
164.007	8
165.0202	5
166.0258	19
167.0365	101
167.0477	8
167.0739	6
168.0591	15
169.0651	25
171.0447	38
171.077	10
172.0522	17
181.0609	7
182.067	5
182.0794	8
185.0645	15
185.5155	8
187.0778	10
189.0549	137
208.046	7
211.0827	6
213.4169	9
227.0708	6
233.3336	7
237.0491	9
