Mass spectrum: Pinocembrin; LC-APCI-QTOF; MS; NEGATIVE
Name: Pinocembrin
Formula: C15H12O4
Exact mass: 256.073559
SMILES: C1C(OC2=CC(=CC(=C2C1=O)O)O)C3=CC=CC=C3
InChI: InChI=1S/C15H12O4/c16-10-6-11(17)15-12(18)8-13(19-14(15)7-10)9-4-2-1-3-5-9/h1-7,13,16-17H,8H2
Instrument: Agilent 1200 RRLC; Agilent 6520 QTOF
Instrument type: LC-APCI-QTOF
Ms type: MS
Ion mode: NEGATIVE
Column name: Agilent C8 Cartridge Column 2.1X30mm 3.5 micron (guard); Agilent SB-Aq 2.1x50mm 1.8 micron (analytical)
Retention time: 7.894
m/z	relative intensity
255.0663235	999
