Mass spectrum: Prazosin; LC-ESI-QTOF; MS2; CE 10 ev; [M+H]+
Name: Prazosin
Formula: C19H21N5O4
Exact mass: 383.159354
SMILES: COC1=C(C=C2C(=C1)C(=NC(=N2)N3CCN(CC3)C(=O)C4=CC=CO4)N)OC
InChI: InChI=1S/C19H21N5O4/c1-26-15-10-12-13(11-16(15)27-2)21-19(22-17(12)20)24-7-5-23(6-8-24)18(25)14-4-3-9-28-14/h3-4,9-11H,5-8H2,1-2H3,(H2,20,21,22)
Instrument: Agilent 1200 RRLC; Agilent 6520 QTOF
Instrument type: LC-ESI-QTOF
Ms type: MS2
Ion mode: POSITIVE
Collision energy: 10 ev
Column name: Agilent C8 Cartridge Column 2.1X30mm 3.5 micron (guard); Agilent SB-Aq 2.1x50mm 1.8 micron (analytical)
Retention time: 5.595
Base peak: 384
Precursor m/z: 384.1667
Precursor type: [M+H]+
m/z	relative intensity
138.0583	9
247.1139	37
366.14	8
368.1267	9
384.1625	999
