Mass spectrum: 5,3'-Dihydroxyflavone; LC-ESI-QTOF; MS2; CE 40 ev; [M-H]-
Name: 5,3'-Dihydroxyflavone
Formula: C15H10O4
Exact mass: 254.057909
SMILES: C1=CC(=CC(=C1)O)C2=CC(=O)C3=C(O2)C=CC=C3O
InChI: InChI=1S/C15H10O4/c16-10-4-1-3-9(7-10)14-8-12(18)15-11(17)5-2-6-13(15)19-14/h1-8,16-17H
Instrument: Agilent 1200 RRLC; Agilent 6520 QTOF
Instrument type: LC-ESI-QTOF
Ms type: MS2
Ion mode: NEGATIVE
Collision energy: 40 ev
Column name: Agilent C8 Cartridge Column 2.1X30mm 3.5 micron (guard); Agilent SB-Aq 2.1x50mm 1.8 micron (analytical)
Retention time: 8.479
Base peak: 135
Precursor m/z: 253.0506
Precursor type: [M-H]-
m/z	relative intensity
101.0384	5
105.6577	3
107.0156	34
108.0203	2
117.0344	373
117.0615	6
117.0677	7
117.0842	9
117.1366	4
117.2104	2
117.4202	2
123.1166	2
129.0341	6
133.0276	27
135.0084	999
135.0446	32
135.0665	8
135.0889	4
135.1154	14
135.1403	3
135.1505	6
135.1593	2
135.2259	6
135.251	4
135.2707	2
135.3033	3
135.3236	2
135.3517	5
135.3678	3
135.3938	3
135.4679	2
135.5436	2
135.6253	3
135.6497	2
135.6932	3
135.8822	2
152.053	2
153.0391	2
153.0741	7
154.0439	3
157.0312	11
157.0574	2
159.0405	5
163.5168	10
167.0503	3
169.0562	3
171.0509	2
179.0508	6
180.0533	6
181.0658	3
182.0346	7
183.0433	11
185.0203	5
196.0556	7
197.0649	6
208.0449	3
210.0392	2
211.0405	5
214.0483	2
225.0573	13
234.026	4
235.035	4
253.048	27
