Mass spectrum: 11-(2-bromo-3,6-dimethoxyphenyl)-3,3-dimethyl-2,3,4-trihydro-5H,10H,11H-benzo[ b]benzo[2,1-f]1,4-diazepin-1-one; LC-ESI-QTOF; MS2; CE 20 ev; [M-H]-
Name: 11-(2-bromo-3,6-dimethoxyphenyl)-3,3-dimethyl-2,3,4-trihydro-5H,10H,11H-benzo[ b]benzo[2,1-f]1,4-diazepin-1-one
Formula: C23H25BrN2O3
Exact mass: 456.104855
SMILES: CC1(CC2=C(C(NC3=CC=CC=C3N2)C4=C(C=CC(=C4Br)OC)OC)C(=O)C1)C
InChI: InChI=1S/C23H25BrN2O3/c1-23(2)11-15-19(16(27)12-23)22(26-14-8-6-5-7-13(14)25-15)20-17(28-3)9-10-18(29-4)21(20)24/h5-10,22,25-26H,11-12H2,1-4H3
Instrument: Agilent 1200 RRLC; Agilent 6520 QTOF
Instrument type: LC-ESI-QTOF
Ms type: MS2
Ion mode: NEGATIVE
Collision energy: 20 ev
Column name: Agilent C8 Cartridge Column 2.1X30mm 3.5 micron (guard); Agilent SB-Aq 2.1x50mm 1.8 micron (analytical)
Retention time: 8.283
Base peak: 455
Precursor m/z: 455.0976
Precursor type: [M-H]-
m/z	relative intensity
131.0611	94
150.9973	6
171.0951	12
193.9259	6
220.9608	7
221.1097	10
226.1102	9
230.0184	11
239.1194	88
239.1411	11
253.9561	5
309.0057	6
311.1117	14
313.1087	7
313.1401	10
323.9931	7
327.103	8
327.1316	9
328.1247	19
342.012	11
342.1321	21
343.1393	28
357.1602	10
366.6743	5
375.0468	22
381.0259	15
390.0368	59
405.0604	129
405.1082	6
407.0373	46
408.0432	51
409.0507	8
422.0628	64
423.0692	68
423.1741	7
437.0848	707
437.2067	11
437.2708	7
437.3251	7
437.3855	9
437.6047	7
437.7203	6
438.0212	8
438.1002	7
438.1565	6
438.2171	6
438.3262	8
440.0687	53
440.1408	5
455.096	999
