Mass spectrum: 2-[6-(diethylamino)purin-9-yl]-5-(hydroxymethyl)oxolane-3,4-diol; LC-ESI-QTOF; MS2; CE 40 ev; [M+H]+
Name: 2-[6-(diethylamino)purin-9-yl]-5-(hydroxymethyl)oxolane-3,4-diol
Formula: C14H21N5O4
Exact mass: 323.159354
SMILES: CCN(CC)C1=NC=NC2=C1N=CN2C3C(C(C(O3)CO)O)O
InChI: InChI=1S/C14H21N5O4/c1-3-18(4-2)12-9-13(16-6-15-12)19(7-17-9)14-11(22)10(21)8(5-20)23-14/h6-8,10-11,14,20-22H,3-5H2,1-2H3
Instrument: Agilent 1200 RRLC; Agilent 6520 QTOF
Instrument type: LC-ESI-QTOF
Ms type: MS2
Ion mode: POSITIVE
Collision energy: 40 ev
Column name: Agilent C8 Cartridge Column 2.1X30mm 3.5 micron (guard); Agilent SB-Aq 2.1x50mm 1.8 micron (analytical)
Retention time: 5.208
Base peak: 192
Precursor m/z: 324.1667
Precursor type: [M+H]+
m/z	relative intensity
109.0507	49
119.0352	65
120.0443	12
120.0531	16
120.0596	11
121.0519	12
122.0722	15
135.0531	21
136.0614	564
136.0827	8
136.0939	10
136.1112	8
137.0786	9
137.0844	10
147.0663	12
148.0611	27
149.0686	14
162.0762	35
164.0927	980
164.1287	31
164.2096	9
176.0971	8
177.0985	9
190.1063	15
192.1234	999
192.1576	12
192.1699	29
192.188	9
192.2131	10
192.2508	10
