Mass spectrum: 2'-O-Methylcytidine; LC-ESI-QTOF; MS2; CE 20 ev; [M-H]-
Name: 2'-O-Methylcytidine
Formula: C10H15N3O5
Exact mass: 257.101171
SMILES: COC1C(C(OC1N2C=CC(=NC2=O)N)CO)O
InChI: InChI=1S/C10H15N3O5/c1-17-8-7(15)5(4-14)18-9(8)13-3-2-6(11)12-10(13)16/h2-3,5,7-9,14-15H,4H2,1H3,(H2,11,12,16)
Instrument: Agilent 1200 RRLC; Agilent 6520 QTOF
Instrument type: LC-ESI-QTOF
Ms type: MS2
Ion mode: NEGATIVE
Collision energy: 20 ev
Column name: Agilent C8 Cartridge Column 2.1X30mm 3.5 micron (guard); Agilent SB-Aq 2.1x50mm 1.8 micron (analytical)
Retention time: 0.384
Base peak: 108
Precursor m/z: 256.0939
Precursor type: [M-H]-
m/z	relative intensity
108.033	999
108.0643	58
116.9315	49
123.0552	391
144.9774	56
219.8482	49
237.2153	58
255.2317	161
