Mass spectrum: Melatonin; LC-ESI-QTOF; MS2; CE 10 ev; [M+H]+
Name: Melatonin
Formula: C13H16N2O2
Exact mass: 232.121178
SMILES: CC(=O)NCCC1=CNC2=C1C=C(C=C2)OC
InChI: InChI=1S/C13H16N2O2/c1-9(16)14-6-5-10-8-15-13-4-3-11(17-2)7-12(10)13/h3-4,7-8,15H,5-6H2,1-2H3,(H,14,16)
Instrument: Agilent 1200 RRLC; Agilent 6520 QTOF
Instrument type: LC-ESI-QTOF
Ms type: MS2
Ion mode: POSITIVE
Collision energy: 10 ev
Column name: Agilent C8 Cartridge Column 2.1X30mm 3.5 micron (guard); Agilent SB-Aq 2.1x50mm 1.8 micron (analytical)
Retention time: 5.018
Base peak: 174
Precursor m/z: 233.1285
Precursor type: [M+H]+
m/z	relative intensity
117.0686	6
130.0662	11
131.0725	10
143.0719	21
148.0715	7
158.058	7
159.066	40
159.0862	7
162.0902	6
173.0783	14
174.0892	999
174.1258	9
174.1358	9
174.1547	27
174.1748	8
174.2106	19
174.2968	5
174.412	5
198.0916	7
216.1011	44
233.1226	10
