Mass spectrum: 7-Methoxyisoflavone; LC-APCI-QTOF; MS; POSITIVE
Name: 7-Methoxyisoflavone
Formula: C16H12O3
Exact mass: 252.078644
SMILES: COC1=CC2=C(C=C1)C(=O)C(=CO2)C3=CC=CC=C3
InChI: InChI=1S/C16H12O3/c1-18-12-7-8-13-15(9-12)19-10-14(16(13)17)11-5-3-2-4-6-11/h2-10H,1H3
Instrument: Agilent 1200 RRLC; Agilent 6520 QTOF
Instrument type: LC-APCI-QTOF
Ms type: MS
Ion mode: POSITIVE
Column name: Agilent C8 Cartridge Column 2.1X30mm 3.5 micron (guard); Agilent SB-Aq 2.1x50mm 1.8 micron (analytical)
Retention time: 8.675
m/z	relative intensity
253.0858765	999
