Mass spectrum: Nicotine; LC-ESI-QTOF; MS; POSITIVE
Name: Nicotine
Formula: C10H14N2
Exact mass: 162.115698
SMILES: CN1CCC[C@H]1C2=CN=CC=C2
InChI: InChI=1S/C10H14N2/c1-12-7-3-5-10(12)9-4-2-6-11-8-9/h2,4,6,8,10H,3,5,7H2,1H3/t10-/m0/s1
Instrument: Agilent 1200 RRLC; Agilent 6520 QTOF
Instrument type: LC-ESI-QTOF
Ms type: MS
Ion mode: POSITIVE
Column name: Agilent C8 Cartridge Column 2.1X30mm 3.5 micron (guard); Agilent SB-Aq 2.1x50mm 1.8 micron (analytical)
Retention time: 0.388
m/z	relative intensity
163.1229765	999
