Mass spectrum: Pergolide; LC-ESI-QTOF; MS2; CE 40 ev; [M+H]+
Name: Pergolide
Formula: C19H26N2S
Exact mass: 314.18167
SMILES: CCCN1C[C@@H](C[C@H]2[C@H]1CC3=CNC4=CC=CC2=C34)CSC
InChI: InChI=1S/C19H26N2S/c1-3-7-21-11-13(12-22-2)8-16-15-5-4-6-17-19(15)14(10-20-17)9-18(16)21/h4-6,10,13,16,18,20H,3,7-9,11-12H2,1-2H3/t13-,16-,18-/m1/s1
Instrument: Agilent 1200 RRLC; Agilent 6520 QTOF
Instrument type: LC-ESI-QTOF
Ms type: MS2
Ion mode: POSITIVE
Collision energy: 40 ev
Column name: Agilent C8 Cartridge Column 2.1X30mm 3.5 micron (guard); Agilent SB-Aq 2.1x50mm 1.8 micron (analytical)
Retention time: 5.397
Base peak: 154
Precursor m/z: 315.1890
Precursor type: [M+H]+
m/z	relative intensity
100.111	90
112.1119	93
115.0541	42
117.0558	20
124.1117	21
127.0557	48
128.0615	100
129.0685	82
129.0738	14
130.0638	184
131.0704	22
139.0567	16
140.0596	25
141.0681	57
142.0779	19
143.0818	103
144.0814	90
145.0863	24
152.0583	40
152.0685	12
153.0687	240
154.064	999
154.1001	37
154.1296	12
154.1789	12
155.0722	329
156.0765	117
156.1154	14
157.083	15
165.0689	302
166.0579	21
166.0744	184
166.0872	25
167.0718	962
167.0953	23
167.1036	23
167.1111	13
167.1345	12
167.882	12
168.0784	504
168.1146	37
168.1397	15
169.0849	100
170.0955	146
177.073	14
178.0613	15
178.0747	20
179.0832	272
179.1212	17
180.0787	710
180.096	14
180.1137	24
181.0937	229
182.094	243
183.0952	171
184.1117	44
191.0751	123
191.0896	37
191.1232	15
192.0794	570
192.1192	27
193.0875	763
193.1309	28
193.1608	15
193.3271	12
194.0944	188
195.1003	57
196.1081	132
197.1056	53
198.1262	53
204.0801	24
206.0968	102
207.1031	107
208.1098	484
208.1507	17
209.1052	43
210.1211	44
210.1302	25
211.118	28
212.1239	28
212.1431	14
223.125	30
224.1265	13
225.1353	31
226.1421	15
239.1517	18
267.1806	14
