Mass spectrum: 3-[(4-methylphenyl)sulfonyl]-1,2,3,4,5,6-hexahydro-8H-1,5-methanopyrido[1,2-a][1,5]diazocin-8-one, 11-[(4-methylphenyl)sulfonyl]-7,11-diazatricyclo[7.3.1.0<2,7>]trideca-2,4-dien -6-one; LC-ESI-QTOF; MS; POSITIVE
Name: 3-[(4-methylphenyl)sulfonyl]-1,2,3,4,5,6-hexahydro-8H-1,5-methanopyrido[1,2-a][1,5]diazocin-8-one, 11-[(4-methylphenyl)sulfonyl]-7,11-diazatricyclo[7.3.1.0<2,7>]trideca-2,4-dien -6-one
Formula: C18H20N2O3S
Exact mass: 344.119464
SMILES: CC1=CC=C(C=C1)S(=O)(=O)N2CC3CC(C2)C4=CC=CC(=O)N4C3
InChI: InChI=1S/C18H20N2O3S/c1-13-5-7-16(8-6-13)24(22,23)19-10-14-9-15(12-19)17-3-2-4-18(21)20(17)11-14/h2-8,14-15H,9-12H2,1H3
Instrument: Agilent 1200 RRLC; Agilent 6520 QTOF
Instrument type: LC-ESI-QTOF
Ms type: MS
Ion mode: POSITIVE
Column name: Agilent C8 Cartridge Column 2.1X30mm 3.5 micron (guard); Agilent SB-Aq 2.1x50mm 1.8 micron (analytical)
Retention time: 6.766
m/z	relative intensity
345.1267765	999
367.108718	309
