Mass spectrum: Hydrocinchonine; LC-ESI-QTOF; MS2; CE 20 ev; [M+H]+
Name: Hydrocinchonine
Formula: C19H24N2O
Exact mass: 296.188863
SMILES: CCC1CN2CCC1CC2C(C3=CC=NC4=CC=CC=C34)O
InChI: InChI=1S/C19H24N2O/c1-2-13-12-21-10-8-14(13)11-18(21)19(22)16-7-9-20-17-6-4-3-5-15(16)17/h3-7,9,13-14,18-19,22H,2,8,10-12H2,1H3
Instrument: Agilent 1200 RRLC; Agilent 6520 QTOF
Instrument type: LC-ESI-QTOF
Ms type: MS2
Ion mode: POSITIVE
Collision energy: 20 ev
Column name: Agilent C8 Cartridge Column 2.1X30mm 3.5 micron (guard); Agilent SB-Aq 2.1x50mm 1.8 micron (analytical)
Retention time: 4.962
Base peak: 297
Precursor m/z: 297.1962
Precursor type: [M+H]+
m/z	relative intensity
279.1825	239
297.1919	999
