Mass spectrum: 7-chloro-4-methyl-2-oxochromen-6-yl propanoate; LC-ESI-QTOF; MS2; CE 40 ev; [M+H]+
Name: 7-chloro-4-methyl-2-oxochromen-6-yl propanoate
Formula: C13H11ClO4
Exact mass: 266.034587
SMILES: CCC(=O)OC1=C(C=C2C(=C1)C(=CC(=O)O2)C)Cl
InChI: InChI=1S/C13H11ClO4/c1-3-12(15)18-11-5-8-7(2)4-13(16)17-10(8)6-9(11)14/h4-6H,3H2,1-2H3
Instrument: Agilent 1200 RRLC; Agilent 6520 QTOF
Instrument type: LC-ESI-QTOF
Ms type: MS2
Ion mode: POSITIVE
Collision energy: 40 ev
Column name: Agilent C8 Cartridge Column 2.1X30mm 3.5 micron (guard); Agilent SB-Aq 2.1x50mm 1.8 micron (analytical)
Retention time: 8.059
Base peak: 155
Precursor m/z: 267.0419
Precursor type: [M+H]+
m/z	relative intensity
103.0541	639
119.0485	544
120.0567	867
131.0471	485
132.0576	624
147.0394	610
147.0501	272
148.0504	588
155.0254	999
155.3043	147
