Mass spectrum: N-Allyladenosine; LC-ESI-QTOF; MS2; CE 40 ev; [M+H]+
Name: N-Allyladenosine
Formula: C13H17N5O4
Exact mass: 307.128054
SMILES: C=CCNC1=NC=NC2=C1N=CN2C3C(C(C(O3)CO)O)O
InChI: InChI=1S/C13H17N5O4/c1-2-3-14-11-8-12(16-5-15-11)18(6-17-8)13-10(21)9(20)7(4-19)22-13/h2,5-7,9-10,13,19-21H,1,3-4H2,(H,14,15,16)
Instrument: Agilent 1200 RRLC; Agilent 6520 QTOF
Instrument type: LC-ESI-QTOF
Ms type: MS2
Ion mode: POSITIVE
Collision energy: 40 ev
Column name: Agilent C8 Cartridge Column 2.1X30mm 3.5 micron (guard); Agilent SB-Aq 2.1x50mm 1.8 micron (analytical)
Retention time: 3.806
Base peak: 176
Precursor m/z: 308.1354
Precursor type: [M+H]+
m/z	relative intensity
105.0411	22
108.0391	62
108.0516	27
109.0505	33
119.0289	19
119.0354	38
121.051	22
131.0337	22
132.0503	55
132.059	44
134.073	16
135.0522	242
135.0677	32
136.0609	181
136.0698	18
148.0589	86
149.0807	78
159.0656	161
160.0643	19
176.0926	999
176.1279	45
