Mass spectrum: Genipin; LC-ESI-QTOF; MS2; CE 20 ev; [M-H]-
Name: Genipin
Formula: C11H14O5
Exact mass: 226.084124
SMILES: COC(=O)C1=COC(C2C1CC=C2CO)O
InChI: InChI=1S/C11H14O5/c1-15-10(13)8-5-16-11(14)9-6(4-12)2-3-7(8)9/h2,5,7,9,11-12,14H,3-4H2,1H3
Instrument: Agilent 1200 RRLC; Agilent 6520 QTOF
Instrument type: LC-ESI-QTOF
Ms type: MS2
Ion mode: NEGATIVE
Collision energy: 20 ev
Column name: Agilent C8 Cartridge Column 2.1X30mm 3.5 micron (guard); Agilent SB-Aq 2.1x50mm 1.8 micron (analytical)
Retention time: 4.316
Base peak: 101
Precursor m/z: 225.0768
Precursor type: [M-H]-
m/z	relative intensity
101.0236	999
101.0512	26
101.072	13
101.1166	13
103.0538	21
105.0344	202
109.0303	61
111.0464	30
117.0351	35
119.0491	62
121.0306	31
123.0442	199
127.0416	21
129.0322	23
147.0446	476
147.0805	25
148.0567	16
175.0412	46
207.0592	21
207.0698	23
