Mass spectrum: Dihydroergocristine; LC-ESI-QTOF; MS2; CE 40 ev; [M-H]-
Name: Dihydroergocristine
Formula: C35H41N5O5
Exact mass: 611.310769
SMILES: CC(C)C1(C(=O)N2C(C(=O)N3CCCC3C2(O1)O)CC4=CC=CC=C4)NC(=O)C5CC6C(CC7=CNC8=CC=CC6=C78)N(C5)C
InChI: InChI=1S/C35H41N5O5/c1-20(2)34(37-31(41)23-16-25-24-11-7-12-26-30(24)22(18-36-26)17-27(25)38(3)19-23)33(43)40-28(15-21-9-5-4-6-10-21)32(42)39-14-8-13-29(39)35(40,44)45-34/h4-7,9-12,18,20,23,25,27-29,36,44H,8,13-17,19H2,1-3H3,(H,37,41)
Instrument: Agilent 1200 RRLC; Agilent 6520 QTOF
Instrument type: LC-ESI-QTOF
Ms type: MS2
Ion mode: NEGATIVE
Collision energy: 40 ev
Column name: Agilent C8 Cartridge Column 2.1X30mm 3.5 micron (guard); Agilent SB-Aq 2.1x50mm 1.8 micron (analytical)
Retention time: 7.110
Base peak: 451
Precursor m/z: 610.3035
Precursor type: [M-H]-
m/z	relative intensity
121.0453	103
122.0642	112
124.0771	59
130.4737	77
131.0528	62
139.0506	100
152.0589	109
154.0675	74
157.0568	127
160.6675	94
166.0599	62
174.0476	97
174.0604	62
182.0898	242
182.1208	100
194.0943	83
197.1074	248
199.1268	728
215.1211	65
222.1053	71
223.1274	88
224.1239	106
225.1241	62
226.0817	174
226.1094	463
226.4783	77
243.1121	380
248.0534	62
250.1099	59
250.1347	224
251.1134	365
261.1228	637
261.1486	91
268.1464	849
269.1738	65
300.8242	59
314.1905	130
322.1908	869
322.2358	62
322.2604	62
333.2019	586
334.1984	91
334.6101	133
338.1899	150
346.1812	657
347.1994	248
348.1618	159
359.1803	495
360.1897	221
365.2049	71
366.1821	85
367.6311	77
370.8627	65
382.1962	262
414.1833	115
424.2374	83
425.1244	103
449.2512	74
451.2469	999
451.286	124
495.2285	121
566.2948	133
566.3299	85
610.3038	62
