Mass spectrum: Cytidine; LC-ESI-QTOF; MS2; CE 10 ev; [M-H]-
Name: Cytidine
Formula: C9H13N3O5
Exact mass: 243.085521
SMILES: C1=CN(C(=O)N=C1N)C2C(C(C(O2)CO)O)O
InChI: InChI=1S/C9H13N3O5/c10-5-1-2-12(9(16)11-5)8-7(15)6(14)4(3-13)17-8/h1-2,4,6-8,13-15H,3H2,(H2,10,11,16)
Instrument: Agilent 1200 RRLC; Agilent 6520 QTOF
Instrument type: LC-ESI-QTOF
Ms type: MS2
Ion mode: NEGATIVE
Collision energy: 10 ev
Column name: Agilent C8 Cartridge Column 2.1X30mm 3.5 micron (guard); Agilent SB-Aq 2.1x50mm 1.8 micron (analytical)
Retention time: 0.376
Base peak: 109
Precursor m/z: 242.0782
Precursor type: [M-H]-
m/z	relative intensity
100.3533	77
109.0416	999
109.0709	54
152.0469	248
206.7925	128
242.0769	695
