Mass spectrum: Shikimic acid; LC-APCI-QTOF; MS; NEGATIVE
Name: Shikimic acid
Formula: C7H10O5
Exact mass: 174.052823
SMILES: C1C(C(C(C=C1C(=O)O)O)O)O
InChI: InChI=1S/C7H10O5/c8-4-1-3(7(11)12)2-5(9)6(4)10/h1,4-6,8-10H,2H2,(H,11,12)
Instrument: Agilent 1200 RRLC; Agilent 6520 QTOF
Instrument type: LC-APCI-QTOF
Ms type: MS
Ion mode: NEGATIVE
Column name: Agilent C8 Cartridge Column 2.1X30mm 3.5 micron (guard); Agilent SB-Aq 2.1x50mm 1.8 micron (analytical)
Retention time: 0.399
m/z	relative intensity
173.0455235	999
