Mass spectrum: 1,9-dimethyluric acid; LC-ESI-QTOF; MS2; CE 20 ev; [M-H]-
Name: 1,9-dimethyluric acid
Formula: C7H8N4O3
Exact mass: 196.05964
SMILES: CN1C2=C(C(=O)N(C(=O)N2)C)NC1=O
InChI: InChI=1S/C7H8N4O3/c1-10-4-3(8-6(10)13)5(12)11(2)7(14)9-4/h1-2H3,(H,8,13)(H,9,14)
Instrument: Agilent 1200 RRLC; Agilent 6520 QTOF
Instrument type: LC-ESI-QTOF
Ms type: MS2
Ion mode: NEGATIVE
Collision energy: 20 ev
Column name: Agilent C8 Cartridge Column 2.1X30mm 3.5 micron (guard); Agilent SB-Aq 2.1x50mm 1.8 micron (analytical)
Retention time: 1.807
Base peak: 137
Precursor m/z: 195.0523
Precursor type: [M-H]-
m/z	relative intensity
105.1338	20
115.9682	31
121.0174	52
123.0085	99
136.0362	94
137.0236	999
137.0646	36
138.0309	78
151.0695	36
152.0479	60
161.7516	34
195.0523	903
