Mass spectrum: Methylergometrine; LC-ESI-QTOF; MS2; CE 10 ev; [M+H]+
Name: Methylergometrine
Formula: C20H25N3O2
Exact mass: 339.194677
SMILES: CCC(CO)NC(=O)C1CN(C2CC3=CNC4=CC=CC(=C34)C2=C1)C
InChI: InChI=1S/C20H25N3O2/c1-3-14(11-24)22-20(25)13-7-16-15-5-4-6-17-19(15)12(9-21-17)8-18(16)23(2)10-13/h4-7,9,13-14,18,21,24H,3,8,10-11H2,1-2H3,(H,22,25)
Instrument: Agilent 1200 RRLC; Agilent 6520 QTOF
Instrument type: LC-ESI-QTOF
Ms type: MS2
Ion mode: POSITIVE
Collision energy: 10 ev
Column name: Agilent C8 Cartridge Column 2.1X30mm 3.5 micron (guard); Agilent SB-Aq 2.1x50mm 1.8 micron (analytical)
Retention time: 3.317
Base peak: 340
Precursor m/z: 340.2020
Precursor type: [M+H]+
m/z	relative intensity
121.0444	10
126.0869	8
197.1064	21
208.0753	109
208.0999	13
210.0904	6
223.1212	85
225.0985	6
251.1163	23
269.1274	14
279.1442	21
297.1573	259
297.2047	17
309.1648	9
322.1978	7
325.1718	9
340.2	999
