Mass spectrum: Limocitrin; LC-ESI-QTOF; MS2; CE 40 ev; [M-H]-
Name: Limocitrin
Formula: C17H14O8
Exact mass: 346.068867
SMILES: COC1=C(C=CC(=C1)C2=C(C(=O)C3=C(O2)C(=C(C=C3O)O)OC)O)O
InChI: InChI=1S/C17H14O8/c1-23-11-5-7(3-4-8(11)18)15-14(22)13(21)12-9(19)6-10(20)16(24-2)17(12)25-15/h3-6,18-20,22H,1-2H3
Instrument: Agilent 1200 RRLC; Agilent 6520 QTOF
Instrument type: LC-ESI-QTOF
Ms type: MS2
Ion mode: NEGATIVE
Collision energy: 40 ev
Column name: Agilent C8 Cartridge Column 2.1X30mm 3.5 micron (guard); Agilent SB-Aq 2.1x50mm 1.8 micron (analytical)
Retention time: 7.905
Base peak: 243
Precursor m/z: 345.0616
Precursor type: [M-H]-
m/z	relative intensity
106.0078	85
108.6924	54
109.0323	83
110.0013	994
111.0093	142
115.0542	233
115.5862	98
120.9992	148
121.0272	613
122.0077	137
123.0104	85
123.0296	62
133.9961	67
135.0105	57
135.0529	78
136.9841	199
136.9934	129
138.002	83
139.0063	329
144.0283	57
145.0178	54
145.0273	184
146.5833	57
147.0122	176
147.0439	109
149.0258	740
149.9947	197
150.9991	150
159.0432	368
161.0231	129
164.9857	730
165.9936	481
171.0445	324
172.0115	179
173.0183	336
174.0374	72
175.0351	109
177.9897	96
178.9952	114
179.0152	57
185.0297	67
187.0368	883
187.0891	54
189.0174	329
189.039	72
194.2821	83
197.0243	233
199.035	158
202.0252	65
203.032	318
204.0423	386
204.0583	88
214.0328	91
215.0323	463
217.0079	135
219.0294	104
226.8828	60
230.0196	83
230.0528	62
231.0273	443
238.9936	85
241.0177	145
242.0126	155
242.0351	96
243.03	999
243.0841	62
245.0043	101
246.0642	83
258.0147	424
259.0213	401
269.9908	104
270.0063	106
271.0245	321
287.0201	251
287.0438	202
315.0078	295
315.5951	60
322.4546	57
330.0401	285
340.451	67
