Mass spectrum: 2',6-Dihydroxyflavone; LC-ESI-QTOF; MS2; CE 40 ev; [M-H]-
Name: 2',6-Dihydroxyflavone
Formula: C15H10O4
Exact mass: 254.057909
SMILES: C1=CC=C(C(=C1)C2=CC(=O)C3=C(O2)C=CC(=C3)O)O
InChI: InChI=1S/C15H10O4/c16-9-5-6-14-11(7-9)13(18)8-15(19-14)10-3-1-2-4-12(10)17/h1-8,16-17H
Instrument: Agilent 1200 RRLC; Agilent 6520 QTOF
Instrument type: LC-ESI-QTOF
Ms type: MS2
Ion mode: NEGATIVE
Collision energy: 40 ev
Column name: Agilent C8 Cartridge Column 2.1X30mm 3.5 micron (guard); Agilent SB-Aq 2.1x50mm 1.8 micron (analytical)
Retention time: 7.464
Base peak: 117
Precursor m/z: 253.0506
Precursor type: [M-H]-
m/z	relative intensity
101.0397	5
105.0342	6
107.0147	54
108.0206	49
109.0265	4
116.0244	6
116.9927	3
117.0346	999
117.065	34
117.086	9
117.1019	5
117.1352	15
117.2082	4
117.2423	5
117.2835	3
117.3288	4
117.4282	4
117.4839	3
117.9216	3
132.7053	4
133.0288	28
135.0031	3
141.0312	3
143.0523	7
147.0102	9
151.0577	6
155.0513	5
157.0643	4
159.0452	3
160.0144	4
161.0228	5
167.0472	11
168.068	4
169.0633	21
177.02	5
179.0537	4
180.0545	10
181.0648	4
182.0406	6
183.0456	7
195.0426	10
195.0619	3
196.0519	5
197.051	8
197.0608	4
207.0497	6
208.0505	7
211.0429	4
223.0324	7
223.0432	13
224.0397	10
224.052	5
225.0513	3
235.0337	6
253.0499	3
