Mass spectrum: HuperzineA; LC-ESI-QTOF; MS; POSITIVE
Name: HuperzineA
Formula: C15H18N2O
Exact mass: 242.141913
SMILES: C/C=C/1\C2CC3=C(C1(CC(=C2)C)N)C=CC(=O)N3
InChI: InChI=1S/C15H18N2O/c1-3-11-10-6-9(2)8-15(11,16)12-4-5-14(18)17-13(12)7-10/h3-6,10H,7-8,16H2,1-2H3,(H,17,18)/b11-3+
Instrument: Agilent 1200 RRLC; Agilent 6520 QTOF
Instrument type: LC-ESI-QTOF
Ms type: MS
Ion mode: POSITIVE
Column name: Agilent C8 Cartridge Column 2.1X30mm 3.5 micron (guard); Agilent SB-Aq 2.1x50mm 1.8 micron (analytical)
Retention time: 2.614
m/z	relative intensity
243.149189	999
265.131131	186
