Mass spectrum: Robinetin trimethyl ether; LC-ESI-QTOF; MS2; CE 40 ev; [M+H]+
Name: Robinetin trimethyl ether
Formula: C18H16O7
Exact mass: 344.089603
SMILES: COC1=CC(=CC(=C1OC)OC)C2=C(C(=O)C3=C(O2)C=C(C=C3)O)O
InChI: InChI=1S/C18H16O7/c1-22-13-6-9(7-14(23-2)18(13)24-3)17-16(21)15(20)11-5-4-10(19)8-12(11)25-17/h4-8,19,21H,1-3H3
Instrument: Agilent 1200 RRLC; Agilent 6520 QTOF
Instrument type: LC-ESI-QTOF
Ms type: MS2
Ion mode: POSITIVE
Collision energy: 40 ev
Column name: Agilent C8 Cartridge Column 2.1X30mm 3.5 micron (guard); Agilent SB-Aq 2.1x50mm 1.8 micron (analytical)
Retention time: 8.679
Base peak: 269
Precursor m/z: 345.0969
Precursor type: [M+H]+
m/z	relative intensity
137.0222	890
147.0418	454
189.056	436
227.0628	400
241.0499	745
245.0415	509
254.0442	436
255.0629	781
259.055	418
269.0474	999
283.0578	563
299.0562	490
315.052	400
