Mass spectrum: Capensine; LC-ESI-QTOF; MS2; CE 10 ev; [M-H]-
Name: Capensine
Formula: C15H16O5
Exact mass: 276.099774
SMILES: CC(=CCOC1=C(C=C2C=CC(=O)OC2=C1O)OC)C
InChI: InChI=1S/C15H16O5/c1-9(2)6-7-19-15-11(18-3)8-10-4-5-12(16)20-14(10)13(15)17/h4-6,8,17H,7H2,1-3H3
Instrument: Agilent 1200 RRLC; Agilent 6520 QTOF
Instrument type: LC-ESI-QTOF
Ms type: MS2
Ion mode: NEGATIVE
Collision energy: 10 ev
Column name: Agilent C8 Cartridge Column 2.1X30mm 3.5 micron (guard); Agilent SB-Aq 2.1x50mm 1.8 micron (analytical)
Retention time: 7.753
Base peak: 206
Precursor m/z: 275.0925
Precursor type: [M-H]-
m/z	relative intensity
107.0208	12
135.0048	12
163.0008	22
190.9982	199
191.0307	14
191.7464	5
205.9757	5
206.0214	999
206.0613	29
206.0824	19
206.0974	9
206.1298	6
206.1541	13
206.1864	7
206.3936	7
206.465	6
206.5831	6
207.0216	9
215.4429	11
