Mass spectrum: 3,4,6-Tri-O-acetyl-D-galactal; LC-ESI-QTOF; MS; POSITIVE
Name: 3,4,6-Tri-O-acetyl-D-galactal
Formula: C12H16O7
Exact mass: 272.089603
SMILES: CC(=O)OC[C@@H]1[C@@H]([C@@H](C=CO1)OC(=O)C)OC(=O)C
InChI: InChI=1S/C12H16O7/c1-7(13)17-6-11-12(19-9(3)15)10(4-5-16-11)18-8(2)14/h4-5,10-12H,6H2,1-3H3/t10-,11-,12-/m1/s1
Instrument: Agilent 1200 RRLC; Agilent 6520 QTOF
Instrument type: LC-ESI-QTOF
Ms type: MS
Ion mode: POSITIVE
Column name: Agilent C8 Cartridge Column 2.1X30mm 3.5 micron (guard); Agilent SB-Aq 2.1x50mm 1.8 micron (analytical)
Retention time: 5.754
m/z	relative intensity
295.078818	999
