Mass spectrum: Chrysophanic acid; LC-ESI-QTOF; MS2; CE 10 ev; [M+H]+
Name: Chrysophanic acid
Formula: C15H10O4
Exact mass: 254.057909
SMILES: CC1=CC(=C2C(=C1)C(=O)C3=C(C2=O)C(=CC=C3)O)O
InChI: InChI=1S/C15H10O4/c1-7-5-9-13(11(17)6-7)15(19)12-8(14(9)18)3-2-4-10(12)16/h2-6,16-17H,1H3
Instrument: Agilent 1200 RRLC; Agilent 6520 QTOF
Instrument type: LC-ESI-QTOF
Ms type: MS2
Ion mode: POSITIVE
Collision energy: 10 ev
Column name: Agilent C8 Cartridge Column 2.1X30mm 3.5 micron (guard); Agilent SB-Aq 2.1x50mm 1.8 micron (analytical)
Retention time: 9.737
Base peak: 177
Precursor m/z: 255.0652
Precursor type: [M+H]+
m/z	relative intensity
176.9872	999
177.0115	12
177.0308	46
177.0686	13
