Mass spectrum: Progesterone; LC-APCI-QTOF; MS; POSITIVE
Name: Progesterone
Formula: C21H30O2
Exact mass: 314.22458
SMILES: CC(=O)C1CCC2C1(CCC3C2CCC4=CC(=O)CCC34C)C
InChI: InChI=1S/C21H30O2/c1-13(22)17-6-7-18-16-5-4-14-12-15(23)8-10-20(14,2)19(16)9-11-21(17,18)3/h12,16-19H,4-11H2,1-3H3
Instrument: Agilent 1200 RRLC; Agilent 6520 QTOF
Instrument type: LC-APCI-QTOF
Ms type: MS
Ion mode: POSITIVE
Column name: Agilent C8 Cartridge Column 2.1X30mm 3.5 micron (guard); Agilent SB-Aq 2.1x50mm 1.8 micron (analytical)
Retention time: 10.350
m/z	relative intensity
315.2318765	999
