Mass spectrum: Pergolide; LC-ESI-QTOF; MS2; CE 20 ev; [M+H]+
Name: Pergolide
Formula: C19H26N2S
Exact mass: 314.18167
SMILES: CCCN1C[C@@H](C[C@H]2[C@H]1CC3=CNC4=CC=CC2=C34)CSC
InChI: InChI=1S/C19H26N2S/c1-3-7-21-11-13(12-22-2)8-16-15-5-4-6-17-19(15)14(10-20-17)9-18(16)21/h4-6,10,13,16,18,20H,3,7-9,11-12H2,1-2H3/t13-,16-,18-/m1/s1
Instrument: Agilent 1200 RRLC; Agilent 6520 QTOF
Instrument type: LC-ESI-QTOF
Ms type: MS2
Ion mode: POSITIVE
Collision energy: 20 ev
Column name: Agilent C8 Cartridge Column 2.1X30mm 3.5 micron (guard); Agilent SB-Aq 2.1x50mm 1.8 micron (analytical)
Retention time: 5.397
Base peak: 315
Precursor m/z: 315.1890
Precursor type: [M+H]+
m/z	relative intensity
100.1106	8
112.1117	20
127.0559	6
130.0649	30
154.0644	83
155.0751	15
156.0819	10
158.1045	5
165.0728	8
166.0761	6
167.0706	89
168.0797	30
169.0793	14
170.0939	24
172.1191	9
176.9878	6
179.083	32
180.0798	54
181.0923	20
182.0943	28
183.0932	6
191.0841	10
192.0768	15
193.0864	52
194.0987	11
195.1012	7
196.1108	76
198.1257	35
206.0973	8
208.1107	564
208.1477	19
208.175	11
208.2439	7
210.1245	71
211.1208	7
212.1277	14
225.1326	10
239.1506	5
244.1134	8
246.1287	8
256.1155	10
258.128	24
267.1815	60
313.1652	7
315.1871	999
