Mass spectrum: Kinetin; LC-ESI-QTOF; MS2; CE 10 ev; [M+H]+
Name: Kinetin
Formula: C10H9N5O
Exact mass: 215.08071
SMILES: C1=COC(=C1)CNC2=NC=NC3=C2NC=N3
InChI: InChI=1S/C10H9N5O/c1-2-7(16-3-1)4-11-9-8-10(13-5-12-8)15-6-14-9/h1-3,5-6H,4H2,(H2,11,12,13,14,15)
Instrument: Agilent 1200 RRLC; Agilent 6520 QTOF
Instrument type: LC-ESI-QTOF
Ms type: MS2
Ion mode: POSITIVE
Collision energy: 10 ev
Column name: Agilent C8 Cartridge Column 2.1X30mm 3.5 micron (guard); Agilent SB-Aq 2.1x50mm 1.8 micron (analytical)
Retention time: 4.405
Base peak: 216
Precursor m/z: 216.0880
Precursor type: [M+H]+
m/z	relative intensity
136.0611	30
148.061	525
148.0939	5
148.0975	10
148.1737	10
173.068	36
188.0914	98
198.0737	8
216.0866	999
