Mass spectrum: 6-Hydroxy-4-methylcoumarin, 6-Hydroxy-4-methyl-2-benzopyrone; LC-ESI-QTOF; MS2; CE 20 ev; [M+H]+
Name: 6-Hydroxy-4-methylcoumarin, 6-Hydroxy-4-methyl-2-benzopyrone
Formula: C10H8O3
Exact mass: 176.047344
SMILES: CC1=CC(=O)OC2=C1C=C(C=C2)O
InChI: InChI=1S/C10H8O3/c1-6-4-10(12)13-9-3-2-7(11)5-8(6)9/h2-5,11H,1H3
Instrument: Agilent 1200 RRLC; Agilent 6520 QTOF
Instrument type: LC-ESI-QTOF
Ms type: MS2
Ion mode: POSITIVE
Collision energy: 20 ev
Column name: Agilent C8 Cartridge Column 2.1X30mm 3.5 micron (guard); Agilent SB-Aq 2.1x50mm 1.8 micron (analytical)
Retention time: 4.820
Base peak: 121
Precursor m/z: 177.0546
Precursor type: [M+H]+
m/z	relative intensity
103.0541	697
105.0694	691
115.0549	178
116.9482	47
121.0645	999
121.0935	56
131.0487	148
147.0371	62
147.0459	73
148.0527	77
149.0569	186
177.0548	768
