Mass spectrum: 7-methoxy-4-methylcoumarin; LC-ESI-QTOF; MS2; CE 40 ev; [M+H]+
Name: 7-methoxy-4-methylcoumarin
Formula: C11H10O3
Exact mass: 190.062994
SMILES: CC1=CC(=O)OC2=C1C=CC(=C2)OC
InChI: InChI=1S/C11H10O3/c1-7-5-11(12)14-10-6-8(13-2)3-4-9(7)10/h3-6H,1-2H3
Instrument: Agilent 1200 RRLC; Agilent 6520 QTOF
Instrument type: LC-ESI-QTOF
Ms type: MS2
Ion mode: POSITIVE
Collision energy: 40 ev
Column name: Agilent C8 Cartridge Column 2.1X30mm 3.5 micron (guard); Agilent SB-Aq 2.1x50mm 1.8 micron (analytical)
Retention time: 6.772
Base peak: 103
Precursor m/z: 191.0703
Precursor type: [M+H]+
m/z	relative intensity
102.0459	162
103.0544	999
103.0817	32
104.0622	96
105.035	230
105.0696	288
107.0481	109
115.054	337
116.0623	59
118.0424	33
119.0488	188
120.0555	287
121.063	32
131.0487	294
132.0556	50
133.0259	56
135.0794	33
147.0422	118
148.0511	588
