Mass spectrum: Artemisinin; LC-ESI-QTOF; MS; POSITIVE
Name: Artemisinin
Formula: C15H22O5
Exact mass: 282.146724
SMILES: CC1CCC2C(C(=O)OC3C24C1CCC(O3)(OO4)C)C
InChI: InChI=1S/C15H22O5/c1-8-4-5-11-9(2)12(16)17-13-15(11)10(8)6-7-14(3,18-13)19-20-15/h8-11,13H,4-7H2,1-3H3
Instrument: Agilent 1200 RRLC; Agilent 6520 QTOF
Instrument type: LC-ESI-QTOF
Ms type: MS
Ion mode: POSITIVE
Column name: Agilent C8 Cartridge Column 2.1X30mm 3.5 micron (guard); Agilent SB-Aq 2.1x50mm 1.8 micron (analytical)
Retention time: 8.492
m/z	relative intensity
283.1539765	105
305.135918	999
