Mass spectrum: L-Cysteic acid; LC-ESI-QTOF; MS2; CE 10 ev; [M-H]-
Name: L-Cysteic acid
Formula: C3H7NO5S
Exact mass: 169.004493
SMILES: C(C(C(=O)O)N)S(=O)(=O)O
InChI: InChI=1S/C3H7NO5S/c4-2(3(5)6)1-10(7,8)9/h2H,1,4H2,(H,5,6)(H,7,8,9)
Instrument: Agilent 1200 RRLC; Agilent 6520 QTOF
Instrument type: LC-ESI-QTOF
Ms type: MS2
Ion mode: NEGATIVE
Collision energy: 10 ev
Column name: Agilent C8 Cartridge Column 2.1X30mm 3.5 micron (guard); Agilent SB-Aq 2.1x50mm 1.8 micron (analytical)
Retention time: 0.381
Base peak: 168
Precursor m/z: 167.9972
Precursor type: [M-H]-
m/z	relative intensity
106.9808	1
121.9915	4
122.9775	4
124.0258	1
129.0802	1
135.8507	1
149.9849	6
150.0219	1
150.9427	1
150.9704	310
151.0087	9
151.0556	2
151.0834	5
151.106	1
151.1228	1
151.1523	2
151.1705	1
151.2292	1
151.2544	1
151.2783	1
151.2995	1
151.3366	1
151.3705	1
151.4235	1
151.4496	2
151.472	1
151.4952	1
151.5565	1
151.6176	1
151.6519	2
151.7227	1
151.8841	1
166.9984	1
167.2384	3
167.9676	2
167.9969	999
