Mass spectrum: Chelidonine; LC-ESI-QTOF; MS2; CE 20 ev; [M+H]+
Name: Chelidonin
Name: (+)-Chelidonine
Name: [1,3]Benzodioxolo[5,6-c]-1,3-dioxolo[4,5-i]phenanthridin-6-ol, 5b,6,7,12b,13,14-hexahydro-13-methyl-, (5bR,6S,12bS)-
Formula: C20H19NO5
Exact mass: 353.126323
SMILES: CN1CC2=C(C=CC3=C2OCO3)[C@@H]4[C@H]1C5=CC6=C(C=C5C[C@@H]4O)OCO6
InChI: InChI=1S/C20H19NO5/c1-21-7-13-11(2-3-15-20(13)26-9-23-15)18-14(22)4-10-5-16-17(25-8-24-16)6-12(10)19(18)21/h2-3,5-6,14,18-19,22H,4,7-9H2,1H3/t14-,18-,19+/m0/s1
Instrument: Agilent 1200 RRLC; Agilent 6520 QTOF
Instrument type: LC-ESI-QTOF
Ms type: MS2
Ion mode: POSITIVE
Collision energy: 20 ev
Column name: Agilent C8 Cartridge Column 2.1X30mm 3.5 micron (guard); Agilent SB-Aq 2.1x50mm 1.8 micron (analytical)
Retention time: 4.576
Base peak: 275
Precursor m/z: 354.1336
Precursor type: [M+H]+
m/z	relative intensity
135.0428	118
143.0527	7
149.0257	11
149.058	9
159.0444	7
161.0615	41
163.0394	58
173.0575	21
176.0658	18
187.0363	7
188.0702	20
189.0668	37
207.078	12
217.0649	50
219.0765	7
235.0664	6
237.0925	12
245.0599	9
247.0737	171
247.1157	10
263.0684	8
265.0845	21
275.0684	999
275.1134	49
275.1511	15
275.1823	14
275.2222	14
275.2712	8
275.389	5
277.0826	10
293.0812	40
295.0785	11
295.0957	94
295.142	8
305.0781	268
305.1225	19
305.1531	6
307.0991	11
323.0874	203
323.1335	17
336.1183	80
336.1348	12
354.1308	222
