Mass spectrum: Paclitaxel; LC-ESI-QTOF; MS2; CE 10 ev; [M+H]+
Name: Paclitaxel
Formula: C47H51NO14
Exact mass: 853.330955
SMILES: CC1=C2C(C(=O)C3(C(CC4C(C3C(C(C2(C)C)(CC1OC(=O)C(C(C5=CC=CC=C5)NC(=O)C6=CC=CC=C6)O)O)OC(=O)C7=CC=CC=C7)(CO4)OC(=O)C)O)C)OC(=O)C
InChI: InChI=1S/C47H51NO14/c1-25-31(60-43(56)36(52)35(28-16-10-7-11-17-28)48-41(54)29-18-12-8-13-19-29)23-47(57)40(61-42(55)30-20-14-9-15-21-30)38-45(6,32(51)22-33-46(38,24-58-33)62-27(3)50)39(53)37(59-26(2)49)34(25)44(47,4)5/h7-21,31-33,35-38,40,51-52,57H,22-24H2,1-6H3,(H,48,54)
Instrument: Agilent 1200 RRLC; Agilent 6520 QTOF
Instrument type: LC-ESI-QTOF
Ms type: MS2
Ion mode: POSITIVE
Collision energy: 10 ev
Column name: Agilent C8 Cartridge Column 2.1X30mm 3.5 micron (guard); Agilent SB-Aq 2.1x50mm 1.8 micron (analytical)
Retention time: 9.620
Base peak: 286
Precursor m/z: 854.3383
Precursor type: [M+H]+
m/z	relative intensity
105.0333	148
122.0601	143
133.1043	43
151.1093	35
239.1412	50
240.0978	194
253.1587	37
263.1442	45
268.0919	245
273.1132	33
281.1467	77
286.1043	999
286.1405	35
291.1336	74
299.1598	54
309.1445	189
327.1579	226
329.1397	43
345.1664	35
369.1682	125
387.1802	111
390.1346	35
447.1968	50
449.1949	61
473.1884	33
491.1971	126
509.2132	616
509.2571	62
509.2821	38
551.2259	255
569.2324	447
655.2547	95
714.2905	38
716.2872	33
776.3085	190
854.337	165
