Mass spectrum: Dehydroabietylamine; LC-ESI-QTOF; MS2; CE 40 ev; [M+H]+
Name: Dehydroabietylamine
Formula: C20H31N
Exact mass: 285.24565
SMILES: CC(C)C1=CC2=C(C=C1)C3(CCCC(C3CC2)(C)CN)C
InChI: InChI=1S/C20H31N/c1-14(2)15-6-8-17-16(12-15)7-9-18-19(3,13-21)10-5-11-20(17,18)4/h6,8,12,14,18H,5,7,9-11,13,21H2,1-4H3
Instrument: Agilent 1200 RRLC; Agilent 6520 QTOF
Instrument type: LC-ESI-QTOF
Ms type: MS2
Ion mode: POSITIVE
Collision energy: 40 ev
Column name: Agilent C8 Cartridge Column 2.1X30mm 3.5 micron (guard); Agilent SB-Aq 2.1x50mm 1.8 micron (analytical)
Retention time: 8.340
Base peak: 131
Precursor m/z: 286.2529
Precursor type: [M+H]+
m/z	relative intensity
103.0489	41
105.068	24
115.0529	26
115.0595	37
116.0603	50
117.0683	172
127.0499	35
127.0582	34
128.0626	118
129.0688	174
130.0766	34
131.0839	999
131.119	30
131.1412	28
141.072	21
142.0799	30
143.0834	144
145.0947	34
157.1004	29
173.1309	123
185.1395	23
