Mass spectrum: Cyclocytidine; LC-ESI-QTOF; MS2; CE 10 ev; [M-H]-
Name: Cyclocytidine
Formula: C9H11N3O4
Exact mass: 225.074956
SMILES: C1=CN2C3C(C(C(O3)CO)O)OC2=NC1=N
InChI: InChI=1S/C9H11N3O4/c10-5-1-2-12-8-7(16-9(12)11-5)6(14)4(3-13)15-8/h1-2,4,6-8,10,13-14H,3H2
Instrument: Agilent 1200 RRLC; Agilent 6520 QTOF
Instrument type: LC-ESI-QTOF
Ms type: MS2
Ion mode: NEGATIVE
Collision energy: 10 ev
Column name: Agilent C8 Cartridge Column 2.1X30mm 3.5 micron (guard); Agilent SB-Aq 2.1x50mm 1.8 micron (analytical)
Retention time: 0.361
Base peak: 110
Precursor m/z: 224.0677
Precursor type: [M-H]-
m/z	relative intensity
109.0402	83
110.0374	999
110.0643	55
121.0383	202
122.0244	51
125.1657	55
134.0379	471
141.0163	530
148.0551	255
151.0539	91
152.0458	79
162.9932	77
164.0447	75
164.8369	59
166.0657	53
181.0616	455
205.0895	44
206.0529	42
223.0235	174
223.8435	57
224.0673	168
