Mass spectrum: Theobromine; LC-ESI-QTOF; MS2; CE 10 ev; [M+H]+
Name: Theobromine
Formula: C7H8N4O2
Exact mass: 180.064726
SMILES: CN1C=NC2=C1C(=O)NC(=O)N2C
InChI: InChI=1S/C7H8N4O2/c1-10-3-8-5-4(10)6(12)9-7(13)11(5)2/h3H,1-2H3,(H,9,12,13)
Instrument: Agilent 1200 RRLC; Agilent 6520 QTOF
Instrument type: LC-ESI-QTOF
Ms type: MS2
Ion mode: POSITIVE
Collision energy: 10 ev
Column name: Agilent C8 Cartridge Column 2.1X30mm 3.5 micron (guard); Agilent SB-Aq 2.1x50mm 1.8 micron (analytical)
Retention time: 2.641
Base peak: 181
Precursor m/z: 181.0720
Precursor type: [M+H]+
m/z	relative intensity
137.0806	25
138.0666	233
163.0563	72
181.0704	999
181.113	25
