Mass spectrum: Animicin A; LC-ESI-QTOF; MS2; CE 40 ev; [M-H]-
Name: Animicin A
Formula: C28H40N2O9
Exact mass: 548.273381
SMILES: CCCCCCC1C(C(OC(=O)C(C(OC1=O)C)NC(=O)C2=C(C(=CC=C2)NC=O)O)C)OC(=O)CC(C)C
InChI: InChI=1S/C28H40N2O9/c1-6-7-8-9-11-20-25(39-22(32)14-16(2)3)18(5)38-28(36)23(17(4)37-27(20)35)30-26(34)19-12-10-13-21(24(19)33)29-15-31/h10,12-13,15-18,20,23,25,33H,6-9,11,14H2,1-5H3,(H,29,31)(H,30,34)
Instrument: Agilent 1200 RRLC; Agilent 6520 QTOF
Instrument type: LC-ESI-QTOF
Ms type: MS2
Ion mode: NEGATIVE
Collision energy: 40 ev
Column name: Agilent C8 Cartridge Column 2.1X30mm 3.5 micron (guard); Agilent SB-Aq 2.1x50mm 1.8 micron (analytical)
Retention time: 11.631
Base peak: 191
Precursor m/z: 547.2661
Precursor type: [M-H]-
m/z	relative intensity
100.0403	13
101.0601	372
101.0882	12
101.1049	5
101.1178	4
101.1293	2
101.1535	6
101.2229	1
104.1989	2
107.034	2
107.0449	2
108.0444	117
108.075	4
108.0923	3
108.1422	2
108.6811	2
112.0038	2
117.0455	63
118.0319	3
118.7094	2
126.0184	2
129.0466	2
129.0932	2
130.0657	4
133.0401	139
133.0735	5
133.1018	2
133.1492	2
134.0224	1
134.7712	3
135.0346	5
136.0387	29
137.9184	2
145.0771	14
145.1025	2
146.0622	3
151.0565	4
155.0582	5
158.0497	4
158.0604	2
161.0346	312
161.0717	13
161.0926	2
161.122	3
161.1525	4
161.2114	2
161.3628	2
161.3961	2
162.0363	1
162.0492	4
163.0266	3
163.0619	9
164.0706	8
171.0562	4
172.0588	2
173.0718	98
173.1135	5
173.1924	2
175.0097	1
175.0293	5
175.0493	3
180.0274	6
186.5974	1
189.0649	8
190.0354	5
190.0728	41
190.1137	2
191.0816	999
191.1132	3
191.1244	30
191.1466	11
191.178	2
191.2096	13
191.2476	3
191.275	2
191.2961	4
191.35	5
191.3909	4
191.4241	2
191.4506	2
191.4711	2
191.5255	3
191.5654	5
191.5893	2
191.6078	2
191.6497	2
191.7117	3
191.7671	3
191.7959	2
191.8454	2
191.9458	3
191.9762	1
192.01	2
192.083	6
192.15	2
192.2219	2
192.315	2
192.4301	2
192.467	2
201.0685	5
203.0486	4
208.1318	2
216.0585	2
216.9993	2
217.062	31
218.031	5
218.0676	14
218.0914	2
219.0764	161
219.1154	8
219.1421	4
219.2144	2
219.2366	2
234.0649	11
235.0706	2
244.0502	5
245.0563	31
245.096	2
262.0552	8
262.0757	2
263.0661	9
283.1853	2
311.1999	2
329.2235	9
357.2171	2
373.2118	4
397.2386	2
401.2113	13
401.2643	1
407.549	1
408.1575	2
