Mass spectrum: Cryptopine; LC-ESI-QTOF; MS2; CE 40 ev; [M+H]+
Name: Cryptopine
Formula: C21H23NO5
Exact mass: 369.157623
SMILES: CN1CCC2=CC(=C(C=C2C(=O)CC3=C(C1)C4=C(C=C3)OCO4)OC)OC
InChI: InChI=1S/C21H23NO5/c1-22-7-6-14-9-19(24-2)20(25-3)10-15(14)17(23)8-13-4-5-18-21(16(13)11-22)27-12-26-18/h4-5,9-10H,6-8,11-12H2,1-3H3
Instrument: Agilent 1200 RRLC; Agilent 6520 QTOF
Instrument type: LC-ESI-QTOF
Ms type: MS2
Ion mode: POSITIVE
Collision energy: 40 ev
Column name: Agilent C8 Cartridge Column 2.1X30mm 3.5 micron (guard); Agilent SB-Aq 2.1x50mm 1.8 micron (analytical)
Retention time: 4.487
Base peak: 204
Precursor m/z: 370.1649
Precursor type: [M+H]+
m/z	relative intensity
105.0644	112
107.0479	112
135.0451	155
147.0456	112
150.0641	112
161.0856	102
165.0879	126
190.083	679
204.0993	999
205.0672	131
223.0775	102
225.0864	126
252.0823	102
263.1075	116
265.0855	218
277.0864	97
306.1041	136
