Mass spectrum: (+)-(4,6-O-Benzylidene)methyl-alpha-D-glucopyranoside; LC-ESI-QTOF; MS; POSITIVE
Name: (+)-(4,6-O-Benzylidene)methyl-alpha-D-glucopyranoside
Formula: C14H18O6
Exact mass: 282.110338
SMILES: COC1C(C(C2C(O1)COC(O2)C3=CC=CC=C3)O)O
InChI: InChI=1S/C14H18O6/c1-17-14-11(16)10(15)12-9(19-14)7-18-13(20-12)8-5-3-2-4-6-8/h2-6,9-16H,7H2,1H3
Instrument: Agilent 1200 RRLC; Agilent 6520 QTOF
Instrument type: LC-ESI-QTOF
Ms type: MS
Ion mode: POSITIVE
Column name: Agilent C8 Cartridge Column 2.1X30mm 3.5 micron (guard); Agilent SB-Aq 2.1x50mm 1.8 micron (analytical)
Retention time: 5.271
m/z	relative intensity
283.1175765	370
305.099518	999
