Mass spectrum: trans-Zeatin; LC-ESI-QTOF; MS2; CE 10 ev; [M-H]-
Name: trans-Zeatin
Formula: C10H13N5O
Exact mass: 219.11201
SMILES: C/C(=C\CNC1=NC=NC2=C1NC=N2)/CO
InChI: InChI=1S/C10H13N5O/c1-7(4-16)2-3-11-9-8-10(13-5-12-8)15-6-14-9/h2,5-6,16H,3-4H2,1H3,(H2,11,12,13,14,15)/b7-2+
Instrument: Agilent 1200 RRLC; Agilent 6520 QTOF
Instrument type: LC-ESI-QTOF
Ms type: MS2
Ion mode: NEGATIVE
Collision energy: 10 ev
Column name: Agilent C8 Cartridge Column 2.1X30mm 3.5 micron (guard); Agilent SB-Aq 2.1x50mm 1.8 micron (analytical)
Retention time: 3.241
Base peak: 218
Precursor m/z: 218.1047
Precursor type: [M-H]-
m/z	relative intensity
100.8625	6
104.999	6
106.0281	8
107.0346	10
133.0373	52
134.0395	6
134.047	391
134.0796	15
134.1545	8
137.3672	10
173.0133	12
188.0943	152
188.1119	8
188.133	9
200.0939	214
200.1373	12
216.9971	6
217.9687	6
218.0063	13
218.1038	999
