Mass spectrum: 5-Bromo-2'-deoxyuridine; LC-APCI-QTOF; MS; NEGATIVE
Name: 5-Bromo-2'-deoxyuridine
Formula: C9H11BrN2O5
Exact mass: 305.985134
SMILES: C1C(C(OC1N2C=C(C(=O)NC2=O)Br)CO)O
InChI: InChI=1S/C9H11BrN2O5/c10-4-2-12(9(16)11-8(4)15)7-1-5(14)6(3-13)17-7/h2,5-7,13-14H,1,3H2,(H,11,15,16)
Instrument: Agilent 1200 RRLC; Agilent 6520 QTOF
Instrument type: LC-APCI-QTOF
Ms type: MS
Ion mode: NEGATIVE
Column name: Agilent C8 Cartridge Column 2.1X30mm 3.5 micron (guard); Agilent SB-Aq 2.1x50mm 1.8 micron (analytical)
Retention time: 1.728
m/z	relative intensity
304.9778235	999
