Mass spectrum: N2-Isobutyryl-2'-deoxyguanosine; LC-ESI-QTOF; MS2; CE 20 ev; [M+H]+
Name: N2-Isobutyryl-2'-deoxyguanosine
Formula: C14H19N5O5
Exact mass: 337.138619
SMILES: CC(C)C(=O)NC1=NC(=O)C2=C(N1)N(C=N2)[C@H]3C[C@@H]([C@H](O3)CO)O
InChI: InChI=1S/C14H19N5O5/c1-6(2)12(22)17-14-16-11-10(13(23)18-14)15-5-19(11)9-3-7(21)8(4-20)24-9/h5-9,20-21H,3-4H2,1-2H3,(H2,16,17,18,22,23)/t7-,8+,9+/m0/s1
Instrument: Agilent 1200 RRLC; Agilent 6520 QTOF
Instrument type: LC-ESI-QTOF
Ms type: MS2
Ion mode: POSITIVE
Collision energy: 20 ev
Column name: Agilent C8 Cartridge Column 2.1X30mm 3.5 micron (guard); Agilent SB-Aq 2.1x50mm 1.8 micron (analytical)
Retention time: 4.324
Base peak: 222
Precursor m/z: 338.1459
Precursor type: [M+H]+
m/z	relative intensity
117.0541	79
135.0282	37
152.0564	608
152.0905	24
152.1103	12
204.0873	115
222.0982	999
222.1389	47
222.2327	7
