Mass spectrum: Adenosine 5'-succinate; LC-ESI-QTOF; MS; NEGATIVE
Name: Adenosine 5'-succinate
Formula: C14H17N5O7
Exact mass: 367.112798
SMILES: C1=NC2=C(C(=N1)N)N=CN2C3C(C(C(O3)COC(=O)CCC(=O)O)O)O
InChI: InChI=1S/C14H17N5O7/c15-12-9-13(17-4-16-12)19(5-18-9)14-11(24)10(23)6(26-14)3-25-8(22)2-1-7(20)21/h4-6,10-11,14,23-24H,1-3H2,(H,20,21)(H2,15,16,17)
Instrument: Agilent 1200 RRLC; Agilent 6520 QTOF
Instrument type: LC-ESI-QTOF
Ms type: MS
Ion mode: NEGATIVE
Column name: Agilent C8 Cartridge Column 2.1X30mm 3.5 micron (guard); Agilent SB-Aq 2.1x50mm 1.8 micron (analytical)
Retention time: 3.073
m/z	relative intensity
366.1055235	999
