Mass spectrum: Capensine; LC-ESI-QTOF; MS; POSITIVE
Name: Capensine
Formula: C15H16O5
Exact mass: 276.099774
SMILES: CC(=CCOC1=C(C=C2C=CC(=O)OC2=C1O)OC)C
InChI: InChI=1S/C15H16O5/c1-9(2)6-7-19-15-11(18-3)8-10-4-5-12(16)20-14(10)13(15)17/h4-6,8,17H,7H2,1-3H3
Instrument: Agilent 1200 RRLC; Agilent 6520 QTOF
Instrument type: LC-ESI-QTOF
Ms type: MS
Ion mode: POSITIVE
Column name: Agilent C8 Cartridge Column 2.1X30mm 3.5 micron (guard); Agilent SB-Aq 2.1x50mm 1.8 micron (analytical)
Retention time: 7.744
m/z	relative intensity
277.1070765	335
299.089018	999
