Mass spectrum: Ketoprofen; LC-ESI-QTOF; MS2; CE 20 ev; [M+H]+
Name: Ketoprofen
Formula: C16H14O3
Exact mass: 254.094294
SMILES: CC(C1=CC=CC(=C1)C(=O)C2=CC=CC=C2)C(=O)O
InChI: InChI=1S/C16H14O3/c1-11(16(18)19)13-8-5-9-14(10-13)15(17)12-6-3-2-4-7-12/h2-11H,1H3,(H,18,19)
Instrument: Agilent 1200 RRLC; Agilent 6520 QTOF
Instrument type: LC-ESI-QTOF
Ms type: MS2
Ion mode: POSITIVE
Collision energy: 20 ev
Column name: Agilent C8 Cartridge Column 2.1X30mm 3.5 micron (guard); Agilent SB-Aq 2.1x50mm 1.8 micron (analytical)
Retention time: 7.850
Base peak: 105
Precursor m/z: 255.1016
Precursor type: [M+H]+
m/z	relative intensity
103.0538	27
105.0333	999
105.0537	23
105.1284	15
131.0486	64
149.0609	14
176.9844	43
177.0536	125
181.1012	11
194.0705	96
209.0938	276
209.1319	12
