Mass spectrum: 2',6-Dihydroxyflavone; LC-ESI-QTOF; MS2; CE 20 ev; [M+H]+
Name: 2',6-Dihydroxyflavone
Formula: C15H10O4
Exact mass: 254.057909
SMILES: C1=CC=C(C(=C1)C2=CC(=O)C3=C(O2)C=CC(=C3)O)O
InChI: InChI=1S/C15H10O4/c16-9-5-6-14-11(7-9)13(18)8-15(19-14)10-3-1-2-4-12(10)17/h1-8,16-17H
Instrument: Agilent 1200 RRLC; Agilent 6520 QTOF
Instrument type: LC-ESI-QTOF
Ms type: MS2
Ion mode: POSITIVE
Collision energy: 20 ev
Column name: Agilent C8 Cartridge Column 2.1X30mm 3.5 micron (guard); Agilent SB-Aq 2.1x50mm 1.8 micron (analytical)
Retention time: 7.448
Base peak: 255
Precursor m/z: 255.0652
Precursor type: [M+H]+
m/z	relative intensity
101.0409	6
109.0275	16
115.0545	8
119.0478	29
121.0283	20
128.0666	5
129.0667	6
137.0227	382
137.0583	16
153.0677	28
165.0695	20
176.9883	29
181.0631	26
199.0786	7
211.0708	6
227.0722	15
255.0646	999
255.1099	48
255.1443	16
255.2116	10
