Mass spectrum: Etoposide; LC-ESI-QTOF; MS2; CE 20 ev; [M+H]+
Name: Etoposide
Formula: C29H32O13
Exact mass: 588.184291
SMILES: CC1OCC2C(O1)C(C(C(O2)OC3C4COC(=O)C4C(C5=CC6=C(C=C35)OCO6)C7=CC(=C(C(=C7)OC)O)OC)O)O
InChI: InChI=1S/C29H32O13/c1-11-36-9-20-27(40-11)24(31)25(32)29(41-20)42-26-14-7-17-16(38-10-39-17)6-13(14)21(22-15(26)8-37-28(22)33)12-4-18(34-2)23(30)19(5-12)35-3/h4-7,11,15,20-22,24-27,29-32H,8-10H2,1-3H3
Instrument: Agilent 1200 RRLC; Agilent 6520 QTOF
Instrument type: LC-ESI-QTOF
Ms type: MS2
Ion mode: POSITIVE
Collision energy: 20 ev
Column name: Agilent C8 Cartridge Column 2.1X30mm 3.5 micron (guard); Agilent SB-Aq 2.1x50mm 1.8 micron (analytical)
Retention time: 7.135
Base peak: 229
Precursor m/z: 589.1916
Precursor type: [M+H]+
m/z	relative intensity
115.06	50
127.0426	36
143.0408	24
154.0571	27
173.0583	22
185.0587	630
185.098	17
199.0373	24
229.0464	999
229.085	64
229.1232	17
247.06	91
248.0572	32
299.0996	35
305.0774	17
