Mass spectrum: 8-Geranyloxy psoralen; LC-ESI-QTOF; MS2; CE 10 ev; [M+H]+
Name: 8-Geranyloxy psoralen
Name: Xanthotoxol geranyl ether
Formula: C21H22O4
Exact mass: 338.151809
SMILES: CC(=CCCC(=CCOC1=C2C(=CC3=C1OC=C3)C=CC(=O)O2)C)C
InChI: InChI=1S/C21H22O4/c1-14(2)5-4-6-15(3)9-11-24-21-19-17(10-12-23-19)13-16-7-8-18(22)25-20(16)21/h5,7-10,12-13H,4,6,11H2,1-3H3
Instrument: Agilent 1200 RRLC; Agilent 6520 QTOF
Instrument type: LC-ESI-QTOF
Ms type: MS2
Ion mode: POSITIVE
Collision energy: 10 ev
Column name: Agilent C8 Cartridge Column 2.1X30mm 3.5 micron (guard); Agilent SB-Aq 2.1x50mm 1.8 micron (analytical)
Retention time: 10.700
Base peak: 137
Precursor m/z: 339.1591
Precursor type: [M+H]+
m/z	relative intensity
137.1305	999
203.0321	385
229.053	88
243.0663	235
283.0851	71
