Mass spectrum: Methylergometrine; LC-ESI-QTOF; MS2; CE 20 ev; [M+H]+
Name: Methylergometrine
Formula: C20H25N3O2
Exact mass: 339.194677
SMILES: CCC(CO)NC(=O)C1CN(C2CC3=CNC4=CC=CC(=C34)C2=C1)C
InChI: InChI=1S/C20H25N3O2/c1-3-14(11-24)22-20(25)13-7-16-15-5-4-6-17-19(15)12(9-21-17)8-18(16)23(2)10-13/h4-7,9,13-14,18,21,24H,3,8,10-11H2,1-2H3,(H,22,25)
Instrument: Agilent 1200 RRLC; Agilent 6520 QTOF
Instrument type: LC-ESI-QTOF
Ms type: MS2
Ion mode: POSITIVE
Collision energy: 20 ev
Column name: Agilent C8 Cartridge Column 2.1X30mm 3.5 micron (guard); Agilent SB-Aq 2.1x50mm 1.8 micron (analytical)
Retention time: 3.317
Base peak: 208
Precursor m/z: 340.2020
Precursor type: [M+H]+
m/z	relative intensity
126.0868	27
144.1031	16
152.061	13
154.0612	14
164.0652	16
168.0858	15
180.0782	324
182.0766	15
182.0884	24
191.07	23
192.0765	26
192.0882	17
194.0922	59
196.1058	15
197.1063	182
207.0627	40
207.0886	57
208.0738	999
208.1189	29
208.146	31
208.2075	13
210.0871	12
221.1071	29
223.1218	693
223.1657	26
224.0939	66
225.0996	124
225.1102	15
225.1397	15
250.1362	11
251.1137	73
251.1517	37
269.124	60
279.1503	61
295.152	13
297.1572	448
297.2083	27
309.1597	22
322.1899	35
325.1703	24
340.1985	304
