Mass spectrum: Picrotoxinin; LC-ESI-QTOF; MS2; CE 40 ev; [M-H]-
Name: Picrotoxinin
Formula: C15H16O6
Exact mass: 292.094688
SMILES: CC(=C)C1C2C3C4(C(C1C(=O)O2)(CC5C4(O5)C(=O)O3)O)C
InChI: InChI=1S/C15H16O6/c1-5(2)7-8-11(16)19-9(7)10-13(3)14(8,18)4-6-15(13,21-6)12(17)20-10/h6-10,18H,1,4H2,2-3H3
Instrument: Agilent 1200 RRLC; Agilent 6520 QTOF
Instrument type: LC-ESI-QTOF
Ms type: MS2
Ion mode: NEGATIVE
Collision energy: 40 ev
Column name: Agilent C8 Cartridge Column 2.1X30mm 3.5 micron (guard); Agilent SB-Aq 2.1x50mm 1.8 micron (analytical)
Retention time: 4.208
Base peak: 109
Precursor m/z: 291.0874
Precursor type: [M-H]-
m/z	relative intensity
107.0487	13
108.0196	58
109.0292	999
109.0493	40
109.0623	38
109.086	19
109.1284	15
109.2596	12
111.0461	32
113.0906	11
117.0431	11
119.0901	37
122.0329	16
123.0465	33
133.0301	13
133.0595	13
144.3754	18
145.0666	17
147.0762	20
157.0963	12
157.8198	15
158.0447	12
158.0772	15
174.4565	17
174.6426	18
180.5305	16
182.8904	14
221.1833	18
236.5284	14
266.8935	10
