Mass spectrum: Rubone; LC-ESI-QTOF; MS2; CE 10 ev; [M+H]+
Name: Rubone
Formula: C20H22O7
Exact mass: 374.136553
SMILES: COC1=CC(=C(C(=C1)OC)C(=O)C=CC2=CC(=C(C=C2OC)OC)OC)O
InChI: InChI=1S/C20H22O7/c1-23-13-9-15(22)20(19(10-13)27-5)14(21)7-6-12-8-17(25-3)18(26-4)11-16(12)24-2/h6-11,22H,1-5H3
Instrument: Agilent 1200 RRLC; Agilent 6520 QTOF
Instrument type: LC-ESI-QTOF
Ms type: MS2
Ion mode: POSITIVE
Collision energy: 10 ev
Column name: Agilent C8 Cartridge Column 2.1X30mm 3.5 micron (guard); Agilent SB-Aq 2.1x50mm 1.8 micron (analytical)
Retention time: 10.184
Base peak: 375
Precursor m/z: 375.1439
Precursor type: [M+H]+
m/z	relative intensity
166.0218	18
181.0494	649
181.0857	30
206.0579	63
221.0787	690
221.1217	25
375.1412	999
