Mass spectrum: (-)-Menthyl lactate; LC-ESI-QTOF; MS; POSITIVE
Name: (-)-Menthyl lactate
Formula: C13H24O3
Exact mass: 228.172545
SMILES: C[C@@H]1CC[C@H]([C@@H](C1)OC(=O)C(C)O)C(C)C
InChI: InChI=1S/C13H24O3/c1-8(2)11-6-5-9(3)7-12(11)16-13(15)10(4)14/h8-12,14H,5-7H2,1-4H3/t9-,10?,11+,12-/m1/s1
Instrument: Agilent 1200 RRLC; Agilent 6520 QTOF
Instrument type: LC-ESI-QTOF
Ms type: MS
Ion mode: POSITIVE
Column name: Agilent C8 Cartridge Column 2.1X30mm 3.5 micron (guard); Agilent SB-Aq 2.1x50mm 1.8 micron (analytical)
Retention time: 9.576
m/z	relative intensity
251.161718	999
