Mass spectrum: Lagochiline; LC-ESI-QTOF; MS; NEGATIVE
Name: Lagochiline
Formula: C20H36O5
Exact mass: 356.256274
SMILES: CC1CCC2C(C13CCC(O3)(CCO)CO)(CCC(C2(C)CO)O)C
InChI: InChI=1S/C20H36O5/c1-14-4-5-15-17(2,12-22)16(24)6-7-18(15,3)20(14)9-8-19(13-23,25-20)10-11-21/h14-16,21-24H,4-13H2,1-3H3
Instrument: Agilent 1200 RRLC; Agilent 6520 QTOF
Instrument type: LC-ESI-QTOF
Ms type: MS
Ion mode: NEGATIVE
Column name: Agilent C8 Cartridge Column 2.1X30mm 3.5 micron (guard); Agilent SB-Aq 2.1x50mm 1.8 micron (analytical)
Retention time: 8.415
m/z	relative intensity
415.269604	999
