Mass spectrum: 8-Chlro-1-tetrahydronorharmanone; LC-ESI-QTOF; MS2; CE 20 ev; [M+H]+
Name: 8-Chlro-1-tetrahydronorharmanone
Formula: C11H9ClN2O
Exact mass: 220.040341
SMILES: C1CNC(=O)C2=C1C3=C(N2)C(=CC=C3)Cl
InChI: InChI=1S/C11H9ClN2O/c12-8-3-1-2-6-7-4-5-13-11(15)10(7)14-9(6)8/h1-3,14H,4-5H2,(H,13,15)
Instrument: Agilent 1200 RRLC; Agilent 6520 QTOF
Instrument type: LC-ESI-QTOF
Ms type: MS2
Ion mode: POSITIVE
Collision energy: 20 ev
Column name: Agilent C8 Cartridge Column 2.1X30mm 3.5 micron (guard); Agilent SB-Aq 2.1x50mm 1.8 micron (analytical)
Retention time: 7.065
Base peak: 158
Precursor m/z: 221.0476
Precursor type: [M+H]+
m/z	relative intensity
130.0658	131
131.0735	149
140.0508	30
141.0569	35
143.0716	114
149.0139	30
156.0677	48
157.0748	127
158.0838	999
158.1216	41
164.0229	167
166.041	386
176.025	119
178.0394	103
178.0463	41
192.0168	47
192.0419	166
193.0515	579
203.037	59
204.0168	56
221.0468	265
