Mass spectrum: (1,2,9,10-tetramethoxy-6-methyl-5,6,6a,7-tetrahydro-4H-dibenzo[de,g]quinolin-3-yl)methanol; LC-ESI-QTOF; MS2; CE 20 ev; [M+H]+
Name: (1,2,9,10-tetramethoxy-6-methyl-5,6,6a,7-tetrahydro-4H-dibenzo[de,g]quinolin-3-yl)methanol
Formula: C22H27NO5
Exact mass: 385.188923
SMILES: CN1CCC2=C(C(=C(C3=C2C1CC4=CC(=C(C=C43)OC)OC)OC)OC)CO
InChI: InChI=1S/C22H27NO5/c1-23-7-6-13-15(11-24)21(27-4)22(28-5)20-14-10-18(26-3)17(25-2)9-12(14)8-16(23)19(13)20/h9-10,16,24H,6-8,11H2,1-5H3
Instrument: Agilent 1200 RRLC; Agilent 6520 QTOF
Instrument type: LC-ESI-QTOF
Ms type: MS2
Ion mode: POSITIVE
Collision energy: 20 ev
Column name: Agilent C8 Cartridge Column 2.1X30mm 3.5 micron (guard); Agilent SB-Aq 2.1x50mm 1.8 micron (analytical)
Retention time: 4.971
Base peak: 325
Precursor m/z: 386.1962
Precursor type: [M+H]+
m/z	relative intensity
247.0856	52
251.0982	29
268.0964	29
278.1265	36
279.1014	79
291.0969	54
292.0987	26
294.1239	335
295.0923	70
305.1409	125
306.1197	266
306.1575	40
308.141	231
309.1514	34
310.1184	262
311.1194	35
322.1044	40
322.1249	125
324.1333	100
325.1432	999
325.1892	83
337.145	237
337.1779	73
338.1364	65
339.1577	74
353.1617	53
368.1894	472
386.1885	32
