Mass spectrum: 6-Ethoxy-3(4'-hydroxyphenyl)-4-methylcoumarin; LC-APCI-QTOF; MS; NEGATIVE
Name: 6-Ethoxy-3(4'-hydroxyphenyl)-4-methylcoumarin
Formula: C18H16O4
Exact mass: 296.104859
SMILES: CCOC1=CC2=C(C=C1)OC(=O)C(=C2C)C3=CC=C(C=C3)O
InChI: InChI=1S/C18H16O4/c1-3-21-14-8-9-16-15(10-14)11(2)17(18(20)22-16)12-4-6-13(19)7-5-12/h4-10,19H,3H2,1-2H3
Instrument: Agilent 1200 RRLC; Agilent 6520 QTOF
Instrument type: LC-APCI-QTOF
Ms type: MS
Ion mode: NEGATIVE
Column name: Agilent C8 Cartridge Column 2.1X30mm 3.5 micron (guard); Agilent SB-Aq 2.1x50mm 1.8 micron (analytical)
Retention time: 8.668
m/z	relative intensity
295.0976235	999
