Mass spectrum: Anisomycin; LC-ESI-QTOF; MS2; CE 20 ev; [M+H]+
Name: Anisomycin
Formula: C14H19NO4
Exact mass: 265.131408
SMILES: CC(=O)OC1C(CNC1CC2=CC=C(C=C2)OC)O
InChI: InChI=1S/C14H19NO4/c1-9(16)19-14-12(15-8-13(14)17)7-10-3-5-11(18-2)6-4-10/h3-6,12-15,17H,7-8H2,1-2H3
Instrument: Agilent 1200 RRLC; Agilent 6520 QTOF
Instrument type: LC-ESI-QTOF
Ms type: MS2
Ion mode: POSITIVE
Collision energy: 20 ev
Column name: Agilent C8 Cartridge Column 2.1X30mm 3.5 micron (guard); Agilent SB-Aq 2.1x50mm 1.8 micron (analytical)
Retention time: 2.846
Base peak: 121
Precursor m/z: 266.1387
Precursor type: [M+H]+
m/z	relative intensity
114.9453	14
115.0532	8
117.0725	8
118.0668	8
119.0542	6
121.0644	999
121.0959	25
121.101	12
121.1168	13
121.1364	8
121.166	15
132.0414	8
132.0594	7
136.0714	7
144.0559	51
145.0633	30
147.0766	41
149.091	18
150.0911	24
158.0576	7
159.0711	8
159.0794	62
159.101	7
161.0939	24
162.0875	7
163.0736	7
163.0963	6
171.0774	22
173.0775	18
176.1012	13
177.0825	7
188.105	64
189.0875	17
206.1158	189
206.1546	7
206.1814	6
224.123	36
266.1274	7
266.14	23
