Mass spectrum: 3',7-Dimethoxy-3-hydroxyflavone; LC-ESI-QTOF; MS2; CE 20 ev; [M+H]+
Name: 3',7-Dimethoxy-3-hydroxyflavone
Formula: C17H14O5
Exact mass: 298.084124
SMILES: COC1=CC2=C(C=C1)C(=O)C(=C(O2)C3=CC(=CC=C3)OC)O
InChI: InChI=1S/C17H14O5/c1-20-11-5-3-4-10(8-11)17-16(19)15(18)13-7-6-12(21-2)9-14(13)22-17/h3-9,19H,1-2H3
Instrument: Agilent 1200 RRLC; Agilent 6520 QTOF
Instrument type: LC-ESI-QTOF
Ms type: MS2
Ion mode: POSITIVE
Collision energy: 20 ev
Column name: Agilent C8 Cartridge Column 2.1X30mm 3.5 micron (guard); Agilent SB-Aq 2.1x50mm 1.8 micron (analytical)
Retention time: 9.542
Base peak: 299
Precursor m/z: 299.0914
Precursor type: [M+H]+
m/z	relative intensity
118.0451	23
135.0448	31
137.0628	32
151.0362	47
213.0579	32
228.0748	41
256.0704	142
267.0631	20
284.0651	115
284.0848	20
299.0895	999
