Mass spectrum: 5'-Iodo-5'-deoxyadenosine; LC-ESI-QTOF; MS2; CE 10 ev; [M+H]+
Name: 5'-Iodo-5'-deoxyadenosine
Formula: C10H12IN5O3
Exact mass: 376.998487
SMILES: C1=NC2=C(C(=N1)N)N=CN2C3C(C(C(O3)CI)O)O
InChI: InChI=1S/C10H12IN5O3/c11-1-4-6(17)7(18)10(19-4)16-3-15-5-8(12)13-2-14-9(5)16/h2-4,6-7,10,17-18H,1H2,(H2,12,13,14)
Instrument: Agilent 1200 RRLC; Agilent 6520 QTOF
Instrument type: LC-ESI-QTOF
Ms type: MS2
Ion mode: POSITIVE
Collision energy: 10 ev
Column name: Agilent C8 Cartridge Column 2.1X30mm 3.5 micron (guard); Agilent SB-Aq 2.1x50mm 1.8 micron (analytical)
Retention time: 3.690
Base peak: 136
Precursor m/z: 378.0058
Precursor type: [M+H]+
m/z	relative intensity
136.0613	999
136.098	33
136.1156	16
136.1666	12
378.0055	279
378.048	15
378.0718	12
