Mass spectrum: 3-{[(7-methoxy-2-oxochromen-4-yl)methyl]methylamino}propanenitrile; LC-ESI-QTOF; MS2; CE 40 ev; [M+H]+
Name: 3-{[(7-methoxy-2-oxochromen-4-yl)methyl]methylamino}propanenitrile
Formula: C15H16N2O3
Exact mass: 272.116092
SMILES: CN(CCC#N)CC1=CC(=O)OC2=C1C=CC(=C2)OC
InChI: InChI=1S/C15H16N2O3/c1-17(7-3-6-16)10-11-8-15(18)20-14-9-12(19-2)4-5-13(11)14/h4-5,8-9H,3,7,10H2,1-2H3
Instrument: Agilent 1200 RRLC; Agilent 6520 QTOF
Instrument type: LC-ESI-QTOF
Ms type: MS2
Ion mode: POSITIVE
Collision energy: 40 ev
Column name: Agilent C8 Cartridge Column 2.1X30mm 3.5 micron (guard); Agilent SB-Aq 2.1x50mm 1.8 micron (analytical)
Retention time: 6.978
Base peak: 161
Precursor m/z: 273.1234
Precursor type: [M+H]+
m/z	relative intensity
102.0468	912
103.0538	269
105.0686	307
107.0473	247
109.0685	65
115.0533	491
116.0623	155
117.0661	79
117.0708	100
118.0403	480
121.065	722
127.0559	187
128.0578	81
130.0373	84
130.0429	155
131.0474	133
132.0529	87
132.059	258
133.0641	630
133.0874	54
135.0803	301
144.0578	163
144.0786	147
145.0638	671
146.0371	255
146.0605	81
147.0489	79
147.0798	263
148.0535	90
148.0699	71
150.0934	258
160.0507	220
160.0746	125
161.059	999
161.0876	111
162.0506	119
162.0638	60
162.0889	103
163.0747	242
172.0771	106
173.0576	198
173.0821	79
174.0556	149
175.0755	657
176.112	57
177.0527	141
178.0871	152
189.0748	290
204.1018	239
