Mass spectrum: Aspidocarpine; LC-ESI-QTOF; MS2; CE 10 ev; [M+H]+
Name: Aspidocarpine
Name: 8-acetyl-12-ethyl-6-hydroxy-5-methoxy-8,16-diazapentacyclo[10.6.1.0<1,9>.0<2,7>.0<16,19>]nonadeca-2(7),3,5-triene
Formula: C22H30N2O3
Exact mass: 370.225643
SMILES: CCC12CCCN3C1C4(CC3)C(CC2)N(C5=C4C=CC(=C5O)OC)C(=O)C
InChI: InChI=1S/C22H30N2O3/c1-4-21-9-5-12-23-13-11-22(20(21)23)15-6-7-16(27-3)19(26)18(15)24(14(2)25)17(22)8-10-21/h6-7,17,20,26H,4-5,8-13H2,1-3H3
Instrument: Agilent 1200 RRLC; Agilent 6520 QTOF
Instrument type: LC-ESI-QTOF
Ms type: MS2
Ion mode: POSITIVE
Collision energy: 10 ev
Column name: Agilent C8 Cartridge Column 2.1X30mm 3.5 micron (guard); Agilent SB-Aq 2.1x50mm 1.8 micron (analytical)
Retention time: 5.032
Base peak: 371
Precursor m/z: 371.2329
Precursor type: [M+H]+
m/z	relative intensity
190.0872	8
190.1631	5
371.2327	999
