Mass spectrum: 2',6-Dihydroxyflavone; LC-ESI-QTOF; MS2; CE 10 ev; [M-H]-
Name: 2',6-Dihydroxyflavone
Formula: C15H10O4
Exact mass: 254.057909
SMILES: C1=CC=C(C(=C1)C2=CC(=O)C3=C(O2)C=CC(=C3)O)O
InChI: InChI=1S/C15H10O4/c16-9-5-6-14-11(7-9)13(18)8-15(19-14)10-3-1-2-4-12(10)17/h1-8,16-17H
Instrument: Agilent 1200 RRLC; Agilent 6520 QTOF
Instrument type: LC-ESI-QTOF
Ms type: MS2
Ion mode: NEGATIVE
Collision energy: 10 ev
Column name: Agilent C8 Cartridge Column 2.1X30mm 3.5 micron (guard); Agilent SB-Aq 2.1x50mm 1.8 micron (analytical)
Retention time: 7.464
Base peak: 253
Precursor m/z: 253.0506
Precursor type: [M-H]-
m/z	relative intensity
107.0143	10
108.0229	2
108.0311	1
117.0344	15
117.0606	1
133.0275	3
133.8382	1
135.0083	10
153.0728	1
161.0223	1
179.0529	1
180.0602	1
181.0659	3
183.0488	1
197.056	3
207.0428	1
208.0478	2
209.0595	11
211.0446	1
219.67	2
224.0465	2
225.056	10
225.0947	1
235.0405	4
246.3049	1
251.0345	2
252.0421	1
253.0498	999
