Mass spectrum: Tyrosine; LC-ESI-QTOF; MS2; CE 20 ev; [M-H]-
Name: Tyrosine
Formula: C9H11NO3
Exact mass: 181.073893
SMILES: C1=CC(=CC=C1CC(C(=O)O)N)O
InChI: InChI=1S/C9H11NO3/c10-8(9(12)13)5-6-1-3-7(11)4-2-6/h1-4,8,11H,5,10H2,(H,12,13)
Instrument: Agilent 1200 RRLC; Agilent 6520 QTOF
Instrument type: LC-ESI-QTOF
Ms type: MS2
Ion mode: NEGATIVE
Collision energy: 20 ev
Column name: Agilent C8 Cartridge Column 2.1X30mm 3.5 micron (guard); Agilent SB-Aq 2.1x50mm 1.8 micron (analytical)
Retention time: 0.389
Base peak: 119
Precursor m/z: 180.0666
Precursor type: [M-H]-
m/z	relative intensity
104.0268	14
106.0458	13
109.3821	9
118.9996	9
119.0498	999
119.0801	36
119.1021	7
119.1498	12
123.8884	12
134.0559	27
134.0642	18
136.0709	12
152.7821	14
162.0553	10
163.0387	274
163.0756	15
163.0867	10
180.0684	122
