Mass spectrum: Pectolinarin; LC-ESI-QTOF; MS2; CE 20 ev; [M-H]-
Name: Pectolinarin
Formula: C29H34O15
Exact mass: 622.18977
SMILES: CC1C(C(C(C(O1)OCC2C(C(C(C(O2)OC3=C(C(=C4C(=C3)OC(=CC4=O)C5=CC=C(C=C5)OC)O)OC)O)O)O)O)O)O
InChI: InChI=1S/C29H34O15/c1-11-20(31)23(34)25(36)28(41-11)40-10-18-21(32)24(35)26(37)29(44-18)43-17-9-16-19(22(33)27(17)39-3)14(30)8-15(42-16)12-4-6-13(38-2)7-5-12/h4-9,11,18,20-21,23-26,28-29,31-37H,10H2,1-3H3
Instrument: Agilent 1200 RRLC; Agilent 6520 QTOF
Instrument type: LC-ESI-QTOF
Ms type: MS2
Ion mode: NEGATIVE
Collision energy: 20 ev
Column name: Agilent C8 Cartridge Column 2.1X30mm 3.5 micron (guard); Agilent SB-Aq 2.1x50mm 1.8 micron (analytical)
Retention time: 7.351
Base peak: 313
Precursor m/z: 621.1825
Precursor type: [M-H]-
m/z	relative intensity
186.9772	37
188.0112	47
253.9184	51
297.0348	54
298.0338	51
298.0511	45
313.0704	999
313.1231	62
338.4266	49
374.9914	140
375.7132	39
423.355	52
557.1652	37
564.4238	39
