Mass spectrum: 3-{[(7-methoxy-2-oxochromen-4-yl)methyl]methylamino}propanenitrile; LC-ESI-QTOF; MS2; CE 10 ev; [M+H]+
Name: 3-{[(7-methoxy-2-oxochromen-4-yl)methyl]methylamino}propanenitrile
Formula: C15H16N2O3
Exact mass: 272.116092
SMILES: CN(CCC#N)CC1=CC(=O)OC2=C1C=CC(=C2)OC
InChI: InChI=1S/C15H16N2O3/c1-17(7-3-6-16)10-11-8-15(18)20-14-9-12(19-2)4-5-13(11)14/h4-5,8-9H,3,7,10H2,1-2H3
Instrument: Agilent 1200 RRLC; Agilent 6520 QTOF
Instrument type: LC-ESI-QTOF
Ms type: MS2
Ion mode: POSITIVE
Collision energy: 10 ev
Column name: Agilent C8 Cartridge Column 2.1X30mm 3.5 micron (guard); Agilent SB-Aq 2.1x50mm 1.8 micron (analytical)
Retention time: 6.978
Base peak: 232
Precursor m/z: 273.1234
Precursor type: [M+H]+
m/z	relative intensity
161.0605	21
175.0754	36
177.0621	4
178.0813	4
178.089	5
189.0512	12
191.0739	7
194.9591	11
204.1028	25
231.1143	5
232.0965	999
232.1418	34
232.1665	9
232.2035	6
232.2375	8
232.3502	4
273.123	192
