Mass spectrum: 7,8-Benzoflavone; LC-ESI-QTOF; MS2; CE 10 ev; [M+H]+
Name: 7,8-Benzoflavone
Formula: C19H12O2
Exact mass: 272.08373
SMILES: C1=CC=C(C=C1)C2=CC(=O)C3=C(O2)C4=CC=CC=C4C=C3
InChI: InChI=1S/C19H12O2/c20-17-12-18(14-7-2-1-3-8-14)21-19-15-9-5-4-6-13(15)10-11-16(17)19/h1-12H
Instrument: Agilent 1200 RRLC; Agilent 6520 QTOF
Instrument type: LC-ESI-QTOF
Ms type: MS2
Ion mode: POSITIVE
Collision energy: 10 ev
Column name: Agilent C8 Cartridge Column 2.1X30mm 3.5 micron (guard); Agilent SB-Aq 2.1x50mm 1.8 micron (analytical)
Retention time: 10.364
Base peak: 273
Precursor m/z: 273.0910
Precursor type: [M+H]+
m/z	relative intensity
143.0453	70
194.9573	73
273.0923	999
