Mass spectrum: 3(2'-Chlorophenyl)-7-ethoxycoumarin; LC-APCI-QTOF; MS; POSITIVE
Name: 3(2'-Chlorophenyl)-7-ethoxycoumarin
Formula: C17H13ClO3
Exact mass: 300.055322
SMILES: CCOC1=CC2=C(C=C1)C=C(C(=O)O2)C3=CC=CC=C3Cl
InChI: InChI=1S/C17H13ClO3/c1-2-20-12-8-7-11-9-14(17(19)21-16(11)10-12)13-5-3-4-6-15(13)18/h3-10H,2H2,1H3
Instrument: Agilent 1200 RRLC; Agilent 6520 QTOF
Instrument type: LC-APCI-QTOF
Ms type: MS
Ion mode: POSITIVE
Column name: Agilent C8 Cartridge Column 2.1X30mm 3.5 micron (guard); Agilent SB-Aq 2.1x50mm 1.8 micron (analytical)
Retention time: 9.596
m/z	relative intensity
301.0625765	999
