Mass spectrum: 7-Hydroxy-3'-methoxyflavone; LC-ESI-QTOF; MS2; CE 40 ev; [M+H]+
Name: 7-Hydroxy-3'-methoxyflavone
Formula: C16H12O4
Exact mass: 268.073559
SMILES: COC1=CC=CC(=C1)C2=CC(=O)C3=C(O2)C=C(C=C3)O
InChI: InChI=1S/C16H12O4/c1-19-12-4-2-3-10(7-12)15-9-14(18)13-6-5-11(17)8-16(13)20-15/h2-9,17H,1H3
Instrument: Agilent 1200 RRLC; Agilent 6520 QTOF
Instrument type: LC-ESI-QTOF
Ms type: MS2
Ion mode: POSITIVE
Collision energy: 40 ev
Column name: Agilent C8 Cartridge Column 2.1X30mm 3.5 micron (guard); Agilent SB-Aq 2.1x50mm 1.8 micron (analytical)
Retention time: 8.603
Base peak: 226
Precursor m/z: 269.0809
Precursor type: [M+H]+
m/z	relative intensity
108.021	17
109.03	28
115.0541	17
116.0241	45
137.0231	470
158.0732	41
159.0391	28
169.0631	23
170.0716	32
187.0397	23
197.0586	60
225.0531	132
225.0705	18
226.0623	999
226.1017	52
226.1245	19
254.0528	17
