Mass spectrum: Harmine; LC-ESI-QTOF; MS2; CE 40 ev; [M-H]-
Name: Harmine
Formula: C13H12N2O
Exact mass: 212.094963
SMILES: CC1=NC=CC2=C1NC3=C2C=CC(=C3)OC
InChI: InChI=1S/C13H12N2O/c1-8-13-11(5-6-14-8)10-4-3-9(16-2)7-12(10)15-13/h3-7,15H,1-2H3
Instrument: Agilent 1200 RRLC; Agilent 6520 QTOF
Instrument type: LC-ESI-QTOF
Ms type: MS2
Ion mode: NEGATIVE
Collision energy: 40 ev
Column name: Agilent C8 Cartridge Column 2.1X30mm 3.5 micron (guard); Agilent SB-Aq 2.1x50mm 1.8 micron (analytical)
Retention time: 4.509
Base peak: 168
Precursor m/z: 211.0877
Precursor type: [M-H]-
m/z	relative intensity
167.0599	47
168.0613	52
168.0692	999
168.1066	50
195.0472	37
195.0555	377
196.0651	365
196.0729	45
