Mass spectrum: Loline; LC-APCI-QTOF; MS; POSITIVE
Name: Loline
Formula: C8H14N2O
Exact mass: 154.110613
SMILES: CN[C@H]1[C@H]2CN3[C@@H]1C(O2)CC3
InChI: InChI=1S/C8H14N2O/c1-9-7-6-4-10-3-2-5(11-6)8(7)10/h5-9H,2-4H2,1H3/t5?,6-,7+,8-/m1/s1
Instrument: Agilent 1200 RRLC; Agilent 6520 QTOF
Instrument type: LC-APCI-QTOF
Ms type: MS
Ion mode: POSITIVE
Column name: Agilent C8 Cartridge Column 2.1X30mm 3.5 micron (guard); Agilent SB-Aq 2.1x50mm 1.8 micron (analytical)
Retention time: 0.376
m/z	relative intensity
155.1178765	999
