Mass spectrum: DL-Leucine; LC-ESI-QTOF; MS; NEGATIVE
Name: DL-Leucine
Formula: C6H13NO2
Exact mass: 131.094629
SMILES: CC(C)CC(C(=O)O)N
InChI: InChI=1S/C6H13NO2/c1-4(2)3-5(7)6(8)9/h4-5H,3,7H2,1-2H3,(H,8,9)
Instrument: Agilent 1200 RRLC; Agilent 6520 QTOF
Instrument type: LC-ESI-QTOF
Ms type: MS
Ion mode: NEGATIVE
Column name: Agilent C8 Cartridge Column 2.1X30mm 3.5 micron (guard); Agilent SB-Aq 2.1x50mm 1.8 micron (analytical)
Retention time: 0.420
m/z	relative intensity
130.0873235	999
