Mass spectrum: Hydroquinidine; LC-ESI-QTOF; MS2; CE 10 ev; [M+H]+
Name: Hydroquinidine
Formula: C20H26N2O2
Exact mass: 326.199428
SMILES: CC[C@H]1CN2CC[C@H]1C[C@@H]2[C@H](C3=C4C=C(C=CC4=NC=C3)OC)O
InChI: InChI=1S/C20H26N2O2/c1-3-13-12-22-9-7-14(13)10-19(22)20(23)16-6-8-21-18-5-4-15(24-2)11-17(16)18/h4-6,8,11,13-14,19-20,23H,3,7,9-10,12H2,1-2H3/t13-,14-,19+,20-/m0/s1
Instrument: Agilent 1200 RRLC; Agilent 6520 QTOF
Instrument type: LC-ESI-QTOF
Ms type: MS2
Ion mode: POSITIVE
Collision energy: 10 ev
Column name: Agilent C8 Cartridge Column 2.1X30mm 3.5 micron (guard); Agilent SB-Aq 2.1x50mm 1.8 micron (analytical)
Retention time: 5.452
Base peak: 327
Precursor m/z: 327.2067
Precursor type: [M+H]+
m/z	relative intensity
160.0741	9
184.0764	8
186.0867	14
200.1019	6
281.167	8
309.1968	22
327.2051	999
