Mass spectrum: Ricinine; LC-ESI-QTOF; MS2; CE 20 ev; [M+H]+
Name: Ricinine
Name: 4-methoxy-1-methyl-2-oxohydropyridine-3-carbonitrile
Formula: C8H8N2O2
Exact mass: 164.058578
SMILES: CN1C=CC(=C(C1=O)C#N)OC
InChI: InChI=1S/C8H8N2O2/c1-10-4-3-7(12-2)6(5-9)8(10)11/h3-4H,1-2H3
Instrument: Agilent 1200 RRLC; Agilent 6520 QTOF
Instrument type: LC-ESI-QTOF
Ms type: MS2
Ion mode: POSITIVE
Collision energy: 20 ev
Column name: Agilent C8 Cartridge Column 2.1X30mm 3.5 micron (guard); Agilent SB-Aq 2.1x50mm 1.8 micron (analytical)
Retention time: 2.725
Base peak: 165
Precursor m/z: 165.0659
Precursor type: [M+H]+
m/z	relative intensity
108.0418	282
110.0622	508
122.049	147
138.0546	880
150.0407	226
165.0656	999
