Mass spectrum: Oxitriptan 1; LC-ESI-QTOF; MS2; CE 40 ev; [M+H]+
Name: Oxitriptan 1
Formula: C11H12N2O3
Exact mass: 220.084792
SMILES: C1=CC2=C(C=C1O)C(=CN2)C[C@@H](C(=O)O)N
InChI: InChI=1S/C11H12N2O3/c12-9(11(15)16)3-6-5-13-10-2-1-7(14)4-8(6)10/h1-2,4-5,9,13-14H,3,12H2,(H,15,16)/t9-/m0/s1
Instrument: Agilent 1200 RRLC; Agilent 6520 QTOF
Instrument type: LC-ESI-QTOF
Ms type: MS2
Ion mode: POSITIVE
Collision energy: 40 ev
Column name: Agilent C8 Cartridge Column 2.1X30mm 3.5 micron (guard); Agilent SB-Aq 2.1x50mm 1.8 micron (analytical)
Retention time: 0.388
Base peak: 103
Precursor m/z: 221.0921
Precursor type: [M+H]+
m/z	relative intensity
103.0545	999
103.0836	40
104.0474	33
104.0593	51
105.0342	28
105.0553	28
105.0627	149
105.0698	37
106.0413	45
106.0646	801
106.0901	40
106.1026	25
107.0491	629
107.0705	29
115.0548	369
116.0484	837
116.0726	33
116.0885	27
117.0586	429
118.0628	175
120.0806	63
126.959	49
127.9768	24
128.0504	25
128.0584	29
129.0595	24
130.0647	717
130.0971	31
131.0497	654
131.0709	121
132.0557	130
133.0527	594
133.0785	38
134.0588	585
134.0828	31
140.0458	56
141.0549	63
142.0691	33
143.0714	122
144.0429	65
146.0598	369
146.0787	24
148.0725	66
158.0589	315
159.0669	624
159.0997	27
160.0727	44
162.0526	25
186.0559	36
