Mass spectrum: (S,R)-Noscapine; LC-ESI-QTOF; MS2; CE 10 ev; [M+H]+
Name: (S,R)-Noscapine
Formula: C22H23NO7
Exact mass: 413.147452
SMILES: CN1CCC2=CC3=C(C(=C2[C@@H]1[C@@H]4C5=C(C(=C(C=C5)OC)OC)C(=O)O4)OC)OCO3
InChI: InChI=1S/C22H23NO7/c1-23-8-7-11-9-14-20(29-10-28-14)21(27-4)15(11)17(23)18-12-5-6-13(25-2)19(26-3)16(12)22(24)30-18/h5-6,9,17-18H,7-8,10H2,1-4H3/t17-,18+/m1/s1
Instrument: Agilent 1200 RRLC; Agilent 6520 QTOF
Instrument type: LC-ESI-QTOF
Ms type: MS2
Ion mode: POSITIVE
Collision energy: 10 ev
Column name: Agilent C8 Cartridge Column 2.1X30mm 3.5 micron (guard); Agilent SB-Aq 2.1x50mm 1.8 micron (analytical)
Retention time: 5.352
Base peak: 414
Precursor m/z: 414.1548
Precursor type: [M+H]+
m/z	relative intensity
179.0662	13
220.0961	456
220.1386	25
353.0993	54
365.0958	16
383.1171	10
414.1529	999
