Mass spectrum: Chloramphenicol; LC-ESI-QTOF; MS2; CE 10 ev; [M-H]-
Name: Chloramphenicol
Formula: C11H12Cl2N2O5
Exact mass: 322.012327
SMILES: C1=CC(=CC=C1[C@H]([C@@H](CO)NC(=O)C(Cl)Cl)O)[N+](=O)[O-]
InChI: InChI=1S/C11H12Cl2N2O5/c12-10(13)11(18)14-8(5-16)9(17)6-1-3-7(4-2-6)15(19)20/h1-4,8-10,16-17H,5H2,(H,14,18)/t8-,9-/m1/s1
Instrument: Agilent 1200 RRLC; Agilent 6520 QTOF
Instrument type: LC-ESI-QTOF
Ms type: MS2
Ion mode: NEGATIVE
Collision energy: 10 ev
Column name: Agilent C8 Cartridge Column 2.1X30mm 3.5 micron (guard); Agilent SB-Aq 2.1x50mm 1.8 micron (analytical)
Retention time: 4.234
Base peak: 321
Precursor m/z: 321.0050
Precursor type: [M-H]-
m/z	relative intensity
105.4466	59
120.4525	83
121.0247	45
122.0053	47
126.9352	88
151.0283	210
152.0347	834
175.05	38
176.0322	314
185.0711	43
194.0447	747
194.0765	66
205.0225	101
237.0484	38
237.0621	49
249.0473	122
257.0335	685
260.8936	45
310.7127	57
321.0026	999
