Mass spectrum: Mimosine; LC-ESI-QTOF; MS; POSITIVE
Name: Mimosine
Formula: C8H10N2O4
Exact mass: 198.064057
SMILES: C1=CN(C=C(C1=O)O)CC(C(=O)O)N
InChI: InChI=1S/C8H10N2O4/c9-5(8(13)14)3-10-2-1-6(11)7(12)4-10/h1-2,4-5,12H,3,9H2,(H,13,14)
Instrument: Agilent 1200 RRLC; Agilent 6520 QTOF
Instrument type: LC-ESI-QTOF
Ms type: MS
Ion mode: POSITIVE
Column name: Agilent C8 Cartridge Column 2.1X30mm 3.5 micron (guard); Agilent SB-Aq 2.1x50mm 1.8 micron (analytical)
Retention time: 0.415
m/z	relative intensity
199.0713765	999
