Mass spectrum: Rubone; LC-ESI-QTOF; MS2; CE 40 ev; [M+H]+
Name: Rubone
Formula: C20H22O7
Exact mass: 374.136553
SMILES: COC1=CC(=C(C(=C1)OC)C(=O)C=CC2=CC(=C(C=C2OC)OC)OC)O
InChI: InChI=1S/C20H22O7/c1-23-13-9-15(22)20(19(10-13)27-5)14(21)7-6-12-8-17(25-3)18(26-4)11-16(12)24-2/h6-11,22H,1-5H3
Instrument: Agilent 1200 RRLC; Agilent 6520 QTOF
Instrument type: LC-ESI-QTOF
Ms type: MS2
Ion mode: POSITIVE
Collision energy: 40 ev
Column name: Agilent C8 Cartridge Column 2.1X30mm 3.5 micron (guard); Agilent SB-Aq 2.1x50mm 1.8 micron (analytical)
Retention time: 10.184
Base peak: 181
Precursor m/z: 375.1439
Precursor type: [M+H]+
m/z	relative intensity
107.0503	80
110.0363	54
111.0466	24
121.0246	36
123.0405	21
125.0572	26
135.0418	36
136.0471	23
137.0206	34
138.031	105
151.0381	44
151.0753	28
163.0398	91
166.0255	187
178.0621	97
181.0487	999
181.0831	24
181.0911	24
191.0335	140
191.0436	22
206.0558	82
