Mass spectrum: Sophoricoside; LC-ESI-QTOF; MS2; CE 40 ev; [M-H]-
Name: Sophoricoside
Name: 5,7-dihydroxy-3-(4-{[(2S,3R,4S,5S,6R)-3,4,5-trihydroxy-6-(hydroxymethyl)tetrahydro-2H-pyran-2-yl]oxy}phenyl)-4H-chromen-4-one
Formula: C21H20O10
Exact mass: 432.105647
SMILES: C1=CC(=CC=C1C2=COC3=CC(=CC(=C3C2=O)O)O)OC4C(C(C(C(O4)CO)O)O)O
InChI: InChI=1S/C21H20O10/c22-7-15-18(26)19(27)20(28)21(31-15)30-11-3-1-9(2-4-11)12-8-29-14-6-10(23)5-13(24)16(14)17(12)25/h1-6,8,15,18-24,26-28H,7H2
Instrument: Agilent 1200 RRLC; Agilent 6520 QTOF
Instrument type: LC-ESI-QTOF
Ms type: MS2
Ion mode: NEGATIVE
Collision energy: 40 ev
Column name: Agilent C8 Cartridge Column 2.1X30mm 3.5 micron (guard); Agilent SB-Aq 2.1x50mm 1.8 micron (analytical)
Retention time: 5.732
Base peak: 268
Precursor m/z: 431.0983
Precursor type: [M-H]-
m/z	relative intensity
119.0472	3
120.0203	1
132.0208	23
133.0335	2
134.0405	4
135.0001	1
135.0084	18
135.753	2
141.0615	2
142.04	1
143.7565	2
147.0097	3
151.0061	2
154.0408	4
167.0509	7
169.0596	1
172.0531	2
176.0135	2
179.0468	2
180.0676	2
182.0417	2
183.0401	3
184.053	4
187.9315	2
194.03	1
195.0487	11
196.0547	10
198.0299	2
199.0182	1
199.0345	2
199.0445	1
210.0385	1
211.039	32
211.0875	2
212.0242	1
212.0481	24
212.0649	1
215.3653	2
222.0338	2
223.0413	25
223.0774	1
224.0469	25
224.0785	1
226.0314	17
226.0659	1
239.0342	96
239.0787	3
239.1446	1
239.1758	2
240.0428	42
240.0866	2
241.0511	3
247.9366	2
250.0265	1
254.0508	1
262.9776	2
266.985	1
267.0299	125
267.077	6
267.111	2
267.1339	2
267.1816	2
267.3286	1
267.383	1
267.4249	1
267.5197	2
267.5867	1
267.6162	2
267.6682	2
268.0372	999
268.0857	32
268.1157	18
268.1413	7
268.1853	13
268.2367	2
268.2497	4
268.2761	4
268.3015	3
268.33	5
268.3872	5
268.4392	2
268.4636	4
268.493	4
268.5155	2
268.5503	3
268.5855	2
268.6245	4
268.6796	3
268.7146	5
268.7457	3
268.7775	2
268.8028	1
268.8199	2
268.8814	2
268.9013	2
268.9487	2
268.9673	3
269.046	85
269.1033	5
269.155	3
269.1932	3
269.2226	1
269.3409	4
269.3754	1
269.4045	2
269.4358	2
269.4683	2
269.5104	3
269.6181	2
269.6492	1
269.7877	1
269.8163	1
269.8412	1
270.0494	2
270.7183	1
281.0519	2
282.0479	6
283.0564	6
283.1318	2
311.0585	6
361.8282	1
431.0984	47
