Mass spectrum: Ginkgolide A; LC-ESI-QTOF; MS2; CE 10 ev; [M-H]-
Name: Ginkgolide A
Formula: C20H24O9
Exact mass: 408.142032
SMILES: CC1C(=O)OC2C1(C34C(=O)OC5C3(C2)C6(C(C5)C(C)(C)C)C(C(=O)OC6O4)O)O
InChI: InChI=1S/C20H24O9/c1-7-12(22)26-10-6-17-9-5-8(16(2,3)4)18(17)11(21)13(23)28-15(18)29-20(17,14(24)27-9)19(7,10)25/h7-11,15,21,25H,5-6H2,1-4H3
Instrument: Agilent 1200 RRLC; Agilent 6520 QTOF
Instrument type: LC-ESI-QTOF
Ms type: MS2
Ion mode: NEGATIVE
Collision energy: 10 ev
Column name: Agilent C8 Cartridge Column 2.1X30mm 3.5 micron (guard); Agilent SB-Aq 2.1x50mm 1.8 micron (analytical)
Retention time: 5.255
Base peak: 351
Precursor m/z: 407.1347
Precursor type: [M-H]-
m/z	relative intensity
277.0995	14
289.1473	17
291.1494	18
301.1531	31
307.1414	26
317.1308	24
319.1555	96
333.1339	42
333.1609	15
335.1505	102
351.1438	999
351.2007	56
363.144	138
379.1447	79
407.1343	457
