Mass spectrum: 3,3'-Dihydroxyflavone; LC-ESI-QTOF; MS2; CE 40 ev; [M-H]-
Name: 3,3'-Dihydroxyflavone
Formula: C15H10O4
Exact mass: 254.057909
SMILES: C1=CC=C2C(=C1)C(=O)C(=C(O2)C3=CC(=CC=C3)O)O
InChI: InChI=1S/C15H10O4/c16-10-5-3-4-9(8-10)15-14(18)13(17)11-6-1-2-7-12(11)19-15/h1-8,16,18H
Instrument: Agilent 1200 RRLC; Agilent 6520 QTOF
Instrument type: LC-ESI-QTOF
Ms type: MS2
Ion mode: NEGATIVE
Collision energy: 40 ev
Column name: Agilent C8 Cartridge Column 2.1X30mm 3.5 micron (guard); Agilent SB-Aq 2.1x50mm 1.8 micron (analytical)
Retention time: 7.772
Base peak: 195
Precursor m/z: 253.0506
Precursor type: [M-H]-
m/z	relative intensity
165.0669	7
167.0498	65
169.0646	78
179.048	16
180.0591	13
182.0373	8
195.0447	999
195.088	32
195.1093	8
195.1431	6
195.1724	11
195.2295	7
195.3012	5
196.0518	9
197.0608	31
208.0515	6
223.0379	16
