Mass spectrum: 5-Methyltryptamine; LC-ESI-QTOF; MS; POSITIVE
Name: 5-Methyltryptamine
Formula: C11H14N2
Exact mass: 174.115698
SMILES: CC1=CC2=C(C=C1)NC=C2CCN
InChI: InChI=1S/C11H14N2/c1-8-2-3-11-10(6-8)9(4-5-12)7-13-11/h2-3,6-7,13H,4-5,12H2,1H3
Instrument: Agilent 1200 RRLC; Agilent 6520 QTOF
Instrument type: LC-ESI-QTOF
Ms type: MS
Ion mode: POSITIVE
Column name: Agilent C8 Cartridge Column 2.1X30mm 3.5 micron (guard); Agilent SB-Aq 2.1x50mm 1.8 micron (analytical)
Retention time: 2.410
m/z	relative intensity
175.1229765	999
197.104918	41
