Mass spectrum: 6-Bromo-3'-methylflavone; LC-ESI-QTOF; MS; POSITIVE
Name: 6-Bromo-3'-methylflavone
Formula: C16H11BrO2
Exact mass: 313.994242
SMILES: CC1=CC=CC(=C1)C2=CC(=O)C3=C(O2)C=CC(=C3)Br
InChI: InChI=1S/C16H11BrO2/c1-10-3-2-4-11(7-10)16-9-14(18)13-8-12(17)5-6-15(13)19-16/h2-9H,1H3
Instrument: Agilent 1200 RRLC; Agilent 6520 QTOF
Instrument type: LC-ESI-QTOF
Ms type: MS
Ion mode: POSITIVE
Column name: Agilent C8 Cartridge Column 2.1X30mm 3.5 micron (guard); Agilent SB-Aq 2.1x50mm 1.8 micron (analytical)
Retention time: 10.406
m/z	relative intensity
315.0014765	999
336.983418	657
