Mass spectrum: 3-formyl Rifamycin SV; LC-ESI-QTOF; MS; NEGATIVE
Name: 3-formyl Rifamycin SV
Formula: C38H47NO13
Exact mass: 725.304741
SMILES: C[C@H]1/C=C/C=C(\C(=O)NC2=C(C3=C(C4=C(C(=C3O)C)O[C@@](C4=O)(O/C=C/[C@@H]([C@H]([C@H]([C@@H]([C@@H]([C@@H]([C@H]1O)C)O)C)OC(=O)C)C)OC)C)C(=C2C=O)O)O)/C
InChI: InChI=1S/C38H47NO13/c1-16-11-10-12-17(2)37(48)39-28-23(15-40)32(45)25-26(33(28)46)31(44)21(6)35-27(25)36(47)38(8,52-35)50-14-13-24(49-9)18(3)34(51-22(7)41)20(5)30(43)19(4)29(16)42/h10-16,18-20,24,29-30,34,42-46H,1-9H3,(H,39,48)/b11-10+,14-13+,17-12-/t16-,18+,19+,20+,24-,29-,30+,34+,38-/m0/s1
Instrument: Agilent 1200 RRLC; Agilent 6520 QTOF
Instrument type: LC-ESI-QTOF
Ms type: MS
Ion mode: NEGATIVE
Column name: Agilent C8 Cartridge Column 2.1X30mm 3.5 micron (guard); Agilent SB-Aq 2.1x50mm 1.8 micron (analytical)
Retention time: 10.996
m/z	relative intensity
724.2974235	999
