Mass spectrum: 2'-Deoxyadenosine; LC-ESI-QTOF; MS2; CE 20 ev; [M+H]+
Name: 2'-Deoxyadenosine
Formula: C10H13N5O3
Exact mass: 251.101839
SMILES: C1C(C(OC1N2C=NC3=C2N=CN=C3N)CO)O
InChI: InChI=1S/C10H13N5O3/c11-9-8-10(13-3-12-9)15(4-14-8)7-1-5(17)6(2-16)18-7/h3-7,16-17H,1-2H2,(H2,11,12,13)
Instrument: Agilent 1200 RRLC; Agilent 6520 QTOF
Instrument type: LC-ESI-QTOF
Ms type: MS2
Ion mode: POSITIVE
Collision energy: 20 ev
Column name: Agilent C8 Cartridge Column 2.1X30mm 3.5 micron (guard); Agilent SB-Aq 2.1x50mm 1.8 micron (analytical)
Retention time: 1.919
Base peak: 136
Precursor m/z: 252.1091
Precursor type: [M+H]+
m/z	relative intensity
114.9457	67
117.0538	11
119.0366	26
136.061	999
136.0938	24
136.1205	13
136.17	13
148.9689	57
192.9628	19
