Mass spectrum: 2',5-Dimethoxyflavone; LC-ESI-QTOF; MS2; CE 10 ev; [M+H]+
Name: 2',5-Dimethoxyflavone
Formula: C17H14O4
Exact mass: 282.089209
SMILES: COC1=CC=CC=C1C2=CC(=O)C3=C(O2)C=CC=C3OC
InChI: InChI=1S/C17H14O4/c1-19-13-7-4-3-6-11(13)16-10-12(18)17-14(20-2)8-5-9-15(17)21-16/h3-10H,1-2H3
Instrument: Agilent 1200 RRLC; Agilent 6520 QTOF
Instrument type: LC-ESI-QTOF
Ms type: MS2
Ion mode: POSITIVE
Collision energy: 10 ev
Column name: Agilent C8 Cartridge Column 2.1X30mm 3.5 micron (guard); Agilent SB-Aq 2.1x50mm 1.8 micron (analytical)
Retention time: 9.025
Base peak: 283
Precursor m/z: 283.0965
Precursor type: [M+H]+
m/z	relative intensity
137.0226	20
150.0297	3
240.0735	3
249.057	6
251.0687	4
267.0655	4
268.0722	55
268.1191	4
283.0962	999
