Mass spectrum: Hydrocortisone; LC-ESI-QTOF; MS2; CE 20 ev; [M-H]-
Name: (8S,9S,10R,11S,13S,14S,17R)-11,17-dihydroxy-17-(2-hydroxyacetyl)-10,13-dimethyl-2,6,7,8,9,11,12,14,15,16-decahydro-1H-cyclopenta[a]phenanthren-3-one
Name: Cortisol
Name: Hydrocortisone
Formula: C21H30O5
Exact mass: 362.20932
SMILES: C[C@]12CCC(=O)C=C1CC[C@@H]3[C@@H]2[C@H](C[C@]4([C@H]3CC[C@@]4(C(=O)CO)O)C)O
InChI: InChI=1S/C21H30O5/c1-19-7-5-13(23)9-12(19)3-4-14-15-6-8-21(26,17(25)11-22)20(15,2)10-16(24)18(14)19/h9,14-16,18,22,24,26H,3-8,10-11H2,1-2H3/t14-,15-,16-,18+,19-,20-,21-/m0/s1
Instrument: Agilent 1200 RRLC; Agilent 6520 QTOF
Instrument type: LC-ESI-QTOF
Ms type: MS2
Ion mode: NEGATIVE
Collision energy: 20 ev
Column name: Agilent C8 Cartridge Column 2.1X30mm 3.5 micron (guard); Agilent SB-Aq 2.1x50mm 1.8 micron (analytical)
Retention time: 7.409
Base peak: 331
Precursor m/z: 361.2020
Precursor type: [M-H]-
m/z	relative intensity
106.7645	31
116.93	40
125.0583	85
135.4193	20
189.0905	186
196.6881	21
243.1448	19
282.1256	191
287.1604	17
290.6498	20
297.15	509
297.1844	36
297.2038	21
308.2317	18
313.1869	30
315.1567	195
315.1806	19
315.2091	19
331.1893	999
331.2263	35
331.2483	40
331.2753	32
331.3588	18
332.1059	16
354.5234	63
