Mass spectrum: Salsolidine; LC-ESI-QTOF; MS; POSITIVE
Name: Salsolidine
Formula: C12H17NO2
Exact mass: 207.125929
SMILES: CC1C2=CC(=C(C=C2CCN1)OC)OC
InChI: InChI=1S/C12H17NO2/c1-8-10-7-12(15-3)11(14-2)6-9(10)4-5-13-8/h6-8,13H,4-5H2,1-3H3
Instrument: Agilent 1200 RRLC; Agilent 6520 QTOF
Instrument type: LC-ESI-QTOF
Ms type: MS
Ion mode: POSITIVE
Column name: Agilent C8 Cartridge Column 2.1X30mm 3.5 micron (guard); Agilent SB-Aq 2.1x50mm 1.8 micron (analytical)
Retention time: 1.009
m/z	relative intensity
208.1331765	999
