Mass spectrum: (1S,9S)-11-methyl-7,11-diazatricyclo[7.3.1.0<2,7>]trideca-2,4-dien-6-one; LC-APCI-QTOF; MS; POSITIVE
Name: (1S,9S)-11-methyl-7,11-diazatricyclo[7.3.1.0<2,7>]trideca-2,4-dien-6-one
Formula: C12H16N2O
Exact mass: 204.126263
SMILES: CN1C[C@@H]2CC(C1)C3=CC=CC(=O)N3C2
InChI: InChI=1S/C12H16N2O/c1-13-6-9-5-10(8-13)11-3-2-4-12(15)14(11)7-9/h2-4,9-10H,5-8H2,1H3/t9-,10?/m0/s1
Instrument: Agilent 1200 RRLC; Agilent 6520 QTOF
Instrument type: LC-APCI-QTOF
Ms type: MS
Ion mode: POSITIVE
Column name: Agilent C8 Cartridge Column 2.1X30mm 3.5 micron (guard); Agilent SB-Aq 2.1x50mm 1.8 micron (analytical)
Retention time: 0.625
m/z	relative intensity
205.1335765	999
