Mass spectrum: Retrorsine; LC-ESI-QTOF; MS2; CE 10 ev; [M+H]+
Name: Retrorsine
Formula: C18H25NO6
Exact mass: 351.168188
SMILES: CC=C1CC(C(C(=O)OCC2=CCN3C2C(CC3)OC1=O)(CO)O)C
InChI: InChI=1S/C18H25NO6/c1-3-12-8-11(2)18(23,10-20)17(22)24-9-13-4-6-19-7-5-14(15(13)19)25-16(12)21/h3-4,11,14-15,20,23H,5-10H2,1-2H3
Instrument: Agilent 1200 RRLC; Agilent 6520 QTOF
Instrument type: LC-ESI-QTOF
Ms type: MS2
Ion mode: POSITIVE
Collision energy: 10 ev
Column name: Agilent C8 Cartridge Column 2.1X30mm 3.5 micron (guard); Agilent SB-Aq 2.1x50mm 1.8 micron (analytical)
Retention time: 2.658
Base peak: 352
Precursor m/z: 352.1755
Precursor type: [M+H]+
m/z	relative intensity
120.0789	6
138.0932	7
324.1776	6
352.1725	999
