Mass spectrum: 2-(3,4-diacetyloxyphenyl)-4-oxo-7-[3,4,5-triacetyloxy-6-(acetyloxymethyl)(2H-3 ,4,5,6-tetrahydropyran-2-yloxy)]chromen-5-yl acetate; LC-ESI-QTOF; MS2; CE 10 ev; [M+CH3COOH-H]-
Name: 2-(3,4-diacetyloxyphenyl)-4-oxo-7-[3,4,5-triacetyloxy-6-(acetyloxymethyl)(2H-3 ,4,5,6-tetrahydropyran-2-yloxy)]chromen-5-yl acetate
Formula: C35H34O18
Exact mass: 742.174514
SMILES: CC(=O)OCC1C(C(C(C(O1)OC2=CC(=C3C(=C2)OC(=CC3=O)C4=CC(=C(C=C4)OC(=O)C)OC(=O)C)OC(=O)C)OC(=O)C)OC(=O)C)OC(=O)C
InChI: InChI=1S/C35H34O18/c1-15(36)44-14-30-32(48-19(5)40)33(49-20(6)41)34(50-21(7)42)35(53-30)51-23-11-28(47-18(4)39)31-24(43)13-26(52-29(31)12-23)22-8-9-25(45-16(2)37)27(10-22)46-17(3)38/h8-13,30,32-35H,14H2,1-7H3
Instrument: Agilent 1200 RRLC; Agilent 6520 QTOF
Instrument type: LC-ESI-QTOF
Ms type: MS2
Ion mode: NEGATIVE
Collision energy: 10 ev
Column name: Agilent C8 Cartridge Column 2.1X30mm 3.5 micron (guard); Agilent SB-Aq 2.1x50mm 1.8 micron (analytical)
Retention time: 9.830
Base peak: 699
Precursor m/z: 801.1878
Precursor type: [M+CH3COOH-H]-
m/z	relative intensity
211.4985	8
381.0072	7
615.1374	28
657.1448	611
657.2093	46
657.2294	17
657.2846	16
657.3656	16
658.1352	11
658.1883	9
699.0587	8
699.1543	999
699.2815	21
699.3321	12
699.3871	16
699.4799	10
699.606	14
699.6887	11
699.804	16
699.8699	27
699.9765	10
700.0244	11
700.1662	11
700.2432	7
700.4356	10
700.54	10
700.6217	12
700.6961	8
700.9373	8
700.9867	8
701.2367	8
702.3149	9
712.924	10
800.9807	8
801.1892	44
