Mass spectrum: 5-Methylcytidine; LC-ESI-QTOF; MS2; CE 10 ev; [M+H]+
Name: 5-Methylcytidine
Formula: C10H15N3O5
Exact mass: 257.101171
SMILES: CC1=CN(C(=O)N=C1N)C2C(C(C(O2)CO)O)O
InChI: InChI=1S/C10H15N3O5/c1-4-2-13(10(17)12-8(4)11)9-7(16)6(15)5(3-14)18-9/h2,5-7,9,14-16H,3H2,1H3,(H2,11,12,17)
Instrument: Agilent 1200 RRLC; Agilent 6520 QTOF
Instrument type: LC-ESI-QTOF
Ms type: MS2
Ion mode: POSITIVE
Collision energy: 10 ev
Column name: Agilent C8 Cartridge Column 2.1X30mm 3.5 micron (guard); Agilent SB-Aq 2.1x50mm 1.8 micron (analytical)
Retention time: 0.389
Base peak: 126
Precursor m/z: 258.1085
Precursor type: [M+H]+
m/z	relative intensity
108.0565	6
109.0392	8
115.0359	1
126.0659	999
126.0987	27
126.1166	13
126.1411	8
126.1692	16
126.2062	2
126.2266	2
126.2541	1
126.3233	2
126.3305	1
126.3573	1
126.3789	2
126.4139	1
126.4494	1
126.4783	2
126.5109	1
126.534	1
126.5475	1
126.5631	2
126.5928	1
126.6079	1
126.647	1
126.6854	1
126.7346	1
126.748	1
126.7792	1
126.8086	1
126.8672	2
126.8777	1
126.9707	1
127.0633	1
127.0792	1
127.4562	1
133.0514	1
161.0126	1
258.113	3
