Mass spectrum: Papaverine; LC-ESI-QTOF; MS2; CE 20 ev; [M+H]+
Name: Papaverine
Formula: C20H21NO4
Exact mass: 339.147058
SMILES: COC1=C(C=C(C=C1)CC2=NC=CC3=CC(=C(C=C32)OC)OC)OC
InChI: InChI=1S/C20H21NO4/c1-22-17-6-5-13(10-18(17)23-2)9-16-15-12-20(25-4)19(24-3)11-14(15)7-8-21-16/h5-8,10-12H,9H2,1-4H3
Instrument: Agilent 1200 RRLC; Agilent 6520 QTOF
Instrument type: LC-ESI-QTOF
Ms type: MS2
Ion mode: POSITIVE
Collision energy: 20 ev
Column name: Agilent C8 Cartridge Column 2.1X30mm 3.5 micron (guard); Agilent SB-Aq 2.1x50mm 1.8 micron (analytical)
Retention time: 5.538
Base peak: 340
Precursor m/z: 340.1544
Precursor type: [M+H]+
m/z	relative intensity
123.0399	16
123.0469	15
171.0682	73
172.0726	14
202.0864	516
202.1287	20
295.1206	30
296.1196	36
296.1413	13
310.112	28
324.1234	243
325.1297	68
340.1535	999
