Mass spectrum: 3(4'-Chlorophenyl)-4,6-dimethylcoumarin; LC-ESI-QTOF; MS2; CE 40 ev; [M+H]+
Name: 3(4'-Chlorophenyl)-4,6-dimethylcoumarin
Formula: C17H13ClO2
Exact mass: 284.060407
SMILES: CC1=CC2=C(C=C1)OC(=O)C(=C2C)C3=CC=C(C=C3)Cl
InChI: InChI=1S/C17H13ClO2/c1-10-3-8-15-14(9-10)11(2)16(17(19)20-15)12-4-6-13(18)7-5-12/h3-9H,1-2H3
Instrument: Agilent 1200 RRLC; Agilent 6520 QTOF
Instrument type: LC-ESI-QTOF
Ms type: MS2
Ion mode: POSITIVE
Collision energy: 40 ev
Column name: Agilent C8 Cartridge Column 2.1X30mm 3.5 micron (guard); Agilent SB-Aq 2.1x50mm 1.8 micron (analytical)
Retention time: 9.947
Base peak: 179
Precursor m/z: 285.0677
Precursor type: [M+H]+
m/z	relative intensity
101.0376	173
102.0465	342
103.0581	44
105.0693	63
111.001	131
115.0534	209
116.0605	127
117.0705	220
121.065	63
125.0134	237
127.0564	55
128.0615	55
130.0406	163
131.0471	38
137.0154	378
138.9979	82
145.0629	306
149.0168	154
152.0664	82
165.0679	127
166.0758	40
177.0649	65
178.076	733
179.0847	999
180.0903	38
189.0686	182
190.0781	182
191.0838	439
192.0938	70
193.0987	186
194.1062	85
199.0334	44
202.0794	42
203.0867	171
205.1015	95
206.076	42
207.0793	653
221.0953	682
222.1032	260
225.038	57
226.0531	65
241.0388	264
242.0487	228
249.0865	68
