Mass spectrum: 2',3'-Dideoxyadenosine; LC-ESI-QTOF; MS; POSITIVE
Name: 2',3'-Dideoxyadenosine
Formula: C10H13N5O2
Exact mass: 235.106925
SMILES: C1CC(OC1CO)N2C=NC3=C2N=CN=C3N
InChI: InChI=1S/C10H13N5O2/c11-9-8-10(13-4-12-9)15(5-14-8)7-2-1-6(3-16)17-7/h4-7,16H,1-3H2,(H2,11,12,13)
Instrument: Agilent 1200 RRLC; Agilent 6520 QTOF
Instrument type: LC-ESI-QTOF
Ms type: MS
Ion mode: POSITIVE
Column name: Agilent C8 Cartridge Column 2.1X30mm 3.5 micron (guard); Agilent SB-Aq 2.1x50mm 1.8 micron (analytical)
Retention time: 2.783
m/z	relative intensity
236.1141765	999
258.096118	47
