Mass spectrum: 11-alpha-Acetoxyprogesterone; LC-ESI-QTOF; MS2; CE 10 ev; [M+H]+
Name: 11-alpha-Acetoxyprogesterone
Formula: C23H32O4
Exact mass: 372.23006
SMILES: CC(=O)C1CCC2C1(CC(C3C2CCC4=CC(=O)CCC34C)OC(=O)C)C
InChI: InChI=1S/C23H32O4/c1-13(24)18-7-8-19-17-6-5-15-11-16(26)9-10-22(15,3)21(17)20(27-14(2)25)12-23(18,19)4/h11,17-21H,5-10,12H2,1-4H3
Instrument: Agilent 1200 RRLC; Agilent 6520 QTOF
Instrument type: LC-ESI-QTOF
Ms type: MS2
Ion mode: POSITIVE
Collision energy: 10 ev
Column name: Agilent C8 Cartridge Column 2.1X30mm 3.5 micron (guard); Agilent SB-Aq 2.1x50mm 1.8 micron (analytical)
Retention time: 9.619
Base peak: 313
Precursor m/z: 373.2374
Precursor type: [M+H]+
m/z	relative intensity
109.0661	52
147.0785	56
159.1195	37
161.0931	41
171.1147	56
173.0977	39
173.1326	62
213.1261	43
217.1547	52
221.1334	58
229.1601	52
231.1807	39
239.1426	77
253.1922	161
267.1803	60
269.1908	56
271.2021	110
277.1887	116
285.1812	43
295.2039	721
313.2148	999
313.2612	56
373.237	220
