Mass spectrum: 5,6-Dihydrothymidine; LC-ESI-QTOF; MS; POSITIVE
Name: 5,6-Dihydrothymidine
Formula: C10H16N2O5
Exact mass: 244.105922
SMILES: CC1CN(C(=O)NC1=O)[C@H]2C[C@@H]([C@H](O2)CO)O
InChI: InChI=1S/C10H16N2O5/c1-5-3-12(10(16)11-9(5)15)8-2-6(14)7(4-13)17-8/h5-8,13-14H,2-4H2,1H3,(H,11,15,16)/t5?,6-,7+,8+/m0/s1
Instrument: Agilent 1200 RRLC; Agilent 6520 QTOF
Instrument type: LC-ESI-QTOF
Ms type: MS
Ion mode: POSITIVE
Column name: Agilent C8 Cartridge Column 2.1X30mm 3.5 micron (guard); Agilent SB-Aq 2.1x50mm 1.8 micron (analytical)
Retention time: 0.448
m/z	relative intensity
245.1131765	999
267.095118	114
