Mass spectrum: Folic acid; LC-ESI-QTOF; MS2; CE 20 ev; [M-H]-
Name: Folic acid
Name: (2S)-2-[[4-[(2-amino-4-oxo-1H-pteridin-6-yl)methylamino]benzoyl]amino]pentanedioic acid
Name: Vitamin B11
Name: Vitamin B9
Name: Vitamin M
Formula: C19H19N7O6
Exact mass: 441.139681
SMILES: C1=CC(=CC=C1C(=O)N[C@@H](CCC(=O)O)C(=O)O)NCC2=CN=C3C(=N2)C(=O)NC(=N3)N
InChI: InChI=1S/C19H19N7O6/c20-19-25-15-14(17(30)26-19)23-11(8-22-15)7-21-10-3-1-9(2-4-10)16(29)24-12(18(31)32)5-6-13(27)28/h1-4,8,12,21H,5-7H2,(H,24,29)(H,27,28)(H,31,32)(H3,20,22,25,26,30)/t12-/m0/s1
Instrument: Agilent 1200 RRLC; Agilent 6520 QTOF
Instrument type: LC-ESI-QTOF
Ms type: MS2
Ion mode: NEGATIVE
Collision energy: 20 ev
Column name: Agilent C8 Cartridge Column 2.1X30mm 3.5 micron (guard); Agilent SB-Aq 2.1x50mm 1.8 micron (analytical)
Retention time: 3.998
Base peak: 440
Precursor m/z: 440.1324
Precursor type: [M-H]-
m/z	relative intensity
103.4112	14
119.0373	25
128.0353	43
128.0504	14
132.0559	20
146.0434	24
148.0662	20
174.0374	15
175.0523	48
175.0855	16
177.5903	13
203.0848	34
221.0938	14
262.7029	13
265.0877	28
268.0817	18
293.0798	99
293.1023	23
311.0903	747
311.1394	29
334.146	40
334.1996	19
335.1203	23
352.1573	48
353.1327	62
378.1245	36
379.1122	35
394.1554	12
396.142	180
397.1227	37
422.1213	162
440.1297	999
