Mass spectrum: Lagochiline; LC-ESI-QTOF; MS2; CE 10 ev; [M+H]+
Name: Lagochiline
Formula: C20H36O5
Exact mass: 356.256274
SMILES: CC1CCC2C(C13CCC(O3)(CCO)CO)(CCC(C2(C)CO)O)C
InChI: InChI=1S/C20H36O5/c1-14-4-5-15-17(2,12-22)16(24)6-7-18(15,3)20(14)9-8-19(13-23,25-20)10-11-21/h14-16,21-24H,4-13H2,1-3H3
Instrument: Agilent 1200 RRLC; Agilent 6520 QTOF
Instrument type: LC-ESI-QTOF
Ms type: MS2
Ion mode: POSITIVE
Collision energy: 10 ev
Column name: Agilent C8 Cartridge Column 2.1X30mm 3.5 micron (guard); Agilent SB-Aq 2.1x50mm 1.8 micron (analytical)
Retention time: 8.375
Base peak: 303
Precursor m/z: 357.2636
Precursor type: [M+H]+
m/z	relative intensity
107.0845	236
137.0972	272
149.1347	554
167.1015	245
175.1461	436
185.1151	836
185.131	336
187.1482	391
207.1356	227
207.1624	227
213.1648	354
217.1628	218
227.178	200
227.1927	182
241.1991	282
255.2075	436
267.2105	272
273.2213	945
285.2155	781
291.2261	218
303.2261	999
309.2367	409
321.2352	863
