Mass spectrum: 2-(4-chlorophenyl)-1-(2,4,6-trihydroxyphenyl)ethanone; LC-APCI-QTOF; MS; POSITIVE
Name: 2-(4-chlorophenyl)-1-(2,4,6-trihydroxyphenyl)ethanone
Formula: C14H11ClO4
Exact mass: 278.034587
SMILES: C1=CC(=CC=C1CC(=O)C2=C(C=C(C=C2O)O)O)Cl
InChI: InChI=1S/C14H11ClO4/c15-9-3-1-8(2-4-9)5-11(17)14-12(18)6-10(16)7-13(14)19/h1-4,6-7,16,18-19H,5H2
Instrument: Agilent 1200 RRLC; Agilent 6520 QTOF
Instrument type: LC-APCI-QTOF
Ms type: MS
Ion mode: POSITIVE
Column name: Agilent C8 Cartridge Column 2.1X30mm 3.5 micron (guard); Agilent SB-Aq 2.1x50mm 1.8 micron (analytical)
Retention time: 8.025
m/z	relative intensity
279.0418765	999
