Mass spectrum: Orobole 7-O-Glucoside, Acetate; LC-ESI-QTOF; MS2; CE 10 ev; [M+CH3COOH-H]-
Name: Orobole 7-O-Glucoside, Acetate
Formula: C35H34O18
Exact mass: 742.174514
SMILES: CC(=O)OCC1C(C(C(C(O1)OC2=CC(=C3C(=C2)OC=C(C3=O)C4=CC(=C(C=C4)OC(=O)C)OC(=O)C)OC(=O)C)OC(=O)C)OC(=O)C)OC(=O)C
InChI: InChI=1S/C35H34O18/c1-15(36)44-14-29-32(49-19(5)40)33(50-20(6)41)34(51-21(7)42)35(53-29)52-23-11-27-30(28(12-23)48-18(4)39)31(43)24(13-45-27)22-8-9-25(46-16(2)37)26(10-22)47-17(3)38/h8-13,29,32-35H,14H2,1-7H3
Instrument: Agilent 1200 RRLC; Agilent 6520 QTOF
Instrument type: LC-ESI-QTOF
Ms type: MS2
Ion mode: NEGATIVE
Collision energy: 10 ev
Column name: Agilent C8 Cartridge Column 2.1X30mm 3.5 micron (guard); Agilent SB-Aq 2.1x50mm 1.8 micron (analytical)
Retention time: 9.554
Base peak: 699
Precursor m/z: 801.1878
Precursor type: [M+CH3COOH-H]-
m/z	relative intensity
109.1588	19
123.4966	17
157.6308	21
232.4881	17
278.6819	29
314.7421	18
369.0394	26
369.0622	19
389.9957	20
629.7711	19
642.2598	20
657.1419	216
657.2213	16
699.155	999
699.2233	18
699.2835	40
699.4002	25
699.6756	18
700.1572	21
759.1577	44
800.9528	18
801.1901	308
