Mass spectrum: Thermopsoside, crotonoyl; LC-ESI-QTOF; MS2; CE 40 ev; [M-H]-
Name: Thermopsoside, crotonoyl
Formula: C26H26O12
Exact mass: 530.142426
SMILES: C/C=C/C(=O)OCC1C(C(C(C(O1)OC2=CC(=C3C(=C2)OC(=CC3=O)C4=CC(=C(C=C4)O)OC)O)O)O)O
InChI: InChI=1S/C26H26O12/c1-3-4-21(30)35-11-20-23(31)24(32)25(33)26(38-20)36-13-8-15(28)22-16(29)10-17(37-19(22)9-13)12-5-6-14(27)18(7-12)34-2/h3-10,20,23-28,31-33H,11H2,1-2H3/b4-3+
Instrument: Agilent 1200 RRLC; Agilent 6520 QTOF
Instrument type: LC-ESI-QTOF
Ms type: MS2
Ion mode: NEGATIVE
Collision energy: 40 ev
Column name: Agilent C8 Cartridge Column 2.1X30mm 3.5 micron (guard); Agilent SB-Aq 2.1x50mm 1.8 micron (analytical)
Retention time: 8.482
Base peak: 299
Precursor m/z: 529.1351
Precursor type: [M-H]-
m/z	relative intensity
116.9582	14
149.9916	17
241.0055	13
255.0303	475
255.0737	14
255.0856	13
256.0327	21
266.0023	13
268.0338	22
269.0455	65
283.023	858
283.0638	76
283.0946	34
283.1311	15
283.1785	13
283.2577	21
284.0309	766
284.065	20
284.0832	16
284.6782	14
284.739	15
285.0394	156
285.0928	16
297.0413	216
297.0574	22
298.0502	176
299.0551	999
299.1102	43
299.1333	18
299.2125	22
311.0511	25
313.031	203
327.0515	22
340.06	15
385.0601	13
428.0742	31
429.0815	72
445.0788	13
446.0948	16
495.0885	13
497.0862	22
514.1059	132
514.1233	30
514.149	24
