Mass spectrum: Mangostin; LC-ESI-QTOF; MS2; CE 20 ev; [M-H]-
Name: Mangostin
Formula: C24H26O6
Exact mass: 410.172939
SMILES: CC(=CCC1=C(C=C2C(=C1O)C(=O)C3=C(C(=C(C=C3O2)O)OC)CC=C(C)C)O)C
InChI: InChI=1S/C24H26O6/c1-12(2)6-8-14-16(25)10-19-21(22(14)27)23(28)20-15(9-7-13(3)4)24(29-5)17(26)11-18(20)30-19/h6-7,10-11,25-27H,8-9H2,1-5H3
Instrument: Agilent 1200 RRLC; Agilent 6520 QTOF
Instrument type: LC-ESI-QTOF
Ms type: MS2
Ion mode: NEGATIVE
Collision energy: 20 ev
Column name: Agilent C8 Cartridge Column 2.1X30mm 3.5 micron (guard); Agilent SB-Aq 2.1x50mm 1.8 micron (analytical)
Retention time: 11.171
Base peak: 409
Precursor m/z: 409.1656
Precursor type: [M-H]-
m/z	relative intensity
170.4142	32
204.9685	15
216.5937	24
255.0303	15
307.1432	27
311.0892	22
318.0506	17
338.0893	18
339.0792	221
339.1381	14
340.1005	23
351.0846	375
351.1387	34
353.1009	21
364.1305	18
365.1031	206
366.1121	56
375.1326	29
377.1378	195
377.228	19
379.1226	36
387.1578	16
392.3915	17
393.1178	30
393.1419	34
394.1368	440
394.1909	21
395.1426	17
408.1557	20
409.164	999
