Mass spectrum: 5'-Iodo-5'-deoxyadenosine; LC-APCI-QTOF; MS; POSITIVE
Name: 5'-Iodo-5'-deoxyadenosine
Formula: C10H12IN5O3
Exact mass: 376.998487
SMILES: C1=NC2=C(C(=N1)N)N=CN2C3C(C(C(O3)CI)O)O
InChI: InChI=1S/C10H12IN5O3/c11-1-4-6(17)7(18)10(19-4)16-3-15-5-8(12)13-2-14-9(5)16/h2-4,6-7,10,17-18H,1H2,(H2,12,13,14)
Instrument: Agilent 1200 RRLC; Agilent 6520 QTOF
Instrument type: LC-APCI-QTOF
Ms type: MS
Ion mode: POSITIVE
Column name: Agilent C8 Cartridge Column 2.1X30mm 3.5 micron (guard); Agilent SB-Aq 2.1x50mm 1.8 micron (analytical)
Retention time: 3.772
m/z	relative intensity
378.0057765	999
