Mass spectrum: (1,2,9,10-tetramethoxy-6-methyl-5,6,6a,7-tetrahydro-4H-dibenzo[de,g]quinolin-3-yl)methanol; LC-ESI-QTOF; MS2; CE 40 ev; [M+H]+
Name: (1,2,9,10-tetramethoxy-6-methyl-5,6,6a,7-tetrahydro-4H-dibenzo[de,g]quinolin-3-yl)methanol
Formula: C22H27NO5
Exact mass: 385.188923
SMILES: CN1CCC2=C(C(=C(C3=C2C1CC4=CC(=C(C=C43)OC)OC)OC)OC)CO
InChI: InChI=1S/C22H27NO5/c1-23-7-6-13-15(11-24)21(27-4)22(28-5)20-14-10-18(26-3)17(25-2)9-12(14)8-16(23)19(13)20/h9-10,16,24H,6-8,11H2,1-5H3
Instrument: Agilent 1200 RRLC; Agilent 6520 QTOF
Instrument type: LC-ESI-QTOF
Ms type: MS2
Ion mode: POSITIVE
Collision energy: 40 ev
Column name: Agilent C8 Cartridge Column 2.1X30mm 3.5 micron (guard); Agilent SB-Aq 2.1x50mm 1.8 micron (analytical)
Retention time: 4.971
Base peak: 279
Precursor m/z: 386.1962
Precursor type: [M+H]+
m/z	relative intensity
150.9557	102
181.0929	92
190.0775	122
208.092	69
218.0779	287
219.0779	132
220.0826	109
221.0961	181
224.0804	73
224.9906	96
225.0893	69
227.3752	66
231.0804	69
235.1061	148
236.0858	303
237.0929	188
238.1031	135
246.0874	69
247.0683	165
248.0848	171
249.0856	119
250.1023	119
251.1095	353
252.069	82
252.0952	119
253.1321	92
261.0861	148
262.0586	69
262.1143	89
263.1131	214
264.1248	76
265.0755	82
265.121	175
266.0973	129
267.0991	607
275.11	73
276.077	89
279.0887	227
279.1029	999
279.1303	106
282.1222	330
289.12	96
291.0907	218
294.1193	429
294.1618	66
295.0996	485
306.0813	73
307.099	135
309.1113	122
309.1284	89
310.1185	376
320.1148	102
322.1165	69
325.1471	234
336.117	148
