Mass spectrum: Kaempferide; LC-ESI-QTOF; MS2; CE 10 ev; [M-H]-
Name: Kaempferide
Formula: C16H12O6
Exact mass: 300.063388
SMILES: COC1=CC=C(C=C1)C2=C(C(=O)C3=C(C=C(C=C3O2)O)O)O
InChI: InChI=1S/C16H12O6/c1-21-10-4-2-8(3-5-10)16-15(20)14(19)13-11(18)6-9(17)7-12(13)22-16/h2-7,17-18,20H,1H3
Instrument: Agilent 1200 RRLC; Agilent 6520 QTOF
Instrument type: LC-ESI-QTOF
Ms type: MS2
Ion mode: NEGATIVE
Collision energy: 10 ev
Column name: Agilent C8 Cartridge Column 2.1X30mm 3.5 micron (guard); Agilent SB-Aq 2.1x50mm 1.8 micron (analytical)
Retention time: 8.763
Base peak: 299
Precursor m/z: 299.0561
Precursor type: [M-H]-
m/z	relative intensity
102.0865	4
107.0152	2
120.0247	6
128.7475	3
132.0218	13
139.7946	4
149.9964	2
151.0033	11
152.6682	2
162.9954	2
164.0094	3
173.0099	6
176.0129	2
194.668	8
217.0032	60
217.0465	3
217.6719	2
228.0403	5
228.0667	3
266.2025	4
283.9741	2
284.0332	151
284.0814	13
284.1364	2
284.9179	3
298.0459	3
299.0548	999
