Mass spectrum: Quercetin; LC-ESI-QTOF; MS2; CE 20 ev; [M-H]-
Name: Quercetin
Formula: C15H10O7
Exact mass: 302.042653
SMILES: C1=CC(=C(C=C1C2=C(C(=O)C3=C(C=C(C=C3O2)O)O)O)O)O
InChI: InChI=1S/C15H10O7/c16-7-4-10(19)12-11(5-7)22-15(14(21)13(12)20)6-1-2-8(17)9(18)3-6/h1-5,16-19,21H
Instrument: Agilent 1200 RRLC; Agilent 6520 QTOF
Instrument type: LC-ESI-QTOF
Ms type: MS2
Ion mode: NEGATIVE
Collision energy: 20 ev
Column name: Agilent C8 Cartridge Column 2.1X30mm 3.5 micron (guard); Agilent SB-Aq 2.1x50mm 1.8 micron (analytical)
Retention time: 6.625
Base peak: 151
Precursor m/z: 301.0354
Precursor type: [M-H]-
m/z	relative intensity
104.2972	17
107.0128	127
108.9899	17
121.0288	209
125.0229	32
125.1384	17
149.0207	23
151.0028	999
151.0395	18
151.0489	18
159.3653	26
163.0068	24
163.038	20
178.9975	487
179.0139	17
193.0131	34
214.0225	26
229.0422	18
229.0587	17
231.9251	19
240.0457	25
245.0455	25
257.0445	20
272.0201	22
273.0402	170
273.0603	17
300.0222	19
301.0331	654
