Mass spectrum: 6,7-Dimethoxy-4-methylcoumarin; LC-ESI-QTOF; MS2; CE 10 ev; [M+H]+
Name: 6,7-Dimethoxy-4-methylcoumarin
Formula: C12H12O4
Exact mass: 220.073559
SMILES: CC1=CC(=O)OC2=CC(=C(C=C12)OC)OC
InChI: InChI=1S/C12H12O4/c1-7-4-12(13)16-9-6-11(15-3)10(14-2)5-8(7)9/h4-6H,1-3H3
Instrument: Agilent 1200 RRLC; Agilent 6520 QTOF
Instrument type: LC-ESI-QTOF
Ms type: MS2
Ion mode: POSITIVE
Collision energy: 10 ev
Column name: Agilent C8 Cartridge Column 2.1X30mm 3.5 micron (guard); Agilent SB-Aq 2.1x50mm 1.8 micron (analytical)
Retention time: 6.585
Base peak: 221
Precursor m/z: 221.0809
Precursor type: [M+H]+
m/z	relative intensity
105.0696	6
150.0656	8
160.0563	11
162.0697	20
165.0891	31
177.0533	10
177.0905	6
193.0833	26
205.046	26
205.0548	11
206.0574	32
220.9987	7
221.0794	999
