Mass spectrum: Flindersine; LC-ESI-QTOF; MS2; CE 40 ev; [M+H]+
Name: Flindersine
Formula: C14H13NO2
Exact mass: 227.094629
SMILES: CC1(C=CC2=C(O1)C3=CC=CC=C3NC2=O)C
InChI: InChI=1S/C14H13NO2/c1-14(2)8-7-10-12(17-14)9-5-3-4-6-11(9)15-13(10)16/h3-8H,1-2H3,(H,15,16)
Instrument: Agilent 1200 RRLC; Agilent 6520 QTOF
Instrument type: LC-ESI-QTOF
Ms type: MS2
Ion mode: POSITIVE
Collision energy: 40 ev
Column name: Agilent C8 Cartridge Column 2.1X30mm 3.5 micron (guard); Agilent SB-Aq 2.1x50mm 1.8 micron (analytical)
Retention time: 8.328
Base peak: 168
Precursor m/z: 228.1019
Precursor type: [M+H]+
m/z	relative intensity
101.0388	104
102.0328	40
103.0553	192
104.0492	129
106.0657	36
113.0368	153
115.0534	429
116.047	108
116.056	41
117.0536	37
117.0598	86
118.0645	125
120.0435	628
127.0545	177
128.0491	647
129.0576	44
129.071	42
130.0278	145
130.0645	920
130.0945	33
132.0453	149
139.051	36
140.0488	677
140.0874	30
141.0528	36
142.0651	127
143.0742	97
144.0418	101
144.0784	44
146.0227	144
146.0586	145
148.045	37
152.0641	63
153.0665	38
154.0641	121
156.0439	123
156.0798	93
156.0914	33
157.0819	41
158.061	140
165.0683	222
166.0641	273
167.0719	957
168.0431	999
168.0659	27
168.0806	125
170.0603	466
172.0763	33
174.0525	325
177.0546	55
178.0659	37
179.0709	59
180.0803	144
182.0571	45
182.0981	42
184.0745	97
186.056	212
190.065	73
191.0705	99
192.0817	95
194.0555	84
195.0683	225
198.0542	621
208.0783	49
210.0884	89
210.1038	36
212.0687	402
213.0716	32
