Mass spectrum: L-Cysteic acid; LC-ESI-QTOF; MS2; CE 20 ev; [M-H]-
Name: L-Cysteic acid
Formula: C3H7NO5S
Exact mass: 169.004493
SMILES: C(C(C(=O)O)N)S(=O)(=O)O
InChI: InChI=1S/C3H7NO5S/c4-2(3(5)6)1-10(7,8)9/h2H,1,4H2,(H,5,6)(H,7,8,9)
Instrument: Agilent 1200 RRLC; Agilent 6520 QTOF
Instrument type: LC-ESI-QTOF
Ms type: MS2
Ion mode: NEGATIVE
Collision energy: 20 ev
Column name: Agilent C8 Cartridge Column 2.1X30mm 3.5 micron (guard); Agilent SB-Aq 2.1x50mm 1.8 micron (analytical)
Retention time: 0.381
Base peak: 151
Precursor m/z: 167.9972
Precursor type: [M-H]-
m/z	relative intensity
106.9802	46
119.0988	11
121.9899	13
122.9776	40
124.004	12
126.4168	10
139.9993	11
145.7033	12
149.991	29
150.9701	999
151.0055	20
151.028	8
151.0478	9
151.0835	15
151.3189	9
151.3867	13
159.2467	13
161.6862	9
167.9965	625
