Mass spectrum: L-Tryptophan; LC-ESI-QTOF; MS2; CE 10 ev; [M+H]+
Name: L-Tryptophan
Formula: C11H12N2O2
Exact mass: 204.089878
SMILES: C1=CC=C2C(=C1)C(=CN2)CC(C(=O)O)N
InChI: InChI=1S/C11H12N2O2/c12-9(11(14)15)5-7-6-13-10-4-2-1-3-8(7)10/h1-4,6,9,13H,5,12H2,(H,14,15)
Instrument: Agilent 1200 RRLC; Agilent 6520 QTOF
Instrument type: LC-ESI-QTOF
Ms type: MS2
Ion mode: POSITIVE
Collision energy: 10 ev
Column name: Agilent C8 Cartridge Column 2.1X30mm 3.5 micron (guard); Agilent SB-Aq 2.1x50mm 1.8 micron (analytical)
Retention time: 1.260
Base peak: 188
Precursor m/z: 205.0972
Precursor type: [M+H]+
m/z	relative intensity
103.0049	13
115.0551	13
118.0658	102
130.0659	14
132.0812	71
142.0656	17
144.0797	154
145.0074	29
146.0598	732
146.0938	25
159.092	83
170.059	54
188.0695	999
188.1073	21
188.1192	14
188.1337	13
