Mass spectrum: Hydrastine; LC-ESI-QTOF; MS2; CE 40 ev; [M+H]+
Name: Hydrastine
Formula: C21H21NO6
Exact mass: 383.136887
SMILES: CN1CCC2=CC3=C(C=C2C1C4C5=C(C(=C(C=C5)OC)OC)C(=O)O4)OCO3
InChI: InChI=1S/C21H21NO6/c1-22-7-6-11-8-15-16(27-10-26-15)9-13(11)18(22)19-12-4-5-14(24-2)20(25-3)17(12)21(23)28-19/h4-5,8-9,18-19H,6-7,10H2,1-3H3
Instrument: Agilent 1200 RRLC; Agilent 6520 QTOF
Instrument type: LC-ESI-QTOF
Ms type: MS2
Ion mode: POSITIVE
Collision energy: 40 ev
Column name: Agilent C8 Cartridge Column 2.1X30mm 3.5 micron (guard); Agilent SB-Aq 2.1x50mm 1.8 micron (analytical)
Retention time: 4.258
Base peak: 190
Precursor m/z: 384.1442
Precursor type: [M+H]+
m/z	relative intensity
119.0471	27
122.0338	28
130.039	43
131.0514	30
131.072	39
135.041	26
136.0498	26
143.0485	24
147.0458	32
149.0222	23
149.0619	69
159.0441	42
160.0483	22
165.0566	33
165.0677	71
174.0554	54
175.0595	45
176.0676	335
178.0739	79
179.0866	60
187.0615	31
188.0717	74
189.0717	74
189.0828	40
190.0844	999
190.1234	38
191.0859	26
192.0538	24
193.0515	106
194.0726	152
195.0694	40
203.0682	26
204.0575	74
205.0641	93
206.0742	80
207.0445	23
207.0827	53
209.0878	39
209.097	67
212.0763	41
219.0734	31
220.0511	52
221.0552	203
221.0706	26
221.098	47
222.0671	225
223.0731	62
224.0889	31
232.0527	170
233.0669	41
234.0666	152
234.0907	30
235.0412	28
235.0732	169
236.079	55
237.0508	54
237.0785	52
237.0917	124
239.0678	43
239.1057	52
240.0755	24
245.0556	48
246.0626	34
247.073	54
247.0885	26
248.0496	33
248.0822	29
249.0535	380
249.0907	57
250.06	520
250.1077	35
251.0697	239
252.0769	95
260.045	133
261.0593	53
262.0653	89
262.0726	30
263.0698	108
264.0667	24
264.0789	50
265.0471	109
265.0834	482
265.1062	43
266.0893	63
272.0438	40
274.0623	95
275.0737	41
276.0791	42
277.0426	153
277.0533	106
277.0713	58
277.0934	42
278.0551	262
278.0857	70
279.0617	196
280.0691	206
281.0754	49
283.0895	22
289.0385	31
289.056	85
290.0545	24
291.0594	122
291.0777	50
292.075	185
292.0894	31
293.0796	582
293.1293	26
294.0953	24
295.0952	166
295.1211	38
302.0555	122
304.0678	93
305.0786	23
307.0615	85
308.0625	147
320.0614	54
320.076	27
322.089	39
323.0848	124
336.0759	28
