Mass spectrum: Panthenol; LC-ESI-QTOF; MS2; CE 20 ev; [M-H]-
Name: Panthenol
Formula: C9H19NO4
Exact mass: 205.131408
SMILES: CC(C)(CO)C(C(=O)NCCCO)O
InChI: InChI=1S/C9H19NO4/c1-9(2,6-12)7(13)8(14)10-4-3-5-11/h7,11-13H,3-6H2,1-2H3,(H,10,14)
Instrument: Agilent 1200 RRLC; Agilent 6520 QTOF
Instrument type: LC-ESI-QTOF
Ms type: MS2
Ion mode: NEGATIVE
Collision energy: 20 ev
Column name: Agilent C8 Cartridge Column 2.1X30mm 3.5 micron (guard); Agilent SB-Aq 2.1x50mm 1.8 micron (analytical)
Retention time: 1.629
Base peak: 102
Precursor m/z: 204.1241
Precursor type: [M-H]-
m/z	relative intensity
100.0406	67
100.0752	5
101.0525	7
102.056	999
102.0856	37
102.1027	11
102.1273	8
102.1496	14
108.0829	24
116.0718	6
117.106	6
124.0757	7
126.0925	169
126.131	7
129.0576	33
130.0513	53
132.0653	6
144.0966	6
146.0797	35
156.1024	29
167.3965	7
172.095	25
174.1094	21
204.1236	238
