Mass spectrum: 2',4-Dihydroxychalcone; LC-ESI-QTOF; MS2; CE 40 ev; [M-H]-
Name: 2',4-Dihydroxychalcone
Formula: C15H12O3
Exact mass: 240.078644
SMILES: C1=CC=C(C(=C1)C(=O)/C=C/C2=CC=C(C=C2)O)O
InChI: InChI=1S/C15H12O3/c16-12-8-5-11(6-9-12)7-10-15(18)13-3-1-2-4-14(13)17/h1-10,16-17H/b10-7+
Instrument: Agilent 1200 RRLC; Agilent 6520 QTOF
Instrument type: LC-ESI-QTOF
Ms type: MS2
Ion mode: NEGATIVE
Collision energy: 40 ev
Column name: Agilent C8 Cartridge Column 2.1X30mm 3.5 micron (guard); Agilent SB-Aq 2.1x50mm 1.8 micron (analytical)
Retention time: 8.359
Base peak: 119
Precursor m/z: 239.0713
Precursor type: [M-H]-
m/z	relative intensity
104.0214	4
117.0293	10
117.0613	0
118.9994	0
119.0446	999
119.0782	20
119.0944	8
119.1187	8
119.1461	24
119.179	3
119.1868	1
119.2044	2
119.2213	0
119.2385	1
119.2464	2
119.2668	1
119.2786	2
119.2857	1
119.2969	2
119.3247	1
119.3351	2
119.351	1
119.3698	1
119.3838	2
119.4019	0
119.4089	1
119.4181	0
119.43	1
119.4434	2
119.4693	1
119.4805	1
119.489	0
119.5025	2
119.5251	2
119.5545	1
119.5814	0
119.5942	1
119.6023	0
119.6175	1
119.6351	1
119.6596	1
119.6829	1
119.7039	1
119.7239	1
119.7342	1
119.7937	1
119.8076	0
119.8315	0
119.8525	1
119.8884	1
119.91	1
119.9582	1
119.9888	0
120.0155	0
120.0473	1
120.0883	0
120.1236	0
120.1594	0
120.1686	0
120.1915	0
120.2376	1
120.2633	1
120.3272	0
120.433	1
120.5354	0
121.0236	1
133.0221	0
137.486	1
165.0641	0
195.0755	1
