Mass spectrum: 3,7-Dihydroxy-3',4'-dimethoxyflavone; LC-ESI-QTOF; MS2; CE 10 ev; [M-H]-
Name: 3,7-Dihydroxy-3',4'-dimethoxyflavone
Formula: C17H14O6
Exact mass: 314.079038
SMILES: COC1=C(C=C(C=C1)C2=C(C(=O)C3=C(O2)C=C(C=C3)O)O)OC
InChI: InChI=1S/C17H14O6/c1-21-12-6-3-9(7-14(12)22-2)17-16(20)15(19)11-5-4-10(18)8-13(11)23-17/h3-8,18,20H,1-2H3
Instrument: Agilent 1200 RRLC; Agilent 6520 QTOF
Instrument type: LC-ESI-QTOF
Ms type: MS2
Ion mode: NEGATIVE
Collision energy: 10 ev
Column name: Agilent C8 Cartridge Column 2.1X30mm 3.5 micron (guard); Agilent SB-Aq 2.1x50mm 1.8 micron (analytical)
Retention time: 8.273
Base peak: 313
Precursor m/z: 313.0717
Precursor type: [M-H]-
m/z	relative intensity
117.018	3
127.0567	6
129.1838	10
171.0393	6
183.0378	4
199.0418	6
235.7827	5
253.1109	7
255.0292	22
255.0479	5
269.0474	8
283.0206	43
287.2351	3
297.0417	27
297.5851	4
298.0476	142
298.1076	3
298.1232	4
298.1479	3
298.6395	5
313.0214	4
313.0711	999
