Mass spectrum: Vitexin-2-rhamnoside; LC-ESI-QTOF; MS2; CE 40 ev; [M+H]+
Name: Vitexin-2-rhamnoside
Name: 2-O-Rhamnosylvitexin
Formula: C27H30O14
Exact mass: 578.163556
SMILES: C[C@H]1[C@@H]([C@H]([C@H]([C@@H](O1)O[C@@H]2[C@H]([C@@H]([C@H](O[C@H]2C3=C(C=C(C4=C3OC(=CC4=O)C5=CC=C(C=C5)O)O)O)CO)O)O)O)O)O
InChI: InChI=1S/C27H30O14/c1-9-19(33)21(35)23(37)27(38-9)41-26-22(36)20(34)16(8-28)40-25(26)18-13(31)6-12(30)17-14(32)7-15(39-24(17)18)10-2-4-11(29)5-3-10/h2-7,9,16,19-23,25-31,33-37H,8H2,1H3/t9-,16+,19-,20+,21+,22-,23+,25-,26+,27-/m0/s1
Instrument: Agilent 1200 RRLC; Agilent 6520 QTOF
Instrument type: LC-ESI-QTOF
Ms type: MS2
Ion mode: POSITIVE
Collision energy: 40 ev
Column name: Agilent C8 Cartridge Column 2.1X30mm 3.5 micron (guard); Agilent SB-Aq 2.1x50mm 1.8 micron (analytical)
Retention time: 5.161
Base peak: 313
Precursor m/z: 579.1709
Precursor type: [M+H]+
m/z	relative intensity
271.0532	42
283.0612	636
284.0685	102
295.0607	124
297.0842	42
311.0543	72
313.0697	999
313.0975	86
323.0945	193
337.0722	335
343.0836	98
351.0946	92
355.0753	52
367.0806	239
379.0781	215
397.0904	411
397.1149	88
415.0986	187
433.1101	68
