Mass spectrum: Dehydroabietylamine; LC-ESI-QTOF; MS2; CE 20 ev; [M+H]+
Name: Dehydroabietylamine
Formula: C20H31N
Exact mass: 285.24565
SMILES: CC(C)C1=CC2=C(C=C1)C3(CCCC(C3CC2)(C)CN)C
InChI: InChI=1S/C20H31N/c1-14(2)15-6-8-17-16(12-15)7-9-18-19(3,13-21)10-5-11-20(17,18)4/h6,8,12,14,18H,5,7,9-11,13,21H2,1-4H3
Instrument: Agilent 1200 RRLC; Agilent 6520 QTOF
Instrument type: LC-ESI-QTOF
Ms type: MS2
Ion mode: POSITIVE
Collision energy: 20 ev
Column name: Agilent C8 Cartridge Column 2.1X30mm 3.5 micron (guard); Agilent SB-Aq 2.1x50mm 1.8 micron (analytical)
Retention time: 8.340
Base peak: 173
Precursor m/z: 286.2529
Precursor type: [M+H]+
m/z	relative intensity
109.0945	14
117.0717	37
121.1005	7
123.1203	20
129.0683	16
131.0851	296
131.1177	15
131.3421	6
133.0986	6
143.084	57
143.1115	5
145.0988	52
157.0937	21
159.1146	94
162.2098	5
171.1159	33
173.1312	999
173.166	17
173.188	31
173.2196	17
173.2512	17
173.3699	8
173.3936	8
173.4456	5
173.5009	5
173.7818	6
173.8476	6
185.0698	9
185.1321	131
185.1559	6
185.1747	6
187.1494	38
199.1432	38
199.1601	10
213.164	18
269.2207	7
286.2506	9
