Mass spectrum: Camphor; LC-APCI-QTOF; MS; POSITIVE
Name: Camphor
Formula: C10H16O
Exact mass: 152.120115
SMILES: CC1(C2CCC1(C(=O)C2)C)C
InChI: InChI=1S/C10H16O/c1-9(2)7-4-5-10(9,3)8(11)6-7/h7H,4-6H2,1-3H3
Instrument: Agilent 1200 RRLC; Agilent 6520 QTOF
Instrument type: LC-APCI-QTOF
Ms type: MS
Ion mode: POSITIVE
Column name: Agilent C8 Cartridge Column 2.1X30mm 3.5 micron (guard); Agilent SB-Aq 2.1x50mm 1.8 micron (analytical)
Retention time: 7.287
m/z	relative intensity
153.1273765	999
