Mass spectrum: Cyclocytidine; LC-ESI-QTOF; MS2; CE 10 ev; [M+H]+
Name: Cyclocytidine
Formula: C9H11N3O4
Exact mass: 225.074956
SMILES: C1=CN2C3C(C(C(O3)CO)O)OC2=NC1=N
InChI: InChI=1S/C9H11N3O4/c10-5-1-2-12-8-7(16-9(12)11-5)6(14)4(3-13)15-8/h1-2,4,6-8,10,13-14H,3H2
Instrument: Agilent 1200 RRLC; Agilent 6520 QTOF
Instrument type: LC-ESI-QTOF
Ms type: MS2
Ion mode: POSITIVE
Collision energy: 10 ev
Column name: Agilent C8 Cartridge Column 2.1X30mm 3.5 micron (guard); Agilent SB-Aq 2.1x50mm 1.8 micron (analytical)
Retention time: 0.351
Base peak: 178
Precursor m/z: 226.0823
Precursor type: [M+H]+
m/z	relative intensity
107.0593	20
108.0424	7
109.0411	8
112.0511	12
117.0438	12
119.0568	11
120.0507	8
135.0559	36
149.0589	7
150.0669	21
151.0528	7
161.0317	7
162.0676	20
162.6615	5
173.0312	9
178.0609	999
178.1045	30
178.1616	8
178.1838	27
178.295	6
178.4026	7
178.4404	8
178.4916	6
208.0718	12
226.0813	968
