Mass spectrum: Foliosidine; LC-ESI-QTOF; MS2; CE 10 ev; [M+H]+
Name: Foliosidine
Name: 8-(2,3-dihydroxy-3-methylbutoxy)-4-methoxy-1-methylhydroquinolin-2-one
Formula: C16H21NO5
Exact mass: 307.141973
SMILES: CC(C)(C(COC1=CC=CC2=C1N(C(=O)C=C2OC)C)O)O
InChI: InChI=1S/C16H21NO5/c1-16(2,20)13(18)9-22-11-7-5-6-10-12(21-4)8-14(19)17(3)15(10)11/h5-8,13,18,20H,9H2,1-4H3
Instrument: Agilent 1200 RRLC; Agilent 6520 QTOF
Instrument type: LC-ESI-QTOF
Ms type: MS2
Ion mode: POSITIVE
Collision energy: 10 ev
Column name: Agilent C8 Cartridge Column 2.1X30mm 3.5 micron (guard); Agilent SB-Aq 2.1x50mm 1.8 micron (analytical)
Retention time: 7.276
Base peak: 308
Precursor m/z: 308.1493
Precursor type: [M+H]+
m/z	relative intensity
146.0574	11
204.0675	23
205.0712	64
206.0787	66
218.0829	28
230.0857	11
260.1255	10
272.1247	25
290.1382	355
290.1915	12
308.1488	999
308.1955	47
308.2339	11
308.3067	17
