Mass spectrum: Himbacine; LC-ESI-QTOF; MS2; CE 40 ev; [M+H]+
Name: Himbacine
Name: (3S,3aR,4R,4aS,8aR,9aS)-4-[(1E)-2-[(2R,6S)-1,6-dimethyl-2-piperdinyl]ethenyl]decahydro-3-methyl-naphtho[2,3-c]furan-1(3H)-one
Formula: C22H35NO2
Exact mass: 345.266779
SMILES: CC1CCCC(N1C)C=CC2C3CCCCC3CC4C2C(OC4=O)C
InChI: InChI=1S/C22H35NO2/c1-14-7-6-9-17(23(14)3)11-12-19-18-10-5-4-8-16(18)13-20-21(19)15(2)25-22(20)24/h11-12,14-21H,4-10,13H2,1-3H3
Instrument: Agilent 1200 RRLC; Agilent 6520 QTOF
Instrument type: LC-ESI-QTOF
Ms type: MS2
Ion mode: POSITIVE
Collision energy: 40 ev
Column name: Agilent C8 Cartridge Column 2.1X30mm 3.5 micron (guard); Agilent SB-Aq 2.1x50mm 1.8 micron (analytical)
Retention time: 5.943
Base peak: 145
Precursor m/z: 346.2741
Precursor type: [M+H]+
m/z	relative intensity
105.0699	773
107.0842	219
107.089	277
109.0997	175
117.0695	518
119.0842	970
121.1012	467
129.0689	153
131.0846	467
131.0903	219
133.1015	649
135.1198	175
143.0853	518
145.0997	999
147.1143	248
157.0993	219
159.1143	540
161.1333	467
171.1199	197
173.1261	248
173.1359	204
185.1307	561
187.1434	321
199.1467	204
302.2752	175
346.2739	700
