Mass spectrum: Karanjin; LC-ESI-QTOF; MS2; CE 10 ev; [M+H]+
Name: Karanjin
Formula: C18H12O4
Exact mass: 292.073559
SMILES: COC1=C(OC2=C(C1=O)C=CC3=C2C=CO3)C4=CC=CC=C4
InChI: InChI=1S/C18H12O4/c1-20-18-15(19)13-7-8-14-12(9-10-21-14)17(13)22-16(18)11-5-3-2-4-6-11/h2-10H,1H3
Instrument: Agilent 1200 RRLC; Agilent 6520 QTOF
Instrument type: LC-ESI-QTOF
Ms type: MS2
Ion mode: POSITIVE
Collision energy: 10 ev
Column name: Agilent C8 Cartridge Column 2.1X30mm 3.5 micron (guard); Agilent SB-Aq 2.1x50mm 1.8 micron (analytical)
Retention time: 9.770
Base peak: 293
Precursor m/z: 293.0809
Precursor type: [M+H]+
m/z	relative intensity
221.064	24
250.058	16
277.0468	48
278.0583	112
293.0797	999
