Mass spectrum: 3-Hydroxy-3',4'-Dimethoxyflavone; LC-ESI-QTOF; MS2; CE 20 ev; [M+H]+
Name: 3-Hydroxy-3',4'-Dimethoxyflavone
Formula: C17H14O5
Exact mass: 298.084124
SMILES: COC1=C(C=C(C=C1)C2=C(C(=O)C3=CC=CC=C3O2)O)OC
InChI: InChI=1S/C17H14O5/c1-20-13-8-7-10(9-14(13)21-2)17-16(19)15(18)11-5-3-4-6-12(11)22-17/h3-9,19H,1-2H3
Instrument: Agilent 1200 RRLC; Agilent 6520 QTOF
Instrument type: LC-ESI-QTOF
Ms type: MS2
Ion mode: POSITIVE
Collision energy: 20 ev
Column name: Agilent C8 Cartridge Column 2.1X30mm 3.5 micron (guard); Agilent SB-Aq 2.1x50mm 1.8 micron (analytical)
Retention time: 8.955
Base peak: 299
Precursor m/z: 299.0914
Precursor type: [M+H]+
m/z	relative intensity
105.032	15
107.0482	14
121.0307	43
137.0608	88
138.0643	20
162.0321	48
181.0641	13
210.066	16
237.0573	37
238.0618	77
239.0679	43
240.0772	14
243.0931	16
254.0602	35
255.0613	116
256.0704	19
265.0499	52
266.0585	60
267.0666	77
268.0626	13
283.0593	333
284.0684	101
299.0903	999
