Mass spectrum: 9-methoxy-2,2-dimethyl-6-hydro-2H-pyrano[5,6-c]quinolin-5-one; LC-ESI-QTOF; MS2; CE 40 ev; [M+H]+
Name: 9-methoxy-2,2-dimethyl-6-hydro-2H-pyrano[5,6-c]quinolin-5-one
Formula: C15H15NO3
Exact mass: 257.105193
SMILES: CC1(C=CC2=C(O1)C3=C(C=CC(=C3)OC)NC2=O)C
InChI: InChI=1S/C15H15NO3/c1-15(2)7-6-10-13(19-15)11-8-9(18-3)4-5-12(11)16-14(10)17/h4-8H,1-3H3,(H,16,17)
Instrument: Agilent 1200 RRLC; Agilent 6520 QTOF
Instrument type: LC-ESI-QTOF
Ms type: MS2
Ion mode: POSITIVE
Collision energy: 40 ev
Column name: Agilent C8 Cartridge Column 2.1X30mm 3.5 micron (guard); Agilent SB-Aq 2.1x50mm 1.8 micron (analytical)
Retention time: 8.513
Base peak: 122
Precursor m/z: 258.1125
Precursor type: [M+H]+
m/z	relative intensity
101.9451	128
104.043	64
105.0587	69
107.047	48
117.057	383
120.0459	245
122.0591	999
127.0464	138
130.0633	83
132.0431	107
133.0505	138
141.0556	67
144.0763	57
145.057	147
152.0647	50
153.0557	105
154.0664	321
155.0287	105
155.071	52
157.0517	98
158.0576	235
160.0366	78
160.0753	200
161.0457	200
168.0803	143
169.0473	50
169.0878	178
170.0595	409
171.0687	52
172.0332	71
172.0808	57
173.0419	157
173.0498	314
173.0851	76
179.0739	95
180.0565	52
182.0575	188
185.0462	240
186.0525	297
187.0631	98
188.0696	59
196.0717	126
197.0829	542
198.0551	262
199.0595	136
200.0676	445
200.1013	52
201.0409	243
204.0651	138
207.0596	55
213.0456	64
214.0513	67
214.0781	50
215.0913	98
216.0644	50
224.0644	50
227.0622	88
228.0656	433
242.0785	326
243.081	74
