Mass spectrum: Methyllycaconitine; LC-ESI-QTOF; MS2; CE 40 ev; [M+H]+
Name: Methyllycaconitine
Formula: C37H50N2O10
Exact mass: 682.346546
SMILES: CCN1CC2(CCC(C34C2C(C(C31)(C5(CC(C6CC4C5C6OC)OC)O)O)OC)OC)COC(=O)C7=CC=CC=C7N8C(=O)CC(C8=O)C
InChI: InChI=1S/C37H50N2O10/c1-7-38-17-34(18-49-32(42)20-10-8-9-11-23(20)39-26(40)14-19(2)31(39)41)13-12-25(46-4)36-22-15-21-24(45-3)16-35(43,27(22)28(21)47-5)37(44,33(36)38)30(48-6)29(34)36/h8-11,19,21-22,24-25,27-30,33,43-44H,7,12-18H2,1-6H3
Instrument: Agilent 1200 RRLC; Agilent 6520 QTOF
Instrument type: LC-ESI-QTOF
Ms type: MS2
Ion mode: POSITIVE
Collision energy: 40 ev
Column name: Agilent C8 Cartridge Column 2.1X30mm 3.5 micron (guard); Agilent SB-Aq 2.1x50mm 1.8 micron (analytical)
Retention time: 6.075
Base peak: 683
Precursor m/z: 683.3538
Precursor type: [M+H]+
m/z	relative intensity
108.0793	223
121.0734	13
121.084	13
122.0953	124
124.1112	12
138.089	15
151.0714	17
159.0871	12
162.1285	11
178.0793	10
188.1028	11
193.0982	16
216.0648	375
216.1311	11
217.1	15
219.1157	15
221.1142	12
223.1134	15
231.0974	13
233.1358	14
251.1367	11
277.1291	13
322.1839	11
336.1822	32
340.2291	20
353.1472	11
354.207	29
358.2288	14
368.223	17
386.2332	87
515.2603	11
541.2579	25
559.2792	21
569.2689	29
573.3003	37
587.2634	37
591.2899	19
601.2888	39
605.3168	35
605.3462	21
619.3016	141
619.3526	15
633.3075	38
651.3226	151
651.3664	14
665.3401	21
683.3514	999
683.4693	28
683.5247	11
683.9514	11
684.0256	11
684.3472	20
684.4309	10
