Mass spectrum: 2'-O-Methylcytidine; LC-ESI-QTOF; MS2; CE 10 ev; [M+H]+
Name: 2'-O-Methylcytidine
Formula: C10H15N3O5
Exact mass: 257.101171
SMILES: COC1C(C(OC1N2C=CC(=NC2=O)N)CO)O
InChI: InChI=1S/C10H15N3O5/c1-17-8-7(15)5(4-14)18-9(8)13-3-2-6(11)12-10(13)16/h2-3,5,7-9,14-15H,4H2,1H3,(H2,11,12,16)
Instrument: Agilent 1200 RRLC; Agilent 6520 QTOF
Instrument type: LC-ESI-QTOF
Ms type: MS2
Ion mode: POSITIVE
Collision energy: 10 ev
Column name: Agilent C8 Cartridge Column 2.1X30mm 3.5 micron (guard); Agilent SB-Aq 2.1x50mm 1.8 micron (analytical)
Retention time: 0.389
Base peak: 112
Precursor m/z: 258.1085
Precursor type: [M+H]+
m/z	relative intensity
101.0583	10
112.0507	999
112.0827	26
112.099	3
112.1167	2
112.1277	2
112.1488	12
112.1549	2
112.1877	3
112.225	2
112.243	2
112.2591	1
112.2725	2
112.3152	2
112.3429	1
112.3504	2
112.4052	2
112.4946	3
112.5435	1
112.6217	1
112.7124	1
112.7266	2
112.877	1
112.9163	1
112.9625	1
115.0374	1
129.052	2
147.0666	3
