Mass spectrum: Rubone; LC-ESI-QTOF; MS2; CE 10 ev; [M-H]-
Name: Rubone
Formula: C20H22O7
Exact mass: 374.136553
SMILES: COC1=CC(=C(C(=C1)OC)C(=O)C=CC2=CC(=C(C=C2OC)OC)OC)O
InChI: InChI=1S/C20H22O7/c1-23-13-9-15(22)20(19(10-13)27-5)14(21)7-6-12-8-17(25-3)18(26-4)11-16(12)24-2/h6-11,22H,1-5H3
Instrument: Agilent 1200 RRLC; Agilent 6520 QTOF
Instrument type: LC-ESI-QTOF
Ms type: MS2
Ion mode: NEGATIVE
Collision energy: 10 ev
Column name: Agilent C8 Cartridge Column 2.1X30mm 3.5 micron (guard); Agilent SB-Aq 2.1x50mm 1.8 micron (analytical)
Retention time: 10.135
Base peak: 373
Precursor m/z: 373.1293
Precursor type: [M-H]-
m/z	relative intensity
126.3868	120
127.0002	50
135.487	70
138.5538	113
279.9386	81
291.0067	59
373.1268	999
