Mass spectrum: 6-Fluoro-DL-tryptophan; LC-APCI-QTOF; MS; NEGATIVE
Name: 6-Fluoro-DL-tryptophan
Formula: C11H11FN2O2
Exact mass: 222.080456
SMILES: C1=CC2=C(C=C1F)NC=C2CC(C(=O)O)N
InChI: InChI=1S/C11H11FN2O2/c12-7-1-2-8-6(3-9(13)11(15)16)5-14-10(8)4-7/h1-2,4-5,9,14H,3,13H2,(H,15,16)
Instrument: Agilent 1200 RRLC; Agilent 6520 QTOF
Instrument type: LC-APCI-QTOF
Ms type: MS
Ion mode: NEGATIVE
Column name: Agilent C8 Cartridge Column 2.1X30mm 3.5 micron (guard); Agilent SB-Aq 2.1x50mm 1.8 micron (analytical)
Retention time: 1.702
m/z	relative intensity
221.0732235	999
