Mass spectrum: Pinocembrin; LC-ESI-QTOF; MS2; CE 40 ev; [M-H]-
Name: Pinocembrin
Formula: C15H12O4
Exact mass: 256.073559
SMILES: C1C(OC2=CC(=CC(=C2C1=O)O)O)C3=CC=CC=C3
InChI: InChI=1S/C15H12O4/c16-10-6-11(17)15-12(18)8-13(19-14(15)7-10)9-4-2-1-3-5-9/h1-7,13,16-17H,8H2
Instrument: Agilent 1200 RRLC; Agilent 6520 QTOF
Instrument type: LC-ESI-QTOF
Ms type: MS2
Ion mode: NEGATIVE
Collision energy: 40 ev
Column name: Agilent C8 Cartridge Column 2.1X30mm 3.5 micron (guard); Agilent SB-Aq 2.1x50mm 1.8 micron (analytical)
Retention time: 7.859
Base peak: 107
Precursor m/z: 255.0663
Precursor type: [M-H]-
m/z	relative intensity
101.0389	340
101.0657	6
101.0702	7
101.0896	8
103.0548	176
103.1635	17
105.0337	12
105.0396	7
106.2647	6
107.0141	999
107.0458	25
107.1102	9
108.021	372
108.05	7
108.0573	7
108.3736	6
109.0288	50
115.0553	112
117.0345	138
117.0696	70
119.0126	23
120.0217	49
120.3256	6
121.0308	9
122.0002	73
123.0073	90
125.0206	33
126.051	10
127.0565	83
127.0873	8
129.0325	15
129.0701	30
129.9282	6
130.0435	104
131.0473	18
133.0328	16
136.0167	96
139.0543	43
141.0701	214
141.105	13
143.0491	126
145.0651	534
145.0996	24
145.1198	8
145.148	8
145.1775	8
145.3385	7
151.003	228
151.0469	9
151.0687	8
151.1167	6
154.0379	7
155.0886	18
157.0676	35
162.9991	27
163.0151	10
164.0106	44
167.0459	25
168.0622	8
169.0649	111
171.0442	689
171.0803	13
171.0932	8
171.1056	13
171.1281	8
171.166	9
171.5362	6
172.051	43
172.0594	25
177.0246	18
183.0866	28
184.0556	13
185.0593	383
185.0979	11
187.0777	35
187.4395	11
193.0589	22
195.0573	8
195.9132	8
196.0578	6
199.0417	7
209.062	22
211.0732	23
213.0564	103
215.0401	7
218.541	7
219.8622	10
221.8931	7
224.3573	8
226.0575	8
227.0699	15
255.0618	27
