Mass spectrum: Corynanthine; LC-ESI-QTOF; MS2; CE 40 ev; [M-H]-
Name: Corynanthine
Formula: C21H26N2O3
Exact mass: 354.194343
SMILES: COC(=O)[C@@H]1[C@H](CC[C@@H]2[C@@H]1C[C@H]3C4=C(CCN3C2)C5=CC=CC=C5N4)O
InChI: InChI=1S/C21H26N2O3/c1-26-21(25)19-15-10-17-20-14(13-4-2-3-5-16(13)22-20)8-9-23(17)11-12(15)6-7-18(19)24/h2-5,12,15,17-19,22,24H,6-11H2,1H3/t12-,15-,17-,18-,19-/m0/s1
Instrument: Agilent 1200 RRLC; Agilent 6520 QTOF
Instrument type: LC-ESI-QTOF
Ms type: MS2
Ion mode: NEGATIVE
Collision energy: 40 ev
Column name: Agilent C8 Cartridge Column 2.1X30mm 3.5 micron (guard); Agilent SB-Aq 2.1x50mm 1.8 micron (analytical)
Retention time: 4.181
Base peak: 169
Precursor m/z: 353.1870
Precursor type: [M-H]-
m/z	relative intensity
122.0595	93
141.0409	97
142.063	97
143.0785	200
146.0615	77
148.079	103
149.65	100
155.0661	148
156.0799	793
156.1059	71
163.6814	68
167.0621	148
168.0915	64
169.0774	999
175.6906	93
178.0932	74
181.0871	161
182.0575	81
183.0932	193
197.1065	116
206.0888	74
208.087	97
210.0916	87
218.3624	129
221.1059	93
233.1093	100
234.1339	106
236.115	164
260.1032	110
265.1369	97
268.8194	84
271.5025	93
273.1435	245
275.1182	206
277.1333	64
285.1336	119
286.2052	222
291.1414	93
293.1619	751
293.2031	90
303.1415	219
321.1595	474
353.1911	387
