Mass spectrum: Anisomycin; LC-ESI-QTOF; MS2; CE 40 ev; [M+H]+
Name: Anisomycin
Formula: C14H19NO4
Exact mass: 265.131408
SMILES: CC(=O)OC1C(CNC1CC2=CC=C(C=C2)OC)O
InChI: InChI=1S/C14H19NO4/c1-9(16)19-14-12(15-8-13(14)17)7-10-3-5-11(18-2)6-4-10/h3-6,12-15,17H,7-8H2,1-2H3
Instrument: Agilent 1200 RRLC; Agilent 6520 QTOF
Instrument type: LC-ESI-QTOF
Ms type: MS2
Ion mode: POSITIVE
Collision energy: 40 ev
Column name: Agilent C8 Cartridge Column 2.1X30mm 3.5 micron (guard); Agilent SB-Aq 2.1x50mm 1.8 micron (analytical)
Retention time: 2.846
Base peak: 121
Precursor m/z: 266.1387
Precursor type: [M+H]+
m/z	relative intensity
102.046	16
103.0541	14
105.0667	9
105.0732	8
106.0419	9
107.0483	11
114.9493	8
115.0515	45
116.0614	13
117.0581	7
117.0686	11
118.0635	16
121.0648	999
121.08	13
121.0922	11
121.1009	15
121.1107	12
121.126	7
121.1663	20
127.0495	7
127.0575	12
128.0598	36
129.0687	9
130.0634	12
131.0717	11
132.0565	11
135.0749	14
144.0568	40
145.0664	15
146.0655	14
147.0802	21
156.0495	7
156.08	20
158.056	9
172.0847	7
173.0784	9
