Mass spectrum: 2'-Hydroxy-a-naphthoflavone; LC-ESI-QTOF; MS; POSITIVE
Name: 2'-Hydroxy-a-naphthoflavone
Formula: C19H12O3
Exact mass: 288.078644
SMILES: C1=CC=C2C(=C1)C=CC3=C2OC(=CC3=O)C4=CC=CC=C4O
InChI: InChI=1S/C19H12O3/c20-16-8-4-3-7-14(16)18-11-17(21)15-10-9-12-5-1-2-6-13(12)19(15)22-18/h1-11,20H
Instrument: Agilent 1200 RRLC; Agilent 6520 QTOF
Instrument type: LC-ESI-QTOF
Ms type: MS
Ion mode: POSITIVE
Column name: Agilent C8 Cartridge Column 2.1X30mm 3.5 micron (guard); Agilent SB-Aq 2.1x50mm 1.8 micron (analytical)
Retention time: 9.665
m/z	relative intensity
289.0858765	999
311.067818	334
