Mass spectrum: Verapamil; LC-ESI-QTOF; MS2; CE 10 ev; [M+H]+
Name: Verapamil
Formula: C27H38N2O4
Exact mass: 454.283158
SMILES: CC(C)C(CCCN(C)CCC1=CC(=C(C=C1)OC)OC)(C#N)C2=CC(=C(C=C2)OC)OC
InChI: InChI=1S/C27H38N2O4/c1-20(2)27(19-28,22-10-12-24(31-5)26(18-22)33-7)14-8-15-29(3)16-13-21-9-11-23(30-4)25(17-21)32-6/h9-12,17-18,20H,8,13-16H2,1-7H3
Instrument: Agilent 1200 RRLC; Agilent 6520 QTOF
Instrument type: LC-ESI-QTOF
Ms type: MS2
Ion mode: POSITIVE
Collision energy: 10 ev
Column name: Agilent C8 Cartridge Column 2.1X30mm 3.5 micron (guard); Agilent SB-Aq 2.1x50mm 1.8 micron (analytical)
Retention time: 6.649
Base peak: 455
Precursor m/z: 455.2905
Precursor type: [M+H]+
m/z	relative intensity
150.066	9
165.0892	112
303.2038	34
455.2885	999
