Mass spectrum: Picrotoxinin; LC-ESI-QTOF; MS2; CE 20 ev; [M-H]-
Name: Picrotoxinin
Formula: C15H16O6
Exact mass: 292.094688
SMILES: CC(=C)C1C2C3C4(C(C1C(=O)O2)(CC5C4(O5)C(=O)O3)O)C
InChI: InChI=1S/C15H16O6/c1-5(2)7-8-11(16)19-9(7)10-13(3)14(8,18)4-6-15(13,21-6)12(17)20-10/h6-10,18H,1,4H2,2-3H3
Instrument: Agilent 1200 RRLC; Agilent 6520 QTOF
Instrument type: LC-ESI-QTOF
Ms type: MS2
Ion mode: NEGATIVE
Collision energy: 20 ev
Column name: Agilent C8 Cartridge Column 2.1X30mm 3.5 micron (guard); Agilent SB-Aq 2.1x50mm 1.8 micron (analytical)
Retention time: 4.208
Base peak: 109
Precursor m/z: 291.0874
Precursor type: [M-H]-
m/z	relative intensity
105.07	12
106.04	5
107.0534	12
108.0209	34
109.0289	999
109.0606	25
109.0769	12
109.1268	17
109.3916	7
119.0821	6
121.0667	8
122.0361	14
123.0454	40
129.0646	15
131.0863	6
133.0636	5
133.1021	13
135.0445	12
135.0765	5
136.0532	6
143.085	8
146.0714	7
147.072	6
148.053	6
157.0977	7
159.1146	26
161.0977	7
170.0726	6
173.0589	10
173.0962	8
175.1141	39
185.0974	10
188.0833	13
201.0902	8
203.1111	31
214.3075	6
252.8039	5
255.7179	5
280.9578	6
291.0975	5
