Mass spectrum: 3-{[(7-methoxy-2-oxochromen-4-yl)methyl]methylamino}propanenitrile; LC-ESI-QTOF; MS2; CE 20 ev; [M-H]-
Name: 3-{[(7-methoxy-2-oxochromen-4-yl)methyl]methylamino}propanenitrile
Formula: C15H16N2O3
Exact mass: 272.116092
SMILES: CN(CCC#N)CC1=CC(=O)OC2=C1C=CC(=C2)OC
InChI: InChI=1S/C15H16N2O3/c1-17(7-3-6-16)10-11-8-15(18)20-14-9-12(19-2)4-5-13(11)14/h4-5,8-9H,3,7,10H2,1-2H3
Instrument: Agilent 1200 RRLC; Agilent 6520 QTOF
Instrument type: LC-ESI-QTOF
Ms type: MS2
Ion mode: NEGATIVE
Collision energy: 20 ev
Column name: Agilent C8 Cartridge Column 2.1X30mm 3.5 micron (guard); Agilent SB-Aq 2.1x50mm 1.8 micron (analytical)
Retention time: 6.961
Base peak: 203
Precursor m/z: 271.1088
Precursor type: [M-H]-
m/z	relative intensity
118.0472	20
123.0389	30
132.0215	77
133.0337	41
146.0364	290
147.044	516
147.0796	24
150.0079	28
150.031	33
159.0461	29
160.0445	59
161.0256	24
174.033	17
175.0359	186
175.0627	186
188.0352	755
188.0702	38
188.7448	20
189.056	47
190.0783	31
190.0874	111
198.0607	26
202.053	21
203.0569	999
203.0986	43
203.1171	20
203.2452	25
216.0658	38
218.0832	273
218.1062	35
252.3574	36
263.8025	23
268.879	39
