Mass spectrum: 2-(4-chlorophenyl)-1-(2,4,6-trihydroxyphenyl)ethanone; LC-ESI-QTOF; MS2; CE 10 ev; [M+H]+
Name: 2-(4-chlorophenyl)-1-(2,4,6-trihydroxyphenyl)ethanone
Formula: C14H11ClO4
Exact mass: 278.034587
SMILES: C1=CC(=CC=C1CC(=O)C2=C(C=C(C=C2O)O)O)Cl
InChI: InChI=1S/C14H11ClO4/c15-9-3-1-8(2-4-9)5-11(17)14-12(18)6-10(16)7-13(14)19/h1-4,6-7,16,18-19H,5H2
Instrument: Agilent 1200 RRLC; Agilent 6520 QTOF
Instrument type: LC-ESI-QTOF
Ms type: MS2
Ion mode: POSITIVE
Collision energy: 10 ev
Column name: Agilent C8 Cartridge Column 2.1X30mm 3.5 micron (guard); Agilent SB-Aq 2.1x50mm 1.8 micron (analytical)
Retention time: 7.978
Base peak: 279
Precursor m/z: 279.0419
Precursor type: [M+H]+
m/z	relative intensity
125.0141	225
153.0074	108
167.0293	169
191.02	220
195.0192	507
233.0348	369
237.0409	133
261.0355	174
279.04	999
