Mass spectrum: Scopoletin; LC-ESI-QTOF; MS2; CE 10 ev; [M+H]+
Name: Scopoletin
Formula: C10H8O4
Exact mass: 192.042259
SMILES: COC1=C(C=C2C(=C1)C=CC(=O)O2)O
InChI: InChI=1S/C10H8O4/c1-13-9-4-6-2-3-10(12)14-8(6)5-7(9)11/h2-5,11H,1H3
Instrument: Agilent 1200 RRLC; Agilent 6520 QTOF
Instrument type: LC-ESI-QTOF
Ms type: MS2
Ion mode: POSITIVE
Collision energy: 10 ev
Column name: Agilent C8 Cartridge Column 2.1X30mm 3.5 micron (guard); Agilent SB-Aq 2.1x50mm 1.8 micron (analytical)
Retention time: 4.629
Base peak: 193
Precursor m/z: 193.0496
Precursor type: [M+H]+
m/z	relative intensity
114.9452	28
133.0268	210
137.0554	58
150.0296	18
164.0445	39
178.0242	92
192.9619	19
193.0483	999
