Mass spectrum: 5-Hydroxy-3'-methoxyflavone; LC-ESI-QTOF; MS2; CE 10 ev; [M+H]+
Name: 5-Hydroxy-3'-methoxyflavone
Formula: C16H12O4
Exact mass: 268.073559
SMILES: COC1=CC=CC(=C1)C2=CC(=O)C3=C(O2)C=CC=C3O
InChI: InChI=1S/C16H12O4/c1-19-11-5-2-4-10(8-11)15-9-13(18)16-12(17)6-3-7-14(16)20-15/h2-9,17H,1H3
Instrument: Agilent 1200 RRLC; Agilent 6520 QTOF
Instrument type: LC-ESI-QTOF
Ms type: MS2
Ion mode: POSITIVE
Collision energy: 10 ev
Column name: Agilent C8 Cartridge Column 2.1X30mm 3.5 micron (guard); Agilent SB-Aq 2.1x50mm 1.8 micron (analytical)
Retention time: 9.673
Base peak: 269
Precursor m/z: 269.0809
Precursor type: [M+H]+
m/z	relative intensity
104.9919	157
176.9878	27
226.0651	45
269.0792	999
