Mass spectrum: Cinchonamine; LC-ESI-QTOF; MS; NEGATIVE
Name: Cinchonamine
Formula: C19H24N2O
Exact mass: 296.188863
SMILES: C=CC1CN2CCC1CC2C3=C(C4=CC=CC=C4N3)CCO
InChI: InChI=1S/C19H24N2O/c1-2-13-12-21-9-7-14(13)11-18(21)19-16(8-10-22)15-5-3-4-6-17(15)20-19/h2-6,13-14,18,20,22H,1,7-12H2
Instrument: Agilent 1200 RRLC; Agilent 6520 QTOF
Instrument type: LC-ESI-QTOF
Ms type: MS
Ion mode: NEGATIVE
Column name: Agilent C8 Cartridge Column 2.1X30mm 3.5 micron (guard); Agilent SB-Aq 2.1x50mm 1.8 micron (analytical)
Retention time: 5.009
m/z	relative intensity
295.1816235	999
355.202204	33
