Mass spectrum: 6-Ethoxy-3(4'-hydroxyphenyl)-4-methylcoumarin; LC-ESI-QTOF; MS2; CE 10 ev; [M-H]-
Name: 6-Ethoxy-3(4'-hydroxyphenyl)-4-methylcoumarin
Formula: C18H16O4
Exact mass: 296.104859
SMILES: CCOC1=CC2=C(C=C1)OC(=O)C(=C2C)C3=CC=C(C=C3)O
InChI: InChI=1S/C18H16O4/c1-3-21-14-8-9-16-15(10-14)11(2)17(18(20)22-16)12-4-6-13(19)7-5-12/h4-10,19H,3H2,1-2H3
Instrument: Agilent 1200 RRLC; Agilent 6520 QTOF
Instrument type: LC-ESI-QTOF
Ms type: MS2
Ion mode: NEGATIVE
Collision energy: 10 ev
Column name: Agilent C8 Cartridge Column 2.1X30mm 3.5 micron (guard); Agilent SB-Aq 2.1x50mm 1.8 micron (analytical)
Retention time: 8.592
Base peak: 295
Precursor m/z: 295.0976
Precursor type: [M-H]-
m/z	relative intensity
117.0367	3
119.0383	2
173.0258	3
193.0709	1
208.0476	1
209.0553	2
213.1454	2
222.0674	4
223.038	2
237.0501	2
238.0645	27
239.0785	1
249.0538	7
251.0328	11
266.0576	79
266.0867	1
266.106	4
266.1332	2
266.1628	1
266.2072	1
267.0621	3
267.0956	3
267.1138	2
295.0963	999
