Mass spectrum: Demecolcine; LC-ESI-QTOF; MS2; CE 10 ev; [M+H]+
Name: Demecolcine
Formula: C21H25NO5
Exact mass: 371.173273
SMILES: CNC1CCC2=CC(=C(C(=C2C3=CC=C(C(=O)C=C13)OC)OC)OC)OC
InChI: InChI=1S/C21H25NO5/c1-22-15-8-6-12-10-18(25-3)20(26-4)21(27-5)19(12)13-7-9-17(24-2)16(23)11-14(13)15/h7,9-11,15,22H,6,8H2,1-5H3
Instrument: Agilent 1200 RRLC; Agilent 6520 QTOF
Instrument type: LC-ESI-QTOF
Ms type: MS2
Ion mode: POSITIVE
Collision energy: 10 ev
Column name: Agilent C8 Cartridge Column 2.1X30mm 3.5 micron (guard); Agilent SB-Aq 2.1x50mm 1.8 micron (analytical)
Retention time: 4.950
Base peak: 372
Precursor m/z: 372.1806
Precursor type: [M+H]+
m/z	relative intensity
250.0969	3
256.1005	4
267.1031	5
268.1142	4
270.1147	4
272.0996	8
278.091	12
279.1013	6
279.1331	4
282.1225	9
284.1075	8
285.1106	9
287.1188	4
295.0937	7
298.1202	3
299.1256	11
300.097	6
301.1433	16
307.1122	4
308.1268	18
308.1401	5
309.1278	14
310.1155	59
310.1577	4
310.1874	3
311.1282	7
312.1555	26
313.113	4
313.1454	15
315.1236	36
323.145	7
323.1555	5
324.1282	8
325.1257	12
326.1098	22
326.1249	9
326.1487	5
329.1392	5
340.1532	106
340.2	5
341.1379	62
341.1684	5
341.2005	5
342.1358	9
344.1495	19
354.1695	14
357.155	14
372.1804	999
