Mass spectrum: Rubone; LC-ESI-QTOF; MS2; CE 20 ev; [M+H]+
Name: Rubone
Formula: C20H22O7
Exact mass: 374.136553
SMILES: COC1=CC(=C(C(=C1)OC)C(=O)C=CC2=CC(=C(C=C2OC)OC)OC)O
InChI: InChI=1S/C20H22O7/c1-23-13-9-15(22)20(19(10-13)27-5)14(21)7-6-12-8-17(25-3)18(26-4)11-16(12)24-2/h6-11,22H,1-5H3
Instrument: Agilent 1200 RRLC; Agilent 6520 QTOF
Instrument type: LC-ESI-QTOF
Ms type: MS2
Ion mode: POSITIVE
Collision energy: 20 ev
Column name: Agilent C8 Cartridge Column 2.1X30mm 3.5 micron (guard); Agilent SB-Aq 2.1x50mm 1.8 micron (analytical)
Retention time: 10.184
Base peak: 181
Precursor m/z: 375.1439
Precursor type: [M+H]+
m/z	relative intensity
166.0265	16
167.0643	6
178.0674	16
181.0488	999
181.0854	35
181.1215	8
181.1401	9
181.1727	9
191.0298	23
193.0892	6
206.0563	149
206.1047	8
221.0803	402
221.1193	18
221.1487	6
357.1269	7
375.1454	41
