Mass spectrum: 5-Methyltryptamine; LC-ESI-QTOF; MS2; CE 20 ev; [M+H]+
Name: 5-Methyltryptamine
Formula: C11H14N2
Exact mass: 174.115698
SMILES: CC1=CC2=C(C=C1)NC=C2CCN
InChI: InChI=1S/C11H14N2/c1-8-2-3-11-10(6-8)9(4-5-12)7-13-11/h2-3,6-7,13H,4-5,12H2,1H3
Instrument: Agilent 1200 RRLC; Agilent 6520 QTOF
Instrument type: LC-ESI-QTOF
Ms type: MS2
Ion mode: POSITIVE
Collision energy: 20 ev
Column name: Agilent C8 Cartridge Column 2.1X30mm 3.5 micron (guard); Agilent SB-Aq 2.1x50mm 1.8 micron (analytical)
Retention time: 2.410
Base peak: 143
Precursor m/z: 175.1230
Precursor type: [M+H]+
m/z	relative intensity
114.9484	41
115.054	67
116.0613	25
117.0558	25
117.0667	12
129.0701	11
130.0631	20
131.0849	86
141.0697	29
142.0605	25
142.0669	21
143.0727	999
143.1103	20
143.183	10
156.0794	20
157.0857	46
157.0923	32
158.0958	862
158.1283	13
158.1391	18
158.1596	14
