Mass spectrum: (+)-Bicuculline; LC-ESI-QTOF; MS2; CE 20 ev; [M+H]+
Name: (+)-Bicuculline
Formula: C20H17NO6
Exact mass: 367.105587
SMILES: CN1CCC2=CC3=C(C=C2[C@H]1[C@H]4C5=C(C6=C(C=C5)OCO6)C(=O)O4)OCO3
InChI: InChI=1S/C20H17NO6/c1-21-5-4-10-6-14-15(25-8-24-14)7-12(10)17(21)18-11-2-3-13-19(26-9-23-13)16(11)20(22)27-18/h2-3,6-7,17-18H,4-5,8-9H2,1H3/t17-,18+/m0/s1
Instrument: Agilent 1200 RRLC; Agilent 6520 QTOF
Instrument type: LC-ESI-QTOF
Ms type: MS2
Ion mode: POSITIVE
Collision energy: 20 ev
Column name: Agilent C8 Cartridge Column 2.1X30mm 3.5 micron (guard); Agilent SB-Aq 2.1x50mm 1.8 micron (analytical)
Retention time: 3.936
Base peak: 307
Precursor m/z: 368.1129
Precursor type: [M+H]+
m/z	relative intensity
135.0463	5
149.0585	27
161.0704	7
165.0725	5
175.0347	8
176.0684	41
177.0102	5
179.0368	8
188.0711	12
189.0757	42
190.0849	184
190.1274	8
191.0535	6
191.0895	8
205.0664	11
219.0448	8
221.0533	5
233.0565	22
249.0526	86
251.0726	16
261.0542	57
263.0678	17
267.0683	8
277.0474	244
277.1003	11
279.0645	51
281.0839	10
289.0457	64
289.0745	6
291.0648	24
292.0699	5
293.0713	7
295.0613	31
303.0641	16
306.9278	6
307.0576	999
307.1123	45
307.1679	14
307.2208	17
307.4439	6
307.5187	5
307.5659	7
309.0693	9
309.0878	5
319.0564	127
319.0997	5
321.073	6
325.0733	34
335.0811	19
337.064	11
337.076	9
350.1081	12
368.1111	281
