Mass spectrum: 2-{2-benzimidazol-2-yl-1-[(4-methylphenyl)methyl]ethyl}benzimidazole; LC-ESI-QTOF; MS2; CE 40 ev; [M+H]+
Name: 2-{2-benzimidazol-2-yl-1-[(4-methylphenyl)methyl]ethyl}benzimidazole
Formula: C24H22N4
Exact mass: 366.184447
SMILES: CC1=CC=C(C=C1)CC(CC2=NC3=CC=CC=C3N2)C4=NC5=CC=CC=C5N4
InChI: InChI=1S/C24H22N4/c1-16-10-12-17(13-11-16)14-18(24-27-21-8-4-5-9-22(21)28-24)15-23-25-19-6-2-3-7-20(19)26-23/h2-13,18H,14-15H2,1H3,(H,25,26)(H,27,28)
Instrument: Agilent 1200 RRLC; Agilent 6520 QTOF
Instrument type: LC-ESI-QTOF
Ms type: MS2
Ion mode: POSITIVE
Collision energy: 40 ev
Column name: Agilent C8 Cartridge Column 2.1X30mm 3.5 micron (guard); Agilent SB-Aq 2.1x50mm 1.8 micron (analytical)
Retention time: 7.064
Base peak: 261
Precursor m/z: 367.1917
Precursor type: [M+H]+
m/z	relative intensity
105.0688	104
107.0625	17
115.0529	32
118.05	25
119.0596	269
131.059	215
131.0832	66
132.0688	143
132.0901	12
133.0772	47
143.0605	42
144.0667	142
144.0838	16
145.076	181
156.0655	93
157.0741	385
157.1138	19
157.3293	12
218.0797	13
219.0933	63
220.0948	53
233.1044	28
234.095	22
234.1207	25
235.1245	226
235.16	22
236.1369	18
249.1388	533
249.3908	13
261.1116	999
261.1713	33
261.2647	13
261.4042	16
261.656	12
262.1217	121
