Mass spectrum: Lupinine; LC-ESI-QTOF; MS; POSITIVE
Name: Lupinine
Formula: C10H19NO
Exact mass: 169.146664
SMILES: C1CCN2CCC[C@H]([C@H]2C1)CO
InChI: InChI=1S/C10H19NO/c12-8-9-4-3-7-11-6-2-1-5-10(9)11/h9-10,12H,1-8H2/t9-,10+/m0/s1
Instrument: Agilent 1200 RRLC; Agilent 6520 QTOF
Instrument type: LC-ESI-QTOF
Ms type: MS
Ion mode: POSITIVE
Column name: Agilent C8 Cartridge Column 2.1X30mm 3.5 micron (guard); Agilent SB-Aq 2.1x50mm 1.8 micron (analytical)
Retention time: 0.390
m/z	relative intensity
170.1539765	999
