Mass spectrum: Usnic acid; LC-ESI-QTOF; MS2; CE 20 ev; [M-H]-
Name: Usnic acid
Formula: C18H16O7
Exact mass: 344.089603
SMILES: CC1=C(C(=C2C(=C1O)C3(C(=CC(=O)C(C3=O)C(=O)C)O2)C)C(=O)C)O
InChI: InChI=1S/C18H16O7/c1-6-14(22)12(8(3)20)16-13(15(6)23)18(4)10(25-16)5-9(21)11(7(2)19)17(18)24/h5,11,22-23H,1-4H3
Instrument: Agilent 1200 RRLC; Agilent 6520 QTOF
Instrument type: LC-ESI-QTOF
Ms type: MS2
Ion mode: NEGATIVE
Collision energy: 20 ev
Column name: Agilent C8 Cartridge Column 2.1X30mm 3.5 micron (guard); Agilent SB-Aq 2.1x50mm 1.8 micron (analytical)
Retention time: 10.751
Base peak: 328
Precursor m/z: 343.0823
Precursor type: [M-H]-
m/z	relative intensity
110.7754	12
131.6711	10
144.7703	11
153.3279	13
164.3095	12
171.045	14
199.0802	12
211.0907	12
215.0767	13
231.0641	222
235.7032	13
235.9816	16
250.2893	24
252.8423	15
255.0653	19
257.0711	14
259.0587	688
259.1042	50
259.1354	13
259.3535	13
283.0661	17
286.0429	15
299.0906	168
301.0714	59
311.8099	18
313.0344	108
315.0831	36
328.0554	999
328.1022	44
328.1456	22
343.0823	306
