Mass spectrum: Glabranine; LC-ESI-QTOF; MS2; CE 40 ev; [M-H]-
Name: Glabranine
Formula: C20H20O4
Exact mass: 324.136159
SMILES: CC(=CCC1=C(C=C(C2=C1OC(CC2=O)C3=CC=CC=C3)O)O)C
InChI: InChI=1S/C20H20O4/c1-12(2)8-9-14-15(21)10-16(22)19-17(23)11-18(24-20(14)19)13-6-4-3-5-7-13/h3-8,10,18,21-22H,9,11H2,1-2H3
Instrument: Agilent 1200 RRLC; Agilent 6520 QTOF
Instrument type: LC-ESI-QTOF
Ms type: MS2
Ion mode: NEGATIVE
Collision energy: 40 ev
Column name: Agilent C8 Cartridge Column 2.1X30mm 3.5 micron (guard); Agilent SB-Aq 2.1x50mm 1.8 micron (analytical)
Retention time: 10.124
Base peak: 136
Precursor m/z: 323.1289
Precursor type: [M-H]-
m/z	relative intensity
101.0389	79
103.0556	93
104.0247	47
105.0314	12
105.0376	8
105.0702	144
105.0986	7
106.0438	24
107.0109	17
107.0513	159
107.0865	92
107.0994	7
108.0221	312
109.0293	63
109.0652	582
109.0966	15
109.1055	8
115.0537	36
117.0342	72
117.0707	37
118.0418	35
119.0132	12
119.0522	7
119.0829	32
120.0217	280
120.0522	14
121.028	70
121.036	8
121.066	14
122.0004	27
122.0067	14
122.0364	16
123.0764	8
124.0155	8
125.0356	7
127.0569	36
129.0373	8
129.0708	112
130.0431	52
131.0144	15
131.0499	83
131.0865	144
132.0209	52
132.0566	13
133.0302	153
133.0654	884
133.0942	10
133.103	41
133.1718	14
134.0385	11
135.0092	35
135.0376	11
135.0468	10
136.0162	999
136.0488	32
136.125	14
136.9911	12
137.0243	65
139.0578	31
141.0696	62
143.046	25
143.0532	17
144.0563	18
145.0275	34
145.0634	231
145.0969	8
146.0368	7
146.0768	11
147.0069	12
147.0466	24
147.0813	69
148.0159	272
148.0495	12
148.0612	13
149.0252	104
149.0597	99
149.0726	14
149.0956	18
149.1476	8
150.0333	10
151.075	358
151.1131	11
153.0732	14
153.675	6
155.0484	25
155.0862	14
156.0543	21
156.0599	32
157.0621	36
159.0471	23
159.0799	12
160.052	18
161.0245	308
161.0621	44
161.1037	9
163.0027	106
163.0397	12
163.0694	19
163.077	18
164.0098	276
165.0624	11
165.0724	19
167.0446	20
168.0608	18
169.0663	92
169.0997	6
171.044	610
171.0768	21
171.0872	13
171.1002	12
171.1212	10
172.0531	65
173.0192	7
173.0607	80
174.0308	16
175.0034	47
175.0393	49
175.076	160
176.0112	496
176.0471	110
176.0812	31
176.1348	9
177.018	71
177.0348	11
177.0587	10
178.0769	9
179.0843	29
180.055	10
181.0638	22
182.0671	7
183.0468	10
183.0572	8
183.079	22
184.0552	31
185.0517	11
186.0629	18
187.0773	13
188.0121	17
189.0174	144
189.053	53
191.034	20
191.0712	80
193.0627	14
193.0814	19
193.105	14
195.0813	11
195.1091	10
195.1217	21
196.0544	6
197.0599	31
197.0953	24
198.0652	59
201.0156	23
201.0954	23
202.0861	8
203.0328	31
203.0734	37
204.0856	14
206.0737	7
207.073	14
207.0977	9
208.0875	8
209.0611	59
209.1007	8
209.1307	12
210.0678	103
211.0736	22
212.0904	9
213.0515	8
213.1386	9
217.0526	28
219.0646	154
220.0905	10
221.0568	15
221.1	16
222.0707	12
223.0734	32
223.0925	25
224.0825	31
225.0578	51
226.0606	57
231.0601	9
232.0822	10
234.0651	11
235.0738	39
235.1044	23
235.1518	8
236.0765	13
237.0514	30
237.0895	8
237.129	82
238.0653	30
238.0905	11
239.0704	28
239.1076	23
240.0762	12
245.0792	29
245.1027	9
246.1073	13
251.0655	24
251.1007	8
251.1542	10
252.0759	22
252.1167	13
253.0459	43
253.1239	100
254.0512	11
255.14	6
263.1093	23
264.1146	10
265.0547	28
265.0878	15
267.0386	7
267.0677	53
268.0726	7
275.1016	9
277.1225	18
279.0655	145
279.1247	19
279.1414	10
281.1229	65
293.2834	8
295.1323	40
307.0995	16
323.1292	64
