Mass spectrum: 5,7-Dimethoxy-4-methylcoumarin; LC-ESI-QTOF; MS2; CE 20 ev; [M+H]+
Name: 5,7-Dimethoxy-4-methylcoumarin
Formula: C12H12O4
Exact mass: 220.073559
SMILES: CC1=CC(=O)OC2=CC(=CC(=C12)OC)OC
InChI: InChI=1S/C12H12O4/c1-7-4-11(13)16-10-6-8(14-2)5-9(15-3)12(7)10/h4-6H,1-3H3
Instrument: Agilent 1200 RRLC; Agilent 6520 QTOF
Instrument type: LC-ESI-QTOF
Ms type: MS2
Ion mode: POSITIVE
Collision energy: 20 ev
Column name: Agilent C8 Cartridge Column 2.1X30mm 3.5 micron (guard); Agilent SB-Aq 2.1x50mm 1.8 micron (analytical)
Retention time: 8.049
Base peak: 221
Precursor m/z: 221.0809
Precursor type: [M+H]+
m/z	relative intensity
103.054	17
105.068	70
105.0841	11
107.0487	9
107.0828	9
109.0631	17
115.0539	35
116.0625	18
117.0666	21
119.0507	32
120.0557	14
121.0237	16
121.0635	38
123.0797	20
125.0535	10
127.0159	9
130.0182	22
131.0496	16
132.0615	21
133.0628	108
133.0796	11
134.0724	19
135.0456	41
135.0838	25
137.0594	171
137.0937	29
145.0675	34
146.0725	81
147.0397	37
147.0516	12
148.0511	22
149.0588	29
149.0924	21
150.0664	39
151.0731	35
153.0556	38
159.0472	9
161.0557	48
162.0657	55
162.082	13
163.0377	145
163.0723	14
164.0529	9
165.0589	12
165.0905	124
175.0802	14
176.0464	67
177.0547	209
177.0897	87
178.062	304
178.0907	15
178.1153	12
178.3462	9
179.069	61
193.0837	29
205.0465	47
206.0557	786
206.1042	23
206.1625	9
206.2471	11
221.0798	999
221.1185	34
221.1417	22
221.2164	11
221.6086	15
959.8981	11
