Mass spectrum: Rhein; LC-ESI-QTOF; MS2; CE 10 ev; [M-H]-
Name: Rhein
Formula: C15H8O6
Exact mass: 284.032088
SMILES: C1=CC2=C(C(=C1)O)C(=O)C3=C(C=C(C=C3C2=O)C(=O)O)O
InChI: InChI=1S/C15H8O6/c16-9-3-1-2-7-11(9)14(19)12-8(13(7)18)4-6(15(20)21)5-10(12)17/h1-5,16-17H,(H,20,21)
Instrument: Agilent 1200 RRLC; Agilent 6520 QTOF
Instrument type: LC-ESI-QTOF
Ms type: MS2
Ion mode: NEGATIVE
Collision energy: 10 ev
Column name: Agilent C8 Cartridge Column 2.1X30mm 3.5 micron (guard); Agilent SB-Aq 2.1x50mm 1.8 micron (analytical)
Retention time: 8.552
Base peak: 239
Precursor m/z: 283.0248
Precursor type: [M-H]-
m/z	relative intensity
118.9667	6
119.0359	5
141.0163	7
157.7789	6
183.0437	32
201.0204	6
211.0412	18
239.034	999
239.0817	29
239.1031	16
239.1366	4
239.1779	14
239.2236	4
239.2702	3
239.3096	6
239.3581	4
239.4931	4
239.5186	4
239.5502	3
239.6037	4
239.6435	4
239.7047	6
239.7864	5
283.0244	246
