Mass spectrum: Amorphigenin; LC-ESI-QTOF; MS2; CE 20 ev; [M-H]-
Name: Amorphigenin
Formula: C23H22O7
Exact mass: 410.136553
SMILES: COC1=C(C=C2C(=C1)[C@H]3[C@@H](CO2)OC4=C(C3=O)C=CC5=C4C[C@@H](O5)C(=C)CO)OC
InChI: InChI=1S/C23H22O7/c1-11(9-24)16-7-14-15(29-16)5-4-12-22(25)21-13-6-18(26-2)19(27-3)8-17(13)28-10-20(21)30-23(12)14/h4-6,8,16,20-21,24H,1,7,9-10H2,2-3H3/t16-,20-,21+/m1/s1
Instrument: Agilent 1200 RRLC; Agilent 6520 QTOF
Instrument type: LC-ESI-QTOF
Ms type: MS2
Ion mode: NEGATIVE
Collision energy: 20 ev
Column name: Agilent C8 Cartridge Column 2.1X30mm 3.5 micron (guard); Agilent SB-Aq 2.1x50mm 1.8 micron (analytical)
Retention time: 8.024
Base peak: 409
Precursor m/z: 409.1293
Precursor type: [M-H]-
m/z	relative intensity
121.0343	7
130.0408	9
133.0293	15
135.0094	7
145.0668	20
148.0165	11
150.0264	8
158.0395	16
159.0399	14
161.0237	286
161.0609	13
161.0828	6
162.0436	8
163.0042	5
163.0415	13
163.0778	29
171.0502	5
172.0513	16
173.0603	20
174.0656	5
175.0414	9
176.0465	130
178.0224	6
187.0425	5
187.0763	9
188.0469	27
189.0197	8
189.056	48
190.063	48
191.0721	72
199.0393	8
200.0511	21
201.0549	10
202.0276	7
202.0483	6
203.0351	13
203.0673	5
211.0429	7
215.0686	5
216.0407	25
217.0494	188
217.0927	10
218.0578	135
218.1018	8
228.0404	9
256.0687	9
267.0663	9
281.0721	5
285.0805	10
289.1056	6
296.0697	8
307.0956	12
309.0728	7
311.0594	55
317.0758	6
319.0638	23
320.1221	7
322.0481	26
323.0561	26
323.095	11
324.0583	19
325.0699	12
326.0758	39
333.0794	9
334.0808	6
335.0945	58
336.053	5
337.0712	228
337.1116	6
337.1423	14
338.403	6
339.0809	10
347.075	8
347.1164	6
348.1024	10
349.0868	5
350.1098	20
351.0871	100
351.1392	7
352.097	16
361.0722	55
361.1087	9
363.1024	10
364.0981	19
365.1035	38
365.1383	12
366.1095	50
367.1255	21
367.1459	8
367.6556	9
375.0823	6
376.0929	69
377.0975	10
379.0818	493
379.1164	19
379.1433	10
379.1795	7
379.2133	6
379.259	6
379.3396	5
379.475	6
380.1007	5
381.135	78
391.1165	66
393.0954	36
394.1059	396
394.1464	12
394.1784	10
394.2895	7
394.3873	6
409.1281	999
