Mass spectrum: (6aS)-1,2,9,10-tetramethoxy-6-methyl-5,6,6a,7-tetrahydro-4H-dibenzo[de,g]quinoline-3-carbaldehyde; LC-ESI-QTOF; MS2; CE 10 ev; [M+H]+
Name: (6aS)-1,2,9,10-tetramethoxy-6-methyl-5,6,6a,7-tetrahydro-4H-dibenzo[de,g]quinoline-3-carbaldehyde
Formula: C22H25NO5
Exact mass: 383.173273
SMILES: CN1CCC2=C(C(=C(C3=C2[C@@H]1CC4=CC(=C(C=C43)OC)OC)OC)OC)C=O
InChI: InChI=1S/C22H25NO5/c1-23-7-6-13-15(11-24)21(27-4)22(28-5)20-14-10-18(26-3)17(25-2)9-12(14)8-16(23)19(13)20/h9-11,16H,6-8H2,1-5H3/t16-/m0/s1
Instrument: Agilent 1200 RRLC; Agilent 6520 QTOF
Instrument type: LC-ESI-QTOF
Ms type: MS2
Ion mode: POSITIVE
Collision energy: 10 ev
Column name: Agilent C8 Cartridge Column 2.1X30mm 3.5 micron (guard); Agilent SB-Aq 2.1x50mm 1.8 micron (analytical)
Retention time: 5.665
Base peak: 384
Precursor m/z: 384.1806
Precursor type: [M+H]+
m/z	relative intensity
281.115	6
282.1208	8
293.1132	36
294.1208	32
295.0992	7
295.129	6
307.0975	13
310.1171	26
313.1386	14
313.1457	19
322.1068	5
323.0928	11
323.1284	5
324.1569	18
325.139	54
326.1131	12
334.1417	8
335.1437	9
336.1175	16
338.1098	13
341.135	61
350.1395	8
351.1436	12
352.1494	12
353.1352	334
353.202	7
354.1268	9
356.1822	13
366.1662	299
366.257	6
369.1551	26
384.178	999
