Mass spectrum: 3(2'-Chlorophenyl)-7-ethoxycoumarin; LC-ESI-QTOF; MS2; CE 40 ev; [M+H]+
Name: 3(2'-Chlorophenyl)-7-ethoxycoumarin
Formula: C17H13ClO3
Exact mass: 300.055322
SMILES: CCOC1=CC2=C(C=C1)C=C(C(=O)O2)C3=CC=CC=C3Cl
InChI: InChI=1S/C17H13ClO3/c1-2-20-12-8-7-11-9-14(17(19)21-16(11)10-12)13-5-3-4-6-15(13)18/h3-10H,2H2,1H3
Instrument: Agilent 1200 RRLC; Agilent 6520 QTOF
Instrument type: LC-ESI-QTOF
Ms type: MS2
Ion mode: POSITIVE
Collision energy: 40 ev
Column name: Agilent C8 Cartridge Column 2.1X30mm 3.5 micron (guard); Agilent SB-Aq 2.1x50mm 1.8 micron (analytical)
Retention time: 9.534
Base peak: 181
Precursor m/z: 301.0626
Precursor type: [M+H]+
m/z	relative intensity
101.9462	38
152.063	182
153.0694	367
154.0765	103
164.0639	65
165.0693	269
165.0986	30
166.0756	87
181.0639	999
181.094	28
181.1124	32
182.0713	757
194.0729	63
199.0318	84
209.0561	53
210.068	760
217.0408	286
237.0525	84
238.0584	72
