Mass spectrum: Kinetin-9-riboside; LC-ESI-QTOF; MS2; CE 20 ev; [M-H]-
Name: Kinetin-9-riboside
Formula: C15H17N5O5
Exact mass: 347.122969
SMILES: C1=COC(=C1)CNC2=NC=NC3=C2N=CN3[C@H]4[C@@H]([C@@H]([C@H](O4)CO)O)O
InChI: InChI=1S/C15H17N5O5/c21-5-9-11(22)12(23)15(25-9)20-7-19-10-13(17-6-18-14(10)20)16-4-8-2-1-3-24-8/h1-3,6-7,9,11-12,15,21-23H,4-5H2,(H,16,17,18)/t9-,11-,12-,15-/m1/s1
Instrument: Agilent 1200 RRLC; Agilent 6520 QTOF
Instrument type: LC-ESI-QTOF
Ms type: MS2
Ion mode: NEGATIVE
Collision energy: 20 ev
Column name: Agilent C8 Cartridge Column 2.1X30mm 3.5 micron (guard); Agilent SB-Aq 2.1x50mm 1.8 micron (analytical)
Retention time: 4.735
Base peak: 214
Precursor m/z: 346.1157
Precursor type: [M-H]-
m/z	relative intensity
106.0311	10
110.075	5
132.0243	9
133.0392	80
134.0468	49
169.0508	7
170.0426	14
172.055	5
196.0616	43
214.0735	999
214.1013	8
214.1183	8
214.1389	18
214.1777	12
214.2114	12
214.4486	5
214.4879	9
215.0023	6
215.0827	7
346.114	80
