Mass spectrum: Esculin; LC-ESI-QTOF; MS2; CE 40 ev; [M-H]-
Name: Esculin
Formula: C15H16O9
Exact mass: 340.079432
SMILES: C1=CC(=O)OC2=CC(=C(C=C21)OC3C(C(C(C(O3)CO)O)O)O)O
InChI: InChI=1S/C15H16O9/c16-5-10-12(19)13(20)14(21)15(24-10)23-9-3-6-1-2-11(18)22-8(6)4-7(9)17/h1-4,10,12-17,19-21H,5H2
Instrument: Agilent 1200 RRLC; Agilent 6520 QTOF
Instrument type: LC-ESI-QTOF
Ms type: MS2
Ion mode: NEGATIVE
Collision energy: 40 ev
Column name: Agilent C8 Cartridge Column 2.1X30mm 3.5 micron (guard); Agilent SB-Aq 2.1x50mm 1.8 micron (analytical)
Retention time: 2.834
Base peak: 177
Precursor m/z: 339.0721
Precursor type: [M-H]-
m/z	relative intensity
104.0263	23
105.0342	128
107.0148	11
120.0182	7
121.0278	8
133.0293	259
133.0666	10
148.0153	22
149.0232	32
176.0098	33
177.0186	999
177.0573	29
177.0845	10
177.1095	6
177.143	15
