Mass spectrum: Amorphigenin; LC-ESI-QTOF; MS2; CE 20 ev; [M+H]+
Name: Amorphigenin
Formula: C23H22O7
Exact mass: 410.136553
SMILES: COC1=C(C=C2C(=C1)[C@H]3[C@@H](CO2)OC4=C(C3=O)C=CC5=C4C[C@@H](O5)C(=C)CO)OC
InChI: InChI=1S/C23H22O7/c1-11(9-24)16-7-14-15(29-16)5-4-12-22(25)21-13-6-18(26-2)19(27-3)8-17(13)28-10-20(21)30-23(12)14/h4-6,8,16,20-21,24H,1,7,9-10H2,2-3H3/t16-,20-,21+/m1/s1
Instrument: Agilent 1200 RRLC; Agilent 6520 QTOF
Instrument type: LC-ESI-QTOF
Ms type: MS2
Ion mode: POSITIVE
Collision energy: 20 ev
Column name: Agilent C8 Cartridge Column 2.1X30mm 3.5 micron (guard); Agilent SB-Aq 2.1x50mm 1.8 micron (analytical)
Retention time: 8.015
Base peak: 192
Precursor m/z: 411.1439
Precursor type: [M+H]+
m/z	relative intensity
124.0546	207
135.0422	280
151.0825	95
152.042	146
159.0288	86
159.0746	181
161.0567	112
167.0683	327
179.0696	827
187.0717	749
187.0941	220
191.0701	289
192.0768	999
193.0822	310
201.054	594
201.0838	370
205.083	237
211.0797	198
213.0814	103
215.0692	125
219.065	543
219.0884	86
229.0901	568
257.0684	164
257.0891	95
313.087	99
365.1187	86
375.1539	103
411.1366	672
