Mass spectrum: Rhein; LC-ESI-QTOF; MS2; CE 20 ev; [M-H]-
Name: Rhein
Formula: C15H8O6
Exact mass: 284.032088
SMILES: C1=CC2=C(C(=C1)O)C(=O)C3=C(C=C(C=C3C2=O)C(=O)O)O
InChI: InChI=1S/C15H8O6/c16-9-3-1-2-7-11(9)14(19)12-8(13(7)18)4-6(15(20)21)5-10(12)17/h1-5,16-17H,(H,20,21)
Instrument: Agilent 1200 RRLC; Agilent 6520 QTOF
Instrument type: LC-ESI-QTOF
Ms type: MS2
Ion mode: NEGATIVE
Collision energy: 20 ev
Column name: Agilent C8 Cartridge Column 2.1X30mm 3.5 micron (guard); Agilent SB-Aq 2.1x50mm 1.8 micron (analytical)
Retention time: 8.552
Base peak: 239
Precursor m/z: 283.0248
Precursor type: [M-H]-
m/z	relative intensity
119.0338	11
137.8924	5
158.9738	4
167.0483	4
182.036	5
183.0448	203
183.0806	12
210.0298	4
211.0396	159
211.0722	6
211.0862	5
212.722	3
213.0689	3
238.9828	3
239.0338	999
239.0773	38
239.1068	11
239.179	16
239.2429	6
239.2759	4
239.369	3
239.3828	3
239.4184	3
239.4934	4
239.5227	4
239.5858	6
239.6484	5
239.7173	3
239.7446	3
239.7743	5
240.0053	3
240.041	5
260.7827	3
273.9998	5
283.0289	42
