Mass spectrum: 2'-Deoxyadenosine-5'-monophosphoric acid; LC-ESI-QTOF; MS; NEGATIVE
Name: 2'-Deoxyadenosine-5'-monophosphoric acid
Formula: C10H14N5O6P
Exact mass: 331.06817
SMILES: C1[C@@H]([C@H](O[C@H]1N2C=NC3=C2N=CN=C3N)COP(=O)(O)O)O
InChI: InChI=1S/C10H14N5O6P/c11-9-8-10(13-3-12-9)15(4-14-8)7-1-5(16)6(21-7)2-20-22(17,18)19/h3-7,16H,1-2H2,(H2,11,12,13)(H2,17,18,19)/t5-,6+,7+/m0/s1
Instrument: Agilent 1200 RRLC; Agilent 6520 QTOF
Instrument type: LC-ESI-QTOF
Ms type: MS
Ion mode: NEGATIVE
Column name: Agilent C8 Cartridge Column 2.1X30mm 3.5 micron (guard); Agilent SB-Aq 2.1x50mm 1.8 micron (analytical)
Retention time: 0.421
m/z	relative intensity
330.0609235	999
