Mass spectrum: Cotinine; LC-ESI-QTOF; MS2; CE 10 ev; [M+H]+
Name: Cotinine
Formula: C10H12N2O
Exact mass: 176.094963
SMILES: CN1C(CCC1=O)C2=CN=CC=C2
InChI: InChI=1S/C10H12N2O/c1-12-9(4-5-10(12)13)8-3-2-6-11-7-8/h2-3,6-7,9H,4-5H2,1H3
Instrument: Agilent 1200 RRLC; Agilent 6520 QTOF
Instrument type: LC-ESI-QTOF
Ms type: MS2
Ion mode: POSITIVE
Collision energy: 10 ev
Column name: Agilent C8 Cartridge Column 2.1X30mm 3.5 micron (guard); Agilent SB-Aq 2.1x50mm 1.8 micron (analytical)
Retention time: 1.977
Base peak: 177
Precursor m/z: 177.1023
Precursor type: [M+H]+
m/z	relative intensity
116.9491	8
118.0651	17
120.08	10
146.0598	42
149.0693	7
177.1008	999
