Mass spectrum: Pyridoxal; LC-APCI-QTOF; MS; POSITIVE
Name: Pyridoxal
Formula: C8H9NO3
Exact mass: 167.058243
SMILES: CC1=NC=C(C(=C1O)C=O)CO
InChI: InChI=1S/C8H9NO3/c1-5-8(12)7(4-11)6(3-10)2-9-5/h2,4,10,12H,3H2,1H3
Instrument: Agilent 1200 RRLC; Agilent 6520 QTOF
Instrument type: LC-APCI-QTOF
Ms type: MS
Ion mode: POSITIVE
Column name: Agilent C8 Cartridge Column 2.1X30mm 3.5 micron (guard); Agilent SB-Aq 2.1x50mm 1.8 micron (analytical)
Retention time: 0.385
m/z	relative intensity
168.0654765	999
