Mass spectrum: Securinine; LC-ESI-QTOF; MS; POSITIVE
Name: Securinine
Formula: C13H15NO2
Exact mass: 217.110279
SMILES: C1CCN2[C@H](C1)[C@]34C[C@H]2C=CC3=CC(=O)O4
InChI: InChI=1S/C13H15NO2/c15-12-7-9-4-5-10-8-13(9,16-12)11-3-1-2-6-14(10)11/h4-5,7,10-11H,1-3,6,8H2/t10-,11-,13+/m1/s1
Instrument: Agilent 1200 RRLC; Agilent 6520 QTOF
Instrument type: LC-ESI-QTOF
Ms type: MS
Ion mode: POSITIVE
Column name: Agilent C8 Cartridge Column 2.1X30mm 3.5 micron (guard); Agilent SB-Aq 2.1x50mm 1.8 micron (analytical)
Retention time: 0.387
m/z	relative intensity
218.1175765	999
