Mass spectrum: Rutine; LC-ESI-QTOF; MS2; CE 40 ev; [M-H]-
Name: Rutine
Formula: C27H30O16
Exact mass: 610.153385
SMILES: C[C@H]1[C@@H]([C@H]([C@H]([C@@H](O1)OC[C@@H]2[C@H]([C@@H]([C@H]([C@@H](O2)OC3=C(OC4=CC(=CC(=C4C3=O)O)O)C5=CC(=C(C=C5)O)O)O)O)O)O)O)O
InChI: InChI=1S/C27H30O16/c1-8-17(32)20(35)22(37)26(40-8)39-7-15-18(33)21(36)23(38)27(42-15)43-25-19(34)16-13(31)5-10(28)6-14(16)41-24(25)9-2-3-11(29)12(30)4-9/h2-6,8,15,17-18,20-23,26-33,35-38H,7H2,1H3/t8-,15+,17-,18+,20+,21-,22+,23+,26+,27-/m0/s1
Instrument: Agilent 1200 RRLC; Agilent 6520 QTOF
Instrument type: LC-ESI-QTOF
Ms type: MS2
Ion mode: NEGATIVE
Collision energy: 40 ev
Column name: Agilent C8 Cartridge Column 2.1X30mm 3.5 micron (guard); Agilent SB-Aq 2.1x50mm 1.8 micron (analytical)
Retention time: 5.341
Base peak: 300
Precursor m/z: 609.1461
Precursor type: [M-H]-
m/z	relative intensity
101.0698	14
108.0141	8
114.2722	13
121.0292	16
141.0134	10
148.0159	8
151.0015	71
178.9977	61
185.0121	8
186.0244	8
198.2929	12
211.0445	8
215.1145	11
226.0276	10
227.0481	9
242.0169	26
243.036	16
255.0305	77
269.9853	14
270.0131	15
270.0274	8
271.0237	131
271.0795	11
272.0386	16
272.079	13
283.0272	10
298.0448	11
299.0189	22
300.0283	999
300.0917	13
300.1108	19
300.1337	9
300.1868	13
300.4961	11
300.5298	8
300.6242	8
300.8778	7
301.0348	435
301.0921	26
301.1903	11
301.7284	9
320.3053	8
383.4528	8
507.9968	11
527.4926	12
536.2878	14
609.1424	79
