Mass spectrum: Andrographolide; LC-ESI-QTOF; MS; POSITIVE
Name: Andrographolide
Formula: C20H30O5
Exact mass: 350.209324
SMILES: CC12CCC(C(C1CCC(=C)C2CC=C3C(COC3=O)O)(C)CO)O
InChI: InChI=1S/C20H30O5/c1-12-4-7-16-19(2,9-8-17(23)20(16,3)11-21)14(12)6-5-13-15(22)10-25-18(13)24/h5,14-17,21-23H,1,4,6-11H2,2-3H3
Instrument: Agilent 1200 RRLC; Agilent 6520 QTOF
Instrument type: LC-ESI-QTOF
Ms type: MS
Ion mode: POSITIVE
Column name: Agilent C8 Cartridge Column 2.1X30mm 3.5 micron (guard); Agilent SB-Aq 2.1x50mm 1.8 micron (analytical)
Retention time: 6.928
m/z	relative intensity
351.2165765	143
373.198518	999
