Mass spectrum: 2',3'-Dideoxythymidine; LC-APCI-QTOF; MS; NEGATIVE
Name: 2',3'-Dideoxythymidine
Formula: C10H14N2O4
Exact mass: 226.095357
SMILES: CC1=CN(C(=O)NC1=O)C2CCC(O2)CO
InChI: InChI=1S/C10H14N2O4/c1-6-4-12(10(15)11-9(6)14)8-3-2-7(5-13)16-8/h4,7-8,13H,2-3,5H2,1H3,(H,11,14,15)
Instrument: Agilent 1200 RRLC; Agilent 6520 QTOF
Instrument type: LC-APCI-QTOF
Ms type: MS
Ion mode: NEGATIVE
Column name: Agilent C8 Cartridge Column 2.1X30mm 3.5 micron (guard); Agilent SB-Aq 2.1x50mm 1.8 micron (analytical)
Retention time: 2.700
m/z	relative intensity
225.0881235	999
