Mass spectrum: 11-(2-bromo-3,6-dimethoxyphenyl)-3,3-dimethyl-2,3,4-trihydro-5H,10H,11H-benzo[ b]benzo[2,1-f]1,4-diazepin-1-one; LC-ESI-QTOF; MS2; CE 40 ev; [M-H]-
Name: 11-(2-bromo-3,6-dimethoxyphenyl)-3,3-dimethyl-2,3,4-trihydro-5H,10H,11H-benzo[ b]benzo[2,1-f]1,4-diazepin-1-one
Formula: C23H25BrN2O3
Exact mass: 456.104855
SMILES: CC1(CC2=C(C(NC3=CC=CC=C3N2)C4=C(C=CC(=C4Br)OC)OC)C(=O)C1)C
InChI: InChI=1S/C23H25BrN2O3/c1-23(2)11-15-19(16(27)12-23)22(26-14-8-6-5-7-13(14)25-15)20-17(28-3)9-10-18(29-4)21(20)24/h5-10,22,25-26H,11-12H2,1-4H3
Instrument: Agilent 1200 RRLC; Agilent 6520 QTOF
Instrument type: LC-ESI-QTOF
Ms type: MS2
Ion mode: NEGATIVE
Collision energy: 40 ev
Column name: Agilent C8 Cartridge Column 2.1X30mm 3.5 micron (guard); Agilent SB-Aq 2.1x50mm 1.8 micron (analytical)
Retention time: 8.283
Base peak: 131
Precursor m/z: 455.0976
Precursor type: [M-H]-
m/z	relative intensity
130.0512	73
131.0595	999
138.4694	30
171.0932	43
197.1095	66
223.0865	42
225.1041	44
239.12	538
284.1115	28
285.1045	32
310.1243	23
313.0953	43
318.9893	43
327.1002	45
328.108	42
343.1407	28
347.859	36
352.9897	23
375.0142	92
390.0262	61
392.0207	33
407.04	121
408.0471	25
409.0515	105
440.0777	28
