Mass spectrum: 6-Fluoro-DL-tryptophan; LC-ESI-QTOF; MS2; CE 20 ev; [M-H]-
Name: 6-Fluoro-DL-tryptophan
Formula: C11H11FN2O2
Exact mass: 222.080456
SMILES: C1=CC2=C(C=C1F)NC=C2CC(C(=O)O)N
InChI: InChI=1S/C11H11FN2O2/c12-7-1-2-8-6(3-9(13)11(15)16)5-14-10(8)4-7/h1-2,4-5,9,14H,3,13H2,(H,15,16)
Instrument: Agilent 1200 RRLC; Agilent 6520 QTOF
Instrument type: LC-ESI-QTOF
Ms type: MS2
Ion mode: NEGATIVE
Collision energy: 20 ev
Column name: Agilent C8 Cartridge Column 2.1X30mm 3.5 micron (guard); Agilent SB-Aq 2.1x50mm 1.8 micron (analytical)
Retention time: 1.636
Base peak: 134
Precursor m/z: 221.0732
Precursor type: [M-H]-
m/z	relative intensity
113.7007	10
119.8395	8
134.0402	999
134.0748	33
134.09	13
134.1469	19
134.3308	8
146.0386	18
147.047	40
148.0567	66
150.0733	14
160.0555	351
160.0906	13
168.5661	11
175.0708	19
177.0836	79
204.044	39
204.637	9
221.0729	40
