Mass spectrum: Picrotoxinin; LC-ESI-QTOF; MS2; CE 10 ev; [M-H]-
Name: Picrotoxinin
Formula: C15H16O6
Exact mass: 292.094688
SMILES: CC(=C)C1C2C3C4(C(C1C(=O)O2)(CC5C4(O5)C(=O)O3)O)C
InChI: InChI=1S/C15H16O6/c1-5(2)7-8-11(16)19-9(7)10-13(3)14(8,18)4-6-15(13,21-6)12(17)20-10/h6-10,18H,1,4H2,2-3H3
Instrument: Agilent 1200 RRLC; Agilent 6520 QTOF
Instrument type: LC-ESI-QTOF
Ms type: MS2
Ion mode: NEGATIVE
Collision energy: 10 ev
Column name: Agilent C8 Cartridge Column 2.1X30mm 3.5 micron (guard); Agilent SB-Aq 2.1x50mm 1.8 micron (analytical)
Retention time: 4.208
Base peak: 203
Precursor m/z: 291.0874
Precursor type: [M-H]-
m/z	relative intensity
123.0442	29
137.0575	29
143.0865	35
159.1176	400
161.0876	41
175.1146	194
188.082	187
201.0928	41
203.1082	999
203.1453	31
203.171	27
247.0946	35
264.251	27
291.0881	111
