Mass spectrum: Robinetin trimethyl ether; LC-ESI-QTOF; MS2; CE 40 ev; [M-H]-
Name: Robinetin trimethyl ether
Formula: C18H16O7
Exact mass: 344.089603
SMILES: COC1=CC(=CC(=C1OC)OC)C2=C(C(=O)C3=C(O2)C=C(C=C3)O)O
InChI: InChI=1S/C18H16O7/c1-22-13-6-9(7-14(23-2)18(13)24-3)17-16(21)15(20)11-5-4-10(19)8-12(11)25-17/h4-8,19,21H,1-3H3
Instrument: Agilent 1200 RRLC; Agilent 6520 QTOF
Instrument type: LC-ESI-QTOF
Ms type: MS2
Ion mode: NEGATIVE
Collision energy: 40 ev
Column name: Agilent C8 Cartridge Column 2.1X30mm 3.5 micron (guard); Agilent SB-Aq 2.1x50mm 1.8 micron (analytical)
Retention time: 8.669
Base peak: 242
Precursor m/z: 343.0823
Precursor type: [M-H]-
m/z	relative intensity
101.9472	10
108.0193	12
109.0263	19
116.0263	11
121.0271	10
127.2709	14
130.0427	26
135.0061	64
145.0294	10
147.3751	19
148.0151	6
149.027	6
154.0472	6
156.0691	10
158.0355	125
160.0075	8
161.9969	10
163.0097	10
170.0332	12
172.019	9
173.0215	7
176.0165	6
182.0408	9
183.0438	9
184.0541	17
185.0221	18
186.0293	107
187.042	18
193.0066	7
195.0322	9
195.0487	6
197.0283	12
197.073	6
198.03	32
199.0407	8
211.0371	25
211.0581	7
212.0491	14
213.0499	6
214.0264	521
214.0699	9
214.0943	10
214.1578	8
225.0204	7
225.0537	6
226.0253	95
227.0338	22
228.0401	8
229.0436	11
230.0184	7
237.017	12
239.0273	17
239.0446	8
240.0375	17
241.0197	8
241.0413	21
241.0568	13
242.0232	999
242.0626	50
242.0861	19
242.1116	13
242.1609	14
242.1956	8
242.2323	9
242.2887	8
242.3736	7
242.4179	8
242.5259	8
242.5902	6
242.656	6
242.7208	7
242.8512	6
242.887	10
243.023	29
243.0453	11
251.4387	9
253.0234	7
254.0123	37
254.0276	18
255.0247	38
255.0587	13
256.0423	16
257.0422	81
267.0291	10
269.0479	7
269.9629	7
270.0154	547
270.0697	28
270.1274	7
270.1704	8
281.0063	28
281.0508	7
282.0134	57
282.0308	8
282.0526	10
284.0343	42
284.9984	8
285.0396	589
285.0816	49
285.1158	13
285.1457	7
285.1968	7
285.2391	6
285.3315	8
286.1414	9
289.465	6
295.0745	17
297.0112	9
297.0352	12
298.021	32
299.0633	28
309.0438	21
312.0276	14
313.0334	404
313.1021	16
313.1235	19
313.1963	7
327.0525	14
