Mass spectrum: Hematoxylin; LC-ESI-QTOF; MS2; CE 20 ev; [M-H]-
Name: Hematoxylin
Formula: C16H14O6
Exact mass: 302.079038
SMILES: C1C2=CC(=C(C=C2C3C1(COC4=C3C=CC(=C4O)O)O)O)O
InChI: InChI=1S/C16H14O6/c17-10-2-1-8-13-9-4-12(19)11(18)3-7(9)5-16(13,21)6-22-15(8)14(10)20/h1-4,13,17-21H,5-6H2
Instrument: Agilent 1200 RRLC; Agilent 6520 QTOF
Instrument type: LC-ESI-QTOF
Ms type: MS2
Ion mode: NEGATIVE
Collision energy: 20 ev
Column name: Agilent C8 Cartridge Column 2.1X30mm 3.5 micron (guard); Agilent SB-Aq 2.1x50mm 1.8 micron (analytical)
Retention time: 2.262
Base peak: 301
Precursor m/z: 301.0717
Precursor type: [M-H]-
m/z	relative intensity
105.039	39
109.0311	74
111.012	44
123.0091	82
123.0405	34
125.0225	67
151.0439	60
161.0222	64
163.0336	84
164.0106	99
173.06	40
174.0269	49
175.0382	89
175.1381	34
179.0359	635
197.0599	60
211.0742	44
226.0324	37
235.2418	40
237.0637	39
241.045	55
243.028	67
244.0357	65
245.5208	42
255.0634	67
257.0438	62
258.0628	37
283.0608	241
300.0662	70
301.0712	999
