Mass spectrum: Leontiformine; LC-APCI-QTOF; MS; POSITIVE
Name: Leontiformine
Formula: C15H26N2O
Exact mass: 250.204513
SMILES: C1CCN2C[C@@H](CC[C@@H]2C1)[C@H]3CCCCN3C=O
InChI: InChI=1S/C15H26N2O/c18-12-17-10-4-2-6-15(17)13-7-8-14-5-1-3-9-16(14)11-13/h12-15H,1-11H2/t13-,14+,15-/m1/s1
Instrument: Agilent 1200 RRLC; Agilent 6520 QTOF
Instrument type: LC-APCI-QTOF
Ms type: MS
Ion mode: POSITIVE
Column name: Agilent C8 Cartridge Column 2.1X30mm 3.5 micron (guard); Agilent SB-Aq 2.1x50mm 1.8 micron (analytical)
Retention time: 2.183
m/z	relative intensity
251.2117765	999
