Mass spectrum: Anisomycin; LC-ESI-QTOF; MS2; CE 10 ev; [M+H]+
Name: Anisomycin
Formula: C14H19NO4
Exact mass: 265.131408
SMILES: CC(=O)OC1C(CNC1CC2=CC=C(C=C2)OC)O
InChI: InChI=1S/C14H19NO4/c1-9(16)19-14-12(15-8-13(14)17)7-10-3-5-11(18-2)6-4-10/h3-6,12-15,17H,7-8H2,1-2H3
Instrument: Agilent 1200 RRLC; Agilent 6520 QTOF
Instrument type: LC-ESI-QTOF
Ms type: MS2
Ion mode: POSITIVE
Collision energy: 10 ev
Column name: Agilent C8 Cartridge Column 2.1X30mm 3.5 micron (guard); Agilent SB-Aq 2.1x50mm 1.8 micron (analytical)
Retention time: 2.846
Base peak: 266
Precursor m/z: 266.1387
Precursor type: [M+H]+
m/z	relative intensity
114.9436	8
121.0645	496
121.0919	17
121.1058	6
121.1671	7
144.0597	7
145.065	30
147.0774	27
149.0952	6
150.0906	29
159.0781	42
159.0843	17
161.0939	18
163.0706	6
163.0938	7
171.0818	8
173.9651	6
176.1075	7
177.0903	8
188.1042	155
188.1333	6
189.0884	21
206.1156	491
206.1584	20
206.2518	6
224.1227	22
224.1525	6
266.1365	999
