Mass spectrum: Orcinol; LC-ESI-QTOF; MS; NEGATIVE
Name: Orcinol
Formula: C7H8O2
Exact mass: 124.052429
SMILES: CC1=CC(=CC(=C1)O)O
InChI: InChI=1S/C7H8O2/c1-5-2-6(8)4-7(9)3-5/h2-4,8-9H,1H3
Instrument: Agilent 1200 RRLC; Agilent 6520 QTOF
Instrument type: LC-ESI-QTOF
Ms type: MS
Ion mode: NEGATIVE
Column name: Agilent C8 Cartridge Column 2.1X30mm 3.5 micron (guard); Agilent SB-Aq 2.1x50mm 1.8 micron (analytical)
Retention time: 1.951
m/z	relative intensity
123.0451235	999
