Mass spectrum: 3,4-Dihydroxy-L-phenylalanine; LC-ESI-QTOF; MS2; CE 40 ev; [M-H]-
Name: 3,4-Dihydroxy-L-phenylalanine
Formula: C9H11NO4
Exact mass: 197.068808
SMILES: C1=CC(=C(C=C1CC(C(=O)O)N)O)O
InChI: InChI=1S/C9H11NO4/c10-6(9(13)14)3-5-1-2-7(11)8(12)4-5/h1-2,4,6,11-12H,3,10H2,(H,13,14)
Instrument: Agilent 1200 RRLC; Agilent 6520 QTOF
Instrument type: LC-ESI-QTOF
Ms type: MS2
Ion mode: NEGATIVE
Collision energy: 40 ev
Column name: Agilent C8 Cartridge Column 2.1X30mm 3.5 micron (guard); Agilent SB-Aq 2.1x50mm 1.8 micron (analytical)
Retention time: 0.388
Base peak: 134
Precursor m/z: 196.0615
Precursor type: [M-H]-
m/z	relative intensity
106.0393	131
107.0532	97
108.0199	434
109.0281	704
122.0368	236
123.0501	152
134.0382	999
135.0442	527
