Mass spectrum: Melatonin; LC-ESI-QTOF; MS2; CE 20 ev; [M-H]-
Name: Melatonin
Formula: C13H16N2O2
Exact mass: 232.121178
SMILES: CC(=O)NCCC1=CNC2=C1C=C(C=C2)OC
InChI: InChI=1S/C13H16N2O2/c1-9(16)14-6-5-10-8-15-13-4-3-11(17-2)7-12(10)13/h3-4,7-8,15H,5-6H2,1-2H3,(H,14,16)
Instrument: Agilent 1200 RRLC; Agilent 6520 QTOF
Instrument type: LC-ESI-QTOF
Ms type: MS2
Ion mode: NEGATIVE
Collision energy: 20 ev
Column name: Agilent C8 Cartridge Column 2.1X30mm 3.5 micron (guard); Agilent SB-Aq 2.1x50mm 1.8 micron (analytical)
Retention time: 5.009
Base peak: 216
Precursor m/z: 231.1139
Precursor type: [M-H]-
m/z	relative intensity
116.0494	5
144.0446	953
144.0884	9
144.0966	11
144.13	6
144.1563	15
145.0526	534
145.0896	21
145.1655	8
157.0503	14
216.0895	999
216.1334	27
216.1529	7
216.1782	10
216.2246	12
216.2553	6
216.3695	7
216.4098	5
216.6174	8
218.9087	5
231.1118	30
