Mass spectrum: Rotenone; LC-ESI-QTOF; MS2; CE 40 ev; [M+H]+
Name: Rotenone
Formula: C23H22O6
Exact mass: 394.141638
SMILES: CC(=C)[C@H]1CC2=C(O1)C=CC3=C2O[C@@H]4COC5=CC(=C(C=C5[C@@H]4C3=O)OC)OC
InChI: InChI=1S/C23H22O6/c1-11(2)16-8-14-15(28-16)6-5-12-22(24)21-13-7-18(25-3)19(26-4)9-17(13)27-10-20(21)29-23(12)14/h5-7,9,16,20-21H,1,8,10H2,2-4H3/t16-,20-,21+/m1/s1
Instrument: Agilent 1200 RRLC; Agilent 6520 QTOF
Instrument type: LC-ESI-QTOF
Ms type: MS2
Ion mode: POSITIVE
Collision energy: 40 ev
Column name: Agilent C8 Cartridge Column 2.1X30mm 3.5 micron (guard); Agilent SB-Aq 2.1x50mm 1.8 micron (analytical)
Retention time: 9.447
Base peak: 191
Precursor m/z: 395.1489
Precursor type: [M+H]+
m/z	relative intensity
105.0705	82
107.0521	72
121.0665	62
122.0671	50
123.0412	40
124.0503	118
131.0461	70
133.0338	102
133.0656	68
135.0385	48
135.0711	44
139.0747	225
147.0423	285
147.0837	106
148.0477	92
151.0743	351
152.0449	70
157.0619	80
159.0389	94
160.0438	102
161.0232	171
161.0589	189
161.0945	68
162.0648	86
165.0898	72
169.0641	64
170.074	158
171.0729	62
176.0448	62
177.0519	367
178.0548	62
178.0655	56
179.0682	171
181.0546	100
191.0668	999
191.101	80
192.0702	169
192.0842	66
195.0802	656
197.0531	42
198.0679	249
203.067	108
213.0892	407
219.0662	40
241.0837	44
