Mass spectrum: Hesperetin; LC-ESI-QTOF; MS2; CE 10 ev; [M+H]+
Name: Hesperetin
Formula: C16H14O6
Exact mass: 302.079038
SMILES: COC1=C(C=C(C=C1)C2CC(=O)C3=C(C=C(C=C3O2)O)O)O
InChI: InChI=1S/C16H14O6/c1-21-13-3-2-8(4-10(13)18)14-7-12(20)16-11(19)5-9(17)6-15(16)22-14/h2-6,14,17-19H,7H2,1H3
Instrument: Agilent 1200 RRLC; Agilent 6520 QTOF
Instrument type: LC-ESI-QTOF
Ms type: MS2
Ion mode: POSITIVE
Collision energy: 10 ev
Column name: Agilent C8 Cartridge Column 2.1X30mm 3.5 micron (guard); Agilent SB-Aq 2.1x50mm 1.8 micron (analytical)
Retention time: 7.049
Base peak: 303
Precursor m/z: 303.0863
Precursor type: [M+H]+
m/z	relative intensity
111.0037	38
145.0309	57
149.0551	44
151.04	40
153.0168	441
177.0517	478
179.036	82
303.0867	999
