Mass spectrum: trans-Zeatin-riboside; LC-ESI-QTOF; MS2; CE 40 ev; [M+H]+
Name: trans-Zeatin-riboside
Formula: C15H21N5O5
Exact mass: 351.154269
SMILES: CC(=CCNC1=NC=NC2=C1N=CN2C3C(C(C(O3)CO)O)O)CO
InChI: InChI=1S/C15H21N5O5/c1-8(4-21)2-3-16-13-10-14(18-6-17-13)20(7-19-10)15-12(24)11(23)9(5-22)25-15/h2,6-7,9,11-12,15,21-24H,3-5H2,1H3,(H,16,17,18)
Instrument: Agilent 1200 RRLC; Agilent 6520 QTOF
Instrument type: LC-ESI-QTOF
Ms type: MS2
Ion mode: POSITIVE
Collision energy: 40 ev
Column name: Agilent C8 Cartridge Column 2.1X30mm 3.5 micron (guard); Agilent SB-Aq 2.1x50mm 1.8 micron (analytical)
Retention time: 3.965
Base peak: 136
Precursor m/z: 352.1616
Precursor type: [M+H]+
m/z	relative intensity
119.0346	176
136.061	999
136.0957	36
146.0414	23
148.0608	142
157.056	27
185.0784	63
202.1015	38
202.1109	51
