Mass spectrum: 3',7-Dimethoxy-3-hydroxyflavone; LC-ESI-QTOF; MS2; CE 20 ev; [M-H]-
Name: 3',7-Dimethoxy-3-hydroxyflavone
Formula: C17H14O5
Exact mass: 298.084124
SMILES: COC1=CC2=C(C=C1)C(=O)C(=C(O2)C3=CC(=CC=C3)OC)O
InChI: InChI=1S/C17H14O5/c1-20-11-5-3-4-10(8-11)17-16(19)15(18)13-7-6-12(21-2)9-14(13)22-17/h3-9,19H,1-2H3
Instrument: Agilent 1200 RRLC; Agilent 6520 QTOF
Instrument type: LC-ESI-QTOF
Ms type: MS2
Ion mode: NEGATIVE
Collision energy: 20 ev
Column name: Agilent C8 Cartridge Column 2.1X30mm 3.5 micron (guard); Agilent SB-Aq 2.1x50mm 1.8 micron (analytical)
Retention time: 9.510
Base peak: 225
Precursor m/z: 297.0768
Precursor type: [M-H]-
m/z	relative intensity
147.7369	59
159.492	62
160.6903	59
171.2531	95
210.0264	163
211.0395	648
214.8866	59
225.0531	999
226.0584	199
226.3735	84
233.9458	123
239.0314	191
246.0449	118
253.0522	438
254.0575	890
266.7441	70
269.0773	62
282.0508	912
282.0981	93
297.0706	688
