Mass spectrum: Fisetin; LC-ESI-QTOF; MS2; CE 10 ev; [M+H]+
Name: Fisetin
Formula: C15H10O6
Exact mass: 286.047738
SMILES: C1=CC(=C(C=C1C2=C(C(=O)C3=C(O2)C=C(C=C3)O)O)O)O
InChI: InChI=1S/C15H10O6/c16-8-2-3-9-12(6-8)21-15(14(20)13(9)19)7-1-4-10(17)11(18)5-7/h1-6,16-18,20H
Instrument: Agilent 1200 RRLC; Agilent 6520 QTOF
Instrument type: LC-ESI-QTOF
Ms type: MS2
Ion mode: POSITIVE
Collision energy: 10 ev
Column name: Agilent C8 Cartridge Column 2.1X30mm 3.5 micron (guard); Agilent SB-Aq 2.1x50mm 1.8 micron (analytical)
Retention time: 6.248
Base peak: 287
Precursor m/z: 287.0550
Precursor type: [M+H]+
m/z	relative intensity
176.9834	99
287.0538	999
