Mass spectrum: Austricine; LC-ESI-QTOF; MS2; CE 10 ev; [M+H]+
Name: Austricine
Formula: C15H18O4
Exact mass: 262.120509
SMILES: CC1C2C(CC(=C3C(C2OC1=O)C(=CC3=O)C)C)O
InChI: InChI=1S/C15H18O4/c1-6-4-10(17)13-8(3)15(18)19-14(13)12-7(2)5-9(16)11(6)12/h5,8,10,12-14,17H,4H2,1-3H3
Instrument: Agilent 1200 RRLC; Agilent 6520 QTOF
Instrument type: LC-ESI-QTOF
Ms type: MS2
Ion mode: POSITIVE
Collision energy: 10 ev
Column name: Agilent C8 Cartridge Column 2.1X30mm 3.5 micron (guard); Agilent SB-Aq 2.1x50mm 1.8 micron (analytical)
Retention time: 5.592
Base peak: 263
Precursor m/z: 263.1278
Precursor type: [M+H]+
m/z	relative intensity
104.9929	71
123.0786	33
135.0775	23
137.0925	60
143.0823	14
145.0998	39
147.0804	26
147.1124	29
156.0938	29
157.1024	15
161.06	18
161.0948	76
163.0737	30
171.0821	179
171.1051	14
171.115	39
171.1415	13
172.0904	42
173.089	21
173.1288	15
175.0729	35
175.1127	26
189.1273	155
189.1588	16
193.0863	15
199.1091	154
201.1272	35
207.1281	18
217.1231	75
227.1087	39
235.1341	85
245.1138	79
263.1263	999
