Mass spectrum: N4-Anisoyl-2'-deoxycytidine; LC-ESI-QTOF; MS2; CE 40 ev; [M-H]-
Name: N4-Anisoyl-2'-deoxycytidine
Formula: C17H19N3O6
Exact mass: 361.127385
SMILES: COC1=CC=C(C=C1)C(=O)NC2=NC(=O)N(C=C2)C3C[C@H]([C@@H](O3)CO)O
InChI: InChI=1S/C17H19N3O6/c1-25-11-4-2-10(3-5-11)16(23)18-14-6-7-20(17(24)19-14)15-8-12(22)13(9-21)26-15/h2-7,12-13,15,21-22H,8-9H2,1H3,(H,18,19,23,24)/t12-,13+,15?/m1/s1
Instrument: Agilent 1200 RRLC; Agilent 6520 QTOF
Instrument type: LC-ESI-QTOF
Ms type: MS2
Ion mode: NEGATIVE
Collision energy: 40 ev
Column name: Agilent C8 Cartridge Column 2.1X30mm 3.5 micron (guard); Agilent SB-Aq 2.1x50mm 1.8 micron (analytical)
Retention time: 5.844
Base peak: 211
Precursor m/z: 360.1201
Precursor type: [M-H]-
m/z	relative intensity
102.0311	91
105.0452	231
106.0267	131
106.05	101
107.0491	292
117.0409	127
118.0299	134
120.0216	178
131.0369	77
133.038	231
134.0487	154
146.0196	181
148.5555	107
151.0343	80
156.9894	80
158.5794	215
169.0476	77
175.0494	144
183.0533	184
184.0251	181
184.0562	70
185.0492	315
187.8247	101
197.0399	70
198.0523	131
199.0492	500
200.0709	208
201.0601	91
201.0719	221
203.0912	77
209.0757	97
211.0506	999
212.0608	305
225.0634	111
227.082	862
241.097	141
244.0636	80
251.5479	91
262.5008	121
317.1104	70
342.5387	67
346.0901	91
