Mass spectrum: Cryptopine; LC-ESI-QTOF; MS2; CE 20 ev; [M+H]+
Name: Cryptopine
Formula: C21H23NO5
Exact mass: 369.157623
SMILES: CN1CCC2=CC(=C(C=C2C(=O)CC3=C(C1)C4=C(C=C3)OCO4)OC)OC
InChI: InChI=1S/C21H23NO5/c1-22-7-6-14-9-19(24-2)20(25-3)10-15(14)17(23)8-13-4-5-18-21(16(13)11-22)27-12-26-18/h4-5,9-10H,6-8,11-12H2,1-3H3
Instrument: Agilent 1200 RRLC; Agilent 6520 QTOF
Instrument type: LC-ESI-QTOF
Ms type: MS2
Ion mode: POSITIVE
Collision energy: 20 ev
Column name: Agilent C8 Cartridge Column 2.1X30mm 3.5 micron (guard); Agilent SB-Aq 2.1x50mm 1.8 micron (analytical)
Retention time: 4.487
Base peak: 370
Precursor m/z: 370.1649
Precursor type: [M+H]+
m/z	relative intensity
149.068	77
150.0631	80
165.0886	327
190.0871	130
194.1146	127
204.1011	722
205.1087	555
222.122	74
263.1001	150
291.1031	80
339.1093	80
352.158	80
370.1586	999
