Mass spectrum: 8-Benzylcanadine; LC-ESI-QTOF; MS2; CE 40 ev; [M+H]+
Name: 8-Benzylcanadine
Formula: C27H27NO4
Exact mass: 429.194008
SMILES: COC1=C(C2=C(CC3C4=CC5=C(C=C4CCN3C2CC6=CC=CC=C6)OCO5)C=C1)OC
InChI: InChI=1S/C27H27NO4/c1-29-23-9-8-19-13-21-20-15-25-24(31-16-32-25)14-18(20)10-11-28(21)22(26(19)27(23)30-2)12-17-6-4-3-5-7-17/h3-9,14-15,21-22H,10-13,16H2,1-2H3
Instrument: Agilent 1200 RRLC; Agilent 6520 QTOF
Instrument type: LC-ESI-QTOF
Ms type: MS2
Ion mode: POSITIVE
Collision energy: 40 ev
Column name: Agilent C8 Cartridge Column 2.1X30mm 3.5 micron (guard); Agilent SB-Aq 2.1x50mm 1.8 micron (analytical)
Retention time: 8.575
Base peak: 176
Precursor m/z: 430.2013
Precursor type: [M+H]+
m/z	relative intensity
103.0545	19
105.0635	6
105.0736	7
118.0641	20
119.0486	21
120.0832	7
131.0474	18
146.0604	11
148.0524	8
149.0583	37
161.0563	13
174.0493	5
174.0591	12
176.0691	999
176.1031	24
176.1146	16
176.1271	12
176.1442	6
176.1896	14
176.2366	5
177.0927	5
188.0668	6
189.0721	6
189.0861	5
207.0809	5
233.0955	5
234.1037	18
235.071	6
247.0659	8
248.0774	6
250.0926	17
261.0866	7
265.107	22
275.074	9
279.0872	5
289.0781	6
293.1064	13
294.1101	13
304.1046	8
307.0966	16
308.1219	12
308.1439	6
310.1434	7
322.106	17
324.1216	28
338.1353	46
400.1557	6
430.1922	7
