Mass spectrum: N2-Isobutyryl-2'-deoxyguanosine; LC-ESI-QTOF; MS2; CE 40 ev; [M-H]-
Name: N2-Isobutyryl-2'-deoxyguanosine
Formula: C14H19N5O5
Exact mass: 337.138619
SMILES: CC(C)C(=O)NC1=NC(=O)C2=C(N1)N(C=N2)[C@H]3C[C@@H]([C@H](O3)CO)O
InChI: InChI=1S/C14H19N5O5/c1-6(2)12(22)17-14-16-11-10(13(23)18-14)15-5-19(11)9-3-7(21)8(4-20)24-9/h5-9,20-21H,3-4H2,1-2H3,(H2,16,17,18,22,23)/t7-,8+,9+/m0/s1
Instrument: Agilent 1200 RRLC; Agilent 6520 QTOF
Instrument type: LC-ESI-QTOF
Ms type: MS2
Ion mode: NEGATIVE
Collision energy: 40 ev
Column name: Agilent C8 Cartridge Column 2.1X30mm 3.5 micron (guard); Agilent SB-Aq 2.1x50mm 1.8 micron (analytical)
Retention time: 4.289
Base peak: 150
Precursor m/z: 336.1313
Precursor type: [M-H]-
m/z	relative intensity
105.0207	11
106.0315	11
106.0407	6
107.0354	93
108.0203	192
108.0528	5
111.0553	42
111.0641	4
125.0444	3
132.0322	12
133.0156	511
133.0515	29
133.0801	4
133.0885	3
133.1232	10
133.1559	3
134.0347	27
134.0613	3
149.0367	20
150.0416	999
150.0795	33
150.1045	3
150.1298	10
150.1555	12
150.1947	3
150.2529	3
150.3749	2
150.3993	3
150.4387	3
150.553	3
150.7939	3
151.1949	3
159.0375	6
161.3766	4
176.0582	102
176.0908	3
192.4152	6
220.0756	11
220.0917	3
248.0758	3
266.0879	25
