Mass spectrum: 5-Methylcytidine; LC-ESI-QTOF; MS2; CE 40 ev; [M+H]+
Name: 5-Methylcytidine
Formula: C10H15N3O5
Exact mass: 257.101171
SMILES: CC1=CN(C(=O)N=C1N)C2C(C(C(O2)CO)O)O
InChI: InChI=1S/C10H15N3O5/c1-4-2-13(10(17)12-8(4)11)9-7(16)6(15)5(3-14)18-9/h2,5-7,9,14-16H,3H2,1H3,(H2,11,12,17)
Instrument: Agilent 1200 RRLC; Agilent 6520 QTOF
Instrument type: LC-ESI-QTOF
Ms type: MS2
Ion mode: POSITIVE
Collision energy: 40 ev
Column name: Agilent C8 Cartridge Column 2.1X30mm 3.5 micron (guard); Agilent SB-Aq 2.1x50mm 1.8 micron (analytical)
Retention time: 0.389
Base peak: 126
Precursor m/z: 258.1085
Precursor type: [M+H]+
m/z	relative intensity
100.9756	6
101.9492	20
101.9605	4
107.0638	3
108.0554	292
108.0853	10
108.1034	2
108.1496	3
109.0397	435
109.0702	15
109.0889	6
109.1357	4
110.0444	3
126.0661	999
126.0983	33
126.1483	3
126.17	10
126.2706	3
126.3752	3
126.4047	3
126.4306	4
126.6199	3
