Mass spectrum: Resveratrol; LC-ESI-QTOF; MS2; CE 40 ev; [M-H]-
Name: Resveratrol
Formula: C14H12O3
Exact mass: 228.078644
SMILES: C1=CC(=CC=C1/C=C/C2=CC(=CC(=C2)O)O)O
InChI: InChI=1S/C14H12O3/c15-12-5-3-10(4-6-12)1-2-11-7-13(16)9-14(17)8-11/h1-9,15-17H/b2-1+
Instrument: Agilent 1200 RRLC; Agilent 6520 QTOF
Instrument type: LC-ESI-QTOF
Ms type: MS2
Ion mode: NEGATIVE
Collision energy: 40 ev
Column name: Agilent C8 Cartridge Column 2.1X30mm 3.5 micron (guard); Agilent SB-Aq 2.1x50mm 1.8 micron (analytical)
Retention time: 5.386
Base peak: 143
Precursor m/z: 227.0713
Precursor type: [M-H]-
m/z	relative intensity
107.0522	9
114.046	16
115.0543	279
115.0898	11
117.034	190
119.05	118
130.966	9
131.0539	17
135.5332	12
139.0506	10
139.059	17
141.0709	20
142.0416	20
143.0498	999
143.0879	43
143.1086	16
143.1606	18
152.0631	15
156.0585	33
157.0622	29
159.0818	13
167.0506	34
170.037	10
180.0563	45
181.0667	72
182.0732	31
183.0456	17
183.0847	11
184.0558	21
185.0504	31
