Mass spectrum: Isocorydine; LC-ESI-QTOF; MS2; CE 20 ev; [M+H]+
Name: Isocorydine
Formula: C20H23NO4
Exact mass: 341.162708
SMILES: CN1CCC2=CC(=C(C3=C2C1CC4=C3C(=C(C=C4)OC)O)OC)OC
InChI: InChI=1S/C20H23NO4/c1-21-8-7-12-10-15(24-3)20(25-4)18-16(12)13(21)9-11-5-6-14(23-2)19(22)17(11)18/h5-6,10,13,22H,7-9H2,1-4H3
Instrument: Agilent 1200 RRLC; Agilent 6520 QTOF
Instrument type: LC-ESI-QTOF
Ms type: MS2
Ion mode: POSITIVE
Collision energy: 20 ev
Column name: Agilent C8 Cartridge Column 2.1X30mm 3.5 micron (guard); Agilent SB-Aq 2.1x50mm 1.8 micron (analytical)
Retention time: 4.203
Base peak: 279
Precursor m/z: 342.1700
Precursor type: [M+H]+
m/z	relative intensity
180.0895	23
182.0605	31
207.0767	25
219.0829	29
231.0783	20
233.101	21
236.0805	238
237.0913	21
238.0692	30
247.0763	97
248.0825	358
249.0974	31
251.1063	157
253.0869	23
261.0874	27
263.0571	28
264.077	403
264.1035	23
264.1238	27
265.0821	154
267.1047	80
278.0865	23
279.1002	999
279.1429	88
280.1087	382
280.1828	25
281.0794	194
296.1063	362
311.1214	197
311.1372	111
311.1708	24
342.1693	31
