Mass spectrum: 6-Hydroxy-4-methylcoumarin, 6-Hydroxy-4-methyl-2-benzopyrone; LC-ESI-QTOF; MS2; CE 10 ev; [M-H]-
Name: 6-Hydroxy-4-methylcoumarin, 6-Hydroxy-4-methyl-2-benzopyrone
Formula: C10H8O3
Exact mass: 176.047344
SMILES: CC1=CC(=O)OC2=C1C=C(C=C2)O
InChI: InChI=1S/C10H8O3/c1-6-4-10(12)13-9-3-2-7(11)5-8(6)9/h2-5,11H,1H3
Instrument: Agilent 1200 RRLC; Agilent 6520 QTOF
Instrument type: LC-ESI-QTOF
Ms type: MS2
Ion mode: NEGATIVE
Collision energy: 10 ev
Column name: Agilent C8 Cartridge Column 2.1X30mm 3.5 micron (guard); Agilent SB-Aq 2.1x50mm 1.8 micron (analytical)
Retention time: 4.852
Base peak: 175
Precursor m/z: 175.0400
Precursor type: [M-H]-
m/z	relative intensity
101.0375	1
102.0494	1
103.0529	1
104.0236	0
105.0326	1
107.0511	0
108.0195	1
117.0356	0
119.0496	8
125.3761	0
129.0341	2
130.0363	0
131.0497	76
131.0829	3
131.1093	1
131.1322	1
131.1558	1
131.1945	0
131.3417	0
131.4999	0
131.532	0
131.7347	0
132.0218	3
133.0254	1
133.0358	1
145.0288	1
146.0374	2
147.0444	28
147.0771	1
147.1001	0
147.1582	0
147.3199	0
154.9375	0
157.0311	0
159.8692	0
160.015	23
160.0456	1
160.0547	0
160.1333	0
165.768	0
174.0297	4
174.0506	0
174.8388	0
174.9504	0
174.9991	0
175.0393	999
