Mass spectrum: 5,7-Dimethoxyflavanone; LC-ESI-QTOF; MS2; CE 40 ev; [M+H]+
Name: 5,7-Dimethoxyflavanone
Formula: C17H16O4
Exact mass: 284.104859
SMILES: COC1=CC(=C2C(=O)CC(OC2=C1)C3=CC=CC=C3)OC
InChI: InChI=1S/C17H16O4/c1-19-12-8-15(20-2)17-13(18)10-14(21-16(17)9-12)11-6-4-3-5-7-11/h3-9,14H,10H2,1-2H3
Instrument: Agilent 1200 RRLC; Agilent 6520 QTOF
Instrument type: LC-ESI-QTOF
Ms type: MS2
Ion mode: POSITIVE
Collision energy: 40 ev
Column name: Agilent C8 Cartridge Column 2.1X30mm 3.5 micron (guard); Agilent SB-Aq 2.1x50mm 1.8 micron (analytical)
Retention time: 8.709
Base peak: 181
Precursor m/z: 285.1122
Precursor type: [M+H]+
m/z	relative intensity
103.0541	440
105.0329	26
107.0526	16
108.0211	39
109.0301	48
110.0361	218
111.0426	31
119.0421	15
122.0337	26
123.0071	43
123.0447	38
125.0606	41
125.0669	19
131.0478	65
136.0182	36
137.0193	39
137.0284	19
138.0307	575
138.0629	22
149.0247	20
151.0378	38
166.0252	346
166.0606	16
181.0486	999
193.0518	22
