Mass spectrum: Thermopsine; LC-ESI-QTOF; MS; POSITIVE
Name: Thermopsine
Formula: C15H20N2O
Exact mass: 244.157563
SMILES: C1CCN2C[C@H]3C[C@@H]([C@@H]2C1)CN4C3=CC=CC4=O
InChI: InChI=1S/C15H20N2O/c18-15-6-3-5-14-11-8-12(10-17(14)15)13-4-1-2-7-16(13)9-11/h3,5-6,11-13H,1-2,4,7-10H2/t11-,12-,13+/m1/s1
Instrument: Agilent 1200 RRLC; Agilent 6520 QTOF
Instrument type: LC-ESI-QTOF
Ms type: MS
Ion mode: POSITIVE
Column name: Agilent C8 Cartridge Column 2.1X30mm 3.5 micron (guard); Agilent SB-Aq 2.1x50mm 1.8 micron (analytical)
Retention time: 1.061
m/z	relative intensity
245.1648765	999
