Mass spectrum: 2',3',6-Trimethoxyflavone; LC-ESI-QTOF; MS2; CE 20 ev; [M+H]+
Name: 2',3',6-Trimethoxyflavone
Formula: C18H16O5
Exact mass: 312.099774
SMILES: COC1=CC2=C(C=C1)OC(=CC2=O)C3=C(C(=CC=C3)OC)OC
InChI: InChI=1S/C18H16O5/c1-20-11-7-8-15-13(9-11)14(19)10-17(23-15)12-5-4-6-16(21-2)18(12)22-3/h4-10H,1-3H3
Instrument: Agilent 1200 RRLC; Agilent 6520 QTOF
Instrument type: LC-ESI-QTOF
Ms type: MS2
Ion mode: POSITIVE
Collision energy: 20 ev
Column name: Agilent C8 Cartridge Column 2.1X30mm 3.5 micron (guard); Agilent SB-Aq 2.1x50mm 1.8 micron (analytical)
Retention time: 9.458
Base peak: 313
Precursor m/z: 313.1071
Precursor type: [M+H]+
m/z	relative intensity
123.047	16
150.0306	108
151.0378	188
151.069	13
177.0563	21
181.0558	17
209.0602	14
224.0791	15
237.0557	24
252.0756	515
252.1259	21
255.0603	27
265.0487	140
268.071	46
269.0766	152
279.0583	20
280.0715	336
281.0761	68
283.062	16
295.0644	28
297.0743	332
298.0789	80
298.098	25
313.1056	999
