Mass spectrum: Abrine; LC-ESI-QTOF; MS2; CE 20 ev; [M+H]+
Name: Abrine
Formula: C12H14N2O2
Exact mass: 218.105528
SMILES: CNC(CC1=CNC2=CC=CC=C21)C(=O)O
InChI: InChI=1S/C12H14N2O2/c1-13-11(12(15)16)6-8-7-14-10-5-3-2-4-9(8)10/h2-5,7,11,13-14H,6H2,1H3,(H,15,16)
Instrument: Agilent 1200 RRLC; Agilent 6520 QTOF
Instrument type: LC-ESI-QTOF
Ms type: MS2
Ion mode: POSITIVE
Collision energy: 20 ev
Column name: Agilent C8 Cartridge Column 2.1X30mm 3.5 micron (guard); Agilent SB-Aq 2.1x50mm 1.8 micron (analytical)
Retention time: 1.548
Base peak: 146
Precursor m/z: 219.1128
Precursor type: [M+H]+
m/z	relative intensity
115.0505	51
115.0568	57
117.0562	29
117.0612	32
117.0678	31
117.0758	27
118.0653	545
118.0976	22
127.0554	14
130.0658	51
131.0725	14
132.08	940
132.1042	19
132.1169	28
132.1866	14
142.0652	55
143.0728	78
144.0391	15
144.0797	312
146.0597	999
146.0931	46
146.1121	24
146.1731	18
160.0726	18
170.0584	98
173.1023	14
173.1135	16
188.0711	154
