Mass spectrum: Bucharaine; LC-ESI-QTOF; MS2; CE 20 ev; [M+H]+
Name: Bucharaine
Formula: C19H25NO4
Exact mass: 331.178358
SMILES: C/C(=C\COC1=CC(=O)NC2=CC=CC=C21)/CCC(C(C)(C)O)O
InChI: InChI=1S/C19H25NO4/c1-13(8-9-17(21)19(2,3)23)10-11-24-16-12-18(22)20-15-7-5-4-6-14(15)16/h4-7,10,12,17,21,23H,8-9,11H2,1-3H3,(H,20,22)/b13-10+
Instrument: Agilent 1200 RRLC; Agilent 6520 QTOF
Instrument type: LC-ESI-QTOF
Ms type: MS2
Ion mode: POSITIVE
Collision energy: 20 ev
Column name: Agilent C8 Cartridge Column 2.1X30mm 3.5 micron (guard); Agilent SB-Aq 2.1x50mm 1.8 micron (analytical)
Retention time: 8.290
Base peak: 162
Precursor m/z: 332.1857
Precursor type: [M+H]+
m/z	relative intensity
109.0996	41
135.1145	56
153.1236	44
162.0555	999
162.0913	48
