Mass spectrum: Fusaric acid; LC-ESI-QTOF; MS2; CE 10 ev; [M+H]+
Name: Fusaric acid
Formula: C10H13NO2
Exact mass: 179.094629
SMILES: CCCCC1=CN=C(C=C1)C(=O)O
InChI: InChI=1S/C10H13NO2/c1-2-3-4-8-5-6-9(10(12)13)11-7-8/h5-7H,2-4H2,1H3,(H,12,13)
Instrument: Agilent 1200 RRLC; Agilent 6520 QTOF
Instrument type: LC-ESI-QTOF
Ms type: MS2
Ion mode: POSITIVE
Collision energy: 10 ev
Column name: Agilent C8 Cartridge Column 2.1X30mm 3.5 micron (guard); Agilent SB-Aq 2.1x50mm 1.8 micron (analytical)
Retention time: 3.928
Base peak: 134
Precursor m/z: 180.1019
Precursor type: [M+H]+
m/z	relative intensity
107.0859	13
115.056	9
117.0694	20
119.0698	8
132.0791	11
134.0961	999
134.1297	32
134.1509	6
134.1649	6
134.1763	8
134.2036	17
152.1036	11
162.0906	348
162.1279	15
162.1497	7
180.0993	55
