Mass spectrum: Hematoxylin; LC-ESI-QTOF; MS2; CE 10 ev; [M-H]-
Name: Hematoxylin
Formula: C16H14O6
Exact mass: 302.079038
SMILES: C1C2=CC(=C(C=C2C3C1(COC4=C3C=CC(=C4O)O)O)O)O
InChI: InChI=1S/C16H14O6/c17-10-2-1-8-13-9-4-12(19)11(18)3-7(9)5-16(13,21)6-22-15(8)14(10)20/h1-4,13,17-21H,5-6H2
Instrument: Agilent 1200 RRLC; Agilent 6520 QTOF
Instrument type: LC-ESI-QTOF
Ms type: MS2
Ion mode: NEGATIVE
Collision energy: 10 ev
Column name: Agilent C8 Cartridge Column 2.1X30mm 3.5 micron (guard); Agilent SB-Aq 2.1x50mm 1.8 micron (analytical)
Retention time: 2.262
Base peak: 301
Precursor m/z: 301.0717
Precursor type: [M-H]-
m/z	relative intensity
102.0637	16
119.0426	22
125.0245	19
175.0518	16
179.0326	65
203.7443	22
283.0567	28
288.6068	15
300.0566	83
300.0959	18
301.0709	999
