Mass spectrum: Sennoside; LC-ESI-QTOF; MS2; CE 10 ev; [M-H]-
Name: Sennoside
Formula: C42H38O20
Exact mass: 862.195644
SMILES: C1=CC2=C(C(=C1)OC3C(C(C(C(O3)CO)O)O)O)C(=O)C4=C(C2C5C6=C(C(=CC=C6)OC7C(C(C(C(O7)CO)O)O)O)C(=O)C8=C5C=C(C=C8O)C(=O)O)C=C(C=C4O)C(=O)O
InChI: InChI=1S/C42H38O20/c43-11-23-31(47)35(51)37(53)41(61-23)59-21-5-1-3-15-25(17-7-13(39(55)56)9-19(45)27(17)33(49)29(15)21)26-16-4-2-6-22(60-42-38(54)36(52)32(48)24(12-44)62-42)30(16)34(50)28-18(26)8-14(40(57)58)10-20(28)46/h1-10,23-26,31-32,35-38,41-48,51-54H,11-12H2,(H,55,56)(H,57,58)
Instrument: Agilent 1200 RRLC; Agilent 6520 QTOF
Instrument type: LC-ESI-QTOF
Ms type: MS2
Ion mode: NEGATIVE
Collision energy: 10 ev
Column name: Agilent C8 Cartridge Column 2.1X30mm 3.5 micron (guard); Agilent SB-Aq 2.1x50mm 1.8 micron (analytical)
Retention time: 6.351
Base peak: 861
Precursor m/z: 861.1883
Precursor type: [M-H]-
m/z	relative intensity
107.386	10
112.472	7
113.6508	6
220.2928	6
221.0779	9
239.0097	20
341.9999	6
370.2508	6
386.0943	17
404.4894	6
409.5077	20
419.0811	6
573.3178	13
626.7024	8
696.9681	7
698.1285	6
699.1474	96
718.5253	6
770.6011	8
776.8578	6
786.541	9
814.3746	8
861.1866	999
