Mass spectrum: Seneciphylline; LC-ESI-QTOF; MS2; CE 20 ev; [M+H]+
Name: Seneciphylline
Formula: C18H23NO5
Exact mass: 333.157623
SMILES: CC=C1CC(=C)C(C(=O)OCC2=CCN3C2C(CC3)OC1=O)(C)O
InChI: InChI=1S/C18H23NO5/c1-4-12-9-11(2)18(3,22)17(21)23-10-13-5-7-19-8-6-14(15(13)19)24-16(12)20/h4-5,14-15,22H,2,6-10H2,1,3H3
Instrument: Agilent 1200 RRLC; Agilent 6520 QTOF
Instrument type: LC-ESI-QTOF
Ms type: MS2
Ion mode: POSITIVE
Collision energy: 20 ev
Column name: Agilent C8 Cartridge Column 2.1X30mm 3.5 micron (guard); Agilent SB-Aq 2.1x50mm 1.8 micron (analytical)
Retention time: 2.920
Base peak: 334
Precursor m/z: 334.1649
Precursor type: [M+H]+
m/z	relative intensity
103.0539	13
105.069	15
118.0665	23
120.0812	112
122.0953	31
123.0858	12
138.0903	105
151.0712	40
288.1567	25
306.1702	81
334.1626	999
