Mass spectrum: 11-alpha-Acetoxyprogesterone; LC-ESI-QTOF; MS2; CE 20 ev; [M+H]+
Name: 11-alpha-Acetoxyprogesterone
Formula: C23H32O4
Exact mass: 372.23006
SMILES: CC(=O)C1CCC2C1(CC(C3C2CCC4=CC(=O)CCC34C)OC(=O)C)C
InChI: InChI=1S/C23H32O4/c1-13(24)18-7-8-19-17-6-5-15-11-16(26)9-10-22(15,3)21(17)20(27-14(2)25)12-23(18,19)4/h11,17-21H,5-10,12H2,1-4H3
Instrument: Agilent 1200 RRLC; Agilent 6520 QTOF
Instrument type: LC-ESI-QTOF
Ms type: MS2
Ion mode: POSITIVE
Collision energy: 20 ev
Column name: Agilent C8 Cartridge Column 2.1X30mm 3.5 micron (guard); Agilent SB-Aq 2.1x50mm 1.8 micron (analytical)
Retention time: 9.619
Base peak: 295
Precursor m/z: 373.2374
Precursor type: [M+H]+
m/z	relative intensity
121.0635	692
133.0987	556
145.1055	261
155.0831	318
157.0954	307
159.1117	375
161.1334	227
171.1165	295
173.1277	284
175.1049	386
177.1306	307
197.1287	272
211.1431	522
213.1603	272
235.1432	238
239.1426	250
253.1954	636
269.1846	238
277.1922	329
277.2129	227
285.1851	284
295.2032	999
313.2117	999
