Mass spectrum: Colchicine; LC-ESI-QTOF; MS2; CE 10 ev; [M+H]+
Name: Colchicine
Formula: C22H25NO6
Exact mass: 399.168188
SMILES: CC(=O)NC1CCC2=CC(=C(C(=C2C3=CC=C(C(=O)C=C13)OC)OC)OC)OC
InChI: InChI=1S/C22H25NO6/c1-12(24)23-16-8-6-13-10-19(27-3)21(28-4)22(29-5)20(13)14-7-9-18(26-2)17(25)11-15(14)16/h7,9-11,16H,6,8H2,1-5H3,(H,23,24)
Instrument: Agilent 1200 RRLC; Agilent 6520 QTOF
Instrument type: LC-ESI-QTOF
Ms type: MS2
Ion mode: POSITIVE
Collision energy: 10 ev
Column name: Agilent C8 Cartridge Column 2.1X30mm 3.5 micron (guard); Agilent SB-Aq 2.1x50mm 1.8 micron (analytical)
Retention time: 7.217
Base peak: 400
Precursor m/z: 400.1755
Precursor type: [M+H]+
m/z	relative intensity
282.1246	11
285.1085	9
298.1207	5
310.1135	10
313.1325	6
326.1318	9
340.1527	7
341.1317	16
358.1607	29
368.1399	5
382.1674	18
400.1726	999
