Mass spectrum: Shikimic acid; LC-ESI-QTOF; MS2; CE 10 ev; [M-H]-
Name: Shikimic acid
Formula: C7H10O5
Exact mass: 174.052823
SMILES: C1C(C(C(C=C1C(=O)O)O)O)O
InChI: InChI=1S/C7H10O5/c8-4-1-3(7(11)12)2-5(9)6(4)10/h1,4-6,8-10H,2H2,(H,11,12)
Instrument: Agilent 1200 RRLC; Agilent 6520 QTOF
Instrument type: LC-ESI-QTOF
Ms type: MS2
Ion mode: NEGATIVE
Collision energy: 10 ev
Column name: Agilent C8 Cartridge Column 2.1X30mm 3.5 micron (guard); Agilent SB-Aq 2.1x50mm 1.8 micron (analytical)
Retention time: 0.386
Base peak: 111
Precursor m/z: 173.0455
Precursor type: [M-H]-
m/z	relative intensity
101.0231	16
111.0108	34
111.0448	999
111.0717	22
111.0958	15
111.1421	13
113.0251	39
129.0198	104
129.0554	58
131.8143	12
137.0237	693
137.058	25
137.0799	12
143.0359	127
154.9467	27
155.036	344
161.1449	16
172.9605	16
173.0448	463
