Mass spectrum: Hesperetin; LC-ESI-QTOF; MS2; CE 40 ev; [M-H]-
Name: Hesperetin
Formula: C16H14O6
Exact mass: 302.079038
SMILES: COC1=C(C=C(C=C1)C2CC(=O)C3=C(C=C(C=C3O2)O)O)O
InChI: InChI=1S/C16H14O6/c1-21-13-3-2-8(4-10(13)18)14-7-12(20)16-11(19)5-9(17)6-15(16)22-14/h2-6,14,17-19H,7H2,1H3
Instrument: Agilent 1200 RRLC; Agilent 6520 QTOF
Instrument type: LC-ESI-QTOF
Ms type: MS2
Ion mode: NEGATIVE
Collision energy: 40 ev
Column name: Agilent C8 Cartridge Column 2.1X30mm 3.5 micron (guard); Agilent SB-Aq 2.1x50mm 1.8 micron (analytical)
Retention time: 7.053
Base peak: 108
Precursor m/z: 301.0717
Precursor type: [M-H]-
m/z	relative intensity
106.0386	5
107.013	342
107.0405	9
107.0573	8
108.0215	999
108.0537	32
108.095	8
108.1188	12
109.0269	11
118.0393	7
118.0479	7
119.0152	17
119.0354	5
120.0223	42
121.0265	21
122.0037	10
122.037	7
124.0151	54
125.0239	32
125.5712	5
129.0357	16
130.0431	21
132.0183	12
133.0284	38
134.0368	341
134.0709	12
134.0839	6
135.0033	9
135.0444	219
135.1553	5
136.0159	535
136.0684	7
136.0995	5
136.1237	5
137.0229	20
140.064	6
143.0499	32
144.0559	11
146.0386	10
148.0501	14
151.0031	279
151.0327	5
151.0427	11
151.0613	6
152.0108	8
154.0428	6
155.0567	8
157.0334	8
157.0683	6
158.0367	77
158.067	10
160.0116	29
161.0231	12
164.0109	259
164.0492	11
164.0709	5
165.0233	18
167.0474	5
170.0441	5
171.044	55
172.0515	36
173.0239	32
173.0646	10
174.0315	87
175.0381	50
176.0492	34
177.0164	50
183.0443	21
184.0174	5
185.0264	8
185.0598	37
186.0674	19
187.0465	34
187.9034	5
188.0451	13
191.0815	6
196.0472	20
197.0262	7
197.0577	18
197.0671	8
198.0294	35
199.0375	106
199.0835	5
200.0491	26
201.0183	106
201.061	10
202.0259	31
203.0376	11
211.0436	5
213.0561	59
214.065	30
215.0328	36
216.0441	17
223.0347	10
224.0415	6
225.059	7
227.0335	14
227.0486	7
229.0404	15
239.0383	6
240.0378	23
241.051	45
241.0888	7
242.0558	16
243.0253	13
243.0398	11
244.8736	6
257.0445	24
269.0426	13
274.0601	7
277.2713	7
285.0389	76
