Mass spectrum: 3(2',4'-Dichlorophenyl)-4-phenylcoumarin; LC-ESI-QTOF; MS; POSITIVE
Name: 3(2',4'-Dichlorophenyl)-4-phenylcoumarin
Formula: C21H12Cl2O2
Exact mass: 366.021435
SMILES: C1=CC=C(C=C1)C2=C(C(=O)OC3=CC=CC=C32)C4=C(C=C(C=C4)Cl)Cl
InChI: InChI=1S/C21H12Cl2O2/c22-14-10-11-15(17(23)12-14)20-19(13-6-2-1-3-7-13)16-8-4-5-9-18(16)25-21(20)24/h1-12H
Instrument: Agilent 1200 RRLC; Agilent 6520 QTOF
Instrument type: LC-ESI-QTOF
Ms type: MS
Ion mode: POSITIVE
Column name: Agilent C8 Cartridge Column 2.1X30mm 3.5 micron (guard); Agilent SB-Aq 2.1x50mm 1.8 micron (analytical)
Retention time: 10.479
m/z	relative intensity
367.0286765	719
389.010618	999
