Mass spectrum: Chrysin; LC-ESI-QTOF; MS2; CE 40 ev; [M+H]+
Name: Chrysin
Formula: C15H10O4
Exact mass: 254.057909
SMILES: C1=CC=C(C=C1)C2=CC(=O)C3=C(C=C(C=C3O2)O)O
InChI: InChI=1S/C15H10O4/c16-10-6-11(17)15-12(18)8-13(19-14(15)7-10)9-4-2-1-3-5-9/h1-8,16-17H
Instrument: Agilent 1200 RRLC; Agilent 6520 QTOF
Instrument type: LC-ESI-QTOF
Ms type: MS2
Ion mode: POSITIVE
Collision energy: 40 ev
Column name: Agilent C8 Cartridge Column 2.1X30mm 3.5 micron (guard); Agilent SB-Aq 2.1x50mm 1.8 micron (analytical)
Retention time: 8.623
Base peak: 153
Precursor m/z: 255.0652
Precursor type: [M+H]+
m/z	relative intensity
103.0538	810
105.0325	354
125.0218	189
129.0314	295
139.0527	129
152.0596	483
153.0181	999
153.0671	134
181.0627	115
255.0659	304
