Mass spectrum: 1,2,9,10-tetramethoxy-6-methyl-5,6-dihydro-4H-dibenzo[de,g]quinoline-7-carbaldehyde; LC-ESI-QTOF; MS2; CE 20 ev; [M+H]+
Name: 1,2,9,10-tetramethoxy-6-methyl-5,6-dihydro-4H-dibenzo[de,g]quinoline-7-carbaldehyde
Formula: C22H23NO5
Exact mass: 381.157623
SMILES: CN1CCC2=CC(=C(C3=C2C1=C(C4=CC(=C(C=C43)OC)OC)C=O)OC)OC
InChI: InChI=1S/C22H23NO5/c1-23-7-6-12-8-18(27-4)22(28-5)20-14-10-17(26-3)16(25-2)9-13(14)15(11-24)21(23)19(12)20/h8-11H,6-7H2,1-5H3
Instrument: Agilent 1200 RRLC; Agilent 6520 QTOF
Instrument type: LC-ESI-QTOF
Ms type: MS2
Ion mode: POSITIVE
Collision energy: 20 ev
Column name: Agilent C8 Cartridge Column 2.1X30mm 3.5 micron (guard); Agilent SB-Aq 2.1x50mm 1.8 micron (analytical)
Retention time: 9.329
Base peak: 367
Precursor m/z: 382.1649
Precursor type: [M+H]+
m/z	relative intensity
260.0705	8
262.0846	6
263.09	7
264.1038	19
265.1041	36
279.1209	11
280.0954	12
281.1024	8
282.1059	9
283.1225	7
289.1175	6
292.0941	11
292.1324	8
293.1006	25
294.0854	11
295.0909	7
295.1272	25
296.1235	14
297.1098	9
302.0696	9
306.114	13
307.1282	24
308.1257	64
308.1487	12
309.1082	23
309.1403	10
312.1238	16
312.1432	6
318.1118	20
320.0851	11
320.126	7
321.1	28
322.1333	17
323.108	11
323.1498	121
323.1749	11
323.2025	10
324.1238	81
324.1753	8
333.134	80
334.1349	25
334.1546	10
335.1195	17
336.1181	63
337.1269	12
338.1369	51
339.1451	114
349.1277	19
350.1409	10
351.1427	333
351.1906	18
351.2165	12
352.1148	371
352.1503	27
352.1926	10
352.2198	8
352.3161	9
353.1603	91
353.2315	7
354.1658	103
354.1775	20
354.215	10
364.1527	97
364.1899	8
365.1554	59
365.1797	9
365.2162	8
366.1288	98
366.1838	8
367.1387	999
367.2035	28
367.2352	13
367.2722	12
367.3118	15
367.36	7
367.4552	7
367.6039	7
367.7404	11
367.7712	13
368.1359	7
368.2494	7
381.1571	33
382.162	691
