Mass spectrum: Liquiritin; LC-ESI-QTOF; MS2; CE 20 ev; [M-H]-
Name: Liquiritin
Formula: C21H22O9
Exact mass: 418.126382
SMILES: C1C(OC2=C(C1=O)C=CC(=C2)O)C3=CC=C(C=C3)OC4C(C(C(C(O4)CO)O)O)O
InChI: InChI=1S/C21H22O9/c22-9-17-18(25)19(26)20(27)21(30-17)28-12-4-1-10(2-5-12)15-8-14(24)13-6-3-11(23)7-16(13)29-15/h1-7,15,17-23,25-27H,8-9H2
Instrument: Agilent 1200 RRLC; Agilent 6520 QTOF
Instrument type: LC-ESI-QTOF
Ms type: MS2
Ion mode: NEGATIVE
Collision energy: 20 ev
Column name: Agilent C8 Cartridge Column 2.1X30mm 3.5 micron (guard); Agilent SB-Aq 2.1x50mm 1.8 micron (analytical)
Retention time: 5.069
Base peak: 255
Precursor m/z: 417.1191
Precursor type: [M-H]-
m/z	relative intensity
119.0503	46
135.0085	141
135.0412	5
135.0633	3
135.1181	2
252.969	3
255.0656	999
255.1053	6
255.1163	12
255.1578	2
255.1814	6
255.2136	13
255.2627	5
255.2917	4
255.325	4
255.3437	2
255.394	4
255.4581	3
255.4761	3
255.5207	2
255.5369	3
255.6322	5
255.7018	3
255.7591	3
255.8153	5
255.8864	2
255.9075	3
256.0672	4
256.3339	2
283.0785	4
357.121	3
412.6782	2
417.1171	70
