Mass spectrum: Rauwolscine; LC-ESI-QTOF; MS2; CE 20 ev; [M-H]-
Name: Rauwolscine
Formula: C21H26N2O3
Exact mass: 354.194343
SMILES: COC(=O)[C@@H]1[C@H](CC[C@H]2[C@@H]1C[C@H]3C4=C(CCN3C2)C5=CC=CC=C5N4)O
InChI: InChI=1S/C21H26N2O3/c1-26-21(25)19-15-10-17-20-14(13-4-2-3-5-16(13)22-20)8-9-23(17)11-12(15)6-7-18(19)24/h2-5,12,15,17-19,22,24H,6-11H2,1H3/t12-,15+,17+,18+,19+/m1/s1
Instrument: Agilent 1200 RRLC; Agilent 6520 QTOF
Instrument type: LC-ESI-QTOF
Ms type: MS2
Ion mode: NEGATIVE
Collision energy: 20 ev
Column name: Agilent C8 Cartridge Column 2.1X30mm 3.5 micron (guard); Agilent SB-Aq 2.1x50mm 1.8 micron (analytical)
Retention time: 3.317
Base peak: 353
Precursor m/z: 353.1870
Precursor type: [M-H]-
m/z	relative intensity
109.2609	15
133.0254	10
135.0372	23
144.0833	9
146.6551	11
152.0541	13
154.0674	10
168.0704	14
169.0752	42
178.0783	23
181.0796	13
183.1009	12
191.0563	177
191.091	13
208.5752	15
212.2675	9
221.092	11
221.1067	11
238.6013	17
275.1588	12
276.5655	17
277.1739	40
292.8954	19
293.1668	254
293.2197	17
293.6893	10
303.147	140
303.1718	15
303.1905	11
319.1445	11
321.1596	292
321.2297	12
321.3305	10
330.15	10
353.1852	999
