Mass spectrum: Robinetin trimethyl ether; LC-ESI-QTOF; MS2; CE 20 ev; [M-H]-
Name: Robinetin trimethyl ether
Formula: C18H16O7
Exact mass: 344.089603
SMILES: COC1=CC(=CC(=C1OC)OC)C2=C(C(=O)C3=C(O2)C=C(C=C3)O)O
InChI: InChI=1S/C18H16O7/c1-22-13-6-9(7-14(23-2)18(13)24-3)17-16(21)15(20)11-5-4-10(19)8-12(11)25-17/h4-8,19,21H,1-3H3
Instrument: Agilent 1200 RRLC; Agilent 6520 QTOF
Instrument type: LC-ESI-QTOF
Ms type: MS2
Ion mode: NEGATIVE
Collision energy: 20 ev
Column name: Agilent C8 Cartridge Column 2.1X30mm 3.5 micron (guard); Agilent SB-Aq 2.1x50mm 1.8 micron (analytical)
Retention time: 8.669
Base peak: 313
Precursor m/z: 343.0823
Precursor type: [M-H]-
m/z	relative intensity
102.1325	6
135.0141	5
158.0323	7
160.0103	6
177.0164	6
186.0345	7
211.0439	6
214.0284	13
224.0536	4
242.0234	42
253.0542	4
270.0178	34
281.0088	5
282.0541	8
283.0231	10
283.2562	6
284.0309	7
285.0424	49
295.0173	4
296.7585	4
297.0322	4
298.0068	8
299.0578	36
300.0544	5
309.0282	4
313.0349	999
313.0889	23
313.1351	5
313.1524	4
313.1971	16
313.3145	5
313.3508	6
313.4079	7
313.4458	8
313.5204	14
313.5674	5
313.6403	6
313.7582	5
313.8791	4
313.9208	5
314.0324	4
314.0533	4
314.1917	5
315.0289	8
327.0526	27
328.0585	959
328.152	22
328.1828	5
328.2267	13
328.2657	7
328.3275	5
328.3562	4
328.4389	7
328.4787	4
328.5377	5
328.7724	8
328.9025	4
328.9865	4
329.2109	4
329.3793	4
339.7071	8
342.989	5
343.0801	411
