Mass spectrum: Strychnine; LC-ESI-QTOF; MS2; CE 20 ev; [M+H]+
Name: Strychnine
Formula: C21H22N2O2
Exact mass: 334.168128
SMILES: C1CN2CC3=CCOC4CC(=O)N5C6C4C3CC2C61C7=CC=CC=C75
InChI: InChI=1S/C21H22N2O2/c24-18-10-16-19-13-9-17-21(6-7-22(17)11-12(13)5-8-25-16)14-3-1-2-4-15(14)23(18)20(19)21/h1-5,13,16-17,19-20H,6-11H2
Instrument: Agilent 1200 RRLC; Agilent 6520 QTOF
Instrument type: LC-ESI-QTOF
Ms type: MS2
Ion mode: POSITIVE
Collision energy: 20 ev
Column name: Agilent C8 Cartridge Column 2.1X30mm 3.5 micron (guard); Agilent SB-Aq 2.1x50mm 1.8 micron (analytical)
Retention time: 3.361
Base peak: 335
Precursor m/z: 335.1754
Precursor type: [M+H]+
m/z	relative intensity
335.1739	999
335.2391	54
