Mass spectrum: Curcumine; LC-ESI-QTOF; MS2; CE 10 ev; [M-H]-
Name: Curcumin
Name: Curcuma
Name: (1E,6E)-1,7-Bis(4-hydroxy-3-methoxyphenyl)-1,6-heptadiene-3,5-dione
Formula: C21H20O6
Exact mass: 368.125988
SMILES: COC1=C(C=CC(=C1)/C=C/C(=O)CC(=O)/C=C/C2=CC(=C(C=C2)O)OC)O
InChI: InChI=1S/C21H20O6/c1-26-20-11-14(5-9-18(20)24)3-7-16(22)13-17(23)8-4-15-6-10-19(25)21(12-15)27-2/h3-12,24-25H,13H2,1-2H3/b7-3+,8-4+
Instrument: Agilent 1200 RRLC; Agilent 6520 QTOF
Instrument type: LC-ESI-QTOF
Ms type: MS2
Ion mode: NEGATIVE
Collision energy: 10 ev
Column name: Agilent C8 Cartridge Column 2.1X30mm 3.5 micron (guard); Agilent SB-Aq 2.1x50mm 1.8 micron (analytical)
Retention time: 9.503
Base peak: 217
Precursor m/z: 367.1187
Precursor type: [M-H]-
m/z	relative intensity
100.2134	18
120.1499	74
130.0494	25
133.2864	53
134.0394	122
139.0568	18
141.0315	23
144.9917	16
149.0601	521
149.094	26
149.125	18
158.0417	58
173.0604	374
173.0969	16
175.0392	19
202.0222	27
214.1926	16
217.0493	999
217.0877	69
217.1248	23
217.1869	23
220.4555	17
284.0368	20
284.2781	15
288.2677	19
297.4367	23
328.7121	32
343.8498	16
357.1946	36
367.1175	376
