Mass spectrum: Abietic acid; LC-ESI-QTOF; MS2; CE 10 ev; [M-H]-
Name: Abietic acid
Formula: C20H30O2
Exact mass: 302.22458
SMILES: CC(C)C1=CC2=CC[C@@H]3[C@@]([C@H]2CC1)(CCC[C@@]3(C)C(=O)O)C
InChI: InChI=1S/C20H30O2/c1-13(2)14-6-8-16-15(12-14)7-9-17-19(16,3)10-5-11-20(17,4)18(21)22/h7,12-13,16-17H,5-6,8-11H2,1-4H3,(H,21,22)/t16-,17+,19+,20+/m0/s1
Instrument: Agilent 1200 RRLC; Agilent 6520 QTOF
Instrument type: LC-ESI-QTOF
Ms type: MS2
Ion mode: NEGATIVE
Collision energy: 10 ev
Column name: Agilent C8 Cartridge Column 2.1X30mm 3.5 micron (guard); Agilent SB-Aq 2.1x50mm 1.8 micron (analytical)
Retention time: 11.557
Base peak: 301
Precursor m/z: 301.2173
Precursor type: [M-H]-
m/z	relative intensity
155.8653	7
267.8518	7
300.9999	12
301.0604	8
301.2159	999
