Mass spectrum: Austricine; LC-ESI-QTOF; MS2; CE 10 ev; [M-H]-
Name: Austricine
Formula: C15H18O4
Exact mass: 262.120509
SMILES: CC1C2C(CC(=C3C(C2OC1=O)C(=CC3=O)C)C)O
InChI: InChI=1S/C15H18O4/c1-6-4-10(17)13-8(3)15(18)19-14(13)12-7(2)5-9(16)11(6)12/h5,8,10,12-14,17H,4H2,1-3H3
Instrument: Agilent 1200 RRLC; Agilent 6520 QTOF
Instrument type: LC-ESI-QTOF
Ms type: MS2
Ion mode: NEGATIVE
Collision energy: 10 ev
Column name: Agilent C8 Cartridge Column 2.1X30mm 3.5 micron (guard); Agilent SB-Aq 2.1x50mm 1.8 micron (analytical)
Retention time: 5.595
Base peak: 199
Precursor m/z: 261.1132
Precursor type: [M-H]-
m/z	relative intensity
198.3161	6
199.1119	999
199.1514	42
199.1873	13
199.213	9
199.244	13
199.2685	6
199.3969	6
199.4402	6
199.4642	7
199.7852	6
200.9512	6
217.1218	46
243.1042	52
261.1134	177
