Mass spectrum: Kaempferide; LC-ESI-QTOF; MS2; CE 40 ev; [M-H]-
Name: Kaempferide
Formula: C16H12O6
Exact mass: 300.063388
SMILES: COC1=CC=C(C=C1)C2=C(C(=O)C3=C(C=C(C=C3O2)O)O)O
InChI: InChI=1S/C16H12O6/c1-21-10-4-2-8(3-5-10)16-15(20)14(19)13-11(18)6-9(17)7-12(13)22-16/h2-7,17-18,20H,1H3
Instrument: Agilent 1200 RRLC; Agilent 6520 QTOF
Instrument type: LC-ESI-QTOF
Ms type: MS2
Ion mode: NEGATIVE
Collision energy: 40 ev
Column name: Agilent C8 Cartridge Column 2.1X30mm 3.5 micron (guard); Agilent SB-Aq 2.1x50mm 1.8 micron (analytical)
Retention time: 8.763
Base peak: 107
Precursor m/z: 299.0561
Precursor type: [M-H]-
m/z	relative intensity
104.027	126
107.015	999
107.0511	21
108.0224	276
119.0117	52
120.0164	43
120.0253	56
121.9839	26
121.9991	94
130.0437	19
132.0213	397
135.0066	103
136.0184	83
143.0528	27
149.9963	43
151.0024	968
151.0377	19
151.0488	24
151.1093	19
155.0458	19
156.9798	34
159.0517	24
163.0036	356
163.0664	20
164.0106	356
182.0385	21
183.0418	76
184.0498	88
185.0189	36
199.0301	71
199.0435	48
200.0572	27
207.2767	32
210.0309	43
211.0295	74
211.0482	26
212.0489	34
214.0402	19
227.0321	233
227.0489	41
227.0794	24
229.3812	21
232.4593	21
239.0465	34
240.035	58
244.6378	19
255.0278	209
256.0383	31
283.0227	143
284.03	362
284.0604	60
285.044	19
