Mass spectrum: Pimaric acid; LC-ESI-QTOF; MS2; CE 10 ev; [M-H]-
Name: Pimaric acid
Formula: C20H30O2
Exact mass: 302.22458
SMILES: CC1(CCC2C(=C1)CCC3C2(CCCC3(C)C(=O)O)C)C=C
InChI: InChI=1S/C20H30O2/c1-5-18(2)12-9-15-14(13-18)7-8-16-19(15,3)10-6-11-20(16,4)17(21)22/h5,13,15-16H,1,6-12H2,2-4H3,(H,21,22)
Instrument: Agilent 1200 RRLC; Agilent 6520 QTOF
Instrument type: LC-ESI-QTOF
Ms type: MS2
Ion mode: NEGATIVE
Collision energy: 10 ev
Column name: Agilent C8 Cartridge Column 2.1X30mm 3.5 micron (guard); Agilent SB-Aq 2.1x50mm 1.8 micron (analytical)
Retention time: 11.517
Base peak: 301
Precursor m/z: 301.2173
Precursor type: [M-H]-
m/z	relative intensity
131.1251	6
163.5488	7
217.0022	8
219.0068	15
252.4828	6
276.2772	5
301.0003	18
301.217	999
