Mass spectrum: 6-Hydroxy-4-methylcoumarin, 6-Hydroxy-4-methyl-2-benzopyrone; LC-ESI-QTOF; MS2; CE 40 ev; [M-H]-
Name: 6-Hydroxy-4-methylcoumarin, 6-Hydroxy-4-methyl-2-benzopyrone
Formula: C10H8O3
Exact mass: 176.047344
SMILES: CC1=CC(=O)OC2=C1C=C(C=C2)O
InChI: InChI=1S/C10H8O3/c1-6-4-10(12)13-9-3-2-7(11)5-8(6)9/h2-5,11H,1H3
Instrument: Agilent 1200 RRLC; Agilent 6520 QTOF
Instrument type: LC-ESI-QTOF
Ms type: MS2
Ion mode: NEGATIVE
Collision energy: 40 ev
Column name: Agilent C8 Cartridge Column 2.1X30mm 3.5 micron (guard); Agilent SB-Aq 2.1x50mm 1.8 micron (analytical)
Retention time: 4.852
Base peak: 119
Precursor m/z: 175.0400
Precursor type: [M-H]-
m/z	relative intensity
101.0418	99
102.0493	57
103.0185	119
103.0548	214
104.0274	272
105.0326	113
106.0072	32
107.8949	16
108.0247	137
109.0332	33
117.0338	294
117.0674	18
118.0421	28
119.0496	999
119.0739	33
119.1003	21
119.1514	18
121.0286	122
124.5474	41
129.0372	68
130.0392	24
131.0505	105
132.0209	830
132.048	39
132.0765	18
133.0276	90
133.9978	18
145.0276	427
145.0598	19
146.0374	167
146.0516	16
147.0436	239
147.056	27
150.1976	19
158.0376	44
160.0166	333
160.0602	23
173.0239	50
174.0312	140
175.0411	24
