Mass spectrum: Coumarin 106; LC-ESI-QTOF; MS2; CE 10 ev; [M+H]+
Name: Coumarin 106
Formula: C18H19NO2
Exact mass: 281.141579
SMILES: C1CC2=C(C1)C(=O)OC3=C4CCCN5C4=C(CCC5)C=C23
InChI: InChI=1S/C18H19NO2/c20-18-13-6-1-5-12(13)15-10-11-4-2-8-19-9-3-7-14(16(11)19)17(15)21-18/h10H,1-9H2
Instrument: Agilent 1200 RRLC; Agilent 6520 QTOF
Instrument type: LC-ESI-QTOF
Ms type: MS2
Ion mode: POSITIVE
Collision energy: 10 ev
Column name: Agilent C8 Cartridge Column 2.1X30mm 3.5 micron (guard); Agilent SB-Aq 2.1x50mm 1.8 micron (analytical)
Retention time: 10.438
Base peak: 282
Precursor m/z: 282.1489
Precursor type: [M+H]+
m/z	relative intensity
198.1251	6
226.1223	17
254.1131	34
280.1335	12
281.1398	256
281.1782	8
282.1478	999
