Mass spectrum: Sparteine; LC-ESI-QTOF; MS2; CE 40 ev; [M+H]+
Name: Sparteine
Name: (2R)-7,15-diazatetracyclo[7.7.1.0<2,7>.0<10,15>]heptadecane
Formula: C15H26N2
Exact mass: 234.209599
SMILES: C1CCN2CC3CC(C2C1)CN4C3CCCC4
InChI: InChI=1S/C15H26N2/c1-3-7-16-11-13-9-12(14(16)5-1)10-17-8-4-2-6-15(13)17/h12-15H,1-11H2
Instrument: Agilent 1200 RRLC; Agilent 6520 QTOF
Instrument type: LC-ESI-QTOF
Ms type: MS2
Ion mode: POSITIVE
Collision energy: 40 ev
Column name: Agilent C8 Cartridge Column 2.1X30mm 3.5 micron (guard); Agilent SB-Aq 2.1x50mm 1.8 micron (analytical)
Retention time: 2.894
Base peak: 235
Precursor m/z: 235.2169
Precursor type: [M+H]+
m/z	relative intensity
110.0951	131
134.091	100
136.1114	93
152.1361	107
152.1471	69
162.1243	100
233.1993	301
235.2137	999
