Mass spectrum: Kojic acid; LC-APCI-QTOF; MS; POSITIVE
Name: Kojic acid
Formula: C6H6O4
Exact mass: 142.026609
SMILES: C1=C(OC=C(C1=O)O)CO
InChI: InChI=1S/C6H6O4/c7-2-4-1-5(8)6(9)3-10-4/h1,3,7,9H,2H2
Instrument: Agilent 1200 RRLC; Agilent 6520 QTOF
Instrument type: LC-APCI-QTOF
Ms type: MS
Ion mode: POSITIVE
Column name: Agilent C8 Cartridge Column 2.1X30mm 3.5 micron (guard); Agilent SB-Aq 2.1x50mm 1.8 micron (analytical)
Retention time: 0.790
m/z	relative intensity
143.0338765	999
