Mass spectrum: (-)-Bilobalide; LC-ESI-QTOF; MS2; CE 20 ev; [M-H]-
Name: (-)-Bilobalide
Formula: C15H18O8
Exact mass: 326.100168
SMILES: CC(C)(C)C1(CC2C3(C14C(C(=O)OC4OC3=O)O)CC(=O)O2)O
InChI: InChI=1S/C15H18O8/c1-12(2,3)14(20)4-6-13(5-7(16)21-6)10(19)23-11-15(13,14)8(17)9(18)22-11/h6,8,11,17,20H,4-5H2,1-3H3
Instrument: Agilent 1200 RRLC; Agilent 6520 QTOF
Instrument type: LC-ESI-QTOF
Ms type: MS2
Ion mode: NEGATIVE
Collision energy: 20 ev
Column name: Agilent C8 Cartridge Column 2.1X30mm 3.5 micron (guard); Agilent SB-Aq 2.1x50mm 1.8 micron (analytical)
Retention time: 3.463
Base peak: 163
Precursor m/z: 325.0929
Precursor type: [M-H]-
m/z	relative intensity
135.1158	9
136.0495	26
157.1184	5
163.1122	999
163.151	35
163.1994	10
163.2322	14
163.39	9
163.435	5
163.4767	7
163.6614	6
163.8551	5
165.1283	85
175.1082	14
191.1101	15
193.1222	113
201.0892	7
219.1047	19
237.1134	10
