Mass spectrum: Bergamottin; LC-APCI-QTOF; MS; POSITIVE
Name: Bergamottin
Name: 5-((2Z)-3,7-dimethylocta-2,6-dienyloxy)furano[3,2-g]chromen-2-one
Formula: C21H22O4
Exact mass: 338.151809
SMILES: CC(=CCCC(=CCOC1=C2C=CC(=O)OC2=CC3=C1C=CO3)C)C
InChI: InChI=1S/C21H22O4/c1-14(2)5-4-6-15(3)9-11-24-21-16-7-8-20(22)25-19(16)13-18-17(21)10-12-23-18/h5,7-10,12-13H,4,6,11H2,1-3H3
Instrument: Agilent 1200 RRLC; Agilent 6520 QTOF
Instrument type: LC-APCI-QTOF
Ms type: MS
Ion mode: POSITIVE
Column name: Agilent C8 Cartridge Column 2.1X30mm 3.5 micron (guard); Agilent SB-Aq 2.1x50mm 1.8 micron (analytical)
Retention time: 11.364
m/z	relative intensity
339.1590765	999
