Mass spectrum: 7-methoxy-4-methylcoumarin; LC-ESI-QTOF; MS2; CE 10 ev; [M+H]+
Name: 7-methoxy-4-methylcoumarin
Formula: C11H10O3
Exact mass: 190.062994
SMILES: CC1=CC(=O)OC2=C1C=CC(=C2)OC
InChI: InChI=1S/C11H10O3/c1-7-5-11(12)14-10-6-8(13-2)3-4-9(7)10/h3-6H,1-2H3
Instrument: Agilent 1200 RRLC; Agilent 6520 QTOF
Instrument type: LC-ESI-QTOF
Ms type: MS2
Ion mode: POSITIVE
Collision energy: 10 ev
Column name: Agilent C8 Cartridge Column 2.1X30mm 3.5 micron (guard); Agilent SB-Aq 2.1x50mm 1.8 micron (analytical)
Retention time: 6.772
Base peak: 191
Precursor m/z: 191.0703
Precursor type: [M+H]+
m/z	relative intensity
103.0526	9
104.0626	4
105.0677	12
105.0737	5
107.0492	11
115.0535	19
116.0595	4
116.0685	2
117.0696	16
119.0492	2
119.0822	3
119.0892	2
120.0525	3
120.0617	2
128.0603	2
132.0547	15
135.0799	38
146.0732	2
147.0795	24
148.0519	5
162.0651	4
163.0752	6
176.0438	6
191.0694	999
