Mass spectrum: Kinetin-9-riboside; LC-ESI-QTOF; MS2; CE 10 ev; [M+H]+
Name: Kinetin-9-riboside
Formula: C15H17N5O5
Exact mass: 347.122969
SMILES: C1=COC(=C1)CNC2=NC=NC3=C2N=CN3[C@H]4[C@@H]([C@@H]([C@H](O4)CO)O)O
InChI: InChI=1S/C15H17N5O5/c21-5-9-11(22)12(23)15(25-9)20-7-19-10-13(17-6-18-14(10)20)16-4-8-2-1-3-24-8/h1-3,6-7,9,11-12,15,21-23H,4-5H2,(H,16,17,18)/t9-,11-,12-,15-/m1/s1
Instrument: Agilent 1200 RRLC; Agilent 6520 QTOF
Instrument type: LC-ESI-QTOF
Ms type: MS2
Ion mode: POSITIVE
Collision energy: 10 ev
Column name: Agilent C8 Cartridge Column 2.1X30mm 3.5 micron (guard); Agilent SB-Aq 2.1x50mm 1.8 micron (analytical)
Retention time: 4.743
Base peak: 216
Precursor m/z: 348.1303
Precursor type: [M+H]+
m/z	relative intensity
148.0612	197
148.093	9
216.0864	999
216.1277	36
216.1599	12
216.1867	8
216.2204	17
216.2718	6
280.1057	10
348.1272	496
