Mass spectrum: Chrysoeriol; LC-ESI-QTOF; MS2; CE 40 ev; [M-H]-
Name: Chrysoeriol
Formula: C16H12O6
Exact mass: 300.063388
SMILES: COC1=C(C=CC(=C1)C2=CC(=O)C3=C(C=C(C=C3O2)O)O)O
InChI: InChI=1S/C16H12O6/c1-21-14-4-8(2-3-10(14)18)13-7-12(20)16-11(19)5-9(17)6-15(16)22-13/h2-7,17-19H,1H3
Instrument: Agilent 1200 RRLC; Agilent 6520 QTOF
Instrument type: LC-ESI-QTOF
Ms type: MS2
Ion mode: NEGATIVE
Collision energy: 40 ev
Column name: Agilent C8 Cartridge Column 2.1X30mm 3.5 micron (guard); Agilent SB-Aq 2.1x50mm 1.8 micron (analytical)
Retention time: 8.058
Base peak: 256
Precursor m/z: 299.0561
Precursor type: [M-H]-
m/z	relative intensity
104.0309	43
107.0125	309
108.0202	28
108.0261	35
122.0029	59
124.0139	73
125.0272	30
132.0316	46
132.8259	38
133.0253	180
134.0361	84
135.0072	38
145.0228	24
148.0075	48
148.0235	39
149.9921	57
150.2055	23
151.0035	339
152.0063	74
154.035	38
155.0554	41
156.0587	53
158.0361	136
159.7458	41
160.0582	28
172.011	41
172.0602	41
174.0415	31
183.04	186
184.054	49
186.0229	44
186.346	30
187.0378	127
188.044	50
192.7781	31
199.0388	136
200.0416	163
211.0424	244
212.0456	46
213.0121	48
227.0322	462
227.063	70
228.0472	46
228.5806	27
239.0357	63
243.0366	29
243.4838	33
255.0274	292
255.0456	42
256.0385	999
256.0816	39
256.1112	38
283.0223	106
284.0322	760
284.0705	33
284.0908	45
284.122	26
