Mass spectrum: 5,7-Dimethoxy-4-methylcoumarin; LC-ESI-QTOF; MS2; CE 10 ev; [M+H]+
Name: 5,7-Dimethoxy-4-methylcoumarin
Formula: C12H12O4
Exact mass: 220.073559
SMILES: CC1=CC(=O)OC2=CC(=CC(=C12)OC)OC
InChI: InChI=1S/C12H12O4/c1-7-4-11(13)16-10-6-8(14-2)5-9(15-3)12(7)10/h4-6H,1-3H3
Instrument: Agilent 1200 RRLC; Agilent 6520 QTOF
Instrument type: LC-ESI-QTOF
Ms type: MS2
Ion mode: POSITIVE
Collision energy: 10 ev
Column name: Agilent C8 Cartridge Column 2.1X30mm 3.5 micron (guard); Agilent SB-Aq 2.1x50mm 1.8 micron (analytical)
Retention time: 8.049
Base peak: 221
Precursor m/z: 221.0809
Precursor type: [M+H]+
m/z	relative intensity
105.0713	9
109.066	3
121.0613	4
133.0689	3
135.0778	3
137.0565	20
149.0501	3
149.0627	3
150.0668	5
151.0774	5
160.0485	5
161.06	3
162.0703	5
163.0395	9
165.0892	15
177.0526	6
177.0931	12
178.0579	14
179.072	4
179.242	4
192.0799	4
193.0834	12
205.0516	5
206.0593	48
221.0802	999
221.1134	15
221.1365	27
221.1931	3
221.2194	13
221.2817	4
221.367	5
221.4703	3
221.4955	4
221.7983	4
221.8392	3
222.2065	3
223.5734	3
