Mass spectrum: Icariin; LC-ESI-QTOF; MS2; CE 10 ev; [M-H]-
Name: Icariin
Name: 3-[(6-Deoxy-alpha-L-mannopyranosyl)oxy]-7-(beta-D-glucopyranosyloxy)-5-hydroxy-2-(4-methoxyphenyl)-8-(3-methyl-2-buten-1-yl)-4H-1-benzopyran-4-one
Formula: C33H40O15
Exact mass: 676.236721
SMILES: C[C@H]1[C@@H]([C@H]([C@H]([C@@H](O1)OC2=C(OC3=C(C2=O)C(=CC(=C3CC=C(C)C)O[C@H]4[C@@H]([C@H]([C@@H]([C@H](O4)CO)O)O)O)O)C5=CC=C(C=C5)OC)O)O)O
InChI: InChI=1S/C33H40O15/c1-13(2)5-10-17-19(45-33-28(42)26(40)23(37)20(12-34)46-33)11-18(35)21-24(38)31(48-32-27(41)25(39)22(36)14(3)44-32)29(47-30(17)21)15-6-8-16(43-4)9-7-15/h5-9,11,14,20,22-23,25-28,32-37,39-42H,10,12H2,1-4H3/t14-,20+,22-,23+,25+,26-,27+,28+,32-,33+/m0/s1
Instrument: Agilent 1200 RRLC; Agilent 6520 QTOF
Instrument type: LC-ESI-QTOF
Ms type: MS2
Ion mode: NEGATIVE
Collision energy: 10 ev
Column name: Agilent C8 Cartridge Column 2.1X30mm 3.5 micron (guard); Agilent SB-Aq 2.1x50mm 1.8 micron (analytical)
Retention time: 7.927
Base peak: 513
Precursor m/z: 675.2294
Precursor type: [M-H]-
m/z	relative intensity
160.0231	34
179.4875	31
265.0098	36
367.1186	93
373.9544	31
409.1287	75
513.1773	999
513.2083	87
513.2441	79
517.915	39
529.1679	127
592.9934	54
593.3757	61
