Mass spectrum: Isocorydine; LC-ESI-QTOF; MS2; CE 40 ev; [M+H]+
Name: Isocorydine
Formula: C20H23NO4
Exact mass: 341.162708
SMILES: CN1CCC2=CC(=C(C3=C2C1CC4=C3C(=C(C=C4)OC)O)OC)OC
InChI: InChI=1S/C20H23NO4/c1-21-8-7-12-10-15(24-3)20(25-4)18-16(12)13(21)9-11-5-6-14(23-2)19(22)17(11)18/h5-6,10,13,22H,7-9H2,1-4H3
Instrument: Agilent 1200 RRLC; Agilent 6520 QTOF
Instrument type: LC-ESI-QTOF
Ms type: MS2
Ion mode: POSITIVE
Collision energy: 40 ev
Column name: Agilent C8 Cartridge Column 2.1X30mm 3.5 micron (guard); Agilent SB-Aq 2.1x50mm 1.8 micron (analytical)
Retention time: 4.203
Base peak: 236
Precursor m/z: 342.1700
Precursor type: [M+H]+
m/z	relative intensity
195.0788	96
201.0659	57
202.0745	104
203.0822	104
205.0613	237
205.0751	57
206.0653	123
207.0765	418
207.0924	66
208.0888	300
209.0654	76
209.1047	142
217.0532	112
218.0545	79
218.0735	139
219.0783	325
220.0447	112
220.0786	109
221.0568	396
222.0657	167
224.0749	104
225.0883	76
231.0785	85
233.0498	66
233.0622	66
233.1053	66
234.0734	106
235.0759	557
236.0825	999
236.12	60
237.0525	131
237.0849	374
238.0676	439
238.106	66
247.0747	953
247.0898	79
247.1093	63
248.084	456
249.0702	57
251.1039	101
253.0831	486
263.0639	82
263.0776	55
264.075	480
265.0813	808
265.1154	57
279.1051	74
281.0794	235
