Mass spectrum: 3-Hydroxy-3'-methoxyflavone; LC-ESI-QTOF; MS2; CE 10 ev; [M-H]-
Name: 3-Hydroxy-3'-methoxyflavone
Formula: C16H12O4
Exact mass: 268.073559
SMILES: COC1=CC=CC(=C1)C2=C(C(=O)C3=CC=CC=C3O2)O
InChI: InChI=1S/C16H12O4/c1-19-11-6-4-5-10(9-11)16-15(18)14(17)12-7-2-3-8-13(12)20-16/h2-9,18H,1H3
Instrument: Agilent 1200 RRLC; Agilent 6520 QTOF
Instrument type: LC-ESI-QTOF
Ms type: MS2
Ion mode: NEGATIVE
Collision energy: 10 ev
Column name: Agilent C8 Cartridge Column 2.1X30mm 3.5 micron (guard); Agilent SB-Aq 2.1x50mm 1.8 micron (analytical)
Retention time: 9.139
Base peak: 267
Precursor m/z: 267.0663
Precursor type: [M-H]-
m/z	relative intensity
119.035	25
137.8029	40
165.8648	21
195.043	48
196.0521	164
196.4378	31
208.0523	22
212.2682	20
223.0311	24
239.0717	105
246.7427	25
252.0308	29
267.0643	999
