Mass spectrum: 12-[(2,4-dimethoxyphenyl)carbonyl]-6a,6b,10,11,11a,12-hexahydro-8,11-epoxyoxepino[4',5':3,4]pyrrolo[1,2-a]quinolin-7(8H)-one; LC-ESI-QTOF; MS; NEGATIVE
Name: 12-[(2,4-dimethoxyphenyl)carbonyl]-6a,6b,10,11,11a,12-hexahydro-8,11-epoxyoxepino[4',5':3,4]pyrrolo[1,2-a]quinolin-7(8H)-one
Formula: C25H23NO6
Exact mass: 433.152537
SMILES: COC1=CC(=C(C=C1)C(=O)C2C3C4COC(O4)C(=O)C3C5N2C6=CC=CC=C6C=C5)OC
InChI: InChI=1S/C25H23NO6/c1-29-14-8-9-15(18(11-14)30-2)23(27)22-21-19-12-31-25(32-19)24(28)20(21)17-10-7-13-5-3-4-6-16(13)26(17)22/h3-11,17,19-22,25H,12H2,1-2H3
Instrument: Agilent 1200 RRLC; Agilent 6520 QTOF
Instrument type: LC-ESI-QTOF
Ms type: MS
Ion mode: NEGATIVE
Column name: Agilent C8 Cartridge Column 2.1X30mm 3.5 micron (guard); Agilent SB-Aq 2.1x50mm 1.8 micron (analytical)
Retention time: 9.388
m/z	relative intensity
432.1452235	999
