Mass spectrum: Acacetin; LC-ESI-QTOF; MS2; CE 20 ev; [M+H]+
Name: Acacetin
Formula: C16H12O5
Exact mass: 284.068473
SMILES: COC1=CC=C(C=C1)C2=CC(=O)C3=C(C=C(C=C3O2)O)O
InChI: InChI=1S/C16H12O5/c1-20-11-4-2-9(3-5-11)14-8-13(19)16-12(18)6-10(17)7-15(16)21-14/h2-8,17-18H,1H3
Instrument: Agilent 1200 RRLC; Agilent 6520 QTOF
Instrument type: LC-ESI-QTOF
Ms type: MS2
Ion mode: POSITIVE
Collision energy: 20 ev
Column name: Agilent C8 Cartridge Column 2.1X30mm 3.5 micron (guard); Agilent SB-Aq 2.1x50mm 1.8 micron (analytical)
Retention time: 8.970
Base peak: 285
Precursor m/z: 285.0758
Precursor type: [M+H]+
m/z	relative intensity
133.0672	21
153.0191	25
241.0425	7
242.0553	167
242.0981	7
270.0505	207
270.0993	8
285.0738	999
