Mass spectrum: 5,3'-Dihydroxyflavone; LC-ESI-QTOF; MS2; CE 20 ev; [M-H]-
Name: 5,3'-Dihydroxyflavone
Formula: C15H10O4
Exact mass: 254.057909
SMILES: C1=CC(=CC(=C1)O)C2=CC(=O)C3=C(O2)C=CC=C3O
InChI: InChI=1S/C15H10O4/c16-10-4-1-3-9(7-10)14-8-12(18)15-11(17)5-2-6-13(15)19-14/h1-8,16-17H
Instrument: Agilent 1200 RRLC; Agilent 6520 QTOF
Instrument type: LC-ESI-QTOF
Ms type: MS2
Ion mode: NEGATIVE
Collision energy: 20 ev
Column name: Agilent C8 Cartridge Column 2.1X30mm 3.5 micron (guard); Agilent SB-Aq 2.1x50mm 1.8 micron (analytical)
Retention time: 8.479
Base peak: 253
Precursor m/z: 253.0506
Precursor type: [M-H]-
m/z	relative intensity
100.7997	0
107.0077	0
117.0342	5
119.416	0
123.0303	0
133.03	1
135.0082	374
135.0435	10
135.062	8
135.0873	3
135.116	5
135.1582	1
135.1772	1
135.2023	1
135.2297	1
135.2508	1
135.2606	1
135.2875	1
135.2984	1
135.3232	1
135.3459	0
135.3547	1
135.3808	0
135.3903	0
135.4137	0
135.4337	0
135.4585	0
135.4699	0
135.506	1
135.5146	0
135.5424	1
135.5584	0
135.5893	0
135.6124	1
135.6914	1
135.7325	0
135.7753	1
135.8031	0
135.9368	0
135.9871	0
136.0175	0
136.0357	0
136.1262	1
136.1951	1
136.2761	0
136.5888	0
136.6648	0
140.3628	0
144.4113	1
145.6245	1
156.0189	0
157.0288	1
159.041	1
171.381	0
181.0745	1
183.0467	1
185.0229	1
206.6463	1
206.8463	0
207.0494	0
208.0515	1
209.0602	1
211.0419	1
224.0393	0
225.0545	7
225.3722	0
233.1043	0
235.0397	6
235.074	0
236.042	0
242.2571	1
245.4082	0
250.3355	1
251.0852	0
251.2311	0
251.3377	0
251.8161	0
252.0573	0
252.4279	0
252.5643	0
252.7623	0
252.9328	0
252.9733	1
253.0506	999
