Mass spectrum: 3,4-Dihydroxy-L-phenylalanine; LC-ESI-QTOF; MS2; CE 20 ev; [M-H]-
Name: 3,4-Dihydroxy-L-phenylalanine
Formula: C9H11NO4
Exact mass: 197.068808
SMILES: C1=CC(=C(C=C1CC(C(=O)O)N)O)O
InChI: InChI=1S/C9H11NO4/c10-6(9(13)14)3-5-1-2-7(11)8(12)4-5/h1-2,4,6,11-12H,3,10H2,(H,13,14)
Instrument: Agilent 1200 RRLC; Agilent 6520 QTOF
Instrument type: LC-ESI-QTOF
Ms type: MS2
Ion mode: NEGATIVE
Collision energy: 20 ev
Column name: Agilent C8 Cartridge Column 2.1X30mm 3.5 micron (guard); Agilent SB-Aq 2.1x50mm 1.8 micron (analytical)
Retention time: 0.388
Base peak: 135
Precursor m/z: 196.0615
Precursor type: [M-H]-
m/z	relative intensity
106.0381	15
107.0498	76
108.0179	11
109.029	206
109.0381	10
109.0592	9
121.0302	22
122.0362	327
122.0641	9
123.0439	106
125.0568	13
134.0361	96
135.0447	999
135.0714	23
135.0827	30
135.1243	12
135.1526	15
144.7568	10
148.6217	12
150.0493	10
160.843	157
160.8785	12
168.1495	10
179.0335	74
