Mass spectrum: Peracetate Quercetin; LC-ESI-QTOF; MS2; CE 20 ev; [M+H]+
Name: Peracetate Quercetin
Formula: C25H20O12
Exact mass: 512.095476
SMILES: CC(=O)OC1=C(C=C(C=C1)C2=C(C(=O)C3=C(C=C(C=C3O2)OC(=O)C)OC(=O)C)OC(=O)C)OC(=O)C
InChI: InChI=1S/C25H20O12/c1-11(26)32-17-9-20(35-14(4)29)22-21(10-17)37-24(25(23(22)31)36-15(5)30)16-6-7-18(33-12(2)27)19(8-16)34-13(3)28/h6-10H,1-5H3
Instrument: Agilent 1200 RRLC; Agilent 6520 QTOF
Instrument type: LC-ESI-QTOF
Ms type: MS2
Ion mode: POSITIVE
Collision energy: 20 ev
Column name: Agilent C8 Cartridge Column 2.1X30mm 3.5 micron (guard); Agilent SB-Aq 2.1x50mm 1.8 micron (analytical)
Retention time: 8.790
Base peak: 387
Precursor m/z: 513.1028
Precursor type: [M+H]+
m/z	relative intensity
264.5483	29
303.0492	60
345.0589	287
387.0708	999
387.1223	30
387.1656	22
429.0816	400
429.1573	21
471.088	23
