Mass spectrum: Oleanolic acid; LC-ESI-QTOF; MS2; CE 40 ev; [M-H]-
Name: Oleanolic acid
Formula: C30H48O3
Exact mass: 456.360345
SMILES: CC1(CCC2(CCC3(C(=CCC4C3(CCC5C4(CCC(C5(C)C)O)C)C)C2C1)C)C(=O)O)C
InChI: InChI=1S/C30H48O3/c1-25(2)14-16-30(24(32)33)17-15-28(6)19(20(30)18-25)8-9-22-27(5)12-11-23(31)26(3,4)21(27)10-13-29(22,28)7/h8,20-23,31H,9-18H2,1-7H3,(H,32,33)
Instrument: Agilent 1200 RRLC; Agilent 6520 QTOF
Instrument type: LC-ESI-QTOF
Ms type: MS2
Ion mode: NEGATIVE
Collision energy: 40 ev
Column name: Agilent C8 Cartridge Column 2.1X30mm 3.5 micron (guard); Agilent SB-Aq 2.1x50mm 1.8 micron (analytical)
Retention time: 12.039
Base peak: 455
Precursor m/z: 455.3530
Precursor type: [M-H]-
m/z	relative intensity
103.4133	11
111.1275	18
130.923	12
182.7046	9
207.6549	8
230.6837	10
240.9059	11
252.2332	11
306.9814	13
313.1504	10
317.9421	22
407.3316	37
410.1805	11
429.6958	8
455.3504	999
