Mass spectrum: 3,4-Dihydroxy-L-phenylalanine; LC-ESI-QTOF; MS2; CE 10 ev; [M+H]+
Name: 3,4-Dihydroxy-L-phenylalanine
Formula: C9H11NO4
Exact mass: 197.068808
SMILES: C1=CC(=C(C=C1CC(C(=O)O)N)O)O
InChI: InChI=1S/C9H11NO4/c10-6(9(13)14)3-5-1-2-7(11)8(12)4-5/h1-2,4,6,11-12H,3,10H2,(H,13,14)
Instrument: Agilent 1200 RRLC; Agilent 6520 QTOF
Instrument type: LC-ESI-QTOF
Ms type: MS2
Ion mode: POSITIVE
Collision energy: 10 ev
Column name: Agilent C8 Cartridge Column 2.1X30mm 3.5 micron (guard); Agilent SB-Aq 2.1x50mm 1.8 micron (analytical)
Retention time: 0.385
Base peak: 152
Precursor m/z: 198.0761
Precursor type: [M+H]+
m/z	relative intensity
105.0324	1
106.0664	11
107.0503	81
107.0797	3
107.0999	1
107.1172	1
107.1446	1
109.0302	5
111.0451	43
111.0713	2
116.0499	2
117.0362	1
119.0475	4
123.0442	3
125.0636	1
125.0727	1
134.06	17
134.0724	1
134.0897	1
135.0449	324
135.067	2
135.0798	11
135.1221	1
135.132	1
135.1524	3
135.1854	1
135.2098	1
135.2407	1
135.2702	1
135.3975	1
135.456	1
135.9019	1
136.0472	2
137.0592	11
139.0397	439
139.0744	11
139.0928	4
139.1215	1
139.1486	6
139.1901	1
139.2202	1
139.2439	2
139.2645	1
139.37	1
139.4347	1
139.4561	1
139.5978	1
139.6623	1
139.6879	1
139.7863	1
139.8048	1
140.046	1
140.1596	1
151.0621	1
152.0713	999
152.1072	26
152.1274	12
152.1547	8
152.1853	17
152.2346	3
152.2904	3
152.3268	2
152.3451	1
152.4117	2
152.4368	1
152.4524	2
152.48	1
152.494	1
152.5328	2
152.5717	1
152.6034	2
152.6574	2
152.694	1
152.7516	1
152.8121	1
152.8317	1
152.8548	1
152.8864	1
152.9285	1
153.0293	1
153.056	2
153.0675	2
153.1298	1
153.1434	1
153.2168	1
153.3423	1
162.0632	2
163.0395	97
163.0654	1
163.0785	2
163.0995	2
163.1591	1
181.05	219
181.0861	6
181.1195	1
181.1421	1
181.1735	2
181.3095	1
181.3885	1
181.4179	1
181.4515	1
181.6419	1
181.7001	1
181.9204	1
182.2312	1
198.0764	40
