Mass spectrum: Harmine; LC-ESI-QTOF; MS2; CE 40 ev; [M+H]+
Name: Harmine
Formula: C13H12N2O
Exact mass: 212.094963
SMILES: CC1=NC=CC2=C1NC3=C2C=CC(=C3)OC
InChI: InChI=1S/C13H12N2O/c1-8-13-11(5-6-14-8)10-4-3-9(16-2)7-12(10)15-13/h3-7,15H,1-2H3
Instrument: Agilent 1200 RRLC; Agilent 6520 QTOF
Instrument type: LC-ESI-QTOF
Ms type: MS2
Ion mode: POSITIVE
Collision energy: 40 ev
Column name: Agilent C8 Cartridge Column 2.1X30mm 3.5 micron (guard); Agilent SB-Aq 2.1x50mm 1.8 micron (analytical)
Retention time: 4.499
Base peak: 170
Precursor m/z: 213.1023
Precursor type: [M+H]+
m/z	relative intensity
115.055	27
118.0652	33
128.0448	32
129.0543	29
130.0675	15
142.0677	25
143.0666	34
144.071	21
144.0804	98
155.0608	125
168.0683	35
169.0754	859
170.0828	999
170.121	29
198.0747	48
