Mass spectrum: Hydrastine; LC-ESI-QTOF; MS2; CE 20 ev; [M+H]+
Name: Hydrastine
Formula: C21H21NO6
Exact mass: 383.136887
SMILES: CN1CCC2=CC3=C(C=C2C1C4C5=C(C(=C(C=C5)OC)OC)C(=O)O4)OCO3
InChI: InChI=1S/C21H21NO6/c1-22-7-6-11-8-15-16(27-10-26-15)9-13(11)18(22)19-12-4-5-14(24-2)20(25-3)17(12)21(23)28-19/h4-5,8-9,18-19H,6-7,10H2,1-3H3
Instrument: Agilent 1200 RRLC; Agilent 6520 QTOF
Instrument type: LC-ESI-QTOF
Ms type: MS2
Ion mode: POSITIVE
Collision energy: 20 ev
Column name: Agilent C8 Cartridge Column 2.1X30mm 3.5 micron (guard); Agilent SB-Aq 2.1x50mm 1.8 micron (analytical)
Retention time: 4.258
Base peak: 323
Precursor m/z: 384.1442
Precursor type: [M+H]+
m/z	relative intensity
149.0595	71
160.056	20
176.0707	47
188.0686	22
189.0811	18
190.0852	593
190.1093	14
190.1269	34
190.1683	8
190.214	8
190.4203	7
191.0946	17
193.0496	21
195.0592	9
206.0784	17
207.0882	11
222.0688	10
235.0623	7
250.0562	12
250.0686	7
251.101	12
265.082	41
267.0985	14
277.0864	28
278.0762	10
279.0606	9
279.0962	11
280.0783	16
282.0865	24
290.0483	8
291.0648	19
292.0685	32
293.0777	227
293.1281	21
294.0871	45
295.0932	71
297.1081	26
297.1328	8
302.0495	10
302.0609	13
304.0704	16
305.0739	25
307.103	7
308.0619	27
308.1029	9
319.0745	8
319.0957	13
320.0652	51
322.0796	42
323.0889	999
323.139	14
323.1748	18
323.2048	18
323.2499	14
323.3035	11
323.4262	9
323.4973	7
323.5849	8
323.646	7
323.6749	7
323.8562	10
324.0581	7
324.0991	10
324.5087	7
325.099	27
333.0744	13
335.0893	108
335.1053	23
335.128	8
337.107	11
338.1271	10
341.0933	13
348.1202	16
351.1078	19
353.0954	33
366.1321	35
384.1431	276
