Mass spectrum: Enoxolone; LC-ESI-QTOF; MS2; CE 20 ev; [M-H]-
Name: Enoxolone
Formula: C30H46O4
Exact mass: 470.33961
SMILES: CC1(C2CCC3(C(C2(CCC1O)C)C(=O)C=C4C3(CCC5(C4CC(CC5)(C)C(=O)O)C)C)C)C
InChI: InChI=1S/C30H46O4/c1-25(2)21-8-11-30(7)23(28(21,5)10-9-22(25)32)20(31)16-18-19-17-27(4,24(33)34)13-12-26(19,3)14-15-29(18,30)6/h16,19,21-23,32H,8-15,17H2,1-7H3,(H,33,34)
Instrument: Agilent 1200 RRLC; Agilent 6520 QTOF
Instrument type: LC-ESI-QTOF
Ms type: MS2
Ion mode: NEGATIVE
Collision energy: 20 ev
Column name: Agilent C8 Cartridge Column 2.1X30mm 3.5 micron (guard); Agilent SB-Aq 2.1x50mm 1.8 micron (analytical)
Retention time: 11.681
Base peak: 469
Precursor m/z: 469.3323
Precursor type: [M-H]-
m/z	relative intensity
152.3121	14
223.0186	148
305.0137	32
305.0271	32
334.8893	19
366.8512	14
377.547	23
389.8564	36
425.3272	21
469.2747	22
469.3306	999
