Mass spectrum: Isocorydine; LC-ESI-QTOF; MS2; CE 10 ev; [M+H]+
Name: Isocorydine
Formula: C20H23NO4
Exact mass: 341.162708
SMILES: CN1CCC2=CC(=C(C3=C2C1CC4=C3C(=C(C=C4)OC)O)OC)OC
InChI: InChI=1S/C20H23NO4/c1-21-8-7-12-10-15(24-3)20(25-4)18-16(12)13(21)9-11-5-6-14(23-2)19(22)17(11)18/h5-6,10,13,22H,7-9H2,1-4H3
Instrument: Agilent 1200 RRLC; Agilent 6520 QTOF
Instrument type: LC-ESI-QTOF
Ms type: MS2
Ion mode: POSITIVE
Collision energy: 10 ev
Column name: Agilent C8 Cartridge Column 2.1X30mm 3.5 micron (guard); Agilent SB-Aq 2.1x50mm 1.8 micron (analytical)
Retention time: 4.203
Base peak: 342
Precursor m/z: 342.1700
Precursor type: [M+H]+
m/z	relative intensity
205.0612	12
236.0851	61
247.0738	43
248.0802	99
248.1219	12
249.0858	34
251.1099	71
263.9753	18
264.0739	46
265.084	47
267.0971	32
279.1011	665
279.1557	28
280.1083	69
280.1391	16
293.1238	15
296.102	134
299.1383	20
310.1447	25
311.1261	587
311.1825	35
311.2285	13
311.2887	13
311.5378	14
342.1698	999
