Mass spectrum: 7-methoxy-4-methylcoumarin; LC-APCI-QTOF; MS; POSITIVE
Name: 7-methoxy-4-methylcoumarin
Formula: C11H10O3
Exact mass: 190.062994
SMILES: CC1=CC(=O)OC2=C1C=CC(=C2)OC
InChI: InChI=1S/C11H10O3/c1-7-5-11(12)14-10-6-8(13-2)3-4-9(7)10/h3-6H,1-2H3
Instrument: Agilent 1200 RRLC; Agilent 6520 QTOF
Instrument type: LC-APCI-QTOF
Ms type: MS
Ion mode: POSITIVE
Column name: Agilent C8 Cartridge Column 2.1X30mm 3.5 micron (guard); Agilent SB-Aq 2.1x50mm 1.8 micron (analytical)
Retention time: 6.849
m/z	relative intensity
191.0702765	999
