Mass spectrum: Abscisic acid; LC-ESI-QTOF; MS; POSITIVE
Name: Abscisic acid
Formula: C15H20O4
Exact mass: 264.136159
SMILES: CC1=CC(=O)CC(C1(C=CC(=CC(=O)O)C)O)(C)C
InChI: InChI=1S/C15H20O4/c1-10(7-13(17)18)5-6-15(19)11(2)8-12(16)9-14(15,3)4/h5-8,19H,9H2,1-4H3,(H,17,18)
Instrument: Agilent 1200 RRLC; Agilent 6520 QTOF
Instrument type: LC-ESI-QTOF
Ms type: MS
Ion mode: POSITIVE
Column name: Agilent C8 Cartridge Column 2.1X30mm 3.5 micron (guard); Agilent SB-Aq 2.1x50mm 1.8 micron (analytical)
Retention time: 6.459
m/z	relative intensity
265.1434765	158
287.125418	999
