Mass spectrum: Phloretin; LC-ESI-QTOF; MS2; CE 20 ev; [M-H]-
Name: Phloretin
Formula: C15H14O5
Exact mass: 274.084124
SMILES: C1=CC(=CC=C1CCC(=O)C2=C(C=C(C=C2O)O)O)O
InChI: InChI=1S/C15H14O5/c16-10-4-1-9(2-5-10)3-6-12(18)15-13(19)7-11(17)8-14(15)20/h1-2,4-5,7-8,16-17,19-20H,3,6H2
Instrument: Agilent 1200 RRLC; Agilent 6520 QTOF
Instrument type: LC-ESI-QTOF
Ms type: MS2
Ion mode: NEGATIVE
Collision energy: 20 ev
Column name: Agilent C8 Cartridge Column 2.1X30mm 3.5 micron (guard); Agilent SB-Aq 2.1x50mm 1.8 micron (analytical)
Retention time: 6.714
Base peak: 167
Precursor m/z: 273.0768
Precursor type: [M-H]-
m/z	relative intensity
123.0452	352
123.0791	12
125.0237	100
135.0445	12
149.0236	12
151.0029	37
167.0344	999
167.0734	29
167.1272	6
167.1549	16
179.0341	74
187.0745	11
189.0567	23
229.0861	18
255.0694	8
273.0767	93
