Mass spectrum: Methylergometrine; LC-ESI-QTOF; MS2; CE 40 ev; [M-H]-
Name: Methylergometrine
Formula: C20H25N3O2
Exact mass: 339.194677
SMILES: CCC(CO)NC(=O)C1CN(C2CC3=CNC4=CC=CC(=C34)C2=C1)C
InChI: InChI=1S/C20H25N3O2/c1-3-14(11-24)22-20(25)13-7-16-15-5-4-6-17-19(15)12(9-21-17)8-18(16)23(2)10-13/h4-7,9,13-14,18,21,24H,3,8,10-11H2,1-2H3,(H,22,25)
Instrument: Agilent 1200 RRLC; Agilent 6520 QTOF
Instrument type: LC-ESI-QTOF
Ms type: MS2
Ion mode: NEGATIVE
Collision energy: 40 ev
Column name: Agilent C8 Cartridge Column 2.1X30mm 3.5 micron (guard); Agilent SB-Aq 2.1x50mm 1.8 micron (analytical)
Retention time: 3.314
Base peak: 180
Precursor m/z: 338.1874
Precursor type: [M-H]-
m/z	relative intensity
116.0463	46
129.061	88
130.0689	104
140.0727	36
151.0557	44
154.06	85
166.0657	58
167.0604	59
171.1691	39
174.08	36
178.0469	46
179.0718	257
180.0732	999
180.0961	46
181.0806	209
192.0789	42
193.0764	87
194.0844	151
195.0928	216
196.1148	44
205.0804	68
206.0875	37
207.0884	476
207.1055	82
208.091	75
208.1006	107
211.4488	36
219.0929	71
221.1119	133
223.1235	296
247.075	70
249.1054	109
249.1186	39
258.665	97
264.5775	39
274.2515	37
278.2238	41
