Mass spectrum: Abscisic acid; LC-ESI-QTOF; MS2; CE 20 ev; [M-H]-
Name: Abscisic acid
Formula: C15H20O4
Exact mass: 264.136159
SMILES: CC1=CC(=O)CC(C1(C=CC(=CC(=O)O)C)O)(C)C
InChI: InChI=1S/C15H20O4/c1-10(7-13(17)18)5-6-15(19)11(2)8-12(16)9-14(15,3)4/h5-8,19H,9H2,1-4H3,(H,17,18)
Instrument: Agilent 1200 RRLC; Agilent 6520 QTOF
Instrument type: LC-ESI-QTOF
Ms type: MS2
Ion mode: NEGATIVE
Collision energy: 20 ev
Column name: Agilent C8 Cartridge Column 2.1X30mm 3.5 micron (guard); Agilent SB-Aq 2.1x50mm 1.8 micron (analytical)
Retention time: 6.450
Base peak: 204
Precursor m/z: 263.1289
Precursor type: [M-H]-
m/z	relative intensity
153.3347	11
153.7177	12
159.1167	54
161.0964	49
163.0744	210
163.1093	20
164.0827	38
175.08	15
177.1327	18
183.1148	29
185.1001	23
186.1037	109
188.0845	19
189.0939	37
189.1176	13
201.127	424
201.1654	21
201.1882	12
203.1059	131
204.1146	999
204.153	37
204.1835	20
219.1378	848
219.1857	20
219.2043	21
219.2749	13
245.1201	17
248.1077	19
