Mass spectrum: 2-(4-chlorophenyl)-1-(2,4,6-trihydroxyphenyl)ethanone; LC-ESI-QTOF; MS2; CE 10 ev; [M-H]-
Name: 2-(4-chlorophenyl)-1-(2,4,6-trihydroxyphenyl)ethanone
Formula: C14H11ClO4
Exact mass: 278.034587
SMILES: C1=CC(=CC=C1CC(=O)C2=C(C=C(C=C2O)O)O)Cl
InChI: InChI=1S/C14H11ClO4/c15-9-3-1-8(2-4-9)5-11(17)14-12(18)6-10(16)7-13(14)19/h1-4,6-7,16,18-19H,5H2
Instrument: Agilent 1200 RRLC; Agilent 6520 QTOF
Instrument type: LC-ESI-QTOF
Ms type: MS2
Ion mode: NEGATIVE
Collision energy: 10 ev
Column name: Agilent C8 Cartridge Column 2.1X30mm 3.5 micron (guard); Agilent SB-Aq 2.1x50mm 1.8 micron (analytical)
Retention time: 7.994
Base peak: 277
Precursor m/z: 277.0273
Precursor type: [M-H]-
m/z	relative intensity
107.0146	6
121.0281	1
123.0151	1
125.0231	16
125.0495	1
125.7549	1
137.0309	1
144.8214	1
149.0208	2
151.004	42
151.02	2
151.0431	1
151.0607	1
151.2566	1
151.482	1
151.5364	1
152.0106	1
166.2399	1
167.8723	2
173.0137	1
187.0333	1
191.0242	4
193.0042	3
197.0747	1
205.0292	1
205.0437	2
206.8363	1
215.0259	1
217.0027	2
217.0241	1
231.0239	2
233.0364	53
233.077	2
233.1027	1
233.1296	1
233.3321	1
234.4463	1
235.3847	1
236.3224	1
258.7829	1
259.0152	3
261.003	1
274.7394	1
275.6082	1
275.7413	1
276.6048	1
276.8973	2
276.9593	1
277.0263	999
