Mass spectrum: Cytisine; LC-ESI-QTOF; MS2; CE 10 ev; [M+H]+
Name: Cytisine
Formula: C11H14N2O
Exact mass: 190.110613
SMILES: C1[C@H]2CNC[C@@H]1C3=CC=CC(=O)N3C2
InChI: InChI=1S/C11H14N2O/c14-11-3-1-2-10-9-4-8(5-12-6-9)7-13(10)11/h1-3,8-9,12H,4-7H2/t8-,9+/m0/s1
Instrument: Agilent 1200 RRLC; Agilent 6520 QTOF
Instrument type: LC-ESI-QTOF
Ms type: MS2
Ion mode: POSITIVE
Collision energy: 10 ev
Column name: Agilent C8 Cartridge Column 2.1X30mm 3.5 micron (guard); Agilent SB-Aq 2.1x50mm 1.8 micron (analytical)
Retention time: 0.384
Base peak: 191
Precursor m/z: 191.1179
Precursor type: [M+H]+
m/z	relative intensity
148.0752	171
191.1173	999
191.1565	14
191.1792	18
191.2088	11
191.2447	27
