Mass spectrum: Chenodeoxycholic acid; LC-ESI-QTOF; MS2; CE 10 ev; [M-H]-
Name: Chenodeoxycholic acid
Formula: C24H40O4
Exact mass: 392.29266
SMILES: CC(CCC(=O)O)C1CCC2C1(CCC3C2C(CC4C3(CCC(C4)O)C)O)C
InChI: InChI=1S/C24H40O4/c1-14(4-7-21(27)28)17-5-6-18-22-19(9-11-24(17,18)3)23(2)10-8-16(25)12-15(23)13-20(22)26/h14-20,22,25-26H,4-13H2,1-3H3,(H,27,28)
Instrument: Agilent 1200 RRLC; Agilent 6520 QTOF
Instrument type: LC-ESI-QTOF
Ms type: MS2
Ion mode: NEGATIVE
Collision energy: 10 ev
Column name: Agilent C8 Cartridge Column 2.1X30mm 3.5 micron (guard); Agilent SB-Aq 2.1x50mm 1.8 micron (analytical)
Retention time: 10.795
Base peak: 391
Precursor m/z: 391.2854
Precursor type: [M-H]-
m/z	relative intensity
139.9587	14
180.5085	20
210.8719	12
214.8234	17
391.2834	999
