Mass spectrum: Kaempferol; LC-ESI-QTOF; MS2; CE 10 ev; [M-H]-
Name: Kaempferol
Formula: C15H10O6
Exact mass: 286.047738
SMILES: C1=CC(=CC=C1C2=C(C(=O)C3=C(C=C(C=C3O2)O)O)O)O
InChI: InChI=1S/C15H10O6/c16-8-3-1-7(2-4-8)15-14(20)13(19)12-10(18)5-9(17)6-11(12)21-15/h1-6,16-18,20H
Instrument: Agilent 1200 RRLC; Agilent 6520 QTOF
Instrument type: LC-ESI-QTOF
Ms type: MS2
Ion mode: NEGATIVE
Collision energy: 10 ev
Column name: Agilent C8 Cartridge Column 2.1X30mm 3.5 micron (guard); Agilent SB-Aq 2.1x50mm 1.8 micron (analytical)
Retention time: 7.453
Base peak: 285
Precursor m/z: 285.0404
Precursor type: [M-H]-
m/z	relative intensity
151.0034	9
159.0378	5
284.2637	8
285.0399	999
