Mass spectrum: Digitoxin; LC-ESI-QTOF; MS2; CE 20 ev; [M+CH3COOH-H]-
Name: Digitoxin
Formula: C41H64O13
Exact mass: 764.434692
SMILES: CC1C(C(CC(O1)OC2C(OC(CC2O)OC3C(OC(CC3O)OC4CCC5(C(C4)CCC6C5CCC7(C6(CCC7C8=CC(=O)OC8)O)C)C)C)C)O)O
InChI: InChI=1S/C41H64O13/c1-20-36(46)29(42)16-34(49-20)53-38-22(3)51-35(18-31(38)44)54-37-21(2)50-33(17-30(37)43)52-25-8-11-39(4)24(15-25)6-7-28-27(39)9-12-40(5)26(10-13-41(28,40)47)23-14-32(45)48-19-23/h14,20-22,24-31,33-38,42-44,46-47H,6-13,15-19H2,1-5H3
Instrument: Agilent 1200 RRLC; Agilent 6520 QTOF
Instrument type: LC-ESI-QTOF
Ms type: MS2
Ion mode: NEGATIVE
Collision energy: 20 ev
Column name: Agilent C8 Cartridge Column 2.1X30mm 3.5 micron (guard); Agilent SB-Aq 2.1x50mm 1.8 micron (analytical)
Retention time: 10.830
Base peak: 763
Precursor m/z: 823.4480
Precursor type: [M+CH3COOH-H]-
m/z	relative intensity
105.8941	2
111.047	4
113.7934	2
138.8302	2
153.1233	3
205.2237	2
212.805	3
230.6787	2
357.939	2
361.0787	3
366.2	5
433.5753	2
495.2316	2
503.2961	11
545.016	2
580.4368	2
633.3661	43
633.405	4
633.44	5
634.3509	2
659.2314	4
745.4171	5
763.3201	2
763.4236	999
763.5984	20
763.6519	15
763.7038	3
763.7611	10
763.9055	14
764.0035	7
764.0475	3
764.1204	11
764.1848	3
764.2286	5
764.2926	5
764.4136	21
764.4555	5
764.5164	6
764.5847	9
764.645	5
764.7106	7
764.7701	8
764.8481	6
764.934	9
764.9924	3
765.0391	3
765.1002	9
765.179	9
765.2578	5
765.2949	2
765.3389	6
765.3966	7
765.4777	5
765.5696	4
765.6102	3
765.6723	3
765.7284	4
765.796	2
765.845	3
765.8996	4
766.0421	4
766.2279	3
766.3504	2
766.4604	2
766.504	2
766.5744	3
766.6379	2
766.6888	2
766.7966	3
767.6867	3
823.3144	3
823.4456	673
