Mass spectrum: 1-(2,3-dibenzimidazol-2-ylpropyl)-2-methoxybenzene; LC-ESI-QTOF; MS2; CE 20 ev; [M+H]+
Name: 1-(2,3-dibenzimidazol-2-ylpropyl)-2-methoxybenzene
Formula: C24H22N4O
Exact mass: 382.179361
SMILES: COC1=CC=CC=C1CC(CC2=NC3=CC=CC=C3N2)C4=NC5=CC=CC=C5N4
InChI: InChI=1S/C24H22N4O/c1-29-22-13-7-2-8-16(22)14-17(24-27-20-11-5-6-12-21(20)28-24)15-23-25-18-9-3-4-10-19(18)26-23/h2-13,17H,14-15H2,1H3,(H,25,26)(H,27,28)
Instrument: Agilent 1200 RRLC; Agilent 6520 QTOF
Instrument type: LC-ESI-QTOF
Ms type: MS2
Ion mode: POSITIVE
Collision energy: 20 ev
Column name: Agilent C8 Cartridge Column 2.1X30mm 3.5 micron (guard); Agilent SB-Aq 2.1x50mm 1.8 micron (analytical)
Retention time: 6.711
Base peak: 383
Precursor m/z: 383.1867
Precursor type: [M+H]+
m/z	relative intensity
119.0595	24
121.0623	12
132.0671	12
157.0772	15
219.0895	14
233.1059	21
251.1212	17
261.1123	86
262.1214	130
265.1324	218
383.1858	999
383.2715	23
383.3209	12
383.3654	17
