Mass spectrum: Glucuronic acid; LC-ESI-QTOF; MS2; CE 10 ev; [M-H]-
Name: Glucuronic acid
Name: 3,4,5,6-tetrahydroxyoxane-2-carboxylic acid
Name: 3,4,5,6-tetrahydroxy-2H-3,4,5,6-tetrahydropyran-2-carboxylic acid
Formula: C6H10O7
Exact mass: 194.042653
SMILES: C1(C(C(OC(C1O)O)C(=O)O)O)O
InChI: InChI=1S/C6H10O7/c7-1-2(8)4(5(10)11)13-6(12)3(1)9/h1-4,6-9,12H,(H,10,11)
Instrument: Agilent 1200 RRLC; Agilent 6520 QTOF
Instrument type: LC-ESI-QTOF
Ms type: MS2
Ion mode: NEGATIVE
Collision energy: 10 ev
Column name: Agilent C8 Cartridge Column 2.1X30mm 3.5 micron (guard); Agilent SB-Aq 2.1x50mm 1.8 micron (analytical)
Retention time: 0.382
Base peak: 113
Precursor m/z: 193.0354
Precursor type: [M-H]-
m/z	relative intensity
101.0251	277
101.0489	11
103.0031	276
103.0403	23
113.024	999
113.0502	7
113.0572	23
113.0716	13
113.0877	8
113.1079	8
113.1235	16
119.0345	8
129.0206	11
130.7204	15
131.0345	276
131.073	7
131.1087	7
133.0152	53
135.7555	16
157.0144	77
163.0253	53
175.0257	39
193.0354	338
