Mass spectrum: Fisetin; LC-ESI-QTOF; MS2; CE 10 ev; [M-H]-
Name: Fisetin
Formula: C15H10O6
Exact mass: 286.047738
SMILES: C1=CC(=C(C=C1C2=C(C(=O)C3=C(O2)C=C(C=C3)O)O)O)O
InChI: InChI=1S/C15H10O6/c16-8-2-3-9-12(6-8)21-15(14(20)13(9)19)7-1-4-10(17)11(18)5-7/h1-6,16-18,20H
Instrument: Agilent 1200 RRLC; Agilent 6520 QTOF
Instrument type: LC-ESI-QTOF
Ms type: MS2
Ion mode: NEGATIVE
Collision energy: 10 ev
Column name: Agilent C8 Cartridge Column 2.1X30mm 3.5 micron (guard); Agilent SB-Aq 2.1x50mm 1.8 micron (analytical)
Retention time: 6.240
Base peak: 285
Precursor m/z: 285.0404
Precursor type: [M-H]-
m/z	relative intensity
107.2319	8
111.8295	15
121.0287	48
135.0093	125
149.0232	13
163.0029	153
164.9206	7
195.0533	6
241.0448	7
256.0337	12
257.0454	29
265.1806	7
284.0227	7
284.2659	37
284.2802	6
285.0405	999
