Mass spectrum: Cytidine; LC-ESI-QTOF; MS2; CE 20 ev; [M+H]+
Name: Cytidine
Formula: C9H13N3O5
Exact mass: 243.085521
SMILES: C1=CN(C(=O)N=C1N)C2C(C(C(O2)CO)O)O
InChI: InChI=1S/C9H13N3O5/c10-5-1-2-12(9(16)11-5)8-7(15)6(14)4(3-13)17-8/h1-2,4,6-8,13-15H,3H2,(H2,10,11,16)
Instrument: Agilent 1200 RRLC; Agilent 6520 QTOF
Instrument type: LC-ESI-QTOF
Ms type: MS2
Ion mode: POSITIVE
Collision energy: 20 ev
Column name: Agilent C8 Cartridge Column 2.1X30mm 3.5 micron (guard); Agilent SB-Aq 2.1x50mm 1.8 micron (analytical)
Retention time: 0.390
Base peak: 112
Precursor m/z: 244.0928
Precursor type: [M+H]+
m/z	relative intensity
112.0504	999
112.0806	31
112.099	18
112.1236	8
112.1483	16
112.1824	2
112.1986	2
112.2301	1
112.2663	1
112.2959	1
112.3289	3
112.3412	2
112.356	1
112.3706	1
112.3861	2
112.3975	1
112.4137	3
112.4427	2
112.4607	2
112.4822	1
112.5	1
112.5274	1
112.5431	1
112.5576	1
112.5805	1
112.6108	1
112.6753	1
112.6851	2
112.7225	1
112.7443	1
112.8412	1
112.9954	1
113.0534	2
113.1043	1
115.0393	2
