Mass spectrum: 8-Chlro-1-tetrahydronorharmanone; LC-APCI-QTOF; MS; POSITIVE
Name: 8-Chlro-1-tetrahydronorharmanone
Formula: C11H9ClN2O
Exact mass: 220.040341
SMILES: C1CNC(=O)C2=C1C3=C(N2)C(=CC=C3)Cl
InChI: InChI=1S/C11H9ClN2O/c12-8-3-1-2-6-7-4-5-13-11(15)10(7)14-9(6)8/h1-3,14H,4-5H2,(H,13,15)
Instrument: Agilent 1200 RRLC; Agilent 6520 QTOF
Instrument type: LC-APCI-QTOF
Ms type: MS
Ion mode: POSITIVE
Column name: Agilent C8 Cartridge Column 2.1X30mm 3.5 micron (guard); Agilent SB-Aq 2.1x50mm 1.8 micron (analytical)
Retention time: 7.137
m/z	relative intensity
221.0475765	999
