Mass spectrum: Cytisine; LC-ESI-QTOF; MS2; CE 40 ev; [M+H]+
Name: Cytisine
Formula: C11H14N2O
Exact mass: 190.110613
SMILES: C1[C@H]2CNC[C@@H]1C3=CC=CC(=O)N3C2
InChI: InChI=1S/C11H14N2O/c14-11-3-1-2-10-9-4-8(5-12-6-9)7-13(10)11/h1-3,8-9,12H,4-7H2/t8-,9+/m0/s1
Instrument: Agilent 1200 RRLC; Agilent 6520 QTOF
Instrument type: LC-ESI-QTOF
Ms type: MS2
Ion mode: POSITIVE
Collision energy: 40 ev
Column name: Agilent C8 Cartridge Column 2.1X30mm 3.5 micron (guard); Agilent SB-Aq 2.1x50mm 1.8 micron (analytical)
Retention time: 0.384
Base peak: 148
Precursor m/z: 191.1179
Precursor type: [M+H]+
m/z	relative intensity
102.0502	22
103.0534	577
104.0475	575
105.0574	476
105.0852	23
106.0649	400
107.0513	35
108.0453	94
109.0535	65
115.055	248
116.0466	84
116.0591	22
117.0592	219
117.075	34
118.0642	231
119.0691	34
120.0473	27
120.0815	373
122.0567	73
127.0511	121
127.0672	24
128.0505	54
129.0685	23
130.0658	313
131.0803	25
132.0479	54
132.0802	72
133.0514	622
133.0813	25
134.0587	311
134.0956	99
142.0647	42
143.0718	107
144.0797	62
146.0593	585
146.0958	43
147.0649	136
148.075	999
148.119	31
160.0766	25
162.0912	55
