Mass spectrum: 5-(6-acetyloxy-3,5,7-trimethoxy-4-oxochromen-2-yl)-2-methoxyphenyl acetate; LC-ESI-QTOF; MS2; CE 40 ev; [M+H]+
Name: 5-(6-acetyloxy-3,5,7-trimethoxy-4-oxochromen-2-yl)-2-methoxyphenyl acetate
Formula: C23H22O10
Exact mass: 458.121297
SMILES: CC(=O)OC1=C(C=CC(=C1)C2=C(C(=O)C3=C(C(=C(C=C3O2)OC)OC(=O)C)OC)OC)OC
InChI: InChI=1S/C23H22O10/c1-11(24)31-15-9-13(7-8-14(15)27-3)20-23(30-6)19(26)18-16(33-20)10-17(28-4)21(22(18)29-5)32-12(2)25/h7-10H,1-6H3
Instrument: Agilent 1200 RRLC; Agilent 6520 QTOF
Instrument type: LC-ESI-QTOF
Ms type: MS2
Ion mode: POSITIVE
Collision energy: 40 ev
Column name: Agilent C8 Cartridge Column 2.1X30mm 3.5 micron (guard); Agilent SB-Aq 2.1x50mm 1.8 micron (analytical)
Retention time: 9.204
Base peak: 375
Precursor m/z: 459.1286
Precursor type: [M+H]+
m/z	relative intensity
167.048	40
183.0245	56
271.0621	125
274.0434	45
284.0673	89
285.0748	51
289.0746	45
297.0808	49
299.0562	385
311.049	216
312.0549	74
313.0615	73
314.0582	38
314.0761	283
314.1056	54
317.0654	826
325.0681	116
327.0438	116
329.0633	45
330.0476	45
331.079	38
341.0662	243
342.0728	856
343.0863	60
345.0595	737
359.075	454
360.0842	467
360.1249	53
375.1065	999
375.1435	44
375.1693	53
