Mass spectrum: Amorphigenin; LC-ESI-QTOF; MS2; CE 10 ev; [M+H]+
Name: Amorphigenin
Formula: C23H22O7
Exact mass: 410.136553
SMILES: COC1=C(C=C2C(=C1)[C@H]3[C@@H](CO2)OC4=C(C3=O)C=CC5=C4C[C@@H](O5)C(=C)CO)OC
InChI: InChI=1S/C23H22O7/c1-11(9-24)16-7-14-15(29-16)5-4-12-22(25)21-13-6-18(26-2)19(27-3)8-17(13)28-10-20(21)30-23(12)14/h4-6,8,16,20-21,24H,1,7,9-10H2,2-3H3/t16-,20-,21+/m1/s1
Instrument: Agilent 1200 RRLC; Agilent 6520 QTOF
Instrument type: LC-ESI-QTOF
Ms type: MS2
Ion mode: POSITIVE
Collision energy: 10 ev
Column name: Agilent C8 Cartridge Column 2.1X30mm 3.5 micron (guard); Agilent SB-Aq 2.1x50mm 1.8 micron (analytical)
Retention time: 8.015
Base peak: 411
Precursor m/z: 411.1439
Precursor type: [M+H]+
m/z	relative intensity
165.0957	20
179.0731	90
187.0682	36
187.0802	27
191.0665	24
192.0784	118
201.0826	22
205.0823	39
219.065	30
229.0828	92
257.08	67
313.1112	31
383.1345	26
411.1428	999
