Mass spectrum: Santonin; LC-ESI-QTOF; MS2; CE 20 ev; [M+H]+
Name: Santonin
Formula: C15H18O3
Exact mass: 246.125594
SMILES: CC1C2CCC3(C=CC(=O)C(=C3C2OC1=O)C)C
InChI: InChI=1S/C15H18O3/c1-8-10-4-6-15(3)7-5-11(16)9(2)12(15)13(10)18-14(8)17/h5,7-8,10,13H,4,6H2,1-3H3
Instrument: Agilent 1200 RRLC; Agilent 6520 QTOF
Instrument type: LC-ESI-QTOF
Ms type: MS2
Ion mode: POSITIVE
Collision energy: 20 ev
Column name: Agilent C8 Cartridge Column 2.1X30mm 3.5 micron (guard); Agilent SB-Aq 2.1x50mm 1.8 micron (analytical)
Retention time: 6.741
Base peak: 173
Precursor m/z: 247.1329
Precursor type: [M+H]+
m/z	relative intensity
105.0686	35
115.0542	29
117.0676	45
135.0792	343
143.0837	32
145.0993	309
155.0848	108
158.0722	168
159.079	29
160.0864	27
161.0929	58
172.0883	36
173.0955	999
173.1268	62
174.1007	47
183.1121	33
186.1013	76
201.1248	169
