Mass spectrum: Reserpiline; LC-ESI-QTOF; MS2; CE 20 ev; [M-H]-
Name: Reserpiline
Formula: C22H26N2O4
Exact mass: 382.189257
SMILES: CC1C2CN3CCC4=C(C3CC2C(=CO1)C(=O)OC)NC5=C4C=CC(=C5)OC
InChI: InChI=1S/C22H26N2O4/c1-12-17-10-24-7-6-15-14-5-4-13(26-2)8-19(14)23-21(15)20(24)9-16(17)18(11-28-12)22(25)27-3/h4-5,8,11-12,16-17,20,23H,6-7,9-10H2,1-3H3
Instrument: Agilent 1200 RRLC; Agilent 6520 QTOF
Instrument type: LC-ESI-QTOF
Ms type: MS2
Ion mode: NEGATIVE
Collision energy: 20 ev
Column name: Agilent C8 Cartridge Column 2.1X30mm 3.5 micron (guard); Agilent SB-Aq 2.1x50mm 1.8 micron (analytical)
Retention time: 5.606
Base peak: 366
Precursor m/z: 381.1820
Precursor type: [M-H]-
m/z	relative intensity
101.0278	16
112.0146	9
115.9486	13
127.0387	41
183.0558	8
210.8703	12
213.0966	11
217.001	165
241.1306	13
306.1494	22
321.1564	30
321.1755	8
332.0875	10
332.1162	10
334.1283	9
349.1541	34
366.158	999
366.2101	36
366.2433	19
366.2751	14
366.3145	19
366.3942	14
366.5301	8
366.6269	10
366.6857	11
366.8226	11
381.1804	934
