Mass spectrum: Protopine; LC-ESI-QTOF; MS2; CE 40 ev; [M+H]+
Name: Protopine
Formula: C20H19NO5
Exact mass: 353.126323
SMILES: CN1CCC2=CC3=C(C=C2C(=O)CC4=C(C1)C5=C(C=C4)OCO5)OCO3
InChI: InChI=1S/C20H19NO5/c1-21-5-4-13-7-18-19(25-10-24-18)8-14(13)16(22)6-12-2-3-17-20(15(12)9-21)26-11-23-17/h2-3,7-8H,4-6,9-11H2,1H3
Instrument: Agilent 1200 RRLC; Agilent 6520 QTOF
Instrument type: LC-ESI-QTOF
Ms type: MS2
Ion mode: POSITIVE
Collision energy: 40 ev
Column name: Agilent C8 Cartridge Column 2.1X30mm 3.5 micron (guard); Agilent SB-Aq 2.1x50mm 1.8 micron (analytical)
Retention time: 4.379
Base peak: 188
Precursor m/z: 354.1336
Precursor type: [M+H]+
m/z	relative intensity
103.0501	53
107.0474	124
119.0476	141
130.0632	41
131.0425	89
131.0697	106
135.0429	149
146.0562	26
147.0451	96
149.0593	423
158.0637	30
159.0674	152
160.0761	130
165.0514	32
165.0675	28
167.085	54
173.0539	34
175.0353	62
177.0747	54
178.0811	30
179.0863	58
188.07	999
189.0761	966
189.1122	41
190.0876	47
195.0799	89
205.0573	42
206.0779	97
207.0784	193
209.0638	87
217.0706	181
219.079	74
233.0861	28
235.0767	85
235.0894	43
237.0486	34
237.0961	59
247.0756	172
265.0793	39
275.0724	171
293.0966	35
320.0838	55
320.1046	34
321.0988	28
334.1045	43
354.1332	29
