Mass spectrum: N2-Isobutyryl-2'-deoxyguanosine; LC-ESI-QTOF; MS2; CE 20 ev; [M-H]-
Name: N2-Isobutyryl-2'-deoxyguanosine
Formula: C14H19N5O5
Exact mass: 337.138619
SMILES: CC(C)C(=O)NC1=NC(=O)C2=C(N1)N(C=N2)[C@H]3C[C@@H]([C@H](O3)CO)O
InChI: InChI=1S/C14H19N5O5/c1-6(2)12(22)17-14-16-11-10(13(23)18-14)15-5-19(11)9-3-7(21)8(4-20)24-9/h5-9,20-21H,3-4H2,1-2H3,(H2,16,17,18,22,23)/t7-,8+,9+/m0/s1
Instrument: Agilent 1200 RRLC; Agilent 6520 QTOF
Instrument type: LC-ESI-QTOF
Ms type: MS2
Ion mode: NEGATIVE
Collision energy: 20 ev
Column name: Agilent C8 Cartridge Column 2.1X30mm 3.5 micron (guard); Agilent SB-Aq 2.1x50mm 1.8 micron (analytical)
Retention time: 4.289
Base peak: 266
Precursor m/z: 336.1313
Precursor type: [M-H]-
m/z	relative intensity
107.0379	12
108.0204	8
111.0572	3
132.0282	3
133.015	30
150.0417	535
150.0769	21
150.0972	5
150.1228	3
150.1545	7
150.2503	2
150.4054	2
176.0563	46
191.0141	2
220.0847	113
220.1234	3
220.1544	2
220.1865	2
220.2173	2
223.0798	12
236.0818	2
246.0959	5
248.0795	7
266.0892	999
266.1269	4
266.1849	6
266.206	5
266.2412	13
266.2876	6
266.3141	2
266.3412	3
266.3608	2
266.3933	3
266.4129	4
266.4454	2
266.482	3
266.5151	3
266.5741	6
266.6173	4
266.6661	6
266.713	3
266.7665	4
266.8035	3
266.819	2
266.8769	2
266.9565	2
266.989	2
267.0376	3
267.0717	3
267.1103	3
267.1505	4
267.1732	2
267.2561	2
267.3075	2
267.3421	2
267.4356	2
267.4702	2
267.5875	2
336.1313	239
