Mass spectrum: Quinine; LC-ESI-QTOF; MS2; CE 40 ev; [M+H]+
Name: Quinine
Formula: C20H24N2O2
Exact mass: 324.183778
SMILES: COC1=CC2=C(C=CN=C2C=C1)C(C3CC4CCN3CC4C=C)O
InChI: InChI=1S/C20H24N2O2/c1-3-13-12-22-9-7-14(13)10-19(22)20(23)16-6-8-21-18-5-4-15(24-2)11-17(16)18/h3-6,8,11,13-14,19-20,23H,1,7,9-10,12H2,2H3
Instrument: Agilent 1200 RRLC; Agilent 6520 QTOF
Instrument type: LC-ESI-QTOF
Ms type: MS2
Ion mode: POSITIVE
Collision energy: 40 ev
Column name: Agilent C8 Cartridge Column 2.1X30mm 3.5 micron (guard); Agilent SB-Aq 2.1x50mm 1.8 micron (analytical)
Retention time: 5.289
Base peak: 172
Precursor m/z: 325.1911
Precursor type: [M+H]+
m/z	relative intensity
105.0687	94
106.0638	116
108.0835	134
110.0918	228
117.0544	237
122.0901	130
134.0947	179
136.1079	130
143.0777	116
144.0825	112
154.063	179
158.0566	197
160.0746	641
168.0841	94
170.055	112
171.0653	233
172.0757	999
173.0785	251
174.0894	143
182.0621	166
183.0675	224
184.0746	305
186.0882	296
196.0727	139
197.0718	108
202.0862	121
205.0834	139
210.0895	358
211.0898	99
234.0898	103
236.1041	103
237.105	130
250.1113	134
253.1303	99
264.1305	125
