Mass spectrum: 2-(6-amino-8-sulfanylpurin-9-yl)-5-(hydroxymethyl)oxolane-3,4-diol; LC-ESI-QTOF; MS2; CE 10 ev; [M+H]+
Name: 2-(6-amino-8-sulfanylpurin-9-yl)-5-(hydroxymethyl)oxolane-3,4-diol
Formula: C10H13N5O4S
Exact mass: 299.068825
SMILES: C1=NC2=C(C(=N1)N)NC(=S)N2C3C(C(C(O3)CO)O)O
InChI: InChI=1S/C10H13N5O4S/c11-7-4-8(13-2-12-7)15(10(20)14-4)9-6(18)5(17)3(1-16)19-9/h2-3,5-6,9,16-18H,1H2,(H,14,20)(H2,11,12,13)
Instrument: Agilent 1200 RRLC; Agilent 6520 QTOF
Instrument type: LC-ESI-QTOF
Ms type: MS2
Ion mode: POSITIVE
Collision energy: 10 ev
Column name: Agilent C8 Cartridge Column 2.1X30mm 3.5 micron (guard); Agilent SB-Aq 2.1x50mm 1.8 micron (analytical)
Retention time: 2.439
Base peak: 168
Precursor m/z: 300.0761
Precursor type: [M+H]+
m/z	relative intensity
168.0335	999
168.0727	59
300.0747	75
