Mass spectrum: 1,2,9,10-tetramethoxy-6-methyl-5,6-dihydro-4H-dibenzo[de,g]quinoline-7-carbaldehyde; LC-ESI-QTOF; MS2; CE 40 ev; [M+H]+
Name: 1,2,9,10-tetramethoxy-6-methyl-5,6-dihydro-4H-dibenzo[de,g]quinoline-7-carbaldehyde
Formula: C22H23NO5
Exact mass: 381.157623
SMILES: CN1CCC2=CC(=C(C3=C2C1=C(C4=CC(=C(C=C43)OC)OC)C=O)OC)OC
InChI: InChI=1S/C22H23NO5/c1-23-7-6-12-8-18(27-4)22(28-5)20-14-10-17(26-3)16(25-2)9-13(14)15(11-24)21(23)19(12)20/h8-11H,6-7H2,1-5H3
Instrument: Agilent 1200 RRLC; Agilent 6520 QTOF
Instrument type: LC-ESI-QTOF
Ms type: MS2
Ion mode: POSITIVE
Collision energy: 40 ev
Column name: Agilent C8 Cartridge Column 2.1X30mm 3.5 micron (guard); Agilent SB-Aq 2.1x50mm 1.8 micron (analytical)
Retention time: 9.329
Base peak: 352
Precursor m/z: 382.1649
Precursor type: [M+H]+
m/z	relative intensity
191.0864	32
210.0888	49
218.0952	46
220.0766	35
221.0901	49
224.1	31
237.1052	52
238.0856	127
247.0639	34
247.1016	37
248.0657	43
248.0782	38
248.1024	49
249.0751	55
250.083	189
250.1268	40
251.087	116
252.0973	205
253.1028	47
259.1005	70
260.1036	44
262.0926	46
263.098	108
264.0636	34
264.0988	251
265.0701	110
265.1093	490
265.1462	32
266.0787	249
266.1152	55
274.0869	53
275.0921	73
276.0643	67
276.1049	81
277.0841	49
277.1067	121
278.0781	315
278.1022	162
279.0862	72
279.1195	96
280.0935	472
280.1159	64
280.1339	154
281.1009	196
288.1	60
289.1044	63
290.0732	84
290.1095	160
291.0838	234
291.1209	92
292.0934	261
292.1412	31
293.0611	35
293.1011	719
293.1457	35
294.0703	163
294.0862	119
294.1155	92
295.1198	244
295.1302	58
296.1235	246
306.0738	72
306.1068	252
307.1165	215
308.0929	744
308.1259	260
308.1591	41
309.0957	351
309.1474	47
310.1318	32
318.1074	112
319.0907	78
319.1142	82
320.0897	79
320.1326	57
321.0934	229
322.0898	61
322.1092	115
322.1365	50
323.1109	263
323.1507	32
324.1205	474
324.1443	41
333.1301	157
334.107	125
334.1369	50
336.0823	35
336.1216	192
337.0932	127
338.1365	113
348.1141	31
351.1012	38
352.1149	999
352.1409	60
352.1687	43
353.1521	46
366.1313	75
367.1382	87
