Mass spectrum: Orobole 7-O-Glucoside, Acetate; LC-ESI-QTOF; MS2; CE 20 ev; [M+H]+
Name: Orobole 7-O-Glucoside, Acetate
Formula: C35H34O18
Exact mass: 742.174514
SMILES: CC(=O)OCC1C(C(C(C(O1)OC2=CC(=C3C(=C2)OC=C(C3=O)C4=CC(=C(C=C4)OC(=O)C)OC(=O)C)OC(=O)C)OC(=O)C)OC(=O)C)OC(=O)C
InChI: InChI=1S/C35H34O18/c1-15(36)44-14-29-32(49-19(5)40)33(50-20(6)41)34(51-21(7)42)35(53-29)52-23-11-27-30(28(12-23)48-18(4)39)31(43)24(13-45-27)22-8-9-25(46-16(2)37)26(10-22)47-17(3)38/h8-13,29,32-35H,14H2,1-7H3
Instrument: Agilent 1200 RRLC; Agilent 6520 QTOF
Instrument type: LC-ESI-QTOF
Ms type: MS2
Ion mode: POSITIVE
Collision energy: 20 ev
Column name: Agilent C8 Cartridge Column 2.1X30mm 3.5 micron (guard); Agilent SB-Aq 2.1x50mm 1.8 micron (analytical)
Retention time: 9.558
Base peak: 329
Precursor m/z: 743.1818
Precursor type: [M+H]+
m/z	relative intensity
109.0274	711
127.0362	50
139.0415	50
169.0483	528
211.0619	53
329.0655	999
329.1208	40
331.0991	67
371.077	433
371.112	41
371.152	29
701.1828	32
