Mass spectrum: N-Allyladenosine; LC-ESI-QTOF; MS2; CE 40 ev; [M-H]-
Name: N-Allyladenosine
Formula: C13H17N5O4
Exact mass: 307.128054
SMILES: C=CCNC1=NC=NC2=C1N=CN2C3C(C(C(O3)CO)O)O
InChI: InChI=1S/C13H17N5O4/c1-2-3-14-11-8-12(16-5-15-11)18(6-17-8)13-10(21)9(20)7(4-19)22-13/h2,5-7,9-10,13,19-21H,1,3-4H2,(H,14,15,16)
Instrument: Agilent 1200 RRLC; Agilent 6520 QTOF
Instrument type: LC-ESI-QTOF
Ms type: MS2
Ion mode: NEGATIVE
Collision energy: 40 ev
Column name: Agilent C8 Cartridge Column 2.1X30mm 3.5 micron (guard); Agilent SB-Aq 2.1x50mm 1.8 micron (analytical)
Retention time: 3.800
Base peak: 133
Precursor m/z: 306.1208
Precursor type: [M-H]-
m/z	relative intensity
106.0288	131
107.8135	20
117.0209	16
119.0347	21
132.0317	57
132.0412	21
132.0523	16
133.0385	999
133.0716	32
134.0473	15
147.0665	59
158.044	20
169.5972	20
174.0767	242
630.8589	17
700.591	20
