Mass spectrum: 1,7,7-trimethylbicyclo[2.2.1]hept-2-yl 4-hydroxy-3-methoxybenzoate; LC-ESI-QTOF; MS2; CE 20 ev; [M-H]-
Name: 1,7,7-trimethylbicyclo[2.2.1]hept-2-yl 4-hydroxy-3-methoxybenzoate
Formula: C18H24O4
Exact mass: 304.167459
SMILES: CC1(C2CCC1(C(C2)OC(=O)C3=CC(=C(C=C3)O)OC)C)C
InChI: InChI=1S/C18H24O4/c1-17(2)12-7-8-18(17,3)15(10-12)22-16(20)11-5-6-13(19)14(9-11)21-4/h5-6,9,12,15,19H,7-8,10H2,1-4H3
Instrument: Agilent 1200 RRLC; Agilent 6520 QTOF
Instrument type: LC-ESI-QTOF
Ms type: MS2
Ion mode: NEGATIVE
Collision energy: 20 ev
Column name: Agilent C8 Cartridge Column 2.1X30mm 3.5 micron (guard); Agilent SB-Aq 2.1x50mm 1.8 micron (analytical)
Retention time: 10.281
Base peak: 303
Precursor m/z: 303.1602
Precursor type: [M-H]-
m/z	relative intensity
107.0145	54
119.0353	4
122.0389	6
135.7203	4
151.0031	73
151.0421	3
153.1269	5
166.0275	7
167.0355	5
186.7243	3
219.5073	3
261.1379	3
261.154	3
287.9212	3
288.1358	756
288.1814	24
288.2186	8
288.2532	7
288.291	9
288.3292	4
288.3562	2
288.4136	4
288.499	4
288.5339	3
288.5682	2
288.6477	5
288.7034	5
288.7692	5
288.8102	2
288.8616	3
288.9028	2
289.0683	4
289.1254	3
291.2839	2
293.6414	2
293.8393	3
297.0669	4
303.1152	3
303.1591	999
