Mass spectrum: Rhein; LC-ESI-QTOF; MS2; CE 40 ev; [M-H]-
Name: Rhein
Formula: C15H8O6
Exact mass: 284.032088
SMILES: C1=CC2=C(C(=C1)O)C(=O)C3=C(C=C(C=C3C2=O)C(=O)O)O
InChI: InChI=1S/C15H8O6/c16-9-3-1-2-7-11(9)14(19)12-8(13(7)18)4-6(15(20)21)5-10(12)17/h1-5,16-17H,(H,20,21)
Instrument: Agilent 1200 RRLC; Agilent 6520 QTOF
Instrument type: LC-ESI-QTOF
Ms type: MS2
Ion mode: NEGATIVE
Collision energy: 40 ev
Column name: Agilent C8 Cartridge Column 2.1X30mm 3.5 micron (guard); Agilent SB-Aq 2.1x50mm 1.8 micron (analytical)
Retention time: 8.552
Base peak: 183
Precursor m/z: 283.0248
Precursor type: [M-H]-
m/z	relative intensity
127.0523	9
137.0383	31
139.0557	22
154.0383	32
155.0399	7
155.05	43
165.0345	91
167.0528	65
182.037	99
183.0444	999
183.0742	10
183.1121	10
183.1341	5
183.1475	9
183.1696	12
183.1913	6
183.2315	6
183.4946	6
193.0325	9
201.0663	6
209.019	6
210.0328	41
211.0386	274
211.0836	11
239.0334	50
