Mass spectrum: Vitexin-2-rhamnoside; LC-ESI-QTOF; MS2; CE 20 ev; [M-H]-
Name: Vitexin-2-rhamnoside
Name: 2-O-Rhamnosylvitexin
Formula: C27H30O14
Exact mass: 578.163556
SMILES: C[C@H]1[C@@H]([C@H]([C@H]([C@@H](O1)O[C@@H]2[C@H]([C@@H]([C@H](O[C@H]2C3=C(C=C(C4=C3OC(=CC4=O)C5=CC=C(C=C5)O)O)O)CO)O)O)O)O)O
InChI: InChI=1S/C27H30O14/c1-9-19(33)21(35)23(37)27(38-9)41-26-22(36)20(34)16(8-28)40-25(26)18-13(31)6-12(30)17-14(32)7-15(39-24(17)18)10-2-4-11(29)5-3-10/h2-7,9,16,19-23,25-31,33-37H,8H2,1H3/t9-,16+,19-,20+,21+,22-,23+,25-,26+,27-/m0/s1
Instrument: Agilent 1200 RRLC; Agilent 6520 QTOF
Instrument type: LC-ESI-QTOF
Ms type: MS2
Ion mode: NEGATIVE
Collision energy: 20 ev
Column name: Agilent C8 Cartridge Column 2.1X30mm 3.5 micron (guard); Agilent SB-Aq 2.1x50mm 1.8 micron (analytical)
Retention time: 5.149
Base peak: 413
Precursor m/z: 577.1563
Precursor type: [M-H]-
m/z	relative intensity
101.0195	6
117.0323	7
119.0407	4
135.1085	5
156.6654	9
175.0028	4
203.9199	5
269.0491	7
269.6952	5
293.0454	278
293.1017	12
293.1311	9
306.0708	4
311.055	65
311.0963	5
322.9799	4
323.0519	11
323.4594	4
335.3536	4
341.066	14
412.9937	5
413.0866	999
413.1454	19
413.1858	4
413.2245	13
413.2708	14
413.3188	4
413.3615	6
413.3997	7
413.5031	6
413.5701	5
413.6447	13
413.6941	10
413.7658	4
413.7867	4
413.8134	4
413.8558	5
413.9544	5
414.0151	6
414.0747	8
414.104	6
414.2489	4
414.3792	4
414.528	4
431.1006	13
454.3589	4
457.1103	81
457.1758	9
544.4991	4
566.8734	5
575.6253	4
577.1548	982
