Mass spectrum: Acacetin; LC-ESI-QTOF; MS2; CE 40 ev; [M-H]-
Name: Acacetin
Formula: C16H12O5
Exact mass: 284.068473
SMILES: COC1=CC=C(C=C1)C2=CC(=O)C3=C(C=C(C=C3O2)O)O
InChI: InChI=1S/C16H12O5/c1-20-11-4-2-9(3-5-11)14-8-13(19)16-12(18)6-10(17)7-15(16)21-14/h2-8,17-18H,1H3
Instrument: Agilent 1200 RRLC; Agilent 6520 QTOF
Instrument type: LC-ESI-QTOF
Ms type: MS2
Ion mode: NEGATIVE
Collision energy: 40 ev
Column name: Agilent C8 Cartridge Column 2.1X30mm 3.5 micron (guard); Agilent SB-Aq 2.1x50mm 1.8 micron (analytical)
Retention time: 8.982
Base peak: 268
Precursor m/z: 283.0612
Precursor type: [M-H]-
m/z	relative intensity
104.0237	7
106.0064	7
107.0141	382
107.0414	10
107.0846	5
116.0252	11
117.0343	97
117.0665	5
119.0342	5
120.0202	32
121.0259	7
121.9992	32
123.0106	22
130.038	6
130.0452	18
132.0226	9
141.0365	11
142.0421	10
143.0494	24
147.009	13
148.0176	51
149.9961	76
151.0042	273
151.0458	10
154.0399	19
155.0487	34
156.058	39
158.0374	44
166.04	13
167.049	103
168.0575	27
170.0399	16
171.0444	112
172.0532	107
172.0823	6
180.0569	6
182.039	10
183.0463	72
184.0518	90
186.0299	12
194.0385	6
195.0452	87
195.0577	5
196.0501	71
196.0973	6
197.0236	22
198.0309	22
199.0409	39
200.0454	55
210.0273	14
210.0506	5
211.0391	546
211.0867	19
211.1143	5
211.1719	7
212.0467	71
213.0143	8
222.0335	7
223.0427	19
224.0476	16
227.0347	23
238.9991	5
239.0347	426
239.0856	19
239.1168	7
239.1726	6
240.0423	330
240.0798	17
240.1109	7
240.1908	6
251.041	6
267.0294	221
267.0901	8
268.0374	999
268.09	45
268.1277	9
268.1477	7
268.1876	12
268.2649	9
268.3904	6
268.4994	6
268.6822	6
