Mass spectrum: trans-Zeatin-riboside; LC-ESI-QTOF; MS2; CE 20 ev; [M-H]-
Name: trans-Zeatin-riboside
Formula: C15H21N5O5
Exact mass: 351.154269
SMILES: CC(=CCNC1=NC=NC2=C1N=CN2C3C(C(C(O3)CO)O)O)CO
InChI: InChI=1S/C15H21N5O5/c1-8(4-21)2-3-16-13-10-14(18-6-17-13)20(7-19-10)15-12(24)11(23)9(5-22)25-15/h2,6-7,9,11-12,15,21-24H,3-5H2,1H3,(H,16,17,18)
Instrument: Agilent 1200 RRLC; Agilent 6520 QTOF
Instrument type: LC-ESI-QTOF
Ms type: MS2
Ion mode: NEGATIVE
Collision energy: 20 ev
Column name: Agilent C8 Cartridge Column 2.1X30mm 3.5 micron (guard); Agilent SB-Aq 2.1x50mm 1.8 micron (analytical)
Retention time: 3.962
Base peak: 218
Precursor m/z: 350.1470
Precursor type: [M-H]-
m/z	relative intensity
103.036	35
133.0019	38
134.0473	335
159.7322	72
165.123	35
185.9909	35
188.0939	51
192.5931	29
200.0964	79
218.1045	999
218.1428	71
225.4466	34
266.0868	274
283.1892	24
331.7588	26
350.134	64
