Mass spectrum: 4'-Hydroxy-5,7-dimethoxyflavanone; LC-ESI-QTOF; MS2; CE 20 ev; [M-H]-
Name: 4'-Hydroxy-5,7-dimethoxyflavanone
Formula: C17H16O5
Exact mass: 300.099774
SMILES: COC1=CC(=C2C(=O)CC(OC2=C1)C3=CC=C(C=C3)O)OC
InChI: InChI=1S/C17H16O5/c1-20-12-7-15(21-2)17-13(19)9-14(22-16(17)8-12)10-3-5-11(18)6-4-10/h3-8,14,18H,9H2,1-2H3
Instrument: Agilent 1200 RRLC; Agilent 6520 QTOF
Instrument type: LC-ESI-QTOF
Ms type: MS2
Ion mode: NEGATIVE
Collision energy: 20 ev
Column name: Agilent C8 Cartridge Column 2.1X30mm 3.5 micron (guard); Agilent SB-Aq 2.1x50mm 1.8 micron (analytical)
Retention time: 7.515
Base peak: 119
Precursor m/z: 299.0925
Precursor type: [M-H]-
m/z	relative intensity
119.0502	999
119.083	27
119.0995	10
119.1244	4
119.1514	15
119.1776	2
119.2015	4
119.2193	1
119.2408	3
119.2535	1
119.2813	4
119.3066	2
119.3324	3
119.3689	1
119.3811	1
119.4076	1
119.4313	3
119.4622	1
119.4834	1
119.4996	1
119.512	1
119.5314	1
119.5576	2
119.5811	3
119.6022	2
119.6224	1
119.6407	2
119.6657	1
119.6793	1
119.6981	2
119.722	1
119.7402	1
119.7632	1
119.8237	1
119.8452	1
119.8783	2
119.8994	2
119.9142	1
119.9321	1
119.9955	1
120.0136	1
120.0603	1
120.0874	1
120.247	1
120.2633	1
120.5912	1
120.663	1
120.7142	1
121.0375	1
122.1192	1
132.5288	1
145.0296	6
152.0195	1
156.9782	2
165.0175	2
173.0184	2
176.7995	1
178.0295	2
191.0344	1
216.9945	3
217.0095	4
224.0532	1
225.0562	2
241.0419	1
258.0047	1
258.4872	1
264.0317	1
267.0743	1
281.0695	1
283.0587	1
284.0666	3
299.0919	24
