Mass spectrum: (-)-N-Formylcytisine; LC-ESI-QTOF; MS; POSITIVE
Name: (-)-N-Formylcytisine
Formula: C12H14N2O2
Exact mass: 218.105528
SMILES: C1[C@H]2CN(C[C@@H]1C3=CC=CC(=O)N3C2)C=O
InChI: InChI=1S/C12H14N2O2/c15-8-13-5-9-4-10(7-13)11-2-1-3-12(16)14(11)6-9/h1-3,8-10H,4-7H2/t9-,10+/m0/s1
Instrument: Agilent 1200 RRLC; Agilent 6520 QTOF
Instrument type: LC-ESI-QTOF
Ms type: MS
Ion mode: POSITIVE
Column name: Agilent C8 Cartridge Column 2.1X30mm 3.5 micron (guard); Agilent SB-Aq 2.1x50mm 1.8 micron (analytical)
Retention time: 2.828
m/z	relative intensity
219.1127765	999
241.094718	98
