Mass spectrum: Ephedrine; LC-ESI-QTOF; MS; POSITIVE
Name: Ephedrine
Formula: C10H15NO
Exact mass: 165.115364
SMILES: CC(C(C1=CC=CC=C1)O)NC
InChI: InChI=1S/C10H15NO/c1-8(11-2)10(12)9-6-4-3-5-7-9/h3-8,10-12H,1-2H3
Instrument: Agilent 1200 RRLC; Agilent 6520 QTOF
Instrument type: LC-ESI-QTOF
Ms type: MS
Ion mode: POSITIVE
Column name: Agilent C8 Cartridge Column 2.1X30mm 3.5 micron (guard); Agilent SB-Aq 2.1x50mm 1.8 micron (analytical)
Retention time: 0.460
m/z	relative intensity
166.1226765	999
188.104618	1
