Mass spectrum: Skimmianine; LC-APCI-QTOF; MS; POSITIVE
Name: Skimmianine
Formula: C14H13NO4
Exact mass: 259.084458
SMILES: COC1=C(C2=C(C=C1)C(=C3C=COC3=N2)OC)OC
InChI: InChI=1S/C14H13NO4/c1-16-10-5-4-8-11(13(10)18-3)15-14-9(6-7-19-14)12(8)17-2/h4-7H,1-3H3
Instrument: Agilent 1200 RRLC; Agilent 6520 QTOF
Instrument type: LC-APCI-QTOF
Ms type: MS
Ion mode: POSITIVE
Column name: Agilent C8 Cartridge Column 2.1X30mm 3.5 micron (guard); Agilent SB-Aq 2.1x50mm 1.8 micron (analytical)
Retention time: 7.770
m/z	relative intensity
260.0917765	999
