Mass spectrum: Camptothecin; LC-ESI-QTOF; MS2; CE 20 ev; [M+H]+
Name: Camptothecin
Formula: C20H16N2O4
Exact mass: 348.111007
SMILES: CCC1(C2=C(COC1=O)C(=O)N3CC4=CC5=CC=CC=C5N=C4C3=C2)O
InChI: InChI=1S/C20H16N2O4/c1-2-20(25)14-8-16-17-12(7-11-5-3-4-6-15(11)21-17)9-22(16)18(23)13(14)10-26-19(20)24/h3-8,25H,2,9-10H2,1H3
Instrument: Agilent 1200 RRLC; Agilent 6520 QTOF
Instrument type: LC-ESI-QTOF
Ms type: MS2
Ion mode: POSITIVE
Collision energy: 20 ev
Column name: Agilent C8 Cartridge Column 2.1X30mm 3.5 micron (guard); Agilent SB-Aq 2.1x50mm 1.8 micron (analytical)
Retention time: 7.573
Base peak: 305
Precursor m/z: 349.1183
Precursor type: [M+H]+
m/z	relative intensity
195.0871	26
205.07	36
219.0932	36
220.1004	88
221.1058	52
247.0833	31
248.0946	120
249.0993	109
276.095	37
277.1287	67
303.1106	47
305.1269	999
305.1912	58
320.082	67
349.1157	666
