Mass spectrum: Chrysin; LC-ESI-QTOF; MS2; CE 20 ev; [M-H]-
Name: Chrysin
Formula: C15H10O4
Exact mass: 254.057909
SMILES: C1=CC=C(C=C1)C2=CC(=O)C3=C(C=C(C=C3O2)O)O
InChI: InChI=1S/C15H10O4/c16-10-6-11(17)15-12(18)8-13(19-14(15)7-10)9-4-2-1-3-5-9/h1-8,16-17H
Instrument: Agilent 1200 RRLC; Agilent 6520 QTOF
Instrument type: LC-ESI-QTOF
Ms type: MS2
Ion mode: NEGATIVE
Collision energy: 20 ev
Column name: Agilent C8 Cartridge Column 2.1X30mm 3.5 micron (guard); Agilent SB-Aq 2.1x50mm 1.8 micron (analytical)
Retention time: 8.643
Base peak: 253
Precursor m/z: 253.0506
Precursor type: [M-H]-
m/z	relative intensity
101.0409	1
107.0128	22
107.0418	1
107.1088	0
111.0157	0
115.0556	1
119.0499	4
121.0314	1
125.0353	1
139.0544	2
143.0488	29
143.0875	1
145.0273	13
145.0396	1
145.063	1
148.0146	4
151.0027	7
151.0334	1
153.0708	5
155.0468	2
157.0567	0
157.0654	2
165.0693	7
167.0492	5
169.0667	1
175.0063	1
180.0576	9
181.065	11
181.0991	1
183.0455	2
185.0603	11
187.0394	2
191.0528	0
197.0561	1
197.0709	0
208.0521	3
208.9878	1
209.0599	40
209.1033	1
209.1181	1
209.1973	0
211.0377	9
211.0596	1
219.3557	1
225.0555	5
232.3946	0
253.0038	1
253.0499	999
