Mass spectrum: 2-(4-chlorophenyl)-1-(2,4,6-trihydroxyphenyl)ethanone; LC-ESI-QTOF; MS2; CE 20 ev; [M-H]-
Name: 2-(4-chlorophenyl)-1-(2,4,6-trihydroxyphenyl)ethanone
Formula: C14H11ClO4
Exact mass: 278.034587
SMILES: C1=CC(=CC=C1CC(=O)C2=C(C=C(C=C2O)O)O)Cl
InChI: InChI=1S/C14H11ClO4/c15-9-3-1-8(2-4-9)5-11(17)14-12(18)6-10(16)7-13(14)19/h1-4,6-7,16,18-19H,5H2
Instrument: Agilent 1200 RRLC; Agilent 6520 QTOF
Instrument type: LC-ESI-QTOF
Ms type: MS2
Ion mode: NEGATIVE
Collision energy: 20 ev
Column name: Agilent C8 Cartridge Column 2.1X30mm 3.5 micron (guard); Agilent SB-Aq 2.1x50mm 1.8 micron (analytical)
Retention time: 7.994
Base peak: 277
Precursor m/z: 277.0273
Precursor type: [M-H]-
m/z	relative intensity
107.0141	194
107.0452	7
107.1103	3
107.4262	2
108.0254	3
108.992	9
114.344	3
119.0543	3
121.0015	2
121.0284	3
124.017	6
125.0239	176
125.053	6
125.071	8
125.1308	3
135.0054	4
149.0139	19
150.0186	3
151.0029	720
151.0355	22
151.0442	8
151.0566	12
151.0851	9
151.1173	11
151.1597	3
151.2017	4
151.2524	2
151.2829	3
151.3727	5
151.4027	3
151.4624	4
151.5266	4
151.5703	3
151.6059	5
151.7194	2
152.0083	12
161.0202	7
167.029	4
173.0137	3
175.032	11
177.0166	3
177.042	3
179.0263	3
187.0344	5
189.0136	4
189.0471	4
191.0274	87
191.0651	2
191.0932	3
192.9974	20
193.0092	45
195.0345	3
197.0625	3
197.8243	3
199.1185	4
203.0182	3
205.0421	29
207.0181	3
212.6921	3
215.0251	30
217.0087	9
218.0124	7
230.0124	2
231.0175	6
232.0288	3
232.5889	2
233.0368	623
233.0823	29
233.1106	14
233.1246	3
233.1422	6
233.1797	6
233.2321	5
233.285	2
233.3311	7
233.4004	3
233.4247	4
233.4533	3
233.4698	2
233.5821	4
233.7133	4
233.7949	3
234.0009	3
234.2804	7
234.3144	2
241.0505	3
259.0163	115
259.0607	6
260.9797	3
277.0264	999
