Mass spectrum: Capensine; LC-ESI-QTOF; MS2; CE 20 ev; [M-H]-
Name: Capensine
Formula: C15H16O5
Exact mass: 276.099774
SMILES: CC(=CCOC1=C(C=C2C=CC(=O)OC2=C1O)OC)C
InChI: InChI=1S/C15H16O5/c1-9(2)6-7-19-15-11(18-3)8-10-4-5-12(16)20-14(10)13(15)17/h4-6,8,17H,7H2,1-3H3
Instrument: Agilent 1200 RRLC; Agilent 6520 QTOF
Instrument type: LC-ESI-QTOF
Ms type: MS2
Ion mode: NEGATIVE
Collision energy: 20 ev
Column name: Agilent C8 Cartridge Column 2.1X30mm 3.5 micron (guard); Agilent SB-Aq 2.1x50mm 1.8 micron (analytical)
Retention time: 7.753
Base peak: 191
Precursor m/z: 275.0925
Precursor type: [M-H]-
m/z	relative intensity
104.881	7
107.0169	19
111.2972	6
119.0143	9
130.9228	8
135.0085	57
147.0135	14
150.0319	12
163.0013	125
175.0045	7
178.0295	10
190.9978	999
191.0361	33
191.0597	18
191.0728	6
191.1273	15
191.1862	6
191.2895	7
191.3235	6
191.4423	6
191.4904	8
191.7597	6
192.0106	10
192.0965	7
193.0959	6
200.4782	10
205.0121	8
206.0219	420
206.0663	15
206.0862	13
206.7088	6
232.3171	7
233.9216	5
