Mass spectrum: Methylergometrine; LC-ESI-QTOF; MS2; CE 20 ev; [M+H]+
Name: Methylergometrine
Formula: C20H25N3O2
Exact mass: 339.194677
SMILES: CCC(CO)NC(=O)C1CN(C2CC3=CNC4=CC=CC(=C34)C2=C1)C
InChI: InChI=1S/C20H25N3O2/c1-3-14(11-24)22-20(25)13-7-16-15-5-4-6-17-19(15)12(9-21-17)8-18(16)23(2)10-13/h4-7,9,13-14,18,21,24H,3,8,10-11H2,1-2H3,(H,22,25)
Instrument: Agilent 1200 RRLC; Agilent 6520 QTOF
Instrument type: LC-ESI-QTOF
Ms type: MS2
Ion mode: POSITIVE
Collision energy: 20 ev
Column name: Agilent C8 Cartridge Column 2.1X30mm 3.5 micron (guard); Agilent SB-Aq 2.1x50mm 1.8 micron (analytical)
Retention time: 3.317
Base peak: 208
Precursor m/z: 340.2020
Precursor type: [M+H]+
m/z	relative intensity
144.0817	29
152.0516	50
152.0621	57
153.0689	265
154.0636	73
165.0708	26
167.0743	146
168.0806	101
178.0617	78
179.0709	62
180.0774	950
180.1164	56
181.0634	86
181.0787	79
181.0902	47
182.0919	157
190.0643	224
191.0712	451
191.1059	35
192.0783	231
193.0723	26
193.09	33
194.0929	127
195.1033	30
196.1007	49
196.115	30
197.1055	125
205.075	27
206.0785	24
207.0642	369
207.0748	203
207.0898	414
207.1169	32
207.1318	24
207.1521	24
208.0739	999
208.0952	392
208.1451	41
209.1029	55
220.0922	35
221.1068	114
222.0994	55
222.1169	27
223.1218	294
223.1527	26
224.0913	41
225.1019	24
