Mass spectrum: Formononetin; LC-ESI-QTOF; MS2; CE 20 ev; [M+H]+
Name: Formononetin
Formula: C16H12O4
Exact mass: 268.073559
SMILES: COC1=CC=C(C=C1)C2=COC3=C(C2=O)C=CC(=C3)O
InChI: InChI=1S/C16H12O4/c1-19-12-5-2-10(3-6-12)14-9-20-15-8-11(17)4-7-13(15)16(14)18/h2-9,17H,1H3
Instrument: Agilent 1200 RRLC; Agilent 6520 QTOF
Instrument type: LC-ESI-QTOF
Ms type: MS2
Ion mode: POSITIVE
Collision energy: 20 ev
Column name: Agilent C8 Cartridge Column 2.1X30mm 3.5 micron (guard); Agilent SB-Aq 2.1x50mm 1.8 micron (analytical)
Retention time: 7.814
Base peak: 269
Precursor m/z: 269.0809
Precursor type: [M+H]+
m/z	relative intensity
104.992	365
107.0427	88
133.0633	62
136.0136	74
137.0167	59
185.0509	62
196.0452	133
213.0895	99
226.0586	125
237.0551	187
238.3466	65
253.0468	263
254.055	348
269.0784	999
269.1006	65
