Mass spectrum: (-)-Bilobalide; LC-ESI-QTOF; MS2; CE 10 ev; [M-H]-
Name: (-)-Bilobalide
Formula: C15H18O8
Exact mass: 326.100168
SMILES: CC(C)(C)C1(CC2C3(C14C(C(=O)OC4OC3=O)O)CC(=O)O2)O
InChI: InChI=1S/C15H18O8/c1-12(2,3)14(20)4-6-13(5-7(16)21-6)10(19)23-11-15(13,14)8(17)9(18)22-11/h6,8,11,17,20H,4-5H2,1-3H3
Instrument: Agilent 1200 RRLC; Agilent 6520 QTOF
Instrument type: LC-ESI-QTOF
Ms type: MS2
Ion mode: NEGATIVE
Collision energy: 10 ev
Column name: Agilent C8 Cartridge Column 2.1X30mm 3.5 micron (guard); Agilent SB-Aq 2.1x50mm 1.8 micron (analytical)
Retention time: 3.463
Base peak: 163
Precursor m/z: 325.0929
Precursor type: [M-H]-
m/z	relative intensity
101.0642	15
109.0638	35
119.0361	7
153.0119	7
153.0249	8
163.1121	999
163.149	36
163.1742	22
163.2004	9
163.2313	19
163.5693	6
165.1282	49
175.1116	9
191.1046	6
193.1232	247
193.1572	10
201.0933	6
207.1029	31
209.1194	10
219.1015	32
219.7875	10
237.1115	89
250.5704	9
251.0909	176
251.1174	5
251.1397	7
253.2439	7
263.0862	10
281.1081	8
325.0941	155
