Mass spectrum: Thermopsoside, crotonoyl; LC-ESI-QTOF; MS2; CE 20 ev; [M-H]-
Name: Thermopsoside, crotonoyl
Formula: C26H26O12
Exact mass: 530.142426
SMILES: C/C=C/C(=O)OCC1C(C(C(C(O1)OC2=CC(=C3C(=C2)OC(=CC3=O)C4=CC(=C(C=C4)O)OC)O)O)O)O
InChI: InChI=1S/C26H26O12/c1-3-4-21(30)35-11-20-23(31)24(32)25(33)26(38-20)36-13-8-15(28)22-16(29)10-17(37-19(22)9-13)12-5-6-14(27)18(7-12)34-2/h3-10,20,23-28,31-33H,11H2,1-2H3/b4-3+
Instrument: Agilent 1200 RRLC; Agilent 6520 QTOF
Instrument type: LC-ESI-QTOF
Ms type: MS2
Ion mode: NEGATIVE
Collision energy: 20 ev
Column name: Agilent C8 Cartridge Column 2.1X30mm 3.5 micron (guard); Agilent SB-Aq 2.1x50mm 1.8 micron (analytical)
Retention time: 8.482
Base peak: 299
Precursor m/z: 529.1351
Precursor type: [M-H]-
m/z	relative intensity
255.0288	18
283.0234	55
284.038	32
285.0399	19
298.05	29
299.0546	999
299.0887	11
299.1089	36
299.145	9
299.2108	13
299.2715	13
299.3775	9
299.8347	10
313.0391	23
341.0652	30
365.072	8
365.2653	10
429.0848	9
443.095	10
461.1122	10
514.1104	110
514.1454	21
529.1335	988
