Mass spectrum: Nalpha-FMOC-L-Tryptophan; LC-ESI-QTOF; MS; NEGATIVE
Name: Nalpha-FMOC-L-Tryptophan
Formula: C26H22N2O4
Exact mass: 426.157957
SMILES: C1=CC=C2C(=C1)C(C3=CC=CC=C32)COC(=O)NC(CC4=CNC5=CC=CC=C54)C(=O)O
InChI: InChI=1S/C26H22N2O4/c29-25(30)24(13-16-14-27-23-12-6-5-7-17(16)23)28-26(31)32-15-22-20-10-3-1-8-18(20)19-9-2-4-11-21(19)22/h1-12,14,22,24,27H,13,15H2,(H,28,31)(H,29,30)
Instrument: Agilent 1200 RRLC; Agilent 6520 QTOF
Instrument type: LC-ESI-QTOF
Ms type: MS
Ion mode: NEGATIVE
Column name: Agilent C8 Cartridge Column 2.1X30mm 3.5 micron (guard); Agilent SB-Aq 2.1x50mm 1.8 micron (analytical)
Retention time: 9.299
m/z	relative intensity
425.1507235	999
