Mass spectrum: 4-Hydroxy-2',3,4',6'-tetramethoxychalcone; LC-ESI-QTOF; MS2; CE 10 ev; [M-H]-
Name: 4-Hydroxy-2',3,4',6'-tetramethoxychalcone
Formula: C19H20O6
Exact mass: 344.125988
SMILES: COC1=CC(=C(C(=C1)OC)C(=O)/C=C/C2=CC(=C(C=C2)O)OC)OC
InChI: InChI=1S/C19H20O6/c1-22-13-10-17(24-3)19(18(11-13)25-4)15(21)8-6-12-5-7-14(20)16(9-12)23-2/h5-11,20H,1-4H3/b8-6+
Instrument: Agilent 1200 RRLC; Agilent 6520 QTOF
Instrument type: LC-ESI-QTOF
Ms type: MS2
Ion mode: NEGATIVE
Collision energy: 10 ev
Column name: Agilent C8 Cartridge Column 2.1X30mm 3.5 micron (guard); Agilent SB-Aq 2.1x50mm 1.8 micron (analytical)
Retention time: 7.788
Base peak: 343
Precursor m/z: 343.1187
Precursor type: [M-H]-
m/z	relative intensity
105.033	2
108.7625	2
127.0561	1
139.0527	1
139.1987	1
143.3216	2
165.0645	1
168.571	2
210.0258	1
222.0417	4
237.0145	1
237.063	3
241.017	1
249.0181	2
250.2528	1
253.044	1
254.0565	4
255.0321	4
267.0351	1
268.0512	1
269.0864	3
270.0536	3
281.046	3
285.0845	1
296.0641	1
297.0727	2
298.0455	9
298.0819	1
305.7598	1
313.0673	12
313.0925	2
319.2725	2
328.0944	194
328.1457	3
328.1637	6
328.2087	2
328.262	3
328.4186	1
328.5042	1
328.5438	1
328.598	1
328.7885	2
328.8539	1
328.8878	2
329.5662	1
329.6834	1
335.1673	1
343.0249	1
343.1182	999
