Mass spectrum: Ginkgolide B; LC-ESI-QTOF; MS2; CE 40 ev; [M-H]-
Name: Ginkgolide B
Formula: C20H24O10
Exact mass: 424.136947
SMILES: CC1C(=O)OC2C1(C34C(=O)OC5C3(C2O)C6(C(C5)C(C)(C)C)C(C(=O)OC6O4)O)O
InChI: InChI=1S/C20H24O10/c1-6-12(23)28-11-9(21)18-8-5-7(16(2,3)4)17(18)10(22)13(24)29-15(17)30-20(18,14(25)27-8)19(6,11)26/h6-11,15,21-22,26H,5H2,1-4H3
Instrument: Agilent 1200 RRLC; Agilent 6520 QTOF
Instrument type: LC-ESI-QTOF
Ms type: MS2
Ion mode: NEGATIVE
Collision energy: 40 ev
Column name: Agilent C8 Cartridge Column 2.1X30mm 3.5 micron (guard); Agilent SB-Aq 2.1x50mm 1.8 micron (analytical)
Retention time: 5.383
Base peak: 125
Precursor m/z: 423.1296
Precursor type: [M-H]-
m/z	relative intensity
125.024	999
125.0578	43
125.0722	11
125.0985	19
125.1288	11
125.5239	6
127.0356	8
133.0668	5
137.0647	9
139.0371	6
141.0176	99
141.0488	6
143.033	27
146.0389	8
147.0456	25
147.1167	7
149.0579	27
149.0981	20
151.1092	9
152.6519	8
154.0216	14
157.0668	8
158.0703	10
162.0256	6
163.1128	11
165.0572	25
165.1224	17
167.0323	10
169.068	8
174.0314	45
174.0667	7
175.0406	50
175.0775	12
175.1097	9
176.9853	7
177.0896	11
177.1306	23
179.1068	87
181.1248	16
181.1563	7
181.616	5
184.0554	6
185.0687	8
186.0664	23
187.1419	14
187.1598	14
189.0565	17
191.113	15
191.9454	8
195.1345	6
197.1316	10
201.0105	5
201.1294	13
204.0814	6
204.1174	35
205.1473	8
207.1038	36
209.1145	9
213.1367	5
215.1453	45
215.1897	5
217.4232	8
219.1445	5
221.1088	7
230.0615	12
231.0988	17
231.139	32
232.1121	33
232.1411	7
233.1207	6
233.1589	31
235.1254	8
240.5909	7
243.139	37
244.1109	7
245.112	8
246.1253	7
247.1359	46
249.1109	28
249.1595	10
259.1322	35
261.1522	24
263.1244	16
269.1242	9
271.1415	7
272.1115	12
275.1254	10
277.1427	18
287.1306	44
291.1208	6
367.1442	15
