Mass spectrum: 2',6-Dihydroxyflavanone; LC-ESI-QTOF; MS; POSITIVE
Name: 2',6-Dihydroxyflavanone
Formula: C15H12O4
Exact mass: 256.073559
SMILES: C1C(OC2=C(C1=O)C=C(C=C2)O)C3=CC=CC=C3O
InChI: InChI=1S/C15H12O4/c16-9-5-6-14-11(7-9)13(18)8-15(19-14)10-3-1-2-4-12(10)17/h1-7,15-17H,8H2
Instrument: Agilent 1200 RRLC; Agilent 6520 QTOF
Instrument type: LC-ESI-QTOF
Ms type: MS
Ion mode: POSITIVE
Column name: Agilent C8 Cartridge Column 2.1X30mm 3.5 micron (guard); Agilent SB-Aq 2.1x50mm 1.8 micron (analytical)
Retention time: 6.812
m/z	relative intensity
257.0808765	999
279.062818	226
