Mass spectrum: Flindersine; LC-ESI-QTOF; MS2; CE 20 ev; [M+H]+
Name: Flindersine
Formula: C14H13NO2
Exact mass: 227.094629
SMILES: CC1(C=CC2=C(O1)C3=CC=CC=C3NC2=O)C
InChI: InChI=1S/C14H13NO2/c1-14(2)8-7-10-12(17-14)9-5-3-4-6-11(9)15-13(10)16/h3-8H,1-2H3,(H,15,16)
Instrument: Agilent 1200 RRLC; Agilent 6520 QTOF
Instrument type: LC-ESI-QTOF
Ms type: MS2
Ion mode: POSITIVE
Collision energy: 20 ev
Column name: Agilent C8 Cartridge Column 2.1X30mm 3.5 micron (guard); Agilent SB-Aq 2.1x50mm 1.8 micron (analytical)
Retention time: 8.328
Base peak: 228
Precursor m/z: 228.1019
Precursor type: [M+H]+
m/z	relative intensity
109.0635	39
118.064	13
120.0424	31
128.0479	31
130.0662	65
132.0425	46
133.525	11
135.0422	8
140.0475	13
143.0719	10
144.0798	14
146.0226	30
146.0596	59
148.0368	30
152.062	7
156.0418	25
157.0916	9
158.0581	220
158.0948	39
162.0537	27
165.0694	34
166.061	11
167.0732	33
168.0429	126
168.0787	33
168.1012	6
169.0824	7
170.0611	38
172.0738	28
172.1088	35
174.0535	619
174.088	6
174.1089	10
174.1743	6
181.0872	11
182.0607	16
182.0945	60
183.0811	6
184.1086	12
185.078	7
186.0534	696
186.0887	252
186.1246	11
186.1463	8
186.1794	9
186.277	6
188.0698	11
191.0704	6
192.0792	104
195.0682	19
198.055	29
199.0654	13
200.0692	39
200.1048	110
200.1499	7
210.0898	420
210.1285	13
210.1636	6
212.0679	34
213.0779	131
226.0831	9
228.1	999
