Mass spectrum: Biotin; LC-ESI-QTOF; MS2; CE 20 ev; [M-H]-
Name: Biotin
Formula: C10H16N2O3S
Exact mass: 244.088163
SMILES: C1C2C(C(S1)CCCCC(=O)O)NC(=O)N2
InChI: InChI=1S/C10H16N2O3S/c13-8(14)4-2-1-3-7-9-6(5-16-7)11-10(15)12-9/h6-7,9H,1-5H2,(H,13,14)(H2,11,12,15)
Instrument: Agilent 1200 RRLC; Agilent 6520 QTOF
Instrument type: LC-ESI-QTOF
Ms type: MS2
Ion mode: NEGATIVE
Collision energy: 20 ev
Column name: Agilent C8 Cartridge Column 2.1X30mm 3.5 micron (guard); Agilent SB-Aq 2.1x50mm 1.8 micron (analytical)
Retention time: 3.460
Base peak: 166
Precursor m/z: 243.0809
Precursor type: [M-H]-
m/z	relative intensity
100.9589	17
103.0554	20
108.0475	33
110.0963	19
111.053	63
113.0588	25
122.0968	442
122.1196	28
122.1321	17
139.0549	179
148.0737	38
153.104	98
154.0868	87
156.0863	263
156.1087	20
157.1391	36
158.6343	22
162.0109	17
165.1001	84
165.1097	68
166.0862	999
166.1058	27
166.1247	39
166.1427	26
166.2047	17
167.4006	19
170.0845	17
179.0789	25
189.7157	19
192.063	19
197.0926	125
199.0895	81
200.0738	721
200.1164	33
200.1948	20
209.092	77
243.0783	465
