Mass spectrum: Mycophenolic acid; LC-ESI-QTOF; MS2; CE 20 ev; [M+H]+
Name: Mycophenolic acid
Formula: C17H20O6
Exact mass: 320.125988
SMILES: CC1=C(C(=C(C2=C1COC2=O)O)CC=C(C)CCC(=O)O)OC
InChI: InChI=1S/C17H20O6/c1-9(5-7-13(18)19)4-6-11-15(20)14-12(8-23-17(14)21)10(2)16(11)22-3/h4,20H,5-8H2,1-3H3,(H,18,19)
Instrument: Agilent 1200 RRLC; Agilent 6520 QTOF
Instrument type: LC-ESI-QTOF
Ms type: MS2
Ion mode: POSITIVE
Collision energy: 20 ev
Column name: Agilent C8 Cartridge Column 2.1X30mm 3.5 micron (guard); Agilent SB-Aq 2.1x50mm 1.8 micron (analytical)
Retention time: 8.067
Base peak: 207
Precursor m/z: 321.1333
Precursor type: [M+H]+
m/z	relative intensity
104.9937	22
109.0645	19
135.0809	19
159.0412	164
195.0673	24
207.0639	999
207.1106	45
207.1315	19
223.0599	19
231.1293	19
275.1293	28
285.111	39
