Mass spectrum: Mycophenolic acid; LC-ESI-QTOF; MS2; CE 40 ev; [M-H]-
Name: Mycophenolic acid
Formula: C17H20O6
Exact mass: 320.125988
SMILES: CC1=C(C(=C(C2=C1COC2=O)O)CC=C(C)CCC(=O)O)OC
InChI: InChI=1S/C17H20O6/c1-9(5-7-13(18)19)4-6-11-15(20)14-12(8-23-17(14)21)10(2)16(11)22-3/h4,20H,5-8H2,1-3H3,(H,18,19)
Instrument: Agilent 1200 RRLC; Agilent 6520 QTOF
Instrument type: LC-ESI-QTOF
Ms type: MS2
Ion mode: NEGATIVE
Collision energy: 40 ev
Column name: Agilent C8 Cartridge Column 2.1X30mm 3.5 micron (guard); Agilent SB-Aq 2.1x50mm 1.8 micron (analytical)
Retention time: 8.089
Base peak: 191
Precursor m/z: 319.1187
Precursor type: [M-H]-
m/z	relative intensity
187.0749	145
187.1163	14
188.3789	6
190.024	14
190.0354	8
191.0343	999
191.0736	40
191.089	21
191.1074	22
191.1264	15
191.1627	17
191.2302	6
191.3219	7
191.3543	11
191.3768	9
191.5818	8
191.909	9
192.0403	137
192.0573	5
192.3981	6
193.0477	21
197.0659	7
197.0929	19
199.0736	48
199.1096	6
200.0802	34
201.0523	6
201.0898	109
201.1149	11
203.0327	245
203.0866	8
203.6389	6
205.0504	545
205.0921	24
205.113	11
205.1837	8
205.2308	17
205.8243	7
210.0722	6
213.0577	5
214.0572	11
214.1048	7
215.0689	9
215.109	47
217.0492	14
217.0831	22
227.0697	33
227.1271	5
229.0507	27
230.0628	7
231.0626	77
231.6966	10
241.084	9
243.0726	17
243.3403	11
245.0816	138
245.1245	6
248.9494	6
261.1354	8
275.1343	11
283.2381	7
