Mass spectrum: Caffeic acid; LC-ESI-QTOF; MS2; CE 20 ev; [M-H]-
Name: Caffeic acid
Formula: C9H8O4
Exact mass: 180.042259
SMILES: C1=CC(=C(C=C1/C=C/C(=O)O)O)O
InChI: InChI=1S/C9H8O4/c10-7-3-1-6(5-8(7)11)2-4-9(12)13/h1-5,10-11H,(H,12,13)/b4-2+
Instrument: Agilent 1200 RRLC; Agilent 6520 QTOF
Instrument type: LC-ESI-QTOF
Ms type: MS2
Ion mode: NEGATIVE
Collision energy: 20 ev
Column name: Agilent C8 Cartridge Column 2.1X30mm 3.5 micron (guard); Agilent SB-Aq 2.1x50mm 1.8 micron (analytical)
Retention time: 2.971
Base peak: 135
Precursor m/z: 179.0350
Precursor type: [M-H]-
m/z	relative intensity
107.0524	34
108.019	5
109.0291	6
117.0324	8
120.0444	7
133.0358	8
134.036	141
135.0446	999
135.0789	31
135.0941	7
135.1185	7
135.1532	15
135.189	7
135.219	5
135.5069	5
135.5347	5
