Mass spectrum: Arachidonic acid; LC-APCI-QTOF; MS; POSITIVE
Name: Arachidonic acid
Name: 5Z,8Z,11Z,14Z-Eicosatetraenoic acid
Formula: C20H32O2
Exact mass: 304.24023
SMILES: CCCCC/C=C\C/C=C\C/C=C\C/C=C\CCCC(=O)O
InChI: InChI=1S/C20H32O2/c1-2-3-4-5-6-7-8-9-10-11-12-13-14-15-16-17-18-19-20(21)22/h6-7,9-10,12-13,15-16H,2-5,8,11,14,17-19H2,1H3,(H,21,22)/b7-6-,10-9-,13-12-,16-15-
Instrument: Agilent 1200 RRLC; Agilent 6520 QTOF
Instrument type: LC-APCI-QTOF
Ms type: MS
Ion mode: POSITIVE
Column name: Agilent C8 Cartridge Column 2.1X30mm 3.5 micron (guard); Agilent SB-Aq 2.1x50mm 1.8 micron (analytical)
Retention time: 11.860
m/z	relative intensity
305.2474765	999
