Mass spectrum: 8-Methoxypsoralen; LC-ESI-QTOF; MS2; CE 40 ev; [M+H]+
Name: 8-Methoxypsoralen
Formula: C12H8O4
Exact mass: 216.042259
SMILES: COC1=C2C(=CC3=C1OC=C3)C=CC(=O)O2
InChI: InChI=1S/C12H8O4/c1-14-12-10-8(4-5-15-10)6-7-2-3-9(13)16-11(7)12/h2-6H,1H3
Instrument: Agilent 1200 RRLC; Agilent 6520 QTOF
Instrument type: LC-ESI-QTOF
Ms type: MS2
Ion mode: POSITIVE
Collision energy: 40 ev
Column name: Agilent C8 Cartridge Column 2.1X30mm 3.5 micron (guard); Agilent SB-Aq 2.1x50mm 1.8 micron (analytical)
Retention time: 6.673
Base peak: 174
Precursor m/z: 217.0496
Precursor type: [M+H]+
m/z	relative intensity
101.034	32
102.0466	59
103.055	62
105.0689	40
115.0547	86
117.0263	44
117.0337	114
118.0411	824
129.0333	77
131.0489	104
145.0291	417
146.0364	176
161.0575	85
174.0302	999
174.0672	51
202.0267	48
