Mass spectrum: Homoharringtonine; LC-ESI-QTOF; MS2; CE 40 ev; [M+H]+
Name: Homoharringtonine
Formula: C29H39NO9
Exact mass: 545.262482
SMILES: CC(C)(CCCC(CC(=O)OC)(C(=O)OC1C2C3=CC4=C(C=C3CCN5C2(CCC5)C=C1OC)OCO4)O)O
InChI: InChI=1S/C29H39NO9/c1-27(2,33)8-5-10-29(34,16-23(31)36-4)26(32)39-25-22(35-3)15-28-9-6-11-30(28)12-7-18-13-20-21(38-17-37-20)14-19(18)24(25)28/h13-15,24-25,33-34H,5-12,16-17H2,1-4H3
Instrument: Agilent 1200 RRLC; Agilent 6520 QTOF
Instrument type: LC-ESI-QTOF
Ms type: MS2
Ion mode: POSITIVE
Collision energy: 40 ev
Column name: Agilent C8 Cartridge Column 2.1X30mm 3.5 micron (guard); Agilent SB-Aq 2.1x50mm 1.8 micron (analytical)
Retention time: 4.743
Base peak: 298
Precursor m/z: 546.2698
Precursor type: [M+H]+
m/z	relative intensity
107.0847	24
109.0631	35
109.0694	25
111.0777	11
120.0804	15
123.0795	47
126.0898	37
149.0521	17
149.0633	18
150.0898	238
159.0488	10
161.0604	10
165.0695	16
167.1085	14
173.0515	16
173.0632	12
176.0694	103
176.0923	15
181.0984	20
185.0564	11
187.074	16
191.0853	23
195.0808	12
197.0946	17
207.0752	17
208.1144	18
209.0554	12
209.1029	12
211.0693	35
211.1091	12
213.0878	11
214.0818	24
215.0685	43
216.0997	16
219.0769	15
223.0712	83
223.1083	60
225.084	38
226.0824	155
226.124	25
227.0545	13
227.093	241
229.0882	23
229.1059	71
230.1176	26
236.076	17
236.1063	41
237.0871	34
238.0637	11
238.0853	53
238.1205	25
239.0711	20
240.0735	13
240.0986	193
240.1272	23
240.1597	10
241.0769	22
242.0785	40
249.09	37
250.0946	27
251.1016	214
252.067	12
252.0839	13
252.0993	29
253.0887	28
253.1013	86
254.1154	65
255.0951	46
255.1113	12
256.0897	11
266.1148	317
267.1217	204
268.0957	49
268.1303	78
269.1092	16
269.1239	11
270.1136	63
281.1147	29
282.1118	26
283.1187	59
284.1245	143
296.1201	22
298.1414	999
298.194	53
298.2286	17
298.3081	14
299.1139	11
316.1493	68
546.2657	17
