Mass spectrum: 6-Ethoxy-3(4'-hydroxyphenyl)-4-methylcoumarin; LC-ESI-QTOF; MS2; CE 20 ev; [M-H]-
Name: 6-Ethoxy-3(4'-hydroxyphenyl)-4-methylcoumarin
Formula: C18H16O4
Exact mass: 296.104859
SMILES: CCOC1=CC2=C(C=C1)OC(=O)C(=C2C)C3=CC=C(C=C3)O
InChI: InChI=1S/C18H16O4/c1-3-21-14-8-9-16-15(10-14)11(2)17(18(20)22-16)12-4-6-13(19)7-5-12/h4-10,19H,3H2,1-2H3
Instrument: Agilent 1200 RRLC; Agilent 6520 QTOF
Instrument type: LC-ESI-QTOF
Ms type: MS2
Ion mode: NEGATIVE
Collision energy: 20 ev
Column name: Agilent C8 Cartridge Column 2.1X30mm 3.5 micron (guard); Agilent SB-Aq 2.1x50mm 1.8 micron (analytical)
Retention time: 8.592
Base peak: 266
Precursor m/z: 295.0976
Precursor type: [M-H]-
m/z	relative intensity
108.0216	5
120.0262	6
145.034	6
160.8281	5
167.8864	6
173.0264	21
181.0671	5
195.0523	9
207.0433	5
209.0599	18
221.0606	13
222.0674	54
222.0872	5
223.0324	10
224.0543	10
237.0552	12
238.0618	369
238.1053	19
238.1412	5
238.1648	5
238.2044	4
239.0647	6
249.0537	134
251.0327	110
251.0822	5
253.0838	5
265.0457	15
266.0581	999
266.109	22
266.1428	9
266.1727	10
266.2089	14
266.2494	8
266.351	6
266.4066	7
266.636	4
266.7242	5
266.7478	5
266.7933	5
267.0632	16
267.1038	42
267.1391	4
295.096	709
