Mass spectrum: Picrotin; LC-ESI-QTOF; MS2; CE 10 ev; [M-H]-
Name: Picrotin
Formula: C15H18O7
Exact mass: 310.105253
SMILES: CC12C3C4C(C(C1(CC5C2(O5)C(=O)O3)O)C(=O)O4)C(C)(C)O
InChI: InChI=1S/C15H18O7/c1-12(2,18)6-7-10(16)20-8(6)9-13(3)14(7,19)4-5-15(13,22-5)11(17)21-9/h5-9,18-19H,4H2,1-3H3
Instrument: Agilent 1200 RRLC; Agilent 6520 QTOF
Instrument type: LC-ESI-QTOF
Ms type: MS2
Ion mode: NEGATIVE
Collision energy: 10 ev
Column name: Agilent C8 Cartridge Column 2.1X30mm 3.5 micron (guard); Agilent SB-Aq 2.1x50mm 1.8 micron (analytical)
Retention time: 3.702
Base peak: 309
Precursor m/z: 309.0980
Precursor type: [M-H]-
m/z	relative intensity
109.0295	66
109.0649	18
110.0326	6
111.0436	65
111.0495	9
122.0325	7
123.0453	8
125.0602	13
127.0774	5
135.0494	8
135.0807	15
137.0243	158
137.0632	5
145.0712	7
161.0632	7
163.075	25
165.058	7
171.0672	23
175.1081	15
177.0914	5
177.1262	10
189.0544	11
193.124	84
203.1022	11
207.0624	40
219.107	7
221.1184	7
237.1135	120
251.0516	18
281.1024	38
309.0977	999
