Mass spectrum: Cycloheximide; LC-ESI-QTOF; MS2; CE 20 ev; [M-H]-
Name: Cycloheximide
Formula: C15H23NO4
Exact mass: 281.162708
SMILES: C[C@H]1C[C@@H](C(=O)[C@@H](C1)[C@@H](CC2CC(=O)NC(=O)C2)O)C
InChI: InChI=1S/C15H23NO4/c1-8-3-9(2)15(20)11(4-8)12(17)5-10-6-13(18)16-14(19)7-10/h8-12,17H,3-7H2,1-2H3,(H,16,18,19)/t8-,9-,11-,12+/m0/s1
Instrument: Agilent 1200 RRLC; Agilent 6520 QTOF
Instrument type: LC-ESI-QTOF
Ms type: MS2
Ion mode: NEGATIVE
Collision energy: 20 ev
Column name: Agilent C8 Cartridge Column 2.1X30mm 3.5 micron (guard); Agilent SB-Aq 2.1x50mm 1.8 micron (analytical)
Retention time: 5.704
Base peak: 110
Precursor m/z: 280.1554
Precursor type: [M-H]-
m/z	relative intensity
110.0239	999
110.0453	29
110.0587	35
110.0761	15
110.1032	7
110.1224	16
111.0461	24
112.0394	152
113.0191	30
121.8877	13
123.0809	80
123.0941	6
125.0967	541
125.1175	6
125.1317	32
125.1468	10
125.1613	8
125.2844	6
125.4624	6
137.0247	10
151.1127	187
152.8844	6
154.0497	764
154.0878	30
154.1292	7
154.1663	11
154.3352	6
167.102	9
167.4392	8
168.1368	12
177.127	55
193.1304	7
220.1407	10
262.136	6
