Mass spectrum: 5-Methoxyflavanone; LC-APCI-QTOF; MS; POSITIVE
Name: 5-Methoxyflavanone
Formula: C16H14O3
Exact mass: 254.094294
SMILES: COC1=CC=CC2=C1C(=O)CC(O2)C3=CC=CC=C3
InChI: InChI=1S/C16H14O3/c1-18-13-8-5-9-14-16(13)12(17)10-15(19-14)11-6-3-2-4-7-11/h2-9,15H,10H2,1H3
Instrument: Agilent 1200 RRLC; Agilent 6520 QTOF
Instrument type: LC-APCI-QTOF
Ms type: MS
Ion mode: POSITIVE
Column name: Agilent C8 Cartridge Column 2.1X30mm 3.5 micron (guard); Agilent SB-Aq 2.1x50mm 1.8 micron (analytical)
Retention time: 8.331
m/z	relative intensity
255.1015765	999
