Mass spectrum: Vitexin-2-rhamnoside; LC-ESI-QTOF; MS2; CE 10 ev; [M-H]-
Name: Vitexin-2-rhamnoside
Name: 2-O-Rhamnosylvitexin
Formula: C27H30O14
Exact mass: 578.163556
SMILES: C[C@H]1[C@@H]([C@H]([C@H]([C@@H](O1)O[C@@H]2[C@H]([C@@H]([C@H](O[C@H]2C3=C(C=C(C4=C3OC(=CC4=O)C5=CC=C(C=C5)O)O)O)CO)O)O)O)O)O
InChI: InChI=1S/C27H30O14/c1-9-19(33)21(35)23(37)27(38-9)41-26-22(36)20(34)16(8-28)40-25(26)18-13(31)6-12(30)17-14(32)7-15(39-24(17)18)10-2-4-11(29)5-3-10/h2-7,9,16,19-23,25-31,33-37H,8H2,1H3/t9-,16+,19-,20+,21+,22-,23+,25-,26+,27-/m0/s1
Instrument: Agilent 1200 RRLC; Agilent 6520 QTOF
Instrument type: LC-ESI-QTOF
Ms type: MS2
Ion mode: NEGATIVE
Collision energy: 10 ev
Column name: Agilent C8 Cartridge Column 2.1X30mm 3.5 micron (guard); Agilent SB-Aq 2.1x50mm 1.8 micron (analytical)
Retention time: 5.149
Base peak: 577
Precursor m/z: 577.1563
Precursor type: [M-H]-
m/z	relative intensity
200.8073	2
293.0467	35
293.0918	2
310.5197	2
311.0609	7
329.2662	2
397.2074	3
407.8106	2
413.0869	95
413.1387	5
413.1737	3
457.1034	12
457.1394	2
577.1537	999
