Mass spectrum: Corynanthine; LC-ESI-QTOF; MS2; CE 40 ev; [M+H]+
Name: Corynanthine
Formula: C21H26N2O3
Exact mass: 354.194343
SMILES: COC(=O)[C@@H]1[C@H](CC[C@@H]2[C@@H]1C[C@H]3C4=C(CCN3C2)C5=CC=CC=C5N4)O
InChI: InChI=1S/C21H26N2O3/c1-26-21(25)19-15-10-17-20-14(13-4-2-3-5-16(13)22-20)8-9-23(17)11-12(15)6-7-18(19)24/h2-5,12,15,17-19,22,24H,6-11H2,1H3/t12-,15-,17-,18-,19-/m0/s1
Instrument: Agilent 1200 RRLC; Agilent 6520 QTOF
Instrument type: LC-ESI-QTOF
Ms type: MS2
Ion mode: POSITIVE
Collision energy: 40 ev
Column name: Agilent C8 Cartridge Column 2.1X30mm 3.5 micron (guard); Agilent SB-Aq 2.1x50mm 1.8 micron (analytical)
Retention time: 4.180
Base peak: 144
Precursor m/z: 355.2016
Precursor type: [M+H]+
m/z	relative intensity
105.073	12
106.0631	7
107.0854	9
110.0947	10
115.052	33
115.0657	7
117.0683	118
117.0988	6
118.0641	10
119.0788	7
127.0549	46
128.0498	15
130.0645	30
132.0808	14
134.0977	34
136.1089	15
136.1171	8
143.0721	61
144.0797	999
144.1131	23
144.1348	14
144.1913	15
145.0568	7
152.1048	25
156.0837	10
158.0942	10
162.0889	38
164.1114	6
168.0736	11
178.0888	6
180.0984	32
192.0963	11
194.1165	16
206.0929	10
208.1123	10
212.1268	52
218.0958	12
220.108	12
224.1289	16
232.1064	7
248.1377	6
260.1381	7
