Mass spectrum: (+)-Cinchonine; LC-ESI-QTOF; MS2; CE 10 ev; [M]+
Name: (+)-Cinchonine
Formula: C19H22N2O
Exact mass: 294.173
SMILES: C=CC1CN2CCC1CC2C(C3=CC=NC4=CC=CC=C34)O
InChI: InChI=1S/C19H22N2O/c1-2-13-12-21-10-8-14(13)11-18(21)19(22)16-7-9-20-17-6-4-3-5-15(16)17/h2-7,9,13-14,18-19,22H,1,8,10-12H2
Instrument: Agilent 1200 RRLC; Agilent 6520 QTOF
Instrument type: LC-ESI-QTOF
Ms type: MS2
Ion mode: POSITIVE
Collision energy: 10 ev
Column name: Agilent C8 Cartridge Column 2.1X30mm 3.5 micron (guard); Agilent SB-Aq 2.1x50mm 1.8 micron (analytical)
Retention time: 4.454
Base peak: 295
Precursor m/z: 295.1810
Precursor type: [M+H]+
m/z	relative intensity
277.1685	36
295.1793	999
