Mass spectrum: Anisomycin; LC-ESI-QTOF; MS; POSITIVE
Name: Anisomycin
Formula: C14H19NO4
Exact mass: 265.131408
SMILES: CC(=O)OC1C(CNC1CC2=CC=C(C=C2)OC)O
InChI: InChI=1S/C14H19NO4/c1-9(16)19-14-12(15-8-13(14)17)7-10-3-5-11(18-2)6-4-10/h3-6,12-15,17H,7-8H2,1-2H3
Instrument: Agilent 1200 RRLC; Agilent 6520 QTOF
Instrument type: LC-ESI-QTOF
Ms type: MS
Ion mode: POSITIVE
Column name: Agilent C8 Cartridge Column 2.1X30mm 3.5 micron (guard); Agilent SB-Aq 2.1x50mm 1.8 micron (analytical)
Retention time: 2.846
m/z	relative intensity
266.1386765	999
288.120618	14
