Mass spectrum: Biochanin A; LC-ESI-QTOF; MS2; CE 20 ev; [M+H]+
Name: Biochanin A
Formula: C16H12O5
Exact mass: 284.068473
SMILES: COC1=CC=C(C=C1)C2=COC3=CC(=CC(=C3C2=O)O)O
InChI: InChI=1S/C16H12O5/c1-20-11-4-2-9(3-5-11)12-8-21-14-7-10(17)6-13(18)15(14)16(12)19/h2-8,17-18H,1H3
Instrument: Agilent 1200 RRLC; Agilent 6520 QTOF
Instrument type: LC-ESI-QTOF
Ms type: MS2
Ion mode: POSITIVE
Collision energy: 20 ev
Column name: Agilent C8 Cartridge Column 2.1X30mm 3.5 micron (guard); Agilent SB-Aq 2.1x50mm 1.8 micron (analytical)
Retention time: 8.401
Base peak: 285
Precursor m/z: 285.0758
Precursor type: [M+H]+
m/z	relative intensity
107.0501	17
118.0431	20
123.0409	13
123.0456	34
124.0171	16
149.0216	16
152.0077	130
153.0158	57
158.0327	12
179.0255	20
179.038	14
197.0534	23
213.0565	23
229.0823	79
241.0503	13
242.057	42
252.0385	15
253.0476	68
255.0644	14
269.0426	60
270.0492	139
270.0953	13
285.0725	999
