Mass spectrum: 6-Ethoxy-3(4'-hydroxyphenyl)-4-methylcoumarin; LC-ESI-QTOF; MS2; CE 40 ev; [M-H]-
Name: 6-Ethoxy-3(4'-hydroxyphenyl)-4-methylcoumarin
Formula: C18H16O4
Exact mass: 296.104859
SMILES: CCOC1=CC2=C(C=C1)OC(=O)C(=C2C)C3=CC=C(C=C3)O
InChI: InChI=1S/C18H16O4/c1-3-21-14-8-9-16-15(10-14)11(2)17(18(20)22-16)12-4-6-13(19)7-5-12/h4-10,19H,3H2,1-2H3
Instrument: Agilent 1200 RRLC; Agilent 6520 QTOF
Instrument type: LC-ESI-QTOF
Ms type: MS2
Ion mode: NEGATIVE
Collision energy: 40 ev
Column name: Agilent C8 Cartridge Column 2.1X30mm 3.5 micron (guard); Agilent SB-Aq 2.1x50mm 1.8 micron (analytical)
Retention time: 8.592
Base peak: 238
Precursor m/z: 295.0976
Precursor type: [M-H]-
m/z	relative intensity
108.0197	61
117.0285	6
117.041	9
130.0418	57
131.053	7
132.019	6
132.0273	9
133.0284	5
139.0524	6
141.036	34
142.0373	9
143.053	9
145.027	79
146.0328	8
151.0505	6
153.0755	5
155.0499	16
156.0583	43
160.0155	7
165.073	18
167.0485	57
171.0321	6
173.0256	33
180.0561	16
181.0682	72
181.1022	7
182.0328	7
182.0726	43
183.0423	14
184.0554	7
192.0634	16
193.0658	98
195.0441	169
195.1063	5
195.3539	6
195.5982	6
196.0552	9
197.0573	10
203.0489	8
207.0436	105
208.0483	74
209.0588	250
209.1044	13
210.0682	43
211.0641	6
219.0486	5
220.0519	38
220.143	5
221.0339	7
221.0601	151
222.0682	49
223.041	412
223.0726	12
223.0874	7
223.0996	6
223.1441	5
223.4911	5
223.5773	5
224.026	5
224.0459	12
232.0455	14
232.0552	10
234.0386	7
235.0358	5
236.0448	42
237.0544	421
237.0923	12
237.1144	14
237.1413	5
238.0633	999
238.1077	42
238.1287	14
238.1423	9
238.1572	7
238.1737	11
238.2076	10
238.2401	5
238.3446	5
238.4822	6
238.8023	5
238.9036	6
239.013	5
239.075	8
245.218	12
247.0425	17
248.0455	85
248.0871	6
249.0549	360
249.0895	14
249.1075	6
249.1288	11
249.4028	6
249.6072	5
249.7791	5
251.0346	325
251.0763	18
251.1051	10
251.2229	5
252.0363	6
264.051	15
265.0507	60
266.0551	23
287.0202	8
