Mass spectrum: 11-alpha-Acetoxyprogesterone; LC-ESI-QTOF; MS; POSITIVE
Name: 11-alpha-Acetoxyprogesterone
Formula: C23H32O4
Exact mass: 372.23006
SMILES: CC(=O)C1CCC2C1(CC(C3C2CCC4=CC(=O)CCC34C)OC(=O)C)C
InChI: InChI=1S/C23H32O4/c1-13(24)18-7-8-19-17-6-5-15-11-16(26)9-10-22(15,3)21(17)20(27-14(2)25)12-23(18,19)4/h11,17-21H,5-10,12H2,1-4H3
Instrument: Agilent 1200 RRLC; Agilent 6520 QTOF
Instrument type: LC-ESI-QTOF
Ms type: MS
Ion mode: POSITIVE
Column name: Agilent C8 Cartridge Column 2.1X30mm 3.5 micron (guard); Agilent SB-Aq 2.1x50mm 1.8 micron (analytical)
Retention time: 9.619
m/z	relative intensity
373.2373765	686
395.219318	999
