Mass spectrum: Naringin; LC-ESI-QTOF; MS2; CE 20 ev; [M-H]-
Name: Naringin
Formula: C27H32O14
Exact mass: 580.179206
SMILES: C[C@H]1[C@@H]([C@H]([C@H]([C@@H](O1)O[C@@H]2[C@H]([C@@H]([C@H](O[C@H]2OC3=CC(=C4C(=O)C[C@H](OC4=C3)C5=CC=C(C=C5)O)O)CO)O)O)O)O)O
InChI: InChI=1S/C27H32O14/c1-10-20(32)22(34)24(36)26(37-10)41-25-23(35)21(33)18(9-28)40-27(25)38-13-6-14(30)19-15(31)8-16(39-17(19)7-13)11-2-4-12(29)5-3-11/h2-7,10,16,18,20-30,32-36H,8-9H2,1H3/t10-,16-,18+,20-,21+,22+,23-,24+,25+,26-,27+/m0/s1
Instrument: Agilent 1200 RRLC; Agilent 6520 QTOF
Instrument type: LC-ESI-QTOF
Ms type: MS2
Ion mode: NEGATIVE
Collision energy: 20 ev
Column name: Agilent C8 Cartridge Column 2.1X30mm 3.5 micron (guard); Agilent SB-Aq 2.1x50mm 1.8 micron (analytical)
Retention time: 5.458
Base peak: 579
Precursor m/z: 579.1719
Precursor type: [M-H]-
m/z	relative intensity
103.0382	2
107.0151	3
113.0297	2
119.0473	3
119.0618	3
131.0173	2
135.7203	2
145.028	5
145.4013	5
151.0053	29
151.0296	2
165.0145	5
167.0276	2
174.999	13
175.4173	2
177.014	6
177.0452	2
179.0505	2
186.8527	2
193.0145	7
193.044	2
211.0214	3
211.7563	3
217.0053	2
227.5484	4
235.0252	19
235.04	3
247.6121	2
253.0361	4
271.0602	145
271.1039	9
271.1283	4
272.0692	3
274.9813	3
279.0407	3
295.0563	5
313.0652	8
313.0801	15
313.1162	2
336.9804	2
337.0545	2
337.0785	2
339.0711	8
345.1104	4
355.0911	5
357.0854	2
363.0183	3
373.0773	4
373.0994	7
375.9626	5
397.0827	3
415.1024	3
417.1173	3
433.1288	2
433.1447	7
458.9466	2
459.111	122
459.1666	6
459.1895	8
459.232	3
459.3044	2
459.4151	2
460.1154	4
475.6926	3
510.1906	2
576.3209	2
579.002	2
579.0641	2
579.1707	999
