Mass spectrum: Quercetin; LC-ESI-QTOF; MS2; CE 10 ev; [M-H]-
Name: Quercetin
Formula: C15H10O7
Exact mass: 302.042653
SMILES: C1=CC(=C(C=C1C2=C(C(=O)C3=C(C=C(C=C3O2)O)O)O)O)O
InChI: InChI=1S/C15H10O7/c16-7-4-10(19)12-11(5-7)22-15(14(21)13(12)20)6-1-2-8(17)9(18)3-6/h1-5,16-19,21H
Instrument: Agilent 1200 RRLC; Agilent 6520 QTOF
Instrument type: LC-ESI-QTOF
Ms type: MS2
Ion mode: NEGATIVE
Collision energy: 10 ev
Column name: Agilent C8 Cartridge Column 2.1X30mm 3.5 micron (guard); Agilent SB-Aq 2.1x50mm 1.8 micron (analytical)
Retention time: 6.625
Base peak: 301
Precursor m/z: 301.0354
Precursor type: [M-H]-
m/z	relative intensity
117.8552	10
121.0267	9
125.0275	7
151.0027	75
151.0354	6
178.9976	66
223.1692	6
226.9161	6
272.0304	10
273.0271	6
273.0462	13
300.0252	29
301.0346	999
