Mass spectrum: 2'-Hydroxy-a-naphthoflavone; LC-ESI-QTOF; MS2; CE 20 ev; [M-H]-
Name: 2'-Hydroxy-a-naphthoflavone
Formula: C19H12O3
Exact mass: 288.078644
SMILES: C1=CC=C2C(=C1)C=CC3=C2OC(=CC3=O)C4=CC=CC=C4O
InChI: InChI=1S/C19H12O3/c20-16-8-4-3-7-14(16)18-11-17(21)15-10-9-12-5-1-2-6-13(12)19(15)22-18/h1-11,20H
Instrument: Agilent 1200 RRLC; Agilent 6520 QTOF
Instrument type: LC-ESI-QTOF
Ms type: MS2
Ion mode: NEGATIVE
Collision energy: 20 ev
Column name: Agilent C8 Cartridge Column 2.1X30mm 3.5 micron (guard); Agilent SB-Aq 2.1x50mm 1.8 micron (analytical)
Retention time: 9.704
Base peak: 287
Precursor m/z: 287.0713
Precursor type: [M-H]-
m/z	relative intensity
117.0341	760
117.0657	21
117.0851	9
117.1349	11
143.0496	10
167.05	44
245.0593	6
259.076	159
259.1244	7
269.055	6
287.0707	999
