Mass spectrum: Abscisic acid; LC-ESI-QTOF; MS2; CE 40 ev; [M-H]-
Name: Abscisic acid
Formula: C15H20O4
Exact mass: 264.136159
SMILES: CC1=CC(=O)CC(C1(C=CC(=CC(=O)O)C)O)(C)C
InChI: InChI=1S/C15H20O4/c1-10(7-13(17)18)5-6-15(19)11(2)8-12(16)9-14(15,3)4/h5-8,19H,9H2,1-4H3,(H,17,18)
Instrument: Agilent 1200 RRLC; Agilent 6520 QTOF
Instrument type: LC-ESI-QTOF
Ms type: MS2
Ion mode: NEGATIVE
Collision energy: 40 ev
Column name: Agilent C8 Cartridge Column 2.1X30mm 3.5 micron (guard); Agilent SB-Aq 2.1x50mm 1.8 micron (analytical)
Retention time: 6.450
Base peak: 203
Precursor m/z: 263.1289
Precursor type: [M-H]-
m/z	relative intensity
133.0671	26
135.0479	47
135.0813	81
136.0522	622
136.0832	38
136.1043	14
136.1591	11
136.5662	12
136.789	15
137.061	212
138.0709	106
139.0747	124
139.3714	12
142.3752	11
143.088	79
144.0596	30
145.0665	48
146.0686	17
147.04	32
147.0786	52
148.0505	304
148.0673	15
148.0854	17
148.7836	11
149.0605	135
151.076	218
151.1031	16
151.1263	11
152.0819	32
153.0995	14
159.0451	31
160.095	19
161.0664	20
161.0963	79
162.0708	24
163.0728	78
164.05	19
164.0844	76
170.0796	11
171.0809	187
171.1267	14
172.0536	16
173.0609	148
174.0636	42
174.0918	14
174.5818	29
175.0779	36
185.0958	126
186.1031	18
187.0755	43
187.0855	22
188.084	700
188.1305	35
188.1551	13
188.2104	13
189.0905	527
190.0343	13
199.0785	11
200.0843	11
201.0967	41
201.1176	16
202.1059	26
203.1063	999
203.1417	27
203.1709	17
203.2401	13
204.11	22
204.1207	50
206.8654	30
219.1378	16
220.7862	13
228.2425	13
