Mass spectrum: Karanjin; LC-APCI-QTOF; MS; POSITIVE
Name: Karanjin
Formula: C18H12O4
Exact mass: 292.073559
SMILES: COC1=C(OC2=C(C1=O)C=CC3=C2C=CO3)C4=CC=CC=C4
InChI: InChI=1S/C18H12O4/c1-20-18-15(19)13-7-8-14-12(9-10-21-14)17(13)22-16(18)11-5-3-2-4-6-11/h2-10H,1H3
Instrument: Agilent 1200 RRLC; Agilent 6520 QTOF
Instrument type: LC-APCI-QTOF
Ms type: MS
Ion mode: POSITIVE
Column name: Agilent C8 Cartridge Column 2.1X30mm 3.5 micron (guard); Agilent SB-Aq 2.1x50mm 1.8 micron (analytical)
Retention time: 9.765
m/z	relative intensity
293.0808765	999
