Mass spectrum: 6-Hydroxy-4-methylcoumarin, 6-Hydroxy-4-methyl-2-benzopyrone; LC-ESI-QTOF; MS2; CE 20 ev; [M-H]-
Name: 6-Hydroxy-4-methylcoumarin, 6-Hydroxy-4-methyl-2-benzopyrone
Formula: C10H8O3
Exact mass: 176.047344
SMILES: CC1=CC(=O)OC2=C1C=C(C=C2)O
InChI: InChI=1S/C10H8O3/c1-6-4-10(12)13-9-3-2-7(11)5-8(6)9/h2-5,11H,1H3
Instrument: Agilent 1200 RRLC; Agilent 6520 QTOF
Instrument type: LC-ESI-QTOF
Ms type: MS2
Ion mode: NEGATIVE
Collision energy: 20 ev
Column name: Agilent C8 Cartridge Column 2.1X30mm 3.5 micron (guard); Agilent SB-Aq 2.1x50mm 1.8 micron (analytical)
Retention time: 4.852
Base peak: 175
Precursor m/z: 175.0400
Precursor type: [M-H]-
m/z	relative intensity
101.0398	6
101.0475	2
102.0468	14
102.0547	2
103.0553	32
103.0796	2
104.0265	4
105.0338	10
107.0508	5
108.0255	10
109.0296	20
119.0503	213
119.073	3
119.0864	6
119.1063	2
119.1508	3
119.2757	1
121.0286	7
129.0332	25
130.0401	10
130.0525	3
131.0504	845
131.0787	14
131.0858	10
131.1043	15
131.125	4
131.1564	13
131.19	3
131.238	2
131.2621	2
131.2932	2
131.3198	2
131.3398	1
131.3524	2
131.3824	2
131.3933	2
131.4183	2
131.4477	3
131.4749	2
131.499	3
131.5417	2
131.577	2
131.7196	2
132.022	41
132.0567	2
132.3746	2
133.0286	42
133.046	6
145.0279	16
146.0358	41
146.0598	3
147.045	520
147.0713	2
147.0836	15
147.1009	8
147.1164	6
147.1354	3
147.1587	9
147.1853	4
147.2055	3
147.2859	2
147.3117	2
147.3411	2
147.3693	3
147.4201	2
147.4427	2
147.4892	2
147.5784	2
147.6994	2
147.8721	3
148.0756	2
157.0295	3
158.0367	7
160.0161	368
160.0549	13
160.0744	5
160.1034	5
160.1332	5
160.1798	2
160.4085	2
160.4264	2
160.7355	2
173.0226	2
174.0313	87
174.0694	5
174.1548	2
174.2326	2
174.2734	2
174.9265	2
175.0397	999
