Mass spectrum: trans-Zeatin; LC-ESI-QTOF; MS2; CE 10 ev; [M+H]+
Name: trans-Zeatin
Formula: C10H13N5O
Exact mass: 219.11201
SMILES: C/C(=C\CNC1=NC=NC2=C1NC=N2)/CO
InChI: InChI=1S/C10H13N5O/c1-7(4-16)2-3-11-9-8-10(13-5-12-8)15-6-14-9/h2,5-6,16H,3-4H2,1H3,(H2,11,12,13,14,15)/b7-2+
Instrument: Agilent 1200 RRLC; Agilent 6520 QTOF
Instrument type: LC-ESI-QTOF
Ms type: MS2
Ion mode: POSITIVE
Collision energy: 10 ev
Column name: Agilent C8 Cartridge Column 2.1X30mm 3.5 micron (guard); Agilent SB-Aq 2.1x50mm 1.8 micron (analytical)
Retention time: 3.258
Base peak: 136
Precursor m/z: 220.1193
Precursor type: [M+H]+
m/z	relative intensity
119.0405	12
136.0611	999
136.0959	35
136.1198	14
136.1693	17
148.0596	156
159.0637	10
175.0952	9
185.0803	72
202.1066	263
202.1221	8
202.1425	15
220.1176	575
