Mass spectrum: Colchicine; LC-ESI-QTOF; MS2; CE 40 ev; [M+H]+
Name: Colchicine
Formula: C22H25NO6
Exact mass: 399.168188
SMILES: CC(=O)NC1CCC2=CC(=C(C(=C2C3=CC=C(C(=O)C=C13)OC)OC)OC)OC
InChI: InChI=1S/C22H25NO6/c1-12(24)23-16-8-6-13-10-19(27-3)21(28-4)22(29-5)20(13)14-7-9-18(26-2)17(25)11-15(14)16/h7,9-11,16H,6,8H2,1-5H3,(H,23,24)
Instrument: Agilent 1200 RRLC; Agilent 6520 QTOF
Instrument type: LC-ESI-QTOF
Ms type: MS2
Ion mode: POSITIVE
Collision energy: 40 ev
Column name: Agilent C8 Cartridge Column 2.1X30mm 3.5 micron (guard); Agilent SB-Aq 2.1x50mm 1.8 micron (analytical)
Retention time: 7.217
Base peak: 267
Precursor m/z: 400.1755
Precursor type: [M+H]+
m/z	relative intensity
150.0684	79
152.066	109
161.0565	151
165.0703	106
167.0836	79
175.0561	132
176.066	170
176.0834	253
179.086	121
180.0477	106
181.0591	83
181.0811	181
181.0908	151
188.0752	87
192.0742	90
192.2545	75
194.0657	109
195.0841	188
197.0846	87
203.0866	139
206.0757	226
207.0886	162
208.0543	94
208.0833	90
209.0507	94
209.0987	196
211.0816	79
211.1043	102
212.0805	98
212.091	79
214.0653	109
218.0792	87
219.0704	151
219.0843	373
220.0856	298
221.0943	124
222.0617	132
223.0781	124
224.0799	569
225.082	181
225.0983	162
225.1105	102
227.0645	162
227.1044	162
230.1171	87
233.0465	128
234.0662	113
234.1098	87
235.0724	358
236.0797	98
236.0959	158
237.0872	347
238.1002	90
239.1042	547
240.0762	211
240.105	98
241.0788	106
241.0917	271
242.0741	128
243.0691	87
243.1083	102
247.0709	162
247.0922	207
248.0761	132
249.0878	181
249.1091	166
250.0545	94
250.091	351
250.1344	106
251.0676	656
251.0964	268
251.1096	188
252.0793	637
252.1038	204
252.12	158
253.1009	109
253.1209	117
254.0934	90
254.1144	121
255.0307	83
255.0628	222
255.1014	173
255.1155	94
256.0672	113
256.0885	79
256.1039	98
256.1353	102
257.1171	75
262.0602	83
262.0916	75
263.0695	139
263.0838	226
264.0809	79
264.1048	271
265.0858	867
266.0918	147
266.127	106
267.0988	999
267.1253	83
268.0861	83
268.1021	106
269.0774	87
269.1114	102
270.0825	256
270.0955	79
270.1118	139
271.09	166
277.0818	211
278.0827	339
279.0671	550
279.093	162
280.0901	121
280.1047	79
280.122	121
281.1089	245
282.0797	90
282.1179	479
283.0468	113
283.0993	509
283.1409	90
284.1074	219
285.07	151
285.1032	98
286.1047	166
287.091	302
292.0944	79
293.1018	173
294.0806	317
294.1035	222
295.0935	942
295.1239	226
296.0693	147
296.0934	170
296.1259	83
297.1074	294
298.0821	94
298.1103	128
298.1293	90
299.1189	98
300.1184	532
302.0799	117
307.102	173
308.0992	121
308.1175	211
309.1003	147
309.1203	147
310.0985	181
310.1166	324
311.0893	792
314.105	347
314.1419	109
323.1119	166
324.1297	271
325.1036	166
326.1059	102
326.1322	136
328.1168	226
339.1369	192
340.1511	79
342.1323	253
343.1353	79
