Mass spectrum: Matrine; LC-APCI-QTOF; MS; POSITIVE
Name: Matrine
Formula: C15H24N2O
Exact mass: 248.188863
SMILES: C1CC2C3CCCN4C3C(CCC4)CN2C(=O)C1
InChI: InChI=1S/C15H24N2O/c18-14-7-1-6-13-12-5-3-9-16-8-2-4-11(15(12)16)10-17(13)14/h11-13,15H,1-10H2
Instrument: Agilent 1200 RRLC; Agilent 6520 QTOF
Instrument type: LC-APCI-QTOF
Ms type: MS
Ion mode: POSITIVE
Column name: Agilent C8 Cartridge Column 2.1X30mm 3.5 micron (guard); Agilent SB-Aq 2.1x50mm 1.8 micron (analytical)
Retention time: 1.700
m/z	relative intensity
249.1961765	999
