Mass spectrum: 2-(4-chlorophenyl)-1-(2,4,6-trihydroxyphenyl)ethanone; LC-ESI-QTOF; MS2; CE 40 ev; [M-H]-
Name: 2-(4-chlorophenyl)-1-(2,4,6-trihydroxyphenyl)ethanone
Formula: C14H11ClO4
Exact mass: 278.034587
SMILES: C1=CC(=CC=C1CC(=O)C2=C(C=C(C=C2O)O)O)Cl
InChI: InChI=1S/C14H11ClO4/c15-9-3-1-8(2-4-9)5-11(17)14-12(18)6-10(16)7-13(14)19/h1-4,6-7,16,18-19H,5H2
Instrument: Agilent 1200 RRLC; Agilent 6520 QTOF
Instrument type: LC-ESI-QTOF
Ms type: MS2
Ion mode: NEGATIVE
Collision energy: 40 ev
Column name: Agilent C8 Cartridge Column 2.1X30mm 3.5 micron (guard); Agilent SB-Aq 2.1x50mm 1.8 micron (analytical)
Retention time: 7.994
Base peak: 107
Precursor m/z: 277.0273
Precursor type: [M-H]-
m/z	relative intensity
107.0136	999
107.0443	36
107.0655	17
107.1114	18
107.2146	7
116.5051	7
124.0184	47
125.018	339
125.0462	21
125.185	7
134.9957	10
148.0098	13
149.0163	148
151.001	498
151.0295	8
151.0385	28
151.1195	7
151.211	7
151.4252	6
151.5023	13
153.0344	13
161.0188	17
167.0322	10
167.0464	11
173.0149	20
177.0153	7
181.0352	8
185.0142	7
187.0224	7
189.0141	24
190.0139	10
191.0289	93
191.0554	9
193.0074	26
195.0481	25
198.3986	9
206.5613	25
207.0251	13
215.024	41
217.0114	13
218.015	18
222.0316	16
231.0126	17
233.0419	12
258.0082	10
