Mass spectrum: Prazosin; LC-ESI-QTOF; MS2; CE 40 ev; [M+H]+
Name: Prazosin
Formula: C19H21N5O4
Exact mass: 383.159354
SMILES: COC1=C(C=C2C(=C1)C(=NC(=N2)N3CCN(CC3)C(=O)C4=CC=CO4)N)OC
InChI: InChI=1S/C19H21N5O4/c1-26-15-10-12-13(11-16(15)27-2)21-19(22-17(12)20)24-7-5-23(6-8-24)18(25)14-4-3-9-28-14/h3-4,9-11H,5-8H2,1-2H3,(H2,20,21,22)
Instrument: Agilent 1200 RRLC; Agilent 6520 QTOF
Instrument type: LC-ESI-QTOF
Ms type: MS2
Ion mode: POSITIVE
Collision energy: 40 ev
Column name: Agilent C8 Cartridge Column 2.1X30mm 3.5 micron (guard); Agilent SB-Aq 2.1x50mm 1.8 micron (analytical)
Retention time: 5.595
Base peak: 231
Precursor m/z: 384.1667
Precursor type: [M+H]+
m/z	relative intensity
120.045	113
138.055	882
138.0864	37
150.0507	24
164.0671	100
164.0714	207
174.0917	52
177.0669	39
186.0682	34
188.0431	71
189.0578	26
189.0678	36
202.0876	45
203.0915	357
204.0726	238
205.0735	58
205.0828	39
217.064	26
220.0864	40
221.1051	95
229.0683	86
230.0906	26
231.0857	999
231.1362	36
232.091	334
233.1039	167
243.101	31
245.1069	113
247.117	766
247.1592	34
248.1033	33
257.1013	68
258.0917	25
268.0899	30
272.1159	33
274.1194	34
299.0804	30
300.1083	52
322.1293	54
325.0837	48
340.1392	27
341.1197	44
350.1249	272
366.1532	107
368.1337	224
369.1424	38
384.1446	25
384.1755	25
