Mass spectrum: L-Tryptophan; LC-ESI-QTOF; MS2; CE 20 ev; [M+H]+
Name: L-Tryptophan
Formula: C11H12N2O2
Exact mass: 204.089878
SMILES: C1=CC=C2C(=C1)C(=CN2)CC(C(=O)O)N
InChI: InChI=1S/C11H12N2O2/c12-9(11(14)15)5-7-6-13-10-4-2-1-3-8(7)10/h1-4,6,9,13H,5,12H2,(H,14,15)
Instrument: Agilent 1200 RRLC; Agilent 6520 QTOF
Instrument type: LC-ESI-QTOF
Ms type: MS2
Ion mode: POSITIVE
Collision energy: 20 ev
Column name: Agilent C8 Cartridge Column 2.1X30mm 3.5 micron (guard); Agilent SB-Aq 2.1x50mm 1.8 micron (analytical)
Retention time: 1.260
Base peak: 118
Precursor m/z: 205.0972
Precursor type: [M+H]+
m/z	relative intensity
115.0536	117
117.0606	28
117.0692	42
118.065	999
118.0935	21
118.1009	26
127.0545	30
130.0613	22
130.0663	31
132.0796	185
142.0665	81
143.0735	119
144.0792	307
145.0072	29
146.0597	961
146.0943	28
159.0912	95
170.0575	154
188.0712	81
