Mass spectrum: Mangostin; LC-ESI-QTOF; MS2; CE 40 ev; [M-H]-
Name: Mangostin
Formula: C24H26O6
Exact mass: 410.172939
SMILES: CC(=CCC1=C(C=C2C(=C1O)C(=O)C3=C(C(=C(C=C3O2)O)OC)CC=C(C)C)O)C
InChI: InChI=1S/C24H26O6/c1-12(2)6-8-14-16(25)10-19-21(22(14)27)23(28)20-15(9-7-13(3)4)24(29-5)17(26)11-18(20)30-19/h6-7,10-11,25-27H,8-9H2,1-5H3
Instrument: Agilent 1200 RRLC; Agilent 6520 QTOF
Instrument type: LC-ESI-QTOF
Ms type: MS2
Ion mode: NEGATIVE
Collision energy: 40 ev
Column name: Agilent C8 Cartridge Column 2.1X30mm 3.5 micron (guard); Agilent SB-Aq 2.1x50mm 1.8 micron (analytical)
Retention time: 11.171
Base peak: 351
Precursor m/z: 409.1656
Precursor type: [M-H]-
m/z	relative intensity
121.0277	39
173.0624	27
191.6873	35
235.2655	25
255.0425	34
256.0374	98
267.0266	48
268.0343	41
271.0372	27
276.3881	32
282.0166	74
283.0225	127
283.0633	40
284.0327	63
291.0507	27
295.0216	99
296.0301	51
296.0453	46
298.0732	26
305.039	29
306.0493	74
307.0301	329
308.0293	75
310.7789	29
311.0963	351
311.166	28
318.2624	32
319.0642	36
321.0365	27
321.0641	42
324.0549	34
324.0779	29
331.0603	33
333.2949	27
337.0599	40
339.0887	488
339.1285	34
340.8808	33
344.405	28
351.0853	999
351.1386	72
351.1849	28
353.0983	26
361.1112	25
362.1108	50
375.1192	158
377.139	231
393.1402	63
