Mass spectrum: Rauwolscine; LC-ESI-QTOF; MS2; CE 10 ev; [M-H]-
Name: Rauwolscine
Formula: C21H26N2O3
Exact mass: 354.194343
SMILES: COC(=O)[C@@H]1[C@H](CC[C@H]2[C@@H]1C[C@H]3C4=C(CCN3C2)C5=CC=CC=C5N4)O
InChI: InChI=1S/C21H26N2O3/c1-26-21(25)19-15-10-17-20-14(13-4-2-3-5-16(13)22-20)8-9-23(17)11-12(15)6-7-18(19)24/h2-5,12,15,17-19,22,24H,6-11H2,1H3/t12-,15+,17+,18+,19+/m1/s1
Instrument: Agilent 1200 RRLC; Agilent 6520 QTOF
Instrument type: LC-ESI-QTOF
Ms type: MS2
Ion mode: NEGATIVE
Collision energy: 10 ev
Column name: Agilent C8 Cartridge Column 2.1X30mm 3.5 micron (guard); Agilent SB-Aq 2.1x50mm 1.8 micron (analytical)
Retention time: 3.317
Base peak: 353
Precursor m/z: 353.1870
Precursor type: [M-H]-
m/z	relative intensity
126.0999	7
156.0791	13
178.0322	11
179.02	7
191.0553	103
191.0981	7
197.9346	10
215.0469	9
227.6573	9
277.3046	7
293.1683	21
303.1383	13
321.1723	28
321.211	7
352.0821	35
353.0875	38
353.1866	999
