Mass spectrum: 5-Methoxyflavanone; LC-ESI-QTOF; MS2; CE 10 ev; [M+H]+
Name: 5-Methoxyflavanone
Formula: C16H14O3
Exact mass: 254.094294
SMILES: COC1=CC=CC2=C1C(=O)CC(O2)C3=CC=CC=C3
InChI: InChI=1S/C16H14O3/c1-18-13-8-5-9-14-16(13)12(17)10-15(19-14)11-6-3-2-4-7-11/h2-9,15H,10H2,1H3
Instrument: Agilent 1200 RRLC; Agilent 6520 QTOF
Instrument type: LC-ESI-QTOF
Ms type: MS2
Ion mode: POSITIVE
Collision energy: 10 ev
Column name: Agilent C8 Cartridge Column 2.1X30mm 3.5 micron (guard); Agilent SB-Aq 2.1x50mm 1.8 micron (analytical)
Retention time: 8.284
Base peak: 151
Precursor m/z: 255.1016
Precursor type: [M+H]+
m/z	relative intensity
108.0246	7
131.0481	10
136.0141	16
151.0384	999
151.0754	27
151.098	6
151.1526	11
176.9883	143
237.0887	6
255.1008	492
255.1442	17
