Mass spectrum: Verapamil; LC-ESI-QTOF; MS2; CE 20 ev; [M+H]+
Name: Verapamil
Formula: C27H38N2O4
Exact mass: 454.283158
SMILES: CC(C)C(CCCN(C)CCC1=CC(=C(C=C1)OC)OC)(C#N)C2=CC(=C(C=C2)OC)OC
InChI: InChI=1S/C27H38N2O4/c1-20(2)27(19-28,22-10-12-24(31-5)26(18-22)33-7)14-8-15-29(3)16-13-21-9-11-23(30-4)25(17-21)32-6/h9-12,17-18,20H,8,13-16H2,1-7H3
Instrument: Agilent 1200 RRLC; Agilent 6520 QTOF
Instrument type: LC-ESI-QTOF
Ms type: MS2
Ion mode: POSITIVE
Collision energy: 20 ev
Column name: Agilent C8 Cartridge Column 2.1X30mm 3.5 micron (guard); Agilent SB-Aq 2.1x50mm 1.8 micron (analytical)
Retention time: 6.649
Base peak: 165
Precursor m/z: 455.2905
Precursor type: [M+H]+
m/z	relative intensity
103.0569	7
105.0705	11
133.0629	13
134.0753	5
135.0397	5
150.0668	65
151.0685	6
165.09	999
165.1263	41
165.1514	11
165.1752	5
165.208	14
166.0963	7
218.1189	6
260.1605	43
260.1682	13
261.16	8
303.2046	260
303.226	6
303.254	9
303.279	7
455.2891	825
