Mass spectrum: 5,7-Dimethoxy-4-methylcoumarin; LC-ESI-QTOF; MS2; CE 40 ev; [M+H]+
Name: 5,7-Dimethoxy-4-methylcoumarin
Formula: C12H12O4
Exact mass: 220.073559
SMILES: CC1=CC(=O)OC2=CC(=CC(=C12)OC)OC
InChI: InChI=1S/C12H12O4/c1-7-4-11(13)16-10-6-8(14-2)5-9(15-3)12(7)10/h4-6H,1-3H3
Instrument: Agilent 1200 RRLC; Agilent 6520 QTOF
Instrument type: LC-ESI-QTOF
Ms type: MS2
Ion mode: POSITIVE
Collision energy: 40 ev
Column name: Agilent C8 Cartridge Column 2.1X30mm 3.5 micron (guard); Agilent SB-Aq 2.1x50mm 1.8 micron (analytical)
Retention time: 8.049
Base peak: 163
Precursor m/z: 221.0809
Precursor type: [M+H]+
m/z	relative intensity
102.0443	45
103.0537	350
104.0633	63
105.0705	127
107.0496	241
109.0643	80
115.0546	113
116.0611	82
117.0362	73
118.0361	43
118.0426	43
119.0504	54
120.0591	41
121.0648	184
125.0581	52
131.0404	59
131.0475	109
132.0588	50
135.0432	418
135.0741	39
137.0584	50
147.0456	200
148.0533	114
149.0222	36
149.0604	252
159.041	57
163.038	999
176.0523	48
177.0538	213
178.0629	191
205.0492	148
206.0558	70
