Mass spectrum: Santonin; LC-ESI-QTOF; MS2; CE 10 ev; [M+H]+
Name: Santonin
Formula: C15H18O3
Exact mass: 246.125594
SMILES: CC1C2CCC3(C=CC(=O)C(=C3C2OC1=O)C)C
InChI: InChI=1S/C15H18O3/c1-8-10-4-6-15(3)7-5-11(16)9(2)12(15)13(10)18-14(8)17/h5,7-8,10,13H,4,6H2,1-3H3
Instrument: Agilent 1200 RRLC; Agilent 6520 QTOF
Instrument type: LC-ESI-QTOF
Ms type: MS2
Ion mode: POSITIVE
Collision energy: 10 ev
Column name: Agilent C8 Cartridge Column 2.1X30mm 3.5 micron (guard); Agilent SB-Aq 2.1x50mm 1.8 micron (analytical)
Retention time: 6.741
Base peak: 173
Precursor m/z: 247.1329
Precursor type: [M+H]+
m/z	relative intensity
131.0805	20
135.0787	87
145.1011	96
158.0716	29
161.0875	15
161.1008	13
172.0882	12
173.0947	999
173.1267	26
173.135	21
173.217	16
174.1019	23
186.0999	16
191.1074	14
201.1234	91
201.1403	16
229.1171	25
247.1431	42
