Mass spectrum: N-2-Acetylguanine; LC-ESI-QTOF; MS; NEGATIVE
Name: N-2-Acetylguanine
Formula: C7H7N5O2
Exact mass: 193.059974
SMILES: CC(=O)NC1=NC(=O)C2=C(N1)N=CN2
InChI: InChI=1S/C7H7N5O2/c1-3(13)10-7-11-5-4(6(14)12-7)8-2-9-5/h2H,1H3,(H3,8,9,10,11,12,13,14)
Instrument: Agilent 1200 RRLC; Agilent 6520 QTOF
Instrument type: LC-ESI-QTOF
Ms type: MS
Ion mode: NEGATIVE
Column name: Agilent C8 Cartridge Column 2.1X30mm 3.5 micron (guard); Agilent SB-Aq 2.1x50mm 1.8 micron (analytical)
Retention time: 1.986
m/z	relative intensity
192.0527235	999
