Mass spectrum: Hydrocortisone; LC-ESI-QTOF; MS2; CE 20 ev; [M+H]+
Name: (8S,9S,10R,11S,13S,14S,17R)-11,17-dihydroxy-17-(2-hydroxyacetyl)-10,13-dimethyl-2,6,7,8,9,11,12,14,15,16-decahydro-1H-cyclopenta[a]phenanthren-3-one
Name: Cortisol
Name: Hydrocortisone
Formula: C21H30O5
Exact mass: 362.20932
SMILES: C[C@]12CCC(=O)C=C1CC[C@@H]3[C@@H]2[C@H](C[C@]4([C@H]3CC[C@@]4(C(=O)CO)O)C)O
InChI: InChI=1S/C21H30O5/c1-19-7-5-13(23)9-12(19)3-4-14-15-6-8-21(26,17(25)11-22)20(15,2)10-16(24)18(14)19/h9,14-16,18,22,24,26H,3-8,10-11H2,1-2H3/t14-,15-,16-,18+,19-,20-,21-/m0/s1
Instrument: Agilent 1200 RRLC; Agilent 6520 QTOF
Instrument type: LC-ESI-QTOF
Ms type: MS2
Ion mode: POSITIVE
Collision energy: 20 ev
Column name: Agilent C8 Cartridge Column 2.1X30mm 3.5 micron (guard); Agilent SB-Aq 2.1x50mm 1.8 micron (analytical)
Retention time: 7.353
Base peak: 121
Precursor m/z: 363.2166
Precursor type: [M+H]+
m/z	relative intensity
121.0635	999
123.0808	251
135.0781	123
147.0781	204
147.1222	210
157.0996	216
159.1185	169
161.0964	164
173.0888	117
175.1063	146
185.1299	117
187.1092	280
209.1305	140
223.1495	158
225.1254	245
229.1616	117
241.1587	181
265.1536	123
267.1719	175
269.1917	158
281.1893	140
297.1758	164
309.185	397
327.1977	298
363.2193	204
