Mass spectrum: Solasodine; LC-ESI-QTOF; MS2; CE 40 ev; [M+H]+
Name: Solasodine
Formula: C27H43NO2
Exact mass: 413.32938
SMILES: CC1CCC2(C(C3C(O2)CC4C3(CCC5C4CC=C6C5(CCC(C6)O)C)C)C)NC1
InChI: InChI=1S/C27H43NO2/c1-16-7-12-27(28-15-16)17(2)24-23(30-27)14-22-20-6-5-18-13-19(29)8-10-25(18,3)21(20)9-11-26(22,24)4/h5,16-17,19-24,28-29H,6-15H2,1-4H3
Instrument: Agilent 1200 RRLC; Agilent 6520 QTOF
Instrument type: LC-ESI-QTOF
Ms type: MS2
Ion mode: POSITIVE
Collision energy: 40 ev
Column name: Agilent C8 Cartridge Column 2.1X30mm 3.5 micron (guard); Agilent SB-Aq 2.1x50mm 1.8 micron (analytical)
Retention time: 8.831
Base peak: 157
Precursor m/z: 414.3367
Precursor type: [M+H]+
m/z	relative intensity
105.0681	343
107.0852	81
107.0942	58
109.0999	236
114.0913	56
117.0719	102
119.0882	122
121.1019	269
124.1138	170
126.126	214
131.0852	178
133.0987	211
141.0694	66
142.0786	125
143.0863	145
144.0922	56
145.1001	364
147.1161	531
151.112	86
157.0998	999
159.117	397
163.1329	51
171.1113	69
171.1189	168
173.1322	66
175.1116	201
183.1179	74
185.1323	69
197.1293	119
199.1448	66
211.142	127
225.159	51
253.194	630
271.1999	109
396.324	473
396.3809	51
414.3265	170
