Mass spectrum: Nordihydroguaiaretic acid; LC-ESI-QTOF; MS2; CE 40 ev; [M-H]-
Name: Nordihydroguaiaretic acid
Formula: C18H22O4
Exact mass: 302.151809
SMILES: CC(CC1=CC(=C(C=C1)O)O)C(C)CC2=CC(=C(C=C2)O)O
InChI: InChI=1S/C18H22O4/c1-11(7-13-3-5-15(19)17(21)9-13)12(2)8-14-4-6-16(20)18(22)10-14/h3-6,9-12,19-22H,7-8H2,1-2H3
Instrument: Agilent 1200 RRLC; Agilent 6520 QTOF
Instrument type: LC-ESI-QTOF
Ms type: MS2
Ion mode: NEGATIVE
Collision energy: 40 ev
Column name: Agilent C8 Cartridge Column 2.1X30mm 3.5 micron (guard); Agilent SB-Aq 2.1x50mm 1.8 micron (analytical)
Retention time: 7.905
Base peak: 122
Precursor m/z: 301.1445
Precursor type: [M-H]-
m/z	relative intensity
108.0221	245
109.0285	229
110.0334	17
110.3874	10
119.0351	38
121.026	18
122.0364	999
122.0703	14
122.0841	20
122.1397	18
123.0461	120
135.0441	78
149.058	64
163.0754	11
169.5895	12
177.089	29
273.1472	10
301.143	22
