Mass spectrum: Canadine; LC-ESI-QTOF; MS2; CE 40 ev; [M+H]+
Name: Canadine
Formula: C20H21NO4
Exact mass: 339.147058
SMILES: COC1=C(C2=C(CC3C4=CC5=C(C=C4CCN3C2)OCO5)C=C1)OC
InChI: InChI=1S/C20H21NO4/c1-22-17-4-3-12-7-16-14-9-19-18(24-11-25-19)8-13(14)5-6-21(16)10-15(12)20(17)23-2/h3-4,8-9,16H,5-7,10-11H2,1-2H3
Instrument: Agilent 1200 RRLC; Agilent 6520 QTOF
Instrument type: LC-ESI-QTOF
Ms type: MS2
Ion mode: POSITIVE
Collision energy: 40 ev
Column name: Agilent C8 Cartridge Column 2.1X30mm 3.5 micron (guard); Agilent SB-Aq 2.1x50mm 1.8 micron (analytical)
Retention time: 5.273
Base peak: 176
Precursor m/z: 340.1544
Precursor type: [M+H]+
m/z	relative intensity
118.0635	77
119.048	89
121.0595	66
135.0445	52
149.0596	131
150.0658	64
161.0463	39
176.0693	999
176.1055	60
