Mass spectrum: Skimmianine; LC-ESI-QTOF; MS2; CE 40 ev; [M+H]+
Name: Skimmianine
Formula: C14H13NO4
Exact mass: 259.084458
SMILES: COC1=C(C2=C(C=C1)C(=C3C=COC3=N2)OC)OC
InChI: InChI=1S/C14H13NO4/c1-16-10-5-4-8-11(13(10)18-3)15-14-9(6-7-19-14)12(8)17-2/h4-7H,1-3H3
Instrument: Agilent 1200 RRLC; Agilent 6520 QTOF
Instrument type: LC-ESI-QTOF
Ms type: MS2
Ion mode: POSITIVE
Collision energy: 40 ev
Column name: Agilent C8 Cartridge Column 2.1X30mm 3.5 micron (guard); Agilent SB-Aq 2.1x50mm 1.8 micron (analytical)
Retention time: 7.701
Base peak: 184
Precursor m/z: 260.0918
Precursor type: [M+H]+
m/z	relative intensity
101.0383	132
103.0427	21
114.0472	26
115.0549	55
116.0439	19
116.0503	39
117.0594	44
118.0612	44
127.0496	27
128.0487	515
128.0811	25
130.0273	23
130.0619	23
131.0371	34
140.0509	18
142.0633	96
144.0461	78
145.0514	111
146.0585	47
156.0444	839
156.083	29
158.0571	69
159.0285	57
160.0344	25
169.0477	78
170.0617	105
172.0383	103
173.0453	50
174.0537	89
184.0389	999
184.0728	66
184.1025	20
185.0454	18
186.051	23
187.0246	149
197.0477	17
198.0543	99
199.0635	482
199.1036	28
200.0349	106
201.0416	349
201.0843	19
202.0489	410
211.0175	17
212.0334	61
213.0407	26
216.0631	181
227.0532	108
228.0272	74
228.065	23
229.0339	117
230.0424	99
242.044	66
244.0533	59
