Mass spectrum: Digitoxin; LC-ESI-QTOF; MS2; CE 20 ev; [M+CH3COOH-H]-
Name: Digitoxin
Formula: C41H64O13
Exact mass: 764.434692
SMILES: CC1C(C(CC(O1)OC2C(OC(CC2O)OC3C(OC(CC3O)OC4CCC5(C(C4)CCC6C5CCC7(C6(CCC7C8=CC(=O)OC8)O)C)C)C)C)O)O
InChI: InChI=1S/C41H64O13/c1-20-36(46)29(42)16-34(49-20)53-38-22(3)51-35(18-31(38)44)54-37-21(2)50-33(17-30(37)43)52-25-8-11-39(4)24(15-25)6-7-28-27(39)9-12-40(5)26(10-13-41(28,40)47)23-14-32(45)48-19-23/h14,20-22,24-31,33-38,42-44,46-47H,6-13,15-19H2,1-5H3
Instrument: Agilent 1200 RRLC; Agilent 6520 QTOF
Instrument type: LC-ESI-QTOF
Ms type: MS2
Ion mode: NEGATIVE
Collision energy: 20 ev
Column name: Agilent C8 Cartridge Column 2.1X30mm 3.5 micron (guard); Agilent SB-Aq 2.1x50mm 1.8 micron (analytical)
Retention time: 10.830
Base peak: 633
Precursor m/z: 823.4480
Precursor type: [M+CH3COOH-H]-
m/z	relative intensity
111.0451	99
129.0542	67
217.0055	42
350.0394	11
373.2494	29
459.3181	21
503.2223	14
503.2989	661
503.4018	29
503.7515	15
503.9657	13
504.2966	22
615.356	95
633.3598	999
633.4839	36
633.5917	14
633.6614	15
633.7449	12
633.7914	11
634.1146	11
634.2352	16
634.3358	15
634.3675	14
634.4113	20
634.8432	14
727.3801	14
745.4036	102
745.4578	34
745.4978	12
763.4214	954
763.5377	33
763.6027	17
763.6772	13
763.7994	16
763.8766	13
763.9217	11
764.0046	22
764.2029	13
764.2637	16
764.4413	49
764.5529	11
764.6491	14
764.7202	11
