Mass spectrum: (+/-)-Catechin; LC-ESI-QTOF; MS2; CE 40 ev; [M-H]-
Name: (+/-)-Catechin
Name: Catechin
Formula: C15H14O6
Exact mass: 290.079038
SMILES: C1C(C(OC2=CC(=CC(=C21)O)O)C3=CC(=C(C=C3)O)O)O
InChI: InChI=1S/C15H14O6/c16-8-4-11(18)9-6-13(20)15(21-14(9)5-8)7-1-2-10(17)12(19)3-7/h1-5,13,15-20H,6H2
Instrument: Agilent 1200 RRLC; Agilent 6520 QTOF
Instrument type: LC-ESI-QTOF
Ms type: MS2
Ion mode: NEGATIVE
Collision energy: 40 ev
Column name: Agilent C8 Cartridge Column 2.1X30mm 3.5 micron (guard); Agilent SB-Aq 2.1x50mm 1.8 micron (analytical)
Retention time: 2.546
Base peak: 123
Precursor m/z: 289.0717
Precursor type: [M-H]-
m/z	relative intensity
105.0358	94
108.0185	196
109.03	674
113.0586	39
121.0302	145
122.0379	149
123.0105	46
123.0453	999
124.0146	57
125.0224	113
135.0448	150
137.0212	138
143.0532	62
145.028	58
146.0367	51
146.0458	53
149.0665	44
150.0304	57
153.25	39
159.042	101
164.0085	58
164.0173	39
175.0351	41
187.041	90
203.0688	117
213.4818	35
230.8614	53
