Mass spectrum: 1,7,7-trimethylbicyclo[2.2.1]hept-2-yl 4-hydroxy-3-methoxybenzoate; LC-ESI-QTOF; MS2; CE 40 ev; [M-H]-
Name: 1,7,7-trimethylbicyclo[2.2.1]hept-2-yl 4-hydroxy-3-methoxybenzoate
Formula: C18H24O4
Exact mass: 304.167459
SMILES: CC1(C2CCC1(C(C2)OC(=O)C3=CC(=C(C=C3)O)OC)C)C
InChI: InChI=1S/C18H24O4/c1-17(2)12-7-8-18(17,3)15(10-12)22-16(20)11-5-6-13(19)14(9-11)21-4/h5-6,9,12,15,19H,7-8,10H2,1-4H3
Instrument: Agilent 1200 RRLC; Agilent 6520 QTOF
Instrument type: LC-ESI-QTOF
Ms type: MS2
Ion mode: NEGATIVE
Collision energy: 40 ev
Column name: Agilent C8 Cartridge Column 2.1X30mm 3.5 micron (guard); Agilent SB-Aq 2.1x50mm 1.8 micron (analytical)
Retention time: 10.281
Base peak: 107
Precursor m/z: 303.1602
Precursor type: [M-H]-
m/z	relative intensity
100.0822	5
107.0139	999
107.0489	21
107.0564	8
107.0817	6
107.1105	16
107.2133	6
108.021	6
108.5444	7
109.031	5
122.0366	43
123.001	12
135.9417	7
151.0022	402
151.0415	20
151.1119	18
152.0107	17
171.8587	5
246.5946	5
260.289	4
278.8015	4
288.1372	174
288.1718	11
288.1931	10
