Mass spectrum: 6-Methylflavone; LC-APCI-QTOF; MS; POSITIVE
Name: 6-Methylflavone
Formula: C16H12O2
Exact mass: 236.08373
SMILES: CC1=CC2=C(C=C1)OC(=CC2=O)C3=CC=CC=C3
InChI: InChI=1S/C16H12O2/c1-11-7-8-15-13(9-11)14(17)10-16(18-15)12-5-3-2-4-6-12/h2-10H,1H3
Instrument: Agilent 1200 RRLC; Agilent 6520 QTOF
Instrument type: LC-APCI-QTOF
Ms type: MS
Ion mode: POSITIVE
Column name: Agilent C8 Cartridge Column 2.1X30mm 3.5 micron (guard); Agilent SB-Aq 2.1x50mm 1.8 micron (analytical)
Retention time: 9.594
m/z	relative intensity
237.0909765	999
