Mass spectrum: Histidine; LC-ESI-QTOF; MS2; CE 10 ev; [M-H]-
Name: Histidine
Formula: C6H9N3O2
Exact mass: 155.069477
SMILES: C1=C(NC=N1)CC(C(=O)O)N
InChI: InChI=1S/C6H9N3O2/c7-5(6(10)11)1-4-2-8-3-9-4/h2-3,5H,1,7H2,(H,8,9)(H,10,11)
Instrument: Agilent 1200 RRLC; Agilent 6520 QTOF
Instrument type: LC-ESI-QTOF
Ms type: MS2
Ion mode: NEGATIVE
Collision energy: 10 ev
Column name: Agilent C8 Cartridge Column 2.1X30mm 3.5 micron (guard); Agilent SB-Aq 2.1x50mm 1.8 micron (analytical)
Retention time: 0.330
Base peak: 154
Precursor m/z: 154.0622
Precursor type: [M-H]-
m/z	relative intensity
100.358	2
108.0565	40
108.0917	2
109.0394	35
109.0658	2
110.047	2
110.0714	92
110.0983	3
110.1186	1
110.1706	2
110.2952	1
118.0409	20
122.9389	2
126.2602	2
136.0513	76
136.0882	3
136.4166	1
136.7616	1
137.0351	239
137.066	5
137.0739	3
137.0997	4
137.1439	4
137.1654	2
137.2203	1
137.236	1
137.2909	1
137.3346	1
137.4025	1
153.2411	1
154.0617	999
