Mass spectrum: 2-(3,4-diacetyloxyphenyl)-4-oxo-7-[3,4,5-triacetyloxy-6-(acetyloxymethyl)(2H-3 ,4,5,6-tetrahydropyran-2-yloxy)]chromen-5-yl acetate; LC-ESI-QTOF; MS2; CE 40 ev; [M+CH3COOH-H]-
Name: 2-(3,4-diacetyloxyphenyl)-4-oxo-7-[3,4,5-triacetyloxy-6-(acetyloxymethyl)(2H-3 ,4,5,6-tetrahydropyran-2-yloxy)]chromen-5-yl acetate
Formula: C35H34O18
Exact mass: 742.174514
SMILES: CC(=O)OCC1C(C(C(C(O1)OC2=CC(=C3C(=C2)OC(=CC3=O)C4=CC(=C(C=C4)OC(=O)C)OC(=O)C)OC(=O)C)OC(=O)C)OC(=O)C)OC(=O)C
InChI: InChI=1S/C35H34O18/c1-15(36)44-14-30-32(48-19(5)40)33(49-20(6)41)34(50-21(7)42)35(53-30)51-23-11-28(47-18(4)39)31-24(43)13-26(52-29(31)12-23)22-8-9-25(45-16(2)37)27(10-22)46-17(3)38/h8-13,30,32-35H,14H2,1-7H3
Instrument: Agilent 1200 RRLC; Agilent 6520 QTOF
Instrument type: LC-ESI-QTOF
Ms type: MS2
Ion mode: NEGATIVE
Collision energy: 40 ev
Column name: Agilent C8 Cartridge Column 2.1X30mm 3.5 micron (guard); Agilent SB-Aq 2.1x50mm 1.8 micron (analytical)
Retention time: 9.830
Base peak: 615
Precursor m/z: 801.1878
Precursor type: [M+CH3COOH-H]-
m/z	relative intensity
176.2507	9
179.4274	6
190.9852	7
217.0051	9
243.9458	10
244.0758	8
249.7471	10
284.029	29
284.0575	6
285.043	24
285.6377	7
369.0668	18
513.1095	21
555.0997	6
557.2129	9
573.1146	44
615.0076	12
615.1335	999
615.243	17
615.2794	12
615.3611	19
615.4308	6
615.4925	7
615.5513	6
615.604	7
615.7055	12
615.7463	12
615.8087	8
615.8867	13
615.9674	15
616.0854	7
616.1253	11
616.2097	8
616.3293	10
616.3922	9
616.4703	6
616.5805	6
616.7354	10
616.9719	6
617.0586	6
617.2406	6
617.2935	6
617.5154	6
618.5349	7
657.1479	98
657.2185	7
788.9041	6
