Mass spectrum: (+/-)-Catechin; LC-ESI-QTOF; MS2; CE 10 ev; [M-H]-
Name: (+/-)-Catechin
Name: Catechin
Formula: C15H14O6
Exact mass: 290.079038
SMILES: C1C(C(OC2=CC(=CC(=C21)O)O)C3=CC(=C(C=C3)O)O)O
InChI: InChI=1S/C15H14O6/c16-8-4-11(18)9-6-13(20)15(21-14(9)5-8)7-1-2-10(17)12(19)3-7/h1-5,13,15-20H,6H2
Instrument: Agilent 1200 RRLC; Agilent 6520 QTOF
Instrument type: LC-ESI-QTOF
Ms type: MS2
Ion mode: NEGATIVE
Collision energy: 10 ev
Column name: Agilent C8 Cartridge Column 2.1X30mm 3.5 micron (guard); Agilent SB-Aq 2.1x50mm 1.8 micron (analytical)
Retention time: 2.546
Base peak: 289
Precursor m/z: 289.0717
Precursor type: [M-H]-
m/z	relative intensity
109.0278	28
123.0437	25
125.0245	80
137.0224	60
149.034	7
151.0395	22
161.0636	14
165.0191	40
165.0438	6
167.0327	17
175.0398	10
179.0358	64
180.0389	10
187.0337	13
187.0451	8
188.0458	12
203.0678	72
205.0508	81
217.0852	13
221.0806	10
230.0549	9
245.0826	252
245.1311	15
247.0628	30
254.2385	7
271.0584	11
288.0749	11
289.0704	999
