Mass spectrum: Podocarpic acid; LC-ESI-QTOF; MS; POSITIVE
Name: Podocarpic acid
Formula: C17H22O3
Exact mass: 274.156895
SMILES: CC12CCCC(C1CCC3=C2C=C(C=C3)O)(C)C(=O)O
InChI: InChI=1S/C17H22O3/c1-16-8-3-9-17(2,15(19)20)14(16)7-5-11-4-6-12(18)10-13(11)16/h4,6,10,14,18H,3,5,7-9H2,1-2H3,(H,19,20)
Instrument: Agilent 1200 RRLC; Agilent 6520 QTOF
Instrument type: LC-ESI-QTOF
Ms type: MS
Ion mode: POSITIVE
Column name: Agilent C8 Cartridge Column 2.1X30mm 3.5 micron (guard); Agilent SB-Aq 2.1x50mm 1.8 micron (analytical)
Retention time: 8.260
m/z	relative intensity
275.1641765	898
297.146118	999
