Mass spectrum: 3,3'-Dihydroxyflavone; LC-ESI-QTOF; MS2; CE 20 ev; [M-H]-
Name: 3,3'-Dihydroxyflavone
Formula: C15H10O4
Exact mass: 254.057909
SMILES: C1=CC=C2C(=C1)C(=O)C(=C(O2)C3=CC(=CC=C3)O)O
InChI: InChI=1S/C15H10O4/c16-10-5-3-4-9(8-10)15-14(18)13(17)11-6-1-2-7-12(11)19-15/h1-8,16,18H
Instrument: Agilent 1200 RRLC; Agilent 6520 QTOF
Instrument type: LC-ESI-QTOF
Ms type: MS2
Ion mode: NEGATIVE
Collision energy: 20 ev
Column name: Agilent C8 Cartridge Column 2.1X30mm 3.5 micron (guard); Agilent SB-Aq 2.1x50mm 1.8 micron (analytical)
Retention time: 7.772
Base peak: 195
Precursor m/z: 253.0506
Precursor type: [M-H]-
m/z	relative intensity
167.05	6
169.0677	37
179.0497	69
180.0538	21
181.0667	32
195.0448	999
195.0847	35
195.1154	7
195.1388	9
195.1729	11
195.2739	5
196.0523	13
197.0604	927
197.1047	36
197.1471	11
197.1907	13
197.2278	5
197.3463	6
207.0463	57
208.0515	52
209.0624	35
210.0355	7
223.0382	25
224.0466	127
225.0552	229
225.0966	10
253.0509	237
