Mass spectrum: 6-Fluoro-DL-tryptophan; LC-ESI-QTOF; MS2; CE 10 ev; [M-H]-
Name: 6-Fluoro-DL-tryptophan
Formula: C11H11FN2O2
Exact mass: 222.080456
SMILES: C1=CC2=C(C=C1F)NC=C2CC(C(=O)O)N
InChI: InChI=1S/C11H11FN2O2/c12-7-1-2-8-6(3-9(13)11(15)16)5-14-10(8)4-7/h1-2,4-5,9,14H,3,13H2,(H,15,16)
Instrument: Agilent 1200 RRLC; Agilent 6520 QTOF
Instrument type: LC-ESI-QTOF
Ms type: MS2
Ion mode: NEGATIVE
Collision energy: 10 ev
Column name: Agilent C8 Cartridge Column 2.1X30mm 3.5 micron (guard); Agilent SB-Aq 2.1x50mm 1.8 micron (analytical)
Retention time: 1.636
Base peak: 221
Precursor m/z: 221.0732
Precursor type: [M-H]-
m/z	relative intensity
134.0416	379
134.0791	14
134.1152	5
134.1484	5
144.6846	7
146.0406	21
147.0458	20
148.0558	31
150.0686	9
160.0565	179
160.0954	12
177.0824	390
177.1204	20
177.1492	7
177.2095	7
177.5299	5
184.8658	6
191.0387	11
193.8803	5
204.045	36
221.0719	999
