Mass spectrum: Sophoricoside; LC-ESI-QTOF; MS2; CE 20 ev; [M-H]-
Name: Sophoricoside
Name: 5,7-dihydroxy-3-(4-{[(2S,3R,4S,5S,6R)-3,4,5-trihydroxy-6-(hydroxymethyl)tetrahydro-2H-pyran-2-yl]oxy}phenyl)-4H-chromen-4-one
Formula: C21H20O10
Exact mass: 432.105647
SMILES: C1=CC(=CC=C1C2=COC3=CC(=CC(=C3C2=O)O)O)OC4C(C(C(C(O4)CO)O)O)O
InChI: InChI=1S/C21H20O10/c22-7-15-18(26)19(27)20(28)21(31-15)30-11-3-1-9(2-4-11)12-8-29-14-6-10(23)5-13(24)16(14)17(12)25/h1-6,8,15,18-24,26-28H,7H2
Instrument: Agilent 1200 RRLC; Agilent 6520 QTOF
Instrument type: LC-ESI-QTOF
Ms type: MS2
Ion mode: NEGATIVE
Collision energy: 20 ev
Column name: Agilent C8 Cartridge Column 2.1X30mm 3.5 micron (guard); Agilent SB-Aq 2.1x50mm 1.8 micron (analytical)
Retention time: 5.732
Base peak: 431
Precursor m/z: 431.0983
Precursor type: [M-H]-
m/z	relative intensity
101.2607	2
132.0201	1
134.4042	1
135.0094	2
142.0399	2
157.3326	2
199.9423	3
208.7995	2
211.0376	4
212.0463	1
223.037	2
224.0489	2
226.0236	2
239.0331	5
240.0441	1
267.0243	12
268.0375	163
268.0864	3
268.1158	2
268.1298	1
268.1491	2
268.1892	2
268.2959	1
268.3272	1
268.394	1
268.4751	1
268.6113	1
268.6374	1
268.786	2
269.0345	2
269.0481	25
269.1062	1
269.2023	1
270.0467	1
283.0525	2
299.2592	2
311.0528	5
311.0743	1
323.0633	3
341.0634	2
346.2315	1
359.0934	1
381.3425	1
427.957	1
430.9905	1
431.0982	999
