Mass spectrum: Coumarin; LC-ESI-QTOF; MS2; CE 40 ev; [M+H]+
Name: Coumarin
Formula: C9H6O2
Exact mass: 146.036779
SMILES: C1=CC=C2C(=C1)C=CC(=O)O2
InChI: InChI=1S/C9H6O2/c10-9-6-5-7-3-1-2-4-8(7)11-9/h1-6H
Instrument: Agilent 1200 RRLC; Agilent 6520 QTOF
Instrument type: LC-ESI-QTOF
Ms type: MS2
Ion mode: POSITIVE
Collision energy: 40 ev
Column name: Agilent C8 Cartridge Column 2.1X30mm 3.5 micron (guard); Agilent SB-Aq 2.1x50mm 1.8 micron (analytical)
Retention time: 4.819
Base peak: 782
Precursor m/z: 147.0441
Precursor type: [M+H]+
m/z	relative intensity
423.5989	912
782.2591	999
