Mass spectrum: Dihydrocapsaicin; LC-ESI-QTOF; MS2; CE 10 ev; [M+H]+
Name: Dihydrocapsaicin
Formula: C18H29NO3
Exact mass: 307.214744
SMILES: CC(C)CCCCCCC(=O)NCC1=CC(=C(C=C1)O)OC
InChI: InChI=1S/C18H29NO3/c1-14(2)8-6-4-5-7-9-18(21)19-13-15-10-11-16(20)17(12-15)22-3/h10-12,14,20H,4-9,13H2,1-3H3,(H,19,21)
Instrument: Agilent 1200 RRLC; Agilent 6520 QTOF
Instrument type: LC-ESI-QTOF
Ms type: MS2
Ion mode: POSITIVE
Collision energy: 10 ev
Column name: Agilent C8 Cartridge Column 2.1X30mm 3.5 micron (guard); Agilent SB-Aq 2.1x50mm 1.8 micron (analytical)
Retention time: 9.379
Base peak: 137
Precursor m/z: 308.2220
Precursor type: [M+H]+
m/z	relative intensity
122.0332	10
137.0591	999
137.0915	44
137.1196	17
137.1275	10
137.1388	10
137.168	12
155.1427	12
172.1693	15
184.1674	74
