Mass spectrum: Dehydrocholic acid; LC-ESI-QTOF; MS2; CE 20 ev; [M-H]-
Name: Dehydrocholic acid
Formula: C24H34O5
Exact mass: 402.240624
SMILES: CC(CCC(=O)O)C1CCC2C1(C(=O)CC3C2C(=O)CC4C3(CCC(=O)C4)C)C
InChI: InChI=1S/C24H34O5/c1-13(4-7-21(28)29)16-5-6-17-22-18(12-20(27)24(16,17)3)23(2)9-8-15(25)10-14(23)11-19(22)26/h13-14,16-18,22H,4-12H2,1-3H3,(H,28,29)
Instrument: Agilent 1200 RRLC; Agilent 6520 QTOF
Instrument type: LC-ESI-QTOF
Ms type: MS2
Ion mode: NEGATIVE
Collision energy: 20 ev
Column name: Agilent C8 Cartridge Column 2.1X30mm 3.5 micron (guard); Agilent SB-Aq 2.1x50mm 1.8 micron (analytical)
Retention time: 8.153
Base peak: 401
Precursor m/z: 401.2333
Precursor type: [M-H]-
m/z	relative intensity
215.1474	18
218.6532	17
249.1529	77
263.1678	18
264.6473	18
287.1946	26
289.17	22
291.1595	44
313.1833	50
331.1898	183
383.2229	36
401.2307	999
