Mass spectrum: Histidinol; LC-ESI-QTOF; MS; NEGATIVE
Name: Histidinol
Formula: C6H11N3O
Exact mass: 141.090212
SMILES: C1=C(NC=N1)CC(CO)N
InChI: InChI=1S/C6H11N3O/c7-5(3-10)1-6-2-8-4-9-6/h2,4-5,10H,1,3,7H2,(H,8,9)
Instrument: Agilent 1200 RRLC; Agilent 6520 QTOF
Instrument type: LC-ESI-QTOF
Ms type: MS
Ion mode: NEGATIVE
Column name: Agilent C8 Cartridge Column 2.1X30mm 3.5 micron (guard); Agilent SB-Aq 2.1x50mm 1.8 micron (analytical)
Retention time: 0.305
m/z	relative intensity
140.0829235	999
