Mass spectrum: Histamine; LC-ESI-QTOF; MS; NEGATIVE
Name: Histamine
Formula: C5H9N3
Exact mass: 111.079647
SMILES: C1=C(NC=N1)CCN
InChI: InChI=1S/C5H9N3/c6-2-1-5-3-7-4-8-5/h3-4H,1-2,6H2,(H,7,8)
Instrument: Agilent 1200 RRLC; Agilent 6520 QTOF
Instrument type: LC-ESI-QTOF
Ms type: MS
Ion mode: NEGATIVE
Column name: Agilent C8 Cartridge Column 2.1X30mm 3.5 micron (guard); Agilent SB-Aq 2.1x50mm 1.8 micron (analytical)
Retention time: 0.302
m/z	relative intensity
110.0723235	999
