Mass spectrum: 5-Methyltryptamine; LC-ESI-QTOF; MS2; CE 40 ev; [M+H]+
Name: 5-Methyltryptamine
Formula: C11H14N2
Exact mass: 174.115698
SMILES: CC1=CC2=C(C=C1)NC=C2CCN
InChI: InChI=1S/C11H14N2/c1-8-2-3-11-10(6-8)9(4-5-12)7-13-11/h2-3,6-7,13H,4-5,12H2,1H3
Instrument: Agilent 1200 RRLC; Agilent 6520 QTOF
Instrument type: LC-ESI-QTOF
Ms type: MS2
Ion mode: POSITIVE
Collision energy: 40 ev
Column name: Agilent C8 Cartridge Column 2.1X30mm 3.5 micron (guard); Agilent SB-Aq 2.1x50mm 1.8 micron (analytical)
Retention time: 2.410
Base peak: 115
Precursor m/z: 175.1230
Precursor type: [M+H]+
m/z	relative intensity
101.0418	22
103.054	61
103.058	29
105.0654	20
114.0437	28
115.0539	999
115.0791	19
115.0913	22
116.0612	340
117.0578	394
127.056	24
128.0488	98
128.057	21
129.0707	23
130.0657	182
131.0727	31
140.0477	32
141.0572	33
142.0646	482
142.1001	20
143.0722	865
156.0798	141
157.0811	19
157.0889	36
158.095	24
