Mass spectrum: Hydroquinidine; LC-ESI-QTOF; MS2; CE 20 ev; [M+H]+
Name: Hydroquinidine
Formula: C20H26N2O2
Exact mass: 326.199428
SMILES: CC[C@H]1CN2CC[C@H]1C[C@@H]2[C@H](C3=C4C=C(C=CC4=NC=C3)OC)O
InChI: InChI=1S/C20H26N2O2/c1-3-13-12-22-9-7-14(13)10-19(22)20(23)16-6-8-21-18-5-4-15(24-2)11-17(16)18/h4-6,8,11,13-14,19-20,23H,3,7,9-10,12H2,1-2H3/t13-,14-,19+,20-/m0/s1
Instrument: Agilent 1200 RRLC; Agilent 6520 QTOF
Instrument type: LC-ESI-QTOF
Ms type: MS2
Ion mode: POSITIVE
Collision energy: 20 ev
Column name: Agilent C8 Cartridge Column 2.1X30mm 3.5 micron (guard); Agilent SB-Aq 2.1x50mm 1.8 micron (analytical)
Retention time: 5.452
Base peak: 327
Precursor m/z: 327.2067
Precursor type: [M+H]+
m/z	relative intensity
108.0861	13
110.0958	15
119.0846	10
124.1135	18
136.1108	15
138.1284	11
140.1467	10
154.0672	11
155.0738	10
160.0729	73
160.0877	11
162.0937	12
168.1384	22
183.0633	18
184.0758	56
185.0828	22
186.0884	67
198.0895	25
227.1138	55
238.1138	10
239.1246	12
253.1256	29
253.1404	27
255.1477	14
264.1571	12
266.1504	26
267.9732	13
280.1717	22
281.1663	41
309.1936	225
309.2303	23
327.2057	999
