Mass spectrum: 3(4'-Chlorophenyl)-4,6-dimethylcoumarin; LC-ESI-QTOF; MS2; CE 20 ev; [M+H]+
Name: 3(4'-Chlorophenyl)-4,6-dimethylcoumarin
Formula: C17H13ClO2
Exact mass: 284.060407
SMILES: CC1=CC2=C(C=C1)OC(=O)C(=C2C)C3=CC=C(C=C3)Cl
InChI: InChI=1S/C17H13ClO2/c1-10-3-8-15-14(9-10)11(2)16(17(19)20-15)12-4-6-13(18)7-5-12/h3-9H,1-2H3
Instrument: Agilent 1200 RRLC; Agilent 6520 QTOF
Instrument type: LC-ESI-QTOF
Ms type: MS2
Ion mode: POSITIVE
Collision energy: 20 ev
Column name: Agilent C8 Cartridge Column 2.1X30mm 3.5 micron (guard); Agilent SB-Aq 2.1x50mm 1.8 micron (analytical)
Retention time: 9.947
Base peak: 285
Precursor m/z: 285.0677
Precursor type: [M+H]+
m/z	relative intensity
115.0506	12
117.0682	29
125.0128	14
137.0147	89
145.064	17
149.0139	32
165.0177	11
165.0663	16
178.0759	37
179.0862	43
191.0787	15
191.0887	33
192.0936	11
193.0986	76
194.1093	99
205.0966	20
206.1087	57
207.0773	11
221.0969	57
222.1037	274
222.1534	12
226.0522	34
229.0765	121
242.0518	37
249.0868	25
255.0516	11
257.0727	46
283.0535	11
285.067	999
