Mass spectrum: Foliosidine; LC-ESI-QTOF; MS2; CE 40 ev; [M+H]+
Name: Foliosidine
Name: 8-(2,3-dihydroxy-3-methylbutoxy)-4-methoxy-1-methylhydroquinolin-2-one
Formula: C16H21NO5
Exact mass: 307.141973
SMILES: CC(C)(C(COC1=CC=CC2=C1N(C(=O)C=C2OC)C)O)O
InChI: InChI=1S/C16H21NO5/c1-16(2,20)13(18)9-22-11-7-5-6-10-12(21-4)8-14(19)17(3)15(10)11/h5-8,13,18,20H,9H2,1-4H3
Instrument: Agilent 1200 RRLC; Agilent 6520 QTOF
Instrument type: LC-ESI-QTOF
Ms type: MS2
Ion mode: POSITIVE
Collision energy: 40 ev
Column name: Agilent C8 Cartridge Column 2.1X30mm 3.5 micron (guard); Agilent SB-Aq 2.1x50mm 1.8 micron (analytical)
Retention time: 7.276
Base peak: 191
Precursor m/z: 308.1493
Precursor type: [M+H]+
m/z	relative intensity
104.0544	45
105.0656	54
106.0647	44
108.04	37
116.0496	87
117.0331	37
117.058	115
118.0645	182
119.0525	79
120.0408	49
121.0518	61
130.066	89
134.0595	219
144.0445	166
144.0642	54
145.0252	114
145.0393	38
146.0584	369
147.0442	115
147.0637	58
148.0385	105
158.0616	68
159.0285	93
160.071	49
161.0455	140
162.0561	399
163.0605	215
172.039	73
173.0263	38
173.0454	196
174.0539	359
175.0626	82
176.0378	87
176.069	156
177.0687	38
178.0861	35
188.0641	40
188.0772	65
190.0491	514
191.0584	999
191.0998	38
192.0644	58
204.0653	161
205.0731	471
206.081	854
206.1173	54
