Mass spectrum: Rauwolscine; LC-ESI-QTOF; MS2; CE 40 ev; [M+H]+
Name: Rauwolscine
Formula: C21H26N2O3
Exact mass: 354.194343
SMILES: COC(=O)[C@@H]1[C@H](CC[C@H]2[C@@H]1C[C@H]3C4=C(CCN3C2)C5=CC=CC=C5N4)O
InChI: InChI=1S/C21H26N2O3/c1-26-21(25)19-15-10-17-20-14(13-4-2-3-5-16(13)22-20)8-9-23(17)11-12(15)6-7-18(19)24/h2-5,12,15,17-19,22,24H,6-11H2,1H3/t12-,15+,17+,18+,19+/m1/s1
Instrument: Agilent 1200 RRLC; Agilent 6520 QTOF
Instrument type: LC-ESI-QTOF
Ms type: MS2
Ion mode: POSITIVE
Collision energy: 40 ev
Column name: Agilent C8 Cartridge Column 2.1X30mm 3.5 micron (guard); Agilent SB-Aq 2.1x50mm 1.8 micron (analytical)
Retention time: 3.301
Base peak: 144
Precursor m/z: 355.2016
Precursor type: [M+H]+
m/z	relative intensity
105.0654	10
106.0615	15
108.0827	22
111.0453	6
115.0513	30
117.0347	10
117.0694	131
119.0489	7
119.0808	5
122.0952	5
123.0842	7
127.0533	67
128.0496	8
128.0571	6
130.0628	23
131.0729	20
132.0785	13
134.0947	65
135.0447	7
139.0687	5
139.575	5
142.0626	7
143.0719	86
144.0801	999
144.1164	41
144.1475	16
144.1675	11
144.1913	16
144.24	6
145.0289	9
145.0656	6
146.1037	5
147.1044	12
150.0927	5
152.1065	10
154.0594	8
156.0795	5
158.0947	38
162.09	35
164.1032	11
167.0753	6
168.0757	17
170.0964	8
174.089	12
180.1005	28
181.0804	6
181.0939	6
192.101	46
194.094	9
194.117	46
194.1423	6
205.0928	6
206.0916	7
206.114	12
207.1088	6
208.1088	15
209.119	12
212.1259	14
220.115	5
224.127	19
231.0935	8
234.1264	7
245.1202	8
248.1458	20
260.1357	7
278.1498	9
