Mass spectrum: Piperine; LC-ESI-QTOF; MS2; CE 40 ev; [M+H]+
Name: Piperine
Formula: C17H19NO3
Exact mass: 285.136493
SMILES: C1CCN(CC1)C(=O)C=CC=CC2=CC3=C(C=C2)OCO3
InChI: InChI=1S/C17H19NO3/c19-17(18-10-4-1-5-11-18)7-3-2-6-14-8-9-15-16(12-14)21-13-20-15/h2-3,6-9,12H,1,4-5,10-11,13H2
Instrument: Agilent 1200 RRLC; Agilent 6520 QTOF
Instrument type: LC-ESI-QTOF
Ms type: MS2
Ion mode: POSITIVE
Collision energy: 40 ev
Column name: Agilent C8 Cartridge Column 2.1X30mm 3.5 micron (guard); Agilent SB-Aq 2.1x50mm 1.8 micron (analytical)
Retention time: 9.165
Base peak: 115
Precursor m/z: 286.1438
Precursor type: [M+H]+
m/z	relative intensity
103.0527	40
105.0299	12
112.0741	8
115.0538	999
115.0819	47
115.0948	9
115.1119	10
115.1524	14
117.0342	13
117.0661	24
122.0979	11
127.0547	26
129.0687	13
135.0432	213
135.0625	7
143.0481	310
143.0846	12
150.09	8
151.0945	10
159.0428	39
171.0437	85
173.0575	8
201.0525	63
