Mass spectrum: Riboflavin; LC-ESI-QTOF; MS2; CE 10 ev; [M-H]-
Name: Riboflavin
Name: 7,8-dimethyl-10-(2,3,4,5-tetrahydroxypentyl)-3,10-dihydrobenzo[g]pteridine-2,4 -dione
Formula: C17H20N4O6
Exact mass: 376.138284
SMILES: CC1=CC2=C(C=C1C)N(C3=NC(=O)NC(=O)C3=N2)CC(C(C(CO)O)O)O
InChI: InChI=1S/C17H20N4O6/c1-7-3-9-10(4-8(7)2)21(5-11(23)14(25)12(24)6-22)15-13(18-9)16(26)20-17(27)19-15/h3-4,11-12,14,22-25H,5-6H2,1-2H3,(H,20,26,27)
Instrument: Agilent 1200 RRLC; Agilent 6520 QTOF
Instrument type: LC-ESI-QTOF
Ms type: MS2
Ion mode: NEGATIVE
Collision energy: 10 ev
Column name: Agilent C8 Cartridge Column 2.1X30mm 3.5 micron (guard); Agilent SB-Aq 2.1x50mm 1.8 micron (analytical)
Retention time: 4.275
Base peak: 255
Precursor m/z: 375.1310
Precursor type: [M-H]-
m/z	relative intensity
109.6273	15
162.401	13
202.0585	23
212.0827	22
217.0035	62
241.0737	17
243.1107	21
252.5358	19
255.0878	999
255.1289	95
255.1573	15
255.1686	15
255.2342	15
255.6898	12
257.1173	22
268.5685	19
284.0752	19
292.984	17
316.861	15
375.1283	240
