Mass spectrum: Epiandrosterone; LC-APCI-QTOF; MS; POSITIVE
Name: Epiandrosterone
Formula: C19H30O2
Exact mass: 290.22458
SMILES: CC12CCC(CC1CCC3C2CCC4(C3CCC4=O)C)O
InChI: InChI=1S/C19H30O2/c1-18-9-7-13(20)11-12(18)3-4-14-15-5-6-17(21)19(15,2)10-8-16(14)18/h12-16,20H,3-11H2,1-2H3
Instrument: Agilent 1200 RRLC; Agilent 6520 QTOF
Instrument type: LC-APCI-QTOF
Ms type: MS
Ion mode: POSITIVE
Column name: Agilent C8 Cartridge Column 2.1X30mm 3.5 micron (guard); Agilent SB-Aq 2.1x50mm 1.8 micron (analytical)
Retention time: 9.704
m/z	relative intensity
291.2318765	999
