Mass spectrum: Sumaresinolic acid; LC-ESI-QTOF; MS2; CE 10 ev; [M-H]-
Name: Sumaresinolic acid
Formula: C30H48O4
Exact mass: 472.35526
SMILES: CC1(CCC2(CCC3(C(=CCC4C3(CC(C5C4(CCC(C5(C)C)O)C)O)C)C2C1)C)C(=O)O)C
InChI: InChI=1S/C30H48O4/c1-25(2)12-14-30(24(33)34)15-13-28(6)18(19(30)16-25)8-9-21-27(5)11-10-22(32)26(3,4)23(27)20(31)17-29(21,28)7/h8,19-23,31-32H,9-17H2,1-7H3,(H,33,34)
Instrument: Agilent 1200 RRLC; Agilent 6520 QTOF
Instrument type: LC-ESI-QTOF
Ms type: MS2
Ion mode: NEGATIVE
Collision energy: 10 ev
Column name: Agilent C8 Cartridge Column 2.1X30mm 3.5 micron (guard); Agilent SB-Aq 2.1x50mm 1.8 micron (analytical)
Retention time: 11.291
Base peak: 471
Precursor m/z: 471.3480
Precursor type: [M-H]-
m/z	relative intensity
141.0112	13
141.0194	12
190.6522	12
231.4098	17
437.4352	9
463.0034	12
471.3455	999
