Mass spectrum: Picrotin; LC-ESI-QTOF; MS2; CE 20 ev; [M-H]-
Name: Picrotin
Formula: C15H18O7
Exact mass: 310.105253
SMILES: CC12C3C4C(C(C1(CC5C2(O5)C(=O)O3)O)C(=O)O4)C(C)(C)O
InChI: InChI=1S/C15H18O7/c1-12(2,18)6-7-10(16)20-8(6)9-13(3)14(7,19)4-5-15(13,22-5)11(17)21-9/h5-9,18-19H,4H2,1-3H3
Instrument: Agilent 1200 RRLC; Agilent 6520 QTOF
Instrument type: LC-ESI-QTOF
Ms type: MS2
Ion mode: NEGATIVE
Collision energy: 20 ev
Column name: Agilent C8 Cartridge Column 2.1X30mm 3.5 micron (guard); Agilent SB-Aq 2.1x50mm 1.8 micron (analytical)
Retention time: 3.702
Base peak: 137
Precursor m/z: 309.0980
Precursor type: [M-H]-
m/z	relative intensity
107.0516	63
109.0291	441
109.0651	110
109.1264	6
110.0346	54
111.0447	425
111.0805	17
117.0685	17
119.0847	12
121.0629	35
122.0353	21
123.0452	18
123.0755	6
125.0612	57
127.0774	36
128.9418	18
130.0393	17
130.0525	13
131.0881	12
133.0664	16
134.0387	7
135.0436	58
135.0813	71
137.0243	999
137.061	61
137.0791	24
137.1002	29
137.1341	14
137.9129	6
138.0343	11
139.0423	10
143.0456	21
145.0666	49
146.034	6
148.0184	7
148.0583	15
151.0417	14
151.1139	6
155.0305	18
161.0608	82
161.0947	16
163.0752	110
163.0993	8
163.1157	6
165.0932	9
167.0445	6
171.0649	45
171.0817	8
174.0276	19
175.1128	73
177.0906	14
177.1259	78
177.1363	9
179.0699	44
185.0942	12
187.0742	6
188.0907	9
189.0547	89
190.0541	6
193.122	240
193.1584	13
201.0896	7
203.1058	52
205.0952	9
207.0668	110
207.1063	8
208.0731	7
216.1212	19
219.0823	10
219.1019	55
221.0821	6
221.1218	13
223.0481	9
236.9523	6
237.1119	158
237.1632	7
251.0576	25
251.1283	9
265.1148	8
281.1004	29
309.0968	208
