Mass spectrum: 3-Hydroxy-3',4'-Dimethoxyflavone; LC-ESI-QTOF; MS2; CE 20 ev; [M-H]-
Name: 3-Hydroxy-3',4'-Dimethoxyflavone
Formula: C17H14O5
Exact mass: 298.084124
SMILES: COC1=C(C=C(C=C1)C2=C(C(=O)C3=CC=CC=C3O2)O)OC
InChI: InChI=1S/C17H14O5/c1-20-13-8-7-10(9-14(13)21-2)17-16(19)15(18)11-5-3-4-6-12(11)22-17/h3-9,19H,1-2H3
Instrument: Agilent 1200 RRLC; Agilent 6520 QTOF
Instrument type: LC-ESI-QTOF
Ms type: MS2
Ion mode: NEGATIVE
Collision energy: 20 ev
Column name: Agilent C8 Cartridge Column 2.1X30mm 3.5 micron (guard); Agilent SB-Aq 2.1x50mm 1.8 micron (analytical)
Retention time: 8.963
Base peak: 267
Precursor m/z: 297.0768
Precursor type: [M-H]-
m/z	relative intensity
134.4619	22
167.0488	101
170.9032	21
183.0401	20
195.0501	17
211.0379	38
225.0576	26
226.898	20
234.965	19
239.0339	142
253.0433	25
254.0637	15
267.0295	999
267.0751	69
267.1044	29
282.0534	633
297.0665	45
297.086	26
