Mass spectrum: Vitexin-2-rhamnoside; LC-ESI-QTOF; MS2; CE 40 ev; [M-H]-
Name: Vitexin-2-rhamnoside
Name: 2-O-Rhamnosylvitexin
Formula: C27H30O14
Exact mass: 578.163556
SMILES: C[C@H]1[C@@H]([C@H]([C@H]([C@@H](O1)O[C@@H]2[C@H]([C@@H]([C@H](O[C@H]2C3=C(C=C(C4=C3OC(=CC4=O)C5=CC=C(C=C5)O)O)O)CO)O)O)O)O)O
InChI: InChI=1S/C27H30O14/c1-9-19(33)21(35)23(37)27(38-9)41-26-22(36)20(34)16(8-28)40-25(26)18-13(31)6-12(30)17-14(32)7-15(39-24(17)18)10-2-4-11(29)5-3-10/h2-7,9,16,19-23,25-31,33-37H,8H2,1H3/t9-,16+,19-,20+,21+,22-,23+,25-,26+,27-/m0/s1
Instrument: Agilent 1200 RRLC; Agilent 6520 QTOF
Instrument type: LC-ESI-QTOF
Ms type: MS2
Ion mode: NEGATIVE
Collision energy: 40 ev
Column name: Agilent C8 Cartridge Column 2.1X30mm 3.5 micron (guard); Agilent SB-Aq 2.1x50mm 1.8 micron (analytical)
Retention time: 5.149
Base peak: 293
Precursor m/z: 577.1563
Precursor type: [M-H]-
m/z	relative intensity
103.0405	4
103.0464	2
117.0324	8
137.0166	5
172.9767	2
173.0214	8
175.0026	13
205.0226	4
211.9383	3
249.0559	6
268.0483	3
269.0446	20
281.0448	16
282.0503	19
283.0628	23
293.045	999
293.0936	11
293.1414	7
293.159	10
293.1997	14
293.2229	3
293.2567	4
293.275	4
293.299	3
293.4491	4
293.4886	4
293.5446	5
293.5668	2
293.6685	7
293.7357	3
293.798	4
293.818	3
293.903	3
293.9349	3
293.9946	2
294.0498	5
294.098	5
294.3379	3
294.4564	3
295.0711	3
297.0385	3
297.0819	4
309.0431	5
311.0552	133
311.1028	12
311.1293	3
312.0551	3
323.023	2
323.0571	23
325.0743	4
335.0613	10
337.0715	5
341.0636	21
353.0563	4
377.0574	5
413.0839	74
413.1416	7
457.1075	6
461.5123	3
