Mass spectrum: (3aR)-(+)-Sclareolide; LC-APCI-QTOF; MS; POSITIVE
Name: (3aR)-(+)-Sclareolide
Formula: C16H26O2
Exact mass: 250.19328
SMILES: CC1(CCCC2(C1CCC3(C2CC(=O)O3)C)C)C
InChI: InChI=1S/C16H26O2/c1-14(2)7-5-8-15(3)11(14)6-9-16(4)12(15)10-13(17)18-16/h11-12H,5-10H2,1-4H3
Instrument: Agilent 1200 RRLC; Agilent 6520 QTOF
Instrument type: LC-APCI-QTOF
Ms type: MS
Ion mode: POSITIVE
Column name: Agilent C8 Cartridge Column 2.1X30mm 3.5 micron (guard); Agilent SB-Aq 2.1x50mm 1.8 micron (analytical)
Retention time: 10.083
m/z	relative intensity
251.2005765	999
