Mass spectrum: Eburnamonine; LC-APCI-QTOF; MS; POSITIVE
Name: Eburnamonine
Formula: C19H22N2O
Exact mass: 294.173213
SMILES: CCC12CCCN3C1C4=C(CC3)C5=CC=CC=C5N4C(=O)C2
InChI: InChI=1S/C19H22N2O/c1-2-19-9-5-10-20-11-8-14-13-6-3-4-7-15(13)21(16(22)12-19)17(14)18(19)20/h3-4,6-7,18H,2,5,8-12H2,1H3
Instrument: Agilent 1200 RRLC; Agilent 6520 QTOF
Instrument type: LC-APCI-QTOF
Ms type: MS
Ion mode: POSITIVE
Column name: Agilent C8 Cartridge Column 2.1X30mm 3.5 micron (guard); Agilent SB-Aq 2.1x50mm 1.8 micron (analytical)
Retention time: 4.756
m/z	relative intensity
295.1804765	999
