Mass spectrum: N-Methylserotonin; LC-ESI-QTOF; MS; POSITIVE
Name: N-Methylserotonin
Formula: C11H14N2O
Exact mass: 190.110613
SMILES: CNCCC1=CNC2=C1C=C(C=C2)O
InChI: InChI=1S/C11H14N2O/c1-12-5-4-8-7-13-11-3-2-9(14)6-10(8)11/h2-3,6-7,12-14H,4-5H2,1H3
Instrument: Agilent 1200 RRLC; Agilent 6520 QTOF
Instrument type: LC-ESI-QTOF
Ms type: MS
Ion mode: POSITIVE
Column name: Agilent C8 Cartridge Column 2.1X30mm 3.5 micron (guard); Agilent SB-Aq 2.1x50mm 1.8 micron (analytical)
Retention time: 0.390
m/z	relative intensity
191.1178765	999
