Mass spectrum: (S,R)-Noscapine; LC-ESI-QTOF; MS2; CE 20 ev; [M+H]+
Name: (S,R)-Noscapine
Formula: C22H23NO7
Exact mass: 413.147452
SMILES: CN1CCC2=CC3=C(C(=C2[C@@H]1[C@@H]4C5=C(C(=C(C=C5)OC)OC)C(=O)O4)OC)OCO3
InChI: InChI=1S/C22H23NO7/c1-23-8-7-11-9-14-20(29-10-28-14)21(27-4)15(11)17(23)18-12-5-6-13(25-2)19(26-3)16(12)22(24)30-18/h5-6,9,17-18H,7-8,10H2,1-4H3/t17-,18+/m1/s1
Instrument: Agilent 1200 RRLC; Agilent 6520 QTOF
Instrument type: LC-ESI-QTOF
Ms type: MS2
Ion mode: POSITIVE
Collision energy: 20 ev
Column name: Agilent C8 Cartridge Column 2.1X30mm 3.5 micron (guard); Agilent SB-Aq 2.1x50mm 1.8 micron (analytical)
Retention time: 5.352
Base peak: 220
Precursor m/z: 414.1548
Precursor type: [M+H]+
m/z	relative intensity
179.0694	67
206.0793	21
219.0879	23
220.0965	999
220.1377	70
220.1645	20
220.2361	13
248.0834	16
295.091	14
307.0926	14
308.0981	15
320.0698	17
322.0846	14
323.0901	63
334.0741	16
335.0854	16
350.0801	62
352.0908	15
353.1013	249
353.1555	14
365.1007	85
378.122	27
381.114	47
383.1075	14
396.1441	34
414.1529	124
