Mass spectrum: Dihydroquercetin; LC-ESI-QTOF; MS2; CE 10 ev; [M-H]-
Name: Dihydroquercetin
Name: 2-(3,4-dihydroxyphenyl)-3,5,7-trihydroxychroman-4-one
Formula: C15H12O7
Exact mass: 304.058303
SMILES: C1=CC(=C(C=C1C2C(C(=O)C3=C(C=C(C=C3O2)O)O)O)O)O
InChI: InChI=1S/C15H12O7/c16-7-4-10(19)12-11(5-7)22-15(14(21)13(12)20)6-1-2-8(17)9(18)3-6/h1-5,14-19,21H
Instrument: Agilent 1200 RRLC; Agilent 6520 QTOF
Instrument type: LC-ESI-QTOF
Ms type: MS2
Ion mode: NEGATIVE
Collision energy: 10 ev
Column name: Agilent C8 Cartridge Column 2.1X30mm 3.5 micron (guard); Agilent SB-Aq 2.1x50mm 1.8 micron (analytical)
Retention time: 4.365
Base peak: 285
Precursor m/z: 303.0510
Precursor type: [M-H]-
m/z	relative intensity
109.0242	5
123.0427	6
125.0241	357
125.0411	5
125.0516	5
125.0629	14
125.0781	5
125.128	5
131.4639	5
137.0277	6
147.0523	5
149.0255	8
149.0779	6
151.0031	27
151.0434	15
153.0193	33
159.3719	5
165.0546	6
173.0648	5
175.0411	37
177.0198	207
177.0434	6
177.0602	10
178.9976	45
179.0089	7
180.0079	12
181.008	9
181.0165	44
189.0539	7
197.0508	7
199.0392	14
201.0162	7
216.0381	14
216.8935	5
217.0486	46
219.0248	8
230.2218	10
231.0662	5
238.8306	5
241.0502	47
243.0319	5
257.0425	17
259.0589	68
259.106	5
274.0416	9
275.0556	115
275.0741	10
275.0911	5
275.1121	6
285.0398	999
285.0888	43
285.1161	26
285.1521	8
285.1947	13
285.2609	7
285.2935	5
285.3378	5
285.5096	5
285.5516	5
285.907	6
286.0427	7
286.5554	5
302.0394	51
302.0833	5
303.0495	270
