Mass spectrum: 5-Methoxyuridine; LC-ESI-QTOF; MS; POSITIVE
Name: 5-Methoxyuridine
Formula: C10H14N2O7
Exact mass: 274.080101
SMILES: COC1=CN(C(=O)NC1=O)C2[C@@H]([C@@H]([C@H](O2)CO)O)O
InChI: InChI=1S/C10H14N2O7/c1-18-4-2-12(10(17)11-8(4)16)9-7(15)6(14)5(3-13)19-9/h2,5-7,9,13-15H,3H2,1H3,(H,11,16,17)/t5-,6-,7-,9?/m1/s1
Instrument: Agilent 1200 RRLC; Agilent 6520 QTOF
Instrument type: LC-ESI-QTOF
Ms type: MS
Ion mode: POSITIVE
Column name: Agilent C8 Cartridge Column 2.1X30mm 3.5 micron (guard); Agilent SB-Aq 2.1x50mm 1.8 micron (analytical)
Retention time: 0.411
m/z	relative intensity
275.0873765	999
297.069318	413
