Mass spectrum: 8-Methoxypsoralen; LC-ESI-QTOF; MS; POSITIVE
Name: 8-Methoxypsoralen
Formula: C12H8O4
Exact mass: 216.042259
SMILES: COC1=C2C(=CC3=C1OC=C3)C=CC(=O)O2
InChI: InChI=1S/C12H8O4/c1-14-12-10-8(4-5-15-10)6-7-2-3-9(13)16-11(7)12/h2-6H,1H3
Instrument: Agilent 1200 RRLC; Agilent 6520 QTOF
Instrument type: LC-ESI-QTOF
Ms type: MS
Ion mode: POSITIVE
Column name: Agilent C8 Cartridge Column 2.1X30mm 3.5 micron (guard); Agilent SB-Aq 2.1x50mm 1.8 micron (analytical)
Retention time: 6.673
m/z	relative intensity
217.0495765	999
239.031518	750
