Mass spectrum: 6-Methylflavone; LC-ESI-QTOF; MS2; CE 40 ev; [M+H]+
Name: 6-Methylflavone
Formula: C16H12O2
Exact mass: 236.08373
SMILES: CC1=CC2=C(C=C1)OC(=CC2=O)C3=CC=CC=C3
InChI: InChI=1S/C16H12O2/c1-11-7-8-15-13(9-11)14(17)10-16(18-15)12-5-3-2-4-6-12/h2-10H,1H3
Instrument: Agilent 1200 RRLC; Agilent 6520 QTOF
Instrument type: LC-ESI-QTOF
Ms type: MS2
Ion mode: POSITIVE
Collision energy: 40 ev
Column name: Agilent C8 Cartridge Column 2.1X30mm 3.5 micron (guard); Agilent SB-Aq 2.1x50mm 1.8 micron (analytical)
Retention time: 9.541
Base peak: 129
Precursor m/z: 237.0910
Precursor type: [M+H]+
m/z	relative intensity
101.043	82
103.0547	814
105.0321	201
107.0487	517
129.0334	999
135.0422	540
165.0666	350
166.0785	256
178.0802	146
189.0664	78
194.0747	78
237.0899	238
