Mass spectrum: Anabasine; LC-ESI-QTOF; MS; POSITIVE
Name: Anabasine
Formula: C10H14N2
Exact mass: 162.115698
SMILES: C1CCNC(C1)C2=CN=CC=C2
InChI: InChI=1S/C10H14N2/c1-2-7-12-10(5-1)9-4-3-6-11-8-9/h3-4,6,8,10,12H,1-2,5,7H2
Instrument: Agilent 1200 RRLC; Agilent 6520 QTOF
Instrument type: LC-ESI-QTOF
Ms type: MS
Ion mode: POSITIVE
Column name: Agilent C8 Cartridge Column 2.1X30mm 3.5 micron (guard); Agilent SB-Aq 2.1x50mm 1.8 micron (analytical)
Retention time: 0.390
m/z	relative intensity
163.1229765	999
