Mass spectrum: Animicin A; LC-ESI-QTOF; MS2; CE 10 ev; [M-H]-
Name: Animicin A
Formula: C28H40N2O9
Exact mass: 548.273381
SMILES: CCCCCCC1C(C(OC(=O)C(C(OC1=O)C)NC(=O)C2=C(C(=CC=C2)NC=O)O)C)OC(=O)CC(C)C
InChI: InChI=1S/C28H40N2O9/c1-6-7-8-9-11-20-25(39-22(32)14-16(2)3)18(5)38-28(36)23(17(4)37-27(20)35)30-26(34)19-12-10-13-21(24(19)33)29-15-31/h10,12-13,15-18,20,23,25,33H,6-9,11,14H2,1-5H3,(H,29,31)(H,30,34)
Instrument: Agilent 1200 RRLC; Agilent 6520 QTOF
Instrument type: LC-ESI-QTOF
Ms type: MS2
Ion mode: NEGATIVE
Collision energy: 10 ev
Column name: Agilent C8 Cartridge Column 2.1X30mm 3.5 micron (guard); Agilent SB-Aq 2.1x50mm 1.8 micron (analytical)
Retention time: 11.631
Base peak: 547
Precursor m/z: 547.2661
Precursor type: [M-H]-
m/z	relative intensity
101.0603	125
101.0878	6
101.1049	2
101.1531	2
108.0454	5
117.0469	2
126.6225	1
133.0408	6
145.0784	1
161.0346	21
161.0647	2
173.0103	1
173.0719	6
175.0249	1
190.0766	1
191.0807	48
191.1214	2
199.1399	1
201.0619	2
217.0637	10
219.0767	134
219.1207	6
219.1502	1
219.1774	1
219.2176	2
244.9999	1
245.0553	608
245.0997	22
245.127	12
245.1432	2
245.1625	4
245.2013	8
245.2231	1
245.2391	2
245.2571	2
245.2848	1
245.3019	3
245.3475	1
245.3969	2
245.4335	1
245.4518	2
245.4832	1
245.5001	1
245.5289	3
245.5756	3
245.594	1
245.69	2
245.7503	2
245.7979	1
245.8482	2
245.887	2
245.9159	2
245.9753	1
246.0097	1
246.0607	2
246.2241	1
246.2904	1
262.0655	1
263.0659	283
263.1175	13
263.1762	3
263.215	4
263.2971	1
263.3412	2
263.4043	2
263.4648	2
263.583	1
263.597	1
263.6276	1
263.6682	1
263.8402	1
263.9802	1
264.2361	1
299.0041	2
301.2005	13
301.2261	1
318.3523	2
321.3649	1
329.2242	2
373.2104	2
373.2307	1
383.0116	3
401.2062	119
401.2657	4
401.3103	2
401.3824	1
401.4429	1
401.7669	1
402.001	1
402.2178	1
402.6338	1
445.1968	46
445.2535	4
445.3044	2
445.5949	1
465.0163	2
522.48	2
543.5243	1
547.2642	999
