Mass spectrum: Piperine; LC-ESI-QTOF; MS2; CE 10 ev; [M+H]+
Name: Piperine
Formula: C17H19NO3
Exact mass: 285.136493
SMILES: C1CCN(CC1)C(=O)C=CC=CC2=CC3=C(C=C2)OCO3
InChI: InChI=1S/C17H19NO3/c19-17(18-10-4-1-5-11-18)7-3-2-6-14-8-9-15-16(12-14)21-13-20-15/h2-3,6-9,12H,1,4-5,10-11,13H2
Instrument: Agilent 1200 RRLC; Agilent 6520 QTOF
Instrument type: LC-ESI-QTOF
Ms type: MS2
Ion mode: POSITIVE
Collision energy: 10 ev
Column name: Agilent C8 Cartridge Column 2.1X30mm 3.5 micron (guard); Agilent SB-Aq 2.1x50mm 1.8 micron (analytical)
Retention time: 9.165
Base peak: 286
Precursor m/z: 286.1438
Precursor type: [M+H]+
m/z	relative intensity
112.0758	16
115.0542	31
135.0431	78
135.0633	6
143.0473	20
150.0929	8
151.0988	8
159.0463	10
161.0576	5
171.043	22
173.061	14
185.0913	7
201.0539	572
201.0923	28
201.1839	5
201.4442	4
201.7424	5
203.0649	8
215.1016	5
215.1157	3
286.1426	999
