Mass spectrum: Naringenin; LC-ESI-QTOF; MS2; CE 10 ev; [M+H]+
Name: Naringenin
Formula: C15H12O5
Exact mass: 272.068473
SMILES: C1[C@H](OC2=CC(=CC(=C2C1=O)O)O)C3=CC=C(C=C3)O
InChI: InChI=1S/C15H12O5/c16-9-3-1-8(2-4-9)13-7-12(19)15-11(18)5-10(17)6-14(15)20-13/h1-6,13,16-18H,7H2/t13-/m0/s1
Instrument: Agilent 1200 RRLC; Agilent 6520 QTOF
Instrument type: LC-ESI-QTOF
Ms type: MS2
Ion mode: POSITIVE
Collision energy: 10 ev
Column name: Agilent C8 Cartridge Column 2.1X30mm 3.5 micron (guard); Agilent SB-Aq 2.1x50mm 1.8 micron (analytical)
Retention time: 6.636
Base peak: 273
Precursor m/z: 273.0758
Precursor type: [M+H]+
m/z	relative intensity
147.0433	194
147.0771	17
153.0172	336
153.0289	25
153.0517	23
163.0679	19
164.9479	18
194.9541	24
273.0713	999
