Mass spectrum: 3-Hydroxy-3',4'-Dimethoxyflavone; LC-ESI-QTOF; MS2; CE 10 ev; [M-H]-
Name: 3-Hydroxy-3',4'-Dimethoxyflavone
Formula: C17H14O5
Exact mass: 298.084124
SMILES: COC1=C(C=C(C=C1)C2=C(C(=O)C3=CC=CC=C3O2)O)OC
InChI: InChI=1S/C17H14O5/c1-20-13-8-7-10(9-14(13)21-2)17-16(19)15(18)11-5-3-4-6-12(11)22-17/h3-9,19H,1-2H3
Instrument: Agilent 1200 RRLC; Agilent 6520 QTOF
Instrument type: LC-ESI-QTOF
Ms type: MS2
Ion mode: NEGATIVE
Collision energy: 10 ev
Column name: Agilent C8 Cartridge Column 2.1X30mm 3.5 micron (guard); Agilent SB-Aq 2.1x50mm 1.8 micron (analytical)
Retention time: 8.963
Base peak: 297
Precursor m/z: 297.0768
Precursor type: [M-H]-
m/z	relative intensity
101.7669	22
132.0755	18
195.0393	17
211.0459	35
214.8871	17
216.3743	17
254.0652	18
267.0276	221
280.6439	20
282.0503	847
282.1087	51
282.1767	15
282.825	12
297.0764	999
