Mass spectrum: 5,7-Dimethoxyflavanone; LC-ESI-QTOF; MS2; CE 10 ev; [M+H]+
Name: 5,7-Dimethoxyflavanone
Formula: C17H16O4
Exact mass: 284.104859
SMILES: COC1=CC(=C2C(=O)CC(OC2=C1)C3=CC=CC=C3)OC
InChI: InChI=1S/C17H16O4/c1-19-12-8-15(20-2)17-13(18)10-14(21-16(17)9-12)11-6-4-3-5-7-11/h3-9,14H,10H2,1-2H3
Instrument: Agilent 1200 RRLC; Agilent 6520 QTOF
Instrument type: LC-ESI-QTOF
Ms type: MS2
Ion mode: POSITIVE
Collision energy: 10 ev
Column name: Agilent C8 Cartridge Column 2.1X30mm 3.5 micron (guard); Agilent SB-Aq 2.1x50mm 1.8 micron (analytical)
Retention time: 8.709
Base peak: 285
Precursor m/z: 285.1122
Precursor type: [M+H]+
m/z	relative intensity
131.0512	46
152.0394	3
166.0232	4
179.0672	3
181.0484	413
181.0882	16
181.1089	6
181.1693	3
181.2176	3
181.2521	3
243.0978	21
253.0847	3
285.1109	999
285.159	40
285.2023	10
285.2234	6
285.2379	3
285.2673	10
285.2905	6
285.4203	4
285.4623	7
285.5108	3
285.5352	3
285.6254	6
285.7168	5
285.762	4
285.9779	5
