Mass spectrum: Capsaicin; LC-ESI-QTOF; MS2; CE 20 ev; [M+H]+
Name: Capsaicin
Name: (6E)-N-[(4-Hydroxy-3-methoxyphenyl)methyl]-8-methyl-6-nonenamide
Name: E-Capsaicin
Formula: C18H27NO3
Exact mass: 305.199094
SMILES: CC(C)/C=C/CCCCC(=O)NCC1=CC(=C(C=C1)O)OC
InChI: InChI=1S/C18H27NO3/c1-14(2)8-6-4-5-7-9-18(21)19-13-15-10-11-16(20)17(12-15)22-3/h6,8,10-12,14,20H,4-5,7,9,13H2,1-3H3,(H,19,21)/b8-6+
Instrument: Agilent 1200 RRLC; Agilent 6520 QTOF
Instrument type: LC-ESI-QTOF
Ms type: MS2
Ion mode: POSITIVE
Collision energy: 20 ev
Column name: Agilent C8 Cartridge Column 2.1X30mm 3.5 micron (guard); Agilent SB-Aq 2.1x50mm 1.8 micron (analytical)
Retention time: 8.899
Base peak: 137
Precursor m/z: 306.2064
Precursor type: [M+H]+
m/z	relative intensity
109.0618	7
109.0991	11
122.0312	16
122.0385	20
133.1054	9
135.041	7
135.122	12
137.0588	999
137.0904	40
137.1128	19
137.168	13
137.209	7
137.293	6
137.3941	6
153.1243	7
170.1554	7
182.1528	7
