Mass spectrum: Glutamic acid; LC-ESI-QTOF; MS2; CE 20 ev; [M-H]-
Name: Glutamic acid
Formula: C5H9NO4
Exact mass: 147.053158
SMILES: C(CC(=O)O)C(C(=O)O)N
InChI: InChI=1S/C5H9NO4/c6-3(5(9)10)1-2-4(7)8/h3H,1-2,6H2,(H,7,8)(H,9,10)
Instrument: Agilent 1200 RRLC; Agilent 6520 QTOF
Instrument type: LC-ESI-QTOF
Ms type: MS2
Ion mode: NEGATIVE
Collision energy: 20 ev
Column name: Agilent C8 Cartridge Column 2.1X30mm 3.5 micron (guard); Agilent SB-Aq 2.1x50mm 1.8 micron (analytical)
Retention time: 0.361
Base peak: 102
Precursor m/z: 146.0459
Precursor type: [M-H]-
m/z	relative intensity
101.0283	7
102.0554	999
102.0837	37
102.1048	16
102.1247	9
102.1501	15
102.1757	5
102.1897	5
102.2518	8
102.3632	6
102.4499	7
102.4814	4
102.6054	5
102.6217	6
102.6361	4
102.678	5
102.9645	4
102.9903	7
103.1596	4
103.6461	7
109.6851	5
114.2533	4
115.5707	14
126.9002	9
128.0361	161
128.0643	11
128.2674	5
128.8667	5
132.2532	4
132.6773	4
146.045	11
