Mass spectrum: L-Tryptophan; LC-ESI-QTOF; MS2; CE 40 ev; [M+H]+
Name: L-Tryptophan
Formula: C11H12N2O2
Exact mass: 204.089878
SMILES: C1=CC=C2C(=C1)C(=CN2)CC(C(=O)O)N
InChI: InChI=1S/C11H12N2O2/c12-9(11(14)15)5-7-6-13-10-4-2-1-3-8(7)10/h1-4,6,9,13H,5,12H2,(H,14,15)
Instrument: Agilent 1200 RRLC; Agilent 6520 QTOF
Instrument type: LC-ESI-QTOF
Ms type: MS2
Ion mode: POSITIVE
Collision energy: 40 ev
Column name: Agilent C8 Cartridge Column 2.1X30mm 3.5 micron (guard); Agilent SB-Aq 2.1x50mm 1.8 micron (analytical)
Retention time: 1.260
Base peak: 115
Precursor m/z: 205.0972
Precursor type: [M+H]+
m/z	relative intensity
103.0551	74
105.0684	36
115.0534	999
116.0489	33
116.0596	104
117.0584	648
118.0644	774
118.0916	39
127.0529	51
128.051	25
130.0653	243
131.0738	40
132.0825	69
140.0492	25
141.0536	42
142.0645	333
143.0717	404
144.0776	53
