Mass spectrum: Paclitaxel; LC-ESI-QTOF; MS2; CE 10 ev; [M-H]-
Name: Paclitaxel
Formula: C47H51NO14
Exact mass: 853.330955
SMILES: CC1=C2C(C(=O)C3(C(CC4C(C3C(C(C2(C)C)(CC1OC(=O)C(C(C5=CC=CC=C5)NC(=O)C6=CC=CC=C6)O)O)OC(=O)C7=CC=CC=C7)(CO4)OC(=O)C)O)C)OC(=O)C
InChI: InChI=1S/C47H51NO14/c1-25-31(60-43(56)36(52)35(28-16-10-7-11-17-28)48-41(54)29-18-12-8-13-19-29)23-47(57)40(61-42(55)30-20-14-9-15-21-30)38-45(6,32(51)22-33-46(38,24-58-33)62-27(3)50)39(53)37(59-26(2)49)34(25)44(47,4)5/h7-21,31-33,35-38,40,51-52,57H,22-24H2,1-6H3,(H,48,54)
Instrument: Agilent 1200 RRLC; Agilent 6520 QTOF
Instrument type: LC-ESI-QTOF
Ms type: MS2
Ion mode: NEGATIVE
Collision energy: 10 ev
Column name: Agilent C8 Cartridge Column 2.1X30mm 3.5 micron (guard); Agilent SB-Aq 2.1x50mm 1.8 micron (analytical)
Retention time: 9.640
Base peak: 525
Precursor m/z: 852.3237
Precursor type: [M-H]-
m/z	relative intensity
111.216	18
121.0271	90
130.9457	29
141.0103	15
195.5886	14
266.0826	22
313.4337	14
319.157	16
373.1659	15
403.1756	23
410.0537	19
448.6182	24
525.212	999
525.2831	27
525.4416	18
525.6486	14
525.8455	20
525.9914	16
646.1727	16
738.2166	17
792.3013	109
792.3664	22
792.3955	24
852.3088	19
