Mass spectrum: Rutine; LC-ESI-QTOF; MS2; CE 20 ev; [M-H]-
Name: Rutine
Formula: C27H30O16
Exact mass: 610.153385
SMILES: C[C@H]1[C@@H]([C@H]([C@H]([C@@H](O1)OC[C@@H]2[C@H]([C@@H]([C@H]([C@@H](O2)OC3=C(OC4=CC(=CC(=C4C3=O)O)O)C5=CC(=C(C=C5)O)O)O)O)O)O)O)O
InChI: InChI=1S/C27H30O16/c1-8-17(32)20(35)22(37)26(40-8)39-7-15-18(33)21(36)23(38)27(42-15)43-25-19(34)16-13(31)5-10(28)6-14(16)41-24(25)9-2-3-11(29)12(30)4-9/h2-6,8,15,17-18,20-23,26-33,35-38H,7H2,1H3/t8-,15+,17-,18+,20+,21-,22+,23+,26+,27-/m0/s1
Instrument: Agilent 1200 RRLC; Agilent 6520 QTOF
Instrument type: LC-ESI-QTOF
Ms type: MS2
Ion mode: NEGATIVE
Collision energy: 20 ev
Column name: Agilent C8 Cartridge Column 2.1X30mm 3.5 micron (guard); Agilent SB-Aq 2.1x50mm 1.8 micron (analytical)
Retention time: 5.341
Base peak: 609
Precursor m/z: 609.1461
Precursor type: [M-H]-
m/z	relative intensity
106.2468	6
179.0019	5
181.0857	7
215.0396	6
235.9981	8
243.0256	5
270.0076	5
271.0261	16
272.0281	16
298.9847	8
299.0077	5
299.0325	9
300.0306	100
301.0344	91
301.0528	6
305.0044	5
343.6512	6
361.9175	5
387.017	6
428.1306	8
458.2756	9
522.1086	5
580.9456	8
608.1308	41
608.1726	14
609.069	5
609.1456	999
