Mass spectrum: Formononetin; LC-ESI-QTOF; MS2; CE 40 ev; [M-H]-
Name: Formononetin
Formula: C16H12O4
Exact mass: 268.073559
SMILES: COC1=CC=C(C=C1)C2=COC3=C(C2=O)C=CC(=C3)O
InChI: InChI=1S/C16H12O4/c1-19-12-5-2-10(3-6-12)14-9-20-15-8-11(17)4-7-13(15)16(14)18/h2-9,17H,1H3
Instrument: Agilent 1200 RRLC; Agilent 6520 QTOF
Instrument type: LC-ESI-QTOF
Ms type: MS2
Ion mode: NEGATIVE
Collision energy: 40 ev
Column name: Agilent C8 Cartridge Column 2.1X30mm 3.5 micron (guard); Agilent SB-Aq 2.1x50mm 1.8 micron (analytical)
Retention time: 7.823
Base peak: 223
Precursor m/z: 267.0663
Precursor type: [M-H]-
m/z	relative intensity
104.0248	197
104.0591	6
104.094	7
104.5412	6
116.0289	19
117.0347	11
132.0204	562
132.0428	13
132.0715	14
132.1281	7
132.1931	8
135.0078	280
135.0469	11
145.0209	5
151.0639	7
166.0367	6
167.0499	132
167.0874	7
168.0519	10
173.0192	6
179.0477	19
180.0554	46
180.0649	21
194.0446	12
195.0446	996
195.0791	43
195.092	14
195.1412	11
195.1697	13
195.2156	12
195.5705	7
195.9134	6
196.06	16
197.3577	8
208.0509	164
208.0694	23
210.0409	7
211.2934	6
223.0395	999
223.0834	44
223.113	17
223.1491	8
223.1811	12
223.2176	6
223.2828	5
223.7367	6
223.8679	5
224.0501	94
224.0968	9
225.5641	7
246.4378	6
250.0279	11
251.0342	560
251.0737	16
251.1009	13
251.1767	6
251.3217	7
251.4557	7
251.5265	5
251.5717	5
252.0428	139
252.0862	9
