Mass spectrum: L-Thiocitrulline; LC-ESI-QTOF; MS; POSITIVE
Name: L-Thiocitrulline
Formula: C6H13N3O2S
Exact mass: 191.072848
SMILES: C(CC(C(=O)O)N)CNC(=S)N
InChI: InChI=1S/C6H13N3O2S/c7-4(5(10)11)2-1-3-9-6(8)12/h4H,1-3,7H2,(H,10,11)(H3,8,9,12)
Instrument: Agilent 1200 RRLC; Agilent 6520 QTOF
Instrument type: LC-ESI-QTOF
Ms type: MS
Ion mode: POSITIVE
Column name: Agilent C8 Cartridge Column 2.1X30mm 3.5 micron (guard); Agilent SB-Aq 2.1x50mm 1.8 micron (analytical)
Retention time: 0.380
m/z	relative intensity
192.0800765	999
214.062018	11
