Mass spectrum: 3-(2-Naphthyl)-D-alanine; LC-ESI-QTOF; MS2; CE 10 ev; [M+H]+
Name: 3-(2-Naphthyl)-D-alanine
Formula: C13H13NO2
Exact mass: 215.094629
SMILES: C1=CC=C2C=C(C=CC2=C1)CC(C(=O)O)N
InChI: InChI=1S/C13H13NO2/c14-12(13(15)16)8-9-5-6-10-3-1-2-4-11(10)7-9/h1-7,12H,8,14H2,(H,15,16)
Instrument: Agilent 1200 RRLC; Agilent 6520 QTOF
Instrument type: LC-ESI-QTOF
Ms type: MS2
Ion mode: POSITIVE
Collision energy: 10 ev
Column name: Agilent C8 Cartridge Column 2.1X30mm 3.5 micron (guard); Agilent SB-Aq 2.1x50mm 1.8 micron (analytical)
Retention time: 3.475
Base peak: 170
Precursor m/z: 216.1019
Precursor type: [M+H]+
m/z	relative intensity
128.0585	9
129.0695	52
143.0857	27
151.0544	4
152.0625	12
153.0689	214
153.1049	7
155.0866	10
157.0643	294
157.0944	9
157.1817	3
170.0958	999
170.1323	30
170.159	8
170.1791	9
170.2159	12
170.2538	4
170.2748	3
170.4117	4
171.0753	6
181.0646	208
181.1018	6
181.1235	3
199.0743	121
199.1143	6
216.101	42
216.1464	3
