Mass spectrum: Eserine; LC-ESI-QTOF; MS2; CE 20 ev; [M+H]+
Name: Eserine
Formula: C15H21N3O2
Exact mass: 275.163377
SMILES: CC12CCN(C1N(C3=C2C=C(C=C3)OC(=O)NC)C)C
InChI: InChI=1S/C15H21N3O2/c1-15-7-8-17(3)13(15)18(4)12-6-5-10(9-11(12)15)20-14(19)16-2/h5-6,9,13H,7-8H2,1-4H3,(H,16,19)
Instrument: Agilent 1200 RRLC; Agilent 6520 QTOF
Instrument type: LC-ESI-QTOF
Ms type: MS2
Ion mode: POSITIVE
Collision energy: 20 ev
Column name: Agilent C8 Cartridge Column 2.1X30mm 3.5 micron (guard); Agilent SB-Aq 2.1x50mm 1.8 micron (analytical)
Retention time: 3.215
Base peak: 162
Precursor m/z: 276.1707
Precursor type: [M+H]+
m/z	relative intensity
146.0576	30
147.0627	52
160.0715	24
161.0808	42
162.0896	999
162.1255	28
176.1056	173
188.1021	36
188.1128	23
219.114	35
