Mass spectrum: Panthenol; LC-ESI-QTOF; MS2; CE 10 ev; [M+H]+
Name: Panthenol
Formula: C9H19NO4
Exact mass: 205.131408
SMILES: CC(C)(CO)C(C(=O)NCCCO)O
InChI: InChI=1S/C9H19NO4/c1-9(2,6-12)7(13)8(14)10-4-3-5-11/h7,11-13H,3-6H2,1-2H3,(H,10,14)
Instrument: Agilent 1200 RRLC; Agilent 6520 QTOF
Instrument type: LC-ESI-QTOF
Ms type: MS2
Ion mode: POSITIVE
Collision energy: 10 ev
Column name: Agilent C8 Cartridge Column 2.1X30mm 3.5 micron (guard); Agilent SB-Aq 2.1x50mm 1.8 micron (analytical)
Retention time: 1.631
Base peak: 206
Precursor m/z: 206.1387
Precursor type: [M+H]+
m/z	relative intensity
102.0557	394
114.9441	212
114.9499	369
170.1158	285
173.9578	241
188.1263	645
206.1381	999
