Mass spectrum: 3,7-Dihydroxy-3',4'-dimethoxyflavone; LC-ESI-QTOF; MS2; CE 20 ev; [M-H]-
Name: 3,7-Dihydroxy-3',4'-dimethoxyflavone
Formula: C17H14O6
Exact mass: 314.079038
SMILES: COC1=C(C=C(C=C1)C2=C(C(=O)C3=C(O2)C=C(C=C3)O)O)OC
InChI: InChI=1S/C17H14O6/c1-21-12-6-3-9(7-14(12)22-2)17-16(20)15(19)11-5-4-10(18)8-13(11)23-17/h3-8,18,20H,1-2H3
Instrument: Agilent 1200 RRLC; Agilent 6520 QTOF
Instrument type: LC-ESI-QTOF
Ms type: MS2
Ion mode: NEGATIVE
Collision energy: 20 ev
Column name: Agilent C8 Cartridge Column 2.1X30mm 3.5 micron (guard); Agilent SB-Aq 2.1x50mm 1.8 micron (analytical)
Retention time: 8.273
Base peak: 298
Precursor m/z: 313.0717
Precursor type: [M-H]-
m/z	relative intensity
103.0182	4
109.0274	8
128.2086	4
149.2699	4
155.0514	5
183.0348	6
190.6923	5
207.7632	11
211.0388	9
227.0324	11
230.1451	4
238.9606	7
252.0505	5
255.0303	106
255.0608	7
255.0909	6
255.8246	5
268.0371	10
269.0441	122
269.0796	6
283.0251	604
283.0734	26
283.1014	6
283.1617	8
283.342	7
283.4841	4
283.5515	6
283.5732	5
283.5968	4
283.6517	4
283.733	4
283.8416	5
284.0156	7
284.2603	7
297.0383	163
297.078	4
297.1077	11
297.9916	7
298.0472	999
298.1065	41
298.1581	12
298.212	12
298.242	6
298.2911	4
298.4046	7
298.4857	5
298.5761	4
298.6402	5
298.669	5
299.1875	4
299.3783	4
313.0695	405
