Mass spectrum: 1-Methylhistamine; LC-ESI-QTOF; MS; POSITIVE
Name: 1-Methylhistamine
Formula: C6H11N3
Exact mass: 125.095297
SMILES: CN1C=C(N=C1)CCN
InChI: InChI=1S/C6H11N3/c1-9-4-6(2-3-7)8-5-9/h4-5H,2-3,7H2,1H3
Instrument: Agilent 1200 RRLC; Agilent 6520 QTOF
Instrument type: LC-ESI-QTOF
Ms type: MS
Ion mode: POSITIVE
Column name: Agilent C8 Cartridge Column 2.1X30mm 3.5 micron (guard); Agilent SB-Aq 2.1x50mm 1.8 micron (analytical)
Retention time: 0.302
m/z	relative intensity
126.1025765	999
148.084518	65
