Mass spectrum: Gibberellic Acid; LC-ESI-QTOF; MS2; CE 10 ev; [M-H]-
Name: Gibberellic Acid
Formula: C19H22O6
Exact mass: 346.141638
SMILES: CC12C(C=CC3(C1C(C45C3CCC(C4)(C(=C)C5)O)C(=O)O)OC2=O)O
InChI: InChI=1S/C19H22O6/c1-9-7-17-8-18(9,24)5-3-10(17)19-6-4-11(20)16(2,15(23)25-19)13(19)12(17)14(21)22/h4,6,10-13,20,24H,1,3,5,7-8H2,2H3,(H,21,22)
Instrument: Agilent 1200 RRLC; Agilent 6520 QTOF
Instrument type: LC-ESI-QTOF
Ms type: MS2
Ion mode: NEGATIVE
Collision energy: 10 ev
Column name: Agilent C8 Cartridge Column 2.1X30mm 3.5 micron (guard); Agilent SB-Aq 2.1x50mm 1.8 micron (analytical)
Retention time: 4.730
Base peak: 345
Precursor m/z: 345.1343
Precursor type: [M-H]-
m/z	relative intensity
221.1743	7
227.1039	15
239.1434	465
239.1935	10
239.3172	6
257.1544	16
271.0997	10
283.1361	22
301.1434	27
327.1251	8
345.1336	999
