Mass spectrum: 3-{[(7-methoxy-2-oxochromen-4-yl)methyl]methylamino}propanenitrile; LC-ESI-QTOF; MS2; CE 10 ev; [M-H]-
Name: 3-{[(7-methoxy-2-oxochromen-4-yl)methyl]methylamino}propanenitrile
Formula: C15H16N2O3
Exact mass: 272.116092
SMILES: CN(CCC#N)CC1=CC(=O)OC2=C1C=CC(=C2)OC
InChI: InChI=1S/C15H16N2O3/c1-17(7-3-6-16)10-11-8-15(18)20-14-9-12(19-2)4-5-13(11)14/h4-5,8-9H,3,7,10H2,1-2H3
Instrument: Agilent 1200 RRLC; Agilent 6520 QTOF
Instrument type: LC-ESI-QTOF
Ms type: MS2
Ion mode: NEGATIVE
Collision energy: 10 ev
Column name: Agilent C8 Cartridge Column 2.1X30mm 3.5 micron (guard); Agilent SB-Aq 2.1x50mm 1.8 micron (analytical)
Retention time: 6.961
Base peak: 218
Precursor m/z: 271.1088
Precursor type: [M-H]-
m/z	relative intensity
118.9803	70
138.022	21
147.0444	95
158.7005	20
175.0412	132
187.8623	23
188.0352	139
189.0488	22
190.0864	36
203.0595	539
203.1103	18
203.85	24
210.3641	21
218.0811	999
218.1159	31
218.136	24
218.1594	17
271.105	79
