Mass spectrum: phenyl(1,2,9,10-tetramethoxy-6-methyl-5,6-dihydro-4H-dibenzo[de,g]quinolin-7-yl)methanone; LC-ESI-QTOF; MS2; CE 20 ev; [M+H]+
Name: phenyl(1,2,9,10-tetramethoxy-6-methyl-5,6-dihydro-4H-dibenzo[de,g]quinolin-7-yl)methanone
Formula: C28H27NO5
Exact mass: 457.188923
SMILES: CN1CCC2=CC(=C(C3=C2C1=C(C4=CC(=C(C=C43)OC)OC)C(=O)C5=CC=CC=C5)OC)OC
InChI: InChI=1S/C28H27NO5/c1-29-12-11-17-13-22(33-4)28(34-5)24-18-14-20(31-2)21(32-3)15-19(18)25(26(29)23(17)24)27(30)16-9-7-6-8-10-16/h6-10,13-15H,11-12H2,1-5H3
Instrument: Agilent 1200 RRLC; Agilent 6520 QTOF
Instrument type: LC-ESI-QTOF
Ms type: MS2
Ion mode: POSITIVE
Collision energy: 20 ev
Column name: Agilent C8 Cartridge Column 2.1X30mm 3.5 micron (guard); Agilent SB-Aq 2.1x50mm 1.8 micron (analytical)
Retention time: 10.537
Base peak: 458
Precursor m/z: 458.1962
Precursor type: [M+H]+
m/z	relative intensity
105.0355	44
293.1039	25
323.1171	23
324.125	31
337.1137	23
338.1338	69
339.1385	110
352.1184	84
352.1609	69
353.1651	181
367.1395	785
367.1826	31
367.2145	42
380.144	100
381.1548	36
399.1642	30
409.163	68
410.1718	100
428.144	149
428.1922	25
440.1816	305
441.185	289
442.1555	147
442.1876	47
443.1701	655
443.2366	53
457.1792	125
458.194	999
