Mass spectrum: Naringenin; LC-ESI-QTOF; MS2; CE 20 ev; [M-H]-
Name: Naringenin
Formula: C15H12O5
Exact mass: 272.068473
SMILES: C1[C@H](OC2=CC(=CC(=C2C1=O)O)O)C3=CC=C(C=C3)O
InChI: InChI=1S/C15H12O5/c16-9-3-1-8(2-4-9)13-7-12(19)15-11(18)5-10(17)6-14(15)20-13/h1-6,13,16-18H,7H2/t13-/m0/s1
Instrument: Agilent 1200 RRLC; Agilent 6520 QTOF
Instrument type: LC-ESI-QTOF
Ms type: MS2
Ion mode: NEGATIVE
Collision energy: 20 ev
Column name: Agilent C8 Cartridge Column 2.1X30mm 3.5 micron (guard); Agilent SB-Aq 2.1x50mm 1.8 micron (analytical)
Retention time: 6.647
Base peak: 151
Precursor m/z: 271.0612
Precursor type: [M-H]-
m/z	relative intensity
107.014	251
107.0503	6
108.9906	6
119.0496	633
119.083	19
119.1513	9
121.0302	6
125.0223	18
143.0489	6
145.0294	16
151.0031	999
151.0395	30
151.0551	6
151.0828	9
151.1178	16
161.0614	8
165.0187	41
177.0179	131
185.0591	10
187.0393	13
227.0693	19
229.0486	6
253.053	9
271.0594	262
