Mass spectrum: Chrysin; LC-ESI-QTOF; MS2; CE 40 ev; [M-H]-
Name: Chrysin
Formula: C15H10O4
Exact mass: 254.057909
SMILES: C1=CC=C(C=C1)C2=CC(=O)C3=C(C=C(C=C3O2)O)O
InChI: InChI=1S/C15H10O4/c16-10-6-11(17)15-12(18)8-13(19-14(15)7-10)9-4-2-1-3-5-9/h1-8,16-17H
Instrument: Agilent 1200 RRLC; Agilent 6520 QTOF
Instrument type: LC-ESI-QTOF
Ms type: MS2
Ion mode: NEGATIVE
Collision energy: 40 ev
Column name: Agilent C8 Cartridge Column 2.1X30mm 3.5 micron (guard); Agilent SB-Aq 2.1x50mm 1.8 micron (analytical)
Retention time: 8.643
Base peak: 143
Precursor m/z: 253.0506
Precursor type: [M-H]-
m/z	relative intensity
100.4298	17
101.0395	553
101.0631	13
101.0901	8
101.1318	10
106.0032	10
107.0143	443
107.0411	12
114.0449	8
115.0559	233
115.0869	10
117.0335	45
119.0124	8
119.0499	719
119.0848	23
119.1245	11
119.1508	12
119.7731	11
121.0243	14
125.0377	39
127.0543	57
129.0374	16
132.0229	14
138.0473	18
139.054	79
141.0338	31
142.0464	12
143.0496	999
143.0754	31
143.0831	10
143.0934	11
143.1031	11
143.1337	8
143.1609	15
143.2565	8
145.0285	573
145.0534	9
145.0625	17
147.0119	19
148.0147	8
150.9332	18
151.0036	52
152.0628	24
153.0733	17
155.0489	117
156.3393	7
157.0664	32
165.0321	12
165.0704	122
166.0431	8
167.0483	170
169.0344	22
169.0669	25
180.0553	34
181.0655	77
181.0834	10
183.0426	25
185.0644	53
194.0332	8
195.0454	14
197.0609	24
205.8429	11
207.0341	11
208.0512	57
209.0559	80
209.0668	17
211.0465	9
228.6876	13
235.0442	9
253.0478	123
