Mass spectrum: 5-Ethyl-2'-deoxyuridine; LC-ESI-QTOF; MS2; CE 10 ev; [M-H]-
Name: 5-Ethyl-2'-deoxyuridine
Formula: C11H16N2O5
Exact mass: 256.105922
SMILES: CCC1=CN(C(=O)NC1=O)C2CC(C(O2)CO)O
InChI: InChI=1S/C11H16N2O5/c1-2-6-4-13(11(17)12-10(6)16)9-3-7(15)8(5-14)18-9/h4,7-9,14-15H,2-3,5H2,1H3,(H,12,16,17)
Instrument: Agilent 1200 RRLC; Agilent 6520 QTOF
Instrument type: LC-ESI-QTOF
Ms type: MS2
Ion mode: NEGATIVE
Collision energy: 10 ev
Column name: Agilent C8 Cartridge Column 2.1X30mm 3.5 micron (guard); Agilent SB-Aq 2.1x50mm 1.8 micron (analytical)
Retention time: 2.447
Base peak: 255
Precursor m/z: 255.0986
Precursor type: [M-H]-
m/z	relative intensity
126.5176	13
130.0011	7
130.3905	6
132.034	11
138.5559	7
139.0456	10
139.0539	44
140.0733	6
150.0949	6
164.0711	6
165.0653	68
165.1031	6
182.0828	9
203.9973	8
212.0942	15
254.5243	5
255.0968	999
