Mass spectrum: 6a,12a-Didehydroamorphigenin; LC-ESI-QTOF; MS2; CE 20 ev; [M+H]+
Name: 6a,12a-Didehydroamorphigenin
Name: 2-(2-hydroxy-1-methyleneethyl)-8,9-dimethoxy-1,2-dihydro-12H-chromeno[3,4-b]fu rano[2,3-h]chromen-6-one
Formula: C23H20O7
Exact mass: 408.120903
SMILES: COC1=C(C=C2C(=C1)C3=C(CO2)OC4=C(C3=O)C=CC5=C4CC(O5)C(=C)CO)OC
InChI: InChI=1S/C23H20O7/c1-11(9-24)16-7-14-15(29-16)5-4-12-22(25)21-13-6-18(26-2)19(27-3)8-17(13)28-10-20(21)30-23(12)14/h4-6,8,16,24H,1,7,9-10H2,2-3H3
Instrument: Agilent 1200 RRLC; Agilent 6520 QTOF
Instrument type: LC-ESI-QTOF
Ms type: MS2
Ion mode: POSITIVE
Collision energy: 20 ev
Column name: Agilent C8 Cartridge Column 2.1X30mm 3.5 micron (guard); Agilent SB-Aq 2.1x50mm 1.8 micron (analytical)
Retention time: 9.452
Base peak: 378
Precursor m/z: 409.1282
Precursor type: [M+H]+
m/z	relative intensity
302.0665	170
319.0856	187
323.087	110
331.0942	176
332.098	181
334.0923	247
345.0798	187
346.0794	296
349.105	686
363.0901	274
363.1197	214
377.104	862
378.1052	999
379.0752	165
394.1145	181
408.1213	176
