Mass spectrum: Foliosidine; LC-ESI-QTOF; MS2; CE 20 ev; [M+H]+
Name: Foliosidine
Name: 8-(2,3-dihydroxy-3-methylbutoxy)-4-methoxy-1-methylhydroquinolin-2-one
Formula: C16H21NO5
Exact mass: 307.141973
SMILES: CC(C)(C(COC1=CC=CC2=C1N(C(=O)C=C2OC)C)O)O
InChI: InChI=1S/C16H21NO5/c1-16(2,20)13(18)9-22-11-7-5-6-10-12(21-4)8-14(19)17(3)15(10)11/h5-8,13,18,20H,9H2,1-4H3
Instrument: Agilent 1200 RRLC; Agilent 6520 QTOF
Instrument type: LC-ESI-QTOF
Ms type: MS2
Ion mode: POSITIVE
Collision energy: 20 ev
Column name: Agilent C8 Cartridge Column 2.1X30mm 3.5 micron (guard); Agilent SB-Aq 2.1x50mm 1.8 micron (analytical)
Retention time: 7.276
Base peak: 290
Precursor m/z: 308.1493
Precursor type: [M+H]+
m/z	relative intensity
146.0626	23
162.048	18
173.042	53
174.0537	102
176.0693	17
187.1186	19
188.0666	123
190.0489	43
191.0579	58
192.0615	25
192.0709	20
203.0547	34
204.0642	167
205.0725	707
205.1194	26
206.0791	616
206.1212	24
218.0815	236
219.0789	20
230.0837	87
244.1388	21
260.1294	26
272.1283	42
290.138	999
290.187	46
290.2218	26
291.1455	18
308.149	242
