Mass spectrum: Haploperoside C Acetate; LC-ESI-QTOF; MS2; CE 10 ev; [M+CH3COOH-H]-
Name: Haploperoside C Acetate
Formula: C34H40O19
Exact mass: 752.216379
SMILES: CC1C(C(C(C(O1)OCC2C(C(C(C(O2)OC3=C(C=C4C=CC(=O)OC4=C3)OC)OC(=O)C)OC(=O)C)OC(=O)C)OC(=O)C)OC(=O)C)OC(=O)C
InChI: InChI=1S/C34H40O19/c1-14-27(45-15(2)35)29(47-17(4)37)31(49-19(6)39)33(44-14)43-13-25-28(46-16(3)36)30(48-18(5)38)32(50-20(7)40)34(53-25)52-24-12-22-21(11-23(24)42-8)9-10-26(41)51-22/h9-12,14,25,27-34H,13H2,1-8H3
Instrument: Agilent 1200 RRLC; Agilent 6520 QTOF
Instrument type: LC-ESI-QTOF
Ms type: MS2
Ion mode: NEGATIVE
Collision energy: 10 ev
Column name: Agilent C8 Cartridge Column 2.1X30mm 3.5 micron (guard); Agilent SB-Aq 2.1x50mm 1.8 micron (analytical)
Retention time: 9.074
Base peak: 811
Precursor m/z: 811.2297
Precursor type: [M+CH3COOH-H]-
m/z	relative intensity
101.5995	25
107.0863	61
134.8419	25
134.8614	26
191.0385	59
208.7993	42
240.7258	40
308.3784	40
314.4692	27
428.1882	22
454.3881	37
454.4325	29
469.7368	28
470.2938	32
492.9176	24
504.9933	24
511.3772	27
544.9852	32
605.4006	43
712.8361	111
729.1287	28
737.1449	36
737.1802	39
737.5323	42
751.2064	86
751.2541	25
769.2199	36
811.2278	999
