Mass spectrum: 2-[6-(diethylamino)purin-9-yl]-5-(hydroxymethyl)oxolane-3,4-diol; LC-ESI-QTOF; MS2; CE 10 ev; [M+H]+
Name: 2-[6-(diethylamino)purin-9-yl]-5-(hydroxymethyl)oxolane-3,4-diol
Formula: C14H21N5O4
Exact mass: 323.159354
SMILES: CCN(CC)C1=NC=NC2=C1N=CN2C3C(C(C(O3)CO)O)O
InChI: InChI=1S/C14H21N5O4/c1-3-18(4-2)12-9-13(16-6-15-12)19(7-17-9)14-11(22)10(21)8(5-20)23-14/h6-8,10-11,14,20-22H,3-5H2,1-2H3
Instrument: Agilent 1200 RRLC; Agilent 6520 QTOF
Instrument type: LC-ESI-QTOF
Ms type: MS2
Ion mode: POSITIVE
Collision energy: 10 ev
Column name: Agilent C8 Cartridge Column 2.1X30mm 3.5 micron (guard); Agilent SB-Aq 2.1x50mm 1.8 micron (analytical)
Retention time: 5.208
Base peak: 192
Precursor m/z: 324.1667
Precursor type: [M+H]+
m/z	relative intensity
136.0621	10
164.0927	11
164.1018	4
192.1239	999
192.161	31
192.1839	12
192.2074	9
192.2524	9
192.5182	4
192.5736	3
192.6205	3
192.7598	3
207.0548	5
208.0591	3
314.2343	3
323.1036	13
324.1	15
324.1658	618
