Mass spectrum: Peganine; LC-APCI-QTOF; MS; POSITIVE
Name: Peganine
Formula: C11H12N2O
Exact mass: 188.094963
SMILES: C1CN2CC3=CC=CC=C3N=C2C1O
InChI: InChI=1S/C11H12N2O/c14-10-5-6-13-7-8-3-1-2-4-9(8)12-11(10)13/h1-4,10,14H,5-7H2
Instrument: Agilent 1200 RRLC; Agilent 6520 QTOF
Instrument type: LC-APCI-QTOF
Ms type: MS
Ion mode: POSITIVE
Column name: Agilent C8 Cartridge Column 2.1X30mm 3.5 micron (guard); Agilent SB-Aq 2.1x50mm 1.8 micron (analytical)
Retention time: 0.394
m/z	relative intensity
189.1022765	999
