Mass spectrum: Usnic acid; LC-ESI-QTOF; MS2; CE 40 ev; [M-H]-
Name: Usnic acid
Formula: C18H16O7
Exact mass: 344.089603
SMILES: CC1=C(C(=C2C(=C1O)C3(C(=CC(=O)C(C3=O)C(=O)C)O2)C)C(=O)C)O
InChI: InChI=1S/C18H16O7/c1-6-14(22)12(8(3)20)16-13(15(6)23)18(4)10(25-16)5-9(21)11(7(2)19)17(18)24/h5,11,22-23H,1-4H3
Instrument: Agilent 1200 RRLC; Agilent 6520 QTOF
Instrument type: LC-ESI-QTOF
Ms type: MS2
Ion mode: NEGATIVE
Collision energy: 40 ev
Column name: Agilent C8 Cartridge Column 2.1X30mm 3.5 micron (guard); Agilent SB-Aq 2.1x50mm 1.8 micron (analytical)
Retention time: 10.751
Base peak: 313
Precursor m/z: 343.0823
Precursor type: [M-H]-
m/z	relative intensity
103.437	23
105.8617	26
139.0438	22
141.071	28
142.047	39
143.0844	20
145.0638	111
149.0573	20
159.0452	32
159.083	22
160.0514	56
161.0566	100
169.0679	36
170.0726	49
171.0421	104
173.055	37
185.0564	71
186.0276	40
187.0443	41
187.0797	39
188.0431	68
189.0542	270
189.0806	20
199.062	30
203.0745	90
203.9254	22
207.245	22
213.049	106
213.0678	31
214.02	31
214.0344	54
215.034	249
215.0531	32
215.9843	19
216.0411	25
216.0823	21
217.061	40
226.0652	19
229.047	424
231.0136	24
231.0639	511
231.1114	22
240.0361	28
241.0476	127
242.0651	30
243.0259	19
245.0404	40
255.0683	41
257.0421	370
257.1889	22
257.4896	22
259.0549	23
259.0782	21
262.6561	28
268.0323	19
269.0473	139
269.346	19
285.0408	129
286.0508	22
297.0778	37
299.045	22
299.0701	40
306.8661	31
313.0361	999
313.087	65
313.1148	39
313.1378	24
314.2166	21
327.0465	61
327.1437	47
328.059	176
