Mass spectrum: Strychnine_N_Oxide; LC-ESI-QTOF; MS2; CE:10 eV; [M+H]+
Name: Strychnine_N_Oxide
Formula: C21H22N2O3
Exact mass: 350.16304
SMILES: C1C[N+]2(CC3=CCO[C@H]4CC(=O)N5[C@H]6[C@H]4[C@H]3C[C@H]2[C@@]61C7=CC=CC=C75)[O-]
InChI: InChI=1S/C21H22N2O3/c24-18-10-16-19-13-9-17-21(6-7-23(17,25)11-12(13)5-8-26-16)14-3-1-2-4-15(14)22(18)20(19)21/h1-5,13,16-17,19-20H,6-11H2/t13-,16-,17-,19-,20-,21+,23?/m0/s1
Instrument: Micromass Q-TOF II
Instrument type: LC-ESI-QTOF
Ms type: MS2
Ion mode: POSITIVE
Collision energy: 10 eV
Ionization: ESI
Precursor m/z: 351.17098
Precursor type: [M+H]+
m/z	relative intensity
351.1683	999
