Mass spectrum: Adenosine_Diphosphate; LC-ESI-QTOF; MS2; CE:10 eV; [M+H]+
Name: Adenosine_Diphosphate
Formula: C10H15N5O10P2
Exact mass: 427.02941
SMILES: [H]OC([H])(C([H])(O[H])1)C([H])(OC([H])(n(c([H])3)c(n2)c(n3)c(N([H])[H])nc([H])2)1)C([H])([H])OP(=O)(O[H])OP(=O)(O[H])O[H]
InChI: InChI=1S/C10H15N5O10P2/c11-8-5-9(13-2-12-8)15(3-14-5)10-7(17)6(16)4(24-10)1-23-27(21,22)25-26(18,19)20/h2-4,6-7,10,16-17H,1H2,(H,21,22)(H2,11,12,13)(H2,18,19,20)
Instrument: Micromass Q-TOF II
Instrument type: LC-ESI-QTOF
Ms type: MS2
Ion mode: POSITIVE
Collision energy: 10 eV
Ionization: ESI
Precursor m/z: 428.03735
Precursor type: [M+H]+
m/z	relative intensity
136.0626	77
348.0697	25
428.034	999
428.2112	11
