Mass spectrum: Amfenac; LC-ESI-QTOF; MS2; CE:10 eV; [M+H]+
Name: Amfenac
Formula: C15H13NO3
Exact mass: 255.08954
SMILES: [H]OC(=O)C([H])([H])c(c([H])2)c(N([H])[H])c(c([H])c([H])2)C(=O)c(c([H])1)c([H])c([H])c([H])c([H])1
InChI: InChI=1S/C15H13NO3/c16-14-11(9-13(17)18)7-4-8-12(14)15(19)10-5-2-1-3-6-10/h1-8H,9,16H2,(H,17,18)
Instrument: Micromass Q-TOF II
Instrument type: LC-ESI-QTOF
Ms type: MS2
Ion mode: POSITIVE
Collision energy: 10 eV
Ionization: ESI
Precursor m/z: 256.09748
Precursor type: [M+H]+
m/z	relative intensity
210.0898	82
238.0844	284
256.0938	999
256.2611	462
