Mass spectrum: Reserpine; LC-ESI-QTOF; MS2; CE:10 eV; [M+H]+
Name: Reserpine
Formula: C33H40N2O9
Exact mass: 608.27338
SMILES: c(C6([H])[H])(c12)c(C(N(C6([H])[H])5)(C(C([H])(C([H])3C(=O)OC([H])([H])[H])C([H])(C5([H])[H])C(C(OC(=O)c(c4[H])c(c(OC([H])([H])[H])c(c(OC([H])([H])[H])4)OC([H])([H])[H])[H])([H])C3(OC([H])([H])[H])[H])([H])[H])([H])[H])[H])n(c1c([H])c(c(c([H])2)[H])OC([H])([H])[H])[H]
InChI: InChI=1S/C33H40N2O9/c1-38-19-7-8-20-21-9-10-35-16-18-13-27(44-32(36)17-11-25(39-2)30(41-4)26(12-17)40-3)31(42-5)28(33(37)43-6)22(18)15-24(35)29(21)34-23(20)14-19/h7-8,11-12,14,18,22,24,27-28,31,34H,9-10,13,15-16H2,1-6H3
Instrument: Micromass Q-TOF II
Instrument type: LC-ESI-QTOF
Ms type: MS2
Ion mode: POSITIVE
Collision energy: 10 eV
Ionization: ESI
Precursor m/z: 609.28132
Precursor type: [M+H]+
m/z	relative intensity
609.2748	999
