Mass spectrum: Tripelennamine; LC-ESI-QTOF; MS2; CE:20 eV; [M+H]+
Name: Tripelennamine
Formula: C16H21N3
Exact mass: 255.17355
SMILES: [H]c(c([H])2)nc(c([H])c([H])2)N(C([H])([H])C([H])([H])N(C([H])([H])[H])C([H])([H])[H])C([H])([H])c(c([H])1)c([H])c([H])c([H])c([H])1
InChI: InChI=1S/C16H21N3/c1-18(2)12-13-19(16-10-6-7-11-17-16)14-15-8-4-3-5-9-15/h3-11H,12-14H2,1-2H3
Instrument: Micromass Q-TOF II
Instrument type: LC-ESI-QTOF
Ms type: MS2
Ion mode: POSITIVE
Collision energy: 20 eV
Ionization: ESI
Precursor m/z: 256.18149
Precursor type: [M+H]+
m/z	relative intensity
91.0548	47
119.0608	50
120.0687	34
211.1215	999
