Mass spectrum: Sufentanil; LC-ESI-QTOF; MS2; CE:20 eV; [M+H]+
Name: Sufentanil
Formula: C22H30N2O2S
Exact mass: 386.20280
SMILES: [H]C([H])([H])OC([H])([H])C(N(C(=O)C([H])([H])C([H])([H])[H])c(c([H])3)c([H])c([H])c([H])c([H])3)(C([H])([H])1)C([H])([H])C([H])([H])N(C([H])([H])C([H])([H])c(s2)c([H])c([H])c([H])2)C([H])([H])1
InChI: InChI=1S/C22H30N2O2S/c1-3-21(25)24(19-8-5-4-6-9-19)22(18-26-2)12-15-23(16-13-22)14-11-20-10-7-17-27-20/h4-10,17H,3,11-16,18H2,1-2H3
Instrument: Micromass Q-TOF II
Instrument type: LC-ESI-QTOF
Ms type: MS2
Ion mode: POSITIVE
Collision energy: 20 eV
Ionization: ESI
Precursor m/z: 387.21074
Precursor type: [M+H]+
m/z	relative intensity
111.0272	25
140.1078	35
206.1006	28
224.1114	13
238.1258	999
355.1854	376
387.2116	326
