Mass spectrum: Dobutamine; LC-ESI-QTOF; MS2; CE:20 eV; [M+H]+
Name: Dobutamine
Formula: C18H23NO3
Exact mass: 301.16779
SMILES: [H]Oc(c([H])2)c([H])c([H])c(c([H])2)C([H])([H])C([H])([H])C([H])(C([H])([H])[H])N([H])C([H])([H])C([H])([H])c(c([H])1)c([H])c(O[H])c(O[H])c([H])1
InChI: InChI=1S/C18H23NO3/c1-13(2-3-14-4-7-16(20)8-5-14)19-11-10-15-6-9-17(21)18(22)12-15/h4-9,12-13,19-22H,2-3,10-11H2,1H3
Instrument: Micromass Q-TOF II
Instrument type: LC-ESI-QTOF
Ms type: MS2
Ion mode: POSITIVE
Collision energy: 20 eV
Ionization: ESI
Precursor m/z: 302.17573
Precursor type: [M+H]+
m/z	relative intensity
58.0646	20
91.0543	24
107.0495	484
119.0493	24
137.0597	999
149.0963	47
154.0866	112
166.1229	201
302.1741	791
