Mass spectrum: Norpropoxyphene; LC-ESI-QTOF; MS2; CE:20 eV; [M+H]+
Name: Norpropoxyphene
Formula: C21H27NO2
Exact mass: 325.20418
SMILES: [H]C([H])([H])N([H])C([H])([H])C([H])(C([H])([H])[H])C(OC(=O)C([H])([H])C([H])([H])[H])(c(c([H])2)c([H])c([H])c([H])c([H])2)C([H])([H])c(c([H])1)c([H])c([H])c([H])c([H])1
InChI: InChI=1S/C21H27NO2/c1-4-20(23)24-21(17(2)16-22-3,19-13-9-6-10-14-19)15-18-11-7-5-8-12-18/h5-14,17,22H,4,15-16H2,1-3H3
Instrument: Micromass Q-TOF II
Instrument type: LC-ESI-QTOF
Ms type: MS2
Ion mode: POSITIVE
Collision energy: 20 eV
Ionization: ESI
Precursor m/z: 326.21212
Precursor type: [M+H]+
m/z	relative intensity
91.0557	363
105.0712	135
128.0682	90
143.0838	999
181.1082	105
221.1325	105
252.1728	138
