Mass spectrum: Spectinomycin; LC-ESI-QTOF; MS2; CE:20 eV; [M+H]+
Name: Spectinomycin
Formula: C14H24N2O7
Exact mass: 332.15835
SMILES: [H]C([H])([H])N([H])C([H])(C([H])(O[H])1)C([H])(O[H])C([H])(O2)C([H])(OC(O[H])(C(=O)3)C([H])(OC([H])(C([H])([H])[H])C([H])([H])3)2)C([H])(N([H])C([H])([H])[H])1
InChI: InChI=1S/C14H24N2O7/c1-5-4-6(17)14(20)13(21-5)22-12-10(19)7(15-2)9(18)8(16-3)11(12)23-14/h5,7-13,15-16,18-20H,4H2,1-3H3
Instrument: Micromass Q-TOF II
Instrument type: LC-ESI-QTOF
Ms type: MS2
Ion mode: POSITIVE
Collision energy: 20 eV
Ionization: ESI
Precursor m/z: 333.16629
Precursor type: [M+H]+
m/z	relative intensity
98.0602	26
100.0758	14
116.0708	24
122.0601	14
140.0703	41
153.1014	11
158.0809	22
189.1232	39
284.1116	19
302.1224	31
305.1698	11
315.154	16
333.1614	999
