Mass spectrum: Pyrilamine; LC-ESI-QTOF; MS2; CE:50 eV; [M+H]+
Name: Pyrilamine
Formula: C17H23N3O
Exact mass: 285.18411
SMILES: [H]C([H])([H])Oc(c([H])2)c([H])c([H])c(c([H])2)C([H])([H])N(c(n1)c([H])c([H])c([H])c([H])1)C([H])([H])C([H])([H])N(C([H])([H])[H])C([H])([H])[H]
InChI: InChI=1S/C17H23N3O/c1-19(2)12-13-20(17-6-4-5-11-18-17)14-15-7-9-16(21-3)10-8-15/h4-11H,12-14H2,1-3H3
Instrument: Micromass Q-TOF II
Instrument type: LC-ESI-QTOF
Ms type: MS2
Ion mode: POSITIVE
Collision energy: 50 eV
Ionization: ESI
Precursor m/z: 286.19205
Precursor type: [M+H]+
m/z	relative intensity
53.0389	16
65.038	29
77.0387	249
78.0466	255
91.0548	289
93.071	17
95.0496	97
106.0417	78
121.0653	999
