Mass spectrum: Diphenoxylate; LC-ESI-QTOF; MS2; CE:40 eV; [M+H]+
Name: Diphenoxylate
Formula: C30H32N2O2
Exact mass: 452.24638
SMILES: [H]C([H])([H])C([H])([H])OC(C(c(c4[H])c(c([H])c(c4[H])[H])[H])(C([H])([H])1)C([H])([H])C([H])([H])N(C(C(C(C#N)(c(c3[H])c(c([H])c(c([H])3)[H])[H])c(c2[H])c(c([H])c(c([H])2)[H])[H])([H])[H])([H])[H])C([H])([H])1)=O
InChI: InChI=1S/C30H32N2O2/c1-2-34-28(33)29(25-12-6-3-7-13-25)18-21-32(22-19-29)23-20-30(24-31,26-14-8-4-9-15-26)27-16-10-5-11-17-27/h3-17H,2,18-23H2,1H3
Instrument: Micromass Q-TOF II
Instrument type: LC-ESI-QTOF
Ms type: MS2
Ion mode: POSITIVE
Collision energy: 40 eV
Ionization: ESI
Precursor m/z: 453.25432
Precursor type: [M+H]+
m/z	relative intensity
56.0504	48
57.0575	866
68.0494	15
70.0651	21
82.0659	92
83.0742	45
84.0829	11
85.0873	11
91.0549	117
96.0796	21
100.0402	33
103.0545	44
104.058	21
105.071	20
106.0667	14
110.0973	31
112.0393	13
114.0548	20
115.0554	36
116.0681	14
117.0689	142
118.0749	33
119.0753	15
120.0808	52
126.0552	223
127.0636	65
128.0645	78
129.0724	45
130.0719	28
131.0754	122
132.0814	57
133.0809	12
141.0764	21
142.0832	39
143.0856	121
144.08	183
145.0898	54
146.0956	36
155.095	39
158.0971	356
159.06	22
159.1035	167
160.1132	168
161.1188	38
162.0688	78
165.0705	504
167.0863	17
172.1124	342
174.1295	53
176.0721	19
177.0876	13
184.1132	11
186.1167	117
187.1001	999
187.1464	52
188.132	20
190.0984	173
191.0734	30
192.0813	415
193.1008	28
194.0989	17
204.1016	449
205.1081	138
218.1174	226
220.1108	96
222.1281	19
232.1321	162
233.1416	119
237.1407	10
246.149	168
249.1387	291
260.1626	24
275.1556	43
351.1866	40
377.2004	21
379.2163	73
407.2082	32
425.2238	268
453.2543	205
