Mass spectrum: Sulfasalazine; LC-ESI-QTOF; MS2; CE:40 eV; [M+H]+
Name: Sulfasalazine
Formula: C18H14N4O5S
Exact mass: 398.06849
SMILES: [H]OC(=O)c(c(=O)1)c([H])c(=NN([H])c(c([H])3)c([H])c([H])c(c([H])3)S(=O)(=O)N([H])c(n2)c([H])c([H])c([H])c([H])2)c([H])c([H])1
InChI: InChI=1S/C18H14N4O5S/c23-16-9-6-13(11-15(16)18(24)25)21-20-12-4-7-14(8-5-12)28(26,27)22-17-3-1-2-10-19-17/h1-11,20H,(H,19,22)(H,24,25)/b21-13+
Instrument: Micromass Q-TOF II
Instrument type: LC-ESI-QTOF
Ms type: MS2
Ion mode: POSITIVE
Collision energy: 40 eV
Ionization: ESI
Precursor m/z: 399.07643
Precursor type: [M+H]+
m/z	relative intensity
67.0399	83
77.0381	20
81.0326	59
91.0175	301
93.0434	30
94.0518	605
95.0555	22
105.0455	12
109.0276	46
111.0436	61
119.0123	999
134.0233	12
137.022	392
139.0537	222
140.0518	32
147.018	294
149.038	10
152.0351	10
155.0357	404
156.0582	19
157.0084	21
157.0754	84
165.0281	131
167.058	59
168.0656	78
169.0753	92
170.0789	34
171.0544	15
177.0325	13
181.0638	11
182.0641	12
183.055	50
185.0652	96
186.0541	15
195.0515	25
211.0494	35
213.0642	72
223.0481	118
224.0553	19
234.0452	25
239.043	42
241.059	234
242.0666	12
257.0533	207
259.0755	39
287.0871	18
