Mass spectrum: Cholesterol; LC-ESI-QTOF; MS2; CE:30 eV; [M+H]+
Name: Cholesterol
Formula: C27H46O
Exact mass: 386.35487
SMILES: [H]C(C([H])([H])C([H])([H])C([H])([H])C(C(C4([H])[H])([H])C(C([H])([H])[H])(C3([H])[H])C(C4([H])[H])([H])C([H])(C([H])(C3([H])[H])1)C([H])([H])C([H])=C(C([H])([H])2)C1(C([H])([H])C([H])([H])C([H])(O[H])2)C([H])([H])[H])(C([H])([H])[H])[H])(C([H])([H])[H])C([H])([H])[H]
InChI: InChI=1S/C27H46O/c1-18(2)7-6-8-19(3)23-11-12-24-22-10-9-20-17-21(28)13-15-26(20,4)25(22)14-16-27(23,24)5/h9,18-19,21-25,28H,6-8,10-17H2,1-5H3
Instrument: Micromass Q-TOF II
Instrument type: LC-ESI-QTOF
Ms type: MS2
Ion mode: POSITIVE
Collision energy: 30 eV
Ionization: ESI
Precursor m/z: 387.36281
Precursor type: [M+H]+
m/z	relative intensity
57.0705	37
71.0493	78
81.0675	38
83.0529	143
101.063	37
147.1185	31
175.0155	999
227.0437	62
231.0715	72
275.0667	130
331.1326	130
