Mass spectrum: Buprenorphine; LC-ESI-QTOF; MS2; CE:40 eV; [M+H]+
Name: Buprenorphine
Formula: C29H41NO4
Exact mass: 467.30356
SMILES: C(O[H])(C(C([H])([H])[H])(C([H])([H])[H])C([H])([H])[H])(C(C([H])([H])6)([H])C(C([H])([H])7)(C(C514)(Oc(c(O[H])2)c1c(C(C(C56C7([H])[H])([H])N(C([H])([H])C4([H])[H])C([H])([H])C(C3([H])[H])(C3([H])[H])[H])([H])[H])c([H])c([H])2)[H])OC([H])([H])[H])C([H])([H])[H]
InChI: InChI=1S/C29H41NO4/c1-25(2,3)26(4,32)20-15-27-10-11-29(20,33-5)24-28(27)12-13-30(16-17-6-7-17)21(27)14-18-8-9-19(31)23(34-24)22(18)28/h8-9,17,20-21,24,31-32H,6-7,10-16H2,1-5H3
Instrument: Micromass Q-TOF II
Instrument type: LC-ESI-QTOF
Ms type: MS2
Ion mode: POSITIVE
Collision energy: 40 eV
Ionization: ESI
Precursor m/z: 468.31150
Precursor type: [M+H]+
m/z	relative intensity
55.0557	49
83.0875	20
84.0827	48
101.0984	49
187.0781	34
199.0783	11
211.0791	20
223.0796	15
225.0934	16
237.0948	16
239.1081	19
241.1004	14
243.1058	33
251.1093	11
253.1016	16
265.125	18
267.107	23
268.1145	16
269.1215	11
281.1416	12
297.1503	11
312.1637	13
324.1637	18
326.1789	19
338.1796	28
339.1888	10
340.1936	16
352.197	13
368.2207	23
370.2072	30
396.2242	165
414.2688	117
426.2697	11
468.3142	999
