Mass spectrum: 6a_Methylprednisolone; LC-ESI-QTOF; MS2; CE:10 eV; [M+H]+
Name: 6a_Methylprednisolone
Formula: C22H30O5
Exact mass: 374.20932
SMILES: [H]OC([H])([H])C(=O)C(O[H])(C([H])([H])4)C(C([H])([H])[H])(C([H])([H])3)C([H])(C([H])([H])4)C([H])(C([H])([H])1)C([H])(C([H])(O[H])3)C(C([H])=2)(C([H])([H])[H])C(=C([H])C(=O)C([H])2)C([H])(C([H])([H])[H])1
InChI: InChI=1S/C22H30O5/c1-12-8-14-15-5-7-22(27,18(26)11-23)21(15,3)10-17(25)19(14)20(2)6-4-13(24)9-16(12)20/h4,6,9,12,14-15,17,19,23,25,27H,5,7-8,10-11H2,1-3H3
Instrument: Micromass Q-TOF II
Instrument type: LC-ESI-QTOF
Ms type: MS2
Ion mode: POSITIVE
Collision energy: 10 eV
Ionization: ESI
Precursor m/z: 375.21726
Precursor type: [M+H]+
m/z	relative intensity
135.0804	15
161.0958	30
185.0961	12
187.1111	15
251.1418	18
253.1579	32
277.1572	15
279.1711	38
281.1871	12
293.166	60
297.1746	21
303.1726	39
309.1852	15
311.1982	12
321.1842	142
339.1953	359
357.2061	912
375.2159	999
