Mass spectrum: Gingerol; LC-ESI-QTOF; MS2; CE:40 eV; [M+H]+
Name: 6-Gingerol
Name: (5S)-5-Hydroxy-1-(4-hydroxy-3-methoxyphenyl)-3-decanone
Formula: C17H26O4
Exact mass: 294.18311
SMILES: CCCCC[C@@H](CC(=O)CCC1=CC(=C(C=C1)O)OC)O
InChI: InChI=1S/C17H26O4/c1-3-4-5-6-14(18)12-15(19)9-7-13-8-10-16(20)17(11-13)21-2/h8,10-11,14,18,20H,3-7,9,12H2,1-2H3/t14-/m0/s1
Instrument: Micromass Q-TOF II
Instrument type: LC-ESI-QTOF
Ms type: MS2
Ion mode: POSITIVE
Collision energy: 40 eV
Ionization: ESI
Precursor m/z: 295.19105
Precursor type: [M+H]+
m/z	relative intensity
66.0465	10
77.0393	11
79.0561	21
81.0723	15
91.0556	39
94.0427	155
103.0571	69
107.0481	14
115.0578	29
117.0727	38
122.0375	388
131.0502	24
137.0607	999
145.0659	17
162.069	15
