Mass spectrum: Mefenamic_Acid; LC-ESI-QTOF; MS2; CE:50 eV; [M+H]+
Name: Mefenamic_Acid
Formula: C15H15NO2
Exact mass: 241.11028
SMILES: [H]OC(=O)c(c([H])2)c(c([H])c([H])c([H])2)N([H])c(c([H])1)c(C([H])([H])[H])c(C([H])([H])[H])c([H])c([H])1
InChI: InChI=1S/C15H15NO2/c1-10-6-5-9-13(11(10)2)16-14-8-4-3-7-12(14)15(17)18/h3-9,16H,1-2H3,(H,17,18)
Instrument: Micromass Q-TOF II
Instrument type: LC-ESI-QTOF
Ms type: MS2
Ion mode: POSITIVE
Collision energy: 50 eV
Ionization: ESI
Precursor m/z: 242.11822
Precursor type: [M+H]+
m/z	relative intensity
77.0393	26
128.0517	22
139.0544	11
140.0507	11
151.0551	20
152.0624	162
153.0687	54
154.066	35
166.0656	27
167.0738	22
169.0658	19
178.0659	87
179.0734	345
180.081	999
181.0885	17
183.0683	13
191.0739	11
192.0814	16
193.0889	22
194.0966	27
196.0766	10
207.0676	46
208.0757	238
209.0836	20
222.0908	11
