Mass spectrum: Sulfasalazine; LC-ESI-QTOF; MS2; CE:50 eV; [M+H]+
Name: Sulfasalazine
Formula: C18H14N4O5S
Exact mass: 398.06849
SMILES: [H]OC(=O)c(c(=O)1)c([H])c(=NN([H])c(c([H])3)c([H])c([H])c(c([H])3)S(=O)(=O)N([H])c(n2)c([H])c([H])c([H])c([H])2)c([H])c([H])1
InChI: InChI=1S/C18H14N4O5S/c23-16-9-6-13(11-15(16)18(24)25)21-20-12-4-7-14(8-5-12)28(26,27)22-17-3-1-2-10-19-17/h1-11,20H,(H,19,22)(H,24,25)/b21-13+
Instrument: Micromass Q-TOF II
Instrument type: LC-ESI-QTOF
Ms type: MS2
Ion mode: POSITIVE
Collision energy: 50 eV
Ionization: ESI
Precursor m/z: 399.07643
Precursor type: [M+H]+
m/z	relative intensity
63.0221	26
67.0401	232
76.0301	24
77.0377	19
80.0131	19
81.0327	112
91.0172	568
93.0437	32
94.0518	556
95.0536	24
96.0439	10
107.012	13
109.0274	48
111.0444	17
119.0123	999
120.0263	11
127.0529	16
128.0495	17
129.0463	12
137.0225	289
139.0531	124
140.0501	37
145.0643	13
147.0183	58
155.043	162
156.0639	28
157.0739	59
165.03	20
166.0508	13
167.0581	32
168.0666	80
169.0751	64
170.0741	24
183.0544	27
185.0379	66
257.054	24
