Mass spectrum: Betaxolol; LC-ESI-QTOF; MS2; CE:50 eV; [M+H]+
Name: Betaxolol
Formula: C18H29NO3
Exact mass: 307.21474
SMILES: [H]OC([H])(C([H])([H])Oc(c([H])2)c([H])c([H])c(c([H])2)C([H])([H])C([H])([H])OC([H])([H])C([H])(C([H])([H])1)C([H])([H])1)C([H])([H])N([H])C([H])(C([H])([H])[H])C([H])([H])[H]
InChI: InChI=1S/C18H29NO3/c1-14(2)19-11-17(20)13-22-18-7-5-15(6-8-18)9-10-21-12-16-3-4-16/h5-8,14,16-17,19-20H,3-4,9-13H2,1-2H3
Instrument: Micromass Q-TOF II
Instrument type: LC-ESI-QTOF
Ms type: MS2
Ion mode: POSITIVE
Collision energy: 50 eV
Ionization: ESI
Precursor m/z: 308.22268
Precursor type: [M+H]+
m/z	relative intensity
53.0391	28
55.0174	21
55.0541	714
56.0495	611
57.0336	20
57.0692	15
58.0646	158
65.038	48
67.0533	81
70.0655	11
72.0809	298
74.0603	358
77.039	564
78.0474	27
79.0548	406
81.0702	25
84.0812	85
91.055	999
93.0703	162
95.0497	200
98.0971	45
100.1127	66
102.047	22
103.0547	613
104.0628	117
105.0707	447
107.0505	78
109.0665	12
115.0548	384
116.0624	151
116.1098	25
117.0701	139
118.0647	19
119.0476	13
119.0869	26
120.0622	25
121.0654	269
127.0544	27
128.0625	255
129.0707	132
130.0757	23
131.0514	73
131.0898	21
132.0602	21
133.0649	102
141.0705	151
142.0777	29
143.0821	14
144.0576	106
145.0644	103
147.0807	19
148.0765	17
152.0644	13
153.0714	24
155.0841	11
157.0645	42
158.0747	13
159.0806	25
169.0665	12
171.0842	13
