Mass spectrum: Testosterone_Propionate; LC-ESI-QTOF; MS2; CE:50 eV; [M+H]+
Name: Testosterone_Propionate
Formula: C22H32O3
Exact mass: 344.23514
SMILES: [H]C([H])([H])C([H])([H])C(=O)OC([H])(C([H])([H])4)C(C([H])([H])[H])(C([H])([H])3)C([H])(C([H])([H])4)C([H])(C([H])([H])1)C([H])(C([H])([H])3)C(C([H])([H])[H])(C([H])([H])2)C(=C([H])C(=O)C([H])([H])2)C([H])([H])1
InChI: InChI=1S/C22H32O3/c1-4-20(24)25-19-8-7-17-16-6-5-14-13-15(23)9-11-21(14,2)18(16)10-12-22(17,19)3/h13,16-19H,4-12H2,1-3H3/t16?,17?,18?,19-,21-,22-/m0/s1
Instrument: Micromass Q-TOF II
Instrument type: LC-ESI-QTOF
Ms type: MS2
Ion mode: POSITIVE
Collision energy: 50 eV
Ionization: ESI
Precursor m/z: 345.24308
Precursor type: [M+H]+
m/z	relative intensity
53.039	13
55.0185	29
55.0545	28
57.0339	104
65.0383	14
67.0539	115
69.0327	15
69.0698	84
77.0392	102
79.055	494
81.0702	400
83.0498	60
91.0551	257
93.0704	134
94.0431	16
95.0477	24
95.0861	93
97.0655	999
103.0552	17
105.0704	226
107.0472	21
107.0868	52
109.0653	997
115.0538	20
117.07	48
119.0861	104
121.0645	28
121.1024	10
123.081	125
128.0631	29
129.0718	48
130.0787	13
131.0864	54
133.1013	41
141.0709	25
142.079	23
143.0859	39
145.1011	49
147.1155	14
153.0708	14
155.0865	20
157.1019	18
159.1168	19
167.085	16
169.1024	21
171.1193	11
181.1038	10
183.1165	11
