Mass spectrum: Prolintane; LC-ESI-QTOF; MS2; CE:40 eV; [M+H]+
Name: Prolintane
Formula: C15H23N
Exact mass: 217.18305
SMILES: [H]C([H])([H])C([H])([H])C([H])([H])C([H])(C([H])([H])c(c([H])2)c([H])c([H])c([H])c([H])2)N(C([H])([H])1)C([H])([H])C([H])([H])C([H])([H])1
InChI: InChI=1S/C15H23N/c1-2-8-15(16-11-6-7-12-16)13-14-9-4-3-5-10-14/h3-5,9-10,15H,2,6-8,11-13H2,1H3
Instrument: Micromass Q-TOF II
Instrument type: LC-ESI-QTOF
Ms type: MS2
Ion mode: POSITIVE
Collision energy: 40 eV
Ionization: ESI
Precursor m/z: 218.19099
Precursor type: [M+H]+
m/z	relative intensity
65.0378	61
72.0806	49
91.0533	999
105.0699	20
