Mass spectrum: Prednisolone; LC-ESI-QTOF; MS2; CE:30 eV; [M+H]+
Name: Prednisolone
Formula: C21H28O5
Exact mass: 360.19367
SMILES: [H]OC([H])([H])C(=O)C(O[H])(C([H])([H])4)C(C([H])([H])[H])(C([H])([H])3)C([H])(C([H])([H])4)C([H])(C([H])([H])1)C([H])(C([H])(O[H])3)C(C([H])=2)(C([H])([H])[H])C(=C([H])C(=O)C([H])2)C([H])([H])1
InChI: InChI=1S/C21H28O5/c1-19-7-5-13(23)9-12(19)3-4-14-15-6-8-21(26,17(25)11-22)20(15,2)10-16(24)18(14)19/h5,7,9,14-16,18,22,24,26H,3-4,6,8,10-11H2,1-2H3
Instrument: Micromass Q-TOF II
Instrument type: LC-ESI-QTOF
Ms type: MS2
Ion mode: POSITIVE
Collision energy: 30 eV
Ionization: ESI
Precursor m/z: 361.20161
Precursor type: [M+H]+
m/z	relative intensity
67.0534	15
69.068	12
77.038	10
79.0538	31
81.0698	36
83.05	11
91.0543	54
93.0692	73
95.0499	11
95.0857	43
97.0654	20
105.0698	80
107.0856	88
109.0644	22
109.1002	44
111.081	17
115.0526	12
117.0691	30
119.0859	114
121.0642	470
121.1032	17
123.0798	25
125.0591	14
128.062	17
129.07	22
131.0854	55
132.0552	14
133.0634	50
133.0997	47
135.0806	156
137.0957	14
139.0748	13
143.0843	44
145.0634	61
145.0999	80
146.0723	13
147.08	999
149.0951	21
151.0754	11
153.0722	13
155.0848	33
157.1017	35
158.0721	57
159.0799	144
159.1186	19
161.0951	96
163.0741	35
165.0886	26
167.0841	13
169.0996	22
171.0802	572
172.0884	12
173.0957	498
175.109	22
179.0881	27
181.1021	25
182.0707	11
183.0814	23
184.0849	13
185.0945	89
187.1111	51
190.0774	19
191.0956	16
193.1008	25
195.0794	49
195.1152	30
196.0879	32
197.096	122
198.102	13
199.1107	77
204.092	10
205.1013	43
206.1089	12
207.1165	26
208.0876	68
209.0954	110
210.1033	40
211.1107	111
212.1187	18
213.1253	44
217.1024	10
219.1108	33
220.0944	14
221.0957	90
222.1047	56
223.1106	263
224.12	49
225.1272	84
226.1329	32
227.1405	19
229.0995	10
231.1121	17
232.0925	19
233.0956	21
234.102	46
235.1098	55
236.1192	23
237.1257	154
238.1345	13
239.1416	124
241.1547	19
245.096	28
246.1038	24
247.1097	62
248.1187	48
249.1342	110
250.1323	31
251.1415	213
256.1251	12
259.1118	52
260.1169	34
261.126	51
262.1325	23
263.1413	57
264.1486	40
265.1573	109
266.1644	188
267.1716	31
273.1271	14
274.1349	79
276.1451	13
277.1564	48
279.169	58
289.1567	68
294.1594	19
295.1665	18
297.1472	10
307.1655	27
343.1881	10
