Mass spectrum: Cromolyn; LC-ESI-QTOF; MS2; CE:40 eV; [M+H]+
Name: Cromolyn
Formula: C23H16O11
Exact mass: 468.06926
SMILES: [H]OC(=O)C(O4)=C([H])C(=O)c(c41)c(OC([H])([H])C([H])(O[H])C([H])([H])Oc(c([H])2)c(C(=O)3)c(OC(C(=O)O[H])=C([H])3)c([H])c([H])2)c([H])c([H])c([H])1
InChI: InChI=1S/C23H16O11/c24-11(9-31-14-3-1-5-16-20(14)12(25)7-18(33-16)22(27)28)10-32-15-4-2-6-17-21(15)13(26)8-19(34-17)23(29)30/h1-8,11,24H,9-10H2,(H,27,28)(H,29,30)
Instrument: Micromass Q-TOF II
Instrument type: LC-ESI-QTOF
Ms type: MS2
Ion mode: POSITIVE
Collision energy: 40 eV
Ionization: ESI
Precursor m/z: 469.07720
Precursor type: [M+H]+
m/z	relative intensity
57.0332	28
68.9971	19
103.0545	33
107.0497	13
115.0554	16
117.0704	12
121.0652	42
131.0499	39
137.0228	19
145.0656	17
147.0441	60
149.0585	43
161.0584	14
163.0388	123
171.0435	34
173.0591	29
175.0389	23
179.0348	25
189.0551	10
199.0385	16
201.0558	15
205.0484	42
206.0207	100
207.028	999
215.0336	14
217.0485	96
219.0281	36
233.0426	21
245.0431	185
