Mass spectrum: Strychnine_N_Oxide; LC-ESI-QTOF; MS2; CE:50 eV; [M+H]+
Name: Strychnine_N_Oxide
Formula: C21H22N2O3
Exact mass: 350.16304
SMILES: C1C[N+]2(CC3=CCO[C@H]4CC(=O)N5[C@H]6[C@H]4[C@H]3C[C@H]2[C@@]61C7=CC=CC=C75)[O-]
InChI: InChI=1S/C21H22N2O3/c24-18-10-16-19-13-9-17-21(6-7-23(17,25)11-12(13)5-8-26-16)14-3-1-2-4-15(14)22(18)20(19)21/h1-5,13,16-17,19-20H,6-11H2/t13-,16-,17-,19-,20-,21+,23?/m0/s1
Instrument: Micromass Q-TOF II
Instrument type: LC-ESI-QTOF
Ms type: MS2
Ion mode: POSITIVE
Collision energy: 50 eV
Ionization: ESI
Precursor m/z: 351.17098
Precursor type: [M+H]+
m/z	relative intensity
55.0177	13
56.0506	20
65.0382	11
67.0514	30
68.0498	32
69.0587	11
70.0658	14
77.0394	37
78.0418	13
79.0542	89
80.0516	63
81.0317	10
81.043	11
81.0655	29
82.0658	82
91.055	140
92.0541	57
93.0622	164
94.0351	16
94.0643	155
95.0546	40
96.0822	20
103.0552	29
104.0535	22
105.0686	122
106.0663	163
107.0369	12
107.0728	415
108.0812	299
109.0873	32
110.0616	24
115.0552	42
116.0615	21
117.0621	146
118.0662	166
119.0724	208
120.0811	999
121.0815	99
122.0616	96
122.0976	47
128.0599	21
129.0686	90
130.0659	301
131.0715	81
132.0374	15
132.0803	197
133.0724	125
134.056	26
134.0959	283
135.0654	12
135.1035	64
136.0761	271
138.0925	47
142.0656	29
143.0739	362
144.0813	548
145.0695	25
146.0598	39
146.0926	76
147.0723	34
148.0782	43
153.0721	11
154.0657	69
155.0734	59
156.0813	126
157.0872	32
158.0918	39
159.0712	10
160.0771	41
161.0835	75
162.0919	163
163.0998	54
165.0696	10
166.0653	23
167.0735	170
168.0812	251
169.0844	58
170.0959	86
171.0916	70
172.0765	21
174.0917	12
176.1063	10
179.0744	19
180.0815	165
181.0878	58
182.0946	109
183.0708	92
184.0871	113
185.0869	11
186.0923	21
191.0732	33
192.0811	62
193.0882	57
194.0952	111
195.0919	28
196.0775	114
197.0854	44
198.0917	57
201.078	12
204.0815	139
205.0884	49
206.0942	136
207.0978	50
208.1025	71
209.0981	50
210.0935	52
212.1012	28
216.0846	14
217.0895	88
218.0963	113
219.0952	64
220.0794	326
221.1027	77
222.0945	62
223.1139	28
224.1016	12
230.0952	57
231.0995	32
232.0942	157
233.093	101
234.1017	154
235.1077	59
236.1062	42
237.1053	22
238.0965	11
242.0951	16
243.1011	15
244.1069	40
245.1037	26
246.0966	135
247.1132	71
248.1091	68
249.1255	49
250.0984	18
256.1033	13
257.0934	22
258.0999	54
259.1072	35
260.1073	71
261.1197	58
262.1196	44
263.145	58
264.1094	21
270.0956	14
271.1086	11
272.1058	27
273.1166	30
274.113	35
275.1329	42
276.1194	32
277.1279	47
278.1213	14
279.1268	17
286.1189	11
287.1211	22
288.1175	14
289.1331	28
290.1257	12
291.1459	30
303.1454	29
304.1397	11
305.1577	37
306.1384	11
319.143	51
333.16	107
334.1685	19
