Mass spectrum: Sufentanil; LC-ESI-QTOF; MS2; CE:50 eV; [M+H]+
Name: Sufentanil
Formula: C22H30N2O2S
Exact mass: 386.20280
SMILES: [H]C([H])([H])OC([H])([H])C(N(C(=O)C([H])([H])C([H])([H])[H])c(c([H])3)c([H])c([H])c([H])c([H])3)(C([H])([H])1)C([H])([H])C([H])([H])N(C([H])([H])C([H])([H])c(s2)c([H])c([H])c([H])2)C([H])([H])1
InChI: InChI=1S/C22H30N2O2S/c1-3-21(25)24(19-8-5-4-6-9-19)22(18-26-2)12-15-23(16-13-22)14-11-20-10-7-17-27-20/h4-10,17H,3,11-16,18H2,1-2H3
Instrument: Micromass Q-TOF II
Instrument type: LC-ESI-QTOF
Ms type: MS2
Ion mode: POSITIVE
Collision energy: 50 eV
Ionization: ESI
Precursor m/z: 387.21074
Precursor type: [M+H]+
m/z	relative intensity
67.0536	146
69.0695	42
77.0389	137
78.0467	24
79.0541	19
81.0681	23
82.0652	12
94.0655	68
95.0499	49
96.0816	60
97.0112	17
99.0807	17
104.0501	13
108.0812	48
109.089	11
110.0968	30
111.0268	999
126.0916	80
132.0809	100
140.107	34
