Mass spectrum: Nandrolone; LC-ESI-QTOF; MS2; CE:50 eV; [M+H]+
Name: Nandrolone
Formula: C18H26O2
Exact mass: 274.19328
SMILES: [H]OC([H])(C([H])([H])4)C(C([H])([H])[H])(C([H])([H])3)C([H])(C([H])([H])4)C([H])(C([H])([H])1)C([H])(C([H])([H])3)C([H])(C([H])([H])2)C(=C([H])C(=O)C([H])([H])2)C([H])([H])1
InChI: InChI=1S/C18H26O2/c1-18-9-8-14-13-5-3-12(19)10-11(13)2-4-15(14)16(18)6-7-17(18)20/h10,13-17,20H,2-9H2,1H3/t13-,14+,15+,16-,17-,18-/m0/s1
Instrument: Micromass Q-TOF II
Instrument type: LC-ESI-QTOF
Ms type: MS2
Ion mode: POSITIVE
Collision energy: 50 eV
Ionization: ESI
Precursor m/z: 275.20122
Precursor type: [M+H]+
m/z	relative intensity
53.0388	32
55.0181	34
55.0542	125
57.0331	11
65.0384	92
66.0462	13
67.0159	11
67.0537	277
69.0324	29
69.0701	22
77.0386	477
78.0482	12
79.0548	999
81.0704	641
83.0498	463
91.0547	996
92.0621	11
93.0702	299
94.0417	40
95.049	178
95.0877	90
97.0645	27
103.0544	89
104.0625	25
105.0704	435
107.0496	156
107.0879	54
109.0652	578
115.0546	153
116.0625	58
117.0705	185
118.0688	16
119.0862	127
121.0641	10
121.1025	10
123.0806	14
127.056	18
128.0627	202
129.0699	160
130.0777	57
131.0863	92
132.0636	10
133.063	26
133.1035	19
135.08	22
141.0702	109
142.0788	61
143.0857	61
145.0625	29
145.077	23
145.104	33
147.0819	15
153.0704	40
154.0798	19
155.0859	54
156.0949	15
157.1013	17
159.1161	11
161.0981	13
165.0711	13
167.0858	29
168.0933	12
169.1019	17
