Mass spectrum: Ampicillin; LC-ESI-QTOF; MS2; CE:30 eV; [M+H]+
Name: Ampicillin
Formula: C16H19N3O4S
Exact mass: 349.10963
SMILES: [H]OC(=O)C([H])(N21)C(C([H])([H])[H])(C([H])([H])[H])SC([H])(C([H])(N([H])C(=O)C([H])(N([H])[H])c(c([H])3)c([H])c([H])c([H])c([H])3)C(=O)2)1
InChI: InChI=1S/C16H19N3O4S/c1-16(2)11(15(22)23)19-13(21)10(14(19)24-16)18-12(20)9(17)8-6-4-3-5-7-8/h3-7,9-11,14H,17H2,1-2H3,(H,18,20)(H,22,23)
Instrument: Micromass Q-TOF II
Instrument type: LC-ESI-QTOF
Ms type: MS2
Ion mode: POSITIVE
Collision energy: 30 eV
Ionization: ESI
Precursor m/z: 350.11757
Precursor type: [M+H]+
m/z	relative intensity
70.0671	53
74.0087	26
79.0564	46
86.0092	15
87.028	12
91.0566	47
96.0464	20
106.0673	999
114.003	212
114.0399	175
118.0673	179
119.0521	22
121.0132	40
122.0621	16
128.0566	12
130.0672	17
137.043	18
137.0734	41
142.0351	13
146.0622	73
147.0294	36
160.0458	197
162.0407	30
164.0563	110
165.0689	64
174.0571	118
190.0361	15
192.0515	61
200.0965	13
218.03	11
259.0896	10
305.1511	11
