Mass spectrum: Etodolac; LC-ESI-QTOF; MS2; CE:30 eV; [M+H]+
Name: Etodolac
Formula: C17H21NO3
Exact mass: 287.15214
SMILES: [H]OC(=O)C([H])([H])C(O3)(C([H])([H])C([H])([H])[H])c(n([H])1)c(C([H])([H])C([H])([H])3)c(c([H])2)c(c(c([H])c([H])2)C([H])([H])C([H])([H])[H])1
InChI: InChI=1S/C17H21NO3/c1-3-11-6-5-7-12-13-8-9-21-17(4-2,10-14(19)20)16(13)18-15(11)12/h5-7,18H,3-4,8-10H2,1-2H3,(H,19,20)
Instrument: Micromass Q-TOF II
Instrument type: LC-ESI-QTOF
Ms type: MS2
Ion mode: POSITIVE
Collision energy: 30 eV
Ionization: ESI
Precursor m/z: 288.16008
Precursor type: [M+H]+
m/z	relative intensity
57.0338	12
117.0703	28
130.0641	17
143.0737	412
144.0804	402
145.091	19
156.0795	15
157.0879	51
158.0972	31
167.0707	14
168.0806	33
171.1026	32
172.1124	999
180.0797	41
181.0888	67
182.0987	60
186.1306	11
194.0981	39
195.105	96
196.1124	64
197.1156	11
199.0955	12
200.1427	45
208.1103	23
209.1207	49
210.1284	107
211.1379	16
223.1021	17
224.143	61
228.1374	82
246.1441	12
