Mass spectrum: Methylergonovine; LC-ESI-QTOF; MS2; CE:30 eV; [M+H]+
Name: Methylergonovine
Formula: C20H25N3O2
Exact mass: 339.19468
SMILES: [H]OC([H])([H])C([H])(C([H])([H])C([H])([H])[H])N([H])C(=O)C([H])(C([H])=1)C([H])([H])N(C([H])([H])[H])C([H])(C([H])([H])2)C1c(c([H])4)c(c(c([H])c([H])4)3)c(c([H])n([H])3)2
InChI: InChI=1S/C20H25N3O2/c1-3-14(11-24)22-20(25)13-7-16-15-5-4-6-17-19(15)12(9-21-17)8-18(16)23(2)10-13/h4-7,9,13-14,18,21,24H,3,8,10-11H2,1-2H3,(H,22,25)
Instrument: Micromass Q-TOF II
Instrument type: LC-ESI-QTOF
Ms type: MS2
Ion mode: POSITIVE
Collision energy: 30 eV
Ionization: ESI
Precursor m/z: 340.20262
Precursor type: [M+H]+
m/z	relative intensity
72.081	11
90.0919	15
126.0919	17
144.1005	14
167.0762	17
168.081	22
180.0813	247
181.0833	20
182.0926	79
190.0655	18
191.0738	44
192.0813	79
193.0805	23
194.0959	61
195.102	13
196.1109	22
197.108	141
206.0922	11
207.0816	169
208.0804	999
209.1062	12
220.088	15
221.1071	51
222.1148	21
223.1222	782
224.094	25
225.1018	46
251.1228	31
269.1276	23
279.148	22
297.158	45
325.1783	18
340.203	39
