Mass spectrum: Dextromethorphan; LC-ESI-QTOF; MS2; CE:30 eV; [M+H]+
Name: Dextromethorphan
Formula: C18H25NO
Exact mass: 271.19361
SMILES: [H]C([H])([H])Oc(c([H])4)c([H])c(c(c([H])4)1)C(C([H])([H])3)(C([H])([H])2)C([H])(C([H])([H])C([H])([H])C([H])([H])3)C([H])(N(C([H])([H])[H])C([H])([H])2)C([H])([H])1
InChI: InChI=1S/C18H25NO/c1-19-10-9-18-8-4-3-5-15(18)17(19)11-13-6-7-14(20-2)12-16(13)18/h6-7,12,15,17H,3-5,8-11H2,1-2H3
Instrument: Micromass Q-TOF II
Instrument type: LC-ESI-QTOF
Ms type: MS2
Ion mode: POSITIVE
Collision energy: 30 eV
Ionization: ESI
Precursor m/z: 272.20155
Precursor type: [M+H]+
m/z	relative intensity
69.0697	15
81.0698	17
91.0558	23
121.0651	163
132.0573	27
135.08	60
144.0572	28
145.0648	25
147.0804	805
158.0725	28
159.0804	258
161.0977	26
171.0806	528
173.0965	264
181.1014	18
184.0911	11
185.0947	15
187.1111	14
198.1034	158
199.1121	49
200.1194	13
213.1271	999
215.1425	865
241.1603	25
272.2003	686
