Mass spectrum: Prednisolone_Tebutate; LC-ESI-QTOF; MS2; CE:40 eV; [M+H]+
Name: Prednisolone_Tebutate
Formula: C27H38O6
Exact mass: 458.26684
SMILES: [H]C([H])(C(C([H])([H])[H])(C([H])([H])[H])C([H])([H])[H])C(OC([H])([H])C(=O)C(O[H])(C4([H])[H])C(C([H])([H])[H])(C3([H])[H])C(C([H])([H])4)([H])C([H])(C([H])(C3([H])O[H])1)C(C(C(=C([H])2)C1(C([H])=C(C2=O)[H])C([H])([H])[H])([H])[H])([H])[H])=O
InChI: InChI=1S/C27H38O6/c1-24(2,3)14-22(31)33-15-21(30)27(32)11-9-19-18-7-6-16-12-17(28)8-10-25(16,4)23(18)20(29)13-26(19,27)5/h8,10,12,18-20,23,29,32H,6-7,9,11,13-15H2,1-5H3
Instrument: Micromass Q-TOF II
Instrument type: LC-ESI-QTOF
Ms type: MS2
Ion mode: POSITIVE
Collision energy: 40 eV
Ionization: ESI
Precursor m/z: 459.27478
Precursor type: [M+H]+
m/z	relative intensity
57.0699	999
67.0502	17
69.0305	13
71.0861	704
79.0602	29
81.0695	39
83.0495	13
91.0538	43
93.0718	79
95.0855	44
97.0652	32
99.0812	890
105.0717	85
107.0557	21
107.0697	16
107.086	46
109.0732	14
111.0828	17
116.0654	17
117.0693	31
119.0877	137
121.0659	345
123.0815	17
125.0583	25
129.0663	27
131.089	56
133.065	73
133.1042	44
135.0803	171
135.1133	20
137.0635	21
139.0748	26
142.0773	26
143.0876	50
145.0676	113
145.1026	50
147.0822	883
149.0936	38
151.1007	25
153.0678	17
155.0854	34
157.0988	43
158.0723	48
159.0818	106
161.0951	77
163.0724	18
163.1242	12
165.0845	70
166.0797	13
167.0896	21
169.1045	14
170.0788	18
171.0798	369
173.097	353
178.0891	13
179.077	13
181.0569	13
181.0996	34
182.0713	22
183.0794	33
183.1273	13
184.0904	20
185.1014	63
187.1076	41
190.0782	39
191.0908	27
192.0924	17
193.1059	20
194.0923	12
195.0825	70
195.1198	49
196.0858	33
197.0986	159
198.0996	14
199.1118	61
203.0912	10
204.0906	21
205.0984	71
206.1045	46
207.1199	34
208.0882	106
209.0941	179
210.1057	112
211.1147	105
212.1376	16
213.1203	32
217.1124	13
219.1184	58
220.0811	17
221.0942	97
221.1402	15
222.1052	184
223.1133	219
224.121	99
225.1225	78
226.1299	47
227.1431	23
229.1005	14
231.1286	13
232.1293	10
233.0925	21
233.1088	11
233.144	15
234.1084	54
235.1147	90
236.1172	41
237.0813	12
237.1272	262
239.1419	342
245.0867	38
246.1093	46
247.112	69
248.1133	36
249.1289	84
251.1438	163
259.1119	79
260.1226	42
261.1368	43
261.1634	11
263.1397	51
264.1523	47
265.1555	94
266.1647	57
271.1474	13
272.1648	17
273.1192	24
274.137	91
277.1378	23
277.1595	27
279.1657	25
287.1386	21
289.1612	101
290.1591	13
292.1418	25
295.1628	11
307.1683	26
405.2547	21
