Mass spectrum: Terbutaline; LC-ESI-QTOF; MS2; CE:10 eV; [M+H]+
Name: Terbutaline
Formula: C12H19NO3
Exact mass: 225.13649
SMILES: [H]Oc(c([H])1)c([H])c(c([H])c(O[H])1)C([H])(O[H])C([H])([H])N([H])C(C([H])([H])[H])(C([H])([H])[H])C([H])([H])[H]
InChI: InChI=1S/C12H19NO3/c1-12(2,3)13-7-11(16)8-4-9(14)6-10(15)5-8/h4-6,11,13-16H,7H2,1-3H3
Instrument: Micromass Q-TOF II
Instrument type: LC-ESI-QTOF
Ms type: MS2
Ion mode: POSITIVE
Collision energy: 10 eV
Ionization: ESI
Precursor m/z: 226.14443
Precursor type: [M+H]+
m/z	relative intensity
152.0708	147
170.0815	78
208.1339	20
226.1428	999
