Mass spectrum: Naltrexone; LC-ESI-QTOF; MS2; CE:40 eV; [M+H]+
Name: Naltrexone
Formula: C20H23NO4
Exact mass: 341.16271
SMILES: [H]Oc(c([H])6)c(O5)c(c(c([H])6)3)C(C([H])([H])1)(C([H])54)C(O[H])(C([H])([H])C([H])([H])C(=O)4)C([H])(C([H])([H])3)N(C([H])([H])C([H])(C([H])([H])2)C([H])([H])2)C([H])([H])1
InChI: InChI=1S/C20H23NO4/c22-13-4-3-12-9-15-20(24)6-5-14(23)18-19(20,16(12)17(13)25-18)7-8-21(15)10-11-1-2-11/h3-4,11,15,18,22,24H,1-2,5-10H2
Instrument: Micromass Q-TOF II
Instrument type: LC-ESI-QTOF
Ms type: MS2
Ion mode: POSITIVE
Collision energy: 40 eV
Ionization: ESI
Precursor m/z: 342.17065
Precursor type: [M+H]+
m/z	relative intensity
55.0543	433
69.0331	10
79.0536	12
80.0508	22
81.0692	11
82.0654	23
91.0567	12
94.0644	13
103.0538	11
106.0658	16
115.057	16
117.0666	12
118.0649	38
119.0663	20
121.0646	15
123.0463	14
128.061	18
129.0689	25
130.0659	11
131.0806	21
132.0793	14
134.057	11
134.0979	22
137.0617	18
141.0702	25
143.067	18
143.0828	11
144.0688	10
145.0656	33
146.0605	51
147.0633	114
148.0758	67
149.0586	14
152.0657	18
153.0712	79
154.0739	14
155.0831	33
156.079	14
157.0658	62
158.0857	25
159.0883	12
160.0747	58
161.0607	219
162.0597	11
165.0732	46
166.0755	23
167.0855	70
168.0797	33
169.0686	43
170.0764	22
171.0803	46
172.1101	28
173.0624	139
174.0573	40
175.0724	24
177.0728	12
178.0773	15
179.0878	43
180.0817	20
181.0687	161
182.092	64
183.0791	77
184.0739	101
185.066	158
186.0824	24
187.075	43
188.0854	14
191.0849	16
193.0811	26
194.0889	39
195.0815	65
196.0841	62
197.07	83
198.0844	98
199.0765	158
200.0945	103
200.1102	55
201.0959	46
202.1034	30
203.0789	11
206.0992	15
207.0834	46
208.0862	34
209.0836	59
210.0898	141
211.0767	224
212.072	999
213.0819	242
214.0886	61
215.0772	36
219.079	12
220.0887	16
221.0859	20
222.0923	38
223.0779	36
224.0942	73
225.086	70
226.0866	272
227.0829	122
228.1024	482
232.088	11
234.0923	29
235.0841	31
236.1034	43
237.0882	28
238.1141	95
239.1111	91
240.1035	120
241.0986	66
242.1093	74
249.0999	11
250.0984	26
251.0933	21
252.105	152
253.0998	47
254.1139	106
255.0981	25
264.1179	34
265.1075	13
266.1206	53
267.1262	778
268.1157	64
269.1081	22
270.113	370
278.1195	11
280.1353	21
282.1462	209
296.1598	23
306.1476	12
324.1602	176
