Mass spectrum: Morphine_3_Glucuronide; LC-ESI-QTOF; MS2; CE:50 eV; [M+H]+
Name: Morphine_3_Glucuronide
Formula: C23H27NO9
Exact mass: 461.16858
SMILES: [H]OC(=O)C([H])(O1)C([H])(O[H])C([H])(O[H])C([H])(O[H])C([H])(Oc(c([H])6)c(O5)c(c(c([H])6)2)C(C([H])([H])3)(C([H])54)C([H])(C([H])=C([H])C([H])(O[H])4)C([H])(N(C([H])([H])[H])C([H])([H])3)C([H])([H])2)1
InChI: InChI=1S/C23H27NO9/c1-24-7-6-23-10-3-4-12(25)20(23)32-18-13(5-2-9(14(18)23)8-11(10)24)31-22-17(28)15(26)16(27)19(33-22)21(29)30/h2-5,10-12,15-17,19-20,22,25-28H,6-8H2,1H3,(H,29,30)
Instrument: Micromass Q-TOF II
Instrument type: LC-ESI-QTOF
Ms type: MS2
Ion mode: POSITIVE
Collision energy: 50 eV
Ionization: ESI
Precursor m/z: 462.17652
Precursor type: [M+H]+
m/z	relative intensity
58.0641	45
73.0268	16
85.0275	12
121.0654	20
123.044	41
129.0701	10
131.0665	10
141.07	21
145.0665	75
147.0439	85
153.0713	66
155.0873	146
157.0654	90
158.077	13
159.0822	18
160.0606	26
161.0611	20
165.0703	177
166.0795	27
167.0858	14
168.058	12
169.0668	17
171.0466	24
171.0874	11
173.0625	148
173.0957	37
178.0817	25
179.0843	21
181.0671	150
181.1108	15
183.0805	198
184.0553	13
185.0605	206
186.0676	21
187.0756	34
191.0863	89
193.0694	84
193.1055	14
194.0741	12
198.0697	23
199.0759	71
201.0904	415
207.0857	17
209.0653	158
211.0761	208
213.0693	13
214.0791	11
219.0818	53
221.0969	30
222.0608	12
225.0897	17
227.0745	99
229.0867	197
237.0926	41
239.1051	27
253.108	11
268.1304	56
286.1442	999
