Mass spectrum: Bumetanide; LC-ESI-QTOF; MS2; CE:20 eV; [M+H]+
Name: Bumetanide
Formula: C17H20N2O5S
Exact mass: 364.10929
SMILES: [H]OC(=O)c(c([H])1)c([H])c(S(=O)(=O)N([H])[H])c(Oc(c([H])2)c([H])c([H])c([H])c([H])2)c(N([H])C([H])([H])C([H])([H])C([H])([H])C([H])([H])[H])1
InChI: InChI=1S/C17H20N2O5S/c1-2-3-9-19-14-10-12(17(20)21)11-15(25(18,22)23)16(14)24-13-7-5-4-6-8-13/h4-8,10-11,19H,2-3,9H2,1H3,(H,20,21)(H2,18,22,23)
Instrument: Micromass Q-TOF II
Instrument type: LC-ESI-QTOF
Ms type: MS2
Ion mode: POSITIVE
Collision energy: 20 eV
Ionization: ESI
Precursor m/z: 365.11723
Precursor type: [M+H]+
m/z	relative intensity
108.0457	16
152.035	22
156.0822	40
169.0665	21
181.0663	11
183.0693	59
184.077	465
196.0772	45
198.0927	34
212.1451	112
238.1234	47
239.1308	42
240.139	999
242.0821	72
248.0389	22
256.1321	11
266.1181	108
283.121	65
284.1287	297
292.0277	103
348.0927	35
365.1193	66
