Mass spectrum: Doxorubicin; LC-ESI-QTOF; MS2; CE:50 eV; [M+H]+
Name: Doxorubicin
Formula: C27H29NO11
Exact mass: 543.17406
SMILES: c(=O)(c12)c(c5O[H])c(c(O[H])c(c35)C(C(C(=O)C([H])([H])O[H])(C(C3(OC([H])(C([H])([H])4)OC([H])(C([H])(O[H])C([H])(N([H])[H])4)C([H])([H])[H])[H])([H])[H])O[H])([H])[H])c(c1c(c(c(c2OC([H])([H])[H])[H])[H])[H])=O
InChI: InChI=1S/C27H29NO11/c1-10-22(31)13(28)6-17(38-10)39-15-8-27(36,16(30)9-29)7-12-19(15)26(35)21-20(24(12)33)23(32)11-4-3-5-14(37-2)18(11)25(21)34/h3-5,10,13,15,17,22,29,31,33,35-36H,6-9,28H2,1-2H3
Instrument: Micromass Q-TOF II
Instrument type: LC-ESI-QTOF
Ms type: MS2
Ion mode: POSITIVE
Collision energy: 50 eV
Ionization: ESI
Precursor m/z: 544.18200
Precursor type: [M+H]+
m/z	relative intensity
58.0649	50
60.0437	37
67.0535	14
68.0489	12
69.0328	63
71.049	76
72.0443	190
84.0816	16
86.0602	515
91.0545	11
95.0491	40
105.0338	12
112.0766	24
113.0601	79
121.0652	79
130.0862	53
131.0494	15
133.028	21
135.0442	112
145.029	40
157.0284	11
185.0259	13
203.0335	14
217.0525	31
231.0805	22
234.0696	13
237.0888	12
247.0764	42
259.0758	42
261.0583	20
262.0623	25
265.0864	13
274.062	12
275.0693	50
277.0849	24
278.0567	24
287.0703	108
289.0519	31
290.0562	73
293.0796	36
302.0583	19
303.0646	53
304.0727	16
305.0781	43
306.0519	473
307.0593	23
308.0671	15
315.0642	50
317.0441	11
318.0528	53
319.0608	13
321.0762	249
323.0808	13
329.0451	48
332.0711	10
333.0733	50
335.0538	12
336.0612	15
343.059	12
345.0414	15
346.0469	999
361.0724	42
364.0578	13
