Mass spectrum: Prednisolone; LC-ESI-QTOF; MS2; CE:50 eV; [M+H]+
Name: Prednisolone
Formula: C21H28O5
Exact mass: 360.19367
SMILES: [H]OC([H])([H])C(=O)C(O[H])(C([H])([H])4)C(C([H])([H])[H])(C([H])([H])3)C([H])(C([H])([H])4)C([H])(C([H])([H])1)C([H])(C([H])(O[H])3)C(C([H])=2)(C([H])([H])[H])C(=C([H])C(=O)C([H])2)C([H])([H])1
InChI: InChI=1S/C21H28O5/c1-19-7-5-13(23)9-12(19)3-4-14-15-6-8-21(26,17(25)11-22)20(15,2)10-16(24)18(14)19/h5,7,9,14-16,18,22,24,26H,3-4,6,8,10-11H2,1-2H3
Instrument: Micromass Q-TOF II
Instrument type: LC-ESI-QTOF
Ms type: MS2
Ion mode: POSITIVE
Collision energy: 50 eV
Ionization: ESI
Precursor m/z: 361.20161
Precursor type: [M+H]+
m/z	relative intensity
55.0171	16
55.0534	30
65.0365	20
67.053	81
69.0328	25
69.0694	15
77.0379	213
79.054	190
81.0703	75
91.0541	739
93.0697	175
95.0489	93
95.0868	39
97.0655	16
103.0538	102
104.063	19
105.0698	347
107.0483	135
107.0877	65
108.0573	11
109.0644	50
109.1053	10
111.0826	12
115.0541	225
116.0619	58
117.0695	249
118.069	12
119.0856	383
121.0647	999
123.0801	17
127.0529	34
128.0618	361
129.07	224
130.0774	99
131.0469	60
131.0844	123
132.0567	275
133.0644	39
133.1016	22
135.0807	69
141.0699	168
142.0781	83
143.0852	165
144.0567	101
145.0653	320
145.104	59
146.0721	66
147.0804	563
152.0622	59
153.0699	101
154.0782	40
155.0842	121
156.089	18
157.0655	116
157.1085	11
158.0724	411
159.0801	154
160.0884	13
161.0962	34
163.0939	14
165.0701	197
166.0797	57
167.0859	72
168.0855	21
169.0652	129
169.1085	14
170.0723	52
171.0804	407
172.0896	32
173.0963	122
177.0673	16
178.0756	137
179.085	190
180.0929	57
181.0683	196
182.0735	85
183.0822	60
184.0877	28
185.0968	35
189.0704	85
190.077	99
191.0862	116
192.0942	60
193.0989	74
194.0733	99
195.0798	225
196.0884	125
197.0958	80
198.1026	13
199.1089	14
202.0765	58
203.0849	74
204.0943	38
205.0997	70
206.0949	43
207.0809	134
207.1276	11
208.0874	176
209.097	205
210.1015	47
211.1114	53
215.0858	66
216.0948	37
217.1018	46
218.0861	40
219.0874	82
220.0869	31
221.096	121
222.102	89
223.111	118
224.1193	15
225.1208	10
226.0777	11
227.0843	18
228.0929	28
229.102	41
231.0881	63
232.0868	41
233.0995	60
234.1019	35
235.1085	55
236.1193	27
237.1255	24
240.0944	10
241.0977	21
243.1108	15
244.0874	39
245.0949	48
246.1004	27
247.1099	38
249.1459	31
251.1419	111
258.1023	27
259.1104	45
261.1273	12
265.1569	23
273.1258	14
