Mass spectrum: Bumetanide; LC-ESI-QTOF; MS2; CE:50 eV; [M+H]+
Name: Bumetanide
Formula: C17H20N2O5S
Exact mass: 364.10929
SMILES: [H]OC(=O)c(c([H])1)c([H])c(S(=O)(=O)N([H])[H])c(Oc(c([H])2)c([H])c([H])c([H])c([H])2)c(N([H])C([H])([H])C([H])([H])C([H])([H])C([H])([H])[H])1
InChI: InChI=1S/C17H20N2O5S/c1-2-3-9-19-14-10-12(17(20)21)11-15(25(18,22)23)16(14)24-13-7-5-4-6-8-13/h4-8,10-11,19H,2-3,9H2,1H3,(H,20,21)(H2,18,22,23)
Instrument: Micromass Q-TOF II
Instrument type: LC-ESI-QTOF
Ms type: MS2
Ion mode: POSITIVE
Collision energy: 50 eV
Ionization: ESI
Precursor m/z: 365.11723
Precursor type: [M+H]+
m/z	relative intensity
57.0701	14
78.0376	16
80.0502	14
91.0549	38
96.0455	11
103.054	12
104.0501	10
115.0558	164
116.0562	25
117.0625	18
124.0408	19
127.0552	66
128.0631	351
129.0712	253
130.0656	44
131.0512	11
139.0553	313
140.0538	63
141.0707	300
145.0662	119
149.0485	11
151.0562	14
152.0629	90
153.0688	59
154.0667	162
155.0581	138
156.0819	999
157.0675	12
164.0381	14
165.0703	18
166.066	152
167.0727	156
168.06	492
169.0669	161
170.0893	31
178.072	15
179.0712	14
180.0813	35
181.0665	53
182.0626	109
183.0699	545
184.077	77
185.0611	20
194.0623	96
195.0694	129
196.0773	571
197.0739	16
200.0708	14
208.0774	58
210.0718	20
222.0603	14
227.0591	13
240.0665	176
