Mass spectrum: Thiothixene; LC-ESI-QTOF; MS2; CE:40 eV; [M+H]+
Name: Thiothixene
Formula: C23H29N3O2S2
Exact mass: 443.17012
SMILES: [H]c(c([H])4)c([H])c(S1)c(c([H])4)C(=C([H])C([H])([H])C([H])([H])N(C([H])([H])3)C([H])([H])C([H])([H])N(C([H])([H])[H])C([H])([H])3)c(c([H])2)c1c([H])c([H])c2S(=O)(=O)N(C([H])([H])[H])C([H])([H])[H]
InChI: InChI=1S/C23H29N3O2S2/c1-24(2)30(27,28)18-10-11-23-21(17-18)19(20-7-4-5-9-22(20)29-23)8-6-12-26-15-13-25(3)14-16-26/h4-5,7-11,17H,6,12-16H2,1-3H3/b19-8-
Instrument: Micromass Q-TOF II
Instrument type: LC-ESI-QTOF
Ms type: MS2
Ion mode: POSITIVE
Collision energy: 40 eV
Ionization: ESI
Precursor m/z: 444.17806
Precursor type: [M+H]+
m/z	relative intensity
56.0498	10
57.0574	14
58.0647	48
68.0487	49
69.0569	54
70.0649	405
71.0719	13
72.0812	24
82.0655	112
83.0692	82
84.0803	62
85.0808	47
96.081	142
97.0777	206
98.0852	642
99.0929	24
108.0113	10
110.089	14
111.093	141
112.1006	51
113.1081	50
124.0996	15
125.1084	52
128.0624	11
139.1237	188
140.1313	13
196.0352	73
197.043	292
202.0784	93
203.0866	214
204.0948	35
209.0436	20
210.0504	93
211.059	30
212.0324	10
213.0378	270
221.0427	999
222.0508	82
223.0575	37
225.0739	15
227.0547	17
234.0508	185
235.0584	830
236.0661	598
237.0744	122
238.0757	14
249.064	13
250.0698	66
251.0644	44
253.0686	179
259.1345	14
261.004	55
262.0709	10
263.0805	14
264.0847	16
276.0867	17
278.0981	16
291.0982	11
292.1138	50
293.1111	28
304.0471	407
320.134	10
334.1529	17
335.1597	13
344.0795	164
346.0939	18
429.1519	16
