Mass spectrum: Oxycodone; LC-ESI-QTOF; MS2; CE:40 eV; [M+H]+
Name: Oxycodone
Formula: C18H21NO4
Exact mass: 315.14706
SMILES: [H]C([H])([H])Oc(c([H])5)c(O4)c(c(c([H])5)1)C(C([H])([H])2)(C([H])43)C(O[H])(C([H])([H])C([H])([H])C(=O)3)C([H])(N(C([H])([H])[H])C([H])([H])2)C([H])([H])1
InChI: InChI=1S/C18H21NO4/c1-19-8-7-17-14-10-3-4-12(22-2)15(14)23-16(17)11(20)5-6-18(17,21)13(19)9-10/h3-4,13,16,21H,5-9H2,1-2H3
Instrument: Micromass Q-TOF II
Instrument type: LC-ESI-QTOF
Ms type: MS2
Ion mode: POSITIVE
Collision energy: 40 eV
Ionization: ESI
Precursor m/z: 316.15500
Precursor type: [M+H]+
m/z	relative intensity
58.0657	12
70.0659	26
91.0564	13
94.0661	64
103.057	12
105.0723	12
108.0818	24
110.0601	12
115.056	42
117.0661	12
128.0627	30
129.0726	34
131.052	70
131.089	18
132.0736	94
133.0724	33
137.0611	15
141.0702	66
143.0578	29
144.0607	46
145.0689	29
146.0388	25
147.0591	11
148.0722	14
151.073	13
152.0634	37
153.0706	129
154.0785	21
155.0844	43
156.0692	16
157.0691	40
158.076	26
159.0744	168
160.0608	106
161.0718	72
165.0713	72
166.0793	19
167.0848	65
168.0726	50
169.0721	83
170.0844	74
171.0805	78
172.0647	79
173.0828	38
174.0851	54
175.0772	348
177.0766	13
178.0826	21
179.0866	40
180.0782	21
181.0717	312
182.0836	93
183.0773	75
184.0631	54
184.1038	60
185.0691	48
185.1075	16
186.0756	36
187.0765	149
188.0719	21
189.0892	19
191.0887	14
193.0696	24
194.0926	47
195.0855	93
196.1035	102
197.0799	132
198.0877	223
199.0779	215
200.083	41
201.0902	21
202.0875	69
203.0908	14
205.0788	12
206.0813	13
207.0825	33
208.0894	50
209.0799	54
210.0843	164
211.0866	116
212.1078	999
213.1062	377
214.0891	40
215.1026	47
218.091	12
220.1134	26
221.0844	46
222.0923	45
223.0902	47
224.1044	165
225.0936	167
226.0873	489
227.1038	101
228.1116	107
234.0857	26
236.1039	37
237.0913	34
238.1125	59
239.0962	92
240.1031	361
241.1107	956
242.1177	48
243.127	12
248.1081	28
249.1197	12
250.0857	29
251.0911	16
252.0984	34
253.0908	10
254.1127	150
255.1038	62
256.1345	206
264.1018	39
265.1104	34
266.1157	68
267.1042	13
268.0979	58
269.1055	17
270.1182	42
280.1261	16
282.1167	54
283.1187	25
298.144	49
