Mass spectrum: Albuterol; LC-ESI-QTOF; MS2; CE:40 eV; [M+H]+
Name: Albuterol
Formula: C13H21NO3
Exact mass: 239.15214
SMILES: [H]OC([H])([H])c(c(O[H])1)c([H])c(c([H])c([H])1)C([H])(O[H])C([H])([H])N([H])C(C([H])([H])[H])(C([H])([H])[H])C([H])([H])[H]
InChI: InChI=1S/C13H21NO3/c1-13(2,3)14-7-12(17)9-4-5-11(16)10(6-9)8-15/h4-6,12,14-17H,7-8H2,1-3H3
Instrument: Micromass Q-TOF II
Instrument type: LC-ESI-QTOF
Ms type: MS2
Ion mode: POSITIVE
Collision energy: 40 eV
Ionization: ESI
Precursor m/z: 240.16008
Precursor type: [M+H]+
m/z	relative intensity
55.0183	82
57.0702	199
65.0377	28
67.0504	12
68.0471	11
77.0389	492
78.0431	19
79.0544	373
80.05	174
81.0344	60
91.0546	999
92.0521	41
93.0698	401
94.066	53
95.0493	141
102.0481	13
103.0545	547
104.049	32
105.0583	130
106.0634	58
107.0493	71
108.0521	14
109.063	10
110.0593	12
117.0574	126
118.0651	179
119.0534	70
120.0797	266
121.0648	726
128.0508	17
130.065	455
131.0524	107
133.0521	554
134.0598	31
135.0679	58
136.0742	11
146.0598	55
147.0678	44
148.0754	161
