Mass spectrum: Cromolyn; LC-ESI-QTOF; MS2; CE:30 eV; [M+H]+
Name: Cromolyn
Formula: C23H16O11
Exact mass: 468.06926
SMILES: [H]OC(=O)C(O4)=C([H])C(=O)c(c41)c(OC([H])([H])C([H])(O[H])C([H])([H])Oc(c([H])2)c(C(=O)3)c(OC(C(=O)O[H])=C([H])3)c([H])c([H])2)c([H])c([H])c([H])1
InChI: InChI=1S/C23H16O11/c24-11(9-31-14-3-1-5-16-20(14)12(25)7-18(33-16)22(27)28)10-32-15-4-2-6-17-21(15)13(26)8-19(34-17)23(29)30/h1-8,11,24H,9-10H2,(H,27,28)(H,29,30)
Instrument: Micromass Q-TOF II
Instrument type: LC-ESI-QTOF
Ms type: MS2
Ion mode: POSITIVE
Collision energy: 30 eV
Ionization: ESI
Precursor m/z: 469.07720
Precursor type: [M+H]+
m/z	relative intensity
57.0332	24
121.0649	11
131.0499	10
147.0443	33
149.0593	22
163.0389	18
171.0438	15
173.0591	17
175.0396	11
205.0486	21
206.0208	27
207.0276	999
217.0479	88
219.0268	23
233.0438	51
245.0427	608
263.0545	62
