Mass spectrum: Streptomycin; LC-ESI-QTOF; MS2; CE:40 eV; [M+H]+
Name: Streptomycin
Formula: C21H39N7O12
Exact mass: 581.26567
SMILES: [H]N([H])C(N([H])[H])=NC([H])(C([H])(O[H])1)C([H])(O[H])C([H])(N=C(N([H])[H])N([H])[H])C([H])(OC([H])(O2)C([H])(OC([H])(O3)C([H])(N([H])C([H])([H])[H])C([H])(O[H])C([H])(O[H])C([H])(C([H])([H])O[H])3)C(O[H])(C([H])=O)C([H])(C([H])([H])[H])2)C([H])(O[H])1
InChI: InChI=1S/C21H39N7O12/c1-5-21(36,4-30)16(40-17-9(26-2)13(34)10(31)6(3-29)38-17)18(37-5)39-15-8(28-20(24)25)11(32)7(27-19(22)23)12(33)14(15)35/h4-18,26,29,31-36H,3H2,1-2H3,(H4,22,23,27)(H4,24,25,28)/t5-,6-,7+,8-,9-,10-,11+,12-,13-,14+,15+,16-,17-,18-,21+/m0/s1
Instrument: Micromass Q-TOF II
Instrument type: LC-ESI-QTOF
Ms type: MS2
Ion mode: POSITIVE
Collision energy: 40 eV
Ionization: ESI
Precursor m/z: 582.27361
Precursor type: [M+H]+
m/z	relative intensity
60.054	27
70.0636	15
72.0455	15
74.0603	78
82.0608	12
84.0478	16
85.0266	31
86.0626	99
97.0442	26
98.0609	108
99.0546	16
104.0637	12
108.0472	20
109.0302	29
110.0587	83
114.0549	29
116.0742	16
126.0571	50
127.0538	26
127.0703	10
128.0764	45
139.0625	15
140.069	27
142.0866	38
144.065	47
145.0499	12
150.0686	12
151.0514	34
152.0676	12
156.069	15
158.081	97
161.0887	19
167.0977	16
168.0759	51
169.0688	24
170.0837	12
176.0919	394
179.1007	47
185.1026	34
186.0856	208
187.0722	23
188.1023	19
192.0759	15
199.0783	31
200.0915	55
203.1115	108
204.0984	214
216.0935	16
217.0947	250
218.103	54
221.1232	457
228.103	19
229.0912	56
230.1115	15
236.09	12
240.0792	15
244.1059	15
245.121	29
246.1184	829
249.1167	16
256.1097	10
258.0944	26
261.1234	12
263.1455	999
270.115	30
271.1016	15
274.1202	23
284.1052	12
286.1126	12
287.1541	64
288.1267	98
301.16	23
302.1228	48
303.136	46
304.1241	22
305.1506	22
320.141	32
321.142	12
328.1302	12
330.1206	45
346.1427	15
347.1533	48
348.1428	45
363.1592	19
365.1628	149
390.1663	151
407.1913	169
523.2291	12
540.2383	52
582.2707	40
