Mass spectrum: Acetophenazine; LC-ESI-QTOF; MS2; CE:50 eV; [M+H]+
Name: Acetophenazine
Formula: C23H29N3O2S
Exact mass: 411.19805
SMILES: [H]OC([H])([H])C([H])([H])N(C([H])([H])4)C([H])([H])C([H])([H])N(C([H])([H])4)C([H])([H])C([H])([H])C([H])([H])N(c32)c(c([H])1)c(Sc(c([H])c([H])c([H])c([H])3)2)c([H])c(C(=O)C([H])([H])[H])c([H])1
InChI: InChI=1S/C23H29N3O2S/c1-18(28)19-7-8-21-23(17-19)29-22-6-3-2-5-20(22)26(21)10-4-9-24-11-13-25(14-12-24)15-16-27/h2-3,5-8,17,27H,4,9-16H2,1H3
Instrument: Micromass Q-TOF II
Instrument type: LC-ESI-QTOF
Ms type: MS2
Ion mode: POSITIVE
Collision energy: 50 eV
Ionization: ESI
Precursor m/z: 412.20599
Precursor type: [M+H]+
m/z	relative intensity
56.0503	65
58.0653	37
70.0656	862
72.0441	33
72.0818	28
74.061	17
82.0665	39
83.0618	20
84.081	76
86.0597	24
86.0977	22
97.0769	130
98.0858	773
99.0925	18
100.0764	999
112.1003	40
113.1079	64
125.1089	10
128.0951	95
141.1381	27
143.1183	422
167.0743	17
171.1491	43
178.0674	14
179.0736	85
180.0809	68
192.082	11
198.0381	47
199.0467	17
204.0815	23
205.0883	12
206.0877	132
207.1029	18
210.041	19
211.0456	140
212.0532	130
222.0915	838
224.0527	43
226.034	25
236.0531	78
238.0698	50
239.0751	77
240.0661	10
241.0549	25
254.0627	150
