Mass spectrum: Methylergonovine; LC-ESI-QTOF; MS2; CE:50 eV; [M+H]+
Name: Methylergonovine
Formula: C20H25N3O2
Exact mass: 339.19468
SMILES: [H]OC([H])([H])C([H])(C([H])([H])C([H])([H])[H])N([H])C(=O)C([H])(C([H])=1)C([H])([H])N(C([H])([H])[H])C([H])(C([H])([H])2)C1c(c([H])4)c(c(c([H])c([H])4)3)c(c([H])n([H])3)2
InChI: InChI=1S/C20H25N3O2/c1-3-14(11-24)22-20(25)13-7-16-15-5-4-6-17-19(15)12(9-21-17)8-18(16)23(2)10-13/h4-7,9,13-14,18,21,24H,3,8,10-11H2,1-2H3,(H,22,25)
Instrument: Micromass Q-TOF II
Instrument type: LC-ESI-QTOF
Ms type: MS2
Ion mode: POSITIVE
Collision energy: 50 eV
Ionization: ESI
Precursor m/z: 340.20262
Precursor type: [M+H]+
m/z	relative intensity
129.0704	18
140.0628	12
141.0698	14
152.0627	118
153.0695	253
154.0659	102
155.0758	21
156.0812	11
163.0553	12
164.0634	62
165.07	58
166.0685	21
167.0745	176
168.0809	42
169.0699	12
171.0811	12
178.0666	69
179.0732	92
180.0786	367
181.0775	149
182.0866	141
190.0659	87
191.0734	268
192.081	112
193.0786	116
194.0959	61
195.1008	25
196.1054	14
197.1081	30
205.0767	32
206.0829	66
207.0849	999
208.0908	140
209.1055	15
220.0985	26
221.1074	66
222.1149	10
223.1228	37
