Mass spectrum: Tetracaine; LC-ESI-QTOF; MS2; CE:20 eV; [M+H]+
Name: Tetracaine
Formula: C15H24N2O2
Exact mass: 264.18378
SMILES: [H]C([H])([H])C([H])([H])C([H])([H])C([H])([H])N([H])c(c([H])1)c([H])c([H])c(C(=O)OC([H])([H])C([H])([H])N(C([H])([H])[H])C([H])([H])[H])c([H])1
InChI: InChI=1S/C15H24N2O2/c1-4-5-10-16-14-8-6-13(7-9-14)15(18)19-12-11-17(2)3/h6-9,16H,4-5,10-12H2,1-3H3
Instrument: Micromass Q-TOF II
Instrument type: LC-ESI-QTOF
Ms type: MS2
Ion mode: POSITIVE
Collision energy: 20 eV
Ionization: ESI
Precursor m/z: 265.19172
Precursor type: [M+H]+
m/z	relative intensity
72.0806	92
176.1067	999
220.1327	96
