Mass spectrum: Gingerol; LC-ESI-QTOF; MS2; CE:10 eV; [M+H]+
Name: 6-Gingerol
Name: (5S)-5-Hydroxy-1-(4-hydroxy-3-methoxyphenyl)-3-decanone
Formula: C17H26O4
Exact mass: 294.18311
SMILES: CCCCC[C@@H](CC(=O)CCC1=CC(=C(C=C1)O)OC)O
InChI: InChI=1S/C17H26O4/c1-3-4-5-6-14(18)12-15(19)9-7-13-8-10-16(20)17(11-13)21-2/h8,10-11,14,18,20H,3-7,9,12H2,1-2H3/t14-/m0/s1
Instrument: Micromass Q-TOF II
Instrument type: LC-ESI-QTOF
Ms type: MS2
Ion mode: POSITIVE
Collision energy: 10 eV
Ionization: ESI
Precursor m/z: 295.19105
Precursor type: [M+H]+
m/z	relative intensity
99.0801	29
137.0603	480
141.127	81
145.065	18
158.9648	25
163.0757	104
177.0909	999
179.0698	145
195.1013	10
259.1709	95
277.1786	355
295.1859	10
