Mass spectrum: Spectinomycin; LC-ESI-QTOF; MS2; CE:50 eV; [M+H]+
Name: Spectinomycin
Formula: C14H24N2O7
Exact mass: 332.15835
SMILES: [H]C([H])([H])N([H])C([H])(C([H])(O[H])1)C([H])(O[H])C([H])(O2)C([H])(OC(O[H])(C(=O)3)C([H])(OC([H])(C([H])([H])[H])C([H])([H])3)2)C([H])(N([H])C([H])([H])[H])1
InChI: InChI=1S/C14H24N2O7/c1-5-4-6(17)14(20)13(21-5)22-12-10(19)7(15-2)9(18)8(16-3)11(12)23-14/h5,7-13,15-16,18-20H,4H2,1-3H3
Instrument: Micromass Q-TOF II
Instrument type: LC-ESI-QTOF
Ms type: MS2
Ion mode: POSITIVE
Collision energy: 50 eV
Ionization: ESI
Precursor m/z: 333.16629
Precursor type: [M+H]+
m/z	relative intensity
53.0399	103
55.0181	51
55.0539	96
56.0501	141
57.0341	262
57.0628	16
58.0288	77
58.0653	150
59.0368	166
60.0445	26
65.0386	50
67.0511	124
68.0493	229
68.9965	27
69.0338	426
70.0654	942
71.0125	23
71.0495	450
72.0448	921
73.0234	55
73.051	310
74.0608	433
77.04	35
78.0357	18
79.0509	31
80.0499	76
81.0343	564
81.0675	17
82.0657	394
83.0128	35
83.0502	189
83.0822	11
84.0447	290
84.0826	115
85.0381	314
85.0834	12
86.0605	340
87.0085	151
87.0447	33
88.0765	35
91.0529	15
92.0491	14
93.0581	84
94.0656	999
95.0117	24
95.055	72
96.0455	152
96.0829	64
97.0453	172
98.0608	662
99.0459	299
99.0772	23
100.0397	102
100.0767	81
101.0463	20
102.055	78
106.067	17
107.0732	20
108.0792	30
109.0295	121
109.0701	25
110.0602	416
111.0604	181
112.0386	289
112.0776	290
113.0248	112
114.0565	63
115.0593	11
116.0705	44
122.0604	247
123.0776	71
124.0374	13
124.0766	47
125.0286	17
125.1054	14
126.0554	53
127.0406	17
128.0606	34
129.0548	51
135.0923	41
138.0621	30
139.0626	22
140.069	59
154.084	12
