Mass spectrum: Anileridine; LC-ESI-QTOF; MS2; CE:50 eV; [M+H]+
Name: Anileridine
Formula: C22H28N2O2
Exact mass: 352.21508
SMILES: [H]N([H])c(c([H])3)c([H])c([H])c(c([H])3)C([H])([H])C([H])([H])N(C([H])([H])1)C([H])([H])C([H])([H])C(C(=O)OC([H])([H])C([H])([H])[H])(c(c([H])2)c([H])c([H])c([H])c([H])2)C([H])([H])1
InChI: InChI=1S/C22H28N2O2/c1-2-26-21(25)22(19-6-4-3-5-7-19)13-16-24(17-14-22)15-12-18-8-10-20(23)11-9-18/h3-11H,2,12-17,23H2,1H3
Instrument: Micromass Q-TOF II
Instrument type: LC-ESI-QTOF
Ms type: MS2
Ion mode: POSITIVE
Collision energy: 50 eV
Ionization: ESI
Precursor m/z: 353.22302
Precursor type: [M+H]+
m/z	relative intensity
77.0391	91
79.0551	25
80.05	13
91.0551	66
92.0508	23
93.064	192
94.0658	80
95.0498	36
103.0548	410
105.0581	13
118.0661	107
119.0735	71
120.081	999
121.0653	24
