Mass spectrum: Ergocristine; LC-ESI-QTOF; MS2; CE:50 eV; [M+H]+
Name: Ergocristine
Formula: C35H39N5O5
Exact mass: 609.29512
SMILES: C(C8=O)([H])(N(C2=O)C(C(N87)(C([H])([H])C([H])([H])C7([H])[H])[H])(OC2(N([H])C(C([H])(C([H])=3)C(N(C(C([H])([H])6)([H])C(c(c5[H])c(c64)c(c(c5[H])[H])n(c4[H])[H])3)C([H])([H])[H])([H])[H])=O)C(C([H])([H])[H])(C([H])([H])[H])[H])O[H])C(c(c([H])1)c([H])c([H])c([H])c([H])1)([H])[H]
InChI: InChI=1S/C35H39N5O5/c1-20(2)34(37-31(41)23-16-25-24-11-7-12-26-30(24)22(18-36-26)17-27(25)38(3)19-23)33(43)40-28(15-21-9-5-4-6-10-21)32(42)39-14-8-13-29(39)35(40,44)45-34/h4-7,9-12,16,18,20,23,27-29,36,44H,8,13-15,17,19H2,1-3H3,(H,37,41)
Instrument: Micromass Q-TOF II
Instrument type: LC-ESI-QTOF
Ms type: MS2
Ion mode: POSITIVE
Collision energy: 50 eV
Ionization: ESI
Precursor m/z: 610.30306
Precursor type: [M+H]+
m/z	relative intensity
70.0648	21
83.0496	26
91.0542	73
120.0801	16
152.0623	11
154.0655	30
167.0724	63
168.0802	35
178.064	21
180.08	210
181.0869	53
182.0952	52
187.1219	58
190.0637	19
191.0724	127
192.0798	330
193.0838	31
194.0952	88
197.1059	51
206.0754	40
207.0768	115
208.0774	817
209.0891	55
215.1169	102
219.0767	25
220.0963	29
221.1056	397
222.1112	27
223.121	999
224.1295	61
225.1009	99
234.0961	38
237.0998	11
243.1103	95
245.1255	32
249.136	55
251.1138	26
259.1207	24
261.1362	32
268.1423	36
277.1311	238
305.1266	94
320.1732	12
325.1529	16
