Mass spectrum: Hydrocortisone; LC-ESI-QTOF; MS2; CE:50 eV; [M+H]+
Name: (8S,9S,10R,11S,13S,14S,17R)-11,17-dihydroxy-17-(2-hydroxyacetyl)-10,13-dimethyl-2,6,7,8,9,11,12,14,15,16-decahydro-1H-cyclopenta[a]phenanthren-3-one
Name: Cortisol
Name: Hydrocortisone
Formula: C21H30O5
Exact mass: 362.20932
SMILES: C[C@]12CCC(=O)C=C1CC[C@@H]3[C@@H]2[C@H](C[C@]4([C@H]3CC[C@@]4(C(=O)CO)O)C)O
InChI: InChI=1S/C21H30O5/c1-19-7-5-13(23)9-12(19)3-4-14-15-6-8-21(26,17(25)11-22)20(15,2)10-16(24)18(14)19/h9,14-16,18,22,24,26H,3-8,10-11H2,1-2H3/t14-,15-,16-,18+,19-,20-,21-/m0/s1
Instrument: Micromass Q-TOF II
Instrument type: LC-ESI-QTOF
Ms type: MS2
Ion mode: POSITIVE
Collision energy: 50 eV
Ionization: ESI
Precursor m/z: 363.21726
Precursor type: [M+H]+
m/z	relative intensity
55.018	42
55.0542	66
57.0317	15
65.04	21
67.0534	173
69.0327	41
69.0694	61
71.0503	16
77.0391	244
79.0553	412
81.0704	253
83.0496	140
91.0546	911
93.0709	382
94.0419	14
95.0487	123
95.086	134
97.0652	446
99.0441	22
103.0543	108
104.0624	20
105.0705	947
107.0484	92
107.0857	168
108.0585	16
109.066	335
111.0826	18
115.0553	244
116.063	82
117.0701	367
118.0737	25
119.0859	534
121.0654	999
121.1125	10
123.0808	256
127.0543	27
128.0626	415
129.071	442
130.0785	175
131.086	398
132.0763	32
132.0958	12
133.0616	40
133.0978	144
135.0809	71
141.0706	338
142.0785	329
143.0859	362
144.0543	18
144.0938	82
145.0608	83
145.1008	347
146.0706	18
146.0864	20
146.1074	29
147.0764	67
147.1163	173
148.0886	92
149.096	34
152.0634	51
153.0703	158
154.0782	157
155.0864	278
156.0943	79
157.0592	24
157.1012	214
158.0742	52
159.0888	121
159.1179	71
160.0871	14
161.1007	55
163.1123	95
165.0711	185
166.0785	72
167.0871	181
168.0945	97
169.1015	182
170.1073	36
171.0737	21
171.1159	111
172.1229	27
173.1021	58
174.1051	38
175.1153	18
178.0795	69
179.0866	138
180.0941	65
181.1014	140
182.1092	53
183.116	126
184.0993	29
185.0961	22
185.1257	60
186.1223	11
187.1122	21
189.1288	10
190.0775	22
191.0876	70
192.0944	65
193.1024	108
194.1083	45
195.1133	94
196.108	39
197.1144	77
198.1072	17
199.1155	38
200.1234	13
202.08	13
203.0884	20
204.0941	18
205.1028	46
206.1104	25
207.1183	52
208.1238	21
209.1282	50
210.1225	18
211.1258	57
211.1548	19
213.1287	30
215.0894	10
217.0992	15
218.1119	10
219.1194	33
220.122	12
221.132	27
223.1261	36
225.1339	48
226.1354	27
227.144	27
228.1496	23
233.1346	13
235.1461	19
237.1278	23
239.145	26
251.1557	13
253.1598	91
