Mass spectrum: 4_Aminoantipyrine; LC-ESI-QTOF; MS2; CE:50 eV; [M+H]+
Name: 4_Aminoantipyrine
Formula: C11H13N3O
Exact mass: 203.10586
SMILES: [H]N([H])C(C(=O)1)=C(C([H])([H])[H])N(C([H])([H])[H])N1c(c([H])2)c([H])c([H])c([H])c([H])2
InChI: InChI=1S/C11H13N3O/c1-8-10(12)11(15)14(13(8)2)9-6-4-3-5-7-9/h3-7H,12H2,1-2H3
Instrument: Micromass Q-TOF II
Instrument type: LC-ESI-QTOF
Ms type: MS2
Ion mode: POSITIVE
Collision energy: 50 eV
Ionization: ESI
Precursor m/z: 204.11380
Precursor type: [M+H]+
m/z	relative intensity
51.0241	45
56.0499	999
58.0653	15
65.0379	70
66.0461	31
67.0506	12
68.0496	14
75.023	22
77.039	865
78.0405	14
81.0466	20
83.0609	66
89.039	21
90.0472	27
91.0541	49
92.0501	37
93.0579	62
94.0667	72
95.0499	215
101.0389	12
102.0412	14
103.0525	17
104.049	23
115.0545	24
116.0512	11
117.0584	46
118.0658	30
119.0568	24
128.0504	12
130.0658	23
131.0712	13
