Mass spectrum: Ephedrine; LC-ESI-QTOF; MS2; CE:20 eV; [M+H]+
Name: Ephedrine
Formula: C10H15NO
Exact mass: 165.11536
SMILES: [H]OC([H])(c(c([H])1)c([H])c([H])c([H])c([H])1)C([H])(C([H])([H])[H])N([H])C([H])([H])[H]
InChI: InChI=1S/C10H15NO/c1-8(11-2)10(12)9-6-4-3-5-7-9/h3-8,10-12H,1-2H3
Instrument: Micromass Q-TOF II
Instrument type: LC-ESI-QTOF
Ms type: MS2
Ion mode: POSITIVE
Collision energy: 20 eV
Ionization: ESI
Precursor m/z: 166.12330
Precursor type: [M+H]+
m/z	relative intensity
117.0705	10
148.1121	999
166.1228	673
