Mass spectrum: Thiothixene; LC-ESI-QTOF; MS2; CE:30 eV; [M+H]+
Name: Thiothixene
Formula: C23H29N3O2S2
Exact mass: 443.17012
SMILES: [H]c(c([H])4)c([H])c(S1)c(c([H])4)C(=C([H])C([H])([H])C([H])([H])N(C([H])([H])3)C([H])([H])C([H])([H])N(C([H])([H])[H])C([H])([H])3)c(c([H])2)c1c([H])c([H])c2S(=O)(=O)N(C([H])([H])[H])C([H])([H])[H]
InChI: InChI=1S/C23H29N3O2S2/c1-24(2)30(27,28)18-10-11-23-21(17-18)19(20-7-4-5-9-22(20)29-23)8-6-12-26-15-13-25(3)14-16-26/h4-5,7-11,17H,6,12-16H2,1-3H3/b19-8-
Instrument: Micromass Q-TOF II
Instrument type: LC-ESI-QTOF
Ms type: MS2
Ion mode: POSITIVE
Collision energy: 30 eV
Ionization: ESI
Precursor m/z: 444.17806
Precursor type: [M+H]+
m/z	relative intensity
58.0649	67
68.0491	20
69.0575	40
70.0648	277
72.0801	27
82.0654	62
83.0725	98
84.0806	58
85.0853	70
96.0801	91
97.078	197
98.0847	813
99.0929	55
110.0871	17
111.0964	137
112.1006	65
113.108	58
125.108	63
127.1243	13
139.1232	241
140.1314	135
197.0424	62
202.0785	19
203.0872	45
210.0491	17
211.0585	12
213.0369	38
221.043	157
222.0506	29
223.0568	34
234.0503	21
235.0583	208
236.0656	486
237.0741	88
238.0809	17
239.0892	14
250.0697	37
251.0802	40
253.0683	80
259.1346	10
261.0025	31
263.0814	12
264.084	11
276.0851	15
278.0997	57
290.1	20
292.1157	282
293.1105	70
294.1203	26
301.0362	13
304.0465	492
304.116	14
306.1228	16
307.1286	21
318.0623	19
320.1354	52
334.1526	28
335.1591	425
336.1682	24
344.0784	808
346.0937	124
381.1089	11
387.1222	10
399.1205	32
401.1374	88
429.1552	282
444.1784	999
