Mass spectrum: Cymarin; LC-ESI-QTOF; MS2; CE:20 eV; [M+H]+
Name: Cymarin
Formula: C30H44O9
Exact mass: 548.29853
SMILES: C(OC(C([H])([H])1)([H])C(O[H])([H])C([H])(OC1(OC([H])(C([H])([H])2)C(C(O[H])(C([H])([H])6)C(C(C5(C6([H])[H])[H])([H])C([H])([H])C(C(C5(O[H])3)(C([H])([H])[H])C(C(=C([H])4)C(OC(=O)4)([H])[H])(C([H])([H])C3([H])[H])[H])([H])[H])(C([H])=O)C([H])([H])2)([H])[H])[H])C([H])([H])[H])([H])([H])[H]
InChI: InChI=1S/C30H44O9/c1-17-26(33)23(36-3)13-25(38-17)39-19-4-9-28(16-31)21-5-8-27(2)20(18-12-24(32)37-15-18)7-11-30(27,35)22(21)6-10-29(28,34)14-19/h12,16-17,19-23,25-26,33-35H,4-11,13-15H2,1-3H3
Instrument: Micromass Q-TOF II
Instrument type: LC-ESI-QTOF
Ms type: MS2
Ion mode: POSITIVE
Collision energy: 20 eV
Ionization: ESI
Precursor m/z: 549.30647
Precursor type: [M+H]+
m/z	relative intensity
69.0335	111
95.0501	43
113.0602	384
145.0848	267
153.0546	52
155.0707	98
171.1158	15
175.1471	18
187.1492	47
263.1721	14
277.1935	22
295.2067	14
305.1881	30
307.2009	19
323.1997	565
325.2146	103
333.1824	73
341.2105	697
351.1937	614
359.2209	652
369.2054	999
387.2171	166
405.2246	27
