Mass spectrum: Apramycin; LC-ESI-QTOF; MS2; CE:10 eV; [M+H]+
Name: Apramycin
Formula: C21H41N5O11
Exact mass: 539.28026
SMILES: [H]OC([H])([H])C([H])(O1)C([H])(N([H])[H])C([H])(O[H])C([H])(O[H])C([H])1OC([H])(O2)C([H])(N([H])C([H])([H])[H])C([H])(O[H])C([H])(O3)C([H])2C([H])([H])C([H])(N([H])[H])C([H])(OC([H])(C([H])(O[H])4)C([H])(N([H])[H])C([H])([H])C([H])(N([H])[H])C([H])(O[H])4)3
InChI: InChI=1S/C21H41N5O11/c1-26-11-14(30)18-8(33-20(11)37-21-16(32)13(29)10(25)9(4-27)34-21)3-7(24)19(36-18)35-17-6(23)2-5(22)12(28)15(17)31/h5-21,26-32H,2-4,22-25H2,1H3/t5-,6+,7-,8+,9-,10-,11+,12+,13+,14-,15-,16-,17-,18+,19?,20-,21-/m1/s1
Instrument: Micromass Q-TOF II
Instrument type: LC-ESI-QTOF
Ms type: MS2
Ion mode: POSITIVE
Collision energy: 10 eV
Ionization: ESI
Precursor m/z: 540.28820
Precursor type: [M+H]+
m/z	relative intensity
378.185	49
523.2581	11
540.2853	999
