Mass spectrum: Mebeverine; LC-ESI-QTOF; MS2; CE:50 eV; [M+H]+
Name: Mebeverine
Formula: C25H35NO5
Exact mass: 429.25152
SMILES: C([H])(C([H])([H])[H])(C([H])([H])c(c([H])2)c([H])c([H])c(OC([H])([H])[H])c([H])2)N(C([H])([H])C([H])([H])[H])C([H])([H])C([H])([H])C([H])([H])C([H])([H])OC(=O)c(c([H])1)c([H])c(OC([H])([H])[H])c(OC([H])([H])[H])c([H])1
InChI: InChI=1S/C25H35NO5/c1-6-26(19(2)17-20-9-12-22(28-3)13-10-20)15-7-8-16-31-25(27)21-11-14-23(29-4)24(18-21)30-5/h9-14,18-19H,6-8,15-17H2,1-5H3
Instrument: Micromass Q-TOF II
Instrument type: LC-ESI-QTOF
Ms type: MS2
Ion mode: POSITIVE
Collision energy: 50 eV
Ionization: ESI
Precursor m/z: 430.25946
Precursor type: [M+H]+
m/z	relative intensity
77.039	18
91.055	118
93.0705	28
100.1126	10
109.0655	44
121.0645	999
134.0727	18
149.0961	44
165.0552	17
