Mass spectrum: Dextromethorphan; LC-ESI-QTOF; MS2; CE:50 eV; [M+H]+
Name: Dextromethorphan
Formula: C18H25NO
Exact mass: 271.19361
SMILES: [H]C([H])([H])Oc(c([H])4)c([H])c(c(c([H])4)1)C(C([H])([H])3)(C([H])([H])2)C([H])(C([H])([H])C([H])([H])C([H])([H])3)C([H])(N(C([H])([H])[H])C([H])([H])2)C([H])([H])1
InChI: InChI=1S/C18H25NO/c1-19-10-9-18-8-4-3-5-15(18)17(19)11-13-6-7-14(20-2)12-16(13)18/h6-7,12,15,17H,3-5,8-11H2,1-2H3
Instrument: Micromass Q-TOF II
Instrument type: LC-ESI-QTOF
Ms type: MS2
Ion mode: POSITIVE
Collision energy: 50 eV
Ionization: ESI
Precursor m/z: 272.20155
Precursor type: [M+H]+
m/z	relative intensity
69.069	13
77.0387	27
79.0541	24
81.0704	11
91.0542	225
102.0472	14
103.054	18
104.0622	12
105.0692	23
107.0483	42
115.0539	214
116.0618	60
117.0701	44
119.0855	20
121.0645	111
127.0532	26
128.0616	618
129.0693	73
130.0772	14
131.0488	41
132.056	69
135.0788	42
141.0691	221
142.0773	37
143.0486	20
143.0856	15
144.0563	101
145.0636	89
146.0726	13
147.0794	134
152.0622	29
153.0685	42
154.0757	32
155.0491	11
155.0842	23
156.0559	219
157.0645	58
158.0719	111
159.0795	96
165.0695	75
166.0779	37
167.0844	18
169.0641	46
170.0719	93
171.0796	999
172.0856	19
173.0968	54
179.0851	17
181.0998	24
183.0798	45
184.0859	19
185.0957	17
197.0947	23
198.1025	85
199.1107	12
213.126	20
