Mass spectrum: Ergocristine; LC-ESI-QTOF; MS2; CE:40 eV; [M+H]+
Name: Ergocristine
Formula: C35H39N5O5
Exact mass: 609.29512
SMILES: C(C8=O)([H])(N(C2=O)C(C(N87)(C([H])([H])C([H])([H])C7([H])[H])[H])(OC2(N([H])C(C([H])(C([H])=3)C(N(C(C([H])([H])6)([H])C(c(c5[H])c(c64)c(c(c5[H])[H])n(c4[H])[H])3)C([H])([H])[H])([H])[H])=O)C(C([H])([H])[H])(C([H])([H])[H])[H])O[H])C(c(c([H])1)c([H])c([H])c([H])c([H])1)([H])[H]
InChI: InChI=1S/C35H39N5O5/c1-20(2)34(37-31(41)23-16-25-24-11-7-12-26-30(24)22(18-36-26)17-27(25)38(3)19-23)33(43)40-28(15-21-9-5-4-6-10-21)32(42)39-14-8-13-29(39)35(40,44)45-34/h4-7,9-12,16,18,20,23,27-29,36,44H,8,13-15,17,19H2,1-3H3,(H,37,41)
Instrument: Micromass Q-TOF II
Instrument type: LC-ESI-QTOF
Ms type: MS2
Ion mode: POSITIVE
Collision energy: 40 eV
Ionization: ESI
Precursor m/z: 610.30306
Precursor type: [M+H]+
m/z	relative intensity
83.0493	19
91.0539	26
167.0728	11
168.0806	13
180.0801	52
182.0945	14
187.1221	15
191.0718	46
192.0797	106
194.0956	27
197.1058	42
206.0709	17
207.0764	23
208.0757	406
209.0842	19
215.1168	103
221.1055	175
222.1115	10
223.121	999
224.1298	28
225.1003	136
234.103	21
243.1108	190
245.1259	39
249.1363	23
251.1153	33
259.1222	22
261.1367	58
268.1425	149
277.1309	284
305.1257	386
320.1736	39
325.1527	157
348.1698	54
