Mass spectrum: Drofenine; LC-ESI-QTOF; MS2; CE:20 eV; [M+H]+
Name: Drofenine
Formula: C20H31NO2
Exact mass: 317.23548
SMILES: [H]c(c([H])2)c([H])c([H])c(c([H])2)C([H])(C(=O)OC([H])([H])C([H])([H])N(C([H])([H])C([H])([H])[H])C([H])([H])C([H])([H])[H])C([H])(C([H])([H])1)C([H])([H])C([H])([H])C([H])([H])C([H])([H])1
InChI: InChI=1S/C20H31NO2/c1-3-21(4-2)15-16-23-20(22)19(17-11-7-5-8-12-17)18-13-9-6-10-14-18/h5,7-8,11-12,18-19H,3-4,6,9-10,13-16H2,1-2H3
Instrument: Micromass Q-TOF II
Instrument type: LC-ESI-QTOF
Ms type: MS2
Ion mode: POSITIVE
Collision energy: 20 eV
Ionization: ESI
Precursor m/z: 318.24342
Precursor type: [M+H]+
m/z	relative intensity
81.0696	17
91.0543	135
95.0855	45
100.1119	391
105.0697	96
117.0716	11
118.1224	38
163.0748	160
173.132	349
245.1515	585
318.2407	999
