Mass spectrum: Cymarin; LC-ESI-QTOF; MS2; CE:40 eV; [M+H]+
Name: Cymarin
Formula: C30H44O9
Exact mass: 548.29853
SMILES: C(OC(C([H])([H])1)([H])C(O[H])([H])C([H])(OC1(OC([H])(C([H])([H])2)C(C(O[H])(C([H])([H])6)C(C(C5(C6([H])[H])[H])([H])C([H])([H])C(C(C5(O[H])3)(C([H])([H])[H])C(C(=C([H])4)C(OC(=O)4)([H])[H])(C([H])([H])C3([H])[H])[H])([H])[H])(C([H])=O)C([H])([H])2)([H])[H])[H])C([H])([H])[H])([H])([H])[H]
InChI: InChI=1S/C30H44O9/c1-17-26(33)23(36-3)13-25(38-17)39-19-4-9-28(16-31)21-5-8-27(2)20(18-12-24(32)37-15-18)7-11-30(27,35)22(21)6-10-29(28,34)14-19/h12,16-17,19-23,25-26,33-35H,4-11,13-15H2,1-3H3
Instrument: Micromass Q-TOF II
Instrument type: LC-ESI-QTOF
Ms type: MS2
Ion mode: POSITIVE
Collision energy: 40 eV
Ionization: ESI
Precursor m/z: 549.30647
Precursor type: [M+H]+
m/z	relative intensity
57.034	19
59.0495	51
67.0533	76
69.0335	773
71.0503	41
73.0665	11
79.0546	13
83.0516	10
85.0659	68
87.0447	55
91.054	20
93.0702	26
95.0502	402
95.0882	20
101.0629	19
105.0694	27
107.087	22
109.0642	43
113.0602	999
117.0709	20
119.086	57
121.1053	17
125.058	148
127.0743	45
129.0687	14
131.0854	40
133.0632	16
133.1008	31
135.0797	23
137.0595	23
137.0862	11
137.0992	18
141.0709	22
143.0859	48
145.0958	169
147.0794	17
153.0545	195
153.0965	11
155.073	113
157.1012	36
159.0815	55
159.1169	41
161.097	39
163.0764	11
163.1115	17
167.0824	23
169.1012	47
171.1148	135
172.1272	11
173.0977	21
173.1139	11
173.1312	23
175.1495	20
177.0947	26
179.0997	16
181.1001	21
183.1203	44
185.1328	70
187.1146	10
187.1473	98
189.1239	25
195.1159	35
197.135	55
199.1068	16
199.1392	36
201.0869	11
201.1632	24
203.1073	28
205.1208	13
207.1109	22
209.13	45
211.1473	49
213.1386	21
215.1081	16
215.1451	19
217.122	20
219.116	15
221.1324	30
223.1483	16
227.105	15
229.1238	22
229.1613	18
231.1086	12
235.1441	38
237.1354	12
237.1606	28
245.1317	10
249.1586	41
259.1469	11
261.1609	14
263.1725	51
273.1606	13
277.1923	84
287.1791	41
291.1763	17
295.2007	29
305.1852	90
307.1973	26
315.1671	27
323.1991	218
333.1806	72
341.2123	27
351.1931	94
369.209	18
