Mass spectrum: Ampicillin; LC-ESI-QTOF; MS2; CE:50 eV; [M+H]+
Name: Ampicillin
Formula: C16H19N3O4S
Exact mass: 349.10963
SMILES: [H]OC(=O)C([H])(N21)C(C([H])([H])[H])(C([H])([H])[H])SC([H])(C([H])(N([H])C(=O)C([H])(N([H])[H])c(c([H])3)c([H])c([H])c([H])c([H])3)C(=O)2)1
InChI: InChI=1S/C16H19N3O4S/c1-16(2)11(15(22)23)19-13(21)10(14(19)24-16)18-12(20)9(17)8-6-4-3-5-7-8/h3-7,9-11,14H,17H2,1-2H3,(H,18,20)(H,22,23)
Instrument: Micromass Q-TOF II
Instrument type: LC-ESI-QTOF
Ms type: MS2
Ion mode: POSITIVE
Collision energy: 50 eV
Ionization: ESI
Precursor m/z: 350.11757
Precursor type: [M+H]+
m/z	relative intensity
58.9964	18
68.0136	45
68.0491	23
70.066	90
74.0072	38
77.0395	27
79.0551	533
82.0663	11
86.007	108
87.0276	120
90.0478	32
91.0558	373
94.0664	18
96.046	20
103.0558	54
104.0551	14
106.0664	999
109.0756	13
114.0021	100
114.0389	277
115.0556	13
116.0546	13
117.0587	118
118.0375	21
118.0662	280
119.0539	15
121.0123	135
123.0267	13
128.052	31
130.0668	60
135.028	26
137.0423	23
137.0715	12
146.0616	52
147.0287	46
160.0426	13
162.0412	13
173.0323	18
