Mass spectrum: Tetramisole; LC-ESI-QTOF; MS2; CE:40 eV; [M+H]+
Name: Tetramisole
Formula: C11H12N2S
Exact mass: 204.07212
SMILES: [H]c(c([H])3)c([H])c([H])c(c([H])3)C([H])(N=2)C([H])([H])N(C12)C([H])([H])C([H])([H])S1
InChI: InChI=1S/C11H12N2S/c1-2-4-9(5-3-1)10-8-13-6-7-14-11(13)12-10/h1-5,10H,6-8H2
Instrument: Micromass Q-TOF II
Instrument type: LC-ESI-QTOF
Ms type: MS2
Ion mode: POSITIVE
Collision energy: 40 eV
Ionization: ESI
Precursor m/z: 205.08006
Precursor type: [M+H]+
m/z	relative intensity
59.9935	14
61.0111	18
65.0384	46
74.0065	14
77.0392	132
78.0471	25
79.0546	69
86.0068	11
88.0222	12
90.0475	25
91.0547	999
95.0498	49
102.0466	13
103.0546	182
104.0609	53
105.0707	85
106.0656	13
115.0552	127
116.0579	11
117.0609	208
118.066	78
119.0691	11
123.0272	219
127.055	28
128.0619	219
129.0704	31
130.0658	212
131.074	36
132.0816	27
135.0272	18
144.0817	32
145.0662	48
150.0373	10
178.0695	53
