Mass spectrum: Aminophylline; LC-ESI-QTOF; MS2; CE:40 eV; [M+H]+
Name: Aminophylline
Formula: C7H8N4O2
Exact mass: 180.06473
SMILES: [H]C([H])([H])N(C(=O)1)C(=O)c(n([H])2)c(nc([H])2)N(C([H])([H])[H])1
InChI: InChI=1S/C7H8N4O2/c1-10-5-4(8-3-9-5)6(12)11(2)7(10)13/h3H,1-2H3,(H,8,9)
Instrument: Micromass Q-TOF II
Instrument type: LC-ESI-QTOF
Ms type: MS2
Ion mode: POSITIVE
Collision energy: 40 eV
Ionization: ESI
Precursor m/z: 181.07267
Precursor type: [M+H]+
m/z	relative intensity
54.0221	80
55.0297	20
66.022	14
67.0279	88
68.036	49
69.0445	999
70.0456	24
72.0315	14
80.0136	14
81.0434	51
82.0164	57
83.0259	34
94.0409	58
95.0254	39
96.0569	170
97.0463	17
109.028	320
110.0299	10
121.0532	16
122.0372	11
124.052	75
