Mass spectrum: Reserpine; LC-ESI-QTOF; MS2; CE:40 eV; [M+H]+
Name: Reserpine
Formula: C33H40N2O9
Exact mass: 608.27338
SMILES: CO[C@H]1[C@@H](C[C@@H]2CN3CCC4=C([C@H]3C[C@@H]2[C@@H]1C(=O)OC)NC5=C4C=CC(=C5)OC)OC(=O)C6=CC(=C(C(=C6)OC)OC)OC
InChI: InChI=1S/C33H40N2O9/c1-38-19-7-8-20-21-9-10-35-16-18-13-27(44-32(36)17-11-25(39-2)30(41-4)26(12-17)40-3)31(42-5)28(33(37)43-6)22(18)15-24(35)29(21)34-23(20)14-19/h7-8,11-12,14,18,22,24,27-28,31,34H,9-10,13,15-16H2,1-6H3/t18-,22+,24-,27-,28+,31+/m1/s1
Instrument: Micromass Q-TOF II
Instrument type: LC-ESI-QTOF
Ms type: MS2
Ion mode: POSITIVE
Collision energy: 40 eV
Ionization: ESI
Precursor m/z: 609.28132
Precursor type: [M+H]+
m/z	relative intensity
131.0734	12
139.0755	19
144.0817	11
148.0763	20
152.0464	18
159.0679	20
160.0755	34
162.0923	20
167.0697	34
174.092	611
176.1058	17
186.091	18
188.1066	28
192.102	85
195.0654	999
196.0705	30
197.0764	22
200.1068	31
204.1023	31
214.1062	13
215.1193	19
224.1274	55
227.1184	51
228.1205	37
229.1261	19
236.1277	150
238.1219	20
250.1194	13
251.1192	14
252.1242	23
253.1296	18
264.1212	12
265.1313	39
266.1372	33
267.1387	25
276.1359	20
288.1384	17
290.1313	17
304.1333	26
305.1654	12
322.1454	16
333.1567	21
336.1623	48
337.1871	10
348.1545	30
350.1563	12
363.1696	58
364.1734	73
365.1831	253
366.1824	16
367.1902	10
368.1753	32
380.1881	11
382.1789	16
394.1902	11
395.1962	191
396.2005	316
397.2057	634
434.1763	12
436.1968	10
448.1994	139
