Mass spectrum: Thioridazine; LC-ESI-QTOF; MS2; CE:50 eV; [M+H]+
Name: Thioridazine
Formula: C21H26N2S2
Exact mass: 370.15374
SMILES: [H]C([H])([H])Sc(c([H])4)c([H])c(c2c([H])4)N(c(c([H])3)c(c([H])c([H])c([H])3)S2)C([H])([H])C([H])([H])C([H])(N(C([H])([H])[H])1)C([H])([H])C([H])([H])C([H])([H])C([H])([H])1
InChI: InChI=1S/C21H26N2S2/c1-22-13-6-5-7-16(22)12-14-23-18-8-3-4-9-20(18)25-21-11-10-17(24-2)15-19(21)23/h3-4,8-11,15-16H,5-7,12-14H2,1-2H3
Instrument: Micromass Q-TOF II
Instrument type: LC-ESI-QTOF
Ms type: MS2
Ion mode: POSITIVE
Collision energy: 50 eV
Ionization: ESI
Precursor m/z: 371.16168
Precursor type: [M+H]+
m/z	relative intensity
55.0541	29
58.0648	105
70.0649	219
83.0788	12
84.0803	30
96.0812	15
98.0968	999
126.1278	203
167.0733	39
179.0732	83
198.0367	16
199.0442	42
210.0366	43
211.0445	155
212.0524	15
225.0597	11
226.0685	120
230.0098	19
242.0099	14
243.0155	38
