Mass spectrum: Tenoxicam; LC-ESI-QTOF; MS2; CE:10 eV; [M+H]+
Name: Tenoxicam
Formula: C13H11N3O4S2
Exact mass: 337.01910
SMILES: [H]OC(N([H])c(n3)c([H])c([H])c([H])c([H])3)=C(C(=O)1)N(C([H])([H])[H])S(=O)(=O)c(c([H])2)c(sc([H])2)1
InChI: InChI=1S/C13H11N3O4S2/c1-16-10(13(18)15-9-4-2-3-6-14-9)11(17)12-8(5-7-21-12)22(16,19)20/h2-7,18H,1H3,(H,14,15)/b13-10+
Instrument: Micromass Q-TOF II
Instrument type: LC-ESI-QTOF
Ms type: MS2
Ion mode: POSITIVE
Collision energy: 10 eV
Ionization: ESI
Precursor m/z: 338.02704
Precursor type: [M+H]+
m/z	relative intensity
95.0617	39
121.0408	28
164.0812	22
338.025	999
