Mass spectrum: Fenbendazole; LC-ESI-QTOF; MS2; CE:30 eV; [M+H]+
Name: Fenbendazole
Formula: C15H13N3O2S
Exact mass: 299.07285
SMILES: [H]C([H])([H])OC(=O)N([H])c(n1)n([H])c(c([H])2)c1c([H])c([H])c(Sc(c([H])3)c([H])c([H])c([H])c([H])3)2
InChI: InChI=1S/C15H13N3O2S/c1-20-15(19)18-14-16-12-8-7-11(9-13(12)17-14)21-10-5-3-2-4-6-10/h2-9H,1H3,(H2,16,17,18,19)
Instrument: Micromass Q-TOF II
Instrument type: LC-ESI-QTOF
Ms type: MS2
Ion mode: POSITIVE
Collision energy: 30 eV
Ionization: ESI
Precursor m/z: 300.08079
Precursor type: [M+H]+
m/z	relative intensity
109.0129	33
131.05	17
159.0442	631
190.0096	124
191.0181	10
240.0616	11
268.0552	999
