Mass spectrum: Etodolac; LC-ESI-QTOF; MS2; CE:40 eV; [M+H]+
Name: Etodolac
Formula: C17H21NO3
Exact mass: 287.15214
SMILES: [H]OC(=O)C([H])([H])C(O3)(C([H])([H])C([H])([H])[H])c(n([H])1)c(C([H])([H])C([H])([H])3)c(c([H])2)c(c(c([H])c([H])2)C([H])([H])C([H])([H])[H])1
InChI: InChI=1S/C17H21NO3/c1-3-11-6-5-7-12-13-8-9-21-17(4-2,10-14(19)20)16(13)18-15(11)12/h5-7,18H,3-4,8-10H2,1-2H3,(H,19,20)
Instrument: Micromass Q-TOF II
Instrument type: LC-ESI-QTOF
Ms type: MS2
Ion mode: POSITIVE
Collision energy: 40 eV
Ionization: ESI
Precursor m/z: 288.16008
Precursor type: [M+H]+
m/z	relative intensity
57.0359	10
115.0553	30
116.0614	25
117.0667	115
118.0647	12
127.0568	10
129.0676	14
130.0667	47
142.0655	31
143.0735	999
144.081	403
145.072	35
154.0671	20
155.0769	13
156.0817	91
157.089	118
158.0948	33
167.0733	68
168.0792	51
169.0905	11
170.0968	24
171.106	39
172.112	189
180.0821	188
181.088	109
182.0952	62
184.1122	11
194.0965	109
195.1062	56
196.1109	51
198.0886	19
208.1115	34
209.118	30
210.1266	42
212.1043	19
228.1385	12
