Mass spectrum: Thiothixene; LC-ESI-QTOF; MS2; CE:50 eV; [M+H]+
Name: Thiothixene
Formula: C23H29N3O2S2
Exact mass: 443.17012
SMILES: [H]c(c([H])4)c([H])c(S1)c(c([H])4)C(=C([H])C([H])([H])C([H])([H])N(C([H])([H])3)C([H])([H])C([H])([H])N(C([H])([H])[H])C([H])([H])3)c(c([H])2)c1c([H])c([H])c2S(=O)(=O)N(C([H])([H])[H])C([H])([H])[H]
InChI: InChI=1S/C23H29N3O2S2/c1-24(2)30(27,28)18-10-11-23-21(17-18)19(20-7-4-5-9-22(20)29-23)8-6-12-26-15-13-25(3)14-16-26/h4-5,7-11,17H,6,12-16H2,1-3H3/b19-8-
Instrument: Micromass Q-TOF II
Instrument type: LC-ESI-QTOF
Ms type: MS2
Ion mode: POSITIVE
Collision energy: 50 eV
Ionization: ESI
Precursor m/z: 444.17806
Precursor type: [M+H]+
m/z	relative intensity
58.0645	17
68.0493	38
69.0564	19
70.065	237
72.0806	12
82.0656	64
83.0638	37
84.0804	28
85.0786	15
96.0808	71
97.0774	84
98.0851	219
111.0925	67
112.101	15
113.1075	18
124.1002	13
125.1082	17
139.1232	42
165.0705	22
178.0785	13
184.0352	16
185.0434	27
196.0354	153
197.0431	254
202.0786	113
203.0867	146
204.0937	21
208.0356	17
209.0423	24
210.051	75
211.0579	15
213.0378	171
220.0359	10
221.0426	999
222.0503	47
223.0587	23
225.0731	20
233.0423	13
234.0506	291
235.0584	577
236.0661	149
237.0723	39
250.0674	24
251.0578	11
253.0694	44
304.0475	38
