Mass spectrum: Leucine_Enkephalin; LC-ESI-QTOF; MS2; CE:20 eV; [M+H]+
Name: Leucine_Enkephalin
Formula: C28H37N5O7
Exact mass: 555.26930
SMILES: [H]OC(C(N([H])C(=O)C(C([H])([H])c(c([H])2)c([H])c([H])c([H])c([H])2)(N([H])C(=O)C(N(C(=O)C(N(C(C(N([H])[H])(C([H])([H])c(c([H])1)c([H])c([H])c(O[H])c([H])1)[H])=O)[H])([H])[H])[H])([H])[H])[H])(C([H])([H])C([H])(C([H])([H])[H])C([H])([H])[H])[H])=O
InChI: InChI=1S/C28H37N5O7/c1-17(2)12-23(28(39)40)33-27(38)22(14-18-6-4-3-5-7-18)32-25(36)16-30-24(35)15-31-26(37)21(29)13-19-8-10-20(34)11-9-19/h3-11,17,21-23,34H,12-16,29H2,1-2H3,(H,30,35)(H,31,37)(H,32,36)(H,33,38)(H,39,40)
Instrument: Micromass Q-TOF II
Instrument type: LC-ESI-QTOF
Ms type: MS2
Ion mode: POSITIVE
Collision energy: 20 eV
Ionization: ESI
Precursor m/z: 556.27724
Precursor type: [M+H]+
m/z	relative intensity
120.0816	70
132.1021	14
136.0762	48
177.1027	53
205.0971	152
221.0915	69
234.1236	16
262.1174	90
278.1118	345
279.1688	211
318.1801	13
323.1384	13
336.1915	109
347.2071	19
375.2028	62
379.1883	10
380.1605	35
393.2128	55
397.1844	999
403.1967	18
425.1798	530
443.1925	32
465.2491	10
493.2437	30
510.2698	87
538.2642	93
556.2729	587
