Mass spectrum: Noscapine; LC-ESI-QTOF; MS2; CE:50 eV; [M+H]+
Name: Noscapine
Formula: C22H23NO7
Exact mass: 413.14745
SMILES: CN1CCC2=CC3=C(C(=C2[C@@H]1[C@@H]4C5=C(C(=C(C=C5)OC)OC)C(=O)O4)OC)OCO3
InChI: InChI=1S/C22H23NO7/c1-23-8-7-11-9-14-20(29-10-28-14)21(27-4)15(11)17(23)18-12-5-6-13(25-2)19(26-3)16(12)22(24)30-18/h5-6,9,17-18H,7-8,10H2,1-4H3/t17-,18+/m1/s1
Instrument: Micromass Q-TOF II
Instrument type: LC-ESI-QTOF
Ms type: MS2
Ion mode: POSITIVE
Collision energy: 50 eV
Ionization: ESI
Precursor m/z: 414.15539
Precursor type: [M+H]+
m/z	relative intensity
77.0395	14
91.0542	44
103.0548	21
107.0548	11
118.0566	13
119.0587	21
121.0689	55
122.0367	12
130.0439	24
131.0507	31
132.0583	16
133.0598	25
134.0452	17
135.0477	21
146.0476	22
147.0667	64
148.075	49
149.0735	31
152.0644	13
153.0697	20
158.0406	12
159.0526	17
160.0574	21
161.0589	13
162.0479	17
162.0756	10
163.049	24
164.0542	22
165.0673	72
166.0759	12
167.0826	14
174.0487	48
175.0603	43
176.0628	71
177.0611	84
178.077	50
179.0755	40
180.0619	16
181.0662	76
183.0798	11
188.0527	77
189.0664	57
190.0704	41
191.0594	154
192.0605	40
193.0625	51
194.0723	47
195.0801	42
196.0734	21
197.0638	13
202.0711	13
203.058	56
204.0634	121
205.0726	999
206.0795	223
207.0737	55
208.071	32
209.0613	110
210.0713	17
211.0742	27
216.0589	18
217.064	24
218.0762	72
219.0643	70
220.0414	29
220.0949	388
221.0604	130
222.0661	63
223.0734	83
224.0788	57
225.0707	22
231.0556	19
232.0547	51
233.0602	101
234.0673	110
235.0708	97
236.055	83
237.0553	207
238.0728	36
239.0692	49
244.054	13
245.0589	19
246.0663	35
247.0548	77
248.0559	74
249.0561	177
250.0644	82
251.0691	138
252.0708	86
253.0788	34
254.079	25
255.0644	14
259.0439	18
260.0518	24
261.0557	79
262.0627	105
263.0664	105
264.0645	107
265.0501	341
266.0649	69
267.0656	71
268.0831	14
269.0794	16
273.0548	13
274.0586	21
275.0607	35
276.0607	45
277.0536	126
278.0643	68
279.0644	138
280.0701	214
281.0783	69
282.0777	30
283.0606	20
289.0504	60
290.0603	40
291.0643	54
292.0534	65
293.0613	92
294.0672	70
295.0631	161
296.0889	21
297.0731	15
303.0643	11
304.0598	26
305.0607	56
306.0644	89
307.0597	156
308.0622	64
309.0729	59
310.0796	44
318.0696	18
319.063	32
320.0616	37
321.0682	41
322.0719	51
323.0668	62
324.0846	18
332.0618	12
334.0707	49
335.0598	17
336.0786	31
337.0728	36
338.0747	31
350.0739	13
351.069	18
352.0849	19
362.0727	25
364.0819	12
366.0906	10
