Mass spectrum: Theobromine; LC-ESI-QTOF; MS2; CE:40 eV; [M+H]+
Name: Theobromine
Formula: C7H8N4O2
Exact mass: 180.06473
SMILES: [H]C([H])([H])N(C(=O)2)c(n1)c(C(=O)N([H])2)n(C([H])([H])[H])c([H])1
InChI: InChI=1S/C7H8N4O2/c1-10-3-8-5-4(10)6(12)9-7(13)11(5)2/h3H,1-2H3,(H,9,12,13)
Instrument: Micromass Q-TOF II
Instrument type: LC-ESI-QTOF
Ms type: MS2
Ion mode: POSITIVE
Collision energy: 40 eV
Ionization: ESI
Precursor m/z: 181.07267
Precursor type: [M+H]+
m/z	relative intensity
54.0306	40
56.0487	56
66.0227	68
67.0283	999
68.0357	377
69.0442	326
70.0298	13
79.0286	70
80.0327	14
81.0411	125
82.0503	34
83.0605	171
85.0387	11
93.032	80
94.0406	95
95.0481	137
96.0553	13
107.0354	65
108.0567	127
109.0395	21
110.0723	45
120.0437	30
121.0514	32
122.0584	277
123.0422	140
135.0695	14
148.0387	30
