Mass spectrum: Isoxsuprine; LC-ESI-QTOF; MS2; CE:40 eV; [M+H]+
Name: Isoxsuprine
Formula: C18H23NO3
Exact mass: 301.16779
SMILES: [H]Oc(c([H])2)c([H])c([H])c(c([H])2)C([H])(O[H])C([H])(C([H])([H])[H])N([H])C([H])(C([H])([H])[H])C([H])([H])Oc(c([H])1)c([H])c([H])c([H])c([H])1
InChI: InChI=1S/C18H23NO3/c1-13(12-22-17-6-4-3-5-7-17)19-14(2)18(21)15-8-10-16(20)11-9-15/h3-11,13-14,18-21H,12H2,1-2H3
Instrument: Micromass Q-TOF II
Instrument type: LC-ESI-QTOF
Ms type: MS2
Ion mode: POSITIVE
Collision energy: 40 eV
Ionization: ESI
Precursor m/z: 302.17573
Precursor type: [M+H]+
m/z	relative intensity
55.0186	12
56.0506	11
57.0339	12
58.065	39
65.0381	15
77.0392	335
79.0549	298
81.0709	12
91.0552	69
94.0419	11
95.0496	205
103.0549	101
105.0705	687
107.0497	999
108.0576	64
109.0655	46
115.0551	71
117.0672	15
118.0617	12
120.051	17
121.0655	36
131.0505	38
132.0637	26
133.0633	253
134.0638	25
135.0735	106
145.0646	14
146.0622	23
147.0687	13
148.0755	44
149.0831	55
150.0917	53
158.075	12
159.0796	15
160.0763	23
162.0918	11
