Mass spectrum: Streptomycin; LC-ESI-QTOF; MS2; CE:30 eV; [M+H]+
Name: Streptomycin
Formula: C21H39N7O12
Exact mass: 581.26567
SMILES: [H]N([H])C(N([H])[H])=NC([H])(C([H])(O[H])1)C([H])(O[H])C([H])(N=C(N([H])[H])N([H])[H])C([H])(OC([H])(O2)C([H])(OC([H])(O3)C([H])(N([H])C([H])([H])[H])C([H])(O[H])C([H])(O[H])C([H])(C([H])([H])O[H])3)C(O[H])(C([H])=O)C([H])(C([H])([H])[H])2)C([H])(O[H])1
InChI: InChI=1S/C21H39N7O12/c1-5-21(36,4-30)16(40-17-9(26-2)13(34)10(31)6(3-29)38-17)18(37-5)39-15-8(28-20(24)25)11(32)7(27-19(22)23)12(33)14(15)35/h4-18,26,29,31-36H,3H2,1-2H3,(H4,22,23,27)(H4,24,25,28)/t5-,6-,7+,8-,9-,10-,11+,12-,13-,14+,15+,16-,17-,18-,21+/m0/s1
Instrument: Micromass Q-TOF II
Instrument type: LC-ESI-QTOF
Ms type: MS2
Ion mode: POSITIVE
Collision energy: 30 eV
Ionization: ESI
Precursor m/z: 582.27361
Precursor type: [M+H]+
m/z	relative intensity
60.0562	18
86.06	15
158.0803	17
168.0742	11
176.0927	129
186.0866	54
200.0905	13
203.1131	26
204.0956	20
217.0927	56
218.0979	15
221.1241	128
228.1066	11
246.1193	198
263.1458	727
276.1088	11
284.114	16
287.1498	15
288.126	29
291.1399	16
302.1188	39
320.1351	52
330.1295	29
348.1291	12
363.1638	15
365.1711	52
390.1636	130
407.189	222
505.2155	27
522.2502	15
540.2534	203
564.2584	29
565.2499	87
582.272	999
