Mass spectrum: Sufentanil; LC-ESI-QTOF; MS2; CE:30 eV; [M+H]+
Name: Sufentanil
Formula: C22H30N2O2S
Exact mass: 386.20280
SMILES: [H]C([H])([H])OC([H])([H])C(N(C(=O)C([H])([H])C([H])([H])[H])c(c([H])3)c([H])c([H])c([H])c([H])3)(C([H])([H])1)C([H])([H])C([H])([H])N(C([H])([H])C([H])([H])c(s2)c([H])c([H])c([H])2)C([H])([H])1
InChI: InChI=1S/C22H30N2O2S/c1-3-21(25)24(19-8-5-4-6-9-19)22(18-26-2)12-15-23(16-13-22)14-11-20-10-7-17-27-20/h4-10,17H,3,11-16,18H2,1-2H3
Instrument: Micromass Q-TOF II
Instrument type: LC-ESI-QTOF
Ms type: MS2
Ion mode: POSITIVE
Collision energy: 30 eV
Ionization: ESI
Precursor m/z: 387.21074
Precursor type: [M+H]+
m/z	relative intensity
67.0535	22
69.0695	24
81.0704	11
94.0646	21
96.0808	33
99.0807	122
108.0813	60
109.0904	11
110.0971	20
111.0265	751
126.0914	90
128.1071	19
132.0811	167
140.0535	72
140.1068	385
150.091	50
152.0532	45
160.1128	18
177.0635	10
178.0695	14
206.0998	300
224.11	238
229.1319	10
238.125	999
327.152	36
355.1844	264
