Mass spectrum: Methionine_Enkephalin; LC-ESI-QTOF; MS2; CE:20 eV; [M+H]+
Name: Methionine_Enkephalin
Formula: C27H35N5O7S
Exact mass: 573.22572
SMILES: [H]C([H])(c(c2[H])c(c(c(c2[H])O[H])[H])[H])C([H])(N([H])[H])C(N(C(C(N(C(C(N(C(C([H])([H])c(c1[H])c(c(c(c1[H])[H])[H])[H])([H])C(N(C([H])(C(=O)O[H])C([H])([H])C(SC([H])([H])[H])([H])[H])[H])=O)[H])=O)([H])[H])[H])=O)([H])[H])[H])=O
InChI: InChI=1S/C27H35N5O7S/c1-40-12-11-21(27(38)39)32-26(37)22(14-17-5-3-2-4-6-17)31-24(35)16-29-23(34)15-30-25(36)20(28)13-18-7-9-19(33)10-8-18/h2-10,20-22,33H,11-16,28H2,1H3,(H,29,34)(H,30,36)(H,31,35)(H,32,37)(H,38,39)
Instrument: Micromass Q-TOF II
Instrument type: LC-ESI-QTOF
Ms type: MS2
Ion mode: POSITIVE
Collision energy: 20 eV
Ionization: ESI
Precursor m/z: 574.23366
Precursor type: [M+H]+
m/z	relative intensity
120.0805	70
136.0752	51
150.0579	102
177.1013	48
205.0961	119
221.0905	72
234.1217	16
262.1167	92
278.1104	364
297.1242	244
323.1357	13
354.1461	125
380.1589	34
393.1581	29
397.1844	999
411.1668	67
421.1501	21
425.1785	509
443.188	25
463.1928	13
480.219	50
511.1961	12
528.2253	35
556.2173	74
574.2278	575
