Mass spectrum: Gingerol; LC-ESI-QTOF; MS2; CE:20 eV; [M+H]+
Name: 6-Gingerol
Name: (5S)-5-Hydroxy-1-(4-hydroxy-3-methoxyphenyl)-3-decanone
Formula: C17H26O4
Exact mass: 294.18311
SMILES: CCCCC[C@@H](CC(=O)CCC1=CC(=C(C=C1)O)OC)O
InChI: InChI=1S/C17H26O4/c1-3-4-5-6-14(18)12-15(19)9-7-13-8-10-16(20)17(11-13)21-2/h8,10-11,14,18,20H,3-7,9,12H2,1-2H3/t14-/m0/s1
Instrument: Micromass Q-TOF II
Instrument type: LC-ESI-QTOF
Ms type: MS2
Ion mode: POSITIVE
Collision energy: 20 eV
Ionization: ESI
Precursor m/z: 295.19105
Precursor type: [M+H]+
m/z	relative intensity
71.0843	11
99.0796	12
123.1181	11
131.0489	65
137.0598	999
141.1277	14
145.0652	106
162.0656	27
163.0751	37
175.079	10
177.0918	214
179.0705	51
259.1729	10
