Mass spectrum: Cymarin; LC-ESI-QTOF; MS2; CE:50 eV; [M+H]+
Name: Cymarin
Formula: C30H44O9
Exact mass: 548.29853
SMILES: C(OC(C([H])([H])1)([H])C(O[H])([H])C([H])(OC1(OC([H])(C([H])([H])2)C(C(O[H])(C([H])([H])6)C(C(C5(C6([H])[H])[H])([H])C([H])([H])C(C(C5(O[H])3)(C([H])([H])[H])C(C(=C([H])4)C(OC(=O)4)([H])[H])(C([H])([H])C3([H])[H])[H])([H])[H])(C([H])=O)C([H])([H])2)([H])[H])[H])C([H])([H])[H])([H])([H])[H]
InChI: InChI=1S/C30H44O9/c1-17-26(33)23(36-3)13-25(38-17)39-19-4-9-28(16-31)21-5-8-27(2)20(18-12-24(32)37-15-18)7-11-30(27,35)22(21)6-10-29(28,34)14-19/h12,16-17,19-23,25-26,33-35H,4-11,13-15H2,1-3H3
Instrument: Micromass Q-TOF II
Instrument type: LC-ESI-QTOF
Ms type: MS2
Ion mode: POSITIVE
Collision energy: 50 eV
Ionization: ESI
Precursor m/z: 549.30647
Precursor type: [M+H]+
m/z	relative intensity
57.0311	27
57.07	26
59.05	124
67.0546	212
69.0335	999
69.069	13
71.0493	95
73.0646	38
77.043	13
79.0551	41
81.0692	31
83.0501	41
85.0653	103
87.0459	97
91.054	78
93.0683	39
95.0493	632
95.0875	23
97.0648	11
101.0599	22
105.0696	75
107.0844	35
109.0632	68
111.0477	11
113.0599	615
117.0714	63
119.0865	137
121.0622	23
121.1031	25
125.0604	335
127.0752	34
128.0577	11
129.0713	63
131.0875	88
133.0606	12
133.1022	64
135.043	11
135.0796	33
137.0614	16
139.0753	20
141.069	38
142.0776	18
143.0851	88
145.0597	12
145.1007	198
147.0794	12
147.1221	36
149.1027	11
153.0549	113
155.0796	118
157.101	73
159.08	75
159.1165	45
161.0956	30
163.0745	20
165.0698	11
167.0869	39
169.104	55
171.1181	153
172.1162	15
173.0927	15
173.127	42
175.1137	14
177.0894	18
179.0959	39
181.101	46
183.0742	11
183.1162	72
185.0907	11
185.131	72
187.1076	16
187.147	58
189.1204	29
193.1048	31
194.1173	11
195.1166	56
197.1291	52
199.1101	28
199.1501	22
201.1099	16
201.1644	24
203.1074	12
205.1038	15
207.1105	28
209.1332	35
211.1051	21
211.1513	64
213.1328	23
217.1187	22
219.1127	11
221.1338	36
223.1416	30
227.114	21
229.1184	15
233.131	33
234.1242	14
235.1479	40
245.1329	17
249.1259	14
249.1619	18
259.1439	13
261.1372	11
261.1619	13
263.1362	21
263.1822	31
267.1349	10
277.149	13
277.1743	17
277.1918	14
287.1768	23
295.1887	20
305.1932	35
323.2025	26
