Mass spectrum: 4_Aminoantipyrine; LC-ESI-QTOF; MS2; CE:30 eV; [M+H]+
Name: 4_Aminoantipyrine
Formula: C11H13N3O
Exact mass: 203.10586
SMILES: [H]N([H])C(C(=O)1)=C(C([H])([H])[H])N(C([H])([H])[H])N1c(c([H])2)c([H])c([H])c([H])c([H])2
InChI: InChI=1S/C11H13N3O/c1-8-10(12)11(15)14(13(8)2)9-6-4-3-5-7-9/h3-7H,12H2,1-2H3
Instrument: Micromass Q-TOF II
Instrument type: LC-ESI-QTOF
Ms type: MS2
Ion mode: POSITIVE
Collision energy: 30 eV
Ionization: ESI
Precursor m/z: 204.11380
Precursor type: [M+H]+
m/z	relative intensity
56.0499	999
58.0655	48
68.0495	28
70.0541	10
77.039	250
83.061	211
85.0768	16
91.0558	36
92.0508	15
93.0583	18
94.066	478
95.0499	93
103.0525	18
104.0499	135
106.0665	18
115.0555	22
117.0572	35
118.0657	62
119.0578	18
128.0497	91
130.0653	60
131.0706	11
132.0441	18
132.0805	88
144.0721	20
145.0757	39
146.06	64
158.0753	11
159.0924	42
160.0869	28
171.0552	13
188.0831	20
