Mass spectrum: Antipyrine; LC-ESI-QTOF; MS2; CE:50 eV; [M+H]+
Name: Antipyrine
Formula: C11H12N2O
Exact mass: 188.09496
SMILES: [H]C([H])([H])C(=C([H])2)N(C([H])([H])[H])N(C(=O)2)c(c([H])1)c([H])c([H])c([H])c([H])1
InChI: InChI=1S/C11H12N2O/c1-9-8-11(14)13(12(9)2)10-6-4-3-5-7-10/h3-8H,1-2H3
Instrument: Micromass Q-TOF II
Instrument type: LC-ESI-QTOF
Ms type: MS2
Ion mode: POSITIVE
Collision energy: 50 eV
Ionization: ESI
Precursor m/z: 189.10290
Precursor type: [M+H]+
m/z	relative intensity
51.0243	65
54.0344	11
56.0503	217
58.0655	23
63.0234	11
65.0384	140
66.0401	15
67.0187	10
68.0495	10
76.0312	12
77.0392	999
78.0457	74
79.0542	56
80.0507	11
81.0456	21
82.0292	15
89.0396	65
90.0448	51
91.0547	152
92.0508	26
93.0583	24
95.0508	204
101.0393	11
102.0468	53
103.0543	71
104.0502	171
105.0489	16
106.0646	52
115.0547	127
116.0546	16
117.0588	55
118.0656	59
119.0572	14
128.0509	41
129.0553	12
130.0654	100
131.0611	113
132.0667	20
145.0754	25
