Mass spectrum: Nandrolone; LC-ESI-QTOF; MS2; CE:20 eV; [M+H]+
Name: Nandrolone
Formula: C18H26O2
Exact mass: 274.19328
SMILES: [H]OC([H])(C([H])([H])4)C(C([H])([H])[H])(C([H])([H])3)C([H])(C([H])([H])4)C([H])(C([H])([H])1)C([H])(C([H])([H])3)C([H])(C([H])([H])2)C(=C([H])C(=O)C([H])([H])2)C([H])([H])1
InChI: InChI=1S/C18H26O2/c1-18-9-8-14-13-5-3-12(19)10-11(13)2-4-15(14)16(18)6-7-17(18)20/h10,13-17,20H,2-9H2,1H3/t13-,14+,15+,16-,17-,18-/m0/s1
Instrument: Micromass Q-TOF II
Instrument type: LC-ESI-QTOF
Ms type: MS2
Ion mode: POSITIVE
Collision energy: 20 eV
Ionization: ESI
Precursor m/z: 275.20122
Precursor type: [M+H]+
m/z	relative intensity
79.0555	12
81.0705	52
83.0498	90
91.055	12
93.0707	42
95.0863	57
105.0706	28
107.0487	49
107.087	42
109.0655	321
109.1082	12
117.0711	12
119.0862	32
121.1017	53
123.082	18
131.0862	35
133.1012	37
135.0756	17
135.1164	114
143.0859	45
145.1013	172
147.0737	13
147.1169	113
149.093	34
149.1302	86
157.1019	49
159.117	46
161.0993	86
161.1366	30
163.1124	91
169.1014	25
171.1174	42
173.1326	24
175.1252	81
183.1174	74
185.1333	100
187.1478	123
189.1275	11
197.133	71
199.1486	159
201.1286	49
203.1431	65
211.148	34
213.164	46
215.1623	28
229.1805	22
231.1736	52
239.179	408
257.1891	524
275.1993	999
