Mass spectrum: Ephedrine; LC-ESI-QTOF; MS2; CE:50 eV; [M+H]+
Name: Ephedrine
Formula: C10H15NO
Exact mass: 165.11536
SMILES: [H]OC([H])(c(c([H])1)c([H])c([H])c([H])c([H])1)C([H])(C([H])([H])[H])N([H])C([H])([H])[H]
InChI: InChI=1S/C10H15NO/c1-8(11-2)10(12)9-6-4-3-5-7-9/h3-8,10-12H,1-2H3
Instrument: Micromass Q-TOF II
Instrument type: LC-ESI-QTOF
Ms type: MS2
Ion mode: POSITIVE
Collision energy: 50 eV
Ionization: ESI
Precursor m/z: 166.12330
Precursor type: [M+H]+
m/z	relative intensity
51.0232	18
56.05	29
63.0232	47
65.0384	466
77.0396	269
78.0479	96
79.0559	29
89.0397	219
90.0474	79
91.0552	999
95.0505	60
102.0481	24
103.0549	170
104.0615	25
105.0713	27
115.0552	530
116.0593	22
117.0582	236
118.0646	20
130.0659	82
131.0739	12
132.0825	41
