Mass spectrum: Etodolac; LC-ESI-QTOF; MS2; CE:20 eV; [M+H]+
Name: Etodolac
Formula: C17H21NO3
Exact mass: 287.15214
SMILES: [H]OC(=O)C([H])([H])C(O3)(C([H])([H])C([H])([H])[H])c(n([H])1)c(C([H])([H])C([H])([H])3)c(c([H])2)c(c(c([H])c([H])2)C([H])([H])C([H])([H])[H])1
InChI: InChI=1S/C17H21NO3/c1-3-11-6-5-7-12-13-8-9-21-17(4-2,10-14(19)20)16(13)18-15(11)12/h5-7,18H,3-4,8-10H2,1-2H3,(H,19,20)
Instrument: Micromass Q-TOF II
Instrument type: LC-ESI-QTOF
Ms type: MS2
Ion mode: POSITIVE
Collision energy: 20 eV
Ionization: ESI
Precursor m/z: 288.16008
Precursor type: [M+H]+
m/z	relative intensity
143.0733	15
144.081	25
172.1134	999
182.0986	12
190.1245	18
200.1455	17
210.1278	84
211.1334	11
224.1442	76
226.16	12
228.1392	87
246.1496	103
252.1396	37
270.1499	92
288.1608	10
