Mass spectrum: Isoxsuprine; LC-ESI-QTOF; MS2; CE:20 eV; [M+H]+
Name: Isoxsuprine
Formula: C18H23NO3
Exact mass: 301.16779
SMILES: [H]Oc(c([H])2)c([H])c([H])c(c([H])2)C([H])(O[H])C([H])(C([H])([H])[H])N([H])C([H])(C([H])([H])[H])C([H])([H])Oc(c([H])1)c([H])c([H])c([H])c([H])1
InChI: InChI=1S/C18H23NO3/c1-13(12-22-17-6-4-3-5-7-17)19-14(2)18(21)15-8-10-16(20)11-9-15/h3-11,13-14,18-21H,12H2,1-2H3
Instrument: Micromass Q-TOF II
Instrument type: LC-ESI-QTOF
Ms type: MS2
Ion mode: POSITIVE
Collision energy: 20 eV
Ionization: ESI
Precursor m/z: 302.17573
Precursor type: [M+H]+
m/z	relative intensity
58.0652	12
105.0705	12
107.05	85
133.0654	46
135.0809	144
148.0768	14
149.0847	45
150.0919	204
151.0763	18
152.1075	24
190.1234	63
284.1634	999
302.175	12
