Mass spectrum: Alfentanil; LC-ESI-QTOF; MS2; CE:30 eV; [M+H]+
Name: Alfentanil
Formula: C21H32N6O3
Exact mass: 416.25359
SMILES: [H]C([H])([H])OC([H])([H])C(N(C(=O)C([H])([H])C([H])([H])[H])c(c([H])3)c([H])c([H])c([H])c([H])3)(C([H])([H])1)C([H])([H])C([H])([H])N(C([H])([H])C([H])([H])N(N=2)C(=O)N(N2)C([H])([H])C([H])([H])[H])C([H])([H])1
InChI: InChI=1S/C21H32N6O3/c1-4-19(28)27(18-9-7-6-8-10-18)21(17-30-3)11-13-24(14-12-21)15-16-26-20(29)25(5-2)22-23-26/h6-10H,4-5,11-17H2,1-3H3
Instrument: Micromass Q-TOF II
Instrument type: LC-ESI-QTOF
Ms type: MS2
Ion mode: POSITIVE
Collision energy: 30 eV
Ionization: ESI
Precursor m/z: 417.26153
Precursor type: [M+H]+
m/z	relative intensity
94.0654	18
99.0555	162
99.0815	35
122.0972	12
132.0809	106
141.0774	13
150.0909	36
154.1209	10
165.1023	503
170.1038	286
183.1126	101
197.1281	999
236.1507	53
254.1595	50
268.1766	172
286.1535	25
314.1856	575
385.2346	84
