Mass spectrum: Drofenine; LC-ESI-QTOF; MS2; CE:30 eV; [M+H]+
Name: Drofenine
Formula: C20H31NO2
Exact mass: 317.23548
SMILES: [H]c(c([H])2)c([H])c([H])c(c([H])2)C([H])(C(=O)OC([H])([H])C([H])([H])N(C([H])([H])C([H])([H])[H])C([H])([H])C([H])([H])[H])C([H])(C([H])([H])1)C([H])([H])C([H])([H])C([H])([H])C([H])([H])1
InChI: InChI=1S/C20H31NO2/c1-3-21(4-2)15-16-23-20(22)19(17-11-7-5-8-12-17)18-13-9-6-10-14-18/h5,7-8,11-12,18-19H,3-4,6,9-10,13-16H2,1-2H3
Instrument: Micromass Q-TOF II
Instrument type: LC-ESI-QTOF
Ms type: MS2
Ion mode: POSITIVE
Collision energy: 30 eV
Ionization: ESI
Precursor m/z: 318.24342
Precursor type: [M+H]+
m/z	relative intensity
69.0676	15
72.0802	54
81.0696	66
83.0849	50
91.054	999
95.0851	105
100.1116	308
105.0699	201
117.0709	47
118.1217	30
131.0855	14
163.0744	672
173.1308	81
245.1507	98
