Mass spectrum: Antipyrine; LC-ESI-QTOF; MS2; CE:20 eV; [M+H]+
Name: Antipyrine
Formula: C11H12N2O
Exact mass: 188.09496
SMILES: [H]C([H])([H])C(=C([H])2)N(C([H])([H])[H])N(C(=O)2)c(c([H])1)c([H])c([H])c([H])c([H])1
InChI: InChI=1S/C11H12N2O/c1-9-8-11(14)13(12(9)2)10-6-4-3-5-7-10/h3-8H,1-2H3
Instrument: Micromass Q-TOF II
Instrument type: LC-ESI-QTOF
Ms type: MS2
Ion mode: POSITIVE
Collision energy: 20 eV
Ionization: ESI
Precursor m/z: 189.10290
Precursor type: [M+H]+
m/z	relative intensity
56.05	32
58.0651	45
77.039	10
91.0548	17
96.0672	39
98.0608	11
104.05	75
105.0579	12
106.0657	41
117.0661	29
118.0656	42
120.0811	37
130.0653	53
131.0722	88
132.0796	38
133.0673	20
144.0809	72
145.0683	42
146.0858	92
147.0916	108
161.1075	62
172.0765	19
174.0791	63
189.1003	999
