Mass spectrum: Betaxolol; LC-ESI-QTOF; MS2; CE:40 eV; [M+H]+
Name: Betaxolol
Formula: C18H29NO3
Exact mass: 307.21474
SMILES: [H]OC([H])(C([H])([H])Oc(c([H])2)c([H])c([H])c(c([H])2)C([H])([H])C([H])([H])OC([H])([H])C([H])(C([H])([H])1)C([H])([H])1)C([H])([H])N([H])C([H])(C([H])([H])[H])C([H])([H])[H]
InChI: InChI=1S/C18H29NO3/c1-14(2)19-11-17(20)13-22-18-7-5-15(6-8-18)9-10-21-12-16-3-4-16/h5-8,14,16-17,19-20H,3-4,9-13H2,1-2H3
Instrument: Micromass Q-TOF II
Instrument type: LC-ESI-QTOF
Ms type: MS2
Ion mode: POSITIVE
Collision energy: 40 eV
Ionization: ESI
Precursor m/z: 308.22268
Precursor type: [M+H]+
m/z	relative intensity
53.0389	15
55.0176	31
55.0543	921
56.0497	929
57.0336	21
57.0695	35
58.0651	149
60.0804	14
65.0382	20
67.0538	125
70.0649	17
71.0753	12
72.0809	832
74.0601	871
77.039	250
79.0546	332
81.0707	63
84.0815	141
86.0603	24
91.0549	999
93.0704	282
95.0495	100
98.0966	269
100.1127	168
103.0551	469
104.0622	125
105.0706	866
107.0499	102
107.0876	23
109.0651	18
110.0969	19
115.055	246
116.0619	125
116.1078	253
117.0704	218
118.0721	22
119.0457	28
119.0861	103
120.06	37
121.0654	882
127.0551	19
128.063	215
129.0706	214
130.0774	35
131.0461	64
131.0853	179
132.0577	27
133.0654	500
134.0746	12
135.081	42
141.0706	161
142.0781	68
143.0864	42
144.0578	169
145.0649	131
146.0744	27
147.0808	85
148.0762	92
151.0758	72
152.0631	13
153.0704	25
154.0792	15
155.0864	18
157.0662	60
158.0756	39
159.0807	162
160.0826	14
161.0956	51
163.1059	11
165.0721	17
169.0662	22
170.0767	11
171.0822	36
172.0875	15
175.0997	19
177.0937	21
183.0814	18
185.0971	11
