Mass spectrum: Terbutaline; LC-ESI-QTOF; MS2; CE:50 eV; [M+H]+
Name: Terbutaline
Formula: C12H19NO3
Exact mass: 225.13649
SMILES: [H]Oc(c([H])1)c([H])c(c([H])c(O[H])1)C([H])(O[H])C([H])([H])N([H])C(C([H])([H])[H])(C([H])([H])[H])C([H])([H])[H]
InChI: InChI=1S/C12H19NO3/c1-12(2,3)13-7-11(16)8-4-9(14)6-10(15)5-8/h4-6,11,13-16H,7H2,1-3H3
Instrument: Micromass Q-TOF II
Instrument type: LC-ESI-QTOF
Ms type: MS2
Ion mode: POSITIVE
Collision energy: 50 eV
Ionization: ESI
Precursor m/z: 226.14443
Precursor type: [M+H]+
m/z	relative intensity
51.023	20
53.0391	11
55.0178	26
57.0699	95
65.0374	29
67.0496	42
68.0484	12
68.9969	166
77.0386	999
78.0464	14
79.0546	244
80.049	12
81.0337	70
82.0425	56
89.0384	48
94.0409	10
95.0494	281
106.0636	18
107.0488	562
110.0362	337
117.0589	12
118.0634	25
123.0441	39
125.0589	25
133.0519	10
