Mass spectrum: Boldenone_Undecylenate; LC-ESI-QTOF; MS2; CE:40 eV; [M+H]+
Name: Boldenone_Undecylenate
Formula: C30H44O3
Exact mass: 452.32905
SMILES: [H]C(C(C([H])([H])[H])14)(C(C([H])(C([H])([H])C4([H])[H])2)([H])C(C([H])([H])C(=C([H])3)C2(C([H])([H])[H])C(=C(C(=O)3)[H])[H])([H])[H])C(C(C1(OC(C(C(C([H])([H])C([H])([H])C([H])([H])C(C(C(C([H])=C([H])[H])([H])[H])([H])[H])([H])[H])([H])[H])([H])[H])=O)[H])([H])[H])([H])[H]
InChI: InChI=1S/C30H44O3/c1-4-5-6-7-8-9-10-11-12-28(32)33-27-16-15-25-24-14-13-22-21-23(31)17-19-29(22,2)26(24)18-20-30(25,27)3/h4,17,19,21,24-27H,1,5-16,18,20H2,2-3H3/t24?,25-,26-,27-,29?,30?/m0/s1
Instrument: Micromass Q-TOF II
Instrument type: LC-ESI-QTOF
Ms type: MS2
Ion mode: POSITIVE
Collision energy: 40 eV
Ionization: ESI
Precursor m/z: 453.33699
Precursor type: [M+H]+
m/z	relative intensity
55.0542	76
67.0541	356
69.07	101
77.0386	25
79.0548	193
81.0703	407
83.086	109
85.0658	64
91.0553	69
93.0706	380
95.0861	72
97.065	17
97.1041	16
99.0817	22
105.0709	76
107.0862	346
109.1017	28
119.0856	48
121.0654	999
121.1095	34
133.0638	17
133.1008	38
135.0724	30
135.1171	589
145.068	34
145.1014	17
147.0795	89
147.0954	54
147.119	98
149.1332	104
158.0732	16
159.0809	49
161.091	17
161.117	16
161.1349	22
173.0969	148
187.1121	23
