Mass spectrum: Tetracaine; LC-ESI-QTOF; MS2; CE:50 eV; [M+H]+
Name: Tetracaine
Formula: C15H24N2O2
Exact mass: 264.18378
SMILES: [H]C([H])([H])C([H])([H])C([H])([H])C([H])([H])N([H])c(c([H])1)c([H])c([H])c(C(=O)OC([H])([H])C([H])([H])N(C([H])([H])[H])C([H])([H])[H])c([H])1
InChI: InChI=1S/C15H24N2O2/c1-4-5-10-16-14-8-6-13(7-9-14)15(18)19-12-11-17(2)3/h6-9,16H,4-5,10-12H2,1-3H3
Instrument: Micromass Q-TOF II
Instrument type: LC-ESI-QTOF
Ms type: MS2
Ion mode: POSITIVE
Collision energy: 50 eV
Ionization: ESI
Precursor m/z: 265.19172
Precursor type: [M+H]+
m/z	relative intensity
56.0497	22
57.0615	81
65.0383	714
66.0371	10
70.0651	168
72.0812	597
76.0321	27
77.0392	44
78.046	35
79.0527	81
91.0539	53
92.0502	999
93.0588	30
94.0662	13
95.0497	15
104.0502	139
105.0581	652
106.0663	97
110.0605	96
117.0596	14
118.0661	173
119.0749	28
120.045	280
132.0809	37
133.0852	19
137.0467	10
176.1083	92
