Mass spectrum: Bumetanide; LC-ESI-QTOF; MS2; CE:40 eV; [M+H]+
Name: Bumetanide
Formula: C17H20N2O5S
Exact mass: 364.10929
SMILES: [H]OC(=O)c(c([H])1)c([H])c(S(=O)(=O)N([H])[H])c(Oc(c([H])2)c([H])c([H])c([H])c([H])2)c(N([H])C([H])([H])C([H])([H])C([H])([H])C([H])([H])[H])1
InChI: InChI=1S/C17H20N2O5S/c1-2-3-9-19-14-10-12(17(20)21)11-15(25(18,22)23)16(14)24-13-7-5-4-6-8-13/h4-8,10-11,19H,2-3,9H2,1H3,(H,20,21)(H2,18,22,23)
Instrument: Micromass Q-TOF II
Instrument type: LC-ESI-QTOF
Ms type: MS2
Ion mode: POSITIVE
Collision energy: 40 eV
Ionization: ESI
Precursor m/z: 365.11723
Precursor type: [M+H]+
m/z	relative intensity
57.0695	23
91.0551	12
108.0452	19
115.0548	31
124.0404	17
128.0623	75
129.0706	139
139.0545	76
140.0523	11
141.0702	155
145.0656	21
152.0562	42
153.0699	66
154.066	41
155.059	54
156.0812	999
157.0675	13
164.0345	15
166.0656	126
167.0719	58
168.061	135
169.0668	96
170.0952	50
171.0804	13
180.0815	20
181.0654	34
182.0614	80
183.0682	448
184.0762	248
185.0649	20
194.0639	17
195.0684	152
196.0761	635
197.079	30
198.0905	15
200.0712	18
208.075	32
209.0844	29
210.0698	38
212.1431	23
224.0818	11
225.0547	24
227.0582	19
229.0293	16
238.1207	14
240.0652	259
242.0793	21
