Mass spectrum: Enalaprilat; LC-ESI-QTOF; MS2; CE:20 eV; [M+H]+
Name: Enalaprilat
Formula: C18H24N2O5
Exact mass: 348.16852
SMILES: [H]OC(=O)C([H])(N([H])C([H])(C([H])([H])[H])C(=O)N(C([H])([H])2)C([H])(C(=O)O[H])C([H])([H])C([H])([H])2)C([H])([H])C([H])([H])c(c([H])1)c([H])c([H])c([H])c([H])1
InChI: InChI=1S/C18H24N2O5/c1-12(16(21)20-11-5-8-15(20)18(24)25)19-14(17(22)23)10-9-13-6-3-2-4-7-13/h2-4,6-7,12,14-15,19H,5,8-11H2,1H3,(H,22,23)(H,24,25)/t12-,14+,15+/m0/s1
Instrument: Micromass Q-TOF II
Instrument type: LC-ESI-QTOF
Ms type: MS2
Ion mode: POSITIVE
Collision energy: 20 eV
Ionization: ESI
Precursor m/z: 349.17646
Precursor type: [M+H]+
m/z	relative intensity
102.0549	36
116.0705	40
117.0701	13
134.0964	13
160.1118	67
206.1157	999
303.1681	261
349.1754	102
