Mass spectrum: Nimesulide; LC-ESI-QTOF; MS2; CE:30 eV; [M+H]+
Name: Nimesulide
Formula: C13H12N2O5S
Exact mass: 308.04669
SMILES: CS(=O)(=O)NC1=C(C=C(C=C1)[N+](=O)[O-])OC2=CC=CC=C2
InChI: InChI=1S/C13H12N2O5S/c1-21(18,19)14-12-8-7-10(15(16)17)9-13(12)20-11-5-3-2-4-6-11/h2-9,14H,1H3
Instrument: Micromass Q-TOF II
Instrument type: LC-ESI-QTOF
Ms type: MS2
Ion mode: POSITIVE
Collision energy: 30 eV
Ionization: ESI
Precursor m/z: 309.05463
Precursor type: [M+H]+
m/z	relative intensity
65.0387	12
84.0815	21
117.0671	14
128.0588	24
129.0667	95
145.0616	16
154.0658	463
155.0702	155
156.0789	84
166.0654	33
167.0636	11
170.0578	12
172.0695	20
182.0606	122
183.0673	999
184.0759	178
198.0584	11
200.0709	89
213.0644	96
214.0751	99
230.0665	48
262.0486	16
280.0536	16
292.0482	102
