Mass spectrum: Prednisolone; LC-ESI-QTOF; MS2; CE:40 eV; [M+H]+
Name: Prednisolone
Formula: C21H28O5
Exact mass: 360.19367
SMILES: [H]OC([H])([H])C(=O)C(O[H])(C([H])([H])4)C(C([H])([H])[H])(C([H])([H])3)C([H])(C([H])([H])4)C([H])(C([H])([H])1)C([H])(C([H])(O[H])3)C(C([H])=2)(C([H])([H])[H])C(=C([H])C(=O)C([H])2)C([H])([H])1
InChI: InChI=1S/C21H28O5/c1-19-7-5-13(23)9-12(19)3-4-14-15-6-8-21(26,17(25)11-22)20(15,2)10-16(24)18(14)19/h5,7,9,14-16,18,22,24,26H,3-4,6,8,10-11H2,1-2H3
Instrument: Micromass Q-TOF II
Instrument type: LC-ESI-QTOF
Ms type: MS2
Ion mode: POSITIVE
Collision energy: 40 eV
Ionization: ESI
Precursor m/z: 361.20161
Precursor type: [M+H]+
m/z	relative intensity
55.0538	20
67.0542	50
69.033	21
69.0699	10
71.0491	12
77.0387	49
79.054	90
81.0703	68
83.05	11
91.0548	298
93.0699	129
95.0488	31
95.0866	60
97.0658	21
103.0541	36
105.0706	223
107.0469	32
107.086	118
109.0657	44
109.1018	31
111.0797	15
115.0547	74
116.0632	14
117.0704	133
119.0862	294
121.0651	831
123.0814	25
128.0625	119
129.0704	98
130.0773	49
131.0415	11
131.086	112
132.0568	101
133.0629	42
133.1028	62
135.0811	147
141.0694	63
142.0791	33
143.0858	118
144.0578	37
145.0668	227
145.1043	120
146.0744	47
147.081	999
149.0965	12
152.0614	13
153.0697	48
154.0794	18
155.0861	110
156.0921	15
157.0647	27
157.0811	23
157.1019	25
158.0733	267
159.0821	191
160.0891	19
161.0967	91
163.0784	24
165.0719	58
166.077	28
167.0853	43
168.0891	16
169.0776	66
170.0735	39
171.0817	662
172.0887	36
173.0972	378
175.1112	16
178.0787	48
179.0878	86
180.0956	36
181.0814	64
181.1049	26
182.0721	36
183.0831	58
184.0883	33
185.0971	80
187.1128	19
189.0736	20
190.0789	63
191.087	60
192.0925	41
193.1023	58
194.0816	47
195.0829	164
196.0893	104
197.0971	108
198.1064	34
199.1118	40
202.08	17
203.0851	32
204.0956	25
205.1011	64
206.1094	31
207.0948	66
208.0887	185
209.0971	202
210.1044	82
211.1125	102
212.119	20
213.1245	16
215.0871	26
216.0943	18
217.102	30
218.0902	20
219.0983	62
220.092	26
221.0987	112
222.1051	114
223.1118	182
224.1197	55
225.1272	34
226.1379	17
228.0913	11
229.1019	20
230.1109	11
231.0997	50
232.0891	33
233.101	69
234.1044	55
235.1128	66
236.1185	42
237.1279	79
238.1335	16
239.1427	30
241.1016	20
243.1217	12
244.0937	22
245.0987	55
246.1062	32
247.1116	54
248.1202	45
249.1454	89
250.1323	18
251.1434	278
258.0982	12
259.1111	82
260.1243	13
261.1286	30
262.1352	15
263.1381	14
264.1509	15
265.1591	59
266.1656	26
273.1294	27
274.1374	19
279.1473	13
