Mass spectrum: Amfenac; LC-ESI-QTOF; MS2; CE:50 eV; [M+H]+
Name: Amfenac
Formula: C15H13NO3
Exact mass: 255.08954
SMILES: [H]OC(=O)C([H])([H])c(c([H])2)c(N([H])[H])c(c([H])c([H])2)C(=O)c(c([H])1)c([H])c([H])c([H])c([H])1
InChI: InChI=1S/C15H13NO3/c16-14-11(9-13(17)18)7-4-8-12(14)15(19)10-5-2-1-3-6-10/h1-8H,9,16H2,(H,17,18)
Instrument: Micromass Q-TOF II
Instrument type: LC-ESI-QTOF
Ms type: MS2
Ion mode: POSITIVE
Collision energy: 50 eV
Ionization: ESI
Precursor m/z: 256.09748
Precursor type: [M+H]+
m/z	relative intensity
51.0235	19
68.0136	10
70.0642	16
77.039	999
78.0351	44
91.0546	20
92.0282	16
95.0498	216
96.0452	20
102.0346	16
104.0504	419
105.0343	183
115.055	94
116.0608	13
118.0651	18
120.045	22
127.0548	19
128.0616	50
129.0698	18
132.045	149
139.055	104
140.0581	77
141.0693	25
145.0659	23
150.0534	25
152.0624	94
153.0698	58
154.0714	24
155.0834	16
163.0555	21
164.063	82
165.0707	232
166.0656	269
167.0736	608
168.059	14
177.0566	20
179.0732	32
180.0813	308
181.0861	19
182.0864	12
190.0657	44
191.0751	19
192.0829	14
195.0679	123
208.0757	68
209.0825	22
