Mass spectrum: Terbutaline; LC-ESI-QTOF; MS2; CE:40 eV; [M+H]+
Name: Terbutaline
Formula: C12H19NO3
Exact mass: 225.13649
SMILES: [H]Oc(c([H])1)c([H])c(c([H])c(O[H])1)C([H])(O[H])C([H])([H])N([H])C(C([H])([H])[H])(C([H])([H])[H])C([H])([H])[H]
InChI: InChI=1S/C12H19NO3/c1-12(2,3)13-7-11(16)8-4-9(14)6-10(15)5-8/h4-6,11,13-16H,7H2,1-3H3
Instrument: Micromass Q-TOF II
Instrument type: LC-ESI-QTOF
Ms type: MS2
Ion mode: POSITIVE
Collision energy: 40 eV
Ionization: ESI
Precursor m/z: 226.14443
Precursor type: [M+H]+
m/z	relative intensity
57.0703	99
67.0505	22
68.9973	105
77.0391	316
79.0551	267
81.0348	17
82.0631	24
84.0812	24
89.0402	11
91.0547	12
95.05	103
97.0649	10
106.0662	16
107.0495	999
109.0556	10
110.0385	196
123.0442	35
125.0601	169
134.0596	18
135.0451	11
