Mass spectrum: Isoxsuprine; LC-ESI-QTOF; MS2; CE:50 eV; [M+H]+
Name: Isoxsuprine
Formula: C18H23NO3
Exact mass: 301.16779
SMILES: [H]Oc(c([H])2)c([H])c([H])c(c([H])2)C([H])(O[H])C([H])(C([H])([H])[H])N([H])C([H])(C([H])([H])[H])C([H])([H])Oc(c([H])1)c([H])c([H])c([H])c([H])1
InChI: InChI=1S/C18H23NO3/c1-13(12-22-17-6-4-3-5-7-17)19-14(2)18(21)15-8-10-16(20)11-9-15/h3-11,13-14,18-21H,12H2,1-2H3
Instrument: Micromass Q-TOF II
Instrument type: LC-ESI-QTOF
Ms type: MS2
Ion mode: POSITIVE
Collision energy: 50 eV
Ionization: ESI
Precursor m/z: 302.17573
Precursor type: [M+H]+
m/z	relative intensity
51.0232	10
55.0176	23
56.0488	12
57.0352	11
58.0651	37
65.0382	59
77.039	999
79.0548	638
80.059	12
81.0696	21
90.0479	13
91.0549	167
93.0712	19
94.0421	49
95.0495	385
103.0547	287
104.0604	11
105.0704	626
107.0497	969
108.0578	55
109.0648	50
115.0551	155
117.0628	24
118.0623	43
119.0511	14
120.0479	38
121.0656	46
131.0504	58
132.0612	34
133.0604	130
134.0618	44
135.0701	69
144.0615	14
145.0667	16
146.0594	46
148.0762	42
160.0766	27
