Mass spectrum: Sufentanil; LC-ESI-QTOF; MS2; CE:40 eV; [M+H]+
Name: Sufentanil
Formula: C22H30N2O2S
Exact mass: 386.20280
SMILES: [H]C([H])([H])OC([H])([H])C(N(C(=O)C([H])([H])C([H])([H])[H])c(c([H])3)c([H])c([H])c([H])c([H])3)(C([H])([H])1)C([H])([H])C([H])([H])N(C([H])([H])C([H])([H])c(s2)c([H])c([H])c([H])2)C([H])([H])1
InChI: InChI=1S/C22H30N2O2S/c1-3-21(25)24(19-8-5-4-6-9-19)22(18-26-2)12-15-23(16-13-22)14-11-20-10-7-17-27-20/h4-10,17H,3,11-16,18H2,1-2H3
Instrument: Micromass Q-TOF II
Instrument type: LC-ESI-QTOF
Ms type: MS2
Ion mode: POSITIVE
Collision energy: 40 eV
Ionization: ESI
Precursor m/z: 387.21074
Precursor type: [M+H]+
m/z	relative intensity
67.0537	59
69.0698	45
77.0388	42
79.055	11
81.0692	19
94.0654	43
95.0506	16
96.0813	41
97.0115	17
99.0811	50
108.0812	56
109.0886	12
110.0967	38
111.0268	999
126.0917	140
132.0812	140
140.0525	16
140.1073	139
150.0916	18
152.0524	19
160.1128	15
177.0618	12
206.0999	54
224.1102	51
238.126	57
