Mass spectrum: Remifentanil; LC-ESI-QTOF; MS2; CE:50 eV; [M+H]+
Name: Remifentanil
Formula: C20H28N2O5
Exact mass: 376.19982
SMILES: [H]C([H])([H])OC(=O)C([H])([H])C([H])([H])N(C([H])([H])1)C([H])([H])C([H])([H])C(C(=O)OC([H])([H])[H])(N(C(=O)C([H])([H])C([H])([H])[H])c(c([H])2)c([H])c([H])c([H])c([H])2)C([H])([H])1
InChI: InChI=1S/C20H28N2O5/c1-4-17(23)22(16-8-6-5-7-9-16)20(19(25)27-3)11-14-21(15-12-20)13-10-18(24)26-2/h5-9H,4,10-15H2,1-3H3
Instrument: Micromass Q-TOF II
Instrument type: LC-ESI-QTOF
Ms type: MS2
Ion mode: POSITIVE
Collision energy: 50 eV
Ionization: ESI
Precursor m/z: 377.20776
Precursor type: [M+H]+
m/z	relative intensity
53.0397	196
55.0544	28
57.034	37
59.0494	199
67.0531	11
71.0495	43
77.0394	18
81.0342	999
82.0287	12
83.0498	39
84.045	478
85.0659	91
87.0445	28
94.0658	74
96.0817	26
100.0759	10
104.0509	11
106.0656	21
110.0603	12
113.06	833
114.0563	10
116.0714	186
117.0584	27
118.066	91
122.0595	11
126.0909	12
130.0658	45
131.074	83
132.0814	55
136.076	33
142.0852	12
143.0751	19
144.0812	11
146.097	217
154.087	29
156.0974	12
158.097	59
168.1019	15
187.1218	14
202.1242	26
