Mass spectrum: Apramycin; LC-ESI-QTOF; MS2; CE:30 eV; [M+H]+
Name: Apramycin
Formula: C21H41N5O11
Exact mass: 539.28026
SMILES: [H]OC([H])([H])C([H])(O1)C([H])(N([H])[H])C([H])(O[H])C([H])(O[H])C([H])1OC([H])(O2)C([H])(N([H])C([H])([H])[H])C([H])(O[H])C([H])(O3)C([H])2C([H])([H])C([H])(N([H])[H])C([H])(OC([H])(C([H])(O[H])4)C([H])(N([H])[H])C([H])([H])C([H])(N([H])[H])C([H])(O[H])4)3
InChI: InChI=1S/C21H41N5O11/c1-26-11-14(30)18-8(33-20(11)37-21-16(32)13(29)10(25)9(4-27)34-21)3-7(24)19(36-18)35-17-6(23)2-5(22)12(28)15(17)31/h5-21,26-32H,2-4,22-25H2,1H3/t5-,6+,7-,8+,9-,10-,11+,12+,13+,14-,15-,16-,17-,18+,19?,20-,21-/m1/s1
Instrument: Micromass Q-TOF II
Instrument type: LC-ESI-QTOF
Ms type: MS2
Ion mode: POSITIVE
Collision energy: 30 eV
Ionization: ESI
Precursor m/z: 540.28820
Precursor type: [M+H]+
m/z	relative intensity
72.0446	17
84.0466	22
96.0464	49
98.0617	14
102.0557	15
110.0609	25
111.0444	27
122.0601	14
126.0563	39
128.0706	38
135.0937	14
136.0745	14
140.0703	13
142.0533	15
144.0661	38
145.0929	12
150.0533	10
153.1067	10
162.0758	119
163.1066	136
164.0715	17
168.0699	15
169.0959	13
180.0864	67
181.0975	51
182.0779	19
187.1098	20
199.1076	257
200.0921	70
201.1235	45
217.1185	999
230.1465	11
243.1317	16
253.1186	22
254.1391	10
255.1289	18
271.1281	107
277.1176	10
289.1423	33
290.1502	10
295.1242	31
308.1635	25
312.1506	24
313.1414	47
326.1725	47
330.1619	17
343.1964	23
344.1808	90
361.2032	20
362.1943	25
378.1878	66
