Mass spectrum: Antipyrine; LC-ESI-QTOF; MS2; CE:10 eV; [M+H]+
Name: Antipyrine
Formula: C11H12N2O
Exact mass: 188.09496
SMILES: [H]C([H])([H])C(=C([H])2)N(C([H])([H])[H])N(C(=O)2)c(c([H])1)c([H])c([H])c([H])c([H])1
InChI: InChI=1S/C11H12N2O/c1-9-8-11(14)13(12(9)2)10-6-4-3-5-7-10/h3-8H,1-2H3
Instrument: Micromass Q-TOF II
Instrument type: LC-ESI-QTOF
Ms type: MS2
Ion mode: POSITIVE
Collision energy: 10 eV
Ionization: ESI
Precursor m/z: 189.10290
Precursor type: [M+H]+
m/z	relative intensity
189.0986	999
