Mass spectrum: Hydroxybutorphanol; LC-ESI-QTOF; MS2; CE:50 eV; [M+H]+
Name: Hydroxybutorphanol
Formula: C21H29NO3
Exact mass: 343.21474
SMILES: [H]Oc(c([H])5)c([H])c(c(c([H])5)3)C(C([H])([H])4)(C([H])([H])1)C(O[H])(C([H])([H])C([H])([H])C([H])([H])4)C([H])(C([H])([H])3)N(C([H])([H])C([H])(C([H])([H])2)C([H])([H])C([H])(O[H])2)C([H])([H])1
InChI: InChI=1S/C21H29NO3/c23-16-4-3-15-11-19-21(25)6-2-1-5-20(21,18(15)12-16)7-8-22(19)13-14-9-17(24)10-14/h3-4,12,14,17,19,23-25H,1-2,5-11,13H2
Instrument: Micromass Q-TOF II
Instrument type: LC-ESI-QTOF
Ms type: MS2
Ion mode: POSITIVE
Collision energy: 50 eV
Ionization: ESI
Precursor m/z: 344.22268
Precursor type: [M+H]+
m/z	relative intensity
55.0546	22
56.0499	58
57.0692	17
58.065	13
65.0378	24
67.054	194
69.0701	14
70.0649	33
77.0413	14
79.0555	28
80.0502	11
81.0699	22
82.0657	21
83.0509	35
84.0803	12
91.0553	34
94.066	37
95.0842	11
96.0808	94
98.0962	77
103.0547	23
105.0698	37
107.0503	155
115.0541	37
117.0694	86
121.0642	64
127.0549	27
128.0628	63
129.0703	98
131.0493	461
132.0574	79
133.0656	114
134.0946	13
136.1111	12
140.1075	12
141.069	42
142.0767	25
143.0859	39
144.0574	106
145.0648	424
146.0641	16
147.0784	29
152.063	34
153.0682	38
154.0791	18
155.0862	33
156.0894	10
157.0656	999
157.1139	20
158.0737	54
159.0812	82
160.0757	182
165.0707	77
166.0785	25
167.0867	38
169.0706	29
169.1035	13
170.074	52
171.0818	219
172.0804	21
173.0939	63
174.0922	18
178.0821	10
179.086	36
181.0677	57
182.0722	30
183.0808	109
184.0869	82
185.0958	280
186.0936	38
187.1093	15
195.0828	26
196.088	28
197.0962	110
198.0989	44
199.1104	95
200.1048	23
211.1099	11
212.1074	30
213.1231	26
225.1217	10
226.1231	13
240.138	13
242.1551	23
282.1854	32
326.2084	13
