Mass spectrum: Streptomycin; LC-ESI-QTOF; MS2; CE:50 eV; [M+H]+
Name: Streptomycin
Formula: C21H39N7O12
Exact mass: 581.26567
SMILES: [H]N([H])C(N([H])[H])=NC([H])(C([H])(O[H])1)C([H])(O[H])C([H])(N=C(N([H])[H])N([H])[H])C([H])(OC([H])(O2)C([H])(OC([H])(O3)C([H])(N([H])C([H])([H])[H])C([H])(O[H])C([H])(O[H])C([H])(C([H])([H])O[H])3)C(O[H])(C([H])=O)C([H])(C([H])([H])[H])2)C([H])(O[H])1
InChI: InChI=1S/C21H39N7O12/c1-5-21(36,4-30)16(40-17-9(26-2)13(34)10(31)6(3-29)38-17)18(37-5)39-15-8(28-20(24)25)11(32)7(27-19(22)23)12(33)14(15)35/h4-18,26,29,31-36H,3H2,1-2H3,(H4,22,23,27)(H4,24,25,28)/t5-,6-,7+,8-,9-,10-,11+,12-,13-,14+,15+,16-,17-,18-,21+/m0/s1
Instrument: Micromass Q-TOF II
Instrument type: LC-ESI-QTOF
Ms type: MS2
Ion mode: POSITIVE
Collision energy: 50 eV
Ionization: ESI
Precursor m/z: 582.27361
Precursor type: [M+H]+
m/z	relative intensity
57.031	11
57.0447	13
57.0542	13
58.0695	41
60.0519	81
61.0371	18
69.0347	49
70.0678	100
71.0664	14
72.0442	39
73.0212	12
73.0436	17
73.0537	34
74.0593	290
80.0485	61
81.0328	66
82.0593	25
84.0482	68
84.0822	23
85.0369	143
86.0604	482
87.0414	14
94.0635	38
96.0661	17
97.0182	26
97.0387	54
97.0525	61
98.0568	221
99.0377	16
99.054	53
100.0762	67
101.0374	22
102.0598	25
103.0482	24
104.0623	18
108.0433	77
109.0241	42
109.0382	16
109.064	31
110.0587	175
111.0426	16
111.0537	23
112.0703	67
113.0288	17
114.0537	107
115.0551	39
122.0619	79
124.0672	27
125.0458	17
126.0598	215
127.0402	49
127.0742	10
128.0712	80
130.1006	25
132.0467	18
133.0623	18
134.0513	12
136.0715	18
138.0546	18
139.0623	42
140.0708	83
142.0814	17
143.0616	27
144.0682	196
146.0667	30
150.0641	22
151.0476	92
152.067	59
156.0635	27
158.0739	104
158.1068	13
160.0917	19
161.0893	33
164.0616	27
168.077	56
169.0607	17
170.0801	25
172.0898	20
172.1097	12
174.0732	40
175.0598	46
176.0886	259
179.0996	177
183.0845	17
185.0979	52
186.0842	263
187.0648	33
188.0854	32
191.0957	17
193.0515	18
194.0713	12
199.0901	43
200.0821	17
203.1099	159
204.0939	999
208.1019	14
210.0807	17
211.0743	33
212.096	17
217.0896	282
220.9279	17
221.121	748
226.0828	27
227.1274	27
229.0959	47
232.0825	17
245.1289	56
246.1165	944
247.0893	32
248.579	17
249.1058	25
262.0952	35
263.1392	317
270.1154	17
274.0977	17
279.1234	17
286.0907	18
288.1222	49
302.1381	10
303.1218	27
304.1121	17
346.1366	25
348.1422	34
365.1645	48
