Mass spectrum: Theobromine; LC-ESI-QTOF; MS2; CE:30 eV; [M+H]+
Name: Theobromine
Formula: C7H8N4O2
Exact mass: 180.06473
SMILES: [H]C([H])([H])N(C(=O)2)c(n1)c(C(=O)N([H])2)n(C([H])([H])[H])c([H])1
InChI: InChI=1S/C7H8N4O2/c1-10-3-8-5-4(10)6(12)9-7(13)11(5)2/h3H,1-2H3,(H,9,12,13)
Instrument: Micromass Q-TOF II
Instrument type: LC-ESI-QTOF
Ms type: MS2
Ion mode: POSITIVE
Collision energy: 30 eV
Ionization: ESI
Precursor m/z: 181.07267
Precursor type: [M+H]+
m/z	relative intensity
54.0298	16
56.049	45
57.0449	10
67.0282	999
68.0364	93
69.0439	426
70.0294	16
79.0293	56
81.0432	103
82.0513	19
83.0604	316
85.0407	27
93.0401	37
94.0398	101
95.021	19
95.0482	116
96.0563	92
97.039	11
107.0326	33
108.0554	556
109.039	45
110.0713	316
111.0547	16
113.0344	60
120.0487	32
121.0555	14
122.0589	700
123.0424	185
135.066	145
137.0823	89
138.0668	188
141.0509	12
148.039	77
163.0611	197
181.0719	101
