Mass spectrum: Nimesulide; LC-ESI-QTOF; MS2; CE:50 eV; [M+H]+
Name: Nimesulide
Formula: C13H12N2O5S
Exact mass: 308.04669
SMILES: CS(=O)(=O)NC1=C(C=C(C=C1)[N+](=O)[O-])OC2=CC=CC=C2
InChI: InChI=1S/C13H12N2O5S/c1-21(18,19)14-12-8-7-10(15(16)17)9-13(12)20-11-5-3-2-4-6-11/h2-9,14H,1H3
Instrument: Micromass Q-TOF II
Instrument type: LC-ESI-QTOF
Ms type: MS2
Ion mode: POSITIVE
Collision energy: 50 eV
Ionization: ESI
Precursor m/z: 309.05463
Precursor type: [M+H]+
m/z	relative intensity
77.0388	32
78.0414	51
91.0531	22
95.0527	13
102.049	17
104.0506	28
115.0533	55
127.0541	59
128.0577	201
129.0617	89
130.0668	11
139.0595	23
143.0715	12
145.0634	118
146.0611	48
154.0653	999
155.0561	39
156.0782	22
156.0912	13
166.0607	15
167.0716	16
170.054	14
182.0619	85
183.0691	36
