Mass spectrum: Salmeterol; LC-ESI-QTOF; MS2; CE:40 eV; [M+H]+
Name: Salmeterol
Formula: C25H37NO4
Exact mass: 415.27226
SMILES: [H]OC([H])([H])c(c(O[H])2)c([H])c(c([H])c([H])2)C([H])(O[H])C([H])([H])N([H])C([H])([H])C([H])([H])C([H])([H])C([H])([H])C([H])([H])C([H])([H])OC([H])([H])C([H])([H])C([H])([H])C([H])([H])c(c([H])1)c([H])c([H])c([H])c([H])1
InChI: InChI=1S/C25H37NO4/c27-20-23-18-22(13-14-24(23)28)25(29)19-26-15-7-1-2-8-16-30-17-9-6-12-21-10-4-3-5-11-21/h3-5,10-11,13-14,18,25-29H,1-2,6-9,12,15-17,19-20H2
Instrument: Micromass Q-TOF II
Instrument type: LC-ESI-QTOF
Ms type: MS2
Ion mode: POSITIVE
Collision energy: 40 eV
Ionization: ESI
Precursor m/z: 416.28020
Precursor type: [M+H]+
m/z	relative intensity
55.0538	90
79.0544	23
81.0703	31
83.086	30
91.0544	999
93.0708	12
98.0966	37
103.0536	19
105.0705	141
107.0858	20
110.0966	21
115.054	12
117.068	34
119.0477	18
119.0761	12
120.0814	28
121.0648	122
129.0698	13
130.0672	40
131.0496	20
131.0851	49
132.081	19
133.0641	312
135.0803	192
145.0643	21
145.1007	39
146.0614	26
147.0697	83
148.0758	171
149.0834	53
150.0909	43
151.0748	22
159.0796	20
160.0759	59
161.0894	12
162.0916	53
171.0765	11
173.09	12
230.1535	142
232.1716	37
248.1634	15
