Mass spectrum: Thiethylperazine; LC-ESI-QTOF; MS2; CE:50 eV; [M+H]+
Name: Thiethylperazine
Formula: C22H29N3S2
Exact mass: 399.18029
SMILES: [H]C([H])([H])C([H])([H])Sc(c([H])4)c([H])c(c2c([H])4)N(c(c([H])3)c(c([H])c([H])c([H])3)S2)C([H])([H])C([H])([H])C([H])([H])N(C([H])([H])1)C([H])([H])C([H])([H])N(C([H])([H])[H])C([H])([H])1
InChI: InChI=1S/C22H29N3S2/c1-3-26-18-9-10-22-20(17-18)25(19-7-4-5-8-21(19)27-22)12-6-11-24-15-13-23(2)14-16-24/h4-5,7-10,17H,3,6,11-16H2,1-2H3
Instrument: Micromass Q-TOF II
Instrument type: LC-ESI-QTOF
Ms type: MS2
Ion mode: POSITIVE
Collision energy: 50 eV
Ionization: ESI
Precursor m/z: 400.18823
Precursor type: [M+H]+
m/z	relative intensity
70.065	999
84.0814	14
98.0857	141
113.1082	420
141.1391	65
167.0742	39
179.0742	87
186.0392	22
198.0395	32
199.0468	37
204.0826	11
205.089	13
206.0977	41
207.1061	11
210.0386	40
211.0465	229
212.054	70
223.0463	11
224.0533	35
230.0109	59
238.0695	56
239.0783	42
240.0853	125
242.0119	18
243.0189	57
244.0275	19
259.0501	11
