Mass spectrum: Hydroxyphenethylamine; LC-ESI-QTOF; MS2; CE:10 eV; [M+H]+
Name: Hydroxyphenethylamine
Formula: C8H11NO
Exact mass: 137.08406
SMILES: [H]Oc(c([H])1)c([H])c([H])c(c([H])1)C([H])([H])C([H])([H])N([H])[H]
InChI: InChI=1S/C8H11NO/c9-6-5-7-1-3-8(10)4-2-7/h1-4,10H,5-6,9H2
Instrument: Micromass Q-TOF II
Instrument type: LC-ESI-QTOF
Ms type: MS2
Ion mode: POSITIVE
Collision energy: 10 eV
Ionization: ESI
Precursor m/z: 138.09200
Precursor type: [M+H]+
m/z	relative intensity
121.0662	999
138.0933	68
