Mass spectrum: Acetophenazine; LC-ESI-QTOF; MS2; CE:40 eV; [M+H]+
Name: Acetophenazine
Formula: C23H29N3O2S
Exact mass: 411.19805
SMILES: [H]OC([H])([H])C([H])([H])N(C([H])([H])4)C([H])([H])C([H])([H])N(C([H])([H])4)C([H])([H])C([H])([H])C([H])([H])N(c32)c(c([H])1)c(Sc(c([H])c([H])c([H])c([H])3)2)c([H])c(C(=O)C([H])([H])[H])c([H])1
InChI: InChI=1S/C23H29N3O2S/c1-18(28)19-7-8-21-23(17-19)29-22-6-3-2-5-20(22)26(21)10-4-9-24-11-13-25(14-12-24)15-16-27/h2-3,5-8,17,27H,4,9-16H2,1H3
Instrument: Micromass Q-TOF II
Instrument type: LC-ESI-QTOF
Ms type: MS2
Ion mode: POSITIVE
Collision energy: 40 eV
Ionization: ESI
Precursor m/z: 412.20599
Precursor type: [M+H]+
m/z	relative intensity
56.0501	23
58.0654	17
70.0656	517
72.0442	11
82.066	14
84.0811	59
86.0605	13
86.0977	23
97.077	54
98.086	517
99.0951	16
100.0766	717
112.0997	22
113.1078	84
125.1083	14
126.1158	16
128.0951	86
141.1386	42
143.1185	999
171.15	279
180.083	12
206.0947	49
207.1055	16
211.0463	26
212.0536	86
222.0916	382
226.032	11
236.0535	52
238.0701	22
239.0764	134
240.0812	30
241.0558	36
254.0636	323
