Mass spectrum: Theobromine; LC-ESI-QTOF; MS2; CE:50 eV; [M+H]+
Name: Theobromine
Formula: C7H8N4O2
Exact mass: 180.06473
SMILES: [H]C([H])([H])N(C(=O)2)c(n1)c(C(=O)N([H])2)n(C([H])([H])[H])c([H])1
InChI: InChI=1S/C7H8N4O2/c1-10-3-8-5-4(10)6(12)9-7(13)11(5)2/h3H,1-2H3,(H,9,12,13)
Instrument: Micromass Q-TOF II
Instrument type: LC-ESI-QTOF
Ms type: MS2
Ion mode: POSITIVE
Collision energy: 50 eV
Ionization: ESI
Precursor m/z: 181.07267
Precursor type: [M+H]+
m/z	relative intensity
53.0143	31
54.0268	46
55.0372	14
56.0483	68
65.0166	11
66.0201	178
67.0282	999
68.0362	450
69.007	14
69.0451	240
69.992	31
70.0283	11
79.0258	77
80.0272	22
81.0425	83
82.0541	25
83.024	10
83.0611	42
92.0228	22
93.0056	12
93.03	63
94.0419	170
95.0461	66
107.0339	43
108.0567	27
120.0429	15
121.0477	15
122.0604	82
123.0438	48
148.0348	11
