Mass spectrum: Prazosin; LC-ESI-QTOF; MS2; CE:30 eV; [M+H]+
Name: Prazosin
Formula: C19H21N5O4
Exact mass: 383.15935
SMILES: [H]C([H])([H])Oc(c([H])1)c(OC([H])([H])[H])c([H])c(c(N([H])[H])4)c(nc(n4)N(C([H])([H])2)C([H])([H])C([H])([H])N(C(=O)c(o3)c([H])c([H])c([H])3)C([H])([H])2)1
InChI: InChI=1S/C19H21N5O4/c1-26-15-10-12-13(11-16(15)27-2)21-19(22-17(12)20)24-7-5-23(6-8-24)18(25)14-4-3-9-28-14/h3-4,9-11H,5-8H2,1-2H3,(H2,20,21,22)
Instrument: Micromass Q-TOF II
Instrument type: LC-ESI-QTOF
Ms type: MS2
Ion mode: POSITIVE
Collision energy: 30 eV
Ionization: ESI
Precursor m/z: 384.16729
Precursor type: [M+H]+
m/z	relative intensity
95.0132	224
120.0454	35
138.055	302
164.0703	130
203.0932	26
204.076	17
205.0779	17
220.0952	25
221.1039	54
222.0871	21
231.0863	124
232.0945	113
233.1021	35
245.1021	36
247.1172	999
248.1028	13
257.1025	14
273.1312	33
274.1272	22
288.1427	58
300.1039	11
315.1068	32
316.1394	52
322.1261	11
325.0926	15
338.16	12
340.137	29
341.1231	103
350.1238	62
351.1324	17
366.1559	227
368.1362	177
369.1426	57
384.1658	849
