Mass spectrum: Fenoterol; LC-ESI-QTOF; MS2; CE:50 eV; [M+H]+
Name: Fenoterol
Formula: C17H21NO4
Exact mass: 303.14706
SMILES: [H]Oc(c([H])2)c([H])c([H])c(c([H])2)C([H])([H])C([H])(C([H])([H])[H])N([H])C([H])([H])C([H])(O[H])c(c([H])1)c([H])c(O[H])c([H])c(O[H])1
InChI: InChI=1S/C17H21NO4/c1-11(6-12-2-4-14(19)5-3-12)18-10-17(22)13-7-15(20)9-16(21)8-13/h2-5,7-9,11,17-22H,6,10H2,1H3
Instrument: Micromass Q-TOF II
Instrument type: LC-ESI-QTOF
Ms type: MS2
Ion mode: POSITIVE
Collision energy: 50 eV
Ionization: ESI
Precursor m/z: 304.15500
Precursor type: [M+H]+
m/z	relative intensity
77.0391	160
79.0549	117
91.055	17
95.0494	57
107.0496	999
115.0545	15
120.0565	14
125.0604	11
