Mass spectrum: Anileridine; LC-ESI-QTOF; MS2; CE:30 eV; [M+H]+
Name: Anileridine
Formula: C22H28N2O2
Exact mass: 352.21508
SMILES: [H]N([H])c(c([H])3)c([H])c([H])c(c([H])3)C([H])([H])C([H])([H])N(C([H])([H])1)C([H])([H])C([H])([H])C(C(=O)OC([H])([H])C([H])([H])[H])(c(c([H])2)c([H])c([H])c([H])c([H])2)C([H])([H])1
InChI: InChI=1S/C22H28N2O2/c1-2-26-21(25)22(19-6-4-3-5-7-19)13-16-24(17-14-22)15-12-18-8-10-20(23)11-9-18/h3-11H,2,12-17,23H2,1H3
Instrument: Micromass Q-TOF II
Instrument type: LC-ESI-QTOF
Ms type: MS2
Ion mode: POSITIVE
Collision energy: 30 eV
Ionization: ESI
Precursor m/z: 353.22302
Precursor type: [M+H]+
m/z	relative intensity
93.0679	13
103.0547	25
118.0655	10
120.0805	999
353.2225	14
