Mass spectrum: Testosterone_Propionate; LC-ESI-QTOF; MS2; CE:20 eV; [M+H]+
Name: Testosterone_Propionate
Formula: C22H32O3
Exact mass: 344.23514
SMILES: [H]C([H])([H])C([H])([H])C(=O)OC([H])(C([H])([H])4)C(C([H])([H])[H])(C([H])([H])3)C([H])(C([H])([H])4)C([H])(C([H])([H])1)C([H])(C([H])([H])3)C(C([H])([H])[H])(C([H])([H])2)C(=C([H])C(=O)C([H])([H])2)C([H])([H])1
InChI: InChI=1S/C22H32O3/c1-4-20(24)25-19-8-7-17-16-6-5-14-13-15(23)9-11-21(14,2)18(16)10-12-22(17,19)3/h13,16-19H,4-12H2,1-3H3/t16?,17?,18?,19-,21-,22-/m0/s1
Instrument: Micromass Q-TOF II
Instrument type: LC-ESI-QTOF
Ms type: MS2
Ion mode: POSITIVE
Collision energy: 20 eV
Ionization: ESI
Precursor m/z: 345.24308
Precursor type: [M+H]+
m/z	relative intensity
57.0335	61
81.07	23
83.0494	29
93.0707	17
95.086	35
97.0652	707
105.07	15
107.0858	22
109.0654	493
119.0857	16
121.0618	13
121.1008	40
123.0813	51
131.0857	14
133.1006	21
135.1162	24
143.0855	16
145.1015	44
147.1159	45
149.132	27
157.1014	29
159.1169	44
161.1319	43
163.1065	15
163.1448	53
171.1169	55
173.1322	42
175.1481	161
177.1285	32
183.1186	19
185.1324	25
187.1484	44
189.1618	71
197.1329	43
199.1466	12
201.1607	27
211.1489	34
213.164	33
215.1444	14
225.1628	26
227.1787	15
229.1833	15
243.2052	18
253.1946	383
255.1725	23
271.2048	449
289.2154	222
345.2424	999
