Mass spectrum: Prednisone; LC-ESI-QTOF; MS2; CE:10 eV; [M+H]+
Name: Prednisone
Formula: C21H26O5
Exact mass: 358.17802
SMILES: [H]OC([H])([H])C(=O)C(O[H])(C([H])([H])4)C(C([H])([H])[H])(C([H])([H])3)C([H])(C([H])([H])4)C([H])(C([H])([H])1)C([H])(C(=O)3)C(C([H])([H])[H])(C([H])=2)C(=C([H])C(=O)C([H])2)C([H])([H])1
InChI: InChI=1S/C21H26O5/c1-19-7-5-13(23)9-12(19)3-4-14-15-6-8-21(26,17(25)11-22)20(15,2)10-16(24)18(14)19/h5,7,9,14-15,18,22,26H,3-4,6,8,10-11H2,1-2H3
Instrument: Micromass Q-TOF II
Instrument type: LC-ESI-QTOF
Ms type: MS2
Ion mode: POSITIVE
Collision energy: 10 eV
Ionization: ESI
Precursor m/z: 359.18596
Precursor type: [M+H]+
m/z	relative intensity
147.081	15
237.1268	15
265.1602	19
267.1401	26
277.1585	11
283.169	12
295.17	38
305.1544	31
313.1812	78
323.1658	65
341.1768	214
359.1874	999
