Mass spectrum: Etamiphylline; LC-ESI-QTOF; MS2; CE:30 eV; [M+H]+
Name: Etamiphylline
Formula: C13H21N5O2
Exact mass: 279.16952
SMILES: [H]C([H])([H])C([H])([H])N(C([H])([H])C([H])([H])[H])C([H])([H])C([H])([H])n(c([H])2)c(C(=O)1)c(n2)N(C([H])([H])[H])C(=O)N(C([H])([H])[H])1
InChI: InChI=1S/C13H21N5O2/c1-5-17(6-2)7-8-18-9-14-11-10(18)12(19)16(4)13(20)15(11)3/h9H,5-8H2,1-4H3
Instrument: Micromass Q-TOF II
Instrument type: LC-ESI-QTOF
Ms type: MS2
Ion mode: POSITIVE
Collision energy: 30 eV
Ionization: ESI
Precursor m/z: 280.17746
Precursor type: [M+H]+
m/z	relative intensity
69.0443	18
72.0802	20
86.0966	120
95.0607	53
100.1123	68
107.0601	14
108.056	19
110.0715	26
120.056	10
122.0712	111
123.0559	31
134.0713	66
136.0868	62
148.0749	18
150.0663	100
152.0456	16
163.0979	157
192.0646	15
207.0856	999
