Mass spectrum: Tetramisole; LC-ESI-QTOF; MS2; CE:50 eV; [M+H]+
Name: Tetramisole
Formula: C11H12N2S
Exact mass: 204.07212
SMILES: [H]c(c([H])3)c([H])c([H])c(c([H])3)C([H])(N=2)C([H])([H])N(C12)C([H])([H])C([H])([H])S1
InChI: InChI=1S/C11H12N2S/c1-2-4-9(5-3-1)10-8-13-6-7-14-11(13)12-10/h1-5,10H,6-8H2
Instrument: Micromass Q-TOF II
Instrument type: LC-ESI-QTOF
Ms type: MS2
Ion mode: POSITIVE
Collision energy: 50 eV
Ionization: ESI
Precursor m/z: 205.08006
Precursor type: [M+H]+
m/z	relative intensity
51.0234	11
59.9928	16
65.0383	190
77.0392	303
78.0468	62
79.0547	52
89.0395	45
90.0471	62
91.0548	999
95.0497	107
102.0473	38
103.0548	203
104.0612	37
105.0711	30
115.0551	105
116.0551	12
117.0592	127
118.0656	32
123.0272	31
127.0542	30
128.062	179
130.0658	209
131.0738	11
144.0818	13
145.0651	28
