Mass spectrum: Oxybutynine; LC-ESI-QTOF; MS2; CE:30 eV; [M+H]+
Name: Oxybutynine
Formula: C22H31NO3
Exact mass: 357.23039
SMILES: [H]C([H])([H])C([H])([H])N(C([H])([H])C#CC([H])([H])OC(=O)C(O[H])(c(c([H])2)c([H])c([H])c([H])c([H])2)C([H])(C([H])([H])1)C([H])([H])C([H])([H])C([H])([H])C([H])([H])1)C([H])([H])C([H])([H])[H]
InChI: InChI=1S/C22H31NO3/c1-3-23(4-2)17-11-12-18-26-21(24)22(25,19-13-7-5-8-14-19)20-15-9-6-10-16-20/h5,7-8,13-14,20,25H,3-4,6,9-10,15-18H2,1-2H3
Instrument: Micromass Q-TOF II
Instrument type: LC-ESI-QTOF
Ms type: MS2
Ion mode: POSITIVE
Collision energy: 30 eV
Ionization: ESI
Precursor m/z: 358.23833
Precursor type: [M+H]+
m/z	relative intensity
54.0339	99
55.0544	42
56.0499	47
58.0648	95
67.0532	33
68.0491	122
69.0337	141
69.0697	28
70.0653	32
71.0493	10
72.0808	561
73.0885	106
77.0389	27
79.0548	126
80.0501	33
81.0651	100
82.0659	135
83.0856	47
84.0812	30
86.0968	29
91.0549	120
94.0656	154
95.0745	67
96.0812	157
97.0289	388
105.0338	482
105.0715	19
107.0495	261
108.0812	75
109.0886	73
113.0252	10
117.0695	17
121.0633	11
122.0969	51
124.1123	174
125.1204	25
128.0621	15
129.07	158
141.071	12
142.1227	999
143.0848	38
157.0646	28
171.117	139
173.0587	18
181.0999	16
183.1022	13
185.0591	16
187.0748	16
189.1272	230
199.1113	73
203.0704	13
340.2301	16
358.2371	51
