Mass spectrum: Poldine; LC-ESI-QTOF; MS2; CE:30 eV; [M+H]+
Name: Poldine
Formula: [C21H26NO3]+
Exact mass: 340.19127
SMILES: C[N+]1(CCCC1COC(=O)C(C2=CC=CC=C2)(C3=CC=CC=C3)O)C
InChI: InChI=1S/C21H26NO3/c1-22(2)15-9-14-19(22)16-25-20(23)21(24,17-10-5-3-6-11-17)18-12-7-4-8-13-18/h3-8,10-13,19,24H,9,14-16H2,1-2H3/q+1
Instrument: Micromass Q-TOF II
Instrument type: LC-ESI-QTOF
Ms type: MS2
Ion mode: POSITIVE
Collision energy: 30 eV
Ionization: ESI
Precursor m/z: 341.19921
Precursor type: [M+H]+
m/z	relative intensity
58.0656	60
59.0681	11
67.0545	15
85.0653	38
86.0691	14
105.0343	48
106.0382	25
112.1126	34
113.1173	21
130.1232	999
131.1266	536
168.0901	10
183.081	21
184.0846	33
341.1943	88
