Mass spectrum: Dihydroergotamine; LC-ESI-QTOF; MS2; CE:50 eV; [M+H]+
Name: Dihydroergotamine
Formula: C33H37N5O5
Exact mass: 583.27947
SMILES: [H]C(N13)(C(O4)(N(C(C(N([H])C(=O)C([H])(C([H])([H])5)C(N(C([H])(C8([H])[H])C5([H])c(c([H])7)c(c86)c(c([H])c7[H])n([H])c([H])6)C([H])([H])[H])([H])[H])4C([H])([H])[H])=O)C(C3=O)([H])C([H])([H])c(c2[H])c(c(c(c([H])2)[H])[H])[H])O[H])C([H])([H])C([H])([H])C1([H])[H]
InChI: InChI=1S/C33H37N5O5/c1-32(35-29(39)21-15-23-22-10-6-11-24-28(22)20(17-34-24)16-25(23)36(2)18-21)31(41)38-26(14-19-8-4-3-5-9-19)30(40)37-13-7-12-27(37)33(38,42)43-32/h3-6,8-11,17,21,23,25-27,34,42H,7,12-16,18H2,1-2H3,(H,35,39)
Instrument: Micromass Q-TOF II
Instrument type: LC-ESI-QTOF
Ms type: MS2
Ion mode: POSITIVE
Collision energy: 50 eV
Ionization: ESI
Precursor m/z: 584.28741
Precursor type: [M+H]+
m/z	relative intensity
70.0634	14
127.0859	14
130.064	21
144.0803	33
151.049	16
154.0666	94
155.0728	39
156.0814	24
165.07	17
167.0762	56
168.0811	587
169.0899	23
170.0956	30
180.0813	82
181.0722	23
182.0967	132
183.0942	20
184.104	37
192.0813	41
194.0971	311
195.1047	194
196.1094	94
197.1084	154
206.0704	41
207.0888	38
208.0788	69
209.1055	44
210.0927	651
211.1211	14
212.1033	12
220.1002	14
221.107	21
222.1041	108
223.1233	63
224.1283	23
225.139	501
226.147	20
227.1191	31
235.1256	26
238.1103	95
241.1362	18
253.1343	437
270.1606	999
271.1409	22
294.1606	137
297.123	20
