Mass spectrum: Bumetanide; LC-ESI-QTOF; MS2; CE:30 eV; [M+H]+
Name: Bumetanide
Formula: C17H20N2O5S
Exact mass: 364.10929
SMILES: [H]OC(=O)c(c([H])1)c([H])c(S(=O)(=O)N([H])[H])c(Oc(c([H])2)c([H])c([H])c([H])c([H])2)c(N([H])C([H])([H])C([H])([H])C([H])([H])C([H])([H])[H])1
InChI: InChI=1S/C17H20N2O5S/c1-2-3-9-19-14-10-12(17(20)21)11-15(25(18,22)23)16(14)24-13-7-5-4-6-8-13/h4-8,10-11,19H,2-3,9H2,1H3,(H,20,21)(H2,18,22,23)
Instrument: Micromass Q-TOF II
Instrument type: LC-ESI-QTOF
Ms type: MS2
Ion mode: POSITIVE
Collision energy: 30 eV
Ionization: ESI
Precursor m/z: 365.11723
Precursor type: [M+H]+
m/z	relative intensity
57.0696	33
108.0448	59
128.0622	14
129.0703	60
139.0538	11
141.0698	101
152.035	67
153.07	51
155.072	12
156.0811	747
157.0668	12
166.0651	81
167.0741	23
168.0656	47
169.0656	129
170.0962	91
171.0802	34
180.0824	23
181.0652	49
182.0605	60
183.068	425
184.0755	999
185.0754	25
195.0683	96
196.0758	581
197.0788	45
198.0917	91
200.0718	15
208.0805	13
209.0835	30
210.0543	46
210.0914	21
212.1438	263
224.0698	16
224.1064	10
225.0548	38
227.0572	28
229.0262	12
229.0719	26
238.1225	140
239.1289	18
240.0651	260
240.1382	184
242.0807	190
248.1063	11
256.1315	52
266.1169	87
283.1187	14
284.1277	21
