Mass spectrum: Prednisolone_Tebutate; LC-ESI-QTOF; MS2; CE:50 eV; [M+H]+
Name: Prednisolone_Tebutate
Formula: C27H38O6
Exact mass: 458.26684
SMILES: [H]C([H])(C(C([H])([H])[H])(C([H])([H])[H])C([H])([H])[H])C(OC([H])([H])C(=O)C(O[H])(C4([H])[H])C(C([H])([H])[H])(C3([H])[H])C(C([H])([H])4)([H])C([H])(C([H])(C3([H])O[H])1)C(C(C(=C([H])2)C1(C([H])=C(C2=O)[H])C([H])([H])[H])([H])[H])([H])[H])=O
InChI: InChI=1S/C27H38O6/c1-24(2,3)14-22(31)33-15-21(30)27(32)11-9-19-18-7-6-16-12-17(28)8-10-25(16,4)23(18)20(29)13-26(19,27)5/h8,10,12,18-20,23,29,32H,6-7,9,11,13-15H2,1-5H3
Instrument: Micromass Q-TOF II
Instrument type: LC-ESI-QTOF
Ms type: MS2
Ion mode: POSITIVE
Collision energy: 50 eV
Ionization: ESI
Precursor m/z: 459.27478
Precursor type: [M+H]+
m/z	relative intensity
55.0563	20
56.8782	17
57.0706	999
67.0543	13
69.0364	13
69.0703	12
71.0866	436
77.0382	20
79.0549	39
81.0694	16
91.0566	101
93.0702	43
95.0459	16
95.0883	30
99.0842	240
103.0577	20
105.0726	147
107.0537	17
107.0905	25
109.062	18
115.057	19
117.0722	59
119.0874	190
121.0671	369
123.0836	11
128.0668	38
129.074	65
130.0816	12
131.0881	37
132.0566	61
133.0637	23
133.1022	24
135.0829	90
141.0727	30
142.0812	28
143.0863	34
144.0532	11
145.067	100
145.1031	96
146.0711	27
147.0822	657
153.0732	13
155.086	84
156.0929	15
157.0698	19
157.0852	14
157.1006	12
158.0753	58
159.0834	64
160.0872	12
161.0979	61
163.0778	12
165.0782	42
166.0767	19
167.0813	32
168.0851	16
169.0646	19
169.1054	25
170.0739	19
171.0821	248
173.0977	178
178.0765	31
179.0886	67
180.0904	28
181.0625	15
181.1056	31
182.0795	33
183.0766	53
184.0884	19
185.0982	54
187.0849	16
189.0678	13
190.0789	29
191.083	26
193.1059	26
194.0779	45
195.0825	106
196.0873	66
196.1272	22
197.0971	81
198.1029	16
199.1147	27
203.0904	13
204.0925	23
205.1052	42
206.1118	43
207.0906	17
207.1109	38
208.092	99
209.098	142
210.1078	66
211.1198	78
213.0849	12
213.1345	16
217.1092	12
219.0771	17
219.1162	27
221.1047	49
221.1293	16
222.1086	136
223.1152	136
224.1225	96
225.0968	15
225.1235	16
226.1297	16
229.0933	18
231.0767	19
231.1255	11
232.1197	12
233.1024	52
234.1025	54
235.1122	61
236.11	12
237.1311	70
239.1402	67
241.1134	11
245.0966	45
247.1136	50
248.1196	23
249.1317	49
249.1584	12
251.1426	101
256.1235	16
258.1216	23
259.1106	50
260.1145	12
261.1228	17
262.1204	12
265.1581	49
266.1747	16
273.136	32
274.1486	20
