Mass spectrum: Terfenadine; LC-ESI-QTOF; MS2; CE:40 eV; [M+H]+
Name: Terfenadine
Formula: C32H41NO2
Exact mass: 471.31373
SMILES: [H]C([H])(N(C(C([H])([H])C([H])([H])C([H])(O[H])c(c([H])4)c([H])c([H])c(C(C([H])([H])[H])(C([H])([H])[H])C([H])([H])[H])c4[H])([H])[H])1)C([H])([H])C(C(O[H])(c(c([H])3)c([H])c([H])c([H])c([H])3)c(c([H])2)c([H])c([H])c([H])c([H])2)(C([H])([H])C([H])([H])1)[H]
InChI: InChI=1S/C32H41NO2/c1-31(2,3)26-18-16-25(17-19-26)30(34)15-10-22-33-23-20-29(21-24-33)32(35,27-11-6-4-7-12-27)28-13-8-5-9-14-28/h4-9,11-14,16-19,29-30,34-35H,10,15,20-24H2,1-3H3
Instrument: Micromass Q-TOF II
Instrument type: LC-ESI-QTOF
Ms type: MS2
Ion mode: POSITIVE
Collision energy: 40 eV
Ionization: ESI
Precursor m/z: 472.32167
Precursor type: [M+H]+
m/z	relative intensity
57.0699	478
68.0491	11
69.0574	22
80.0495	13
82.0661	46
83.0743	20
91.055	128
96.0801	42
98.0961	24
105.0713	30
111.1051	35
117.0705	39
120.0806	12
122.0974	29
124.1118	67
128.062	16
129.07	187
131.0858	168
132.0845	18
141.0697	15
143.0856	45
147.1173	131
155.0871	18
161.0965	65
167.0859	37
170.0954	16
171.1044	13
172.1151	14
178.0785	11
181.0996	12
187.1484	29
191.0857	18
203.1439	110
204.0928	16
205.102	35
216.0927	25
216.1725	14
218.1086	14
219.1142	34
228.1745	16
230.1898	59
231.1178	23
242.1867	18
248.1425	14
250.1587	30
260.1417	14
262.1584	280
268.2056	131
270.2177	15
280.1656	18
288.1733	80
420.2713	11
436.3007	999
454.3104	146
