Mass spectrum: Methylergonovine; LC-ESI-QTOF; MS2; CE:40 eV; [M+H]+
Name: Methylergonovine
Formula: C20H25N3O2
Exact mass: 339.19468
SMILES: [H]OC([H])([H])C([H])(C([H])([H])C([H])([H])[H])N([H])C(=O)C([H])(C([H])=1)C([H])([H])N(C([H])([H])[H])C([H])(C([H])([H])2)C1c(c([H])4)c(c(c([H])c([H])4)3)c(c([H])n([H])3)2
InChI: InChI=1S/C20H25N3O2/c1-3-14(11-24)22-20(25)13-7-16-15-5-4-6-17-19(15)12(9-21-17)8-18(16)23(2)10-13/h4-7,9,13-14,18,21,24H,3,8,10-11H2,1-2H3,(H,22,25)
Instrument: Micromass Q-TOF II
Instrument type: LC-ESI-QTOF
Ms type: MS2
Ion mode: POSITIVE
Collision energy: 40 eV
Ionization: ESI
Precursor m/z: 340.20262
Precursor type: [M+H]+
m/z	relative intensity
72.0809	12
90.0923	13
129.0711	10
152.0627	20
153.0696	110
154.0655	50
156.0797	13
165.0708	28
167.0752	123
168.0811	51
178.0663	13
179.0753	36
180.0812	502
181.0805	119
182.0891	197
190.0661	94
191.0736	262
192.0817	163
193.0792	108
194.0953	88
195.1026	41
196.1099	39
197.108	115
205.0766	13
206.0867	37
207.0827	999
208.0867	775
209.1067	27
220.0952	27
221.107	102
222.1151	30
223.1229	231
224.0952	10
