Mass spectrum: Apramycin; LC-ESI-QTOF; MS2; CE:50 eV; [M+H]+
Name: Apramycin
Formula: C21H41N5O11
Exact mass: 539.28026
SMILES: [H]OC([H])([H])C([H])(O1)C([H])(N([H])[H])C([H])(O[H])C([H])(O[H])C([H])1OC([H])(O2)C([H])(N([H])C([H])([H])[H])C([H])(O[H])C([H])(O3)C([H])2C([H])([H])C([H])(N([H])[H])C([H])(OC([H])(C([H])(O[H])4)C([H])(N([H])[H])C([H])([H])C([H])(N([H])[H])C([H])(O[H])4)3
InChI: InChI=1S/C21H41N5O11/c1-26-11-14(30)18-8(33-20(11)37-21-16(32)13(29)10(25)9(4-27)34-21)3-7(24)19(36-18)35-17-6(23)2-5(22)12(28)15(17)31/h5-21,26-32H,2-4,22-25H2,1H3/t5-,6+,7-,8+,9-,10-,11+,12+,13+,14-,15-,16-,17-,18+,19?,20-,21-/m1/s1
Instrument: Micromass Q-TOF II
Instrument type: LC-ESI-QTOF
Ms type: MS2
Ion mode: POSITIVE
Collision energy: 50 eV
Ionization: ESI
Precursor m/z: 540.28820
Precursor type: [M+H]+
m/z	relative intensity
60.0426	162
68.0478	190
69.0302	70
70.0641	75
72.0446	341
73.0282	51
74.0596	309
80.051	82
81.0328	183
82.0294	54
82.0642	173
83.0498	76
84.0451	574
85.0331	47
86.0605	589
90.0543	143
94.0653	190
96.0458	712
96.0815	47
97.0301	91
97.0793	40
98.0609	433
99.0457	72
102.056	319
108.0421	74
108.082	130
109.029	74
109.0774	52
110.0601	739
111.0458	339
112.0759	47
114.0565	177
116.0735	253
120.0837	54
122.0634	242
124.0801	123
126.0559	999
127.08	42
128.0725	221
132.0441	66
134.0868	74
135.0936	144
136.0787	143
138.0577	101
140.072	184
142.0491	125
144.0676	440
145.0958	162
146.0798	118
149.0734	42
150.0538	146
151.0833	63
152.0974	132
153.0994	132
154.0841	66
156.0605	51
162.0786	279
163.1043	354
164.0707	135
168.0647	182
172.0966	84
181.099	88
182.0786	60
187.1161	50
199.1087	782
200.0987	148
217.1183	877
225.1194	59
253.1187	74
271.1275	50
313.1355	42
