Mass spectrum: Oxytetracycline; LC-ESI-QTOF; MS2; CE:30 eV; [M+H]+
Name: Oxytetracycline
Formula: C22H24N2O9
Exact mass: 460.14818
SMILES: [H]OC(N([H])[H])=C(C(=O)4)C(=O)C(O[H])(C(=O)3)C([H])(C([H])(N(C([H])([H])[H])C([H])([H])[H])4)C([H])(O[H])C([H])(C=13)C(O[H])(C([H])([H])[H])c(c([H])2)c(c(O[H])c([H])c([H])2)C(O[H])1
InChI: InChI=1S/C22H24N2O9/c1-21(32)7-5-4-6-8(25)9(7)15(26)10-12(21)17(28)13-14(24(2)3)16(27)11(20(23)31)19(30)22(13,33)18(10)29/h4-6,12-14,17,25-26,28,31-33H,23H2,1-3H3/b20-11-/t12-,13-,14+,17+,21-,22+/m1/s1
Instrument: Micromass Q-TOF II
Instrument type: LC-ESI-QTOF
Ms type: MS2
Ion mode: POSITIVE
Collision energy: 30 eV
Ionization: ESI
Precursor m/z: 461.15612
Precursor type: [M+H]+
m/z	relative intensity
86.0603	24
98.0605	79
126.0551	53
152.0378	10
153.0175	10
154.0497	238
170.0477	16
172.0598	20
178.995	12
180.0642	31
187.0727	13
196.0597	17
198.0767	53
201.0544	442
208.059	76
213.0552	65
226.0693	259
239.0671	45
241.0529	14
257.0466	49
259.0566	11
263.0655	23
265.0782	13
267.0638	96
268.0409	16
270.0499	13
273.0741	51
279.0621	37
283.0586	252
285.0729	39
291.0602	34
293.0786	14
295.0568	20
297.0725	23
301.0697	21
307.059	97
309.0735	43
312.121	52
317.0476	16
319.0578	30
322.0465	33
325.0709	35
335.0548	159
337.0699	681
350.0404	112
352.1132	13
353.0656	66
362.0974	24
363.0519	119
364.1152	15
365.0654	502
376.0839	11
380.1111	56
381.0605	380
390.0968	27
391.103	15
393.0931	18
408.1065	186
426.1181	999
444.1276	38
