Mass spectrum: Oxycodone; LC-ESI-QTOF; MS2; CE:20 eV; [M+H]+
Name: Oxycodone
Formula: C18H21NO4
Exact mass: 315.14706
SMILES: [H]C([H])([H])Oc(c([H])5)c(O4)c(c(c([H])5)1)C(C([H])([H])2)(C([H])43)C(O[H])(C([H])([H])C([H])([H])C(=O)3)C([H])(N(C([H])([H])[H])C([H])([H])2)C([H])([H])1
InChI: InChI=1S/C18H21NO4/c1-19-8-7-17-14-10-3-4-12(22-2)15(14)23-16(17)11(20)5-6-18(17,21)13(19)9-10/h3-4,13,16,21H,5-9H2,1-2H3
Instrument: Micromass Q-TOF II
Instrument type: LC-ESI-QTOF
Ms type: MS2
Ion mode: POSITIVE
Collision energy: 20 eV
Ionization: ESI
Precursor m/z: 316.15500
Precursor type: [M+H]+
m/z	relative intensity
70.065	12
187.0759	22
241.1065	78
256.1327	78
298.1425	999
316.1537	443
