Mass spectrum: Acepromazine; LC-ESI-QTOF; MS2; CE:50 eV; [M+H]+
Name: Acepromazine
Formula: C19H22N2OS
Exact mass: 326.14528
SMILES: [H]C([H])([H])C(=O)c(c([H])3)c([H])c(c1c([H])3)N(C([H])([H])C([H])([H])C([H])([H])N(C([H])([H])[H])C([H])([H])[H])c(c([H])2)c(c([H])c([H])c([H])2)S1
InChI: InChI=1S/C19H22N2OS/c1-14(22)15-9-10-19-17(13-15)21(12-6-11-20(2)3)16-7-4-5-8-18(16)23-19/h4-5,7-10,13H,6,11-12H2,1-3H3
Instrument: Micromass Q-TOF II
Instrument type: LC-ESI-QTOF
Ms type: MS2
Ion mode: POSITIVE
Collision energy: 50 eV
Ionization: ESI
Precursor m/z: 327.15322
Precursor type: [M+H]+
m/z	relative intensity
58.0646	999
71.0725	37
86.0967	348
154.0657	21
165.0708	24
166.0652	13
167.0737	67
171.0267	15
178.0653	70
179.0739	364
180.0817	165
185.0371	11
191.0731	21
192.0815	24
193.0895	10
196.0742	14
197.0306	15
198.038	158
199.0462	17
204.0813	63
205.09	30
206.0491	12
206.0941	90
207.1035	11
208.033	18
210.0375	92
211.0451	175
212.0529	55
222.0914	424
223.0456	33
224.0537	47
226.0334	20
235.0472	13
236.0508	23
238.0687	28
239.0774	10
254.0624	12
