Mass spectrum: Antipyrine; LC-ESI-QTOF; MS2; CE:30 eV; [M+H]+
Name: Antipyrine
Formula: C11H12N2O
Exact mass: 188.09496
SMILES: [H]C([H])([H])C(=C([H])2)N(C([H])([H])[H])N(C(=O)2)c(c([H])1)c([H])c([H])c([H])c([H])1
InChI: InChI=1S/C11H12N2O/c1-9-8-11(14)13(12(9)2)10-6-4-3-5-7-10/h3-8H,1-2H3
Instrument: Micromass Q-TOF II
Instrument type: LC-ESI-QTOF
Ms type: MS2
Ion mode: POSITIVE
Collision energy: 30 eV
Ionization: ESI
Precursor m/z: 189.10290
Precursor type: [M+H]+
m/z	relative intensity
55.018	23
55.045	19
56.0501	540
58.0652	307
65.0383	225
68.0499	32
69.0576	78
70.0654	13
77.039	949
78.0463	42
79.0549	177
80.0497	15
81.0454	133
82.0297	11
83.0594	12
90.0456	19
91.0549	285
92.0507	88
93.0332	24
93.0598	66
94.066	62
95.0539	387
96.0425	13
96.0685	171
98.0607	162
102.0472	29
103.0549	226
104.0499	894
105.0329	30
105.0624	137
106.0654	999
107.0633	35
111.0526	15
113.0709	11
115.0545	290
116.0569	34
117.0649	532
118.0656	374
119.0684	45
120.081	191
121.0754	14
127.0539	13
128.0517	63
129.0574	170
130.0652	614
131.0668	645
132.037	11
132.0721	360
133.0551	121
134.0487	35
134.0969	37
143.0733	73
144.0809	245
145.0745	407
146.0843	287
147.0916	391
148.0733	13
149.0715	28
156.0565	16
157.0518	58
158.0557	15
159.0553	36
159.0921	31
160.0993	15
161.1074	39
172.0768	30
173.0712	63
174.0783	129
189.1026	190
