Mass spectrum: Testosterone_Propionate; LC-ESI-QTOF; MS2; CE:30 eV; [M+H]+
Name: Testosterone_Propionate
Formula: C22H32O3
Exact mass: 344.23514
SMILES: [H]C([H])([H])C([H])([H])C(=O)OC([H])(C([H])([H])4)C(C([H])([H])[H])(C([H])([H])3)C([H])(C([H])([H])4)C([H])(C([H])([H])1)C([H])(C([H])([H])3)C(C([H])([H])[H])(C([H])([H])2)C(=C([H])C(=O)C([H])([H])2)C([H])([H])1
InChI: InChI=1S/C22H32O3/c1-4-20(24)25-19-8-7-17-16-6-5-14-13-15(23)9-11-21(14,2)18(16)10-12-22(17,19)3/h13,16-19H,4-12H2,1-3H3/t16?,17?,18?,19-,21-,22-/m0/s1
Instrument: Micromass Q-TOF II
Instrument type: LC-ESI-QTOF
Ms type: MS2
Ion mode: POSITIVE
Collision energy: 30 eV
Ionization: ESI
Precursor m/z: 345.24308
Precursor type: [M+H]+
m/z	relative intensity
57.0332	89
67.0533	13
69.0697	14
79.0542	60
81.0701	87
83.0491	38
91.0544	28
93.0699	68
95.0851	61
97.0649	946
105.07	68
107.0854	56
109.0646	999
109.1037	15
117.0697	12
119.0859	76
121.0645	23
121.1012	40
123.0804	106
129.0705	11
131.0856	32
133.1015	58
135.1172	23
143.0844	29
145.1004	68
147.1163	77
149.0955	13
149.1333	22
155.0843	15
157.1021	41
159.1165	62
161.1325	44
163.1102	23
163.1473	21
169.1015	18
171.1163	44
173.1325	40
175.1481	100
177.1267	24
183.1168	28
185.132	28
187.1474	38
189.1254	10
189.1633	15
197.1329	43
199.1481	14
201.1627	21
211.1479	35
213.1627	37
225.1626	16
227.1798	12
253.1939	80
271.2038	40
289.2128	24
