Mass spectrum: Methotrexate; LC-ESI-QTOF; MS2; CE:50 eV; [M+H]+
Name: Methotrexate
Formula: C20H22N8O5
Exact mass: 454.17132
SMILES: [H]OC(=O)C([H])([H])C([H])([H])C([H])(C(=O)O[H])N([H])C(=O)c(c([H])3)c([H])c([H])c(c([H])3)N(C([H])([H])[H])C([H])([H])c(c([H])1)nc(c(N([H])[H])2)c(nc(N([H])[H])n2)n1
InChI: InChI=1S/C20H22N8O5/c1-28(9-11-8-23-17-15(24-11)16(21)26-20(22)27-17)12-4-2-10(3-5-12)18(31)25-13(19(32)33)6-7-14(29)30/h2-5,8,13H,6-7,9H2,1H3,(H,25,31)(H,29,30)(H,32,33)(H4,21,22,23,26,27)
Instrument: Micromass Q-TOF II
Instrument type: LC-ESI-QTOF
Ms type: MS2
Ion mode: POSITIVE
Collision energy: 50 eV
Ionization: ESI
Precursor m/z: 455.17926
Precursor type: [M+H]+
m/z	relative intensity
106.042	12
106.0642	39
121.0501	24
133.0508	183
134.0597	396
135.0601	25
148.0615	66
150.0752	13
159.0565	15
160.0627	53
175.0725	999
176.08	202
177.0888	37
