Mass spectrum: Meprobamate; LC-ESI-QTOF; MS2; CE:20 eV; [M+H]+
Name: Meprobamate
Formula: C9H18N2O4
Exact mass: 218.12666
SMILES: [H]N([H])C(=O)OC([H])([H])C(C([H])([H])[H])(C([H])([H])OC(=O)N([H])[H])C([H])([H])C([H])([H])C([H])([H])[H]
InChI: InChI=1S/C9H18N2O4/c1-3-4-9(2,5-14-7(10)12)6-15-8(11)13/h3-6H2,1-2H3,(H2,10,12)(H2,11,13)
Instrument: Micromass Q-TOF II
Instrument type: LC-ESI-QTOF
Ms type: MS2
Ion mode: POSITIVE
Collision energy: 20 eV
Ionization: ESI
Precursor m/z: 219.13460
Precursor type: [M+H]+
m/z	relative intensity
55.0545	635
59.0495	26
62.0239	55
69.07	227
71.0861	21
73.0649	21
97.1017	999
115.1125	60
158.1178	243
