Mass spectrum: Thiethylperazine; LC-ESI-QTOF; MS2; CE:40 eV; [M+H]+
Name: Thiethylperazine
Formula: C22H29N3S2
Exact mass: 399.18029
SMILES: [H]C([H])([H])C([H])([H])Sc(c([H])4)c([H])c(c2c([H])4)N(c(c([H])3)c(c([H])c([H])c([H])3)S2)C([H])([H])C([H])([H])C([H])([H])N(C([H])([H])1)C([H])([H])C([H])([H])N(C([H])([H])[H])C([H])([H])1
InChI: InChI=1S/C22H29N3S2/c1-3-26-18-9-10-22-20(17-18)25(19-7-4-5-8-21(19)27-22)12-6-11-24-15-13-23(2)14-16-24/h4-5,7-10,17H,3,6,11-16H2,1-2H3
Instrument: Micromass Q-TOF II
Instrument type: LC-ESI-QTOF
Ms type: MS2
Ion mode: POSITIVE
Collision energy: 40 eV
Ionization: ESI
Precursor m/z: 400.18823
Precursor type: [M+H]+
m/z	relative intensity
70.0649	882
84.0811	13
98.0873	139
113.1077	999
141.1393	379
179.075	31
198.0396	15
199.0465	16
206.0969	31
210.0384	21
211.0466	119
212.0536	44
224.0524	22
230.0101	39
231.0184	10
238.0695	50
239.0778	164
240.0854	185
243.0185	95
244.0264	31
259.0498	64
271.0487	12
272.0576	106
