Mass spectrum: Tetramisole; LC-ESI-QTOF; MS2; CE:20 eV; [M+H]+
Name: Tetramisole
Formula: C11H12N2S
Exact mass: 204.07212
SMILES: [H]c(c([H])3)c([H])c([H])c(c([H])3)C([H])(N=2)C([H])([H])N(C12)C([H])([H])C([H])([H])S1
InChI: InChI=1S/C11H12N2S/c1-2-4-9(5-3-1)10-8-13-6-7-14-11(13)12-10/h1-5,10H,6-8H2
Instrument: Micromass Q-TOF II
Instrument type: LC-ESI-QTOF
Ms type: MS2
Ion mode: POSITIVE
Collision energy: 20 eV
Ionization: ESI
Precursor m/z: 205.08006
Precursor type: [M+H]+
m/z	relative intensity
88.0217	26
91.054	17
105.0696	12
117.0678	22
118.0647	18
123.0263	28
129.0697	36
145.0753	23
146.0958	46
150.0374	10
178.0675	450
188.0524	13
205.0771	999
