Mass spectrum: Prednisolone_Tebutate; LC-ESI-QTOF; MS2; CE:20 eV; [M+H]+
Name: Prednisolone_Tebutate
Formula: C27H38O6
Exact mass: 458.26684
SMILES: [H]C([H])(C(C([H])([H])[H])(C([H])([H])[H])C([H])([H])[H])C(OC([H])([H])C(=O)C(O[H])(C4([H])[H])C(C([H])([H])[H])(C3([H])[H])C(C([H])([H])4)([H])C([H])(C([H])(C3([H])O[H])1)C(C(C(=C([H])2)C1(C([H])=C(C2=O)[H])C([H])([H])[H])([H])[H])([H])[H])=O
InChI: InChI=1S/C27H38O6/c1-24(2,3)14-22(31)33-15-21(30)27(32)11-9-19-18-7-6-16-12-17(28)8-10-25(16,4)23(18)20(29)13-26(19,27)5/h8,10,12,18-20,23,29,32H,6-7,9,11,13-15H2,1-5H3
Instrument: Micromass Q-TOF II
Instrument type: LC-ESI-QTOF
Ms type: MS2
Ion mode: POSITIVE
Collision energy: 20 eV
Ionization: ESI
Precursor m/z: 459.27478
Precursor type: [M+H]+
m/z	relative intensity
57.0696	45
71.0847	58
85.0634	17
99.081	497
101.0604	11
107.0842	13
119.0857	12
121.0663	21
135.0838	34
147.0812	266
149.0972	15
157.0872	68
159.0827	13
161.0927	51
163.0751	12
165.0928	34
171.0816	70
173.0974	70
185.0969	23
187.108	12
191.1095	10
197.0971	31
199.1133	43
209.0929	15
211.1088	33
213.1278	21
221.1005	18
223.1094	115
225.1269	41
227.1404	23
235.1138	24
237.1249	196
239.1418	140
247.1158	23
249.1283	37
251.1423	20
253.1269	14
261.1266	30
263.1447	105
265.1563	230
267.1681	29
274.1393	18
277.1572	20
279.1708	270
281.151	19
283.1661	17
285.1894	14
289.1578	423
295.1641	29
297.1797	40
307.1668	708
313.1747	13
325.1781	624
343.1893	86
405.244	74
423.2532	107
441.2615	999
