Mass spectrum: Diphenoxylate; LC-ESI-QTOF; MS2; CE:50 eV; [M+H]+
Name: Diphenoxylate
Formula: C30H32N2O2
Exact mass: 452.24638
SMILES: [H]C([H])([H])C([H])([H])OC(C(c(c4[H])c(c([H])c(c4[H])[H])[H])(C([H])([H])1)C([H])([H])C([H])([H])N(C(C(C(C#N)(c(c3[H])c(c([H])c(c([H])3)[H])[H])c(c2[H])c(c([H])c(c([H])2)[H])[H])([H])[H])([H])[H])C([H])([H])1)=O
InChI: InChI=1S/C30H32N2O2/c1-2-34-28(33)29(25-12-6-3-7-13-25)18-21-32(22-19-29)23-20-30(24-31,26-14-8-4-9-15-26)27-16-10-5-11-17-27/h3-17H,2,18-23H2,1H3
Instrument: Micromass Q-TOF II
Instrument type: LC-ESI-QTOF
Ms type: MS2
Ion mode: POSITIVE
Collision energy: 50 eV
Ionization: ESI
Precursor m/z: 453.25432
Precursor type: [M+H]+
m/z	relative intensity
56.0502	162
57.0575	930
58.0662	14
68.0498	43
69.0552	12
70.0663	32
80.0515	35
82.0661	186
83.0729	42
84.0832	27
91.0552	289
96.0445	21
96.0837	16
98.0624	13
100.041	57
103.0545	227
104.0575	80
105.0717	38
106.0652	34
108.0493	16
110.097	18
112.0411	36
114.0555	42
115.0546	140
116.061	76
117.0691	345
118.0727	58
119.0745	14
120.0809	67
126.055	330
127.0617	32
128.0636	95
129.0702	83
130.0695	143
131.0765	311
132.0803	104
133.0748	11
141.0716	26
142.0801	39
143.084	135
144.0732	399
145.0818	78
146.0956	80
152.0636	44
155.0906	12
156.0824	14
158.097	934
159.0576	33
159.104	152
160.1116	205
161.0768	13
161.1233	17
162.0677	136
165.0703	999
167.0847	34
168.0815	10
171.0993	13
172.1126	344
174.1304	47
176.0711	22
177.0706	19
178.077	30
184.1161	19
186.0965	138
186.1346	38
187.0997	413
190.0974	126
191.0743	101
192.0812	135
193.0987	27
202.0796	13
203.0926	17
204.1011	348
205.1023	31
218.117	129
219.1024	12
220.1141	52
232.1322	79
246.1461	36
249.1375	42
351.1842	12
