Mass spectrum: Oxycodone; LC-ESI-QTOF; MS2; CE:30 eV; [M+H]+
Name: Oxycodone
Formula: C18H21NO4
Exact mass: 315.14706
SMILES: [H]C([H])([H])Oc(c([H])5)c(O4)c(c(c([H])5)1)C(C([H])([H])2)(C([H])43)C(O[H])(C([H])([H])C([H])([H])C(=O)3)C([H])(N(C([H])([H])[H])C([H])([H])2)C([H])([H])1
InChI: InChI=1S/C18H21NO4/c1-19-8-7-17-14-10-3-4-12(22-2)15(14)23-16(17)11(20)5-6-18(17,21)13(19)9-10/h3-4,13,16,21H,5-9H2,1-2H3
Instrument: Micromass Q-TOF II
Instrument type: LC-ESI-QTOF
Ms type: MS2
Ion mode: POSITIVE
Collision energy: 30 eV
Ionization: ESI
Precursor m/z: 316.15500
Precursor type: [M+H]+
m/z	relative intensity
58.0662	14
70.0657	71
94.0668	23
108.0808	17
133.0899	11
153.0696	15
157.0643	13
159.0815	25
160.0706	14
161.0804	55
167.0884	14
169.0652	16
174.0835	22
175.0772	137
181.0669	110
183.0811	18
187.0761	236
189.0917	30
195.0822	30
196.1102	16
197.0611	41
197.0991	10
198.0843	23
199.0771	96
201.0916	18
202.0864	77
203.0933	17
207.079	17
209.0861	24
210.0812	29
211.0879	20
212.1069	95
213.097	195
215.1061	34
217.0862	12
221.0847	19
223.0951	23
224.1069	115
225.0953	91
226.0892	76
227.1071	64
228.1013	37
228.1374	48
229.088	32
237.1001	10
238.1214	22
239.1047	49
240.1028	77
241.1087	999
242.1143	44
243.1261	15
248.1054	18
249.1103	21
252.1013	49
254.1167	53
255.1113	65
256.1339	704
257.1163	14
265.1084	22
266.1169	48
267.1068	19
268.0972	24
269.1068	33
270.1186	61
270.1482	38
280.1353	49
282.1112	23
283.1229	48
298.1443	877
316.1574	40
