Mass spectrum: Strychnine_N_Oxide; LC-ESI-QTOF; MS2; CE:40 eV; [M+H]+
Name: Strychnine_N_Oxide
Formula: C21H22N2O3
Exact mass: 350.16304
SMILES: C1C[N+]2(CC3=CCO[C@H]4CC(=O)N5[C@H]6[C@H]4[C@H]3C[C@H]2[C@@]61C7=CC=CC=C75)[O-]
InChI: InChI=1S/C21H22N2O3/c24-18-10-16-19-13-9-17-21(6-7-23(17,25)11-12(13)5-8-26-16)14-3-1-2-4-15(14)22(18)20(19)21/h1-5,13,16-17,19-20H,6-11H2/t13-,16-,17-,19-,20-,21+,23?/m0/s1
Instrument: Micromass Q-TOF II
Instrument type: LC-ESI-QTOF
Ms type: MS2
Ion mode: POSITIVE
Collision energy: 40 eV
Ionization: ESI
Precursor m/z: 351.17098
Precursor type: [M+H]+
m/z	relative intensity
55.0185	13
56.0495	17
67.0525	14
68.0486	24
69.057	15
70.0654	15
79.0543	25
80.0511	33
81.0667	16
82.0657	129
84.0813	12
91.0545	36
92.0543	21
93.0612	110
94.0351	14
94.0634	121
95.0602	43
96.0815	32
97.0888	39
98.0602	11
105.0665	70
106.066	75
107.0732	421
108.081	251
109.0887	58
110.0603	16
117.0616	78
118.0659	86
119.0734	318
120.0811	999
121.0887	270
122.059	66
122.0967	104
126.0928	18
129.0676	27
130.0655	156
131.0724	79
132.0806	130
133.0799	123
134.0547	14
134.0958	277
135.0669	35
135.1024	81
136.0761	378
137.0834	29
138.0917	107
143.0734	273
144.0809	381
145.0819	20
146.0577	26
146.0748	42
146.0972	27
147.0706	58
148.0753	32
149.0811	11
150.0914	19
154.0667	12
155.0734	16
156.0813	62
157.0878	30
158.0957	31
159.0735	13
160.077	43
161.0842	267
162.0926	331
163.1	93
167.0742	97
168.0812	118
169.0861	43
170.0955	90
171.093	60
172.0773	62
173.0864	11
174.0913	19
175.0977	46
176.1081	20
180.0816	70
181.0889	46
182.096	80
183.0695	74
184.0844	138
185.0852	38
186.0911	61
192.0815	15
193.089	25
194.0956	72
195.0936	25
196.077	137
197.0849	81
198.0912	154
201.0787	62
202.0846	15
204.0824	71
205.0889	30
206.0943	66
207.0999	37
208.1001	60
209.0925	74
210.0947	80
211.0943	17
212.1033	58
213.0847	15
217.0879	26
218.0964	55
219.0981	42
220.0767	486
221.0954	117
222.0932	100
223.11	45
224.101	18
225.0965	12
228.1004	16
230.0951	26
231.1038	16
232.0901	134
233.086	219
234.1006	157
235.1047	96
236.1076	68
237.11	37
238.0885	38
240.1233	14
244.1083	28
245.094	31
246.0967	121
247.1078	96
248.1099	110
249.1284	95
250.106	34
251.1122	20
257.0948	13
258.0997	53
259.107	45
260.1076	102
261.1157	166
262.1209	107
263.1463	142
264.1054	64
264.1622	15
265.114	51
270.0925	17
271.1033	11
272.1059	35
273.1236	48
274.1185	62
275.1358	100
276.1226	83
277.1174	208
278.1232	40
279.125	117
286.1223	16
287.1254	39
288.119	52
289.1278	87
290.1329	50
291.143	119
292.1438	34
301.1298	10
302.1198	12
303.1461	89
304.1483	84
305.1536	193
306.1389	232
315.1481	16
317.1647	26
319.1438	317
333.1592	591
334.1678	644
351.1702	248
