Mass spectrum: Tetracycline; LC-ESI-QTOF; MS2; CE:50 eV; [M+H]+
Name: Tetracycline
Formula: C22H24N2O8
Exact mass: 444.15327
SMILES: [H][C@@]12C[C@@]3([H])C(=C(O)[C@]1(O)C(=O)C(C(N)=O)=C(O)[C@H]2N(C)C)C(=O)C1=C(C=CC=C1O)[C@@]3(C)O
InChI: InChI=1S/C22H24N2O8/c1-21(31)8-5-4-6-11(25)12(8)16(26)13-9(21)7-10-15(24(2)3)17(27)14(20(23)30)19(29)22(10,32)18(13)28/h4-6,9-10,15,25,27-28,31-32H,7H2,1-3H3,(H2,23,30)/t9-,10-,15-,21+,22-/m0/s1
Instrument: Micromass Q-TOF II
Instrument type: LC-ESI-QTOF
Ms type: MS2
Ion mode: POSITIVE
Collision energy: 50 eV
Ionization: ESI
Precursor m/z: 445.16121
Precursor type: [M+H]+
m/z	relative intensity
58.0654	33
68.0476	22
68.9962	18
70.0648	108
71.0362	15
84.046	28
86.0598	102
98.0602	818
123.0083	18
124.0408	11
126.0551	70
131.0496	27
139.025	23
141.0691	12
145.0643	24
147.0453	16
152.0534	16
153.0657	12
154.0494	81
155.0871	13
157.063	21
158.0728	12
159.0462	33
160.0561	13
165.0694	27
166.0541	22
167.0855	48
168.0558	39
169.0659	21
171.0813	13
173.0551	11
173.0955	43
174.068	17
177.0718	26
178.0755	13
179.086	32
180.0555	21
181.0661	18
182.0751	11
183.0817	31
185.0946	31
186.0666	17
187.0748	69
188.0834	28
189.0764	15
191.0839	11
193.0635	14
194.0655	21
195.0808	218
196.052	99
197.0591	40
198.0676	60
199.0745	27
201.0699	66
204.0556	13
205.0664	38
207.0789	60
208.0522	26
209.0661	18
210.0674	32
211.0746	162
212.0547	19
213.0896	124
215.0729	15
217.0616	18
219.0767	36
220.0531	28
221.0602	31
222.067	18
223.0747	278
224.0457	130
225.0703	64
226.0618	999
227.0703	35
233.0584	30
234.065	16
235.0742	146
236.0461	77
237.0618	33
238.062	95
239.0698	167
240.0778	25
241.0851	549
242.0568	285
243.0626	42
245.0537	13
247.0735	52
248.0471	30
249.0648	28
250.0604	60
251.0691	191
252.0411	729
253.0853	42
254.056	351
255.0627	14
257.0797	44
263.0697	126
264.0456	19
265.0477	11
265.0658	21
266.0583	25
267.0631	407
269.08	310
270.0492	23
273.0532	20
275.0685	32
276.0411	74
278.0551	272
279.0648	31
281.1013	52
282.0494	15
285.076	26
291.0632	68
293.0775	49
294.052	34
296.1242	12
303.0646	17
304.0369	30
306.053	116
319.0619	23
321.0741	31
322.0468	38
334.0462	222
337.076	16
349.0767	19
