Mass spectrum: Poldine; LC-ESI-QTOF; MS2; CE:40 eV; [M+H]+
Name: Poldine
Formula: [C21H26NO3]+
Exact mass: 340.19127
SMILES: C[N+]1(CCCC1COC(=O)C(C2=CC=CC=C2)(C3=CC=CC=C3)O)C
InChI: InChI=1S/C21H26NO3/c1-22(2)15-9-14-19(22)16-25-20(23)21(24,17-10-5-3-6-11-17)18-12-7-4-8-13-18/h3-8,10-13,19,24H,9,14-16H2,1-2H3/q+1
Instrument: Micromass Q-TOF II
Instrument type: LC-ESI-QTOF
Ms type: MS2
Ion mode: POSITIVE
Collision energy: 40 eV
Ionization: ESI
Precursor m/z: 341.19921
Precursor type: [M+H]+
m/z	relative intensity
57.0705	26
58.0659	113
59.0689	23
67.0544	69
68.0581	24
77.0395	26
78.0438	12
84.0827	26
85.0664	133
86.0696	41
97.0894	18
105.0347	230
106.0381	109
112.1133	29
113.1167	14
130.1234	999
131.1271	538
166.076	13
167.0846	12
184.0853	19
