Mass spectrum: Strychnine; LC-ESI-QTOF; MS2; CE:40 eV; [M+H]+
Name: Strychnine
Formula: C21H22N2O2
Exact mass: 334.16813
SMILES: [H]c(c([H])7)c([H])c(c(c([H])7)1)N(C(=O)5)C([H])(C([H])42)C1(C([H])([H])6)C([H])(N3C([H])([H])6)C([H])([H])C([H])(C(=C([H])C([H])([H])OC([H])(C([H])([H])5)4)C([H])([H])3)2
InChI: InChI=1S/C21H22N2O2/c24-18-10-16-19-13-9-17-21(6-7-22(17)11-12(13)5-8-25-16)14-3-1-2-4-15(14)23(18)20(19)21/h1-5,13,16-17,19-20H,6-11H2
Instrument: Micromass Q-TOF II
Instrument type: LC-ESI-QTOF
Ms type: MS2
Ion mode: POSITIVE
Collision energy: 40 eV
Ionization: ESI
Precursor m/z: 335.17607
Precursor type: [M+H]+
m/z	relative intensity
67.0532	19
68.0495	15
69.0309	12
79.054	21
81.0698	33
82.067	18
91.0546	47
93.0687	47
94.0686	26
95.0523	24
95.0835	17
105.0706	13
106.0662	35
108.0841	64
109.0626	13
110.0909	13
118.0653	21
121.0676	23
122.0587	18
122.0738	21
122.1053	11
124.0763	32
129.0712	80
130.0653	33
132.0688	17
134.0991	25
144.0797	132
146.0581	13
154.0683	30
155.0756	23
156.0814	398
158.0615	32
162.0897	11
167.0747	34
168.0808	90
169.0828	35
170.051	15
170.0739	20
170.0986	41
171.0966	37
172.0941	17
180.083	43
181.0859	31
182.0921	55
183.0693	32
184.0769	967
186.0919	49
192.084	27
193.0847	21
194.0932	159
196.0754	98
197.1084	14
198.0898	88
204.0842	39
205.0908	30
206.0975	55
207.1051	35
208.1135	40
209.0934	26
210.091	25
212.0616	11
212.0863	20
212.1068	18
216.0746	10
217.0895	38
218.1001	63
219.1054	31
220.0868	195
221.0751	12
221.1329	11
222.0927	267
224.1142	26
228.082	12
230.0992	20
231.104	20
232.1102	61
233.0998	37
233.1232	18
234.0911	165
235.1122	17
236.0958	21
237.1122	19
238.0718	12
244.1086	18
245.1171	25
246.0952	60
248.0939	35
248.1107	52
249.1034	15
250.1024	17
250.1199	27
256.1097	18
257.0817	18
257.1006	11
259.0974	17
260.1158	37
261.1127	35
262.1231	93
263.1134	12
264.1009	241
266.1176	57
272.1068	46
273.1206	25
274.1217	36
278.1352	26
280.1447	12
288.1477	11
289.1337	24
290.1249	52
303.1466	12
306.1392	26
307.1434	62
335.1771	999
