Mass spectrum: Prednisone; LC-ESI-QTOF; MS2; CE:50 eV; [M+H]+
Name: Prednisone
Formula: C21H26O5
Exact mass: 358.17802
SMILES: [H]OC([H])([H])C(=O)C(O[H])(C([H])([H])4)C(C([H])([H])[H])(C([H])([H])3)C([H])(C([H])([H])4)C([H])(C([H])([H])1)C([H])(C(=O)3)C(C([H])([H])[H])(C([H])=2)C(=C([H])C(=O)C([H])2)C([H])([H])1
InChI: InChI=1S/C21H26O5/c1-19-7-5-13(23)9-12(19)3-4-14-15-6-8-21(26,17(25)11-22)20(15,2)10-16(24)18(14)19/h5,7,9,14-15,18,22,26H,3-4,6,8,10-11H2,1-2H3
Instrument: Micromass Q-TOF II
Instrument type: LC-ESI-QTOF
Ms type: MS2
Ion mode: POSITIVE
Collision energy: 50 eV
Ionization: ESI
Precursor m/z: 359.18596
Precursor type: [M+H]+
m/z	relative intensity
53.0402	16
55.0197	41
55.056	61
57.034	13
65.0387	38
67.0547	197
69.0339	67
69.072	27
71.0486	25
75.0441	11
77.04	279
79.0557	357
81.0314	15
81.0709	197
83.0501	35
91.0555	999
92.0629	18
93.0716	290
94.0449	10
95.0509	240
95.0884	167
97.0652	27
99.0449	14
103.0571	87
104.0658	30
105.0704	423
107.0507	129
107.087	91
108.0582	18
109.0676	123
111.0442	18
111.0817	25
115.0564	345
116.0647	97
117.0717	268
118.0724	16
119.0867	464
121.0665	651
123.08	20
125.0662	13
127.0586	57
128.0636	420
129.0712	297
130.0807	69
131.0486	146
131.0685	91
131.0881	186
132.0585	372
133.0641	45
133.0869	17
133.1023	38
134.0762	12
135.0827	99
137.0629	18
140.0644	25
141.0717	470
142.0796	71
143.0868	133
144.0592	335
145.0672	657
145.1119	31
146.075	266
147.0813	813
151.0613	12
152.0631	151
153.0712	223
154.0788	93
155.086	139
156.0935	27
157.066	162
157.1149	12
158.0746	558
159.0827	449
160.0884	44
161.0987	88
163.0756	22
164.063	16
165.0728	382
166.0792	125
167.0868	164
168.0609	115
168.1032	11
169.0674	313
169.1074	13
170.0757	124
171.0828	915
172.0918	52
173.0975	193
175.0851	12
176.0645	28
177.0729	55
178.0803	320
179.0882	461
180.0934	68
181.0668	468
181.1106	24
182.0746	264
183.0817	199
184.0901	89
185.0978	92
186.1015	18
187.0771	21
189.0743	154
190.0801	130
191.087	198
192.0942	114
193.1021	195
194.0754	272
194.1179	17
195.0833	538
196.0901	229
197.0974	182
198.0987	38
199.1181	20
201.0704	16
202.0793	148
203.0877	168
204.0962	97
205.0953	211
206.0751	129
206.1225	15
207.0824	508
208.0895	378
209.0979	287
210.1039	103
211.1105	90
212.1218	42
215.0872	201
216.0962	64
217.101	79
218.0789	91
219.0848	271
219.1291	20
220.0903	129
221.0979	441
222.1048	350
223.1133	155
224.1005	39
224.1305	10
225.107	45
227.0919	44
228.0927	54
229.1036	133
230.1095	29
231.0857	193
232.0908	151
233.0981	241
234.1042	178
235.1131	135
236.1158	29
237.1211	75
238.1014	33
239.0889	30
241.1057	20
242.1034	19
243.1135	28
244.0894	51
245.0985	139
246.1044	56
247.1113	145
248.1184	59
249.1295	98
251.1343	14
255.0956	22
257.0981	36
258.1044	13
259.1151	35
260.1165	19
261.107	37
262.1159	21
263.1385	36
265.1336	11
277.132	11
