Mass spectrum: Oxybutynine; LC-ESI-QTOF; MS2; CE:20 eV; [M+H]+
Name: Oxybutynine
Formula: C22H31NO3
Exact mass: 357.23039
SMILES: [H]C([H])([H])C([H])([H])N(C([H])([H])C#CC([H])([H])OC(=O)C(O[H])(c(c([H])2)c([H])c([H])c([H])c([H])2)C([H])(C([H])([H])1)C([H])([H])C([H])([H])C([H])([H])C([H])([H])1)C([H])([H])C([H])([H])[H]
InChI: InChI=1S/C22H31NO3/c1-3-23(4-2)17-11-12-18-26-21(24)22(25,19-13-7-5-8-14-19)20-15-9-6-10-16-20/h5,7-8,13-14,20,25H,3-4,6,9-10,15-18H2,1-2H3
Instrument: Micromass Q-TOF II
Instrument type: LC-ESI-QTOF
Ms type: MS2
Ion mode: POSITIVE
Collision energy: 20 eV
Ionization: ESI
Precursor m/z: 358.23833
Precursor type: [M+H]+
m/z	relative intensity
72.0805	24
82.0653	32
95.0747	11
96.0808	28
97.0283	47
105.0336	32
109.0881	10
122.0962	13
124.1119	209
142.1221	135
171.1166	20
189.127	28
199.1113	13
258.1479	24
267.1372	11
340.2271	134
358.2353	999
