Mass spectrum: Doxorubicin; LC-ESI-QTOF; MS2; CE:30 eV; [M+H]+
Name: Doxorubicin
Formula: C27H29NO11
Exact mass: 543.17406
SMILES: c(=O)(c12)c(c5O[H])c(c(O[H])c(c35)C(C(C(=O)C([H])([H])O[H])(C(C3(OC([H])(C([H])([H])4)OC([H])(C([H])(O[H])C([H])(N([H])[H])4)C([H])([H])[H])[H])([H])[H])O[H])([H])[H])c(c1c(c(c(c2OC([H])([H])[H])[H])[H])[H])=O
InChI: InChI=1S/C27H29NO11/c1-10-22(31)13(28)6-17(38-10)39-15-8-27(36,16(30)9-29)7-12-19(15)26(35)21-20(24(12)33)23(32)11-4-3-5-14(37-2)18(11)25(21)34/h3-5,10,13,15,17,22,29,31,33,35-36H,6-9,28H2,1-2H3
Instrument: Micromass Q-TOF II
Instrument type: LC-ESI-QTOF
Ms type: MS2
Ion mode: POSITIVE
Collision energy: 30 eV
Ionization: ESI
Precursor m/z: 544.18200
Precursor type: [M+H]+
m/z	relative intensity
69.0329	36
72.0437	81
86.0602	191
95.0502	11
112.076	25
113.06	96
130.0863	236
306.0505	23
321.0747	630
323.0919	11
333.0755	102
337.0705	11
346.0472	186
351.0865	23
361.0707	999
379.0809	132
397.0934	11
