Mass spectrum: Aminophylline; LC-ESI-QTOF; MS2; CE:30 eV; [M+H]+
Name: Aminophylline
Formula: C7H8N4O2
Exact mass: 180.06473
SMILES: [H]C([H])([H])N(C(=O)1)C(=O)c(n([H])2)c(nc([H])2)N(C([H])([H])[H])1
InChI: InChI=1S/C7H8N4O2/c1-10-5-4(8-3-9-5)6(12)11(2)7(10)13/h3H,1-2H3,(H,8,9)
Instrument: Micromass Q-TOF II
Instrument type: LC-ESI-QTOF
Ms type: MS2
Ion mode: POSITIVE
Collision energy: 30 eV
Ionization: ESI
Precursor m/z: 181.07267
Precursor type: [M+H]+
m/z	relative intensity
67.0284	22
68.0354	18
69.0446	999
70.0465	21
80.0133	11
81.045	26
83.025	91
94.0408	37
95.0244	34
96.0561	865
97.0444	59
108.0544	12
109.0274	183
122.0371	17
124.0511	956
125.0549	27
140.0448	11
142.0622	40
181.0722	29
