Mass spectrum: Cromolyn; LC-ESI-QTOF; MS2; CE:50 eV; [M+H]+
Name: Cromolyn
Formula: C23H16O11
Exact mass: 468.06926
SMILES: [H]OC(=O)C(O4)=C([H])C(=O)c(c41)c(OC([H])([H])C([H])(O[H])C([H])([H])Oc(c([H])2)c(C(=O)3)c(OC(C(=O)O[H])=C([H])3)c([H])c([H])2)c([H])c([H])c([H])1
InChI: InChI=1S/C23H16O11/c24-11(9-31-14-3-1-5-16-20(14)12(25)7-18(33-16)22(27)28)10-32-15-4-2-6-17-21(15)13(26)8-19(34-17)23(29)30/h1-8,11,24H,9-10H2,(H,27,28)(H,29,30)
Instrument: Micromass Q-TOF II
Instrument type: LC-ESI-QTOF
Ms type: MS2
Ion mode: POSITIVE
Collision energy: 50 eV
Ionization: ESI
Precursor m/z: 469.07720
Precursor type: [M+H]+
m/z	relative intensity
57.0335	37
68.9972	79
77.0387	44
79.0547	27
89.0389	61
91.0548	30
93.0331	14
93.0691	14
95.0487	22
103.055	132
105.0343	20
105.0705	23
107.0501	53
111.0453	34
115.0545	66
117.0339	17
117.071	28
119.0486	11
121.0651	61
127.0541	11
131.05	84
133.029	22
134.0358	11
135.0451	20
137.0236	114
143.05	21
145.0281	63
145.0642	30
147.0445	99
149.0592	44
155.0487	13
158.0357	12
161.0589	27
163.0388	480
171.0445	49
173.0596	34
175.039	43
178.0261	64
179.034	84
189.0549	10
191.0331	13
199.0384	15
205.0506	44
206.0206	261
207.0278	999
215.0336	22
217.0486	54
219.0277	53
245.0433	41
