Mass spectrum: 6a_Methylprednisolone; LC-ESI-QTOF; MS2; CE:50 eV; [M+H]+
Name: 6a_Methylprednisolone
Formula: C22H30O5
Exact mass: 374.20932
SMILES: [H]OC([H])([H])C(=O)C(O[H])(C([H])([H])4)C(C([H])([H])[H])(C([H])([H])3)C([H])(C([H])([H])4)C([H])(C([H])([H])1)C([H])(C([H])(O[H])3)C(C([H])=2)(C([H])([H])[H])C(=C([H])C(=O)C([H])2)C([H])(C([H])([H])[H])1
InChI: InChI=1S/C22H30O5/c1-12-8-14-15-5-7-22(27,18(26)11-23)21(15,3)10-17(25)19(14)20(2)6-4-13(24)9-16(12)20/h4,6,9,12,14-15,17,19,23,25,27H,5,7-8,10-11H2,1-3H3
Instrument: Micromass Q-TOF II
Instrument type: LC-ESI-QTOF
Ms type: MS2
Ion mode: POSITIVE
Collision energy: 50 eV
Ionization: ESI
Precursor m/z: 375.21726
Precursor type: [M+H]+
m/z	relative intensity
53.0394	11
55.0185	31
55.0549	42
57.0341	13
65.0392	24
67.0537	121
69.0335	40
69.0699	31
71.0491	16
77.0397	210
79.0547	266
81.0711	103
83.0504	19
91.0554	999
93.0709	280
95.0494	81
95.0874	59
97.0656	30
103.0553	62
104.0633	11
105.0708	851
107.0468	82
107.0864	362
109.0656	122
109.1041	24
111.0788	21
115.0553	481
116.063	89
117.071	421
118.0731	19
119.044	10
119.0864	215
120.0596	17
121.0659	855
123.0807	26
125.0586	11
127.0554	26
128.063	240
129.0705	298
130.0796	98
131.0457	74
131.0856	294
132.0583	77
133.0608	45
133.1012	241
135.0811	538
137.0615	42
141.0713	256
142.0793	354
143.0866	168
144.0594	135
144.0985	31
145.0663	468
145.1074	57
146.0743	407
147.081	105
149.0972	19
152.0634	80
153.072	138
154.0791	66
155.0861	151
156.0944	64
157.0696	212
157.1044	97
158.074	383
159.082	363
160.0866	52
161.0973	415
165.0711	230
166.0798	124
167.0867	123
168.0928	91
169.0701	132
169.106	35
170.0748	131
171.0823	300
172.0898	246
173.0977	118
175.1122	18
177.0751	27
178.0796	237
179.0874	219
180.0952	70
181.0691	350
182.0749	100
183.0825	156
183.1255	15
184.0903	57
185.098	363
186.1059	13
187.1128	81
189.0755	69
190.0785	85
191.0874	126
192.0944	104
193.1025	200
194.0788	129
195.0836	450
195.1312	16
196.0894	281
197.0981	157
198.1037	44
199.1133	38
202.0779	74
203.0866	137
204.0937	63
205.1017	174
206.1046	79
207.0904	205
208.091	285
209.0973	493
210.1048	134
211.1122	153
212.1158	25
215.0865	65
216.0949	50
217.1043	70
218.0922	65
219.097	135
220.1026	95
221.0975	269
222.1055	195
223.114	264
224.1208	59
225.1285	40
227.0829	12
228.093	19
229.1015	34
230.1063	17
231.0889	89
232.0909	69
233.1008	114
234.1037	62
235.1144	172
236.1197	95
237.1254	80
238.1329	20
240.0952	11
241.1003	11
243.1158	19
244.0912	31
245.0995	92
246.1075	53
247.1117	70
248.1167	30
249.1285	80
250.1359	54
251.1409	54
255.1181	12
257.0966	13
258.1045	43
259.1158	55
260.1204	16
261.1262	20
262.1352	12
263.1632	60
264.1461	12
265.158	125
272.1192	11
273.129	21
279.1735	23
