Mass spectrum: Boldenone_Undecylenate; LC-ESI-QTOF; MS2; CE:20 eV; [M+H]+
Name: Boldenone_Undecylenate
Formula: C30H44O3
Exact mass: 452.32905
SMILES: [H]C(C(C([H])([H])[H])14)(C(C([H])(C([H])([H])C4([H])[H])2)([H])C(C([H])([H])C(=C([H])3)C2(C([H])([H])[H])C(=C(C(=O)3)[H])[H])([H])[H])C(C(C1(OC(C(C(C([H])([H])C([H])([H])C([H])([H])C(C(C(C([H])=C([H])[H])([H])[H])([H])[H])([H])[H])([H])[H])([H])[H])=O)[H])([H])[H])([H])[H]
InChI: InChI=1S/C30H44O3/c1-4-5-6-7-8-9-10-11-12-28(32)33-27-16-15-25-24-14-13-22-21-23(31)17-19-29(22,2)26(24)18-20-30(25,27)3/h4,17,19,21,24-27H,1,5-16,18,20H2,2-3H3/t24?,25-,26-,27-,29?,30?/m0/s1
Instrument: Micromass Q-TOF II
Instrument type: LC-ESI-QTOF
Ms type: MS2
Ion mode: POSITIVE
Collision energy: 20 eV
Ionization: ESI
Precursor m/z: 453.33699
Precursor type: [M+H]+
m/z	relative intensity
67.053	142
69.0688	13
79.0537	14
81.0697	122
83.0849	37
85.0646	41
93.0692	79
95.0845	17
99.0801	22
107.0853	82
109.1004	21
121.0643	371
121.1057	39
123.1163	14
133.0646	27
135.1157	999
147.0816	139
147.1177	57
149.1316	486
159.0795	37
161.0884	14
161.1305	79
167.142	66
173.0953	184
179.1421	12
187.1102	63
213.1255	16
269.1869	651
287.1982	151
435.3244	14
453.3322	137
