Mass spectrum: Reserpine; LC-ESI-QTOF; MS2; CE:50 eV; [M+H]+
Name: Reserpine
Formula: C33H40N2O9
Exact mass: 608.27338
SMILES: CO[C@H]1[C@@H](C[C@@H]2CN3CCC4=C([C@H]3C[C@@H]2[C@@H]1C(=O)OC)NC5=C4C=CC(=C5)OC)OC(=O)C6=CC(=C(C(=C6)OC)OC)OC
InChI: InChI=1S/C33H40N2O9/c1-38-19-7-8-20-21-9-10-35-16-18-13-27(44-32(36)17-11-25(39-2)30(41-4)26(12-17)40-3)31(42-5)28(33(37)43-6)22(18)15-24(35)29(21)34-23(20)14-19/h7-8,11-12,14,18,22,24,27-28,31,34H,9-10,13,15-16H2,1-6H3/t18-,22+,24-,27-,28+,31+/m1/s1
Instrument: Micromass Q-TOF II
Instrument type: LC-ESI-QTOF
Ms type: MS2
Ion mode: POSITIVE
Collision energy: 50 eV
Ionization: ESI
Precursor m/z: 609.28132
Precursor type: [M+H]+
m/z	relative intensity
79.0542	16
91.0529	11
97.0655	22
109.064	16
111.0453	18
117.0641	11
118.0632	12
120.0816	15
122.0378	20
124.0527	24
130.0657	14
131.0723	42
132.0814	23
139.0752	49
143.0722	42
144.0791	32
145.0576	10
147.0748	16
148.0767	32
149.0642	11
152.0467	74
158.063	11
159.0687	112
160.077	50
161.0844	24
162.0919	15
167.0694	106
169.0834	10
172.0788	22
173.0828	19
174.0917	762
175.0813	14
176.1059	14
184.072	14
185.0824	27
186.0905	37
187.0969	19
188.1052	37
192.1004	63
195.0651	999
196.0683	43
197.0739	22
198.0924	15
199.0945	21
200.1053	41
204.1013	34
210.0919	16
212.1024	19
213.1059	14
214.1117	17
215.116	16
223.0939	15
224.1121	37
226.1118	13
227.1166	112
228.1207	72
229.123	39
235.1007	12
236.1234	78
237.1075	21
238.1177	28
239.1241	10
247.1011	13
248.1045	20
250.1094	28
251.1183	52
252.1207	48
253.1276	41
254.1325	14
260.1067	16
261.1122	13
262.1208	24
263.1199	13
264.1248	35
265.1308	69
266.1356	71
267.1398	32
273.1139	11
274.1177	23
275.1204	17
276.1322	47
277.132	21
278.1391	12
288.1323	19
289.1286	42
290.1333	39
291.1434	39
292.1427	14
303.1414	11
304.1428	20
305.1544	28
306.1576	28
307.1165	12
308.1525	10
321.1449	12
322.1501	16
333.1577	27
336.1632	24
337.1769	11
348.1489	29
349.1548	40
350.1576	45
363.1704	91
364.1762	109
365.1789	224
366.1912	21
367.1901	17
380.1768	15
381.1803	23
382.1871	19
393.1868	20
394.1817	26
395.1942	132
396.2004	146
397.2043	217
448.1972	11
