Mass spectrum: Sulfasalazine; LC-ESI-QTOF; MS2; CE:20 eV; [M+H]+
Name: Sulfasalazine
Formula: C18H14N4O5S
Exact mass: 398.06849
SMILES: [H]OC(=O)c(c(=O)1)c([H])c(=NN([H])c(c([H])3)c([H])c([H])c(c([H])3)S(=O)(=O)N([H])c(n2)c([H])c([H])c([H])c([H])2)c([H])c([H])1
InChI: InChI=1S/C18H14N4O5S/c23-16-9-6-13(11-15(16)18(24)25)21-20-12-4-7-14(8-5-12)28(26,27)22-17-3-1-2-10-19-17/h1-11,20H,(H,19,22)(H,24,25)/b21-13+
Instrument: Micromass Q-TOF II
Instrument type: LC-ESI-QTOF
Ms type: MS2
Ion mode: POSITIVE
Collision energy: 20 eV
Ionization: ESI
Precursor m/z: 399.07643
Precursor type: [M+H]+
m/z	relative intensity
213.0655	26
223.0496	14
241.0621	81
257.0552	13
305.0218	12
315.0872	16
317.1028	200
333.0987	45
335.1149	27
381.0648	999
399.0757	344
