Mass spectrum: Hydroxybutorphanol; LC-ESI-QTOF; MS2; CE:40 eV; [M+H]+
Name: Hydroxybutorphanol
Formula: C21H29NO3
Exact mass: 343.21474
SMILES: [H]Oc(c([H])5)c([H])c(c(c([H])5)3)C(C([H])([H])4)(C([H])([H])1)C(O[H])(C([H])([H])C([H])([H])C([H])([H])4)C([H])(C([H])([H])3)N(C([H])([H])C([H])(C([H])([H])2)C([H])([H])C([H])(O[H])2)C([H])([H])1
InChI: InChI=1S/C21H29NO3/c23-16-4-3-15-11-19-21(25)6-2-1-5-20(21,18(15)12-16)7-8-22(19)13-14-9-17(24)10-14/h3-4,12,14,17,19,23-25H,1-2,5-11,13H2
Instrument: Micromass Q-TOF II
Instrument type: LC-ESI-QTOF
Ms type: MS2
Ion mode: POSITIVE
Collision energy: 40 eV
Ionization: ESI
Precursor m/z: 344.22268
Precursor type: [M+H]+
m/z	relative intensity
55.0541	28
56.0504	144
57.0711	27
58.0658	50
65.0371	14
67.0536	310
69.0698	25
70.0651	80
72.0814	15
79.0538	18
81.0704	39
82.0651	38
83.0496	96
84.0816	16
91.0559	14
94.0669	53
95.0865	16
96.0819	314
98.0971	326
107.05	130
108.0802	10
114.0941	28
117.071	26
121.0664	65
127.0543	10
128.0605	11
128.1082	13
129.0728	34
131.0491	271
132.0571	39
133.0662	101
134.0983	20
136.1136	31
140.1074	336
141.0697	17
143.0858	25
144.0582	49
145.0658	485
146.0676	14
147.0804	33
153.0682	13
154.1253	20
155.0885	28
157.0662	902
157.1134	25
158.0747	26
159.0814	117
160.0772	556
161.0881	21
162.0941	16
165.0705	45
167.0864	38
169.0834	20
170.0736	28
171.0835	291
172.0847	20
173.096	206
174.0917	41
175.1146	15
179.0855	28
181.0866	15
182.0737	24
183.0817	160
184.0883	66
185.0979	859
186.0939	34
187.1111	57
195.0833	18
196.0913	37
197.0977	263
198.1016	46
199.1134	583
200.1084	45
201.129	15
202.1246	25
207.1192	13
210.1061	14
211.1122	27
212.1154	22
213.1278	153
214.1231	26
225.1288	95
226.1247	18
240.1449	24
241.1417	14
242.1551	291
244.1452	28
254.1549	13
282.1861	471
308.2015	21
326.2133	999
