Mass spectrum: Meprobamate; LC-ESI-QTOF; MS2; CE:50 eV; [M+H]+
Name: Meprobamate
Formula: C9H18N2O4
Exact mass: 218.12666
SMILES: [H]N([H])C(=O)OC([H])([H])C(C([H])([H])[H])(C([H])([H])OC(=O)N([H])[H])C([H])([H])C([H])([H])C([H])([H])[H]
InChI: InChI=1S/C9H18N2O4/c1-3-4-9(2,5-14-7(10)12)6-15-8(11)13/h3-6H2,1-2H3,(H2,10,12)(H2,11,13)
Instrument: Micromass Q-TOF II
Instrument type: LC-ESI-QTOF
Ms type: MS2
Ion mode: POSITIVE
Collision energy: 50 eV
Ionization: ESI
Precursor m/z: 219.13460
Precursor type: [M+H]+
m/z	relative intensity
53.0393	49
55.0545	999
59.0499	20
62.0237	147
67.0536	19
69.0699	41
