Mass spectrum: Hydroxyphenethylamine; LC-ESI-QTOF; MS2; CE:50 eV; [M+H]+
Name: Hydroxyphenethylamine
Formula: C8H11NO
Exact mass: 137.08406
SMILES: [H]Oc(c([H])1)c([H])c([H])c(c([H])1)C([H])([H])C([H])([H])N([H])[H]
InChI: InChI=1S/C8H11NO/c9-6-5-7-1-3-8(10)4-2-7/h1-4,10H,5-6,9H2
Instrument: Micromass Q-TOF II
Instrument type: LC-ESI-QTOF
Ms type: MS2
Ion mode: POSITIVE
Collision energy: 50 eV
Ionization: ESI
Precursor m/z: 138.09200
Precursor type: [M+H]+
m/z	relative intensity
50.0156	11
51.0234	398
52.0316	13
53.0398	14
55.0172	18
62.0133	10
63.0227	50
65.0379	464
66.0457	109
74.015	57
75.0232	81
76.0299	38
77.0389	999
78.0469	56
79.0203	17
89.0399	12
91.0547	189
93.0324	17
94.0427	89
95.0495	219
102.0465	55
103.0541	11
118.0649	17
