Mass spectrum: Prazosin; LC-ESI-QTOF; MS2; CE:40 eV; [M+H]+
Name: Prazosin
Formula: C19H21N5O4
Exact mass: 383.15935
SMILES: [H]C([H])([H])Oc(c([H])1)c(OC([H])([H])[H])c([H])c(c(N([H])[H])4)c(nc(n4)N(C([H])([H])2)C([H])([H])C([H])([H])N(C(=O)c(o3)c([H])c([H])c([H])3)C([H])([H])2)1
InChI: InChI=1S/C19H21N5O4/c1-26-15-10-12-13(11-16(15)27-2)21-19(22-17(12)20)24-7-5-23(6-8-24)18(25)14-4-3-9-28-14/h3-4,9-11H,5-8H2,1-2H3,(H2,20,21,22)
Instrument: Micromass Q-TOF II
Instrument type: LC-ESI-QTOF
Ms type: MS2
Ion mode: POSITIVE
Collision energy: 40 eV
Ionization: ESI
Precursor m/z: 384.16729
Precursor type: [M+H]+
m/z	relative intensity
94.031	10
95.0137	999
120.0454	45
138.0558	336
164.0719	172
174.0914	18
177.0706	29
186.0879	24
189.0698	18
190.0678	13
191.0816	13
201.0767	10
202.0852	42
203.0941	167
204.0783	78
205.076	78
206.0788	21
214.0697	10
215.0885	13
217.0743	26
218.0839	10
219.0914	12
220.0977	19
221.1033	53
222.089	24
229.0779	36
230.0873	19
231.0885	793
232.0956	179
233.1037	89
243.0932	12
244.1111	12
245.1035	66
247.1195	417
257.1036	59
258.1017	14
259.1194	19
271.1106	10
272.1148	27
273.1289	17
274.1268	17
288.1476	12
293.1268	11
297.0966	12
300.1112	27
321.1256	10
322.13	47
325.0942	40
340.1431	21
341.1287	12
350.1266	193
366.1563	35
368.1372	142
384.1703	15
