Mass spectrum: Diphenoxylate; LC-ESI-QTOF; MS2; CE:30 eV; [M+H]+
Name: Diphenoxylate
Formula: C30H32N2O2
Exact mass: 452.24638
SMILES: [H]C([H])([H])C([H])([H])OC(C(c(c4[H])c(c([H])c(c4[H])[H])[H])(C([H])([H])1)C([H])([H])C([H])([H])N(C(C(C(C#N)(c(c3[H])c(c([H])c(c([H])3)[H])[H])c(c2[H])c(c([H])c(c([H])2)[H])[H])([H])[H])([H])[H])C([H])([H])1)=O
InChI: InChI=1S/C30H32N2O2/c1-2-34-28(33)29(25-12-6-3-7-13-25)18-21-32(22-19-29)23-20-30(24-31,26-14-8-4-9-15-26)27-16-10-5-11-17-27/h3-17H,2,18-23H2,1H3
Instrument: Micromass Q-TOF II
Instrument type: LC-ESI-QTOF
Ms type: MS2
Ion mode: POSITIVE
Collision energy: 30 eV
Ionization: ESI
Precursor m/z: 453.25432
Precursor type: [M+H]+
m/z	relative intensity
57.0573	90
126.0549	11
143.0857	13
155.0935	12
158.0971	11
160.1119	12
165.0696	18
172.1118	24
187.0989	87
187.1352	69
190.0971	16
192.0808	78
204.1024	43
205.1093	22
218.1165	21
220.1127	14
232.1325	18
233.1403	121
246.1486	36
249.1387	74
260.165	14
351.1845	14
379.218	106
407.2127	36
425.2223	219
453.2523	999
