Mass spectrum: Amfenac; LC-ESI-QTOF; MS2; CE:30 eV; [M+H]+
Name: Amfenac
Formula: C15H13NO3
Exact mass: 255.08954
SMILES: [H]OC(=O)C([H])([H])c(c([H])2)c(N([H])[H])c(c([H])c([H])2)C(=O)c(c([H])1)c([H])c([H])c([H])c([H])1
InChI: InChI=1S/C15H13NO3/c16-14-11(9-13(17)18)7-4-8-12(14)15(19)10-5-2-1-3-6-10/h1-8H,9,16H2,(H,17,18)
Instrument: Micromass Q-TOF II
Instrument type: LC-ESI-QTOF
Ms type: MS2
Ion mode: POSITIVE
Collision energy: 30 eV
Ionization: ESI
Precursor m/z: 256.09748
Precursor type: [M+H]+
m/z	relative intensity
57.07	22
70.0651	33
71.0852	12
77.039	41
88.0764	49
95.05	12
104.0505	69
105.034	87
132.0446	471
144.0576	18
150.055	99
155.0861	20
160.039	41
165.0708	69
167.0738	79
180.0799	16
181.0866	14
182.0961	57
183.0801	27
192.0812	34
193.0728	17
195.0682	257
208.0758	17
209.0838	98
210.091	999
256.2629	31
