Mass spectrum: Boldenone_Undecylenate; LC-ESI-QTOF; MS2; CE:50 eV; [M+H]+
Name: Boldenone_Undecylenate
Formula: C30H44O3
Exact mass: 452.32905
SMILES: [H]C(C(C([H])([H])[H])14)(C(C([H])(C([H])([H])C4([H])[H])2)([H])C(C([H])([H])C(=C([H])3)C2(C([H])([H])[H])C(=C(C(=O)3)[H])[H])([H])[H])C(C(C1(OC(C(C(C([H])([H])C([H])([H])C([H])([H])C(C(C(C([H])=C([H])[H])([H])[H])([H])[H])([H])[H])([H])[H])([H])[H])=O)[H])([H])[H])([H])[H]
InChI: InChI=1S/C30H44O3/c1-4-5-6-7-8-9-10-11-12-28(32)33-27-16-15-25-24-14-13-22-21-23(31)17-19-29(22,2)26(24)18-20-30(25,27)3/h4,17,19,21,24-27H,1,5-16,18,20H2,2-3H3/t24?,25-,26-,27-,29?,30?/m0/s1
Instrument: Micromass Q-TOF II
Instrument type: LC-ESI-QTOF
Ms type: MS2
Ion mode: POSITIVE
Collision energy: 50 eV
Ionization: ESI
Precursor m/z: 453.33699
Precursor type: [M+H]+
m/z	relative intensity
55.0546	126
57.0697	11
67.0539	400
69.07	126
77.039	74
79.0547	328
81.0701	441
83.0865	79
85.0658	46
91.055	186
93.0706	451
95.0476	17
95.0861	87
97.0658	15
99.081	13
103.0549	13
105.0705	134
107.0863	298
109.0644	11
109.1018	20
115.0546	11
117.0703	21
119.0857	67
121.0653	999
121.1119	10
131.0862	15
133.0622	13
133.0965	30
135.0737	29
135.1172	258
145.0669	44
145.1042	27
147.0836	92
147.1179	55
149.1329	24
155.0886	11
158.0723	34
159.0816	36
161.0962	17
171.0813	11
173.0968	72
