Mass spectrum: Alfentanil; LC-ESI-QTOF; MS2; CE:20 eV; [M+H]+
Name: Alfentanil
Formula: C21H32N6O3
Exact mass: 416.25359
SMILES: [H]C([H])([H])OC([H])([H])C(N(C(=O)C([H])([H])C([H])([H])[H])c(c([H])3)c([H])c([H])c([H])c([H])3)(C([H])([H])1)C([H])([H])C([H])([H])N(C([H])([H])C([H])([H])N(N=2)C(=O)N(N2)C([H])([H])C([H])([H])[H])C([H])([H])1
InChI: InChI=1S/C21H32N6O3/c1-4-19(28)27(18-9-7-6-8-10-18)21(17-30-3)11-13-24(14-12-21)15-16-26-20(29)25(5-2)22-23-26/h6-10H,4-5,11-17H2,1-3H3
Instrument: Micromass Q-TOF II
Instrument type: LC-ESI-QTOF
Ms type: MS2
Ion mode: POSITIVE
Collision energy: 20 eV
Ionization: ESI
Precursor m/z: 417.26153
Precursor type: [M+H]+
m/z	relative intensity
99.0632	12
150.0917	11
165.1029	42
170.1044	106
197.1295	267
236.151	45
268.177	999
314.1874	144
346.2147	13
385.2368	426
417.263	382
