Mass spectrum: Thiethylperazine; LC-ESI-QTOF; MS2; CE:20 eV; [M+H]+
Name: Thiethylperazine
Formula: C22H29N3S2
Exact mass: 399.18029
SMILES: [H]C([H])([H])C([H])([H])Sc(c([H])4)c([H])c(c2c([H])4)N(c(c([H])3)c(c([H])c([H])c([H])3)S2)C([H])([H])C([H])([H])C([H])([H])N(C([H])([H])1)C([H])([H])C([H])([H])N(C([H])([H])[H])C([H])([H])1
InChI: InChI=1S/C22H29N3S2/c1-3-26-18-9-10-22-20(17-18)25(19-7-4-5-8-21(19)27-22)12-6-11-24-15-13-23(2)14-16-24/h4-5,7-10,17H,3,6,11-16H2,1-2H3
Instrument: Micromass Q-TOF II
Instrument type: LC-ESI-QTOF
Ms type: MS2
Ion mode: POSITIVE
Collision energy: 20 eV
Ionization: ESI
Precursor m/z: 400.18823
Precursor type: [M+H]+
m/z	relative intensity
113.1073	68
141.1384	383
239.0763	18
272.0563	18
300.0883	12
400.1878	999
