Mass spectrum: Ketorolac; LC-ESI-QTOF; MS2; CE:20 eV; [M+H]+
Name: Ketorolac
Formula: C15H13NO3
Exact mass: 255.08954
SMILES: [H]OC(=O)C([H])(C([H])([H])1)c(c([H])3)n(c(c([H])3)C(=O)c(c([H])2)c([H])c([H])c([H])c([H])2)C([H])([H])1
InChI: InChI=1S/C15H13NO3/c17-14(10-4-2-1-3-5-10)13-7-6-12-11(15(18)19)8-9-16(12)13/h1-7,11H,8-9H2,(H,18,19)
Instrument: Micromass Q-TOF II
Instrument type: LC-ESI-QTOF
Ms type: MS2
Ion mode: POSITIVE
Collision energy: 20 eV
Ionization: ESI
Precursor m/z: 256.09748
Precursor type: [M+H]+
m/z	relative intensity
77.0386	28
95.05	13
105.0335	999
106.0657	27
178.0498	41
210.0916	14
256.0952	69
