Mass spectrum: Dobutamine; LC-ESI-QTOF; MS2; CE:50 eV; [M+H]+
Name: Dobutamine
Formula: C18H23NO3
Exact mass: 301.16779
SMILES: [H]Oc(c([H])2)c([H])c([H])c(c([H])2)C([H])([H])C([H])([H])C([H])(C([H])([H])[H])N([H])C([H])([H])C([H])([H])c(c([H])1)c([H])c(O[H])c(O[H])c([H])1
InChI: InChI=1S/C18H23NO3/c1-13(2-3-14-4-7-16(20)8-5-14)19-11-10-15-6-9-17(21)18(22)12-15/h4-9,12-13,19-22H,2-3,10-11H2,1H3
Instrument: Micromass Q-TOF II
Instrument type: LC-ESI-QTOF
Ms type: MS2
Ion mode: POSITIVE
Collision energy: 50 eV
Ionization: ESI
Precursor m/z: 302.17573
Precursor type: [M+H]+
m/z	relative intensity
65.0387	87
77.0394	201
79.0552	93
81.072	11
91.0554	691
95.0504	53
107.0503	999
119.0504	121
137.0612	37
