Mass spectrum: Etamiphylline; LC-ESI-QTOF; MS2; CE:50 eV; [M+H]+
Name: Etamiphylline
Formula: C13H21N5O2
Exact mass: 279.16952
SMILES: [H]C([H])([H])C([H])([H])N(C([H])([H])C([H])([H])[H])C([H])([H])C([H])([H])n(c([H])2)c(C(=O)1)c(n2)N(C([H])([H])[H])C(=O)N(C([H])([H])[H])1
InChI: InChI=1S/C13H21N5O2/c1-5-17(6-2)7-8-18-9-14-11-10(18)12(19)16(4)13(20)15(11)3/h9H,5-8H2,1-4H3
Instrument: Micromass Q-TOF II
Instrument type: LC-ESI-QTOF
Ms type: MS2
Ion mode: POSITIVE
Collision energy: 50 eV
Ionization: ESI
Precursor m/z: 280.17746
Precursor type: [M+H]+
m/z	relative intensity
53.0376	10
54.0332	122
55.0377	11
56.0491	39
57.0458	12
58.0645	134
65.0373	13
66.0324	107
67.0321	216
68.048	353
69.0442	329
70.0639	18
72.0802	181
78.0342	97
79.0299	62
80.049	179
81.0452	280
82.0305	48
82.06	53
83.0606	92
86.0968	398
92.0429	72
93.0452	320
94.0461	449
95.0179	16
95.0605	999
96.0517	103
100.1125	98
105.0448	74
106.0408	108
107.0602	245
108.0502	304
109.076	105
110.0715	108
111.0197	27
111.0568	21
118.043	14
119.0537	90
120.0561	820
121.0592	271
122.0669	438
123.0563	172
124.0527	15
132.0565	36
133.0606	21
134.0721	367
135.0517	59
136.087	90
137.0815	39
146.0726	26
147.0672	413
148.0741	170
149.0594	14
150.0661	56
152.0454	67
163.0977	42
175.062	13
181.0707	10
192.0648	29
207.089	48
