Mass spectrum: Apomorphine; LC-ESI-QTOF; MS2; CE:20 eV; [M+H]+
Name: Apomorphine
Formula: C17H17NO2
Exact mass: 267.12593
SMILES: CN1CCC2=C3[C@H]1CC4=C(C3=CC=C2)C(=C(C=C4)O)O
InChI: InChI=1S/C17H17NO2/c1-18-8-7-10-3-2-4-12-15(10)13(18)9-11-5-6-14(19)17(20)16(11)12/h2-6,13,19-20H,7-9H2,1H3/t13-/m1/s1
Instrument: Micromass Q-TOF II
Instrument type: LC-ESI-QTOF
Ms type: MS2
Ion mode: POSITIVE
Collision energy: 20 eV
Ionization: ESI
Precursor m/z: 268.13387
Precursor type: [M+H]+
m/z	relative intensity
191.0861	181
219.0805	508
237.0903	999
268.1326	110
