Mass spectrum: Taurocholate; LC-ESI-QTOF; MS2; CE:40 eV; [M+H]+
Name: Taurocholate
Formula: C26H45NO7S
Exact mass: 515.29167
SMILES: C(C([H])([H])1)([H])(O[H])C([H])([H])C(C4([H])[H])(C(C(C3([H])C4([H])O[H])([H])C(C(O[H])(C(C3([H])2)(C([H])(C(C2([H])[H])([H])[H])C(C([H])([H])[H])([H])C(C([H])([H])C(N(C(C(S(=O)(=O)O[H])([H])[H])([H])[H])[H])=O)([H])[H])C([H])([H])[H])[H])([H])[H])(C([H])([H])[H])C1([H])[H])[H]
InChI: InChI=1S/C26H45NO7S/c1-15(4-7-23(31)27-10-11-35(32,33)34)18-5-6-19-24-20(14-22(30)26(18,19)3)25(2)9-8-17(28)12-16(25)13-21(24)29/h15-22,24,28-30H,4-14H2,1-3H3,(H,27,31)(H,32,33,34)/t15?,16?,17-,18?,19?,20?,21-,22+,24?,25?,26?/m1/s1
Instrument: Micromass Q-TOF II
Instrument type: LC-ESI-QTOF
Ms type: MS2
Ion mode: POSITIVE
Collision energy: 40 eV
Ionization: ESI
Precursor m/z: 516.29961
Precursor type: [M+H]+
m/z	relative intensity
55.0536	13
67.0534	20
69.0689	15
79.055	22
81.0699	78
83.048	18
83.0866	25
85.066	34
91.0555	21
93.0706	64
95.0861	93
97.1018	14
105.0708	102
107.0868	127
108.0124	33
109.102	77
117.0709	23
119.0864	122
121.1024	78
123.0824	46
123.119	26
125.0973	13
126.0233	999
129.0716	16
131.0875	88
133.1021	124
135.1181	67
137.0975	27
143.0867	82
145.1032	160
147.1181	115
149.0998	44
149.1362	20
155.0874	29
157.103	183
159.1189	212
161.1338	82
163.1178	34
164.0397	14
169.103	75
171.1193	141
173.1336	84
175.1086	25
175.1281	46
175.1519	26
177.1299	27
180.035	11
181.1027	24
183.1187	132
185.0887	26
185.1329	225
187.1392	102
189.1418	55
191.1457	11
194.0506	11
195.1192	33
196.1263	11
197.1346	84
199.1496	315
201.1638	72
203.1475	22
207.1194	11
208.066	207
209.1347	430
211.1504	155
213.1657	280
215.1743	65
217.1626	13
221.1347	13
222.0822	11
223.1517	79
225.1649	122
227.1558	474
229.1613	68
231.1756	13
234.0809	17
235.1484	26
237.1664	74
239.1807	66
241.188	130
243.1769	47
248.0966	30
249.1661	31
251.182	25
253.1933	41
254.2047	17
255.1821	42
262.1121	16
263.182	54
265.1958	25
267.1921	24
277.1967	42
279.2136	19
281.2018	34
283.2223	14
291.2141	13
293.2286	61
295.2369	131
309.2544	51
319.2446	287
337.2559	216
462.2726	25
