Mass spectrum: 4_Aminoantipyrine; LC-ESI-QTOF; MS2; CE:40 eV; [M+H]+
Name: 4_Aminoantipyrine
Formula: C11H13N3O
Exact mass: 203.10586
SMILES: [H]N([H])C(C(=O)1)=C(C([H])([H])[H])N(C([H])([H])[H])N1c(c([H])2)c([H])c([H])c([H])c([H])2
InChI: InChI=1S/C11H13N3O/c1-8-10(12)11(15)14(13(8)2)9-6-4-3-5-7-9/h3-7H,12H2,1-2H3
Instrument: Micromass Q-TOF II
Instrument type: LC-ESI-QTOF
Ms type: MS2
Ion mode: POSITIVE
Collision energy: 40 eV
Ionization: ESI
Precursor m/z: 204.11380
Precursor type: [M+H]+
m/z	relative intensity
56.0499	999
58.0649	24
65.0389	21
68.0493	17
77.0391	609
81.0444	11
83.0609	114
91.0549	63
92.0518	25
93.058	43
94.0658	216
95.0497	177
101.0391	11
103.0535	28
104.0499	52
106.066	15
115.0547	24
116.0516	12
117.0574	55
118.065	37
119.0568	31
128.0498	47
130.0661	30
131.0698	18
132.0801	27
143.0618	13
146.0637	13
