Mass spectrum: Doxorubicin; LC-ESI-QTOF; MS2; CE:40 eV; [M+H]+
Name: Doxorubicin
Formula: C27H29NO11
Exact mass: 543.17406
SMILES: c(=O)(c12)c(c5O[H])c(c(O[H])c(c35)C(C(C(=O)C([H])([H])O[H])(C(C3(OC([H])(C([H])([H])4)OC([H])(C([H])(O[H])C([H])(N([H])[H])4)C([H])([H])[H])[H])([H])[H])O[H])([H])[H])c(c1c(c(c(c2OC([H])([H])[H])[H])[H])[H])=O
InChI: InChI=1S/C27H29NO11/c1-10-22(31)13(28)6-17(38-10)39-15-8-27(36,16(30)9-29)7-12-19(15)26(35)21-20(24(12)33)23(32)11-4-3-5-14(37-2)18(11)25(21)34/h3-5,10,13,15,17,22,29,31,33,35-36H,6-9,28H2,1-2H3
Instrument: Micromass Q-TOF II
Instrument type: LC-ESI-QTOF
Ms type: MS2
Ion mode: POSITIVE
Collision energy: 40 eV
Ionization: ESI
Precursor m/z: 544.18200
Precursor type: [M+H]+
m/z	relative intensity
58.0645	18
60.0437	18
69.0326	56
71.049	41
72.0442	190
84.0799	12
86.0605	445
95.0497	33
112.076	37
113.0603	133
121.0655	35
130.0865	155
131.0483	11
135.044	58
145.0295	28
217.0504	13
275.0686	21
277.086	15
287.07	52
290.0572	18
293.0812	39
302.0583	11
303.0644	36
305.0815	37
306.0516	244
315.0656	50
318.0526	15
321.0755	748
323.0901	28
332.069	16
333.0762	156
336.0636	11
337.0703	12
343.0629	18
346.0474	999
351.0874	18
361.0711	462
364.0593	24
379.0828	23
