Mass spectrum: Mefenamic_Acid; LC-ESI-QTOF; MS2; CE:20 eV; [M+H]+
Name: Mefenamic_Acid
Formula: C15H15NO2
Exact mass: 241.11028
SMILES: [H]OC(=O)c(c([H])2)c(c([H])c([H])c([H])2)N([H])c(c([H])1)c(C([H])([H])[H])c(C([H])([H])[H])c([H])c([H])1
InChI: InChI=1S/C15H15NO2/c1-10-6-5-9-13(11(10)2)16-14-8-4-3-7-12(14)15(17)18/h3-9,16H,1-2H3,(H,17,18)
Instrument: Micromass Q-TOF II
Instrument type: LC-ESI-QTOF
Ms type: MS2
Ion mode: POSITIVE
Collision energy: 20 eV
Ionization: ESI
Precursor m/z: 242.11822
Precursor type: [M+H]+
m/z	relative intensity
209.0834	93
224.1059	999
