Mass spectrum: Prazosin; LC-ESI-QTOF; MS2; CE:50 eV; [M+H]+
Name: Prazosin
Formula: C19H21N5O4
Exact mass: 383.15935
SMILES: [H]C([H])([H])Oc(c([H])1)c(OC([H])([H])[H])c([H])c(c(N([H])[H])4)c(nc(n4)N(C([H])([H])2)C([H])([H])C([H])([H])N(C(=O)c(o3)c([H])c([H])c([H])3)C([H])([H])2)1
InChI: InChI=1S/C19H21N5O4/c1-26-15-10-12-13(11-16(15)27-2)21-19(22-17(12)20)24-7-5-23(6-8-24)18(25)14-4-3-9-28-14/h3-4,9-11H,5-8H2,1-2H3,(H2,20,21,22)
Instrument: Micromass Q-TOF II
Instrument type: LC-ESI-QTOF
Ms type: MS2
Ion mode: POSITIVE
Collision energy: 50 eV
Ionization: ESI
Precursor m/z: 384.16729
Precursor type: [M+H]+
m/z	relative intensity
67.0176	18
94.0287	14
95.0133	999
120.0452	25
138.0553	101
147.0459	20
150.0559	10
160.0539	16
161.07	26
163.065	12
164.0709	48
174.0909	39
175.0588	14
177.0679	56
185.0808	16
186.0826	32
187.0554	10
188.0467	25
189.0678	44
190.0631	15
191.0813	13
201.0774	17
202.0825	26
203.0918	122
204.0769	56
205.0724	56
206.062	18
214.0635	18
217.0731	34
218.0809	13
229.073	65
231.087	567
232.0941	31
233.1037	35
243.0922	13
245.1018	22
247.1142	30
257.1013	34
322.1282	13
350.1256	42
