Mass spectrum: Gingerol; LC-ESI-QTOF; MS2; CE:50 eV; [M+H]+
Name: 6-Gingerol
Name: (5S)-5-Hydroxy-1-(4-hydroxy-3-methoxyphenyl)-3-decanone
Formula: C17H26O4
Exact mass: 294.18311
SMILES: CCCCC[C@@H](CC(=O)CCC1=CC(=C(C=C1)O)OC)O
InChI: InChI=1S/C17H26O4/c1-3-4-5-6-14(18)12-15(19)9-7-13-8-10-16(20)17(11-13)21-2/h8,10-11,14,18,20H,3-7,9,12H2,1-2H3/t14-/m0/s1
Instrument: Micromass Q-TOF II
Instrument type: LC-ESI-QTOF
Ms type: MS2
Ion mode: POSITIVE
Collision energy: 50 eV
Ionization: ESI
Precursor m/z: 295.19105
Precursor type: [M+H]+
m/z	relative intensity
65.0388	24
66.0464	133
77.0406	85
79.0549	42
81.0707	22
91.0549	97
94.0423	903
95.0511	16
103.0542	93
105.0336	16
107.0526	27
109.0636	11
115.0544	67
116.0645	11
117.0705	25
119.0518	14
122.0367	999
137.0599	633
145.0656	11
