Mass spectrum: Methylergonovine; LC-ESI-QTOF; MS2; CE:20 eV; [M+H]+
Name: Methylergonovine
Formula: C20H25N3O2
Exact mass: 339.19468
SMILES: [H]OC([H])([H])C([H])(C([H])([H])C([H])([H])[H])N([H])C(=O)C([H])(C([H])=1)C([H])([H])N(C([H])([H])[H])C([H])(C([H])([H])2)C1c(c([H])4)c(c(c([H])c([H])4)3)c(c([H])n([H])3)2
InChI: InChI=1S/C20H25N3O2/c1-3-14(11-24)22-20(25)13-7-16-15-5-4-6-17-19(15)12(9-21-17)8-18(16)23(2)10-13/h4-7,9,13-14,18,21,24H,3,8,10-11H2,1-2H3,(H,22,25)
Instrument: Micromass Q-TOF II
Instrument type: LC-ESI-QTOF
Ms type: MS2
Ion mode: POSITIVE
Collision energy: 20 eV
Ionization: ESI
Precursor m/z: 340.20262
Precursor type: [M+H]+
m/z	relative intensity
180.0825	19
197.1088	81
208.0782	222
223.1242	337
225.1054	23
251.1202	39
269.1299	32
279.1507	58
297.161	286
309.1609	13
322.1932	34
325.1815	19
340.2035	999
