Mass spectrum: Ampicillin; LC-ESI-QTOF; MS2; CE:20 eV; [M+H]+
Name: Ampicillin
Formula: C16H19N3O4S
Exact mass: 349.10963
SMILES: [H]OC(=O)C([H])(N21)C(C([H])([H])[H])(C([H])([H])[H])SC([H])(C([H])(N([H])C(=O)C([H])(N([H])[H])c(c([H])3)c([H])c([H])c([H])c([H])3)C(=O)2)1
InChI: InChI=1S/C16H19N3O4S/c1-16(2)11(15(22)23)19-13(21)10(14(19)24-16)18-12(20)9(17)8-6-4-3-5-7-8/h3-7,9-11,14H,17H2,1-2H3,(H,18,20)(H,22,23)
Instrument: Micromass Q-TOF II
Instrument type: LC-ESI-QTOF
Ms type: MS2
Ion mode: POSITIVE
Collision energy: 20 eV
Ionization: ESI
Precursor m/z: 350.11757
Precursor type: [M+H]+
m/z	relative intensity
70.0648	41
79.0537	13
96.044	12
106.0645	999
114.0003	100
114.0385	47
118.0645	31
146.0594	30
160.0416	352
164.0523	114
165.0651	42
174.0536	358
187.0524	15
188.0584	13
192.0465	482
193.0594	31
211.0701	71
215.0471	21
218.0255	42
259.0877	34
261.1026	11
287.0836	16
289.0975	14
305.093	43
305.1452	11
333.0898	26
350.1144	15
