Mass spectrum: Oxytetracycline; LC-ESI-QTOF; MS2; CE:50 eV; [M+H]+
Name: Oxytetracycline
Formula: C22H24N2O9
Exact mass: 460.14818
SMILES: [H]OC(N([H])[H])=C(C(=O)4)C(=O)C(O[H])(C(=O)3)C([H])(C([H])(N(C([H])([H])[H])C([H])([H])[H])4)C([H])(O[H])C([H])(C=13)C(O[H])(C([H])([H])[H])c(c([H])2)c(c(O[H])c([H])c([H])2)C(O[H])1
InChI: InChI=1S/C22H24N2O9/c1-21(32)7-5-4-6-8(25)9(7)15(26)10-12(21)17(28)13-14(24(2)3)16(27)11(20(23)31)19(30)22(13,33)18(10)29/h4-6,12-14,17,25-26,28,31-33H,23H2,1-3H3/b20-11-/t12-,13-,14+,17+,21-,22+/m1/s1
Instrument: Micromass Q-TOF II
Instrument type: LC-ESI-QTOF
Ms type: MS2
Ion mode: POSITIVE
Collision energy: 50 eV
Ionization: ESI
Precursor m/z: 461.15612
Precursor type: [M+H]+
m/z	relative intensity
55.018	13
58.0652	53
68.0488	12
70.0653	38
83.0135	42
84.0445	19
86.0602	35
97.0346	11
98.0603	300
107.0129	13
109.0288	25
117.0716	27
123.0101	31
124.0767	15
125.0199	15
126.0546	46
127.0547	70
128.0668	25
129.0717	61
137.0241	32
145.0651	295
150.9999	17
152.0666	35
153.0186	51
154.0508	47
155.0491	74
157.0667	44
159.0806	26
165.07	21
169.0647	12
171.0742	17
172.061	25
173.058	37
174.0643	26
175.0776	16
178.0636	12
179.0851	16
180.0651	21
181.0644	16
183.0803	33
184.0533	51
185.0601	73
186.0594	17
187.0751	65
189.0679	12
193.0724	14
195.0791	37
196.0543	16
197.0589	19
198.0718	15
199.0739	37
200.0479	14
201.0545	999
205.0618	11
207.0814	22
208.0591	19
209.0572	23
210.0662	13
211.0738	182
212.047	217
213.0548	287
219.0679	11
221.0617	25
223.0739	53
224.0495	21
225.0516	21
226.0612	21
227.0707	46
229.0576	18
233.0552	15
235.0768	72
236.0496	20
237.0543	59
238.0602	12
239.0712	148
240.041	205
241.043	22
242.0559	115
247.0735	13
249.0537	17
250.0608	19
251.0687	89
252.042	50
253.054	40
254.0569	174
255.0621	42
257.0695	48
258.051	120
259.0587	13
261.0517	21
263.0687	62
264.0431	24
265.0557	36
266.0562	54
267.0628	74
268.0348	803
269.0657	17
270.0484	66
273.0656	15
278.0663	12
279.0643	92
281.0656	21
283.0588	462
285.0732	20
289.0481	22
291.066	33
292.0358	27
294.049	92
295.0613	11
297.0974	42
301.0703	42
307.0583	48
309.0777	10
317.0447	12
319.0636	25
320.0277	14
321.0468	14
322.045	167
335.0573	33
337.062	26
347.0833	14
350.0411	417
365.0692	25
376.0832	18
