Mass spectrum: Hydrocortisone; LC-ESI-QTOF; MS2; CE:40 eV; [M+H]+
Name: (8S,9S,10R,11S,13S,14S,17R)-11,17-dihydroxy-17-(2-hydroxyacetyl)-10,13-dimethyl-2,6,7,8,9,11,12,14,15,16-decahydro-1H-cyclopenta[a]phenanthren-3-one
Name: Cortisol
Name: Hydrocortisone
Formula: C21H30O5
Exact mass: 362.20932
SMILES: C[C@]12CCC(=O)C=C1CC[C@@H]3[C@@H]2[C@H](C[C@]4([C@H]3CC[C@@]4(C(=O)CO)O)C)O
InChI: InChI=1S/C21H30O5/c1-19-7-5-13(23)9-12(19)3-4-14-15-6-8-21(26,17(25)11-22)20(15,2)10-16(24)18(14)19/h9,14-16,18,22,24,26H,3-8,10-11H2,1-2H3/t14-,15-,16-,18+,19-,20-,21-/m0/s1
Instrument: Micromass Q-TOF II
Instrument type: LC-ESI-QTOF
Ms type: MS2
Ion mode: POSITIVE
Collision energy: 40 eV
Ionization: ESI
Precursor m/z: 363.21726
Precursor type: [M+H]+
m/z	relative intensity
55.0177	17
55.053	25
57.0334	11
67.0532	68
69.0325	20
69.0692	33
71.0483	18
77.038	58
79.0544	145
81.0698	135
83.049	80
91.0546	272
93.0701	239
95.0479	36
95.0856	105
97.0647	289
99.0428	26
103.0544	27
105.0698	435
107.045	39
107.085	152
109.0648	251
109.106	11
111.0774	17
115.0541	56
116.0627	20
117.0695	190
118.0751	11
119.0853	312
121.0649	999
123.0807	264
125.0581	10
128.0629	102
129.0692	190
130.078	51
131.0853	300
132.0557	12
133.0603	27
133.1004	127
135.0811	109
135.1212	15
137.0953	30
141.0699	124
142.0778	125
143.0852	290
144.0914	46
145.0571	38
145.1003	330
146.1044	30
147.0736	65
147.1153	259
148.0876	26
149.0974	46
153.0692	37
154.077	62
155.0853	167
156.0942	41
157.0538	10
157.1004	205
158.074	32
158.1131	11
159.0758	54
159.1129	187
160.0953	17
161.0966	82
161.1321	12
163.111	155
165.0709	52
166.0792	28
167.0848	89
168.0942	53
169.1012	182
170.0924	12
170.1081	16
171.0757	22
171.1153	133
172.1228	39
173.1	108
173.137	24
174.1033	17
175.1111	66
176.122	11
177.1261	11
178.0777	17
179.0868	53
180.0933	41
181.1008	108
182.1074	38
183.1165	146
184.1107	27
185.1184	123
187.1115	44
189.1285	34
191.0881	22
192.0933	30
193.1024	62
194.109	31
195.1161	95
196.1186	31
197.1229	107
198.1127	13
199.1218	53
200.1169	17
201.1285	25
203.0892	12
205.1032	30
206.1086	29
207.1176	63
208.1235	29
209.1285	79
210.1275	30
211.1302	54
211.1477	32
212.1209	16
213.1299	50
214.1407	11
215.1419	20
217.1078	13
219.1151	27
220.1208	18
221.129	37
223.1353	56
224.124	14
225.1405	63
226.1359	27
227.1435	33
228.1511	25
233.1274	19
234.1282	12
235.1429	31
237.1309	19
238.1403	11
239.1438	45
241.1589	40
242.1637	20
243.1675	14
249.1539	18
250.1439	12
251.143	30
252.1475	13
253.1569	127
261.1356	10
267.1731	21
268.1794	23
281.1536	13
286.1923	13
