Mass spectrum: Methionine_Enkephalin; LC-ESI-QTOF; MS2; CE:50 eV; [M+H]+
Name: Methionine_Enkephalin
Formula: C27H35N5O7S
Exact mass: 573.22572
SMILES: [H]C([H])(c(c2[H])c(c(c(c2[H])O[H])[H])[H])C([H])(N([H])[H])C(N(C(C(N(C(C(N(C(C([H])([H])c(c1[H])c(c(c(c1[H])[H])[H])[H])([H])C(N(C([H])(C(=O)O[H])C([H])([H])C(SC([H])([H])[H])([H])[H])[H])=O)[H])=O)([H])[H])[H])=O)([H])[H])[H])=O
InChI: InChI=1S/C27H35N5O7S/c1-40-12-11-21(27(38)39)32-26(37)22(14-17-5-3-2-4-6-17)31-24(35)16-29-23(34)15-30-25(36)20(28)13-18-7-9-19(33)10-8-18/h2-10,20-22,33H,11-16,28H2,1H3,(H,29,34)(H,30,36)(H,31,35)(H,32,37)(H,38,39)
Instrument: Micromass Q-TOF II
Instrument type: LC-ESI-QTOF
Ms type: MS2
Ion mode: POSITIVE
Collision energy: 50 eV
Ionization: ESI
Precursor m/z: 574.23366
Precursor type: [M+H]+
m/z	relative intensity
87.0548	15
91.0548	64
103.0542	16
104.054	56
107.0473	10
115.0499	28
119.0494	81
120.081	999
130.0572	12
132.0819	18
133.0313	46
136.0759	808
147.0442	18
148.0756	136
150.058	40
176.0729	13
177.1024	79
193.0977	114
221.0923	126
