Mass spectrum: Salmeterol; LC-ESI-QTOF; MS2; CE:20 eV; [M+H]+
Name: Salmeterol
Formula: C25H37NO4
Exact mass: 415.27226
SMILES: [H]OC([H])([H])c(c(O[H])2)c([H])c(c([H])c([H])2)C([H])(O[H])C([H])([H])N([H])C([H])([H])C([H])([H])C([H])([H])C([H])([H])C([H])([H])C([H])([H])OC([H])([H])C([H])([H])C([H])([H])C([H])([H])c(c([H])1)c([H])c([H])c([H])c([H])1
InChI: InChI=1S/C25H37NO4/c27-20-23-18-22(13-14-24(23)28)25(29)19-26-15-7-1-2-8-16-30-17-9-6-12-21-10-4-3-5-11-21/h3-5,10-11,13-14,18,25-29H,1-2,6-9,12,15-17,19-20H2
Instrument: Micromass Q-TOF II
Instrument type: LC-ESI-QTOF
Ms type: MS2
Ion mode: POSITIVE
Collision energy: 20 eV
Ionization: ESI
Precursor m/z: 416.28020
Precursor type: [M+H]+
m/z	relative intensity
91.0547	32
131.0863	10
133.1001	15
135.0816	15
148.0767	12
230.1537	50
232.1685	389
248.1635	83
380.2584	973
398.2691	999
416.2791	95
