Mass spectrum: Sulfadimethoxine; LC-ESI-QTOF; MS2; CE:20 eV; [M+H]+
Name: Sulfadimethoxine
Formula: C12H14N4O4S
Exact mass: 310.07358
SMILES: [H]C([H])([H])Oc(n2)nc(c([H])c(OC([H])([H])[H])2)N([H])S(=O)(=O)c(c([H])1)c([H])c([H])c(N([H])[H])c([H])1
InChI: InChI=1S/C12H14N4O4S/c1-19-11-7-10(14-12(15-11)20-2)16-21(17,18)9-5-3-8(13)4-6-9/h3-7H,13H2,1-2H3,(H,14,15,16)
Instrument: Micromass Q-TOF II
Instrument type: LC-ESI-QTOF
Ms type: MS2
Ion mode: POSITIVE
Collision energy: 20 eV
Ionization: ESI
Precursor m/z: 311.08152
Precursor type: [M+H]+
m/z	relative intensity
92.0502	172
108.0451	240
127.0511	16
154.062	29
155.0699	73
156.0121	933
156.0772	879
173.0603	27
218.0236	212
230.0805	45
245.1033	388
247.1182	11
311.0805	999
