Mass spectrum: Remifentanil; LC-ESI-QTOF; MS2; CE:40 eV; [M+H]+
Name: Remifentanil
Formula: C20H28N2O5
Exact mass: 376.19982
SMILES: [H]C([H])([H])OC(=O)C([H])([H])C([H])([H])N(C([H])([H])1)C([H])([H])C([H])([H])C(C(=O)OC([H])([H])[H])(N(C(=O)C([H])([H])C([H])([H])[H])c(c([H])2)c([H])c([H])c([H])c([H])2)C([H])([H])1
InChI: InChI=1S/C20H28N2O5/c1-4-17(23)22(16-8-6-5-7-9-16)20(19(25)27-3)11-14-21(15-12-20)13-10-18(24)26-2/h5-9H,4,10-15H2,1-3H3
Instrument: Micromass Q-TOF II
Instrument type: LC-ESI-QTOF
Ms type: MS2
Ion mode: POSITIVE
Collision energy: 40 eV
Ionization: ESI
Precursor m/z: 377.20776
Precursor type: [M+H]+
m/z	relative intensity
53.0398	39
57.0338	14
59.0493	37
71.0502	10
81.0342	449
83.0505	16
84.0451	236
85.0655	28
94.0669	24
113.0603	999
116.0713	346
118.0668	19
130.0679	11
131.0744	13
132.0812	32
136.076	48
142.0874	19
146.0972	258
154.087	29
158.0978	48
168.1018	32
187.1238	27
196.0966	12
202.1233	47
228.1209	13
261.1622	10
