Mass spectrum: Poldine; LC-ESI-QTOF; MS2; CE:50 eV; [M+H]+
Name: Poldine
Formula: [C21H26NO3]+
Exact mass: 340.19127
SMILES: C[N+]1(CCCC1COC(=O)C(C2=CC=CC=C2)(C3=CC=CC=C3)O)C
InChI: InChI=1S/C21H26NO3/c1-22(2)15-9-14-19(22)16-25-20(23)21(24,17-10-5-3-6-11-17)18-12-7-4-8-13-18/h3-8,10-13,19,24H,9,14-16H2,1-2H3/q+1
Instrument: Micromass Q-TOF II
Instrument type: LC-ESI-QTOF
Ms type: MS2
Ion mode: POSITIVE
Collision energy: 50 eV
Ionization: ESI
Precursor m/z: 341.19921
Precursor type: [M+H]+
m/z	relative intensity
57.0345	42
57.071	76
58.066	313
59.0689	62
67.0544	213
68.0574	67
69.0682	20
71.0731	17
77.04	233
78.0427	76
82.0665	29
83.0693	14
84.0816	93
85.067	285
86.0698	85
95.0509	69
96.0558	31
97.0892	56
98.0926	20
105.035	516
106.0382	254
112.1132	36
113.1174	19
115.0986	14
128.1088	11
130.1235	999
131.1267	574
165.0703	44
166.074	74
167.0828	10
