Mass spectrum: Ormetoprim; LC-ESI-QTOF; MS2; CE:40 eV; [M+H]+
Name: Ormetoprim
Formula: C14H18N4O2
Exact mass: 274.14298
SMILES: [H]N([H])c(n2)nc(N([H])[H])c(c([H])2)C([H])([H])c(c([H])1)c(C([H])([H])[H])c([H])c(OC([H])([H])[H])c(OC([H])([H])[H])1
InChI: InChI=1S/C14H18N4O2/c1-8-4-11(19-2)12(20-3)6-9(8)5-10-7-17-14(16)18-13(10)15/h4,6-7H,5H2,1-3H3,(H4,15,16,17,18)
Instrument: Micromass Q-TOF II
Instrument type: LC-ESI-QTOF
Ms type: MS2
Ion mode: POSITIVE
Collision energy: 40 eV
Ionization: ESI
Precursor m/z: 275.15092
Precursor type: [M+H]+
m/z	relative intensity
54.0324	13
81.0445	464
83.0482	11
91.0532	15
106.0422	24
107.0468	18
109.0633	21
110.0591	84
111.0662	33
117.0693	11
121.0646	70
123.0662	999
124.0769	39
130.0658	12
145.0672	27
149.0598	98
158.0621	11
165.0876	44
170.0615	21
171.0771	13
172.0777	42
173.0756	18
174.0846	10
184.0789	22
185.0755	16
186.091	27
187.097	72
189.1067	23
198.0706	14
199.0818	46
200.0793	27
201.111	74
212.0849	18
213.0961	11
214.0923	24
215.0899	49
217.1064	56
227.0936	19
228.0874	11
229.1059	52
230.1004	15
231.1219	64
242.0863	11
243.0923	32
257.101	64
259.1173	520
