Mass spectrum: Buspirone; LC-ESI-QTOF; MS2; CE:50 eV; [M+H]+
Name: Buspirone
Formula: C21H31N5O2
Exact mass: 385.24778
SMILES: [H]c(c([H])4)c([H])nc(n4)N(C([H])([H])1)C([H])([H])C([H])([H])N(C([H])([H])C([H])([H])C([H])([H])C([H])([H])N(C(=O)3)C(=O)C([H])([H])C(C([H])([H])3)(C([H])([H])2)C([H])([H])C([H])([H])C([H])([H])2)C([H])([H])1
InChI: InChI=1S/C21H31N5O2/c27-18-16-21(6-1-2-7-21)17-19(28)26(18)11-4-3-10-24-12-14-25(15-13-24)20-22-8-5-9-23-20/h5,8-9H,1-4,6-7,10-17H2
Instrument: Micromass Q-TOF II
Instrument type: LC-ESI-QTOF
Ms type: MS2
Ion mode: POSITIVE
Collision energy: 50 eV
Ionization: ESI
Precursor m/z: 386.25572
Precursor type: [M+H]+
m/z	relative intensity
55.0538	16
56.0481	12
67.053	63
72.0804	30
78.0346	21
79.0291	29
79.0542	28
80.0495	110
81.0433	30
81.0699	171
84.0805	13
95.0602	148
95.086	191
96.0536	56
97.0388	52
98.096	92
105.0457	11
106.039	29
107.0837	18
108.0556	19
109.0645	249
109.101	141
110.0956	12
120.0547	27
122.0704	999
123.0799	103
124.1126	16
126.0904	24
131.0609	10
133.0632	53
140.1063	73
148.0859	220
150.0997	70
152.106	114
168.0999	48
180.0984	20
222.1474	10
