Mass spectrum: Prednisolone; LC-ESI-QTOF; MS2; CE:10 eV; [M+H]+
Name: Prednisolone
Formula: C21H28O5
Exact mass: 360.19367
SMILES: [H]OC([H])([H])C(=O)C(O[H])(C([H])([H])4)C(C([H])([H])[H])(C([H])([H])3)C([H])(C([H])([H])4)C([H])(C([H])([H])1)C([H])(C([H])(O[H])3)C(C([H])=2)(C([H])([H])[H])C(=C([H])C(=O)C([H])2)C([H])([H])1
InChI: InChI=1S/C21H28O5/c1-19-7-5-13(23)9-12(19)3-4-14-15-6-8-21(26,17(25)11-22)20(15,2)10-16(24)18(14)19/h5,7,9,14-16,18,22,24,26H,3-4,6,8,10-11H2,1-2H3
Instrument: Micromass Q-TOF II
Instrument type: LC-ESI-QTOF
Ms type: MS2
Ion mode: POSITIVE
Collision energy: 10 eV
Ionization: ESI
Precursor m/z: 361.20161
Precursor type: [M+H]+
m/z	relative intensity
147.0813	67
171.0813	14
173.0975	23
223.1129	18
237.1281	10
239.1426	12
263.1434	13
265.1588	42
267.175	18
277.1602	17
279.1721	74
283.1693	17
289.1596	69
295.1707	21
297.1859	25
307.1704	221
325.181	361
343.1921	999
361.2029	944
