Mass spectrum: Spectinomycin; LC-ESI-QTOF; MS2; CE:30 eV; [M+H]+
Name: Spectinomycin
Formula: C14H24N2O7
Exact mass: 332.15835
SMILES: [H]C([H])([H])N([H])C([H])(C([H])(O[H])1)C([H])(O[H])C([H])(O2)C([H])(OC(O[H])(C(=O)3)C([H])(OC([H])(C([H])([H])[H])C([H])([H])3)2)C([H])(N([H])C([H])([H])[H])1
InChI: InChI=1S/C14H24N2O7/c1-5-4-6(17)14(20)13(21-5)22-12-10(19)7(15-2)9(18)8(16-3)11(12)23-14/h5,7-13,15-16,18-20H,4H2,1-3H3
Instrument: Micromass Q-TOF II
Instrument type: LC-ESI-QTOF
Ms type: MS2
Ion mode: POSITIVE
Collision energy: 30 eV
Ionization: ESI
Precursor m/z: 333.16629
Precursor type: [M+H]+
m/z	relative intensity
55.0548	10
56.0501	14
57.0341	31
58.0656	18
60.0447	11
67.0534	10
68.0495	29
69.0337	102
70.0655	146
71.0491	165
72.0449	357
73.0525	66
74.0605	248
80.05	11
81.0343	108
82.0658	126
83.0503	63
84.0445	75
84.0825	29
85.03	101
85.0749	73
86.0611	197
87.0075	15
87.0457	12
87.0923	13
88.0766	35
94.0658	314
95.051	15
96.0444	49
96.0821	52
97.041	27
97.0595	28
98.0605	999
99.0453	548
99.0795	16
100.0377	142
100.0765	335
101.0566	21
102.0555	120
109.0293	112
110.0605	122
111.0568	64
112.0363	111
112.0768	467
112.1127	10
113.0291	14
113.0592	11
114.0553	174
114.096	24
115.0614	19
116.0707	371
122.0602	516
123.0785	59
124.0763	106
125.0251	12
125.0613	11
125.1065	31
126.0549	31
126.0935	12
127.0399	79
128.0685	84
129.055	171
130.0484	13
130.0864	30
132.0655	16
135.092	104
136.0764	13
138.0567	94
138.0955	10
139.0621	51
140.0707	775
141.0604	36
142.0859	74
144.0854	12
145.0493	31
152.0748	34
153.1025	115
154.0853	64
156.0658	83
157.0683	19
158.0812	209
160.0948	11
168.0713	22
170.082	65
171.0642	11
171.1123	22
172.0964	50
176.0894	12
178.0694	13
180.0941	17
182.0805	65
184.0793	24
186.0814	16
187.1058	15
189.1231	241
196.0882	28
198.0854	19
199.1076	20
200.0918	100
205.1183	17
207.1335	51
212.0933	15
214.1001	18
217.1167	13
224.0888	14
227.1161	23
228.0865	50
233.1172	11
238.1136	20
240.0868	14
242.0987	24
243.1322	74
244.1148	14
245.1109	25
247.128	18
256.1172	14
258.0973	31
266.1018	19
284.1106	73
287.1575	13
289.1432	14
291.1141	16
302.1223	74
305.1697	30
315.1533	32
333.1642	466
