Mass spectrum: Oxybutynine; LC-ESI-QTOF; MS2; CE:50 eV; [M+H]+
Name: Oxybutynine
Formula: C22H31NO3
Exact mass: 357.23039
SMILES: [H]C([H])([H])C([H])([H])N(C([H])([H])C#CC([H])([H])OC(=O)C(O[H])(c(c([H])2)c([H])c([H])c([H])c([H])2)C([H])(C([H])([H])1)C([H])([H])C([H])([H])C([H])([H])C([H])([H])1)C([H])([H])C([H])([H])[H]
InChI: InChI=1S/C22H31NO3/c1-3-23(4-2)17-11-12-18-26-21(24)22(25,19-13-7-5-8-14-19)20-15-9-6-10-16-20/h5,7-8,13-14,20,25H,3-4,6,9-10,15-18H2,1-2H3
Instrument: Micromass Q-TOF II
Instrument type: LC-ESI-QTOF
Ms type: MS2
Ion mode: POSITIVE
Collision energy: 50 eV
Ionization: ESI
Precursor m/z: 358.23833
Precursor type: [M+H]+
m/z	relative intensity
51.023	12
54.0346	47
55.0543	47
58.065	496
65.0372	12
67.0531	53
68.0491	115
69.0337	92
69.0697	33
72.0807	999
73.0892	38
74.0966	58
77.0389	265
79.0546	554
80.0499	96
81.0614	87
82.0657	20
83.0862	30
86.0964	37
91.0548	420
93.0683	18
94.0656	137
95.0495	88
96.0816	17
97.029	36
103.0541	30
105.0342	457
105.0714	17
107.0495	279
108.0813	74
115.0549	52
117.0698	75
121.063	12
127.0541	23
128.0621	115
129.0699	251
141.0701	21
142.1229	151
143.0856	38
145.0642	30
157.0653	17
165.0709	20
166.0768	12
171.1158	10
