Mass spectrum: Adiphenine; LC-ESI-QTOF; MS2; CE:10 eV; [M+H]+
Name: Adiphenine
Formula: C20H25NO2
Exact mass: 311.18853
SMILES: [H]c(c([H])2)c([H])c([H])c(c([H])2)C([H])(C(=O)OC([H])([H])C([H])([H])N(C([H])([H])C([H])([H])[H])C([H])([H])C([H])([H])[H])c(c([H])1)c([H])c([H])c([H])c([H])1
InChI: InChI=1S/C20H25NO2/c1-3-21(4-2)15-16-23-20(22)19(17-11-7-5-8-12-17)18-13-9-6-10-14-18/h5-14,19H,3-4,15-16H2,1-2H3
Instrument: Micromass Q-TOF II
Instrument type: LC-ESI-QTOF
Ms type: MS2
Ion mode: POSITIVE
Collision energy: 10 eV
Ionization: ESI
Precursor m/z: 312.19647
Precursor type: [M+H]+
m/z	relative intensity
100.1126	11
239.1059	18
312.192	999
