Mass spectrum: Apramycin; LC-ESI-QTOF; MS2; CE:40 eV; [M+H]+
Name: Apramycin
Formula: C21H41N5O11
Exact mass: 539.28026
SMILES: [H]OC([H])([H])C([H])(O1)C([H])(N([H])[H])C([H])(O[H])C([H])(O[H])C([H])1OC([H])(O2)C([H])(N([H])C([H])([H])[H])C([H])(O[H])C([H])(O3)C([H])2C([H])([H])C([H])(N([H])[H])C([H])(OC([H])(C([H])(O[H])4)C([H])(N([H])[H])C([H])([H])C([H])(N([H])[H])C([H])(O[H])4)3
InChI: InChI=1S/C21H41N5O11/c1-26-11-14(30)18-8(33-20(11)37-21-16(32)13(29)10(25)9(4-27)34-21)3-7(24)19(36-18)35-17-6(23)2-5(22)12(28)15(17)31/h5-21,26-32H,2-4,22-25H2,1H3/t5-,6+,7-,8+,9-,10-,11+,12+,13+,14-,15-,16-,17-,18+,19?,20-,21-/m1/s1
Instrument: Micromass Q-TOF II
Instrument type: LC-ESI-QTOF
Ms type: MS2
Ion mode: POSITIVE
Collision energy: 40 eV
Ionization: ESI
Precursor m/z: 540.28820
Precursor type: [M+H]+
m/z	relative intensity
60.0418	17
68.0474	17
69.0389	11
72.0449	49
74.0608	54
80.0491	13
81.0347	15
82.0349	12
82.0642	19
84.0463	109
86.0609	77
90.0567	36
94.0687	25
96.0446	136
97.0287	11
98.0602	57
99.0467	10
100.0372	13
102.0544	80
108.0469	20
109.0291	12
109.0756	16
110.061	120
111.047	119
114.0585	29
116.0727	18
118.0537	10
122.0586	51
124.0752	20
126.0566	190
128.0723	83
132.0457	16
135.0943	37
136.0788	21
137.0747	11
138.0575	31
139.0817	12
140.0716	44
142.049	30
144.065	125
145.1	50
146.0781	22
150.0564	49
151.0344	10
152.0927	42
153.0986	16
154.0857	21
162.0775	177
163.1077	193
164.0707	43
168.0703	44
172.0981	16
173.0944	17
175.1078	26
180.0848	19
181.0939	58
182.0823	41
187.1169	25
199.1091	295
200.0936	95
201.1207	50
211.1028	14
217.1185	999
225.1194	19
227.1004	12
229.1274	11
241.1142	11
253.1189	50
255.1375	15
259.1281	11
271.1311	92
289.136	35
295.1342	14
308.1565	15
313.1389	36
326.1646	11
