Mass spectrum: Cymarin; LC-ESI-QTOF; MS2; CE:30 eV; [M+H]+
Name: Cymarin
Formula: C30H44O9
Exact mass: 548.29853
SMILES: C(OC(C([H])([H])1)([H])C(O[H])([H])C([H])(OC1(OC([H])(C([H])([H])2)C(C(O[H])(C([H])([H])6)C(C(C5(C6([H])[H])[H])([H])C([H])([H])C(C(C5(O[H])3)(C([H])([H])[H])C(C(=C([H])4)C(OC(=O)4)([H])[H])(C([H])([H])C3([H])[H])[H])([H])[H])(C([H])=O)C([H])([H])2)([H])[H])[H])C([H])([H])[H])([H])([H])[H]
InChI: InChI=1S/C30H44O9/c1-17-26(33)23(36-3)13-25(38-17)39-19-4-9-28(16-31)21-5-8-27(2)20(18-12-24(32)37-15-18)7-11-30(27,35)22(21)6-10-29(28,34)14-19/h12,16-17,19-23,25-26,33-35H,4-11,13-15H2,1-3H3
Instrument: Micromass Q-TOF II
Instrument type: LC-ESI-QTOF
Ms type: MS2
Ion mode: POSITIVE
Collision energy: 30 eV
Ionization: ESI
Precursor m/z: 549.30647
Precursor type: [M+H]+
m/z	relative intensity
59.049	15
67.0543	30
69.0338	421
85.066	22
87.0457	21
95.05	194
109.0633	22
113.0604	999
119.0856	32
121.1059	10
125.0587	36
127.0737	26
131.0856	14
133.1018	15
135.0806	17
137.0933	22
143.0823	22
145.0872	230
147.1186	19
153.0541	275
155.0711	113
157.1009	26
159.0816	21
159.1187	15
161.0934	14
167.0744	17
169.102	22
171.1157	106
173.0979	11
173.129	25
175.1497	36
179.1023	12
181.0984	18
183.115	23
185.1363	47
187.1489	145
189.1232	38
195.1172	29
197.1337	43
199.1454	13
201.0919	14
201.1216	17
201.137	12
201.1602	18
203.1037	10
205.1181	11
211.1115	11
211.1451	33
213.1271	12
215.1381	21
217.1198	28
219.1326	11
221.1323	18
227.1351	14
229.1203	13
229.1595	12
235.1381	23
239.1758	14
249.1632	13
259.1471	13
261.1586	23
263.1777	59
273.1549	12
277.1895	75
279.1711	10
279.1988	21
281.1751	12
287.1725	45
289.1883	17
295.2104	42
305.1917	109
307.2002	42
315.1729	22
321.1941	11
323.2004	674
325.2134	63
333.1868	166
339.1931	14
341.2092	310
351.1958	561
359.218	99
369.206	228
