Mass spectrum: Noscapine; LC-ESI-QTOF; MS2; CE:40 eV; [M+H]+
Name: Noscapine
Formula: C22H23NO7
Exact mass: 413.14745
SMILES: CN1CCC2=CC3=C(C(=C2[C@@H]1[C@@H]4C5=C(C(=C(C=C5)OC)OC)C(=O)O4)OC)OCO3
InChI: InChI=1S/C22H23NO7/c1-23-8-7-11-9-14-20(29-10-28-14)21(27-4)15(11)17(23)18-12-5-6-13(25-2)19(26-3)16(12)22(24)30-18/h5-6,9,17-18H,7-8,10H2,1-4H3/t17-,18+/m1/s1
Instrument: Micromass Q-TOF II
Instrument type: LC-ESI-QTOF
Ms type: MS2
Ion mode: POSITIVE
Collision energy: 40 eV
Ionization: ESI
Precursor m/z: 414.15539
Precursor type: [M+H]+
m/z	relative intensity
91.0568	16
119.0521	11
121.0682	38
131.0522	12
149.063	16
163.046	11
165.0598	29
174.054	10
175.0645	14
176.0601	14
177.062	26
178.0789	10
179.0734	56
188.0543	18
189.0605	27
190.0746	18
191.0647	43
193.0552	25
194.075	11
195.0799	11
203.0619	21
204.0665	42
205.0747	590
206.0823	201
207.0802	15
208.082	11
209.0667	23
218.0807	52
219.0865	38
220.0983	999
221.0654	31
222.0713	20
223.0768	24
224.0836	21
232.0567	12
233.0621	33
234.0695	54
235.0774	38
236.0807	22
237.0602	54
238.082	13
239.0809	21
246.0692	25
247.0745	30
248.0729	38
249.0608	80
250.0652	33
251.0717	62
252.0789	49
253.0847	16
254.0921	13
260.0564	14
261.0572	34
262.0634	76
263.0706	80
264.0773	77
265.0572	143
266.0807	27
267.084	50
269.0974	13
274.063	28
275.0698	35
276.075	42
277.0643	94
278.0654	44
279.0684	101
280.0734	256
281.0817	57
282.0866	27
283.0644	10
289.0536	42
290.0625	37
291.067	68
292.0729	63
293.0717	86
294.0799	47
295.0864	232
296.0951	26
297.0804	29
302.0591	26
303.0664	16
304.0715	28
305.0717	83
306.0607	107
307.063	209
308.0737	81
309.0775	86
310.083	107
312.0976	17
318.0743	14
319.0635	74
320.0723	53
321.0742	52
322.082	118
323.0845	216
324.0916	41
325.1058	62
332.0685	20
333.0777	10
334.0774	93
335.0637	50
336.0859	59
337.0758	72
338.0771	119
348.0707	16
349.0788	14
350.0815	55
351.074	29
352.0968	53
353.0988	87
362.0717	45
364.085	48
366.0938	64
368.1147	13
