Mass spectrum: Prednisone; LC-ESI-QTOF; MS2; CE:20 eV; [M+H]+
Name: Prednisone
Formula: C21H26O5
Exact mass: 358.17802
SMILES: [H]OC([H])([H])C(=O)C(O[H])(C([H])([H])4)C(C([H])([H])[H])(C([H])([H])3)C([H])(C([H])([H])4)C([H])(C([H])([H])1)C([H])(C(=O)3)C(C([H])([H])[H])(C([H])=2)C(=C([H])C(=O)C([H])2)C([H])([H])1
InChI: InChI=1S/C21H26O5/c1-19-7-5-13(23)9-12(19)3-4-14-15-6-8-21(26,17(25)11-22)20(15,2)10-16(24)18(14)19/h5,7,9,14-15,18,22,26H,3-4,6,8,10-11H2,1-2H3
Instrument: Micromass Q-TOF II
Instrument type: LC-ESI-QTOF
Ms type: MS2
Ion mode: POSITIVE
Collision energy: 20 eV
Ionization: ESI
Precursor m/z: 359.18596
Precursor type: [M+H]+
m/z	relative intensity
69.0329	11
71.0511	10
79.0539	15
81.071	43
83.0489	12
85.0664	23
91.0569	11
93.0708	110
95.0488	63
95.0871	97
97.0662	32
99.0453	26
101.0601	67
105.0713	30
107.0864	104
109.0663	145
109.1058	27
111.0804	72
115.0739	10
117.0721	23
119.0867	55
121.0659	141
123.0809	87
125.0567	13
125.0974	34
131.0836	14
133.0675	49
135.0818	290
137.0545	16
137.0954	92
139.0777	81
145.0678	31
147.0816	996
149.0578	11
149.0963	13
151.0773	25
153.0921	175
155.0761	22
157.1017	11
158.072	14
159.082	292
161.0976	242
163.0776	126
165.093	48
167.0728	33
171.0819	598
173.0977	368
175.0702	13
175.0867	20
175.1161	12
177.0938	35
179.0998	25
181.0885	81
183.0994	165
185.0553	19
185.0961	118
187.0953	405
189.0942	64
195.0883	70
196.0878	12
197.0985	457
199.1126	299
201.1146	50
203.109	37
207.1071	15
208.0904	23
209.0983	212
210.1026	20
211.1121	175
212.1222	14
213.0832	20
213.1274	297
215.1092	121
219.1084	24
221.0983	138
222.1046	65
223.114	228
224.1206	20
225.0724	10
225.127	252
226.1264	15
227.1397	207
229.1188	28
231.105	12
233.1143	29
234.1034	19
235.114	211
236.1228	20
237.1283	999
238.1165	13
238.1458	11
239.1313	459
241.1232	81
243.1246	28
245.1181	23
246.1061	28
247.1185	67
248.1193	55
249.1294	211
250.1314	18
251.1419	154
252.1503	22
253.1306	652
255.1389	501
258.1024	15
259.1309	52
260.1213	22
261.128	287
262.1349	94
263.1439	580
264.1506	222
265.1589	931
267.1421	939
269.1441	31
271.1413	20
272.1195	56
275.1439	149
276.121	22
277.1584	648
279.1394	113
280.1436	24
281.1534	297
282.1638	23
283.1684	135
285.164	14
287.1437	263
290.1364	37
292.1473	45
293.1554	289
295.1706	919
297.149	175
299.1712	25
305.1557	536
311.1655	170
313.1808	654
323.1658	722
331.1943	12
341.1769	718
359.1919	145
