Mass spectrum: Tetracycline; LC-ESI-QTOF; MS2; CE:30 eV; [M+H]+
Name: Tetracycline
Formula: C22H24N2O8
Exact mass: 444.15327
SMILES: [H][C@@]12C[C@@]3([H])C(=C(O)[C@]1(O)C(=O)C(C(N)=O)=C(O)[C@H]2N(C)C)C(=O)C1=C(C=CC=C1O)[C@@]3(C)O
InChI: InChI=1S/C22H24N2O8/c1-21(31)8-5-4-6-11(25)12(8)16(26)13-9(21)7-10-15(24(2)3)17(27)14(20(23)30)19(29)22(10,32)18(13)28/h4-6,9-10,15,25,27-28,31-32H,7H2,1-3H3,(H2,23,30)/t9-,10-,15-,21+,22-/m0/s1
Instrument: Micromass Q-TOF II
Instrument type: LC-ESI-QTOF
Ms type: MS2
Ion mode: POSITIVE
Collision energy: 30 eV
Ionization: ESI
Precursor m/z: 445.16121
Precursor type: [M+H]+
m/z	relative intensity
86.0604	49
98.0604	206
126.0553	153
154.0496	999
172.0597	22
188.0826	20
201.0895	69
223.0743	10
226.0622	12
239.0686	15
241.0853	169
243.0714	25
251.0698	50
255.0674	10
257.0789	100
267.0642	143
269.0795	271
278.0573	13
279.0658	22
283.0626	11
291.0641	54
293.0785	46
296.1266	33
297.0749	60
306.0541	13
309.0762	21
314.1364	11
319.0605	51
321.0751	250
334.0423	27
337.0699	457
347.0568	34
349.0711	169
355.0814	37
364.1178	42
365.0657	161
377.0884	20
392.113	190
410.1233	955
428.1348	26
