Mass spectrum: Terfenadine; LC-ESI-QTOF; MS2; CE:50 eV; [M+H]+
Name: Terfenadine
Formula: C32H41NO2
Exact mass: 471.31373
SMILES: [H]C([H])(N(C(C([H])([H])C([H])([H])C([H])(O[H])c(c([H])4)c([H])c([H])c(C(C([H])([H])[H])(C([H])([H])[H])C([H])([H])[H])c4[H])([H])[H])1)C([H])([H])C(C(O[H])(c(c([H])3)c([H])c([H])c([H])c([H])3)c(c([H])2)c([H])c([H])c([H])c([H])2)(C([H])([H])C([H])([H])1)[H]
InChI: InChI=1S/C32H41NO2/c1-31(2,3)26-18-16-25(17-19-26)30(34)15-10-22-33-23-20-29(21-24-33)32(35,27-11-6-4-7-12-27)28-13-8-5-9-14-28/h4-9,11-14,16-19,29-30,34-35H,10,15,20-24H2,1-3H3
Instrument: Micromass Q-TOF II
Instrument type: LC-ESI-QTOF
Ms type: MS2
Ion mode: POSITIVE
Collision energy: 50 eV
Ionization: ESI
Precursor m/z: 472.32167
Precursor type: [M+H]+
m/z	relative intensity
56.0496	29
57.0703	999
68.051	39
69.057	37
70.065	49
79.0551	15
80.0507	53
81.0661	19
82.0661	139
83.0739	61
84.0818	18
91.0552	479
94.0668	28
95.0775	15
96.0819	138
97.09	10
98.0975	77
103.0575	19
105.0339	17
105.0706	143
107.0898	13
108.0816	16
110.0957	27
111.1063	36
115.0547	65
116.0628	19
117.0708	169
119.0856	79
120.0826	46
121.0921	11
122.0958	65
124.1134	163
128.064	100
129.0712	432
130.0694	15
131.0867	406
132.0928	84
133.1017	10
141.0708	50
142.0773	13
143.0864	80
144.0859	12
145.0654	28
145.1017	41
146.0746	18
146.1117	28
147.1177	320
152.0655	14
153.0701	29
155.0876	53
156.081	21
157.0988	26
158.0964	14
159.1201	19
161.0979	297
165.0714	24
166.0771	12
167.0873	118
170.0976	58
171.1115	49
172.1146	23
174.1261	14
178.0784	40
179.0869	12
181.1008	13
184.117	21
187.1515	16
188.1199	14
190.0795	24
191.0876	73
192.0967	11
193.1032	10
202.0828	11
203.0891	39
203.1436	112
204.0956	96
205.1028	79
215.0871	48
216.0947	52
217.1012	25
218.1124	73
219.1161	37
228.1766	19
229.1018	14
230.19	31
231.1156	31
233.1257	15
234.1273	11
247.1399	13
254.1881	12
256.2088	16
260.1435	31
262.158	183
268.2066	98
270.2234	52
288.1742	59
420.2706	33
436.3047	86
