Mass spectrum: Daunorubicin; LC-ESI-QTOF; MS2; CE:40 eV; [M+H]+
Name: Daunorubicin
Formula: C27H29NO10
Exact mass: 527.17915
SMILES: c(=O)(c12)c(c5O[H])c(c(O[H])c(c35)C(C(C(C3(OC([H])(C([H])([H])4)OC([H])(C([H])(O[H])C([H])(N([H])[H])4)C([H])([H])[H])[H])([H])[H])(O[H])C(=O)C([H])([H])[H])([H])[H])c(c1c(c(c(c2OC([H])([H])[H])[H])[H])[H])=O
InChI: InChI=1S/C27H29NO10/c1-10-22(30)14(28)7-17(37-10)38-16-9-27(35,11(2)29)8-13-19(16)26(34)21-20(24(13)32)23(31)12-5-4-6-15(36-3)18(12)25(21)33/h4-6,10,14,16-17,22,30,32,34-35H,7-9,28H2,1-3H3
Instrument: Micromass Q-TOF II
Instrument type: LC-ESI-QTOF
Ms type: MS2
Ion mode: POSITIVE
Collision energy: 40 eV
Ionization: ESI
Precursor m/z: 528.18709
Precursor type: [M+H]+
m/z	relative intensity
69.0339	14
71.0495	12
72.0453	37
86.0614	107
95.0507	10
113.0608	46
121.0657	20
130.0876	42
135.0451	23
293.0797	34
303.0634	20
306.0506	417
321.0739	999
348.0618	14
363.0861	19
