Mass spectrum: Ephedrine; LC-ESI-QTOF; MS2; CE:30 eV; [M+H]+
Name: Ephedrine
Formula: C10H15NO
Exact mass: 165.11536
SMILES: [H]OC([H])(c(c([H])1)c([H])c([H])c([H])c([H])1)C([H])(C([H])([H])[H])N([H])C([H])([H])[H]
InChI: InChI=1S/C10H15NO/c1-8(11-2)10(12)9-6-4-3-5-7-9/h3-8,10-12H,1-2H3
Instrument: Micromass Q-TOF II
Instrument type: LC-ESI-QTOF
Ms type: MS2
Ion mode: POSITIVE
Collision energy: 30 eV
Ionization: ESI
Precursor m/z: 166.12330
Precursor type: [M+H]+
m/z	relative intensity
56.0499	59
57.0342	12
65.0377	16
70.0654	33
77.0389	24
78.0471	17
79.0545	17
91.0549	826
92.0633	10
93.0698	16
103.0547	20
104.0627	131
105.0712	41
115.0549	999
116.0627	121
117.0689	283
118.0658	89
130.0656	36
132.0814	474
133.0893	422
148.1122	60
