Mass spectrum: Isoxsuprine; LC-ESI-QTOF; MS2; CE:30 eV; [M+H]+
Name: Isoxsuprine
Formula: C18H23NO3
Exact mass: 301.16779
SMILES: [H]Oc(c([H])2)c([H])c([H])c(c([H])2)C([H])(O[H])C([H])(C([H])([H])[H])N([H])C([H])(C([H])([H])[H])C([H])([H])Oc(c([H])1)c([H])c([H])c([H])c([H])1
InChI: InChI=1S/C18H23NO3/c1-13(12-22-17-6-4-3-5-7-17)19-14(2)18(21)15-8-10-16(20)11-9-15/h3-11,13-14,18-21H,12H2,1-2H3
Instrument: Micromass Q-TOF II
Instrument type: LC-ESI-QTOF
Ms type: MS2
Ion mode: POSITIVE
Collision energy: 30 eV
Ionization: ESI
Precursor m/z: 302.17573
Precursor type: [M+H]+
m/z	relative intensity
57.0341	14
58.0649	46
77.0389	77
79.0551	97
84.0819	15
91.0548	21
95.0496	115
103.0544	15
105.0704	368
107.0495	999
107.0888	12
108.057	53
109.0651	36
115.0541	22
117.0694	11
121.0653	25
131.0491	14
132.0687	13
133.0644	439
134.0665	24
135.0795	285
145.0655	16
147.0695	22
148.0755	66
149.0835	144
150.0916	387
151.0759	15
158.0741	16
159.0812	11
160.0755	12
162.0924	26
176.1077	30
190.1226	39
284.1645	47
