Mass spectrum: Aminophylline; LC-ESI-QTOF; MS2; CE:20 eV; [M+H]+
Name: Aminophylline
Formula: C7H8N4O2
Exact mass: 180.06473
SMILES: [H]C([H])([H])N(C(=O)1)C(=O)c(n([H])2)c(nc([H])2)N(C([H])([H])[H])1
InChI: InChI=1S/C7H8N4O2/c1-10-5-4(8-3-9-5)6(12)11(2)7(10)13/h3H,1-2H3,(H,8,9)
Instrument: Micromass Q-TOF II
Instrument type: LC-ESI-QTOF
Ms type: MS2
Ion mode: POSITIVE
Collision energy: 20 eV
Ionization: ESI
Precursor m/z: 181.07267
Precursor type: [M+H]+
m/z	relative intensity
69.0442	56
96.0559	169
97.0436	13
124.0506	999
125.0539	27
137.0822	12
142.0616	27
181.0725	419
182.0739	15
