Mass spectrum: Morphine_3_Glucuronide; LC-ESI-QTOF; MS2; CE:40 eV; [M+H]+
Name: Morphine_3_Glucuronide
Formula: C23H27NO9
Exact mass: 461.16858
SMILES: [H]OC(=O)C([H])(O1)C([H])(O[H])C([H])(O[H])C([H])(O[H])C([H])(Oc(c([H])6)c(O5)c(c(c([H])6)2)C(C([H])([H])3)(C([H])54)C([H])(C([H])=C([H])C([H])(O[H])4)C([H])(N(C([H])([H])[H])C([H])([H])3)C([H])([H])2)1
InChI: InChI=1S/C23H27NO9/c1-24-7-6-23-10-3-4-12(25)20(23)32-18-13(5-2-9(14(18)23)8-11(10)24)31-22-17(28)15(26)16(27)19(33-22)21(29)30/h2-5,10-12,15-17,19-20,22,25-28H,6-8H2,1H3,(H,29,30)
Instrument: Micromass Q-TOF II
Instrument type: LC-ESI-QTOF
Ms type: MS2
Ion mode: POSITIVE
Collision energy: 40 eV
Ionization: ESI
Precursor m/z: 462.17652
Precursor type: [M+H]+
m/z	relative intensity
58.0652	12
147.0446	12
165.0726	13
173.0599	23
183.0807	25
185.0604	30
193.0701	15
201.0912	87
209.0646	23
211.0761	33
219.0815	11
227.0726	13
229.086	71
268.1335	28
286.1435	999
