Mass spectrum: Boldenone_Undecylenate; LC-ESI-QTOF; MS2; CE:30 eV; [M+H]+
Name: Boldenone_Undecylenate
Formula: C30H44O3
Exact mass: 452.32905
SMILES: [H]C(C(C([H])([H])[H])14)(C(C([H])(C([H])([H])C4([H])[H])2)([H])C(C([H])([H])C(=C([H])3)C2(C([H])([H])[H])C(=C(C(=O)3)[H])[H])([H])[H])C(C(C1(OC(C(C(C([H])([H])C([H])([H])C([H])([H])C(C(C(C([H])=C([H])[H])([H])[H])([H])[H])([H])[H])([H])[H])([H])[H])=O)[H])([H])[H])([H])[H]
InChI: InChI=1S/C30H44O3/c1-4-5-6-7-8-9-10-11-12-28(32)33-27-16-15-25-24-14-13-22-21-23(31)17-19-29(22,2)26(24)18-20-30(25,27)3/h4,17,19,21,24-27H,1,5-16,18,20H2,2-3H3/t24?,25-,26-,27-,29?,30?/m0/s1
Instrument: Micromass Q-TOF II
Instrument type: LC-ESI-QTOF
Ms type: MS2
Ion mode: POSITIVE
Collision energy: 30 eV
Ionization: ESI
Precursor m/z: 453.33699
Precursor type: [M+H]+
m/z	relative intensity
55.0538	22
67.054	287
69.0694	55
79.0549	82
81.0703	298
83.0859	98
85.0655	72
91.0557	21
93.0703	235
95.0862	56
97.0663	17
97.1017	18
99.0809	34
105.0709	33
107.086	268
109.1025	33
119.0866	17
121.065	801
121.1026	83
123.1179	13
133.065	29
133.1012	25
135.0789	53
135.1172	999
145.0644	12
147.0803	143
147.1171	155
149.133	295
159.0806	50
161.0941	29
161.1326	80
167.1452	11
173.0963	219
179.1433	14
187.112	56
199.1107	10
213.1287	17
269.1887	52
