Mass spectrum: Sulfadimethoxine; LC-ESI-QTOF; MS2; CE:10 eV; [M+H]+
Name: Sulfadimethoxine
Formula: C12H14N4O4S
Exact mass: 310.07358
SMILES: [H]C([H])([H])Oc(n2)nc(c([H])c(OC([H])([H])[H])2)N([H])S(=O)(=O)c(c([H])1)c([H])c([H])c(N([H])[H])c([H])1
InChI: InChI=1S/C12H14N4O4S/c1-19-11-7-10(14-12(15-11)20-2)16-21(17,18)9-5-3-8(13)4-6-9/h3-7H,13H2,1-2H3,(H,14,15,16)
Instrument: Micromass Q-TOF II
Instrument type: LC-ESI-QTOF
Ms type: MS2
Ion mode: POSITIVE
Collision energy: 10 eV
Ionization: ESI
Precursor m/z: 311.08152
Precursor type: [M+H]+
m/z	relative intensity
156.0126	10
311.0777	999
