Mass spectrum: Betaxolol; LC-ESI-QTOF; MS2; CE:30 eV; [M+H]+
Name: Betaxolol
Formula: C18H29NO3
Exact mass: 307.21474
SMILES: [H]OC([H])(C([H])([H])Oc(c([H])2)c([H])c([H])c(c([H])2)C([H])([H])C([H])([H])OC([H])([H])C([H])(C([H])([H])1)C([H])([H])1)C([H])([H])N([H])C([H])(C([H])([H])[H])C([H])([H])[H]
InChI: InChI=1S/C18H29NO3/c1-14(2)19-11-17(20)13-22-18-7-5-15(6-8-18)9-10-21-12-16-3-4-16/h5-8,14,16-17,19-20H,3-4,9-13H2,1-2H3
Instrument: Micromass Q-TOF II
Instrument type: LC-ESI-QTOF
Ms type: MS2
Ion mode: POSITIVE
Collision energy: 30 eV
Ionization: ESI
Precursor m/z: 308.22268
Precursor type: [M+H]+
m/z	relative intensity
55.0539	425
56.0497	465
57.0696	19
58.0648	74
60.0806	14
67.0539	51
70.0659	10
72.0806	999
74.06	861
77.0392	21
79.0545	68
81.0704	47
84.0817	107
85.0661	20
86.0599	33
86.0978	12
91.0549	260
93.0699	82
95.0494	21
98.0964	707
100.1125	74
103.0549	59
104.0622	18
105.0706	305
107.0493	45
107.0864	28
110.0966	75
115.0548	39
116.0619	18
116.1071	810
117.0703	105
119.0497	22
119.0858	84
120.0567	11
121.0654	845
128.0618	60
128.1074	16
129.0702	82
131.0483	23
131.0858	174
133.0652	576
133.1034	34
135.0807	78
137.0601	11
141.0705	59
142.0778	27
143.0862	59
144.0582	71
145.065	90
145.1019	13
146.0731	23
147.0804	147
148.0758	81
149.0594	11
151.0757	126
155.085	11
157.0657	24
157.1017	24
158.0747	37
159.0806	412
161.0962	232
163.0744	25
163.1122	22
165.0897	29
170.0738	10
171.0801	56
172.0883	29
173.0958	13
175.0747	21
175.1124	55
176.1075	44
177.0912	238
183.0827	14
184.0903	17
185.0964	38
187.11	25
189.091	45
201.1279	14
202.1243	11
203.1057	21
212.1266	43
213.1281	12
219.1377	12
231.1375	20
254.1717	11
266.1731	13
308.2204	77
