Mass spectrum: Enalaprilat; LC-ESI-QTOF; MS2; CE:30 eV; [M+H]+
Name: Enalaprilat
Formula: C18H24N2O5
Exact mass: 348.16852
SMILES: [H]OC(=O)C([H])(N([H])C([H])(C([H])([H])[H])C(=O)N(C([H])([H])2)C([H])(C(=O)O[H])C([H])([H])C([H])([H])2)C([H])([H])C([H])([H])c(c([H])1)c([H])c([H])c([H])c([H])1
InChI: InChI=1S/C18H24N2O5/c1-12(16(21)20-11-5-8-15(20)18(24)25)19-14(17(22)23)10-9-13-6-3-2-4-7-13/h2-4,6-7,12,14-15,19H,5,8-11H2,1H3,(H,22,23)(H,24,25)/t12-,14+,15+/m0/s1
Instrument: Micromass Q-TOF II
Instrument type: LC-ESI-QTOF
Ms type: MS2
Ion mode: POSITIVE
Collision energy: 30 eV
Ionization: ESI
Precursor m/z: 349.17646
Precursor type: [M+H]+
m/z	relative intensity
56.0502	96
70.0652	60
91.0548	209
102.0552	676
105.0704	11
116.0705	150
117.0698	842
134.0966	375
144.0801	20
160.1118	999
162.1287	12
178.123	52
188.1068	11
206.1171	778
232.133	28
303.1692	86
