Mass spectrum: Etamiphylline; LC-ESI-QTOF; MS2; CE:20 eV; [M+H]+
Name: Etamiphylline
Formula: C13H21N5O2
Exact mass: 279.16952
SMILES: [H]C([H])([H])C([H])([H])N(C([H])([H])C([H])([H])[H])C([H])([H])C([H])([H])n(c([H])2)c(C(=O)1)c(n2)N(C([H])([H])[H])C(=O)N(C([H])([H])[H])1
InChI: InChI=1S/C13H21N5O2/c1-5-17(6-2)7-8-18-9-14-11-10(18)12(19)16(4)13(20)15(11)3/h9H,5-8H2,1-4H3
Instrument: Micromass Q-TOF II
Instrument type: LC-ESI-QTOF
Ms type: MS2
Ion mode: POSITIVE
Collision energy: 20 eV
Ionization: ESI
Precursor m/z: 280.17746
Precursor type: [M+H]+
m/z	relative intensity
86.0967	75
100.1124	26
163.0986	11
207.0861	999
280.1743	608
