Mass spectrum: Cholesterol; LC-ESI-QTOF; MS2; CE:20 eV; [M+H]+
Name: Cholesterol
Formula: C27H46O
Exact mass: 386.35487
SMILES: [H]C(C([H])([H])C([H])([H])C([H])([H])C(C(C4([H])[H])([H])C(C([H])([H])[H])(C3([H])[H])C(C4([H])[H])([H])C([H])(C([H])(C3([H])[H])1)C([H])([H])C([H])=C(C([H])([H])2)C1(C([H])([H])C([H])([H])C([H])(O[H])2)C([H])([H])[H])(C([H])([H])[H])[H])(C([H])([H])[H])C([H])([H])[H]
InChI: InChI=1S/C27H46O/c1-18(2)7-6-8-19(3)23-11-12-24-22-10-9-20-17-21(28)13-15-26(20,4)25(22)14-16-27(23,24)5/h9,18-19,21-25,28H,6-8,10-17H2,1-5H3
Instrument: Micromass Q-TOF II
Instrument type: LC-ESI-QTOF
Ms type: MS2
Ion mode: POSITIVE
Collision energy: 20 eV
Ionization: ESI
Precursor m/z: 387.36281
Precursor type: [M+H]+
m/z	relative intensity
83.0481	32
101.0619	13
175.0149	102
231.0792	61
275.0679	108
331.1319	999
351.2957	19
369.243	23
369.3481	39
387.1996	124
387.2594	22
387.3363	35
