Mass spectrum: Triethylgallamine; LC-ESI-QTOF; MS2; CE:20 eV; [M+H]+
Name: Triethylgallamine
Formula: [C30H60N3O3]3+
Exact mass: 510.46347
SMILES: CC[N+](CC)(CC)CCOC1=C(C(=CC=C1)OCC[N+](CC)(CC)CC)OCC[N+](CC)(CC)CC
InChI: InChI=1S/C30H60N3O3/c1-10-31(11-2,12-3)22-25-34-28-20-19-21-29(35-26-23-32(13-4,14-5)15-6)30(28)36-27-24-33(16-7,17-8)18-9/h19-21H,10-18,22-27H2,1-9H3/q+3
Instrument: Micromass Q-TOF II
Instrument type: LC-ESI-QTOF
Ms type: MS2
Ion mode: POSITIVE
Collision energy: 20 eV
Ionization: ESI
Precursor m/z: 511.47141
Precursor type: [M+H]+
m/z	relative intensity
58.0643	26
86.0958	999
87.0997	52
100.1122	55
101.1199	71
102.1258	10
224.1642	38
252.1586	26
280.1902	24
