Mass spectrum: Prednisolone_Tebutate; LC-ESI-QTOF; MS2; CE:10 eV; [M+H]+
Name: Prednisolone_Tebutate
Formula: C27H38O6
Exact mass: 458.26684
SMILES: [H]C([H])(C(C([H])([H])[H])(C([H])([H])[H])C([H])([H])[H])C(OC([H])([H])C(=O)C(O[H])(C4([H])[H])C(C([H])([H])[H])(C3([H])[H])C(C([H])([H])4)([H])C([H])(C([H])(C3([H])O[H])1)C(C(C(=C([H])2)C1(C([H])=C(C2=O)[H])C([H])([H])[H])([H])[H])([H])[H])=O
InChI: InChI=1S/C27H38O6/c1-24(2,3)14-22(31)33-15-21(30)27(32)11-9-19-18-7-6-16-12-17(28)8-10-25(16,4)23(18)20(29)13-26(19,27)5/h8,10,12,18-20,23,29,32H,6-7,9,11,13-15H2,1-5H3
Instrument: Micromass Q-TOF II
Instrument type: LC-ESI-QTOF
Ms type: MS2
Ion mode: POSITIVE
Collision energy: 10 eV
Ionization: ESI
Precursor m/z: 459.27478
Precursor type: [M+H]+
m/z	relative intensity
99.0801	10
279.1704	23
289.1608	24
307.1671	99
325.1786	196
405.2417	10
423.2524	92
441.2622	734
459.2719	999
