Mass spectrum: Tetramisole; LC-ESI-QTOF; MS2; CE:30 eV; [M+H]+
Name: Tetramisole
Formula: C11H12N2S
Exact mass: 204.07212
SMILES: [H]c(c([H])3)c([H])c([H])c(c([H])3)C([H])(N=2)C([H])([H])N(C12)C([H])([H])C([H])([H])S1
InChI: InChI=1S/C11H12N2S/c1-2-4-9(5-3-1)10-8-13-6-7-14-11(13)12-10/h1-5,10H,6-8H2
Instrument: Micromass Q-TOF II
Instrument type: LC-ESI-QTOF
Ms type: MS2
Ion mode: POSITIVE
Collision energy: 30 eV
Ionization: ESI
Precursor m/z: 205.08006
Precursor type: [M+H]+
m/z	relative intensity
61.0108	45
74.0062	34
77.0389	32
79.0548	50
86.0067	25
88.0228	57
91.0546	702
95.0497	13
103.0548	130
104.0588	45
105.0706	175
106.0662	25
115.0549	102
117.0656	352
118.0659	238
119.0809	30
120.081	16
123.0269	735
127.0511	22
128.0615	222
129.0707	188
130.0657	130
131.0733	92
132.0813	82
135.0269	73
144.0811	90
145.0713	90
146.0592	19
146.0969	88
148.0226	26
150.0375	96
178.0689	999
188.0539	24
205.0798	272
