Mass spectrum: Oxaprozin; LC-ESI-QTOF; MS2; CE:10 eV; [M+H]+
Name: Oxaprozin
Formula: C18H15NO3
Exact mass: 293.10519
SMILES: [H]OC(=O)C([H])([H])C([H])([H])c(n1)oc(c(c([H])3)c([H])c([H])c([H])c([H])3)c1c(c([H])2)c([H])c([H])c([H])c([H])2
InChI: InChI=1S/C18H15NO3/c20-16(21)12-11-15-19-17(13-7-3-1-4-8-13)18(22-15)14-9-5-2-6-10-14/h1-10H,11-12H2,(H,20,21)
Instrument: Micromass Q-TOF II
Instrument type: LC-ESI-QTOF
Ms type: MS2
Ion mode: POSITIVE
Collision energy: 10 eV
Ionization: ESI
Precursor m/z: 294.11313
Precursor type: [M+H]+
m/z	relative intensity
234.088	11
276.1017	58
294.1104	999
