Mass spectrum: Terbutaline; LC-ESI-QTOF; MS2; CE:20 eV; [M+H]+
Name: Terbutaline
Formula: C12H19NO3
Exact mass: 225.13649
SMILES: [H]Oc(c([H])1)c([H])c(c([H])c(O[H])1)C([H])(O[H])C([H])([H])N([H])C(C([H])([H])[H])(C([H])([H])[H])C([H])([H])[H]
InChI: InChI=1S/C12H19NO3/c1-12(2,3)13-7-11(16)8-4-9(14)6-10(15)5-8/h4-6,11,13-16H,7H2,1-3H3
Instrument: Micromass Q-TOF II
Instrument type: LC-ESI-QTOF
Ms type: MS2
Ion mode: POSITIVE
Collision energy: 20 eV
Ionization: ESI
Precursor m/z: 226.14443
Precursor type: [M+H]+
m/z	relative intensity
57.0698	22
107.0488	47
109.0649	10
110.0591	12
125.0594	164
135.0437	24
152.0696	999
170.0802	18
