Mass spectrum: 6a_Methylprednisolone; LC-ESI-QTOF; MS2; CE:30 eV; [M+H]+
Name: 6a_Methylprednisolone
Formula: C22H30O5
Exact mass: 374.20932
SMILES: [H]OC([H])([H])C(=O)C(O[H])(C([H])([H])4)C(C([H])([H])[H])(C([H])([H])3)C([H])(C([H])([H])4)C([H])(C([H])([H])1)C([H])(C([H])(O[H])3)C(C([H])=2)(C([H])([H])[H])C(=C([H])C(=O)C([H])2)C([H])(C([H])([H])[H])1
InChI: InChI=1S/C22H30O5/c1-12-8-14-15-5-7-22(27,18(26)11-23)21(15,3)10-17(25)19(14)20(2)6-4-13(24)9-16(12)20/h4,6,9,12,14-15,17,19,23,25,27H,5,7-8,10-11H2,1-3H3
Instrument: Micromass Q-TOF II
Instrument type: LC-ESI-QTOF
Ms type: MS2
Ion mode: POSITIVE
Collision energy: 30 eV
Ionization: ESI
Precursor m/z: 375.21726
Precursor type: [M+H]+
m/z	relative intensity
67.0551	17
69.0332	14
69.0689	13
71.0494	18
79.0553	34
81.0701	41
83.0494	16
91.0539	50
93.0704	73
95.0495	13
95.0856	45
97.0658	24
99.045	15
101.0595	11
105.0699	113
107.0501	10
107.0859	114
109.0648	33
109.1016	54
111.0441	16
111.0818	17
115.0521	23
117.0697	47
119.0863	106
121.0649	339
121.1014	36
123.0805	34
125.0603	23
128.0627	12
129.0701	28
131.0854	81
133.0639	31
133.1016	97
135.0806	753
137.0605	30
137.0985	23
139.0761	22
141.072	19
142.0793	17
143.086	62
144.0948	10
145.0652	88
145.1019	93
146.0726	33
147.0806	143
147.1189	21
149.0954	69
151.0751	15
155.0835	23
157.1002	46
158.0721	46
159.0804	288
159.1184	45
160.0873	33
161.096	999
163.111	17
165.0903	43
167.0889	17
169.1019	25
171.0799	88
171.1177	30
172.0876	56
173.0962	220
173.1336	25
175.113	79
177.0914	53
179.0914	17
181.1013	27
183.0861	24
183.1155	25
184.0882	15
185.0963	738
186.1031	17
187.1117	472
189.0907	98
189.1282	21
191.1007	11
193.1018	56
194.1068	11
195.0804	64
195.113	26
196.0887	61
197.097	94
198.1054	18
199.1118	132
201.1274	39
203.1	10
204.0914	10
205.1046	18
206.1109	14
207.1172	38
208.089	38
209.0966	197
210.1036	75
211.1114	602
212.1201	24
213.1272	162
217.102	12
218.1113	14
219.1165	31
220.1211	33
221.0975	31
221.129	25
222.1037	95
223.1122	208
224.1196	94
225.1275	163
226.1322	16
227.1031	11
227.1421	59
229.1157	15
231.1324	51
233.0932	16
233.1319	37
234.1028	27
235.1179	137
236.1193	84
237.1267	304
238.1342	135
239.1425	127
240.1506	27
241.1529	27
243.1205	13
245.0956	30
246.1053	36
247.1125	37
248.1194	50
249.1276	111
250.1343	49
251.1417	294
252.1486	17
253.158	433
255.1717	37
259.1129	36
260.1199	28
261.1277	83
262.1344	50
263.1421	100
263.1769	39
264.1373	55
265.1584	288
266.1401	15
267.1367	48
269.145	17
273.1266	45
274.1348	34
275.1473	37
276.153	14
277.158	66
278.1654	43
279.1677	203
280.1822	277
281.1883	35
285.1523	13
288.1516	53
290.1661	13
291.1701	51
293.1813	74
297.1489	35
303.1747	79
306.1592	15
308.1778	17
309.183	32
311.171	12
321.1822	39
339.2004	17
