Mass spectrum: Hydrocortisone; LC-ESI-QTOF; MS2; CE:30 eV; [M+H]+
Name: (8S,9S,10R,11S,13S,14S,17R)-11,17-dihydroxy-17-(2-hydroxyacetyl)-10,13-dimethyl-2,6,7,8,9,11,12,14,15,16-decahydro-1H-cyclopenta[a]phenanthren-3-one
Name: Cortisol
Name: Hydrocortisone
Formula: C21H30O5
Exact mass: 362.20932
SMILES: C[C@]12CCC(=O)C=C1CC[C@@H]3[C@@H]2[C@H](C[C@]4([C@H]3CC[C@@]4(C(=O)CO)O)C)O
InChI: InChI=1S/C21H30O5/c1-19-7-5-13(23)9-12(19)3-4-14-15-6-8-21(26,17(25)11-22)20(15,2)10-16(24)18(14)19/h9,14-16,18,22,24,26H,3-8,10-11H2,1-2H3/t14-,15-,16-,18+,19-,20-,21-/m0/s1
Instrument: Micromass Q-TOF II
Instrument type: LC-ESI-QTOF
Ms type: MS2
Ion mode: POSITIVE
Collision energy: 30 eV
Ionization: ESI
Precursor m/z: 363.21726
Precursor type: [M+H]+
m/z	relative intensity
67.0536	27
69.0337	19
69.0686	25
71.0488	14
77.0384	14
79.0539	49
81.0703	70
83.0502	54
91.0544	68
93.0701	118
95.0514	12
95.086	70
97.0651	276
99.0451	33
103.0475	14
105.0703	161
107.0497	27
107.0861	104
109.0655	181
109.1023	19
111.0815	21
115.0549	13
117.0714	68
119.0855	166
121.0653	999
121.103	40
123.08	242
125.0604	16
128.0625	17
129.07	78
130.0798	10
131.086	150
133.0652	42
133.1023	122
135.0811	148
135.119	38
137.0588	14
137.0956	35
139.0776	12
141.0706	65
142.0798	25
143.0863	182
144.0926	12
145.0636	38
145.1013	283
146.1109	21
147.0799	101
147.1173	269
149.096	71
149.1342	37
151.0775	23
153.08	16
154.0777	17
155.0857	98
157.1015	204
159.0796	93
159.1176	197
161.096	116
161.1337	49
163.112	191
165.08	20
167.0853	42
168.094	16
169.1022	182
171.0809	49
171.1177	155
172.1244	29
173.0958	145
173.1327	85
174.1033	12
175.1125	128
177.1271	36
179.0874	32
180.0945	13
181.1018	74
182.1105	10
183.1175	167
185.0964	79
185.1313	131
187.1129	150
187.1504	17
189.1281	71
191.1045	15
193.1044	44
194.1069	13
195.1174	92
196.1256	12
197.0961	36
197.1351	98
199.1126	59
199.1478	54
201.1276	60
203.109	17
203.142	11
205.1132	34
207.118	67
208.1252	16
209.1333	133
210.1404	17
211.1129	51
211.1495	71
212.1311	18
213.1276	102
213.1693	11
215.1429	52
217.1151	18
219.1212	24
220.1263	12
221.1324	63
223.1099	25
223.1469	116
225.1284	149
225.1655	53
226.1358	18
227.143	78
227.1805	10
228.1496	17
229.1552	29
231.1295	23
233.1362	24
234.1342	16
235.1088	10
235.1468	36
237.1323	29
237.168	12
239.1436	147
241.1585	170
242.1665	16
243.1283	11
243.1752	65
245.143	13
247.1474	22
248.1593	12
249.1624	81
250.171	13
251.1551	120
252.147	17
253.1583	99
254.1616	10
255.1703	21
258.1437	10
261.1617	20
263.1366	14
263.1747	40
265.158	35
266.1678	25
267.173	160
268.1828	85
269.1878	147
271.1656	17
273.1651	17
276.15	17
279.174	34
281.1844	97
285.1803	18
286.1905	25
291.1745	47
294.1596	16
297.1858	82
299.1991	17
309.1849	94
312.17	20
315.1949	11
327.195	65
345.2094	14
363.2187	15
