Mass spectrum: Taurocholate; LC-ESI-QTOF; MS2; CE:30 eV; [M+H]+
Name: Taurocholate
Formula: C26H45NO7S
Exact mass: 515.29167
SMILES: C(C([H])([H])1)([H])(O[H])C([H])([H])C(C4([H])[H])(C(C(C3([H])C4([H])O[H])([H])C(C(O[H])(C(C3([H])2)(C([H])(C(C2([H])[H])([H])[H])C(C([H])([H])[H])([H])C(C([H])([H])C(N(C(C(S(=O)(=O)O[H])([H])[H])([H])[H])[H])=O)([H])[H])C([H])([H])[H])[H])([H])[H])(C([H])([H])[H])C1([H])[H])[H]
InChI: InChI=1S/C26H45NO7S/c1-15(4-7-23(31)27-10-11-35(32,33)34)18-5-6-19-24-20(14-22(30)26(18,19)3)25(2)9-8-17(28)12-16(25)13-21(24)29/h15-22,24,28-30H,4-14H2,1-3H3,(H,27,31)(H,32,33,34)/t15?,16?,17-,18?,19?,20?,21-,22+,24?,25?,26?/m1/s1
Instrument: Micromass Q-TOF II
Instrument type: LC-ESI-QTOF
Ms type: MS2
Ion mode: POSITIVE
Collision energy: 30 eV
Ionization: ESI
Precursor m/z: 516.29961
Precursor type: [M+H]+
m/z	relative intensity
81.0704	15
85.0652	24
95.086	19
105.0708	14
107.0864	32
109.102	17
119.0864	22
121.1027	26
123.1181	15
126.0232	421
131.0869	19
133.1023	23
135.1177	25
143.086	12
145.1028	41
147.1187	36
149.1334	12
157.1018	31
159.119	87
161.1339	36
169.1022	13
171.1185	31
173.1345	26
175.1134	16
175.1503	24
177.1309	11
183.1185	34
185.0955	14
185.1348	61
187.1154	16
187.1486	27
189.1296	17
189.1667	17
197.1342	29
199.1501	139
201.1658	36
203.145	14
208.0656	257
209.1347	272
211.1502	70
213.1656	178
215.145	17
215.1798	32
222.082	14
223.1503	49
225.1662	71
227.1519	493
229.1608	61
231.1756	12
234.0809	18
236.096	10
237.1664	41
239.1809	30
241.161	41
241.1956	122
243.1765	45
245.1901	11
248.0972	43
249.165	17
251.1805	14
253.1894	26
255.1794	46
260.0964	20
262.1117	23
263.1801	29
265.1968	13
267.1887	17
274.1126	26
277.1977	28
279.2108	12
281.2045	31
283.2282	18
288.1283	12
293.2293	40
295.2307	114
300.1297	21
302.1416	11
309.2582	71
314.1446	14
319.2445	581
328.1602	13
337.2551	999
340.159	11
352.1605	30
354.1768	29
355.2675	16
366.1777	11
368.1927	26
408.2262	11
420.2222	13
444.2594	17
462.27	776
