Mass spectrum: Alfentanil; LC-ESI-QTOF; MS2; CE:40 eV; [M+H]+
Name: Alfentanil
Formula: C21H32N6O3
Exact mass: 416.25359
SMILES: [H]C([H])([H])OC([H])([H])C(N(C(=O)C([H])([H])C([H])([H])[H])c(c([H])3)c([H])c([H])c([H])c([H])3)(C([H])([H])1)C([H])([H])C([H])([H])N(C([H])([H])C([H])([H])N(N=2)C(=O)N(N2)C([H])([H])C([H])([H])[H])C([H])([H])1
InChI: InChI=1S/C21H32N6O3/c1-4-19(28)27(18-9-7-6-8-10-18)21(17-30-3)11-13-24(14-12-21)15-16-26-20(29)25(5-2)22-23-26/h6-10H,4-5,11-17H2,1-3H3
Instrument: Micromass Q-TOF II
Instrument type: LC-ESI-QTOF
Ms type: MS2
Ion mode: POSITIVE
Collision energy: 40 eV
Ionization: ESI
Precursor m/z: 417.26153
Precursor type: [M+H]+
m/z	relative intensity
67.0539	40
69.0698	28
70.0287	26
79.0552	44
80.0495	11
81.0692	29
87.0553	33
94.0655	77
95.0737	36
96.081	24
97.0507	24
99.0566	402
99.0906	18
107.0737	16
108.0824	28
109.0872	47
120.0812	17
122.0958	62
132.0811	280
137.0734	33
137.1084	14
140.1071	21
141.0775	13
150.0876	39
160.1107	18
163.0857	18
165.1026	999
170.1043	89
183.1131	301
197.1284	431
254.1592	13
286.1542	24
314.187	101
