Mass spectrum: Sulfadimethoxine; LC-ESI-QTOF; MS2; CE:30 eV; [M+H]+
Name: Sulfadimethoxine
Formula: C12H14N4O4S
Exact mass: 310.07358
SMILES: [H]C([H])([H])Oc(n2)nc(c([H])c(OC([H])([H])[H])2)N([H])S(=O)(=O)c(c([H])1)c([H])c([H])c(N([H])[H])c([H])1
InChI: InChI=1S/C12H14N4O4S/c1-19-11-7-10(14-12(15-11)20-2)16-21(17,18)9-5-3-8(13)4-6-9/h3-7H,13H2,1-2H3,(H,14,15,16)
Instrument: Micromass Q-TOF II
Instrument type: LC-ESI-QTOF
Ms type: MS2
Ion mode: POSITIVE
Collision energy: 30 eV
Ionization: ESI
Precursor m/z: 311.08152
Precursor type: [M+H]+
m/z	relative intensity
65.038	69
72.0441	10
80.05	25
82.0291	11
89.0715	15
92.0499	904
93.0576	26
99.056	25
108.0447	862
110.0603	45
113.0666	11
124.0505	22
125.0586	62
126.0667	26
127.0507	101
140.0452	18
141.0536	72
154.0614	194
155.0695	63
156.012	300
156.0765	999
172.0679	18
173.0589	232
201.0769	11
218.0229	38
229.0713	13
230.0797	83
245.1028	56
