Mass spectrum: Albuterol; LC-ESI-QTOF; MS2; CE:20 eV; [M+H]+
Name: Albuterol
Formula: C13H21NO3
Exact mass: 239.15214
SMILES: [H]OC([H])([H])c(c(O[H])1)c([H])c(c([H])c([H])1)C([H])(O[H])C([H])([H])N([H])C(C([H])([H])[H])(C([H])([H])[H])C([H])([H])[H]
InChI: InChI=1S/C13H21NO3/c1-13(2,3)14-7-12(17)9-4-5-11(16)10(6-9)8-15/h4-6,12,14-17H,7-8H2,1-3H3
Instrument: Micromass Q-TOF II
Instrument type: LC-ESI-QTOF
Ms type: MS2
Ion mode: POSITIVE
Collision energy: 20 eV
Ionization: ESI
Precursor m/z: 240.16008
Precursor type: [M+H]+
m/z	relative intensity
57.0699	13
120.0803	11
121.0649	21
130.065	16
133.0527	15
148.0755	999
166.0864	119
222.1485	30
