Mass spectrum: Remifentanil; LC-ESI-QTOF; MS2; CE:30 eV; [M+H]+
Name: Remifentanil
Formula: C20H28N2O5
Exact mass: 376.19982
SMILES: [H]C([H])([H])OC(=O)C([H])([H])C([H])([H])N(C([H])([H])1)C([H])([H])C([H])([H])C(C(=O)OC([H])([H])[H])(N(C(=O)C([H])([H])C([H])([H])[H])c(c([H])2)c([H])c([H])c([H])c([H])2)C([H])([H])1
InChI: InChI=1S/C20H28N2O5/c1-4-17(23)22(16-8-6-5-7-9-16)20(19(25)27-3)11-14-21(15-12-20)13-10-18(24)26-2/h5-9H,4,10-15H2,1-3H3
Instrument: Micromass Q-TOF II
Instrument type: LC-ESI-QTOF
Ms type: MS2
Ion mode: POSITIVE
Collision energy: 30 eV
Ionization: ESI
Precursor m/z: 377.20776
Precursor type: [M+H]+
m/z	relative intensity
81.0343	96
84.0457	61
113.0609	999
116.0718	403
132.0817	15
136.077	89
142.0868	18
146.0981	343
154.0873	23
158.0985	60
168.1034	24
187.1263	18
196.0975	33
198.115	11
202.1244	77
228.1248	272
243.1518	15
247.1456	13
261.1617	240
285.162	84
303.1724	12
317.1904	13
