Mass spectrum: Hydroxybutorphanol; LC-ESI-QTOF; MS2; CE:30 eV; [M+H]+
Name: Hydroxybutorphanol
Formula: C21H29NO3
Exact mass: 343.21474
SMILES: [H]Oc(c([H])5)c([H])c(c(c([H])5)3)C(C([H])([H])4)(C([H])([H])1)C(O[H])(C([H])([H])C([H])([H])C([H])([H])4)C([H])(C([H])([H])3)N(C([H])([H])C([H])(C([H])([H])2)C([H])([H])C([H])(O[H])2)C([H])([H])1
InChI: InChI=1S/C21H29NO3/c23-16-4-3-15-11-19-21(25)6-2-1-5-20(21,18(15)12-16)7-8-22(19)13-14-9-17(24)10-14/h3-4,12,14,17,19,23-25H,1-2,5-11,13H2
Instrument: Micromass Q-TOF II
Instrument type: LC-ESI-QTOF
Ms type: MS2
Ion mode: POSITIVE
Collision energy: 30 eV
Ionization: ESI
Precursor m/z: 344.22268
Precursor type: [M+H]+
m/z	relative intensity
56.0495	10
96.0825	15
98.0978	27
140.1077	86
145.0668	13
157.0651	17
160.0768	27
173.097	11
185.097	45
199.1127	47
213.1272	11
242.1551	49
282.1866	62
326.2122	999
344.2229	50
