Mass spectrum: Naltrexone; LC-ESI-QTOF; MS2; CE:50 eV; [M+H]+
Name: Naltrexone
Formula: C20H23NO4
Exact mass: 341.16271
SMILES: [H]Oc(c([H])6)c(O5)c(c(c([H])6)3)C(C([H])([H])1)(C([H])54)C(O[H])(C([H])([H])C([H])([H])C(=O)4)C([H])(C([H])([H])3)N(C([H])([H])C([H])(C([H])([H])2)C([H])([H])2)C([H])([H])1
InChI: InChI=1S/C20H23NO4/c22-13-4-3-12-9-15-20(24)6-5-14(23)18-19(20,16(12)17(13)25-18)7-8-21(15)10-11-1-2-11/h3-4,11,15,18,22,24H,1-2,5-10H2
Instrument: Micromass Q-TOF II
Instrument type: LC-ESI-QTOF
Ms type: MS2
Ion mode: POSITIVE
Collision energy: 50 eV
Ionization: ESI
Precursor m/z: 342.17065
Precursor type: [M+H]+
m/z	relative intensity
55.0541	352
79.0534	21
80.0497	17
82.0644	12
91.0547	25
94.0678	10
103.0555	17
105.069	16
106.0659	11
115.0549	55
117.0638	37
118.0645	49
119.069	17
127.0526	11
128.0625	65
129.0699	57
130.0661	22
131.0512	33
132.0791	11
133.0643	10
134.0632	13
139.0536	10
141.0705	63
142.0765	14
143.0597	25
143.0828	15
144.0708	29
145.0657	64
146.0561	42
147.0569	52
148.0732	25
152.061	75
153.07	122
154.0679	41
155.0831	58
156.08	62
157.0677	90
158.0761	19
160.0695	32
161.0604	169
165.0694	109
166.0707	54
167.0776	83
168.0753	65
169.0696	63
170.0744	39
171.069	59
172.07	21
172.096	10
173.0597	56
174.0631	20
177.0709	11
178.077	35
179.0845	33
180.0816	53
181.0708	112
182.0888	72
183.0705	150
184.0729	239
185.0621	148
186.0863	27
187.0736	20
189.0716	16
191.0801	22
192.0856	13
193.0773	26
194.083	42
195.0765	47
196.0783	61
197.0711	86
198.0853	97
199.0736	91
200.0861	76
201.0898	12
202.0791	11
204.0819	13
205.0784	13
206.0897	16
207.0772	31
208.0811	37
209.0773	39
210.0869	87
211.0663	255
212.0709	999
213.0786	131
214.0897	22
215.081	11
219.0792	11
220.0875	17
221.0887	15
222.0894	27
223.0761	24
224.0847	50
225.0822	36
226.0858	174
227.0854	30
228.1011	84
234.09	18
235.0862	13
236.0804	25
237.0861	19
238.1033	47
239.102	28
240.0987	56
241.1013	11
242.0978	15
250.0867	13
252.1044	52
254.1078	20
266.1165	24
267.1248	79
270.1107	24
282.135	10
