Mass spectrum: Prednisolone_Tebutate; LC-ESI-QTOF; MS2; CE:30 eV; [M+H]+
Name: Prednisolone_Tebutate
Formula: C27H38O6
Exact mass: 458.26684
SMILES: [H]C([H])(C(C([H])([H])[H])(C([H])([H])[H])C([H])([H])[H])C(OC([H])([H])C(=O)C(O[H])(C4([H])[H])C(C([H])([H])[H])(C3([H])[H])C(C([H])([H])4)([H])C([H])(C([H])(C3([H])O[H])1)C(C(C(=C([H])2)C1(C([H])=C(C2=O)[H])C([H])([H])[H])([H])[H])([H])[H])=O
InChI: InChI=1S/C27H38O6/c1-24(2,3)14-22(31)33-15-21(30)27(32)11-9-19-18-7-6-16-12-17(28)8-10-25(16,4)23(18)20(29)13-26(19,27)5/h8,10,12,18-20,23,29,32H,6-7,9,11,13-15H2,1-5H3
Instrument: Micromass Q-TOF II
Instrument type: LC-ESI-QTOF
Ms type: MS2
Ion mode: POSITIVE
Collision energy: 30 eV
Ionization: ESI
Precursor m/z: 459.27478
Precursor type: [M+H]+
m/z	relative intensity
57.0693	349
71.086	346
81.0731	19
85.0644	10
93.0717	16
95.0882	15
97.0664	13
99.0817	999
101.0633	10
105.066	16
107.0906	28
109.0634	13
109.1046	14
119.0891	47
121.0671	132
121.1044	10
125.06	21
131.0896	26
133.0679	65
133.1017	33
135.0815	104
137.0929	10
139.0739	34
143.0849	16
145.0657	30
145.104	26
147.0813	688
149.0987	22
151.0782	23
157.0944	36
159.0812	57
161.0952	69
163.0725	26
165.0917	51
169.0947	13
171.0814	251
173.0965	266
175.118	12
177.103	13
179.0879	14
181.1032	16
185.0981	76
187.11	52
191.1066	32
195.0789	25
195.1202	19
196.0838	10
197.0963	89
199.1188	72
201.092	15
207.1189	14
209.0933	70
210.1055	23
211.1119	123
213.1233	38
219.123	10
221.0968	75
222.1076	48
223.1112	279
224.117	33
225.1255	91
226.1373	15
227.1051	13
227.1392	30
233.135	11
234.1028	12
235.1083	49
237.1262	338
239.1425	414
241.148	22
245.1244	15
247.1178	55
248.1166	15
249.1241	51
250.1281	11
251.1075	21
251.1407	44
259.113	13
260.1204	40
261.1261	50
261.1634	15
263.1473	88
264.1507	22
265.1144	18
265.1603	227
266.1711	39
267.1716	33
274.1348	95
276.1555	10
277.1613	48
279.1248	28
279.1654	191
283.1657	11
285.1812	36
289.1587	332
295.1636	16
297.1718	15
307.171	202
325.1811	128
343.1854	13
405.2397	67
441.2631	72
