Mass spectrum: Ormetoprim; LC-ESI-QTOF; MS2; CE:10 eV; [M+H]+
Name: Ormetoprim
Formula: C14H18N4O2
Exact mass: 274.14298
SMILES: [H]N([H])c(n2)nc(N([H])[H])c(c([H])2)C([H])([H])c(c([H])1)c(C([H])([H])[H])c([H])c(OC([H])([H])[H])c(OC([H])([H])[H])1
InChI: InChI=1S/C14H18N4O2/c1-8-4-11(19-2)12(20-3)6-9(8)5-10-7-17-14(16)18-13(10)15/h4,6-7H,5H2,1-3H3,(H4,15,16,17,18)
Instrument: Micromass Q-TOF II
Instrument type: LC-ESI-QTOF
Ms type: MS2
Ion mode: POSITIVE
Collision energy: 10 eV
Ionization: ESI
Precursor m/z: 275.15092
Precursor type: [M+H]+
m/z	relative intensity
275.1483	999
