Mass spectrum: Salmeterol; LC-ESI-QTOF; MS2; CE:50 eV; [M+H]+
Name: Salmeterol
Formula: C25H37NO4
Exact mass: 415.27226
SMILES: [H]OC([H])([H])c(c(O[H])2)c([H])c(c([H])c([H])2)C([H])(O[H])C([H])([H])N([H])C([H])([H])C([H])([H])C([H])([H])C([H])([H])C([H])([H])C([H])([H])OC([H])([H])C([H])([H])C([H])([H])C([H])([H])c(c([H])1)c([H])c([H])c([H])c([H])1
InChI: InChI=1S/C25H37NO4/c27-20-23-18-22(13-14-24(23)28)25(29)19-26-15-7-1-2-8-16-30-17-9-6-12-21-10-4-3-5-11-21/h3-5,10-11,13-14,18,25-29H,1-2,6-9,12,15-17,19-20H2
Instrument: Micromass Q-TOF II
Instrument type: LC-ESI-QTOF
Ms type: MS2
Ion mode: POSITIVE
Collision energy: 50 eV
Ionization: ESI
Precursor m/z: 416.28020
Precursor type: [M+H]+
m/z	relative intensity
55.0539	77
65.0374	14
77.0389	16
79.0545	45
91.0544	999
93.0708	31
98.0975	12
103.0558	41
105.0701	147
107.0508	14
107.0864	20
110.0953	10
115.0545	24
117.0673	43
118.0642	16
119.0744	21
120.0808	40
121.0651	100
129.0686	13
130.0664	47
131.0501	21
131.084	18
132.082	19
133.0628	230
134.0642	12
135.0793	61
145.0636	16
146.0594	31
147.0683	48
148.0754	68
149.0849	19
160.0753	33
162.0892	10
230.1504	15
