Mass spectrum: Acetophenazine; LC-ESI-QTOF; MS2; CE:30 eV; [M+H]+
Name: Acetophenazine
Formula: C23H29N3O2S
Exact mass: 411.19805
SMILES: [H]OC([H])([H])C([H])([H])N(C([H])([H])4)C([H])([H])C([H])([H])N(C([H])([H])4)C([H])([H])C([H])([H])C([H])([H])N(c32)c(c([H])1)c(Sc(c([H])c([H])c([H])c([H])3)2)c([H])c(C(=O)C([H])([H])[H])c([H])1
InChI: InChI=1S/C23H29N3O2S/c1-18(28)19-7-8-21-23(17-19)29-22-6-3-2-5-20(22)26(21)10-4-9-24-11-13-25(14-12-24)15-16-27/h2-3,5-8,17,27H,4,9-16H2,1H3
Instrument: Micromass Q-TOF II
Instrument type: LC-ESI-QTOF
Ms type: MS2
Ion mode: POSITIVE
Collision energy: 30 eV
Ionization: ESI
Precursor m/z: 412.20599
Precursor type: [M+H]+
m/z	relative intensity
70.0651	127
84.0815	24
86.0971	18
98.0868	151
99.1012	11
100.0764	187
113.1078	41
126.116	11
128.0947	34
141.1395	26
143.118	978
171.1495	999
212.0543	14
222.0916	38
239.0753	80
240.085	53
241.0545	15
254.0629	259
282.0937	40
412.2057	126
