Mass spectrum: Tenoxicam; LC-ESI-QTOF; MS2; CE:40 eV; [M+H]+
Name: Tenoxicam
Formula: C13H11N3O4S2
Exact mass: 337.01910
SMILES: [H]OC(N([H])c(n3)c([H])c([H])c([H])c([H])3)=C(C(=O)1)N(C([H])([H])[H])S(=O)(=O)c(c([H])2)c(sc([H])2)1
InChI: InChI=1S/C13H11N3O4S2/c1-16-10(13(18)15-9-4-2-3-6-14-9)11(17)12-8(5-7-21-12)22(16,19)20/h2-7,18H,1H3,(H,14,15)/b13-10+
Instrument: Micromass Q-TOF II
Instrument type: LC-ESI-QTOF
Ms type: MS2
Ion mode: POSITIVE
Collision energy: 40 eV
Ionization: ESI
Precursor m/z: 338.02704
Precursor type: [M+H]+
m/z	relative intensity
70.9935	39
78.0333	280
86.9927	12
94.0485	12
95.0602	986
96.0439	295
102.9681	19
105.0436	18
110.9895	33
114.968	55
116.9858	18
121.0395	999
130.9614	43
142.962	120
148.0518	13
158.9558	78
169.977	23
174.9512	14
