Mass spectrum: Daunorubicin; LC-ESI-QTOF; MS2; CE:50 eV; [M+H]+
Name: Daunorubicin
Formula: C27H29NO10
Exact mass: 527.17915
SMILES: c(=O)(c12)c(c5O[H])c(c(O[H])c(c35)C(C(C(C3(OC([H])(C([H])([H])4)OC([H])(C([H])(O[H])C([H])(N([H])[H])4)C([H])([H])[H])[H])([H])[H])(O[H])C(=O)C([H])([H])[H])([H])[H])c(c1c(c(c(c2OC([H])([H])[H])[H])[H])[H])=O
InChI: InChI=1S/C27H29NO10/c1-10-22(30)14(28)7-17(37-10)38-16-9-27(35,11(2)29)8-13-19(16)26(34)21-20(24(13)32)23(31)12-5-4-6-15(36-3)18(12)25(21)33/h4-6,10,14,16-17,22,30,32,34-35H,7-9,28H2,1-3H3
Instrument: Micromass Q-TOF II
Instrument type: LC-ESI-QTOF
Ms type: MS2
Ion mode: POSITIVE
Collision energy: 50 eV
Ionization: ESI
Precursor m/z: 528.18709
Precursor type: [M+H]+
m/z	relative intensity
58.0655	14
60.0447	11
69.0337	19
71.0505	25
72.0453	50
86.0614	150
95.0506	16
105.0343	12
113.0614	34
121.0655	63
130.0869	17
133.0289	16
135.045	81
157.0285	11
185.0226	12
237.0896	12
247.0745	37
262.0609	14
265.0837	11
275.0686	39
277.0793	14
278.0562	26
289.0514	23
290.0563	20
293.0789	38
303.0644	38
305.0468	15
306.0502	999
321.074	322
333.037	14
