Mass spectrum: Nandrolone; LC-ESI-QTOF; MS2; CE:30 eV; [M+H]+
Name: Nandrolone
Formula: C18H26O2
Exact mass: 274.19328
SMILES: [H]OC([H])(C([H])([H])4)C(C([H])([H])[H])(C([H])([H])3)C([H])(C([H])([H])4)C([H])(C([H])([H])1)C([H])(C([H])([H])3)C([H])(C([H])([H])2)C(=C([H])C(=O)C([H])([H])2)C([H])([H])1
InChI: InChI=1S/C18H26O2/c1-18-9-8-14-13-5-3-12(19)10-11(13)2-4-15(14)16(18)6-7-17(18)20/h10,13-17,20H,2-9H2,1H3/t13-,14+,15+,16-,17-,18-/m0/s1
Instrument: Micromass Q-TOF II
Instrument type: LC-ESI-QTOF
Ms type: MS2
Ion mode: POSITIVE
Collision energy: 30 eV
Ionization: ESI
Precursor m/z: 275.20122
Precursor type: [M+H]+
m/z	relative intensity
55.0537	18
67.0537	68
69.0697	23
77.0392	19
79.0547	149
81.07	223
83.0496	303
85.0654	12
91.0549	149
93.0702	251
95.0495	16
95.086	149
97.0646	31
105.0704	210
107.0491	118
107.0857	164
109.0649	999
109.1026	43
111.0793	19
117.0703	73
119.0859	170
121.063	14
121.1014	89
123.0802	51
128.0626	16
129.0703	63
130.0768	11
131.0857	117
133.0636	20
133.1006	118
135.0801	77
135.1168	102
141.0702	28
142.0784	13
143.0853	134
145.1009	256
147.0788	34
147.1169	148
149.0962	74
149.1335	43
155.0865	38
157.1013	93
159.1176	68
161.0964	92
161.1331	62
163.1115	70
169.101	45
171.1173	71
173.1324	37
175.1121	44
183.1177	73
185.1329	103
187.1483	99
188.1192	12
197.1325	67
199.1488	87
201.1277	48
203.1429	17
211.1475	26
213.1643	37
231.1736	33
239.1789	69
257.1892	51
275.2008	15
