Mass spectrum: Tetracaine; LC-ESI-QTOF; MS2; CE:40 eV; [M+H]+
Name: Tetracaine
Formula: C15H24N2O2
Exact mass: 264.18378
SMILES: [H]C([H])([H])C([H])([H])C([H])([H])C([H])([H])N([H])c(c([H])1)c([H])c([H])c(C(=O)OC([H])([H])C([H])([H])N(C([H])([H])[H])C([H])([H])[H])c([H])1
InChI: InChI=1S/C15H24N2O2/c1-4-5-10-16-14-8-6-13(7-9-14)15(18)19-12-11-17(2)3/h6-9,16H,4-5,10-12H2,1-3H3
Instrument: Micromass Q-TOF II
Instrument type: LC-ESI-QTOF
Ms type: MS2
Ion mode: POSITIVE
Collision energy: 40 eV
Ionization: ESI
Precursor m/z: 265.19172
Precursor type: [M+H]+
m/z	relative intensity
57.0671	52
65.0387	212
70.0655	89
72.0816	665
77.0403	13
79.0553	50
91.0558	34
92.0506	999
93.0627	33
94.0668	29
104.0515	21
105.0587	421
106.0664	167
110.0609	94
118.0664	81
119.0766	49
120.0459	570
132.0825	25
133.0878	38
148.1143	42
176.1087	840
