Mass spectrum: Betaxolol; LC-ESI-QTOF; MS2; CE:20 eV; [M+H]+
Name: Betaxolol
Formula: C18H29NO3
Exact mass: 307.21474
SMILES: [H]OC([H])(C([H])([H])Oc(c([H])2)c([H])c([H])c(c([H])2)C([H])([H])C([H])([H])OC([H])([H])C([H])(C([H])([H])1)C([H])([H])1)C([H])([H])N([H])C([H])(C([H])([H])[H])C([H])([H])[H]
InChI: InChI=1S/C18H29NO3/c1-14(2)19-11-17(20)13-22-18-7-5-15(6-8-18)9-10-21-12-16-3-4-16/h5-8,14,16-17,19-20H,3-4,9-13H2,1-2H3
Instrument: Micromass Q-TOF II
Instrument type: LC-ESI-QTOF
Ms type: MS2
Ion mode: POSITIVE
Collision energy: 20 eV
Ionization: ESI
Precursor m/z: 308.22268
Precursor type: [M+H]+
m/z	relative intensity
55.0537	15
72.0806	72
74.06	46
98.0964	70
116.1071	164
121.0653	26
133.0653	17
159.081	26
161.0966	45
177.0915	45
189.092	11
212.1283	13
218.154	14
231.1377	27
254.175	15
266.1745	26
290.2116	11
308.219	999
