Mass spectrum: Methionine_Enkephalin; LC-ESI-QTOF; MS2; CE:30 eV; [M+H]+
Name: Methionine_Enkephalin
Formula: C27H35N5O7S
Exact mass: 573.22572
SMILES: [H]C([H])(c(c2[H])c(c(c(c2[H])O[H])[H])[H])C([H])(N([H])[H])C(N(C(C(N(C(C(N(C(C([H])([H])c(c1[H])c(c(c(c1[H])[H])[H])[H])([H])C(N(C([H])(C(=O)O[H])C([H])([H])C(SC([H])([H])[H])([H])[H])[H])=O)[H])=O)([H])[H])[H])=O)([H])[H])[H])=O
InChI: InChI=1S/C27H35N5O7S/c1-40-12-11-21(27(38)39)32-26(37)22(14-17-5-3-2-4-6-17)31-24(35)16-29-23(34)15-30-25(36)20(28)13-18-7-9-19(33)10-8-18/h2-10,20-22,33H,11-16,28H2,1H3,(H,29,34)(H,30,36)(H,31,35)(H,32,37)(H,38,39)
Instrument: Micromass Q-TOF II
Instrument type: LC-ESI-QTOF
Ms type: MS2
Ion mode: POSITIVE
Collision energy: 30 eV
Ionization: ESI
Precursor m/z: 574.23366
Precursor type: [M+H]+
m/z	relative intensity
104.0535	53
115.0497	20
120.0807	843
133.0328	27
136.0755	458
148.0754	40
150.0583	304
177.1023	500
193.0964	99
203.1185	13
204.0653	13
205.0973	167
217.097	25
221.0914	728
223.1104	12
233.0916	58
234.1241	165
238.1235	24
244.1048	17
249.1223	22
250.1193	19
251.1206	25
259.11	12
261.084	13
262.1183	140
272.106	13
278.1124	999
280.1266	12
295.1403	32
297.1262	243
316.1296	24
317.1601	21
323.1406	80
352.1671	12
379.1819	15
380.1573	45
393.1547	26
397.1869	269
425.1756	12
435.2034	20
