Mass spectrum: Piperacetazine; LC-ESI-QTOF; MS2; CE:50 eV; [M+H]+
Name: Piperacetazine
Formula: C24H30N2O2S
Exact mass: 410.20280
SMILES: N(c43)(c(c([H])2)c(Sc(c([H])c([H])c([H])c([H])4)3)c([H])c([H])c(C(=O)C([H])([H])[H])2)C([H])([H])C([H])([H])C(N(C1([H])[H])C(C(C(C([H])([H])1)([H])C([H])([H])C([H])([H])O[H])([H])[H])([H])[H])([H])[H]
InChI: InChI=1S/C24H30N2O2S/c1-18(28)20-7-8-24-22(17-20)26(21-5-2-3-6-23(21)29-24)13-4-12-25-14-9-19(10-15-25)11-16-27/h2-3,5-8,17,19,27H,4,9-16H2,1H3
Instrument: Micromass Q-TOF II
Instrument type: LC-ESI-QTOF
Ms type: MS2
Ion mode: POSITIVE
Collision energy: 50 eV
Ionization: ESI
Precursor m/z: 411.21074
Precursor type: [M+H]+
m/z	relative intensity
70.0652	95
79.0553	14
81.0708	47
96.082	56
98.0971	21
112.1129	73
124.1134	83
128.1073	25
142.1236	999
170.1552	395
206.0967	21
211.0469	12
212.0542	39
222.0927	155
236.055	21
239.0783	59
240.0839	15
241.0574	14
254.0644	138
