Mass spectrum: Noscapine; LC-ESI-QTOF; MS2; CE:20 eV; [M+H]+
Name: Noscapine
Formula: C22H23NO7
Exact mass: 413.14745
SMILES: CN1CCC2=CC3=C(C(=C2[C@@H]1[C@@H]4C5=C(C(=C(C=C5)OC)OC)C(=O)O4)OC)OCO3
InChI: InChI=1S/C22H23NO7/c1-23-8-7-11-9-14-20(29-10-28-14)21(27-4)15(11)17(23)18-12-5-6-13(25-2)19(26-3)16(12)22(24)30-18/h5-6,9,17-18H,7-8,10H2,1-4H3/t17-,18+/m1/s1
Instrument: Micromass Q-TOF II
Instrument type: LC-ESI-QTOF
Ms type: MS2
Ion mode: POSITIVE
Collision energy: 20 eV
Ionization: ESI
Precursor m/z: 414.15539
Precursor type: [M+H]+
m/z	relative intensity
179.0705	42
206.0802	18
220.0957	999
248.0894	11
323.0893	14
324.1013	14
350.0796	20
352.0977	13
353.1017	246
365.1023	90
368.1159	12
378.1218	13
381.1184	15
383.1109	12
396.1104	228
414.1509	976
