Mass spectrum: Enalaprilat; LC-ESI-QTOF; MS2; CE:50 eV; [M+H]+
Name: Enalaprilat
Formula: C18H24N2O5
Exact mass: 348.16852
SMILES: [H]OC(=O)C([H])(N([H])C([H])(C([H])([H])[H])C(=O)N(C([H])([H])2)C([H])(C(=O)O[H])C([H])([H])C([H])([H])2)C([H])([H])C([H])([H])c(c([H])1)c([H])c([H])c([H])c([H])1
InChI: InChI=1S/C18H24N2O5/c1-12(16(21)20-11-5-8-15(20)18(24)25)19-14(17(22)23)10-9-13-6-3-2-4-7-13/h2-4,6-7,12,14-15,19H,5,8-11H2,1H3,(H,22,23)(H,24,25)/t12-,14+,15+/m0/s1
Instrument: Micromass Q-TOF II
Instrument type: LC-ESI-QTOF
Ms type: MS2
Ion mode: POSITIVE
Collision energy: 50 eV
Ionization: ESI
Precursor m/z: 349.17646
Precursor type: [M+H]+
m/z	relative intensity
56.0506	73
70.0657	64
91.0546	999
102.0559	48
115.0551	73
117.0707	426
134.097	13
160.1131	13
