Mass spectrum: 6a_Methylprednisolone; LC-ESI-QTOF; MS2; CE:40 eV; [M+H]+
Name: 6a_Methylprednisolone
Formula: C22H30O5
Exact mass: 374.20932
SMILES: [H]OC([H])([H])C(=O)C(O[H])(C([H])([H])4)C(C([H])([H])[H])(C([H])([H])3)C([H])(C([H])([H])4)C([H])(C([H])([H])1)C([H])(C([H])(O[H])3)C(C([H])=2)(C([H])([H])[H])C(=C([H])C(=O)C([H])2)C([H])(C([H])([H])[H])1
InChI: InChI=1S/C22H30O5/c1-12-8-14-15-5-7-22(27,18(26)11-23)21(15,3)10-17(25)19(14)20(2)6-4-13(24)9-16(12)20/h4,6,9,12,14-15,17,19,23,25,27H,5,7-8,10-11H2,1-3H3
Instrument: Micromass Q-TOF II
Instrument type: LC-ESI-QTOF
Ms type: MS2
Ion mode: POSITIVE
Collision energy: 40 eV
Ionization: ESI
Precursor m/z: 375.21726
Precursor type: [M+H]+
m/z	relative intensity
55.0183	18
55.0538	30
57.0344	13
67.0536	63
69.0319	33
69.0699	24
71.0489	32
77.0395	46
79.0546	142
81.0706	83
83.0497	29
91.0546	317
93.0703	202
95.0482	31
95.0861	90
97.0646	35
103.0538	20
105.0702	500
107.0451	42
107.0861	308
109.0663	89
109.1029	42
111.0427	14
111.0806	23
115.0537	129
116.0624	25
117.0702	211
119.086	237
121.0653	778
121.1101	15
123.0791	47
125.0634	20
127.0616	10
128.0619	78
129.0706	121
130.0773	41
131.0409	13
131.0852	228
132.0588	32
133.0598	44
133.1008	267
135.0803	973
137.06	57
137.1008	13
139.0811	13
141.0703	94
142.078	137
143.086	158
144.0582	53
144.0975	23
145.0664	292
145.1039	92
146.0727	215
147.0813	177
147.1228	23
149.0969	51
152.0629	21
153.0718	31
154.0784	27
155.0869	84
156.0933	48
157.0578	30
157.0996	180
158.073	251
159.081	491
159.1255	34
160.0888	72
161.0965	999
163.1149	13
165.0724	76
166.079	54
167.0861	83
168.0929	44
169.0625	15
169.0973	69
170.0739	63
171.0813	230
171.1264	16
172.0885	214
173.0969	248
174.1017	16
175.1119	65
177.0907	38
178.0784	94
179.086	87
180.0958	36
181.0846	143
182.0743	58
183.0867	113
183.1201	43
184.0889	63
185.0965	801
186.1055	29
187.1127	294
189.0893	74
190.0809	22
191.0868	40
192.0938	50
193.102	184
194.0947	62
195.0836	263
196.0883	277
197.0979	175
198.103	46
199.1121	108
201.125	17
202.0787	20
203.0857	47
204.0933	41
205.1014	76
206.1085	51
207.1023	105
208.0891	186
209.0963	499
210.1046	203
211.1126	500
212.1183	45
213.1266	84
215.0878	24
216.0925	36
217.1022	42
218.1072	49
219.1072	78
220.1169	101
221.098	161
222.1032	245
223.112	373
224.1194	131
225.128	134
226.1273	13
227.1353	17
229.1021	26
230.1095	14
231.1018	58
232.094	36
233.1003	121
234.106	70
235.1127	165
236.1187	175
237.1279	183
238.1354	122
239.1396	47
243.1225	18
244.0986	11
245.1028	72
246.1048	56
247.1121	97
248.1186	51
249.1248	118
250.1331	73
251.1409	156
252.1377	16
253.1586	68
255.1227	15
258.1062	28
259.1118	80
260.1194	33
261.1295	59
262.1352	31
263.1615	143
264.1346	45
265.1577	406
267.1369	11
273.1276	69
274.1289	16
275.1429	30
277.1429	31
278.1596	16
279.1739	76
280.1821	44
287.1418	13
288.1477	14
291.1583	11
293.1579	16
