Mass spectrum: Thioridazine; LC-ESI-QTOF; MS2; CE:40 eV; [M+H]+
Name: Thioridazine
Formula: C21H26N2S2
Exact mass: 370.15374
SMILES: [H]C([H])([H])Sc(c([H])4)c([H])c(c2c([H])4)N(c(c([H])3)c(c([H])c([H])c([H])3)S2)C([H])([H])C([H])([H])C([H])(N(C([H])([H])[H])1)C([H])([H])C([H])([H])C([H])([H])C([H])([H])1
InChI: InChI=1S/C21H26N2S2/c1-22-13-6-5-7-16(22)12-14-23-18-8-3-4-9-20(18)25-21-11-10-17(24-2)15-19(21)23/h3-4,8-11,15-16H,5-7,12-14H2,1-2H3
Instrument: Micromass Q-TOF II
Instrument type: LC-ESI-QTOF
Ms type: MS2
Ion mode: POSITIVE
Collision energy: 40 eV
Ionization: ESI
Precursor m/z: 371.16168
Precursor type: [M+H]+
m/z	relative intensity
55.0543	12
58.0647	95
70.0648	94
84.0804	18
98.0966	999
126.1278	490
179.0723	24
198.0376	12
199.0445	11
210.0361	17
211.0439	77
212.0531	14
225.0601	15
226.0676	129
243.0156	61
245.032	16
258.04	52
