Mass spectrum: Alfentanil; LC-ESI-QTOF; MS2; CE:50 eV; [M+H]+
Name: Alfentanil
Formula: C21H32N6O3
Exact mass: 416.25359
SMILES: [H]C([H])([H])OC([H])([H])C(N(C(=O)C([H])([H])C([H])([H])[H])c(c([H])3)c([H])c([H])c([H])c([H])3)(C([H])([H])1)C([H])([H])C([H])([H])N(C([H])([H])C([H])([H])N(N=2)C(=O)N(N2)C([H])([H])C([H])([H])[H])C([H])([H])1
InChI: InChI=1S/C21H32N6O3/c1-4-19(28)27(18-9-7-6-8-10-18)21(17-30-3)11-13-24(14-12-21)15-16-26-20(29)25(5-2)22-23-26/h6-10H,4-5,11-17H2,1-3H3
Instrument: Micromass Q-TOF II
Instrument type: LC-ESI-QTOF
Ms type: MS2
Ion mode: POSITIVE
Collision energy: 50 eV
Ionization: ESI
Precursor m/z: 417.26153
Precursor type: [M+H]+
m/z	relative intensity
56.0503	55
67.0538	202
68.0493	14
69.0694	103
70.029	159
71.0549	27
77.0388	78
79.0549	163
80.0503	51
81.0679	118
82.0643	39
83.0534	23
85.0418	20
87.0555	83
91.0541	18
93.0663	37
94.0656	364
95.0426	13
95.0727	143
96.0812	98
97.0485	55
97.0702	18
99.0562	692
99.0918	13
104.0511	28
105.0701	21
106.0672	28
107.0741	73
108.0814	120
109.0874	234
110.097	30
111.057	17
112.075	22
112.1131	12
117.0575	17
118.0641	11
120.0804	47
122.0954	164
125.0712	26
126.0909	10
132.0815	530
136.068	18
137.0735	69
137.1087	20
138.0855	11
140.1068	62
141.0758	11
149.0718	22
150.0816	72
154.1219	11
160.1114	29
163.087	52
165.1028	999
170.1054	19
183.1132	269
197.1284	119
