Mass spectrum: Sulfadimethoxine; LC-ESI-QTOF; MS2; CE:50 eV; [M+H]+
Name: Sulfadimethoxine
Formula: C12H14N4O4S
Exact mass: 310.07358
SMILES: [H]C([H])([H])Oc(n2)nc(c([H])c(OC([H])([H])[H])2)N([H])S(=O)(=O)c(c([H])1)c([H])c([H])c(N([H])[H])c([H])1
InChI: InChI=1S/C12H14N4O4S/c1-19-11-7-10(14-12(15-11)20-2)16-21(17,18)9-5-3-8(13)4-6-9/h3-7H,13H2,1-2H3,(H,14,15,16)
Instrument: Micromass Q-TOF II
Instrument type: LC-ESI-QTOF
Ms type: MS2
Ion mode: POSITIVE
Collision energy: 50 eV
Ionization: ESI
Precursor m/z: 311.08152
Precursor type: [M+H]+
m/z	relative intensity
56.049	15
57.0442	21
58.028	20
65.0375	999
66.035	21
67.0284	111
68.0134	37
69.0443	13
70.0521	16
72.0439	43
80.0496	430
81.0448	60
82.0289	95
83.0589	13
84.0331	44
85.0441	16
86.0238	15
89.0718	16
92.0496	915
93.0571	60
94.0395	12
95.0432	28
96.0556	15
98.0527	61
99.0553	50
108.0445	719
109.0398	41
110.0442	153
111.0198	78
111.0552	24
112.0501	17
113.0565	88
118.0527	63
124.0499	56
125.0579	34
126.066	43
140.0446	14
141.0528	122
144.0556	44
145.0626	62
154.0608	127
156.0764	71
172.0539	63
173.0611	51
