Mass spectrum: Piperacetazine; LC-ESI-QTOF; MS2; CE:30 eV; [M+H]+
Name: Piperacetazine
Formula: C24H30N2O2S
Exact mass: 410.20280
SMILES: N(c43)(c(c([H])2)c(Sc(c([H])c([H])c([H])c([H])4)3)c([H])c([H])c(C(=O)C([H])([H])[H])2)C([H])([H])C([H])([H])C(N(C1([H])[H])C(C(C(C([H])([H])1)([H])C([H])([H])C([H])([H])O[H])([H])[H])([H])[H])([H])[H]
InChI: InChI=1S/C24H30N2O2S/c1-18(28)20-7-8-24-22(17-20)26(21-5-2-3-6-23(21)29-24)13-4-12-25-14-9-19(10-15-25)11-16-27/h2-3,5-8,17,19,27H,4,9-16H2,1H3
Instrument: Micromass Q-TOF II
Instrument type: LC-ESI-QTOF
Ms type: MS2
Ion mode: POSITIVE
Collision energy: 30 eV
Ionization: ESI
Precursor m/z: 411.21074
Precursor type: [M+H]+
m/z	relative intensity
70.0655	15
96.0819	12
112.1134	23
124.1135	21
128.1084	15
142.1235	766
170.1552	999
222.0919	20
239.0775	42
240.0861	30
254.0641	140
282.0958	24
411.2133	85
