Mass spectrum: Prednisone; LC-ESI-QTOF; MS2; CE:30 eV; [M+H]+
Name: Prednisone
Formula: C21H26O5
Exact mass: 358.17802
SMILES: [H]OC([H])([H])C(=O)C(O[H])(C([H])([H])4)C(C([H])([H])[H])(C([H])([H])3)C([H])(C([H])([H])4)C([H])(C([H])([H])1)C([H])(C(=O)3)C(C([H])([H])[H])(C([H])=2)C(=C([H])C(=O)C([H])2)C([H])([H])1
InChI: InChI=1S/C21H26O5/c1-19-7-5-13(23)9-12(19)3-4-14-15-6-8-21(26,17(25)11-22)20(15,2)10-16(24)18(14)19/h5,7,9,14-15,18,22,26H,3-4,6,8,10-11H2,1-2H3
Instrument: Micromass Q-TOF II
Instrument type: LC-ESI-QTOF
Ms type: MS2
Ion mode: POSITIVE
Collision energy: 30 eV
Ionization: ESI
Precursor m/z: 359.18596
Precursor type: [M+H]+
m/z	relative intensity
67.0538	32
69.034	17
69.0694	21
71.0505	15
73.0676	12
77.0367	15
79.0558	54
81.0713	69
83.0497	21
85.0661	14
91.0549	73
93.0715	149
95.0503	90
95.0869	113
97.066	33
99.0455	16
101.0614	18
103.0503	12
105.0708	86
107.0489	13
107.0872	152
109.067	108
109.1025	21
111.0457	21
111.0812	53
115.0552	14
117.0715	60
119.087	101
121.0664	293
123.0817	57
125.0615	13
125.0995	23
128.0629	11
129.0726	35
131.0868	68
132.0595	16
133.0654	56
133.1033	24
135.0823	234
137.0618	32
137.0947	17
139.0758	34
141.0692	34
143.0865	24
144.0598	13
145.0666	117
145.1036	21
146.0745	37
147.0821	999
149.098	13
153.0824	63
155.0884	32
157.0655	22
157.1016	15
158.0737	68
159.082	511
160.0874	30
161.0977	181
163.0758	49
165.0836	19
166.0817	11
167.0826	37
169.0658	24
169.1038	31
170.0749	15
171.0817	698
172.0865	22
173.0979	382
175.0779	13
177.0945	16
179.0877	95
181.0676	18
181.1028	53
182.0742	36
183.083	127
184.0897	44
185.0576	22
185.0981	142
186.1063	29
187.076	110
187.1139	195
189.0927	66
191.0903	20
193.1045	54
194.073	26
194.1104	11
195.0825	88
195.1188	29
196.09	56
197.0972	359
198.1066	30
199.113	178
201.0907	14
201.1294	12
203.0929	16
204.095	24
205.1001	33
206.1088	12
207.0813	16
207.1153	54
208.0896	121
209.0987	288
210.1061	86
211.1132	220
212.1208	82
213.0867	23
213.1266	119
215.1051	56
217.104	15
218.1061	10
219.0792	12
219.1174	73
220.0912	50
221.0971	183
221.1387	15
222.1047	328
223.1122	261
224.1214	62
225.1291	210
226.112	12
226.1331	13
227.105	27
227.144	160
229.0991	16
230.1126	19
231.0956	28
231.1185	22
232.0915	12
233.0959	61
233.1392	13
234.1054	86
235.1152	203
236.1198	60
237.1286	525
238.1283	114
239.1382	247
240.1132	17
241.1264	15
243.1207	16
244.1284	10
245.0972	35
245.1315	28
246.103	57
247.1166	122
248.1201	160
249.1292	304
250.0983	10
250.1371	43
251.142	97
252.148	44
253.1324	184
255.136	100
257.104	13
258.103	10
259.11	27
259.1493	12
260.1199	52
261.1285	77
262.1364	128
263.144	212
264.1538	102
265.1603	297
266.1303	16
267.147	104
269.1556	12
272.1192	47
275.1442	68
276.1175	13
277.1555	135
279.1445	23
280.1494	17
281.1561	33
282.157	15
283.1655	13
287.1463	39
290.1311	24
292.1487	67
293.1554	44
295.1684	40
297.1469	19
305.16	21
323.1735	20
