Mass spectrum: Dextromethorphan; LC-ESI-QTOF; MS2; CE:40 eV; [M+H]+
Name: Dextromethorphan
Formula: C18H25NO
Exact mass: 271.19361
SMILES: [H]C([H])([H])Oc(c([H])4)c([H])c(c(c([H])4)1)C(C([H])([H])3)(C([H])([H])2)C([H])(C([H])([H])C([H])([H])C([H])([H])3)C([H])(N(C([H])([H])[H])C([H])([H])2)C([H])([H])1
InChI: InChI=1S/C18H25NO/c1-19-10-9-18-8-4-3-5-15(18)17(19)11-13-6-7-14(20-2)12-16(13)18/h6-7,12,15,17H,3-5,8-11H2,1-2H3
Instrument: Micromass Q-TOF II
Instrument type: LC-ESI-QTOF
Ms type: MS2
Ion mode: POSITIVE
Collision energy: 40 eV
Ionization: ESI
Precursor m/z: 272.20155
Precursor type: [M+H]+
m/z	relative intensity
67.0539	10
69.0691	18
91.0544	93
107.048	17
115.0534	27
116.0623	11
117.0696	20
119.0853	19
121.0639	130
128.0617	75
129.0697	19
132.0571	45
135.08	49
141.0686	48
143.0835	13
144.0554	66
145.0646	45
147.0794	386
154.0777	11
156.0559	42
157.0643	19
158.0719	87
159.0798	150
161.0945	18
165.0711	16
166.0768	18
170.0721	43
171.0798	999
172.0884	21
173.0953	148
181.0995	23
183.0799	22
184.0872	21
185.095	25
197.0953	12
198.1023	190
199.1117	23
213.1261	184
215.1415	52
272.1982	12
