Mass spectrum: Theobromine; LC-ESI-QTOF; MS2; CE:20 eV; [M+H]+
Name: Theobromine
Formula: C7H8N4O2
Exact mass: 180.06473
SMILES: [H]C([H])([H])N(C(=O)2)c(n1)c(C(=O)N([H])2)n(C([H])([H])[H])c([H])1
InChI: InChI=1S/C7H8N4O2/c1-10-3-8-5-4(10)6(12)9-7(13)11(5)2/h3H,1-2H3,(H,9,12,13)
Instrument: Micromass Q-TOF II
Instrument type: LC-ESI-QTOF
Ms type: MS2
Ion mode: POSITIVE
Collision energy: 20 eV
Ionization: ESI
Precursor m/z: 181.07267
Precursor type: [M+H]+
m/z	relative intensity
96.0557	46
108.0553	183
109.0472	14
110.0707	177
111.0652	14
113.0325	16
122.0582	72
135.0659	211
136.0598	12
137.0809	227
138.0651	425
139.0673	22
163.0598	399
164.0608	33
181.0709	999
182.0728	71
