Mass spectrum: Ergocristine; LC-ESI-QTOF; MS2; CE:30 eV; [M+H]+
Name: Ergocristine
Formula: C35H39N5O5
Exact mass: 609.29512
SMILES: C(C8=O)([H])(N(C2=O)C(C(N87)(C([H])([H])C([H])([H])C7([H])[H])[H])(OC2(N([H])C(C([H])(C([H])=3)C(N(C(C([H])([H])6)([H])C(c(c5[H])c(c64)c(c(c5[H])[H])n(c4[H])[H])3)C([H])([H])[H])([H])[H])=O)C(C([H])([H])[H])(C([H])([H])[H])[H])O[H])C(c(c([H])1)c([H])c([H])c([H])c([H])1)([H])[H]
InChI: InChI=1S/C35H39N5O5/c1-20(2)34(37-31(41)23-16-25-24-11-7-12-26-30(24)22(18-36-26)17-27(25)38(3)19-23)33(43)40-28(15-21-9-5-4-6-10-21)32(42)39-14-8-13-29(39)35(40,44)45-34/h4-7,9-12,16,18,20,23,27-29,36,44H,8,13-15,17,19H2,1-3H3,(H,37,41)
Instrument: Micromass Q-TOF II
Instrument type: LC-ESI-QTOF
Ms type: MS2
Ion mode: POSITIVE
Collision energy: 30 eV
Ionization: ESI
Precursor m/z: 610.30306
Precursor type: [M+H]+
m/z	relative intensity
83.0489	10
180.081	10
191.0732	21
192.0818	23
197.1072	26
208.0757	179
215.1183	34
221.1064	38
223.1222	851
225.1018	129
243.1109	115
245.1276	25
251.1174	39
261.1372	86
267.1336	15
268.143	487
277.1321	119
305.1269	999
320.1748	37
325.1533	719
348.1701	454
564.296	41
592.2903	172
610.3008	87
