Mass spectrum: Hematoporphyrin_I; LC-ESI-QTOF; MS2; CE:30 eV; [M+H]+
Name: Hematoporphyrin_I
Formula: C34H38N4O6
Exact mass: 598.27913
SMILES: c(c52)(C([H])(C([H])([H])[H])O[H])c(c(n([H])5)c(c(c4C(O[H])(C([H])([H])[H])[H])n(c(c(C([H])([H])[H])4)c(c(n1)C(=C(c1c([H])c(C(C([H])([H])C(C(O[H])=O)([H])[H])=3)nc(C3C([H])([H])[H])c2[H])C(C(C(O[H])=O)([H])[H])([H])[H])C([H])([H])[H])[H])[H])[H])C([H])([H])[H]
InChI: InChI=1S/C34H38N4O6/c1-15-21(7-9-31(41)42)27-14-28-22(8-10-32(43)44)16(2)24(36-28)12-29-34(20(6)40)18(4)26(38-29)13-30-33(19(5)39)17(3)25(37-30)11-23(15)35-27/h11-14,19-20,37-40H,7-10H2,1-6H3,(H,41,42)(H,43,44)/b23-11-,24-12-,25-11-,26-13-,27-14-,28-14-,29-12-,30-13-
Instrument: Micromass Q-TOF II
Instrument type: LC-ESI-QTOF
Ms type: MS2
Ion mode: POSITIVE
Collision energy: 30 eV
Ionization: ESI
Precursor m/z: 599.28707
Precursor type: [M+H]+
m/z	relative intensity
555.2603	41
581.2807	10
599.2883	999
