Mass spectrum: Albuterol; LC-ESI-QTOF; MS2; CE:50 eV; [M+H]+
Name: Albuterol
Formula: C13H21NO3
Exact mass: 239.15214
SMILES: [H]OC([H])([H])c(c(O[H])1)c([H])c(c([H])c([H])1)C([H])(O[H])C([H])([H])N([H])C(C([H])([H])[H])(C([H])([H])[H])C([H])([H])[H]
InChI: InChI=1S/C13H21NO3/c1-13(2,3)14-7-12(17)9-4-5-11(16)10(6-9)8-15/h4-6,12,14-17H,7-8H2,1-3H3
Instrument: Micromass Q-TOF II
Instrument type: LC-ESI-QTOF
Ms type: MS2
Ion mode: POSITIVE
Collision energy: 50 eV
Ionization: ESI
Precursor m/z: 240.16008
Precursor type: [M+H]+
m/z	relative intensity
53.0398	12
55.0188	40
57.0701	110
65.0384	126
67.0486	13
77.0393	846
78.0447	51
79.0546	194
80.0503	145
81.0367	37
81.0617	13
90.0477	22
91.0549	999
92.0574	59
93.0683	157
94.0633	34
95.0499	234
102.0459	26
103.0549	294
104.0503	85
105.0565	104
106.0575	30
107.0501	99
117.0579	130
118.0652	92
119.0626	31
120.0625	73
121.0653	106
128.0484	11
130.0657	123
131.0527	25
133.0528	135
134.0613	39
135.0685	17
146.0611	38
