Mass spectrum: Strychnine; LC-ESI-QTOF; MS2; CE:50 eV; [M+H]+
Name: Strychnine
Formula: C21H22N2O2
Exact mass: 334.16813
SMILES: [H]c(c([H])7)c([H])c(c(c([H])7)1)N(C(=O)5)C([H])(C([H])42)C1(C([H])([H])6)C([H])(N3C([H])([H])6)C([H])([H])C([H])(C(=C([H])C([H])([H])OC([H])(C([H])([H])5)4)C([H])([H])3)2
InChI: InChI=1S/C21H22N2O2/c24-18-10-16-19-13-9-17-21(6-7-22(17)11-12(13)5-8-25-16)14-3-1-2-4-15(14)23(18)20(19)21/h1-5,13,16-17,19-20H,6-11H2
Instrument: Micromass Q-TOF II
Instrument type: LC-ESI-QTOF
Ms type: MS2
Ion mode: POSITIVE
Collision energy: 50 eV
Ionization: ESI
Precursor m/z: 335.17607
Precursor type: [M+H]+
m/z	relative intensity
55.0191	25
65.0394	25
67.0525	36
68.0486	10
69.0566	12
72.0388	11
77.0388	54
78.0366	10
79.0553	70
80.0534	28
81.0714	47
82.0636	26
83.0528	11
91.0557	101
93.0641	78
94.0632	61
95.0513	29
96.081	26
97.9902	15
103.0504	15
105.0729	40
106.0657	81
107.0757	39
108.0799	22
115.0539	73
117.0681	63
118.0636	75
120.0862	25
121.0521	13
121.0671	22
122.0573	49
124.081	20
127.0477	16
128.0616	142
129.0703	561
130.0661	114
132.0363	12
132.0638	20
132.0789	22
136.0785	12
140.045	11
142.0631	49
143.0768	112
144.0787	190
145.0673	15
146.0655	17
148.0717	15
152.0567	24
153.0687	40
154.0649	104
155.0741	92
156.0811	999
157.09	11
158.0897	30
160.0861	15
165.0707	25
166.0677	82
167.0727	190
168.0813	226
169.0818	77
169.6277	11
170.0579	25
170.0961	99
171.0905	45
172.0759	31
174.9955	11
177.0791	16
178.0737	17
179.0791	30
180.082	128
181.0888	49
182.0991	106
183.0694	56
184.0758	834
184.1283	15
185.074	59
186.0911	16
191.0709	108
192.0822	87
193.0894	108
194.0945	230
195.0907	25
196.0795	73
197.0776	32
198.0908	46
200.0714	20
202.0807	11
204.0848	162
205.0853	86
206.097	149
207.1056	59
209.1024	17
210.0945	45
211.084	11
215.0872	20
216.0847	40
217.0897	179
218.0994	117
219.1057	53
220.0801	287
221.0847	42
222.0925	111
224.1029	15
228.0898	31
229.0858	29
230.0966	84
231.0999	55
232.106	69
233.0916	48
234.0956	97
234.1301	39
235.1347	44
236.1222	26
237.1072	15
242.0993	44
243.1008	15
244.1086	30
245.0997	29
246.0945	81
247.106	58
248.1127	79
249.1145	24
250.1175	18
257.0854	48
258.1021	23
259.1036	25
260.0967	15
261.1199	29
262.1307	47
264.0945	48
266.1032	13
272.1186	14
273.1524	10
274.1245	31
275.128	25
290.1139	23
335.1705	96
