Mass spectrum: Fenbendazole; LC-ESI-QTOF; MS2; CE:50 eV; [M+H]+
Name: Fenbendazole
Formula: C15H13N3O2S
Exact mass: 299.07285
SMILES: [H]C([H])([H])OC(=O)N([H])c(n1)n([H])c(c([H])2)c1c([H])c([H])c(Sc(c([H])3)c([H])c([H])c([H])c([H])3)2
InChI: InChI=1S/C15H13N3O2S/c1-20-15(19)18-14-16-12-8-7-11(9-13(12)17-14)21-10-5-3-2-4-6-10/h2-9H,1H3,(H2,16,17,18,19)
Instrument: Micromass Q-TOF II
Instrument type: LC-ESI-QTOF
Ms type: MS2
Ion mode: POSITIVE
Collision energy: 50 eV
Ionization: ESI
Precursor m/z: 300.08079
Precursor type: [M+H]+
m/z	relative intensity
65.0389	26
77.0271	100
79.0426	23
94.9966	10
95.0375	12
103.0422	97
104.0375	526
105.0458	26
109.0115	102
116.0378	18
118.0527	12
119.0525	30
122.0068	131
130.0411	35
131.048	999
132.0371	11
136.0102	31
146.0347	19
147.0026	14
147.0417	13
154.0652	15
158.0347	15
159.0429	992
163.0208	43
164.0289	23
171.0276	84
172.0339	18
186.0389	16
190.0081	49
191.0158	76
196.0228	13
198.038	35
199.0455	23
224.0404	13
225.0482	50
239.0517	19
240.0585	11
