Mass spectrum: Oxybutynine; LC-ESI-QTOF; MS2; CE:40 eV; [M+H]+
Name: Oxybutynine
Formula: C22H31NO3
Exact mass: 357.23039
SMILES: [H]C([H])([H])C([H])([H])N(C([H])([H])C#CC([H])([H])OC(=O)C(O[H])(c(c([H])2)c([H])c([H])c([H])c([H])2)C([H])(C([H])([H])1)C([H])([H])C([H])([H])C([H])([H])C([H])([H])1)C([H])([H])C([H])([H])[H]
InChI: InChI=1S/C22H31NO3/c1-3-23(4-2)17-11-12-18-26-21(24)22(25,19-13-7-5-8-14-19)20-15-9-6-10-16-20/h5,7-8,13-14,20,25H,3-4,6,9-10,15-18H2,1-2H3
Instrument: Micromass Q-TOF II
Instrument type: LC-ESI-QTOF
Ms type: MS2
Ion mode: POSITIVE
Collision energy: 40 eV
Ionization: ESI
Precursor m/z: 358.23833
Precursor type: [M+H]+
m/z	relative intensity
54.0343	61
55.0544	41
56.0499	21
58.065	278
67.052	51
68.0496	117
69.0339	151
69.0696	27
70.0649	11
72.081	999
73.0886	83
74.0976	26
77.0391	100
79.0546	270
80.0504	52
81.0621	87
82.0663	43
83.0861	54
84.0811	12
86.0971	41
91.0545	270
93.0682	18
94.0659	160
95.0502	29
95.0743	27
96.0817	48
97.0289	153
103.0559	13
105.034	534
105.0724	21
107.0496	430
108.0814	77
109.0887	20
115.0536	29
117.0703	45
121.0661	16
122.0976	12
127.0547	11
128.0625	45
129.0699	255
141.0699	15
142.1225	533
143.0855	49
145.0659	17
157.0646	29
165.0694	11
166.0765	13
171.1169	58
189.1272	39
199.1114	11
