Mass spectrum: Spectinomycin; LC-ESI-QTOF; MS2; CE:40 eV; [M+H]+
Name: Spectinomycin
Formula: C14H24N2O7
Exact mass: 332.15835
SMILES: [H]C([H])([H])N([H])C([H])(C([H])(O[H])1)C([H])(O[H])C([H])(O2)C([H])(OC(O[H])(C(=O)3)C([H])(OC([H])(C([H])([H])[H])C([H])([H])3)2)C([H])(N([H])C([H])([H])[H])1
InChI: InChI=1S/C14H24N2O7/c1-5-4-6(17)14(20)13(21-5)22-12-10(19)7(15-2)9(18)8(16-3)11(12)23-14/h5,7-13,15-16,18-20H,4H2,1-3H3
Instrument: Micromass Q-TOF II
Instrument type: LC-ESI-QTOF
Ms type: MS2
Ion mode: POSITIVE
Collision energy: 40 eV
Ionization: ESI
Precursor m/z: 333.16629
Precursor type: [M+H]+
m/z	relative intensity
53.0398	40
55.0187	21
55.0546	42
56.0502	53
57.0338	106
58.0295	21
58.0653	66
59.0368	41
60.0443	22
65.0382	19
67.0523	47
68.0495	113
68.9958	11
69.0334	264
70.0654	519
71.0114	15
71.0493	417
72.045	682
73.0237	24
73.0518	163
74.0606	377
77.0401	11
79.0556	18
80.0501	36
81.0345	349
82.0658	279
83.0116	22
83.0502	139
84.0445	160
84.0824	87
85.0311	199
85.0635	88
86.0609	335
87.0083	77
87.0457	28
88.0765	38
93.0579	35
94.0658	692
95.0117	12
95.0529	51
96.0441	105
96.0822	73
97.0446	77
97.0552	54
98.0605	999
99.0455	568
99.0783	24
100.0391	129
100.0765	212
101.0466	21
102.0554	115
107.0668	10
108.0816	22
109.0285	131
110.0608	248
111.057	156
112.0376	218
112.0765	548
113.0281	50
113.0563	12
114.0553	137
114.0975	14
115.06	19
116.0712	130
122.06	439
123.076	73
124.0754	83
125.0293	20
125.1061	23
126.0562	47
127.0397	48
128.0656	76
129.0542	147
130.0506	16
135.0916	71
138.0576	66
139.0629	49
140.0709	260
141.058	24
142.0856	31
150.0623	12
152.0739	23
153.1011	27
154.0844	45
156.0662	17
158.0797	44
168.0661	11
170.0798	22
172.0951	12
182.0818	13
189.1213	31
200.0906	13
207.1322	13
