Mass spectrum: Buspirone; LC-ESI-QTOF; MS2; CE:30 eV; [M+H]+
Name: Buspirone
Formula: C21H31N5O2
Exact mass: 385.24778
SMILES: [H]c(c([H])4)c([H])nc(n4)N(C([H])([H])1)C([H])([H])C([H])([H])N(C([H])([H])C([H])([H])C([H])([H])C([H])([H])N(C(=O)3)C(=O)C([H])([H])C(C([H])([H])3)(C([H])([H])2)C([H])([H])C([H])([H])C([H])([H])2)C([H])([H])1
InChI: InChI=1S/C21H31N5O2/c27-18-16-21(6-1-2-7-21)17-19(28)26(18)11-4-3-10-24-12-14-25(15-13-24)20-22-8-5-9-23-20/h5,8-9H,1-4,6-7,10-17H2
Instrument: Micromass Q-TOF II
Instrument type: LC-ESI-QTOF
Ms type: MS2
Ion mode: POSITIVE
Collision energy: 30 eV
Ionization: ESI
Precursor m/z: 386.25572
Precursor type: [M+H]+
m/z	relative intensity
98.0965	18
109.0643	13
109.1025	17
122.0712	999
123.0813	11
140.108	14
148.0865	114
150.1024	152
152.1067	100
168.1018	64
180.1017	80
198.1128	14
222.1479	183
265.1893	184
291.2047	13
343.2122	19
386.2549	505
