Mass spectrum: Streptomycin; LC-ESI-QTOF; MS2; CE:20 eV; [M+H]+
Name: Streptomycin
Formula: C21H39N7O12
Exact mass: 581.26567
SMILES: [H]N([H])C(N([H])[H])=NC([H])(C([H])(O[H])1)C([H])(O[H])C([H])(N=C(N([H])[H])N([H])[H])C([H])(OC([H])(O2)C([H])(OC([H])(O3)C([H])(N([H])C([H])([H])[H])C([H])(O[H])C([H])(O[H])C([H])(C([H])([H])O[H])3)C(O[H])(C([H])=O)C([H])(C([H])([H])[H])2)C([H])(O[H])1
InChI: InChI=1S/C21H39N7O12/c1-5-21(36,4-30)16(40-17-9(26-2)13(34)10(31)6(3-29)38-17)18(37-5)39-15-8(28-20(24)25)11(32)7(27-19(22)23)12(33)14(15)35/h4-18,26,29,31-36H,3H2,1-2H3,(H4,22,23,27)(H4,24,25,28)/t5-,6-,7+,8-,9-,10-,11+,12-,13-,14+,15+,16-,17-,18-,21+/m0/s1
Instrument: Micromass Q-TOF II
Instrument type: LC-ESI-QTOF
Ms type: MS2
Ion mode: POSITIVE
Collision energy: 20 eV
Ionization: ESI
Precursor m/z: 582.27361
Precursor type: [M+H]+
m/z	relative intensity
263.149	20
540.2359	19
565.2374	20
582.2698	999
