Mass spectrum: Ampicillin; LC-ESI-QTOF; MS2; CE:40 eV; [M+H]+
Name: Ampicillin
Formula: C16H19N3O4S
Exact mass: 349.10963
SMILES: [H]OC(=O)C([H])(N21)C(C([H])([H])[H])(C([H])([H])[H])SC([H])(C([H])(N([H])C(=O)C([H])(N([H])[H])c(c([H])3)c([H])c([H])c([H])c([H])3)C(=O)2)1
InChI: InChI=1S/C16H19N3O4S/c1-16(2)11(15(22)23)19-13(21)10(14(19)24-16)18-12(20)9(17)8-6-4-3-5-7-8/h3-7,9-11,14H,17H2,1-2H3,(H,18,20)(H,22,23)
Instrument: Micromass Q-TOF II
Instrument type: LC-ESI-QTOF
Ms type: MS2
Ion mode: POSITIVE
Collision energy: 40 eV
Ionization: ESI
Precursor m/z: 350.11757
Precursor type: [M+H]+
m/z	relative intensity
68.013	22
68.0485	11
70.065	65
74.0067	36
79.0547	188
86.0065	55
87.0265	45
91.0545	133
94.0655	14
96.0444	18
103.0541	16
106.0651	999
114.0004	145
114.0374	273
117.0575	35
118.0651	266
119.0498	19
121.0108	75
122.0598	17
123.0269	12
128.0511	23
130.0649	33
131.0659	13
135.0278	19
137.0423	32
137.0705	33
142.0334	14
146.0599	63
147.0264	50
160.0432	53
162.0376	22
164.0522	22
165.0661	13
174.0484	23
