Mass spectrum: Perindopril; LC-ESI-QTOF; MS2; CE:30 eV; [M+H]+
Name: Perindopril
Formula: C19H32N2O5
Exact mass: 368.23112
SMILES: [H]OC(=O)C([H])(C([H])([H])1)N(C(=O)C([H])(C([H])([H])[H])N([H])C([H])(C(=O)OC([H])([H])C([H])([H])[H])C([H])([H])C([H])([H])C([H])([H])[H])C([H])(C([H])([H])2)C([H])(C([H])([H])C([H])([H])C([H])([H])2)1
InChI: InChI=1S/C19H32N2O5/c1-4-8-14(19(25)26-5-2)20-12(3)17(22)21-15-10-7-6-9-13(15)11-16(21)18(23)24/h12-16,20H,4-11H2,1-3H3,(H,23,24)/t12-,13-,14-,15-,16-/m0/s1
Instrument: Micromass Q-TOF II
Instrument type: LC-ESI-QTOF
Ms type: MS2
Ion mode: POSITIVE
Collision energy: 30 eV
Ionization: ESI
Precursor m/z: 369.23906
Precursor type: [M+H]+
m/z	relative intensity
56.0499	17
72.0812	170
73.0655	28
74.0236	12
98.0974	776
124.1129	43
144.1025	23
144.1389	27
170.1185	184
172.134	999
295.2022	44
