Mass spectrum: 4_Aminoantipyrine; LC-ESI-QTOF; MS2; CE:10 eV; [M+H]+
Name: 4_Aminoantipyrine
Formula: C11H13N3O
Exact mass: 203.10586
SMILES: [H]N([H])C(C(=O)1)=C(C([H])([H])[H])N(C([H])([H])[H])N1c(c([H])2)c([H])c([H])c([H])c([H])2
InChI: InChI=1S/C11H13N3O/c1-8-10(12)11(15)14(13(8)2)9-6-4-3-5-7-9/h3-7H,12H2,1-2H3
Instrument: Micromass Q-TOF II
Instrument type: LC-ESI-QTOF
Ms type: MS2
Ion mode: POSITIVE
Collision energy: 10 eV
Ionization: ESI
Precursor m/z: 204.11380
Precursor type: [M+H]+
m/z	relative intensity
56.0497	28
83.061	31
85.0764	19
94.0655	17
111.056	26
159.0916	57
173.0714	21
187.0867	76
189.0899	12
204.1112	999
