Mass spectrum: Bumetanide; LC-ESI-QTOF; MS2; CE:10 eV; [M+H]+
Name: Bumetanide
Formula: C17H20N2O5S
Exact mass: 364.10929
SMILES: [H]OC(=O)c(c([H])1)c([H])c(S(=O)(=O)N([H])[H])c(Oc(c([H])2)c([H])c([H])c([H])c([H])2)c(N([H])C([H])([H])C([H])([H])C([H])([H])C([H])([H])[H])1
InChI: InChI=1S/C17H20N2O5S/c1-2-3-9-19-14-10-12(17(20)21)11-15(25(18,22)23)16(14)24-13-7-5-4-6-8-13/h4-8,10-11,19H,2-3,9H2,1H3,(H,20,21)(H2,18,22,23)
Instrument: Micromass Q-TOF II
Instrument type: LC-ESI-QTOF
Ms type: MS2
Ion mode: POSITIVE
Collision energy: 10 eV
Ionization: ESI
Precursor m/z: 365.11723
Precursor type: [M+H]+
m/z	relative intensity
240.1376	45
284.1273	62
348.0895	22
365.1155	999
