Mass spectrum: 4_Aminoantipyrine; LC-ESI-QTOF; MS2; CE:20 eV; [M+H]+
Name: 4_Aminoantipyrine
Formula: C11H13N3O
Exact mass: 203.10586
SMILES: [H]N([H])C(C(=O)1)=C(C([H])([H])[H])N(C([H])([H])[H])N1c(c([H])2)c([H])c([H])c([H])c([H])2
InChI: InChI=1S/C11H13N3O/c1-8-10(12)11(15)14(13(8)2)9-6-4-3-5-7-9/h3-7H,12H2,1-2H3
Instrument: Micromass Q-TOF II
Instrument type: LC-ESI-QTOF
Ms type: MS2
Ion mode: POSITIVE
Collision energy: 20 eV
Ionization: ESI
Precursor m/z: 204.11380
Precursor type: [M+H]+
m/z	relative intensity
56.0496	999
58.0646	51
68.0491	32
77.039	27
83.0609	392
85.0766	184
94.0658	523
95.0489	11
104.0501	169
106.0661	11
111.056	86
118.0662	58
120.0453	11
128.0497	39
130.0655	54
132.0435	22
132.081	43
142.0645	15
144.0757	14
145.0762	105
146.0602	242
158.0602	61
159.0917	419
160.0843	27
161.0867	11
169.0762	12
170.0616	11
172.0633	26
173.0715	54
185.0721	17
187.0872	135
188.0827	21
189.09	114
204.1134	132
