Mass spectrum: Methionine_Enkephalin; LC-ESI-QTOF; MS2; CE:40 eV; [M+H]+
Name: Methionine_Enkephalin
Formula: C27H35N5O7S
Exact mass: 573.22572
SMILES: [H]C([H])(c(c2[H])c(c(c(c2[H])O[H])[H])[H])C([H])(N([H])[H])C(N(C(C(N(C(C(N(C(C([H])([H])c(c1[H])c(c(c(c1[H])[H])[H])[H])([H])C(N(C([H])(C(=O)O[H])C([H])([H])C(SC([H])([H])[H])([H])[H])[H])=O)[H])=O)([H])[H])[H])=O)([H])[H])[H])=O
InChI: InChI=1S/C27H35N5O7S/c1-40-12-11-21(27(38)39)32-26(37)22(14-17-5-3-2-4-6-17)31-24(35)16-29-23(34)15-30-25(36)20(28)13-18-7-9-19(33)10-8-18/h2-10,20-22,33H,11-16,28H2,1H3,(H,29,34)(H,30,36)(H,31,35)(H,32,37)(H,38,39)
Instrument: Micromass Q-TOF II
Instrument type: LC-ESI-QTOF
Ms type: MS2
Ion mode: POSITIVE
Collision energy: 40 eV
Ionization: ESI
Precursor m/z: 574.23366
Precursor type: [M+H]+
m/z	relative intensity
91.0543	22
104.0531	57
115.0501	37
119.0503	30
120.0809	999
132.0819	12
133.0321	43
136.0759	662
147.045	13
148.0764	97
150.0585	109
165.1027	15
177.1023	242
189.1032	10
193.0973	152
203.1183	21
204.0648	16
205.0967	18
217.1001	12
221.092	522
233.0921	36
234.1228	34
238.1226	18
244.1074	16
262.1192	10
278.1136	86
295.1422	19
297.1263	21
