Mass spectrum: Prednisone; LC-ESI-QTOF; MS2; CE:40 eV; [M+H]+
Name: Prednisone
Formula: C21H26O5
Exact mass: 358.17802
SMILES: [H]OC([H])([H])C(=O)C(O[H])(C([H])([H])4)C(C([H])([H])[H])(C([H])([H])3)C([H])(C([H])([H])4)C([H])(C([H])([H])1)C([H])(C(=O)3)C(C([H])([H])[H])(C([H])=2)C(=C([H])C(=O)C([H])2)C([H])([H])1
InChI: InChI=1S/C21H26O5/c1-19-7-5-13(23)9-12(19)3-4-14-15-6-8-21(26,17(25)11-22)20(15,2)10-16(24)18(14)19/h5,7,9,14-15,18,22,26H,3-4,6,8,10-11H2,1-2H3
Instrument: Micromass Q-TOF II
Instrument type: LC-ESI-QTOF
Ms type: MS2
Ion mode: POSITIVE
Collision energy: 40 eV
Ionization: ESI
Precursor m/z: 359.18596
Precursor type: [M+H]+
m/z	relative intensity
55.0171	14
55.0551	35
57.0336	16
65.0385	13
67.0544	107
69.0338	62
69.0708	28
71.0503	13
77.039	53
79.055	146
81.0305	14
81.0704	148
83.0499	21
91.0552	277
93.0703	206
95.0487	115
95.0864	190
97.0655	31
99.0481	14
103.0544	33
105.0712	215
107.0471	39
107.0869	172
109.0649	110
109.1057	11
111.043	18
111.081	35
115.0554	68
116.0616	16
117.0714	116
119.0859	232
121.0658	445
123.0792	36
125.0598	11
127.0592	11
128.0624	78
129.0703	82
130.0802	19
131.0422	12
131.0871	179
132.0566	86
133.0681	60
133.1013	27
134.0717	11
135.0818	145
137.064	23
139.0764	12
141.0707	144
142.0802	30
143.0861	69
144.0586	99
145.0656	294
145.1059	24
146.0735	151
147.0815	999
149.0854	18
152.0619	24
153.0729	66
154.0801	36
155.0863	76
156.0914	11
157.0662	74
157.1043	14
158.0734	259
159.0816	522
160.0899	47
161.0973	135
163.0733	41
165.0715	90
166.0786	47
167.0852	78
168.0631	26
169.0745	158
170.0732	56
171.0816	865
172.0886	49
173.0965	295
175.0953	14
178.0782	72
179.0869	243
180.0952	27
181.0716	168
181.1096	35
182.0736	149
183.0831	176
184.091	84
185.0968	129
186.1022	36
187.0857	77
187.1115	35
189.0845	63
190.0808	33
191.0865	84
192.0925	54
193.1022	103
194.0772	100
194.1111	26
195.0831	257
195.1329	11
196.0893	163
197.0967	220
198.1058	30
199.1125	66
202.0775	41
203.0879	57
204.0934	61
205.0969	65
206.0903	39
206.1214	13
207.0857	184
208.0885	268
209.0967	252
210.1032	141
211.1106	148
212.1192	96
213.131	31
215.0938	46
216.0962	32
217.103	48
218.0883	55
219.0941	137
220.0905	104
221.0971	248
222.1039	496
223.1123	190
224.1087	83
225.1225	80
226.1287	24
227.098	14
227.1382	50
228.0946	20
229.1011	61
230.1077	27
231.0945	68
231.1178	34
232.0916	66
233.0962	157
234.1033	148
235.1112	161
236.1198	63
237.1267	154
238.1193	86
239.0925	13
239.1391	66
240.1166	11
242.1115	13
243.1129	25
244.1099	21
245.0987	92
246.103	64
247.112	174
248.1201	124
249.1274	213
250.1257	32
251.139	41
252.131	16
253.1206	14
255.1384	16
257.0938	27
258.1041	15
259.1126	33
260.1216	31
261.1276	49
262.127	52
263.1413	70
264.1418	25
265.1565	50
271.1155	15
272.1234	31
275.0993	11
275.1201	15
275.1468	11
277.1379	23
292.1402	13
