Mass spectrum: Terfenadine; LC-ESI-QTOF; MS2; CE:30 eV; [M+H]+
Name: Terfenadine
Formula: C32H41NO2
Exact mass: 471.31373
SMILES: [H]C([H])(N(C(C([H])([H])C([H])([H])C([H])(O[H])c(c([H])4)c([H])c([H])c(C(C([H])([H])[H])(C([H])([H])[H])C([H])([H])[H])c4[H])([H])[H])1)C([H])([H])C(C(O[H])(c(c([H])3)c([H])c([H])c([H])c([H])3)c(c([H])2)c([H])c([H])c([H])c([H])2)(C([H])([H])C([H])([H])1)[H]
InChI: InChI=1S/C32H41NO2/c1-31(2,3)26-18-16-25(17-19-26)30(34)15-10-22-33-23-20-29(21-24-33)32(35,27-11-6-4-7-12-27)28-13-8-5-9-14-28/h4-9,11-14,16-19,29-30,34-35H,10,15,20-24H2,1-3H3
Instrument: Micromass Q-TOF II
Instrument type: LC-ESI-QTOF
Ms type: MS2
Ion mode: POSITIVE
Collision energy: 30 eV
Ionization: ESI
Precursor m/z: 472.32167
Precursor type: [M+H]+
m/z	relative intensity
57.0698	52
129.0699	22
131.0863	14
187.1487	13
203.1425	21
262.1582	47
268.2057	12
436.2988	999
454.311	353
472.322	35
