Mass spectrum: Tenoxicam; LC-ESI-QTOF; MS2; CE:30 eV; [M+H]+
Name: Tenoxicam
Formula: C13H11N3O4S2
Exact mass: 337.01910
SMILES: [H]OC(N([H])c(n3)c([H])c([H])c([H])c([H])3)=C(C(=O)1)N(C([H])([H])[H])S(=O)(=O)c(c([H])2)c(sc([H])2)1
InChI: InChI=1S/C13H11N3O4S2/c1-16-10(13(18)15-9-4-2-3-6-14-9)11(17)12-8(5-7-21-12)22(16,19)20/h2-7,18H,1H3,(H,14,15)/b13-10+
Instrument: Micromass Q-TOF II
Instrument type: LC-ESI-QTOF
Ms type: MS2
Ion mode: POSITIVE
Collision energy: 30 eV
Ionization: ESI
Precursor m/z: 338.02704
Precursor type: [M+H]+
m/z	relative intensity
78.0336	55
95.0599	663
96.0444	70
110.9885	18
114.967	13
116.9813	14
121.0385	999
130.9621	11
142.9615	60
143.9932	24
148.052	11
154.0338	10
158.9565	114
162.0641	28
164.0818	45
169.9747	44
174.9507	13
199.9843	15
215.9772	27
