Mass spectrum: Salmeterol; LC-ESI-QTOF; MS2; CE:30 eV; [M+H]+
Name: Salmeterol
Formula: C25H37NO4
Exact mass: 415.27226
SMILES: [H]OC([H])([H])c(c(O[H])2)c([H])c(c([H])c([H])2)C([H])(O[H])C([H])([H])N([H])C([H])([H])C([H])([H])C([H])([H])C([H])([H])C([H])([H])C([H])([H])OC([H])([H])C([H])([H])C([H])([H])C([H])([H])c(c([H])1)c([H])c([H])c([H])c([H])1
InChI: InChI=1S/C25H37NO4/c27-20-23-18-22(13-14-24(23)28)25(29)19-26-15-7-1-2-8-16-30-17-9-6-12-21-10-4-3-5-11-21/h3-5,10-11,13-14,18,25-29H,1-2,6-9,12,15-17,19-20H2
Instrument: Micromass Q-TOF II
Instrument type: LC-ESI-QTOF
Ms type: MS2
Ion mode: POSITIVE
Collision energy: 30 eV
Ionization: ESI
Precursor m/z: 416.28020
Precursor type: [M+H]+
m/z	relative intensity
55.0545	52
79.0535	13
81.0711	51
83.0861	64
91.0552	999
96.0833	11
97.0667	16
98.0967	95
99.0811	16
100.1152	13
105.0707	55
107.0487	11
110.099	25
112.1128	18
117.0684	17
121.0663	145
130.068	13
131.0866	186
133.065	236
133.1009	73
135.0811	353
136.0786	14
143.084	11
145.0637	20
145.1018	119
146.0612	11
147.0744	89
148.0765	266
149.0844	72
150.0919	124
151.0755	60
159.0816	36
160.0761	71
161.0918	23
162.0919	149
163.1107	18
164.1084	73
165.0767	10
171.0812	27
173.0977	25
174.0939	15
185.0975	10
188.1062	16
201.1186	21
204.1378	11
213.1274	21
217.1466	61
218.1566	22
223.109	10
228.1406	17
230.1551	614
232.1705	866
235.1529	16
247.1589	25
248.1646	312
263.1429	10
279.1628	11
280.1771	11
380.2613	571
398.2769	32
