Mass spectrum: Ampicillin; LC-ESI-QTOF; MS2; CE:10 eV; [M+H]+
Name: Ampicillin
Formula: C16H19N3O4S
Exact mass: 349.10963
SMILES: [H]OC(=O)C([H])(N21)C(C([H])([H])[H])(C([H])([H])[H])SC([H])(C([H])(N([H])C(=O)C([H])(N([H])[H])c(c([H])3)c([H])c([H])c([H])c([H])3)C(=O)2)1
InChI: InChI=1S/C16H19N3O4S/c1-16(2)11(15(22)23)19-13(21)10(14(19)24-16)18-12(20)9(17)8-6-4-3-5-7-8/h3-7,9-11,14H,17H2,1-2H3,(H,18,20)(H,22,23)
Instrument: Micromass Q-TOF II
Instrument type: LC-ESI-QTOF
Ms type: MS2
Ion mode: POSITIVE
Collision energy: 10 eV
Ionization: ESI
Precursor m/z: 350.11757
Precursor type: [M+H]+
m/z	relative intensity
106.0652	87
160.0426	83
174.0548	47
191.0812	38
192.0477	40
333.0898	30
350.1148	999
