Mass spectrum: Tetracycline; LC-ESI-QTOF; MS2; CE:20 eV; [M+H]+
Name: Tetracycline
Formula: C22H24N2O8
Exact mass: 444.15327
SMILES: [H][C@@]12C[C@@]3([H])C(=C(O)[C@]1(O)C(=O)C(C(N)=O)=C(O)[C@H]2N(C)C)C(=O)C1=C(C=CC=C1O)[C@@]3(C)O
InChI: InChI=1S/C22H24N2O8/c1-21(31)8-5-4-6-11(25)12(8)16(26)13-9(21)7-10-15(24(2)3)17(27)14(20(23)30)19(29)22(10,32)18(13)28/h4-6,9-10,15,25,27-28,31-32H,7H2,1-3H3,(H2,23,30)/t9-,10-,15-,21+,22-/m0/s1
Instrument: Micromass Q-TOF II
Instrument type: LC-ESI-QTOF
Ms type: MS2
Ion mode: POSITIVE
Collision energy: 20 eV
Ionization: ESI
Precursor m/z: 445.16121
Precursor type: [M+H]+
m/z	relative intensity
154.0505	71
337.0719	12
365.0672	15
392.115	21
410.1241	999
427.1517	123
428.1356	124
445.1623	38
