Mass spectrum: Terbutaline; LC-ESI-QTOF; MS2; CE:30 eV; [M+H]+
Name: Terbutaline
Formula: C12H19NO3
Exact mass: 225.13649
SMILES: [H]Oc(c([H])1)c([H])c(c([H])c(O[H])1)C([H])(O[H])C([H])([H])N([H])C(C([H])([H])[H])(C([H])([H])[H])C([H])([H])[H]
InChI: InChI=1S/C12H19NO3/c1-12(2,3)13-7-11(16)8-4-9(14)6-10(15)5-8/h4-6,11,13-16H,7H2,1-3H3
Instrument: Micromass Q-TOF II
Instrument type: LC-ESI-QTOF
Ms type: MS2
Ion mode: POSITIVE
Collision energy: 30 eV
Ionization: ESI
Precursor m/z: 226.14443
Precursor type: [M+H]+
m/z	relative intensity
57.0696	100
68.9964	46
77.0386	49
79.0542	86
82.0645	18
84.0805	40
91.053	15
95.0491	15
97.0642	12
106.065	20
107.049	999
109.0285	10
109.0639	37
110.0359	37
110.0596	91
123.0433	13
125.0591	851
134.0591	38
135.0431	90
152.0702	308
