Mass spectrum: Thonizide; LC-ESI-QTOF; MS2; CE:30 eV; [M]+
Name: Thonizide
Formula: [C32H55N4O]+
Exact mass: 511.43759
SMILES: CCCCCCCCCCCCCCCC[N+](C)(C)CCN(CC1=CC=C(C=C1)OC)C2=NC=CC=N2
InChI: InChI=1S/C32H55N4O/c1-5-6-7-8-9-10-11-12-13-14-15-16-17-18-27-36(2,3)28-26-35(32-33-24-19-25-34-32)29-30-20-22-31(37-4)23-21-30/h19-25H,5-18,26-29H2,1-4H3/q+1
Instrument: Micromass Q-TOF II
Instrument type: LC-ESI-QTOF
Ms type: MS2
Ion mode: POSITIVE
Collision energy: 30 eV
Ionization: ESI
Precursor m/z: 511.43759
Precursor type: [M]+
m/z	relative intensity
121.0653	999
122.0692	328
242.1291	802
243.1324	658
