Mass spectrum: Vecuronium; LC-ESI-QTOF; MS2; CE:50 eV; [M]+
Name: Vecuronium
Formula: [C34H57N2O4]+
Exact mass: 557.43183
SMILES: CC(=O)O[C@H]1C[C@@H]2CC[C@@H]3[C@@H]([C@]2(C[C@@H]1N4CCCCC4)C)CC[C@]5([C@H]3C[C@@H]([C@@H]5OC(=O)C)[N+]6(CCCCC6)C)C
InChI: InChI=1S/C34H57N2O4/c1-23(37)39-31-20-25-12-13-26-27(34(25,4)22-29(31)35-16-8-6-9-17-35)14-15-33(3)28(26)21-30(32(33)40-24(2)38)36(5)18-10-7-11-19-36/h25-32H,6-22H2,1-5H3/q+1/t25-,26+,27-,28-,29-,30-,31-,32-,33-,34-/m0/s1
Instrument: Micromass Q-TOF II
Instrument type: LC-ESI-QTOF
Ms type: MS2
Ion mode: POSITIVE
Collision energy: 50 eV
Ionization: ESI
Precursor m/z: 557.43183
Precursor type: [M]+
m/z	relative intensity
69.0687	19
79.0542	11
81.0699	34
84.0811	158
86.0967	85
91.0559	22
93.0702	35
95.0867	31
98.0973	227
100.1125	999
105.0705	57
107.0862	59
109.1015	21
110.0967	14
117.0711	16
119.0858	36
121.1029	32
122.0977	11
124.1129	102
131.0867	29
133.1022	37
135.1171	26
138.1291	15
140.1074	95
143.0852	22
145.1023	45
147.1182	65
149.1335	40
157.1031	29
159.1174	50
161.1329	51
171.1178	24
173.1339	25
174.1289	33
175.1413	13
176.1437	32
177.1496	12
182.1182	60
185.1339	16
188.1445	13
190.1611	66
197.1335	16
199.15	22
201.1649	10
211.1483	13
213.1642	32
215.1808	11
253.196	24
255.2106	25
338.2854	270
356.2966	639
398.3066	81
416.3162	34
497.4118	10
