Mass spectrum: Etamiphylline; LC-ESI-QTOF; MS2; CE:40 eV; [M+H]+
Name: Etamiphylline
Formula: C13H21N5O2
Exact mass: 279.16952
SMILES: [H]C([H])([H])C([H])([H])N(C([H])([H])C([H])([H])[H])C([H])([H])C([H])([H])n(c([H])2)c(C(=O)1)c(n2)N(C([H])([H])[H])C(=O)N(C([H])([H])[H])1
InChI: InChI=1S/C13H21N5O2/c1-5-17(6-2)7-8-18-9-14-11-10(18)12(19)16(4)13(20)15(11)3/h9H,5-8H2,1-4H3
Instrument: Micromass Q-TOF II
Instrument type: LC-ESI-QTOF
Ms type: MS2
Ion mode: POSITIVE
Collision energy: 40 eV
Ionization: ESI
Precursor m/z: 280.17746
Precursor type: [M+H]+
m/z	relative intensity
54.0332	39
56.0494	21
58.0643	78
66.0329	24
67.0312	68
68.0479	162
69.0442	312
70.0647	14
72.0803	210
78.0341	30
80.0494	84
81.0452	155
82.0361	23
82.0598	31
83.0609	68
86.0967	582
92.0482	24
93.0453	184
94.0453	137
95.0608	999
96.0521	57
97.0405	14
100.1124	235
105.0452	56
106.0413	46
107.0604	277
108.055	221
109.0353	12
109.0758	113
110.0715	205
111.0175	19
111.057	18
119.0595	79
120.0561	334
121.0583	203
122.033	17
122.0705	920
123.0564	331
124.0524	16
132.0558	47
133.0618	15
134.0714	709
135.0603	53
136.0874	346
137.0829	49
146.0725	62
147.0671	172
148.0744	277
149.0591	22
150.0666	347
152.046	155
163.0987	381
175.0621	49
179.0689	12
181.0731	32
192.0646	119
193.0714	11
207.0881	833
