Mass spectrum: Hematoporphyrin_I; LC-ESI-QTOF; MS2; CE:50 eV; [M+H]+
Name: Hematoporphyrin_I
Formula: C34H38N4O6
Exact mass: 598.27913
SMILES: c(c52)(C([H])(C([H])([H])[H])O[H])c(c(n([H])5)c(c(c4C(O[H])(C([H])([H])[H])[H])n(c(c(C([H])([H])[H])4)c(c(n1)C(=C(c1c([H])c(C(C([H])([H])C(C(O[H])=O)([H])[H])=3)nc(C3C([H])([H])[H])c2[H])C(C(C(O[H])=O)([H])[H])([H])[H])C([H])([H])[H])[H])[H])[H])C([H])([H])[H]
InChI: InChI=1S/C34H38N4O6/c1-15-21(7-9-31(41)42)27-14-28-22(8-10-32(43)44)16(2)24(36-28)12-29-34(20(6)40)18(4)26(38-29)13-30-33(19(5)39)17(3)25(37-30)11-23(15)35-27/h11-14,19-20,37-40H,7-10H2,1-6H3,(H,41,42)(H,43,44)/b23-11-,24-12-,25-11-,26-13-,27-14-,28-14-,29-12-,30-13-
Instrument: Micromass Q-TOF II
Instrument type: LC-ESI-QTOF
Ms type: MS2
Ion mode: POSITIVE
Collision energy: 50 eV
Ionization: ESI
Precursor m/z: 599.28707
Precursor type: [M+H]+
m/z	relative intensity
270.1177	11
365.1783	11
378.1896	18
379.1927	165
380.1891	18
391.193	44
392.2017	47
393.2144	232
395.1983	15
404.1945	12
405.2104	58
406.2103	15
407.2266	127
408.1921	15
409.2108	22
418.22	19
419.2248	99
420.2321	21
421.1871	27
422.2147	28
423.2221	111
433.2361	57
436.2202	52
437.2274	348
438.2088	77
439.2133	111
445.2339	11
449.2568	31
450.2227	12
451.2157	454
452.2232	634
453.2341	81
463.2276	49
463.2507	38
464.2076	35
465.2293	57
466.2213	42
467.2199	197
477.237	132
478.2399	256
479.2599	45
480.2295	33
480.2603	14
481.24	265
482.2429	43
483.2343	83
489.2343	11
493.2292	70
495.2456	407
496.2485	416
497.248	67
498.8605	11
504.2486	11
506.2296	11
507.2443	81
510.2136	30
511.237	999
513.2136	11
519.2542	15
521.2608	56
522.262	91
523.2443	22
524.2432	33
525.2368	131
526.2534	18
537.257	287
539.244	201
540.27	267
541.2454	22
551.2255	45
554.2709	11
555.2615	527
563.2763	47
565.2584	27
566.261	15
569.2464	60
581.28	91
583.2528	65
599.2856	154
