Mass spectrum: Sulfadimethoxine; LC-ESI-QTOF; MS2; CE:40 eV; [M+H]+
Name: Sulfadimethoxine
Formula: C12H14N4O4S
Exact mass: 310.07358
SMILES: [H]C([H])([H])Oc(n2)nc(c([H])c(OC([H])([H])[H])2)N([H])S(=O)(=O)c(c([H])1)c([H])c([H])c(N([H])[H])c([H])1
InChI: InChI=1S/C12H14N4O4S/c1-19-11-7-10(14-12(15-11)20-2)16-21(17,18)9-5-3-8(13)4-6-9/h3-7H,13H2,1-2H3,(H,14,15,16)
Instrument: Micromass Q-TOF II
Instrument type: LC-ESI-QTOF
Ms type: MS2
Ion mode: POSITIVE
Collision energy: 40 eV
Ionization: ESI
Precursor m/z: 311.08152
Precursor type: [M+H]+
m/z	relative intensity
56.0492	11
65.0377	318
67.0283	45
72.0445	25
80.0496	116
81.0448	25
82.029	38
84.0324	19
86.0236	16
89.0713	22
92.0496	999
93.0574	35
95.0485	12
98.0517	28
99.0555	49
108.0443	787
109.0399	15
110.0525	104
111.0195	26
113.0594	40
118.053	15
124.0499	56
125.0576	64
126.0659	36
127.0505	40
139.0466	12
140.0441	18
141.0529	164
144.0564	10
145.0637	41
154.0609	198
156.011	18
156.0764	347
172.057	49
173.0591	149
