Mass spectrum: Prednisolone; LC-ESI-QTOF; MS2; CE:20 eV; [M+H]+
Name: Prednisolone
Formula: C21H28O5
Exact mass: 360.19367
SMILES: [H]OC([H])([H])C(=O)C(O[H])(C([H])([H])4)C(C([H])([H])[H])(C([H])([H])3)C([H])(C([H])([H])4)C([H])(C([H])([H])1)C([H])(C([H])(O[H])3)C(C([H])=2)(C([H])([H])[H])C(=C([H])C(=O)C([H])2)C([H])([H])1
InChI: InChI=1S/C21H28O5/c1-19-7-5-13(23)9-12(19)3-4-14-15-6-8-21(26,17(25)11-22)20(15,2)10-16(24)18(14)19/h5,7,9,14-16,18,22,24,26H,3-4,6,8,10-11H2,1-2H3
Instrument: Micromass Q-TOF II
Instrument type: LC-ESI-QTOF
Ms type: MS2
Ion mode: POSITIVE
Collision energy: 20 eV
Ionization: ESI
Precursor m/z: 361.20161
Precursor type: [M+H]+
m/z	relative intensity
81.0708	21
83.0501	10
85.0633	11
93.0704	26
95.0863	26
97.065	21
101.0604	22
105.0711	22
107.0867	52
109.0613	13
109.1012	35
111.0806	20
119.0856	48
121.0652	232
121.1077	13
123.0803	23
125.0595	27
131.0858	31
133.0647	39
133.1018	31
135.0815	145
137.0957	24
139.0764	39
143.0832	19
145.0605	17
145.0991	46
147.081	999
149.097	39
151.0764	37
153.0901	10
155.0813	15
157.097	34
159.0818	84
161.0963	110
163.0774	71
165.092	78
169.0947	12
171.081	505
173.0968	482
175.1122	32
177.098	24
179.1065	18
181.1027	14
183.094	26
185.0965	90
187.1112	66
189.1026	17
191.1072	25
195.0889	17
197.0965	113
199.1118	117
201.1176	24
205.1124	20
208.0885	10
209.0982	69
211.1119	112
213.1219	90
215.1085	15
217.12	19
219.1137	12
221.098	68
223.1119	377
224.1204	12
225.1265	121
226.1344	20
227.1417	54
229.1204	16
231.1036	14
233.1047	18
234.1039	13
235.1136	57
237.1272	223
239.1429	239
241.1572	76
245.1162	13
247.1136	75
248.1202	18
249.1296	181
251.1413	119
253.1432	20
255.1392	20
259.1249	17
260.12	37
261.1318	95
263.1426	184
264.1524	36
265.1578	380
266.1659	245
267.174	211
271.1466	21
274.1353	82
276.1523	19
277.1586	210
278.1422	10
279.1715	386
281.1509	31
283.1685	47
285.1856	80
289.1581	516
294.1602	13
295.1692	113
297.1757	61
307.1689	487
313.1797	19
325.1809	340
343.191	753
