Mass spectrum: Strychnine; LC-ESI-QTOF; MS2; CE:30 eV; [M+H]+
Name: Strychnine
Formula: C21H22N2O2
Exact mass: 334.16813
SMILES: [H]c(c([H])7)c([H])c(c(c([H])7)1)N(C(=O)5)C([H])(C([H])42)C1(C([H])([H])6)C([H])(N3C([H])([H])6)C([H])([H])C([H])(C(=C([H])C([H])([H])OC([H])(C([H])([H])5)4)C([H])([H])3)2
InChI: InChI=1S/C21H22N2O2/c24-18-10-16-19-13-9-17-21(6-7-22(17)11-12(13)5-8-25-16)14-3-1-2-4-15(14)23(18)20(19)21/h1-5,13,16-17,19-20H,6-11H2
Instrument: Micromass Q-TOF II
Instrument type: LC-ESI-QTOF
Ms type: MS2
Ion mode: POSITIVE
Collision energy: 30 eV
Ionization: ESI
Precursor m/z: 335.17607
Precursor type: [M+H]+
m/z	relative intensity
184.0748	62
220.0735	14
222.0905	37
234.0884	12
248.1099	11
262.119	13
264.1015	61
266.1233	11
307.1417	19
335.1727	999
