Mass spectrum: Acepromazine; LC-ESI-QTOF; MS2; CE:40 eV; [M+H]+
Name: Acepromazine
Formula: C19H22N2OS
Exact mass: 326.14528
SMILES: [H]C([H])([H])C(=O)c(c([H])3)c([H])c(c1c([H])3)N(C([H])([H])C([H])([H])C([H])([H])N(C([H])([H])[H])C([H])([H])[H])c(c([H])2)c(c([H])c([H])c([H])2)S1
InChI: InChI=1S/C19H22N2OS/c1-14(22)15-9-10-19-17(13-15)21(12-6-11-20(2)3)16-7-4-5-8-18(16)23-19/h4-5,7-10,13H,6,11-12H2,1-3H3
Instrument: Micromass Q-TOF II
Instrument type: LC-ESI-QTOF
Ms type: MS2
Ion mode: POSITIVE
Collision energy: 40 eV
Ionization: ESI
Precursor m/z: 327.15322
Precursor type: [M+H]+
m/z	relative intensity
58.0647	999
71.0722	23
86.0967	897
106.0658	11
117.0704	14
167.0742	20
178.0645	14
179.0736	80
180.0806	68
192.0815	10
198.0369	81
199.0458	32
204.081	23
205.0866	16
206.0931	142
207.1054	21
210.0384	24
211.0457	160
212.0531	151
222.0912	772
223.0441	11
224.054	47
225.0627	10
226.0337	48
236.0523	71
238.0691	65
239.077	109
240.0788	11
241.0559	45
254.0633	138
