Mass spectrum: Dextromethorphan; LC-ESI-QTOF; MS2; CE:20 eV; [M+H]+
Name: Dextromethorphan
Formula: C18H25NO
Exact mass: 271.19361
SMILES: [H]C([H])([H])Oc(c([H])4)c([H])c(c(c([H])4)1)C(C([H])([H])3)(C([H])([H])2)C([H])(C([H])([H])C([H])([H])C([H])([H])3)C([H])(N(C([H])([H])[H])C([H])([H])2)C([H])([H])1
InChI: InChI=1S/C18H25NO/c1-19-10-9-18-8-4-3-5-15(18)17(19)11-13-6-7-14(20-2)12-16(13)18/h6-7,12,15,17H,3-5,8-11H2,1-2H3
Instrument: Micromass Q-TOF II
Instrument type: LC-ESI-QTOF
Ms type: MS2
Ion mode: POSITIVE
Collision energy: 20 eV
Ionization: ESI
Precursor m/z: 272.20155
Precursor type: [M+H]+
m/z	relative intensity
147.0817	22
213.1287	52
215.1442	130
272.2013	999
