Mass spectrum: Hydrocortisone; LC-ESI-QTOF; MS2; CE:20 eV; [M+H]+
Name: (8S,9S,10R,11S,13S,14S,17R)-11,17-dihydroxy-17-(2-hydroxyacetyl)-10,13-dimethyl-2,6,7,8,9,11,12,14,15,16-decahydro-1H-cyclopenta[a]phenanthren-3-one
Name: Cortisol
Name: Hydrocortisone
Formula: C21H30O5
Exact mass: 362.20932
SMILES: C[C@]12CCC(=O)C=C1CC[C@@H]3[C@@H]2[C@H](C[C@]4([C@H]3CC[C@@]4(C(=O)CO)O)C)O
InChI: InChI=1S/C21H30O5/c1-19-7-5-13(23)9-12(19)3-4-14-15-6-8-21(26,17(25)11-22)20(15,2)10-16(24)18(14)19/h9,14-16,18,22,24,26H,3-8,10-11H2,1-2H3/t14-,15-,16-,18+,19-,20-,21-/m0/s1
Instrument: Micromass Q-TOF II
Instrument type: LC-ESI-QTOF
Ms type: MS2
Ion mode: POSITIVE
Collision energy: 20 eV
Ionization: ESI
Precursor m/z: 363.21726
Precursor type: [M+H]+
m/z	relative intensity
83.0495	10
95.0853	12
97.0652	82
99.0444	12
105.0707	13
107.0858	14
109.065	45
119.0861	26
121.0654	376
123.0813	55
131.0851	20
133.1013	21
135.0816	49
137.098	15
143.086	27
145.1009	42
147.0773	24
147.1155	54
149.0969	32
151.0734	10
155.0845	21
157.1021	44
159.0769	13
159.1125	43
161.0984	39
163.1126	44
167.0907	10
169.1015	40
171.0768	13
171.1035	22
171.1174	24
173.1034	58
175.1121	44
177.125	14
179.1031	10
181.1012	17
183.1168	31
185.115	38
185.1351	19
187.112	79
189.1281	30
191.1121	11
193.1074	13
195.1156	23
197.1195	26
199.1217	31
201.1279	43
203.1209	14
205.1194	19
207.1244	28
209.1326	45
211.1337	20
211.1489	12
213.128	40
215.1447	27
217.1335	15
219.1344	16
221.1317	22
223.1446	50
225.1313	70
227.1426	37
229.1537	22
231.136	30
233.1348	12
235.1366	16
237.1423	20
239.1441	70
241.158	105
243.168	65
245.1496	15
247.1482	14
249.1604	69
251.1515	86
253.1615	33
255.1712	11
257.1573	12
261.1592	20
263.167	42
265.157	27
267.1732	252
268.1812	32
269.1879	199
271.1718	15
273.1628	19
279.1739	59
281.1827	138
283.1702	17
285.1848	41
287.2002	31
291.1744	118
297.1848	152
299.1931	46
309.1846	375
315.1953	44
317.2106	11
327.1953	447
345.2063	193
363.217	999
