Mass spectrum: Taurocholate; LC-ESI-QTOF; MS2; CE:50 eV; [M+H]+
Name: Taurocholate
Formula: C26H45NO7S
Exact mass: 515.29167
SMILES: C(C([H])([H])1)([H])(O[H])C([H])([H])C(C4([H])[H])(C(C(C3([H])C4([H])O[H])([H])C(C(O[H])(C(C3([H])2)(C([H])(C(C2([H])[H])([H])[H])C(C([H])([H])[H])([H])C(C([H])([H])C(N(C(C(S(=O)(=O)O[H])([H])[H])([H])[H])[H])=O)([H])[H])C([H])([H])[H])[H])([H])[H])(C([H])([H])[H])C1([H])[H])[H]
InChI: InChI=1S/C26H45NO7S/c1-15(4-7-23(31)27-10-11-35(32,33)34)18-5-6-19-24-20(14-22(30)26(18,19)3)25(2)9-8-17(28)12-16(25)13-21(24)29/h15-22,24,28-30H,4-14H2,1-3H3,(H,27,31)(H,32,33,34)/t15?,16?,17-,18?,19?,20?,21-,22+,24?,25?,26?/m1/s1
Instrument: Micromass Q-TOF II
Instrument type: LC-ESI-QTOF
Ms type: MS2
Ion mode: POSITIVE
Collision energy: 50 eV
Ionization: ESI
Precursor m/z: 516.29961
Precursor type: [M+H]+
m/z	relative intensity
55.0527	53
67.0528	63
69.0689	34
70.0282	10
79.0536	64
81.0694	138
83.0481	24
83.0857	38
85.0649	23
91.0546	82
93.0701	143
95.0856	150
97.1014	13
105.0704	214
107.0862	187
108.0119	91
109.0609	13
109.102	95
117.0705	58
119.0858	229
121.1014	88
123.0811	41
123.1202	19
126.0225	999
128.0642	12
129.0705	50
131.0869	157
133.1019	185
135.117	61
137.0976	20
141.0702	15
142.0785	25
143.0868	182
144.0939	16
145.1022	246
147.1173	130
149.0949	22
149.1142	18
149.1347	19
155.0863	65
156.0939	27
157.1021	337
158.1099	10
159.1179	235
161.1326	66
163.1149	18
164.0376	11
167.086	22
168.0945	11
169.1022	136
170.1086	26
171.1176	226
173.132	83
175.129	52
177.1305	12
179.0859	20
181.1022	49
182.1104	11
183.1182	203
184.1256	16
185.086	24
185.1317	258
187.1418	90
189.1409	28
193.1027	16
194.1102	38
195.1188	52
196.1257	32
197.1336	88
198.1408	13
199.1489	206
201.164	52
207.1165	20
208.0644	45
208.1267	11
209.1334	313
210.1405	24
211.1484	100
212.1447	10
213.1645	133
215.1729	26
221.1335	20
223.1488	52
225.1639	72
227.1563	163
229.1588	22
235.1496	20
237.1643	39
239.18	72
241.1842	41
243.1752	11
249.1628	18
251.1788	14
253.1928	24
254.202	10
263.1793	27
265.1927	12
267.1996	10
277.1954	18
281.1989	11
293.2273	30
295.2288	53
309.237	14
319.2429	51
337.2541	18
