Mass spectrum: Reserpine; LC-ESI-QTOF; MS2; CE:30 eV; [M+H]+
Name: Reserpine
Formula: C33H40N2O9
Exact mass: 608.27338
SMILES: CO[C@H]1[C@@H](C[C@@H]2CN3CCC4=C([C@H]3C[C@@H]2[C@@H]1C(=O)OC)NC5=C4C=CC(=C5)OC)OC(=O)C6=CC(=C(C(=C6)OC)OC)OC
InChI: InChI=1S/C33H40N2O9/c1-38-19-7-8-20-21-9-10-35-16-18-13-27(44-32(36)17-11-25(39-2)30(41-4)26(12-17)40-3)31(42-5)28(33(37)43-6)22(18)15-24(35)29(21)34-23(20)14-19/h7-8,11-12,14,18,22,24,27-28,31,34H,9-10,13,15-16H2,1-6H3/t18-,22+,24-,27-,28+,31+/m1/s1
Instrument: Micromass Q-TOF II
Instrument type: LC-ESI-QTOF
Ms type: MS2
Ion mode: POSITIVE
Collision energy: 30 eV
Ionization: ESI
Precursor m/z: 609.28132
Precursor type: [M+H]+
m/z	relative intensity
174.0921	106
192.1031	18
195.0652	278
224.1301	25
236.1274	41
336.16	15
365.1866	68
368.1796	18
395.1971	40
396.2006	76
397.2093	411
434.1797	10
436.1948	31
448.1958	138
577.2518	40
609.2745	999
