Mass spectrum: Naltrexone; LC-ESI-QTOF; MS2; CE:30 eV; [M+H]+
Name: Naltrexone
Formula: C20H23NO4
Exact mass: 341.16271
SMILES: [H]Oc(c([H])6)c(O5)c(c(c([H])6)3)C(C([H])([H])1)(C([H])54)C(O[H])(C([H])([H])C([H])([H])C(=O)4)C([H])(C([H])([H])3)N(C([H])([H])C([H])(C([H])([H])2)C([H])([H])2)C([H])([H])1
InChI: InChI=1S/C20H23NO4/c22-13-4-3-12-9-15-20(24)6-5-14(23)18-19(20,16(12)17(13)25-18)7-8-21(15)10-11-1-2-11/h3-4,11,15,18,22,24H,1-2,5-10H2
Instrument: Micromass Q-TOF II
Instrument type: LC-ESI-QTOF
Ms type: MS2
Ion mode: POSITIVE
Collision energy: 30 eV
Ionization: ESI
Precursor m/z: 342.17065
Precursor type: [M+H]+
m/z	relative intensity
55.054	78
147.0647	13
148.0775	12
161.0601	31
173.0621	28
181.0667	24
185.0621	19
199.0762	40
200.1068	15
201.1105	22
202.1232	11
209.0965	10
210.0913	24
211.0762	25
212.0727	34
213.0869	35
214.0903	11
215.0771	19
225.0912	16
226.087	28
227.0784	63
228.1024	117
236.1052	11
239.0995	15
240.1032	24
241.099	20
242.1155	15
252.1032	30
253.1078	26
254.1211	33
255.1044	12
264.1067	12
267.1257	351
268.1261	15
269.1106	28
270.1126	403
278.1262	14
282.1476	297
296.1586	28
306.1515	13
324.1604	999
342.172	87
