Mass spectrum: Leucine_Enkephalin; LC-ESI-QTOF; MS2; CE:30 eV; [M+H]+
Name: Leucine_Enkephalin
Formula: C28H37N5O7
Exact mass: 555.26930
SMILES: [H]OC(C(N([H])C(=O)C(C([H])([H])c(c([H])2)c([H])c([H])c([H])c([H])2)(N([H])C(=O)C(N(C(=O)C(N(C(C(N([H])[H])(C([H])([H])c(c([H])1)c([H])c([H])c(O[H])c([H])1)[H])=O)[H])([H])[H])[H])([H])[H])[H])(C([H])([H])C([H])(C([H])([H])[H])C([H])([H])[H])[H])=O
InChI: InChI=1S/C28H37N5O7/c1-17(2)12-23(28(39)40)33-27(38)22(14-18-6-4-3-5-7-18)32-25(36)16-30-24(35)15-31-26(37)21(29)13-19-8-10-20(34)11-9-19/h3-11,17,21-23,34H,12-16,29H2,1-2H3,(H,30,35)(H,31,37)(H,32,36)(H,33,38)(H,39,40)
Instrument: Micromass Q-TOF II
Instrument type: LC-ESI-QTOF
Ms type: MS2
Ion mode: POSITIVE
Collision energy: 30 eV
Ionization: ESI
Precursor m/z: 556.27724
Precursor type: [M+H]+
m/z	relative intensity
86.0965	57
115.0502	17
120.0807	860
132.102	75
136.0757	457
148.076	41
177.1022	548
193.0968	106
204.0651	12
205.0969	193
217.0965	23
221.0912	728
223.1071	15
233.0916	72
233.1639	30
234.1231	158
238.1223	25
244.1069	20
250.118	17
260.1024	11
261.0864	15
261.1595	13
262.1176	155
272.1026	12
278.1114	999
279.1695	229
289.1535	13
295.1438	35
323.1389	75
346.1759	33
347.2075	21
352.1656	11
375.2026	28
379.1808	22
380.1611	54
397.187	284
425.1816	15
465.2506	14
