Mass spectrum: Leucine_Enkephalin; LC-ESI-QTOF; MS2; CE:40 eV; [M+H]+
Name: Leucine_Enkephalin
Formula: C28H37N5O7
Exact mass: 555.26930
SMILES: [H]OC(C(N([H])C(=O)C(C([H])([H])c(c([H])2)c([H])c([H])c([H])c([H])2)(N([H])C(=O)C(N(C(=O)C(N(C(C(N([H])[H])(C([H])([H])c(c([H])1)c([H])c([H])c(O[H])c([H])1)[H])=O)[H])([H])[H])[H])([H])[H])[H])(C([H])([H])C([H])(C([H])([H])[H])C([H])([H])[H])[H])=O
InChI: InChI=1S/C28H37N5O7/c1-17(2)12-23(28(39)40)33-27(38)22(14-18-6-4-3-5-7-18)32-25(36)16-30-24(35)15-31-26(37)21(29)13-19-8-10-20(34)11-9-19/h3-11,17,21-23,34H,12-16,29H2,1-2H3,(H,30,35)(H,31,37)(H,32,36)(H,33,38)(H,39,40)
Instrument: Micromass Q-TOF II
Instrument type: LC-ESI-QTOF
Ms type: MS2
Ion mode: POSITIVE
Collision energy: 40 eV
Ionization: ESI
Precursor m/z: 556.27724
Precursor type: [M+H]+
m/z	relative intensity
86.0967	57
91.0544	22
115.0506	34
119.0493	33
120.0808	999
132.0988	42
136.0758	668
147.044	17
148.0759	91
165.1026	11
177.1026	247
193.0975	142
204.0665	15
205.0977	19
217.097	10
221.0916	478
233.0923	39
234.1241	30
238.1229	17
244.1074	13
278.1127	75
279.1694	18
295.1441	19
