Mass spectrum: 6a_Methylprednisolone; LC-ESI-QTOF; MS2; CE:20 eV; [M+H]+
Name: 6a_Methylprednisolone
Formula: C22H30O5
Exact mass: 374.20932
SMILES: [H]OC([H])([H])C(=O)C(O[H])(C([H])([H])4)C(C([H])([H])[H])(C([H])([H])3)C([H])(C([H])([H])4)C([H])(C([H])([H])1)C([H])(C([H])(O[H])3)C(C([H])=2)(C([H])([H])[H])C(=C([H])C(=O)C([H])2)C([H])(C([H])([H])[H])1
InChI: InChI=1S/C22H30O5/c1-12-8-14-15-5-7-22(27,18(26)11-23)21(15,3)10-17(25)19(14)20(2)6-4-13(24)9-16(12)20/h4,6,9,12,14-15,17,19,23,25,27H,5,7-8,10-11H2,1-3H3
Instrument: Micromass Q-TOF II
Instrument type: LC-ESI-QTOF
Ms type: MS2
Ion mode: POSITIVE
Collision energy: 20 eV
Ionization: ESI
Precursor m/z: 375.21726
Precursor type: [M+H]+
m/z	relative intensity
81.0704	14
85.0655	13
93.0706	25
95.0855	23
97.0648	21
99.0447	18
101.0603	20
105.0711	23
107.0858	48
109.0627	12
109.1015	39
111.0418	17
111.0812	13
115.0712	13
117.0627	14
119.0854	35
121.0654	127
121.106	15
123.0789	24
125.0602	28
127.0743	13
129.0685	11
131.0862	35
133.1008	51
135.0806	567
137.0568	14
137.0954	26
139.0752	31
143.0838	24
145.0598	16
145.0996	66
147.0815	115
147.1244	10
149.0961	104
151.0762	26
153.0918	14
155.0729	17
157.0948	18
159.0812	134
161.0965	988
163.1102	28
165.0914	108
167.1063	17
169.0979	14
171.0765	16
171.1089	42
173.0976	141
175.1116	92
177.0921	69
179.1065	22
183.1022	50
185.0963	619
187.1117	476
189.0935	103
191.1105	32
193.1128	11
195.105	20
197.098	35
199.1122	106
201.1262	74
203.1296	20
205.1209	18
209.099	45
211.1115	304
213.1264	186
215.1325	25
219.134	15
223.1123	93
224.1173	16
225.1273	120
227.1395	92
229.1243	19
231.1368	120
233.1222	16
235.1125	78
236.1193	12
237.1267	306
238.1345	32
239.1412	159
240.1508	17
241.1545	69
243.122	10
245.1153	11
247.1132	21
248.1185	14
249.1285	109
250.1323	12
251.1418	418
253.1579	999
255.1727	130
259.1207	17
261.1272	103
262.1349	27
263.1443	138
264.14	19
265.1549	128
267.1399	120
269.1518	46
273.132	14
274.1358	34
275.1472	71
277.1578	219
278.164	50
279.1676	669
280.1805	361
281.1887	195
283.1451	13
285.1519	28
288.1489	61
290.1665	16
291.174	154
293.1843	397
295.1683	49
297.155	205
299.1993	35
303.174	473
306.1624	23
308.1751	13
309.1848	154
311.1911	69
315.1572	50
321.1854	661
327.1989	27
339.1952	546
357.2063	958
375.218	12
