Mass spectrum: Dimefline; LC-ESI-QTOF; MS2; CE:10 eV; [M+H]+
Name: Dimefline
Formula: C20H21NO3
Exact mass: 323.15214
SMILES: [H]C([H])([H])Oc(c([H])3)c(C([H])([H])N(C([H])([H])[H])C([H])([H])[H])c(O1)c(c([H])3)C(=O)C(C([H])([H])[H])=C1c(c([H])2)c([H])c([H])c([H])c([H])2
InChI: InChI=1S/C20H21NO3/c1-13-18(22)15-10-11-17(23-4)16(12-21(2)3)20(15)24-19(13)14-8-6-5-7-9-14/h5-11H,12H2,1-4H3
Instrument: Micromass Q-TOF II
Instrument type: LC-ESI-QTOF
Ms type: MS2
Ion mode: POSITIVE
Collision energy: 10 eV
Ionization: ESI
Precursor m/z: 324.16008
Precursor type: [M+H]+
m/z	relative intensity
279.0936	430
324.1407	999
