Mass spectrum: Albuterol; LC-ESI-QTOF; MS2; CE:30 eV; [M+H]+
Name: Albuterol
Formula: C13H21NO3
Exact mass: 239.15214
SMILES: [H]OC([H])([H])c(c(O[H])1)c([H])c(c([H])c([H])1)C([H])(O[H])C([H])([H])N([H])C(C([H])([H])[H])(C([H])([H])[H])C([H])([H])[H]
InChI: InChI=1S/C13H21NO3/c1-13(2,3)14-7-12(17)9-4-5-11(16)10(6-9)8-15/h4-6,12,14-17H,7-8H2,1-3H3
Instrument: Micromass Q-TOF II
Instrument type: LC-ESI-QTOF
Ms type: MS2
Ion mode: POSITIVE
Collision energy: 30 eV
Ionization: ESI
Precursor m/z: 240.16008
Precursor type: [M+H]+
m/z	relative intensity
55.0188	13
57.0702	82
77.0389	26
79.0543	61
80.0499	36
81.0342	18
91.0549	102
93.0704	100
94.0667	17
103.0545	96
105.0652	15
106.0659	41
107.0484	10
117.058	11
118.0652	77
119.0503	32
120.081	203
121.0651	546
130.0655	341
131.0509	76
133.0525	325
135.068	14
136.0751	24
146.0597	16
147.068	15
148.0759	999
