Mass spectrum: Leucine_Enkephalin; LC-ESI-QTOF; MS2; CE:50 eV; [M+H]+
Name: Leucine_Enkephalin
Formula: C28H37N5O7
Exact mass: 555.26930
SMILES: [H]OC(C(N([H])C(=O)C(C([H])([H])c(c([H])2)c([H])c([H])c([H])c([H])2)(N([H])C(=O)C(N(C(=O)C(N(C(C(N([H])[H])(C([H])([H])c(c([H])1)c([H])c([H])c(O[H])c([H])1)[H])=O)[H])([H])[H])[H])([H])[H])[H])(C([H])([H])C([H])(C([H])([H])[H])C([H])([H])[H])[H])=O
InChI: InChI=1S/C28H37N5O7/c1-17(2)12-23(28(39)40)33-27(38)22(14-18-6-4-3-5-7-18)32-25(36)16-30-24(35)15-31-26(37)21(29)13-19-8-10-20(34)11-9-19/h3-11,17,21-23,34H,12-16,29H2,1-2H3,(H,30,35)(H,31,37)(H,32,36)(H,33,38)(H,39,40)
Instrument: Micromass Q-TOF II
Instrument type: LC-ESI-QTOF
Ms type: MS2
Ion mode: POSITIVE
Collision energy: 50 eV
Ionization: ESI
Precursor m/z: 556.27724
Precursor type: [M+H]+
m/z	relative intensity
86.0966	57
87.0553	17
91.0546	69
103.0546	17
115.0507	22
119.0495	85
120.0808	999
132.0883	29
136.0756	805
147.0451	19
148.0759	132
165.1027	11
176.0715	11
177.1028	72
193.0973	96
221.092	101
