Mass spectrum: Remifentanil; LC-ESI-QTOF; MS2; CE:10 eV; [M+H]+
Name: Remifentanil
Formula: C20H28N2O5
Exact mass: 376.19982
SMILES: [H]C([H])([H])OC(=O)C([H])([H])C([H])([H])N(C([H])([H])1)C([H])([H])C([H])([H])C(C(=O)OC([H])([H])[H])(N(C(=O)C([H])([H])C([H])([H])[H])c(c([H])2)c([H])c([H])c([H])c([H])2)C([H])([H])1
InChI: InChI=1S/C20H28N2O5/c1-4-17(23)22(16-8-6-5-7-9-16)20(19(25)27-3)11-14-21(15-12-20)13-10-18(24)26-2/h5-9H,4,10-15H2,1-3H3
Instrument: Micromass Q-TOF II
Instrument type: LC-ESI-QTOF
Ms type: MS2
Ion mode: POSITIVE
Collision energy: 10 eV
Ionization: ESI
Precursor m/z: 377.20776
Precursor type: [M+H]+
m/z	relative intensity
228.1227	12
317.1852	32
345.1808	72
377.2056	999
