Mass spectrum: Doxorubicin; LC-ESI-QTOF; MS2; CE:20 eV; [M+H]+
Name: Doxorubicin
Formula: C27H29NO11
Exact mass: 543.17406
SMILES: c(=O)(c12)c(c5O[H])c(c(O[H])c(c35)C(C(C(=O)C([H])([H])O[H])(C(C3(OC([H])(C([H])([H])4)OC([H])(C([H])(O[H])C([H])(N([H])[H])4)C([H])([H])[H])[H])([H])[H])O[H])([H])[H])c(c1c(c(c(c2OC([H])([H])[H])[H])[H])[H])=O
InChI: InChI=1S/C27H29NO11/c1-10-22(31)13(28)6-17(38-10)39-15-8-27(36,16(30)9-29)7-12-19(15)26(35)21-20(24(12)33)23(32)11-4-3-5-14(37-2)18(11)25(21)34/h3-5,10,13,15,17,22,29,31,33,35-36H,6-9,28H2,1-2H3
Instrument: Micromass Q-TOF II
Instrument type: LC-ESI-QTOF
Ms type: MS2
Ion mode: POSITIVE
Collision energy: 20 eV
Ionization: ESI
Precursor m/z: 544.18200
Precursor type: [M+H]+
m/z	relative intensity
69.0332	25
72.0446	36
86.061	91
112.0764	16
113.0609	85
130.0871	498
148.0971	24
321.0768	455
333.0771	24
361.0729	665
379.0831	999
397.0936	699
544.1822	16
