Mass spectrum: Ephedrine; LC-ESI-QTOF; MS2; CE:40 eV; [M+H]+
Name: Ephedrine
Formula: C10H15NO
Exact mass: 165.11536
SMILES: [H]OC([H])(c(c([H])1)c([H])c([H])c([H])c([H])1)C([H])(C([H])([H])[H])N([H])C([H])([H])[H]
InChI: InChI=1S/C10H15NO/c1-8(11-2)10(12)9-6-4-3-5-7-9/h3-8,10-12H,1-2H3
Instrument: Micromass Q-TOF II
Instrument type: LC-ESI-QTOF
Ms type: MS2
Ion mode: POSITIVE
Collision energy: 40 eV
Ionization: ESI
Precursor m/z: 166.12330
Precursor type: [M+H]+
m/z	relative intensity
56.0501	31
65.0384	141
77.0393	85
78.0469	67
79.0547	26
89.0395	57
90.0467	12
91.0551	999
95.0493	21
103.0554	101
104.0628	91
105.0712	45
115.0551	723
116.062	51
117.0593	204
118.0659	57
130.0658	95
131.0728	14
132.0817	193
133.0898	29
