Mass spectrum: Buspirone; LC-ESI-QTOF; MS2; CE:40 eV; [M+H]+
Name: Buspirone
Formula: C21H31N5O2
Exact mass: 385.24778
SMILES: [H]c(c([H])4)c([H])nc(n4)N(C([H])([H])1)C([H])([H])C([H])([H])N(C([H])([H])C([H])([H])C([H])([H])C([H])([H])N(C(=O)3)C(=O)C([H])([H])C(C([H])([H])3)(C([H])([H])2)C([H])([H])C([H])([H])C([H])([H])2)C([H])([H])1
InChI: InChI=1S/C21H31N5O2/c27-18-16-21(6-1-2-7-21)17-19(28)26(18)11-4-3-10-24-12-14-25(15-13-24)20-22-8-5-9-23-20/h5,8-9H,1-4,6-7,10-17H2
Instrument: Micromass Q-TOF II
Instrument type: LC-ESI-QTOF
Ms type: MS2
Ion mode: POSITIVE
Collision energy: 40 eV
Ionization: ESI
Precursor m/z: 386.25572
Precursor type: [M+H]+
m/z	relative intensity
67.0533	12
72.0808	14
80.0499	29
81.0702	39
95.0601	50
95.0863	59
96.0536	14
98.0971	67
109.0651	83
109.1018	93
122.0712	999
123.0807	60
124.1126	15
126.0899	11
133.0648	15
140.1065	65
148.0867	213
150.1017	121
152.107	197
168.1022	111
180.1011	70
198.1118	14
222.1486	87
265.1897	50
