Mass spectrum: Enalapril; LC-ESI-QTOF; MS2; CE:20 eV; [M+H]+
Name: Enalapril
Formula: C20H28N2O5
Exact mass: 376.19982
SMILES: [H]OC(=O)C([H])(C([H])([H])1)N(C(=O)C([H])(C([H])([H])[H])N([H])C([H])(C(=O)OC([H])([H])C([H])([H])[H])C([H])([H])C([H])([H])c(c([H])2)c([H])c([H])c([H])c([H])2)C([H])([H])C([H])([H])1
InChI: InChI=1S/C20H28N2O5/c1-3-27-20(26)16(12-11-15-8-5-4-6-9-15)21-14(2)18(23)22-13-7-10-17(22)19(24)25/h4-6,8-9,14,16-17,21H,3,7,10-13H2,1-2H3,(H,24,25)
Instrument: Micromass Q-TOF II
Instrument type: LC-ESI-QTOF
Ms type: MS2
Ion mode: POSITIVE
Collision energy: 20 eV
Ionization: ESI
Precursor m/z: 377.20776
Precursor type: [M+H]+
m/z	relative intensity
130.086	30
134.0965	13
160.112	35
234.1449	999
303.1676	269
377.2053	192
