Mass spectrum: Nimesulide; LC-ESI-QTOF; MS2; CE:10 eV; [M+H]+
Name: Nimesulide
Formula: C13H12N2O5S
Exact mass: 308.04669
SMILES: CS(=O)(=O)NC1=C(C=C(C=C1)[N+](=O)[O-])OC2=CC=CC=C2
InChI: InChI=1S/C13H12N2O5S/c1-21(18,19)14-12-8-7-10(15(16)17)9-13(12)20-11-5-3-2-4-6-11/h2-9,14H,1H3
Instrument: Micromass Q-TOF II
Instrument type: LC-ESI-QTOF
Ms type: MS2
Ion mode: POSITIVE
Collision energy: 10 eV
Ionization: ESI
Precursor m/z: 309.05463
Precursor type: [M+H]+
m/z	relative intensity
84.0829	12
93.0324	14
154.0668	23
156.083	20
182.0611	28
183.0683	190
184.0779	144
200.0713	49
213.0644	177
214.0724	31
230.0692	318
246.1483	16
262.0605	29
263.0622	26
292.0519	999
309.054	216
