Mass spectrum: Nandrolone; LC-ESI-QTOF; MS2; CE:40 eV; [M+H]+
Name: Nandrolone
Formula: C18H26O2
Exact mass: 274.19328
SMILES: [H]OC([H])(C([H])([H])4)C(C([H])([H])[H])(C([H])([H])3)C([H])(C([H])([H])4)C([H])(C([H])([H])1)C([H])(C([H])([H])3)C([H])(C([H])([H])2)C(=C([H])C(=O)C([H])([H])2)C([H])([H])1
InChI: InChI=1S/C18H26O2/c1-18-9-8-14-13-5-3-12(19)10-11(13)2-4-15(14)16(18)6-7-17(18)20/h10,13-17,20H,2-9H2,1H3/t13-,14+,15+,16-,17-,18-/m0/s1
Instrument: Micromass Q-TOF II
Instrument type: LC-ESI-QTOF
Ms type: MS2
Ion mode: POSITIVE
Collision energy: 40 eV
Ionization: ESI
Precursor m/z: 275.20122
Precursor type: [M+H]+
m/z	relative intensity
55.018	19
55.0541	64
57.0338	13
65.0379	20
67.0538	181
69.0697	31
77.0391	122
79.0546	527
81.0705	516
83.0497	436
91.0548	524
93.0703	365
94.0422	16
95.0477	49
95.0862	153
97.0649	35
103.0548	26
105.0706	409
107.0491	174
107.0865	137
109.0652	999
111.08	21
115.0543	47
116.0606	19
117.0705	168
119.0861	197
121.061	10
121.1018	48
123.0809	39
128.0628	87
129.0699	135
130.0779	49
131.0858	137
133.0601	14
133.1001	74
135.0811	64
135.1192	11
141.071	54
142.0784	58
143.0866	114
144.0932	16
145.1006	153
147.0751	15
147.1154	44
149.0965	32
153.0703	12
154.0767	16
155.087	60
156.0941	19
157.1014	58
159.1158	42
161.098	39
167.085	13
168.0943	18
169.1017	43
171.1174	25
175.1107	11
183.1179	21
185.1318	20
188.1199	12
197.133	11
