Mass spectrum: Strychnine_N_Oxide; LC-ESI-QTOF; MS2; CE:30 eV; [M+H]+
Name: Strychnine_N_Oxide
Formula: C21H22N2O3
Exact mass: 350.16304
SMILES: C1C[N+]2(CC3=CCO[C@H]4CC(=O)N5[C@H]6[C@H]4[C@H]3C[C@H]2[C@@]61C7=CC=CC=C75)[O-]
InChI: InChI=1S/C21H22N2O3/c24-18-10-16-19-13-9-17-21(6-7-23(17,25)11-12(13)5-8-26-16)14-3-1-2-4-15(14)22(18)20(19)21/h1-5,13,16-17,19-20H,6-11H2/t13-,16-,17-,19-,20-,21+,23?/m0/s1
Instrument: Micromass Q-TOF II
Instrument type: LC-ESI-QTOF
Ms type: MS2
Ion mode: POSITIVE
Collision energy: 30 eV
Ionization: ESI
Precursor m/z: 351.17098
Precursor type: [M+H]+
m/z	relative intensity
82.0659	15
94.0658	12
97.0891	12
107.0734	51
108.0817	14
119.0738	38
120.0811	72
121.089	58
133.0875	12
134.0964	21
136.0761	29
138.0915	20
143.0741	10
144.0809	15
161.0837	44
162.0921	41
167.0733	11
196.0761	11
198.0913	16
220.0761	71
221.0863	16
222.0926	10
233.0841	44
247.1031	11
261.1139	35
262.1231	15
263.1404	17
264.1077	12
265.1167	12
275.134	13
277.1108	52
279.1246	28
289.119	20
290.1363	13
291.1391	29
292.1435	10
303.1408	16
304.1548	31
305.1495	51
306.1369	169
319.1436	75
333.1593	155
334.1659	880
351.1686	999
