Mass spectrum: Amfenac; LC-ESI-QTOF; MS2; CE:40 eV; [M+H]+
Name: Amfenac
Formula: C15H13NO3
Exact mass: 255.08954
SMILES: [H]OC(=O)C([H])([H])c(c([H])2)c(N([H])[H])c(c([H])c([H])2)C(=O)c(c([H])1)c([H])c([H])c([H])c([H])1
InChI: InChI=1S/C15H13NO3/c16-14-11(9-13(17)18)7-4-8-12(14)15(19)10-5-2-1-3-6-10/h1-8H,9,16H2,(H,17,18)
Instrument: Micromass Q-TOF II
Instrument type: LC-ESI-QTOF
Ms type: MS2
Ion mode: POSITIVE
Collision energy: 40 eV
Ionization: ESI
Precursor m/z: 256.09748
Precursor type: [M+H]+
m/z	relative intensity
57.0697	33
68.0131	12
70.0653	54
77.0391	644
78.0348	20
88.0764	31
91.054	19
95.0499	157
96.0462	17
104.0502	789
105.0344	308
115.0562	47
116.0611	14
118.0663	11
120.0448	12
128.063	31
129.0691	20
132.0448	999
139.0554	22
140.0596	22
141.07	37
144.0576	49
145.0663	18
150.0553	167
152.0623	78
153.0705	68
154.0737	42
155.086	77
160.0404	17
164.0619	29
165.0707	445
166.0685	89
167.0739	883
168.0591	19
177.0564	18
179.0753	14
180.0814	264
181.0879	78
182.0961	82
183.0774	48
190.0662	35
191.0736	41
192.0809	34
193.083	42
194.0654	21
195.0685	838
208.0759	122
209.0839	209
210.0916	257
