Mass spectrum: Oxytetracycline; LC-ESI-QTOF; MS2; CE:40 eV; [M+H]+
Name: Oxytetracycline
Formula: C22H24N2O9
Exact mass: 460.14818
SMILES: [H]OC(N([H])[H])=C(C(=O)4)C(=O)C(O[H])(C(=O)3)C([H])(C([H])(N(C([H])([H])[H])C([H])([H])[H])4)C([H])(O[H])C([H])(C=13)C(O[H])(C([H])([H])[H])c(c([H])2)c(c(O[H])c([H])c([H])2)C(O[H])1
InChI: InChI=1S/C22H24N2O9/c1-21(32)7-5-4-6-8(25)9(7)15(26)10-12(21)17(28)13-14(24(2)3)16(27)11(20(23)31)19(30)22(13,33)18(10)29/h4-6,12-14,17,25-26,28,31-33H,23H2,1-3H3/b20-11-/t12-,13-,14+,17+,21-,22+/m1/s1
Instrument: Micromass Q-TOF II
Instrument type: LC-ESI-QTOF
Ms type: MS2
Ion mode: POSITIVE
Collision energy: 40 eV
Ionization: ESI
Precursor m/z: 461.15612
Precursor type: [M+H]+
m/z	relative intensity
58.0656	39
70.0656	18
83.0121	26
86.0609	42
98.0609	272
109.0297	20
123.0069	17
125.0267	15
126.0562	74
128.0714	11
129.0714	12
135.0046	14
137.0223	26
145.0657	53
151.0011	16
152.0705	34
153.0195	34
154.0503	175
155.0463	17
172.061	33
173.0582	24
174.0698	31
175.078	20
178.9974	18
180.0673	53
181.0156	13
183.0811	10
185.0596	29
187.0747	44
195.0829	12
196.0629	14
198.0742	43
199.0753	15
201.0543	999
207.0754	11
208.0606	78
211.073	73
212.0459	24
213.0544	237
214.0633	16
221.0594	11
223.0755	27
225.0553	16
226.0698	61
227.0677	27
229.0565	22
235.0746	32
237.0538	28
239.0683	166
240.0413	25
241.054	34
242.0561	37
249.0538	15
251.0675	39
252.0398	20
253.0499	30
254.0603	32
255.0609	35
257.0663	91
258.0521	66
259.061	20
261.0523	11
263.0714	83
265.0523	19
265.071	14
266.059	26
267.0659	142
268.0352	271
269.0788	31
270.0518	30
271.0586	12
273.0743	51
279.0641	127
281.0563	49
283.0585	874
285.0739	79
289.0511	31
291.0634	77
292.0392	13
293.0784	11
294.0529	34
295.0606	26
297.0975	67
301.0717	64
306.0548	10
307.0585	143
308.0805	12
309.0719	44
312.1212	59
317.0412	27
319.061	58
320.0275	24
321.0721	13
322.0462	142
325.0751	19
335.0538	126
337.0705	280
346.062	12
347.079	22
350.0423	641
353.0696	13
362.102	14
363.049	56
365.065	288
375.0696	19
376.083	26
380.1227	10
381.0598	38
426.1144	22
