Mass spectrum: Thiethylperazine; LC-ESI-QTOF; MS2; CE:30 eV; [M+H]+
Name: Thiethylperazine
Formula: C22H29N3S2
Exact mass: 399.18029
SMILES: [H]C([H])([H])C([H])([H])Sc(c([H])4)c([H])c(c2c([H])4)N(c(c([H])3)c(c([H])c([H])c([H])3)S2)C([H])([H])C([H])([H])C([H])([H])N(C([H])([H])1)C([H])([H])C([H])([H])N(C([H])([H])[H])C([H])([H])1
InChI: InChI=1S/C22H29N3S2/c1-3-26-18-9-10-22-20(17-18)25(19-7-4-5-8-21(19)27-22)12-6-11-24-15-13-23(2)14-16-24/h4-5,7-10,17H,3,6,11-16H2,1-2H3
Instrument: Micromass Q-TOF II
Instrument type: LC-ESI-QTOF
Ms type: MS2
Ion mode: POSITIVE
Collision energy: 30 eV
Ionization: ESI
Precursor m/z: 400.18823
Precursor type: [M+H]+
m/z	relative intensity
70.0651	236
98.0899	47
113.1079	787
141.1392	999
211.0463	13
239.0781	141
240.0853	32
243.0191	14
259.0502	49
272.0578	187
300.0897	32
400.192	52
