Mass spectrum: Sulfasalazine; LC-ESI-QTOF; MS2; CE:30 eV; [M+H]+
Name: Sulfasalazine
Formula: C18H14N4O5S
Exact mass: 398.06849
SMILES: [H]OC(=O)c(c(=O)1)c([H])c(=NN([H])c(c([H])3)c([H])c([H])c(c([H])3)S(=O)(=O)N([H])c(n2)c([H])c([H])c([H])c([H])2)c([H])c([H])1
InChI: InChI=1S/C18H14N4O5S/c23-16-9-6-13(11-15(16)18(24)25)21-20-12-4-7-14(8-5-12)28(26,27)22-17-3-1-2-10-19-17/h1-11,20H,(H,19,22)(H,24,25)/b21-13+
Instrument: Micromass Q-TOF II
Instrument type: LC-ESI-QTOF
Ms type: MS2
Ion mode: POSITIVE
Collision energy: 30 eV
Ionization: ESI
Precursor m/z: 399.07643
Precursor type: [M+H]+
m/z	relative intensity
81.0336	18
91.0176	50
93.0435	10
94.0518	240
95.0583	21
105.0441	11
109.0266	12
111.0437	30
119.0123	361
121.0388	11
137.0221	132
139.0534	82
147.0176	137
155.0332	170
157.0063	23
157.0746	20
165.0284	243
167.054	27
168.063	33
169.0761	49
170.0835	12
185.0696	41
186.0533	22
195.0498	41
196.055	12
197.0726	29
211.0517	14
213.0638	485
223.0484	447
224.0556	36
225.0612	27
226.059	48
233.1043	13
234.0447	18
239.0431	62
241.0588	999
242.0662	70
243.0782	12
257.0533	332
259.071	100
260.0916	11
261.1015	29
273.0479	31
282.0844	11
287.0094	32
287.0799	80
289.1044	35
305.0205	26
315.0851	115
317.1007	358
333.0966	96
335.1088	13
381.0629	445
399.0765	21
