Mass spectrum: Tetracycline; LC-ESI-QTOF; MS2; CE:40 eV; [M+H]+
Name: Tetracycline
Formula: C22H24N2O8
Exact mass: 444.15327
SMILES: [H][C@@]12C[C@@]3([H])C(=C(O)[C@]1(O)C(=O)C(C(N)=O)=C(O)[C@H]2N(C)C)C(=O)C1=C(C=CC=C1O)[C@@]3(C)O
InChI: InChI=1S/C22H24N2O8/c1-21(31)8-5-4-6-11(25)12(8)16(26)13-9(21)7-10-15(24(2)3)17(27)14(20(23)30)19(29)22(10,32)18(13)28/h4-6,9-10,15,25,27-28,31-32H,7H2,1-3H3,(H2,23,30)/t9-,10-,15-,21+,22-/m0/s1
Instrument: Micromass Q-TOF II
Instrument type: LC-ESI-QTOF
Ms type: MS2
Ion mode: POSITIVE
Collision energy: 40 eV
Ionization: ESI
Precursor m/z: 445.16121
Precursor type: [M+H]+
m/z	relative intensity
58.0654	39
68.0491	12
70.0649	47
84.0447	26
86.0606	138
98.0603	972
123.0058	11
124.0404	17
126.0547	266
139.027	25
152.0323	18
154.0499	603
157.0412	13
159.0521	12
159.0832	11
166.0451	10
168.0388	13
172.0625	16
173.0941	49
179.0837	11
183.0807	11
185.0954	14
187.0753	51
188.0827	64
189.0861	16
194.0459	23
195.0813	73
196.0556	14
197.0762	15
198.0667	13
199.0719	18
201.0375	19
201.0887	127
207.0794	14
211.0748	79
213.0898	100
215.0695	24
219.0779	11
223.0747	187
224.0481	20
225.0831	61
226.062	261
227.0692	36
233.066	15
235.0758	68
236.047	40
237.0707	36
238.0614	25
239.0695	165
240.0719	23
241.0847	999
242.0568	164
243.0638	78
247.0727	34
249.0631	21
250.0636	22
251.0688	272
252.0407	244
253.0789	60
254.0563	164
255.0672	19
257.0784	188
262.0656	10
263.0699	121
265.0798	45
267.0634	846
269.0792	987
273.0533	15
275.0683	39
276.0424	32
277.0736	22
278.0562	189
279.065	73
281.0924	80
282.0531	28
283.0623	19
285.0728	63
291.063	253
293.0781	119
294.0527	37
295.0602	25
296.1271	86
297.0714	51
303.0645	36
304.0363	30
305.0614	14
306.0503	121
307.0856	11
308.0751	20
309.078	48
319.0601	119
321.0744	262
322.0455	62
331.071	11
332.0355	12
334.0472	362
336.1182	15
337.0702	279
347.0546	38
349.0699	203
350.0425	13
355.0835	19
364.1177	17
365.0671	28
377.0857	32
392.1131	42
410.1245	42
