Mass spectrum: Oxytetracycline; LC-ESI-QTOF; MS2; CE:20 eV; [M+H]+
Name: Oxytetracycline
Formula: C22H24N2O9
Exact mass: 460.14818
SMILES: [H]OC(N([H])[H])=C(C(=O)4)C(=O)C(O[H])(C(=O)3)C([H])(C([H])(N(C([H])([H])[H])C([H])([H])[H])4)C([H])(O[H])C([H])(C=13)C(O[H])(C([H])([H])[H])c(c([H])2)c(c(O[H])c([H])c([H])2)C(O[H])1
InChI: InChI=1S/C22H24N2O9/c1-21(32)7-5-4-6-8(25)9(7)15(26)10-12(21)17(28)13-14(24(2)3)16(27)11(20(23)31)19(30)22(13,33)18(10)29/h4-6,12-14,17,25-26,28,31-33H,23H2,1-3H3/b20-11-/t12-,13-,14+,17+,21-,22+/m1/s1
Instrument: Micromass Q-TOF II
Instrument type: LC-ESI-QTOF
Ms type: MS2
Ion mode: POSITIVE
Collision energy: 20 eV
Ionization: ESI
Precursor m/z: 461.15612
Precursor type: [M+H]+
m/z	relative intensity
226.0698	22
337.0705	19
365.0652	11
381.0601	48
398.0896	17
408.1086	36
426.1148	999
443.1435	113
444.1276	149
461.1541	40
