Mass spectrum: Nimesulide; LC-ESI-QTOF; MS2; CE:40 eV; [M+H]+
Name: Nimesulide
Formula: C13H12N2O5S
Exact mass: 308.04669
SMILES: CS(=O)(=O)NC1=C(C=C(C=C1)[N+](=O)[O-])OC2=CC=CC=C2
InChI: InChI=1S/C13H12N2O5S/c1-21(18,19)14-12-8-7-10(15(16)17)9-13(12)20-11-5-3-2-4-6-11/h2-9,14H,1H3
Instrument: Micromass Q-TOF II
Instrument type: LC-ESI-QTOF
Ms type: MS2
Ion mode: POSITIVE
Collision energy: 40 eV
Ionization: ESI
Precursor m/z: 309.05463
Precursor type: [M+H]+
m/z	relative intensity
78.0423	19
84.0792	17
104.0454	14
106.0276	19
115.0519	15
117.0664	11
127.0495	17
128.0614	85
129.0657	155
130.0658	11
139.0554	13
145.065	35
154.0654	999
155.0638	107
156.0791	92
166.0674	32
182.0599	87
183.0672	205
184.0741	48
198.0595	19
