Mass spectrum: Thioridazine; LC-ESI-QTOF; MS2; CE:30 eV; [M+H]+
Name: Thioridazine
Formula: C21H26N2S2
Exact mass: 370.15374
SMILES: [H]C([H])([H])Sc(c([H])4)c([H])c(c2c([H])4)N(c(c([H])3)c(c([H])c([H])c([H])3)S2)C([H])([H])C([H])([H])C([H])(N(C([H])([H])[H])1)C([H])([H])C([H])([H])C([H])([H])C([H])([H])1
InChI: InChI=1S/C21H26N2S2/c1-22-13-6-5-7-16(22)12-14-23-18-8-3-4-9-20(18)25-21-11-10-17(24-2)15-19(21)23/h3-4,8-11,15-16H,5-7,12-14H2,1-2H3
Instrument: Micromass Q-TOF II
Instrument type: LC-ESI-QTOF
Ms type: MS2
Ion mode: POSITIVE
Collision energy: 30 eV
Ionization: ESI
Precursor m/z: 371.16168
Precursor type: [M+H]+
m/z	relative intensity
58.0648	49
70.0649	32
98.0968	894
126.1277	999
211.0436	20
226.0668	31
243.0164	14
245.0312	19
258.0392	166
324.1595	13
371.1593	32
