Mass spectrum: Aminophylline; LC-ESI-QTOF; MS2; CE:50 eV; [M+H]+
Name: Aminophylline
Formula: C7H8N4O2
Exact mass: 180.06473
SMILES: [H]C([H])([H])N(C(=O)1)C(=O)c(n([H])2)c(nc([H])2)N(C([H])([H])[H])1
InChI: InChI=1S/C7H8N4O2/c1-10-5-4(8-3-9-5)6(12)11(2)7(10)13/h3H,1-2H3,(H,8,9)
Instrument: Micromass Q-TOF II
Instrument type: LC-ESI-QTOF
Ms type: MS2
Ion mode: POSITIVE
Collision energy: 50 eV
Ionization: ESI
Precursor m/z: 181.07267
Precursor type: [M+H]+
m/z	relative intensity
52.022	10
53.0106	19
54.0211	236
55.0273	38
56.0408	12
57.0457	21
65.0151	12
66.0222	34
67.0296	289
68.0087	14
68.0349	115
69.0448	999
70.0481	34
72.0326	22
79.0309	21
81.0099	86
81.0422	47
82.0178	172
83.0247	26
93.0419	12
94.0393	84
95.0245	37
96.0556	51
109.0281	382
110.0317	18
121.0535	31
122.0394	13
124.0504	18
