Mass spectrum: Noscapine; LC-ESI-QTOF; MS2; CE:30 eV; [M+H]+
Name: Noscapine
Formula: C22H23NO7
Exact mass: 413.14745
SMILES: CN1CCC2=CC3=C(C(=C2[C@@H]1[C@@H]4C5=C(C(=C(C=C5)OC)OC)C(=O)O4)OC)OCO3
InChI: InChI=1S/C22H23NO7/c1-23-8-7-11-9-14-20(29-10-28-14)21(27-4)15(11)17(23)18-12-5-6-13(25-2)19(26-3)16(12)22(24)30-18/h5-6,9,17-18H,7-8,10H2,1-4H3/t17-,18+/m1/s1
Instrument: Micromass Q-TOF II
Instrument type: LC-ESI-QTOF
Ms type: MS2
Ion mode: POSITIVE
Collision energy: 30 eV
Ionization: ESI
Precursor m/z: 414.15539
Precursor type: [M+H]+
m/z	relative intensity
179.0704	77
189.0544	11
205.0728	60
206.0808	76
218.0798	18
219.0891	26
220.096	999
248.0893	14
263.069	14
264.0766	13
265.0758	13
267.0981	10
276.0766	10
277.0819	16
279.0785	16
280.0726	33
291.0648	16
292.0716	24
293.0782	17
294.0859	11
295.0938	67
304.0718	13
305.0768	29
306.0571	31
307.0739	53
308.076	29
309.0776	19
310.0828	28
319.0619	16
320.0758	21
321.0769	26
322.0828	67
323.0897	195
324.0966	33
325.106	75
332.0685	16
334.0809	69
335.0784	50
336.0868	25
337.0882	26
338.0793	67
350.0795	106
351.0846	12
352.0988	46
353.1012	385
355.1179	11
362.0706	13
363.0921	12
364.0839	29
365.1028	65
366.0955	46
368.1129	59
378.1091	22
381.1169	39
396.1103	73
414.1531	19
