Mass spectrum: Cholesterol; LC-ESI-QTOF; MS2; CE:50 eV; [M+H]+
Name: Cholesterol
Formula: C27H46O
Exact mass: 386.35487
SMILES: [H]C(C([H])([H])C([H])([H])C([H])([H])C(C(C4([H])[H])([H])C(C([H])([H])[H])(C3([H])[H])C(C4([H])[H])([H])C([H])(C([H])(C3([H])[H])1)C([H])([H])C([H])=C(C([H])([H])2)C1(C([H])([H])C([H])([H])C([H])(O[H])2)C([H])([H])[H])(C([H])([H])[H])[H])(C([H])([H])[H])C([H])([H])[H]
InChI: InChI=1S/C27H46O/c1-18(2)7-6-8-19(3)23-11-12-24-22-10-9-20-17-21(28)13-15-26(20,4)25(22)14-16-27(23,24)5/h9,18-19,21-25,28H,6-8,10-17H2,1-5H3
Instrument: Micromass Q-TOF II
Instrument type: LC-ESI-QTOF
Ms type: MS2
Ion mode: POSITIVE
Collision energy: 50 eV
Ionization: ESI
Precursor m/z: 387.36281
Precursor type: [M+H]+
m/z	relative intensity
57.0687	188
77.0379	465
83.0445	269
91.0583	179
95.0507	135
98.9892	113
105.07	232
119.0928	131
128.0657	161
147.1204	132
175.0132	999
