Mass spectrum: Ormetoprim; LC-ESI-QTOF; MS2; CE:50 eV; [M+H]+
Name: Ormetoprim
Formula: C14H18N4O2
Exact mass: 274.14298
SMILES: [H]N([H])c(n2)nc(N([H])[H])c(c([H])2)C([H])([H])c(c([H])1)c(C([H])([H])[H])c([H])c(OC([H])([H])[H])c(OC([H])([H])[H])1
InChI: InChI=1S/C14H18N4O2/c1-8-4-11(19-2)12(20-3)6-9(8)5-10-7-17-14(16)18-13(10)15/h4,6-7H,5H2,1-3H3,(H4,15,16,17,18)
Instrument: Micromass Q-TOF II
Instrument type: LC-ESI-QTOF
Ms type: MS2
Ion mode: POSITIVE
Collision energy: 50 eV
Ionization: ESI
Precursor m/z: 275.15092
Precursor type: [M+H]+
m/z	relative intensity
54.0336	45
68.035	42
69.0403	17
70.0357	12
77.0385	23
79.0297	48
81.0448	999
82.0474	18
83.045	21
91.0537	82
93.0672	11
95.0504	12
96.0566	26
103.0532	61
105.0674	23
106.0388	81
107.0493	48
109.0615	72
110.0574	65
111.064	15
115.0538	53
116.0527	16
117.0692	54
118.0583	22
119.0445	15
120.0716	14
121.0646	140
122.07	12
123.0666	698
124.0754	57
127.0472	19
128.0557	30
130.0619	41
131.0571	27
132.0649	35
135.0532	14
140.0446	14
142.0664	45
143.0549	31
144.08	31
145.0664	112
146.06	27
147.0621	38
148.0761	27
149.0576	52
154.0651	21
155.0586	16
156.0661	19
157.061	27
158.0623	37
159.0835	20
160.0756	41
161.0715	20
162.0881	12
165.06	37
169.0642	29
170.0642	121
171.0711	64
172.0755	55
173.081	37
174.0864	25
176.072	17
182.0833	10
183.0591	13
184.077	75
185.0775	62
186.0857	38
187.0919	65
189.1089	36
196.088	11
197.0623	11
198.0721	37
199.084	97
200.0778	33
201.1142	62
210.0707	13
212.0817	27
213.0776	24
214.0884	30
215.0929	39
217.1104	13
227.0927	26
229.1125	13
243.0813	38
257.1008	17
259.119	40
