Mass spectrum: Oxycodone; LC-ESI-QTOF; MS2; CE:50 eV; [M+H]+
Name: Oxycodone
Formula: C18H21NO4
Exact mass: 315.14706
SMILES: [H]C([H])([H])Oc(c([H])5)c(O4)c(c(c([H])5)1)C(C([H])([H])2)(C([H])43)C(O[H])(C([H])([H])C([H])([H])C(=O)3)C([H])(N(C([H])([H])[H])C([H])([H])2)C([H])([H])1
InChI: InChI=1S/C18H21NO4/c1-19-8-7-17-14-10-3-4-12(22-2)15(14)23-16(17)11(20)5-6-18(17,21)13(19)9-10/h3-4,13,16,21H,5-9H2,1-2H3
Instrument: Micromass Q-TOF II
Instrument type: LC-ESI-QTOF
Ms type: MS2
Ion mode: POSITIVE
Collision energy: 50 eV
Ionization: ESI
Precursor m/z: 316.15500
Precursor type: [M+H]+
m/z	relative intensity
55.0181	11
70.0678	16
77.0401	13
79.0546	15
80.051	12
82.0648	12
91.055	51
93.0624	12
94.0667	58
102.0477	21
103.0564	58
104.0625	22
105.0722	31
108.0819	19
115.0558	143
116.0628	23
117.0618	39
118.055	26
119.0515	15
120.0813	12
127.0567	21
128.0625	139
129.0719	73
130.0609	30
131.0518	197
132.0637	196
133.0685	25
139.0558	18
140.0654	19
141.0708	134
142.077	25
143.0518	16
143.0664	18
143.0812	17
144.0603	120
145.0638	68
146.0424	47
147.0521	13
148.071	21
151.0583	12
152.063	189
153.0706	234
154.073	60
155.0676	132
156.0617	63
157.0677	53
158.0759	54
159.0666	156
160.0566	144
161.0596	25
165.0711	129
166.0732	41
167.0783	114
168.0764	183
169.0847	294
170.0913	207
171.0772	108
172.0688	73
173.0799	32
174.0888	45
175.0771	199
176.0644	14
177.0729	24
178.0771	50
179.0835	31
180.0819	75
181.0865	652
182.087	183
183.0631	206
184.0595	153
184.1059	113
185.0647	70
185.0964	17
186.0745	26
187.0783	26
188.0755	14
189.0746	15
190.0744	11
191.0779	13
192.078	16
193.0785	23
194.0961	112
195.0823	79
196.0803	142
197.0826	395
198.0897	367
199.0782	118
200.0789	40
202.0873	21
205.0782	23
206.0741	22
207.0811	28
208.0853	73
209.079	76
210.0861	179
211.0741	188
212.1078	999
213.0995	141
214.0884	37
215.1001	24
218.0973	18
219.0972	12
220.1079	37
221.0882	33
222.0913	63
223.0933	34
224.0621	22
224.1033	107
225.0811	153
226.0873	473
227.0922	39
228.1061	18
234.0932	17
236.1009	40
237.0994	18
238.093	87
239.0915	57
240.1023	263
241.1109	142
242.1156	18
248.1045	15
249.0942	10
250.0866	22
251.092	10
252.1004	21
254.1078	85
255.0984	12
256.1393	13
264.1017	36
266.1157	29
268.0954	22
282.1131	19
