Mass spectrum: Gingerol; LC-ESI-QTOF; MS2; CE:30 eV; [M+H]+
Name: 6-Gingerol
Name: (5S)-5-Hydroxy-1-(4-hydroxy-3-methoxyphenyl)-3-decanone
Formula: C17H26O4
Exact mass: 294.18311
SMILES: CCCCC[C@@H](CC(=O)CCC1=CC(=C(C=C1)O)OC)O
InChI: InChI=1S/C17H26O4/c1-3-4-5-6-14(18)12-15(19)9-7-13-8-10-16(20)17(11-13)21-2/h8,10-11,14,18,20H,3-7,9,12H2,1-2H3/t14-/m0/s1
Instrument: Micromass Q-TOF II
Instrument type: LC-ESI-QTOF
Ms type: MS2
Ion mode: POSITIVE
Collision energy: 30 eV
Ionization: ESI
Precursor m/z: 295.19105
Precursor type: [M+H]+
m/z	relative intensity
94.0397	13
103.0551	13
117.0708	36
122.0365	51
131.0493	62
137.0597	999
145.0644	69
162.0665	13
177.0937	15
179.0714	20
