Mass spectrum: Antipyrine; LC-ESI-QTOF; MS2; CE:40 eV; [M+H]+
Name: Antipyrine
Formula: C11H12N2O
Exact mass: 188.09496
SMILES: [H]C([H])([H])C(=C([H])2)N(C([H])([H])[H])N(C(=O)2)c(c([H])1)c([H])c([H])c([H])c([H])1
InChI: InChI=1S/C11H12N2O/c1-9-8-11(14)13(12(9)2)10-6-4-3-5-7-10/h3-8H,1-2H3
Instrument: Micromass Q-TOF II
Instrument type: LC-ESI-QTOF
Ms type: MS2
Ion mode: POSITIVE
Collision energy: 40 eV
Ionization: ESI
Precursor m/z: 189.10290
Precursor type: [M+H]+
m/z	relative intensity
51.0244	20
56.0505	297
58.0658	64
65.0387	149
68.0503	14
69.0574	20
77.0397	999
78.0468	66
79.0553	124
80.0508	14
81.046	49
82.0305	13
89.0395	26
90.0458	43
91.0553	186
92.051	40
93.0592	35
94.0664	18
95.0525	256
96.0628	14
98.0615	37
102.0481	52
103.0551	113
104.0508	298
105.0565	33
106.066	242
115.0554	182
116.0573	26
117.0612	129
118.0662	110
119.0646	23
120.0812	18
128.0515	54
129.058	48
130.0664	234
131.0626	239
132.069	87
133.0577	14
143.0742	20
144.0811	35
145.0764	108
146.0724	27
147.092	20
