Mass spectrum: Testosterone_Propionate; LC-ESI-QTOF; MS2; CE:40 eV; [M+H]+
Name: Testosterone_Propionate
Formula: C22H32O3
Exact mass: 344.23514
SMILES: [H]C([H])([H])C([H])([H])C(=O)OC([H])(C([H])([H])4)C(C([H])([H])[H])(C([H])([H])3)C([H])(C([H])([H])4)C([H])(C([H])([H])1)C([H])(C([H])([H])3)C(C([H])([H])[H])(C([H])([H])2)C(=C([H])C(=O)C([H])([H])2)C([H])([H])1
InChI: InChI=1S/C22H32O3/c1-4-20(24)25-19-8-7-17-16-6-5-14-13-15(23)9-11-21(14,2)18(16)10-12-22(17,19)3/h13,16-19H,4-12H2,1-3H3/t16?,17?,18?,19-,21-,22-/m0/s1
Instrument: Micromass Q-TOF II
Instrument type: LC-ESI-QTOF
Ms type: MS2
Ion mode: POSITIVE
Collision energy: 40 eV
Ionization: ESI
Precursor m/z: 345.24308
Precursor type: [M+H]+
m/z	relative intensity
57.033	86
67.0537	45
69.0697	36
77.0388	21
79.0545	181
81.0701	187
83.0491	44
91.0548	97
93.0704	103
95.0854	71
97.0651	878
105.0702	125
107.0858	63
109.0647	999
117.0706	26
119.0857	91
121.0638	18
121.1019	25
123.0802	116
129.0698	22
131.0862	46
133.1008	54
135.1169	11
142.0773	11
143.0863	31
145.1009	51
147.1163	35
149.0955	10
155.0853	16
157.1009	26
159.1165	35
161.1299	16
169.1013	19
171.1161	20
173.1319	13
175.1467	17
183.1163	16
185.1319	11
197.1312	14
