Mass spectrum: Acepromazine; LC-ESI-QTOF; MS2; CE:30 eV; [M+H]+
Name: Acepromazine
Formula: C19H22N2OS
Exact mass: 326.14528
SMILES: [H]C([H])([H])C(=O)c(c([H])3)c([H])c(c1c([H])3)N(C([H])([H])C([H])([H])C([H])([H])N(C([H])([H])[H])C([H])([H])[H])c(c([H])2)c(c([H])c([H])c([H])2)S1
InChI: InChI=1S/C19H22N2OS/c1-14(22)15-9-10-19-17(13-15)21(12-6-11-20(2)3)16-7-4-5-8-18(16)23-19/h4-5,7-10,13H,6,11-12H2,1-3H3
Instrument: Micromass Q-TOF II
Instrument type: LC-ESI-QTOF
Ms type: MS2
Ion mode: POSITIVE
Collision energy: 30 eV
Ionization: ESI
Precursor m/z: 327.15322
Precursor type: [M+H]+
m/z	relative intensity
58.0647	424
86.0964	999
206.095	33
207.1056	17
211.0451	17
212.0532	58
222.091	227
236.0524	34
238.0704	14
239.0758	172
240.0838	52
241.0554	54
254.0627	347
282.0947	22
