Mass spectrum: Vecuronium; LC-ESI-QTOF; MS2; CE:40 eV; [M]+
Name: Vecuronium
Formula: [C34H57N2O4]+
Exact mass: 557.43183
SMILES: CC(=O)O[C@H]1C[C@@H]2CC[C@@H]3[C@@H]([C@]2(C[C@@H]1N4CCCCC4)C)CC[C@]5([C@H]3C[C@@H]([C@@H]5OC(=O)C)[N+]6(CCCCC6)C)C
InChI: InChI=1S/C34H57N2O4/c1-23(37)39-31-20-25-12-13-26-27(34(25,4)22-29(31)35-16-8-6-9-17-35)14-15-33(3)28(26)21-30(32(33)40-24(2)38)36(5)18-10-7-11-19-36/h25-32H,6-22H2,1-5H3/q+1/t25-,26+,27-,28-,29-,30-,31-,32-,33-,34-/m0/s1
Instrument: Micromass Q-TOF II
Instrument type: LC-ESI-QTOF
Ms type: MS2
Ion mode: POSITIVE
Collision energy: 40 eV
Ionization: ESI
Precursor m/z: 557.43183
Precursor type: [M]+
m/z	relative intensity
84.081	87
86.0963	45
95.0856	13
98.0962	80
100.1118	999
105.0708	14
107.0862	20
121.1014	11
124.112	52
133.0996	12
135.1178	14
140.1062	11
142.1232	27
143.0838	10
145.1015	20
147.1173	34
149.132	28
157.1021	12
159.1166	26
161.1334	27
173.1317	12
182.1178	37
190.1579	17
199.1483	14
213.1639	17
253.1934	38
255.2094	38
338.2837	461
356.2943	812
398.304	278
416.3136	139
458.3237	24
497.407	114
557.428	441
