Mass spectrum: Dimefline; LC-ESI-QTOF; MS2; CE:40 eV; [M+H]+
Name: Dimefline
Formula: C20H21NO3
Exact mass: 323.15214
SMILES: [H]C([H])([H])Oc(c([H])3)c(C([H])([H])N(C([H])([H])[H])C([H])([H])[H])c(O1)c(c([H])3)C(=O)C(C([H])([H])[H])=C1c(c([H])2)c([H])c([H])c([H])c([H])2
InChI: InChI=1S/C20H21NO3/c1-13-18(22)15-10-11-17(23-4)16(12-21(2)3)20(15)24-19(13)14-8-6-5-7-9-14/h5-11H,12H2,1-4H3
Instrument: Micromass Q-TOF II
Instrument type: LC-ESI-QTOF
Ms type: MS2
Ion mode: POSITIVE
Collision energy: 40 eV
Ionization: ESI
Precursor m/z: 324.16008
Precursor type: [M+H]+
m/z	relative intensity
77.0388	90
105.0328	820
133.0275	999
163.0384	631
178.0791	20
181.0506	60
219.0815	17
221.0971	17
248.084	87
