Mass spectrum: Buprenorphine; LC-ESI-QTOF; MS2; CE:50 eV; [M+H]+
Name: Buprenorphine
Formula: C29H41NO4
Exact mass: 467.30356
SMILES: C(O[H])(C(C([H])([H])[H])(C([H])([H])[H])C([H])([H])[H])(C(C([H])([H])6)([H])C(C([H])([H])7)(C(C514)(Oc(c(O[H])2)c1c(C(C(C56C7([H])[H])([H])N(C([H])([H])C4([H])[H])C([H])([H])C(C3([H])[H])(C3([H])[H])[H])([H])[H])c([H])c([H])2)[H])OC([H])([H])[H])C([H])([H])[H]
InChI: InChI=1S/C29H41NO4/c1-25(2,3)26(4,32)20-15-27-10-11-29(20,33-5)24-28(27)12-13-30(16-17-6-7-17)21(27)14-18-8-9-19(31)23(34-24)22(18)28/h8-9,17,20-21,24,31-32H,6-7,10-16H2,1-5H3
Instrument: Micromass Q-TOF II
Instrument type: LC-ESI-QTOF
Ms type: MS2
Ion mode: POSITIVE
Collision energy: 50 eV
Ionization: ESI
Precursor m/z: 468.31150
Precursor type: [M+H]+
m/z	relative intensity
55.0556	674
56.0513	60
57.0712	95
58.0657	18
59.0503	18
67.0548	27
69.0709	91
70.0663	21
71.0456	24
71.0626	33
71.0772	29
79.0562	20
81.072	44
82.0669	23
83.0874	458
84.0826	533
85.0661	21
85.1037	59
91.0561	29
93.0728	31
95.0517	12
95.0886	30
96.0845	12
97.0675	46
98.0979	64
99.0843	51
100.1159	16
101.0982	441
105.0729	41
107.0868	27
108.0832	12
109.0669	44
109.1041	14
110.0965	24
111.0802	15
111.12	21
112.1138	79
115.0566	18
117.0719	23
119.0868	23
121.0663	64
121.1049	12
123.0438	29
123.0825	87
123.1214	31
125.0965	15
128.062	10
129.0764	22
131.0467	14
131.0866	55
133.0649	13
133.103	20
134.0893	15
135.0831	58
136.09	14
137.0574	11
137.0979	59
140.1108	12
141.0725	35
143.0529	31
143.0887	10
144.066	14
145.0677	41
146.0671	13
147.0463	49
147.086	19
148.0768	15
149.0625	29
149.0801	20
149.096	38
150.1011	11
151.1132	30
153.07	33
155.0874	17
157.0679	69
158.0868	19
159.083	81
160.0728	21
161.0633	93
161.104	15
162.0557	33
162.0722	24
162.0983	26
163.0904	39
164.0742	21
165.0727	60
166.0854	23
167.0987	71
169.0702	56
171.0608	33
171.0816	16
172.0718	12
173.0626	144
173.115	14
174.0809	26
174.1083	15
175.0776	69
176.0756	45
177.0869	38
178.0833	20
179.0895	43
180.0919	12
181.0705	91
181.1103	13
182.0729	23
183.0822	60
184.0549	235
185.0638	112
185.1082	13
186.0782	39
187.0779	385
188.0753	48
189.0829	50
190.0897	78
190.1304	12
191.0867	68
192.0921	11
193.0809	158
194.0759	26
195.0834	118
196.0875	30
197.0804	161
198.0757	51
199.0785	138
200.0805	39
201.0885	52
202.0884	132
203.0893	62
204.111	56
205.0967	53
205.1595	17
206.0825	21
207.0852	109
208.0833	35
209.0957	98
210.0715	65
211.0784	355
212.084	87
213.0919	102
214.0894	49
215.098	67
216.1101	84
217.0984	70
218.0812	38
218.1311	18
219.092	133
220.0927	34
221.0978	158
222.0791	28
223.0803	285
224.0874	78
225.0925	324
226.0966	59
227.089	121
228.0983	59
229.0985	57
230.1166	40
231.095	47
232.093	35
233.101	57
234.0922	33
235.0905	119
236.0864	81
237.0934	228
238.0972	92
239.1075	255
240.0863	124
241.0981	142
242.1006	91
243.106	235
244.1195	58
245.1077	93
246.1045	17
247.1117	90
248.0995	26
249.0991	98
250.104	58
251.1071	131
252.0964	99
253.0982	205
254.1131	53
255.1072	117
256.1203	122
257.1218	40
258.1221	19
259.1156	29
260.1268	13
261.116	45
262.1053	40
263.1124	105
264.1145	40
265.1229	135
266.1171	84
267.1059	335
268.1189	105
269.1201	92
270.1207	50
271.1306	30
273.1291	31
275.1118	18
276.1172	19
277.1246	51
278.128	39
279.1331	87
280.1329	55
281.133	104
282.1377	65
283.1352	44
284.1342	41
285.1367	17
286.1441	16
289.1277	18
290.1323	15
291.1388	49
292.1391	29
293.14	37
294.1491	35
295.1394	71
296.1435	73
297.1504	56
298.1486	70
299.1335	16
303.1551	11
305.1519	16
306.1531	31
307.1541	33
308.1644	62
309.1536	27
310.1517	49
311.1636	29
312.1632	54
319.1718	15
320.1672	12
321.1784	27
322.1772	22
323.1681	16
324.165	169
325.1583	12
326.1799	71
334.1804	12
335.1976	17
336.2003	37
337.192	15
338.1801	202
339.191	30
340.1933	75
342.1731	191
351.2008	15
352.1938	90
353.2188	18
354.1795	65
356.1893	12
364.2311	28
366.2105	27
367.2169	18
368.2211	154
370.2051	125
378.2069	19
380.2247	15
382.2462	14
394.2453	10
396.2221	999
408.2572	14
410.2377	26
414.2705	202
426.2733	13
468.3151	598
