Mass spectrum: Apramycin; LC-ESI-QTOF; MS2; CE:20 eV; [M+H]+
Name: Apramycin
Formula: C21H41N5O11
Exact mass: 539.28026
SMILES: [H]OC([H])([H])C([H])(O1)C([H])(N([H])[H])C([H])(O[H])C([H])(O[H])C([H])1OC([H])(O2)C([H])(N([H])C([H])([H])[H])C([H])(O[H])C([H])(O3)C([H])2C([H])([H])C([H])(N([H])[H])C([H])(OC([H])(C([H])(O[H])4)C([H])(N([H])[H])C([H])([H])C([H])(N([H])[H])C([H])(O[H])4)3
InChI: InChI=1S/C21H41N5O11/c1-26-11-14(30)18-8(33-20(11)37-21-16(32)13(29)10(25)9(4-27)34-21)3-7(24)19(36-18)35-17-6(23)2-5(22)12(28)15(17)31/h5-21,26-32H,2-4,22-25H2,1H3/t5-,6+,7-,8+,9-,10-,11+,12+,13+,14-,15-,16-,17-,18+,19?,20-,21-/m1/s1
Instrument: Micromass Q-TOF II
Instrument type: LC-ESI-QTOF
Ms type: MS2
Ion mode: POSITIVE
Collision energy: 20 eV
Ionization: ESI
Precursor m/z: 540.28820
Precursor type: [M+H]+
m/z	relative intensity
162.074	22
163.1066	65
180.0838	34
181.0948	23
182.0793	18
199.1078	169
200.0932	11
201.1207	17
217.1177	518
230.1528	10
271.128	145
289.1386	12
295.1299	11
308.1646	23
312.1492	17
313.1393	17
323.1354	12
325.1821	16
326.1688	43
330.1594	15
343.1961	71
344.1829	330
360.174	16
361.2078	210
362.1909	116
378.1862	999
379.222	42
505.2476	14
523.2588	247
540.2864	464
