Mass spectrum: Nimesulide; LC-ESI-QTOF; MS2; CE:20 eV; [M+H]+
Name: Nimesulide
Formula: C13H12N2O5S
Exact mass: 308.04669
SMILES: CS(=O)(=O)NC1=C(C=C(C=C1)[N+](=O)[O-])OC2=CC=CC=C2
InChI: InChI=1S/C13H12N2O5S/c1-21(18,19)14-12-8-7-10(15(16)17)9-13(12)20-11-5-3-2-4-6-11/h2-9,14H,1H3
Instrument: Micromass Q-TOF II
Instrument type: LC-ESI-QTOF
Ms type: MS2
Ion mode: POSITIVE
Collision energy: 20 eV
Ionization: ESI
Precursor m/z: 309.05463
Precursor type: [M+H]+
m/z	relative intensity
84.082	11
93.0313	14
154.0658	22
156.0821	19
182.0598	28
183.0673	187
184.0769	141
200.0699	49
213.0635	178
214.0714	31
230.0679	316
246.1469	16
262.0598	30
263.0607	26
292.051	999
309.0528	214
