Mass spectrum: Etodolac; LC-ESI-QTOF; MS2; CE:50 eV; [M+H]+
Name: Etodolac
Formula: C17H21NO3
Exact mass: 287.15214
SMILES: [H]OC(=O)C([H])([H])C(O3)(C([H])([H])C([H])([H])[H])c(n([H])1)c(C([H])([H])C([H])([H])3)c(c([H])2)c(c(c([H])c([H])2)C([H])([H])C([H])([H])[H])1
InChI: InChI=1S/C17H21NO3/c1-3-11-6-5-7-12-13-8-9-21-17(4-2,10-14(19)20)16(13)18-15(11)12/h5-7,18H,3-4,8-10H2,1-2H3,(H,19,20)
Instrument: Micromass Q-TOF II
Instrument type: LC-ESI-QTOF
Ms type: MS2
Ion mode: POSITIVE
Collision energy: 50 eV
Ionization: ESI
Precursor m/z: 288.16008
Precursor type: [M+H]+
m/z	relative intensity
77.0374	11
90.0469	38
91.0558	23
103.0537	12
106.0667	11
115.0551	149
116.0622	104
117.0614	230
118.065	13
127.0569	24
128.056	49
129.0698	33
130.065	89
131.0765	15
142.0654	188
143.0729	999
144.08	137
145.0646	40
146.0584	20
152.0596	17
153.0719	14
154.0662	33
155.0713	15
156.0816	242
157.0884	86
158.0957	24
166.0685	14
167.0734	143
168.0826	56
169.0869	13
170.0961	38
171.1057	15
172.1122	20
178.0684	13
179.0724	19
180.0816	281
181.0887	73
182.0953	27
192.0784	15
193.0895	38
194.0965	129
195.1053	26
196.1139	14
198.0904	19
208.1142	30
210.125	12
212.1096	15
214.1183	10
