Mass spectrum: Remifentanil; LC-ESI-QTOF; MS2; CE:20 eV; [M+H]+
Name: Remifentanil
Formula: C20H28N2O5
Exact mass: 376.19982
SMILES: [H]C([H])([H])OC(=O)C([H])([H])C([H])([H])N(C([H])([H])1)C([H])([H])C([H])([H])C(C(=O)OC([H])([H])[H])(N(C(=O)C([H])([H])C([H])([H])[H])c(c([H])2)c([H])c([H])c([H])c([H])2)C([H])([H])1
InChI: InChI=1S/C20H28N2O5/c1-4-17(23)22(16-8-6-5-7-9-16)20(19(25)27-3)11-14-21(15-12-20)13-10-18(24)26-2/h5-9H,4,10-15H2,1-3H3
Instrument: Micromass Q-TOF II
Instrument type: LC-ESI-QTOF
Ms type: MS2
Ion mode: POSITIVE
Collision energy: 20 eV
Ionization: ESI
Precursor m/z: 377.20776
Precursor type: [M+H]+
m/z	relative intensity
113.0599	225
116.0703	201
136.076	27
146.0967	97
158.0966	158
158.9639	23
196.0974	25
202.1226	180
228.1223	922
261.1585	428
274.1422	10
285.1585	536
303.1697	49
317.185	999
321.1813	57
345.1801	240
377.2064	319
