Mass spectrum: Hordenine; LC-ESI-Q; MS; POS; 15 V
Name: Hordenine
Formula: C10H15NO
Exact mass: 165.11536
SMILES: CN(C)CCc(c1)ccc(O)c1
InChI: InChI=1S/C10H15NO/c1-11(2)8-7-9-3-5-10(12)6-4-9/h3-6,12H,7-8H2,1-2H3
Instrument: ZQ, Waters
Instrument type: LC-ESI-Q
Retention time: 2.730 min
Ms type: MS
Ion mode: POSITIVE
Column name: 2.1 mm id - 3. 5{mu}m XTerra C18MS
Ionization: ESI
m/z	relative intensity
121	90
166	999
167	121
168	12
