Mass spectrum: L-Leucine; GC-EI-TOF; MS; 2 TMS; BP:158
Name: L-Leucine
Class: Natural Product
Formula: C6H13NO2
Exact mass: 131.09463
SMILES: CC(C)C[C@H](N)C(O)=O
InChI: InChI=1S/C6H13NO2/c1-4(2)3-5(7)6(8)9/h4-5H,3,7H2,1-2H3,(H,8,9)/t5-/m0/s1
Instrument: Pegasus III TOF-MS system, Leco; GC 6890, Agilent Technologies
Instrument type: GC-EI-TOF
Ms type: MS
Ion mode: POSITIVE
Column name: DB-17MS
Retention time: 564.162 sec
Base peak: 158
Derivative type: 2 TMS
m/z	relative intensity
82	10
83	8
84	35
85	15
86	67
87	17
88	8
89	5
90	1
91	1
94	2
95	2
96	8
97	6
98	12
99	20
100	222
101	47
102	443
103	104
104	22
105	14
106	1
107	1
110	4
111	2
112	7
113	7
114	14
115	68
116	88
117	42
118	11
119	12
120	2
121	1
122	1
123	1
124	1
125	1
126	5
127	2
128	48
129	21
130	80
131	42
132	43
133	80
134	15
135	7
136	1
137	1
138	1
139	1
140	2
141	1
142	36
143	10
144	9
145	3
146	9
147	268
148	43
149	20
150	2
156	5
157	3
158	999
159	210
160	75
161	9
162	1
163	3
170	26
171	9
172	6
173	2
174	13
175	4
176	8
177	8
178	2
184	1
186	3
187	1
188	4
189	1
190	1
202	3
203	6
204	4
205	1
216	2
217	1
218	78
219	19
220	7
221	1
230	1
231	5
232	105
233	35
234	15
235	3
260	36
261	8
262	3
