Mass spectrum: N-Acetylputrescine; GC-EI-TOF; MS; 2 TMS; BP:174
Name: N-Acetylputrescine
Class: Natural Product
Formula: C6H14N2O
Exact mass: 130.11061
SMILES: NCCCCNC(C)=O
InChI: InChI=1S/C6H14N2O/c1-6(9)8-5-3-2-4-7/h2-5,7H2,1H3,(H,8,9)
Instrument: Pegasus III TOF-MS system, Leco; GC 6890, Agilent Technologies
Instrument type: GC-EI-TOF
Ms type: MS
Ion mode: POSITIVE
Column name: DB-17MS
Retention time: 809.062 sec
Base peak: 174
Derivative type: 2 TMS
m/z	relative intensity
82	26
83	14
84	494
85	60
86	488
87	59
88	28
89	6
90	2
92	2
93	1
94	5
95	3
96	24
97	10
98	28
99	55
100	309
101	70
102	189
103	31
104	9
105	3
109	4
110	6
111	4
112	31
113	24
114	55
115	35
116	140
117	92
118	18
119	12
120	2
121	3
122	1
123	1
124	5
125	2
126	29
127	7
128	130
129	56
130	133
131	85
132	38
133	94
134	15
135	7
136	1
138	1
139	2
140	15
141	8
142	154
143	33
144	135
145	31
146	100
147	183
148	36
149	15
150	3
151	1
152	1
153	1
154	2
155	2
156	18
157	9
158	70
159	315
160	51
161	17
162	2
163	1
167	1
168	4
169	4
170	19
171	6
172	124
173	32
174	999
175	183
176	85
177	10
178	2
183	62
184	23
185	12
186	85
187	18
188	10
189	2
190	14
191	3
192	1
198	2
199	1
200	104
201	93
202	31
203	15
204	5
205	1
213	7
214	25
215	6
216	21
217	5
218	3
220	1
230	3
231	1
241	1
242	1
243	11
244	2
245	4
246	1
248	11
249	3
250	1
259	2
273	24
274	6
275	2
330	3
331	51
332	16
333	7
334	1
346	10
347	3
348	1
