Mass spectrum: D-(+)-Mannose; GC-EI-TOF; MS; 5 TMS; BP:147
Name: D-(+)-Mannose
Class: Natural Product
Formula: C6H12O6
Exact mass: 180.06339
SMILES: OCC(O1)C(O)C(O)C(O)C(O)1
InChI: InChI=1S/C6H12O6/c7-1-2-3(8)4(9)5(10)6(11)12-2/h2-11H,1H2/t2-,3-,4+,5+,6?/m1/s1
Instrument: Pegasus III TOF-MS system, Leco; GC 6890, Agilent Technologies
Instrument type: GC-EI-TOF
Ms type: MS
Ion mode: POSITIVE
Column name: DB-17MS
Retention time: 842.162 sec
Base peak: 147
Derivative type: 5 TMS
m/z	relative intensity
82	15
83	47
85	14
86	35
87	25
88	25
89	284
90	24
91	13
95	1
96	4
97	10
98	4
99	18
100	59
101	70
102	45
103	532
104	65
105	145
106	24
107	6
108	3
109	1
110	5
111	11
112	9
113	21
114	57
115	35
116	26
117	348
118	49
119	43
120	3
121	2
125	2
126	4
127	17
128	17
129	369
130	87
131	101
132	14
133	207
134	33
135	24
136	3
138	2
139	1
140	4
141	11
142	13
143	51
144	10
145	15
146	10
147	999
148	186
149	120
150	17
151	6
152	2
153	2
155	5
156	4
157	248
158	55
159	21
160	533
161	117
162	32
163	36
164	5
165	3
167	1
168	5
169	10
170	2
171	1
172	8
173	14
174	10
175	20
176	4
177	11
178	3
179	3
180	3
181	1
182	1
183	1
185	4
186	8
187	1
188	4
189	71
190	16
191	39
192	8
193	6
194	3
195	1
196	1
197	1
198	2
199	1
200	6
202	3
203	12
204	75
205	591
206	127
207	69
208	12
209	2
210	10
211	2
212	1
214	2
215	11
216	33
217	281
218	69
219	42
220	5
221	14
222	3
223	3
224	2
227	1
228	4
229	81
230	31
231	38
232	18
233	20
234	16
235	5
236	2
240	5
241	3
242	2
243	4
244	11
245	6
246	9
247	6
248	1
249	1
250	1
251	2
253	1
254	1
256	6
257	2
259	3
260	2
261	1
262	12
263	4
264	1
265	4
266	1
267	1
268	2
269	11
270	5
272	1
274	17
275	5
276	3
277	17
278	6
279	3
281	1
284	1
286	1
290	2
291	24
292	8
293	5
294	1
300	5
301	2
302	1
303	1
304	2
305	15
306	9
307	14
308	4
309	2
310	1
317	1
318	8
319	358
320	145
321	73
322	18
323	2
328	1
330	3
331	1
332	1
333	1
334	1
335	1
336	1
340	1
343	4
344	1
346	1
358	3
364	5
365	7
366	1
375	1
376	1
433	1
434	1
464	2
465	1
466	1
467	1
