Mass spectrum: Malonic acid; GC-EI-TOF; MS; 2 TMS; BP:147
Name: Malonic acid
Class: Natural Product
Formula: C3H4O4
Exact mass: 104.01096
SMILES: OC(=O)CC(O)=O
InChI: InChI=1S/C3H4O4/c4-2(5)1-3(6)7/h1H2,(H,4,5)(H,6,7)
Instrument: Pegasus III TOF-MS system, Leco; GC 6890, Agilent Technologies
Instrument type: GC-EI-TOF
Ms type: MS
Ion mode: POSITIVE
Column name: DB-17MS
Retention time: 568.813 sec
Base peak: 147
Derivative type: 2 TMS
m/z	relative intensity
83	1
84	2
85	6
86	2
87	31
88	16
89	10
90	2
91	2
92	1
93	6
95	2
98	2
99	118
100	12
101	42
102	11
103	23
104	4
105	13
106	1
107	1
109	25
110	2
113	4
114	1
115	27
116	15
117	33
118	5
119	7
131	43
132	7
133	55
134	7
135	4
143	32
144	3
145	2
146	1
147	999
148	169
149	93
150	10
151	2
158	1
159	2
162	2
173	7
174	1
189	11
190	2
191	2
204	3
217	11
218	2
219	1
233	107
234	21
235	9
236	1
248	13
249	2
250	1
