Mass spectrum: D-(+)-Glucosamine; GC-EI-TOF; MS; 6 TMS; BP:159
Name: D-(+)-Glucosamine
Class: Natural Product
Formula: C6H13NO5
Exact mass: 179.07937
SMILES: OCC(O1)C(O)C(O)C(N)C(O)1
InChI: InChI=1S/C6H13NO5/c7-3-5(10)4(9)2(1-8)12-6(3)11/h2-6,8-11H,1,7H2/t2-,3-,4-,5-,6-/m1/s1
Instrument: Pegasus III TOF-MS system, Leco; GC 6890, Agilent Technologies
Instrument type: GC-EI-TOF
Ms type: MS
Ion mode: POSITIVE
Column name: DB-17MS
Retention time: 871.879 sec
Base peak: 159
Derivative type: 6 TMS
m/z	relative intensity
82	6
83	30
84	51
85	14
86	34
87	18
88	13
89	294
90	28
91	12
92	1
93	2
94	1
95	1
96	4
97	4
98	7
99	16
100	60
101	68
102	33
103	236
104	26
105	21
106	3
107	1
109	1
110	3
111	6
112	6
113	42
114	10
115	15
116	17
117	180
118	22
119	16
120	2
121	1
124	1
125	3
126	6
127	18
128	33
129	245
130	46
132	13
133	78
134	12
135	7
136	1
137	3
138	1
139	2
140	4
141	21
142	20
143	31
144	30
145	9
146	9
147	545
148	89
149	51
150	6
151	3
152	3
153	4
154	4
155	3
156	4
157	139
158	24
159	999
160	130
161	44
162	5
163	9
164	2
165	2
166	1
167	2
168	15
169	5
170	3
171	6
172	9
173	7
174	3
175	6
176	2
177	3
178	1
179	2
180	1
181	1
182	1
183	1
184	1
185	5
186	4
187	3
188	6
189	29
190	12
191	11
192	2
193	1
195	3
196	1
197	1
198	1
199	3
200	7
201	27
202	9
203	27
204	51
205	380
206	75
207	35
208	5
209	2
212	1
213	4
214	8
215	12
216	25
217	122
218	28
219	12
220	2
221	7
222	2
223	1
226	1
227	7
228	4
229	52
230	16
231	13
232	25
233	8
234	3
235	1
239	1
240	6
241	4
242	6
243	8
244	8
245	3
246	1
247	1
253	1
255	2
256	1
257	1
258	4
259	1
260	1
261	7
262	2
263	1
267	3
268	2
269	1
270	1
273	25
274	6
275	2
277	7
278	3
279	1
285	1
287	1
288	1
289	1
290	3
291	11
292	3
293	1
301	1
302	1
303	6
304	15
305	11
306	5
307	6
308	1
314	1
316	3
317	2
318	11
319	212
320	64
321	31
322	6
323	1
329	1
330	2
331	1
332	3
333	1
334	1
335	1
342	1
343	1
357	3
358	1
359	1
375	1
420	1
447	4
448	2
449	1
463	2
464	1
