Mass spectrum: 5-Aminolevulinic acid; GC-EI-TOF; MS; 3 TMS; BP:174
Name: 5-Aminolevulinic acid
Class: Natural Product
Formula: C5H9NO3
Exact mass: 131.05824
SMILES: NCC(=O)CCC(O)=O
InChI: InChI=1S/C5H9NO3/c6-3-4(7)1-2-5(8)9/h1-3,6H2,(H,8,9)
Instrument: Pegasus III TOF-MS system, Leco; GC 6890, Agilent Technologies
Instrument type: GC-EI-TOF
Ms type: MS
Ion mode: POSITIVE
Column name: DB-17MS
Retention time: 861.313 sec
Base peak: 174
Derivative type: 3 TMS
m/z	relative intensity
82	13
83	5
84	45
85	20
86	710
87	72
88	33
89	264
90	23
91	12
92	1
93	3
94	2
95	3
96	1
97	2
98	7
99	11
100	280
101	68
102	87
103	19
104	5
105	4
106	1
109	1
110	3
111	4
112	10
113	12
114	13
115	12
116	31
117	42
118	9
119	5
120	1
124	1
125	4
126	10
127	4
128	15
129	67
130	68
131	26
132	11
133	23
134	4
135	2
139	3
140	9
141	3
142	4
143	6
144	15
145	4
146	25
147	45
148	9
149	5
150	1
151	1
152	2
153	2
154	3
155	2
156	83
157	12
158	17
159	4
160	48
161	9
162	4
163	2
166	1
167	9
168	3
169	1
170	2
171	2
172	32
173	8
174	999
175	195
176	87
177	10
178	2
181	1
182	1
183	13
184	3
185	3
186	2
187	1
188	2
189	1
190	94
191	22
192	9
193	1
197	2
198	2
199	8
200	4
201	1
202	1
204	1
212	2
213	4
214	2
215	1
217	1
227	2
228	3
229	1
230	1
231	2
239	3
240	2
241	5
242	2
243	1
244	5
245	1
246	6
247	1
248	1
255	5
256	2
257	3
258	1
287	1
329	2
330	3
331	2
332	1
344	5
345	60
346	21
347	9
348	2
360	1
361	10
362	3
363	1
