Mass spectrum: Amantadine; GC-EI-TOF; MS; 1 TMS; BP:166
Name: Amantadine
Class: Natural Product
Formula: C10H17N
Exact mass: 151.13610
SMILES: NC(C3)(C1)CC(C2)CC(CC23)1
InChI: InChI=1S/C10H17N/c11-10-4-7-1-8(5-10)3-9(2-7)6-10/h7-9H,1-6,11H2
Instrument: Pegasus III TOF-MS system, Leco; GC 6890, Agilent Technologies
Instrument type: GC-EI-TOF
Ms type: MS
Ion mode: POSITIVE
Column name: DB-17MS
Retention time: 735.262 sec
Base peak: 166
Derivative type: 1 TMS
m/z	relative intensity
82	13
83	14
84	17
85	14
86	9
87	2
88	5
89	2
90	2
91	77
92	16
93	78
94	113
95	24
96	9
97	9
98	23
99	8
100	18
101	3
102	4
103	3
104	5
105	11
106	8
107	18
108	17
109	8
110	13
111	4
112	8
113	10
114	67
115	16
116	4
117	2
118	1
119	3
120	7
121	3
122	3
123	4
124	8
125	4
126	10
127	2
128	6
129	144
130	22
131	7
132	3
133	3
134	10
135	22
136	11
137	2
138	4
139	3
140	5
141	2
142	2
143	1
146	2
147	1
148	9
149	5
150	221
151	49
152	23
153	7
154	7
155	2
156	1
157	1
158	1
159	1
160	1
161	1
162	2
163	1
164	14
165	7
166	999
167	185
168	46
169	5
178	1
179	2
180	48
181	12
182	7
183	1
192	1
194	1
206	2
207	1
208	135
209	26
210	7
222	6
223	151
224	30
225	7
