Mass spectrum: Spermidine; GC-EI-TOF; MS; 5 TMS; BP:73
Name: Spermidine
Class: Natural Product
Formula: C7H19N3
Exact mass: 145.15790
SMILES: NCCCCNCCCN
InChI: InChI=1S/C7H19N3/c8-4-1-2-6-10-7-3-5-9/h10H,1-9H2
Instrument: Pegasus III TOF-MS system, Leco; GC 6890, Agilent Technologies
Instrument type: GC-EI-TOF
Ms type: MS
Ion mode: POSITIVE
Column name: DB-17MS
Retention time: 1919.82 sec
Base peak: 73
Derivative type: 5 TMS
m/z	relative intensity
42	5
43	9
44	4
45	92
46	4
55	18
56	2
57	2
58	6
59	144
60	8
61	3
70	5
71	6
73	999
74	44
75	8
82	2
84	19
85	6
86	159
87	22
88	8
89	1
98	2
99	18
100	50
101	19
102	26
103	3
104	1
110	1
112	3
113	2
114	26
115	47
116	312
117	42
118	13
119	1
124	1
126	10
127	2
128	21
129	13
130	22
131	7
132	2
140	9
141	5
142	59
144	259
145	79
146	22
154	25
155	1
156	215
157	102
158	17
160	29
161	6
168	5
169	1
170	128
171	20
172	53
173	18
174	486
175	93
176	42
182	3
183	36
184	14
185	7
186	58
187	17
188	13
189	3
190	1
198	5
199	2
200	8
201	142
202	33
203	13
204	2
209	1
212	4
213	4
214	143
215	37
216	23
217	5
218	4
219	1
220	1
225	1
226	3
227	5
228	5
229	8
230	4
231	2
232	2
233	1
234	1
238	1
239	1
240	1
241	5
242	3
243	8
244	4
245	3
246	1
247	1
252	1
253	1
254	1
255	4
256	1
259	4
260	2
261	1
269	1
270	1
271	1
273	3
274	1
275	1
287	1
301	2
302	1
303	51
304	16
305	7
306	1
315	7
316	3
317	43
318	13
319	5
320	1
329	3
330	1
331	4
332	1
343	6
344	61
345	20
346	9
347	2
489	6
490	58
491	28
492	14
493	4
494	1
