Mass spectrum: Fumaric acid; GC-EI-TOF; MS; 2 TMS; BP:245
Name: Fumaric acid
Name: trans-Butenedioic acid
Class: Natural Product
Formula: C4H4O4
Exact mass: 116.01096
SMILES: C(=C/C(=O)O)\C(=O)O
InChI: InChI=1S/C4H4O4/c5-3(6)1-2-4(7)8/h1-2H,(H,5,6)(H,7,8)/b2-1+
Instrument: Pegasus III TOF-MS system, Leco; GC 6890, Agilent Technologies
Instrument type: GC-EI-TOF
Ms type: MS
Ion mode: POSITIVE
Column name: DB-17MS
Retention time: 637.491 sec
Base peak: 245
Derivative type: 2 TMS
m/z	relative intensity
82	20
83	220
84	91
85	39
86	6
87	9
88	1
89	11
90	1
91	1
93	4
95	2
97	9
98	21
99	21
100	4
101	5
102	3
103	17
104	3
105	7
111	4
112	1
113	26
114	3
115	84
116	10
117	22
118	4
119	10
120	1
121	1
126	14
127	35
128	16
129	8
130	1
131	20
132	8
133	105
134	16
135	11
136	1
141	4
142	8
143	232
144	31
145	15
146	2
147	862
148	132
149	106
150	13
151	6
155	66
156	11
157	35
158	6
159	7
160	1
161	1
170	10
171	14
172	2
173	8
174	1
175	1
185	1
201	6
202	2
203	1
215	4
216	1
217	28
218	10
219	4
220	1
230	1
242	3
243	1
244	4
245	999
246	192
247	82
248	11
249	2
