Mass spectrum: D-(-)-Ribose; GC-EI-TOF; MS; 4 TMS; BP:103
Name: D-(-)-Ribose
Class: Natural Product
Formula: C5H10O5
Exact mass: 150.05282
SMILES: OC[C@@H](O1)[C@@H](O)[C@@H](O)C(O)1
InChI: InChI=1S/C5H10O5/c6-1-2-3(7)4(8)5(9)10-2/h2-9H,1H2/t2-,3-,4-,5?/m1/s1
Instrument: Pegasus III TOF-MS system, Leco; GC 6890, Agilent Technologies
Instrument type: GC-EI-TOF
Ms type: MS
Ion mode: POSITIVE
Column name: DB-17MS
Retention time: 757.712 sec
Base peak: 103
Derivative type: 4 TMS
m/z	relative intensity
82	1
83	1
85	3
87	5
88	6
89	190
90	14
91	7
94	1
99	4
100	49
101	23
102	19
103	999
104	85
105	29
106	2
111	3
113	4
115	3
116	8
117	79
118	10
119	17
120	2
121	1
126	3
127	3
129	118
130	23
131	47
132	7
133	120
134	16
135	8
136	1
143	13
144	1
145	5
146	2
147	302
148	54
149	24
150	3
157	11
159	3
160	50
161	24
162	4
163	12
164	2
173	4
174	10
175	7
176	2
177	6
178	1
179	1
188	4
189	103
190	15
191	26
192	4
193	2
203	7
205	34
206	6
207	5
214	5
215	1
217	350
218	55
219	30
220	5
221	7
222	2
223	1
229	1
231	3
232	4
233	44
234	10
235	6
236	1
240	3
248	2
261	1
262	10
263	2
274	1
277	37
278	11
279	7
280	1
291	2
292	1
307	109
308	32
309	17
310	3
319	1
320	1
