Mass spectrum: alpha-Methyl-DL-serine; GC-EI-TOF; MS; 3 TMS; BP:114
Name: alpha-Methyl-DL-serine
Class: Natural Product
Formula: C4H9NO3
Exact mass: 119.05824
SMILES: OC[C@@](C)(N)C(O)=O
InChI: InChI=1S/C4H9NO3/c1-4(5,2-6)3(7)8/h6H,2,5H2,1H3,(H,7,8)/t4-/m1/s1
Instrument: Pegasus III TOF-MS system, Leco; GC 6890, Agilent Technologies
Instrument type: GC-EI-TOF
Ms type: MS
Ion mode: POSITIVE
Column name: DB-17MS
Retention time: 624.063 sec
Base peak: 114
Derivative type: 3 TMS
m/z	relative intensity
82	48
83	47
84	112
85	71
86	52
87	137
88	93
89	83
90	52
91	45
92	59
93	35
94	52
95	54
96	59
97	72
98	74
99	77
100	155
101	62
102	61
103	144
104	63
105	58
106	39
107	43
108	41
109	27
110	44
111	48
112	60
113	59
114	999
115	274
116	126
117	106
118	66
119	48
120	43
121	46
122	46
123	51
124	53
125	38
126	44
127	50
128	415
129	114
130	252
131	170
132	132
133	225
134	70
135	70
136	49
137	35
138	47
139	29
140	31
141	39
142	56
143	36
144	89
145	54
146	105
147	604
148	126
149	104
150	47
151	46
152	50
153	39
154	31
155	52
156	52
157	47
158	59
159	47
160	100
161	58
162	52
163	50
164	50
165	50
166	58
167	43
168	56
169	42
170	45
171	45
172	37
173	61
174	84
175	70
176	53
177	60
178	48
179	38
180	49
181	47
182	51
183	43
184	13
185	51
186	48
187	43
188	62
189	63
190	55
191	70
192	41
193	48
194	42
195	38
196	50
197	40
198	55
199	52
200	36
201	33
202	141
203	49
204	59
205	44
206	49
207	37
208	29
209	35
210	46
211	51
212	37
213	39
214	36
215	39
216	43
217	51
218	762
219	189
220	91
221	49
222	38
223	34
224	46
225	44
226	35
227	47
228	38
229	45
230	93
231	66
232	881
233	197
234	102
235	49
236	43
237	40
238	45
239	32
240	29
241	30
242	32
243	29
244	27
245	30
246	32
247	37
248	35
249	43
250	30
251	33
252	30
253	37
254	36
255	28
256	26
257	35
258	37
259	37
260	40
261	41
262	33
263	16
264	36
265	38
266	22
267	34
268	22
269	27
270	38
271	28
272	33
273	28
274	32
275	33
276	25
277	33
278	23
279	34
280	38
281	44
282	37
283	26
284	32
285	36
286	30
287	41
288	30
289	37
290	38
291	38
292	81
293	50
294	39
295	37
296	34
297	28
298	34
299	25
300	32
301	29
302	47
303	23
304	33
305	36
306	33
307	22
308	27
309	21
310	36
311	27
312	36
313	36
314	27
315	34
316	32
317	31
318	23
319	31
320	53
321	51
322	21
323	31
324	29
325	27
326	40
327	32
328	26
329	28
330	32
331	37
332	27
333	31
334	41
335	37
336	51
337	30
338	30
339	39
340	34
341	26
342	36
343	39
344	37
345	39
346	26
347	25
348	23
349	35
350	32
351	32
352	37
353	23
354	19
355	34
356	26
357	38
358	35
359	32
360	29
361	37
362	31
363	39
364	37
365	38
366	33
367	36
368	30
369	36
370	41
371	44
372	20
373	35
374	24
375	23
376	27
377	38
378	30
379	29
380	26
381	32
382	31
383	39
384	32
385	36
386	29
387	34
388	40
389	33
390	34
391	43
392	38
393	35
394	39
395	38
396	32
397	38
398	37
399	48
400	41
401	19
402	25
403	9
404	14
405	13
406	19
407	17
408	24
409	26
410	21
411	15
412	21
413	18
414	24
415	33
416	21
417	21
418	8
419	25
420	14
421	23
422	22
423	27
424	20
425	18
426	19
427	21
428	19
429	20
430	16
431	22
432	24
433	18
434	24
435	14
436	25
437	14
438	23
439	10
440	14
441	27
442	21
443	18
444	34
445	23
446	18
447	16
448	25
449	31
450	28
451	20
452	27
453	3
454	13
455	26
456	18
457	21
458	9
459	25
460	23
461	24
462	17
463	23
464	28
465	22
466	21
467	26
468	30
469	29
470	9
471	27
472	28
473	31
474	22
475	20
476	22
477	15
478	26
479	14
480	27
481	37
482	22
483	18
484	25
485	25
486	17
487	24
488	21
489	20
490	25
491	24
492	18
493	20
494	26
495	18
496	23
497	24
498	26
499	25
500	21
