Mass spectrum: Indole-3-carboxyaldehyde; GC-EI-TOF; MS; 1 TMS; BP:246
Name: Indole-3-carboxyaldehyde
Class: Natural Product
Formula: C9H7NO
Exact mass: 145.05276
SMILES: C1=CC=C2C(=C1)C(=CN2)C=O
InChI: InChI=1S/C9H7NO/c11-6-7-5-10-9-4-2-1-3-8(7)9/h1-6,10H
Instrument: Pegasus III TOF-MS system, Leco; GC 6890, Agilent Technologies
Instrument type: GC-EI-TOF
Ms type: MS
Ion mode: POSITIVE
Column name: DB-17MS
Retention time: 1022.46 sec
Base peak: 246
Derivative type: 1 TMS
m/z	relative intensity
82	3
83	17
84	83
85	19
86	31
87	67
88	163
89	397
90	58
91	84
92	22
93	17
94	8
95	4
96	2
97	1
98	6
99	8
100	17
101	105
102	57
103	134
104	48
105	55
106	10
107	7
108	3
109	1
110	1
111	2
112	3
113	10
114	204
115	409
116	177
117	81
118	24
119	23
120	9
121	3
122	1
123	2
126	2
127	12
128	79
129	48
130	193
131	66
132	46
133	20
134	14
135	4
136	1
139	1
140	6
141	58
142	206
143	145
144	76
145	50
146	80
147	23
148	8
149	2
150	1
153	1
154	8
155	16
156	56
157	23
158	58
159	19
160	32
161	8
162	8
163	2
164	1
167	2
168	6
169	24
170	41
171	33
172	51
173	64
174	42
175	7
176	5
177	1
181	8
182	8
183	6
184	21
185	22
186	66
187	29
188	88
189	78
190	15
191	3
195	6
196	2
197	10
198	5
199	63
200	20
201	12
202	5
203	4
204	108
205	22
206	6
207	1
209	1
211	2
212	2
213	24
214	162
215	470
216	144
217	33
218	6
219	8
220	3
221	1
227	1
228	1
229	1
230	2
231	4
232	2
233	1
234	1
235	1
236	1
237	1
238	1
244	1
245	18
246	999
247	198
248	51
249	5
