Mass spectrum: Ketoisoleucine; GC-EI-TOF; MS; 3 TMS; BP:89
Name: 3-Methyl-2-oxovaleric acid
Name: Ketoisoleucine
Class: Natural Product
Formula: C6H10O3
Exact mass: 130.06299
SMILES: CCC(C)C(=O)C(O)=O
InChI: InChI=1S/C6H10O3/c1-3-4(2)5(7)6(8)9/h4H,3H2,1-2H3,(H,8,9)
Instrument: Pegasus III TOF-MS system, Leco; GC 6890, Agilent Technologies
Instrument type: GC-EI-TOF
Ms type: MS
Ion mode: POSITIVE
Column name: DB-17MS
Retention time: 562.928 sec
Base peak: 89
Derivative type: 3 TMS
m/z	relative intensity
82	217
83	64
84	164
85	179
86	52
87	11
88	10
89	999
90	92
91	52
92	4
93	5
94	8
95	4
96	4
97	9
98	36
99	53
100	54
101	9
102	4
103	12
104	3
105	12
106	1
107	1
108	1
109	1
110	136
111	13
112	19
113	222
114	179
115	32
116	60
117	36
118	8
119	2
124	1
125	1
126	22
127	13
128	26
129	18
130	6
131	2
133	1
140	22
141	9
142	8
143	7
144	6
145	3
146	1
147	2
154	7
155	2
156	34
157	6
158	12
159	2
160	2
166	1
170	1
171	1
172	113
173	18
174	7
175	1
182	1
183	1
184	5
185	1
186	1
187	1
189	194
190	25
191	9
192	1
200	172
201	28
202	9
203	88
204	13
205	4
216	23
217	3
218	1
