Mass spectrum: L-Tyrosine; GC-EI-TOF; MS; 3 TMS; BP:73
Name: L-Tyrosine
Class: Natural Product
Formula: C9H11NO3
Exact mass: 181.07389
SMILES: OC(=O)C(N)Cc(c1)ccc(O)c1
InChI: InChI=1S/C9H11NO3/c10-8(9(12)13)5-6-1-3-7(11)4-2-6/h1-4,8,11H,5,10H2,(H,12,13)/t8-/m0/s1
Instrument: Pegasus III TOF-MS system, Leco; GC 6890, Agilent Technologies
Instrument type: GC-EI-TOF
Ms type: MS
Ion mode: POSITIVE
Column name: DB-17MS
Retention time: 1769.32 sec
Base peak: 73
Derivative type: 3 TMS
m/z	relative intensity
36	1
37	1
38	1
39	5
40	2
41	3
42	11
43	70
44	63
45	255
46	17
47	33
48	3
49	5
50	2
51	4
52	4
53	5
54	2
55	10
56	5
57	9
58	17
59	38
60	6
61	10
62	3
63	5
64	1
65	5
66	4
67	3
68	3
69	2
70	5
71	5
72	19
73	999
74	96
75	106
76	8
77	35
78	4
79	3
80	1
82	4
83	2
84	5
85	3
86	10
87	4
88	1
89	9
90	6
91	16
92	2
93	2
95	2
96	2
97	1
98	2
99	2
100	161
101	22
102	10
103	11
104	2
105	10
106	2
107	2
108	1
109	1
110	1
111	1
115	7
116	3
117	9
118	6
119	5
120	1
121	4
122	2
123	1
126	1
128	2
129	1
130	15
131	12
132	17
133	20
134	5
135	7
136	1
137	1
139	1
141	1
143	1
144	3
145	3
146	4
147	80
148	13
149	15
150	3
151	3
152	1
155	1
156	1
158	2
159	3
160	5
161	4
162	2
163	13
164	4
165	6
166	2
170	1
172	1
174	4
175	5
176	4
177	6
178	2
179	38
180	10
181	2
182	1
185	1
186	1
188	1
190	4
191	1
192	10
193	4
196	1
199	1
203	3
204	1
205	1
207	7
208	2
209	2
211	1
214	1
216	2
217	5
218	618
219	119
220	51
221	7
222	2
223	2
224	1
227	2
233	1
236	1
245	1
246	1
248	2
250	1
259	1
262	1
263	1
264	1
265	6
266	2
273	1
276	1
278	1
279	5
280	44
281	12
282	4
283	2
284	1
292	1
294	1
298	1
301	1
303	1
310	1
316	1
324	1
327	1
329	1
330	1
332	1
339	1
340	1
344	1
353	2
354	9
355	6
356	4
357	2
358	1
360	1
362	1
368	1
369	1
370	1
380	1
382	5
383	2
384	1
398	1
499	1
512	1
521	2
540	1
561	1
633	1
751	1
798	1
855	1
890	1
913	1
915	1
