Mass spectrum: Caffeine; GC-EI-TOF; MS; 0 TMS; BP:109
Name: Caffeine
Class: Natural Product
Formula: C8H10N4O2
Exact mass: 194.08038
SMILES: Cn(c2)c(C(=O)1)c(n2)N(C)C(=O)N(C)1
InChI: InChI=1S/C8H10N4O2/c1-10-4-9-6-5(10)7(13)12(3)8(14)11(6)2/h4H,1-3H3
Instrument: Pegasus III TOF-MS system, Leco; GC 6890, Agilent Technologies
Instrument type: GC-EI-TOF
Ms type: MS
Ion mode: POSITIVE
Column name: DB-17MS
Retention time: 1063.86 sec
Base peak: 109
Derivative type: 0 TMS
m/z	relative intensity
82	763
83	82
84	5
91	1
92	5
93	17
94	83
95	26
96	13
97	29
98	1
106	3
107	12
108	77
109	999
110	130
111	21
112	1
120	5
121	4
122	21
123	9
124	11
125	1
132	1
133	1
134	2
135	7
136	63
137	85
138	32
139	3
140	1
147	1
148	1
149	8
150	14
151	4
152	7
163	2
164	5
165	61
166	13
167	1
179	2
192	1
193	190
194	895
195	89
196	7
