Mass spectrum: D-(+)-Maltose; GC-EI-TOF; MS; 8 TMS; BP:147
Name: D-(+)-Maltose
Class: Natural Product
Formula: C12H22O11
Exact mass: 342.11621
SMILES: OC[C@@H](O1)[C@@H](O)[C@H](O)[C@@H](O)[C@H]1O[C@H]([C@@H](CO)2)[C@H](O)[C@@H](O)C(O)O2
InChI: InChI=1S/C12H22O11/c13-1-3-5(15)6(16)9(19)12(22-3)23-10-4(2-14)21-11(20)8(18)7(10)17/h3-20H,1-2H2/t3-,4-,5-,6+,7-,8-,9-,10-,11?,12-/m1/s1
Instrument: Pegasus III TOF-MS system, Leco; GC 6890, Agilent Technologies
Instrument type: GC-EI-TOF
Ms type: MS
Ion mode: POSITIVE
Column name: DB-17MS
Retention time: 1139.06 sec
Base peak: 147
Derivative type: 8 TMS
m/z	relative intensity
82	9
83	13
85	18
86	7
87	18
88	14
89	225
90	20
91	12
93	1
94	2
95	3
96	2
97	26
98	5
99	18
100	50
101	65
102	35
103	799
104	83
105	66
106	10
107	3
108	1
109	18
110	4
111	14
112	4
113	24
114	13
115	23
116	31
117	305
118	39
119	33
120	4
121	2
122	1
123	2
124	1
125	4
126	5
127	17
128	8
129	330
130	60
131	91
132	17
133	165
134	24
135	16
136	2
137	2
138	2
139	8
140	4
141	14
142	18
143	80
144	14
145	28
146	7
147	999
148	171
149	115
150	15
151	8
152	4
153	13
154	7
155	50
156	11
157	72
158	15
159	20
160	134
161	36
162	9
163	32
164	6
165	4
166	2
167	5
168	6
169	222
170	37
171	22
172	9
173	22
174	9
175	14
176	3
177	14
178	6
179	3
180	4
181	5
182	2
183	12
184	3
185	6
186	10
187	8
188	5
189	88
190	25
191	139
192	28
193	15
194	2
195	3
196	5
197	3
198	4
199	9
200	5
201	13
202	8
203	48
204	983
205	392
206	137
207	48
208	8
209	3
210	8
211	4
212	2
213	2
214	5
215	18
216	11
217	581
218	147
219	72
220	15
221	33
222	8
223	6
224	1
225	1
226	1
227	8
228	6
229	47
230	27
231	57
232	18
233	51
234	14
235	22
236	5
237	3
238	1
239	2
240	3
241	12
242	9
243	113
244	36
245	34
246	15
247	20
248	5
249	4
250	1
251	1
252	1
253	1
254	2
255	6
256	5
257	13
258	5
259	18
260	7
261	6
262	5
263	3
264	2
265	7
266	2
267	2
268	13
269	9
270	9
271	112
272	31
273	27
274	12
275	8
276	4
277	3
278	3
279	2
280	1
281	1
283	1
284	1
285	1
286	2
287	2
288	2
289	3
290	2
291	17
292	6
293	4
294	1
295	1
296	1
297	1
298	1
299	1
300	22
301	7
302	4
303	3
304	7
305	25
306	11
307	12
308	4
309	2
310	1
312	1
313	1
314	1
315	1
316	2
317	10
318	12
319	101
320	41
321	21
322	6
323	2
328	1
329	1
330	3
331	29
332	24
333	13
334	5
335	2
336	1
337	1
338	1
342	1
343	1
344	2
345	9
346	5
347	5
348	2
349	1
350	1
357	1
358	2
359	6
360	32
361	864
362	299
363	141
364	34
365	10
366	2
373	4
374	3
375	1
376	4
377	1
378	1
379	1
389	1
390	14
391	5
392	3
393	2
405	1
409	2
410	1
421	1
422	1
427	1
433	1
435	2
436	1
448	1
449	1
450	4
451	13
452	6
453	3
454	1
463	3
464	2
465	1
478	1
479	1
480	2
481	1
