Mass spectrum: 6-Aminohexanoic acid; GC-EI-TOF; MS; 3 TMS; BP:174
Name: 6-Aminocaproic acid
Name: 6-Aminohexanoic acid
Class: Natural Product
Formula: C6H13NO2
Exact mass: 131.09463
SMILES: NCCCCCC(O)=O
InChI: InChI=1S/C6H13NO2/c7-5-3-1-2-4-6(8)9/h1-5,7H2,(H,8,9)
Instrument: Pegasus III TOF-MS system, Leco; GC 6890, Agilent Technologies
Instrument type: GC-EI-TOF
Ms type: MS
Ion mode: POSITIVE
Column name: DB-17MS
Retention time: 808.562 sec
Base peak: 174
Derivative type: 3 TMS
m/z	relative intensity
82	7
83	8
84	18
85	38
86	500
87	60
88	30
89	10
90	2
91	1
92	1
93	3
94	12
95	9
96	481
97	45
98	16
99	28
100	266
101	53
102	62
103	22
104	5
105	4
106	1
108	1
109	1
110	5
111	4
112	19
113	19
114	21
115	25
116	39
117	52
118	11
119	12
120	1
121	1
122	3
123	1
124	2
125	3
126	13
127	4
128	13
129	134
130	113
131	86
132	27
133	79
134	12
135	7
136	1
138	3
139	1
140	34
141	10
142	15
143	8
144	13
145	5
146	46
147	237
148	42
149	30
150	4
151	2
152	4
153	1
154	3
155	1
156	4
157	4
158	14
159	7
160	6
161	2
162	4
163	1
166	1
168	21
169	5
170	17
171	11
172	19
173	5
174	999
175	194
176	91
177	11
178	2
182	1
184	9
185	2
186	3
187	1
188	2
189	1
190	1
198	1
200	12
201	3
202	2
204	1
205	1
212	2
213	1
214	2
215	1
216	3
217	1
218	1
221	3
230	1
240	1
242	27
243	7
244	4
245	1
246	2
248	1
258	6
259	1
260	1
274	3
275	1
331	2
332	47
333	16
334	7
335	1
347	1
