Mass spectrum: 5-Methylcytosine; GC-EI-TOF; MS; 2 TMS; BP:254
Name: 5-Methylcytosine
Class: Natural Product
Formula: C5H7N3O
Exact mass: 125.05891
SMILES: CC(=C1)C(N)=NC(=O)N1
InChI: InChI=1S/C5H7N3O/c1-3-2-7-5(9)8-4(3)6/h2H,1H3,(H3,6,7,8,9)
Instrument: Pegasus III TOF-MS system, Leco; GC 6890, Agilent Technologies
Instrument type: GC-EI-TOF
Ms type: MS
Ion mode: POSITIVE
Column name: DB-17MS
Retention time: 805.413 sec
Base peak: 254
Derivative type: 2 TMS
m/z	relative intensity
82	15
83	14
84	71
85	35
86	60
87	8
88	5
89	1
90	1
93	1
94	1
95	6
96	17
97	12
98	26
99	21
100	145
101	16
102	9
103	4
104	1
105	4
106	3
107	2
108	4
109	11
110	20
111	24
112	239
113	37
114	17
115	11
116	16
117	11
118	3
119	6
120	29
121	3
122	1
123	9
124	6
125	6
126	21
127	12
128	12
129	3
130	51
131	36
132	18
133	28
134	7
135	3
136	1
137	15
138	20
139	120
140	17
141	13
142	7
143	6
144	4
145	1
146	90
147	292
148	48
149	20
150	5
151	3
152	5
153	20
154	7
155	4
156	3
157	19
158	12
159	2
164	35
165	5
166	10
167	3
168	3
169	5
170	5
171	4
172	6
173	1
178	2
179	1
180	7
181	13
182	41
183	8
184	186
185	37
186	14
187	2
194	2
195	2
196	35
197	9
198	6
199	2
200	1
208	1
209	1
210	1
211	26
212	7
213	3
214	1
222	1
223	1
224	7
225	7
226	3
227	18
228	4
229	1
237	2
238	134
239	49
240	13
241	2
245	1
246	1
247	1
248	1
249	1
250	1
252	5
253	16
254	999
255	233
256	96
257	15
258	3
259	1
260	1
261	2
262	2
263	1
264	1
265	1
267	1
268	31
269	258
270	62
271	24
272	3
