Mass spectrum: Isoguvacine; GC-EI-TOF; MS; 2 TMS; BP:154
Name: Isoguvacine
Class: Natural Product
Formula: C6H9NO2
Exact mass: 127.06333
SMILES: OC(=O)C(C1)N=CCC1
InChI: InChI=1S/C6H9NO2/c8-6(9)5-3-1-2-4-7-5/h4-5H,1-3H2,(H,8,9)
Instrument: Pegasus III TOF-MS system, Leco; GC 6890, Agilent Technologies
Instrument type: GC-EI-TOF
Ms type: MS
Ion mode: POSITIVE
Column name: DB-17MS
Retention time: 757.963 sec
Base peak: 154
Derivative type: 2 TMS
m/z	relative intensity
82	81
83	29
84	16
85	22
86	205
87	21
88	8
89	1
90	1
91	1
92	4
93	3
94	6
95	8
96	5
97	13
98	4
99	3
100	22
101	76
102	10
103	11
104	1
105	2
106	17
107	6
108	21
109	21
110	6
111	23
112	7
113	4
114	1
115	2
116	2
117	6
118	1
119	3
120	2
121	6
122	3
123	1
124	4
125	1
126	2
127	1
128	2
129	1
131	7
132	2
133	16
134	2
135	1
136	8
137	2
138	15
139	6
140	3
141	1
143	1
147	92
148	16
149	9
150	3
151	3
152	90
153	48
154	999
155	157
156	42
157	5
158	1
166	3
167	1
168	1
169	1
170	1
180	24
181	32
182	49
183	11
184	6
185	1
196	1
197	1
198	2
199	2
211	3
212	1
226	1
228	3
229	1
243	3
255	8
256	62
257	14
258	5
268	1
270	7
271	42
272	10
273	3
