Mass spectrum: 3-Indoleacetonitrile; GC-EI-TOF; MS; 1 TMS; BP:129
Name: Indole-3-acetonitrile
Name: 3-Indoleacetonitrile
Class: Natural Product
Formula: C10H8N2
Exact mass: 156.06875
SMILES: C1=CC=C2C(=C1)C(=CN2)CC#N
InChI: InChI=1S/C10H8N2/c11-6-5-8-7-12-10-4-2-1-3-9(8)10/h1-4,7,12H,5H2
Instrument: Pegasus III TOF-MS system, Leco; GC 6890, Agilent Technologies
Instrument type: GC-EI-TOF
Ms type: MS
Ion mode: POSITIVE
Column name: DB-17MS
Retention time: 1019.61 sec
Base peak: 129
Derivative type: 1 TMS
m/z	relative intensity
82	4
83	4
84	298
85	31
86	19
87	17
88	19
89	34
90	13
91	21
92	9
93	10
94	5
95	2
96	2
97	1
98	18
99	19
100	53
101	205
102	199
103	78
104	18
105	25
106	6
107	3
108	1
111	1
112	1
113	8
114	11
115	42
116	15
117	27
118	8
119	10
120	4
121	1
123	1
125	1
126	8
127	70
128	191
129	999
130	292
131	38
132	13
133	5
134	4
135	1
139	1
140	9
141	8
142	19
143	33
144	26
145	20
146	14
147	4
148	1
152	1
153	10
154	26
155	151
156	93
157	20
158	15
159	6
160	12
161	3
162	1
166	1
167	3
168	7
169	15
170	54
171	14
172	41
173	9
174	4
175	1
180	1
181	7
182	7
183	11
184	15
185	7
186	35
187	28
188	34
189	6
190	1
194	2
195	4
196	1
197	3
198	2
199	5
200	15
201	5
202	34
203	9
204	2
210	1
211	7
212	3
213	290
214	56
215	14
216	1
225	3
226	1
227	65
228	502
229	106
230	27
231	3
