Mass spectrum: DL-6,8-Thioctic acid; GC-EI-TOF; MS; 1 TMS; BP:123
Name: DL-alpha-Lipoic acid
Name: DL-6,8-Thioctic acid
Class: Natural Product
Formula: C8H14O2S2
Exact mass: 206.04352
SMILES: OC(=O)CCCCC(C1)SSC1
InChI: InChI=1S/C8H14O2S2/c9-8(10)4-2-1-3-7-5-6-11-12-7/h7H,1-6H2,(H,9,10)
Instrument: Pegasus III TOF-MS system, Leco; GC 6890, Agilent Technologies
Instrument type: GC-EI-TOF
Ms type: MS
Ion mode: POSITIVE
Column name: DB-17MS
Retention time: 979.812 sec
Base peak: 123
Derivative type: 1 TMS
m/z	relative intensity
82	71
83	34
84	22
85	175
86	51
87	141
88	27
89	34
90	10
91	112
92	21
93	220
94	36
95	664
96	164
97	82
98	29
99	148
100	72
101	91
102	13
103	62
104	12
105	764
106	65
107	84
108	7
109	26
110	16
111	48
112	45
113	330
114	37
115	45
116	80
117	397
118	49
119	50
120	5
121	90
122	18
123	999
124	268
125	42
126	54
127	202
128	87
129	286
130	46
131	42
132	44
133	10
134	4
135	8
136	4
137	74
138	16
139	17
140	3
141	14
142	8
143	14
144	5
145	38
146	21
147	14
148	4
149	5
150	1
151	11
152	2
153	20
154	31
155	386
156	53
157	59
158	10
159	22
160	25
161	18
162	4
163	3
164	1
165	2
166	1
167	7
168	2
169	17
170	8
171	69
172	10
173	12
174	2
175	1
177	2
178	1
179	8
180	2
181	4
182	1
183	9
184	2
185	39
186	7
187	6
188	89
189	13
190	9
191	1
195	11
196	2
197	79
198	22
199	18
200	3
201	2
203	2
211	2
212	1
213	72
214	17
215	5
216	1
217	3
218	1
219	1
227	1
229	15
230	5
231	2
244	2
245	25
246	9
247	3
263	48
264	8
265	7
266	1
277	2
278	224
279	42
280	31
281	5
282	1
