Mass spectrum: Niacinamide; GC-EI-TOF; MS; 1 TMS; BP:179
Name: Nicotinamide
Name: Niacinamide
Class: Natural Product
Formula: C6H6N2O
Exact mass: 122.04801
SMILES: NC(=O)c(c1)cncc1
InChI: InChI=1S/C6H6N2O/c7-6(9)5-2-1-3-8-4-5/h1-4H,(H2,7,9)
Instrument: Pegasus III TOF-MS system, Leco; GC 6890, Agilent Technologies
Instrument type: GC-EI-TOF
Ms type: MS
Ion mode: POSITIVE
Column name: DB-17MS
Retention time: 812.812 sec
Base peak: 179
Derivative type: 1 TMS
m/z	relative intensity
82	9
83	6
84	5
85	3
86	6
87	1
88	1
89	5
90	5
91	3
92	6
93	11
94	11
95	3
96	1
97	1
100	34
101	2
102	4
103	17
104	331
105	181
106	49
107	7
108	5
109	5
110	3
116	1
118	4
119	13
120	10
121	3
122	25
123	2
124	1
131	2
132	2
133	1
134	7
135	7
136	416
137	37
138	6
147	4
148	1
149	4
150	7
151	5
152	1
161	4
162	1
163	11
164	2
165	5
166	2
175	11
176	1
177	2
178	4
179	999
180	90
181	8
192	1
193	64
194	29
195	2
