Mass spectrum: Myo-Inositol; GC-EI-TOF; MS; 6 TMS; BP:147
Name: Myo-Inositol
Class: Natural Product
Formula: C6H12O6
Exact mass: 180.06339
SMILES: O[C@H]([C@@H](O)1)[C@H](O)[C@@H](O)[C@@H](O)[C@@H](O)1
InChI: InChI=1S/C6H12O6/c7-1-2(8)4(10)6(12)5(11)3(1)9/h1-12H/t1-,2-,3-,4+,5-,6-
Instrument: Pegasus III TOF-MS system, Leco; GC 6890, Agilent Technologies
Instrument type: GC-EI-TOF
Ms type: MS
Ion mode: POSITIVE
Column name: DB-17MS
Retention time: 913.044 sec
Base peak: 147
Derivative type: 6 TMS
m/z	relative intensity
82	2
83	8
85	8
86	1
87	10
88	2
89	5
95	1
97	2
98	1
99	9
100	1
101	22
102	8
103	182
104	19
105	12
106	1
107	1
109	4
111	9
112	2
113	9
114	2
115	8
116	11
117	18
118	3
119	10
120	2
121	1
125	2
126	1
127	11
128	2
129	228
130	30
131	78
132	12
133	144
134	22
135	13
136	1
137	1
139	2
140	1
141	6
142	6
143	72
144	10
145	11
146	3
147	999
148	156
149	83
150	9
151	4
152	1
153	3
154	1
155	5
156	4
157	17
158	3
159	5
160	1
161	14
162	2
163	5
164	1
165	1
169	3
170	1
171	1
173	2
174	1
175	7
176	2
177	12
178	3
179	2
181	2
183	1
185	2
186	1
187	2
188	1
189	33
190	31
191	393
192	75
193	34
194	4
195	1
197	1
199	1
201	3
202	1
203	13
204	133
205	41
206	17
207	20
208	5
209	3
211	1
213	1
215	11
216	5
217	803
218	159
219	70
220	10
221	59
222	17
223	9
224	2
225	1
227	1
228	1
229	3
230	12
231	9
232	3
233	1
235	2
237	1
239	2
240	1
241	1
242	1
243	12
244	4
245	4
246	1
247	1
249	1
250	1
251	1
253	1
255	3
256	1
257	2
258	1
259	1
263	1
264	1
265	108
266	36
267	17
268	4
269	1
270	1
271	3
272	1
277	2
278	2
279	2
280	1
289	1
290	1
291	28
292	11
293	12
294	4
295	1
303	2
304	12
305	443
306	132
307	82
308	18
309	5
310	1
316	2
317	17
318	229
319	101
320	43
321	11
322	2
327	1
329	1
331	2
342	1
343	9
344	4
345	3
346	1
366	1
367	31
368	11
369	6
370	1
378	1
379	2
380	1
392	3
393	16
394	7
395	3
396	1
406	1
407	1
417	2
418	1
419	6
420	3
421	1
431	4
432	47
433	37
434	18
435	7
436	2
