Mass spectrum: 4-Methylumbelliferone; GC-EI-TOF; MS; 0 TMS; BP:233
Name: 4-Methylumbelliferone
Class: Natural Product
Formula: C10H8O3
Exact mass: 176.04734
SMILES: Oc(c2)cc(O1)c(c2)C(C)=CC(=O)1
InChI: InChI=1S/C10H8O3/c1-6-4-10(12)13-9-5-7(11)2-3-8(6)9/h2-5,11H,1H3
Instrument: Pegasus III TOF-MS system, Leco; GC 6890, Agilent Technologies
Instrument type: GC-EI-TOF
Ms type: MS
Ion mode: POSITIVE
Column name: DB-17MS
Retention time: 1057.61 sec
Base peak: 233
Derivative type: 0 TMS
m/z	relative intensity
82	6
83	50
84	8
85	29
86	13
87	143
88	155
89	87
90	34
91	253
92	24
93	34
94	28
95	47
96	8
97	21
98	19
99	67
100	8
101	51
102	532
103	348
104	36
105	64
106	10
107	21
108	5
109	29
110	5
111	11
112	4
113	6
114	6
115	148
116	28
117	54
118	19
119	65
120	12
121	25
122	5
123	11
124	2
125	6
126	4
127	7
128	24
129	50
130	21
131	97
132	13
133	27
134	7
135	53
136	7
137	16
138	2
139	3
140	1
141	3
142	2
143	13
144	8
145	53
146	13
147	107
148	21
149	116
150	14
151	40
152	2
153	2
155	3
157	6
159	44
160	5
161	53
162	27
163	45
164	11
165	310
166	56
167	19
168	3
169	1
171	5
172	3
173	23
174	11
175	48
176	14
177	488
178	75
179	17
180	5
181	1
185	5
186	3
187	7
188	4
189	83
190	24
191	6
192	3
193	2
194	1
195	2
197	1
198	1
199	2
200	2
201	3
202	1
203	32
204	11
205	379
206	63
207	15
208	1
209	2
210	1
211	1
213	1
214	3
215	3
216	2
217	5
218	4
219	18
220	290
221	52
222	12
223	3
224	1
225	1
226	1
231	2
232	16
233	999
234	167
235	58
236	4
237	2
238	2
239	1
240	3
241	1
243	2
246	1
247	7
248	286
249	67
251	2
255	1
269	1
312	1
