Mass spectrum: Succinic acid; GC-EI-TOF; MS; 2 TMS; BP:147
Name: Succinic acid
Class: Natural Product
Formula: C4H6O4
Exact mass: 118.02661
SMILES: OC(=O)CCC(O)=O
InChI: InChI=1S/C4H6O4/c5-3(6)1-2-4(7)8/h1-2H2,(H,5,6)(H,7,8)
Instrument: Pegasus III TOF-MS system, Leco; GC 6890, Agilent Technologies
Instrument type: GC-EI-TOF
Ms type: MS
Ion mode: POSITIVE
Column name: DB-17MS
Retention time: 642.862 sec
Base peak: 147
Derivative type: 2 TMS
m/z	relative intensity
82	9
83	7
84	9
85	25
86	36
87	16
88	9
89	16
90	2
91	1
92	1
93	2
97	1
99	9
100	2
101	12
102	3
103	8
104	2
105	4
106	1
111	1
113	17
114	4
115	18
116	33
117	21
118	4
119	4
120	1
121	1
128	7
129	130
130	22
131	28
132	5
133	36
134	6
135	4
136	1
143	1
147	999
148	143
149	118
150	16
151	4
156	3
157	8
158	1
159	1
162	1
163	4
172	153
173	87
174	20
175	10
176	1
177	1
187	1
189	1
190	3
191	1
192	1
203	5
204	2
205	1
206	1
215	1
217	4
218	16
219	6
220	3
221	1
246	1
247	343
248	88
249	43
250	6
251	1
262	10
263	2
264	1
