Mass spectrum: D-Fructose 6-phosphate; GC-EI-TOF; MS; 6 TMS; BP:315
Name: D-Fructose 6-phosphate
Class: Natural Product
Formula: C6H13O9P
Exact mass: 260.02972
SMILES: OCC(=O)C(O)C(O)C(O)COP(O)(O)=O
InChI: InChI=1S/C6H13O9P/c7-1-3(8)5(10)6(11)4(9)2-15-16(12,13)14/h4-7,9-11H,1-2H2,(H2,12,13,14)/t4-,5-,6-/m1/s1
Instrument: Pegasus III TOF-MS system, Leco; GC 6890, Agilent Technologies
Instrument type: GC-EI-TOF
Ms type: MS
Ion mode: POSITIVE
Column name: DB-17MS
Retention time: 1029.36 sec
Base peak: 315
Derivative type: 6 TMS
m/z	relative intensity
82	34
83	16
84	251
85	58
86	25
87	48
88	41
89	494
90	48
91	35
92	7
93	9
94	12
95	6
96	12
97	8
98	26
99	54
100	82
101	324
102	62
103	729
104	78
105	82
106	17
107	20
108	5
109	10
110	6
111	19
112	10
113	57
114	162
115	90
116	125
117	207
118	30
119	71
120	10
121	26
122	4
123	11
124	8
125	7
126	34
127	29
128	28
129	626
130	99
131	169
132	29
133	505
134	69
135	101
136	13
137	38
138	12
139	8
140	12
141	13
142	52
143	52
144	14
145	21
146	10
147	928
148	150
149	121
150	17
151	43
152	12
153	11
154	10
155	9
156	21
157	73
158	25
159	29
160	7
161	10
162	3
163	45
164	9
165	15
166	7
167	13
168	19
169	8
170	10
171	7
172	54
173	55
174	19
175	13
176	4
177	16
178	5
179	12
180	16
181	49
182	14
183	21
184	9
185	5
186	13
187	8
188	14
189	46
190	13
191	84
192	18
193	51
194	11
195	45
196	17
197	16
198	13
199	4
200	11
201	16
202	11
203	17
204	49
205	51
206	13
207	83
208	18
209	19
210	9
211	271
212	48
213	27
214	26
215	20
216	27
217	818
218	186
219	81
220	14
221	20
222	5
223	4
224	2
225	85
226	18
227	77
228	25
229	17
230	19
231	15
232	18
233	8
234	3
235	3
236	1
237	2
238	1
239	2
240	10
241	9
242	8
243	12
244	18
245	7
246	10
247	13
248	3
249	3
250	1
251	1
252	1
253	19
254	10
255	10
256	17
257	6
258	7
259	3
260	31
261	9
262	11
263	5
264	1
265	1
267	3
268	10
269	15
270	9
271	5
272	4
273	1
274	2
275	3
276	4
277	1
281	1
282	1
283	20
284	10
285	23
286	13
287	7
288	3
289	1
290	1
291	3
292	1
297	3
298	30
299	505
300	160
301	82
302	26
303	8
304	4
305	4
306	4
307	3
308	3
309	4
310	4
311	4
312	2
313	13
314	47
315	999
316	274
317	146
318	31
319	13
320	4
321	1
327	2
328	14
329	8
330	6
331	3
332	2
333	3
334	3
335	1
336	1
340	2
341	24
342	10
343	7
344	3
345	1
346	1
348	1
351	1
354	1
355	1
356	11
357	131
358	43
359	21
360	6
361	2
362	1
364	1
368	1
369	7
370	2
371	5
372	4
373	18
374	11
375	6
376	5
377	2
378	1
384	1
385	2
386	12
387	80
388	33
389	28
390	9
391	4
392	5
393	2
394	1
401	1
402	5
403	28
404	11
405	6
406	2
407	2
408	2
409	1
415	2
416	1
417	1
418	1
428	4
429	2
430	2
431	2
432	1
433	1
457	1
458	14
459	83
460	41
461	32
462	12
463	5
464	2
465	1
482	1
487	2
488	2
489	1
