Mass spectrum: Maltotriose; GC-EI-TOF; MS; 11 TMS; BP:204
Name: Maltotriose
Class: Natural Product
Formula: C18H32O16
Exact mass: 504.16903
SMILES: OCC(O1)C(O)C(O)C(O)C1OC(C(CO)3)C(O)C(O)C(O3)OC(C(CO)2)C(O)C(O)C(O)O2
InChI: InChI=1S/C18H32O16/c19-1-4-7(22)8(23)12(27)17(31-4)34-15-6(3-21)32-18(13(28)10(15)25)33-14-5(2-20)30-16(29)11(26)9(14)24/h4-29H,1-3H2/t4-,5-,6-,7-,8+,9-,10-,11-,12-,13-,14-,15-,16?,17-,18-/m1/s1
Instrument: Pegasus III TOF-MS system, Leco; GC 6890, Agilent Technologies
Instrument type: GC-EI-TOF
Ms type: MS
Ion mode: POSITIVE
Column name: DB-17MS
Retention time: 1353.28 sec
Base peak: 204
Derivative type: 11 TMS
m/z	relative intensity
82	10
83	15
84	6
85	20
86	7
87	16
88	11
89	125
90	11
91	8
92	1
93	3
94	2
95	6
96	3
97	34
98	4
99	20
100	42
101	72
102	27
103	597
104	57
105	48
106	8
107	3
108	2
109	30
110	4
111	21
112	4
113	20
114	10
115	22
116	38
117	268
118	28
119	24
120	3
121	2
123	3
124	1
125	6
126	4
127	17
128	8
129	319
130	47
131	68
132	12
133	118
134	16
135	11
136	1
137	1
138	2
139	9
140	3
141	14
142	19
143	64
144	9
145	22
146	5
147	567
148	94
149	70
150	9
151	8
152	3
153	14
154	6
155	52
156	12
157	67
158	12
159	14
160	89
161	21
162	7
163	21
164	3
165	3
166	1
167	9
168	4
169	222
170	36
171	25
172	8
173	18
174	5
175	11
176	2
177	14
178	5
179	4
180	3
181	5
182	4
183	20
184	4
185	7
186	7
187	6
188	3
189	76
190	21
191	143
192	26
193	13
194	2
195	7
196	4
197	5
198	2
199	15
200	4
201	8
202	3
203	25
204	999
205	320
206	112
207	29
208	5
209	2
210	4
211	3
212	1
213	2
214	2
215	11
216	6
217	322
218	76
219	38
220	7
221	17
222	4
223	6
224	1
225	1
227	5
228	3
229	20
230	20
231	43
232	14
233	24
234	6
235	9
236	1
237	2
239	1
240	1
241	8
242	5
243	97
244	28
245	24
246	9
247	11
248	3
249	1
254	1
255	3
256	3
257	15
258	5
259	16
260	5
261	3
262	2
263	2
265	3
267	1
268	6
269	4
270	9
271	152
272	38
273	31
274	9
275	6
276	1
277	2
278	1
279	1
283	1
285	2
286	1
287	2
288	2
289	7
290	3
291	8
292	3
293	2
297	1
299	1
300	14
301	4
302	2
303	2
304	4
305	17
306	7
307	6
308	1
309	1
313	2
315	1
317	9
318	7
319	32
320	10
321	5
322	1
330	1
331	16
332	10
333	5
334	2
335	1
337	1
345	4
346	1
347	2
348	1
358	1
359	6
360	52
361	348
362	122
363	59
364	13
365	4
376	1
379	1
389	1
390	7
391	2
392	1
393	1
421	1
450	3
451	10
452	5
453	2
480	1
