Mass spectrum: D-(+)-Galactose; GC-EI-TOF; MS; 5 TMS; BP:147
Name: D-(+)-Galactose
Class: Natural Product
Formula: C6H12O6
Exact mass: 180.06339
SMILES: OC[C@@H](O1)[C@H](O)[C@H](O)[C@@H](O)C(O)1
InChI: InChI=1S/C6H12O6/c7-1-2-3(8)4(9)5(10)6(11)12-2/h2-11H,1H2/t2-,3+,4+,5-,6?/m1/s1
Instrument: Pegasus III TOF-MS system, Leco; GC 6890, Agilent Technologies
Instrument type: GC-EI-TOF
Ms type: MS
Ion mode: POSITIVE
Column name: DB-17MS
Retention time: 861.062 sec
Base peak: 147
Derivative type: 5 TMS
m/z	relative intensity
82	8
83	34
84	18
85	15
86	10
87	19
88	16
89	254
90	23
91	11
92	1
94	1
95	1
96	11
97	12
98	4
99	15
100	50
101	71
102	33
103	699
104	70
105	68
106	8
107	2
108	1
109	1
110	1
111	9
112	4
113	14
114	15
115	22
116	23
117	259
118	28
119	32
120	3
121	2
125	2
126	6
127	11
128	7
129	270
130	47
131	88
132	15
133	183
134	25
135	15
136	1
137	1
138	1
139	1
140	2
141	5
142	8
143	43
144	7
145	14
146	5
147	999
148	162
149	98
150	11
151	5
152	2
153	2
154	6
155	3
156	4
157	176
158	29
159	20
160	238
161	57
162	14
163	26
164	4
165	2
166	1
167	1
168	2
169	12
170	4
171	3
172	15
173	11
174	4
175	13
176	3
177	16
178	4
179	2
180	2
181	1
182	4
183	2
184	1
185	2
186	7
187	5
188	4
189	65
190	21
191	29
192	6
193	3
194	1
196	2
197	1
198	1
199	1
200	3
201	48
202	13
203	18
204	118
205	605
206	126
207	64
208	9
209	2
210	3
211	1
214	19
215	8
216	8
217	338
218	75
219	34
220	7
221	18
222	4
223	2
224	1
227	1
228	2
229	58
230	22
231	18
232	7
233	22
234	9
235	18
236	4
237	2
238	1
240	2
241	1
242	4
243	6
244	6
245	6
246	7
247	7
248	2
249	1
254	1
256	1
257	1
259	3
260	2
261	1
262	3
263	1
265	1
268	7
269	3
270	2
273	3
274	4
275	2
276	1
277	14
278	6
279	2
290	1
291	16
292	5
293	2
300	2
302	2
303	1
304	2
305	13
306	6
307	18
308	5
309	2
316	1
317	1
318	9
319	389
320	119
321	56
322	11
323	2
328	1
331	1
332	1
333	1
337	1
342	2
343	1
344	4
345	1
347	1
358	1
365	1
376	2
