Mass spectrum: 5-Aminolevulinic acid; GC-EI-TOF; MS; 3 TMS; BP:174
Name: 5-Aminolevulinic acid
Class: Natural Product
Formula: C5H9NO3
Exact mass: 131.05824
SMILES: NCC(=O)CCC(O)=O
InChI: InChI=1S/C5H9NO3/c6-3-4(7)1-2-5(8)9/h1-3,6H2,(H,8,9)
Instrument: Pegasus III TOF-MS system, Leco; GC 6890, Agilent Technologies
Instrument type: GC-EI-TOF
Ms type: MS
Ion mode: POSITIVE
Column name: DB-17MS
Retention time: 840.713 sec
Base peak: 174
Derivative type: 3 TMS
m/z	relative intensity
82	65
83	16
84	140
85	57
86	900
87	106
88	54
89	499
90	45
91	30
92	4
93	9
94	6
95	6
96	7
97	10
98	28
99	44
100	561
101	188
102	241
103	50
104	17
105	9
106	2
107	1
108	1
109	2
110	13
111	26
112	56
113	44
114	62
115	42
116	99
117	149
118	39
119	20
120	3
121	2
122	1
123	2
124	10
125	16
126	24
127	26
128	69
129	83
130	188
131	75
132	35
133	92
134	15
135	8
136	2
137	2
138	2
139	29
140	52
141	19
142	20
143	12
144	70
145	16
146	49
147	242
148	42
149	23
150	3
151	5
152	4
153	5
154	10
155	7
156	271
157	43
158	110
159	27
160	38
161	8
162	3
163	20
164	3
165	2
166	2
167	41
168	11
169	7
170	13
171	16
172	578
173	196
174	999
175	197
176	84
177	11
178	2
179	1
180	1
181	4
182	3
183	42
184	11
185	71
186	34
187	48
188	12
189	11
190	9
191	6
192	1
195	1
196	2
197	50
198	17
199	324
200	68
201	31
202	15
203	3
204	4
205	1
211	7
212	77
213	78
214	66
215	22
216	8
217	14
218	4
219	1
223	2
225	5
226	4
227	9
228	8
229	4
230	15
231	5
232	2
239	53
240	18
241	22
242	9
243	8
244	137
245	32
246	42
247	8
248	5
249	1
254	1
255	21
256	6
257	16
258	4
259	2
260	1
269	1
270	1
271	1
272	1
273	18
274	5
275	2
276	1
285	10
286	4
287	8
288	2
289	2
290	1
301	1
302	1
303	1
313	2
314	1
328	5
329	128
330	180
331	74
332	30
333	7
334	2
344	8
345	125
346	41
347	19
348	4
349	1
360	1
361	21
362	7
363	3
