Mass spectrum: DL-2,6-Diaminopimelic acid; GC-EI-TOF; MS; 4 TMS; BP:200
Name: DL-2,6-Diaminopimelic acid
Class: Natural Product
Formula: C7H14N2O4
Exact mass: 190.09536
SMILES: OC(=O)[C@@H](N)CCC[C@H](N)C(O)=O
InChI: InChI=1S/C7H14N2O4/c8-4(6(10)11)2-1-3-5(9)7(12)13/h4-5H,1-3,8-9H2,(H,10,11)(H,12,13)/t4-,5-/m0/s1
Instrument: Pegasus III TOF-MS system, Leco; GC 6890, Agilent Technologies
Instrument type: GC-EI-TOF
Ms type: MS
Ion mode: POSITIVE
Column name: DB-17MS
Retention time: 919.162 sec
Base peak: 200
Derivative type: 4 TMS
m/z	relative intensity
82	356
83	27
84	5
85	9
86	15
87	7
88	6
89	2
90	5
92	5
94	1
96	4
97	4
98	18
99	7
100	148
101	29
102	41
103	19
104	3
105	3
106	1
107	1
108	2
109	19
110	21
111	3
112	17
113	6
114	44
115	40
116	36
117	29
118	10
119	7
120	4
121	1
122	25
123	3
124	3
125	1
126	84
127	20
128	619
129	82
130	44
131	31
132	26
133	48
134	9
135	5
136	1
137	1
138	3
139	2
140	14
141	7
142	39
143	9
144	44
145	9
146	17
147	292
148	55
149	32
150	6
151	2
152	4
153	2
154	74
155	87
156	52
157	15
158	7
159	5
160	5
161	3
162	6
163	5
164	3
165	5
166	9
167	4
168	6
169	3
170	11
171	16
172	33
173	10
174	12
175	3
176	3
177	2
178	1
179	1
180	1
181	90
182	86
183	24
184	38
185	6
186	8
187	2
188	17
189	5
190	28
191	28
192	8
193	5
194	2
195	1
196	1
197	1
198	4
199	3
200	999
201	152
202	73
203	14
204	5
205	2
206	1
207	1
209	2
210	1
211	1
212	1
213	1
214	6
215	4
216	9
217	6
218	67
219	34
220	12
221	7
222	2
223	1
226	1
227	2
228	9
229	6
230	16
231	4
232	7
233	2
234	1
236	1
238	1
239	1
240	1
241	1
242	5
243	6
244	9
245	5
246	4
247	1
248	1
253	1
254	1
255	12
256	8
257	4
258	3
259	1
260	2
269	1
270	1
271	85
272	770
273	183
274	78
275	13
276	2
283	8
284	7
285	2
286	1
287	1
291	1
299	3
300	1
301	1
302	1
304	1
317	1
318	1
344	1
345	5
346	13
347	6
348	3
349	1
355	2
356	4
357	1
358	1
359	1
360	1
361	7
362	2
363	1
372	1
373	25
374	17
375	7
376	3
388	1
389	1
463	3
464	1
477	6
478	42
479	19
480	10
481	3
