Mass spectrum: Citric acid; GC-EI-TOF; MS; 4 TMS; BP:147
Name: Citric acid
Class: Natural Product
Formula: C6H8O7
Exact mass: 192.02700
SMILES: OC(=O)CC(O)(CC(O)=O)C(O)=O
InChI: InChI=1S/C6H8O7/c7-3(8)1-6(13,5(11)12)2-4(9)10/h13H,1-2H2,(H,7,8)(H,9,10)(H,11,12)
Instrument: Pegasus III TOF-MS system, Leco; GC 6890, Agilent Technologies
Instrument type: GC-EI-TOF
Ms type: MS
Ion mode: POSITIVE
Column name: DB-17MS
Retention time: 864.787 sec
Base peak: 147
Derivative type: 4 TMS
m/z	relative intensity
83	3
84	4
85	3
86	2
87	4
88	4
89	2
93	1
95	14
96	3
97	15
98	5
99	45
100	4
101	15
102	4
103	21
104	3
105	9
108	1
110	1
111	31
112	3
113	8
114	3
115	51
116	20
117	45
118	4
119	15
121	2
125	1
126	1
127	3
128	1
129	48
130	7
131	58
132	7
133	119
134	16
135	18
136	2
137	2
139	16
140	1
141	35
142	8
143	83
144	10
145	8
146	3
147	999
148	176
149	144
150	24
151	10
153	1
154	1
155	3
156	2
157	21
158	3
159	7
161	7
162	2
163	18
164	3
165	3
169	12
170	2
171	16
172	4
173	10
174	1
175	5
177	4
179	1
183	112
184	17
185	31
186	6
187	2
189	11
190	8
191	12
192	3
193	3
196	1
199	1
201	7
202	2
203	2
204	7
205	11
206	3
207	17
208	3
209	1
211	124
212	22
213	24
214	5
215	18
216	8
217	28
218	5
219	4
220	2
221	57
222	10
223	7
224	2
226	1
228	1
229	8
230	5
231	17
232	6
233	3
234	1
237	1
241	1
242	1
243	2
244	3
245	3
246	1
255	1
256	1
257	43
258	11
259	12
260	3
261	2
263	1
265	1
267	1
271	2
272	7
273	629
274	124
275	62
276	8
277	2
279	1
285	23
286	6
287	8
288	1
289	2
290	1
291	2
292	1
293	2
295	1
301	10
302	3
303	15
304	7
305	32
306	7
307	7
308	1
309	1
310	1
311	1
312	1
315	1
318	2
319	7
320	1
321	2
323	1
324	1
329	1
330	1
331	4
332	2
333	10
334	3
335	2
336	1
337	1
345	1
346	3
347	170
348	48
349	31
350	4
351	1
362	2
363	144
364	47
365	23
366	5
367	1
373	1
374	7
375	37
376	9
377	6
421	1
422	1
437	1
438	1
464	5
465	71
466	24
467	7
468	2
