Mass spectrum: L-Histidinol; GC-EI-TOF; MS; 3 TMS; BP:154
Name: L-Histidinol
Class: Natural Product
Formula: C6H11N3O
Exact mass: 141.09021
SMILES: C1=C(NC=N1)C[C@@H](CO)N
InChI: InChI=1S/C6H11N3O/c7-5(3-10)1-6-2-8-4-9-6/h2,4-5,10H,1,3,7H2,(H,8,9)/t5-/m0/s1
Instrument: Pegasus III TOF-MS system, Leco; GC 6890, Agilent Technologies
Instrument type: GC-EI-TOF
Ms type: MS
Ion mode: POSITIVE
Column name: DB-17MS
Retention time: 915.025 sec
Base peak: 154
Derivative type: 3 TMS
m/z	relative intensity
82	110
83	40
84	56
85	28
86	23
87	12
88	40
89	27
90	5
91	2
92	4
93	3
94	3
95	12
96	12
97	11
98	32
99	10
100	129
101	18
102	15
103	18
104	3
105	4
106	1
107	8
108	2
109	5
110	15
111	13
112	40
113	14
114	59
115	25
116	118
117	22
118	9
119	5
120	2
121	3
122	2
123	4
124	6
125	8
126	18
127	9
128	9
129	2
130	29
131	26
132	25
133	26
134	6
135	5
136	3
137	4
138	4
139	15
140	6
141	7
142	3
143	3
144	1
145	1
146	13
147	95
148	19
149	10
150	9
151	10
152	5
153	181
154	999
155	389
156	78
157	17
158	8
159	2
160	1
161	1
162	3
163	2
164	2
165	3
166	35
167	33
168	8
169	4
170	3
171	1
172	6
173	2
174	6
175	1
176	2
178	1
179	9
180	6
181	6
182	16
183	4
184	6
185	1
186	1
187	1
188	66
189	18
190	7
191	2
193	1
194	4
195	3
196	3
197	3
198	4
199	3
200	1
202	2
203	12
204	799
205	162
206	69
207	10
208	3
209	1
210	1
211	8
212	3
213	3
214	1
222	1
223	2
224	2
225	10
226	174
227	49
228	19
229	3
237	1
238	39
239	14
240	5
241	1
250	1
251	1
252	36
253	27
254	715
255	177
256	66
257	10
258	1
266	1
267	2
268	5
269	1
326	1
341	2
342	43
343	15
344	7
345	1
