Mass spectrum: D-Glucose 6-phosphate; GC-EI-TOF; MS; 6 TMS; BP:147
Name: D-Glucose 6-phosphate
Class: Natural Product
Formula: C6H13O9P
Exact mass: 260.02972
SMILES: OC(O1)[C@H](O)[C@@H](O)[C@H](O)[C@H]1COP(O)(O)=O
InChI: InChI=1S/C6H13O9P/c7-3-2(1-14-16(11,12)13)15-6(10)5(9)4(3)8/h2-10H,1H2,(H2,11,12,13)/t2-,3-,4+,5-,6?/m1/s1
Instrument: Pegasus III TOF-MS system, Leco; GC 6890, Agilent Technologies
Instrument type: GC-EI-TOF
Ms type: MS
Ion mode: POSITIVE
Column name: DB-17MS
Retention time: 1043.46 sec
Base peak: 147
Derivative type: 6 TMS
m/z	relative intensity
82	21
83	24
84	36
85	73
86	28
87	48
88	23
89	565
90	54
91	40
92	6
93	9
94	6
95	8
96	12
97	35
98	19
99	54
100	79
101	428
102	90
103	572
104	65
105	131
106	29
107	24
108	5
109	10
110	5
111	34
112	15
113	59
114	46
115	104
116	212
117	169
118	27
119	79
120	12
121	32
122	5
123	13
124	5
125	8
126	16
127	37
128	29
129	656
130	157
131	357
132	52
133	557
134	78
135	119
136	15
137	43
138	9
139	8
140	9
141	25
142	28
143	88
144	16
145	40
146	11
147	999
148	168
149	136
150	19
151	52
152	11
153	16
154	22
155	14
156	16
157	257
158	51
159	42
160	262
161	115
162	23
163	47
164	8
165	18
166	6
167	14
168	11
169	41
170	15
171	18
172	24
173	25
174	12
175	17
176	5
177	22
178	11
179	15
180	15
181	55
182	11
183	22
184	7
185	11
186	12
187	10
188	8
189	79
190	21
191	111
192	23
193	71
194	15
195	50
196	19
197	16
198	6
199	5
200	6
201	13
202	6
203	29
204	113
205	62
206	19
207	106
208	23
209	22
210	14
211	283
212	53
213	30
214	15
215	18
216	13
217	268
218	70
219	31
220	7
221	23
222	6
223	5
224	2
225	89
226	18
227	60
228	37
229	27
230	32
231	34
232	12
233	14
234	5
235	9
236	2
237	3
238	1
239	2
240	4
241	11
242	8
243	40
244	18
245	9
246	11
247	126
248	29
249	14
250	2
251	1
252	2
253	26
254	8
255	9
256	5
257	3
258	2
259	13
260	4
261	4
262	3
263	1
265	1
266	1
267	4
268	15
269	25
270	10
271	5
272	2
273	7
274	9
275	6
276	2
277	2
278	1
279	1
281	1
282	2
283	33
284	14
285	26
286	15
287	6
288	2
289	2
290	1
291	10
292	3
293	2
294	1
295	1
297	3
298	44
299	731
300	202
301	106
302	23
303	8
304	4
305	15
306	6
307	6
308	3
309	3
310	2
311	2
312	2
313	14
314	58
315	270
316	79
317	43
318	11
319	9
320	3
321	2
327	2
328	11
329	4
330	4
331	31
332	12
333	7
334	2
335	1
337	1
340	3
341	31
342	15
343	9
344	3
345	1
347	2
348	1
349	1
350	1
351	1
352	1
353	1
355	2
356	25
357	198
358	70
359	34
360	9
361	2
363	1
364	1
369	5
370	9
371	9
372	6
373	15
374	6
375	3
376	5
377	2
381	1
382	1
383	3
384	3
385	10
386	109
387	707
388	270
389	158
390	45
391	15
392	3
393	1
402	1
403	10
404	3
405	2
406	1
407	5
408	1
415	2
416	1
428	1
429	1
430	1
431	1
432	1
442	1
443	3
444	2
445	3
446	1
447	1
448	1
449	1
455	1
458	1
459	4
460	2
461	5
462	2
463	1
470	13
471	63
472	31
473	18
474	6
475	2
