Mass spectrum: Ferulic acid; GC-EI-TOF; MS; 2 TMS; BP:249
Name: Ferulic acid
Class: Natural Product
Formula: C10H10O4
Exact mass: 194.05791
SMILES: COc(c1)c(O)ccc(C=CC(O)=O)1
InChI: InChI=1S/C10H10O4/c1-14-9-6-7(2-4-8(9)11)3-5-10(12)13/h2-6,11H,1H3,(H,12,13)/b5-3+
Instrument: Pegasus III TOF-MS system, Leco; GC 6890, Agilent Technologies
Instrument type: GC-EI-TOF
Ms type: MS
Ion mode: POSITIVE
Column name: DB-17MS
Retention time: 996.528 sec
Base peak: 249
Derivative type: 2 TMS
m/z	relative intensity
82	16
83	90
84	28
85	42
86	17
87	46
88	223
89	794
90	114
91	186
92	45
93	38
94	13
95	35
96	9
97	11
98	11
99	33
100	14
101	66
102	235
103	166
104	65
105	122
106	22
107	51
108	11
109	49
110	19
111	18
112	3
113	14
114	16
115	312
116	126
117	423
118	148
119	136
120	31
121	42
122	16
123	12
124	14
125	37
126	8
127	22
128	41
129	64
130	54
131	117
132	40
133	162
134	33
135	178
136	34
137	76
138	12
139	206
140	24
141	10
142	28
143	53
144	24
145	346
146	132
147	372
148	117
149	99
150	34
151	30
152	8
153	6
154	148
155	20
156	3
157	11
158	17
159	60
160	283
161	205
162	50
163	115
164	31
165	35
166	34
167	9
168	4
169	3
170	2
171	13
172	10
173	66
174	38
175	399
176	87
177	69
178	32
179	319
180	58
181	25
182	5
183	3
184	3
185	14
186	9
187	31
188	45
189	108
190	260
191	384
192	197
193	63
194	17
195	10
196	4
197	3
198	2
199	4
200	3
201	16
202	12
203	260
204	123
205	132
206	45
207	49
208	14
209	127
210	25
211	9
212	3
213	5
214	3
215	4
216	10
217	43
218	257
219	512
220	129
221	104
222	49
223	33
224	11
225	4
226	1
229	2
230	2
231	15
232	31
233	109
234	37
235	30
236	23
237	10
238	4
239	4
240	2
241	2
242	1
243	2
244	2
245	3
246	3
247	26
248	27
249	999
250	271
251	94
252	19
253	17
254	8
255	3
256	2
257	1
258	1
259	2
260	2
261	4
262	3
263	43
264	57
265	55
266	23
267	9
268	4
269	3
270	3
271	3
272	3
273	4
274	4
275	5
276	4
277	8
278	10
279	205
280	84
281	33
282	10
283	3
284	1
289	1
290	1
291	3
292	24
293	652
294	255
295	92
296	22
297	7
298	5
299	7
300	8
301	10
302	9
303	10
304	9
305	6
306	6
307	55
308	763
309	275
310	102
311	24
312	6
313	3
314	4
315	5
316	5
317	6
318	5
319	5
320	3
321	4
322	33
323	736
324	240
325	93
326	20
327	5
328	3
329	6
330	7
331	7
332	8
333	7
334	6
335	3
336	3
337	59
338	922
339	261
340	103
341	21
342	4
343	1
