Mass spectrum: D-(+)-Glucosamine; GC-EI-TOF; MS; 6 TMS; BP:159
Name: D-(+)-Glucosamine
Class: Natural Product
Formula: C6H13NO5
Exact mass: 179.07937
SMILES: OCC(O1)C(O)C(O)C(N)C(O)1
InChI: InChI=1S/C6H13NO5/c7-3-5(10)4(9)2(1-8)12-6(3)11/h2-6,8-11H,1,7H2/t2-,3-,4-,5-,6-/m1/s1
Instrument: Pegasus III TOF-MS system, Leco; GC 6890, Agilent Technologies
Instrument type: GC-EI-TOF
Ms type: MS
Ion mode: POSITIVE
Column name: DB-17MS
Retention time: 865.879 sec
Base peak: 159
Derivative type: 6 TMS
m/z	relative intensity
82	5
83	44
84	83
85	19
86	43
87	26
88	19
89	326
90	30
91	10
92	2
93	3
94	1
96	11
97	4
98	9
99	14
100	124
101	111
102	111
103	400
104	42
105	87
106	8
107	3
110	5
111	6
112	7
113	27
114	10
115	19
116	24
117	249
118	32
119	23
120	2
121	1
124	1
125	3
126	8
127	21
128	45
129	406
130	76
131	52
132	23
133	133
134	19
135	11
137	3
138	1
139	1
140	6
141	21
142	24
143	34
144	45
145	13
146	17
147	745
148	121
149	69
150	7
151	3
152	4
153	4
154	3
155	1
156	6
157	181
158	32
159	999
160	134
161	46
162	8
163	17
164	3
165	3
167	1
168	25
169	5
170	4
171	4
172	21
173	13
174	6
175	8
176	2
177	5
178	1
179	2
180	1
181	1
182	1
184	1
185	4
186	4
187	3
188	11
189	42
190	20
191	19
192	4
193	1
195	11
196	2
197	1
198	1
199	1
200	10
201	96
202	30
203	58
204	74
205	540
206	106
207	49
208	7
209	2
213	7
214	9
215	8
216	45
217	167
218	37
219	20
220	4
221	9
222	2
223	1
227	6
228	4
229	72
230	22
231	20
232	40
233	14
234	11
235	3
236	1
239	1
240	13
241	6
242	8
243	10
244	10
245	3
246	1
247	1
253	1
255	1
256	4
257	1
258	7
259	2
260	2
261	7
262	1
267	5
268	3
269	2
273	13
274	3
275	1
276	1
277	11
278	5
279	1
285	1
288	1
290	6
291	14
292	5
293	2
301	1
302	1
303	13
304	24
305	15
306	7
307	13
308	3
309	1
316	3
317	3
318	18
319	257
320	79
321	37
322	7
323	1
330	5
331	2
332	4
333	3
334	2
346	1
357	4
358	2
359	1
375	1
420	4
421	2
422	1
436	1
446	2
447	9
448	5
449	2
