Mass spectrum: DL-Dihydrolipoic acid; GC-EI-TOF; MS; 3 TMS; BP:94
Name: Dihydrolipoic acid
Name: DL-Dihydrolipoic acid
Class: Natural Product
Formula: C8H16O2S2
Exact mass: 208.05917
SMILES: SCCC(S)CCCCC(O)=O
InChI: InChI=1S/C8H16O2S2/c9-8(10)4-2-1-3-7(12)5-6-11/h7,11-12H,1-6H2,(H,9,10)
Instrument: Pegasus III TOF-MS system, Leco; GC 6890, Agilent Technologies
Instrument type: GC-EI-TOF
Ms type: MS
Ion mode: POSITIVE
Column name: DB-17MS
Retention time: 1059.81 sec
Base peak: 94
Derivative type: 3 TMS
m/z	relative intensity
82	35
83	44
84	18
85	73
86	22
87	108
88	21
89	40
90	76
91	328
92	48
93	140
94	999
95	757
96	70
97	73
98	19
99	52
100	16
101	63
102	11
103	32
104	77
105	166
106	38
107	26
108	7
109	64
110	23
111	47
112	78
113	243
114	39
115	53
116	137
117	366
118	41
119	180
120	22
121	36
122	231
123	251
124	27
125	22
126	12
127	27
128	24
129	229
130	37
131	62
132	72
133	66
134	13
135	18
136	5
137	37
138	22
139	157
140	20
141	19
142	25
143	22
144	10
145	115
146	21
147	427
148	70
149	99
150	14
151	23
152	7
153	21
154	5
155	65
156	38
157	48
158	13
159	21
160	52
161	22
162	15
163	136
164	23
165	45
166	7
167	27
168	103
169	42
170	13
171	17
172	6
173	24
174	7
175	4
176	2
177	20
178	7
179	22
180	5
181	16
182	4
183	28
184	11
185	37
186	56
187	34
188	10
189	26
190	7
191	4
192	1
193	3
194	3
195	31
196	14
197	102
198	19
199	31
200	14
201	25
202	6
203	7
204	164
205	38
206	15
207	7
208	1
209	1
210	13
211	5
212	416
213	174
214	39
215	19
216	3
217	81
218	22
219	9
220	2
221	1
222	2
223	1
227	6
228	30
229	19
230	19
231	40
232	8
233	4
234	1
235	1
236	2
243	8
244	2
245	3
246	1
247	1
257	3
258	1
259	4
260	1
261	1
269	1
270	1
271	9
272	3
273	1
275	1
277	1
284	3
285	125
286	45
287	17
288	4
289	1
302	5
303	106
304	28
305	19
306	4
307	1
317	1
318	10
319	40
320	12
321	6
322	1
391	2
392	1
408	3
409	17
410	7
411	4
412	1
423	13
424	74
425	30
426	19
427	5
428	2
