Mass spectrum: Caffeine; GC-EI-TOF; MS; 0 TMS; BP:109
Name: Caffeine
Class: Natural Product
Formula: C8H10N4O2
Exact mass: 194.08038
SMILES: Cn(c2)c(C(=O)1)c(n2)N(C)C(=O)N(C)1
InChI: InChI=1S/C8H10N4O2/c1-10-4-9-6-5(10)7(13)12(3)8(14)11(6)2/h4H,1-3H3
Instrument: Pegasus III TOF-MS system, Leco; GC 6890, Agilent Technologies
Instrument type: GC-EI-TOF
Ms type: MS
Ion mode: POSITIVE
Column name: DB-17MS
Retention time: 1058.81 sec
Base peak: 109
Derivative type: 0 TMS
m/z	relative intensity
82	574
83	66
84	4
91	1
92	6
93	20
94	97
95	29
96	14
97	32
98	1
106	3
107	11
108	77
109	999
110	142
111	23
112	1
117	3
120	6
121	6
122	27
123	12
124	14
125	1
129	1
132	3
133	2
134	2
135	9
136	81
137	115
138	44
139	4
140	1
147	1
148	1
149	11
150	21
151	6
152	9
161	1
163	3
164	7
165	82
166	16
167	1
179	2
192	1
193	188
194	919
195	94
196	8
197	1
