Mass spectrum: D-Glucose 6-phosphate; GC-EI-TOF; MS; 6 TMS; BP:147
Name: D-Glucose 6-phosphate
Class: Natural Product
Formula: C6H13O9P
Exact mass: 260.02972
SMILES: OC(O1)[C@H](O)[C@@H](O)[C@H](O)[C@H]1COP(O)(O)=O
InChI: InChI=1S/C6H13O9P/c7-3-2(1-14-16(11,12)13)15-6(10)5(9)4(3)8/h2-10H,1H2,(H2,11,12,13)/t2-,3-,4+,5-,6?/m1/s1
Instrument: Pegasus III TOF-MS system, Leco; GC 6890, Agilent Technologies
Instrument type: GC-EI-TOF
Ms type: MS
Ion mode: POSITIVE
Column name: DB-17MS
Retention time: 1038.61 sec
Base peak: 147
Derivative type: 6 TMS
m/z	relative intensity
82	65
83	22
84	35
85	67
86	59
87	49
88	24
89	480
90	49
91	38
92	7
93	10
94	5
95	11
96	16
97	22
98	23
99	62
100	104
101	448
102	119
103	354
104	44
105	232
106	34
107	29
108	6
109	11
110	12
111	30
112	28
113	65
114	111
115	117
116	178
117	170
118	28
119	70
120	11
121	30
122	5
123	13
124	8
125	9
126	18
127	39
128	42
129	587
130	161
131	301
132	50
133	529
134	79
135	118
136	15
137	41
138	22
139	10
140	11
141	25
142	37
143	92
144	19
145	57
146	13
147	999
148	175
149	142
150	20
151	47
152	12
153	15
154	15
155	19
156	22
157	294
158	76
159	38
160	709
161	166
162	45
163	49
164	9
165	17
166	7
167	16
168	17
169	32
170	19
171	21
172	21
173	30
174	18
175	19
176	6
177	16
178	7
179	16
180	13
181	63
182	16
183	23
184	9
185	6
186	38
187	13
188	8
189	76
190	24
191	119
192	27
193	73
194	16
195	56
196	22
197	22
198	10
199	5
200	9
201	11
202	7
203	26
204	127
205	56
206	18
207	115
208	26
209	26
210	25
211	319
212	70
213	36
214	14
215	29
216	49
217	341
218	87
219	36
220	7
221	25
222	6
223	6
224	2
225	104
226	22
227	67
228	46
229	37
230	36
231	57
232	21
233	9
234	13
235	3
236	2
237	2
238	1
239	3
240	7
241	15
242	10
243	42
244	24
245	11
246	20
247	111
248	26
249	12
250	2
251	1
252	1
253	27
254	11
255	12
256	10
257	4
258	3
259	10
260	9
261	4
262	12
263	3
264	1
265	1
267	4
268	12
269	28
270	15
271	7
272	3
273	1
274	19
275	7
276	5
277	3
278	2
279	1
281	1
283	28
284	13
285	25
286	13
287	5
288	2
289	2
290	2
291	12
292	4
293	2
295	1
297	3
298	17
299	629
300	196
301	103
302	26
303	8
304	4
305	11
306	5
307	4
308	2
309	2
310	1
311	2
312	1
313	14
314	36
315	223
316	63
317	37
318	11
319	9
320	3
321	1
327	1
328	9
329	3
330	3
331	61
332	21
333	10
334	3
335	1
340	1
341	24
342	17
343	10
344	4
345	1
348	1
349	1
351	1
355	1
356	5
357	175
358	76
359	36
360	11
361	3
362	1
364	7
365	5
366	2
369	3
370	3
371	5
372	3
373	10
374	7
375	4
376	3
377	2
383	2
384	2
385	6
386	41
387	429
388	204
389	121
390	38
391	13
392	4
393	1
402	1
403	11
404	4
405	2
407	3
408	1
415	1
416	1
417	1
429	1
430	1
431	1
432	1
433	1
434	1
435	1
442	1
443	6
444	5
445	3
446	1
447	1
448	2
449	2
450	1
451	1
452	1
455	1
459	3
460	2
461	5
462	2
463	1
464	2
465	1
466	1
470	3
471	79
472	43
473	26
474	10
475	4
476	1
