Mass spectrum: L-Cysteine; GC-EI-TOF; MS; 4 TMS; BP:218
Name: L-Cysteine
Class: Natural Product
Formula: C3H7NO2S
Exact mass: 121.01975
SMILES: N[C@@H](CS)C(O)=O
InChI: InChI=1S/C3H7NO2S/c4-2(1-7)3(5)6/h2,7H,1,4H2,(H,5,6)/t2-/m0/s1
Instrument: Pegasus III TOF-MS system, Leco; GC 6890, Agilent Technologies
Instrument type: GC-EI-TOF
Ms type: MS
Ion mode: POSITIVE
Column name: DB-17MS
Retention time: 1059.76 sec
Base peak: 218
Derivative type: 4 TMS
m/z	relative intensity
82	5
83	8
84	29
85	24
86	48
87	23
88	8
89	11
90	12
91	25
92	6
93	10
94	1
95	3
96	3
97	2
98	24
99	13
100	731
101	116
102	59
103	50
104	9
105	16
106	6
107	4
108	2
109	1
110	2
111	1
112	5
113	7
114	80
115	227
116	119
117	49
118	17
119	11
120	28
121	4
122	3
123	1
126	1
127	1
128	12
129	46
130	52
131	92
132	142
133	80
134	21
135	9
136	2
137	1
138	1
139	1
140	1
141	1
142	7
143	5
144	37
145	16
146	959
147	588
148	306
149	74
150	21
151	5
152	2
153	1
156	1
157	1
158	10
159	14
160	18
161	9
162	4
163	16
164	4
165	3
166	1
167	1
170	1
171	1
172	28
173	6
174	27
175	6
176	7
177	2
178	66
179	16
180	14
181	3
182	2
183	1
184	2
185	1
186	1
187	1
188	40
189	12
190	10
191	4
192	2
193	1
194	2
195	1
198	1
200	3
201	1
202	10
203	21
204	11
205	5
206	3
207	2
208	1
214	1
215	1
216	71
217	24
218	999
219	216
220	137
221	29
222	15
223	4
224	1
230	1
231	6
232	110
233	24
234	11
235	2
236	1
246	2
247	1
248	10
249	20
250	14
251	5
252	3
253	1
254	1
259	1
260	15
261	7
262	6
263	6
264	95
265	52
266	180
267	42
268	24
269	4
270	1
276	1
277	1
287	1
288	20
289	14
290	5
291	7
292	4
293	2
294	2
295	3
296	27
297	48
298	14
299	8
300	2
321	2
322	6
323	2
324	1
337	1
338	9
339	3
340	2
341	1
410	24
411	67
412	27
413	17
414	5
415	1
