Mass spectrum: L-(-)-Malic acid; GC-EI-TOF; MS; 3 TMS; BP:147
Name: L-(-)-Malic acid
Class: Natural Product
Formula: C4H6O5
Exact mass: 134.02152
SMILES: OC(=O)CC(O)C(O)=O
InChI: InChI=1S/C4H6O5/c5-2(4(8)9)1-3(6)7/h2,5H,1H2,(H,6,7)(H,8,9)/t2-/m0/s1
Instrument: Pegasus III TOF-MS system, Leco; GC 6890, Agilent Technologies
Instrument type: GC-EI-TOF
Ms type: MS
Ion mode: POSITIVE
Column name: DB-17MS
Retention time: 714.863 sec
Base peak: 147
Derivative type: 3 TMS
m/z	relative intensity
83	4
84	5
85	11
86	2
87	9
88	2
89	5
93	6
95	2
97	1
98	1
99	15
100	2
101	159
102	19
103	23
104	3
105	8
106	1
107	1
113	3
114	1
115	20
116	22
117	75
118	10
119	16
120	2
121	1
127	1
128	1
129	20
130	2
131	63
132	12
133	195
134	28
135	20
136	2
137	1
141	1
142	1
143	45
144	8
145	10
146	3
147	999
148	161
149	96
150	11
151	12
152	2
153	1
155	1
157	3
159	3
161	2
162	1
163	3
171	43
172	6
173	7
175	81
176	15
177	30
178	5
179	2
185	4
186	1
187	1
189	142
190	108
191	90
192	21
193	7
194	1
201	1
203	10
204	5
205	5
206	1
207	4
208	1
209	1
215	1
216	1
217	42
218	10
219	6
220	1
221	21
222	6
223	3
229	1
231	2
232	2
233	265
234	52
235	26
236	3
237	1
244	1
245	116
246	26
247	18
248	3
249	1
259	1
260	3
261	1
263	32
264	12
265	40
266	12
267	5
268	1
291	1
292	1
293	1
305	9
306	15
307	39
308	20
309	8
310	2
319	14
320	4
321	2
334	1
335	35
336	10
337	5
338	1
