Mass spectrum: O-Phospho-L-serine; GC-EI-TOF; MS; x TMS; BP:147
Name: O-Phospho-L-serine
Class: Natural Product
Formula: C3H8NO6P
Exact mass: 185.00892
SMILES: N[C@@H](COP(O)(O)=O)C(O)=O
InChI: InChI=1S/C3H8NO6P/c4-2(3(5)6)1-10-11(7,8)9/h2H,1,4H2,(H,5,6)(H2,7,8,9)/t2-/m0/s1
Instrument: Pegasus III TOF-MS system, Leco; GC 6890, Agilent Technologies
Instrument type: GC-EI-TOF
Ms type: MS
Ion mode: POSITIVE
Column name: DB-17MS
Retention time: 857.062 sec
Base peak: 147
Derivative type: x TMS
m/z	relative intensity
82	10
83	7
84	36
85	62
86	94
87	58
88	57
89	45
90	12
91	19
92	6
93	10
94	3
95	8
96	5
97	10
98	66
99	50
100	680
101	118
102	58
103	74
104	15
105	43
106	6
107	20
109	16
111	2
112	21
113	36
114	509
115	336
116	530
117	126
118	30
119	59
120	16
121	42
123	27
125	6
126	4
127	2
128	13
129	68
130	41
131	105
132	76
133	529
134	108
135	210
136	29
137	69
138	9
139	10
140	2
141	1
142	34
143	17
144	238
145	46
146	33
147	999
148	241
149	141
150	20
151	51
152	8
153	13
154	3
155	1
156	7
157	3
158	21
159	16
160	8
161	8
162	4
163	20
164	5
165	27
166	4
167	28
168	3
170	1
171	1
172	62
173	19
174	16
175	5
177	21
178	12
179	24
180	8
181	64
182	24
183	39
184	15
185	3
186	4
187	4
188	252
189	95
190	41
191	76
192	16
193	81
194	24
195	111
196	19
197	18
198	7
199	4
200	1
201	4
202	9
203	8
204	5
205	15
206	10
207	124
208	37
209	37
210	19
211	356
212	89
213	50
214	11
215	4
216	319
217	83
218	282
219	55
220	34
221	11
222	3
223	6
224	2
225	117
226	41
227	87
228	14
229	7
230	10
231	21
232	336
233	90
234	40
235	4
236	11
237	2
238	3
239	5
240	3
241	27
242	6
243	17
244	3
246	1
248	1
251	2
252	20
253	9
254	6
255	9
257	5
261	2
262	2
263	2
266	2
267	1
268	16
269	19
270	8
271	3
272	3
273	1
274	1
280	1
282	2
283	20
284	15
285	30
286	9
287	2
288	1
295	1
298	8
299	252
300	111
301	67
302	14
303	5
309	2
311	1
312	2
313	4
315	71
316	19
317	16
318	4
319	1
320	2
325	1
326	2
328	13
329	18
330	6
331	2
332	1
341	5
342	4
343	3
344	1
351	1
355	9
359	9
360	2
361	2
365	1
368	4
369	4
371	3
374	4
378	1
385	1
387	5
388	1
389	3
390	1
391	1
395	1
402	1
403	1
406	1
414	1
417	1
430	16
431	9
432	6
433	1
456	1
457	2
458	43
459	23
460	16
461	4
462	1
466	1
