Mass spectrum: Ibuprofen; GC-EI-TOF; MS; 1 TMS; BP:160
Name: Ibuprofen
Class: Natural Product
Formula: C13H18O2
Exact mass: 206.13068
SMILES: CC(C)Cc(c1)ccc(c1)C(C)C(O)=O
InChI: InChI=1S/C13H18O2/c1-9(2)8-11-4-6-12(7-5-11)10(3)13(14)15/h4-7,9-10H,8H2,1-3H3,(H,14,15)
Instrument: Pegasus III TOF-MS system, Leco; GC 6890, Agilent Technologies
Instrument type: GC-EI-TOF
Ms type: MS
Ion mode: POSITIVE
Column name: DB-17MS
Retention time: 827.975 sec
Base peak: 160
Derivative type: 1 TMS
m/z	relative intensity
83	1
84	2
85	2
86	5
87	6
88	4
89	64
90	19
91	369
92	34
93	13
94	1
95	1
99	1
101	5
102	27
103	71
104	36
105	77
106	7
107	2
109	1
110	14
111	1
113	3
114	4
115	303
116	88
117	839
118	312
119	233
120	22
121	3
126	3
127	19
128	56
129	44
130	16
131	66
132	9
133	5
134	1
135	2
139	2
141	7
142	3
143	9
144	6
145	83
146	14
147	4
148	3
149	2
150	2
151	1
157	2
158	5
159	29
160	999
161	457
162	54
163	6
164	1
173	1
174	1
175	2
176	1
177	3
178	1
187	2
188	3
189	1
191	26
192	6
193	15
194	2
195	1
204	1
205	44
206	10
207	3
217	1
219	7
220	22
221	4
222	1
233	1
234	172
235	45
236	11
237	1
248	1
249	1
261	1
262	2
263	216
264	47
265	12
266	1
277	4
278	53
279	11
280	3
