Mass spectrum: L-(+)-Arginine; GC-EI-TOF; MS; 3 TMS; BP:157
Name: L-Arginine
Name: L-(+)-Arginine
Class: Natural Product
Formula: C6H14N4O2
Exact mass: 174.11168
SMILES: NC(=N)NCCC[C@H](N)C(O)=O
InChI: InChI=1S/C6H14N4O2/c7-4(5(11)12)2-1-3-10-6(8)9/h4H,1-3,7H2,(H,11,12)(H4,8,9,10)/t4-/m0/s1
Instrument: Pegasus III TOF-MS system, Leco; GC 6890, Agilent Technologies
Instrument type: GC-EI-TOF
Ms type: MS
Ion mode: POSITIVE
Column name: DB-17MS
Retention time: 873.263 sec
Base peak: 157
Derivative type: 3 TMS
m/z	relative intensity
82	14
83	43
84	162
85	83
86	53
87	22
88	10
89	6
90	38
91	4
92	5
93	10
94	3
95	18
96	13
97	15
98	55
99	187
100	249
101	48
102	32
103	45
104	6
105	7
106	1
107	1
108	1
109	2
110	10
111	11
112	27
113	34
114	58
115	106
116	26
117	35
118	8
119	10
120	2
121	5
122	5
123	2
124	10
125	20
126	22
127	76
128	67
129	35
130	45
131	50
132	44
133	63
134	11
135	5
136	1
137	1
138	2
139	27
140	86
141	217
142	437
143	75
144	33
145	6
146	7
147	179
148	37
149	19
150	4
151	4
152	10
153	8
154	29
155	55
156	57
157	999
158	157
159	63
160	10
161	2
162	1
163	2
165	1
166	5
167	19
168	28
169	13
170	21
171	97
172	76
173	28
174	14
175	4
176	1
182	4
183	6
184	17
185	8
186	9
187	33
188	16
189	7
190	4
191	2
194	1
195	1
196	3
197	2
198	7
199	4
200	3
201	1
202	8
203	3
204	7
205	1
206	1
211	1
212	2
213	6
214	5
215	21
216	33
217	13
218	40
219	10
220	4
221	1
224	2
225	1
226	1
227	1
228	2
229	2
230	4
231	10
232	4
233	1
240	17
241	7
242	5
243	5
244	32
245	12
246	5
247	1
254	3
255	5
256	323
257	77
258	32
259	12
260	3
261	1
268	7
269	3
270	1
283	3
284	3
330	4
331	2
358	6
359	2
372	1
373	11
374	4
375	1
