Mass spectrum: L-Glutamic acid; GC-EI-TOF; MS; 3 TMS; BP:246
Name: L-Glutamic acid
Class: Natural Product
Formula: C5H9NO4
Exact mass: 147.05316
SMILES: OC(=O)CC[C@H](N)C(O)=O
InChI: InChI=1S/C5H9NO4/c6-3(5(9)10)1-2-4(7)8/h3H,1-2,6H2,(H,7,8)(H,9,10)/t3-/m0/s1
Instrument: Pegasus III TOF-MS system, Leco; GC 6890, Agilent Technologies
Instrument type: GC-EI-TOF
Ms type: MS
Ion mode: POSITIVE
Column name: DB-17MS
Retention time: 779.962 sec
Base peak: 246
Derivative type: 3 TMS
m/z	relative intensity
82	15
83	19
84	412
85	50
86	33
87	16
88	9
89	11
90	4
91	2
92	3
93	5
94	2
95	6
96	5
97	5
98	23
99	20
100	176
101	39
102	20
103	33
104	4
105	7
106	1
107	1
108	1
110	5
111	2
112	26
113	25
114	43
115	38
116	18
117	30
118	6
119	11
120	1
121	1
124	1
125	1
126	6
127	3
128	550
129	123
130	51
131	53
132	36
133	108
134	18
135	12
136	1
139	1
140	52
141	9
142	8
143	7
144	8
145	5
146	5
147	415
148	76
149	100
150	14
151	7
152	1
153	1
154	6
155	7
156	345
157	60
158	65
159	13
160	6
161	3
162	2
163	4
164	1
168	3
169	1
170	2
171	1
172	7
173	3
174	16
175	3
176	3
177	3
178	1
182	1
183	1
184	2
185	1
186	5
187	2
188	5
189	5
190	3
191	2
192	1
193	1
194	1
196	1
198	2
199	1
200	2
201	1
202	12
203	9
204	32
205	8
206	4
207	2
208	1
213	1
214	11
215	5
216	7
217	2
218	40
219	11
220	4
221	12
222	3
223	2
228	1
229	2
230	115
231	29
232	14
233	2
244	4
245	16
246	999
247	210
248	90
249	13
250	2
258	24
259	5
260	3
272	1
273	2
274	10
275	3
276	2
320	8
321	3
322	1
332	1
347	2
348	38
349	12
350	5
351	1
362	1
363	14
364	5
365	2
