Mass spectrum: Harmaline; GC-EI-TOF; MS; 1 TMS; BP:174
Name: Harmaline
Class: Natural Product
Formula: C13H14N2O
Exact mass: 214.11061
SMILES: COc(c3)cc(=N1)c(c3)=C(C2)C(=C(C)NC2)1
InChI: InChI=1S/C13H14N2O/c1-8-13-11(5-6-14-8)10-4-3-9(16-2)7-12(10)15-13/h3-4,7,14H,5-6H2,1-2H3
Instrument: Pegasus III TOF-MS system, Leco; GC 6890, Agilent Technologies
Instrument type: GC-EI-TOF
Ms type: MS
Ion mode: POSITIVE
Column name: DB-17MS
Retention time: 1300.11 sec
Base peak: 174
Derivative type: 1 TMS
m/z	relative intensity
83	1
84	7
85	8
86	435
87	44
88	23
89	81
90	13
91	5
92	2
93	1
98	2
99	4
100	200
101	43
102	42
103	20
104	7
105	2
106	1
107	1
108	2
113	6
114	14
115	26
116	45
117	37
118	7
119	4
120	1
121	1
122	1
126	1
127	6
128	13
129	19
130	61
131	23
132	11
133	4
134	1
135	1
140	4
141	5
142	21
143	12
144	21
145	10
146	14
147	4
148	2
149	1
153	1
154	3
155	8
156	10
157	23
158	22
159	32
160	16
161	3
162	1
167	1
168	2
169	7
170	16
171	7
172	13
173	9
174	999
175	197
176	86
177	10
178	2
182	1
183	3
184	10
185	39
186	13
187	4
188	3
189	2
190	49
191	9
192	4
197	1
198	9
199	15
200	54
201	18
202	11
203	2
204	1
211	1
212	2
213	24
214	8
215	7
216	17
217	8
218	3
227	1
228	1
229	3
230	3
231	7
232	3
241	1
242	1
243	5
244	3
245	2
257	7
258	5
259	4
260	1
271	1
273	2
286	2
287	1
288	1
289	1
374	2
375	1
405	4
406	1
