Mass spectrum: GABA; GC-EI-TOF; MS; 3 TMS; BP:174
Name: 4-Aminobutyric acid
Name: GABA
Class: Natural Product
Formula: C4H9NO2
Exact mass: 103.06333
SMILES: NCCCC(O)=O
InChI: InChI=1S/C4H9NO2/c5-3-1-2-4(6)7/h1-3,5H2,(H,6,7)
Instrument: Pegasus III TOF-MS system, Leco; GC 6890, Agilent Technologies
Instrument type: GC-EI-TOF
Ms type: MS
Ion mode: POSITIVE
Column name: DB-17MS
Retention time: 716.713 sec
Base peak: 174
Derivative type: 3 TMS
m/z	relative intensity
82	7
83	7
84	27
85	35
86	456
87	59
88	23
89	12
90	1
91	1
92	1
93	1
95	1
96	2
97	5
98	21
99	36
100	258
101	56
102	39
103	21
104	4
105	7
106	1
110	3
111	2
112	24
113	21
114	42
115	36
116	39
117	57
118	11
119	15
120	2
121	1
124	3
125	1
126	6
127	3
128	17
129	24
130	98
131	81
132	25
133	115
134	17
135	9
136	1
137	1
139	1
140	28
141	5
142	105
143	107
144	32
145	13
146	39
147	579
148	93
149	52
150	6
151	2
154	2
155	1
156	33
157	11
158	17
159	4
160	4
161	2
168	1
170	5
171	2
172	45
173	10
174	999
175	192
176	86
177	10
178	2
186	4
187	3
188	3
189	2
190	1
198	2
200	5
201	1
202	1
203	1
204	3
205	2
214	20
215	5
216	92
217	18
218	8
219	6
220	2
221	1
228	1
230	8
231	2
232	2
246	36
247	8
248	3
288	1
303	6
304	173
305	51
306	25
307	4
308	1
