Mass spectrum: Eserine; GC-EI-TOF; MS; 1 TMS; BP:246
Name: Eserine
Class: Natural Product
Formula: C15H21N3O2
Exact mass: 275.16338
SMILES: CNC(=O)Oc(c3)cc(c(c3)1)C(C)(C2)C(N(C)C2)N(C)1
InChI: InChI=1S/C15H21N3O2/c1-15-7-8-17(3)13(15)18(4)12-6-5-10(9-11(12)15)20-14(19)16-2/h5-6,9,13H,7-8H2,1-4H3,(H,16,19)/t13-,15+/m1/s1
Instrument: Pegasus III TOF-MS system, Leco; GC 6890, Agilent Technologies
Instrument type: GC-EI-TOF
Ms type: MS
Ion mode: POSITIVE
Column name: DB-17MS
Retention time: 959.963 sec
Base peak: 246
Derivative type: 1 TMS
m/z	relative intensity
82	76
83	26
84	16
85	14
86	15
87	18
88	20
89	78
90	41
91	107
92	29
93	27
94	64
95	34
96	194
97	47
98	10
99	8
100	12
101	45
102	69
103	71
104	35
105	34
106	28
107	27
108	29
109	52
110	8
111	6
112	2
113	12
114	29
115	192
116	108
117	104
118	49
119	20
120	17
121	18
122	25
123	23
124	3
125	4
126	7
127	33
128	83
129	69
130	133
131	87
132	175
133	38
134	17
135	32
136	8
137	24
138	4
139	3
140	16
141	27
142	95
143	101
144	137
145	61
146	53
147	21
148	16
149	33
150	21
151	18
152	6
153	5
154	31
155	26
156	77
157	69
158	116
159	61
160	282
161	58
162	35
163	21
164	20
165	8
166	5
167	8
168	19
169	21
170	44
171	31
172	36
173	29
174	98
175	36
176	21
177	14
178	38
179	10
180	7
181	4
182	7
183	10
184	21
185	25
186	35
187	34
188	45
189	19
190	61
191	23
192	29
193	7
194	9
195	6
196	5
197	4
198	11
199	10
200	24
201	27
202	74
203	73
204	44
205	18
206	9
207	4
208	5
209	2
210	2
211	2
212	4
213	4
214	16
215	23
216	91
217	92
218	317
219	97
220	33
221	7
222	2
223	1
224	2
225	3
226	4
227	4
228	12
229	19
230	63
231	52
232	755
233	767
234	278
235	66
236	12
237	2
238	1
239	1
240	1
241	3
242	6
243	12
244	45
245	56
246	999
247	296
248	97
249	26
250	5
251	1
252	1
253	1
254	1
255	1
256	2
257	7
258	55
259	35
260	105
261	41
262	20
263	6
264	3
265	2
266	2
267	1
268	1
269	1
270	1
271	3
272	3
273	11
274	19
275	96
276	25
277	7
278	2
279	1
287	1
288	6
289	47
290	819
291	190
292	48
293	6
