Mass spectrum: beta-Alanine; GC-EI-TOF; MS; 3 TMS; BP:174
Name: beta-Alanine
Class: Natural Product
Formula: C3H7NO2
Exact mass: 89.04768
SMILES: NCCC(O)=O
InChI: InChI=1S/C3H7NO2/c4-2-1-3(5)6/h1-2,4H2,(H,5,6)
Instrument: Pegasus III TOF-MS system, Leco; GC 6890, Agilent Technologies
Instrument type: GC-EI-TOF
Ms type: MS
Ion mode: POSITIVE
Column name: DB-17MS
Retention time: 668.512 sec
Base peak: 174
Derivative type: 3 TMS
m/z	relative intensity
83	2
84	4
85	12
86	343
87	29
88	9
89	1
95	4
97	1
98	2
99	36
100	264
101	32
102	21
103	11
104	1
105	3
112	1
113	10
114	10
115	11
116	13
117	30
118	4
119	9
120	1
126	1
128	2
129	10
130	108
131	63
132	20
133	183
134	20
135	9
138	1
140	1
142	17
143	4
144	6
145	3
146	35
147	560
148	68
149	32
150	3
151	1
157	1
158	6
159	1
160	32
161	5
162	2
163	2
170	1
171	2
172	24
173	19
174	999
175	153
176	62
177	7
178	1
187	2
188	15
189	5
190	6
191	2
200	1
202	6
203	1
204	7
205	3
206	1
214	1
216	4
217	1
218	2
219	1
232	23
233	4
234	1
246	1
248	770
249	183
250	56
251	10
252	2
262	1
274	1
288	16
289	2
290	246
291	57
292	26
293	4
304	13
305	3
306	1
