Mass spectrum: alpha-Tocopherol; GC-EI-TOF; MS; 1 TMS; BP:237
Name: alpha-Tocopherol
Class: Natural Product
Formula: C29H50O2
Exact mass: 430.38108
SMILES: O(C(CCCC(C)CCCC(C)CCCC(C)C)1C)c(c(C)2)c(c(C)c(O)c2C)CC1
InChI: InChI=1S/C29H50O2/c1-20(2)12-9-13-21(3)14-10-15-22(4)16-11-18-29(8)19-17-26-25(7)27(30)23(5)24(6)28(26)31-29/h20-22,30H,9-19H2,1-8H3/t21-,22-,29-/m1/s1
Instrument: Pegasus III TOF-MS system, Leco; GC 6890, Agilent Technologies
Instrument type: GC-EI-TOF
Ms type: MS
Ion mode: POSITIVE
Column name: DB-17MS
Retention time: 1347.71 sec
Base peak: 237
Derivative type: 1 TMS
m/z	relative intensity
82	11
83	62
84	10
85	43
86	3
87	3
88	3
89	8
90	1
91	56
92	7
93	18
94	3
95	44
96	7
97	32
98	4
99	8
100	1
101	1
102	2
103	21
104	6
105	33
106	5
107	18
108	4
109	21
110	3
111	20
112	2
113	3
115	21
116	6
117	25
118	6
119	63
120	10
121	18
122	2
123	11
124	3
125	4
126	2
127	5
128	13
129	14
130	6
131	22
132	4
133	21
134	7
135	19
136	12
137	6
138	2
139	2
140	1
141	5
142	4
143	9
144	5
145	16
146	4
147	13
148	8
149	26
150	4
151	4
152	2
153	2
154	1
155	3
156	2
157	6
158	4
159	21
160	4
161	13
162	4
163	19
164	8
165	24
166	4
167	2
168	1
169	2
170	1
171	4
172	4
173	10
174	4
175	11
176	4
177	26
178	10
179	15
180	3
181	2
183	1
185	3
186	3
187	13
188	3
189	14
190	4
191	19
192	9
193	48
194	15
195	6
196	1
197	1
198	1
199	2
200	1
201	5
202	2
203	10
204	8
205	16
206	9
207	31
208	65
209	31
210	9
211	2
213	1
214	1
215	3
216	2
217	6
218	4
219	12
220	12
221	58
222	18
223	50
224	18
225	6
226	2
227	1
228	1
229	3
230	3
231	7
232	4
233	15
234	15
235	24
236	609
237	999
238	224
239	56
240	8
241	1
242	1
243	2
244	3
245	5
246	4
247	15
248	10
249	18
250	6
251	4
257	1
258	1
259	4
260	3
261	17
262	17
263	13
264	2
273	1
274	1
275	21
276	9
277	71
278	16
279	4
289	1
290	1
291	1
304	1
318	1
332	2
333	1
345	1
346	3
347	1
348	1
360	4
361	2
362	1
374	2
375	1
388	2
389	1
390	1
402	1
403	1
413	1
414	1
415	1
416	2
417	1
428	1
430	2
431	1
460	1
487	1
488	1
500	4
