Mass spectrum: N-Acetyl-D-mannosamine; GC-EI-TOF; MS; 4 TMS; BP:147
Name: N-Acetyl-D-mannosamine
Class: Natural Product
Formula: C8H15NO6
Exact mass: 221.08994
SMILES: OC[C@@H](O1)[C@@H](O)[C@H](O)[C@H](NC(C)=O)C(O)1
InChI: InChI=1S/C8H15NO6/c1-3(11)9-5-7(13)6(12)4(2-10)15-8(5)14/h4-8,10,12-14H,2H2,1H3,(H,9,11)/t4-,5+,6-,7-,8?/m1/s1
Instrument: Pegasus III TOF-MS system, Leco; GC 6890, Agilent Technologies
Instrument type: GC-EI-TOF
Ms type: MS
Ion mode: POSITIVE
Column name: DB-17MS
Retention time: 936.544 sec
Base peak: 147
Derivative type: 4 TMS
m/z	relative intensity
82	29
83	68
84	27
85	25
86	26
87	71
88	20
89	258
90	27
91	15
92	3
93	3
94	5
95	11
96	16
97	12
98	13
99	30
100	68
101	95
102	46
103	361
104	38
105	43
106	7
107	5
108	4
109	7
110	8
111	15
112	22
113	53
114	52
115	36
116	104
117	406
118	48
119	34
120	7
121	4
122	3
123	4
124	3
125	7
126	14
127	28
128	22
129	461
130	75
131	103
132	27
133	176
134	25
135	17
136	3
137	7
138	4
139	7
140	10
141	18
142	22
143	50
144	31
145	14
146	5
147	999
148	165
149	101
150	14
151	8
152	7
153	11
154	14
155	20
156	28
157	265
158	52
159	173
160	26
161	13
162	6
163	19
164	4
165	5
166	4
167	10
168	13
169	22
170	23
171	58
172	20
173	37
174	12
175	13
176	4
177	7
178	4
179	5
180	4
181	7
182	8
183	14
184	7
185	12
186	17
187	7
188	8
189	52
190	20
191	64
192	13
193	8
194	4
195	7
196	6
197	5
198	4
199	5
200	6
201	214
202	135
203	36
204	76
205	537
206	107
207	55
208	8
209	5
210	6
211	4
212	3
213	23
214	10
215	9
216	9
217	123
218	28
219	14
220	4
221	17
222	6
223	4
224	2
225	3
226	2
227	9
228	6
229	73
230	40
231	24
232	10
233	3
234	2
235	1
236	1
237	3
238	3
239	2
240	4
241	4
242	8
243	28
244	15
245	15
246	12
247	5
248	2
249	2
250	1
251	2
252	2
253	2
254	1
255	5
256	4
257	6
258	10
259	4
260	6
261	2
262	2
263	1
264	1
265	3
266	1
267	1
268	2
269	4
270	3
271	4
272	3
273	2
274	16
275	6
276	3
277	8
278	4
279	1
280	1
281	1
282	1
283	1
284	4
285	5
286	3
287	2
288	1
289	1
290	2
291	13
292	5
293	3
294	2
295	1
296	1
297	2
299	1
300	3
301	2
302	2
303	5
304	3
305	11
306	4
307	4
308	2
309	2
310	3
311	2
312	1
313	1
314	1
315	15
316	4
317	3
318	27
319	312
320	98
321	46
322	9
323	2
324	1
327	1
330	1
331	1
332	3
333	2
334	1
336	1
338	1
339	1
340	1
341	2
342	2
343	1
344	2
345	1
346	1
347	1
348	1
355	1
357	1
358	1
359	1
360	1
361	1
362	1
363	1
371	1
372	1
373	1
374	2
375	1
376	1
377	1
383	1
384	1
385	1
386	1
387	1
388	1
390	1
394	1
398	1
399	2
400	1
404	1
405	3
417	1
431	1
489	1
490	1
