Mass spectrum: Cadaverine; GC-EI-TOF; MS; 4 TMS; BP:174
Name: Cadaverine
Class: Natural Product
Formula: C5H14N2
Exact mass: 102.11570
SMILES: NCCCCCN
InChI: InChI=1S/C5H14N2/c6-4-2-1-3-5-7/h1-7H2
Instrument: Pegasus III TOF-MS system, Leco; GC 6890, Agilent Technologies
Instrument type: GC-EI-TOF
Ms type: MS
Ion mode: POSITIVE
Column name: DB-17MS
Retention time: 818.563 sec
Base peak: 174
Derivative type: 4 TMS
m/z	relative intensity
84	2
85	7
86	188
87	6
88	28
97	1
98	2
99	6
100	100
101	5
102	16
112	40
113	4
114	12
115	5
116	5
117	4
118	1
124	2
126	9
127	1
128	8
129	2
130	52
131	18
132	12
138	3
139	1
140	17
141	2
142	4
143	3
144	4
145	2
146	22
147	3
154	10
155	2
156	9
157	1
158	19
159	2
160	25
161	3
162	1
170	2
171	1
172	18
173	3
174	999
175	112
176	47
177	4
180	3
184	4
185	1
186	35
187	7
188	8
189	2
198	5
199	1
200	29
201	6
202	4
204	1
212	6
213	5
214	11
215	1
216	11
217	1
218	1
227	2
228	6
229	28
230	7
231	2
244	1
374	4
375	28
376	8
377	2
378	1
379	2
391	1
