Mass spectrum: D-(-)-Ribose; GC-EI-TOF; MS; 4 TMS; BP:103
Name: D-(-)-Ribose
Class: Natural Product
Formula: C5H10O5
Exact mass: 150.05282
SMILES: OC[C@@H](O1)[C@@H](O)[C@@H](O)C(O)1
InChI: InChI=1S/C5H10O5/c6-1-2-3(7)4(8)5(9)10-2/h2-9H,1H2/t2-,3-,4-,5?/m1/s1
Instrument: Pegasus III TOF-MS system, Leco; GC 6890, Agilent Technologies
Instrument type: GC-EI-TOF
Ms type: MS
Ion mode: POSITIVE
Column name: DB-17MS
Retention time: 1329.37 sec
Base peak: 103
Derivative type: 4 TMS
m/z	relative intensity
82	2
83	2
84	7
85	7
86	4
87	9
88	8
89	129
90	11
91	6
94	2
97	1
98	1
99	9
100	59
101	48
102	23
103	999
104	86
105	47
106	3
107	1
111	3
112	1
113	7
114	2
115	11
116	11
117	82
118	10
119	15
120	2
126	4
127	4
128	2
129	98
130	19
131	45
132	7
133	89
134	13
135	8
136	1
141	1
142	3
143	15
144	2
145	6
146	1
147	266
148	43
149	26
150	3
151	2
157	8
158	3
159	3
160	49
161	15
162	3
163	10
164	1
165	1
172	5
173	4
174	7
175	7
176	1
177	5
178	1
186	1
187	1
188	2
189	66
190	14
191	18
192	3
193	1
200	2
201	6
202	1
203	7
204	23
205	33
206	7
207	5
214	4
215	2
217	326
218	66
219	28
220	4
221	7
222	1
229	1
230	1
231	4
232	2
233	25
234	7
235	3
240	3
246	1
248	2
256	2
261	1
262	7
263	1
274	1
277	25
278	9
279	3
280	1
291	4
292	1
305	1
306	4
307	89
308	26
309	13
310	2
319	1
