Mass spectrum: L-(-)-Proline; GC-EI-TOF; MS; 2 TMS; BP:142
Name: L-Proline
Name: L-(-)-Proline
Class: Natural Product
Formula: C5H9NO2
Exact mass: 115.06333
SMILES: OC(=O)C([H])(C1)NCC1
InChI: InChI=1S/C5H9NO2/c7-5(8)4-2-1-3-6-4/h4,6H,1-3H2,(H,7,8)/t4-/m0/s1
Instrument: Pegasus III TOF-MS system, Leco; GC 6890, Agilent Technologies
Instrument type: GC-EI-TOF
Ms type: MS
Ion mode: POSITIVE
Column name: DB-17MS
Retention time: 821.341 sec
Base peak: 142
Derivative type: 2 TMS
m/z	relative intensity
82	5
83	7
84	25
85	17
86	22
87	9
88	7
89	4
90	1
92	1
93	4
94	2
95	3
96	10
97	6
98	18
99	59
100	37
101	17
102	9
103	6
104	1
105	4
106	1
107	3
108	1
110	3
111	2
112	4
113	14
114	5
115	14
116	10
117	38
118	6
119	6
120	2
121	1
122	1
123	1
124	4
125	2
126	17
127	2
128	6
130	2
131	23
132	6
133	43
134	7
135	4
136	2
137	4
138	1
139	1
140	12
141	7
142	999
143	148
144	46
145	5
146	2
147	251
148	42
149	22
150	2
152	1
154	2
156	1
158	2
159	3
160	1
161	1
166	1
167	1
168	1
169	1
170	21
171	5
172	4
173	1
174	2
176	1
184	2
185	4
186	585
187	85
188	27
190	1
198	2
199	1
200	1
213	3
214	2
215	1
216	165
217	32
218	14
219	2
244	9
245	2
246	1
260	2
261	1
287	5
288	54
289	13
290	5
291	1
302	1
303	4
304	1
