Mass spectrum: Urocanic acid; GC-EI-TOF; MS; 2 TMS; BP:147
Name: Urocanic acid
Class: Natural Product
Formula: C6H6N2O2
Exact mass: 138.04293
SMILES: C1=C(NC=N1)C=CC(=O)O
InChI: InChI=1S/C6H6N2O2/c9-6(10)2-1-5-3-7-4-8-5/h1-4H,(H,7,8)(H,9,10)/b2-1+
Instrument: Pegasus III TOF-MS system, Leco; GC 6890, Agilent Technologies
Instrument type: GC-EI-TOF
Ms type: MS
Ion mode: POSITIVE
Column name: DB-17MS
Retention time: 1019.08 sec
Base peak: 147
Derivative type: 2 TMS
m/z	relative intensity
82	44
83	56
84	111
85	48
86	27
87	20
88	4
89	20
90	4
91	11
92	126
93	110
94	79
95	62
96	54
97	30
98	54
99	25
100	37
101	15
102	12
103	26
104	7
105	21
106	29
107	27
108	48
109	46
110	27
111	30
112	15
113	12
114	3
115	12
116	8
117	20
118	10
119	18
120	134
121	104
122	67
123	35
124	61
125	22
126	22
127	7
128	6
129	6
130	6
131	49
132	12
133	36
134	14
135	202
136	68
137	37
138	21
139	50
140	13
141	7
142	5
143	7
144	4
145	2
146	4
147	999
148	169
149	111
150	43
151	168
152	140
153	41
154	53
155	16
156	10
157	6
158	10
159	3
160	1
161	3
162	2
163	37
164	46
165	497
166	166
167	60
168	13
169	6
170	3
171	4
172	2
173	5
174	1
175	2
176	1
177	9
178	5
179	35
180	387
181	64
182	23
183	19
184	4
185	2
186	1
191	11
192	4
193	720
194	169
195	84
196	17
197	7
198	3
199	2
200	1
201	1
202	1
205	2
206	10
207	12
208	9
209	8
210	21
211	7
212	3
213	4
214	1
215	1
221	2
222	2
223	99
224	27
225	22
226	11
227	3
228	1
235	1
236	3
237	103
238	37
239	97
240	27
241	10
242	2
251	1
252	2
253	18
254	14
255	6
256	2
265	1
266	15
267	864
268	211
269	84
270	13
271	3
272	1
273	1
274	1
275	1
276	1
277	1
278	1
280	1
281	41
282	318
283	79
284	30
285	5
286	1
