Mass spectrum: Uridine; GC-EI-TOF; MS; 3 TMS; BP:217
Name: Uridine
Class: Natural Product
Formula: C9H12N2O6
Exact mass: 244.06954
SMILES: OC[C@@H](O1)[C@@H](O)[C@@H](O)[C@@H]1N(C=2)C(=O)NC(=O)C2
InChI: InChI=1S/C9H12N2O6/c12-3-4-6(14)7(15)8(17-4)11-2-1-5(13)10-9(11)16/h1-2,4,6-8,12,14-15H,3H2,(H,10,13,16)/t4-,6-,7-,8-/m1/s1
Instrument: Pegasus III TOF-MS system, Leco; GC 6890, Agilent Technologies
Instrument type: GC-EI-TOF
Ms type: MS
Ion mode: POSITIVE
Column name: DB-17MS
Retention time: 1137.76 sec
Base peak: 217
Derivative type: 3 TMS
m/z	relative intensity
82	41
83	28
84	23
85	63
86	36
87	34
88	12
89	85
90	10
91	5
92	8
93	5
94	12
95	18
96	51
97	42
98	35
99	378
100	233
101	169
102	75
103	467
104	48
105	31
106	5
107	3
108	7
109	15
110	16
111	45
112	22
113	105
114	23
115	104
116	65
117	145
118	18
119	32
120	8
121	4
122	4
123	5
124	13
125	18
126	68
127	44
128	19
129	242
130	68
131	131
132	28
133	238
134	35
135	28
136	6
137	4
138	13
139	10
140	56
141	38
142	41
143	143
144	25
145	67
146	10
147	881
148	186
149	130
150	22
151	11
152	8
153	84
154	36
155	38
156	26
157	48
158	12
159	19
160	5
161	6
162	2
163	23
164	4
165	3
166	6
167	94
168	109
169	601
170	95
171	61
172	9
173	16
174	16
175	12
176	3
177	14
178	3
179	3
180	3
181	7
182	9
183	60
184	22
185	115
186	18
187	10
188	3
189	31
190	8
191	85
192	19
193	14
194	4
195	5
196	135
197	27
198	9
199	6
200	2
201	10
202	6
203	28
204	25
205	10
206	3
207	9
208	5
209	25
210	8
211	6
212	3
213	9
214	4
215	67
216	25
217	999
218	290
219	108
220	20
221	11
222	4
223	8
224	400
225	74
226	24
227	8
228	3
229	17
230	70
231	35
232	12
233	4
234	1
235	3
236	2
237	3
238	3
239	7
240	10
241	320
242	82
243	447
244	117
245	534
246	119
247	49
248	9
249	4
250	2
251	3
252	3
253	3
254	3
255	44
256	38
257	349
258	461
259	218
260	64
261	20
262	4
263	11
264	2
265	1
267	1
268	1
269	4
270	5
271	3
272	2
273	1
274	1
275	1
276	1
281	1
282	2
283	20
284	8
285	31
286	30
287	14
288	5
289	2
290	1
291	2
292	1
296	1
297	3
298	4
299	23
300	6
301	3
303	1
304	1
305	1
309	2
310	4
311	24
312	8
313	22
314	47
315	165
316	43
317	17
318	5
319	5
320	3
321	1
322	1
323	9
324	3
325	2
326	2
327	2
328	1
329	4
330	4
331	4
332	1
333	4
334	1
337	4
338	2
339	11
340	2
341	1
347	7
348	60
349	20
350	9
351	3
352	5
353	2
358	1
359	2
370	4
371	16
372	7
373	3
374	1
385	1
386	7
387	14
388	5
389	1
399	1
400	1
401	5
402	1
413	1
414	4
415	3
416	1
427	3
428	2
429	4
430	1
441	1
442	5
443	2
444	1
