Mass spectrum: Linolenic acid; GC-EI-TOF; MS; 1 TMS; BP:93
Name: Linolenic acid
Class: Natural Product
Formula: C18H30O2
Exact mass: 278.22458
SMILES: CCC=CCC=CCC=CCCCCCCCC(O)=O
InChI: InChI=1S/C18H30O2/c1-2-3-4-5-6-7-8-9-10-11-12-13-14-15-16-17-18(19)20/h3-4,6-7,9-10H,2,5,8,11-17H2,1H3,(H,19,20)/b4-3-,7-6-,10-9-
Instrument: Pegasus III TOF-MS system, Leco; GC 6890, Agilent Technologies
Instrument type: GC-EI-TOF
Ms type: MS
Ion mode: POSITIVE
Column name: DB-17MS
Retention time: 1030.36 sec
Base peak: 93
Derivative type: 1 TMS
m/z	relative intensity
82	177
83	157
84	31
85	60
86	5
87	243
88	24
89	15
90	6
91	719
92	147
93	999
94	459
95	857
96	144
97	116
98	29
99	30
100	5
101	71
102	13
103	41
104	25
105	246
106	82
107	486
108	663
109	247
110	46
111	47
112	8
113	12
114	5
115	78
116	18
117	90
118	19
119	121
120	54
121	363
122	217
123	88
124	16
125	20
126	4
127	13
128	15
129	56
130	12
131	90
132	18
133	76
134	33
135	245
136	169
137	41
138	7
139	9
140	6
141	15
142	3
143	37
144	9
145	35
146	11
147	63
148	20
149	173
150	87
151	18
152	3
153	6
154	7
155	5
156	1
157	20
158	5
159	16
160	7
161	32
162	19
163	62
164	43
165	10
166	3
167	6
168	8
169	2
170	1
171	14
172	4
173	59
174	10
175	29
176	8
177	18
178	18
179	5
180	3
181	6
182	4
183	1
185	9
186	3
187	7
188	2
189	13
190	4
191	29
192	12
193	5
194	3
195	3
196	3
197	1
199	6
200	1
201	2
203	9
204	5
205	4
206	3
207	5
208	3
209	2
210	3
211	1
213	4
214	1
216	1
217	9
218	3
219	1
221	3
222	3
223	8
224	4
225	1
231	5
232	2
233	1
235	5
236	31
237	6
238	3
243	2
249	7
250	3
251	1
260	1
261	17
262	3
263	12
264	3
292	18
293	3
