Mass spectrum: Cysteamine; GC-EI-TOF; MS; 3 TMS; BP:174
Name: Cysteamine
Class: Natural Product
Formula: C2H7NS
Exact mass: 77.02992
SMILES: NCCS
InChI: InChI=1S/C2H7NS/c3-1-2-4/h4H,1-3H2
Instrument: Pegasus III TOF-MS system, Leco; GC 6890, Agilent Technologies
Instrument type: GC-EI-TOF
Ms type: MS
Ion mode: POSITIVE
Column name: DB-17MS
Retention time: 1000.28 sec
Base peak: 174
Derivative type: 3 TMS
m/z	relative intensity
82	2
83	4
84	11
85	16
86	362
87	37
88	18
89	7
90	3
91	20
92	2
93	3
95	2
97	1
98	16
99	13
100	401
101	58
102	37
103	7
104	5
105	22
106	2
107	2
110	1
112	1
113	16
114	62
115	22
116	87
117	20
118	30
119	10
120	3
121	1
128	2
129	8
130	142
131	38
132	48
133	12
134	8
135	1
142	3
143	2
144	9
145	1
146	27
147	13
148	26
149	11
150	5
151	1
152	1
157	1
158	13
159	3
160	1
161	1
162	1
163	2
170	2
171	1
172	119
173	26
174	999
175	209
176	90
177	14
178	4
186	1
187	7
188	74
189	11
190	93
191	15
192	11
193	1
194	1
202	1
204	20
205	13
206	7
207	2
219	4
220	29
221	7
222	4
