Mass spectrum: Citric acid; GC-EI-TOF; MS; 4 TMS; BP:147
Name: Citric acid
Class: Natural Product
Formula: C6H8O7
Exact mass: 192.02700
SMILES: OC(=O)CC(O)(CC(O)=O)C(O)=O
InChI: InChI=1S/C6H8O7/c7-3(8)1-6(13,5(11)12)2-4(9)10/h13H,1-2H2,(H,7,8)(H,9,10)(H,11,12)
Instrument: Pegasus III TOF-MS system, Leco; GC 6890, Agilent Technologies
Instrument type: GC-EI-TOF
Ms type: MS
Ion mode: POSITIVE
Column name: DB-17MS
Retention time: 863.287 sec
Base peak: 147
Derivative type: 4 TMS
m/z	relative intensity
82	4
83	9
84	12
85	15
86	5
87	17
88	9
89	12
90	3
91	3
92	3
93	22
94	3
95	21
96	5
97	25
98	6
99	69
100	9
101	24
102	7
103	34
104	6
105	11
106	2
107	2
108	1
109	1
110	1
111	35
112	4
113	14
114	5
115	85
116	35
117	62
118	9
119	19
120	2
121	3
123	1
124	1
125	2
126	2
127	5
128	2
129	136
130	17
131	106
132	21
133	180
134	30
135	24
136	2
137	1
138	1
139	18
140	3
141	32
142	6
143	69
144	10
145	10
146	4
147	999
148	165
149	187
150	26
151	16
152	2
153	1
154	1
155	4
156	3
157	24
158	4
159	7
160	1
161	4
162	2
163	21
164	3
165	2
169	12
170	3
171	15
172	4
173	7
174	2
175	4
176	1
177	3
183	152
184	26
185	40
186	5
187	3
188	1
189	13
190	10
191	15
192	3
193	4
194	1
195	1
197	1
199	1
200	1
201	9
202	1
203	2
204	6
205	7
206	2
207	19
208	4
209	3
210	1
211	129
212	24
213	28
214	4
215	25
216	5
217	41
218	9
219	7
220	1
221	69
222	18
223	10
224	2
225	1
227	1
228	1
229	25
230	8
231	38
232	8
233	5
234	1
235	1
237	1
241	2
243	4
244	4
245	5
246	2
247	1
248	1
256	5
257	100
258	25
259	23
260	5
261	2
271	1
272	19
273	404
274	113
275	57
276	11
277	2
278	1
284	2
285	15
286	4
287	5
288	1
291	1
300	2
301	5
302	3
303	11
304	8
305	16
306	7
307	3
308	1
317	1
318	1
319	5
320	2
321	1
322	1
331	4
332	3
333	5
334	2
335	2
346	20
347	70
348	23
349	12
350	4
351	1
362	13
363	13
364	2
365	1
374	24
375	49
376	19
377	9
378	2
464	13
