Mass spectrum: D-(+)-Maltose; GC-EI-TOF; MS; 8 TMS; BP:204
Name: D-(+)-Maltose
Class: Natural Product
Formula: C12H22O11
Exact mass: 342.11621
SMILES: OC[C@@H](O1)[C@@H](O)[C@H](O)[C@@H](O)[C@H]1O[C@H]([C@@H](CO)2)[C@H](O)[C@@H](O)C(O)O2
InChI: InChI=1S/C12H22O11/c13-1-3-5(15)6(16)9(19)12(22-3)23-10-4(2-14)21-11(20)8(18)7(10)17/h3-20H,1-2H2/t3-,4-,5-,6+,7-,8-,9-,10-,11?,12-/m1/s1
Instrument: Pegasus III TOF-MS system, Leco; GC 6890, Agilent Technologies
Instrument type: GC-EI-TOF
Ms type: MS
Ion mode: POSITIVE
Column name: DB-17MS
Retention time: 1130.01 sec
Base peak: 204
Derivative type: 8 TMS
m/z	relative intensity
82	8
83	6
85	10
86	5
87	7
88	5
89	86
90	6
91	2
95	1
97	10
98	3
99	9
100	27
101	34
102	24
103	406
104	38
105	43
106	4
107	2
108	1
109	8
110	4
111	4
112	3
113	16
114	17
115	17
116	17
117	215
118	24
119	13
120	2
121	1
123	1
124	1
125	2
126	4
127	12
128	10
129	333
130	57
131	66
132	11
133	88
134	15
135	8
136	1
137	1
138	2
139	5
140	4
141	11
142	17
143	70
144	13
145	34
146	8
147	993
148	129
149	96
150	11
151	5
152	4
153	8
154	5
155	41
156	12
157	65
158	18
159	13
160	129
161	33
162	10
163	26
164	6
165	3
166	2
167	4
168	8
169	165
170	29
171	17
172	7
173	18
174	8
175	10
176	3
177	8
178	2
179	2
180	3
181	4
182	2
183	9
184	4
185	6
186	9
187	8
188	4
189	76
190	27
191	134
192	25
193	11
194	3
195	3
196	3
197	2
198	4
199	7
200	4
201	8
202	6
203	39
204	999
205	417
206	133
207	41
208	8
209	3
210	21
211	6
212	4
213	2
214	5
215	19
216	34
217	654
218	137
219	77
220	14
221	33
222	8
223	6
224	2
225	1
226	2
227	8
228	7
229	48
230	27
231	82
232	26
233	37
234	17
235	7
236	2
237	2
238	1
239	2
240	6
241	15
242	11
243	133
244	50
245	43
246	18
247	22
248	7
249	3
250	1
251	1
252	1
253	2
254	4
255	7
256	11
257	15
258	6
259	20
260	8
261	6
262	13
263	6
264	2
265	8
266	3
267	2
268	9
269	15
270	10
271	145
272	39
273	21
274	15
275	8
276	9
277	4
278	4
279	2
280	1
281	1
282	1
283	1
284	1
285	2
286	3
287	2
288	2
289	3
290	2
291	15
292	7
293	5
294	2
295	1
296	1
297	1
298	1
299	1
300	22
301	10
302	5
303	3
304	6
305	25
306	14
307	11
308	4
309	2
310	1
311	1
312	1
313	1
314	1
315	1
316	2
317	12
318	10
319	160
320	81
321	34
322	11
323	3
324	1
325	1
328	1
329	1
330	1
331	30
332	30
333	19
334	8
335	3
336	2
337	1
338	1
342	1
343	3
344	3
345	7
346	7
347	3
348	2
349	1
358	1
359	3
361	545
362	211
363	129
364	36
365	12
366	3
367	1
373	6
374	5
375	2
376	3
377	5
378	2
379	2
385	1
387	1
389	1
390	8
391	3
392	2
393	2
405	1
406	1
407	1
409	3
410	1
411	1
421	1
422	1
427	1
433	1
434	1
435	3
436	2
437	1
448	2
449	3
450	4
451	18
452	10
453	5
454	1
463	4
464	5
465	3
466	1
467	1
475	1
476	1
478	1
479	3
480	41
481	23
482	12
483	4
484	1
