Mass spectrum: Palmitic acid; GC-EI-TOF; MS; 1 TMS; BP:117
Name: Palmitic acid
Class: Natural Product
Formula: C16H32O2
Exact mass: 256.24023
SMILES: CCCCCCCCCCCCCCCC(O)=O
InChI: InChI=1S/C16H32O2/c1-2-3-4-5-6-7-8-9-10-11-12-13-14-15-16(17)18/h2-15H2,1H3,(H,17,18)
Instrument: Pegasus III TOF-MS system, Leco; GC 6890, Agilent Technologies
Instrument type: GC-EI-TOF
Ms type: MS
Ion mode: POSITIVE
Column name: DB-17MS
Retention time: 956.462 sec
Base peak: 117
Derivative type: 1 TMS
m/z	relative intensity
82	1
83	48
84	18
85	18
86	14
89	7
90	5
91	1
92	1
93	9
94	2
95	47
96	4
97	37
98	35
99	23
100	3
103	2
105	34
106	9
107	14
108	2
109	13
111	17
112	11
113	6
114	3
115	1
116	59
117	999
118	99
119	41
120	4
121	4
122	2
123	8
124	3
125	6
126	5
128	3
129	443
130	53
131	146
132	334
133	68
134	18
135	7
136	2
137	2
138	2
139	1
140	3
141	3
142	2
143	23
144	7
145	197
146	27
147	6
148	1
149	1
150	2
151	2
152	1
153	5
154	3
155	5
156	1
157	3
158	4
159	22
160	3
161	3
162	3
163	3
164	1
165	3
166	3
167	2
168	4
169	3
170	2
171	16
172	3
173	9
174	5
175	2
176	1
177	2
178	1
179	2
181	1
183	3
184	3
185	21
186	4
187	14
188	7
189	2
190	2
191	2
193	2
194	2
195	6
196	2
197	1
198	2
199	2
200	2
201	32
202	8
203	4
204	2
206	1
207	1
208	1
209	1
210	2
211	2
212	2
213	3
214	6
215	5
216	4
217	1
218	1
220	2
223	1
224	1
225	2
226	1
227	4
228	1
229	7
230	1
231	1
232	1
233	1
237	3
238	3
240	2
241	3
243	5
244	2
246	1
250	2
252	1
253	1
254	1
255	2
256	1
257	4
258	3
260	2
263	1
265	1
266	3
268	2
269	8
270	1
271	4
273	1
274	2
275	2
277	2
278	2
279	2
280	1
281	1
283	4
284	1
285	6
286	2
287	2
288	1
289	1
291	2
292	1
293	1
294	1
295	2
296	1
297	1
299	1
300	1
301	1
304	1
305	1
306	1
307	3
309	1
311	1
312	9
313	140
314	40
315	10
316	3
317	2
318	1
319	2
320	1
321	3
323	2
324	1
325	2
326	3
328	9
329	1
330	2
331	2
332	2
333	1
334	2
337	2
339	2
340	1
341	3
342	1
344	1
345	3
346	2
347	1
349	2
350	2
351	1
352	1
353	2
355	3
356	1
358	2
359	1
361	4
362	2
365	2
366	1
368	2
371	1
374	4
376	1
377	1
378	1
379	2
380	2
381	1
382	1
383	2
384	2
385	1
386	2
387	2
388	2
389	3
390	1
391	1
392	1
394	2
395	1
396	2
397	1
398	1
400	3
401	1
402	2
406	1
407	1
408	1
410	2
411	1
413	2
417	2
418	1
420	2
423	2
425	1
426	1
429	1
430	1
431	1
432	2
433	2
434	1
435	2
438	1
441	2
442	2
443	1
444	2
445	1
446	2
448	1
450	1
451	2
452	1
457	1
460	2
461	1
462	2
470	3
472	2
473	1
475	1
476	1
478	1
481	2
482	2
485	2
488	1
489	1
490	1
491	2
494	2
496	2
497	1
498	1
500	1
