Mass spectrum: D-(-)-Fructose; GC-EI-TOF; MS; 5 TMS; BP:103
Name: D-(-)-Fructose
Class: Natural Product
Formula: C6H12O6
Exact mass: 180.06339
SMILES: OC[C@@H](O)[C@@H](O)[C@H](O)C(=O)CO
InChI: InChI=1S/C6H12O6/c7-1-3(9)5(11)6(12)4(10)2-8/h3,5-9,11-12H,1-2H2/t3-,5-,6-/m1/s1
Instrument: Pegasus III TOF-MS system, Leco; GC 6890, Agilent Technologies
Instrument type: GC-EI-TOF
Ms type: MS
Ion mode: POSITIVE
Column name: DB-17MS
Retention time: 841.062 sec
Base peak: 103
Derivative type: 5 TMS
m/z	relative intensity
82	6
83	3
84	73
85	13
86	6
87	15
88	14
89	160
90	15
91	7
92	1
94	1
96	1
97	1
98	4
99	8
100	23
101	41
102	12
103	999
104	105
105	49
106	3
107	1
110	1
111	3
112	2
113	12
114	57
115	20
116	16
117	139
118	17
119	21
120	2
121	1
125	1
126	7
127	4
128	8
129	93
130	19
131	54
132	9
133	159
134	21
135	11
136	1
140	2
141	2
142	9
143	16
144	4
145	10
146	3
147	415
148	70
149	43
150	5
151	2
152	1
154	2
155	1
156	4
157	15
158	6
159	5
160	2
161	3
162	1
163	17
164	3
165	1
166	1
168	2
169	1
170	1
171	1
172	32
173	31
174	8
175	12
176	2
177	7
178	1
179	1
180	2
182	1
184	1
185	1
186	3
187	2
188	5
189	59
190	13
191	30
192	5
193	3
198	1
200	3
201	14
202	10
203	7
204	31
205	46
206	10
207	10
208	2
214	4
215	2
216	8
217	395
218	89
219	40
220	6
221	11
222	2
223	1
228	1
229	2
230	5
231	10
232	3
233	2
235	3
240	1
242	2
243	1
244	5
245	2
246	2
247	2
248	1
254	1
256	5
257	1
258	1
260	6
261	2
262	7
263	9
264	2
265	1
270	1
274	1
275	1
276	3
277	32
278	12
279	5
280	1
288	2
291	7
292	2
293	1
302	2
303	1
304	1
305	2
306	3
307	141
308	43
309	22
310	4
311	1
318	2
319	2
330	2
332	1
333	3
334	4
335	7
336	2
337	1
350	1
364	17
365	5
366	2
