Mass spectrum: Isopentenyladenosine; GC-EI-TOF; MS; 3 TMS; BP:160
Name: N-6-(delta-2-Isopentenyl)adenosine
Name: Isopentenyladenosine
Class: Natural Product
Formula: C15H21N5O4
Exact mass: 335.15935
SMILES: CC(C)=CCNc(n3)c(n2)c(nc3)n(c2)C(O1)C(O)C(O)C(CO)1
InChI: InChI=1S/C15H21N5O4/c1-8(2)3-4-16-13-10-14(18-6-17-13)20(7-19-10)15-12(23)11(22)9(5-21)24-15/h3,6-7,9,11-12,15,21-23H,4-5H2,1-2H3,(H,16,17,18)/t9-,11-,12-,15-/m1/s1
Instrument: Pegasus III TOF-MS system, Leco; GC 6890, Agilent Technologies
Instrument type: GC-EI-TOF
Ms type: MS
Ion mode: POSITIVE
Column name: DB-17MS
Retention time: 1316.76 sec
Base peak: 160
Derivative type: 3 TMS
m/z	relative intensity
82	27
83	20
84	115
85	41
86	15
87	28
88	12
89	77
90	10
91	10
92	31
93	46
94	40
95	16
96	6
97	37
98	12
99	50
100	14
101	136
102	25
103	852
104	90
105	58
106	22
107	15
108	79
109	21
110	5
111	34
112	9
113	53
114	11
115	186
116	59
117	137
118	27
119	133
120	52
121	34
122	6
123	8
124	4
125	10
126	8
127	28
128	7
129	199
130	29
131	104
132	31
133	187
134	51
135	236
136	171
137	18
138	8
139	4
140	8
141	27
142	21
143	94
144	25
145	45
146	25
147	540
148	163
149	82
150	17
151	12
152	6
153	29
154	7
155	12
156	10
157	50
158	22
159	50
160	999
161	137
162	24
163	16
164	152
165	30
166	9
167	7
168	5
169	133
170	24
171	32
172	20
173	34
174	30
175	49
176	42
177	15
178	10
179	8
180	5
181	4
182	2
183	3
184	4
185	81
186	42
187	32
188	347
189	104
190	22
191	34
192	54
193	15
194	10
195	4
196	3
197	3
198	5
199	4
200	14
201	15
202	367
203	527
204	222
205	38
206	45
207	26
208	32
209	8
210	4
211	2
212	2
213	2
214	17
215	18
216	12
217	296
218	72
219	44
220	20
221	10
222	5
223	3
224	2
225	1
226	2
227	2
228	4
229	17
230	536
231	145
232	789
233	129
234	52
235	11
236	8
237	2
238	1
239	1
241	1
242	4
243	157
244	44
245	302
246	69
247	33
248	12
249	8
250	20
251	5
252	2
255	1
256	1
257	14
258	22
259	109
260	55
261	20
262	31
263	7
264	4
265	5
266	4
267	1
268	1
272	1
273	3
274	73
275	35
276	64
277	15
278	6
279	1
280	1
282	1
285	1
286	2
287	2
288	6
289	4
290	13
291	8
292	3
293	1
294	1
299	2
300	1
301	2
302	22
303	6
304	7
305	3
306	4
307	2
308	1
314	1
315	1
316	6
317	7
318	47
319	13
320	10
321	3
322	5
323	1
330	6
331	2
332	2
333	15
334	5
335	1
336	1
342	1
344	1
346	2
347	2
348	12
349	4
350	3
351	1
356	1
358	1
362	1
371	1
372	4
373	1
374	1
376	1
377	1
378	1
380	1
388	1
389	1
390	4
391	2
392	1
418	2
419	2
420	5
421	2
422	1
446	3
447	1
448	4
449	1
461	1
462	1
463	1
483	1
484	1
