Mass spectrum: Fusaric acid; GC-EI-TOF; MS; 1 TMS; BP:236
Name: Fusaric acid
Class: Natural Product
Formula: C10H13NO2
Exact mass: 179.09463
SMILES: CCCCc(c1)cnc(c1)C(O)=O
InChI: InChI=1S/C10H13NO2/c1-2-3-4-8-5-6-9(10(12)13)11-7-8/h5-7H,2-4H2,1H3,(H,12,13)
Instrument: Pegasus III TOF-MS system, Leco; GC 6890, Agilent Technologies
Instrument type: GC-EI-TOF
Ms type: MS
Ion mode: POSITIVE
Column name: DB-17MS
Retention time: 914.312 sec
Base peak: 236
Derivative type: 1 TMS
m/z	relative intensity
82	12
83	56
84	56
85	24
86	20
87	6
88	7
89	36
90	46
91	946
92	371
93	122
94	28
95	74
96	22
97	16
98	7
99	6
100	8
101	4
102	32
103	35
104	219
105	81
106	203
107	147
108	32
109	25
110	15
111	10
112	2
113	1
114	1
115	25
116	25
117	52
118	55
119	231
120	65
121	31
122	33
123	13
124	7
125	2
127	1
128	2
129	1
130	12
131	7
132	50
133	18
134	249
135	71
136	54
137	13
138	4
139	1
143	1
144	1
145	3
146	10
147	10
148	31
149	512
150	113
151	27
152	6
153	2
158	1
160	6
161	2
162	75
163	24
164	25
165	112
166	24
167	7
168	1
174	2
175	1
176	8
177	2
178	32
179	26
180	34
181	263
182	42
183	13
184	1
188	1
190	3
191	1
192	141
193	512
194	178
195	46
196	8
197	1
204	1
205	13
206	100
207	107
208	95
209	23
210	5
211	2
212	1
218	3
219	1
220	5
221	1
222	13
223	45
224	9
225	3
234	6
235	6
236	999
237	205
238	61
239	8
250	12
251	15
252	3
