Mass spectrum: 4-Hydroxybenzoic acid; GC-EI-TOF; MS; 2 TMS; BP:267
Name: 4-Hydroxybenzoic acid
Class: Natural Product
Formula: C7H6O3
Exact mass: 138.03169
SMILES: Oc(c1)ccc(c1)C(O)=O
InChI: InChI=1S/C7H6O3/c8-6-3-1-5(2-4-6)7(9)10/h1-4,8H,(H,9,10)
Instrument: Pegasus III TOF-MS system, Leco; GC 6890, Agilent Technologies
Instrument type: GC-EI-TOF
Ms type: MS
Ion mode: POSITIVE
Column name: DB-17MS
Retention time: 814.513 sec
Base peak: 267
Derivative type: 2 TMS
m/z	relative intensity
82	3
83	11
84	4
85	10
87	4
88	1
89	41
90	15
91	68
92	32
93	15
94	2
95	14
96	6
97	6
98	2
99	2
101	2
102	3
103	26
104	34
105	38
106	4
107	15
108	2
109	8
110	1
111	10
115	11
116	1
117	10
118	12
119	21
120	12
121	24
122	17
123	9
125	1
126	53
129	1
131	11
132	1
133	36
134	7
135	60
136	6
137	6
143	1
145	3
147	27
148	5
149	34
150	8
151	62
152	1
153	1
157	1
161	1
163	7
164	2
165	7
166	7
167	1
176	2
177	6
178	1
179	44
180	5
181	5
191	10
192	4
193	312
194	42
195	13
196	1
207	31
208	6
209	4
221	8
222	7
223	780
224	125
225	38
226	3
237	3
238	1
239	1
240	1
241	1
242	1
243	1
244	1
245	1
246	1
247	1
248	1
249	1
250	1
251	2
252	1
253	1
254	1
265	3
266	13
267	999
268	180
269	49
270	3
273	1
282	37
283	1
