Mass spectrum: L-(-)-Arabitol; GC-EI-TOF; MS; 5 TMS; BP:103
Name: L-(-)-Arabitol
Class: Natural Product
Formula: C5H12O5
Exact mass: 152.06847
SMILES: C([C@@H](C([C@H](CO)O)O)O)O
InChI: InChI=1S/C5H12O5/c6-1-3(8)5(10)4(9)2-7/h3-10H,1-2H2/t3-,4-/m0/s1
Instrument: Pegasus III TOF-MS system, Leco; GC 6890, Agilent Technologies
Instrument type: GC-EI-TOF
Ms type: MS
Ion mode: POSITIVE
Column name: DB-17MS
Retention time: 762.013 sec
Base peak: 103
Derivative type: 5 TMS
m/z	relative intensity
82	2
83	12
84	5
85	15
86	5
87	29
88	22
89	100
90	10
91	5
92	1
93	1
94	3
95	2
96	1
97	4
98	2
99	17
100	3
101	110
102	19
103	999
104	100
105	48
106	3
107	1
109	1
111	13
112	2
113	20
114	3
115	26
116	40
117	322
118	35
119	31
120	3
121	1
125	2
126	1
127	7
128	2
129	384
130	48
131	103
132	16
133	195
134	27
135	17
136	2
137	1
141	3
142	4
143	27
144	4
145	11
146	3
147	863
148	143
149	88
150	10
151	4
152	1
153	4
154	1
155	12
156	2
157	44
158	6
159	7
160	1
161	7
162	1
163	11
164	2
165	1
169	2
170	4
171	6
172	1
173	3
174	1
175	20
176	4
177	12
178	2
179	1
185	1
187	2
188	1
189	105
190	26
191	67
192	12
193	6
194	1
201	2
202	1
203	35
204	105
205	237
206	50
207	30
208	5
209	2
215	2
216	3
217	532
218	132
219	57
220	10
221	22
222	5
223	3
224	1
229	11
230	3
231	4
232	1
242	2
243	41
244	10
245	6
246	1
247	1
249	1
263	1
265	1
277	30
278	13
279	6
280	1
291	10
292	4
293	2
305	4
306	10
307	99
308	33
309	15
310	3
317	14
318	8
319	92
320	29
321	13
322	3
331	1
332	12
333	4
334	2
395	3
396	1
422	2
423	1
