Mass spectrum: 16-Hydroxyhexadecanoic acid; GC-EI-TOF; MS; 2 TMS; BP:147
Name: 16-Hydroxyhexadecanoic acid
Class: Natural Product
Formula: C16H32O3
Exact mass: 272.23514
SMILES: OCCCCCCCCCCCCCCCC(O)=O
InChI: InChI=1S/C16H32O3/c17-15-13-11-9-7-5-3-1-2-4-6-8-10-12-14-16(18)19/h17H,1-15H2,(H,18,19)
Instrument: Pegasus III TOF-MS system, Leco; GC 6890, Agilent Technologies
Instrument type: GC-EI-TOF
Ms type: MS
Ion mode: POSITIVE
Column name: DB-17MS
Retention time: 1076.31 sec
Base peak: 147
Derivative type: 2 TMS
m/z	relative intensity
82	115
83	859
84	130
85	212
86	45
87	109
88	51
89	280
90	33
91	217
92	38
93	181
94	28
95	542
96	111
97	570
98	108
99	185
100	24
101	263
102	38
103	775
104	78
105	108
106	13
107	126
108	18
109	225
110	43
111	194
112	35
113	86
114	16
115	144
116	127
117	791
118	83
119	70
120	9
121	178
122	22
123	115
124	21
125	58
126	11
127	39
128	13
129	626
130	88
131	283
132	106
133	233
134	42
135	150
136	20
137	59
138	15
139	28
140	7
141	24
142	8
143	70
144	11
145	124
146	22
147	999
148	170
149	770
150	112
151	78
152	29
153	18
154	9
155	24
156	8
157	38
158	7
159	26
160	5
161	13
162	7
163	32
164	6
165	9
166	7
167	8
168	4
169	11
170	7
171	41
172	8
173	13
174	5
175	8
176	3
177	19
178	4
179	5
180	3
181	5
183	5
184	1
185	42
186	7
187	10
188	8
189	18
190	11
191	15
192	6
193	21
194	15
195	6
196	2
197	3
198	2
199	31
200	7
201	19
202	4
203	60
204	518
205	113
206	48
207	14
208	6
209	4
210	1
211	3
212	1
213	12
214	3
215	9
216	3
217	324
218	76
219	53
220	10
221	4
222	1
223	3
224	1
225	2
226	1
227	11
228	3
229	7
230	3
231	16
232	5
233	6
234	3
235	3
236	18
237	31
238	6
239	3
240	1
241	16
242	4
243	6
244	4
245	5
246	3
247	5
248	2
249	1
250	1
251	1
252	1
253	2
254	1
255	7
256	2
257	8
258	3
259	9
260	4
261	4
262	1
263	1
265	1
267	3
268	2
269	26
270	7
271	3
272	1
273	8
274	3
275	3
276	1
277	1
279	1
281	1
282	1
283	11
284	5
285	6
286	2
287	4
288	2
289	2
290	1
291	1
293	2
294	2
295	3
296	2
297	5
298	3
299	2
300	1
301	3
302	1
303	2
305	1
309	2
310	12
311	300
312	79
313	24
314	4
315	4
316	1
317	1
325	1
326	8
327	2
328	1
329	2
330	1
331	1
343	2
344	1
357	1
359	1
371	1
372	1
373	1
384	19
385	185
386	98
387	35
388	9
389	2
390	1
391	1
392	2
393	2
394	2
395	2
396	2
397	2
398	1
399	1
400	25
401	303
402	111
403	41
404	8
405	2
415	1
416	2
