Mass spectrum: 2-Oxoglutaric acid; GC-EI-TOF; MS; 2 TMS; BP:147
Name: alpha-Ketoglutaric acid
Name: 2-Oxoglutaric acid
Class: Natural Product
Formula: C5H6O5
Exact mass: 146.02152
SMILES: OC(=O)CCC(=O)C(O)=O
InChI: InChI=1S/C5H6O5/c6-3(5(9)10)1-2-4(7)8/h1-2H2,(H,7,8)(H,9,10)
Instrument: Pegasus III TOF-MS system, Leco; GC 6890, Agilent Technologies
Instrument type: GC-EI-TOF
Ms type: MS
Ion mode: POSITIVE
Column name: DB-17MS
Retention time: 805.741 sec
Base peak: 147
Derivative type: 2 TMS
m/z	relative intensity
82	131
83	17
84	204
85	42
86	46
87	18
88	15
89	795
90	74
91	59
92	10
93	20
94	3
95	8
96	8
97	7
98	26
99	25
100	37
101	24
102	25
103	35
104	8
105	21
106	2
107	2
108	1
109	7
110	15
111	25
112	264
113	31
114	8
115	47
116	14
117	36
118	6
119	14
120	2
121	2
122	1
123	1
124	3
125	16
126	139
127	34
128	34
129	51
130	15
131	45
132	14
133	115
134	17
135	13
136	1
137	1
138	7
139	5
140	7
141	3
142	14
143	11
144	7
145	13
146	4
147	999
148	168
149	103
150	12
151	4
152	3
153	6
154	82
155	20
156	482
157	64
158	38
159	13
160	8
161	3
162	1
163	17
164	3
165	2
166	1
168	1
169	1
170	162
171	31
172	50
173	25
174	14
175	4
176	2
181	1
182	17
183	16
184	16
185	4
186	160
187	23
188	9
189	2
190	4
191	1
197	1
198	508
199	82
200	37
201	42
202	119
203	19
204	6
205	1
212	1
213	1
214	6
215	1
216	4
217	2
218	1
227	1
228	4
229	99
230	19
231	6
232	1
242	1
243	3
244	46
245	13
246	6
247	1
260	2
261	1
272	8
273	6
274	3
287	1
288	98
289	29
290	11
291	2
303	2
304	76
305	17
306	7
307	1
319	5
320	1
