Mass spectrum: Hypotaurine; GC-EI-TOF; MS; 3 TMS; BP:100
Name: Hypotaurine
Class: Natural Product
Formula: C2H7NO2S
Exact mass: 109.01975
SMILES: NCCS(O)=O
InChI: InChI=1S/C2H7NO2S/c3-1-2-6(4)5/h1-3H2,(H,4,5)
Instrument: Pegasus III TOF-MS system, Leco; GC 6890, Agilent Technologies
Instrument type: GC-EI-TOF
Ms type: MS
Ion mode: POSITIVE
Column name: DB-17MS
Retention time: 776.244 sec
Base peak: 100
Derivative type: 3 TMS
m/z	relative intensity
82	1
83	3
84	16
85	18
86	177
87	27
88	12
89	6
90	3
91	8
92	3
93	3
95	1
97	1
98	11
99	14
100	999
101	130
102	63
103	16
104	6
105	7
106	3
107	1
108	2
111	1
112	1
113	25
114	182
115	44
116	63
117	29
118	9
119	17
120	4
121	3
122	28
123	3
124	2
128	2
129	10
130	208
131	61
132	35
133	106
134	17
135	19
136	2
137	17
138	3
139	2
140	1
142	2
143	1
144	3
145	2
146	31
147	273
148	49
149	30
150	4
151	2
156	2
157	1
158	7
159	2
160	7
161	2
162	1
163	1
164	1
165	1
170	1
172	99
173	19
174	143
175	26
176	41
177	7
178	2
179	1
186	1
187	13
188	640
189	131
190	58
191	8
192	1
194	8
195	1
196	1
204	2
205	1
206	1
209	7
210	1
211	1
220	2
221	1
222	5
223	1
248	17
249	4
250	2
309	1
310	20
311	5
312	3
