Mass spectrum: 1-Methylhistamine; GC-EI-TOF; MS; 2 TMS; BP:174
Name: 1-Methylhistamine
Class: Natural Product
Formula: C6H11N3
Exact mass: 125.09530
SMILES: NCCc(n1)cn(C)c1
InChI: InChI=1S/C6H11N3/c1-9-4-6(2-3-7)8-5-9/h4-5H,2-3,7H2,1H3
Instrument: Pegasus III TOF-MS system, Leco; GC 6890, Agilent Technologies
Instrument type: GC-EI-TOF
Ms type: MS
Ion mode: POSITIVE
Column name: DB-17MS
Retention time: 918.963 sec
Base peak: 174
Derivative type: 2 TMS
m/z	relative intensity
82	12
83	16
84	30
85	23
86	747
87	82
88	36
89	2
90	2
91	1
92	1
93	1
94	3
95	108
96	45
97	37
98	23
99	11
100	367
101	55
102	37
103	6
104	2
107	8
108	10
109	17
110	9
111	5
112	53
113	20
114	14
115	10
116	24
117	26
118	5
119	2
120	4
121	1
122	2
123	6
124	4
125	6
126	29
127	13
128	5
129	3
130	91
131	25
132	14
133	3
134	1
135	6
136	2
137	6
138	3
139	14
140	5
141	4
142	2
143	1
144	5
145	1
146	37
147	12
148	4
149	2
150	4
151	5
152	2
153	12
154	5
155	2
156	1
158	4
159	1
160	1
164	2
165	5
166	4
167	8
168	116
169	23
170	12
171	2
172	12
173	4
174	999
175	206
176	102
177	13
178	4
179	3
180	101
181	20
182	15
183	2
194	2
195	1
196	7
197	1
224	1
225	1
238	2
252	3
253	2
254	168
255	46
256	18
257	3
268	1
