Mass spectrum: D-(+)-Trehalose; GC-EI-TOF; MS; 8 TMS; BP:147
Name: D-(+)-Trehalose
Class: Natural Product
Formula: C12H22O11
Exact mass: 342.11621
SMILES: OC[C@@H](O1)[C@@H](O)[C@H](O)[C@@H](O)[C@H]1O[C@@H](O2)[C@H](O)[C@@H](O)[C@H](O)[C@@H](CO)2
InChI: InChI=1S/C12H22O11/c13-1-3-5(15)7(17)9(19)11(21-3)23-12-10(20)8(18)6(16)4(2-14)22-12/h3-20H,1-2H2/t3-,4-,5-,6-,7+,8+,9-,10-,11-,12-/m1/s1
Instrument: Pegasus III TOF-MS system, Leco; GC 6890, Agilent Technologies
Instrument type: GC-EI-TOF
Ms type: MS
Ion mode: POSITIVE
Column name: DB-17MS
Retention time: 2397.32 sec
Base peak: 147
Derivative type: 8 TMS
m/z	relative intensity
82	9
83	21
85	28
86	4
87	26
88	7
89	74
90	7
91	6
92	1
93	2
94	1
95	7
96	2
97	14
98	4
99	25
100	4
101	67
102	18
103	913
104	98
105	46
106	3
107	2
108	1
109	58
110	5
111	26
112	4
113	50
114	12
115	30
116	42
117	259
118	31
119	31
120	3
121	2
123	2
124	1
125	6
126	3
127	22
128	7
129	660
130	91
131	150
132	25
133	188
134	28
135	20
136	2
137	2
139	21
140	5
141	21
142	16
143	90
144	13
145	26
146	6
147	999
148	182
149	132
150	18
151	11
152	2
153	26
154	7
155	112
156	20
157	85
158	12
159	17
160	3
161	9
162	2
163	20
164	4
165	2
166	1
167	5
168	2
169	423
170	75
171	41
172	6
173	26
174	5
175	16
176	4
177	16
178	3
179	2
180	1
181	9
182	3
183	25
184	4
185	6
186	1
187	6
188	1
189	108
190	28
191	557
192	120
193	61
194	9
195	3
196	1
197	2
198	1
199	13
200	3
201	8
202	5
203	43
204	203
205	106
206	36
207	20
208	4
209	2
211	2
212	1
213	2
214	1
215	13
216	8
217	345
218	110
219	51
220	10
221	30
222	8
223	5
224	1
225	1
227	15
228	6
229	39
230	18
231	29
232	9
233	18
234	6
235	3
236	1
237	1
238	1
239	3
240	1
241	14
242	11
243	168
244	44
245	38
246	10
247	9
248	3
249	1
250	1
251	1
252	1
253	1
254	1
255	6
256	4
257	11
258	4
259	10
260	3
261	2
262	2
263	7
264	3
265	5
266	2
267	1
268	1
269	1
270	14
271	146
272	38
273	21
274	5
275	2
276	1
277	2
278	2
279	5
280	2
281	1
283	1
284	1
285	1
286	1
287	4
288	2
289	4
290	7
291	19
292	7
293	5
294	1
295	1
296	1
297	1
298	1
300	1
301	1
302	1
303	2
304	7
305	17
306	7
307	4
308	1
309	1
310	1
311	1
312	1
313	1
314	1
315	1
316	2
317	7
318	13
319	33
320	12
321	6
322	2
323	1
329	1
330	12
331	45
332	25
333	11
334	3
335	1
343	1
344	2
345	12
346	4
347	3
348	1
349	2
350	1
359	2
360	98
361	619
362	213
363	109
364	26
365	7
366	1
373	1
376	2
377	4
378	2
379	2
380	1
434	3
435	1
436	1
450	2
462	1
