Mass spectrum: S-Adenosyl-L-methionine; GC-EI-TOF; MS; 3 TMS; BP:236
Name: S-Adenosyl-L-methionine
Class: Natural Product
Formula: C15H22N6O5S
Exact mass: 398.13724
SMILES: [O-1]C(=O)C(N)CC[S+1](C)CC(O1)C(O)C(O)C1n(c3)c(n2)c(n3)c(N)nc2
InChI: InChI=1S/C15H22N6O5S/c1-27(3-2-7(16)15(24)25)4-8-10(22)11(23)14(26-8)21-6-20-9-12(17)18-5-19-13(9)21/h5-8,10-11,14,22-23H,2-4,16H2,1H3,(H2-,17,18,19,24,25)/t7-,8+,10+,11+,14+,27?/m0/s1
Instrument: Pegasus III TOF-MS system, Leco; GC 6890, Agilent Technologies
Instrument type: GC-EI-TOF
Ms type: MS
Ion mode: POSITIVE
Column name: DB-17MS
Retention time: 1271.46 sec
Base peak: 236
Derivative type: 3 TMS
m/z	relative intensity
82	13
83	30
84	130
85	97
86	31
87	81
88	12
89	22
90	10
91	16
92	10
93	9
94	7
95	16
96	12
97	38
98	16
99	93
100	28
101	94
102	18
103	108
104	9
105	60
106	9
107	11
108	17
109	49
110	14
111	86
112	14
113	28
114	9
115	60
116	43
117	38
118	9
119	31
120	7
121	9
122	8
123	16
124	10
125	14
126	10
127	38
128	8
129	215
130	30
131	61
132	15
133	83
134	15
135	28
136	16
137	17
138	29
139	7
140	8
141	22
142	46
143	84
144	15
145	24
146	7
147	263
148	46
149	51
150	15
151	15
152	7
153	12
154	5
155	11
156	6
157	22
158	8
159	8
160	4
161	8
162	22
163	12
164	23
165	122
166	23
167	10
168	3
169	342
170	54
171	37
172	7
173	23
174	7
175	508
176	92
177	56
178	13
179	13
180	29
181	11
182	4
183	2
184	3
185	4
186	2
187	4
188	657
189	113
190	73
191	38
192	331
193	56
194	17
195	3
196	2
197	1
198	1
199	2
200	2
201	13
202	4
203	4
204	23
205	13
206	74
207	116
208	192
209	42
210	11
211	2
212	1
214	1
215	8
216	7
217	59
218	20
219	15
220	17
221	7
222	3
223	3
224	1
225	1
226	1
227	1
228	1
229	2
230	9
231	11
232	7
233	5
234	18
235	16
236	999
237	178
238	53
239	8
240	1
241	1
242	1
243	22
244	7
245	89
246	25
247	10
248	7
249	4
250	3
251	2
252	2
253	1
254	1
257	1
258	8
259	8
260	5
261	3
262	8
263	4
264	28
265	8
266	6
267	1
268	1
274	2
276	2
277	3
278	15
279	10
280	36
281	9
282	4
286	1
287	1
288	1
289	11
290	5
291	7
292	3
293	1
294	3
295	1
304	1
305	3
306	21
307	7
308	5
309	1
310	1
320	2
321	1
322	9
323	2
324	1
332	1
333	2
334	15
335	5
336	3
337	4
338	12
339	3
340	1
348	1
350	1
360	1
362	1
375	1
376	7
377	2
378	2
394	1
408	2
409	1
410	1
423	1
440	1
465	2
466	6
467	3
468	1
496	1
497	13
498	32
499	17
500	8
