Mass spectrum: Protocatechuic acid; GC-EI-TOF; MS; 3 TMS; BP:193
Name: 3,4-Dihydroxybenzoic acid
Name: Protocatechuic acid
Class: Natural Product
Formula: C7H6O4
Exact mass: 154.02661
SMILES: OC(=O)c(c1)cc(O)c(O)c1
InChI: InChI=1S/C7H6O4/c8-5-2-1-4(7(10)11)3-6(5)9/h1-3,8-9H,(H,10,11)
Instrument: Pegasus III TOF-MS system, Leco; GC 6890, Agilent Technologies
Instrument type: GC-EI-TOF
Ms type: MS
Ion mode: POSITIVE
Column name: DB-17MS
Retention time: 886.991 sec
Base peak: 193
Derivative type: 3 TMS
m/z	relative intensity
82	1
83	55
84	8
85	8
86	1
87	5
88	1
89	28
90	8
91	27
92	6
93	15
94	2
95	10
96	1
97	4
98	5
99	3
101	2
102	2
103	18
104	10
105	36
106	4
107	22
108	3
109	24
110	3
111	4
112	1
113	2
115	8
116	1
117	8
118	3
119	23
120	3
121	10
122	2
123	11
124	1
125	1
126	6
127	1
129	2
131	18
132	3
133	49
134	9
135	27
136	8
137	105
138	17
139	5
141	1
143	4
145	3
146	1
147	46
148	9
149	19
150	7
151	9
152	2
153	1
155	1
157	2
159	1
161	3
162	1
163	20
164	11
165	84
166	26
167	6
168	1
175	1
177	5
178	3
179	17
180	3
181	4
182	1
183	1
189	1
191	8
192	6
193	999
194	132
195	44
196	6
197	1
205	2
206	1
207	19
208	4
209	7
210	2
211	6
212	1
219	1
221	4
222	4
223	98
224	24
225	10
226	1
235	1
236	1
237	9
238	2
239	2
251	2
252	1
253	1
254	1
265	5
266	3
267	40
268	10
269	4
270	1
279	3
280	2
281	41
282	14
283	5
284	1
295	1
297	1
298	1
309	1
310	6
311	93
312	44
313	36
314	11
315	4
316	1
353	1
354	7
355	120
356	48
357	22
358	5
359	1
361	1
362	1
363	1
364	1
365	1
366	1
369	16
370	159
371	51
372	21
373	4
374	1
