Mass spectrum: Cadaverine; GC-EI-TOF; MS; 4 TMS; BP:174
Name: Cadaverine
Class: Natural Product
Formula: C5H14N2
Exact mass: 102.11570
SMILES: NCCCCCN
InChI: InChI=1S/C5H14N2/c6-4-2-1-3-5-7/h1-7H2
Instrument: Pegasus III TOF-MS system, Leco; GC 6890, Agilent Technologies
Instrument type: GC-EI-TOF
Ms type: MS
Ion mode: POSITIVE
Column name: DB-17MS
Retention time: 815.628 sec
Base peak: 174
Derivative type: 4 TMS
m/z	relative intensity
82	2
83	3
84	13
85	20
86	331
87	36
88	36
89	3
90	1
95	1
96	1
97	4
98	14
99	16
100	157
101	29
102	33
103	7
104	2
106	1
110	2
111	1
112	41
113	16
114	22
115	15
116	25
117	24
118	6
119	1
124	3
125	1
126	10
127	2
128	13
129	7
130	91
131	41
132	19
133	4
134	1
138	3
139	1
140	17
141	3
142	11
143	5
144	7
145	2
146	24
147	4
148	2
154	11
155	3
156	10
157	2
158	31
159	6
160	19
161	3
162	1
170	4
171	1
172	27
173	6
174	999
175	193
176	84
177	10
178	2
180	2
184	3
185	1
186	39
187	8
188	8
189	1
190	1
198	3
199	1
200	15
201	4
202	3
212	3
213	3
214	6
215	1
216	7
217	1
218	1
227	4
228	3
229	14
230	4
231	1
374	3
375	22
376	9
377	4
378	1
390	1
