Mass spectrum: Ciliatine; GC-EI-TOF; MS; 3 TMS; BP:398
Name: 2-Aminoethylphosphonic acid
Name: Ciliatine
Class: Natural Product
Formula: C2H8NO3P
Exact mass: 125.02418
SMILES: NCCP(O)(O)=O
InChI: InChI=1S/C2H8NO3P/c3-1-2-7(4,5)6/h1-3H2,(H2,4,5,6)
Instrument: Pegasus III TOF-MS system, Leco; GC 6890, Agilent Technologies
Instrument type: GC-EI-TOF
Ms type: MS
Ion mode: POSITIVE
Column name: DB-17MS
Retention time: 830.513 sec
Base peak: 398
Derivative type: 3 TMS
m/z	relative intensity
82	2
83	7
84	22
85	27
86	328
87	48
88	17
89	13
90	3
91	8
92	5
93	4
95	2
96	5
97	4
98	12
99	11
100	211
101	35
102	30
103	30
104	8
105	21
106	4
107	13
108	1
109	2
110	1
111	1
112	3
113	26
114	217
115	89
116	42
117	42
118	11
119	43
120	8
121	44
122	4
123	4
124	1
125	1
126	1
127	1
128	3
129	17
130	265
131	118
132	60
133	189
134	36
135	191
136	25
137	20
138	2
139	1
140	1
141	1
142	6
143	6
144	6
145	8
146	127
147	199
148	39
149	30
150	5
151	18
152	2
153	2
154	1
156	6
157	3
158	11
159	3
160	11
161	4
162	3
163	11
164	3
165	18
166	3
167	6
168	1
169	1
170	6
171	4
172	430
173	80
174	709
175	127
176	54
177	22
178	8
179	15
180	5
181	33
182	7
183	3
184	1
185	1
186	2
187	11
188	25
189	18
190	13
191	57
192	39
193	47
194	18
195	51
196	10
197	5
198	1
201	1
202	1
203	4
204	7
205	12
206	11
207	122
208	48
209	132
210	30
211	34
212	5
213	2
217	1
218	1
219	1
220	3
221	8
222	5
223	7
224	9
225	74
226	16
227	7
228	1
232	1
234	2
235	2
236	12
237	22
238	7
239	5
240	1
241	1
246	1
247	1
248	2
249	1
250	3
251	3
252	4
253	3
254	3
255	2
256	1
260	1
262	1
263	1
264	2
265	3
266	16
267	11
268	5
269	4
270	2
271	1
272	1
273	1
274	1
275	1
276	1
277	1
278	2
279	1
280	2
281	7
282	23
283	22
284	10
285	4
286	1
292	1
293	2
294	10
295	4
296	8
297	93
298	162
299	57
300	23
301	6
302	2
303	1
304	1
305	1
306	1
307	1
308	5
309	13
310	88
311	32
312	60
313	26
314	10
315	3
316	1
322	1
323	1
324	7
325	12
326	10
327	4
328	1
338	1
339	15
340	72
341	33
342	14
343	4
344	1
367	1
368	3
369	3
370	1
371	1
381	1
382	7
383	4
384	2
395	3
396	21
397	132
398	999
399	345
400	177
401	44
402	12
403	2
411	1
412	2
413	1
