Mass spectrum: Glycerol; GC-EI-TOF; MS; 3 TMS; BP:147
Name: Glycerol
Class: Natural Product
Formula: C3H8O3
Exact mass: 92.04734
SMILES: OCC(O)CO
InChI: InChI=1S/C3H8O3/c4-1-3(6)2-5/h3-6H,1-2H2
Instrument: Pegasus III TOF-MS system, Leco; GC 6890, Agilent Technologies
Instrument type: GC-EI-TOF
Ms type: MS
Ion mode: POSITIVE
Column name: DB-17MS
Retention time: 541.409 sec
Base peak: 147
Derivative type: 3 TMS
m/z	relative intensity
83	2
84	3
85	21
87	32
88	20
89	106
90	9
94	1
95	1
99	11
100	2
101	151
102	21
103	536
104	53
105	37
106	2
113	13
114	2
115	48
116	39
117	599
118	59
119	58
120	5
121	3
128	2
129	89
130	11
131	95
132	14
133	363
134	15
135	26
143	1
145	4
146	2
147	999
148	161
149	109
150	13
151	5
152	1
159	6
160	1
161	3
162	1
163	15
164	2
165	2
173	1
174	4
175	59
176	10
177	35
178	5
179	3
189	11
190	3
191	39
192	8
193	3
203	42
204	56
205	362
206	72
207	33
208	4
209	1
217	21
218	106
219	22
220	9
221	5
222	1
263	1
293	6
294	1
