Mass spectrum: DL-2,3-Diaminopropionic acid; GC-EI-TOF; MS; 3 TMS; BP:174
Name: 2,3-Diaminopropionic acid
Name: DL-2,3-Diaminopropionic acid
Class: Natural Product
Formula: C3H8N2O2
Exact mass: 104.05858
SMILES: NCC(N)C(O)=O
InChI: InChI=1S/C3H8N2O2/c4-1-2(5)3(6)7/h2H,1,4-5H2,(H,6,7)
Instrument: Pegasus III TOF-MS system, Leco; GC 6890, Agilent Technologies
Instrument type: GC-EI-TOF
Ms type: MS
Ion mode: POSITIVE
Column name: DB-17MS
Retention time: 749.413 sec
Base peak: 174
Derivative type: 3 TMS
m/z	relative intensity
82	1
83	2
84	24
85	14
86	550
87	81
88	45
89	6
90	2
91	1
92	1
93	1
97	1
98	2
99	42
100	251
101	65
102	169
103	25
104	7
105	2
112	1
113	12
114	19
115	22
116	28
117	23
118	15
119	6
120	1
127	1
128	3
129	8
130	121
131	43
132	30
133	24
134	5
135	2
141	1
142	1
143	1
144	7
145	2
146	73
147	57
148	16
149	5
150	1
157	1
158	6
159	3
160	7
161	2
162	1
171	6
172	13
173	7
174	999
175	181
176	87
177	11
178	2
187	25
188	8
189	4
190	1
203	9
204	42
205	8
206	3
215	2
216	1
219	22
220	5
221	2
248	1
277	3
278	1
291	2
305	1
