Mass spectrum: (R)-(-)-Phenylephrine; GC-EI-TOF; MS; 2 TMS; BP:116
Name: (R)-(-)-Phenylephrine
Class: Natural Product
Formula: C9H13NO2
Exact mass: 167.09463
SMILES: CNC[C@H](O)c(c1)cc(O)cc1
InChI: InChI=1S/C9H13NO2/c1-10-6-9(12)7-3-2-4-8(11)5-7/h2-5,9-12H,6H2,1H3/t9-/m0/s1
Instrument: Pegasus III TOF-MS system, Leco; GC 6890, Agilent Technologies
Instrument type: GC-EI-TOF
Ms type: MS
Ion mode: POSITIVE
Column name: DB-17MS
Retention time: 806.863 sec
Base peak: 116
Derivative type: 2 TMS
m/z	relative intensity
83	1
84	2
85	1
86	17
87	4
88	4
89	5
90	2
91	14
92	1
93	1
95	3
97	1
100	6
101	5
102	4
103	6
104	2
105	7
106	1
107	1
114	2
115	7
116	999
117	125
118	45
119	8
120	1
121	2
123	1
129	1
130	3
131	11
132	3
133	16
134	2
135	8
136	1
137	1
145	2
146	2
147	88
148	15
149	14
150	2
151	9
152	1
159	1
160	1
161	6
162	2
163	10
164	2
165	2
174	1
175	1
176	1
177	9
178	2
179	9
180	1
181	1
189	1
190	1
191	2
192	2
193	7
194	2
195	1
204	2
205	1
206	2
207	2
209	1
219	1
220	3
221	2
222	1
223	1
237	9
238	2
239	1
251	6
252	2
253	1
264	1
265	1
267	7
268	4
269	1
280	1
294	1
368	6
369	2
370	1
