Mass spectrum: Ribitol; GC-EI-TOF; MS; 5 TMS; BP:147
Name: Ribitol
Name: Adonitol
Class: Natural Product
Formula: C5H12O5
Exact mass: 152.06847
SMILES: OC([C@H]([C@H]([C@H](CO)O)O)O)
InChI: InChI=1S/C5H12O5/c6-1-3(8)5(10)4(9)2-7/h3-10H,1-2H2/t3-,4+,5-
Instrument: Pegasus III TOF-MS system, Leco; GC 6890, Agilent Technologies
Instrument type: GC-EI-TOF
Ms type: MS
Ion mode: POSITIVE
Column name: DB-17MS
Retention time: 759.163 sec
Base peak: 147
Derivative type: 5 TMS
m/z	relative intensity
82	2
83	15
84	5
85	16
86	5
87	28
88	21
89	103
90	9
91	4
94	2
95	1
96	1
97	4
98	2
99	16
100	2
101	110
102	19
103	943
104	96
105	47
106	3
107	1
109	1
111	11
112	2
113	22
114	3
115	28
116	38
117	359
118	39
119	35
120	3
121	2
125	2
126	1
127	8
128	2
129	411
130	52
131	109
132	16
133	214
134	29
135	18
136	1
141	3
142	6
143	29
144	4
145	12
146	3
147	999
148	173
149	108
150	12
151	6
152	2
153	4
154	1
155	17
156	3
157	76
158	10
159	10
160	2
161	10
162	2
163	15
164	2
165	1
169	3
170	7
171	7
172	1
173	3
174	1
175	21
176	4
177	12
178	2
179	1
185	1
187	2
188	1
189	175
190	38
191	67
192	11
193	6
194	1
201	3
202	1
203	35
204	118
205	270
206	57
207	33
208	5
209	2
215	2
216	1
217	547
218	155
219	66
220	11
221	28
222	6
223	4
224	1
229	22
230	7
231	7
232	1
233	1
237	1
242	3
243	50
244	12
245	7
246	2
247	2
249	1
263	1
265	1
277	36
278	14
279	7
280	2
291	11
292	4
293	2
305	4
306	6
307	79
308	24
309	12
310	2
317	16
318	5
319	156
320	48
321	24
322	5
323	1
331	1
332	33
333	11
334	5
335	1
395	2
396	1
407	1
422	6
423	3
424	1
