Mass spectrum: D-(+)-Trehalose; GC-EI-TOF; MS; 8 TMS; BP:147
Name: D-(+)-Trehalose
Class: Natural Product
Formula: C12H22O11
Exact mass: 342.11621
SMILES: OC[C@@H](O1)[C@@H](O)[C@H](O)[C@@H](O)[C@H]1O[C@@H](O2)[C@H](O)[C@@H](O)[C@H](O)[C@@H](CO)2
InChI: InChI=1S/C12H22O11/c13-1-3-5(15)7(17)9(19)11(21-3)23-12-10(20)8(18)6(16)4(2-14)22-12/h3-20H,1-2H2/t3-,4-,5-,6-,7+,8+,9-,10-,11-,12-/m1/s1
Instrument: Pegasus III TOF-MS system, Leco; GC 6890, Agilent Technologies
Instrument type: GC-EI-TOF
Ms type: MS
Ion mode: POSITIVE
Column name: DB-17MS
Retention time: 1135.28 sec
Base peak: 147
Derivative type: 8 TMS
m/z	relative intensity
82	7
83	17
84	4
85	26
86	4
87	22
88	7
89	59
90	6
91	5
92	1
93	2
94	2
95	6
96	2
97	12
98	4
99	25
100	4
101	76
102	17
103	738
104	73
105	33
106	2
107	2
108	1
109	36
110	3
111	22
112	4
113	40
114	10
115	28
116	39
117	208
118	23
119	24
120	3
121	2
123	1
124	1
125	6
126	2
127	21
128	7
129	544
130	70
131	120
132	20
133	159
134	23
135	17
136	2
137	2
138	1
139	15
140	4
141	19
142	20
143	91
144	13
145	29
146	6
147	999
148	160
149	121
150	15
151	10
152	2
153	18
154	6
155	87
156	16
157	74
158	11
159	16
160	3
161	10
162	2
163	19
164	3
165	2
166	1
167	5
168	2
169	343
170	59
171	35
172	5
173	23
174	5
175	15
176	3
177	16
178	3
179	2
180	1
181	7
182	3
183	24
184	4
185	7
186	2
187	8
188	2
189	136
190	34
191	763
192	139
193	64
194	8
195	3
196	1
197	3
198	1
199	14
200	3
201	9
202	6
203	48
204	305
205	132
206	42
207	26
208	5
209	3
211	2
213	2
214	1
215	20
216	8
217	577
218	151
219	68
220	12
221	38
222	9
223	5
224	1
225	1
227	14
228	5
229	48
230	26
231	42
232	12
233	26
234	9
235	4
236	1
237	1
239	2
240	1
241	18
242	9
243	184
244	52
245	47
246	11
247	12
248	3
249	2
250	1
254	1
255	7
256	4
257	19
258	6
259	16
260	5
261	3
262	1
263	14
264	4
265	9
266	2
267	1
269	1
270	5
271	178
272	44
273	26
274	5
275	3
276	1
277	2
278	2
279	6
280	2
281	1
285	1
286	1
287	4
288	2
289	5
290	7
291	26
292	9
293	5
294	1
295	1
301	1
302	1
303	2
304	6
305	26
306	12
307	7
308	2
309	1
313	1
316	1
317	10
318	10
319	54
320	25
321	11
322	3
323	2
324	1
329	1
330	5
331	52
332	35
333	17
334	6
335	2
336	1
344	1
345	8
346	4
347	3
348	1
349	1
359	2
360	60
361	977
362	309
363	140
364	29
365	7
366	1
373	1
376	1
377	4
378	2
379	1
393	1
434	1
435	7
436	3
437	1
450	1
451	6
452	2
453	1
463	3
464	1
