Mass spectrum: Phenylpyruvic acid; GC-EI-TOF; MS; 1 TMS; BP:89
Name: Phenylpyruvic acid
Class: Natural Product
Formula: C9H8O3
Exact mass: 164.04734
SMILES: OC(=O)C(=O)Cc(c1)cccc1
InChI: InChI=1S/C9H8O3/c10-8(9(11)12)6-7-4-2-1-3-5-7/h1-5H,6H2,(H,11,12)
Instrument: Pegasus III TOF-MS system, Leco; GC 6890, Agilent Technologies
Instrument type: GC-EI-TOF
Ms type: MS
Ion mode: POSITIVE
Column name: DB-17MS
Retention time: 851.878 sec
Base peak: 89
Derivative type: 1 TMS
m/z	relative intensity
82	8
83	4
84	192
85	24
86	21
87	38
88	30
89	999
90	538
91	975
92	89
93	11
94	1
95	2
96	1
98	5
99	3
100	9
101	4
102	17
103	30
104	16
105	48
106	5
107	4
108	3
109	1
110	5
111	1
112	1
114	13
115	24
116	982
117	506
118	55
119	8
120	3
121	23
122	12
123	1
125	5
127	1
128	3
129	3
130	14
131	11
132	10
133	12
134	2
135	12
136	2
137	4
142	6
143	13
144	21
145	6
146	17
147	58
148	26
149	5
150	2
151	17
152	2
153	1
158	1
159	1
160	5
161	2
162	3
163	1
164	1
173	1
174	22
175	25
176	9
177	2
179	2
188	1
189	165
190	36
191	44
192	7
193	2
218	1
219	1
235	1
250	134
251	25
252	7
253	1
265	52
266	10
267	2
