Mass spectrum: 3-Aminopropionitrile; GC-EI-TOF; MS; x TMS; BP:86
Name: 3-Aminopropionitrile
Class: Natural Product
Formula: C3H6N2
Exact mass: 70.05310
SMILES: NCCC#N
InChI: InChI=1S/C3H6N2/c4-2-1-3-5/h1-2,4H2
Instrument: Pegasus III TOF-MS system, Leco; GC 6890, Agilent Technologies
Instrument type: GC-EI-TOF
Ms type: MS
Ion mode: POSITIVE
Column name: DB-17MS
Retention time: 623.212 sec
Base peak: 86
Derivative type: x TMS
m/z	relative intensity
82	11
83	13
84	95
85	43
86	999
87	97
88	35
89	3
92	28
93	2
94	1
95	2
96	2
97	14
98	250
99	51
100	332
101	67
102	34
103	7
104	2
110	2
111	28
112	6
113	24
114	23
115	31
116	25
117	26
118	5
119	2
124	1
125	11
126	8
127	4
128	3
129	13
130	93
131	37
132	11
133	2
140	2
141	11
142	5
143	2
144	3
145	1
146	28
147	5
148	2
154	2
155	1
156	10
157	2
158	6
159	1
160	1
169	1
170	981
171	198
172	241
173	45
174	914
175	158
176	66
177	7
178	1
183	3
184	2
185	1
186	1
188	1
197	3
199	360
200	71
201	31
202	3
214	3
