Mass spectrum: Adenine; GC-EI-TOF; MS; 2 TMS; BP:264
Name: Adenine
Class: Natural Product
Formula: C5H5N5
Exact mass: 135.05450
SMILES: C1=NC2=C(N1)C(=NC=N2)N
InChI: InChI=1S/C5H5N5/c6-4-3-5(9-1-7-3)10-2-8-4/h1-2H,(H3,6,7,8,9,10)
Instrument: Pegasus III TOF-MS system, Leco; GC 6890, Agilent Technologies
Instrument type: GC-EI-TOF
Ms type: MS
Ion mode: POSITIVE
Column name: DB-17MS
Retention time: 969.562 sec
Base peak: 264
Derivative type: 2 TMS
m/z	relative intensity
82	8
83	11
84	229
85	124
86	34
87	7
88	7
89	1
90	1
91	1
92	8
93	12
94	6
95	20
96	13
97	12
98	18
99	97
100	59
101	24
102	5
103	2
104	1
106	1
107	6
108	5
109	8
110	15
111	68
112	10
113	8
114	4
115	2
116	6
117	1
118	1
119	5
120	2
121	3
122	9
123	23
124	11
125	17
126	6
127	3
128	1
129	1
130	20
131	3
132	3
133	1
134	3
135	13
136	7
137	20
138	21
139	6
140	3
141	7
142	2
143	1
146	1
147	2
148	2
149	9
150	8
151	9
152	11
153	4
154	3
155	3
156	2
157	6
158	1
161	1
162	8
163	4
164	23
165	67
166	14
167	7
168	4
169	1
171	3
172	1
175	2
176	23
177	6
178	5
179	13
180	18
181	4
182	3
183	4
184	1
189	1
190	3
191	22
192	162
193	26
194	12
195	3
196	3
197	1
204	1
205	2
206	38
207	14
208	4
209	2
210	3
211	2
220	1
221	9
222	9
223	4
224	2
234	4
235	4
236	4
237	20
238	15
239	4
240	1
247	1
248	12
249	5
250	2
251	2
252	1
262	4
263	26
264	999
265	235
266	85
267	13
268	2
270	1
271	1
272	1
273	1
274	1
275	1
277	1
278	27
279	156
280	39
281	14
282	2
