Mass spectrum: beta-Alanine; GC-EI-TOF; MS; 3 TMS; BP:174
Name: beta-Alanine
Class: Natural Product
Formula: C3H7NO2
Exact mass: 89.04768
SMILES: NCCC(O)=O
InChI: InChI=1S/C3H7NO2/c4-2-1-3(5)6/h1-2,4H2,(H,5,6)
Instrument: Pegasus III TOF-MS system, Leco; GC 6890, Agilent Technologies
Instrument type: GC-EI-TOF
Ms type: MS
Ion mode: POSITIVE
Column name: DB-17MS
Retention time: 657.613 sec
Base peak: 174
Derivative type: 3 TMS
m/z	relative intensity
82	2
83	7
84	20
85	40
86	762
87	98
88	42
89	9
90	1
91	1
93	1
95	12
96	3
97	3
98	9
99	120
100	623
101	123
102	83
103	43
104	9
105	13
106	2
107	1
109	2
111	1
112	4
113	30
114	36
115	39
116	51
117	101
118	18
119	32
120	5
121	2
125	1
126	3
127	1
128	6
129	33
130	284
131	165
132	55
133	478
134	72
135	34
136	3
137	1
138	3
139	1
140	2
141	1
142	28
143	7
144	12
145	7
146	93
147	971
148	162
149	81
150	9
151	2
155	1
156	2
157	3
158	13
159	4
160	77
161	15
162	7
163	4
164	1
171	2
172	26
173	28
174	999
175	217
176	104
177	13
178	3
179	1
186	1
187	4
188	29
189	12
190	17
191	6
192	2
193	1
200	4
201	1
202	18
203	4
204	21
205	9
206	3
207	1
214	2
215	1
216	11
217	4
218	5
219	3
220	1
221	1
232	53
233	14
234	6
235	1
248	530
249	180
250	96
251	21
252	5
253	1
262	1
265	1
266	1
267	1
268	1
269	1
270	1
271	1
272	1
273	1
274	1
275	1
276	1
277	1
278	1
279	1
288	8
289	5
290	146
291	58
292	27
293	7
294	1
304	32
305	12
306	5
307	1
