Mass spectrum: L-Serine; GC-EI-TOF; MS; 3 TMS; BP:204
Name: L-Serine
Class: Natural Product
Formula: C3H7NO3
Exact mass: 105.04259
SMILES: OC[C@H](N)C(O)=O
InChI: InChI=1S/C3H7NO3/c4-2(1-5)3(6)7/h2,5H,1,4H2,(H,6,7)/t2-/m0/s1
Instrument: Pegasus III TOF-MS system, Leco; GC 6890, Agilent Technologies
Instrument type: GC-EI-TOF
Ms type: MS
Ion mode: POSITIVE
Column name: DB-17MS
Retention time: 620.462 sec
Base peak: 204
Derivative type: 3 TMS
m/z	relative intensity
82	4
83	5
84	21
85	21
86	66
87	35
88	76
89	55
90	8
91	4
92	1
95	1
96	2
97	1
98	19
99	15
100	974
101	185
102	85
103	187
104	22
105	24
106	3
107	2
111	1
112	3
113	15
114	147
115	113
116	294
117	167
118	42
119	42
120	7
121	5
126	1
128	12
129	15
130	92
131	119
132	153
133	279
134	51
135	32
136	4
137	1
138	1
141	1
142	11
143	9
144	38
145	10
146	30
147	717
148	134
149	81
150	10
151	3
156	2
157	2
158	24
159	24
160	16
161	5
162	8
163	34
164	6
165	3
172	28
173	7
174	45
175	16
176	6
177	3
178	1
186	1
187	1
188	171
189	71
190	32
191	12
192	3
193	1
196	1
197	1
198	1
199	1
200	2
202	3
203	23
204	999
205	221
206	96
207	13
208	3
209	1
216	34
217	12
218	570
219	134
220	65
221	16
222	5
223	2
230	1
231	2
232	2
233	2
234	1
235	1
246	1
260	1
262	4
263	1
264	1
277	1
278	113
279	38
280	19
281	4
282	1
291	1
292	1
306	50
307	14
308	7
309	1
