Mass spectrum: GABA; GC-EI-TOF; MS; 3 TMS; BP:174
Name: 4-Aminobutyric acid
Name: GABA
Class: Natural Product
Formula: C4H9NO2
Exact mass: 103.06333
SMILES: NCCCC(O)=O
InChI: InChI=1S/C4H9NO2/c5-3-1-2-4(6)7/h1-3,5H2,(H,6,7)
Instrument: Pegasus III TOF-MS system, Leco; GC 6890, Agilent Technologies
Instrument type: GC-EI-TOF
Ms type: MS
Ion mode: POSITIVE
Column name: DB-17MS
Retention time: 720.363 sec
Base peak: 174
Derivative type: 3 TMS
m/z	relative intensity
82	4
83	4
84	10
85	21
86	324
87	48
88	19
89	8
90	1
96	1
97	2
98	14
99	22
100	169
101	38
102	27
103	11
104	3
105	3
110	1
111	1
112	13
113	12
114	25
115	18
116	21
117	30
118	8
119	9
120	2
121	1
124	1
126	3
127	1
128	11
129	10
130	46
131	43
132	16
133	51
134	13
135	7
136	1
140	17
141	4
142	42
143	92
144	30
145	15
146	27
147	428
148	77
149	49
150	6
151	1
156	12
157	2
158	6
159	2
160	1
161	1
170	1
171	1
172	35
173	12
174	999
175	247
176	113
177	17
178	3
186	2
187	3
188	2
189	1
190	1
198	1
200	6
201	1
204	2
205	2
206	1
214	17
215	5
216	63
217	20
218	11
219	6
220	2
221	1
230	7
231	1
232	2
246	32
247	10
248	5
249	1
304	246
305	83
306	49
307	11
308	2
