Mass spectrum: Ethanolamine; GC-EI-TOF; MS; 3 TMS; BP:174
Name: Ethanolamine
Class: Natural Product
Formula: C2H7NO
Exact mass: 61.05276
SMILES: NCCO
InChI: InChI=1S/C2H7NO/c3-1-2-4/h4H,1-3H2
Instrument: Pegasus III TOF-MS system, Leco; GC 6890, Agilent Technologies
Instrument type: GC-EI-TOF
Ms type: MS
Ion mode: POSITIVE
Column name: DB-17MS
Retention time: 529.512 sec
Base peak: 174
Derivative type: 3 TMS
m/z	relative intensity
84	9
85	12
86	425
87	57
88	26
89	16
91	1
99	5
100	429
101	61
102	56
103	24
104	4
112	1
113	12
114	54
115	23
116	18
117	37
118	8
119	19
120	1
128	1
129	3
130	67
131	49
132	20
133	98
134	18
135	8
137	1
142	1
143	2
144	11
145	4
146	11
147	216
148	35
149	13
150	2
158	12
159	3
160	3
162	1
172	21
173	2
174	999
175	219
176	92
177	14
178	1
188	9
189	2
190	1
191	1
202	1
204	1
260	1
261	1
262	15
263	3
264	2
276	1
277	1
