Mass spectrum: DL-6,8-Thioctic acid; GC-EI-TOF; MS; 1 TMS; BP:123
Name: DL-alpha-Lipoic acid
Name: DL-6,8-Thioctic acid
Class: Natural Product
Formula: C8H14O2S2
Exact mass: 206.04352
SMILES: OC(=O)CCCCC(C1)SSC1
InChI: InChI=1S/C8H14O2S2/c9-8(10)4-2-1-3-7-5-6-11-12-7/h7H,1-6H2,(H,9,10)
Instrument: Pegasus III TOF-MS system, Leco; GC 6890, Agilent Technologies
Instrument type: GC-EI-TOF
Ms type: MS
Ion mode: POSITIVE
Column name: DB-17MS
Retention time: 1020.21 sec
Base peak: 123
Derivative type: 1 TMS
m/z	relative intensity
82	83
83	37
84	20
85	178
86	52
87	148
88	27
89	35
90	10
91	106
92	20
93	207
94	37
95	684
96	163
97	78
98	27
99	141
100	71
101	83
102	13
103	53
104	10
105	689
106	57
107	75
108	6
109	24
110	15
111	45
112	45
113	320
114	39
115	45
116	80
117	429
118	51
119	48
120	5
121	86
122	17
123	999
124	255
125	39
126	47
127	178
128	81
129	266
130	43
131	40
132	42
133	10
134	4
135	7
136	4
137	65
138	15
139	19
140	4
141	15
142	8
143	14
144	5
145	38
146	20
147	12
148	4
149	5
150	1
151	10
152	2
153	18
154	27
155	352
156	50
157	52
158	8
159	20
160	21
161	16
162	4
163	3
164	1
165	3
166	1
167	7
168	2
169	16
170	9
171	61
172	9
173	11
174	2
175	1
176	1
177	3
179	8
180	2
181	5
182	2
183	10
184	1
185	38
186	7
187	6
188	85
189	12
190	9
191	2
194	1
195	11
196	3
197	75
198	21
199	21
200	4
201	3
203	1
211	2
212	1
213	74
214	16
215	5
216	1
217	3
227	1
228	1
229	14
230	5
231	2
235	1
244	3
245	25
246	11
247	4
248	2
262	2
263	51
264	9
265	7
266	1
277	6
278	199
279	39
280	28
281	4
282	2
