Mass spectrum: Histamine; GC-EI-TOF; MS; 3 TMS; BP:86
Name: Histamine
Class: Natural Product
Formula: C5H9N3
Exact mass: 111.07965
SMILES: C1=C(NC=N1)CCN
InChI: InChI=1S/C5H9N3/c6-2-1-5-3-7-4-8-5/h3-4H,1-2,6H2,(H,7,8)
Instrument: Pegasus III TOF-MS system, Leco; GC 6890, Agilent Technologies
Instrument type: GC-EI-TOF
Ms type: MS
Ion mode: POSITIVE
Column name: DB-17MS
Retention time: 928.313 sec
Base peak: 86
Derivative type: 3 TMS
m/z	relative intensity
82	11
83	28
84	117
85	47
86	999
87	114
88	51
89	4
90	1
91	2
92	1
93	3
94	4
95	11
96	17
97	16
98	54
99	33
100	749
101	142
102	86
103	15
104	5
105	1
106	1
107	1
108	3
109	7
110	23
111	40
112	78
113	47
114	35
115	28
116	77
117	75
118	16
119	6
120	1
121	5
122	2
123	15
124	10
125	17
126	15
127	14
128	9
129	13
130	299
131	72
132	37
133	6
134	1
135	4
136	5
137	15
138	16
139	20
140	11
141	10
142	7
143	4
144	12
145	3
146	36
147	7
148	1
149	9
150	15
151	10
152	11
153	46
154	63
155	19
156	8
157	2
158	8
159	1
160	3
164	4
165	1
166	16
167	3
168	1
170	2
176	20
177	3
178	1
180	1
181	2
182	2
183	1
184	4
185	3
186	1
192	1
193	1
194	1
195	4
196	2
197	5
198	2
199	2
208	4
210	1
211	3
212	3
213	1
222	1
223	1
224	35
225	15
226	103
227	33
228	20
229	3
230	1
237	1
238	24
239	9
240	36
241	8
242	3
252	2
254	10
255	3
256	1
268	1
282	1
283	1
296	1
297	1
310	1
312	140
313	61
314	34
315	8
316	2
326	8
327	4
328	2
