Mass spectrum: Serotonin; GC-EI-TOF; MS; 5 TMS; BP:174
Name: Serotonin
Class: Natural Product
Formula: C10H12N2O
Exact mass: 176.09496
SMILES: C1=CC2=C(C=C1O)C(=CN2)CCN
InChI: InChI=1S/C10H12N2O/c11-4-3-7-6-12-10-2-1-8(13)5-9(7)10/h1-2,5-6,12-13H,3-4,11H2
Instrument: Pegasus III TOF-MS system, Leco; GC 6890, Agilent Technologies
Instrument type: GC-EI-TOF
Ms type: MS
Ion mode: POSITIVE
Column name: DB-17MS
Retention time: 1182.21 sec
Base peak: 174
Derivative type: 5 TMS
m/z	relative intensity
83	3
84	6
85	7
86	378
87	39
88	17
89	9
90	4
91	6
92	1
93	1
95	1
98	1
99	3
100	178
101	35
102	47
103	13
104	3
105	2
107	1
113	6
114	7
115	25
116	19
117	30
118	8
119	4
120	1
121	2
127	3
128	19
129	28
130	75
131	28
132	11
133	6
134	3
135	2
136	1
137	1
140	1
141	3
142	11
143	11
144	19
145	7
146	81
147	17
148	7
149	1
154	2
155	1
156	5
157	1
158	9
159	3
160	6
161	3
162	2
163	1
169	1
170	7
171	2
172	17
173	7
174	999
175	201
176	93
177	12
178	2
181	1
184	4
185	2
186	7
187	3
188	31
189	7
190	3
191	1
198	1
199	1
200	5
201	2
202	21
203	6
204	8
205	2
206	1
213	1
214	1
215	3
216	9
217	4
218	60
219	15
220	4
221	1
229	1
230	5
231	4
232	7
233	3
234	1
236	1
244	1
246	2
248	2
258	1
260	4
261	2
262	2
271	1
272	1
273	1
274	2
275	1
276	4
277	1
287	1
288	2
289	20
290	7
291	2
302	1
303	11
304	3
305	1
375	1
376	2
377	20
378	7
379	3
392	1
