Mass spectrum: DL-Cystathionine; GC-EI-TOF; MS; 4 TMS; BP:128
Name: Cystathionine
Name: DL-Cystathionine
Class: Natural Product
Formula: C7H14N2O4S
Exact mass: 222.06743
SMILES: OC(=O)[C@@H](N)CCSC[C@H](N)C(O)=O
InChI: InChI=1S/C7H14N2O4S/c8-4(6(10)11)1-2-14-3-5(9)7(12)13/h4-5H,1-3,8-9H2,(H,10,11)(H,12,13)
Instrument: Pegasus III TOF-MS system, Leco; GC 6890, Agilent Technologies
Instrument type: GC-EI-TOF
Ms type: MS
Ion mode: POSITIVE
Column name: DB-17MS
Retention time: 1014.76 sec
Base peak: 128
Derivative type: 4 TMS
m/z	relative intensity
82	3
83	5
84	6
85	11
86	25
87	12
88	54
89	5
90	5
91	7
92	1
93	2
95	1
96	2
97	2
98	14
99	6
100	304
101	52
102	29
103	35
104	5
105	11
106	1
107	1
110	2
112	17
113	5
114	70
115	47
116	31
117	26
118	11
119	9
120	2
121	1
126	14
127	9
128	999
129	160
130	79
131	40
132	57
133	59
134	13
135	6
136	1
138	23
139	3
140	1
141	2
142	5
143	3
144	11
145	4
146	17
147	304
148	102
149	40
150	9
151	2
152	1
154	1
155	1
156	12
157	3
158	9
159	9
160	203
161	40
162	42
163	17
164	5
165	2
170	1
171	1
172	18
173	5
174	31
175	9
176	41
177	7
178	4
179	1
185	1
186	5
187	2
188	42
189	13
190	17
191	6
192	2
193	1
200	4
201	2
202	82
203	32
204	22
205	9
206	6
207	2
208	1
213	1
214	2
215	1
216	55
217	17
218	989
219	255
220	108
221	20
222	6
223	3
224	1
225	1
228	3
229	2
230	27
231	8
232	37
233	9
234	11
235	3
236	3
237	1
244	10
245	145
246	39
247	16
248	5
249	7
250	4
251	1
260	14
261	8
262	14
263	4
264	4
265	1
266	8
267	1
268	1
274	15
275	5
276	3
277	4
278	222
279	61
280	35
281	7
282	2
288	18
289	6
290	4
291	77
292	88
293	47
294	17
295	5
296	1
302	5
303	2
304	5
305	2
306	1
317	1
318	1
377	1
393	4
394	1
395	1
405	2
495	3
496	1
