Mass spectrum: L-Iditol; GC-EI-TOF; MS; 6 TMS; BP:147
Name: L-Iditol
Class: Natural Product
Formula: C6H14O6
Exact mass: 182.07904
SMILES: OC[C@H](O)[C@@H](O)[C@H](O)[C@@H](O)CO
InChI: InChI=1S/C6H14O6/c7-1-3(9)5(11)6(12)4(10)2-8/h3-12H,1-2H2/t3-,4-,5+,6+/m0/s1
Instrument: Pegasus III TOF-MS system, Leco; GC 6890, Agilent Technologies
Instrument type: GC-EI-TOF
Ms type: MS
Ion mode: POSITIVE
Column name: DB-17MS
Retention time: 848.913 sec
Base peak: 147
Derivative type: 6 TMS
m/z	relative intensity
82	1
83	34
84	6
85	15
86	4
87	27
88	21
89	113
90	11
91	6
92	1
93	1
94	1
95	2
96	1
97	23
98	3
99	16
100	3
101	96
102	19
103	790
104	81
105	40
106	3
107	1
108	1
109	1
111	12
112	2
113	19
114	3
115	23
116	27
117	384
118	41
119	34
120	3
121	2
125	2
126	1
127	10
128	2
129	295
130	37
131	94
132	14
133	186
134	26
135	17
136	1
137	1
139	1
140	1
141	6
142	4
143	45
144	6
145	12
146	3
147	999
148	168
149	102
150	11
151	6
152	1
153	2
154	1
155	11
156	3
157	165
158	22
159	14
160	2
161	8
162	2
163	15
164	2
165	1
167	3
168	1
169	13
170	2
171	2
172	1
173	3
174	1
175	21
176	4
177	10
178	2
179	1
181	1
182	1
183	19
184	3
185	2
186	1
187	2
188	1
189	89
190	25
191	81
192	15
193	8
194	1
201	4
202	2
203	11
204	101
205	403
206	85
207	45
208	7
209	2
215	5
216	2
217	554
218	124
219	56
220	9
221	26
222	6
223	3
224	1
229	47
230	16
231	47
232	10
233	4
234	1
235	1
237	1
239	3
240	1
241	1
243	6
244	1
245	1
246	1
247	4
248	1
249	1
250	1
255	19
256	5
257	6
258	1
259	13
260	3
261	1
263	1
265	5
266	1
267	1
273	1
277	25
278	13
279	5
280	1
291	15
292	5
293	2
305	16
306	12
307	81
308	24
309	12
310	2
317	1
318	7
319	268
320	83
321	40
322	9
323	2
329	2
330	2
331	24
332	7
333	4
334	1
344	1
345	12
346	4
347	2
409	2
419	6
420	3
421	7
422	2
423	1
