Mass spectrum: L-Leucine; GC-EI-TOF; MS; 2 TMS; BP:158
Name: L-Leucine
Class: Natural Product
Formula: C6H13NO2
Exact mass: 131.09463
SMILES: CC(C)C[C@H](N)C(O)=O
InChI: InChI=1S/C6H13NO2/c1-4(2)3-5(7)6(8)9/h4-5H,3,7H2,1-2H3,(H,8,9)/t5-/m0/s1
Instrument: Pegasus III TOF-MS system, Leco; GC 6890, Agilent Technologies
Instrument type: GC-EI-TOF
Ms type: MS
Ion mode: POSITIVE
Column name: DB-17MS
Retention time: 723.269 sec
Base peak: 158
Derivative type: 2 TMS
m/z	relative intensity
82	4
83	3
84	14
85	6
86	31
87	6
88	3
89	2
91	1
93	1
94	1
95	1
96	4
97	2
98	5
99	9
100	83
101	14
102	189
103	35
104	7
105	4
110	1
111	1
112	3
113	2
114	5
115	28
116	38
117	15
118	3
119	4
126	2
127	1
128	18
129	6
130	29
131	15
132	15
133	29
134	5
135	2
142	16
143	4
144	3
145	1
146	3
147	92
148	15
149	7
156	5
157	3
158	999
159	119
160	34
161	3
163	1
170	8
171	2
172	1
174	3
175	1
176	2
177	2
188	1
202	1
203	2
204	1
218	22
219	4
220	1
231	1
232	29
233	7
234	2
260	6
261	1
