Mass spectrum: DOPA; GC-EI-TOF; MS; 4 TMS; BP:218
Name: 3,4-Dihydroxy-L-phenylalanine
Name: DOPA
Class: Natural Product
Formula: C9H11NO4
Exact mass: 197.06881
SMILES: OC(=O)C([H])(N)Cc(c1)cc(O)c(O)c1
InChI: InChI=1S/C9H11NO4/c10-6(9(13)14)3-5-1-2-7(11)8(12)4-5/h1-2,4,6,11-12H,3,10H2,(H,13,14)/t6-/m0/s1
Instrument: Pegasus III TOF-MS system, Leco; GC 6890, Agilent Technologies
Instrument type: GC-EI-TOF
Ms type: MS
Ion mode: POSITIVE
Column name: DB-17MS
Retention time: 973.513 sec
Base peak: 218
Derivative type: 4 TMS
m/z	relative intensity
82	5
83	5
84	8
85	6
86	26
87	10
88	3
89	8
90	3
91	13
92	3
93	4
95	4
97	2
98	2
99	5
100	278
101	54
102	23
103	29
104	15
105	21
106	2
107	2
109	1
111	1
113	2
114	1
115	17
116	6
117	19
118	6
119	17
120	2
121	3
123	1
128	2
129	6
130	51
131	38
132	36
133	45
134	8
135	8
136	2
137	2
142	1
143	2
144	4
145	4
146	7
147	162
148	28
149	44
150	7
151	7
152	1
153	1
157	1
158	4
159	7
160	7
161	8
162	4
163	17
164	3
165	6
166	5
167	2
172	4
173	2
174	6
175	4
176	2
177	8
178	3
179	176
180	32
181	32
182	5
183	1
184	1
188	2
189	1
190	4
191	13
192	4
193	7
194	2
195	3
196	1
202	2
203	11
204	3
205	3
206	2
207	6
208	2
209	4
210	1
216	1
217	4
218	999
219	209
220	94
221	14
222	3
223	4
224	1
233	1
234	1
235	1
236	1
237	7
238	2
239	1
248	2
249	1
250	1
251	3
252	1
253	2
264	1
265	6
266	4
267	116
268	38
269	14
270	2
278	1
279	2
280	33
281	13
282	4
291	6
292	2
293	1
294	1
295	3
296	1
306	2
307	2
308	1
352	1
353	2
354	2
355	1
366	1
367	9
368	41
369	16
370	7
371	1
378	1
379	2
380	9
381	4
382	1
441	2
442	8
443	4
444	2
469	1
470	5
471	2
472	1
