Mass spectrum: Tyramine; GC-EI-TOF; MS; 3 TMS; BP:174
Name: Tyramine
Class: Natural Product
Formula: C8H11NO
Exact mass: 137.08406
SMILES: NCCc(c1)ccc(O)c1
InChI: InChI=1S/C8H11NO/c9-6-5-7-1-3-8(10)4-2-7/h1-4,10H,5-6,9H2
Instrument: Pegasus III TOF-MS system, Leco; GC 6890, Agilent Technologies
Instrument type: GC-EI-TOF
Ms type: MS
Ion mode: POSITIVE
Column name: DB-17MS
Retention time: 903.612 sec
Base peak: 174
Derivative type: 3 TMS
m/z	relative intensity
82	6
83	4
84	15
85	11
86	417
87	40
88	16
89	19
90	14
91	29
92	3
93	3
95	4
96	1
97	1
98	1
99	5
100	192
101	37
102	29
103	17
104	8
105	16
106	2
107	5
109	3
111	1
113	6
114	5
115	11
116	21
117	35
118	6
119	9
120	1
121	8
122	1
123	2
125	2
128	1
129	3
130	46
131	30
132	8
133	17
134	4
135	15
136	2
137	2
143	2
144	10
145	8
146	13
147	13
148	5
149	35
150	5
151	6
158	9
159	3
160	4
161	5
162	6
163	14
164	10
165	9
166	1
169	1
172	10
173	3
174	999
175	182
176	86
177	19
178	4
179	44
180	8
181	2
190	12
191	3
192	4
193	9
194	2
195	2
205	1
206	1
207	8
208	2
209	1
221	2
223	5
224	1
232	1
233	1
234	1
237	2
248	6
249	2
250	17
251	3
252	1
264	12
265	3
266	1
337	2
338	24
339	7
340	2
