Mass spectrum: D-(+)-Mannose; GC-EI-TOF; MS; 5 TMS; BP:147
Name: D-(+)-Mannose
Class: Natural Product
Formula: C6H12O6
Exact mass: 180.06339
SMILES: OCC(O1)C(O)C(O)C(O)C(O)1
InChI: InChI=1S/C6H12O6/c7-1-2-3(8)4(9)5(10)6(11)12-2/h2-11H,1H2/t2-,3-,4+,5+,6?/m1/s1
Instrument: Pegasus III TOF-MS system, Leco; GC 6890, Agilent Technologies
Instrument type: GC-EI-TOF
Ms type: MS
Ion mode: POSITIVE
Column name: DB-17MS
Retention time: 845.462 sec
Base peak: 147
Derivative type: 5 TMS
m/z	relative intensity
82	12
83	50
84	12
85	21
86	14
87	28
88	21
89	355
90	32
91	17
92	1
94	2
95	1
96	10
97	17
98	5
99	20
100	59
101	87
102	39
103	693
104	72
105	87
106	11
107	3
108	1
109	1
110	2
111	12
112	5
113	18
114	19
115	28
116	27
117	334
118	36
119	40
120	4
121	2
124	1
125	3
126	6
127	14
128	8
129	348
130	62
131	106
132	18
133	270
134	35
135	21
136	2
137	1
138	2
139	1
140	2
141	6
142	9
143	40
144	6
145	12
146	4
147	999
148	162
149	99
150	11
151	5
152	2
153	1
154	5
155	3
156	3
157	202
158	34
159	20
160	408
161	79
162	21
163	30
164	4
165	2
166	1
168	3
169	12
170	4
171	4
172	13
173	11
174	5
175	15
176	3
177	17
178	4
179	2
180	2
181	1
182	4
183	1
184	1
185	2
186	7
187	6
188	5
189	70
190	21
191	32
192	6
193	3
194	1
196	3
197	1
198	1
199	1
200	5
201	32
202	8
203	14
204	77
205	493
206	101
207	52
208	8
209	2
210	2
211	1
214	12
215	5
216	6
217	213
218	46
219	22
220	4
221	15
222	4
223	2
224	1
226	1
227	1
228	2
229	56
230	19
231	19
232	6
233	24
234	9
235	12
236	2
237	2
240	1
241	1
242	4
243	6
244	4
245	6
246	5
247	3
248	2
249	1
256	1
259	2
260	2
261	1
262	2
263	1
265	1
268	6
269	2
270	2
273	4
274	5
275	2
276	1
277	14
278	5
279	2
290	1
291	17
292	5
293	2
300	2
301	1
302	1
304	1
305	10
306	4
307	11
308	3
309	1
318	17
319	275
320	88
321	41
322	8
323	2
328	1
331	1
333	1
337	3
338	1
342	1
344	1
365	1
374	1
376	1
