Mass spectrum: L-Aspartic acid; GC-EI-TOF; MS; 3 TMS; BP:232
Name: L-Aspartic acid
Class: Natural Product
Formula: C4H7NO4
Exact mass: 133.03751
SMILES: OC(=O)CC(N)C(O)=O
InChI: InChI=1S/C4H7NO4/c5-2(4(8)9)1-3(6)7/h2H,1,5H2,(H,6,7)(H,8,9)/t2-/m0/s1
Instrument: Pegasus III TOF-MS system, Leco; GC 6890, Agilent Technologies
Instrument type: GC-EI-TOF
Ms type: MS
Ion mode: POSITIVE
Column name: DB-17MS
Retention time: 730.212 sec
Base peak: 232
Derivative type: 3 TMS
m/z	relative intensity
82	3
83	4
84	13
85	9
86	18
87	8
88	6
89	6
90	1
91	2
96	1
97	1
98	24
99	20
100	748
101	88
102	40
103	33
104	4
105	6
110	1
112	2
113	4
114	13
115	39
116	21
117	143
118	19
119	26
120	3
121	1
126	2
127	1
128	18
129	12
130	63
131	54
132	40
133	102
134	21
135	12
136	2
137	1
140	2
141	2
142	45
143	19
144	19
145	7
146	14
147	473
148	85
149	69
150	9
151	4
152	1
154	1
155	1
156	1
157	2
158	8
159	5
160	11
161	5
162	2
163	29
164	7
165	3
166	1
170	2
171	4
172	18
173	7
174	27
175	7
176	6
177	8
178	2
179	1
184	2
185	1
186	2
187	1
188	94
189	27
190	17
191	7
192	2
193	2
200	3
201	1
202	94
203	23
204	28
205	9
206	4
207	2
208	1
214	2
215	2
216	46
217	12
218	220
219	47
220	21
221	9
222	2
223	1
230	4
231	4
232	999
233	226
234	92
235	17
236	3
244	8
245	8
246	5
247	1
259	1
262	3
263	1
264	1
292	18
293	6
294	3
306	33
307	14
308	6
309	1
316	1
334	16
335	5
336	2
349	7
350	2
351	1
