Mass spectrum: D-Xylulose; GC-EI-TOF; MS; 4 TMS; BP:73
Name: D-Xylulose
Class: Natural Product
Formula: C5H10O5
Exact mass: 150.05282
SMILES: OCC(O)(O1)C(O)C(O)C1
InChI: InChI=1S/C5H10O5/c6-2-5(9)4(8)3(7)1-10-5/h3-4,6-9H,1-2H2/t3-,4+,5?/m1/s1
Instrument: Pegasus III TOF-MS system, Leco; GC 6890, Agilent Technologies
Instrument type: GC-EI-TOF
Ms type: MS
Ion mode: POSITIVE
Column name: DB-17MS
Retention time: 1347.32 sec
Base peak: 73
Derivative type: 4 TMS
m/z	relative intensity
39	2
40	1
41	22
42	9
43	34
44	19
45	127
46	5
47	11
51	1
52	3
53	3
54	5
55	10
56	4
57	5
58	15
59	67
60	6
61	7
66	6
67	2
68	2
69	1
70	7
71	5
72	21
73	999
74	95
75	65
76	3
77	2
82	6
83	1
84	31
85	6
86	2
87	5
88	4
89	73
90	7
91	3
96	1
98	2
99	2
100	9
101	20
102	6
103	116
104	14
105	12
106	1
112	1
113	3
114	19
115	9
116	6
117	152
118	14
119	13
120	1
126	7
127	1
128	3
129	11
130	4
131	16
132	3
133	48
134	6
135	4
140	1
141	1
142	23
143	7
144	3
145	3
146	1
147	308
148	49
149	28
150	2
151	1
154	5
155	1
156	2
157	2
158	3
159	5
160	1
161	1
163	10
164	1
165	1
168	1
170	1
172	11
173	98
174	17
175	8
176	1
177	3
178	1
184	1
186	2
187	1
188	1
189	7
190	2
191	5
192	1
198	1
200	2
201	11
202	9
203	4
204	12
205	140
206	27
207	13
208	2
214	2
216	4
217	12
218	3
219	2
221	3
228	1
230	1
231	2
232	4
233	1
244	1
256	1
260	1
262	5
263	62
264	15
265	6
288	3
291	1
333	1
334	1
335	1
364	4
365	1
