Mass spectrum: L-Isoleucine; GC-EI-TOF; MS; 2 TMS; BP:158
Name: L-Isoleucine
Class: Natural Product
Formula: C6H13NO2
Exact mass: 131.09463
SMILES: CC[C@H](C)[C@H](N)C(O)=O
InChI: InChI=1S/C6H13NO2/c1-3-4(2)5(7)6(8)9/h4-5H,3,7H2,1-2H3,(H,8,9)/t4-,5-/m0/s1
Instrument: Pegasus III TOF-MS system, Leco; GC 6890, Agilent Technologies
Instrument type: GC-EI-TOF
Ms type: MS
Ion mode: POSITIVE
Column name: DB-17MS
Retention time: 578.878 sec
Base peak: 158
Derivative type: 2 TMS
m/z	relative intensity
82	5
83	3
84	23
85	13
86	72
87	12
88	5
89	2
90	13
91	2
92	1
94	1
95	1
96	6
97	5
98	10
99	8
100	166
101	29
102	55
103	27
104	4
105	5
110	2
111	1
112	6
113	3
114	24
115	14
116	12
117	14
118	4
119	6
120	1
121	1
124	1
126	3
127	2
128	23
129	18
130	21
131	20
132	28
133	34
134	6
135	2
140	1
142	22
143	12
144	6
145	1
146	10
147	150
148	26
149	15
150	2
156	10
157	4
158	999
159	154
160	50
161	6
162	1
163	5
164	1
170	15
171	3
172	2
173	1
174	4
175	1
176	1
188	1
192	1
203	6
204	1
216	1
217	1
218	136
219	27
220	12
221	1
232	35
233	11
234	4
235	1
246	1
260	6
261	1
