Mass spectrum: Melibiose; GC-EI-TOF; MS; 8 TMS; BP:204
Name: Melibiose
Class: Natural Product
Formula: C12H22O11
Exact mass: 342.11621
SMILES: OC[C@@H](O1)[C@H](O)[C@H](O)[C@@H](O)[C@@H](OC[C@@H](O2)[C@@H](O)[C@H](O)[C@@H](O)C(O)2)1
InChI: InChI=1S/C12H22O11/c13-1-3-5(14)8(17)10(19)12(23-3)21-2-4-6(15)7(16)9(18)11(20)22-4/h3-20H,1-2H2/t3-,4-,5+,6-,7+,8+,9-,10-,11?,12+/m1/s1
Instrument: Pegasus III TOF-MS system, Leco; GC 6890, Agilent Technologies
Instrument type: GC-EI-TOF
Ms type: MS
Ion mode: POSITIVE
Column name: DB-17MS
Retention time: 1139.41 sec
Base peak: 204
Derivative type: 8 TMS
m/z	relative intensity
82	17
83	13
85	25
86	13
87	20
88	9
89	194
90	19
91	10
92	1
93	1
94	3
95	5
96	3
97	16
98	6
99	24
100	73
101	156
102	58
103	721
104	74
105	126
106	13
107	6
108	2
109	22
110	4
111	13
112	7
113	32
114	30
115	35
116	82
117	255
118	30
119	23
120	3
121	2
122	1
123	2
124	2
125	5
126	5
127	24
128	18
129	624
130	102
131	117
132	19
133	154
134	23
135	14
136	2
137	1
138	2
139	9
140	5
141	18
142	31
143	96
144	16
145	36
146	8
147	828
148	139
149	92
150	12
151	7
152	3
153	11
154	6
155	90
156	20
157	85
158	23
159	16
160	461
161	193
162	39
163	37
164	6
165	3
166	1
167	4
168	6
169	327
170	53
171	32
172	7
173	18
174	9
175	13
176	3
177	11
178	2
179	2
180	2
181	4
182	2
183	11
184	3
185	4
186	7
187	9
188	4
189	88
190	30
191	180
192	33
193	16
194	3
195	2
196	3
197	3
198	3
199	9
200	5
201	6
202	4
203	42
204	999
205	237
206	97
207	24
208	5
209	2
210	5
211	2
212	1
213	2
214	2
215	12
216	24
217	423
218	118
219	54
220	11
221	27
222	7
223	5
224	1
225	1
226	1
227	11
228	21
229	39
230	23
231	56
232	19
233	30
234	12
235	6
236	1
237	1
238	1
239	2
240	3
241	17
242	10
243	171
244	55
245	51
246	31
247	30
248	8
249	4
250	1
251	1
252	1
253	1
254	2
255	6
256	8
257	15
258	6
259	39
260	12
261	7
262	20
263	9
264	3
265	9
266	3
267	2
268	6
269	14
270	10
271	204
272	50
273	32
274	26
275	17
276	15
277	14
278	7
279	6
280	2
281	1
283	1
285	1
286	2
287	2
288	2
289	7
290	3
291	50
292	16
293	10
294	2
295	1
297	1
300	25
301	8
302	5
303	4
304	6
305	66
306	27
307	40
308	12
309	5
310	1
313	1
314	1
315	1
316	2
317	19
318	14
319	115
320	41
321	20
322	5
323	1
329	1
330	1
331	40
332	23
333	15
334	5
335	4
336	2
337	1
343	1
344	1
345	4
346	4
347	2
348	1
349	1
350	1
359	1
360	16
361	233
362	108
363	57
364	25
365	8
366	3
367	1
376	2
377	1
389	1
390	28
391	11
392	6
393	3
394	1
403	1
404	1
405	1
406	1
407	2
408	1
409	2
410	1
423	1
433	1
434	1
435	2
436	1
448	2
449	3
450	4
451	22
452	13
453	6
454	2
464	1
466	2
467	1
479	5
480	55
481	27
482	15
483	5
484	1
493	1
