Mass spectrum: D-(+)-Galactose; GC-EI-TOF; MS; 5 TMS; BP:147
Name: D-(+)-Galactose
Class: Natural Product
Formula: C6H12O6
Exact mass: 180.06339
SMILES: OC[C@@H](O1)[C@H](O)[C@H](O)[C@@H](O)C(O)1
InChI: InChI=1S/C6H12O6/c7-1-2-3(8)4(9)5(10)6(11)12-2/h2-11H,1H2/t2-,3+,4+,5-,6?/m1/s1
Instrument: Pegasus III TOF-MS system, Leco; GC 6890, Agilent Technologies
Instrument type: GC-EI-TOF
Ms type: MS
Ion mode: POSITIVE
Column name: DB-17MS
Retention time: 852.762 sec
Base peak: 147
Derivative type: 5 TMS
m/z	relative intensity
82	17
83	34
84	10
85	13
86	19
87	16
88	14
89	197
90	18
91	8
96	1
97	5
98	4
99	13
100	41
101	57
102	34
103	504
104	50
105	89
106	9
107	3
108	1
110	3
111	4
112	5
113	11
114	33
115	23
116	17
117	246
118	28
119	21
120	2
121	1
124	1
125	1
126	4
127	10
128	12
129	287
130	61
131	74
132	14
133	146
134	20
135	11
136	1
137	1
138	1
139	1
140	2
141	4
142	11
143	38
144	8
145	21
146	6
147	999
148	162
149	94
150	11
151	4
152	2
153	1
154	3
155	4
156	4
157	226
158	46
159	20
160	455
161	83
162	23
163	27
164	5
165	2
166	1
167	1
168	4
169	6
170	4
171	2
172	7
173	10
174	5
175	10
176	3
177	10
178	3
179	2
180	2
181	2
182	2
183	1
184	2
185	2
186	9
187	4
188	3
189	66
190	23
191	34
192	7
193	3
194	1
196	1
197	1
198	1
199	1
200	2
202	2
203	8
204	68
205	623
206	123
207	73
208	11
209	3
210	8
211	2
212	2
213	1
214	4
215	8
216	31
217	423
218	97
219	45
220	8
221	21
222	6
223	3
224	1
225	1
226	1
227	1
228	6
229	94
230	30
231	44
232	18
233	18
234	20
235	6
236	2
237	1
238	1
239	1
240	4
241	2
242	3
243	7
244	11
245	6
246	10
247	9
248	3
249	2
250	1
251	1
252	1
253	1
254	1
255	1
256	5
257	2
258	1
259	4
260	4
261	2
262	17
263	5
264	2
265	3
266	1
267	1
268	3
269	7
270	4
271	2
272	2
273	1
274	12
275	5
276	3
277	18
278	10
279	5
280	2
286	1
290	1
291	16
292	12
293	5
294	2
300	4
301	3
302	2
303	1
304	1
305	11
306	8
307	13
308	6
309	2
317	1
318	7
319	384
320	128
321	78
322	17
323	4
330	1
331	2
332	2
333	2
334	1
336	1
342	1
343	6
344	7
345	3
346	2
350	1
358	2
359	1
364	7
365	5
366	2
374	6
375	2
376	5
377	1
378	1
390	1
409	1
432	1
433	1
448	1
464	1
465	1
466	3
467	1
