Mass spectrum: Glycerol; GC-EI-TOF; MS; 3 TMS; BP:147
Name: Glycerol
Class: Natural Product
Formula: C3H8O3
Exact mass: 92.04734
SMILES: OCC(O)CO
InChI: InChI=1S/C3H8O3/c4-1-3(6)2-5/h3-6H,1-2H2
Instrument: Pegasus III TOF-MS system, Leco; GC 6890, Agilent Technologies
Instrument type: GC-EI-TOF
Ms type: MS
Ion mode: POSITIVE
Column name: DB-17MS
Retention time: 546.994 sec
Base peak: 147
Derivative type: 3 TMS
m/z	relative intensity
83	2
85	18
86	3
87	16
88	15
89	55
90	5
91	2
95	1
97	1
99	10
100	1
101	140
102	18
103	704
104	56
105	24
106	2
107	1
111	1
113	14
114	2
115	33
116	64
117	627
118	54
119	37
120	4
121	2
128	4
129	128
130	17
131	86
132	14
133	244
134	32
135	18
136	1
143	1
145	3
146	2
147	999
148	153
149	83
150	10
151	4
159	6
160	1
161	4
162	2
163	16
164	3
165	2
169	1
170	1
171	1
172	1
173	2
174	5
175	54
176	11
177	60
178	10
179	5
180	1
181	1
182	1
183	1
185	1
186	1
187	1
188	1
189	9
190	5
191	43
192	9
193	4
203	39
204	65
205	539
206	116
207	58
208	8
209	2
217	40
218	235
219	52
220	21
221	10
222	2
223	1
263	5
264	2
265	1
293	31
294	8
295	4
