Mass spectrum: Psoralen; GC-EI-TOF; MS; 0 TMS; BP:158
Name: Psoralen
Class: Natural Product
Formula: C11H6O3
Exact mass: 186.03169
SMILES: O=C(C=3)Oc(c1)c(C3)cc(c2)c(oc2)1
InChI: InChI=1S/C11H6O3/c12-11-2-1-7-5-8-3-4-13-9(8)6-10(7)14-11/h1-6H
Instrument: Pegasus III TOF-MS system, Leco; GC 6890, Agilent Technologies
Instrument type: GC-EI-TOF
Ms type: MS
Ion mode: POSITIVE
Column name: DB-17MS
Retention time: 1045.96 sec
Base peak: 158
Derivative type: 0 TMS
m/z	relative intensity
84	14
85	48
86	72
87	74
88	16
89	17
90	3
91	1
92	2
93	36
94	1
97	9
98	50
99	18
100	16
101	129
102	855
103	82
104	29
105	2
109	3
110	4
111	1
113	7
114	2
115	1
116	2
117	3
118	1
119	1
128	2
129	151
130	380
131	48
132	8
141	1
142	1
145	1
157	17
158	999
159	126
160	12
161	1
185	3
186	844
187	103
188	11
