Mass spectrum: Melibiose; GC-EI-TOF; MS; 8 TMS; BP:204
Name: Melibiose
Class: Natural Product
Formula: C12H22O11
Exact mass: 342.11621
SMILES: OC[C@@H](O1)[C@H](O)[C@H](O)[C@@H](O)[C@@H](OC[C@@H](O2)[C@@H](O)[C@H](O)[C@@H](O)C(O)2)1
InChI: InChI=1S/C12H22O11/c13-1-3-5(14)8(17)10(19)12(23-3)21-2-4-6(15)7(16)9(18)11(20)22-4/h3-20H,1-2H2/t3-,4-,5+,6-,7+,8+,9-,10-,11?,12+/m1/s1
Instrument: Pegasus III TOF-MS system, Leco; GC 6890, Agilent Technologies
Instrument type: GC-EI-TOF
Ms type: MS
Ion mode: POSITIVE
Column name: DB-17MS
Retention time: 1145.86 sec
Base peak: 204
Derivative type: 8 TMS
m/z	relative intensity
82	11
83	13
84	17
85	27
86	11
87	22
88	11
89	213
90	19
91	12
92	1
93	2
94	2
95	6
96	5
97	22
98	5
99	25
100	69
101	165
102	51
103	790
104	82
105	82
106	10
107	4
108	1
109	21
110	3
111	21
112	5
113	32
114	16
115	33
116	77
117	248
118	27
119	31
120	3
121	2
122	1
123	2
124	1
125	5
126	6
127	21
128	11
129	532
130	81
131	122
132	21
133	272
134	35
135	20
136	2
137	2
138	1
139	9
140	4
141	16
142	17
143	85
144	13
145	29
146	7
147	830
148	139
149	103
150	12
151	9
152	3
153	13
154	7
155	79
156	16
157	73
158	15
159	21
160	307
161	152
162	29
163	36
164	6
165	3
166	1
167	4
168	4
169	324
170	49
171	31
172	17
173	19
174	8
175	16
176	3
177	20
178	6
179	3
180	2
181	3
182	2
183	11
184	2
185	5
186	4
187	8
188	3
189	87
190	27
191	168
192	31
193	16
194	2
195	2
196	3
197	3
198	2
199	9
200	5
201	20
202	6
203	46
204	999
205	288
206	110
207	31
208	6
209	2
210	3
211	2
212	1
213	2
214	8
215	14
216	9
217	494
218	134
219	62
220	12
221	28
222	7
223	5
224	1
225	1
227	11
228	6
229	30
230	21
231	36
232	12
233	40
234	11
235	22
236	4
237	2
238	1
239	1
240	1
241	12
242	7
243	118
244	34
245	34
246	13
247	19
248	5
249	3
250	1
251	1
254	1
255	4
256	2
257	8
258	3
259	23
260	6
261	4
262	3
263	3
264	1
265	5
266	1
267	1
268	10
269	5
270	4
271	107
272	27
273	42
274	15
275	13
276	4
277	9
278	4
279	3
280	1
285	1
286	1
287	1
288	1
289	4
290	2
291	28
292	9
293	5
294	1
300	8
301	2
302	3
303	3
304	5
305	38
306	16
307	21
308	6
309	3
310	1
313	1
315	1
316	1
317	10
318	8
319	59
320	20
321	11
322	3
323	1
328	1
330	1
331	27
332	16
333	9
334	3
335	2
336	1
337	4
338	1
339	1
344	1
345	3
346	2
347	1
348	1
349	2
358	1
359	2
360	18
361	400
362	140
363	83
364	22
365	7
366	1
376	2
377	1
390	2
391	1
393	1
435	1
448	2
449	1
450	1
451	9
452	4
453	2
480	2
481	1
