Mass spectrum: 4-Hydroxy-L-proline; GC-EI-TOF; MS; 3 TMS; BP:140
Name: L-Hydroxyproline
Name: 4-Hydroxy-L-proline
Class: Natural Product
Formula: C5H9NO3
Exact mass: 131.05824
SMILES: OC(C1)CC(N1)C(O)=O
InChI: InChI=1S/C5H9NO3/c7-3-1-4(5(8)9)6-2-3/h3-4,6-7H,1-2H2,(H,8,9)/t3?,4-/m0/s1
Instrument: Pegasus III TOF-MS system, Leco; GC 6890, Agilent Technologies
Instrument type: GC-EI-TOF
Ms type: MS
Ion mode: POSITIVE
Column name: DB-17MS
Retention time: 714.713 sec
Base peak: 140
Derivative type: 3 TMS
m/z	relative intensity
82	6
83	28
84	26
85	26
86	30
87	18
88	6
89	14
90	2
91	1
92	2
93	4
94	8
95	8
96	11
97	15
98	21
99	26
100	67
101	87
102	20
103	31
104	4
105	11
106	2
107	1
108	4
109	2
110	5
111	11
112	18
113	24
114	15
115	27
116	26
117	29
118	6
119	16
120	2
121	1
122	1
124	49
125	7
126	12
127	2
128	11
129	38
130	9
131	47
132	11
133	90
134	13
135	8
136	1
138	5
139	20
140	999
141	152
142	146
143	22
144	6
145	3
146	2
147	276
148	47
149	38
150	5
151	2
152	5
153	1
154	2
155	2
156	15
157	6
158	22
159	5
160	2
161	1
166	4
167	1
168	3
170	15
171	2
172	12
173	4
175	8
176	2
177	3
178	1
180	1
182	3
183	1
184	2
185	1
186	1
187	7
188	27
189	9
190	3
191	3
192	1
193	1
196	2
197	1
198	3
199	1
200	2
201	1
202	1
203	3
204	1
205	1
212	1
214	24
215	5
216	8
217	2
218	2
221	1
228	8
229	5
230	820
231	188
232	81
233	12
234	2
240	4
241	1
242	1
244	1
258	3
259	2
260	1
304	37
305	13
306	6
307	1
332	21
333	7
334	3
