Mass spectrum: D-(+)-Pantothenic acid; GC-EI-TOF; MS; x TMS; BP:103
Name: (+)-Pantothenic acid
Name: D-(+)-Pantothenic acid
Class: Natural Product
Formula: C9H17NO5
Exact mass: 219.11067
SMILES: OCC(C)(C)[C@@H](O)C(=O)NCCC(O)=O
InChI: InChI=1S/C9H17NO5/c1-9(2,5-11)7(14)8(15)10-4-3-6(12)13/h7,11,14H,3-5H2,1-2H3,(H,10,15)(H,12,13)/t7-/m0/s1
Instrument: Pegasus III TOF-MS system, Leco; GC 6890, Agilent Technologies
Instrument type: GC-EI-TOF
Ms type: MS
Ion mode: POSITIVE
Column name: DB-17MS
Retention time: 948.144 sec
Base peak: 103
Derivative type: x TMS
m/z	relative intensity
82	21
83	64
84	23
85	49
86	34
87	23
88	22
89	32
90	4
91	27
92	4
93	4
94	5
95	10
96	8
97	4
98	75
99	25
100	49
101	48
102	100
103	999
104	111
105	56
106	4
107	1
108	3
109	2
110	6
111	5
112	8
113	19
114	8
115	73
116	53
117	627
118	79
119	47
120	5
121	2
122	1
123	1
124	40
125	6
126	4
127	9
128	26
129	215
130	69
131	67
132	15
133	74
134	11
135	10
136	1
137	1
138	3
139	1
140	4
141	7
142	8
143	94
144	111
145	84
146	41
147	187
148	31
149	46
150	6
151	4
152	1
153	2
154	5
155	5
156	22
157	416
158	84
159	257
160	40
161	15
162	6
163	19
164	4
165	2
166	11
167	1
168	5
169	2
170	8
171	6
172	18
173	10
174	12
175	6
176	15
177	7
178	2
179	1
180	1
182	2
183	1
184	7
185	5
186	9
187	3
188	13
189	3
190	2
191	11
192	2
193	1
196	1
198	6
199	2
200	5
201	334
202	54
203	39
204	12
205	6
206	2
207	1
212	3
213	1
214	3
215	1
216	2
217	29
218	20
219	10
220	3
221	1
226	1
227	2
228	4
229	1
230	3
231	6
232	3
233	4
234	2
235	1
240	6
241	1
242	5
243	1
244	5
245	1
246	24
247	148
248	34
249	14
250	2
256	2
258	2
259	3
260	3
261	39
262	12
263	4
264	1
273	2
274	2
275	6
276	3
277	1
288	1
290	4
291	270
292	64
293	27
294	4
295	1
300	1
302	4
303	1
316	2
330	13
331	3
332	5
333	1
348	1
363	1
364	1
419	3
420	34
421	13
422	6
423	1
