Mass spectrum: L-Leucine; GC-EI-TOF; MS; 2 TMS; BP:158
Name: L-Leucine
Class: Natural Product
Formula: C6H13NO2
Exact mass: 131.09463
SMILES: CC(C)C[C@H](N)C(O)=O
InChI: InChI=1S/C6H13NO2/c1-4(2)3-5(7)6(8)9/h4-5H,3,7H2,1-2H3,(H,8,9)/t5-/m0/s1
Instrument: Pegasus III TOF-MS system, Leco; GC 6890, Agilent Technologies
Instrument type: GC-EI-TOF
Ms type: MS
Ion mode: POSITIVE
Column name: DB-17MS
Retention time: 562.863 sec
Base peak: 158
Derivative type: 2 TMS
m/z	relative intensity
82	4
83	3
84	17
85	7
86	52
87	9
88	3
89	2
90	1
94	1
96	4
97	2
98	5
99	9
100	102
101	18
102	223
103	44
104	11
105	6
110	2
111	1
112	3
113	3
114	6
115	34
116	46
117	17
118	5
119	5
120	1
124	1
126	2
127	1
128	20
129	8
130	32
131	19
132	18
133	35
134	7
135	3
136	1
140	1
141	1
142	22
143	5
144	5
145	1
146	4
147	125
148	21
149	11
150	1
156	6
157	3
158	999
159	150
160	46
161	4
163	1
170	10
171	3
172	2
173	1
174	4
175	1
176	3
177	2
188	1
202	1
203	2
204	1
216	1
218	26
219	6
220	2
231	2
232	32
233	8
234	3
260	8
261	1
