Mass spectrum: Methylmalonic acid; GC-EI-TOF; MS; 2 TMS; BP:147
Name: Methylmalonic acid
Class: Natural Product
Formula: C4H6O4
Exact mass: 118.02661
SMILES: OC(=O)C(C)C(O)=O
InChI: InChI=1S/C4H6O4/c1-2(3(5)6)4(7)8/h2H,1H3,(H,5,6)(H,7,8)
Instrument: Pegasus III TOF-MS system, Leco; GC 6890, Agilent Technologies
Instrument type: GC-EI-TOF
Ms type: MS
Ion mode: POSITIVE
Column name: DB-17MS
Retention time: 566.759 sec
Base peak: 147
Derivative type: 2 TMS
m/z	relative intensity
83	91
84	10
85	19
86	55
87	26
88	6
89	10
90	1
91	1
92	1
93	3
94	36
95	4
97	1
99	15
100	3
101	10
102	12
103	26
104	4
105	16
106	2
107	1
112	1
113	118
114	15
115	60
116	39
117	58
118	7
119	12
120	1
121	1
128	1
129	46
130	27
131	61
132	10
133	83
134	11
135	6
143	1
145	1
146	1
147	999
148	166
149	89
150	10
151	2
157	18
158	3
159	2
163	8
164	1
165	1
172	16
173	4
174	1
175	5
176	1
187	2
189	1
190	7
191	4
192	1
203	33
204	7
205	3
217	6
218	123
219	26
220	11
221	2
231	12
232	3
233	1
247	126
248	26
249	12
250	1
262	12
263	2
264	1
