Mass spectrum: D-Xylulose; GC-EI-TOF; MS; 4 TMS; BP:147
Name: D-Xylulose
Class: Natural Product
Formula: C5H10O5
Exact mass: 150.05282
SMILES: OCC(O)(O1)C(O)C(O)C1
InChI: InChI=1S/C5H10O5/c6-2-5(9)4(8)3(7)1-10-5/h3-4,6-9H,1-2H2/t3-,4+,5?/m1/s1
Instrument: Pegasus III TOF-MS system, Leco; GC 6890, Agilent Technologies
Instrument type: GC-EI-TOF
Ms type: MS
Ion mode: POSITIVE
Column name: DB-17MS
Retention time: 773.663 sec
Base peak: 147
Derivative type: 4 TMS
m/z	relative intensity
82	20
83	7
84	202
85	31
86	16
87	28
88	30
89	406
90	37
91	18
92	2
93	1
94	2
95	1
96	4
97	2
98	10
99	12
100	37
101	84
102	25
103	496
104	50
105	46
106	4
107	2
110	1
111	4
112	5
113	14
114	116
115	40
116	28
117	591
118	65
119	53
120	5
121	2
125	1
126	22
127	5
128	14
129	50
130	16
131	71
132	14
133	196
134	26
135	15
136	1
140	5
141	3
142	64
143	20
144	10
145	9
146	4
147	999
148	162
149	92
150	10
151	4
152	2
153	1
154	14
155	3
156	8
157	8
158	11
159	15
160	5
161	4
162	1
163	33
164	5
165	3
166	1
167	1
168	5
169	1
170	3
171	2
172	37
173	293
174	49
175	24
176	4
177	12
178	2
179	2
182	1
183	1
184	3
185	2
186	7
187	3
188	6
189	26
190	7
191	17
192	3
193	2
198	4
199	1
200	7
201	27
202	21
203	10
204	33
205	370
206	73
207	41
208	6
209	2
214	7
215	2
216	12
217	39
218	11
219	6
220	1
221	9
222	2
223	1
228	3
229	1
230	4
231	5
232	10
233	4
234	1
235	1
240	1
242	2
243	1
244	3
245	1
246	2
247	1
248	1
256	3
257	1
258	1
260	3
261	1
262	10
263	123
264	28
265	12
266	2
274	1
288	8
289	2
290	1
291	3
292	1
302	1
307	1
318	2
319	1
330	1
332	1
333	4
334	3
335	2
336	1
346	1
362	1
363	1
364	8
365	2
366	1
452	1
