Mass spectrum: 4-Hydroxyphenylacetic acid; GC-EI-TOF; MS; 2 TMS; BP:179
Name: 4-Hydroxyphenylacetic acid
Class: Natural Product
Formula: C8H8O3
Exact mass: 152.04734
SMILES: OC(=O)Cc(c1)ccc(O)c1
InChI: InChI=1S/C8H8O3/c9-7-3-1-6(2-4-7)5-8(10)11/h1-4,9H,5H2,(H,10,11)
Instrument: Pegasus III TOF-MS system, Leco; GC 6890, Agilent Technologies
Instrument type: GC-EI-TOF
Ms type: MS
Ion mode: POSITIVE
Column name: DB-17MS
Retention time: 831.863 sec
Base peak: 179
Derivative type: 2 TMS
m/z	relative intensity
82	53
83	29
84	10
85	31
86	6
87	21
88	13
89	289
90	151
91	110
92	14
93	22
94	3
95	22
96	4
97	7
98	2
99	9
100	1
101	9
102	22
103	92
104	65
105	123
106	20
107	43
108	5
109	18
110	2
111	7
112	1
113	2
114	1
115	22
116	7
117	98
118	18
119	39
120	8
121	32
122	5
123	10
124	2
125	2
126	1
127	1
128	1
129	3
130	3
131	40
132	8
133	166
134	29
135	139
136	22
137	28
138	4
139	2
141	1
143	7
144	2
145	27
146	7
147	282
148	62
149	271
150	42
151	20
152	3
153	2
154	1
155	1
156	1
157	2
158	1
159	5
160	3
161	95
162	26
163	290
164	679
165	127
166	32
167	4
173	1
175	9
176	5
177	110
178	37
179	999
180	161
181	45
182	5
183	1
189	2
190	3
191	102
192	18
193	26
194	5
195	6
196	1
197	1
204	1
205	2
206	19
207	10
208	16
209	25
210	8
211	5
212	1
219	2
220	1
221	6
222	3
223	5
224	3
225	40
226	15
227	5
228	1
233	1
235	4
236	4
237	29
238	9
239	4
240	1
249	2
250	1
251	8
252	398
253	156
254	62
255	15
256	3
265	13
266	5
267	4
268	1
269	1
271	1
272	1
273	1
274	1
279	2
280	13
281	289
282	72
283	29
284	5
285	1
295	14
296	238
297	60
298	22
299	3
