Mass spectrum: beta-Alanine; GC-EI-TOF; MS; 3 TMS; BP:174
Name: beta-Alanine
Class: Natural Product
Formula: C3H7NO2
Exact mass: 89.04768
SMILES: NCCC(O)=O
InChI: InChI=1S/C3H7NO2/c4-2-1-3(5)6/h1-2,4H2,(H,5,6)
Instrument: Pegasus III TOF-MS system, Leco; GC 6890, Agilent Technologies
Instrument type: GC-EI-TOF
Ms type: MS
Ion mode: POSITIVE
Column name: DB-17MS
Retention time: 666.262 sec
Base peak: 174
Derivative type: 3 TMS
m/z	relative intensity
82	1
83	7
84	11
85	36
86	671
87	91
88	37
89	7
90	1
95	11
96	4
97	3
98	7
99	99
100	434
101	87
102	59
103	28
104	7
105	8
106	1
109	2
110	1
111	1
112	3
113	15
114	23
115	23
116	33
117	58
118	13
119	20
120	4
121	2
122	1
123	1
124	1
125	1
126	2
127	1
128	4
129	13
130	162
131	83
132	30
133	211
134	46
135	21
136	4
137	2
138	3
139	1
140	2
141	1
142	17
143	5
144	8
145	5
146	38
147	455
148	82
149	39
150	6
151	2
156	1
157	1
158	9
159	3
160	32
161	8
162	3
163	2
171	1
172	17
173	17
174	999
175	207
176	85
177	12
178	3
186	1
187	3
188	22
189	11
190	18
191	7
192	3
193	1
200	3
201	1
202	8
203	2
204	18
205	9
206	4
207	1
214	2
215	2
216	9
217	4
218	4
219	4
220	1
221	1
228	1
229	1
231	1
232	64
233	15
234	6
235	1
247	2
248	551
249	216
250	179
251	39
252	10
253	1
262	2
263	1
264	1
265	1
266	2
267	2
268	2
269	1
270	1
271	1
272	1
273	1
274	2
275	2
276	2
277	1
278	1
279	1
280	1
281	1
288	1
289	7
290	62
291	63
292	32
293	8
294	2
304	56
305	21
306	10
307	2
