Mass spectrum: Adenosine; GC-EI-TOF; MS; 4 TMS; BP:236
Name: Adenosine
Class: Natural Product
Formula: C10H13N5O4
Exact mass: 267.09675
SMILES: OC[C@@H](O1)[C@@H](O)[C@@H](O)[C@@H]1n(c3)c(n2)c(n3)c(N)nc2
InChI: InChI=1S/C10H13N5O4/c11-8-5-9(13-2-12-8)15(3-14-5)10-7(18)6(17)4(1-16)19-10/h2-4,6-7,10,16-18H,1H2,(H2,11,12,13)/t4-,6-,7-,10-/m1/s1
Instrument: Pegasus III TOF-MS system, Leco; GC 6890, Agilent Technologies
Instrument type: GC-EI-TOF
Ms type: MS
Ion mode: POSITIVE
Column name: DB-17MS
Retention time: 1190.61 sec
Base peak: 236
Derivative type: 4 TMS
m/z	relative intensity
82	10
83	25
84	122
85	98
86	36
87	34
88	17
89	77
90	9
91	6
92	9
93	8
94	7
95	19
96	13
97	42
98	22
99	109
100	40
101	145
102	28
103	781
104	81
105	43
106	8
107	6
108	14
109	35
110	15
111	110
112	19
113	66
114	15
115	156
116	84
117	145
118	21
119	38
120	8
121	8
122	8
123	19
124	12
125	19
126	16
127	35
128	10
129	224
130	38
131	108
132	27
133	189
134	30
135	37
136	17
137	23
138	38
139	10
140	14
141	30
142	34
143	102
144	31
145	42
146	12
147	623
148	107
149	92
150	24
151	22
152	10
153	33
154	8
155	14
156	13
157	50
158	15
159	12
160	5
161	8
162	23
163	12
164	34
165	153
166	35
167	14
168	10
169	134
170	23
171	21
172	6
173	9
174	5
175	11
176	31
177	19
178	12
179	16
180	29
181	14
182	5
183	5
184	3
185	4
186	2
187	6
188	3
189	63
190	25
191	55
192	480
193	81
194	25
195	5
196	3
197	2
198	2
199	2
200	2
201	5
202	4
203	9
204	26
205	20
206	114
207	86
208	243
209	50
210	14
211	3
212	1
213	1
214	2
215	19
216	13
217	420
218	96
219	56
220	25
221	12
222	6
223	6
224	2
225	2
226	1
227	1
228	2
229	17
230	873
231	213
232	102
233	21
234	21
235	13
236	999
237	186
238	55
239	11
240	2
241	2
242	3
243	231
244	58
245	507
246	117
247	53
248	17
249	7
250	7
251	4
252	2
253	1
257	19
258	55
259	112
260	31
261	12
262	12
263	8
264	85
265	27
266	19
267	4
268	1
273	1
274	2
275	1
276	3
277	4
278	34
279	62
280	128
281	34
282	14
283	2
284	1
286	4
287	1
288	2
289	1
290	5
291	8
292	8
293	6
294	6
295	2
296	2
302	1
303	1
304	4
305	5
306	68
307	20
308	16
309	7
310	2
311	1
317	1
318	3
319	4
320	18
321	12
322	89
323	25
324	10
325	2
331	2
332	3
333	5
334	37
335	11
336	6
337	26
338	10
339	4
340	1
346	5
347	4
348	38
349	12
350	7
351	2
352	1
360	4
361	2
362	8
363	2
364	1
374	1
375	6
376	11
377	4
378	4
379	1
380	1
392	2
393	2
394	9
395	3
396	2
408	2
409	1
422	1
424	1
436	1
437	1
449	1
450	6
451	5
452	8
453	3
454	1
464	1
465	6
466	4
467	2
