Mass spectrum: o-Phenanthroline; GC-EI-TOF; MS; 0 TMS; BP:180
Name: 1,10-Phenanthroline
Name: o-Phenanthroline
Class: Natural Product
Formula: C12H8N2
Exact mass: 180.06875
SMILES: c(c3)cc(c1)c(n3)c(n2)c(ccc2)c1
InChI: InChI=1S/C12H8N2/c1-3-9-5-6-10-4-2-8-14-12(10)11(9)13-7-1/h1-8H
Instrument: Pegasus III TOF-MS system, Leco; GC 6890, Agilent Technologies
Instrument type: GC-EI-TOF
Ms type: MS
Ion mode: POSITIVE
Column name: DB-17MS
Retention time: 1126.71 sec
Base peak: 180
Derivative type: 0 TMS
m/z	relative intensity
84	4
85	19
86	42
87	73
88	36
89	30
90	162
91	3
96	1
97	11
98	72
99	125
100	134
101	82
102	55
103	21
104	4
109	2
110	6
111	9
112	7
113	11
114	12
115	3
116	1
120	1
121	1
122	8
123	15
124	28
125	166
126	151
127	180
128	45
129	93
130	9
138	1
139	1
140	3
141	1
142	1
150	7
151	52
152	167
153	273
154	284
155	35
156	2
177	9
178	15
179	472
180	999
181	149
182	11
183	1
