Mass spectrum: Linoleic acid; GC-EI-TOF; MS; 1 TMS; BP:95
Name: Linoleic acid
Class: Natural Product
Formula: C18H32O2
Exact mass: 280.24023
SMILES: CCCCCC=CCC=CCCCCCCCC(O)=O
InChI: InChI=1S/C18H32O2/c1-2-3-4-5-6-7-8-9-10-11-12-13-14-15-16-17-18(19)20/h6-7,9-10H,2-5,8,11-17H2,1H3,(H,19,20)/b7-6-,10-9-
Instrument: Pegasus III TOF-MS system, Leco; GC 6890, Agilent Technologies
Instrument type: GC-EI-TOF
Ms type: MS
Ion mode: POSITIVE
Column name: DB-17MS
Retention time: 1019.56 sec
Base peak: 95
Derivative type: 1 TMS
m/z	relative intensity
82	757
83	318
84	69
85	79
86	7
87	152
88	16
89	8
90	4
91	289
92	58
93	333
94	277
95	999
96	654
97	243
98	58
99	40
100	9
101	46
102	7
103	15
104	18
105	83
106	41
107	217
108	191
109	496
110	357
111	117
112	18
113	20
114	10
115	65
116	10
117	33
118	16
119	59
120	46
121	222
122	156
123	229
124	172
125	60
126	11
127	20
128	13
129	41
130	6
131	57
132	20
133	61
134	27
135	208
136	177
137	115
138	87
139	32
140	20
141	24
142	5
143	20
144	3
145	31
146	20
147	32
148	12
149	142
150	174
151	70
152	47
153	24
154	20
155	10
156	2
157	9
158	2
159	25
160	9
161	14
162	5
163	70
164	112
165	36
166	25
167	17
168	18
169	5
170	1
171	5
172	1
173	28
174	7
175	9
176	3
177	36
178	66
179	22
180	10
181	13
182	13
183	3
184	1
185	2
186	1
187	16
188	4
189	4
190	1
191	18
192	19
193	8
194	3
195	9
196	11
197	2
199	2
201	6
202	2
203	2
204	1
205	11
206	9
207	4
208	2
209	6
210	9
211	1
213	1
215	3
216	1
218	3
219	5
220	23
221	5
222	1
223	4
224	6
225	1
227	1
233	3
234	5
235	1
237	3
238	3
244	1
245	3
246	1
251	2
252	1
261	1
262	48
263	57
264	10
265	2
293	2
294	47
295	10
296	1
