Mass spectrum: N-Formyl-L-Methionine; GC-EI-TOF; MS; 2 TMS; BP:129
Name: N-Formyl-L-Methionine
Class: Natural Product
Formula: C6H11NO3S
Exact mass: 177.04596
SMILES: [H]C(=O)N[C@@H](CCSC)C(O)=O
InChI: InChI=1S/C6H11NO3S/c1-11-3-2-5(6(9)10)7-4-8/h4-5H,2-3H2,1H3,(H,7,8)(H,9,10)/t5-/m0/s1
Instrument: Pegasus III TOF-MS system, Leco; GC 6890, Agilent Technologies
Instrument type: GC-EI-TOF
Ms type: MS
Ion mode: POSITIVE
Column name: DB-17MS
Retention time: 860.812 sec
Base peak: 129
Derivative type: 2 TMS
m/z	relative intensity
82	9
83	9
84	145
85	105
86	45
87	93
88	30
89	26
90	7
91	30
92	3
94	3
96	3
97	15
98	117
99	60
100	841
101	143
102	383
103	95
104	39
105	66
106	7
107	12
108	2
109	1
110	5
111	7
112	18
113	16
114	154
115	75
116	46
117	39
118	57
119	38
120	6
121	5
122	1
124	5
125	1
126	19
127	6
128	131
129	999
130	200
131	107
132	24
133	134
134	21
135	18
136	2
137	1
139	1
140	9
141	6
142	318
143	49
144	82
145	21
146	8
147	398
148	74
149	76
150	10
151	5
152	1
154	2
155	3
156	189
157	965
158	269
159	98
160	31
161	30
162	11
163	24
164	4
165	2
168	3
169	1
170	129
171	19
172	40
173	9
174	26
175	39
176	87
177	19
178	9
179	2
184	4
185	3
186	41
187	7
188	80
189	25
190	12
191	28
192	6
193	3
194	1
195	1
196	1
198	2
200	3
201	3
202	47
203	20
204	206
205	36
206	20
207	4
208	1
214	2
215	1
216	15
217	3
218	46
219	12
220	5
221	1
222	1
223	2
224	1
230	74
231	22
232	19
233	5
234	3
235	1
242	1
244	2
245	1
246	4
247	572
248	132
249	60
250	62
251	17
252	9
253	2
258	2
259	2
260	331
261	77
262	33
263	6
264	1
274	6
275	2
276	1
277	1
278	78
279	25
280	14
281	3
282	1
292	1
305	2
306	144
307	35
308	21
309	4
310	1
321	19
322	5
323	2
