Mass spectrum: alpha-Lactose; GC-EI-TOF; MS; 8 TMS; BP:204
Name: alpha-Lactose
Class: Natural Product
Formula: C12H22O11
Exact mass: 342.11621
SMILES: OC[C@@H](O1)[C@H](O)[C@H](O)[C@@H](O)[C@@H]1O[C@H]([C@@H](CO)2)[C@H](O)[C@@H](O)[C@@H](O)O2
InChI: InChI=1S/C12H22O11/c13-1-3-5(15)6(16)9(19)12(22-3)23-10-4(2-14)21-11(20)8(18)7(10)17/h3-20H,1-2H2/t3-,4-,5+,6+,7-,8-,9-,10-,11+,12+/m1/s1
Instrument: Pegasus III TOF-MS system, Leco; GC 6890, Agilent Technologies
Instrument type: GC-EI-TOF
Ms type: MS
Ion mode: POSITIVE
Column name: DB-17MS
Retention time: 1112.81 sec
Base peak: 204
Derivative type: 8 TMS
m/z	relative intensity
82	9
83	9
84	13
85	15
86	10
87	14
88	11
89	187
90	17
91	9
92	1
93	1
94	2
95	3
96	2
97	20
98	4
99	14
100	30
101	50
102	26
103	364
104	37
105	61
106	7
107	3
108	1
109	10
110	3
111	10
112	3
113	18
114	19
115	20
116	22
117	234
118	25
119	19
120	2
121	1
123	1
124	1
125	3
126	3
127	13
128	9
129	292
130	47
131	65
132	12
133	119
134	17
135	11
136	1
137	1
138	2
139	5
140	3
141	12
142	16
143	85
144	14
145	27
146	5
147	808
148	132
149	87
150	11
151	6
152	3
153	8
154	5
155	47
156	12
157	58
158	14
159	11
160	135
161	28
162	9
163	24
164	5
165	3
166	2
167	4
168	6
169	174
170	28
171	16
172	8
173	14
174	6
175	9
176	2
177	8
178	2
179	2
180	3
181	3
182	2
183	6
184	2
185	5
186	6
187	5
188	3
189	58
190	18
191	118
192	22
193	11
194	2
195	3
196	4
197	3
198	4
199	6
200	4
201	10
202	5
203	30
204	999
205	403
206	129
207	39
208	7
209	2
210	19
211	5
212	3
213	2
214	3
215	17
216	22
217	527
218	133
219	56
220	11
221	26
222	6
223	5
224	1
225	1
226	1
227	7
228	5
229	37
230	24
231	49
232	17
233	29
234	9
235	4
236	1
237	1
238	1
239	1
240	4
241	10
242	7
243	82
244	28
245	27
246	12
247	16
248	4
249	2
250	1
253	1
254	3
255	4
256	8
257	9
258	4
259	21
260	7
261	4
262	7
263	4
264	1
265	4
266	1
267	1
268	7
269	10
270	8
271	73
272	20
273	11
274	5
275	4
276	5
277	3
278	2
279	2
283	1
284	1
285	1
286	2
287	2
288	1
289	2
290	1
291	13
292	4
293	3
294	1
297	1
299	1
300	17
301	5
302	3
303	3
304	5
305	24
306	10
307	7
308	2
309	1
313	1
314	1
315	1
316	2
317	8
318	9
319	136
320	51
321	24
322	6
323	2
328	1
329	1
330	2
331	27
332	20
333	11
334	4
335	2
336	1
337	2
338	1
342	1
343	3
344	3
345	6
346	3
347	2
348	1
358	4
359	14
360	17
361	383
362	132
363	63
364	15
365	4
366	1
373	1
374	3
375	1
376	2
377	2
378	1
379	1
389	1
390	5
391	2
392	1
393	1
408	1
409	5
410	2
411	1
421	1
422	1
423	1
427	1
428	1
435	1
436	1
448	1
449	2
450	3
451	12
452	5
453	3
454	1
464	3
465	2
466	1
467	1
479	4
480	21
481	11
482	6
483	2
