Mass spectrum: Amantadine; GC-EI-TOF; MS; 1 TMS; BP:166
Name: Amantadine
Class: Natural Product
Formula: C10H17N
Exact mass: 151.13610
SMILES: NC(C3)(C1)CC(C2)CC(CC23)1
InChI: InChI=1S/C10H17N/c11-10-4-7-1-8(5-10)3-9(2-7)6-10/h7-9H,1-6,11H2
Instrument: Pegasus III TOF-MS system, Leco; GC 6890, Agilent Technologies
Instrument type: GC-EI-TOF
Ms type: MS
Ion mode: POSITIVE
Column name: DB-17MS
Retention time: 727.613 sec
Base peak: 166
Derivative type: 1 TMS
m/z	relative intensity
82	11
83	14
84	18
85	15
86	9
87	2
88	4
89	2
90	2
91	75
92	14
93	78
94	52
95	19
96	9
97	10
98	26
99	9
100	21
101	4
102	4
103	3
104	5
105	12
106	8
107	19
108	16
109	8
110	14
111	5
112	10
113	12
114	79
115	21
116	6
117	3
118	1
119	4
120	8
121	4
122	3
123	4
124	9
125	4
126	11
127	3
128	6
129	149
130	22
131	8
132	4
133	5
134	13
135	25
136	15
137	3
138	7
139	5
140	7
141	3
142	2
143	1
146	2
147	1
148	11
149	6
150	285
151	51
152	30
153	10
154	9
155	3
156	1
157	1
158	1
159	1
160	1
161	1
162	2
163	2
164	15
165	8
166	999
167	204
168	56
169	7
170	1
178	2
179	2
180	49
181	12
182	6
183	1
192	1
194	1
206	2
207	1
208	118
209	22
210	6
222	4
223	111
224	22
225	6
