Mass spectrum: L-Valine; GC-EI-TOF; MS; 2 TMS; BP:144
Name: L-Valine
Class: Natural Product
Formula: C5H11NO2
Exact mass: 117.07898
SMILES: CC(C)[C@H](N)C(O)=O
InChI: InChI=1S/C5H11NO2/c1-3(2)4(6)5(7)8/h3-4H,6H2,1-2H3,(H,7,8)/t4-/m0/s1
Instrument: Pegasus III TOF-MS system, Leco; GC 6890, Agilent Technologies
Instrument type: GC-EI-TOF
Ms type: MS
Ion mode: POSITIVE
Column name: DB-17MS
Retention time: 522.763 sec
Base peak: 144
Derivative type: 2 TMS
m/z	relative intensity
82	12
83	9
84	16
85	13
86	31
87	11
88	6
89	4
90	1
96	4
97	3
98	10
99	8
100	162
101	33
102	18
103	31
104	4
105	5
106	1
108	1
110	2
111	1
112	11
113	5
114	23
115	12
116	5
117	15
118	5
119	6
120	1
121	1
126	1
128	26
129	15
130	15
131	18
132	25
133	31
134	6
135	3
142	11
143	6
144	999
145	188
146	80
147	245
148	48
149	28
150	2
151	1
156	28
157	7
158	5
159	7
160	7
161	2
163	5
172	2
174	6
175	2
202	1
203	6
204	1
218	204
219	56
220	30
221	6
222	1
230	1
246	10
247	3
248	1
