Mass spectrum: Anthranilic acid; GC-EI-TOF; MS; 2 TMS; BP:266
Name: Anthranilic acid
Class: Natural Product
Formula: C7H7NO2
Exact mass: 137.04768
SMILES: OC(=O)c(c1)c(N)ccc1
InChI: InChI=1S/C7H7NO2/c8-6-4-2-1-3-5(6)7(9)10/h1-4H,8H2,(H,9,10)
Instrument: Pegasus III TOF-MS system, Leco; GC 6890, Agilent Technologies
Instrument type: GC-EI-TOF
Ms type: MS
Ion mode: POSITIVE
Column name: DB-17MS
Retention time: 820.762 sec
Base peak: 266
Derivative type: 2 TMS
m/z	relative intensity
82	5
83	14
84	26
85	11
86	13
87	19
88	9
89	50
90	41
91	227
92	183
93	42
94	14
95	19
96	11
97	8
98	5
99	3
100	6
101	9
102	23
103	40
104	32
105	68
106	43
107	17
108	9
109	6
110	4
111	4
112	1
113	3
114	2
115	37
116	24
117	57
118	285
119	127
120	76
121	37
122	13
123	11
124	3
125	2
126	11
127	2
128	4
129	4
130	26
131	53
132	121
133	241
134	457
135	95
136	32
137	7
138	2
139	1
140	1
141	1
142	1
143	3
144	5
145	11
146	36
147	164
148	113
149	236
150	92
151	28
152	9
153	1
154	1
155	1
156	4
157	2
158	9
159	4
160	15
161	5
162	19
163	8
164	15
165	6
166	2
167	1
170	1
172	4
173	1
174	64
175	12
176	63
177	11
178	106
179	24
180	13
181	4
182	1
183	1
184	1
186	1
188	2
189	1
190	8
191	7
192	123
193	57
194	28
195	6
196	2
202	4
203	1
204	6
205	3
206	6
207	5
208	88
209	24
210	35
211	8
212	3
213	1
214	1
215	1
216	1
217	1
218	2
219	1
220	7
221	2
222	8
223	2
224	8
225	3
226	1
230	1
231	2
232	104
233	37
234	17
235	4
236	2
237	1
238	1
239	1
240	1
241	1
246	1
247	1
248	11
249	7
250	14
251	5
252	2
262	1
263	1
264	15
265	20
266	999
267	248
268	98
269	16
270	3
280	2
281	52
282	13
283	5
