Mass spectrum: L-Norleucine; GC-EI-TOF; MS; 2 TMS; BP:158
Name: L-Norleucine
Class: Natural Product
Formula: C6H13NO2
Exact mass: 131.09463
SMILES: CCCC[C@H](N)C(O)=O
InChI: InChI=1S/C6H13NO2/c1-2-3-4-5(7)6(8)9/h5H,2-4,7H2,1H3,(H,8,9)/t5-/m0/s1
Instrument: Pegasus III TOF-MS system, Leco; GC 6890, Agilent Technologies
Instrument type: GC-EI-TOF
Ms type: MS
Ion mode: POSITIVE
Column name: DB-17MS
Retention time: 595.244 sec
Base peak: 158
Derivative type: 2 TMS
m/z	relative intensity
82	7
83	4
84	20
85	12
86	45
87	10
88	4
89	3
93	1
94	1
95	1
96	5
97	3
98	13
99	4
100	93
101	18
102	39
103	26
104	4
105	5
106	1
110	2
111	1
112	5
113	3
114	42
115	27
116	8
117	14
118	4
119	5
120	1
126	2
127	1
128	22
129	10
130	20
131	19
132	19
133	35
134	7
135	3
142	8
143	3
144	4
145	1
146	4
147	112
148	19
149	11
150	1
156	6
157	3
158	999
159	149
160	47
161	5
162	1
163	1
170	12
171	3
172	2
174	4
175	1
176	1
186	3
187	1
188	1
202	2
203	2
216	1
218	21
219	4
220	1
232	28
233	8
234	3
260	6
261	1
