Mass spectrum: Ketoleucine; GC-EI-TOF; MS; 3 TMS; BP:89
Name: 4-Methyl-2-oxovaleric acid
Name: Ketoleucine
Class: Natural Product
Formula: C6H10O3
Exact mass: 130.06299
SMILES: CC(C)CC(=O)C(O)=O
InChI: InChI=1S/C6H10O3/c1-4(2)3-5(7)6(8)9/h4H,3H2,1-2H3,(H,8,9)
Instrument: Pegasus III TOF-MS system, Leco; GC 6890, Agilent Technologies
Instrument type: GC-EI-TOF
Ms type: MS
Ion mode: POSITIVE
Column name: DB-17MS
Retention time: 592.813 sec
Base peak: 89
Derivative type: 3 TMS
m/z	relative intensity
82	495
83	67
84	223
85	34
86	56
87	15
88	13
89	999
90	95
91	70
92	7
93	10
94	5
95	6
96	6
97	13
98	182
99	744
100	176
101	34
102	12
103	51
104	7
105	7
106	1
108	2
109	7
110	579
111	47
112	18
113	47
114	253
115	575
116	123
117	58
118	14
119	44
120	4
121	2
124	4
125	2
126	78
127	8
128	22
129	13
130	14
131	7
132	1
133	2
138	2
139	1
140	68
141	30
142	29
143	54
144	55
145	8
146	4
147	3
148	1
149	1
150	1
151	1
152	1
153	1
154	30
155	10
156	26
157	8
158	96
159	19
160	32
161	4
162	2
163	1
164	1
165	1
166	4
167	2
168	2
169	1
170	5
171	2
172	9
173	8
174	62
175	8
176	4
182	22
183	17
184	9
185	3
186	1
188	1
189	464
190	61
191	22
192	2
198	2
199	1
200	532
201	89
202	27
203	3
216	546
217	86
218	27
219	2
