Mass spectrum: L-Norleucine; GC-EI-TOF; MS; 2 TMS; BP:158
Name: L-Norleucine
Class: Natural Product
Formula: C6H13NO2
Exact mass: 131.09463
SMILES: CCCC[C@H](N)C(O)=O
InChI: InChI=1S/C6H13NO2/c1-2-3-4-5(7)6(8)9/h5H,2-4,7H2,1H3,(H,8,9)/t5-/m0/s1
Instrument: Pegasus III TOF-MS system, Leco; GC 6890, Agilent Technologies
Instrument type: GC-EI-TOF
Ms type: MS
Ion mode: POSITIVE
Column name: DB-17MS
Retention time: 592.662 sec
Base peak: 158
Derivative type: 2 TMS
m/z	relative intensity
82	3
83	2
84	9
85	7
86	17
87	5
88	2
89	1
94	1
96	3
97	2
98	8
99	3
100	60
101	12
102	29
103	20
104	3
105	3
110	1
112	3
113	2
114	27
115	19
116	6
117	12
118	3
119	4
120	1
126	1
128	17
129	7
130	16
131	16
132	15
133	29
134	6
135	2
142	6
143	3
144	2
146	3
147	100
148	17
149	9
150	1
156	7
157	2
158	999
159	162
160	55
161	6
162	1
163	1
170	15
171	3
172	2
174	4
175	1
176	1
186	4
187	1
188	1
202	3
203	2
204	1
216	2
218	27
219	6
220	2
232	40
233	12
234	4
260	10
261	2
