Mass spectrum: Mesaconic acid; GC-EI-TOF; MS; 2 TMS; BP:147
Name: Mesaconic acid
Class: Natural Product
Formula: C5H6O4
Exact mass: 130.02661
SMILES: OC(=O)C=C(C)C(O)=O
InChI: InChI=1S/C5H6O4/c1-3(5(8)9)2-4(6)7/h2H,1H3,(H,6,7)(H,8,9)/b3-2+
Instrument: Pegasus III TOF-MS system, Leco; GC 6890, Agilent Technologies
Instrument type: GC-EI-TOF
Ms type: MS
Ion mode: POSITIVE
Column name: DB-17MS
Retention time: 674.862 sec
Base peak: 147
Derivative type: 2 TMS
m/z	relative intensity
82	19
83	77
84	13
85	20
86	7
87	11
88	2
89	10
90	1
91	1
92	2
94	2
95	14
96	14
97	209
98	64
99	49
100	11
101	8
102	5
103	12
104	2
105	6
106	1
107	1
109	1
111	7
112	44
113	23
114	5
115	16
116	4
117	27
118	4
119	8
120	1
121	1
122	49
123	7
125	7
126	2
127	15
128	2
129	3
130	1
131	19
132	6
133	73
134	12
135	9
136	1
139	1
140	17
141	87
142	25
143	14
144	2
145	3
146	1
147	999
148	191
149	136
150	17
151	6
152	1
154	3
155	5
156	24
157	39
158	7
159	4
163	6
164	1
169	29
170	6
171	12
172	3
173	3
174	4
175	1
183	1
184	512
185	95
186	34
187	8
188	1
199	4
200	1
201	1
213	1
215	6
216	2
217	1
229	3
230	1
231	19
232	7
233	3
258	6
259	298
260	78
261	38
262	6
263	1
274	2
