Mass spectrum: Ibuprofen; GC-EI-TOF; MS; 1 TMS; BP:160
Name: Ibuprofen
Class: Natural Product
Formula: C13H18O2
Exact mass: 206.13068
SMILES: CC(C)Cc(c1)ccc(c1)C(C)C(O)=O
InChI: InChI=1S/C13H18O2/c1-9(2)8-11-4-6-12(7-5-11)10(3)13(14)15/h4-7,9-10H,8H2,1-3H3,(H,14,15)
Instrument: Pegasus III TOF-MS system, Leco; GC 6890, Agilent Technologies
Instrument type: GC-EI-TOF
Ms type: MS
Ion mode: POSITIVE
Column name: DB-17MS
Retention time: 826.372 sec
Base peak: 160
Derivative type: 1 TMS
m/z	relative intensity
83	1
84	3
85	2
86	5
87	6
88	4
89	69
90	20
91	408
92	38
93	15
94	1
95	2
99	1
101	7
102	34
103	90
104	44
105	102
106	9
107	3
109	1
110	17
111	1
113	3
114	4
115	314
116	89
117	801
118	297
119	221
120	22
121	4
126	3
127	19
128	59
129	49
130	18
131	74
132	10
133	7
134	2
135	2
139	2
141	8
142	3
143	9
144	6
145	98
146	15
147	7
148	5
149	3
150	3
151	1
152	1
155	1
157	2
158	5
159	30
160	999
161	425
162	52
163	7
164	1
171	1
173	1
174	1
175	3
176	1
177	4
178	1
187	2
188	3
189	3
190	1
191	28
192	6
193	16
194	3
195	1
201	1
203	1
204	1
205	50
206	11
207	4
217	2
218	1
219	8
220	25
221	5
222	1
233	1
234	150
235	44
236	11
237	1
248	1
249	1
261	1
262	4
263	174
264	39
265	11
266	1
277	4
278	50
279	11
280	3
