Mass spectrum: D-(+)-Galactosamine; GC-EI-TOF; MS; 5 TMS; BP:159
Name: D-Galactosamine
Name: D-(+)-Galactosamine
Class: Natural Product
Formula: C6H13NO5
Exact mass: 179.07937
SMILES: O=CC(N)C(O)C(O)C(O)CO
InChI: InChI=1S/C6H13NO5/c7-3(1-8)5(11)6(12)4(10)2-9/h1,3-6,9-12H,2,7H2/t3-,4+,5+,6-/m0/s1
Instrument: Pegasus III TOF-MS system, Leco; GC 6890, Agilent Technologies
Instrument type: GC-EI-TOF
Ms type: MS
Ion mode: POSITIVE
Column name: DB-17MS
Retention time: 866.812 sec
Base peak: 159
Derivative type: 5 TMS
m/z	relative intensity
82	6
83	21
84	35
85	13
86	36
87	24
88	13
89	204
90	20
91	9
92	1
93	2
94	1
95	2
96	4
97	5
98	8
99	16
100	62
101	68
102	29
103	260
104	28
105	23
106	3
107	2
108	1
109	1
110	4
111	7
112	7
113	42
114	12
115	16
116	20
117	171
118	21
119	16
120	2
121	1
123	1
124	2
125	3
126	7
127	20
128	30
129	171
130	37
131	63
132	18
133	84
134	12
135	7
136	1
137	3
138	1
139	2
140	4
141	19
142	19
143	32
144	18
145	7
146	9
147	460
148	75
149	45
150	6
151	3
152	3
153	5
154	4
155	3
156	4
157	82
158	17
159	999
160	132
161	45
162	6
163	9
164	2
165	3
166	1
167	3
168	12
169	5
170	4
171	6
172	9
173	6
174	3
175	7
176	2
177	4
178	1
179	2
180	1
181	1
182	1
183	1
184	1
185	5
186	4
187	3
188	7
189	33
190	13
191	12
192	3
193	1
195	3
196	1
197	1
198	1
199	4
200	6
201	14
202	5
203	18
204	45
205	220
206	46
207	22
208	4
209	2
210	1
211	1
212	1
213	4
214	7
215	12
216	23
217	126
218	27
219	12
220	2
221	6
222	2
223	1
226	1
227	4
228	3
229	29
230	10
231	13
232	15
233	8
234	3
235	1
239	1
240	5
241	4
242	6
243	7
244	6
245	3
246	2
247	2
248	1
251	1
253	1
255	2
256	1
257	1
258	2
259	1
260	1
261	3
262	1
263	1
267	5
268	2
269	1
272	1
273	45
274	11
275	5
276	1
277	6
278	4
279	1
285	1
287	1
288	1
289	1
290	2
291	8
292	3
293	1
302	1
303	8
304	7
305	6
306	3
307	4
308	1
309	1
314	1
315	1
316	2
317	1
318	6
319	100
320	32
321	15
322	3
323	1
329	1
330	1
331	1
332	2
333	1
334	1
342	1
343	1
357	3
358	1
359	1
375	1
447	3
448	1
449	1
463	1
