Mass spectrum: L-(-)-Cystine; GC-EI-TOF; MS; 4 TMS; BP:218
Name: L-Cystine
Name: L-(-)-Cystine
Class: Natural Product
Formula: C6H12N2O4S2
Exact mass: 240.02385
SMILES: OC(=O)C([H])(N)CSSCC([H])(N)C(O)=O
InChI: InChI=1S/C6H12N2O4S2/c7-3(5(9)10)1-13-14-2-4(8)6(11)12/h3-4H,1-2,7-8H2,(H,9,10)(H,11,12)/t3-,4-/m0/s1
Instrument: Pegasus III TOF-MS system, Leco; GC 6890, Agilent Technologies
Instrument type: GC-EI-TOF
Ms type: MS
Ion mode: POSITIVE
Column name: DB-17MS
Retention time: 1061.26 sec
Base peak: 218
Derivative type: 4 TMS
m/z	relative intensity
82	5
83	7
84	26
85	26
86	42
87	19
88	7
89	10
90	9
91	21
92	5
93	5
94	1
95	1
96	2
97	1
98	19
99	12
100	567
101	90
102	44
103	42
104	7
105	13
106	5
107	3
108	1
110	1
111	1
112	3
113	6
114	59
115	185
116	90
117	39
118	13
119	9
120	22
121	3
122	2
123	1
126	1
128	9
129	53
130	43
131	70
132	103
133	60
134	15
135	6
136	1
137	1
141	1
142	5
143	4
144	32
145	13
146	907
147	503
148	212
149	54
150	13
151	3
152	1
156	1
157	1
158	8
159	11
160	13
161	7
162	3
163	11
164	3
165	2
170	1
172	19
173	5
174	23
175	5
176	5
177	2
178	59
179	14
180	11
181	2
182	1
184	1
188	28
189	11
190	8
191	3
192	2
193	1
194	2
198	1
200	2
201	1
202	8
203	17
204	8
205	4
206	2
207	1
208	1
216	64
217	20
218	999
219	213
220	134
221	27
222	12
223	3
224	1
230	1
231	4
232	108
233	24
234	11
235	2
236	1
246	2
247	1
248	8
249	14
250	12
251	4
252	3
254	1
260	11
261	7
262	6
263	5
264	101
265	52
266	171
267	39
268	22
269	4
270	1
288	16
289	13
290	5
291	7
292	4
293	1
294	2
295	1
296	21
297	48
298	13
299	8
300	1
321	1
322	5
323	2
324	1
338	8
339	3
340	2
410	10
411	69
412	27
413	17
414	5
415	1
