Mass spectrum: Serotonin; GC-EI-TOF; MS; 5 TMS; BP:174
Name: Serotonin
Class: Natural Product
Formula: C10H12N2O
Exact mass: 176.09496
SMILES: C1=CC2=C(C=C1O)C(=CN2)CCN
InChI: InChI=1S/C10H12N2O/c11-4-3-7-6-12-10-2-1-8(13)5-9(7)10/h1-2,5-6,12-13H,3-4,11H2
Instrument: Pegasus III TOF-MS system, Leco; GC 6890, Agilent Technologies
Instrument type: GC-EI-TOF
Ms type: MS
Ion mode: POSITIVE
Column name: DB-17MS
Retention time: 1127.11 sec
Base peak: 174
Derivative type: 5 TMS
m/z	relative intensity
83	2
84	5
85	4
86	250
87	24
88	10
89	2
91	1
98	1
99	2
100	107
101	20
102	17
103	4
104	1
105	1
113	3
114	4
115	9
116	10
117	16
118	3
119	2
121	1
127	1
128	4
129	4
130	41
131	20
132	7
133	5
134	1
135	1
140	1
141	1
142	3
143	2
144	8
145	5
146	27
147	9
148	3
149	1
154	1
156	2
157	1
158	9
159	4
160	4
161	2
169	1
170	3
171	1
172	14
173	4
174	999
175	193
176	88
177	11
178	2
179	1
184	2
185	1
186	9
187	2
188	2
189	1
190	1
198	1
199	1
200	4
201	2
202	20
203	4
204	2
205	1
213	1
214	1
215	1
216	4
217	3
218	5
219	1
228	1
230	4
231	1
232	3
233	3
234	1
244	2
245	1
246	1
258	1
259	1
260	9
261	2
262	1
272	1
273	1
274	2
275	1
276	1
287	2
288	4
289	2
290	31
291	11
292	4
293	1
302	3
303	2
304	1
360	1
361	9
362	3
363	1
375	1
448	1
449	7
450	3
451	1
463	1
464	3
465	1
466	1
