Mass spectrum: Ketoisoleucine; GC-EI-TOF; MS; 3 TMS; BP:89
Name: 3-Methyl-2-oxovaleric acid
Name: Ketoisoleucine
Class: Natural Product
Formula: C6H10O3
Exact mass: 130.06299
SMILES: CCC(C)C(=O)C(O)=O
InChI: InChI=1S/C6H10O3/c1-3-4(2)5(7)6(8)9/h4H,3H2,1-2H3,(H,8,9)
Instrument: Pegasus III TOF-MS system, Leco; GC 6890, Agilent Technologies
Instrument type: GC-EI-TOF
Ms type: MS
Ion mode: POSITIVE
Column name: DB-17MS
Retention time: 583.828 sec
Base peak: 89
Derivative type: 3 TMS
m/z	relative intensity
82	364
83	90
84	320
85	210
86	138
87	24
88	12
89	999
90	90
91	54
92	5
93	8
94	5
95	5
96	7
97	18
98	48
99	66
100	66
101	14
102	7
103	17
104	3
105	15
106	2
107	1
108	1
109	3
110	175
111	17
112	33
113	249
114	192
115	132
116	21
117	39
118	8
119	2
124	2
125	1
126	32
127	17
128	53
129	139
130	21
131	8
132	1
133	1
138	1
139	1
140	53
141	36
142	24
143	14
144	8
145	4
146	1
147	2
148	1
152	1
153	1
154	9
155	4
156	47
157	17
158	14
159	3
160	10
161	2
162	1
166	2
167	1
168	1
169	1
170	2
171	2
172	117
173	21
174	11
175	2
176	1
182	1
183	1
184	7
185	2
186	1
187	7
188	1
189	206
190	28
191	10
192	1
200	227
201	38
202	12
203	103
204	15
205	5
215	1
216	237
217	36
218	11
219	1
