Mass spectrum: Isopentenyladenosine; GC-EI-TOF; MS; 1 TMS; BP:232
Name: N-6-(delta-2-Isopentenyl)adenosine
Name: Isopentenyladenosine
Class: Natural Product
Formula: C15H21N5O4
Exact mass: 335.15935
SMILES: CC(C)=CCNc(n3)c(n2)c(nc3)n(c2)C(O1)C(O)C(O)C(CO)1
InChI: InChI=1S/C15H21N5O4/c1-8(2)3-4-16-13-10-14(18-6-17-13)20(7-19-10)15-12(23)11(22)9(5-21)24-15/h3,6-7,9,11-12,15,21-23H,4-5H2,1-2H3,(H,16,17,18)/t9-,11-,12-,15-/m1/s1
Instrument: Pegasus III TOF-MS system, Leco; GC 6890, Agilent Technologies
Instrument type: GC-EI-TOF
Ms type: MS
Ion mode: POSITIVE
Column name: DB-17MS
Retention time: 1116.16 sec
Base peak: 232
Derivative type: 1 TMS
m/z	relative intensity
82	43
83	34
84	394
85	135
86	43
87	14
88	11
89	6
90	5
91	14
92	63
93	96
94	60
95	55
96	32
97	28
98	36
99	108
100	40
101	156
102	18
103	9
104	8
105	29
106	31
107	35
108	56
109	43
110	27
111	71
112	15
113	12
114	3
115	5
116	2
117	6
118	13
119	128
120	50
121	39
122	27
123	62
124	23
125	16
126	14
127	2
128	1
129	1
130	3
131	11
132	26
133	30
134	34
135	65
136	47
137	28
138	45
139	12
140	5
141	1
142	3
143	2
144	7
145	9
146	13
147	12
148	28
149	18
150	44
151	31
152	20
153	6
154	2
155	1
156	2
157	3
158	13
159	54
160	105
161	68
162	26
163	11
164	57
165	107
166	75
167	13
168	4
169	1
170	1
171	12
172	17
173	15
174	12
175	47
176	25
177	20
178	14
179	22
180	27
181	7
182	2
183	1
184	2
185	40
186	31
187	13
188	49
189	10
190	10
191	39
192	468
193	87
194	23
195	3
196	1
197	1
198	1
199	1
200	8
201	4
202	35
203	10
204	5
205	7
206	88
207	154
208	34
209	8
210	1
215	1
216	18
217	10
218	6
219	7
220	46
221	9
222	2
228	1
229	1
230	3
231	21
232	999
233	252
234	70
235	10
236	1
242	1
243	12
244	13
245	27
246	13
247	31
248	10
249	3
250	1
251	1
252	1
253	1
254	1
256	1
257	22
258	13
259	28
260	461
261	96
262	26
263	4
264	2
265	1
272	2
273	1
274	37
275	151
276	33
277	8
278	1
