Mass spectrum: D-(-)-Penicillamine; GC-EI-TOF; MS; 3 TMS; BP:147
Name: D-(-)-Penicillamine
Class: Natural Product
Formula: C5H11NO2S
Exact mass: 149.05105
SMILES: OC(=O)[C@H](N)C(C)(C)S
InChI: InChI=1S/C5H11NO2S/c1-5(2,9)3(6)4(7)8/h3,9H,6H2,1-2H3,(H,7,8)/t3-/m0/s1
Instrument: Pegasus III TOF-MS system, Leco; GC 6890, Agilent Technologies
Instrument type: GC-EI-TOF
Ms type: MS
Ion mode: POSITIVE
Column name: DB-17MS
Retention time: 779.013 sec
Base peak: 147
Derivative type: 3 TMS
m/z	relative intensity
82	14
83	24
84	36
85	35
86	75
87	26
88	8
89	8
90	42
91	134
92	16
93	20
94	2
95	5
96	11
97	16
98	20
99	25
100	471
101	515
102	85
103	49
104	7
105	14
106	20
107	3
108	2
109	2
110	12
111	7
112	47
113	20
114	20
115	39
116	12
117	26
118	11
119	12
120	2
121	2
122	1
124	3
125	1
126	24
127	7
128	205
129	179
130	127
131	74
132	87
133	69
134	15
135	7
136	1
140	5
141	4
142	261
143	150
144	63
145	38
146	25
147	999
148	147
149	97
150	11
151	4
152	1
154	3
155	1
156	7
157	5
158	12
159	22
160	30
161	12
162	4
163	39
164	7
165	5
166	1
170	3
171	1
172	11
173	3
174	20
175	8
176	10
177	3
178	2
179	2
184	1
186	2
187	1
188	3
189	1
190	13
191	4
192	2
193	1
200	5
201	1
202	3
203	30
204	12
205	4
206	1
207	1
216	18
217	9
218	525
219	253
220	76
221	26
222	5
223	1
230	2
232	8
233	3
234	2
244	6
245	1
246	2
247	1
248	125
249	28
250	17
251	3
252	1
260	6
261	1
262	1
275	1
276	3
290	4
291	236
292	67
293	34
294	6
295	1
322	11
323	3
324	2
350	1
