Mass spectrum: 4-Methylumbelliferone; GC-EI-TOF; MS; 0 TMS; BP:233
Name: 4-Methylumbelliferone
Class: Natural Product
Formula: C10H8O3
Exact mass: 176.04734
SMILES: Oc(c2)cc(O1)c(c2)C(C)=CC(=O)1
InChI: InChI=1S/C10H8O3/c1-6-4-10(12)13-9-5-7(11)2-3-8(6)9/h2-5,11H,1H3
Instrument: Pegasus III TOF-MS system, Leco; GC 6890, Agilent Technologies
Instrument type: GC-EI-TOF
Ms type: MS
Ion mode: POSITIVE
Column name: DB-17MS
Retention time: 1058.83 sec
Base peak: 233
Derivative type: 0 TMS
m/z	relative intensity
82	8
83	44
84	7
85	36
86	20
87	110
88	132
89	87
90	31
91	214
92	24
93	36
94	20
95	52
96	7
97	13
98	11
99	59
100	9
101	43
102	548
103	310
104	31
105	45
106	8
107	21
108	4
109	25
110	4
111	8
112	1
113	5
114	4
115	126
116	27
117	47
118	14
119	58
120	9
121	24
122	5
123	11
124	2
125	4
126	2
127	10
128	18
129	35
130	14
131	85
132	14
133	25
134	7
135	42
136	8
137	13
138	2
139	1
141	2
142	1
143	8
144	6
145	46
146	11
147	86
148	17
149	85
150	14
151	36
152	6
153	2
155	1
157	3
158	1
159	39
160	8
161	51
162	30
163	39
164	8
165	269
166	44
167	14
168	1
169	1
171	3
172	1
173	19
174	9
175	48
176	13
177	448
178	87
179	26
180	3
181	1
185	3
186	1
187	6
188	2
189	72
190	20
191	10
192	3
193	2
194	1
195	1
196	1
197	1
198	1
199	1
201	2
202	2
203	28
204	15
205	340
206	80
207	22
208	3
209	1
210	1
211	1
212	1
213	1
214	1
215	2
216	2
217	7
218	6
219	14
220	244
221	62
222	18
223	3
224	1
231	2
232	11
233	999
234	187
235	53
236	7
237	1
238	1
239	1
240	1
241	1
242	1
243	1
247	9
248	682
249	127
250	34
251	4
