Mass spectrum: 3,4-Dihydroxyphenylacetic acid; GC-EI-TOF; MS; 3 TMS; BP:179
Name: 3,4-Dihydroxyphenylacetic acid
Class: Natural Product
Formula: C8H8O4
Exact mass: 168.04226
SMILES: OC(=O)Cc(c1)cc(O)c(O)c1
InChI: InChI=1S/C8H8O4/c9-6-2-1-5(3-7(6)10)4-8(11)12/h1-3,9-10H,4H2,(H,11,12)
Instrument: Pegasus III TOF-MS system, Leco; GC 6890, Agilent Technologies
Instrument type: GC-EI-TOF
Ms type: MS
Ion mode: POSITIVE
Column name: DB-17MS
Retention time: 899.412 sec
Base peak: 179
Derivative type: 3 TMS
m/z	relative intensity
82	6
83	9
84	4
85	6
86	1
87	7
88	2
89	15
90	5
91	30
92	5
93	5
95	8
96	1
97	4
99	9
100	1
101	3
102	6
103	30
104	96
105	38
106	3
107	3
109	2
111	2
113	2
115	19
116	4
117	21
118	8
119	42
120	6
121	7
122	1
123	3
129	2
131	26
132	5
133	46
134	7
135	24
136	4
137	3
143	2
145	5
146	1
147	68
148	14
149	76
150	18
151	9
152	2
153	2
157	1
159	2
160	1
161	11
162	5
163	29
164	7
165	5
166	1
167	1
173	1
175	4
176	3
177	25
178	35
179	999
180	149
181	47
182	4
183	1
189	1
191	6
192	3
193	28
194	5
195	6
196	2
197	1
203	1
205	2
206	7
207	9
208	3
209	19
210	11
211	4
212	1
219	2
220	1
221	5
222	2
223	9
224	4
225	15
226	6
227	2
233	1
234	1
235	4
236	4
237	137
238	37
239	14
240	3
241	1
249	1
250	1
251	15
252	8
253	24
254	8
255	3
256	1
263	1
264	1
265	35
266	11
267	370
268	92
269	36
270	6
271	1
280	1
281	21
282	5
283	2
284	1
294	4
295	1
296	1
297	1
339	1
340	16
341	15
342	13
343	4
344	1
368	2
369	38
370	18
371	8
372	2
383	13
384	270
385	92
386	43
387	9
388	2
