Mass spectrum: Ciliatine; GC-EI-TOF; MS; 3 TMS; BP:174
Name: 2-Aminoethylphosphonic acid
Name: Ciliatine
Class: Natural Product
Formula: C2H8NO3P
Exact mass: 125.02418
SMILES: NCCP(O)(O)=O
InChI: InChI=1S/C2H8NO3P/c3-1-2-7(4,5)6/h1-3H2,(H2,4,5,6)
Instrument: Pegasus III TOF-MS system, Leco; GC 6890, Agilent Technologies
Instrument type: GC-EI-TOF
Ms type: MS
Ion mode: POSITIVE
Column name: DB-17MS
Retention time: 823.963 sec
Base peak: 174
Derivative type: 3 TMS
m/z	relative intensity
83	3
84	4
85	15
86	229
87	29
88	11
89	4
90	1
91	2
97	1
98	7
99	7
100	133
101	22
102	17
103	13
104	3
105	8
106	2
107	7
109	1
112	2
113	16
114	214
115	69
116	35
117	33
118	9
119	30
120	6
121	28
122	3
123	3
124	1
125	1
126	1
127	1
128	3
129	14
130	260
131	105
132	58
133	164
134	30
135	149
136	20
137	16
138	2
139	1
140	1
141	1
142	6
143	6
144	6
145	8
146	97
147	202
148	41
149	29
150	5
151	11
152	2
153	1
154	1
156	8
157	3
158	11
159	3
160	12
161	3
162	2
163	6
164	2
165	11
166	2
167	4
168	1
169	1
170	6
171	5
172	519
173	110
174	999
175	204
176	91
177	24
178	7
179	13
180	4
181	19
182	7
183	3
184	1
185	1
186	3
187	19
188	35
189	20
190	14
191	48
192	31
193	42
194	15
195	48
196	9
197	5
198	1
199	1
200	1
201	1
202	1
203	4
204	8
205	13
206	11
207	124
208	43
209	119
210	26
211	34
212	6
213	2
218	1
219	1
220	3
221	7
222	4
223	7
224	7
225	70
226	18
227	7
228	2
232	1
234	3
235	1
236	9
237	25
238	6
239	6
240	2
241	1
246	1
247	1
248	2
250	2
251	3
252	3
253	3
254	1
255	2
256	1
257	1
264	1
265	1
266	8
267	11
268	5
269	5
270	2
272	1
274	1
275	1
276	1
278	1
279	1
280	2
281	5
282	17
283	23
284	12
285	4
286	1
292	1
293	1
294	11
295	5
296	6
297	108
298	304
299	103
300	46
301	12
302	3
303	1
304	1
306	1
307	1
308	6
309	6
310	99
311	35
312	116
313	52
314	21
315	6
316	2
322	1
323	1
324	9
325	19
326	9
327	4
328	1
338	1
339	9
340	164
341	55
342	26
343	6
344	1
366	1
367	1
368	5
369	3
370	1
371	1
381	1
382	12
383	8
384	4
385	1
395	1
396	8
397	57
398	302
399	165
400	106
401	38
402	12
403	3
411	1
412	3
