Mass spectrum: Stearic acid; GC-EI-TOF; MS; 1 TMS; BP:117
Name: Stearic acid
Class: Natural Product
Formula: C18H36O2
Exact mass: 284.27153
SMILES: CCCCCCCCCCCCCCCCCC(O)=O
InChI: InChI=1S/C18H36O2/c1-2-3-4-5-6-7-8-9-10-11-12-13-14-15-16-17-18(19)20/h2-17H2,1H3,(H,19,20)
Instrument: Pegasus III TOF-MS system, Leco; GC 6890, Agilent Technologies
Instrument type: GC-EI-TOF
Ms type: MS
Ion mode: POSITIVE
Column name: DB-17MS
Retention time: 1029.51 sec
Base peak: 117
Derivative type: 1 TMS
m/z	relative intensity
82	17
83	102
84	40
85	41
86	14
87	11
88	7
89	30
90	4
91	9
92	1
93	24
94	4
95	71
96	12
97	70
98	51
99	26
100	3
101	14
102	4
103	4
105	27
106	2
107	11
108	1
109	20
110	4
111	28
112	13
113	5
114	2
115	9
116	63
117	999
118	101
119	42
120	2
121	11
122	2
123	7
124	3
125	8
126	4
127	5
128	4
129	456
130	61
131	165
132	389
133	84
134	20
135	10
136	1
137	2
138	1
139	4
140	3
141	3
142	2
143	37
144	4
145	253
146	33
147	13
148	1
149	4
151	1
153	2
154	5
155	3
157	9
158	1
159	23
160	3
161	1
163	1
167	2
168	2
169	1
171	18
172	3
173	6
174	3
181	2
185	27
186	2
187	17
188	5
189	1
195	1
199	6
200	1
201	48
202	8
203	2
210	1
213	5
214	1
215	6
216	1
223	3
227	6
228	1
229	3
230	1
241	6
242	1
243	6
244	2
255	4
256	1
257	10
258	2
269	1
271	4
272	1
283	1
285	1
297	8
298	3
299	3
300	1
311	1
313	8
314	3
315	1
327	1
340	7
341	140
342	39
343	10
344	1
355	1
356	12
357	3
358	1
