Mass spectrum: Adenosine; GC-EI-TOF; MS; 4 TMS; BP:236
Name: Adenosine
Class: Natural Product
Formula: C10H13N5O4
Exact mass: 267.09675
SMILES: OC[C@@H](O1)[C@@H](O)[C@@H](O)[C@@H]1n(c3)c(n2)c(n3)c(N)nc2
InChI: InChI=1S/C10H13N5O4/c11-8-5-9(13-2-12-8)15(3-14-5)10-7(18)6(17)4(1-16)19-10/h2-4,6-7,10,16-18H,1H2,(H2,11,12,13)/t4-,6-,7-,10-/m1/s1
Instrument: Pegasus III TOF-MS system, Leco; GC 6890, Agilent Technologies
Instrument type: GC-EI-TOF
Ms type: MS
Ion mode: POSITIVE
Column name: DB-17MS
Retention time: 1188.46 sec
Base peak: 236
Derivative type: 4 TMS
m/z	relative intensity
82	4
83	10
84	67
85	56
86	19
87	16
88	8
89	43
90	4
91	2
92	2
93	3
94	3
95	8
96	5
97	22
98	13
99	60
100	23
101	87
102	16
103	509
104	51
105	26
106	4
107	3
108	8
109	17
110	9
111	64
112	11
113	39
114	8
115	105
116	59
117	103
118	15
119	26
120	5
121	5
122	5
123	13
124	8
125	11
126	11
127	20
128	6
129	147
130	24
131	69
132	18
133	129
134	20
135	24
136	11
137	15
138	24
139	7
140	9
141	20
142	21
143	70
144	23
145	32
146	9
147	437
148	75
149	63
150	17
151	15
152	7
153	21
154	5
155	9
156	9
157	35
158	11
159	9
160	4
161	6
162	18
163	9
164	25
165	100
166	30
167	10
168	8
169	108
170	18
171	16
172	4
173	7
174	4
175	9
176	24
177	15
178	10
179	11
180	19
181	12
182	5
183	4
184	3
185	3
186	2
187	4
188	3
189	49
190	22
191	44
192	381
193	68
194	20
195	4
196	3
197	1
198	1
199	2
200	2
201	4
202	3
203	8
204	22
205	18
206	102
207	80
208	223
209	47
210	14
211	3
212	1
213	1
214	2
215	15
216	10
217	386
218	89
219	52
220	22
221	11
222	5
223	4
224	2
225	1
226	1
227	1
228	2
229	15
230	912
231	220
232	103
233	21
234	17
235	12
236	999
237	183
238	54
239	9
240	2
241	1
242	3
243	218
244	56
245	470
246	111
247	50
248	16
249	6
250	6
251	3
252	2
253	1
257	20
258	58
259	118
260	33
261	13
262	11
263	7
264	78
265	24
266	17
267	4
268	1
274	2
275	1
276	3
277	4
278	36
279	68
280	138
281	37
282	15
283	3
284	1
286	3
287	1
288	2
289	1
290	5
291	8
292	9
293	6
294	7
295	3
296	2
297	1
302	1
303	1
304	4
305	4
306	69
307	21
308	17
309	7
310	3
311	1
317	1
318	3
319	4
320	20
321	13
322	96
323	28
324	11
325	2
331	3
332	3
333	6
334	43
335	13
336	8
337	31
338	13
339	5
340	1
346	6
347	5
348	54
349	18
350	10
351	3
352	1
354	1
360	5
361	2
362	11
363	3
364	2
365	1
374	1
375	9
376	15
377	5
378	5
379	2
380	1
392	3
393	2
394	12
395	5
396	3
397	1
408	4
409	2
410	1
422	1
423	1
424	2
425	1
436	2
437	1
438	1
449	1
450	11
451	7
452	14
453	6
454	2
464	2
465	11
466	7
467	4
468	1
482	1
