Mass spectrum: D-Fructose 6-phosphate; GC-EI-TOF; MS; 6 TMS; BP:315
Name: D-Fructose 6-phosphate
Class: Natural Product
Formula: C6H13O9P
Exact mass: 260.02972
SMILES: OCC(=O)C(O)C(O)C(O)COP(O)(O)=O
InChI: InChI=1S/C6H13O9P/c7-1-3(8)5(10)6(11)4(9)2-15-16(12,13)14/h4-7,9-11H,1-2H2,(H2,12,13,14)/t4-,5-,6-/m1/s1
Instrument: Pegasus III TOF-MS system, Leco; GC 6890, Agilent Technologies
Instrument type: GC-EI-TOF
Ms type: MS
Ion mode: POSITIVE
Column name: DB-17MS
Retention time: 1030.56 sec
Base peak: 315
Derivative type: 6 TMS
m/z	relative intensity
82	30
83	28
84	174
85	39
86	18
87	28
88	19
89	369
90	35
91	21
92	5
93	6
94	6
95	5
96	6
97	6
98	14
99	27
100	68
101	253
102	48
103	459
104	48
105	100
106	16
107	9
108	8
109	4
110	6
111	18
112	7
113	67
114	149
115	64
116	94
117	105
118	18
119	61
120	8
121	12
122	4
123	5
124	7
125	5
126	20
127	32
128	37
129	493
130	84
131	138
132	25
133	388
134	51
135	67
136	8
137	17
138	8
139	5
140	13
141	14
142	49
143	47
144	13
145	15
146	6
147	921
148	158
149	120
150	16
151	31
152	15
153	8
154	14
155	15
156	42
157	73
158	21
159	15
160	4
161	6
162	2
163	30
164	5
165	9
166	10
167	8
168	20
169	9
170	13
171	10
172	41
173	35
174	22
175	10
176	4
177	13
178	4
179	9
180	36
181	39
182	18
183	17
184	6
185	5
186	9
187	5
188	11
189	39
190	12
191	74
192	15
193	40
194	9
195	40
196	20
197	14
198	12
199	5
200	10
201	17
202	17
203	15
204	75
205	39
206	11
207	68
208	13
209	14
210	7
211	206
212	34
213	21
214	19
215	19
216	28
217	838
218	176
219	79
220	11
221	22
222	5
223	3
224	2
225	73
226	17
227	55
228	26
229	16
230	37
231	17
232	16
233	5
234	2
235	1
236	1
237	2
238	2
239	2
240	11
241	11
242	10
243	16
244	29
245	26
246	10
247	5
248	1
249	1
251	1
252	1
253	20
254	17
255	11
256	17
257	6
258	5
259	3
260	11
261	3
262	59
263	14
264	6
265	2
266	1
267	2
268	21
269	28
270	32
271	11
272	10
273	2
274	1
275	1
276	3
277	1
278	1
282	1
283	17
284	7
285	21
286	12
287	5
288	2
289	1
290	1
291	4
292	1
297	3
298	25
299	436
300	131
301	72
302	19
303	6
304	3
305	7
306	4
307	4
308	3
309	4
310	3
311	3
312	2
313	11
314	47
315	999
316	271
317	137
318	37
319	15
320	4
321	1
327	1
328	12
329	4
330	6
331	6
332	4
333	8
334	4
335	2
336	1
340	3
341	30
342	15
343	10
344	13
345	4
346	5
347	1
348	2
349	1
350	1
352	1
353	1
354	1
355	2
356	17
357	144
358	47
359	35
360	15
361	6
362	2
363	1
364	1
368	1
369	8
370	3
371	3
372	4
373	23
374	14
375	6
376	5
377	1
378	1
381	1
383	1
384	1
385	2
386	15
387	84
388	31
389	24
390	8
391	3
392	2
401	1
402	14
403	75
404	29
405	15
406	4
407	2
408	1
415	2
416	1
417	1
418	1
428	1
431	1
432	3
433	5
434	7
435	3
436	1
448	5
449	22
450	10
451	5
452	1
457	1
458	17
459	81
460	32
461	21
462	5
463	2
464	3
465	1
466	1
480	3
481	1
487	2
496	1
