Mass spectrum: D-Xylulose; GC-EI-TOF; MS; 4 TMS; BP:147
Name: D-Xylulose
Class: Natural Product
Formula: C5H10O5
Exact mass: 150.05282
SMILES: OCC(O)(O1)C(O)C(O)C1
InChI: InChI=1S/C5H10O5/c6-2-5(9)4(8)3(7)1-10-5/h3-4,6-9H,1-2H2/t3-,4+,5?/m1/s1
Instrument: Pegasus III TOF-MS system, Leco; GC 6890, Agilent Technologies
Instrument type: GC-EI-TOF
Ms type: MS
Ion mode: POSITIVE
Column name: DB-17MS
Retention time: 770.612 sec
Base peak: 147
Derivative type: 4 TMS
m/z	relative intensity
82	13
83	3
84	68
85	13
86	6
87	14
88	18
89	223
90	20
91	9
94	1
95	1
96	3
97	1
98	7
99	8
100	29
101	61
102	19
103	400
104	42
105	38
106	3
107	1
110	1
111	3
112	4
113	12
114	45
115	29
116	20
117	537
118	59
119	47
120	4
121	2
125	1
126	22
127	5
128	12
129	43
130	15
131	64
132	12
133	183
134	24
135	13
136	1
140	4
141	3
142	64
143	21
144	9
145	9
146	4
147	999
148	169
149	98
150	11
151	4
152	2
154	15
155	3
156	9
157	8
158	12
159	17
160	5
161	4
162	1
163	37
164	6
165	4
166	1
167	1
168	6
169	2
170	4
171	2
172	46
173	362
174	60
175	28
176	4
177	15
178	3
179	2
180	1
181	1
182	1
183	1
184	4
185	2
186	7
187	4
188	7
189	26
190	8
191	18
192	3
193	2
198	5
199	1
200	8
201	33
202	29
203	13
204	38
205	478
206	98
207	54
208	8
209	2
214	9
215	3
216	15
217	54
218	15
219	8
220	2
221	12
222	3
223	1
228	4
229	2
230	6
231	8
232	15
233	5
234	2
235	1
240	2
242	3
243	1
244	4
245	1
246	4
247	1
248	1
256	4
257	1
258	1
260	4
261	1
262	13
263	193
264	43
265	19
266	3
272	1
274	2
277	1
288	13
289	3
290	2
291	5
292	1
293	1
302	2
304	1
307	2
318	3
319	1
330	1
331	1
332	2
333	7
334	5
335	3
336	2
346	1
362	2
363	1
364	15
365	5
366	2
452	2
453	1
467	1
