Mass spectrum: L-Asparagine; GC-EI-TOF; MS; 3 TMS; BP:116
Name: L-Asparagine
Class: Natural Product
Formula: C4H8N2O3
Exact mass: 132.05349
SMILES: NC(=O)C[C@@H](N)C(O)=O
InChI: InChI=1S/C4H8N2O3/c5-2(4(8)9)1-3(6)7/h2H,1,5H2,(H2,6,7)(H,8,9)/t2-/m0/s1
Instrument: Pegasus III TOF-MS system, Leco; GC 6890, Agilent Technologies
Instrument type: GC-EI-TOF
Ms type: MS
Ion mode: POSITIVE
Column name: DB-17MS
Retention time: 827.163 sec
Base peak: 116
Derivative type: 3 TMS
m/z	relative intensity
82	5
83	6
84	57
85	17
86	39
87	16
88	8
89	12
90	18
91	5
92	3
93	6
94	1
95	4
96	3
97	4
98	52
99	20
100	276
101	43
102	37
103	45
104	6
105	7
106	1
107	1
109	1
110	4
111	6
112	5
113	14
114	81
115	103
116	999
117	144
118	62
119	13
120	2
121	1
123	1
124	1
125	29
126	9
127	9
128	51
129	20
130	91
131	141
132	374
133	113
134	32
135	10
136	1
139	3
140	10
141	561
142	97
143	41
144	32
145	6
146	19
147	384
148	74
149	54
150	7
151	3
153	6
154	27
155	4
156	5
157	3
158	10
159	74
160	12
161	5
162	1
163	4
164	1
168	1
169	14
170	5
171	8
172	21
173	6
174	15
175	4
176	4
177	2
178	1
183	1
184	2
185	1
186	2
187	1
188	157
189	43
190	32
191	7
192	2
197	1
198	1
199	5
200	3
201	4
202	75
203	18
204	21
205	6
206	5
207	1
213	41
214	14
215	41
216	25
217	12
218	69
219	16
220	9
221	2
225	1
227	1
228	2
229	6
230	4
231	262
232	62
233	29
234	5
235	1
241	5
242	4
243	23
244	9
245	6
246	1
258	23
259	8
260	3
261	1
262	2
316	4
317	1
