Mass spectrum: DL-Cystathionine; GC-EI-TOF; MS; 4 TMS; BP:128
Name: Cystathionine
Name: DL-Cystathionine
Class: Natural Product
Formula: C7H14N2O4S
Exact mass: 222.06743
SMILES: OC(=O)[C@@H](N)CCSC[C@H](N)C(O)=O
InChI: InChI=1S/C7H14N2O4S/c8-4(6(10)11)1-2-14-3-5(9)7(12)13/h4-5H,1-3,8-9H2,(H,10,11)(H,12,13)
Instrument: Pegasus III TOF-MS system, Leco; GC 6890, Agilent Technologies
Instrument type: GC-EI-TOF
Ms type: MS
Ion mode: POSITIVE
Column name: DB-17MS
Retention time: 1016.16 sec
Base peak: 128
Derivative type: 4 TMS
m/z	relative intensity
82	9
83	12
84	25
85	23
86	45
87	27
88	75
89	13
90	12
91	14
92	4
93	6
94	1
95	3
96	5
97	5
98	23
99	10
100	402
101	67
102	40
103	59
104	10
105	16
106	3
107	2
108	1
109	1
110	4
111	2
112	26
113	9
114	91
115	67
116	49
117	37
118	19
119	13
120	5
121	2
122	1
124	1
125	1
126	18
127	11
128	999
129	157
130	92
131	55
132	76
133	73
134	17
135	8
136	2
137	1
138	20
139	4
140	2
141	3
142	6
143	5
144	15
145	6
146	20
147	349
148	106
149	43
150	10
151	4
152	2
153	2
154	2
155	2
156	11
157	5
158	10
159	10
160	180
161	36
162	37
163	17
164	6
165	2
166	1
167	1
168	1
169	1
170	2
171	1
172	18
173	6
174	29
175	9
176	32
177	6
178	5
179	2
180	1
181	1
182	1
183	1
184	1
185	1
186	5
187	2
188	41
189	12
190	18
191	8
192	3
193	1
194	1
195	1
196	1
197	1
198	1
200	6
201	2
202	81
203	34
204	23
205	10
206	7
207	3
208	1
209	1
211	1
212	1
213	2
214	2
215	2
216	44
217	15
218	779
219	190
220	78
221	15
222	5
223	3
224	1
225	1
226	1
227	1
228	2
229	2
230	19
231	6
232	28
233	7
234	9
235	3
236	3
237	1
238	1
239	1
243	1
244	7
245	88
246	26
247	10
248	4
249	6
250	3
251	2
252	1
260	11
261	7
262	10
263	3
264	4
265	1
266	6
267	2
268	1
273	1
274	12
275	4
276	3
277	8
278	157
279	41
280	23
281	5
282	1
287	1
288	11
289	3
290	4
291	47
292	53
293	28
294	10
295	3
296	1
302	3
303	1
304	3
305	1
307	1
308	1
317	1
340	1
341	1
357	1
358	1
392	1
393	2
394	1
395	1
405	1
406	1
494	1
495	2
497	1
