Mass spectrum: Pentachlorophenol; GC-EI-TOF; MS; 1 TMS; BP:93
Name: Pentachlorophenol
Class: Natural Product
Formula: C6HCl5O
Exact mass: 263.84700
SMILES: Oc(c(Cl)1)c(Cl)c(Cl)c(Cl)c(Cl)1
InChI: InChI=1S/C6HCl5O/c7-1-2(8)4(10)6(12)5(11)3(1)9/h12H
Instrument: Pegasus III TOF-MS system, Leco; GC 6890, Agilent Technologies
Instrument type: GC-EI-TOF
Ms type: MS
Ion mode: POSITIVE
Column name: DB-17MS
Retention time: 953.512 sec
Base peak: 93
Derivative type: 1 TMS
m/z	relative intensity
82	6
83	12
84	5
85	11
86	5
87	17
88	5
89	16
90	4
91	2
92	18
93	999
94	49
95	411
96	38
97	44
98	15
99	21
100	4
101	26
102	6
103	1
104	6
106	6
107	18
109	17
111	7
112	3
113	49
114	6
115	33
117	8
118	7
119	1
120	4
121	1
122	3
123	3
124	1
125	5
126	5
128	2
129	1
130	16
133	3
134	12
135	26
137	12
139	2
141	6
142	9
143	15
145	10
146	2
147	12
148	1
150	1
151	1
154	1
155	2
158	3
159	3
160	3
161	4
162	3
163	1
164	2
167	41
168	6
169	32
170	2
171	8
172	3
173	4
174	1
175	2
177	5
181	4
182	1
184	1
188	2
189	1
190	1
191	6
192	2
193	6
195	1
198	2
200	8
201	1
202	6
203	3
204	3
205	2
206	1
212	3
214	3
215	17
216	4
217	11
218	2
219	3
220	2
223	1
228	7
229	18
230	1
231	16
232	5
233	3
234	2
235	6
237	14
239	17
241	6
243	3
247	1
248	1
249	3
250	7
251	15
252	10
253	15
254	5
255	5
256	4
257	2
259	1
260	1
261	1
263	1
264	7
265	2
266	7
267	6
268	6
269	2
270	2
275	1
276	1
285	11
286	21
287	18
288	23
289	16
290	10
291	11
292	7
293	3
294	2
295	1
297	1
301	1
302	1
303	2
305	2
308	2
309	1
311	1
315	1
320	7
321	268
322	37
323	510
324	65
325	346
326	48
327	142
328	16
329	26
330	2
331	3
333	1
336	70
337	4
338	123
339	16
340	92
341	9
342	28
343	3
344	7
