Mass spectrum: 1,3-Diaminopropane; GC-EI-TOF; MS; 4 TMS; BP:174
Name: 1,3-Diaminopropane
Class: Natural Product
Formula: C3H10N2
Exact mass: 74.08440
SMILES: NCCCN
InChI: InChI=1S/C3H10N2/c4-2-1-3-5/h1-5H2
Instrument: Pegasus III TOF-MS system, Leco; GC 6890, Agilent Technologies
Instrument type: GC-EI-TOF
Ms type: MS
Ion mode: POSITIVE
Column name: DB-17MS
Retention time: 731.213 sec
Base peak: 174
Derivative type: 4 TMS
m/z	relative intensity
82	1
83	2
84	11
85	15
86	382
87	39
88	17
89	2
98	13
99	10
100	233
101	41
102	39
103	11
104	2
111	1
112	14
113	20
114	39
115	22
116	52
117	43
118	10
119	2
120	1
125	1
126	3
127	3
128	59
129	20
130	241
131	62
132	33
133	6
134	2
140	1
142	6
143	2
144	17
145	4
146	27
147	5
148	2
156	3
157	1
158	20
159	3
160	94
162	6
170	16
171	12
172	483
173	88
174	999
175	173
176	62
177	7
178	1
184	3
185	8
186	163
187	29
188	27
189	5
190	2
191	2
192	1
193	1
199	1
200	6
201	324
202	61
203	16
204	3
217	1
243	1
244	1
257	1
259	31
260	7
261	4
273	3
287	1
347	2
362	1
