Mass spectrum: L-Homocysteine; GC-EI-TOF; MS; 3 TMS; BP:128
Name: L-Homocysteine
Class: Natural Product
Formula: C4H9NO2S
Exact mass: 135.03540
SMILES: SCCC(N)C(O)=O
InChI: InChI=1S/C4H9NO2S/c5-3(1-2-8)4(6)7/h3,8H,1-2,5H2,(H,6,7)/t3-/m0/s1
Instrument: Pegasus III TOF-MS system, Leco; GC 6890, Agilent Technologies
Instrument type: GC-EI-TOF
Ms type: MS
Ion mode: POSITIVE
Column name: DB-17MS
Retention time: 1130.49 sec
Base peak: 128
Derivative type: 3 TMS
m/z	relative intensity
82	6
83	4
84	18
85	13
86	24
87	20
88	107
89	13
90	18
91	21
92	4
93	4
94	1
95	1
96	3
97	3
98	18
99	6
100	177
101	28
102	17
103	44
104	6
105	24
106	3
107	3
110	2
111	1
112	17
113	4
114	54
115	30
116	10
117	16
118	19
119	19
120	3
121	2
122	1
126	12
127	3
128	999
129	148
130	64
131	28
132	32
133	42
134	9
135	5
136	1
140	1
141	2
142	2
143	1
144	6
145	2
146	16
147	157
148	26
149	18
150	2
151	1
156	4
157	2
158	5
159	3
160	380
161	90
162	87
163	14
164	6
165	2
172	13
173	3
174	9
175	2
176	1
177	1
186	1
188	22
189	4
190	8
191	4
192	2
193	1
194	5
195	1
198	1
200	1
202	28
203	8
204	4
205	2
206	7
207	1
208	1
212	1
216	3
217	1
218	130
219	31
220	13
221	3
222	7
223	3
224	1
229	1
230	1
232	2
234	8
235	2
236	2
244	3
245	1
246	4
247	1
248	2
250	1
260	1
261	1
262	3
263	1
274	2
275	1
276	1
277	9
278	237
279	64
280	35
281	7
282	2
291	5
292	1
308	1
311	1
312	23
313	5
314	4
336	1
338	2
351	2
439	1
