Mass spectrum: o-Phenanthroline; GC-EI-TOF; MS; 0 TMS; BP:180
Name: 1,10-Phenanthroline
Name: o-Phenanthroline
Class: Natural Product
Formula: C12H8N2
Exact mass: 180.06875
SMILES: c(c3)cc(c1)c(n3)c(n2)c(ccc2)c1
InChI: InChI=1S/C12H8N2/c1-3-9-5-6-10-4-2-8-14-12(10)11(9)13-7-1/h1-8H
Instrument: Pegasus III TOF-MS system, Leco; GC 6890, Agilent Technologies
Instrument type: GC-EI-TOF
Ms type: MS
Ion mode: POSITIVE
Column name: DB-17MS
Retention time: 1171.31 sec
Base peak: 180
Derivative type: 0 TMS
m/z	relative intensity
84	2
85	13
86	28
87	48
88	25
89	22
90	125
91	2
97	8
98	51
99	89
100	96
101	60
102	40
103	15
104	3
109	1
110	4
111	6
112	5
113	8
114	9
115	2
121	1
122	5
123	11
124	20
125	123
126	108
127	131
128	32
129	71
130	7
138	1
139	1
140	3
141	1
150	5
151	36
152	122
153	207
154	223
155	26
156	1
177	9
178	17
179	476
180	999
181	148
182	12
183	1
