Mass spectrum: Glutaric acid; GC-EI-TOF; MS; 2 TMS; BP:147
Name: Glutaric acid
Class: Natural Product
Formula: C5H8O4
Exact mass: 132.04226
SMILES: OC(=O)CCCC(O)=O
InChI: InChI=1S/C5H8O4/c6-4(7)2-1-3-5(8)9/h1-3H2,(H,6,7)(H,8,9)
Instrument: Pegasus III TOF-MS system, Leco; GC 6890, Agilent Technologies
Instrument type: GC-EI-TOF
Ms type: MS
Ion mode: POSITIVE
Column name: DB-17MS
Retention time: 696.212 sec
Base peak: 147
Derivative type: 2 TMS
m/z	relative intensity
83	3
84	4
85	72
86	10
87	12
88	30
89	20
90	3
91	3
92	3
93	24
94	2
95	14
96	4
97	216
98	17
99	29
100	5
101	51
102	7
103	12
104	2
105	5
108	1
109	1
111	4
113	13
114	2
115	27
116	148
117	69
118	11
119	7
120	1
121	1
123	17
124	2
125	1
127	14
128	4
129	183
130	86
131	37
132	10
133	52
134	7
135	5
142	3
143	18
144	3
145	21
146	4
147	999
148	164
149	126
150	15
151	6
152	1
157	1
158	245
159	72
160	17
161	4
162	10
163	5
164	1
170	1
171	9
172	1
173	2
179	1
185	1
186	87
187	44
188	9
189	25
190	6
191	4
192	1
201	5
202	1
203	78
204	103
205	24
206	8
207	1
217	7
218	2
219	4
220	1
221	1
232	1
233	74
234	28
235	11
236	2
245	1
246	1
260	1
261	229
262	48
263	22
264	3
276	1
