Mass spectrum: D-(-)-Fructose; GC-EI-TOF; MS; 5 TMS; BP:103
Name: D-(-)-Fructose
Class: Natural Product
Formula: C6H12O6
Exact mass: 180.06339
SMILES: OC[C@@H](O)[C@@H](O)[C@H](O)C(=O)CO
InChI: InChI=1S/C6H12O6/c7-1-3(9)5(11)6(12)4(10)2-8/h3,5-9,11-12H,1-2H2/t3-,5-,6-/m1/s1
Instrument: Pegasus III TOF-MS system, Leco; GC 6890, Agilent Technologies
Instrument type: GC-EI-TOF
Ms type: MS
Ion mode: POSITIVE
Column name: DB-17MS
Retention time: 846.962 sec
Base peak: 103
Derivative type: 5 TMS
m/z	relative intensity
82	11
83	5
84	166
85	25
86	12
87	19
88	14
89	216
90	20
91	9
92	1
94	2
95	1
96	1
97	1
98	5
99	10
100	26
101	52
102	15
103	999
104	106
105	67
106	5
107	2
108	1
110	2
111	5
112	2
113	19
114	151
115	33
116	23
117	150
118	19
119	28
120	3
121	1
124	1
125	1
126	7
127	6
128	10
129	110
130	23
131	59
132	10
133	147
134	20
135	12
136	1
138	1
140	2
141	4
142	14
143	20
144	5
145	11
146	3
147	517
148	88
149	57
150	7
151	3
152	2
153	1
154	2
155	2
156	7
157	18
158	7
159	6
160	2
161	3
162	1
163	16
164	3
165	2
166	1
168	4
169	2
170	6
171	2
172	21
173	30
174	10
175	14
176	3
177	6
178	1
179	1
180	3
181	1
182	2
184	1
185	1
186	3
187	2
188	4
189	57
190	14
191	36
192	7
193	3
196	2
198	5
199	1
200	3
201	14
202	13
203	9
204	44
205	56
206	13
207	10
208	2
214	4
215	2
216	8
217	460
218	105
219	47
220	7
221	14
222	3
223	1
228	2
229	3
230	5
231	11
232	4
233	1
240	2
242	2
243	1
244	9
245	5
246	3
247	2
248	1
254	1
255	1
256	4
257	1
258	1
260	2
261	1
262	31
263	15
264	5
265	2
268	2
269	1
270	2
271	1
272	1
275	1
276	2
277	36
278	14
279	6
280	1
288	2
291	6
292	2
293	1
300	2
302	2
303	1
304	1
305	4
306	4
307	159
308	49
309	24
310	5
311	1
318	2
319	5
320	2
330	2
331	1
332	1
333	5
334	4
335	7
336	4
337	1
344	1
350	2
358	1
363	1
364	19
365	6
366	3
376	2
390	1
432	1
433	1
464	1
465	1
466	1
