Mass spectrum: L-Isoleucine; GC-EI-TOF; MS; 2 TMS; BP:158
Name: L-Isoleucine
Class: Natural Product
Formula: C6H13NO2
Exact mass: 131.09463
SMILES: CC[C@H](C)[C@H](N)C(O)=O
InChI: InChI=1S/C6H13NO2/c1-3-4(2)5(7)6(8)9/h4-5H,3,7H2,1-2H3,(H,8,9)/t4-,5-/m0/s1
Instrument: Pegasus III TOF-MS system, Leco; GC 6890, Agilent Technologies
Instrument type: GC-EI-TOF
Ms type: MS
Ion mode: POSITIVE
Column name: DB-17MS
Retention time: 580.209 sec
Base peak: 158
Derivative type: 2 TMS
m/z	relative intensity
82	13
83	1
84	28
85	14
86	21
87	7
88	5
89	7
90	16
91	1
93	2
94	3
95	5
96	10
97	8
98	29
99	16
100	291
101	35
102	57
103	29
105	8
106	2
108	2
109	2
110	1
111	2
112	9
113	1
114	34
115	8
116	9
117	27
118	2
119	17
120	3
123	1
124	2
126	5
127	6
128	43
129	24
130	34
131	26
132	56
133	60
134	8
138	1
140	1
141	2
142	36
143	17
144	9
145	2
146	11
147	316
148	26
149	2
150	1
151	1
154	1
157	2
158	999
159	73
161	2
163	11
164	2
170	24
171	4
172	4
174	11
175	5
176	3
183	1
186	1
187	1
188	2
190	2
191	1
199	1
200	2
202	3
203	10
216	2
217	2
218	476
219	54
220	18
232	133
233	37
234	10
235	2
242	1
245	1
246	6
247	2
260	27
261	8
262	1
