Mass spectrum: Minoxidil; GC-EI-TOF; MS; x TMS; BP:99
Name: Minoxidil
Class: Natural Product
Formula: C9H15N5O
Exact mass: 209.12766
SMILES: Nc(c1)[n+1]([O-1])c(N)nc1N(C2)CCCC2
InChI: InChI=1S/C9H15N5O/c10-7-6-8(12-9(11)14(7)15)13-4-2-1-3-5-13/h6H,1-5,10H2,(H2,11,12)
Instrument: Pegasus III TOF-MS system, Leco; GC 6890, Agilent Technologies
Instrument type: GC-EI-TOF
Ms type: MS
Ion mode: POSITIVE
Column name: DB-17MS
Retention time: 1110.96 sec
Base peak: 99
Derivative type: x TMS
m/z	relative intensity
82	76
83	66
84	635
85	210
86	198
87	30
88	34
89	6
90	5
91	7
92	11
93	21
94	19
95	62
96	47
97	65
98	296
99	999
100	228
101	87
102	23
103	6
104	15
105	14
106	10
107	14
108	41
109	29
110	55
111	79
112	79
113	82
114	68
115	78
116	49
117	22
118	12
119	12
120	12
121	9
122	26
123	98
124	70
125	86
126	57
127	41
128	143
129	23
130	174
131	34
132	22
133	17
134	6
135	17
136	10
137	18
138	34
139	105
140	68
141	67
142	77
143	19
144	12
145	4
146	47
147	12
148	7
149	7
150	20
151	63
152	29
153	49
154	83
155	93
156	36
157	50
158	13
159	4
160	3
161	11
162	4
163	4
164	14
165	54
166	53
167	29
168	13
169	9
170	75
171	302
172	79
173	28
174	6
175	2
176	6
177	8
178	26
179	20
180	37
181	38
182	29
183	16
184	7
185	5
186	4
187	18
188	6
189	3
190	3
191	6
192	11
193	25
194	55
195	24
196	40
197	25
198	17
199	5
200	2
203	2
204	3
205	5
206	23
207	20
208	34
209	26
210	25
211	16
212	18
213	6
214	3
215	1
217	1
218	2
219	4
220	48
221	28
222	26
223	24
224	9
225	4
226	5
227	2
228	1
229	4
230	1
231	1
232	2
233	3
234	12
235	7
236	10
237	95
238	63
239	213
240	55
241	19
242	4
243	1
246	2
247	2
248	29
249	18
250	17
251	13
252	14
253	77
254	239
255	75
256	26
257	5
258	1
262	3
263	2
264	13
265	27
266	32
267	61
268	81
269	47
270	15
271	4
272	1
273	1
274	1
275	1
276	1
277	2
278	6
279	7
280	23
281	145
282	108
283	35
284	10
285	2
290	1
291	3
292	29
293	23
294	75
295	55
296	33
297	11
298	3
299	1
300	1
301	1
302	2
303	2
304	2
305	4
306	12
307	24
308	270
309	109
310	47
311	13
312	3
313	1
314	1
315	1
317	1
318	1
319	6
320	23
321	36
322	267
323	80
324	28
325	5
326	1
327	1
328	1
329	1
331	1
334	1
335	9
336	87
337	271
338	84
339	29
340	4
345	1
