Mass spectrum: Glycerol; GC-EI-TOF; MS; 3 TMS; BP:147
Name: Glycerol
Class: Natural Product
Formula: C3H8O3
Exact mass: 92.04734
SMILES: OCC(O)CO
InChI: InChI=1S/C3H8O3/c4-1-3(6)2-5/h3-6H,1-2H2
Instrument: Pegasus III TOF-MS system, Leco; GC 6890, Agilent Technologies
Instrument type: GC-EI-TOF
Ms type: MS
Ion mode: POSITIVE
Column name: DB-17MS
Retention time: 547.844 sec
Base peak: 147
Derivative type: 3 TMS
m/z	relative intensity
85	4
87	6
88	4
89	12
90	2
99	6
101	87
102	10
103	407
104	39
105	17
106	2
107	1
111	1
113	11
114	1
115	27
116	41
117	444
118	46
119	35
120	3
121	2
128	4
129	79
130	9
131	54
132	10
133	236
134	29
135	15
136	1
143	2
145	4
146	2
147	999
148	132
149	77
150	8
151	3
159	6
160	1
161	4
162	2
163	19
164	3
165	2
166	1
168	1
169	1
170	1
171	1
172	1
173	2
174	6
175	55
176	10
177	36
178	5
179	3
180	1
181	1
182	1
183	1
184	1
185	1
186	1
187	1
188	1
189	9
190	3
191	37
192	6
193	3
203	94
204	118
205	908
206	152
207	63
208	7
209	2
217	38
218	228
219	41
220	14
221	6
222	1
263	2
293	6
