Mass spectrum: D-(+)-Glucose; GC-EI-TOF; MS; 5 TMS; BP:147
Name: D-(+)-Glucose
Class: Natural Product
Formula: C6H12O6
Exact mass: 180.06339
SMILES: OC[C@@H](O1)[C@@H](O)[C@H](O)[C@@H](O)C(O)1
InChI: InChI=1S/C6H12O6/c7-1-2-3(8)4(9)5(10)6(11)12-2/h2-11H,1H2/t2-,3-,4+,5-,6?/m1/s1
Instrument: Pegasus III TOF-MS system, Leco; GC 6890, Agilent Technologies
Instrument type: GC-EI-TOF
Ms type: MS
Ion mode: POSITIVE
Column name: DB-17MS
Retention time: 851.163 sec
Base peak: 147
Derivative type: 5 TMS
m/z	relative intensity
82	18
83	44
84	29
85	21
86	25
87	28
88	20
89	290
90	27
91	14
92	2
93	2
94	2
95	2
96	3
97	9
98	7
99	22
100	48
101	90
102	42
103	491
104	51
105	117
106	13
107	5
108	1
109	1
110	3
111	12
112	8
113	20
114	46
115	37
116	33
117	336
118	37
119	35
120	4
121	2
122	1
124	1
125	3
126	8
127	15
128	16
129	369
130	71
131	110
132	19
133	225
134	31
135	18
136	2
137	1
138	2
139	2
140	3
141	8
142	17
143	47
144	9
145	22
146	6
147	999
148	165
149	102
150	12
151	6
152	3
153	2
154	4
155	5
156	5
157	210
158	41
159	18
160	458
161	78
162	23
163	29
164	5
165	3
166	1
167	1
168	5
169	9
170	5
171	3
172	24
173	16
174	8
175	16
176	4
177	13
178	3
179	2
180	3
181	1
182	2
183	1
184	1
185	2
186	9
187	4
188	3
189	92
190	26
191	42
192	8
193	4
194	1
195	1
196	2
197	1
198	2
199	1
200	4
201	53
202	13
203	19
204	114
205	494
206	101
207	53
208	8
209	2
210	8
211	1
212	1
213	1
214	4
215	9
216	25
217	282
218	62
219	28
220	5
221	20
222	5
223	3
224	1
226	1
227	1
228	4
229	63
230	23
231	36
232	13
233	13
234	9
235	2
236	1
237	1
240	3
241	2
242	4
243	7
244	9
245	5
246	10
247	4
248	2
249	1
254	1
255	1
256	4
257	1
258	1
259	3
260	2
261	1
262	12
263	3
264	1
265	2
268	5
269	7
270	4
271	1
272	1
274	12
275	3
276	3
277	14
278	6
279	2
290	2
291	22
292	7
293	3
294	1
300	4
301	1
302	4
303	1
304	3
305	18
306	7
307	14
308	4
309	1
315	1
316	1
317	1
318	12
319	313
320	96
321	46
322	9
323	2
330	1
331	1
332	3
333	2
334	1
342	1
343	4
344	5
345	2
346	1
358	1
364	7
365	3
366	1
374	3
375	1
376	2
466	1
