Mass spectrum: L-Cysteine; GC-EI-TOF; MS; 4 TMS; BP:218
Name: L-Cysteine
Class: Natural Product
Formula: C3H7NO2S
Exact mass: 121.01975
SMILES: N[C@@H](CS)C(O)=O
InChI: InChI=1S/C3H7NO2S/c4-2(1-7)3(5)6/h2,7H,1,4H2,(H,5,6)/t2-/m0/s1
Instrument: Pegasus III TOF-MS system, Leco; GC 6890, Agilent Technologies
Instrument type: GC-EI-TOF
Ms type: MS
Ion mode: POSITIVE
Column name: DB-17MS
Retention time: 1061.83 sec
Base peak: 218
Derivative type: 4 TMS
m/z	relative intensity
82	4
83	6
84	26
85	21
86	35
87	16
88	6
89	8
90	8
91	19
92	4
93	6
94	1
95	2
96	2
97	1
98	17
99	11
100	520
101	81
102	40
103	37
104	6
105	11
106	5
107	3
108	1
110	1
111	1
112	3
113	5
114	54
115	156
116	80
117	34
118	11
119	8
120	18
121	3
122	2
126	1
128	8
129	42
130	36
131	59
132	86
133	50
134	12
135	5
136	1
137	1
141	1
142	5
143	4
144	32
145	13
146	919
147	512
148	207
149	53
150	12
151	3
152	1
156	1
157	1
158	8
159	11
160	12
161	7
162	3
163	10
164	2
165	2
170	1
172	19
173	5
174	21
175	5
176	5
177	1
178	52
179	12
180	10
181	2
182	1
184	1
188	26
189	9
190	8
191	3
192	1
193	1
194	1
198	1
200	2
201	1
202	7
203	14
204	7
205	3
206	2
207	1
216	61
217	19
218	999
219	206
220	130
221	27
222	12
223	3
224	1
230	1
231	4
232	106
233	23
234	10
235	2
236	1
246	2
247	1
248	8
249	13
250	11
251	3
252	3
254	1
260	10
261	6
262	6
263	4
264	107
265	54
266	171
267	40
268	23
269	4
270	1
288	15
289	13
290	5
291	7
292	4
293	1
294	2
295	1
296	21
297	49
298	14
299	8
300	1
321	1
322	5
323	2
324	1
338	8
339	3
340	2
410	7
411	74
412	28
413	18
414	5
415	1
