Mass spectrum: Cysteamine; GC-EI-TOF; MS; 3 TMS; BP:174
Name: Cysteamine
Class: Natural Product
Formula: C2H7NS
Exact mass: 77.02992
SMILES: NCCS
InChI: InChI=1S/C2H7NS/c3-1-2-4/h4H,1-3H2
Instrument: Pegasus III TOF-MS system, Leco; GC 6890, Agilent Technologies
Instrument type: GC-EI-TOF
Ms type: MS
Ion mode: POSITIVE
Column name: DB-17MS
Retention time: 1001.81 sec
Base peak: 174
Derivative type: 3 TMS
m/z	relative intensity
82	1
83	2
84	11
85	14
86	404
87	41
88	18
89	7
90	4
91	18
92	2
93	1
95	1
98	10
99	10
100	398
101	63
102	39
103	8
104	6
105	23
106	3
107	2
112	1
113	15
114	49
115	20
116	74
117	27
118	24
119	5
120	2
128	2
129	7
130	143
131	41
132	55
133	11
134	5
135	1
142	2
143	1
144	7
145	2
146	37
147	12
148	17
149	7
150	2
151	1
156	1
158	9
159	2
160	1
161	1
163	1
164	1
172	44
173	9
174	999
175	200
176	91
177	11
178	2
187	2
188	71
189	14
190	74
191	14
192	10
193	1
204	11
205	4
206	3
219	2
220	122
221	25
222	16
223	2
