Mass spectrum: Glycine; GC-EI-TOF; MS; 3 TMS; BP:174
Name: Glycine
Class: Natural Product
Formula: C2H5NO2
Exact mass: 75.03203
SMILES: NCC(O)=O
InChI: InChI=1S/C2H5NO2/c3-1-2(4)5/h1,3H2,(H,4,5)
Instrument: Pegasus III TOF-MS system, Leco; GC 6890, Agilent Technologies
Instrument type: GC-EI-TOF
Ms type: MS
Ion mode: POSITIVE
Column name: DB-17MS
Retention time: 582.463 sec
Base peak: 174
Derivative type: 3 TMS
m/z	relative intensity
82	1
83	2
84	23
85	15
86	499
87	72
88	27
89	5
93	2
95	4
98	2
99	8
100	320
101	80
102	50
103	32
104	6
105	9
106	1
112	1
113	14
114	11
115	18
116	27
117	74
118	14
119	18
120	1
121	1
128	1
129	4
130	55
131	62
132	18
133	143
134	23
135	15
136	2
142	2
143	1
144	18
145	5
146	9
147	372
148	62
149	33
150	3
151	1
158	10
159	3
160	5
161	1
172	11
173	4
174	999
175	182
176	96
177	19
178	3
179	1
187	1
188	11
189	3
190	3
191	1
192	1
202	6
203	1
204	5
205	1
246	14
247	3
248	178
249	46
250	26
251	5
276	18
277	2
278	1
