Mass spectrum: 1-Aminocyclopropane-1-carboxylic acid; GC-EI-TOF; MS; 2 TMS; BP:147
Name: 1-Aminocyclopropane-1-carboxylic acid
Class: Natural Product
Formula: C4H7NO2
Exact mass: 101.04768
SMILES: OC(=O)C(N)(C1)C1
InChI: InChI=1S/C4H7NO2/c5-4(1-2-4)3(6)7/h1-2,5H2,(H,6,7)
Instrument: Pegasus III TOF-MS system, Leco; GC 6890, Agilent Technologies
Instrument type: GC-EI-TOF
Ms type: MS
Ion mode: POSITIVE
Column name: DB-17MS
Retention time: 536.213 sec
Base peak: 147
Derivative type: 2 TMS
m/z	relative intensity
82	9
83	46
84	82
85	55
86	46
87	27
88	8
89	6
90	1
91	2
92	1
93	2
94	6
95	2
96	11
97	6
98	65
99	19
100	68
101	17
102	17
103	25
104	4
105	9
106	1
107	1
108	1
109	1
110	9
111	5
112	93
113	27
114	40
115	23
116	20
117	26
118	7
119	7
120	1
124	1
126	31
127	54
128	347
129	54
130	25
131	63
132	50
133	89
134	15
135	6
140	5
141	1
142	4
143	2
144	4
145	2
146	10
147	999
148	178
149	90
150	10
151	2
154	1
155	1
156	9
157	10
158	18
159	5
160	3
161	1
162	1
169	1
170	2
171	1
172	10
173	9
174	17
175	10
176	3
177	1
186	32
187	7
188	8
189	1
190	11
191	2
200	1
201	1
202	311
203	70
204	29
205	4
214	2
216	12
217	10
218	2
219	1
230	67
231	15
232	6
233	1
245	35
246	7
247	3
