Mass spectrum: Putrescine; GC-EI-TOF; MS; 4 TMS; BP:174
Name: Putrescine
Class: Natural Product
Formula: C4H12N2
Exact mass: 88.10005
SMILES: NCCCCN
InChI: InChI=1S/C4H12N2/c5-3-1-2-4-6/h1-6H2
Instrument: Pegasus III TOF-MS system, Leco; GC 6890, Agilent Technologies
Instrument type: GC-EI-TOF
Ms type: MS
Ion mode: POSITIVE
Column name: DB-17MS
Retention time: 740.675 sec
Base peak: 174
Derivative type: 4 TMS
m/z	relative intensity
82	1
83	3
84	11
85	17
86	286
87	36
88	16
89	1
96	1
97	4
98	14
99	42
100	151
101	31
102	24
103	6
104	2
110	10
111	2
112	15
113	13
114	33
115	17
116	32
117	26
118	7
119	2
124	2
125	2
126	40
127	7
128	22
129	9
130	91
131	41
132	21
133	4
134	1
139	2
140	14
141	3
142	38
143	8
144	12
145	3
146	50
147	9
148	4
156	4
157	2
158	11
159	3
160	6
161	4
162	1
170	6
171	3
172	75
173	19
174	999
175	201
176	94
177	12
178	2
182	1
184	3
185	1
186	9
187	15
188	9
189	3
190	1
197	1
198	3
199	6
200	81
201	19
202	10
203	2
204	1
213	3
214	116
215	28
216	12
217	2
218	1
228	1
361	2
362	1
