Mass spectrum: 3-Methyladenine; GC-EI-TOF; MS; 1 TMS; BP:206
Name: 3-Methyladenine
Class: Natural Product
Formula: C6H7N5
Exact mass: 149.07015
SMILES: CN(C=1)C(=N2)C(N=C2)=C(N)N1
InChI: InChI=1S/C6H7N5/c1-11-3-10-5(7)4-6(11)9-2-8-4/h2-3H,7H2,1H3
Instrument: Pegasus III TOF-MS system, Leco; GC 6890, Agilent Technologies
Instrument type: GC-EI-TOF
Ms type: MS
Ion mode: POSITIVE
Column name: DB-17MS
Retention time: 1106.11 sec
Base peak: 206
Derivative type: 1 TMS
m/z	relative intensity
82	29
83	32
84	349
85	106
86	38
87	8
88	16
89	3
90	2
91	3
92	14
93	28
94	119
95	71
96	49
97	21
98	30
99	68
100	22
101	9
102	1
103	42
104	3
105	1
106	8
107	19
108	17
109	15
110	17
111	196
112	23
113	25
114	6
115	7
116	1
117	1
118	1
119	12
120	8
121	73
122	115
123	30
124	17
125	32
126	8
127	4
132	1
133	5
134	13
135	18
136	25
137	15
138	75
139	12
140	4
144	1
145	1
146	2
147	6
148	14
149	62
150	19
151	25
152	74
153	14
154	4
155	2
156	1
157	1
159	1
160	2
161	6
162	11
163	10
164	16
165	25
166	10
167	4
168	1
169	1
174	5
175	6
176	120
177	26
178	22
179	273
180	62
181	15
182	2
183	1
186	1
187	1
188	3
189	11
190	32
191	14
192	8
193	12
194	19
195	5
196	2
197	1
198	2
199	1
200	1
203	1
204	13
205	114
206	999
207	168
208	48
209	5
210	1
211	1
212	1
213	2
214	1
215	1
216	1
217	1
219	1
220	48
221	339
222	60
223	16
224	3
225	1
310	1
406	1
