Mass spectrum: L-Homocarnosine; GC-EI-TOF; MS; 3 TMS; BP:154
Name: L-Homocarnosine
Class: Natural Product
Formula: C10H16N4O3
Exact mass: 240.12224
SMILES: C1=C(NC=N1)C[C@@H](C(=O)O)NC(=O)CCCN
InChI: InChI=1S/C10H16N4O3/c11-3-1-2-9(15)14-8(10(16)17)4-7-5-12-6-13-7/h5-6,8H,1-4,11H2,(H,12,13)(H,14,15)(H,16,17)/t8-/m0/s1
Instrument: Pegasus III TOF-MS system, Leco; GC 6890, Agilent Technologies
Instrument type: GC-EI-TOF
Ms type: MS
Ion mode: POSITIVE
Column name: DB-17MS
Retention time: 953.913 sec
Base peak: 154
Derivative type: 3 TMS
m/z	relative intensity
82	68
83	28
84	39
85	18
86	16
87	5
88	1
89	1
92	1
93	3
94	1
95	4
96	7
97	6
98	15
99	5
100	98
101	18
102	8
103	8
104	1
105	2
107	1
108	1
109	3
110	12
111	8
112	22
113	5
114	2
115	5
116	3
117	7
118	2
119	2
120	2
121	2
122	1
123	3
124	3
125	5
126	15
127	3
128	5
129	2
130	13
131	15
132	24
133	16
134	4
135	3
136	2
137	2
138	3
139	8
140	3
141	2
142	1
143	1
144	2
146	2
147	59
148	10
149	5
150	5
151	4
152	2
153	48
154	999
155	239
156	57
157	8
158	3
159	4
160	3
161	1
163	2
164	1
165	3
166	24
167	9
168	2
169	1
170	1
172	1
174	3
175	1
180	3
181	3
182	16
183	6
184	3
185	1
190	1
192	1
193	1
194	1
195	1
197	1
202	1
203	5
204	1
211	3
212	1
213	1
218	50
219	10
220	4
223	1
224	1
225	3
226	14
227	5
228	2
237	1
238	39
239	11
240	5
241	1
252	1
253	3
254	179
255	44
256	17
257	11
258	2
259	1
266	8
267	2
268	1
328	5
329	2
330	1
338	1
355	1
356	13
357	4
358	2
371	3
372	1
