Mass spectrum: L-Glutathione (reduced form); GC-EI-TOF; MS; x TMS; BP:156
Name: L-Glutathione
Name: L-Glutathione (reduced form)
Class: Natural Product
Formula: C10H17N3O6S
Exact mass: 307.08381
SMILES: OC(=O)CNC(=O)C(CS)NC(=O)CCC(N)C(O)=O
InChI: InChI=1S/C10H17N3O6S/c11-5(10(18)19)1-2-7(14)13-6(4-20)9(17)12-3-8(15)16/h5-6,20H,1-4,11H2,(H,12,17)(H,13,14)(H,15,16)(H,18,19)/t5-,6-/m0/s1
Instrument: Pegasus III TOF-MS system, Leco; GC 6890, Agilent Technologies
Instrument type: GC-EI-TOF
Ms type: MS
Ion mode: POSITIVE
Column name: DB-17MS
Retention time: 789.613 sec
Base peak: 156
Derivative type: x TMS
m/z	relative intensity
82	8
83	9
84	39
85	25
86	29
87	9
88	3
89	3
92	1
93	1
94	3
95	2
96	3
97	4
98	8
99	10
100	20
101	6
102	6
103	8
104	1
105	4
106	1
107	1
108	2
110	7
111	3
112	31
113	10
114	15
115	9
116	3
117	12
118	2
119	3
121	1
122	3
124	1
125	1
126	4
127	3
128	3
129	5
130	1
131	20
132	5
133	37
134	6
135	3
139	2
140	30
141	10
142	8
143	2
144	1
147	194
148	32
149	18
150	2
153	1
154	9
155	6
156	999
157	138
158	49
159	4
160	1
161	1
168	2
170	2
172	2
174	2
183	1
186	1
190	1
214	9
215	2
216	1
228	2
229	1
230	59
231	13
232	5
233	1
257	1
258	45
259	9
260	4
273	1
