Mass spectrum: Nicotinic acid; GC-EI-TOF; MS; 1 TMS; BP:136
Name: Nicotinic acid
Class: Natural Product
Formula: C6H5NO2
Exact mass: 123.03203
SMILES: OC(=O)c(c1)cncc1
InChI: InChI=1S/C6H5NO2/c8-6(9)5-2-1-3-7-4-5/h1-4H,(H,8,9)
Instrument: Pegasus III TOF-MS system, Leco; GC 6890, Agilent Technologies
Instrument type: GC-EI-TOF
Ms type: MS
Ion mode: POSITIVE
Column name: DB-17MS
Retention time: 672.944 sec
Base peak: 136
Derivative type: 1 TMS
m/z	relative intensity
82	2
83	9
84	4
85	2
86	3
90	34
91	2
92	4
93	10
94	8
95	3
96	1
97	1
99	1
100	1
104	2
105	19
106	730
107	38
108	6
109	10
110	4
119	1
120	10
121	2
122	8
132	2
134	7
135	7
136	999
137	95
138	14
150	3
151	1
152	1
154	1
162	2
164	3
165	1
174	1
179	4
180	987
181	98
182	16
194	7
195	28
196	3
