Mass spectrum: D-(-)-Ribose; GC-EI-TOF; MS; 4 TMS; BP:103
Name: D-(-)-Ribose
Class: Natural Product
Formula: C5H10O5
Exact mass: 150.05282
SMILES: OC[C@@H](O1)[C@@H](O)[C@@H](O)C(O)1
InChI: InChI=1S/C5H10O5/c6-1-2-3(7)4(8)5(9)10-2/h2-9H,1H2/t2-,3-,4-,5?/m1/s1
Instrument: Pegasus III TOF-MS system, Leco; GC 6890, Agilent Technologies
Instrument type: GC-EI-TOF
Ms type: MS
Ion mode: POSITIVE
Column name: DB-17MS
Retention time: 764.128 sec
Base peak: 103
Derivative type: 4 TMS
m/z	relative intensity
82	7
83	3
84	12
85	12
86	17
87	18
88	11
89	142
90	13
91	7
92	1
93	1
94	2
95	1
96	1
97	1
98	4
99	11
100	38
101	55
102	24
103	999
104	104
105	87
106	7
107	2
110	1
111	5
112	6
113	11
114	28
115	21
116	18
117	110
118	13
119	18
120	2
121	1
125	1
126	6
127	7
128	8
129	98
130	22
131	55
132	10
133	128
134	18
135	12
136	1
140	3
141	3
142	9
143	21
144	4
145	16
146	3
147	382
148	61
149	41
150	5
151	2
152	1
154	1
155	1
156	2
157	6
158	13
159	5
160	101
161	21
162	6
163	17
164	3
165	1
167	1
168	8
169	3
170	2
171	1
172	6
173	8
174	11
175	10
176	2
177	4
178	1
184	1
185	1
186	2
187	1
188	1
189	121
190	24
191	32
192	5
193	3
198	4
199	1
200	4
201	9
202	2
203	5
204	34
205	37
206	9
207	7
208	1
214	1
215	2
216	13
217	381
218	82
219	37
220	5
221	10
222	2
223	1
228	2
229	1
230	2
231	7
232	4
233	20
234	8
235	2
240	1
241	1
242	4
243	2
244	1
246	2
248	2
256	3
257	3
258	1
262	8
263	2
264	1
272	2
274	4
275	1
276	1
277	27
278	10
279	5
280	1
288	2
290	1
291	3
292	1
305	2
306	4
307	117
308	35
309	17
310	3
311	1
316	1
319	1
330	1
331	2
332	1
362	2
