Mass spectrum: Tryptamine; GC-EI-TOF; MS; 3 TMS; BP:174
Name: Tryptamine
Class: Natural Product
Formula: C10H12N2
Exact mass: 160.10005
SMILES: C1=CC=C2C(=C1)C(=CN2)CCN
InChI: InChI=1S/C10H12N2/c11-6-5-8-7-12-10-4-2-1-3-9(8)10/h1-4,7,12H,5-6,11H2
Instrument: Pegasus III TOF-MS system, Leco; GC 6890, Agilent Technologies
Instrument type: GC-EI-TOF
Ms type: MS
Ion mode: POSITIVE
Column name: DB-17MS
Retention time: 1028.71 sec
Base peak: 174
Derivative type: 3 TMS
m/z	relative intensity
83	2
84	9
85	7
86	342
87	35
88	14
89	3
90	1
91	2
93	1
98	1
99	4
100	165
101	32
102	28
103	9
104	2
105	4
106	1
113	5
114	6
115	15
116	21
117	32
118	6
119	5
120	1
127	1
128	4
129	11
130	70
131	26
132	9
133	3
134	2
135	1
141	1
142	2
143	6
144	16
145	21
146	23
147	5
148	2
154	1
156	5
157	1
158	10
159	4
160	7
161	1
169	2
170	8
171	2
172	20
173	15
174	999
175	197
176	88
177	11
178	2
182	1
184	6
185	2
186	14
187	4
188	5
189	1
198	1
199	4
200	11
201	3
202	46
203	11
204	3
213	1
214	5
215	5
216	3
217	1
230	1
244	1
245	1
246	3
247	1
257	1
258	1
260	1
271	1
272	1
273	30
274	8
275	3
287	6
288	1
361	10
362	3
363	1
376	2
377	1
