Mass spectrum: L-Tyrosine; GC-EI-TOF; MS; 3 TMS; BP:218
Name: L-Tyrosine
Class: Natural Product
Formula: C9H11NO3
Exact mass: 181.07389
SMILES: OC(=O)C(N)Cc(c1)ccc(O)c1
InChI: InChI=1S/C9H11NO3/c10-8(9(12)13)5-6-1-3-7(11)4-2-6/h1-4,8,11H,5,10H2,(H,12,13)/t8-/m0/s1
Instrument: Pegasus III TOF-MS system, Leco; GC 6890, Agilent Technologies
Instrument type: GC-EI-TOF
Ms type: MS
Ion mode: POSITIVE
Column name: DB-17MS
Retention time: 930.013 sec
Base peak: 218
Derivative type: 3 TMS
m/z	relative intensity
82	3
83	3
84	9
85	6
86	17
87	6
88	2
89	18
90	13
91	35
92	4
93	3
95	3
96	1
97	1
98	2
99	2
100	367
101	51
102	22
103	23
104	7
105	18
106	3
107	5
108	1
109	2
110	1
113	1
114	1
115	15
116	7
117	20
118	13
119	12
120	2
121	5
122	1
123	2
128	2
129	2
130	33
131	26
132	37
133	38
134	9
135	18
136	3
137	2
142	1
143	1
144	4
145	6
146	11
147	165
148	33
149	39
150	6
151	7
152	1
157	1
158	4
159	6
160	10
161	7
162	4
163	30
164	11
165	15
166	3
167	1
172	2
173	1
174	9
175	7
176	10
177	9
178	3
179	86
180	19
181	6
182	2
188	1
189	1
190	6
191	3
192	18
193	5
194	1
195	1
202	1
203	7
204	2
205	2
206	2
207	10
208	3
209	3
216	1
217	4
218	999
219	181
220	77
221	10
222	2
223	3
224	1
234	1
248	2
249	1
250	2
264	3
265	11
266	4
267	2
278	2
279	8
280	85
281	22
282	8
283	1
291	1
292	3
293	1
353	3
354	20
355	10
356	5
357	1
381	2
382	8
383	3
384	1
