Mass spectrum: D-(-)-Ribose; GC-EI-TOF; MS; 4 TMS; BP:103
Name: D-(-)-Ribose
Class: Natural Product
Formula: C5H10O5
Exact mass: 150.05282
SMILES: OC[C@@H](O1)[C@@H](O)[C@@H](O)C(O)1
InChI: InChI=1S/C5H10O5/c6-1-2-3(7)4(8)5(9)10-2/h2-9H,1H2/t2-,3-,4-,5?/m1/s1
Instrument: Pegasus III TOF-MS system, Leco; GC 6890, Agilent Technologies
Instrument type: GC-EI-TOF
Ms type: MS
Ion mode: POSITIVE
Column name: DB-17MS
Retention time: 760.312 sec
Base peak: 103
Derivative type: 4 TMS
m/z	relative intensity
82	5
83	1
84	1
85	6
86	5
87	5
88	4
89	82
90	6
91	3
99	1
100	15
101	7
102	11
103	999
104	95
105	47
106	2
111	1
112	2
113	4
114	12
115	5
116	6
117	58
118	8
119	10
120	1
126	2
127	2
128	2
129	17
130	7
131	16
132	3
133	52
134	8
135	4
142	2
143	5
144	1
145	8
146	2
147	181
148	36
149	15
150	2
157	2
158	3
159	1
160	75
161	18
162	4
163	6
164	1
173	3
174	10
175	5
176	1
177	1
188	1
189	62
190	14
191	18
192	3
193	1
203	1
204	1
205	25
206	3
207	2
217	136
218	34
219	11
220	2
221	3
222	1
229	1
230	1
231	5
232	2
233	25
234	9
235	3
248	2
262	4
263	1
274	3
275	1
277	20
278	10
279	5
280	2
307	39
308	22
309	14
310	3
319	1
467	1
468	1
