Mass spectrum: Fumaric acid; GC-EI-TOF; MS; 2 TMS; BP:245
Name: Fumaric acid
Name: trans-Butenedioic acid
Class: Natural Product
Formula: C4H4O4
Exact mass: 116.01096
SMILES: C(=C/C(=O)O)\C(=O)O
InChI: InChI=1S/C4H4O4/c5-3(6)1-2-4(7)8/h1-2H,(H,5,6)(H,7,8)/b2-1+
Instrument: Pegasus III TOF-MS system, Leco; GC 6890, Agilent Technologies
Instrument type: GC-EI-TOF
Ms type: MS
Ion mode: POSITIVE
Column name: DB-17MS
Retention time: 635.212 sec
Base peak: 245
Derivative type: 2 TMS
m/z	relative intensity
82	37
83	404
84	167
85	75
86	14
87	21
88	5
89	23
90	3
91	2
92	3
93	10
94	1
95	5
96	1
97	18
98	38
99	44
100	9
101	15
102	9
103	41
104	8
105	16
106	2
107	8
108	2
109	1
110	2
111	8
112	3
113	56
114	7
115	192
116	24
117	46
118	10
119	19
120	4
121	2
122	1
125	1
126	26
127	75
128	36
129	16
130	3
131	37
132	14
133	205
134	30
135	21
136	2
140	1
141	5
142	11
143	283
144	36
145	19
146	3
147	993
148	177
149	151
150	19
151	9
152	1
153	1
155	113
156	21
157	53
158	9
159	12
160	2
161	2
164	1
170	18
171	28
172	5
173	14
174	3
175	1
176	1
183	1
185	1
186	2
187	2
201	11
202	4
203	2
206	1
215	7
216	2
217	53
218	15
219	7
220	2
230	1
231	1
242	3
243	1
244	7
245	999
246	228
247	105
248	15
249	3
