Mass spectrum: L-Valine; GC-EI-TOF; MS; 2 TMS; BP:144
Name: L-Valine
Class: Natural Product
Formula: C5H11NO2
Exact mass: 117.07898
SMILES: CC(C)[C@H](N)C(O)=O
InChI: InChI=1S/C5H11NO2/c1-3(2)4(6)5(7)8/h3-4H,6H2,1-2H3,(H,7,8)/t4-/m0/s1
Instrument: Pegasus III TOF-MS system, Leco; GC 6890, Agilent Technologies
Instrument type: GC-EI-TOF
Ms type: MS
Ion mode: POSITIVE
Column name: DB-17MS
Retention time: 523.063 sec
Base peak: 144
Derivative type: 2 TMS
m/z	relative intensity
82	19
83	15
84	19
85	20
86	40
87	12
88	5
89	1
90	1
91	1
92	1
93	2
94	1
95	1
96	4
97	2
98	17
99	8
100	231
101	39
102	22
103	65
104	5
105	7
107	1
108	1
109	1
110	5
111	2
112	13
113	6
114	33
115	18
116	6
117	22
118	6
119	7
120	1
126	3
128	38
129	26
130	27
131	27
132	36
133	46
134	6
135	2
142	3
143	5
144	999
145	132
146	53
147	308
148	37
149	21
150	4
156	49
157	8
158	11
159	9
160	13
161	3
162	1
163	10
164	2
172	3
174	10
175	2
176	1
186	1
189	1
190	1
202	1
203	10
204	2
218	374
219	80
220	37
221	3
222	1
228	1
231	1
246	25
247	4
248	2
