Mass spectrum: L-Tyrosine; GC-EI-TOF; MS; 3 TMS; BP:218
Name: L-Tyrosine
Class: Natural Product
Formula: C9H11NO3
Exact mass: 181.07389
SMILES: OC(=O)C(N)Cc(c1)ccc(O)c1
InChI: InChI=1S/C9H11NO3/c10-8(9(12)13)5-6-1-3-7(11)4-2-6/h1-4,8,11H,5,10H2,(H,12,13)/t8-/m0/s1
Instrument: Pegasus III TOF-MS system, Leco; GC 6890, Agilent Technologies
Instrument type: GC-EI-TOF
Ms type: MS
Ion mode: POSITIVE
Column name: DB-17MS
Retention time: 931.512 sec
Base peak: 218
Derivative type: 3 TMS
m/z	relative intensity
82	1
83	3
85	4
86	15
87	6
88	1
89	15
90	10
91	25
92	4
95	3
97	1
98	2
99	2
100	292
101	46
102	21
103	16
104	6
105	14
106	3
107	4
108	1
109	1
110	1
115	12
116	4
117	16
118	10
119	10
120	2
121	4
123	1
128	2
129	2
130	24
131	19
132	31
133	33
134	9
135	13
136	2
137	2
138	1
140	1
142	1
143	2
144	3
145	5
146	10
147	133
148	32
149	35
150	7
151	6
152	1
157	1
158	3
159	5
160	9
161	5
162	4
163	24
164	9
165	10
166	2
167	1
172	1
173	1
174	8
175	6
176	8
177	7
178	2
179	65
180	18
181	6
182	2
188	1
189	1
190	5
191	3
192	12
193	5
194	2
195	1
203	6
204	2
205	1
206	1
207	7
208	2
209	2
216	1
217	3
218	999
219	232
220	108
221	15
222	3
223	3
248	2
249	1
250	2
251	1
264	3
265	10
266	4
267	2
278	2
279	6
280	99
281	33
282	13
283	3
292	3
293	1
353	1
354	21
355	12
356	7
357	2
358	1
382	10
383	4
384	2
