Mass spectrum: L-Homocarnosine; GC-EI-TOF; MS; 3 TMS; BP:154
Name: L-Homocarnosine
Class: Natural Product
Formula: C10H16N4O3
Exact mass: 240.12224
SMILES: C1=C(NC=N1)C[C@@H](C(=O)O)NC(=O)CCCN
InChI: InChI=1S/C10H16N4O3/c11-3-1-2-9(15)14-8(10(16)17)4-7-5-12-6-13-7/h5-6,8H,1-4,11H2,(H,12,13)(H,14,15)(H,16,17)/t8-/m0/s1
Instrument: Pegasus III TOF-MS system, Leco; GC 6890, Agilent Technologies
Instrument type: GC-EI-TOF
Ms type: MS
Ion mode: POSITIVE
Column name: DB-17MS
Retention time: 951.613 sec
Base peak: 154
Derivative type: 3 TMS
m/z	relative intensity
82	46
83	19
84	26
85	13
86	11
87	3
88	1
89	1
92	1
93	4
94	1
95	3
96	5
97	4
98	11
99	4
100	80
101	15
102	7
103	6
104	1
105	1
108	1
109	2
110	9
111	6
112	18
113	4
114	2
115	4
116	2
117	6
118	2
119	2
120	1
121	1
123	2
124	3
125	4
126	13
127	3
128	4
129	1
130	11
131	14
132	21
133	14
134	3
135	2
136	1
137	2
138	2
139	6
140	2
141	3
142	1
143	1
144	2
146	1
147	50
148	9
149	5
150	4
151	3
152	2
153	42
154	999
155	239
156	60
157	8
158	3
159	3
160	3
161	1
163	2
164	1
165	2
166	20
167	7
168	2
169	1
170	1
172	1
174	3
180	2
181	2
182	10
183	5
184	2
190	1
193	1
194	1
197	1
202	1
203	4
204	1
211	2
213	1
218	49
219	9
220	4
223	1
224	1
225	2
226	13
227	4
228	2
237	1
238	34
239	10
240	4
241	1
252	1
253	2
254	179
255	43
256	17
257	11
258	2
266	8
267	2
268	1
328	4
329	2
330	1
338	1
356	13
357	4
358	2
371	3
372	1
