Mass spectrum: D-(-)-Ribose; GC-EI-TOF; MS; 4 TMS; BP:73
Name: D-(-)-Ribose
Class: Natural Product
Formula: C5H10O5
Exact mass: 150.05282
SMILES: OC[C@@H](O1)[C@@H](O)[C@@H](O)C(O)1
InChI: InChI=1S/C5H10O5/c6-1-2-3(7)4(8)5(9)10-2/h2-9H,1H2/t2-,3-,4-,5?/m1/s1
Instrument: Pegasus III TOF-MS system, Leco; GC 6890, Agilent Technologies
Instrument type: GC-EI-TOF
Ms type: MS
Ion mode: POSITIVE
Column name: DB-17MS
Retention time: 1300.22 sec
Base peak: 73
Derivative type: 4 TMS
m/z	relative intensity
39	2
40	1
41	10
42	3
43	23
44	20
45	118
46	7
47	8
53	2
54	4
55	8
56	1
57	4
58	8
59	50
60	4
61	5
66	1
67	1
68	1
69	1
70	5
71	4
72	23
73	999
74	80
75	49
76	2
82	3
84	2
85	3
86	5
87	4
88	2
89	33
90	2
91	1
98	1
99	4
100	22
101	21
102	12
103	592
104	56
105	33
106	2
112	2
113	4
114	12
115	7
116	5
117	39
118	4
119	6
126	2
127	3
128	3
129	35
130	9
131	18
132	4
133	51
134	7
135	4
140	1
141	1
142	5
143	11
144	2
145	11
146	2
147	192
148	31
149	19
150	2
151	1
156	1
157	2
158	6
159	2
160	45
161	11
162	2
163	8
164	1
168	3
169	1
170	1
172	2
173	3
174	7
175	5
176	1
177	1
189	69
190	13
191	18
192	3
193	1
198	2
200	2
201	3
202	1
203	2
204	14
205	22
206	5
207	4
215	1
216	9
217	330
218	70
219	30
220	3
221	6
222	1
228	1
230	1
231	5
232	3
233	24
234	8
235	2
242	2
243	1
244	1
246	1
248	2
256	2
257	2
258	1
262	8
263	2
264	1
272	1
274	4
275	1
277	26
278	11
279	5
280	1
288	1
291	2
305	1
306	1
307	156
308	48
309	24
310	4
311	1
316	1
319	1
330	1
331	2
332	1
362	3
363	1
452	1
467	2
468	1
