Mass spectrum: Nicotinic acid; GC-EI-TOF; MS; 1 TMS; BP:136
Name: Nicotinic acid
Class: Natural Product
Formula: C6H5NO2
Exact mass: 123.03203
SMILES: OC(=O)c(c1)cncc1
InChI: InChI=1S/C6H5NO2/c8-6(9)5-2-1-3-7-4-5/h1-4H,(H,8,9)
Instrument: Pegasus III TOF-MS system, Leco; GC 6890, Agilent Technologies
Instrument type: GC-EI-TOF
Ms type: MS
Ion mode: POSITIVE
Column name: DB-17MS
Retention time: 673.378 sec
Base peak: 136
Derivative type: 1 TMS
m/z	relative intensity
82	2
83	10
84	4
85	3
86	2
90	41
91	3
92	5
93	11
94	8
95	3
96	2
97	1
99	1
104	3
105	31
106	821
107	62
108	9
109	11
110	5
111	1
119	1
120	11
121	2
122	10
123	3
124	1
132	2
134	7
135	6
136	999
137	133
138	40
139	3
150	4
151	2
152	1
153	1
162	3
163	1
164	3
165	1
166	1
179	3
180	929
181	136
182	42
183	3
194	8
195	33
196	5
197	1
