Mass spectrum: Spermidine; GC-EI-TOF; MS; 5 TMS; BP:144
Name: Spermidine
Class: Natural Product
Formula: C7H19N3
Exact mass: 145.15790
SMILES: NCCCCNCCCN
InChI: InChI=1S/C7H19N3/c8-4-1-2-6-10-7-3-5-9/h10H,1-9H2
Instrument: Pegasus III TOF-MS system, Leco; GC 6890, Agilent Technologies
Instrument type: GC-EI-TOF
Ms type: MS
Ion mode: POSITIVE
Column name: DB-17MS
Retention time: 1900.45 sec
Base peak: 144
Derivative type: 5 TMS
m/z	relative intensity
82	39
83	12
84	121
85	26
86	428
87	41
88	23
89	2
91	2
93	1
94	2
95	1
96	44
97	5
98	24
99	50
100	119
101	31
102	46
103	2
104	1
110	11
111	12
112	13
113	4
114	41
115	234
116	895
117	48
118	9
124	1
126	11
127	1
129	19
130	8
132	8
133	1
140	11
142	32
143	8
144	999
145	115
146	17
147	7
148	3
154	91
155	18
156	564
157	223
158	52
159	10
160	235
161	37
162	6
163	1
170	34
171	2
173	4
174	71
175	37
176	27
177	4
182	4
183	42
184	15
185	5
186	46
187	11
188	5
189	1
198	3
200	80
201	64
202	24
203	10
204	2
212	3
213	4
214	203
215	53
216	27
217	6
218	5
219	1
220	1
221	1
222	1
223	1
226	4
227	4
228	5
229	10
230	2
231	1
232	1
234	1
235	1
236	1
238	1
241	3
242	3
243	8
244	3
245	3
246	2
247	2
249	1
252	1
253	1
255	4
257	6
258	2
259	2
260	2
261	2
262	1
265	1
268	1
269	1
272	1
273	2
275	1
287	1
289	1
301	4
302	1
303	89
304	28
305	15
306	3
315	11
316	4
317	68
318	22
319	9
320	2
329	2
330	1
331	7
332	1
343	8
344	66
345	24
346	10
347	1
389	1
418	1
489	4
490	80
491	23
492	19
493	3
494	1
