Mass spectrum: Isonicotinic acid; GC-EI-TOF; MS; 1 TMS; BP:180
Name: Isonicotinic acid
Class: Natural Product
Formula: C6H5NO2
Exact mass: 123.03203
SMILES: OC(=O)c(c1)ccnc1
InChI: InChI=1S/C6H5NO2/c8-6(9)5-1-3-7-4-2-5/h1-4H,(H,8,9)
Instrument: Pegasus III TOF-MS system, Leco; GC 6890, Agilent Technologies
Instrument type: GC-EI-TOF
Ms type: MS
Ion mode: POSITIVE
Column name: DB-17MS
Retention time: 649.663 sec
Base peak: 180
Derivative type: 1 TMS
m/z	relative intensity
82	3
83	21
84	6
85	3
86	2
89	1
90	52
91	4
92	4
93	9
94	6
95	4
96	3
97	1
99	2
104	1
105	16
106	646
107	50
108	7
109	10
110	9
111	1
119	2
120	10
121	2
122	9
123	6
124	1
132	1
134	2
135	3
136	523
137	72
138	22
139	2
150	3
151	2
152	2
153	1
162	1
164	3
165	2
166	1
179	5
180	999
181	146
182	46
183	5
184	1
194	5
195	33
196	6
197	1
