Mass spectrum: L-Glutathione (oxidized form); GC-EI-TOF; MS; x TMS; BP:156
Name: Glutathione disulfide
Name: L-Glutathione (oxidized form)
Class: Natural Product
Formula: C20H32N6O12S2
Exact mass: 612.15196
SMILES: OC(=O)CNC(=O)[C@H](CSSC[C@H](NC(=O)CC[C@H](N)C(O)=O)C(=O)NCC(O)=O)NC(=O)CC[C@H](N)C(O)=O
InChI: InChI=1S/C20H32N6O12S2/c21-9(19(35)36)1-3-13(27)25-11(17(33)23-5-15(29)30)7-39-40-8-12(18(34)24-6-16(31)32)26-14(28)4-2-10(22)20(37)38/h9-12H,1-8,21-22H2,(H,23,33)(H,24,34)(H,25,27)(H,26,28)(H,29,30)(H,31,32)(H,35,36)(H,37,38)/t9-,10-,11-,12-/m0/s1
Instrument: Pegasus III TOF-MS system, Leco; GC 6890, Agilent Technologies
Instrument type: GC-EI-TOF
Ms type: MS
Ion mode: POSITIVE
Column name: DB-17MS
Retention time: 789.663 sec
Base peak: 156
Derivative type: x TMS
m/z	relative intensity
82	8
83	9
84	39
85	24
86	30
87	10
88	3
89	3
92	1
93	2
94	3
95	2
96	3
97	3
98	9
99	11
100	21
101	6
102	6
103	10
104	2
105	4
106	1
108	2
110	6
111	3
112	32
113	10
114	16
115	10
116	3
117	12
118	2
119	4
120	1
121	1
122	3
124	1
125	1
126	5
127	3
128	3
129	5
130	2
131	21
132	6
133	37
134	6
135	3
139	2
140	31
141	10
142	8
143	2
144	1
145	1
147	195
148	32
149	19
150	2
152	1
153	1
154	9
155	6
156	999
157	138
158	49
159	5
160	1
161	1
168	2
170	3
172	1
174	3
183	1
184	1
186	2
190	1
198	1
214	9
215	2
216	1
228	2
229	1
230	60
231	14
232	5
233	1
257	1
258	46
259	9
260	4
273	1
