Mass spectrum: L-Methionine; GC-EI-TOF; MS; 2 TMS; BP:128
Name: L-Methionine
Class: Natural Product
Formula: C5H11NO2S
Exact mass: 149.05105
SMILES: N[C@@H](CCSC)C(O)=O
InChI: InChI=1S/C5H11NO2S/c1-9-3-2-4(6)5(7)8/h4H,2-3,6H2,1H3,(H,7,8)/t4-/m0/s1
Instrument: Pegasus III TOF-MS system, Leco; GC 6890, Agilent Technologies
Instrument type: GC-EI-TOF
Ms type: MS
Ion mode: POSITIVE
Column name: DB-17MS
Retention time: 754.012 sec
Base peak: 128
Derivative type: 2 TMS
m/z	relative intensity
82	9
83	10
84	22
85	23
86	45
87	22
88	13
89	7
90	4
91	16
92	2
93	2
94	1
95	1
96	5
97	4
98	31
99	10
100	216
101	53
102	45
103	56
104	15
105	49
106	6
107	7
108	1
110	3
111	1
112	18
113	7
114	86
115	29
116	15
117	22
118	7
119	10
120	2
121	2
126	5
127	3
128	999
129	171
130	82
131	36
132	27
133	45
134	10
135	5
140	3
141	4
142	5
143	3
144	21
145	5
146	14
147	378
148	65
149	32
150	5
151	4
152	1
153	1
154	2
155	2
156	5
157	8
158	9
159	6
160	48
161	9
162	6
163	4
164	2
165	1
172	2
173	2
174	6
175	3
176	748
177	154
178	102
179	13
180	3
186	1
188	51
189	9
190	6
191	1
200	1
202	60
203	37
204	13
205	5
206	1
214	1
216	2
217	1
218	91
219	179
220	45
221	19
222	3
223	1
230	12
231	4
232	32
233	7
234	3
235	1
244	1
245	2
246	2
250	111
251	37
252	19
253	4
254	1
263	11
264	3
265	2
278	8
279	2
280	1
293	119
294	32
295	19
296	3
