Mass spectrum: L-Glutathione (reduced form); GC-EI-TOF; MS; x TMS; BP:156
Name: L-Glutathione
Name: L-Glutathione (reduced form)
Class: Natural Product
Formula: C10H17N3O6S
Exact mass: 307.08381
SMILES: OC(=O)CNC(=O)C(CS)NC(=O)CCC(N)C(O)=O
InChI: InChI=1S/C10H17N3O6S/c11-5(10(18)19)1-2-7(14)13-6(4-20)9(17)12-3-8(15)16/h5-6,20H,1-4,11H2,(H,12,17)(H,13,14)(H,15,16)(H,18,19)/t5-,6-/m0/s1
Instrument: Pegasus III TOF-MS system, Leco; GC 6890, Agilent Technologies
Instrument type: GC-EI-TOF
Ms type: MS
Ion mode: POSITIVE
Column name: DB-17MS
Retention time: 786.663 sec
Base peak: 156
Derivative type: x TMS
m/z	relative intensity
82	7
83	7
84	34
85	22
86	27
87	9
88	2
89	7
93	2
94	2
95	1
96	3
97	3
98	8
99	17
100	20
101	5
102	5
103	7
104	1
105	5
108	1
110	6
111	3
112	30
113	9
114	16
115	9
116	3
117	11
118	2
119	3
122	3
124	1
125	1
126	4
127	3
128	3
129	5
130	2
131	21
132	5
133	37
134	5
135	3
139	2
140	31
141	10
142	8
143	2
144	1
147	197
148	33
149	19
150	2
154	9
155	6
156	999
157	139
158	49
159	4
160	1
168	2
170	3
171	1
172	2
173	1
174	2
175	1
186	1
190	1
203	1
214	10
215	2
228	2
230	64
231	13
232	5
233	1
258	49
259	10
260	4
273	1
