Mass spectrum: L-Isoleucine; GC-EI-TOF; MS; 2 TMS; BP:158
Name: L-Isoleucine
Class: Natural Product
Formula: C6H13NO2
Exact mass: 131.09463
SMILES: CC[C@H](C)[C@H](N)C(O)=O
InChI: InChI=1S/C6H13NO2/c1-3-4(2)5(7)6(8)9/h4-5H,3,7H2,1-2H3,(H,8,9)/t4-,5-/m0/s1
Instrument: Pegasus III TOF-MS system, Leco; GC 6890, Agilent Technologies
Instrument type: GC-EI-TOF
Ms type: MS
Ion mode: POSITIVE
Column name: DB-17MS
Retention time: 761.118 sec
Base peak: 158
Derivative type: 2 TMS
m/z	relative intensity
82	5
83	4
84	14
85	11
86	29
87	10
88	4
89	2
90	9
91	1
92	1
95	1
96	8
97	6
98	12
99	8
100	149
101	35
102	85
103	28
104	6
105	6
110	1
112	5
113	3
114	22
115	13
116	9
117	12
118	5
119	5
120	1
126	3
127	2
128	24
129	20
130	23
131	22
132	33
133	43
134	10
135	5
140	1
142	18
143	15
144	8
145	2
146	9
147	153
148	30
149	19
150	1
152	1
157	1
158	999
159	167
160	86
161	11
162	1
163	5
164	2
170	15
171	5
172	2
173	1
174	5
175	1
176	2
177	1
186	1
192	1
202	1
203	7
204	2
205	1
216	4
217	2
218	396
219	79
220	46
221	7
222	1
232	27
233	20
234	9
235	3
261	1
262	1
