Mass spectrum: L-(+)-Lysine; GC-EI-TOF; MS; 3 TMS; BP:174
Name: L-Lysine
Name: L-(+)-Lysine
Class: Natural Product
Formula: C6H14N2O2
Exact mass: 146.10553
SMILES: NCCCC[C@H](N)C(O)=O
InChI: InChI=1S/C6H14N2O2/c7-4-2-1-3-5(8)6(9)10/h5H,1-4,7-8H2,(H,9,10)/t5-/m0/s1
Instrument: Pegasus III TOF-MS system, Leco; GC 6890, Agilent Technologies
Instrument type: GC-EI-TOF
Ms type: MS
Ion mode: POSITIVE
Column name: DB-17MS
Retention time: 884.312 sec
Base peak: 174
Derivative type: 3 TMS
m/z	relative intensity
82	73
83	16
84	282
85	33
86	235
87	30
88	52
89	7
90	4
91	2
92	1
93	1
94	14
95	3
96	2
97	6
98	12
99	11
100	125
101	23
102	50
103	20
104	4
105	1
107	1
109	1
110	6
111	3
112	24
113	10
114	39
115	19
116	20
117	21
118	5
119	3
124	2
125	1
126	7
127	3
128	60
129	15
130	64
131	30
132	18
133	17
134	3
135	1
138	1
139	1
140	9
141	3
142	23
143	5
144	11
145	3
146	31
147	56
148	16
149	6
150	2
151	1
154	6
155	5
156	135
157	22
158	16
159	3
160	5
161	2
162	3
166	4
167	5
168	33
169	6
170	6
171	2
172	21
173	6
174	999
175	176
176	78
177	9
178	1
182	1
183	3
184	7
185	2
186	12
187	3
188	4
189	1
190	1
198	1
199	2
200	150
201	30
202	11
203	1
204	1
214	2
215	1
216	5
217	1
218	1
227	1
228	1
229	2
230	20
231	6
232	3
242	1
244	1
245	1
246	1
255	1
257	3
258	34
259	8
260	3
289	4
290	1
317	1
347	2
361	1
362	10
363	3
364	1
