Mass spectrum: Gly-Gly; GC-EI-TOF; MS; 4 TMS; BP:174
Name: Glycylglycine
Name: Gly-Gly
Class: Natural Product
Formula: C4H8N2O3
Exact mass: 132.05349
SMILES: NCC(=O)NCC(O)=O
InChI: InChI=1S/C4H8N2O3/c5-1-3(7)6-2-4(8)9/h1-2,5H2,(H,6,7)(H,8,9)
Instrument: Pegasus III TOF-MS system, Leco; GC 6890, Agilent Technologies
Instrument type: GC-EI-TOF
Ms type: MS
Ion mode: POSITIVE
Column name: DB-17MS
Retention time: 865.413 sec
Base peak: 174
Derivative type: 4 TMS
m/z	relative intensity
82	1
83	1
84	36
85	10
86	250
87	26
88	15
89	4
90	1
92	1
93	4
95	2
97	1
98	19
99	7
100	146
101	38
102	40
103	14
104	3
105	3
111	1
112	1
113	7
114	7
115	11
116	29
117	33
118	5
119	7
120	1
126	1
127	2
128	3
129	12
130	39
131	36
132	12
133	42
134	5
135	3
140	1
141	6
142	16
143	6
144	11
145	3
146	17
147	155
148	23
149	12
150	1
151	1
153	1
156	1
157	1
158	10
159	4
160	13
161	3
162	1
169	1
170	1
171	2
172	38
173	8
174	999
175	138
176	49
177	5
178	1
185	1
186	1
187	8
188	7
189	3
190	2
191	1
199	1
200	2
201	2
202	2
203	1
204	8
205	2
213	3
214	4
215	9
216	6
217	1
218	8
219	1
221	3
229	4
230	2
232	1
234	3
241	7
242	1
243	6
244	2
245	1
246	2
247	1
248	43
249	9
250	3
258	3
259	4
260	1
261	1
273	1
287	1
288	1
289	1
306	4
315	1
316	1
317	3
318	1
332	1
333	3
334	1
404	10
405	34
406	9
407	3
419	1
420	3
421	1
