Mass spectrum: Isoguvacine; GC-EI-TOF; MS; 2 TMS; BP:154
Name: Isoguvacine
Class: Natural Product
Formula: C6H9NO2
Exact mass: 127.06333
SMILES: OC(=O)C(C1)N=CCC1
InChI: InChI=1S/C6H9NO2/c8-6(9)5-3-1-2-4-7-5/h4-5H,1-3H2,(H,8,9)
Instrument: Pegasus III TOF-MS system, Leco; GC 6890, Agilent Technologies
Instrument type: GC-EI-TOF
Ms type: MS
Ion mode: POSITIVE
Column name: DB-17MS
Retention time: 751.913 sec
Base peak: 154
Derivative type: 2 TMS
m/z	relative intensity
82	13
83	16
84	9
85	16
86	211
87	19
88	7
89	1
92	2
93	1
94	4
95	4
96	4
97	9
98	3
99	3
100	23
101	98
102	12
103	6
105	1
106	2
108	15
109	8
110	3
111	11
112	4
113	3
114	1
115	1
116	2
117	5
118	1
119	3
120	2
121	10
122	3
123	1
124	3
125	1
126	2
127	1
128	2
129	1
131	6
132	1
133	19
134	2
135	1
137	1
138	14
139	4
140	2
141	1
143	1
147	116
148	18
149	8
150	2
151	2
152	63
153	32
154	999
155	151
156	42
157	5
158	1
166	5
167	1
168	1
169	1
170	1
171	1
172	1
180	8
181	45
182	68
183	12
184	3
196	2
198	4
199	1
210	1
211	4
212	2
213	1
226	2
227	1
228	4
229	3
230	1
240	1
243	7
244	1
254	1
255	20
256	156
257	36
258	14
259	2
268	3
269	1
270	27
271	153
272	36
273	13
274	2
