Mass spectrum: L-Norvaline; GC-EI-TOF; MS; x TMS; BP:144
Name: L-Norvaline
Class: Natural Product
Formula: C5H11NO2
Exact mass: 117.07898
SMILES: CCC[C@H](N)C(O)=O
InChI: InChI=1S/C5H11NO2/c1-2-3-4(6)5(7)8/h4H,2-3,6H2,1H3,(H,7,8)/t4-/m0/s1
Instrument: Pegasus III TOF-MS system, Leco; GC 6890, Agilent Technologies
Instrument type: GC-EI-TOF
Ms type: MS
Ion mode: POSITIVE
Column name: DB-17MS
Retention time: 540.963 sec
Base peak: 144
Derivative type: x TMS
m/z	relative intensity
82	9
83	6
84	17
85	14
86	13
87	10
88	7
89	4
90	1
91	2
92	1
93	2
94	3
95	1
96	3
97	3
98	12
99	9
100	119
101	24
102	34
103	45
104	5
105	9
106	1
107	3
108	1
110	16
111	1
112	6
113	4
114	34
115	31
116	10
117	25
118	6
119	7
120	1
121	1
126	2
128	25
129	10
130	18
131	21
132	16
133	36
134	14
135	2
136	1
141	1
142	7
143	4
144	999
145	140
146	51
147	196
148	30
149	16
150	1
156	22
157	5
158	8
159	3
160	2
163	1
172	3
173	1
174	5
175	2
176	1
184	6
202	6
203	3
204	1
205	3
216	1
218	73
219	19
220	7
221	1
228	8
246	10
247	1
248	1
