Mass spectrum: Glutaric acid; GC-EI-TOF; MS; 2 TMS; BP:147
Name: Glutaric acid
Class: Natural Product
Formula: C5H8O4
Exact mass: 132.04226
SMILES: OC(=O)CCCC(O)=O
InChI: InChI=1S/C5H8O4/c6-4(7)2-1-3-5(8)9/h1-3H2,(H,6,7)(H,8,9)
Instrument: Pegasus III TOF-MS system, Leco; GC 6890, Agilent Technologies
Instrument type: GC-EI-TOF
Ms type: MS
Ion mode: POSITIVE
Column name: DB-17MS
Retention time: 694.463 sec
Base peak: 147
Derivative type: 2 TMS
m/z	relative intensity
83	5
85	157
86	21
87	25
88	81
89	57
90	6
91	5
94	1
95	11
96	8
97	823
98	43
99	64
100	7
101	55
102	5
103	5
104	1
105	2
106	1
109	1
110	1
111	5
112	1
113	36
114	7
115	65
116	494
117	198
118	23
119	12
120	1
121	1
122	1
123	76
124	6
125	2
126	1
127	50
128	13
129	489
130	260
131	45
132	12
133	42
134	3
135	3
138	1
141	2
142	9
143	49
144	4
145	27
146	2
147	999
148	12
157	1
158	395
159	133
160	25
161	6
162	30
163	18
164	3
165	3
167	1
168	1
169	3
170	1
171	38
172	5
173	6
174	3
175	3
176	3
177	2
178	3
179	1
180	1
181	1
182	1
183	1
184	1
185	4
186	334
187	196
188	33
189	102
190	26
191	18
192	4
193	2
194	1
195	3
196	3
197	3
198	2
199	2
200	2
201	24
202	6
203	382
204	546
205	110
206	35
207	5
208	3
209	1
210	2
211	1
212	2
213	1
214	2
215	2
216	2
217	28
218	7
219	14
220	4
221	6
222	2
223	2
224	2
225	1
226	2
227	1
228	1
230	2
231	2
232	6
233	259
234	115
235	49
236	8
237	2
238	1
239	1
240	1
242	1
243	2
244	3
245	5
246	5
247	3
248	3
249	2
250	3
251	3
252	3
253	2
254	2
255	1
260	8
261	597
262	88
263	24
276	3
