Mass spectrum: D-(+)-Mannose; GC-EI-TOF; MS; 5 TMS; BP:147
Name: D-(+)-Mannose
Class: Natural Product
Formula: C6H12O6
Exact mass: 180.06339
SMILES: OCC(O1)C(O)C(O)C(O)C(O)1
InChI: InChI=1S/C6H12O6/c7-1-2-3(8)4(9)5(10)6(11)12-2/h2-11H,1H2/t2-,3-,4+,5+,6?/m1/s1
Instrument: Pegasus III TOF-MS system, Leco; GC 6890, Agilent Technologies
Instrument type: GC-EI-TOF
Ms type: MS
Ion mode: POSITIVE
Column name: DB-17MS
Retention time: 842.412 sec
Base peak: 147
Derivative type: 5 TMS
m/z	relative intensity
82	24
83	38
84	49
85	26
86	16
87	30
88	14
89	274
90	28
91	13
92	3
93	7
94	5
95	3
96	2
97	9
98	9
99	26
100	39
101	109
102	40
103	427
104	37
105	89
107	4
109	2
110	2
111	11
112	8
113	19
114	40
115	38
116	36
117	333
118	28
119	28
120	5
121	2
123	2
124	2
125	3
126	11
127	15
128	13
129	326
130	50
131	113
132	24
133	245
134	28
135	13
136	1
137	2
138	2
139	2
140	3
141	4
142	19
143	41
144	7
145	34
146	1
147	999
148	151
149	84
150	6
151	5
152	4
153	2
154	7
155	5
156	6
157	194
158	29
159	16
160	350
161	42
162	15
163	23
164	4
165	2
166	2
168	5
169	8
170	7
171	5
172	27
173	15
174	4
175	11
176	3
177	15
178	3
180	2
181	2
182	3
183	1
184	3
185	1
186	9
187	7
188	2
189	79
190	29
191	44
192	8
193	2
196	3
197	1
198	2
199	1
200	2
201	109
202	23
203	24
204	122
205	415
206	89
207	42
208	3
209	3
210	8
211	1
212	2
213	1
214	6
215	7
216	18
217	284
218	53
219	12
220	4
221	24
222	6
223	3
225	1
226	2
227	1
228	6
229	53
230	15
231	30
232	6
233	7
234	7
235	1
237	2
238	1
239	1
242	3
243	10
244	4
245	5
246	10
247	3
248	3
249	1
252	1
254	2
255	1
256	2
257	1
258	2
259	3
260	4
261	2
262	8
263	2
264	1
268	5
269	2
270	2
271	2
273	1
274	7
275	2
276	1
277	9
278	5
279	1
280	2
290	1
291	21
292	5
293	1
300	2
302	4
303	1
304	2
305	18
306	5
307	13
308	3
314	1
316	1
317	1
318	13
319	308
320	66
321	29
322	3
323	3
329	1
331	1
332	3
333	3
342	3
343	1
344	9
345	5
359	2
360	1
362	1
364	9
366	1
374	3
376	4
377	1
390	1
432	1
435	1
466	1
