Mass spectrum: 2'-Deoxyadenosine; GC-EI-TOF; MS; 3 TMS; BP:207
Name: 2'-Deoxyadenosine
Class: Natural Product
Formula: C10H13N5O3
Exact mass: 251.10184
SMILES: OC[C@@H](O1)[C@@H](O)C[C@@H]1n(c3)c(n2)c(n3)c(N)nc2
InChI: InChI=1S/C10H13N5O3/c11-9-8-10(13-3-12-9)15(4-14-8)7-1-5(17)6(2-16)18-7/h3-7,16-17H,1-2H2,(H2,11,12,13)/t5-,6+,7+/m0/s1
Instrument: Pegasus III TOF-MS system, Leco; GC 6890, Agilent Technologies
Instrument type: GC-EI-TOF
Ms type: MS
Ion mode: POSITIVE
Column name: DB-17MS
Retention time: 1208.06 sec
Base peak: 207
Derivative type: 3 TMS
m/z	relative intensity
82	48
83	35
84	171
85	112
86	35
87	32
88	16
89	41
90	6
91	5
92	13
93	13
94	10
95	25
96	34
97	24
98	20
99	100
100	35
101	148
102	22
103	804
104	80
105	42
106	8
107	12
108	29
109	37
110	34
111	117
112	20
113	49
114	9
115	28
116	25
117	153
118	21
119	33
120	10
121	9
122	11
123	21
124	12
125	27
126	8
127	34
128	8
129	82
130	16
131	40
132	11
133	94
134	19
135	42
136	20
137	28
138	32
139	7
140	4
141	9
142	35
143	40
144	8
145	67
146	12
147	145
148	28
149	29
150	18
151	19
152	9
153	5
154	3
155	124
156	22
157	27
158	7
159	6
160	3
161	10
162	33
163	12
164	77
165	178
166	43
167	13
168	4
169	87
170	90
171	45
172	10
173	6
174	8
175	10
176	35
177	18
178	13
179	10
180	88
181	25
182	8
183	2
184	2
185	2
186	1
187	2
188	6
189	42
190	29
191	46
192	998
193	163
194	49
195	8
196	4
197	3
198	4
199	3
200	4
201	4
202	9
203	7
204	11
205	14
206	110
207	999
208	633
209	127
210	29
211	5
212	1
213	1
214	1
215	7
216	3
217	70
218	131
219	45
220	19
221	11
222	6
223	3
224	2
225	1
226	1
228	1
229	1
230	2
231	5
232	9
233	13
234	54
235	19
236	337
237	112
238	27
239	6
240	1
242	1
243	2
244	2
245	8
246	8
247	3
248	2
249	4
250	3
251	1
259	3
260	4
261	2
262	5
263	2
264	21
265	6
266	6
267	1
272	1
274	2
275	1
276	1
278	3
279	10
280	16
281	4
282	3
287	2
288	2
290	1
291	1
292	1
294	1
296	1
304	1
305	1
306	4
307	2
308	2
309	1
321	1
322	3
323	1
333	1
334	6
335	5
336	2
348	4
349	8
350	6
351	5
352	1
359	1
361	1
362	5
363	2
364	5
365	1
376	1
377	5
378	2
451	3
452	12
453	6
454	2
466	6
467	24
468	10
469	5
470	1
