Mass spectrum: N-Acetyl-D-glucosamine; GC-EI-TOF; MS; 4 TMS; BP:147
Name: N-Acetyl-D-glucosamine
Class: Natural Product
Formula: C8H15NO6
Exact mass: 221.08994
SMILES: OC[C@@H](O1)[C@@H](O)[C@H](O)[C@@H](NC(C)=O)C(O)1
InChI: InChI=1S/C8H15NO6/c1-3(11)9-5-7(13)6(12)4(2-10)15-8(5)14/h4-8,10,12-14H,2H2,1H3,(H,9,11)/t4-,5-,6-,7-,8?/m1/s1
Instrument: Pegasus III TOF-MS system, Leco; GC 6890, Agilent Technologies
Instrument type: GC-EI-TOF
Ms type: MS
Ion mode: POSITIVE
Column name: DB-17MS
Retention time: 931.312 sec
Base peak: 147
Derivative type: 4 TMS
m/z	relative intensity
82	30
83	63
84	30
85	26
86	39
87	88
88	22
89	268
90	25
91	14
92	3
93	4
94	5
95	12
96	20
97	14
98	14
99	32
100	79
101	102
102	54
103	410
104	42
105	51
106	8
107	5
108	4
109	9
110	7
111	15
112	20
113	53
114	65
115	40
116	111
117	399
118	47
119	36
120	6
121	4
122	3
123	4
124	3
125	7
126	14
127	30
128	24
129	443
130	74
131	107
132	28
133	180
134	27
135	17
136	2
137	7
138	4
139	6
140	9
141	20
142	24
143	49
144	38
145	15
146	6
147	999
148	163
149	101
150	12
151	7
152	7
153	12
154	17
155	19
156	32
157	244
158	54
159	183
160	29
161	13
162	7
163	20
164	4
165	4
166	4
167	9
168	14
169	29
170	24
171	50
172	19
173	58
174	14
175	14
176	4
177	7
178	3
179	5
180	4
181	7
182	7
183	14
184	6
185	10
186	17
187	7
188	8
189	54
190	20
191	59
192	12
193	7
194	3
195	9
196	6
197	4
198	4
199	6
200	6
201	241
202	125
203	37
204	86
205	526
206	106
207	55
208	8
209	4
210	7
211	4
212	4
213	33
214	12
215	9
216	9
217	138
218	31
219	15
220	4
221	17
222	5
223	3
224	2
225	2
226	2
227	9
228	6
229	74
230	39
231	26
232	10
233	4
234	2
235	2
236	1
237	3
238	2
239	2
240	3
241	4
242	8
243	32
244	16
245	17
246	18
247	6
248	2
249	1
250	1
251	2
252	1
253	1
254	2
255	5
256	4
257	6
258	11
259	5
260	5
261	1
262	1
263	1
265	2
267	1
268	3
269	5
270	5
271	4
272	3
273	3
274	20
275	8
276	4
277	10
278	4
279	2
281	1
282	1
283	1
284	5
285	11
286	5
287	2
288	1
290	2
291	14
292	4
293	3
294	1
295	1
297	1
299	1
300	3
301	2
302	2
303	11
304	4
305	11
306	4
307	5
308	1
309	2
310	3
311	1
314	3
315	38
316	11
317	5
318	20
319	315
320	98
321	47
322	10
323	2
327	1
328	1
331	1
332	3
333	5
334	2
341	1
342	1
343	1
344	1
345	3
346	1
347	1
358	1
359	1
360	1
361	1
372	1
373	1
374	2
375	1
376	1
384	1
385	1
399	3
400	1
401	1
405	2
406	1
417	1
431	1
432	1
433	1
448	1
488	1
489	5
490	3
491	2
492	1
