Mass spectrum: L-Tyrosine; GC-EI-TOF; MS; 3 TMS; BP:218
Name: L-Tyrosine
Class: Natural Product
Formula: C9H11NO3
Exact mass: 181.07389
SMILES: OC(=O)C(N)Cc(c1)ccc(O)c1
InChI: InChI=1S/C9H11NO3/c10-8(9(12)13)5-6-1-3-7(11)4-2-6/h1-4,8,11H,5,10H2,(H,12,13)/t8-/m0/s1
Instrument: Pegasus III TOF-MS system, Leco; GC 6890, Agilent Technologies
Instrument type: GC-EI-TOF
Ms type: MS
Ion mode: POSITIVE
Column name: DB-17MS
Retention time: 1741.02 sec
Base peak: 218
Derivative type: 3 TMS
m/z	relative intensity
82	4
83	4
84	11
85	6
86	20
87	7
88	2
89	19
90	14
91	37
92	4
93	2
95	4
96	1
97	1
98	2
99	3
100	378
101	52
102	22
103	24
104	8
105	19
106	3
107	5
108	1
109	2
110	1
113	1
114	1
115	16
116	7
117	21
118	14
119	12
120	2
121	5
122	1
123	2
128	2
129	2
130	35
131	28
132	40
133	41
134	10
135	19
136	3
137	2
142	1
143	1
144	4
145	7
146	11
147	172
148	33
149	41
150	7
151	7
152	1
157	1
158	4
159	6
160	11
161	7
162	5
163	33
164	11
165	15
166	3
167	1
172	2
173	1
174	10
175	8
176	10
177	9
178	3
179	84
180	20
181	6
182	2
188	2
189	1
190	7
191	3
192	19
193	6
194	1
195	1
202	1
203	8
204	2
205	2
206	2
207	12
208	3
209	3
216	1
217	5
218	999
219	178
220	74
221	11
222	2
223	3
224	1
234	1
237	1
248	2
249	1
250	2
251	1
264	3
265	11
266	4
267	2
278	2
279	9
280	80
281	22
282	8
283	1
291	1
292	3
293	1
353	4
354	21
355	10
356	5
357	1
381	2
382	8
383	3
384	1
