Mass spectrum: GABA; GC-EI-TOF; MS; 3 TMS; BP:174
Name: 4-Aminobutyric acid
Name: GABA
Class: Natural Product
Formula: C4H9NO2
Exact mass: 103.06333
SMILES: NCCCC(O)=O
InChI: InChI=1S/C4H9NO2/c5-3-1-2-4(6)7/h1-3,5H2,(H,6,7)
Instrument: Pegasus III TOF-MS system, Leco; GC 6890, Agilent Technologies
Instrument type: GC-EI-TOF
Ms type: MS
Ion mode: POSITIVE
Column name: DB-17MS
Retention time: 720.512 sec
Base peak: 174
Derivative type: 3 TMS
m/z	relative intensity
82	4
83	4
84	16
85	21
86	257
87	31
88	11
89	6
96	1
97	3
98	12
99	19
100	134
101	27
102	23
103	10
104	2
105	3
110	1
111	1
112	11
113	10
114	20
115	16
116	17
117	25
118	5
119	7
120	1
124	1
125	1
126	3
127	1
128	9
129	11
130	44
131	38
132	12
133	53
134	8
135	4
139	1
140	17
141	3
142	76
143	79
144	23
145	10
146	30
147	413
148	62
149	30
150	3
151	1
154	1
156	16
157	6
158	9
159	2
160	2
161	1
170	3
171	1
172	39
173	9
174	999
175	178
176	72
177	8
178	1
186	3
187	2
188	2
189	1
198	1
200	3
201	1
204	2
205	1
214	14
215	3
216	60
217	11
218	5
219	4
220	1
221	1
230	5
231	1
232	1
246	25
247	5
248	2
288	1
303	2
304	153
305	44
306	20
307	3
