Mass spectrum: 3-Methyladenine; GC-EI-TOF; MS; 1 TMS; BP:206
Name: 3-Methyladenine
Class: Natural Product
Formula: C6H7N5
Exact mass: 149.07015
SMILES: CN(C=1)C(=N2)C(N=C2)=C(N)N1
InChI: InChI=1S/C6H7N5/c1-11-3-10-5(7)4-6(11)9-2-8-4/h2-3H,7H2,1H3
Instrument: Pegasus III TOF-MS system, Leco; GC 6890, Agilent Technologies
Instrument type: GC-EI-TOF
Ms type: MS
Ion mode: POSITIVE
Column name: DB-17MS
Retention time: 1103.29 sec
Base peak: 206
Derivative type: 1 TMS
m/z	relative intensity
82	17
83	21
84	237
85	75
86	28
87	6
88	11
89	2
91	3
92	11
93	23
94	110
95	55
96	38
97	17
98	24
99	61
100	20
101	6
102	1
103	31
104	1
105	1
106	6
107	14
108	13
109	13
110	14
111	172
112	21
113	22
114	5
115	6
119	8
120	6
121	69
122	105
123	25
124	15
125	29
126	6
127	3
132	1
133	5
134	10
135	14
136	22
137	13
138	73
139	10
140	4
147	5
148	14
149	56
150	17
151	24
152	73
153	12
154	4
155	1
160	2
161	5
162	10
163	8
164	15
165	23
166	8
167	3
168	1
174	3
175	5
176	124
177	24
178	21
179	289
180	52
181	14
182	1
187	1
188	1
189	9
190	30
191	13
192	5
193	11
194	17
195	4
196	1
197	1
199	1
203	1
204	13
205	123
206	999
207	169
208	47
209	5
212	1
213	1
214	1
215	1
216	1
219	1
220	51
221	356
222	60
223	16
224	2
