Mass spectrum: Ketoleucine; GC-EI-TOF; MS; 3 TMS; BP:89
Name: 4-Methyl-2-oxovaleric acid
Name: Ketoleucine
Class: Natural Product
Formula: C6H10O3
Exact mass: 130.06299
SMILES: CC(C)CC(=O)C(O)=O
InChI: InChI=1S/C6H10O3/c1-4(2)3-5(7)6(8)9/h4H,3H2,1-2H3,(H,8,9)
Instrument: Pegasus III TOF-MS system, Leco; GC 6890, Agilent Technologies
Instrument type: GC-EI-TOF
Ms type: MS
Ion mode: POSITIVE
Column name: DB-17MS
Retention time: 558.913 sec
Base peak: 89
Derivative type: 3 TMS
m/z	relative intensity
82	304
83	38
84	90
85	12
86	13
87	6
88	9
89	999
90	88
91	52
92	3
93	2
94	2
95	2
96	2
97	3
98	28
99	338
100	53
101	8
102	3
103	22
104	4
105	5
106	1
109	1
110	230
111	19
112	4
113	11
114	106
115	63
116	36
117	14
118	5
119	1
126	4
128	5
129	2
130	4
131	2
133	1
138	1
140	9
141	2
142	3
143	7
144	11
145	1
146	1
154	9
155	2
156	6
157	2
158	35
159	7
160	3
161	3
162	1
166	1
170	1
172	3
173	2
174	1
182	7
183	6
184	3
189	190
190	26
191	9
192	1
200	128
201	21
202	6
216	16
217	4
218	1
