Mass spectrum: O-Acetyl-L-serine; GC-EI-TOF; MS; 2 TMS; BP:174
Name: O-Acetyl-L-serine
Class: Natural Product
Formula: C5H9NO4
Exact mass: 147.05316
SMILES: CC(=O)OC[C@H](N)C(O)=O
InChI: InChI=1S/C5H9NO4/c1-3(7)10-2-4(6)5(8)9/h4H,2,6H2,1H3,(H,8,9)/t4-/m0/s1
Instrument: Pegasus III TOF-MS system, Leco; GC 6890, Agilent Technologies
Instrument type: GC-EI-TOF
Ms type: MS
Ion mode: POSITIVE
Column name: DB-17MS
Retention time: 681.743 sec
Base peak: 174
Derivative type: 2 TMS
m/z	relative intensity
82	4
83	8
84	197
85	27
86	49
87	16
88	47
89	27
90	5
91	7
92	1
96	1
97	2
98	12
99	13
100	311
101	57
102	67
103	53
104	8
105	10
106	1
110	1
111	2
112	2
113	4
114	69
115	43
116	701
117	199
118	52
119	15
120	2
121	1
123	1
124	1
125	1
126	1
128	6
129	10
130	41
131	56
132	703
133	171
134	48
135	11
136	2
140	2
141	1
142	12
143	5
144	89
145	12
146	15
147	309
148	50
149	36
150	3
151	2
156	11
157	7
158	45
159	15
160	8
161	2
162	1
163	6
164	2
165	1
172	28
173	8
174	999
175	166
176	55
177	4
184	2
186	18
187	3
188	46
189	11
190	8
191	3
192	1
200	3
202	1
203	9
204	2
205	1
206	3
207	1
216	113
217	27
218	173
219	35
220	17
221	2
231	14
232	9
233	1
234	5
235	1
248	11
249	4
276	6
277	1
