Mass spectrum: D-(-)-Ribose; GC-EI-TOF; MS; 4 TMS; BP:103
Name: D-(-)-Ribose
Class: Natural Product
Formula: C5H10O5
Exact mass: 150.05282
SMILES: OC[C@@H](O1)[C@@H](O)[C@@H](O)C(O)1
InChI: InChI=1S/C5H10O5/c6-1-2-3(7)4(8)5(9)10-2/h2-9H,1H2/t2-,3-,4-,5?/m1/s1
Instrument: Pegasus III TOF-MS system, Leco; GC 6890, Agilent Technologies
Instrument type: GC-EI-TOF
Ms type: MS
Ion mode: POSITIVE
Column name: DB-17MS
Retention time: 760.594 sec
Base peak: 103
Derivative type: 4 TMS
m/z	relative intensity
82	4
84	3
85	5
86	7
87	6
88	3
89	92
90	8
91	4
94	1
98	2
99	3
100	38
101	15
102	19
103	999
104	109
105	75
106	5
107	1
111	1
112	3
113	4
114	15
115	10
116	5
117	42
118	5
119	11
120	1
126	5
127	4
128	5
129	9
131	22
132	5
133	67
134	10
135	6
140	2
141	1
142	6
143	13
144	3
145	12
147	176
148	34
149	20
150	1
156	1
158	9
159	3
160	96
161	26
162	6
163	16
164	2
165	1
168	5
169	1
170	1
172	4
173	7
174	12
175	7
176	1
177	1
184	1
186	1
187	1
188	3
189	99
190	22
191	24
192	4
193	2
198	3
200	3
201	4
202	1
204	4
205	2
214	4
215	2
216	10
217	324
218	65
219	36
220	5
221	4
228	2
230	1
231	9
232	6
233	39
234	14
235	6
240	4
241	1
242	3
246	2
248	3
249	1
256	4
257	3
258	1
262	12
263	3
264	1
272	2
274	5
275	1
276	1
277	30
278	11
279	6
280	1
288	1
305	1
306	3
307	171
308	56
309	31
310	7
311	1
316	1
330	1
331	1
362	2
