Mass spectrum: O-Phospho-L-serine; GC-EI-TOF; MS; x TMS; BP:211
Name: O-Phospho-L-serine
Class: Natural Product
Formula: C3H8NO6P
Exact mass: 185.00892
SMILES: N[C@@H](COP(O)(O)=O)C(O)=O
InChI: InChI=1S/C3H8NO6P/c4-2(3(5)6)1-10-11(7,8)9/h2H,1,4H2,(H,5,6)(H2,7,8,9)/t2-/m0/s1
Instrument: Pegasus III TOF-MS system, Leco; GC 6890, Agilent Technologies
Instrument type: GC-EI-TOF
Ms type: MS
Ion mode: POSITIVE
Column name: DB-17MS
Retention time: 866.262 sec
Base peak: 211
Derivative type: x TMS
m/z	relative intensity
82	4
83	24
84	39
85	32
86	44
87	53
88	88
89	63
90	13
91	33
92	8
93	21
94	3
95	7
96	5
97	4
98	41
99	27
100	206
101	35
102	36
103	88
104	18
105	38
106	13
107	28
108	4
109	12
110	2
111	4
112	7
113	20
114	70
115	114
116	703
117	122
118	38
119	57
120	9
121	51
122	7
123	25
124	2
125	4
126	2
127	3
128	16
129	41
130	27
131	79
132	33
133	537
134	78
135	172
136	21
137	78
138	9
139	13
140	3
141	2
142	5
143	15
144	322
145	41
146	25
147	235
148	39
149	38
150	7
151	33
152	5
153	18
154	3
155	35
156	5
157	2
158	13
159	58
160	212
161	29
162	10
163	17
164	4
165	17
166	4
167	22
168	4
169	4
170	1
171	2
172	9
173	3
174	3
175	2
176	2
177	9
178	21
179	21
180	7
181	119
182	20
183	54
184	12
185	6
186	1
187	2
188	33
189	14
190	6
191	31
192	8
193	43
194	35
195	115
196	25
197	39
198	7
199	5
200	2
201	7
202	2
203	3
204	2
205	6
206	3
207	52
208	13
209	13
210	20
211	999
212	176
213	99
214	14
215	4
216	53
217	21
218	23
219	8
220	5
221	7
222	4
223	5
224	2
225	72
226	18
227	335
228	58
229	35
230	5
231	4
232	21
233	5
234	3
235	1
236	6
237	3
238	2
239	2
240	6
241	216
242	46
243	367
244	80
245	35
246	6
247	2
249	1
250	1
251	1
252	16
253	7
254	3
255	7
256	75
257	14
258	7
259	1
260	1
261	1
262	1
267	2
268	11
269	8
270	3
271	2
272	1
273	3
274	1
275	1
282	1
283	30
284	664
285	146
286	65
287	10
288	2
295	2
296	3
297	2
298	21
299	480
300	121
301	65
302	12
303	4
313	2
314	18
315	33
316	10
317	6
318	1
326	1
328	5
342	2
355	6
356	62
357	19
358	9
359	2
369	2
370	1
385	1
386	1
