Mass spectrum: L-Histidine; GC-EI-TOF; MS; 3 TMS; BP:154
Name: L-Histidine
Class: Natural Product
Formula: C6H9N3O2
Exact mass: 155.06948
SMILES: C1=C(NC=N1)C[C@@H](C(=O)O)N
InChI: InChI=1S/C6H9N3O2/c7-5(6(10)11)1-4-2-8-3-9-4/h2-3,5H,1,7H2,(H,8,9)(H,10,11)/t5-/m0/s1
Instrument: Pegasus III TOF-MS system, Leco; GC 6890, Agilent Technologies
Instrument type: GC-EI-TOF
Ms type: MS
Ion mode: POSITIVE
Column name: DB-17MS
Retention time: 959.562 sec
Base peak: 154
Derivative type: 3 TMS
m/z	relative intensity
82	41
83	18
84	23
85	12
86	10
87	3
88	1
89	1
92	1
93	3
94	1
95	2
96	4
97	3
98	10
99	3
100	70
101	13
102	6
103	5
105	1
108	1
109	2
110	7
111	5
112	14
113	3
114	1
115	3
116	2
117	5
118	1
119	2
120	1
121	1
123	1
124	2
125	3
126	10
127	2
128	3
129	1
130	7
131	8
132	12
133	8
134	2
135	1
136	1
137	1
138	1
139	4
140	1
141	1
144	1
146	1
147	40
148	7
149	4
150	3
151	3
152	1
153	35
154	999
155	218
156	51
157	7
158	2
159	2
160	2
163	2
165	1
166	16
167	6
168	2
172	1
174	2
180	1
181	1
182	9
183	4
184	2
194	1
202	1
203	2
211	2
213	1
218	35
219	7
220	3
225	2
226	10
227	3
228	1
237	1
238	27
239	8
240	4
241	1
252	1
253	2
254	158
255	39
256	15
257	9
258	2
266	6
267	2
268	1
328	3
329	2
330	1
338	1
355	1
356	10
357	3
358	1
371	3
372	1
