Mass spectrum: D-(-)-Mannitol; GC-EI-TOF; MS; 6 TMS; BP:147
Name: D-(-)-Mannitol
Class: Natural Product
Formula: C6H14O6
Exact mass: 182.07904
SMILES: OCC([H])(O)C([H])(O)C([H])(O)C([H])(O)CO
InChI: InChI=1S/C6H14O6/c7-1-3(9)5(11)6(12)4(10)2-8/h3-12H,1-2H2/t3-,4-,5-,6-/m1/s1
Instrument: Pegasus III TOF-MS system, Leco; GC 6890, Agilent Technologies
Instrument type: GC-EI-TOF
Ms type: MS
Ion mode: POSITIVE
Column name: DB-17MS
Retention time: 837.563 sec
Base peak: 147
Derivative type: 6 TMS
m/z	relative intensity
82	1
83	37
84	6
85	13
86	4
87	25
88	18
89	104
90	10
91	5
92	1
93	1
94	1
95	2
96	1
97	17
98	2
99	14
100	2
101	85
102	17
103	670
104	67
105	34
106	2
107	1
108	1
109	1
111	10
112	2
113	17
114	3
115	20
116	24
117	355
118	37
119	30
120	3
121	2
125	2
126	1
127	8
128	2
129	261
130	34
131	88
132	14
133	168
134	24
135	15
136	1
137	1
139	1
140	1
141	6
142	4
143	39
144	5
145	10
146	3
147	999
148	165
149	101
150	11
151	5
152	1
153	2
154	1
155	10
156	3
157	166
158	22
159	13
160	2
161	7
162	1
163	13
164	2
165	1
167	2
168	1
169	8
170	2
171	1
172	1
173	3
174	1
175	17
176	3
177	8
178	1
179	1
180	1
181	1
182	1
183	16
184	3
185	2
186	1
187	2
188	1
189	84
190	22
191	64
192	12
193	6
194	1
201	5
202	2
203	12
204	101
205	458
206	94
207	50
208	8
209	2
215	4
216	2
217	384
218	85
219	38
220	6
221	26
222	6
223	3
224	1
229	47
230	16
231	31
232	7
233	3
234	1
237	1
239	2
243	4
244	1
245	1
246	1
247	2
248	1
249	1
255	15
256	4
257	5
258	1
259	8
260	2
261	1
263	1
265	4
266	1
273	1
277	17
278	9
279	4
280	1
290	1
291	17
292	5
293	3
304	1
305	16
306	10
307	48
308	15
309	7
310	1
317	1
318	12
319	304
320	95
321	46
322	10
323	2
329	1
330	1
331	15
332	4
333	2
344	1
345	13
346	4
347	2
419	4
420	3
421	7
422	3
423	1
