Mass spectrum: L-Tryptophan; GC-EI-TOF; MS; 3 TMS; BP:202
Name: L-Tryptophan
Class: Natural Product
Formula: C11H12N2O2
Exact mass: 204.08988
SMILES: C1=CC=C2C(=C1)C(=CN2)C[C@@H](C(=O)O)N
InChI: InChI=1S/C11H12N2O2/c12-9(11(14)15)5-7-6-13-10-4-2-1-3-8(7)10/h1-4,6,9,13H,5,12H2,(H,14,15)/t9-/m0/s1
Instrument: Pegasus III TOF-MS system, Leco; GC 6890, Agilent Technologies
Instrument type: GC-EI-TOF
Ms type: MS
Ion mode: POSITIVE
Column name: DB-17MS
Retention time: 1073.36 sec
Base peak: 202
Derivative type: 3 TMS
m/z	relative intensity
86	3
87	1
100	40
101	19
102	2
105	2
115	4
117	1
118	1
119	2
120	1
130	19
131	9
132	15
133	9
134	4
135	1
142	1
143	1
144	4
145	9
146	4
147	17
148	6
149	3
156	3
157	1
158	2
159	3
160	4
161	2
163	1
169	1
170	3
171	2
172	3
173	1
184	2
185	2
186	6
187	3
188	2
190	5
191	1
198	1
199	4
200	25
201	11
202	999
203	265
204	84
205	14
206	2
214	2
215	1
216	1
218	43
219	12
220	6
221	1
230	7
231	2
232	1
246	1
248	1
249	1
288	1
290	1
291	63
292	30
293	18
294	4
295	1
302	1
303	7
304	2
305	1
377	2
378	2
379	1
405	3
406	1
407	1
