Mass spectrum: L-Glutamine; GC-EI-TOF; MS; 3 TMS; BP:156
Name: L-Glutamine
Class: Natural Product
Formula: C5H10N2O3
Exact mass: 146.06914
SMILES: NC(=O)CC[C@H](N)C(O)=O
InChI: InChI=1S/C5H10N2O3/c6-3(5(9)10)1-2-4(7)8/h3H,1-2,6H2,(H2,7,8)(H,9,10)/t3-/m0/s1
Instrument: Pegasus III TOF-MS system, Leco; GC 6890, Agilent Technologies
Instrument type: GC-EI-TOF
Ms type: MS
Ion mode: POSITIVE
Column name: DB-17MS
Retention time: 873.763 sec
Base peak: 156
Derivative type: 3 TMS
m/z	relative intensity
82	10
83	75
84	47
85	17
86	22
87	10
88	4
89	8
90	9
91	3
92	2
93	2
94	2
95	2
96	3
97	3
98	16
99	8
100	95
101	22
102	16
103	20
104	3
105	4
106	1
107	1
108	1
110	4
111	3
112	26
113	17
114	67
115	54
116	51
117	22
118	6
119	7
120	1
121	1
124	1
125	1
126	24
127	6
128	106
129	31
130	35
131	88
132	32
133	57
134	10
135	6
136	1
137	1
138	1
139	62
140	25
141	8
142	27
143	5
144	10
145	46
146	12
147	216
148	43
149	44
150	7
151	3
152	1
153	4
154	8
155	411
156	999
157	160
158	50
159	7
160	3
161	2
162	2
163	2
167	4
168	2
169	1
170	1
171	2
172	9
173	9
174	5
175	1
176	1
182	1
183	3
184	1
185	2
186	1
187	1
188	16
189	5
190	3
191	1
198	1
200	3
201	1
202	4
203	63
204	17
205	7
206	1
211	4
212	2
213	4
214	4
215	2
216	10
217	6
218	24
219	7
220	3
221	5
222	1
227	13
228	7
229	32
230	20
231	6
232	13
233	2
234	1
239	1
240	1
241	1
243	2
244	7
245	124
246	28
247	11
248	2
257	8
258	4
259	1
272	4
273	10
274	2
275	1
301	9
302	4
303	2
304	1
344	1
346	2
347	19
348	6
349	2
362	5
363	1
