Mass spectrum: Quinolinic acid; GC-EI-TOF; MS; 2 TMS; BP:147
Name: Quinolinic acid
Class: Natural Product
Formula: C7H5NO4
Exact mass: 167.02186
SMILES: OC(=O)c(c1)c(ncc1)C(O)=O
InChI: InChI=1S/C7H5NO4/c9-6(10)4-2-1-3-8-5(4)7(11)12/h1-3H,(H,9,10)(H,11,12)
Instrument: Pegasus III TOF-MS system, Leco; GC 6890, Agilent Technologies
Instrument type: GC-EI-TOF
Ms type: MS
Ion mode: POSITIVE
Column name: DB-17MS
Retention time: 881.575 sec
Base peak: 147
Derivative type: 2 TMS
m/z	relative intensity
82	6
83	10
84	15
85	6
86	4
87	8
88	2
89	6
90	5
91	26
92	50
93	36
94	15
95	8
96	4
97	6
98	2
99	2
100	2
101	3
102	6
103	17
104	16
105	40
106	45
107	31
108	32
109	24
110	10
111	4
112	1
113	2
115	14
116	4
117	14
118	16
119	24
120	85
121	12
122	11
123	8
124	4
125	1
126	1
127	1
128	1
129	1
130	2
131	31
132	12
133	49
134	22
135	23
136	37
137	7
138	3
141	9
142	1
143	1
144	1
146	2
147	999
148	196
149	121
150	40
151	9
152	10
153	2
154	1
157	1
158	1
160	2
162	15
163	3
164	31
165	42
166	13
167	6
168	2
169	1
176	3
177	1
178	13
179	9
180	8
181	3
182	3
183	1
184	1
192	1
193	15
194	185
195	35
196	14
197	2
204	2
206	1
208	7
209	2
210	5
211	1
220	1
221	4
222	6
223	5
224	9
225	2
226	1
234	3
236	3
237	1
238	4
239	2
240	1
250	1
251	1
252	14
253	5
254	2
266	20
267	7
268	8
269	2
296	178
297	50
298	22
299	4
