Mass spectrum: L-Glutathione (oxidized form); GC-EI-TOF; MS; x TMS; BP:156
Name: Glutathione disulfide
Name: L-Glutathione (oxidized form)
Class: Natural Product
Formula: C20H32N6O12S2
Exact mass: 612.15196
SMILES: OC(=O)CNC(=O)[C@H](CSSC[C@H](NC(=O)CC[C@H](N)C(O)=O)C(=O)NCC(O)=O)NC(=O)CC[C@H](N)C(O)=O
InChI: InChI=1S/C20H32N6O12S2/c21-9(19(35)36)1-3-13(27)25-11(17(33)23-5-15(29)30)7-39-40-8-12(18(34)24-6-16(31)32)26-14(28)4-2-10(22)20(37)38/h9-12H,1-8,21-22H2,(H,23,33)(H,24,34)(H,25,27)(H,26,28)(H,29,30)(H,31,32)(H,35,36)(H,37,38)/t9-,10-,11-,12-/m0/s1
Instrument: Pegasus III TOF-MS system, Leco; GC 6890, Agilent Technologies
Instrument type: GC-EI-TOF
Ms type: MS
Ion mode: POSITIVE
Column name: DB-17MS
Retention time: 786.462 sec
Base peak: 156
Derivative type: x TMS
m/z	relative intensity
82	8
83	7
84	39
85	21
86	27
87	9
88	3
89	15
90	2
92	1
93	2
94	2
95	1
96	4
97	4
98	9
99	30
100	22
101	5
102	6
103	9
104	2
105	9
106	1
107	1
108	2
109	1
110	7
111	4
112	30
113	10
114	16
115	10
116	3
117	13
118	3
119	4
120	1
121	1
122	4
123	1
124	2
125	2
126	6
127	3
128	4
129	4
130	2
131	21
132	6
133	37
134	6
135	4
136	1
137	1
139	2
140	34
141	10
142	9
143	2
144	2
145	1
146	1
147	207
148	33
149	21
150	2
151	1
152	1
153	1
154	10
155	7
156	999
157	137
158	49
159	6
160	2
161	1
162	1
163	1
164	1
165	1
166	1
167	1
168	3
169	1
170	3
171	3
172	3
173	1
174	4
175	1
176	1
178	1
182	1
183	1
184	1
185	1
186	2
187	1
188	1
189	1
190	2
191	1
194	1
195	1
196	1
197	1
198	1
200	1
202	1
203	3
204	1
205	1
207	1
208	1
209	1
210	1
212	1
213	1
214	10
215	3
216	1
219	1
220	1
221	1
222	1
224	1
226	1
227	1
228	4
229	2
230	63
231	13
232	7
233	2
234	1
235	1
236	1
240	1
241	1
242	1
243	1
244	1
245	1
246	1
247	1
248	1
249	1
252	1
256	1
257	1
258	49
259	11
260	5
261	1
262	1
264	1
265	1
266	1
269	1
270	1
271	1
272	1
273	2
274	1
275	1
277	1
285	1
289	1
291	1
297	1
302	1
305	1
306	1
307	1
308	1
309	1
311	1
314	1
315	1
317	1
318	1
319	1
320	1
322	1
323	1
324	1
326	1
328	1
335	1
338	1
340	1
341	1
342	1
344	1
345	1
346	1
347	1
348	1
349	1
350	1
351	1
352	1
353	1
354	1
357	1
358	1
359	1
360	1
362	1
363	1
364	1
366	1
369	1
370	1
371	1
372	1
374	1
375	1
378	1
379	1
381	1
382	1
385	1
386	1
387	1
388	1
389	1
390	1
391	1
392	1
393	1
394	1
395	1
396	1
397	1
398	1
399	1
400	1
404	1
412	1
415	1
417	1
419	1
420	1
429	1
435	1
444	1
448	1
452	1
454	1
458	1
463	1
472	1
480	1
482	1
485	1
494	1
495	1
497	1
500	1
