Mass spectrum: D-(+)-Trehalose; GC-EI-TOF; MS; 8 TMS; BP:73
Name: D-(+)-Trehalose
Class: Natural Product
Formula: C12H22O11
Exact mass: 342.11621
SMILES: OC[C@@H](O1)[C@@H](O)[C@H](O)[C@@H](O)[C@H]1O[C@@H](O2)[C@H](O)[C@@H](O)[C@H](O)[C@@H](CO)2
InChI: InChI=1S/C12H22O11/c13-1-3-5(15)7(17)9(19)11(21-3)23-12-10(20)8(18)6(16)4(2-14)22-12/h3-20H,1-2H2/t3-,4-,5-,6-,7+,8+,9-,10-,11-,12-/m1/s1
Instrument: Pegasus III TOF-MS system, Leco; GC 6890, Agilent Technologies
Instrument type: GC-EI-TOF
Ms type: MS
Ion mode: POSITIVE
Column name: DB-17MS
Retention time: 2388.27 sec
Base peak: 73
Derivative type: 8 TMS
m/z	relative intensity
38	1
39	5
41	8
42	7
43	39
44	14
45	91
46	5
47	12
49	1
51	2
52	4
53	9
54	6
55	21
56	5
57	6
58	10
59	26
60	3
61	5
65	1
66	6
67	3
68	1
69	19
70	3
71	4
72	13
73	999
74	85
75	80
76	5
77	9
79	1
81	18
82	1
83	4
84	1
85	5
87	4
88	1
89	10
90	1
91	1
95	1
97	2
99	4
101	12
102	2
103	115
104	11
105	5
109	6
111	3
113	6
114	1
115	4
116	6
117	32
118	2
119	3
125	1
127	3
129	82
130	9
131	18
132	3
133	27
134	3
135	2
139	2
141	2
142	3
143	11
144	1
145	3
147	143
148	23
149	18
150	2
151	1
153	2
155	14
156	2
157	10
158	1
159	2
161	1
163	2
169	46
170	8
171	4
173	3
175	2
177	2
183	3
185	1
187	1
189	18
190	5
191	141
192	25
193	11
194	1
199	1
201	1
202	1
203	7
204	42
205	16
206	5
207	3
215	2
216	3
217	76
218	19
219	9
220	1
221	5
222	1
227	2
229	5
230	3
231	5
232	1
233	3
234	1
241	2
242	2
243	21
244	6
245	5
246	1
247	1
255	1
257	2
259	1
263	1
265	1
270	2
271	19
272	5
273	3
279	1
290	2
291	3
292	1
304	1
305	3
306	1
317	1
318	2
319	5
320	3
321	1
330	2
331	5
332	5
333	2
345	1
360	30
361	136
362	41
363	19
364	3
365	1
377	1
