Mass spectrum: Sucrose; GC-EI-TOF; MS; 8 TMS; BP:103
Name: Sucrose
Class: Natural Product
Formula: C12H22O11
Exact mass: 342.11621
SMILES: OC[C@@H](O1)[C@@H](O)[C@H](O)[C@@H](O)[C@H]1O[C@](CO)(O2)[C@@H](O)[C@H](O)[C@@H](CO)2
InChI: InChI=1S/C12H22O11/c13-1-4-6(16)8(18)9(19)11(21-4)23-12(3-15)10(20)7(17)5(2-14)22-12/h4-11,13-20H,1-3H2/t4-,5-,6-,7-,8+,9-,10+,11-,12+/m1/s1
Instrument: Pegasus III TOF-MS system, Leco; GC 6890, Agilent Technologies
Instrument type: GC-EI-TOF
Ms type: MS
Ion mode: POSITIVE
Column name: DB-17MS
Retention time: 1096.86 sec
Base peak: 103
Derivative type: 8 TMS
m/z	relative intensity
82	6
83	21
84	1
85	25
86	5
87	27
88	16
89	56
90	4
91	4
93	1
94	1
95	4
96	2
97	13
98	3
99	27
100	5
101	82
102	37
103	999
104	101
105	49
106	3
107	2
108	1
109	43
110	3
111	23
112	4
113	45
114	10
115	32
116	34
117	234
118	25
119	27
120	3
121	2
123	1
125	6
126	2
127	23
128	6
129	564
130	84
131	136
132	21
133	182
134	26
135	19
136	2
137	1
139	11
140	5
141	23
142	20
143	99
144	15
145	29
146	5
147	882
148	158
149	126
150	16
151	13
152	2
153	16
154	5
155	72
156	15
157	97
158	15
159	17
160	3
161	10
162	2
163	20
164	3
165	2
166	1
167	6
168	2
169	426
170	70
171	40
172	6
173	20
174	4
175	18
176	4
177	19
178	3
179	2
181	8
182	2
183	28
184	5
185	9
186	2
187	6
188	2
189	103
190	27
191	137
192	26
193	14
194	2
195	1
197	2
198	1
199	11
200	2
201	9
202	5
203	30
204	71
205	56
206	15
207	15
208	3
209	2
211	1
213	1
215	24
216	7
217	617
218	166
219	79
220	14
221	30
222	7
223	4
224	1
225	1
227	7
228	3
229	37
230	40
231	36
232	11
233	14
234	4
235	2
239	2
240	1
241	11
242	4
243	144
244	42
245	45
246	12
247	14
248	3
249	1
255	6
256	4
257	45
258	11
259	18
260	4
261	2
262	1
263	3
264	1
265	4
266	1
271	208
272	54
273	35
274	7
275	4
276	1
277	3
278	2
279	1
287	1
288	1
289	4
290	1
291	19
292	6
293	7
294	1
295	1
303	4
304	3
305	16
306	8
307	4
308	1
317	7
318	3
319	47
320	23
321	10
322	3
323	1
331	16
332	11
333	6
334	2
335	1
345	2
346	4
347	2
348	2
361	79
362	63
363	33
364	11
365	3
366	1
437	12
438	61
439	24
440	13
441	3
442	1
450	1
451	17
452	17
453	8
454	3
455	1
464	1
