Mass spectrum: 4-Methylumbelliferone; GC-EI-TOF; MS; 0 TMS; BP:233
Name: 4-Methylumbelliferone
Class: Natural Product
Formula: C10H8O3
Exact mass: 176.04734
SMILES: Oc(c2)cc(O1)c(c2)C(C)=CC(=O)1
InChI: InChI=1S/C10H8O3/c1-6-4-10(12)13-9-5-7(11)2-3-8(6)9/h2-5,11H,1H3
Instrument: Pegasus III TOF-MS system, Leco; GC 6890, Agilent Technologies
Instrument type: GC-EI-TOF
Ms type: MS
Ion mode: POSITIVE
Column name: DB-17MS
Retention time: 1018.06 sec
Base peak: 233
Derivative type: 0 TMS
m/z	relative intensity
82	12
83	62
84	11
85	53
86	28
87	159
88	194
89	126
90	45
91	302
92	36
93	54
94	30
95	74
96	10
97	19
98	15
99	87
100	14
101	63
102	793
103	475
104	49
105	70
106	13
107	32
108	6
109	38
110	7
111	12
112	2
113	7
114	6
115	201
116	43
117	76
118	22
119	90
120	15
121	38
122	8
123	19
124	3
125	6
126	3
127	16
128	29
129	56
130	24
131	139
132	23
133	40
134	12
135	69
136	14
137	21
138	3
139	2
141	4
142	1
143	13
144	10
145	73
146	18
147	133
148	26
149	138
150	23
151	58
152	9
153	4
155	1
156	1
157	4
158	2
159	61
160	12
161	78
162	48
163	62
164	12
165	421
166	71
167	23
168	3
169	2
170	1
171	5
172	2
173	30
174	15
175	78
176	21
177	747
178	143
179	45
180	6
181	2
185	5
186	2
187	10
188	4
189	118
190	33
191	16
192	4
193	2
194	1
195	1
196	1
197	1
198	1
199	1
201	3
202	3
203	43
204	22
205	514
206	113
207	33
208	5
209	2
210	1
211	1
212	1
213	2
214	1
215	3
216	2
217	8
218	8
219	17
220	305
221	68
222	20
223	3
231	2
232	10
233	999
234	203
235	61
236	8
237	1
238	1
239	1
240	2
241	1
242	1
243	1
247	15
248	831
249	181
250	53
251	7
252	1
