Mass spectrum: Sinapic acid; GC-EI-TOF; MS; 2 TMS; BP:338
Name: Sinapic acid
Name: 3,5-dimethoxy-4-hydroxycinnamic acid
Name: 3-(4-hydroxy-3,5-dimethoxy-phenyl)prop-2-enoic acid
Class: Natural Product
Formula: C11H12O5
Exact mass: 224.06847
SMILES: COC1=CC(=CC(=C1O)OC)/C=C/C(=O)O
InChI: InChI=1S/C11H12O5/c1-15-8-5-7(3-4-10(12)13)6-9(16-2)11(8)14/h3-6,14H,1-2H3,(H,12,13)/b4-3+
Instrument: Pegasus III TOF-MS system, Leco; GC 6890, Agilent Technologies
Instrument type: GC-EI-TOF
Ms type: MS
Ion mode: POSITIVE
Column name: DB-17MS
Retention time: 1099.36 sec
Base peak: 338
Derivative type: 2 TMS
m/z	relative intensity
82	10
83	76
84	17
85	31
86	10
87	24
88	45
89	355
90	55
91	174
92	82
93	47
94	10
95	31
96	28
97	12
98	7
99	49
100	8
101	26
102	56
103	123
104	66
105	81
106	19
107	34
108	8
109	23
110	9
111	18
112	4
113	7
114	6
115	103
116	46
117	122
118	41
119	155
120	77
121	43
122	12
123	11
124	9
125	10
126	7
127	11
128	20
129	41
130	50
131	69
132	91
133	125
134	33
135	131
136	23
137	27
138	5
139	8
140	22
141	9
142	9
143	20
144	11
145	55
146	24
147	185
148	50
149	65
150	28
151	25
152	7
153	9
154	46
155	8
156	1
157	5
158	10
159	29
160	57
161	128
162	105
163	75
164	16
165	21
166	14
167	10
168	4
169	89
170	13
171	6
172	5
173	32
174	26
175	150
176	70
177	209
178	68
179	44
180	13
181	9
182	3
183	2
184	1
185	5
186	4
187	16
188	20
189	45
190	83
191	102
192	44
193	41
194	15
195	12
196	14
197	6
198	2
199	2
200	1
201	8
202	9
203	66
204	53
205	144
206	112
207	41
208	15
209	120
210	24
211	9
212	2
213	2
214	1
215	3
216	5
217	18
218	142
219	142
220	137
221	85
222	81
223	25
224	9
225	3
226	1
227	1
228	1
229	2
230	2
231	11
232	17
233	59
234	63
235	40
236	19
237	18
238	6
239	20
240	5
241	2
242	1
243	1
244	1
245	3
246	4
247	36
248	76
249	246
250	69
251	36
252	14
253	6
254	3
255	1
256	1
259	1
260	1
261	8
262	9
263	47
264	35
265	22
266	16
267	6
268	2
269	1
270	1
271	1
272	1
273	1
274	1
275	2
276	2
277	11
278	28
279	256
280	91
281	53
282	14
283	4
284	1
285	1
289	1
290	1
291	2
292	6
293	24
294	23
295	30
296	12
297	5
298	3
299	2
300	2
301	2
302	2
303	2
304	2
305	3
306	4
307	10
308	15
309	49
310	28
311	14
312	5
313	2
314	1
320	1
321	5
322	36
323	341
324	193
325	67
326	19
327	5
328	4
329	7
330	8
331	9
332	9
333	9
334	9
335	6
336	8
337	92
338	999
339	399
340	147
341	35
342	8
343	3
344	5
345	7
346	7
347	7
348	7
349	6
350	3
351	4
352	48
353	534
354	186
355	72
356	16
357	4
358	3
359	5
360	6
361	7
362	7
363	6
364	6
365	2
366	3
367	90
368	676
369	202
370	77
371	16
372	3
373	1
