Mass spectrum: Indoleacetic acid; GC-EI-TOF; MS; 2 TMS; BP:202
Name: Indole-3-acetic acid
Name: Indoleacetic acid
Class: Natural Product
Formula: C10H9NO2
Exact mass: 175.06333
SMILES: C1=CC=C2C(=C1)C(=CN2)CC(=O)O
InChI: InChI=1S/C10H9NO2/c12-10(13)5-7-6-11-9-4-2-1-3-8(7)9/h1-4,6,11H,5H2,(H,12,13)
Instrument: Pegasus III TOF-MS system, Leco; GC 6890, Agilent Technologies
Instrument type: GC-EI-TOF
Ms type: MS
Ion mode: POSITIVE
Column name: DB-17MS
Retention time: 1016.44 sec
Base peak: 202
Derivative type: 2 TMS
m/z	relative intensity
82	1
83	3
84	5
85	1
87	2
89	5
90	2
91	4
92	3
93	5
99	1
100	2
101	14
102	41
103	17
104	4
105	7
107	1
108	1
113	1
115	11
117	11
118	2
119	6
121	1
127	1
128	18
129	30
130	37
131	14
132	4
133	4
134	1
140	3
141	2
142	2
143	8
144	7
145	35
146	9
147	45
148	6
149	3
152	6
154	1
155	1
156	14
157	4
158	1
159	3
160	12
161	4
162	2
168	1
169	1
170	15
171	4
172	14
173	1
174	3
175	1
183	1
184	6
185	3
186	42
187	20
188	5
189	1
193	1
198	2
199	3
200	51
201	15
202	999
203	160
204	36
216	1
217	1
218	1
229	2
230	3
231	2
244	1
246	1
247	1
249	1
260	2
275	3
276	19
277	10
278	1
303	1
304	28
305	4
306	1
318	7
319	92
320	19
321	4
322	1
