Mass spectrum: Thymine; GC-EI-TOF; MS; 2 TMS; BP:255
Name: Thymine
Class: Natural Product
Formula: C5H6N2O2
Exact mass: 126.04293
SMILES: CC(=C1)C(=O)NC(=O)N1
InChI: InChI=1S/C5H6N2O2/c1-3-2-6-5(9)7-4(3)8/h2H,1H3,(H2,6,7,8,9)
Instrument: Pegasus III TOF-MS system, Leco; GC 6890, Agilent Technologies
Instrument type: GC-EI-TOF
Ms type: MS
Ion mode: POSITIVE
Column name: DB-17MS
Retention time: 706.362 sec
Base peak: 255
Derivative type: 2 TMS
m/z	relative intensity
82	10
83	18
84	55
85	32
86	41
87	13
88	3
89	4
91	3
92	2
93	7
94	2
95	5
96	5
97	6
98	12
99	29
100	98
101	14
102	8
103	10
104	1
105	10
106	42
107	10
108	2
109	5
110	16
111	16
112	26
113	637
114	70
115	34
116	7
117	22
118	3
119	4
120	90
121	8
122	1
123	7
124	3
125	4
126	5
127	18
128	7
129	5
130	3
131	72
132	14
133	39
134	5
135	3
137	1
138	2
139	15
140	118
141	17
142	11
143	4
144	7
145	2
146	2
147	457
148	69
149	33
150	3
151	1
152	1
153	2
154	10
155	4
156	2
157	8
158	32
159	6
160	3
167	2
168	1
169	8
170	4
171	2
172	2
174	5
175	1
180	2
181	7
182	8
183	10
184	7
185	25
186	5
187	3
188	1
195	1
196	3
197	10
198	5
199	3
200	1
210	1
211	2
212	4
213	3
214	2
215	1
225	3
226	3
227	1
239	25
240	16
241	4
242	1
253	4
254	10
255	999
256	213
257	83
258	12
259	2
260	1
261	2
262	2
263	2
264	2
265	2
266	2
269	14
270	206
271	44
272	15
273	2
