Mass spectrum: D-Ribose 5-phosphate; GC-EI-TOF; MS; 5 TMS; BP:299
Name: D-Ribose 5-phosphate
Class: Natural Product
Formula: C5H11O8P
Exact mass: 230.01915
SMILES: OC(O1)[C@H](O)[C@H](O)[C@H]1COP(O)(O)=O
InChI: InChI=1S/C5H11O8P/c6-3-2(1-12-14(9,10)11)13-5(8)4(3)7/h2-8H,1H2,(H2,9,10,11)/t2-,3-,4-,5?/m1/s1
Instrument: Pegasus III TOF-MS system, Leco; GC 6890, Agilent Technologies
Instrument type: GC-EI-TOF
Ms type: MS
Ion mode: POSITIVE
Column name: DB-17MS
Retention time: 971.813 sec
Base peak: 299
Derivative type: 5 TMS
m/z	relative intensity
82	8
83	9
84	61
85	51
86	10
87	50
88	22
89	756
90	70
91	53
92	12
93	26
94	64
95	5
96	2
97	12
98	7
99	130
100	54
101	458
102	84
103	411
104	48
105	41
106	8
107	17
108	4
109	11
110	5
111	22
112	12
113	54
114	5
115	113
116	158
117	172
118	26
119	78
120	11
121	29
122	4
123	13
124	1
125	9
126	6
127	43
128	7
129	717
130	201
131	195
132	39
133	470
134	72
135	118
136	11
137	48
138	7
139	6
140	5
141	11
142	11
143	29
144	8
145	23
146	6
147	956
148	156
149	162
150	22
151	46
152	10
153	11
154	2
155	4
156	15
157	38
158	165
159	51
161	38
162	7
163	47
164	8
165	17
166	4
167	9
171	6
172	15
173	51
174	45
175	18
176	7
177	19
178	6
179	15
180	3
181	51
182	11
183	18
184	21
185	6
186	5
187	5
188	7
189	77
190	18
191	84
192	16
193	55
194	14
195	49
196	9
197	16
199	2
201	4
202	4
203	21
204	44
205	131
206	28
207	97
208	19
209	16
210	8
211	268
212	43
213	21
214	18
215	13
217	631
218	175
219	71
220	12
221	10
222	1
223	2
224	2
225	83
226	13
227	64
228	8
229	5
230	6
231	30
232	7
233	7
234	2
235	6
236	1
237	1
240	5
241	3
243	12
244	1
245	3
246	10
247	6
249	1
253	18
254	3
255	6
256	21
258	1
261	2
267	2
268	1
269	17
270	2
271	2
277	1
278	1
281	3
282	3
283	34
284	14
285	24
286	5
287	4
292	1
297	5
298	125
299	999
300	278
301	146
302	28
303	6
304	3
305	7
306	6
307	5
308	4
309	6
310	4
311	4
312	3
313	17
314	162
315	800
316	223
317	117
318	22
319	7
320	1
321	1
327	3
328	17
329	5
331	17
332	3
333	2
334	1
335	1
340	3
341	5
342	2
350	2
351	1
356	24
357	62
358	18
359	8
369	6
371	1
372	3
384	3
385	4
386	11
387	27
388	11
389	12
390	3
391	2
392	1
399	1
408	1
415	2
417	1
440	1
442	1
458	18
459	28
460	13
461	8
462	3
463	1
484	1
