Mass spectrum: D-(+)-Glucose; GC-EI-TOF; MS; 5 TMS; BP:147
Name: D-(+)-Glucose
Class: Natural Product
Formula: C6H12O6
Exact mass: 180.06339
SMILES: OC[C@@H](O1)[C@@H](O)[C@H](O)[C@@H](O)C(O)1
InChI: InChI=1S/C6H12O6/c7-1-2-3(8)4(9)5(10)6(11)12-2/h2-11H,1H2/t2-,3-,4+,5-,6?/m1/s1
Instrument: Pegasus III TOF-MS system, Leco; GC 6890, Agilent Technologies
Instrument type: GC-EI-TOF
Ms type: MS
Ion mode: POSITIVE
Column name: DB-17MS
Retention time: 858.163 sec
Base peak: 147
Derivative type: 5 TMS
m/z	relative intensity
82	11
83	49
84	25
85	21
86	15
87	27
88	22
89	385
90	34
91	18
92	2
93	1
94	2
95	2
96	10
97	16
98	6
99	19
100	57
101	91
102	40
103	782
104	82
105	91
106	12
107	4
108	1
109	2
110	2
111	12
112	5
113	19
114	17
115	27
116	31
117	331
118	36
119	43
120	5
121	3
122	1
123	1
124	1
125	2
126	7
127	13
128	9
129	361
130	63
131	112
132	17
133	266
134	36
135	21
136	2
137	1
138	2
139	1
140	2
141	7
142	9
143	42
144	7
145	13
146	5
147	999
148	160
149	99
150	12
151	6
152	3
153	2
154	5
155	4
156	5
157	196
158	32
159	20
160	337
161	67
162	18
163	28
164	5
165	3
166	1
167	1
168	3
169	14
170	5
171	3
172	17
173	12
174	6
175	15
176	3
177	19
178	6
179	3
180	3
181	1
182	3
183	2
184	2
185	2
186	10
187	6
188	5
189	83
190	23
191	34
192	6
193	4
194	1
196	3
197	1
198	1
199	1
200	3
201	37
202	9
203	16
204	88
205	446
206	92
207	48
208	7
209	2
210	3
211	1
212	1
214	12
215	6
216	6
217	216
218	46
219	22
220	5
221	16
222	4
223	2
224	1
226	1
228	2
229	52
230	19
231	18
232	6
233	22
234	7
235	16
236	3
237	2
238	1
240	2
241	1
242	4
243	6
244	5
245	5
246	6
247	3
248	1
249	1
251	1
252	1
254	1
256	1
258	1
259	2
260	1
261	1
262	2
263	1
264	1
265	2
268	7
269	3
270	2
273	4
274	5
275	3
276	1
277	13
278	5
279	2
290	1
291	17
292	5
293	2
300	2
301	1
302	3
303	1
304	2
305	12
306	6
307	12
308	3
309	1
316	1
317	1
318	23
319	252
320	79
321	39
322	8
323	2
331	1
332	1
333	1
337	3
338	1
342	1
343	1
344	1
347	1
365	1
374	1
376	2
