Mass spectrum: 4-Hydroxyphenylacetic acid; GC-EI-TOF; MS; 2 TMS; BP:179
Name: 4-Hydroxyphenylacetic acid
Class: Natural Product
Formula: C8H8O3
Exact mass: 152.04734
SMILES: OC(=O)Cc(c1)ccc(O)c1
InChI: InChI=1S/C8H8O3/c9-7-3-1-6(2-4-7)5-8(10)11/h1-4,9H,5H2,(H,10,11)
Instrument: Pegasus III TOF-MS system, Leco; GC 6890, Agilent Technologies
Instrument type: GC-EI-TOF
Ms type: MS
Ion mode: POSITIVE
Column name: DB-17MS
Retention time: 827.779 sec
Base peak: 179
Derivative type: 2 TMS
m/z	relative intensity
82	14
83	13
84	1
85	15
86	2
87	10
88	7
89	135
90	84
91	42
92	4
93	6
94	1
95	10
96	2
97	3
98	1
99	6
101	6
102	12
103	47
104	40
105	56
106	10
107	23
108	2
109	9
110	1
111	3
113	1
115	11
116	5
117	67
118	15
119	25
120	5
121	18
122	3
123	7
124	1
125	1
129	1
130	2
131	27
132	6
133	162
134	29
135	72
136	14
137	17
138	2
139	1
140	1
141	1
143	5
144	1
145	15
146	5
147	251
148	57
149	178
150	33
151	13
152	2
153	1
155	1
156	1
157	2
158	1
159	4
160	2
161	50
162	17
163	207
164	574
165	110
166	29
167	4
168	1
175	6
176	5
177	96
178	27
179	999
180	181
181	55
182	6
183	1
189	2
190	2
191	78
192	15
193	24
194	6
195	6
196	2
197	1
203	1
204	1
205	3
206	21
207	10
208	16
209	13
210	6
211	5
212	2
213	1
219	3
220	2
221	5
222	4
223	6
224	2
225	35
226	19
227	6
228	2
229	1
230	1
233	1
234	1
235	2
236	4
237	26
238	13
239	5
240	1
249	1
250	1
251	4
252	349
253	167
254	77
255	19
256	4
257	1
265	6
266	10
267	5
268	2
269	1
270	1
271	1
272	1
273	2
274	2
275	1
276	1
277	1
278	1
279	2
280	8
281	263
282	76
283	32
284	7
285	2
286	1
295	17
296	292
297	89
298	36
299	6
300	1
