Mass spectrum: L-Aspartic acid; GC-EI-TOF; MS; 3 TMS; BP:232
Name: L-Aspartic acid
Class: Natural Product
Formula: C4H7NO4
Exact mass: 133.03751
SMILES: OC(=O)CC(N)C(O)=O
InChI: InChI=1S/C4H7NO4/c5-2(4(8)9)1-3(6)7/h2H,1,5H2,(H,6,7)(H,8,9)/t2-/m0/s1
Instrument: Pegasus III TOF-MS system, Leco; GC 6890, Agilent Technologies
Instrument type: GC-EI-TOF
Ms type: MS
Ion mode: POSITIVE
Column name: DB-17MS
Retention time: 730.162 sec
Base peak: 232
Derivative type: 3 TMS
m/z	relative intensity
82	5
83	10
84	41
85	17
86	40
87	16
88	10
89	11
90	2
91	4
92	3
93	24
94	2
95	9
96	3
97	3
98	32
99	27
100	789
101	110
102	46
103	55
104	6
105	9
106	1
108	1
110	2
111	1
112	3
113	6
114	15
115	46
116	28
117	160
118	19
119	29
120	3
121	2
124	1
126	5
127	2
128	20
129	17
130	68
131	59
132	45
133	133
134	21
135	12
136	1
140	3
141	2
142	42
143	15
144	16
145	5
146	14
147	398
148	62
149	58
150	7
151	3
152	1
154	3
155	1
156	2
157	2
158	9
159	6
160	14
161	6
162	2
163	42
164	7
165	3
168	1
169	1
170	4
171	5
172	23
173	7
174	39
175	8
176	7
177	8
178	1
179	1
184	3
185	1
186	2
187	1
188	111
189	23
190	12
191	7
192	1
193	1
200	3
201	1
202	89
203	14
204	22
205	8
206	3
207	2
208	1
214	2
215	3
216	49
217	11
218	175
219	34
220	15
221	11
222	2
223	1
230	8
231	8
232	999
233	150
234	70
235	8
236	1
244	8
245	11
246	5
247	1
262	1
291	1
292	3
293	1
305	1
306	8
307	1
333	1
334	1
349	1
