Mass spectrum: Sebacic acid; GC-EI-TOF; MS; 2 TMS; BP:129
Name: Sebacic acid
Class: Natural Product
Formula: C10H18O4
Exact mass: 202.12051
SMILES: OC(=O)CCCCCCCCC(O)=O
InChI: InChI=1S/C10H18O4/c11-9(12)7-5-3-1-2-4-6-8-10(13)14/h1-8H2,(H,11,12)(H,13,14)
Instrument: Pegasus III TOF-MS system, Leco; GC 6890, Agilent Technologies
Instrument type: GC-EI-TOF
Ms type: MS
Ion mode: POSITIVE
Column name: DB-17MS
Retention time: 920.663 sec
Base peak: 129
Derivative type: 2 TMS
m/z	relative intensity
82	56
83	320
84	88
85	120
86	88
87	40
88	41
89	78
90	15
91	106
92	28
93	412
94	54
95	294
96	75
97	470
98	121
99	113
100	17
101	76
102	16
103	45
104	8
105	100
106	14
107	274
108	27
109	38
110	59
111	68
112	32
113	18
114	7
115	47
116	236
117	862
118	93
119	130
120	46
121	350
122	41
123	35
124	41
125	356
126	32
127	11
128	11
129	999
130	144
131	245
132	99
133	148
134	24
135	19
136	4
137	77
138	240
139	82
140	9
141	17
142	9
143	99
144	14
145	101
146	18
147	504
148	130
149	676
150	99
151	62
152	7
153	5
154	1
155	32
156	48
157	63
158	27
159	61
160	10
161	6
162	9
163	8
164	3
165	12
166	186
167	58
168	7
169	21
170	36
171	45
172	11
173	49
174	10
175	4
176	1
177	5
178	1
179	5
180	2
181	12
182	4
183	34
184	7
185	155
186	26
187	15
188	3
189	20
190	8
191	10
192	2
193	2
195	7
196	2
197	28
198	6
199	50
200	13
201	7
202	25
203	32
204	267
205	66
206	25
207	4
208	1
210	1
211	11
212	2
213	73
214	29
215	470
216	83
217	251
218	54
219	22
220	3
221	1
222	1
223	30
224	6
225	3
227	1
228	59
229	13
230	4
231	11
232	2
233	1
238	4
239	13
240	3
241	5
242	1
243	1
244	1
245	3
246	1
255	3
256	4
257	14
258	3
259	14
260	3
261	1
271	1
273	4
274	2
275	1
286	1
287	36
288	11
289	4
290	1
303	1
313	5
314	5
315	41
316	14
317	5
318	1
330	35
331	435
332	120
333	45
334	8
335	1
346	1
