Mass spectrum: D-Fructose 6-phosphate; GC-EI-TOF; MS; 6 TMS; BP:315
Name: D-Fructose 6-phosphate
Class: Natural Product
Formula: C6H13O9P
Exact mass: 260.02972
SMILES: OCC(=O)C(O)C(O)C(O)COP(O)(O)=O
InChI: InChI=1S/C6H13O9P/c7-1-3(8)5(10)6(11)4(9)2-15-16(12,13)14/h4-7,9-11H,1-2H2,(H2,12,13,14)/t4-,5-,6-/m1/s1
Instrument: Pegasus III TOF-MS system, Leco; GC 6890, Agilent Technologies
Instrument type: GC-EI-TOF
Ms type: MS
Ion mode: POSITIVE
Column name: DB-17MS
Retention time: 1027.71 sec
Base peak: 315
Derivative type: 6 TMS
m/z	relative intensity
82	24
83	9
84	139
85	36
86	15
87	28
88	28
89	308
90	28
91	19
92	3
93	5
94	10
95	4
96	7
97	5
98	14
99	38
100	68
101	249
102	47
103	617
104	64
105	60
106	9
107	10
108	3
109	4
110	4
111	14
112	7
113	46
114	103
115	61
116	103
117	174
118	25
119	53
120	7
121	15
122	3
123	6
124	6
125	5
126	29
127	25
128	23
129	526
130	85
131	146
132	24
133	414
134	56
135	72
136	8
137	21
138	10
139	5
140	10
141	11
142	48
143	47
144	12
145	19
146	8
147	817
148	134
149	108
150	15
151	35
152	9
153	8
154	8
155	7
156	19
157	68
158	23
159	26
160	6
161	9
162	3
163	41
164	7
165	11
166	5
167	9
168	16
169	6
170	9
171	6
172	54
173	55
174	17
175	12
176	4
177	14
178	4
179	9
180	14
181	36
182	11
183	17
184	7
185	4
186	13
187	8
188	14
189	43
190	12
191	78
192	16
193	44
194	10
195	37
196	15
197	13
198	13
199	4
200	11
201	16
202	11
203	17
204	48
205	51
206	12
207	73
208	15
209	16
210	8
211	207
212	36
213	21
214	26
215	19
216	26
217	820
218	188
219	83
220	15
221	19
222	4
223	4
224	2
225	77
226	15
227	56
228	21
229	14
230	18
231	14
232	19
233	8
234	3
235	3
236	1
237	2
238	1
239	1
240	9
241	8
242	8
243	11
244	20
245	8
246	11
247	15
248	4
249	3
250	1
251	1
252	1
253	15
254	9
255	9
256	18
257	5
258	7
259	2
260	34
261	10
262	11
263	5
264	1
265	1
267	3
268	9
269	13
270	9
271	5
272	4
273	2
274	2
275	3
276	4
277	1
281	1
282	1
283	21
284	9
285	21
286	13
287	6
288	3
289	2
290	1
291	3
292	1
297	3
298	32
299	529
300	154
301	81
302	24
303	7
304	4
305	4
306	4
307	4
308	4
309	3
310	4
311	3
312	2
313	13
314	55
315	999
316	271
317	143
318	33
319	14
320	3
321	1
327	2
328	14
329	8
330	5
331	3
332	2
333	3
334	3
335	1
340	2
341	22
342	8
343	6
344	3
345	1
346	1
348	1
352	1
355	1
356	14
357	131
358	41
359	21
360	5
361	2
362	1
364	1
368	1
369	7
370	3
371	4
372	3
373	16
374	10
375	5
376	5
377	2
378	1
384	1
385	2
386	14
387	83
388	32
389	28
390	8
391	4
392	6
393	2
394	1
401	1
402	5
403	28
404	10
405	6
406	2
407	3
408	2
409	1
415	2
416	1
417	1
428	4
429	2
430	1
431	2
432	1
458	16
459	90
460	41
461	33
462	11
463	5
464	2
465	1
482	1
487	2
488	2
