Mass spectrum: Tryptamine; GC-EI-TOF; MS; 2 TMS; BP:174
Name: Tryptamine
Class: Natural Product
Formula: C10H12N2
Exact mass: 160.10005
SMILES: C1=CC=C2C(=C1)C(=CN2)CCN
InChI: InChI=1S/C10H12N2/c11-6-5-8-7-12-10-4-2-1-3-9(8)10/h1-4,7,12H,5-6,11H2
Instrument: Pegasus III TOF-MS system, Leco; GC 6890, Agilent Technologies
Instrument type: GC-EI-TOF
Ms type: MS
Ion mode: POSITIVE
Column name: DB-17MS
Retention time: 1067.71 sec
Base peak: 174
Derivative type: 2 TMS
m/z	relative intensity
83	3
84	13
85	14
86	616
87	65
88	28
89	18
90	10
91	10
92	2
93	1
97	1
98	2
99	9
100	305
101	67
102	84
103	98
104	13
105	4
106	1
107	1
113	11
114	13
115	51
116	42
117	69
118	12
119	6
120	2
121	1
127	5
128	37
129	29
130	337
131	67
132	18
133	5
134	9
135	2
136	1
137	35
138	4
140	2
141	2
142	12
143	30
144	38
145	14
146	78
147	14
148	9
149	1
154	1
155	2
156	5
157	1
158	14
159	4
160	16
161	3
162	1
169	1
170	4
171	2
172	19
173	6
174	999
175	197
176	92
177	11
178	2
184	7
185	2
186	9
187	4
188	30
189	6
190	3
198	1
199	5
200	5
201	54
202	12
203	4
204	1
213	1
214	4
215	44
216	9
217	2
287	3
288	1
289	35
290	9
291	3
303	1
304	1
