Mass spectrum: L-Aspartic acid; GC-EI-TOF; MS; 3 TMS; BP:100
Name: L-Aspartic acid
Class: Natural Product
Formula: C4H7NO4
Exact mass: 133.03751
SMILES: OC(=O)CC(N)C(O)=O
InChI: InChI=1S/C4H7NO4/c5-2(4(8)9)1-3(6)7/h2H,1,5H2,(H,6,7)(H,8,9)/t2-/m0/s1
Instrument: Pegasus III TOF-MS system, Leco; GC 6890, Agilent Technologies
Instrument type: GC-EI-TOF
Ms type: MS
Ion mode: POSITIVE
Column name: DB-17MS
Retention time: 1170.27 sec
Base peak: 100
Derivative type: 3 TMS
m/z	relative intensity
82	8
83	15
84	53
85	23
86	47
87	23
88	13
89	15
90	3
91	6
92	2
93	10
94	1
95	3
96	2
97	2
98	32
99	29
100	999
101	153
102	80
103	68
104	10
105	14
106	1
107	1
110	4
111	1
112	2
113	5
114	16
115	50
116	39
117	208
118	30
119	39
120	5
121	1
124	2
126	3
127	2
128	23
129	17
130	91
131	78
132	59
133	152
134	31
135	20
136	1
140	1
141	1
142	32
143	15
144	17
145	6
146	15
147	459
148	93
149	91
150	10
151	5
154	2
156	1
157	2
158	9
159	6
160	28
161	9
162	3
163	58
164	13
165	6
170	2
171	3
172	28
173	9
174	38
175	10
176	9
177	8
178	2
179	1
184	4
186	1
187	1
188	186
189	45
190	25
191	12
192	3
193	3
200	4
202	173
203	30
204	42
205	13
206	5
207	3
208	1
214	1
215	2
216	54
217	15
218	174
219	44
220	25
221	14
222	2
223	1
230	9
231	9
232	963
233	254
234	153
235	27
236	5
237	1
238	1
244	10
245	12
246	6
247	2
306	1
