Mass spectrum: Isonicotinic acid; GC-EI-TOF; MS; 1 TMS; BP:106
Name: Isonicotinic acid
Class: Natural Product
Formula: C6H5NO2
Exact mass: 123.03203
SMILES: OC(=O)c(c1)ccnc1
InChI: InChI=1S/C6H5NO2/c8-6(9)5-1-3-7-4-2-5/h1-4H,(H,8,9)
Instrument: Pegasus III TOF-MS system, Leco; GC 6890, Agilent Technologies
Instrument type: GC-EI-TOF
Ms type: MS
Ion mode: POSITIVE
Column name: DB-17MS
Retention time: 648.763 sec
Base peak: 106
Derivative type: 1 TMS
m/z	relative intensity
82	1
83	13
84	3
85	2
86	1
90	62
91	3
92	2
93	6
94	3
95	2
96	2
97	1
99	1
105	4
106	999
107	72
108	8
109	9
110	8
111	1
119	2
120	10
121	2
122	8
123	1
134	3
135	4
136	851
137	107
138	25
139	1
150	3
151	3
152	2
153	1
162	1
163	1
164	4
165	2
166	2
167	1
179	4
180	924
181	127
182	29
183	1
194	10
195	75
196	10
197	2
