Mass spectrum: Fumaric acid; GC-EI-TOF; MS; 2 TMS; BP:245
Name: Fumaric acid
Name: trans-Butenedioic acid
Class: Natural Product
Formula: C4H4O4
Exact mass: 116.01096
SMILES: C(=C/C(=O)O)\C(=O)O
InChI: InChI=1S/C4H4O4/c5-3(6)1-2-4(7)8/h1-2H,(H,5,6)(H,7,8)/b2-1+
Instrument: Pegasus III TOF-MS system, Leco; GC 6890, Agilent Technologies
Instrument type: GC-EI-TOF
Ms type: MS
Ion mode: POSITIVE
Column name: DB-17MS
Retention time: 637.812 sec
Base peak: 245
Derivative type: 2 TMS
m/z	relative intensity
82	26
83	260
84	114
85	48
86	8
87	11
88	2
89	12
90	1
91	1
92	1
93	4
95	2
97	9
98	21
99	23
100	4
101	6
102	3
103	19
104	3
105	7
106	1
107	1
111	4
112	1
113	27
114	3
115	91
116	11
117	22
118	4
119	10
120	1
121	1
125	1
126	15
127	40
128	18
129	10
130	1
131	22
132	9
133	121
134	18
135	12
136	1
141	4
142	9
143	222
144	31
145	16
146	2
147	873
148	144
149	113
150	13
151	6
155	70
156	12
157	36
158	6
159	7
160	1
161	1
170	11
171	16
172	3
173	10
174	2
175	1
185	1
187	1
201	6
202	2
203	1
215	4
216	2
217	33
218	12
219	5
220	1
230	1
242	3
243	1
244	5
245	999
246	200
247	83
248	11
249	2
