Mass spectrum: L-Tryptophan; GC-EI-TOF; MS; 3 TMS; BP:202
Name: L-Tryptophan
Class: Natural Product
Formula: C11H12N2O2
Exact mass: 204.08988
SMILES: C1=CC=C2C(=C1)C(=CN2)C[C@@H](C(=O)O)N
InChI: InChI=1S/C11H12N2O2/c12-9(11(14)15)5-7-6-13-10-4-2-1-3-8(7)10/h1-4,6,9,13H,5,12H2,(H,14,15)/t9-/m0/s1
Instrument: Pegasus III TOF-MS system, Leco; GC 6890, Agilent Technologies
Instrument type: GC-EI-TOF
Ms type: MS
Ion mode: POSITIVE
Column name: DB-17MS
Retention time: 1070.48 sec
Base peak: 202
Derivative type: 3 TMS
m/z	relative intensity
83	1
84	10
85	3
86	10
87	3
88	2
89	4
90	2
91	1
92	1
98	1
99	1
100	68
101	31
102	21
103	13
104	2
105	5
106	1
112	1
113	1
114	2
115	11
116	4
117	8
118	3
119	5
120	1
121	1
128	6
129	24
130	43
131	18
132	24
133	13
134	5
135	1
136	1
140	1
141	1
142	3
143	4
144	6
145	15
146	7
147	52
148	10
149	4
150	1
152	1
154	1
155	1
156	7
157	3
158	5
159	6
160	9
161	2
162	1
163	2
168	1
169	3
170	8
171	3
172	8
173	2
174	6
175	2
176	1
182	1
183	1
184	7
185	4
186	13
187	6
188	11
189	3
190	13
191	3
192	1
198	2
199	7
200	32
201	12
202	999
203	208
204	63
205	9
206	2
213	1
214	3
215	4
216	3
217	1
218	44
219	9
220	4
221	1
228	1
229	2
230	9
231	2
232	1
241	1
242	1
246	1
248	2
276	1
288	1
290	6
291	68
292	21
293	10
294	2
301	1
302	4
303	7
304	2
305	1
306	1
377	3
378	2
379	1
404	1
405	3
406	2
