Mass spectrum: Maltotriose; GC-EI-TOF; MS; 11 TMS; BP:204
Name: Maltotriose
Class: Natural Product
Formula: C18H32O16
Exact mass: 504.16903
SMILES: OCC(O1)C(O)C(O)C(O)C1OC(C(CO)3)C(O)C(O)C(O3)OC(C(CO)2)C(O)C(O)C(O)O2
InChI: InChI=1S/C18H32O16/c19-1-4-7(22)8(23)12(27)17(31-4)34-15-6(3-21)32-18(13(28)10(15)25)33-14-5(2-20)30-16(29)11(26)9(14)24/h4-29H,1-3H2/t4-,5-,6-,7-,8+,9-,10-,11-,12-,13-,14-,15-,16?,17-,18-/m1/s1
Instrument: Pegasus III TOF-MS system, Leco; GC 6890, Agilent Technologies
Instrument type: GC-EI-TOF
Ms type: MS
Ion mode: POSITIVE
Column name: DB-17MS
Retention time: 1338.93 sec
Base peak: 204
Derivative type: 11 TMS
m/z	relative intensity
82	12
83	16
84	9
85	22
86	10
87	18
88	11
89	124
90	12
91	8
92	2
93	3
94	3
95	7
96	4
97	31
98	5
99	22
100	35
101	77
102	30
103	454
104	47
105	59
106	7
107	4
108	2
109	30
110	5
111	20
112	5
113	21
114	16
115	25
116	39
117	265
118	29
119	22
120	2
121	2
122	1
123	4
124	2
125	6
126	5
127	18
128	11
129	318
130	53
131	71
132	12
133	126
134	17
135	12
136	2
137	2
138	2
139	9
140	4
141	13
142	22
143	65
144	10
145	24
146	4
147	582
148	97
149	71
150	9
151	8
152	5
153	15
154	7
155	54
156	13
157	68
158	15
159	12
160	111
161	23
162	7
163	22
164	4
165	3
166	2
167	8
168	6
169	207
170	37
171	25
172	8
173	17
174	7
175	10
176	2
177	9
178	2
179	3
180	3
181	6
182	4
183	20
184	4
185	6
186	6
187	5
188	3
189	71
190	19
191	134
192	25
193	12
194	2
195	6
196	5
197	5
198	5
199	14
200	4
201	7
202	3
203	25
204	999
205	312
206	112
207	28
208	5
209	2
210	15
211	5
212	2
213	2
214	2
215	12
216	14
217	320
218	78
219	39
220	7
221	17
222	4
223	7
224	1
225	1
226	1
227	6
228	4
229	21
230	20
231	53
232	16
233	17
234	6
235	3
236	1
237	1
239	1
240	3
241	9
242	7
243	98
244	32
245	27
246	12
247	11
248	3
249	1
253	1
254	2
255	5
256	6
257	16
258	5
259	15
260	5
261	3
262	5
263	3
264	1
265	3
266	1
267	1
268	4
269	8
270	8
271	145
272	38
273	25
274	8
275	5
276	4
277	2
278	2
279	1
283	2
284	1
285	3
286	2
287	2
288	2
289	8
290	3
291	9
292	3
293	2
294	1
297	1
299	1
300	12
301	3
302	2
303	2
304	3
305	20
306	7
307	7
308	2
309	1
313	2
314	1
315	1
316	1
317	10
318	8
319	34
320	11
321	6
322	1
330	2
331	15
332	10
333	6
334	2
335	1
337	1
343	2
344	1
345	4
346	2
347	2
358	2
359	7
360	37
361	355
362	124
363	60
364	14
365	5
366	1
373	1
374	1
376	1
377	1
379	1
389	1
390	3
391	1
392	1
403	1
435	1
436	1
448	1
449	1
450	4
451	11
452	5
453	3
454	1
464	1
478	1
479	5
480	15
481	9
482	4
483	1
