Mass spectrum: DL-6,8-Thioctic acid; GC-EI-TOF; MS; 1 TMS; BP:123
Name: DL-alpha-Lipoic acid
Name: DL-6,8-Thioctic acid
Class: Natural Product
Formula: C8H14O2S2
Exact mass: 206.04352
SMILES: OC(=O)CCCCC(C1)SSC1
InChI: InChI=1S/C8H14O2S2/c9-8(10)4-2-1-3-7-5-6-11-12-7/h7H,1-6H2,(H,9,10)
Instrument: Pegasus III TOF-MS system, Leco; GC 6890, Agilent Technologies
Instrument type: GC-EI-TOF
Ms type: MS
Ion mode: POSITIVE
Column name: DB-17MS
Retention time: 1019.06 sec
Base peak: 123
Derivative type: 1 TMS
m/z	relative intensity
82	76
83	33
84	18
85	149
86	47
87	133
88	25
89	33
90	9
91	103
92	18
93	215
94	38
95	684
96	163
97	74
98	26
99	135
100	69
101	81
102	12
103	52
104	10
105	619
106	55
107	70
108	6
109	24
110	15
111	45
112	42
113	313
114	38
115	47
116	74
117	392
118	50
119	46
120	5
121	90
122	17
123	999
124	265
125	40
126	48
127	173
128	81
129	250
130	40
131	38
132	39
133	9
134	3
135	7
136	3
137	65
138	14
139	18
140	3
141	13
142	7
143	12
144	5
145	36
146	19
147	12
148	3
149	5
150	1
151	10
152	2
153	17
154	28
155	337
156	50
157	50
158	8
159	19
160	20
161	16
162	3
163	3
164	1
165	2
166	1
167	7
168	2
169	16
170	8
171	64
172	9
173	11
174	2
175	1
177	2
179	8
180	2
181	5
182	1
183	9
184	2
185	35
186	6
187	5
188	83
189	11
190	9
191	1
195	10
196	2
197	69
198	20
199	18
200	3
201	3
203	1
211	2
212	1
213	72
214	16
215	5
216	1
217	3
227	1
229	14
230	5
231	2
244	3
245	25
246	10
247	4
248	1
262	2
263	46
264	8
265	6
266	1
277	10
278	189
279	37
280	26
281	4
282	1
