Mass spectrum: Myo-Inositol; GC-EI-TOF; MS; 6 TMS; BP:147
Name: Myo-Inositol
Class: Natural Product
Formula: C6H12O6
Exact mass: 180.06339
SMILES: O[C@H]([C@@H](O)1)[C@H](O)[C@@H](O)[C@@H](O)[C@@H](O)1
InChI: InChI=1S/C6H12O6/c7-1-2(8)4(10)6(12)5(11)3(1)9/h1-12H/t1-,2-,3-,4+,5-,6-
Instrument: Pegasus III TOF-MS system, Leco; GC 6890, Agilent Technologies
Instrument type: GC-EI-TOF
Ms type: MS
Ion mode: POSITIVE
Column name: DB-17MS
Retention time: 913.494 sec
Base peak: 147
Derivative type: 6 TMS
m/z	relative intensity
82	2
83	12
84	9
85	14
86	3
87	18
88	5
89	10
90	1
91	3
92	1
93	1
94	1
95	2
96	1
97	3
98	2
99	14
100	2
101	33
102	11
103	212
104	20
105	15
106	1
107	1
109	6
111	17
112	2
113	14
114	2
115	17
116	19
117	30
118	4
119	18
120	2
121	1
125	3
126	1
127	11
128	2
129	223
130	23
131	101
132	15
133	215
134	28
135	18
136	2
137	1
139	2
140	1
141	6
142	5
143	70
144	9
145	9
146	3
147	999
148	144
149	94
150	10
151	8
152	1
153	4
154	1
155	5
156	5
157	18
158	2
159	5
160	1
161	14
162	2
163	6
164	1
165	1
167	1
169	5
170	1
171	1
173	3
175	12
176	2
177	21
178	3
179	2
181	3
183	1
185	2
187	1
189	35
190	23
191	223
192	36
193	19
194	2
195	1
197	1
199	1
201	3
203	13
204	148
205	36
206	11
207	22
208	4
209	2
213	1
215	10
216	4
217	568
218	110
219	44
220	5
221	74
222	15
223	8
224	1
227	1
228	1
229	2
230	12
231	7
232	2
235	1
239	2
243	11
244	2
245	3
249	1
255	2
257	1
264	2
265	49
266	5
267	3
271	2
277	1
278	1
279	1
289	1
290	2
291	33
292	7
293	10
294	1
295	1
303	2
304	17
305	360
306	120
307	39
308	7
309	1
316	1
317	12
318	139
319	53
320	20
321	4
322	1
329	1
331	1
342	1
343	4
344	1
345	1
366	2
367	5
368	1
392	2
393	4
417	1
418	1
419	1
431	4
432	5
433	3
434	1
