Mass spectrum: 5-Methylcytosine; GC-EI-TOF; MS; 2 TMS; BP:254
Name: 5-Methylcytosine
Class: Natural Product
Formula: C5H7N3O
Exact mass: 125.05891
SMILES: CC(=C1)C(N)=NC(=O)N1
InChI: InChI=1S/C5H7N3O/c1-3-2-7-5(9)8-4(3)6/h2H,1H3,(H3,6,7,8,9)
Instrument: Pegasus III TOF-MS system, Leco; GC 6890, Agilent Technologies
Instrument type: GC-EI-TOF
Ms type: MS
Ion mode: POSITIVE
Column name: DB-17MS
Retention time: 809.613 sec
Base peak: 254
Derivative type: 2 TMS
m/z	relative intensity
82	28
83	27
84	128
85	63
86	96
87	17
88	10
89	3
90	1
91	1
92	2
93	3
94	3
95	10
96	28
97	20
98	40
99	33
100	220
101	28
102	16
103	7
104	2
105	6
106	5
107	4
108	7
109	17
110	30
111	33
112	319
113	50
114	24
115	12
116	18
117	12
118	3
119	10
120	38
121	4
122	2
123	10
124	7
125	7
126	25
127	14
128	14
129	4
130	60
131	40
132	22
133	32
134	7
135	3
136	1
137	18
138	24
139	132
140	20
141	14
142	7
143	5
144	3
145	1
146	80
147	254
148	45
149	19
150	5
151	3
152	5
153	18
154	8
155	4
156	2
157	16
158	11
159	3
160	1
164	35
165	5
166	9
167	3
168	3
169	5
170	5
171	5
172	6
173	2
178	1
179	1
180	6
181	11
182	35
183	7
184	147
185	32
186	12
187	2
194	2
195	2
196	28
197	9
198	5
199	2
208	1
209	1
210	1
211	22
212	6
213	3
214	1
222	1
223	1
224	6
225	6
226	2
227	16
228	3
229	1
237	4
238	105
239	34
240	12
241	2
244	1
245	1
246	1
247	1
248	1
249	1
250	1
252	5
253	20
254	999
255	234
256	88
257	13
258	2
259	1
260	1
261	1
262	1
263	1
264	1
265	1
267	1
268	25
269	166
270	41
271	15
272	2
