Mass spectrum: Ethanolamine; GC-EI-TOF; MS; 3 TMS; BP:174
Name: Ethanolamine
Class: Natural Product
Formula: C2H7NO
Exact mass: 61.05276
SMILES: NCCO
InChI: InChI=1S/C2H7NO/c3-1-2-4/h4H,1-3H2
Instrument: Pegasus III TOF-MS system, Leco; GC 6890, Agilent Technologies
Instrument type: GC-EI-TOF
Ms type: MS
Ion mode: POSITIVE
Column name: DB-17MS
Retention time: 529.563 sec
Base peak: 174
Derivative type: 3 TMS
m/z	relative intensity
83	2
84	5
85	8
86	344
87	40
88	19
89	11
90	1
96	1
98	2
99	5
100	344
101	48
102	31
103	18
104	3
105	5
112	1
113	9
114	40
115	17
116	18
117	27
118	5
119	11
120	1
121	1
128	1
129	4
130	49
131	43
132	12
133	92
134	13
135	7
136	1
142	1
143	1
144	8
145	2
146	7
147	168
148	27
149	13
150	1
158	7
159	2
160	1
171	1
172	19
173	5
174	999
175	175
176	76
177	9
178	1
187	1
188	9
189	2
190	1
204	2
262	11
263	3
264	1
