Mass spectrum: Spermine; GC-EI-TOF; MS; x TMS; BP:84
Name: Spermine
Class: Natural Product
Formula: C10H26N4
Exact mass: 202.21575
SMILES: NCCCNCCCCNCCCN
InChI: InChI=1S/C10H26N4/c11-5-3-9-13-7-1-2-8-14-10-4-6-12/h13-14H,1-12H2
Instrument: Pegasus III TOF-MS system, Leco; GC 6890, Agilent Technologies
Instrument type: GC-EI-TOF
Ms type: MS
Ion mode: POSITIVE
Column name: DB-17MS
Retention time: 1143.41 sec
Base peak: 84
Derivative type: x TMS
m/z	relative intensity
82	54
83	33
84	999
85	87
86	625
87	65
88	58
89	5
90	3
94	11
95	2
96	46
97	15
98	195
99	34
100	333
101	60
102	149
103	19
104	7
105	1
106	1
107	1
108	5
109	7
110	49
111	36
112	125
113	30
114	82
115	129
116	792
117	113
118	40
119	4
120	1
121	1
122	1
124	3
125	5
126	13
127	7
128	99
129	114
130	163
131	38
132	22
133	3
134	1
138	2
139	2
140	17
141	10
142	281
143	76
144	777
145	105
146	123
147	21
148	8
150	1
152	1
153	1
154	14
155	8
156	82
157	71
158	38
159	8
160	191
161	33
162	21
163	3
164	1
168	11
169	5
170	62
171	31
172	225
173	48
174	408
175	73
176	31
177	4
183	4
184	5
185	11
186	52
187	20
188	32
189	7
190	3
197	3
198	1
199	3
200	5
201	75
202	20
203	8
204	1
211	4
212	1
213	2
214	1
215	9
216	2
217	1
227	5
228	1
229	5
230	1
231	4
241	1
244	11
245	2
255	3
256	1
257	31
258	7
259	4
260	1
271	12
272	2
273	7
274	1
301	1
302	1
303	1
329	5
330	1
345	1
372	2
373	1
388	1
