Mass spectrum: 2-Coumaric acid; GC-EI-TOF; MS; 2 TMS; BP:147
Name: o-Coumaric acid
Name: 2-Coumaric acid
Class: Natural Product
Formula: C9H8O3
Exact mass: 164.04734
SMILES: OC(=O)C=Cc(c1)c(O)ccc1
InChI: InChI=1S/C9H8O3/c10-8-4-2-1-3-7(8)5-6-9(11)12/h1-6,10H,(H,11,12)/b6-5+
Instrument: Pegasus III TOF-MS system, Leco; GC 6890, Agilent Technologies
Instrument type: GC-EI-TOF
Ms type: MS
Ion mode: POSITIVE
Column name: DB-17MS
Retention time: 916.262 sec
Base peak: 147
Derivative type: 2 TMS
m/z	relative intensity
82	1
83	9
84	2
85	10
86	2
87	7
88	5
89	55
90	37
91	51
92	7
93	3
94	1
95	3
96	1
97	4
98	1
99	2
100	1
101	15
102	15
103	16
104	3
105	13
106	2
107	2
109	1
110	2
111	1
113	2
114	2
115	43
116	10
117	11
118	63
119	11
120	2
121	5
122	1
123	1
127	1
128	2
129	3
130	1
131	16
132	3
133	25
134	5
135	44
136	6
137	3
139	5
142	1
143	3
144	10
145	20
146	40
147	999
148	160
149	83
150	9
151	9
152	1
159	12
160	3
161	157
162	25
163	13
164	3
165	1
166	2
173	1
174	1
175	36
176	7
177	13
178	2
179	10
180	1
181	4
182	1
189	2
190	60
191	12
192	9
193	2
195	1
201	1
202	1
203	3
205	5
206	1
207	1
209	11
210	3
211	1
217	3
218	2
219	73
220	16
221	5
222	1
233	1
235	4
236	1
237	1
249	2
250	1
251	4
252	1
265	3
266	1
292	2
293	160
294	45
295	17
296	3
307	6
308	82
309	21
310	7
311	1
