Mass spectrum: Ferulic acid; GC-EI-TOF; MS; 2 TMS; BP:323
Name: Ferulic acid
Class: Natural Product
Formula: C10H10O4
Exact mass: 194.05791
SMILES: COc(c1)c(O)ccc(C=CC(O)=O)1
InChI: InChI=1S/C10H10O4/c1-14-9-6-7(2-4-8(9)11)3-5-10(12)13/h2-6,11H,1H3,(H,12,13)/b5-3+
Instrument: Pegasus III TOF-MS system, Leco; GC 6890, Agilent Technologies
Instrument type: GC-EI-TOF
Ms type: MS
Ion mode: POSITIVE
Column name: DB-17MS
Retention time: 1035.41 sec
Base peak: 323
Derivative type: 2 TMS
m/z	relative intensity
82	8
83	56
84	16
85	27
86	10
87	27
88	141
89	482
90	69
91	110
92	28
93	25
94	8
95	21
96	5
97	6
98	6
99	19
100	8
101	39
102	143
103	94
104	37
105	70
106	12
107	30
108	6
109	28
110	11
111	11
112	2
113	9
114	9
115	188
116	75
117	241
118	88
119	78
120	18
121	24
122	9
123	7
124	9
125	23
126	5
127	12
128	23
129	37
130	32
131	68
132	25
133	94
134	20
135	105
136	20
137	46
138	8
139	147
140	18
141	6
142	19
143	35
144	16
145	219
146	88
147	241
148	73
149	60
150	21
151	19
152	4
153	4
154	106
155	14
156	2
157	7
158	10
159	36
160	174
161	127
162	32
163	65
164	21
165	21
166	21
167	6
168	3
169	2
170	1
171	9
172	6
173	43
174	25
175	255
176	57
177	45
178	20
179	204
180	38
181	16
182	3
183	2
184	1
185	9
186	6
187	20
188	30
189	69
190	164
191	240
192	140
193	43
194	12
195	6
196	3
197	2
198	1
199	2
200	2
201	11
202	9
203	171
204	85
205	92
206	33
207	36
208	11
209	100
210	20
211	7
212	2
213	3
214	2
215	3
216	7
217	31
218	166
219	348
220	90
221	72
222	40
223	23
224	9
225	3
226	1
229	1
230	1
231	11
232	22
233	77
234	29
235	23
236	18
237	7
238	3
239	3
240	2
241	1
242	1
243	1
244	1
245	3
246	2
247	20
248	23
249	706
250	195
251	79
252	18
253	12
254	9
255	3
256	2
257	1
258	1
259	1
260	1
261	3
262	3
263	28
264	42
265	44
266	21
267	9
268	4
269	3
270	3
271	3
272	3
273	3
274	3
275	4
276	4
277	7
278	10
279	178
280	88
281	44
282	13
283	4
284	1
289	1
290	1
291	3
292	19
293	588
294	278
295	97
296	26
297	7
298	6
299	9
300	10
301	11
302	10
303	10
304	10
305	7
306	6
307	56
308	923
309	333
310	121
311	27
312	6
313	4
314	6
315	7
316	7
317	7
318	7
319	6
320	3
321	6
322	45
323	999
324	310
325	119
326	24
327	5
328	5
329	8
330	9
331	9
332	9
333	9
334	8
335	3
336	4
337	108
338	811
339	211
340	72
341	13
342	3
343	1
