Mass spectrum: Oxalic acid; GC-EI-TOF; MS; 2 TMS; BP:147
Name: Oxalic acid
Class: Natural Product
Formula: C2H2O4
Exact mass: 89.99531
SMILES: OC(=O)C(O)=O
InChI: InChI=1S/C2H2O4/c3-1(4)2(5)6/h(H,3,4)(H,5,6)
Instrument: Pegasus III TOF-MS system, Leco; GC 6890, Agilent Technologies
Instrument type: GC-EI-TOF
Ms type: MS
Ion mode: POSITIVE
Column name: DB-17MS
Retention time: 528.013 sec
Base peak: 147
Derivative type: 2 TMS
m/z	relative intensity
84	3
85	2
86	2
87	23
88	4
89	10
90	1
91	2
92	2
93	19
94	1
95	6
99	1
100	1
101	12
102	35
103	40
104	6
105	15
106	1
107	1
108	1
113	4
115	22
116	7
117	31
118	4
119	5
131	56
132	9
133	64
134	8
135	4
146	1
147	999
148	175
149	89
150	9
151	2
175	28
176	5
177	2
190	48
191	9
192	4
219	26
220	4
221	2
