Mass spectrum: L-Alanine; GC-EI-TOF; MS; 1 TMS; BP:116
Name: L-Alanine
Class: Natural Product
Formula: C3H7NO2
Exact mass: 89.04768
SMILES: CC(N)C(O)=O
InChI: InChI=1S/C3H7NO2/c1-2(4)3(5)6/h2H,4H2,1H3,(H,5,6)/t2-/m0/s1
Instrument: Pegasus III TOF-MS system, Leco; GC 6890, Agilent Technologies
Instrument type: GC-EI-TOF
Ms type: MS
Ion mode: POSITIVE
Column name: DB-17MS
Retention time: 425.663 sec
Base peak: 116
Derivative type: 1 TMS
m/z	relative intensity
82	2
83	2
84	8
85	3
86	36
87	12
88	8
89	3
93	1
94	17
95	1
98	3
99	3
100	72
101	19
102	20
103	43
104	4
105	4
112	1
113	2
114	13
115	14
116	999
117	133
118	43
119	7
128	18
129	3
130	6
131	20
132	8
133	24
134	4
135	2
144	3
146	3
147	212
148	34
149	16
150	2
174	2
175	1
190	34
191	9
192	3
218	10
219	1
