Mass spectrum: DL-2,3-Diaminopropionic acid; GC-EI-TOF; MS; 3 TMS; BP:174
Name: 2,3-Diaminopropionic acid
Name: DL-2,3-Diaminopropionic acid
Class: Natural Product
Formula: C3H8N2O2
Exact mass: 104.05858
SMILES: NCC(N)C(O)=O
InChI: InChI=1S/C3H8N2O2/c4-1-2(5)3(6)7/h2H,1,4-5H2,(H,6,7)
Instrument: Pegasus III TOF-MS system, Leco; GC 6890, Agilent Technologies
Instrument type: GC-EI-TOF
Ms type: MS
Ion mode: POSITIVE
Column name: DB-17MS
Retention time: 759.263 sec
Base peak: 174
Derivative type: 3 TMS
m/z	relative intensity
82	1
83	2
84	41
85	11
86	299
87	29
88	23
89	1
92	1
93	2
98	3
99	22
100	185
101	100
102	70
103	17
104	1
105	1
113	10
114	8
115	23
116	14
117	16
118	5
119	7
127	1
129	17
130	70
131	20
132	30
133	18
137	1
142	2
143	2
144	10
145	1
146	44
147	53
148	9
149	4
151	1
157	1
158	7
159	8
160	10
161	2
162	1
170	1
171	22
172	19
173	6
174	999
175	66
186	1
187	7
188	4
190	2
191	11
192	1
201	1
202	2
203	9
204	2
205	1
207	1
218	4
219	1
220	1
221	1
243	2
246	2
247	1
248	7
249	2
250	1
259	8
260	3
275	9
276	4
277	3
290	11
291	32
292	8
349	2
