Mass spectrum: L-Ornithine; GC-EI-TOF; MS; 2 TMS; BP:142
Name: L-Ornithine
Class: Natural Product
Formula: C5H12N2O2
Exact mass: 132.08988
SMILES: NCCC[C@H](N)C(O)=O
InChI: InChI=1S/C5H12N2O2/c6-3-1-2-4(7)5(8)9/h4H,1-3,6-7H2,(H,8,9)/t4-/m0/s1
Instrument: Pegasus III TOF-MS system, Leco; GC 6890, Agilent Technologies
Instrument type: GC-EI-TOF
Ms type: MS
Ion mode: POSITIVE
Column name: DB-17MS
Retention time: 800.662 sec
Base peak: 142
Derivative type: 2 TMS
m/z	relative intensity
82	3
83	4
84	12
85	16
86	211
87	31
88	14
89	3
90	13
91	1
92	1
94	1
95	1
96	8
97	7
98	25
99	26
100	213
101	38
102	132
103	31
104	8
105	3
110	15
111	4
112	37
113	19
114	63
115	43
116	26
117	30
118	7
119	7
120	1
124	5
125	3
126	36
127	25
128	102
129	28
130	76
131	39
132	33
133	39
134	8
135	3
136	1
138	1
139	2
140	13
141	13
142	999
143	148
144	57
145	7
146	34
147	109
148	24
149	12
150	1
152	9
153	6
154	9
155	3
156	5
157	3
158	10
159	6
160	15
161	6
162	4
163	1
168	3
169	7
170	5
171	2
172	45
173	11
174	390
175	90
176	57
177	9
178	2
182	1
183	1
184	2
185	1
186	20
187	20
188	18
189	30
190	10
191	15
192	3
193	1
198	7
199	4
200	130
201	34
202	25
203	14
204	32
205	8
206	4
207	1
212	2
213	5
214	94
215	30
216	110
217	41
218	57
219	13
220	16
221	7
222	2
223	1
225	3
226	8
227	4
228	3
229	5
230	9
231	8
232	10
233	3
234	1
240	1
241	16
242	14
243	8
244	17
245	4
246	5
247	1
248	3
249	1
257	2
258	80
259	72
260	21
261	7
262	2
287	8
288	5
289	2
290	2
291	2
292	1
301	1
302	1
303	15
304	5
305	4
306	1
313	1
315	16
316	10
317	5
318	1
329	1
330	25
331	12
332	6
333	1
403	3
404	1
405	6
406	2
407	1
419	3
420	56
421	24
422	13
423	4
424	1
