Mass spectrum: L-Serine; GC-EI-TOF; MS; 3 TMS; BP:204
Name: L-Serine
Class: Natural Product
Formula: C3H7NO3
Exact mass: 105.04259
SMILES: OC[C@H](N)C(O)=O
InChI: InChI=1S/C3H7NO3/c4-2(1-5)3(6)7/h2,5H,1,4H2,(H,6,7)/t2-/m0/s1
Instrument: Pegasus III TOF-MS system, Leco; GC 6890, Agilent Technologies
Instrument type: GC-EI-TOF
Ms type: MS
Ion mode: POSITIVE
Column name: DB-17MS
Retention time: 623.644 sec
Base peak: 204
Derivative type: 3 TMS
m/z	relative intensity
82	2
83	3
84	16
85	11
86	32
87	17
88	31
89	25
90	3
91	2
93	1
95	1
96	1
98	9
99	8
100	542
101	84
102	37
103	66
104	7
105	9
106	1
112	1
113	7
114	75
115	50
116	142
117	71
118	16
119	17
120	3
121	2
126	1
128	5
129	8
130	37
131	51
132	63
133	110
134	21
135	12
136	1
142	6
143	5
144	19
145	4
146	15
147	346
148	58
149	34
150	4
151	1
156	1
157	1
158	10
159	9
160	6
161	2
162	3
163	15
164	3
165	1
172	12
173	3
174	18
175	6
176	2
177	1
187	1
188	105
189	42
190	18
191	7
192	1
197	1
198	1
199	1
200	2
202	4
203	20
204	999
205	183
206	77
207	10
208	2
216	31
217	9
218	447
219	83
220	36
221	10
222	2
223	1
231	1
232	1
233	1
262	2
277	1
278	56
279	18
280	8
281	2
305	1
306	22
307	6
308	3
