Mass spectrum: trans-Cinnamic acid; GC-EI-TOF; MS; 1 TMS; BP:131
Name: trans-Cinnamic acid
Class: Natural Product
Formula: C9H8O2
Exact mass: 148.05243
SMILES: OC(=O)C=Cc(c1)cccc1
InChI: InChI=1S/C9H8O2/c10-9(11)7-6-8-4-2-1-3-5-8/h1-7H,(H,10,11)/b7-6+
Instrument: Pegasus III TOF-MS system, Leco; GC 6890, Agilent Technologies
Instrument type: GC-EI-TOF
Ms type: MS
Ion mode: POSITIVE
Column name: DB-17MS
Retention time: 815.99 sec
Base peak: 131
Derivative type: 1 TMS
m/z	relative intensity
83	3
85	54
86	8
87	11
88	4
89	10
90	4
91	23
92	1
94	2
98	5
99	43
100	6
101	37
102	253
103	953
104	106
109	2
112	1
113	1
114	1
115	12
116	3
117	3
118	4
119	2
121	6
122	2
123	1
129	13
130	3
131	999
132	173
133	27
134	13
135	246
136	65
137	25
138	2
142	20
143	25
144	6
145	403
146	120
147	45
148	61
149	10
150	3
151	2
152	2
153	5
154	2
155	3
156	2
157	1
158	1
160	4
161	112
162	113
163	86
164	9
165	1
175	4
176	23
177	8
178	3
179	1
180	1
181	2
184	1
185	2
186	2
187	1
188	2
189	2
190	1
191	1
192	13
193	6
194	3
195	2
206	102
207	74
208	12
209	1
218	1
219	52
220	335
221	75
222	21
223	3
