Mass spectrum: cis-Aconitic acid; GC-EI-TOF; MS; 3 TMS; BP:147
Name: cis-Aconitic acid
Class: Natural Product
Formula: C6H6O6
Exact mass: 174.01644
SMILES: OC(=O)CC(C(O)=O)=C([H])C(O)=O
InChI: InChI=1S/C6H6O6/c7-4(8)1-3(6(11)12)2-5(9)10/h1H,2H2,(H,7,8)(H,9,10)(H,11,12)/b3-1-
Instrument: Pegasus III TOF-MS system, Leco; GC 6890, Agilent Technologies
Instrument type: GC-EI-TOF
Ms type: MS
Ion mode: POSITIVE
Column name: DB-17MS
Retention time: 851.612 sec
Base peak: 147
Derivative type: 3 TMS
m/z	relative intensity
82	16
83	33
84	13
85	15
86	3
87	13
88	4
89	11
90	1
91	2
92	3
93	25
94	5
95	28
96	28
97	95
98	17
99	19
100	4
101	10
102	5
103	24
104	4
105	10
106	1
107	4
108	3
109	5
110	8
111	16
112	12
113	14
114	2
115	21
116	9
117	36
118	5
119	17
120	2
121	7
122	1
123	8
124	2
125	5
126	2
127	5
128	2
129	4
130	1
131	43
132	8
133	152
134	20
135	19
136	2
137	1
138	2
139	8
140	8
141	27
142	5
143	12
144	2
145	3
146	1
147	999
148	172
149	179
150	23
151	11
152	1
153	2
154	3
155	13
156	9
157	22
158	4
159	6
160	1
161	3
162	1
163	3
167	1
168	1
169	22
170	5
171	10
172	3
173	5
174	1
175	1
177	9
178	1
179	1
182	4
183	14
184	26
185	11
186	3
187	2
189	2
190	1
191	5
192	1
193	1
195	3
196	1
197	1
198	1
199	4
200	1
201	5
202	2
203	1
204	1
205	2
207	9
208	2
209	1
210	1
211	204
212	33
213	23
214	5
215	90
216	19
217	9
218	1
221	17
222	4
223	2
227	3
228	16
229	307
230	68
231	29
232	4
233	1
241	1
243	4
244	1
245	7
246	1
247	1
256	6
257	22
258	7
259	7
260	1
271	2
272	19
273	10
274	3
275	3
276	1
284	1
285	101
286	23
287	25
288	5
289	3
300	17
301	5
302	2
303	9
304	3
305	1
318	1
331	2
332	1
333	1
346	10
347	3
348	1
374	6
375	79
376	25
377	12
378	2
