Mass spectrum: D-(+)-Galactose; GC-EI-TOF; MS; 5 TMS; BP:147
Name: D-(+)-Galactose
Class: Natural Product
Formula: C6H12O6
Exact mass: 180.06339
SMILES: OC[C@@H](O1)[C@H](O)[C@H](O)[C@@H](O)C(O)1
InChI: InChI=1S/C6H12O6/c7-1-2-3(8)4(9)5(10)6(11)12-2/h2-11H,1H2/t2-,3+,4+,5-,6?/m1/s1
Instrument: Pegasus III TOF-MS system, Leco; GC 6890, Agilent Technologies
Instrument type: GC-EI-TOF
Ms type: MS
Ion mode: POSITIVE
Column name: DB-17MS
Retention time: 853.212 sec
Base peak: 147
Derivative type: 5 TMS
m/z	relative intensity
82	12
83	29
84	40
85	19
86	18
87	22
88	15
89	188
90	17
91	9
92	1
93	1
94	2
95	2
96	3
97	9
98	6
99	20
100	33
101	84
102	29
103	370
104	36
105	74
106	9
107	3
108	1
109	1
110	3
111	11
112	6
113	17
114	28
115	30
116	29
117	241
118	25
119	27
120	3
121	1
124	1
125	2
126	7
127	12
128	10
129	228
130	39
131	88
132	15
133	178
134	24
135	15
136	1
137	1
138	1
139	1
140	3
141	7
142	14
143	50
144	9
145	20
146	5
147	999
148	145
149	97
150	11
151	6
152	3
153	2
154	8
155	5
156	5
157	133
158	26
159	12
160	193
161	36
162	9
163	22
164	3
165	2
166	1
167	1
168	3
169	9
170	4
171	3
172	25
173	12
174	6
175	13
176	3
177	8
178	2
179	1
180	2
181	1
182	2
183	1
184	1
185	2
186	7
187	3
188	2
189	72
190	19
191	38
192	7
193	4
194	1
195	1
196	2
197	1
198	2
199	1
200	5
201	113
202	25
203	29
204	209
205	567
206	123
207	52
208	7
209	2
210	6
211	1
212	1
214	6
215	10
216	22
217	404
218	83
219	33
220	5
221	18
222	4
223	2
227	1
228	4
229	32
230	16
231	19
232	7
233	5
234	6
235	1
240	2
241	1
242	3
243	7
244	6
245	5
246	8
247	6
248	2
249	1
254	1
256	2
257	1
258	1
259	4
260	2
261	1
262	5
263	1
265	1
268	5
269	3
270	2
274	4
276	1
277	9
278	3
290	1
291	14
292	2
293	1
300	3
302	4
303	1
304	4
305	24
306	8
307	20
308	4
309	2
314	1
315	2
316	2
317	2
318	10
319	434
320	119
321	42
322	6
323	1
328	1
330	1
331	1
332	2
333	2
342	3
343	3
344	10
345	3
346	1
358	1
376	1
432	1
