Mass spectrum: D-(+)-Malic acid; GC-EI-TOF; MS; 3 TMS; BP:147
Name: D-(+)-Malic acid
Class: Natural Product
Formula: C4H6O5
Exact mass: 134.02152
SMILES: OC(=O)C[C@H](O)C(O)=O
InChI: InChI=1S/C4H6O5/c5-2(4(8)9)1-3(6)7/h2,5H,1H2,(H,6,7)(H,8,9)/t2-/m1/s1
Instrument: Pegasus III TOF-MS system, Leco; GC 6890, Agilent Technologies
Instrument type: GC-EI-TOF
Ms type: MS
Ion mode: POSITIVE
Column name: DB-17MS
Retention time: 714.812 sec
Base peak: 147
Derivative type: 3 TMS
m/z	relative intensity
82	1
83	5
84	4
85	11
86	2
87	7
88	1
89	5
99	11
100	1
101	114
102	11
103	10
104	1
105	4
113	2
115	10
116	11
117	41
118	5
119	6
120	1
128	1
129	15
130	2
131	42
132	7
133	117
134	13
135	8
136	1
142	1
143	27
144	5
145	7
146	2
147	999
148	146
149	80
150	9
151	10
152	1
155	1
157	3
159	3
160	1
161	2
162	1
163	2
171	55
172	7
173	9
175	87
176	16
177	25
178	4
179	2
185	3
186	1
187	1
189	183
190	154
191	104
192	23
193	7
194	1
201	1
203	10
204	5
205	5
206	1
207	4
208	1
209	1
215	1
216	1
217	38
218	9
219	5
220	1
221	15
222	4
223	2
229	1
231	2
232	1
233	383
234	78
235	33
236	4
237	1
245	199
246	39
247	24
248	3
249	1
259	2
260	5
261	1
263	40
264	9
265	52
266	13
267	7
268	1
291	1
292	1
293	1
305	10
306	17
307	41
308	24
309	10
310	3
319	14
320	5
321	2
322	1
335	60
336	16
337	7
338	1
350	1
