Mass spectrum: D-(+)-Trehalose; GC-EI-TOF; MS; 8 TMS; BP:73
Name: D-(+)-Trehalose
Class: Natural Product
Formula: C12H22O11
Exact mass: 342.11621
SMILES: OC[C@@H](O1)[C@@H](O)[C@H](O)[C@@H](O)[C@H]1O[C@@H](O2)[C@H](O)[C@@H](O)[C@H](O)[C@@H](CO)2
InChI: InChI=1S/C12H22O11/c13-1-3-5(15)7(17)9(19)11(21-3)23-12-10(20)8(18)6(16)4(2-14)22-12/h3-20H,1-2H2/t3-,4-,5-,6-,7+,8+,9-,10-,11-,12-/m1/s1
Instrument: Pegasus III TOF-MS system, Leco; GC 6890, Agilent Technologies
Instrument type: GC-EI-TOF
Ms type: MS
Ion mode: POSITIVE
Column name: DB-17MS
Retention time: 2387.82 sec
Base peak: 73
Derivative type: 8 TMS
m/z	relative intensity
36	1
37	1
38	2
39	6
40	2
41	9
42	8
43	39
44	16
45	87
46	6
47	12
48	2
49	2
50	1
51	3
52	5
53	9
54	7
55	24
56	5
57	6
58	10
59	25
60	3
61	5
62	1
63	1
64	1
65	2
66	6
67	4
68	2
69	19
70	4
71	4
72	15
73	999
74	84
75	83
76	6
77	9
78	2
79	1
80	1
81	18
82	3
83	4
84	2
85	6
86	1
87	4
88	2
89	9
90	2
91	2
92	1
93	1
94	1
95	1
96	1
97	2
98	2
99	6
100	2
101	11
102	2
103	117
104	11
105	5
106	1
107	1
108	1
109	6
111	4
112	1
113	6
114	2
115	5
116	6
117	32
118	3
119	4
123	1
125	1
127	3
128	1
129	83
130	11
131	19
132	4
133	27
134	4
135	4
139	3
140	1
141	3
142	3
143	12
144	2
145	5
146	1
147	141
148	22
149	18
150	2
151	2
152	1
153	3
154	1
155	13
156	2
157	11
158	2
159	2
160	1
161	2
162	1
163	2
169	51
170	8
171	5
172	1
173	4
174	1
175	3
176	1
177	2
179	1
181	1
182	1
183	4
184	1
185	1
186	1
187	1
189	18
190	7
191	143
192	26
193	13
194	2
195	2
197	1
199	2
201	1
202	2
203	7
204	42
205	18
206	6
207	4
208	1
214	1
215	3
216	4
217	75
218	21
219	9
220	2
221	7
222	1
223	1
224	1
227	2
228	2
229	6
230	3
231	6
232	2
233	3
234	1
235	1
239	1
241	3
242	3
243	23
244	7
245	6
246	2
247	1
254	1
255	1
256	1
257	2
258	1
259	2
260	1
263	1
264	1
265	1
266	1
269	1
270	4
271	19
272	6
273	3
274	1
279	1
281	1
287	1
288	1
289	1
290	2
291	4
292	2
293	1
297	1
304	1
305	3
306	2
307	1
317	2
318	4
319	7
320	4
321	1
322	1
327	1
330	3
331	6
332	6
333	3
334	2
341	1
345	2
346	1
347	1
348	1
359	1
360	43
361	140
362	50
363	23
364	5
365	1
376	1
377	1
379	1
382	1
397	1
434	1
435	1
451	1
462	1
