Mass spectrum: L-Histidine; GC-EI-TOF; MS; 3 TMS; BP:154
Name: L-Histidine
Class: Natural Product
Formula: C6H9N3O2
Exact mass: 155.06948
SMILES: C1=C(NC=N1)C[C@@H](C(=O)O)N
InChI: InChI=1S/C6H9N3O2/c7-5(6(10)11)1-4-2-8-3-9-4/h2-3,5H,1,7H2,(H,8,9)(H,10,11)/t5-/m0/s1
Instrument: Pegasus III TOF-MS system, Leco; GC 6890, Agilent Technologies
Instrument type: GC-EI-TOF
Ms type: MS
Ion mode: POSITIVE
Column name: DB-17MS
Retention time: 962.513 sec
Base peak: 154
Derivative type: 3 TMS
m/z	relative intensity
82	40
83	16
85	8
86	10
87	3
95	1
96	4
97	3
98	7
99	2
100	84
101	13
102	1
105	1
110	8
111	6
112	17
114	3
115	2
116	4
117	6
118	1
119	1
123	2
124	2
125	3
126	13
127	4
128	4
130	10
131	7
132	17
133	7
134	1
135	1
136	1
138	2
139	4
140	2
141	1
142	1
144	3
145	1
146	3
147	41
148	5
149	4
150	6
151	3
152	2
153	42
154	999
155	312
156	55
157	9
158	3
159	4
160	4
162	1
163	1
165	2
166	27
167	10
168	2
169	1
170	2
172	1
174	2
175	1
180	1
181	3
182	21
183	9
184	5
185	2
190	3
191	1
195	1
197	1
199	1
201	1
202	1
203	6
206	1
210	1
211	4
212	2
213	2
217	1
218	68
219	10
220	4
223	1
224	2
225	3
226	16
227	4
228	3
237	3
238	42
239	16
240	6
241	1
252	3
253	3
254	453
255	90
256	27
257	21
258	4
264	1
266	15
267	4
268	1
280	1
282	2
284	1
326	1
327	1
328	9
329	5
330	2
338	3
339	2
340	1
354	1
355	1
356	36
357	11
358	2
371	8
372	2
373	1
