Mass spectrum: L-Aspartic acid; GC-EI-TOF; MS; 3 TMS; BP:232
Name: L-Aspartic acid
Class: Natural Product
Formula: C4H7NO4
Exact mass: 133.03751
SMILES: OC(=O)CC(N)C(O)=O
InChI: InChI=1S/C4H7NO4/c5-2(4(8)9)1-3(6)7/h2H,1,5H2,(H,6,7)(H,8,9)/t2-/m0/s1
Instrument: Pegasus III TOF-MS system, Leco; GC 6890, Agilent Technologies
Instrument type: GC-EI-TOF
Ms type: MS
Ion mode: POSITIVE
Column name: DB-17MS
Retention time: 1171.72 sec
Base peak: 232
Derivative type: 3 TMS
m/z	relative intensity
82	2
83	7
84	30
85	14
86	29
87	13
88	9
89	8
91	2
93	1
95	1
96	4
97	3
98	39
99	27
100	914
101	100
102	47
103	52
104	5
105	8
106	1
110	1
111	1
112	4
113	8
114	20
115	59
116	24
117	191
118	26
119	40
120	3
121	4
124	2
125	1
126	5
128	24
129	18
130	70
131	71
132	54
133	151
134	30
135	17
136	4
137	1
140	4
141	4
142	61
143	23
144	23
145	7
146	13
147	421
148	85
149	68
150	12
151	4
152	1
153	1
154	2
155	2
156	3
157	3
158	12
159	6
161	8
162	2
163	52
164	8
165	4
166	1
167	1
168	1
169	1
170	4
171	7
172	23
173	9
174	38
175	8
176	9
177	12
178	2
179	1
180	1
181	1
184	3
185	1
186	2
187	1
188	36
189	20
190	12
191	6
192	1
193	1
194	1
199	1
200	2
201	3
202	37
203	13
204	16
205	8
206	4
207	2
208	1
209	1
210	1
212	1
213	1
214	3
215	5
216	57
217	16
218	240
219	56
220	25
221	16
222	5
223	2
228	1
230	7
231	10
232	999
233	155
234	33
235	3
236	1
244	7
245	5
246	3
261	1
262	3
263	1
264	1
290	1
291	3
292	10
293	5
305	6
306	12
307	5
308	1
333	5
335	1
348	2
349	2
