Mass spectrum: Spermine; GC-EI-TOF; MS; x TMS; BP:116
Name: Spermine
Class: Natural Product
Formula: C10H26N4
Exact mass: 202.21575
SMILES: NCCCNCCCCNCCCN
InChI: InChI=1S/C10H26N4/c11-5-3-9-13-7-1-2-8-14-10-4-6-12/h13-14H,1-12H2
Instrument: Pegasus III TOF-MS system, Leco; GC 6890, Agilent Technologies
Instrument type: GC-EI-TOF
Ms type: MS
Ion mode: POSITIVE
Column name: DB-17MS
Retention time: 1129.11 sec
Base peak: 116
Derivative type: x TMS
m/z	relative intensity
82	20
83	13
84	219
85	28
86	549
87	58
88	39
89	4
90	1
93	1
94	6
95	2
96	17
97	5
98	34
99	15
100	262
101	56
102	121
103	16
104	5
106	1
108	3
109	4
110	17
111	7
112	35
113	16
114	78
115	68
116	999
117	135
118	43
119	4
120	1
122	1
123	1
124	2
125	2
126	12
127	6
128	69
129	128
130	174
131	37
132	15
133	2
134	1
136	1
138	1
139	1
140	24
141	11
142	221
143	41
144	712
145	100
146	102
147	14
148	6
150	1
152	2
153	1
154	29
155	9
156	234
157	46
158	28
159	5
160	258
161	46
162	21
163	2
168	13
169	5
170	75
171	16
172	170
173	34
174	450
175	85
176	37
177	4
178	1
180	1
182	11
183	12
184	11
185	6
186	42
187	11
188	14
189	3
190	1
197	1
198	1
199	2
200	5
201	78
202	21
203	8
204	1
211	1
212	1
213	1
214	1
215	4
216	1
227	1
228	1
229	3
230	1
231	1
237	1
241	1
242	1
243	3
244	2
245	2
255	2
256	1
257	4
258	1
259	7
260	1
269	1
270	1
271	3
273	2
299	10
300	3
301	1
303	7
304	2
328	1
329	26
330	8
331	4
332	1
343	1
345	6
346	2
