Mass spectrum: rac-Glycerol 3-phosphoate; GC-EI-TOF; MS; 4 TMS; BP:101
Name: Glycerol 1-phosphate
Name: rac-Glycerol 3-phosphoate
Class: Natural Product
Formula: C3H9O6P
Exact mass: 172.01367
SMILES: OCC(O)COP(O)(O)=O
InChI: InChI=1S/C3H9O6P/c4-1-3(5)2-9-10(6,7)8/h3-5H,1-2H2,(H2,6,7,8)/t3-/m0/s1
Instrument: Pegasus III TOF-MS system, Leco; GC 6890, Agilent Technologies
Instrument type: GC-EI-TOF
Ms type: MS
Ion mode: POSITIVE
Column name: DB-17MS
Retention time: 842.963 sec
Base peak: 101
Derivative type: 4 TMS
m/z	relative intensity
82	1
83	8
84	13
85	69
86	12
87	72
88	35
89	88
90	13
91	16
92	10
93	11
94	3
95	4
96	5
97	6
98	11
99	50
100	10
101	999
102	111
103	847
104	89
105	73
106	10
107	20
108	3
109	8
110	1
111	13
112	3
113	160
114	21
115	186
116	193
117	158
118	25
119	71
120	11
121	36
122	5
123	15
124	2
125	2
126	1
127	10
128	9
129	464
130	91
131	415
132	56
133	603
134	86
135	166
136	19
137	54
138	6
139	7
140	1
141	1
142	1
143	6
144	1
145	17
146	4
147	967
148	154
149	134
150	18
151	46
152	6
153	12
154	1
155	3
157	2
159	7
160	1
161	7
162	3
163	37
164	7
165	19
166	4
167	16
168	3
169	3
170	1
171	1
172	1
173	2
174	1
175	10
176	4
177	17
178	5
179	19
180	5
181	71
182	12
183	29
184	6
185	4
186	1
187	2
188	1
189	22
190	6
191	79
192	19
193	89
194	18
195	78
196	14
197	23
198	5
199	3
200	2
201	2
202	1
203	64
204	19
205	42
206	9
207	167
208	36
209	31
210	14
211	453
212	76
213	45
214	6
215	3
216	1
217	21
218	108
219	54
220	16
221	11
222	3
223	4
224	2
225	103
226	33
227	91
228	16
229	7
230	1
237	4
238	1
239	3
240	4
241	97
242	21
243	53
244	9
245	4
246	1
247	1
248	1
249	2
250	1
251	2
252	1
253	20
254	6
255	18
256	101
257	20
258	9
259	1
265	1
267	3
268	2
269	22
270	7
271	6
272	1
281	2
282	2
283	26
284	14
285	81
286	21
287	12
288	2
289	1
297	4
298	59
299	992
300	262
301	146
302	27
303	8
304	2
305	2
306	1
307	2
308	2
309	2
310	2
311	3
312	2
313	18
314	48
315	200
316	65
317	32
318	7
319	2
320	1
326	1
327	14
328	45
329	16
330	6
331	1
337	1
339	1
340	7
341	69
342	34
343	17
344	6
345	2
346	1
347	2
348	2
349	2
350	2
351	2
352	2
353	2
354	1
355	6
356	51
357	630
358	183
359	94
360	19
361	5
362	1
369	6
370	84
371	27
372	17
373	46
374	17
375	9
376	3
377	1
385	1
386	11
387	69
388	28
389	30
390	11
391	5
392	2
414	1
415	8
416	4
417	4
418	1
429	1
444	13
445	82
446	33
447	16
448	4
449	1
