Mass spectrum: Benzyldiphenylphosphine oxide; APCI-ITFT; MS2; CE:45 HCD;
Name: Benzyldiphenylphosphine oxide
Formula: C19H17OP
Exact mass: 292.102
SMILES: C1=CC=C(C=C1)CP(=O)(C2=CC=CC=C2)C3=CC=CC=C3
InChI: InChI=1S/C19H17OP/c20-21(18-12-6-2-7-13-18,19-14-8-3-9-15-19)16-17-10-4-1-5-11-17/h1-15H,16H2
Instrument: LTQ-Orbitrap
Instrument type: APCI-ITFT
Ms type: MS2
Ion mode: POSITIVE
Collision energy: 45 HCD
Ionization: APCI
Resolution: 15000
Retention time: 0.58-0.89 min
Precursor m/z: 293.110
Precursor type: [M+H]+
m/z	relative intensity
91.0541	388
125.0151	10
185.0518	9
201.0468	50
219.0574	53
233.0732	9
293.1097	999
294.1130	8
