Mass spectrum: 1-Aminoanthraquinone; LC-APCI-ITFT; MS2; CE:35;
Name: 1-Aminoanthraquinone
Formula: C14H9NO2
Exact mass: 223.063
SMILES: C1=CC=C2C(=C1)C(=O)C3=C(C2=O)C(=CC=C3)N
InChI: InChI=1S/C14H9NO2/c15-11-7-3-6-10-12(11)14(17)9-5-2-1-4-8(9)13(10)16/h1-7H,15H2
Instrument: LTQ-Orbitrap
Instrument type: LC-APCI-ITFT
Ms type: MS2
Ion mode: POSITIVE
Collision energy: 35
Ionization: APCI
Resolution: 15000
Retention time: 27.02 min
Precursor m/z: 224.072
Precursor type: [M+H]+
m/z	relative intensity
105.0338	56
130.0292	9
146.0243	138
168.0817	6
178.0662	17
196.0769	21
206.0614	71
224.0719	999
225.0754	259
