Mass spectrum: Kanamycin A; LC-ESI-QTOF; MS2; CE:10 eV;
Name: Kanamycin A
Formula: C18H36N4O11
Exact mass: 484.238
SMILES: C1[C@H]([C@@H]([C@H]([C@@H]([C@H]1N)O[C@@H]2[C@@H]([C@H]([C@@H]([C@H](O2)CN)O)O)O)O)O[C@@H]3[C@@H]([C@H]([C@@H]([C@H](O3)CO)O)N)O)N
InChI: InChI=1S/C18H36N4O11/c19-2-6-10(25)12(27)13(28)18(30-6)33-16-5(21)1-4(20)15(14(16)29)32-17-11(26)8(22)9(24)7(3-23)31-17/h4-18,23-29H,1-3,19-22H2/t4-,5+,6-,7-,8+,9-,10-,11-,12+,13-,14-,15+,16-,17-,18-/m1/s1
Instrument: Bruker micrOTOF-Q
Instrument type: LC-ESI-QTOF
Ms type: MS2
Ion mode: POSITIVE
Collision energy: 10 eV
Ionization: ESI
Resolution: 12000
Column name: Waters Acquity
Retention time: 22 sec
Precursor m/z: 485.245
Precursor type: [M+H]+
m/z	relative intensity
115.039358	48
126.054771	20
127.040288	13
144.065103	220
145.066736	20
162.076100	401
163.106634	397
164.109231	31
205.119124	140
206.121712	14
243.127800	144
243.629221	33
288.154897	9
306.163434	8
324.177677	999
325.180693	153
326.182655	28
348.178211	10
366.185665	13
