Mass spectrum: Kanamycin A; LC-ESI-QTOF; MS2; CE:30 eV;
Name: Kanamycin A
Formula: C18H36N4O11
Exact mass: 484.238
SMILES: C1[C@H]([C@@H]([C@H]([C@@H]([C@H]1N)O[C@@H]2[C@@H]([C@H]([C@@H]([C@H](O2)CN)O)O)O)O)O[C@@H]3[C@@H]([C@H]([C@@H]([C@H](O3)CO)O)N)O)N
InChI: InChI=1S/C18H36N4O11/c19-2-6-10(25)12(27)13(28)18(30-6)33-16-5(21)1-4(20)15(14(16)29)32-17-11(26)8(22)9(24)7(3-23)31-17/h4-18,23-29H,1-3,19-22H2/t4-,5+,6-,7-,8+,9-,10-,11-,12+,13-,14-,15+,16-,17-,18-/m1/s1
Instrument: Bruker micrOTOF-Q
Instrument type: LC-ESI-QTOF
Ms type: MS2
Ion mode: POSITIVE
Collision energy: 30 eV
Ionization: ESI
Resolution: 12000
Column name: Waters Acquity
Retention time: 22 sec
Precursor m/z: 485.245
Precursor type: [M+H]+
m/z	relative intensity
97.025804	99
99.043454	41
102.052812	256
109.071788	39
110.061213	144
114.056032	45
115.039144	256
126.054761	84
128.069453	106
144.066077	253
145.096530	326
146.081469	97
162.075928	223
163.107333	999
187.106587	137
205.119978	104
