Mass spectrum: Nitrin; LC-APCI-ITFT; MS2; CE:90 HCD;
Name: Nitrin
Formula: C13H13N3
Exact mass: 211.111
SMILES: C1=CC=C(C=C1)NN=CC2=CC=CC=C2N
InChI: InChI=1S/C13H13N3/c14-13-9-5-4-6-11(13)10-15-16-12-7-2-1-3-8-12/h1-10,16H,14H2
Instrument: LTQ-Orbitrap
Instrument type: LC-APCI-ITFT
Ms type: MS2
Ion mode: POSITIVE
Collision energy: 35 CID
Ionization: APCI
Resolution: 7500
Retention time: 9.06 min
Precursor m/z: 212.119
Precursor type: [M+H]+
m/z	relative intensity
65.0378	680
66.0456	37
77.0379	56
79.0535	33
80.0487	64
92.0489	973
93.0567	999
94.0643	92
103.0411	26
104.0488	31
106.0646	581
107.0598	41
108.0439	367
108.0678	63
119.0600	261
120.0678	221
121.0756	65
167.0729	280
168.0810	135
195.0917	82
