Mass spectrum: Chelidonin; LC-ESI-QTOF; MS2; CE:15 eV; [M+H]+
Name: Chelidonin
Name: (+)-Chelidonine
Name: [1,3]Benzodioxolo[5,6-c]-1,3-dioxolo[4,5-i]phenanthridin-6-ol, 5b,6,7,12b,13,14-hexahydro-13-methyl-, (5bR,6S,12bS)-
Formula: C20H19NO5
Exact mass: 353.126323
SMILES: CN1CC2=C(C=CC3=C2OCO3)[C@@H]4[C@H]1C5=CC6=C(C=C5C[C@@H]4O)OCO6
InChI: InChI=1S/C20H19NO5/c1-21-7-13-11(2-3-15-20(13)26-9-23-15)18-14(22)4-10-5-16-17(25-8-24-16)6-12(10)19(18)21/h2-3,5-6,14,18-19,22H,4,7-9H2,1H3/t14-,18-,19+/m0/s1
Instrument: Bruker micrOTOF-Q
Instrument type: LC-ESI-QTOF
Ms type: MS2
Ion mode: POSITIVE
Collision energy: 15 eV
Ionization: ESI
Resolution: 12000
Column name: Waters Acquity
Retention time: 319.5 sec
Precursor m/z: 354.1345
Precursor type: [M+H]+
m/z	relative intensity
135.044090	10
161.059417	5
163.037921	6
173.058985	2
176.069933	2
188.069476	1
217.064262	2
235.074687	1
237.088827	2
245.058738	2
247.074622	46
248.077730	7
249.084970	1
263.069442	2
265.084928	11
266.086344	2
267.066777	2
275.069243	489
276.072457	87
277.075843	10
278.078822	1
279.064367	2
293.079939	19
294.082997	3
295.095169	71
296.098408	12
297.100602	1
303.063770	15
304.067777	3
305.079460	394
306.083071	76
307.089209	14
308.094266	2
323.089931	368
324.093193	69
325.096267	10
326.099525	1
334.105573	10
335.108811	2
336.121034	81
337.124388	17
338.127519	2
352.116235	51
353.119072	12
354.132312	999
355.135060	208
356.137434	27
357.140093	3
