Mass spectrum: 1-Isopropyl-5-methyl-1H-indole-2,3-dione; LC-APCI-ITFT; MS2; CE:120 HCD;
Name: 1-Isopropyl-5-methyl-1H-indole-2,3-dione
Formula: C12H13NO2
Exact mass: 203.095
SMILES: CC1=CC2=C(C=C1)N(C(=O)C2=O)C(C)C
InChI: InChI=1S/C12H13NO2/c1-7(2)13-10-5-4-8(3)6-9(10)11(14)12(13)15/h4-7H,1-3H3
Instrument: LTQ-Orbitrap
Instrument type: LC-APCI-ITFT
Ms type: MS2
Ion mode: POSITIVE
Collision energy: 120 HCD
Ionization: APCI
Resolution: 30000
Retention time: 13.08 min
Precursor m/z: 204.101
Precursor type: [M+H]+
m/z	relative intensity
53.0378	109
65.0378	113
77.0378	165
79.0535	666
89.0379	999
90.0331	58
91.0535	560
95.0485	210
104.0488	31
105.0440	141
106.0644	576
107.0484	40
116.0488	919
119.0359	50
119.0597	38
132.0437	38
134.0593	138
144.0437	118
144.0550	51
162.0544	253
