Mass spectrum: Glucolesquerellin; LC-ESI-QTOF; MS2; CE:20 eV;
Name: Glucolesquerellin
Formula: C14H27NO9S3
Exact mass: 449.085
SMILES: CSCCCCCCC(=NOS(=O)(=O)O)S[C@H]1[C@@H]([C@H]([C@@H]([C@H](O1)CO)O)O)O
InChI: InChI=1S/C14H27NO9S3/c1-25-7-5-3-2-4-6-10(15-24-27(20,21)22)26-14-13(19)12(18)11(17)9(8-16)23-14/h9,11-14,16-19H,2-8H2,1H3,(H,20,21,22)/t9-,11-,12+,13-,14+/m1/s1
Instrument: Bruker micrOTOF-Q
Instrument type: LC-ESI-QTOF
Ms type: MS2
Ion mode: NEGATIVE
Collision energy: 20 eV
Ionization: ESI
Resolution: 12000
Column name: Waters Acquity
Retention time: 244 sec (MSMS)
Precursor m/z: 448.0764
Precursor type: [M-H]-
m/z	relative intensity
95.949382	252
96.957279	700
98.953423	73
195.032009	54
206.066364	62
255.018354	102
259.011029	233
274.988822	202
448.075482	999
449.078316	220
450.073854	183
