Mass spectrum: 1-Pyrenemethanol; LC-APCI-ITFT; MS2; CE:35;
Name: 1-Pyrenemethanol
Formula: C17H12O
Exact mass: 232.089
SMILES: C1=CC2=C3C(=C1)C=CC4=C(C=CC(=C43)C=C2)CO
InChI: InChI=1S/C17H12O/c18-10-14-7-6-13-5-4-11-2-1-3-12-8-9-15(14)17(13)16(11)12/h1-9,18H,10H2
Instrument: LTQ-Orbitrap
Instrument type: LC-APCI-ITFT
Ms type: MS2
Ion mode: POSITIVE
Collision energy: 35
Ionization: APCI
Resolution: 15000
Retention time: 29.79 min
Precursor m/z: 231.080
Precursor type: [M-H]+
m/z	relative intensity
203.0856	999
216.0936	64
