Mass spectrum: 1,2-Di-O-sinapoyl-beta-D-glucose; LC-ESI-QTOF; MS2; CE:20 eV;
Name: 1,2-Di-O-sinapoyl-beta-D-glucose
Formula: C28H32O14
Exact mass: 592.179
SMILES: COC1=CC(=CC(=C1O)OC)/C=C/C(=O)O[C@@H]2[C@H]([C@@H]([C@H](O[C@H]2OC(=O)/C=C/C3=CC(=C(C(=C3)OC)O)OC)CO)O)O
InChI: InChI=1S/C28H32O14/c1-36-16-9-14(10-17(37-2)23(16)32)5-7-21(30)41-27-26(35)25(34)20(13-29)40-28(27)42-22(31)8-6-15-11-18(38-3)24(33)19(12-15)39-4/h5-12,20,25-29,32-35H,13H2,1-4H3/b7-5+,8-6+/t20-,25-,26+,27-,28+/m1/s1
Instrument: Bruker micrOTOF-Q
Instrument type: LC-ESI-QTOF
Ms type: MS2
Ion mode: NEGATIVE
Collision energy: 20 eV
Ionization: ESI
Resolution: 12000
Column name: Waters Acquity
Retention time: 445 sec
Precursor m/z: 591.213
Precursor type: [M-H]-
m/z	relative intensity
149.008221	2
164.036012	8
179.062125	7
190.019300	5
191.028456	2
205.048607	158
206.051976	22
207.051447	3
208.036688	16
209.039994	3
221.083355	3
223.063134	999
224.066824	122
225.068615	17
232.040879	4
237.079203	3
247.067505	40
248.071285	7
249.075285	2
265.081044	12
266.087080	2
277.084322	2
289.085625	4
295.096631	3
325.111834	6
349.113306	2
352.101595	41
353.106614	13
354.105654	2
367.127232	950
368.130207	177
369.132083	35
370.134691	4
385.139503	18
386.142338	4
591.212645	63
592.214972	20
593.219251	4
