Mass spectrum: 1H-Benzo[g]indole; LC-APCI-ITFT; MS2; CE:180 HCD;
Name: 1H-Benzo[g]indole
Formula: C12H9N
Exact mass: 167.073
SMILES: C1=CC=C2C(=C1)C=CC3=C2NC=C3
InChI: InChI=1S/C12H9N/c1-2-4-11-9(3-1)5-6-10-7-8-13-12(10)11/h1-8,13H
Instrument: LTQ-Orbitrap
Instrument type: LC-APCI-ITFT
Ms type: MS2
Ion mode: POSITIVE
Collision energy: 180 HCD
Ionization: APCI
Resolution: 30000
Retention time: 22.62 min
Precursor m/z: 167.073
Precursor type: [M]+*
m/z	relative intensity
63.0222	24
65.0379	31
89.0380	131
91.0536	77
102.0458	24
113.0381	26
115.0536	999
139.0537	808
140.0489	50
140.0570	130
140.0614	101
141.0693	45
166.0647	150
167.0725	67
