Mass spectrum: 1H-Benzo[g]indole; LC-APCI-ITFT; MS2; CE:120 HCD;
Name: 1H-Benzo[g]indole
Formula: C12H9N
Exact mass: 167.073
SMILES: C1=CC=C2C(=C1)C=CC3=C2NC=C3
InChI: InChI=1S/C12H9N/c1-2-4-11-9(3-1)5-6-10-7-8-13-12(10)11/h1-8,13H
Instrument: LTQ-Orbitrap
Instrument type: LC-APCI-ITFT
Ms type: MS2
Ion mode: POSITIVE
Collision energy: 120 HCD
Ionization: APCI
Resolution: 30000
Retention time: 22.62 min
Precursor m/z: 167.073
Precursor type: [M]+*
m/z	relative intensity
91.0537	24
115.0537	712
116.0615	11
139.0539	82
140.0573	109
140.0616	153
141.0652	35
141.0693	904
153.0570	12
166.0648	113
167.0725	999
168.0760	32
168.0803	89
