Mass spectrum: Kanamycin A; LC-ESI-QTOF; MS2; CE:20 eV;
Name: Kanamycin A
Formula: C18H36N4O11
Exact mass: 484.238
SMILES: C1[C@H]([C@@H]([C@H]([C@@H]([C@H]1N)O[C@@H]2[C@@H]([C@H]([C@@H]([C@H](O2)CN)O)O)O)O)O[C@@H]3[C@@H]([C@H]([C@@H]([C@H](O3)CO)O)N)O)N
InChI: InChI=1S/C18H36N4O11/c19-2-6-10(25)12(27)13(28)18(30-6)33-16-5(21)1-4(20)15(14(16)29)32-17-11(26)8(22)9(24)7(3-23)31-17/h4-18,23-29H,1-3,19-22H2/t4-,5+,6-,7-,8+,9-,10-,11-,12+,13-,14-,15+,16-,17-,18-/m1/s1
Instrument: Bruker micrOTOF-Q
Instrument type: LC-ESI-QTOF
Ms type: MS2
Ion mode: POSITIVE
Collision energy: 20 eV
Ionization: ESI
Resolution: 12000
Column name: Waters Acquity
Retention time: 22 sec
Precursor m/z: 485.245
Precursor type: [M+H]+
m/z	relative intensity
97.026459	30
102.053661	55
114.055068	22
115.039348	132
120.065158	21
126.055163	50
144.065170	258
145.094088	78
146.081499	25
162.075920	314
163.107469	999
187.107758	81
205.118756	256
206.121227	28
241.118166	13
288.156619	17
324.177987	31
