Mass spectrum: alpha-(o-Nitro-p-tolylazo)acetoacetanilide; LC-APCI-ITFT; MS2; CE:35;
Name: alpha-(o-Nitro-p-tolylazo)acetoacetanilide
Formula: C17H16N4O4
Exact mass: 340.117
SMILES: CC1=CC(=C(C=C1)N=NC(C(=O)C)C(=O)NC2=CC=CC=C2)[N+](=O)[O-]
InChI: InChI=1S/C17H16N4O4/c1-11-8-9-14(15(10-11)21(24)25)19-20-16(12(2)22)17(23)18-13-6-4-3-5-7-13/h3-10,16H,1-2H3,(H,18,23)
Instrument: LTQ-Orbitrap
Instrument type: LC-APCI-ITFT
Ms type: MS2
Ion mode: POSITIVE
Collision energy: 35
Ionization: APCI
Resolution: 15000
Retention time: 46.89 min
Precursor m/z: 341.126
Precursor type: [M+H]+
m/z	relative intensity
150.0670	365
153.0666	30
167.0699	7
176.0717	52
178.0621	313
220.0731	80
248.0683	999
266.0790	16
280.0947	28
295.1211	9
323.1161	106
