Mass spectrum: Nitrin; LC-APCI-ITFT; MS2; CE:35 CID;
Name: Nitrin
Formula: C13H13N3
Exact mass: 211.111
SMILES: C1=CC=C(C=C1)NN=CC2=CC=CC=C2N
InChI: InChI=1S/C13H13N3/c14-13-9-5-4-6-11(13)10-15-16-12-7-2-1-3-8-12/h1-10,16H,14H2
Instrument: LTQ-Orbitrap
Instrument type: LC-APCI-ITFT
Ms type: MS2
Ion mode: POSITIVE
Collision energy: 35 CID
Ionization: APCI
Resolution: Low (ion trap)
Retention time: 9.06 min
Precursor m/z: 212.119
Precursor type: [M+H]+
m/z	relative intensity
94.1667	282
106.1667	184
119.1667	162
120.1667	79
168.0833	115
185.1667	506
195.1667	999
