Mass spectrum: [1-(4-methoxyanilino)-1-oxopropan-2-yl] 6-oxo-1-propylpyridazine-3-carboxylate; APCI-ITFT; MS2; CE:75 CID;
Name: [1-(4-methoxyanilino)-1-oxopropan-2-yl] 6-oxo-1-propylpyridazine-3-carboxylate
Formula: C18H21N3O5
Exact mass: 359.1481
SMILES: CCCN1C(=O)C=CC(=N1)C(=O)OC(C)C(=O)NC2=CC=C(C=C2)OC
InChI: InChI=1S/C18H21N3O5/c1-4-11-21-16(22)10-9-15(20-21)18(24)26-12(2)17(23)19-13-5-7-14(25-3)8-6-13/h5-10,12H,4,11H2,1-3H3,(H,19,23)
Instrument: LTQ-Orbitrap
Instrument type: APCI-ITFT
Ms type: MS2
Ion mode: POSITIVE
Collision energy: 75 CID
Ionization: APCI
Resolution: 60000
Retention time: 1.24 min
Precursor m/z: 155.05
m/z	relative intensity
67.0285	249
68.0125	33
95.0236	136
113.0342	972
123.0186	407
141.0292	999
155.0449	244
