Mass spectrum: Methoxyfenozide; LC-ESI-QFT; MS2; CE: 15; R=17500; [M-H]-
Name: Methoxyfenozide
Name: N'-tert-butyl-N'-(3,5-dimethylbenzoyl)-3-methoxy-2-methylbenzohydrazide
Formula: C22H28N2O3
Exact mass: 368.2100
SMILES: COC1=CC=CC(C(=O)NN(C(=O)C2=CC(C)=CC(C)=C2)C(C)(C)C)=C1C
InChI: InChI=1S/C22H28N2O3/c1-14-11-15(2)13-17(12-14)21(26)24(22(4,5)6)23-20(25)18-9-8-10-19(27-7)16(18)3/h8-13H,1-7H3,(H,23,25)
Instrument: Q Exactive Orbitrap (Thermo Scientific)
Instrument type: LC-ESI-QFT
Ms type: MS2
Ion mode: NEGATIVE
Ionization: ESI
Fragmentation mode: HCD
Collision energy: 15
Resolution: 17500
Column name: Acquity BEH C18 1.7um, 2.1x150mm (Waters)
Retention time: 17.518 min
Base peak: 307.0977
Precursor m/z: 367.2027
Precursor type: [M-H]-
Precursor intensity: 58946399.17187
m/z	relative intensity	assigned
105.0708	1	C8H9-
149.0608	576	C9H9O2-
165.0557	8	C9H9O3-
204.1393	14	C13H18NO-
310.1331	3	C18H18N2O3-
311.14	9	C18H19N2O3-
367.2026	999	C22H27N2O3-
