Mass spectrum: Norflurazon; LC-ESI-QFT; MS2; CE: 15; R=17500; [M+H]+
Name: Norflurazon
Name: 4-chloro-5-(methylamino)-2-[3-(trifluoromethyl)phenyl]pyridazin-3-one
Formula: C12H9ClF3N3O
Exact mass: 303.0386
SMILES: CNC1=C(Cl)C(=O)N(N=C1)C1=CC=CC(=C1)C(F)(F)F
InChI: InChI=1S/C12H9ClF3N3O/c1-17-9-6-18-19(11(20)10(9)13)8-4-2-3-7(5-8)12(14,15)16/h2-6,17H,1H3
Instrument: Q Exactive Orbitrap (Thermo Scientific)
Instrument type: LC-ESI-QFT
Ms type: MS2
Ion mode: POSITIVE
Ionization: ESI
Fragmentation mode: HCD
Collision energy: 15
Resolution: 17500
Column name: Acquity BEH C18 1.7um, 2.1x150mm (Waters)
Retention time: 16.641 min
Base peak: 79.0212
Precursor m/z: 304.0459
Precursor type: [M+H]+
Precursor intensity: 16971547.5
m/z	relative intensity	assigned
284.0401	2	C12H9ClF2N3O+
304.0457	999	C12H10ClF3N3O+
