Mass spectrum: 5,5-Dimethylbarbituric acid; LC-ESI-QFT; MS2; CE: 75; R=17500; [M-H]-
Name: 5,5-Dimethylbarbituric acid
Name: 5,5-dimethyl-1,3-diazinane-2,4,6-trione
Formula: C6H8N2O3
Exact mass: 156.0535
SMILES: CC1(C)C(=O)NC(=O)NC1=O
InChI: InChI=1S/C6H8N2O3/c1-6(2)3(9)7-5(11)8-4(6)10/h1-2H3,(H2,7,8,9,10,11)
Instrument: Q Exactive Orbitrap (Thermo Scientific)
Instrument type: LC-ESI-QFT
Ms type: MS2
Ion mode: NEGATIVE
Ionization: ESI
Fragmentation mode: HCD
Collision energy: 75
Resolution: 17500
Column name: Acquity BEH C18 1.7um, 2.1x150mm (Waters)
Retention time: 17.343 min
Base peak: 329.1063
Precursor m/z: 155.0462
Precursor type: [M-H]-
Precursor intensity: 15746666.29297
m/z	relative intensity	assigned
54.0348	3	C3H4N-
64.0067	82	C3N2-
65.0145	71	C3HN2-
65.9985	999	C3NO-
77.0145	1	C4HN2-
79.0302	107	C4H3N2-
80.0016	5	C3N2O-
87.0565	1	C3H7N2O-
97.0169	17	C4H3NO2-
98.0248	1	C4H4NO2-
109.0043	18	C4HN2O2-
110.0121	24	C4H2N2O2-
123.0201	1	C5H3N2O2-
125.0356	18	C5H5N2O2-
140.0227	17	C5H4N2O3-
141.0306	9	C5H5N2O3-
155.0462	13	C6H7N2O3-
