Mass spectrum: 2,4,6-Trimethylbenzoic acid; LC-ESI-QFT; MS2; CE: 30; R=17500; [M-H]-
Name: 2,4,6-Trimethylbenzoic acid
Formula: C10H12O2
Exact mass: 164.0837
SMILES: CC1=CC(C)=C(C(O)=O)C(C)=C1
InChI: InChI=1S/C10H12O2/c1-6-4-7(2)9(10(11)12)8(3)5-6/h4-5H,1-3H3,(H,11,12)
Instrument: Q Exactive Orbitrap (Thermo Scientific)
Instrument type: LC-ESI-QFT
Ms type: MS2
Ion mode: NEGATIVE
Ionization: ESI
Fragmentation mode: HCD
Collision energy: 30
Resolution: 17500
Column name: Acquity BEH C18 1.7um, 2.1x150mm (Waters)
Retention time: 16.564 min
Base peak: 206.007
Precursor m/z: 163.0765
Precursor type: [M-H]-
Precursor intensity: 10002091.89063
m/z	relative intensity	assigned
119.0866	999	C9H11-
121.0659	4	C8H9O-
136.0531	1	C8H8O2-
163.0765	486	C10H11O2-
