Mass spectrum: Nicotinic acid; LC-ESI-QFT; MS2; CE: 15; R=17500; [M+H]+
Name: Nicotinic acid
Name: pyridine-3-carboxylic acid
Formula: C6H5NO2
Exact mass: 123.0320
SMILES: OC(=O)C1=CC=CN=C1
InChI: InChI=1S/C6H5NO2/c8-6(9)5-2-1-3-7-4-5/h1-4H,(H,8,9)
Instrument: Q Exactive Orbitrap (Thermo Scientific)
Instrument type: LC-ESI-QFT
Ms type: MS2
Ion mode: POSITIVE
Ionization: ESI
Fragmentation mode: HCD
Collision energy: 15
Resolution: 17500
Column name: Acquity BEH C18 1.7um, 2.1x150mm (Waters)
Retention time: 2.480 min
Base peak: 79.0211
Precursor m/z: 124.0393
Precursor type: [M+H]+
Precursor intensity: 4920055
m/z	relative intensity	assigned
78.0337	2	C5H4N+
79.0416	1	C5H5N+
80.0494	45	C5H6N+
96.0444	28	C5H6NO+
124.0393	999	C6H6NO2+
