Mass spectrum: Nitarsone; LC-ESI-QFT; MS2; CE: 15; R=17500; [M-H]-
Name: Nitarsone
Name: (4-nitrophenyl)arsonic acid
Formula: C6H6AsNO5
Exact mass: 246.9462
SMILES: O[As](O)(=O)C1=CC=C(C=C1)[N+]([O-])=O
InChI: InChI=1S/C6H6AsNO5/c9-7(10,11)5-1-3-6(4-2-5)8(12)13/h1-4H,(H2,9,10,11)
Instrument: Q Exactive Orbitrap (Thermo Scientific)
Instrument type: LC-ESI-QFT
Ms type: MS2
Ion mode: NEGATIVE
Ionization: ESI
Fragmentation mode: HCD
Collision energy: 15
Resolution: 17500
Column name: Acquity BEH C18 1.7um, 2.1x150mm (Waters)
Retention time: 8.690 min
Base peak: 198.9364
Precursor m/z: 245.9389
Precursor type: [M-H]-
Precursor intensity: 609055.4987793
m/z	relative intensity	assigned
106.912	14	AsO2-
108.0216	23	C6H4O2-
122.9069	101	AsO3-
138.0197	625	C6H4NO3-
245.9389	999	C6H5AsNO5-
