Mass spectrum: Topramezone; LC-ESI-QFT; MS2; CE: 45; R=17500; [M-H]-
Name: Topramezone
Formula: C16H17N3O5S
Exact mass: 363.0889
SMILES: CN1N=CC(C(=O)C2=C(C)C(C3=NOCC3)=C(C=C2)S(C)(=O)=O)=C1O
InChI: InChI=1S/C16H17N3O5S/c1-9-10(15(20)11-8-17-19(2)16(11)21)4-5-13(25(3,22)23)14(9)12-6-7-24-18-12/h4-5,8,21H,6-7H2,1-3H3
Instrument: Q Exactive Orbitrap (Thermo Scientific)
Instrument type: LC-ESI-QFT
Ms type: MS2
Ion mode: NEGATIVE
Ionization: ESI
Fragmentation mode: HCD
Collision energy: 45
Resolution: 17500
Column name: Acquity BEH C18 1.7um, 2.1x150mm (Waters)
Retention time: 12.785 min
Base peak: 200.0387
Precursor m/z: 362.0816
Precursor type: [M-H]-
Precursor intensity: 510020.9685059
m/z	relative intensity	assigned
63.9624	145	O2S-
78.9859	198	CH3O2S-
97.0408	224	C4H5N2O-
130.0662	352	C9H8N-
131.0378	42	C8H5NO-
133.0296	51	C8H5O2-
147.0326	192	C8H5NO2-
179.0048	41	C8H5NO2S-
179.0174	110	C9H7O2S-
194.0281	751	C9H8NO2S-
210.0231	80	C9H8NO3S-
240.0778	106	C13H10N3O2-
254.0577	172	C13H8N3O3-
254.0934	48	C14H12N3O2-
256.0724	45	C13H10N3O3-
282.0875	60	C15H12N3O3-
318.0555	497	C14H12N3O4S-
332.0686	24	C15H14N3O4S-
334.0504	999	C14H12N3O5S-
362.0822	55	C16H16N3O5S-
