Mass spectrum: 3,3`,5,5`-Tetrabromobisphenol A; LC-ESI-QFT; MS2; CE: 90; R=17500; [M-H]-
Name: 3,3',5,5'-Tetrabromobisphenol A
Name: Tetrabromobisphenol A
Name: 2,6-dibromo-4-[2-(3,5-dibromo-4-hydroxyphenyl)propan-2-yl]phenol
Formula: C15H12Br4O2
Exact mass: 539.7571
SMILES: CC(C)(C1=CC(Br)=C(O)C(Br)=C1)C1=CC(Br)=C(O)C(Br)=C1
InChI: InChI=1S/C15H12Br4O2/c1-15(2,7-3-9(16)13(20)10(17)4-7)8-5-11(18)14(21)12(19)6-8/h3-6,20-21H,1-2H3
Instrument: Q Exactive Orbitrap (Thermo Scientific)
Instrument type: LC-ESI-QFT
Ms type: MS2
Ion mode: NEGATIVE
Ionization: ESI
Fragmentation mode: HCD
Collision energy: 90
Resolution: 17500
Column name: Acquity BEH C18 1.7um, 2.1x150mm (Waters)
Retention time: 19.390 min
Base peak: 542.7457
Precursor m/z: 538.7498
Precursor type: [M-H]-
Precursor intensity: 1444064.770508
m/z	relative intensity	assigned
78.9189	999	Br-
168.9296	1	C6H2BrO-
