Mass spectrum: CP-122721; LC-ESI-QFT; MS2; CE: 15; R=17500; [M+H]+
Name: CP-122721
Name: (2S,3S)-N-[[2-methoxy-5-(trifluoromethoxy)phenyl]methyl]-2-phenylpiperidin-3-amine
Formula: C20H23F3N2O2
Exact mass: 380.1712
SMILES: COC1=C(CN[C@H]2CCCN[C@H]2C2=CC=CC=C2)C=C(OC(F)(F)F)C=C1
InChI: InChI=1S/C20H23F3N2O2/c1-26-18-10-9-16(27-20(21,22)23)12-15(18)13-25-17-8-5-11-24-19(17)14-6-3-2-4-7-14/h2-4,6-7,9-10,12,17,19,24-25H,5,8,11,13H2,1H3/t17-,19-/m0/s1
Instrument: Q Exactive Orbitrap (Thermo Scientific)
Instrument type: LC-ESI-QFT
Ms type: MS2
Ion mode: POSITIVE
Ionization: ESI
Fragmentation mode: HCD
Collision energy: 15
Resolution: 17500
Column name: Acquity BEH C18 1.7um, 2.1x150mm (Waters)
Retention time: 15.712 min
Base peak: 79.0211
Precursor m/z: 381.1784
Precursor type: [M+H]+
Precursor intensity: 51965490.28125
m/z	relative intensity	assigned
160.112	328	C11H14N+
205.0466	3	C9H8F3O2+
364.1517	2	C20H21F3NO2+
381.1783	999	C20H24F3N2O2+
