Mass spectrum: 4,4`-Sulfonyldiphenol; LC-ESI-QFT; MS2; CE: 75; R=17500; [M+H]+
Name: 4,4'-Sulfonyldiphenol
Name: 4-(4-hydroxyphenyl)sulfonylphenol
Formula: C12H10O4S
Exact mass: 250.0300
SMILES: OC1=CC=C(C=C1)S(=O)(=O)C1=CC=C(O)C=C1
InChI: InChI=1S/C12H10O4S/c13-9-1-5-11(6-2-9)17(15,16)12-7-3-10(14)4-8-12/h1-8,13-14H
Instrument: Q Exactive Orbitrap (Thermo Scientific)
Instrument type: LC-ESI-QFT
Ms type: MS2
Ion mode: POSITIVE
Ionization: ESI
Fragmentation mode: HCD
Collision energy: 75
Resolution: 17500
Column name: Acquity BEH C18 1.7um, 2.1x150mm (Waters)
Retention time: 13.605 min
Base peak: 79.0211
Precursor m/z: 251.0373
Precursor type: [M+H]+
Precursor intensity: 1362297.875
m/z	relative intensity	assigned
53.0023	11	C3HO+
53.0386	6	C4H5+
55.0179	16	C3H3O+
61.0107	15	C2H5S+
65.0386	999	C5H5+
66.0464	3	C5H6+
68.9971	9	C3HO2+
69.0336	2	C4H5O+
71.0128	7	C3H3O2+
79.0179	3	C5H3O+
81.0335	67	C5H5O+
83.0128	1	C4H3O2+
93.0336	23	C6H5O+
94.0414	35	C6H6O+
95.0491	2	C6H7O+
97.0284	4	C5H5O2+
109.0285	182	C6H5O2+
110.0363	10	C6H6O2+
111.0441	269	C6H7O2+
122.0371	2	C7H6O2+
141.0007	5	C6H5O2S+
156.9955	7	C6H5O3S+
