Mass spectrum: Sulfanilamide; LC-ESI-QFT; MS2; CE: 30; R=17500; [M-H]-
Name: Sulfanilamide
Name: 4-aminobenzenesulfonamide
Formula: C6H8N2O2S
Exact mass: 172.0306
SMILES: NC1=CC=C(C=C1)S(N)(=O)=O
InChI: InChI=1S/C6H8N2O2S/c7-5-1-3-6(4-2-5)11(8,9)10/h1-4H,7H2,(H2,8,9,10)
Instrument: Q Exactive Orbitrap (Thermo Scientific)
Instrument type: LC-ESI-QFT
Ms type: MS2
Ion mode: NEGATIVE
Ionization: ESI
Fragmentation mode: HCD
Collision energy: 30
Resolution: 17500
Column name: Acquity BEH C18 1.7um, 2.1x150mm (Waters)
Retention time: 13.505 min
Base peak: 207.0121
Precursor m/z: 171.0234
Precursor type: [M-H]-
Precursor intensity: 547921.9052734
m/z	relative intensity	assigned
63.9625	13	O2S-
77.9654	3	NO2S-
78.9734	11	HNO2S-
79.9812	47	H2NO2S-
107.0613	7	C6H7N2-
171.0234	999	C6H7N2O2S-
