Mass spectrum: Cetirizine dihydrochloride; LC-ESI-QFT; MS2; CE: 75; R=17500; [M+H]+
Name: Cetirizine
Name: 2-[2-[4-[(4-chlorophenyl)-phenylmethyl]piperazin-1-yl]ethoxy]acetic acid
Formula: C21H25ClN2O3
Exact mass: 388.1554
SMILES: OC(=O)COCCN1CCN(CC1)C(C1=CC=CC=C1)C1=CC=C(Cl)C=C1
InChI: InChI=1S/C21H25ClN2O3/c22-19-8-6-18(7-9-19)21(17-4-2-1-3-5-17)24-12-10-23(11-13-24)14-15-27-16-20(25)26/h1-9,21H,10-16H2,(H,25,26)
Instrument: Q Exactive Orbitrap (Thermo Scientific)
Instrument type: LC-ESI-QFT
Ms type: MS2
Ion mode: POSITIVE
Ionization: ESI
Fragmentation mode: HCD
Collision energy: 75
Resolution: 17500
Column name: Acquity BEH C18 1.7um, 2.1x150mm (Waters)
Retention time: 16.353 min
Base peak: 79.0211
Precursor m/z: 389.1626
Precursor type: [M+H]+
Precursor intensity: 14486020.75
m/z	relative intensity	assigned
72.0808	1	C4H10N+
83.0604	1	C4H7N2+
84.0682	3	C4H8N2+
91.0543	5	C7H7+
92.0576	3	C2H8N2O2+
115.054	1	C9H7+
116.0622	1	C9H8+
117.0654	1	C4H9N2O2+
131.0855	2	C10H11+
132.0887	2	C5H12N2O2+
139.0546	1	C11H7+
164.0618	2	C13H8+
165.0701	716	C13H9+
166.0777	999	C13H10+
168.057	1	C12H8O+
183.0806	13	C13H11O+
193.0761	14	C13H9N2+
199.0311	16	C13H8Cl+
201.0466	55	C13H10Cl+
