Mass spectrum: Dipentyl phthalate; LC-ESI-QFT; MS2; CE: 15; R=17500; [M+H]+
Name: Dipentyl phthalate
Name: dipentyl benzene-1,2-dicarboxylate
Formula: C18H26O4
Exact mass: 306.1831
SMILES: CCCCCOC(=O)C1=C(C=CC=C1)C(=O)OCCCCC
InChI: InChI=1S/C18H26O4/c1-3-5-9-13-21-17(19)15-11-7-8-12-16(15)18(20)22-14-10-6-4-2/h7-8,11-12H,3-6,9-10,13-14H2,1-2H3
Instrument: Q Exactive Orbitrap (Thermo Scientific)
Instrument type: LC-ESI-QFT
Ms type: MS2
Ion mode: POSITIVE
Ionization: ESI
Fragmentation mode: HCD
Collision energy: 15
Resolution: 17500
Column name: Acquity BEH C18 1.7um, 2.1x150mm (Waters)
Retention time: 20.111 min
Base peak: 79.0211
Precursor m/z: 307.1904
Precursor type: [M+H]+
Precursor intensity: 5419281.4375
m/z	relative intensity	assigned
149.0233	999	C8H5O3+
163.0392	36	C9H7O3+
