Mass spectrum: 3-Methyl-N-phenylaniline; LC-ESI-QFT; MS2; CE: 30; R=17500; [M+H]+
Name: 3-Methyl-N-phenylaniline
Name: 3-Methyldiphenylamine
Formula: C13H13N
Exact mass: 183.1048
SMILES: CC1=CC(NC2=CC=CC=C2)=CC=C1
InChI: InChI=1S/C13H13N/c1-11-6-5-9-13(10-11)14-12-7-3-2-4-8-12/h2-10,14H,1H3
Instrument: Q Exactive Orbitrap (Thermo Scientific)
Instrument type: LC-ESI-QFT
Ms type: MS2
Ion mode: POSITIVE
Ionization: ESI
Fragmentation mode: HCD
Collision energy: 30
Resolution: 17500
Column name: Acquity BEH C18 1.7um, 2.1x150mm (Waters)
Retention time: 18.660 min
Base peak: 79.0212
Precursor m/z: 184.1121
Precursor type: [M+H]+
Precursor intensity: 9763774.375
m/z	relative intensity	assigned
91.0543	1	C7H7+
92.0494	24	C6H6N+
93.057	8	C6H7N+
106.065	16	C7H8N+
107.0728	14	C7H9N+
169.0885	18	C12H11N+
184.112	999	C13H14N+
