Mass spectrum: Chlordimeform; LC-ESI-QFT; MS2; CE: 30; R=17500; [M+H]+
Name: Chlordimeform
Name: N'-(4-chloro-2-methylphenyl)-N,N-dimethylmethanimidamide
Formula: C10H13ClN2
Exact mass: 196.0767
SMILES: CN(C)C=NC1=CC=C(Cl)C=C1C
InChI: InChI=1S/C10H13ClN2/c1-8-6-9(11)4-5-10(8)12-7-13(2)3/h4-7H,1-3H3
Instrument: Q Exactive Orbitrap (Thermo Scientific)
Instrument type: LC-ESI-QFT
Ms type: MS2
Ion mode: POSITIVE
Ionization: ESI
Fragmentation mode: HCD
Collision energy: 30
Resolution: 17500
Column name: Acquity BEH C18 1.7um, 2.1x150mm (Waters)
Retention time: 11.330 min
Base peak: 79.0211
Precursor m/z: 197.084
Precursor type: [M+H]+
Precursor intensity: 38494147.5
m/z	relative intensity	assigned
58.0651	1	C3H8N+
117.0572	5	C8H7N+
152.0261	14	C8H7ClN+
197.0839	999	C10H14ClN2+
