Mass spectrum: 2,2`-Bisphenol F; LC-ESI-QFT; MS2; CE: 90; R=17500; [M-H]-
Name: 2,2`-Bisphenol F
Name: 2,2`-Methylenediphenol
Name: 2-[(2-hydroxyphenyl)methyl]phenol
Formula: C13H12O2
Exact mass: 200.0837
SMILES: OC1=C(CC2=C(O)C=CC=C2)C=CC=C1
InChI: InChI=1S/C13H12O2/c14-12-7-3-1-5-10(12)9-11-6-2-4-8-13(11)15/h1-8,14-15H,9H2
Instrument: Q Exactive Orbitrap (Thermo Scientific)
Instrument type: LC-ESI-QFT
Ms type: MS2
Ion mode: NEGATIVE
Ionization: ESI
Fragmentation mode: HCD
Collision energy: 90
Resolution: 17500
Column name: Acquity BEH C18 1.7um, 2.1x150mm (Waters)
Retention time: 16.739 min
Base peak: 127.0068
Precursor m/z: 199.0765
Precursor type: [M-H]-
Precursor intensity: 35886115.33789
m/z	relative intensity	assigned
65.0397	23	C5H5-
75.0242	1	C6H3-
93.0346	999	C6H5O-
