Mass spectrum: Ethyl 5-oxo-1-phenyl-4,5-dihydro-1H-pyrazole-3-carboxylate; LC-ESI-QFT; MS2; CE: 75; R=17500; [M-H]-
Name: Ethyl 5-oxo-1-phenyl-4,5-dihydro-1H-pyrazole-3-carboxylate
Name: ethyl 5-oxo-1-phenyl-4H-pyrazole-3-carboxylate
Formula: C12H12N2O3
Exact mass: 232.0848
SMILES: CCOC(=O)C1=NN(C(=O)C1)C1=CC=CC=C1
InChI: InChI=1S/C12H12N2O3/c1-2-17-12(16)10-8-11(15)14(13-10)9-6-4-3-5-7-9/h3-7H,2,8H2,1H3
Instrument: Q Exactive Orbitrap (Thermo Scientific)
Instrument type: LC-ESI-QFT
Ms type: MS2
Ion mode: NEGATIVE
Ionization: ESI
Fragmentation mode: HCD
Collision energy: 75
Resolution: 17500
Column name: Acquity BEH C18 1.7um, 2.1x150mm (Waters)
Retention time: 15.876 min
Base peak: 331.0612
Precursor m/z: 231.0775
Precursor type: [M-H]-
Precursor intensity: 2232906.649902
m/z	relative intensity	assigned
65.9986	821	C3NO-
92.0506	33	C6H6N-
101.0397	15	C8H5-
112.0403	26	C5H6NO2-
116.0506	405	C8H6N-
117.0459	631	C7H5N2-
156.0329	8	C9H4N2O-
157.0408	999	C9H5N2O-
