Mass spectrum: Pyrinuron; LC-ESI-QFT; MS2; CE: 15; R=17500; [M+H]+
Name: Pyrinuron
Name: Pyriminil
Name: 1-(4-nitrophenyl)-3-(pyridin-3-ylmethyl)urea
Formula: C13H12N4O3
Exact mass: 272.0909
SMILES: [O-][N+](=O)C1=CC=C(NC(=O)NCC2=CC=CN=C2)C=C1
InChI: InChI=1S/C13H12N4O3/c18-13(15-9-10-2-1-7-14-8-10)16-11-3-5-12(6-4-11)17(19)20/h1-8H,9H2,(H2,15,16,18)
Instrument: Q Exactive Orbitrap (Thermo Scientific)
Instrument type: LC-ESI-QFT
Ms type: MS2
Ion mode: POSITIVE
Ionization: ESI
Fragmentation mode: HCD
Collision energy: 15
Resolution: 17500
Column name: Acquity BEH C18 1.7um, 2.1x150mm (Waters)
Retention time: 11.686 min
Base peak: 79.0211
Precursor m/z: 273.0982
Precursor type: [M+H]+
Precursor intensity: 2807982.09375
m/z	relative intensity	assigned
109.076	4	C6H9N2+
135.0553	67	C7H7N2O+
139.0503	3	C6H7N2O2+
273.0983	999	C13H13N4O3+
