Mass spectrum: Kaempferol; LC-ESI-QFT; MS2; CE: 30; R=17500; [M-H]-
Name: Kaempferol
Name: 3,5,7-trihydroxy-2-(4-hydroxyphenyl)chromen-4-one
Formula: C15H10O6
Exact mass: 286.0477
SMILES: OC1=CC=C(C=C1)C1=C(O)C(=O)C2=C(O1)C=C(O)C=C2O
InChI: InChI=1S/C15H10O6/c16-8-3-1-7(2-4-8)15-14(20)13(19)12-10(18)5-9(17)6-11(12)21-15/h1-6,16-18,20H
Instrument: Q Exactive Orbitrap (Thermo Scientific)
Instrument type: LC-ESI-QFT
Ms type: MS2
Ion mode: NEGATIVE
Ionization: ESI
Fragmentation mode: HCD
Collision energy: 30
Resolution: 17500
Column name: Acquity BEH C18 1.7um, 2.1x150mm (Waters)
Retention time: 16.306 min
Base peak: 112.9856
Precursor m/z: 285.0405
Precursor type: [M-H]-
Precursor intensity: 8832757.194336
m/z	relative intensity	assigned
107.0139	2	C6H3O2-
145.0488	21	C6H9O4-
151.0037	11	C7H3O4-
169.014	1	C7H5O5-
169.0661	3	C12H9O-
177.0212	50	C9H5O4-
185.0608	2	C12H9O2-
187.0401	1	C11H7O3-
213.0557	3	C13H9O3-
214.0268	1	C12H6O4-
229.0505	4	C13H9O4-
239.0345	1	C14H7O4-
241.0512	1	C14H9O4-
243.0306	1	C13H7O5-
257.0459	7	C14H9O5-
284.0311	1	C15H8O6-
285.0405	999	C15H9O6-
