Mass spectrum: Triphenylphosphine oxide; LC-ESI-QFT; MS2; CE: 30; R=17500; [M+H]+
Name: Triphenylphosphine oxide
Name: diphenylphosphorylbenzene
Formula: C18H15OP
Exact mass: 278.0861
SMILES: O=P(C1=CC=CC=C1)(C1=CC=CC=C1)C1=CC=CC=C1
InChI: InChI=1S/C18H15OP/c19-20(16-10-4-1-5-11-16,17-12-6-2-7-13-17)18-14-8-3-9-15-18/h1-15H
Instrument: Q Exactive Orbitrap (Thermo Scientific)
Instrument type: LC-ESI-QFT
Ms type: MS2
Ion mode: POSITIVE
Ionization: ESI
Fragmentation mode: HCD
Collision energy: 30
Resolution: 17500
Column name: Acquity BEH C18 1.7um, 2.1x150mm (Waters)
Retention time: 16.910 min
Base peak: 79.0211
Precursor m/z: 279.0933
Precursor type: [M+H]+
Precursor intensity: 39270684.09375
m/z	relative intensity	assigned
201.0464	21	C12H10OP+
202.0539	1	C12H11OP+
278.0854	1	C18H15OP+
279.0933	999	C18H16OP+
