Mass spectrum: Metamitron; LC-ESI-QFT; MS2; CE: 30; R=17500; [M-H]-
Name: Metamitron
Name: 4-amino-3-methyl-6-phenyl-1,2,4-triazin-5-one
Formula: C10H10N4O
Exact mass: 202.0855
SMILES: CC1=NN=C(C(=O)N1N)C1=CC=CC=C1
InChI: InChI=1S/C10H10N4O/c1-7-12-13-9(10(15)14(7)11)8-5-3-2-4-6-8/h2-6H,11H2,1H3
Instrument: Q Exactive Orbitrap (Thermo Scientific)
Instrument type: LC-ESI-QFT
Ms type: MS2
Ion mode: NEGATIVE
Ionization: ESI
Fragmentation mode: HCD
Collision energy: 30
Resolution: 17500
Column name: Acquity BEH C18 1.7um, 2.1x150mm (Waters)
Retention time: 12.837 min
Base peak: 185.0278
Precursor m/z: 201.0782
Precursor type: [M-H]-
Precursor intensity: 326197.1464844
m/z	relative intensity	assigned
117.0346	999	C8H5O-
158.0724	98	C9H8N3-
185.0596	416	C10H7N3O-
201.0782	437	C10H9N4O-
