Mass spectrum: Metolachlor; LC-ESI-QFT; MS2; CE: 30; R=17500; [M+H]+
Name: Metolachlor
Name: 2-chloro-N-(2-ethyl-6-methylphenyl)-N-(1-methoxypropan-2-yl)acetamide
Formula: C15H22ClNO2
Exact mass: 283.1339
SMILES: CCC1=C(N(C(C)COC)C(=O)CCl)C(C)=CC=C1
InChI: InChI=1S/C15H22ClNO2/c1-5-13-8-6-7-11(2)15(13)17(14(18)9-16)12(3)10-19-4/h6-8,12H,5,9-10H2,1-4H3
Instrument: Q Exactive Orbitrap (Thermo Scientific)
Instrument type: LC-ESI-QFT
Ms type: MS2
Ion mode: POSITIVE
Ionization: ESI
Fragmentation mode: HCD
Collision energy: 30
Resolution: 17500
Column name: Acquity BEH C18 1.7um, 2.1x150mm (Waters)
Retention time: 18.192 min
Base peak: 79.0211
Precursor m/z: 284.1412
Precursor type: [M+H]+
Precursor intensity: 25803003.65625
m/z	relative intensity	assigned
73.0647	44	C4H9O+
134.0965	1	C9H12N+
146.0959	1	C10H12N+
160.1121	1	C11H14N+
176.1434	70	C12H18N+
194.073	1	C11H13ClN+
212.0836	22	C11H15ClNO+
252.1149	999	C14H19ClNO+
284.1411	8	C15H23ClNO2+
