Mass spectrum: Chloroxuron; LC-ESI-QFT; MS2; CE: 30; R=17500; [M-H]-
Name: Chloroxuron
Name: 3-[4-(4-chlorophenoxy)phenyl]-1,1-dimethylurea
Formula: C15H15ClN2O2
Exact mass: 290.0822
SMILES: CN(C)C(=O)NC1=CC=C(OC2=CC=C(Cl)C=C2)C=C1
InChI: InChI=1S/C15H15ClN2O2/c1-18(2)15(19)17-12-5-9-14(10-6-12)20-13-7-3-11(16)4-8-13/h3-10H,1-2H3,(H,17,19)
Instrument: Q Exactive Orbitrap (Thermo Scientific)
Instrument type: LC-ESI-QFT
Ms type: MS2
Ion mode: NEGATIVE
Ionization: ESI
Fragmentation mode: HCD
Collision energy: 30
Resolution: 17500
Column name: Acquity BEH C18 1.7um, 2.1x150mm (Waters)
Retention time: 17.931 min
Base peak: 112.9856
Precursor m/z: 289.0749
Precursor type: [M-H]-
Precursor intensity: 5352068.604004
m/z	relative intensity	assigned
120.0454	14	C7H6NO-
126.9957	6	C6H4ClO-
133.0169	27	C7H3NO2-
134.0247	43	C7H4NO2-
134.0611	24	C8H8NO-
163.0513	90	C8H7N2O2-
178.0748	322	C9H10N2O2-
182.0604	1	C12H8NO-
208.0403	4	C13H6NO2-
217.0299	14	C12H8ClNO-
218.0379	6	C12H9ClNO-
244.017	605	C13H7ClNO2-
246.033	4	C13H9ClNO2-
273.0436	1	C14H10ClN2O2-
289.075	999	C15H14ClN2O2-
