Mass spectrum: Salicylanilide; LC-ESI-QFT; MS2; CE: 15; R=17500; [M-H]-
Name: Salicylanilide
Name: 2-hydroxy-N-phenylbenzamide
Formula: C13H11NO2
Exact mass: 213.0790
SMILES: OC1=C(C=CC=C1)C(=O)NC1=CC=CC=C1
InChI: InChI=1S/C13H11NO2/c15-12-9-5-4-8-11(12)13(16)14-10-6-2-1-3-7-10/h1-9,15H,(H,14,16)
Instrument: Q Exactive Orbitrap (Thermo Scientific)
Instrument type: LC-ESI-QFT
Ms type: MS2
Ion mode: NEGATIVE
Ionization: ESI
Fragmentation mode: HCD
Collision energy: 15
Resolution: 17500
Column name: Acquity BEH C18 1.7um, 2.1x150mm (Waters)
Retention time: 16.915 min
Base peak: 212.0716
Precursor m/z: 212.0717
Precursor type: [M-H]-
Precursor intensity: 75325857.87598
m/z	relative intensity	assigned
92.0504	20	C6H6N-
93.0346	50	C6H5O-
118.0299	1	C7H4NO-
194.0615	1	C13H8NO-
212.0716	999	C13H10NO2-
