Mass spectrum: 2-naphthalenesulfonate; LC-ESI-QFT; MS2; CE: 45; R=17500; [M-H]-
Name: 2-naphthalenesulfonate
Name: 2-Naphthalenesulfonic acid
Name: naphthalene-2-sulfonic acid
Formula: C10H8O3S
Exact mass: 208.0194
SMILES: OS(=O)(=O)C1=CC2=C(C=CC=C2)C=C1
InChI: InChI=1S/C10H8O3S/c11-14(12,13)10-6-5-8-3-1-2-4-9(8)7-10/h1-7H,(H,11,12,13)
Instrument: Q Exactive Orbitrap (Thermo Scientific)
Instrument type: LC-ESI-QFT
Ms type: MS2
Ion mode: NEGATIVE
Ionization: ESI
Fragmentation mode: HCD
Collision energy: 45
Resolution: 17500
Column name: Acquity BEH C18 1.7um, 2.1x150mm (Waters)
Retention time: 13.504 min
Base peak: 207.0121
Precursor m/z: 207.0121
Precursor type: [M-H]-
Precursor intensity: 21289774.9873
m/z	relative intensity	assigned
79.9574	158	O3S-
80.9652	3	HO3S-
115.0553	1	C9H7-
143.0502	605	C10H7O-
207.0121	999	C10H7O3S-
