Mass spectrum: MEHP; LC-ESI-QFT; MS2; CE: 60; R=17500; [M+H]+
Name: MEHP
Name: 2-(((2-Ethylhexyl)oxy)carbonyl)benzoic acid
Name: 2-(2-ethylhexoxycarbonyl)benzoic acid
Formula: C16H22O4
Exact mass: 278.1518
SMILES: CCCCC(CC)COC(=O)C1=CC=CC=C1C(O)=O
InChI: InChI=1S/C16H22O4/c1-3-5-8-12(4-2)11-20-16(19)14-10-7-6-9-13(14)15(17)18/h6-7,9-10,12H,3-5,8,11H2,1-2H3,(H,17,18)
Instrument: Q Exactive Orbitrap (Thermo Scientific)
Instrument type: LC-ESI-QFT
Ms type: MS2
Ion mode: POSITIVE
Ionization: ESI
Fragmentation mode: HCD
Collision energy: 60
Resolution: 17500
Column name: Acquity BEH C18 1.7um, 2.1x150mm (Waters)
Retention time: 19.072 min
Base peak: 79.0212
Precursor m/z: 279.1591
Precursor type: [M+H]+
Precursor intensity: 2644041.6875
m/z	relative intensity	assigned
149.0235	999	C8H5O3+
167.0859	598	C13H11+
178.0774	631	C14H10+
