Mass spectrum: 4-tert-Butylcatechol; LC-ESI-QFT; MS2; CE: 75; R=17500; [M-H]-
Name: 4-tert-Butylcatechol
Name: 4-tert-butylbenzene-1,2-diol
Formula: C10H14O2
Exact mass: 166.0994
SMILES: CC(C)(C)C1=CC(O)=C(O)C=C1
InChI: InChI=1S/C10H14O2/c1-10(2,3)7-4-5-8(11)9(12)6-7/h4-6,11-12H,1-3H3
Instrument: Q Exactive Orbitrap (Thermo Scientific)
Instrument type: LC-ESI-QFT
Ms type: MS2
Ion mode: NEGATIVE
Ionization: ESI
Fragmentation mode: HCD
Collision energy: 75
Resolution: 17500
Column name: Acquity BEH C18 1.7um, 2.1x150mm (Waters)
Retention time: 16.444 min
Base peak: 165.092
Precursor m/z: 165.0921
Precursor type: [M-H]-
Precursor intensity: 33488948.93701
m/z	relative intensity	assigned
106.0423	2	C7H6O-
108.0218	6	C6H4O2-
109.0294	3	C6H5O2-
121.0659	4	C8H9O-
133.0293	3	C8H5O2-
135.0451	2	C8H7O2-
148.053	288	C9H8O2-
149.0607	999	C9H9O2-
164.0846	4	C10H12O2-
165.092	859	C10H13O2-
