Mass spectrum: Ibuprofen; LC-ESI-QFT; MS2; CE: 30; R=17500; [M-H]-
Name: Ibuprofen
Name: 2-[4-(2-methylpropyl)phenyl]propanoic acid
Formula: C13H18O2
Exact mass: 206.1307
SMILES: CC(C)CC1=CC=C(C=C1)C(C)C(O)=O
InChI: InChI=1S/C13H18O2/c1-9(2)8-11-4-6-12(7-5-11)10(3)13(14)15/h4-7,9-10H,8H2,1-3H3,(H,14,15)
Instrument: Q Exactive Orbitrap (Thermo Scientific)
Instrument type: LC-ESI-QFT
Ms type: MS2
Ion mode: NEGATIVE
Ionization: ESI
Fragmentation mode: HCD
Collision energy: 30
Resolution: 17500
Column name: Acquity BEH C18 1.7um, 2.1x150mm (Waters)
Retention time: 18.730 min
Base peak: 112.9856
Precursor m/z: 205.1234
Precursor type: [M-H]-
Precursor intensity: 1012860.185059
m/z	relative intensity	assigned
159.1177	999	C12H15-
