Mass spectrum: N-Butyl-p-toluenesulfonamide; LC-ESI-QFT; MS2; CE: 75; R=17500; [M+H]+
Name: N-Butyl-p-toluenesulfonamide
Name: N-butyl-4-methylbenzenesulfonamide
Formula: C11H17NO2S
Exact mass: 227.0980
SMILES: CCCCNS(=O)(=O)C1=CC=C(C)C=C1
InChI: InChI=1S/C11H17NO2S/c1-3-4-9-12-15(13,14)11-7-5-10(2)6-8-11/h5-8,12H,3-4,9H2,1-2H3
Instrument: Q Exactive Orbitrap (Thermo Scientific)
Instrument type: LC-ESI-QFT
Ms type: MS2
Ion mode: POSITIVE
Ionization: ESI
Fragmentation mode: HCD
Collision energy: 75
Resolution: 17500
Column name: Acquity BEH C18 1.7um, 2.1x150mm (Waters)
Retention time: 16.819 min
Base peak: 79.0212
Precursor m/z: 228.1053
Precursor type: [M+H]+
Precursor intensity: 2741875.5
m/z	relative intensity	assigned
53.0023	3	C3HO+
55.0179	4	C3H3O+
57.0699	7	C4H9+
60.0443	4	C2H6NO+
61.0107	12	C2H5S+
65.0385	180	C5H5+
67.0542	7	C5H7+
72.0807	4	C4H10N+
91.0542	999	C7H7+
95.0492	4	C6H7O+
109.0648	116	C7H9O+
