Mass spectrum: Propranolol; LC-ESI-QFT; MS2; CE: 90; R=17500; [M+H]+
Name: Propranolol
Name: 1-naphthalen-1-yloxy-3-(propan-2-ylamino)propan-2-ol
Formula: C16H21NO2
Exact mass: 259.1572
SMILES: CC(C)NCC(O)COC1=C2C=CC=CC2=CC=C1
InChI: InChI=1S/C16H21NO2/c1-12(2)17-10-14(18)11-19-16-9-5-7-13-6-3-4-8-15(13)16/h3-9,12,14,17-18H,10-11H2,1-2H3
Instrument: Q Exactive Orbitrap (Thermo Scientific)
Instrument type: LC-ESI-QFT
Ms type: MS2
Ion mode: POSITIVE
Ionization: ESI
Fragmentation mode: HCD
Collision energy: 90
Resolution: 17500
Column name: Acquity BEH C18 1.7um, 2.1x150mm (Waters)
Retention time: 14.293 min
Base peak: 79.0212
Precursor m/z: 260.1645
Precursor type: [M+H]+
Precursor intensity: 19812707
m/z	relative intensity	assigned
53.0022	37	C3HO+
53.0387	10	C4H5+
53.9974	3	C2NO+
55.0178	10	C3H3O+
56.0495	999	C3H6N+
57.0335	9	C3H5O+
57.0573	4	C3H7N+
57.07	2	C4H9+
58.0651	616	C3H8N+
60.0443	2	C2H6NO+
60.0808	6	C3H10N+
70.0651	5	C4H8N+
71.0728	3	C4H9N+
72.0807	188	C4H10N+
74.06	303	C3H8NO+
77.0385	5	C6H5+
84.0808	43	C5H10N+
91.0542	22	C7H7+
95.0491	26	C6H7O+
98.0965	17	C6H12N+
100.1121	74	C6H14N+
103.0542	39	C8H7+
115.0543	264	C9H7+
116.1071	21	C6H14NO+
117.0699	59	C9H9+
127.0543	70	C10H7+
128.0621	357	C10H8+
129.0698	375	C10H9+
141.0698	53	C11H9+
143.0492	4	C10H7O+
143.0856	2	C11H11+
144.057	16	C10H8O+
145.0648	217	C10H9O+
152.0621	48	C12H8+
153.0699	248	C12H9+
154.0777	104	C12H10+
155.0855	153	C12H11+
156.0571	5	C11H8O+
157.0648	40	C11H9O+
165.0699	175	C13H9+
168.057	55	C12H8O+
169.0648	3	C12H9O+
171.0799	1	C12H11O+
181.0646	10	C13H9O+
182.0725	6	C13H10O+
183.0802	2	C13H11O+
