Mass spectrum: 4,4`-Methylenebis(2,6-diethylaniline); LC-ESI-QFT; MS2; CE: 30; R=17500; [M+H]+
Name: 4,4'-Methylenebis(2,6-diethylaniline)
Name: 4-[(4-amino-3,5-diethylphenyl)methyl]-2,6-diethylaniline
Formula: C21H30N2
Exact mass: 310.2409
SMILES: CCC1=CC(CC2=CC(CC)=C(N)C(CC)=C2)=CC(CC)=C1N
InChI: InChI=1S/C21H30N2/c1-5-16-10-14(11-17(6-2)20(16)22)9-15-12-18(7-3)21(23)19(8-4)13-15/h10-13H,5-9,22-23H2,1-4H3
Instrument: Q Exactive Orbitrap (Thermo Scientific)
Instrument type: LC-ESI-QFT
Ms type: MS2
Ion mode: POSITIVE
Ionization: ESI
Fragmentation mode: HCD
Collision energy: 30
Resolution: 17500
Column name: Acquity BEH C18 1.7um, 2.1x150mm (Waters)
Retention time: 16.990 min
Base peak: 79.0211
Precursor m/z: 311.2482
Precursor type: [M+H]+
Precursor intensity: 38011687.9375
m/z	relative intensity	assigned
117.0699	3	C9H9+
134.0963	1	C9H12N+
145.1011	12	C11H13+
162.1276	80	C11H16N+
250.1582	1	C18H20N+
265.1825	3	C19H23N+
266.1896	1	C19H24N+
294.2217	8	C21H28N+
295.2162	2	C20H27N2+
296.2254	1	C20H28N2+
309.2324	4	C21H29N2+
311.248	999	C21H31N2+
