Mass spectrum: Meloxicam; LC-ESI-QFT; MS2; CE: 60; R=17500; [M-H]-
Name: Meloxicam
Name: 4-hydroxy-2-methyl-N-(5-methyl-1,3-thiazol-2-yl)-1,1-dioxo-1lambda6,2-benzothiazine-3-carboxamide
Formula: C14H13N3O4S2
Exact mass: 351.0347
SMILES: CN1C(C(=O)NC2=NC=C(C)S2)=C(O)C2=C(C=CC=C2)S1(=O)=O
InChI: InChI=1S/C14H13N3O4S2/c1-8-7-15-14(22-8)16-13(19)11-12(18)9-5-3-4-6-10(9)23(20,21)17(11)2/h3-7,18H,1-2H3,(H,15,16,19)
Instrument: Q Exactive Orbitrap (Thermo Scientific)
Instrument type: LC-ESI-QFT
Ms type: MS2
Ion mode: NEGATIVE
Ionization: ESI
Fragmentation mode: HCD
Collision energy: 60
Resolution: 17500
Column name: Acquity BEH C18 1.7um, 2.1x150mm (Waters)
Retention time: 16.796 min
Base peak: 189.0169
Precursor m/z: 350.0275
Precursor type: [M-H]-
Precursor intensity: 5650583.635742
m/z	relative intensity	assigned
57.9756	38	CNS-
65.0032	5	C4HO-
65.04	4	C5H5-
71.9914	5	C2H2NS-
79.0301	19	C4H3N2-
86.0071	27	C3H4NS-
91.0553	15	C7H7-
92.0255	15	C4H2N3-
93.0345	8	C6H5O-
96.9991	5	C4H3NS-
97.9945	35	C3H2N2S-
101.0396	7	C8H5-
102.035	6	C7H4N-
105.022	5	C6H3NO-
106.9961	65	C6H3S-
109.0116	22	C6H5S-
111.0022	6	C4H3N2S-
112.0101	24	C4H4N2S-
113.0179	999	C4H5N2S-
116.0506	18	C8H6N-
118.0667	6	C8H8N-
119.0502	762	C8H7O-
120.9992	39	C6H3NS-
122.991	14	C6H3OS-
124.994	23	C5H3NOS-
127.0337	5	C5H7N2S-
128.0506	27	C9H6N-
131.0376	288	C8H5NO-
134.007	61	C7H4NS-
134.9909	10	C7H3OS-
135.9862	18	C6H2NOS-
136.0226	56	C7H6NS-
138.0131	14	C5H4N3S-
144.0455	302	C9H6NO-
145.0294	66	C9H5O2-
145.0406	14	C8H5N2O-
146.0611	331	C9H8NO-
147.0145	4	H9N3O2S2-
148.0228	13	C8H6NS-
148.9938	30	C7H3NOS-
150.9858	32	C7H3O2S-
151.9811	24	C6H2NO2S-
162.0017	11	C8H4NOS-
163.0099	17	C8H5NOS-
164.0175	45	C8H6NOS-
164.989	17	C7H3NO2S-
176.9889	15	C8H3NO2S-
192.0124	34	C9H6NO2S-
199.0392	8	C10H5N3O2-
208.0882	24	C13H10N3-
252.0778	17	C14H10N3O2-
271.0428	10	C13H9N3O2S-
