Mass spectrum: Octylparaben; LC-ESI-QFT; MS2; CE: 60; R=17500; [M-H]-
Name: Octylparaben
Name: octyl 4-hydroxybenzoate
Formula: C15H22O3
Exact mass: 250.1569
SMILES: CCCCCCCCOC(=O)C1=CC=C(O)C=C1
InChI: InChI=1S/C15H22O3/c1-2-3-4-5-6-7-12-18-15(17)13-8-10-14(16)11-9-13/h8-11,16H,2-7,12H2,1H3
Instrument: Q Exactive Orbitrap (Thermo Scientific)
Instrument type: LC-ESI-QFT
Ms type: MS2
Ion mode: NEGATIVE
Ionization: ESI
Fragmentation mode: HCD
Collision energy: 60
Resolution: 17500
Column name: Acquity BEH C18 1.7um, 2.1x150mm (Waters)
Retention time: 19.955 min
Base peak: 249.1496
Precursor m/z: 249.1496
Precursor type: [M-H]-
Precursor intensity: 82316831.40527
m/z	relative intensity	assigned
65.0033	1	C4HO-
65.0398	2	C5H5-
67.0189	3	C4H3O-
68.9982	11	C3HO2-
69.0346	8	C4H5O-
70.006	6	C3H2O2-
71.0138	7	C3H3O2-
72.993	5	C2HO3-
78.011	1	C5H2O-
79.019	7	C5H3O-
79.9904	4	C4O2-
80.9982	3	C4HO2-
82.0061	30	C4H2O2-
83.014	1	C4H3O2-
86.0009	1	C3H2O3-
91.019	76	C6H3O-
92.0268	189	C6H4O-
93.0346	999	C6H5O-
95.0138	392	C5H3O2-
97.0295	4	C5H5O2-
106.006	21	C6H2O2-
107.0138	3	C6H3O2-
108.0217	367	C6H4O2-
119.0138	21	C7H3O2-
121.0295	40	C7H5O2-
123.0087	48	C6H3O3-
125.0972	2	C8H13O-
127.1128	41	C8H15O-
136.0166	257	C7H4O3-
137.0244	186	C7H5O3-
149.0242	1	C8H5O3-
249.1495	27	C15H21O3-
