Mass spectrum: Dimethenamid; LC-ESI-QFT; MS2; CE: 30; R=17500; [M+H]+
Name: Dimethenamid
Name: 2-chloro-N-(2,4-dimethylthiophen-3-yl)-N-(1-methoxypropan-2-yl)acetamide
Formula: C12H18ClNO2S
Exact mass: 275.0747
SMILES: COCC(C)N(C(=O)CCl)C1=C(C)SC=C1C
InChI: InChI=1S/C12H18ClNO2S/c1-8-7-17-10(3)12(8)14(11(15)5-13)9(2)6-16-4/h7,9H,5-6H2,1-4H3
Instrument: Q Exactive Orbitrap (Thermo Scientific)
Instrument type: LC-ESI-QFT
Ms type: MS2
Ion mode: POSITIVE
Ionization: ESI
Fragmentation mode: HCD
Collision energy: 30
Resolution: 17500
Column name: Acquity BEH C18 1.7um, 2.1x150mm (Waters)
Retention time: 17.366 min
Base peak: 79.0211
Precursor m/z: 276.082
Precursor type: [M+H]+
Precursor intensity: 13996987.625
m/z	relative intensity	assigned
73.0647	15	C4H9O+
76.9789	1	C2H2ClO+
91.0541	1	C7H7+
93.0698	1	C7H9+
111.0263	5	C6H7S+
116.0262	1	C5H7ClN+
121.0648	82	C8H9O+
138.9945	130	C7H4ClO+
151.0575	4	C9H11S+
152.0167	1	C7H6NOS+
166.0684	1	C9H12NS+
167.0763	4	C9H13NS+
168.0842	102	C9H14NS+
186.0139	4	C8H9ClNS+
204.0245	4	C8H11ClNOS+
244.0557	999	C11H15ClNOS+
276.0804	10	C12H19ClNO2S+
