Mass spectrum: Biochanin A; LC-ESI-QFT; MS2; CE: 90; R=17500; [M+H]+
Name: Biochanin A
Name: 5,7-dihydroxy-3-(4-methoxyphenyl)chromen-4-one
Formula: C16H12O5
Exact mass: 284.0685
SMILES: COC1=CC=C(C=C1)C1=COC2=C(C(O)=CC(O)=C2)C1=O
InChI: InChI=1S/C16H12O5/c1-20-11-4-2-9(3-5-11)12-8-21-14-7-10(17)6-13(18)15(14)16(12)19/h2-8,17-18H,1H3
Instrument: Q Exactive Orbitrap (Thermo Scientific)
Instrument type: LC-ESI-QFT
Ms type: MS2
Ion mode: POSITIVE
Ionization: ESI
Fragmentation mode: HCD
Collision energy: 90
Resolution: 17500
Column name: Acquity BEH C18 1.7um, 2.1x150mm (Waters)
Retention time: 17.742 min
Base peak: 79.0211
Precursor m/z: 285.0757
Precursor type: [M+H]+
Precursor intensity: 8664344.125
m/z	relative intensity	assigned
50.0152	5	C4H2+
52.0308	2	C4H4+
53.0022	11	C3HO+
53.0386	32	C4H5+
55.0179	35	C3H3O+
63.0229	11	C5H3+
65.0385	59	C5H5+
66.01	6	C4H2O+
66.0463	78	C5H6+
67.0178	87	C4H3O+
67.0542	13	C5H7+
68.0256	49	C4H4O+
68.997	331	C3HO2+
69.0334	30	C4H5O+
71.0126	6	C3H3O2+
76.0307	3	C6H4+
77.0383	15	C6H5+
78.0099	32	C5H2O+
78.0464	15	C6H6+
79.0179	13	C5H3O+
79.0542	112	C6H7+
81.0334	15	C5H5O+
83.0128	10	C4H3O2+
84.0205	6	C4H4O2+
89.0386	210	C7H5+
90.0464	469	C7H6+
91.0179	5	C6H3O+
91.0543	60	C7H7+
92.0256	22	C6H4O+
94.0413	9	C6H6O+
95.0128	23	C5H3O2+
95.0491	106	C6H7O+
96.0206	42	C5H4O2+
97.0284	21	C5H5O2+
102.0464	92	C8H6+
103.0542	118	C8H7+
104.062	9	C8H8+
105.0335	21	C7H5O+
105.0699	27	C8H9+
106.0413	4	C7H6O+
107.0492	13	C7H7O+
108.0205	9	C6H4O2+
108.057	4	C7H8O+
109.0648	3	C7H9O+
111.0076	50	C5H3O3+
111.0441	9	C6H7O2+
115.0542	177	C9H7+
116.062	32	C9H8+
117.0334	78	C8H5O+
117.0698	31	C9H9+
118.0413	334	C8H6O+
119.0491	22	C8H7O+
121.0284	90	C7H5O2+
121.0647	38	C8H9O+
123.044	45	C7H7O2+
124.0155	481	C6H4O3+
125.0237	3	C6H5O3+
126.0312	32	C6H6O3+
127.0541	12	C10H7+
128.062	69	C10H8+
129.0334	6	C9H5O+
129.0698	85	C10H9+
130.0414	45	C9H6O+
130.0777	10	C10H10+
131.0492	77	C9H7O+
132.0569	23	C9H8O+
133.0647	71	C9H9O+
134.0363	8	C8H6O2+
135.0439	16	C8H7O2+
137.0232	20	C7H5O3+
139.0541	65	C11H7+
140.062	54	C11H8+
141.0698	118	C11H9+
143.0491	46	C10H7O+
144.0569	40	C10H8O+
145.0285	17	C9H5O2+
145.0648	79	C10H9O+
146.0724	4	C10H10O+
147.0441	17	C9H7O2+
149.0233	37	C8H5O3+
152.0104	31	C7H4O4+
152.0619	37	C12H8+
153.0182	236	C7H5O4+
155.0492	40	C11H7O+
156.0567	4	C11H8O+
157.0648	111	C11H9O+
158.0362	161	C10H6O2+
158.0726	27	C11H10O+
159.044	21	C10H7O2+
159.0803	5	C11H11O+
160.0518	20	C10H8O2+
161.0601	6	C10H9O2+
163.0389	6	C9H7O3+
165.0696	3	C13H9+
168.057	119	C12H8O+
169.0647	71	C12H9O+
170.021	102	C7H6O5+
171.044	149	C11H7O2+
172.0519	9	C11H8O2+
173.0595	14	C11H9O2+
175.039	11	C10H7O3+
176.0466	10	C10H8O3+
179.0343	5	C9H7O4+
179.0491	10	C13H7O+
181.0647	9	C13H9O+
182.0358	2	C12H6O2+
183.0441	23	C12H7O2+
183.0806	4	C13H11O+
184.0366	8	C8H8O5+
184.0518	47	C12H8O2+
185.0597	251	C12H9O2+
186.0676	53	C12H10O2+
187.0394	11	C11H7O3+
188.0469	8	C11H8O3+
195.0441	16	C13H7O2+
196.0518	19	C13H8O2+
197.0597	180	C13H9O2+
198.0671	2	C13H10O2+
199.0389	30	C12H7O3+
200.0469	17	C12H8O3+
201.0545	10	C12H9O3+
203.034	6	C11H7O4+
211.0387	10	C13H7O3+
211.0753	4	C14H11O2+
212.047	5	C13H8O3+
213.0546	999	C13H9O3+
214.0621	35	C13H10O3+
216.0416	55	C12H8O4+
224.0465	16	C14H8O3+
225.0547	54	C14H9O3+
226.062	4	C14H10O3+
227.0337	21	C13H7O4+
228.041	2	C13H8O4+
229.086	5	C14H13O3+
241.0495	314	C14H9O4+
242.0573	54	C14H10O4+
252.0416	3	C15H8O4+
253.0494	68	C15H9O4+
269.0444	124	C15H9O5+
270.0525	3	C15H10O5+
