Mass spectrum: 4`-Sulfamylacetanilide; LC-ESI-QFT; MS2; CE: 45; R=17500; [M-H]-
Name: 4'-Sulfamylacetanilide
Name: 4-Acetamidobenzenesulfonamide
Name: N-(4-sulfamoylphenyl)acetamide
Formula: C8H10N2O3S
Exact mass: 214.0412
SMILES: CC(=O)NC1=CC=C(C=C1)S(N)(=O)=O
InChI: InChI=1S/C8H10N2O3S/c1-6(11)10-7-2-4-8(5-3-7)14(9,12)13/h2-5H,1H3,(H,10,11)(H2,9,12,13)
Instrument: Q Exactive Orbitrap (Thermo Scientific)
Instrument type: LC-ESI-QFT
Ms type: MS2
Ion mode: NEGATIVE
Ionization: ESI
Fragmentation mode: HCD
Collision energy: 45
Resolution: 17500
Column name: Acquity BEH C18 1.7um, 2.1x150mm (Waters)
Retention time: 8.232 min
Base peak: 204.124
Precursor m/z: 213.0339
Precursor type: [M-H]-
Precursor intensity: 2178925.894531
m/z	relative intensity	assigned
61.9706	8	NOS-
63.9625	18	O2S-
77.9655	944	NO2S-
78.9734	162	HNO2S-
79.9573	10	O3S-
79.9811	62	H2NO2S-
80.9653	5	HO3S-
92.0506	265	C6H6N-
93.9604	56	NO3S-
94.0299	31	C5H4NO-
106.0298	10	C6H4NO-
106.0537	203	C6H6N2-
107.0377	6	C6H5NO-
107.0615	19	C6H7N2-
118.0299	4	C7H4NO-
122.0247	72	C6H4NO2-
133.0409	11	C7H5N2O-
133.0533	33	C8H7NO-
134.0612	999	C8H8NO-
136.0403	19	C7H6NO2-
148.0641	7	C8H8N2O-
149.0482	102	C8H7NO2-
149.072	408	C8H9N2O-
150.0197	9	C7H4NO3-
150.056	11	C8H8NO2-
164.0362	4	C8H6NO3-
171.0234	261	C6H7N2O2S-
172.0073	8	C6H6NO3S-
181.9919	5	C7H4NO3S-
197.0151	11	C8H7NO3S-
213.034	640	C8H9N2O3S-
