Mass spectrum: Aplaviroc; LC-ESI-QFT; MS2; CE: 75; R=17500; [M-H]-
Name: Aplaviroc
Name: 4-[4-[[(3R)-1-butyl-3-[(R)-cyclohexyl(hydroxy)methyl]-2,5-dioxo-1,4,9-triazaspiro[5.5]undecan-9-yl]methyl]phenoxy]benzoic acid
Formula: C33H43N3O6
Exact mass: 577.3152
SMILES: CCCCN1C(=O)[C@@H]([C@H](O)C2CCCCC2)NC(=O)C12CCN(Cc1ccc(Oc3ccc(C(=O)O)cc3)cc1)CC2
InChI: InChI=1S/C33H43N3O6/c1-2-3-19-36-30(38)28(29(37)24-7-5-4-6-8-24)34-32(41)33(36)17-20-35(21-18-33)22-23-9-13-26(14-10-23)42-27-15-11-25(12-16-27)31(39)40/h9-16,24,28-29,37H,2-8,17-22H2,1H3,(H,34,41)(H,39,40)/t28-,29-/m1/s1
Instrument: Q Exactive Orbitrap (Thermo Scientific)
Instrument type: LC-ESI-QFT
Ms type: MS2
Ion mode: NEGATIVE
Ionization: ESI
Fragmentation mode: HCD
Collision energy: 75
Resolution: 17500
Column name: Acquity BEH C18 1.7um, 2.1x150mm (Waters)
Retention time: 15.958 min
Base peak: 229.0506
Precursor m/z: 576.3079
Precursor type: [M-H]-
Precursor intensity: 3791242.611816
m/z	relative intensity	assigned
73.0407	113	C2H5N2O-
80.0505	90	C5H6N-
84.0091	114	C3H2NO2-
92.0506	174	C6H6N-
93.0346	999	C6H5O-
95.0503	198	C6H7O-
97.0045	547	C3HN2O2-
98.0975	99	C6H12N-
100.0768	95	C5H10NO-
106.0422	164	C7H6O-
107.0502	69	C7H7O-
108.0217	136	C6H4O2-
108.0455	260	C6H6NO-
118.0299	221	C7H4NO-
120.0455	94	C7H6NO-
123.0452	308	C7H7O2-
127.0876	212	C6H11N2O-
129.1033	351	C6H13N2O-
132.0457	94	C8H6NO-
133.0533	71	C8H7NO-
136.0404	230	C7H6NO2-
154.0748	176	C7H10N2O2-
155.0825	177	C7H11N2O2-
165.0428	60	C8H7NO3-
169.0658	71	C12H9O-
172.0768	93	C11H10NO-
182.0737	112	C13H10O-
183.0816	118	C13H11O-
238.1556	103	C12H20N3O2-
