Mass spectrum: Scopolamine; LC-ESI-QFT; MS2; CE: 30; R=17500; [M+H]+
Name: Scopolamine
Formula: C17H21NO4
Exact mass: 303.1471
SMILES: CN1[C@H]2C[C@H](OC(=O)[C@H](CO)c3ccccc3)C[C@@H]1[C@H]1O[C@@H]21
InChI: InChI=1S/C17H21NO4/c1-18-13-7-11(8-14(18)16-15(13)22-16)21-17(20)12(9-19)10-5-3-2-4-6-10/h2-6,11-16,19H,7-9H2,1H3/t11-,12-,13-,14+,15-,16+/m1/s1
Instrument: Q Exactive Orbitrap (Thermo Scientific)
Instrument type: LC-ESI-QFT
Ms type: MS2
Ion mode: POSITIVE
Ionization: ESI
Fragmentation mode: HCD
Collision energy: 30
Resolution: 17500
Column name: Acquity BEH C18 1.7um, 2.1x150mm (Waters)
Retention time: 9.993 min
Base peak: 79.0212
Precursor m/z: 304.1543
Precursor type: [M+H]+
Precursor intensity: 22001857.75
m/z	relative intensity	assigned
67.0542	1	C5H7+
70.0652	3	C4H8N+
74.0599	10	C3H8NO+
79.0542	13	C6H7+
81.0335	6	C5H5O+
81.0699	3	C6H9+
82.0651	10	C5H8N+
83.0492	10	C5H7O+
84.0808	9	C5H10N+
91.0542	2	C7H7+
93.0698	2	C7H9+
94.0652	6	C6H8N+
96.0443	5	C5H6NO+
96.0806	3	C6H10N+
97.0522	3	C5H7NO+
97.0649	3	C6H9O+
98.0601	87	C5H8NO+
103.0542	24	C8H7+
107.0491	3	C7H7O+
108.0808	2	C7H10N+
109.0885	1	C7H11N+
110.0601	7	C6H8NO+
110.0965	101	C7H12N+
120.0809	10	C8H10N+
121.0648	301	C8H9O+
138.0913	999	C8H12NO+
139.0753	1	C8H11O2+
139.0991	1	C8H13NO+
154.0862	1	C8H12NO2+
156.1019	704	C8H14NO2+
274.1446	3	C16H20NO3+
286.1446	1	C17H20NO3+
304.1543	824	C17H22NO4+
