Mass spectrum: 2,6-Dimethoxybenzoic acid; LC-ESI-QFT; MS2; CE: 60; R=17500; [M+H]+
Name: 2,6-Dimethoxybenzoic acid
Formula: C9H10O4
Exact mass: 182.0579
SMILES: COC1=CC=CC(OC)=C1C(O)=O
InChI: InChI=1S/C9H10O4/c1-12-6-4-3-5-7(13-2)8(6)9(10)11/h3-5H,1-2H3,(H,10,11)
Instrument: Q Exactive Orbitrap (Thermo Scientific)
Instrument type: LC-ESI-QFT
Ms type: MS2
Ion mode: POSITIVE
Ionization: ESI
Fragmentation mode: HCD
Collision energy: 60
Resolution: 17500
Column name: Acquity BEH C18 1.7um, 2.1x150mm (Waters)
Retention time: 12.301 min
Base peak: 79.0211
Precursor m/z: 183.0652
Precursor type: [M+H]+
Precursor intensity: 2047471.125
m/z	relative intensity	assigned
79.0543	34	C6H7+
95.0493	29	C6H7O+
107.0128	60	C6H3O2+
107.0493	34	C7H7O+
109.0649	34	C7H9O+
122.0362	207	C7H6O2+
125.0599	26	C7H9O2+
135.0441	45	C8H7O2+
150.0311	269	C8H6O3+
165.0547	999	C9H9O3+
168.0417	270	C8H8O4+
