Mass spectrum: Thalidomide; LC-ESI-QFT; MS2; CE: 30; R=17500; [M-H]-
Name: Thalidomide
Formula: C13H10N2O4
Exact mass: 258.0641
SMILES: O=C1N(C2CCC(=O)NC2=O)C(=O)C2=CC=CC=C12
InChI: InChI=1S/C13H10N2O4/c16-10-6-5-9(11(17)14-10)15-12(18)7-3-1-2-4-8(7)13(15)19/h1-4,9H,5-6H2,(H,14,16,17)
Instrument: Q Exactive Orbitrap (Thermo Scientific)
Instrument type: LC-ESI-QFT
Ms type: MS2
Ion mode: NEGATIVE
Ionization: ESI
Fragmentation mode: HCD
Collision energy: 30
Resolution: 17500
Column name: Acquity BEH C18 1.7um, 2.1x150mm (Waters)
Retention time: 16.757 min
Base peak: 291.0599
Precursor m/z: 257.0568
Precursor type: [M-H]-
Precursor intensity: 622017.6806641
m/z	relative intensity	assigned
94.0298	102	C5H4NO-
107.0375	8	C6H5NO-
108.0456	57	C6H6NO-
118.0297	38	C7H4NO-
134.0248	66	C7H4NO2-
136.0404	162	C7H6NO2-
162.0194	10	C8H4NO3-
183.0563	10	C11H7N2O-
185.0719	39	C11H9N2O-
211.0514	360	C12H7N2O2-
227.0465	11	C12H7N2O3-
228.0541	202	C12H8N2O3-
229.0619	459	C12H9N2O3-
239.0461	81	C13H7N2O3-
257.0568	999	C13H9N2O4-
