Mass spectrum: Sulfisoxazole; LC-ESI-QFT; MS2; CE: 30; R=17500; [M+H]+
Name: Sulfisoxazole
Name: 4-amino-N-(3,4-dimethyl-1,2-oxazol-5-yl)benzenesulfonamide
Formula: C11H13N3O3S
Exact mass: 267.0678
SMILES: CC1=NOC(NS(=O)(=O)C2=CC=C(N)C=C2)=C1C
InChI: InChI=1S/C11H13N3O3S/c1-7-8(2)13-17-11(7)14-18(15,16)10-5-3-9(12)4-6-10/h3-6,14H,12H2,1-2H3
Instrument: Q Exactive Orbitrap (Thermo Scientific)
Instrument type: LC-ESI-QFT
Ms type: MS2
Ion mode: POSITIVE
Ionization: ESI
Fragmentation mode: HCD
Collision energy: 30
Resolution: 17500
Column name: Acquity BEH C18 1.7um, 2.1x150mm (Waters)
Retention time: 12.458 min
Base peak: 79.0211
Precursor m/z: 268.075
Precursor type: [M+H]+
Precursor intensity: 22949468.375
m/z	relative intensity	assigned
53.0386	1	C4H5+
54.0338	2	C3H4N+
55.0178	5	C3H3O+
58.0651	2	C3H8N+
62.0185	4	C2H6S+
65.0384	3	C5H5+
68.0494	38	C4H6N+
69.0335	1	C4H5O+
70.0651	1	C4H8N+
71.0603	15	C3H7N2+
72.0443	1	C3H6NO+
78.0338	3	C5H4N+
79.0178	4	C5H3O+
85.076	1	C4H9N2+
86.06	19	C4H8NO+
92.0494	73	C6H6N+
93.0573	1	C6H7N+
94.0651	2	C6H8N+
95.0604	3	C5H7N2+
96.0444	16	C5H6NO+
106.0651	244	C7H8N+
107.0684	177	C2H9N3O2+
108.0443	246	C6H6NO+
110.06	11	C6H8NO+
112.0632	2	C5H8N2O+
113.0709	780	C5H9N2O+
120.0556	5	C6H6N3+
140.0163	8	C6H6NOS+
156.0113	999	C6H6NO2S+
162.055	3	C9H8NO2+
163.0579	4	C10H11S+
173.0142	3	C6H7NO3S+
174.0215	4	C6H8NO3S+
175.0173	3	C5H7N2O3S+
180.0654	27	C9H10NO3+
181.0689	32	C10H13OS+
268.0749	40	C11H14N3O3S+
