Mass spectrum: Quercetin; LC-ESI-QFT; MS2; CE: 60; R=17500; [M-H]-
Name: Quercetin
Name: 2-(3,4-dihydroxyphenyl)-3,5,7-trihydroxychromen-4-one
Formula: C15H10O7
Exact mass: 302.0427
SMILES: OC1=CC2=C(C(O)=C1)C(=O)C(O)=C(O2)C1=CC(O)=C(O)C=C1
InChI: InChI=1S/C15H10O7/c16-7-4-10(19)12-11(5-7)22-15(14(21)13(12)20)6-1-2-8(17)9(18)3-6/h1-5,16-19,21H
Instrument: Q Exactive Orbitrap (Thermo Scientific)
Instrument type: LC-ESI-QFT
Ms type: MS2
Ion mode: NEGATIVE
Ionization: ESI
Fragmentation mode: HCD
Collision energy: 60
Resolution: 17500
Column name: Acquity BEH C18 1.7um, 2.1x150mm (Waters)
Retention time: 15.510 min
Base peak: 112.9856
Precursor m/z: 301.0354
Precursor type: [M-H]-
Precursor intensity: 1610118.237793
m/z	relative intensity	assigned
63.024	509	C5H3-
65.0033	743	C4HO-
83.0139	471	C4H3O2-
93.0346	257	C6H5O-
95.0139	23	C5H3O2-
107.0139	999	C6H3O2-
108.0217	19	C6H4O2-
108.993	27	C5HO3-
109.0295	112	C6H5O2-
121.0295	635	C7H5O2-
124.0166	22	C6H4O3-
125.0243	21	C6H5O3-
135.009	13	C7H3O3-
135.045	13	C8H7O2-
137.0244	13	C7H5O3-
139.0401	132	C7H7O3-
145.0294	26	C9H5O2-
147.0089	10	C8H3O3-
147.045	13	C9H7O2-
148.0165	13	C8H4O3-
149.0244	93	C8H5O3-
151.0037	849	C7H3O4-
152.0111	10	C7H4O4-
159.0453	51	C10H7O2-
161.0244	60	C9H5O3-
161.0604	10	C10H9O2-
162.0328	12	C9H6O3-
163.0035	38	C8H3O4-
163.0402	21	C9H7O3-
164.0117	66	C8H4O4-
169.0143	79	C7H5O5-
171.0456	11	C11H7O2-
175.04	25	C10H7O3-
177.0557	14	C10H9O3-
178.9985	60	C8H3O5-
183.0449	25	C12H7O2-
187.0398	20	C11H7O3-
193.0141	19	C9H5O5-
196.0011	16	C8H4O6-
199.0399	12	C12H7O3-
201.0556	29	C12H9O3-
203.0348	24	C11H7O4-
211.0399	26	C13H7O3-
227.0349	25	C13H7O4-
229.0506	10	C13H9O4-
243.0299	24	C13H7O5-
245.0452	28	C13H9O5-
255.03	14	C14H7O5-
