Mass spectrum: Econazole; LC-ESI-QFT; MS2; CE: 45; R=17500; [M+H]+
Name: Econazole
Name: 1-[2-[(4-chlorophenyl)methoxy]-2-(2,4-dichlorophenyl)ethyl]imidazole
Formula: C18H15Cl3N2O
Exact mass: 380.0250
SMILES: ClC1=CC=C(COC(CN2C=CN=C2)C2=C(Cl)C=C(Cl)C=C2)C=C1
InChI: InChI=1S/C18H15Cl3N2O/c19-14-3-1-13(2-4-14)11-24-18(10-23-8-7-22-12-23)16-6-5-15(20)9-17(16)21/h1-9,12,18H,10-11H2
Instrument: Q Exactive Orbitrap (Thermo Scientific)
Instrument type: LC-ESI-QFT
Ms type: MS2
Ion mode: POSITIVE
Ionization: ESI
Fragmentation mode: HCD
Collision energy: 45
Resolution: 17500
Column name: Acquity BEH C18 1.7um, 2.1x150mm (Waters)
Retention time: 16.818 min
Base peak: 79.0211
Precursor m/z: 381.0323
Precursor type: [M+H]+
Precursor intensity: 16124665
m/z	relative intensity	assigned
69.0447	54	C3H5N2+
82.0526	1	C4H6N2+
89.0384	5	C7H5+
98.9994	2	C5H4Cl+
125.0151	999	C7H6Cl+
158.9766	1	C7H5Cl2+
193.0527	2	C10H10ClN2+
248.0152	1	C14H10Cl2+
381.0324	3	C18H16Cl3N2O+
