Mass spectrum: Spirotetramat; LC-ESI-QFT; MS2; CE: 90; R=17500; [M+H]+
Name: Spirotetramat
Formula: C21H27NO5
Exact mass: 373.1889
SMILES: CCOC(=O)OC1=C(C(=O)N[C@@]11CC[C@@H](CC1)OC)C1=C(C)C=CC(C)=C1
InChI: InChI=1S/C21H27NO5/c1-5-26-20(24)27-18-17(16-12-13(2)6-7-14(16)3)19(23)22-21(18)10-8-15(25-4)9-11-21/h6-7,12,15H,5,8-11H2,1-4H3,(H,22,23)/t15-,21+
Instrument: Q Exactive Orbitrap (Thermo Scientific)
Instrument type: LC-ESI-QFT
Ms type: MS2
Ion mode: POSITIVE
Ionization: ESI
Fragmentation mode: HCD
Collision energy: 90
Resolution: 17500
Column name: Acquity BEH C18 1.7um, 2.1x150mm (Waters)
Retention time: 17.784 min
Base peak: 79.0211
Precursor m/z: 374.1962
Precursor type: [M+H]+
Precursor intensity: 18229349.8125
m/z	relative intensity	assigned
53.0021	11	C3HO+
53.0386	40	C4H5+
54.0338	22	C3H4N+
55.0178	40	C3H3O+
55.0542	30	C4H7+
56.0495	9	C3H6N+
57.0699	13	C4H9+
65.0385	40	C5H5+
67.0542	97	C5H7+
68.013	2	C3H2NO+
68.0494	18	C4H6N+
69.0334	10	C4H5O+
69.0698	17	C5H9+
70.0288	4	C3H4NO+
70.0652	2	C4H8N+
74.0965	2	C4H12N+
77.0383	11	C6H5+
79.0542	161	C6H7+
80.0494	17	C5H6N+
81.0334	9	C5H5O+
81.0573	14	C5H7N+
81.0699	34	C6H9+
82.0286	6	C4H4NO+
82.0651	6	C5H8N+
83.049	3	C5H7O+
91.0542	710	C7H7+
93.0699	30	C7H9+
94.0651	11	C6H8N+
95.0491	62	C6H7O+
95.0856	4	C7H11+
96.0444	9	C5H6NO+
96.0807	37	C6H10N+
102.0464	10	C8H6+
103.0542	91	C8H7+
104.062	39	C8H8+
105.0699	783	C8H9+
106.0649	3	C7H8N+
107.0489	12	C7H7O+
107.0855	12	C8H11+
108.0807	4	C7H10N+
109.0649	5	C7H9O+
110.0601	7	C6H8NO+
115.0542	644	C9H7+
116.062	93	C9H8+
117.0698	999	C9H9+
118.0651	6	C8H8N+
118.0776	30	C9H10+
119.0855	760	C9H11+
122.0601	2	C7H8NO+
123.0805	11	C8H11O+
124.0393	46	C6H6NO2+
124.0757	3	C7H10NO+
127.054	15	C10H7+
128.062	460	C10H8+
129.0698	375	C10H9+
130.0655	87	C9H8N+
130.0777	771	C10H10+
131.049	22	C9H7O+
131.073	37	C9H9N+
131.0854	72	C10H11+
132.0569	36	C9H8O+
132.0808	12	C9H10N+
132.0936	3	C10H12+
133.0647	62	C9H9O+
133.1011	41	C10H13+
136.0758	3	C8H10NO+
141.0698	125	C11H9+
142.0499	9	C6H8NO3+
142.0777	93	C11H10+
143.0855	374	C11H11+
144.0569	6	C10H8O+
144.0807	120	C10H10N+
144.0936	10	C11H12+
145.0648	88	C10H9O+
145.0886	388	C10H11N+
145.101	533	C11H13+
146.0598	6	C9H8NO+
146.0724	19	C10H10O+
146.0963	13	C10H12N+
147.0804	72	C10H11O+
147.1166	12	C11H15+
152.062	28	C12H8+
153.0698	132	C12H9+
154.0654	27	C11H8N+
154.0776	56	C12H10+
155.0737	38	C11H9N+
155.0854	211	C12H11+
156.0569	5	C11H8O+
156.081	21	C11H10N+
156.0933	37	C12H12+
157.0648	47	C11H9O+
157.0886	62	C11H11N+
157.1005	16	C12H13+
158.0725	220	C11H10O+
158.0965	30	C11H12N+
159.0805	18	C11H11O+
159.1042	22	C11H13N+
160.0757	14	C10H10NO+
160.112	87	C11H14N+
165.0697	77	C13H9+
166.0776	44	C13H10+
167.0737	11	C12H9N+
167.0854	97	C13H11+
168.0565	4	C12H8O+
168.0809	15	C12H10N+
168.0933	31	C13H12+
169.0648	6	C12H9O+
169.1012	38	C13H13+
170.0962	36	C12H12N+
171.0804	30	C12H11O+
171.1042	9	C12H13N+
171.1167	8	C13H15+
172.0756	14	C11H10NO+
172.0881	8	C12H12O+
172.1121	7	C12H14N+
173.0597	7	C11H9O2+
173.0835	128	C11H11NO+
173.0961	34	C12H13O+
174.0912	9	C11H12NO+
178.0775	34	C14H10+
179.0855	45	C14H11+
180.0809	10	C13H10N+
180.0933	8	C14H12+
181.0886	14	C13H11N+
181.1011	36	C14H13+
182.0601	10	C12H8NO+
182.0961	4	C13H12N+
182.1088	18	C14H14+
183.0679	59	C12H9NO+
183.08	7	C13H11O+
183.1168	5	C14H15+
184.0516	13	C12H8O2+
184.0754	12	C12H10NO+
184.1121	3	C13H14N+
186.0549	7	C11H8NO2+
186.0912	8	C12H12NO+
187.0992	4	C12H13NO+
188.1069	103	C12H14NO+
191.0854	47	C15H11+
192.0933	36	C15H12+
193.1011	6	C15H13+
194.0966	8	C14H12N+
194.1084	2	C15H14+
195.0805	9	C14H11O+
195.1047	4	C14H13N+
195.1169	6	C15H15+
196.0754	3	C13H10NO+
196.112	7	C14H14N+
198.0913	20	C13H12NO+
199.0753	6	C13H11O2+
200.0705	9	C12H10NO2+
200.1079	5	C13H14NO+
201.0785	13	C12H11NO2+
204.081	5	C15H10N+
205.1013	5	C16H13+
207.1043	2	C15H13N+
207.1172	3	C16H15+
208.1122	7	C15H14N+
209.0839	5	C14H11NO+
209.0952	5	C15H13O+
211.099	2	C14H13NO+
212.1069	4	C14H14NO+
214.0864	8	C13H12NO2+
216.1018	248	C13H14NO2+
218.096	2	C16H12N+
222.0918	4	C12H14O4+
222.1275	3	C16H16N+
236.1071	7	C16H14NO+
237.1142	3	C16H15NO+
250.1222	5	C17H16NO+
