Mass spectrum: AVE6324; LC-ESI-QFT; MS2; CE: 75; R=17500; [M-H]-
Name: AVE6324
Name: [(1R)-1-ethoxycarbonyloxyethyl] 1-[[5-(5-chlorothiophen-2-yl)-1,2-oxazol-3-yl]methyl]-2-[(1-propan-2-ylpiperidin-4-yl)carbamoyl]indole-5-carboxylate
Formula: C31H35ClN4O7S
Exact mass: 642.1915
SMILES: CCOC(=O)O[C@H](C)OC(=O)c1ccc2c(c1)cc(C(=O)NC1CCN(C(C)C)CC1)n2Cc1cc(-c2ccc(Cl)s2)on1
InChI: InChI=1S/C31H35ClN4O7S/c1-5-40-31(39)42-19(4)41-30(38)20-6-7-24-21(14-20)15-25(29(37)33-22-10-12-35(13-11-22)18(2)3)36(24)17-23-16-26(43-34-23)27-8-9-28(32)44-27/h6-9,14-16,18-19,22H,5,10-13,17H2,1-4H3,(H,33,37)/t19-/m1/s1
Instrument: Q Exactive Orbitrap (Thermo Scientific)
Instrument type: LC-ESI-QFT
Ms type: MS2
Ion mode: NEGATIVE
Ionization: ESI
Fragmentation mode: HCD
Collision energy: 75
Resolution: 17500
Column name: Acquity BEH C18 1.7um, 2.1x150mm (Waters)
Retention time: 17.265 min
Base peak: 112.9857
Precursor m/z: 641.1842
Precursor type: [M-H]-
Precursor intensity: 771853.03125
m/z	relative intensity	assigned
50.0035	9	C3N-
56.9805	2	C2HS-
65.9985	12	C3NO-
66.035	5	C4H4N-
74.0037	3	C5N-
79.9726	5	C4S-
80.9804	63	C4HS-
89.0245	13	C3H5O3-
90.035	61	C6H4N-
94.0299	8	C5H4NO-
96.0455	5	C5H6NO-
104.9804	40	C6HS-
105.9755	2	C5NS-
107.0376	4	C6H5NO-
108.9753	27	C5HOS-
114.0348	22	C8H4N-
115.0429	4	C8H5N-
116.0505	999	C8H6N-
118.0298	63	C7H4NO-
131.0376	38	C8H5NO-
131.9912	3	C7H2NS-
132.9753	26	C7HOS-
140.0506	7	C10H6N-
141.0457	4	C9H5N2-
144.0455	10	C9H6NO-
146.0249	11	C8H4NO2-
158.0613	13	C10H8NO-
159.0327	2	C9H5NO2-
160.0404	135	C9H6NO2-
188.0717	28	C11H10NO2-
257.0934	3	C14H13N2O3-
