Mass spectrum: Physostigmine; LC-ESI-QFT; MS2; CE: 60; R=17500; [M+H]+
Name: Physostigmine
Name: [(3aR,8bS)-3,4,8b-trimethyl-2,3a-dihydro-1H-pyrrolo[2,3-b]indol-7-yl] N-methylcarbamate
Formula: C15H21N3O2
Exact mass: 275.1634
SMILES: CNC(=O)OC1=CC2=C(C=C1)N(C)[C@H]1N(C)CC[C@@]21C
InChI: InChI=1S/C15H21N3O2/c1-15-7-8-17(3)13(15)18(4)12-6-5-10(9-11(12)15)20-14(19)16-2/h5-6,9,13H,7-8H2,1-4H3,(H,16,19)/t13-,15+/m1/s1
Instrument: Q Exactive Orbitrap (Thermo Scientific)
Instrument type: LC-ESI-QFT
Ms type: MS2
Ion mode: POSITIVE
Ionization: ESI
Fragmentation mode: HCD
Collision energy: 60
Resolution: 17500
Column name: Acquity BEH C18 1.7um, 2.1x150mm (Waters)
Retention time: 10.625 min
Base peak: 79.0211
Precursor m/z: 276.1707
Precursor type: [M+H]+
Precursor intensity: 11759602.5
m/z	relative intensity	assigned
56.0495	3	C3H6N+
58.0651	5	C3H8N+
105.07	1	C8H9+
121.0648	8	C8H9O+
133.0648	2	C9H9O+
134.0964	45	C9H12N+
144.0808	5	C10H10N+
145.0648	3	C10H9O+
145.0887	6	C10H11N+
146.06	14	C9H8NO+
147.0679	301	C9H9NO+
148.0757	2	C9H10NO+
148.1119	3	C10H14N+
160.0758	15	C10H10NO+
160.1124	11	C11H14N+
161.0836	150	C10H11NO+
162.0913	999	C10H12NO+
170.0962	2	C12H12N+
172.0754	3	C11H10NO+
173.0835	53	C11H11NO+
176.107	210	C11H14NO+
188.1071	173	C12H14NO+
