Mass spectrum: Undecanedioic acid; LC-ESI-QFT; MS2; CE: 75; R=17500; [M-H]-
Name: Undecanedioic acid
Formula: C11H20O4
Exact mass: 216.1362
SMILES: OC(=O)CCCCCCCCCC(O)=O
InChI: InChI=1S/C11H20O4/c12-10(13)8-6-4-2-1-3-5-7-9-11(14)15/h1-9H2,(H,12,13)(H,14,15)
Instrument: Q Exactive Orbitrap (Thermo Scientific)
Instrument type: LC-ESI-QFT
Ms type: MS2
Ion mode: NEGATIVE
Ionization: ESI
Fragmentation mode: HCD
Collision energy: 75
Resolution: 17500
Column name: Acquity BEH C18 1.7um, 2.1x150mm (Waters)
Retention time: 16.712 min
Base peak: 429.0536
Precursor m/z: 215.1289
Precursor type: [M-H]-
Precursor intensity: 24173756.89844
m/z	relative intensity	assigned
57.0346	216	C3H5O-
69.0346	43	C4H5O-
71.0503	62	C4H7O-
80.0267	200	C5H4O-
81.0345	38	C5H5O-
83.0501	43	C5H7O-
97.0659	43	C6H9O-
125.0973	141	C8H13O-
151.1129	204	C10H15O-
153.1285	999	C10H17O-
197.1183	389	C11H17O3-
215.1288	170	C11H19O4-
