Mass spectrum: Loratadine; LC-ESI-QFT; MS2; CE: 30; R=17500; [M+H]+
Name: Loratadine
Name: ethyl 4-(13-chloro-4-azatricyclo[9.4.0.03,8]pentadeca-1(11),3(8),4,6,12,14-hexaen-2-ylidene)piperidine-1-carboxylate
Formula: C22H23ClN2O2
Exact mass: 382.1448
SMILES: CCOC(=O)N1CCC(CC1)=C1C2=C(CCC3=C1N=CC=C3)C=C(Cl)C=C2
InChI: InChI=1S/C22H23ClN2O2/c1-2-27-22(26)25-12-9-15(10-13-25)20-19-8-7-18(23)14-17(19)6-5-16-4-3-11-24-21(16)20/h3-4,7-8,11,14H,2,5-6,9-10,12-13H2,1H3
Instrument: Q Exactive Orbitrap (Thermo Scientific)
Instrument type: LC-ESI-QFT
Ms type: MS2
Ion mode: POSITIVE
Ionization: ESI
Fragmentation mode: HCD
Collision energy: 30
Resolution: 17500
Column name: Acquity BEH C18 1.7um, 2.1x150mm (Waters)
Retention time: 17.754 min
Base peak: 79.0212
Precursor m/z: 383.1521
Precursor type: [M+H]+
Precursor intensity: 28807410
m/z	relative intensity	assigned
88.0391	1	C3H6NO2+
102.0549	2	C4H8NO2+
126.0549	1	C6H8NO2+
154.0861	3	C8H12NO2+
228.0571	4	C17H8O+
248.0944	1	C16H12N2O+
258.1274	5	C19H16N+
259.1355	46	C19H17N+
267.0809	44	C17H14ClN+
268.0883	2	C20H12O+
270.0554	2	C15H11ClN2O+
279.0807	3	C18H14ClN+
281.0965	20	C18H16ClN+
282.1043	35	C18H17ClN+
292.0883	3	C22H12O+
294.1043	66	C19H17ClN+
302.1412	6	C20H18N2O+
311.1306	8	C22H17NO+
320.0844	1	C20H15ClNO+
322.087	5	C19H15ClN2O+
337.1101	999	C20H18ClN2O+
339.162	23	C21H24ClN2+
348.1831	3	C22H24N2O2+
355.1205	17	C20H20ClN2O2+
383.152	927	C22H24ClN2O2+
