Mass spectrum: Biochanin A; LC-ESI-QFT; MS2; CE: 30; R=17500; [M+H]+
Name: Biochanin A
Name: 5,7-dihydroxy-3-(4-methoxyphenyl)chromen-4-one
Formula: C16H12O5
Exact mass: 284.0685
SMILES: COC1=CC=C(C=C1)C1=COC2=C(C(O)=CC(O)=C2)C1=O
InChI: InChI=1S/C16H12O5/c1-20-11-4-2-9(3-5-11)12-8-21-14-7-10(17)6-13(18)15(14)16(12)19/h2-8,17-18H,1H3
Instrument: Q Exactive Orbitrap (Thermo Scientific)
Instrument type: LC-ESI-QFT
Ms type: MS2
Ion mode: POSITIVE
Ionization: ESI
Fragmentation mode: HCD
Collision energy: 30
Resolution: 17500
Column name: Acquity BEH C18 1.7um, 2.1x150mm (Waters)
Retention time: 17.742 min
Base peak: 79.0211
Precursor m/z: 285.0757
Precursor type: [M+H]+
Precursor intensity: 6189423.8125
m/z	relative intensity	assigned
123.0441	3	C7H7O2+
149.0233	4	C8H5O3+
152.0105	1	C7H4O4+
153.0182	1	C7H5O4+
170.0209	3	C7H6O5+
179.034	1	C9H7O4+
229.086	7	C14H13O3+
253.0494	3	C15H9O4+
257.0809	3	C15H13O4+
269.0442	1	C15H9O5+
270.0521	13	C15H10O5+
285.0757	999	C16H13O5+
