Mass spectrum: Fluorescein; LC-ESI-QFT; MS2; CE: 60; R=17500; [M-H]-
Name: Fluorescein
Name: 3',6'-dihydroxyspiro[2-benzofuran-3,9'-xanthene]-1-one
Formula: C20H12O5
Exact mass: 332.0685
SMILES: OC1=CC2=C(C=C1)C1(OC(=O)C3=C1C=CC=C3)C1=C(O2)C=C(O)C=C1
InChI: InChI=1S/C20H12O5/c21-11-5-7-15-17(9-11)24-18-10-12(22)6-8-16(18)20(15)14-4-2-1-3-13(14)19(23)25-20/h1-10,21-22H
Instrument: Q Exactive Orbitrap (Thermo Scientific)
Instrument type: LC-ESI-QFT
Ms type: MS2
Ion mode: NEGATIVE
Ionization: ESI
Fragmentation mode: HCD
Collision energy: 60
Resolution: 17500
Column name: Acquity BEH C18 1.7um, 2.1x150mm (Waters)
Retention time: 15.791 min
Base peak: 284.0451
Precursor m/z: 331.0612
Precursor type: [M-H]-
Precursor intensity: 10717883.51367
m/z	relative intensity	assigned
165.0708	4	C13H9-
189.071	14	C15H9-
191.0867	3	C15H11-
193.066	13	C14H9O-
195.0452	5	C13H7O2-
202.0788	2	C16H10-
203.0504	4	C15H7O-
203.0867	5	C16H11-
204.0581	16	C15H8O-
213.0713	4	C17H9-
215.0867	57	C17H11-
217.0658	61	C16H9O-
219.0806	7	C16H11O-
228.0584	2	C17H8O-
229.0663	2	C17H9O-
230.0737	41	C17H10O-
231.0816	24	C17H11O-
232.0533	7	C16H8O2-
233.0607	3	C16H9O2-
234.0688	2	C16H10O2-
241.066	33	C18H9O-
242.0733	7	C18H10O-
243.0815	152	C18H11O-
245.0609	27	C17H9O2-
246.0686	50	C17H10O2-
247.0753	1	C17H11O2-
256.0522	1	C18H8O2-
257.0612	21	C18H9O2-
258.0686	55	C18H10O2-
259.0764	58	C18H11O2-
269.0612	4	C19H9O2-
270.0685	1	C19H10O2-
272.0482	4	C18H8O3-
284.0491	1	C19H8O3-
285.0558	999	C19H9O3-
286.0636	190	C19H10O3-
287.0715	57	C19H11O3-
