Mass spectrum: Carboxin; LC-ESI-QFT; MS2; CE: 15; R=17500; [M+H]+
Name: Carboxin
Name: 6-methyl-N-phenyl-2,3-dihydro-1,4-oxathiine-5-carboxamide
Formula: C12H13NO2S
Exact mass: 235.0667
SMILES: CC1=C(SCCO1)C(=O)NC1=CC=CC=C1
InChI: InChI=1S/C12H13NO2S/c1-9-11(16-8-7-15-9)12(14)13-10-5-3-2-4-6-10/h2-6H,7-8H2,1H3,(H,13,14)
Instrument: Q Exactive Orbitrap (Thermo Scientific)
Instrument type: LC-ESI-QFT
Ms type: MS2
Ion mode: POSITIVE
Ionization: ESI
Fragmentation mode: HCD
Collision energy: 15
Resolution: 17500
Column name: Acquity BEH C18 1.7um, 2.1x150mm (Waters)
Retention time: 15.686 min
Base peak: 79.0211
Precursor m/z: 236.074
Precursor type: [M+H]+
Precursor intensity: 11308660.125
m/z	relative intensity	assigned
86.9901	4	C3H3OS+
93.0571	3	C6H7N+
117.0369	23	C5H9OS+
124.0216	13	C6H6NS+
132.0445	6	C8H6NO+
143.0162	999	C6H7O2S+
146.0601	1	C9H8NO+
165.0243	2	C8H7NOS+
166.0322	10	C8H8NOS+
174.055	3	C10H8NO2+
208.0427	38	C10H10NO2S+
218.0634	2	C12H12NOS+
236.074	658	C12H14NO2S+
