Mass spectrum: N,N`-Dibutylthiourea; LC-ESI-QFT; MS2; CE: 15; R=17500; [M+H]+
Name: N,N'-Dibutylthiourea
Name: N,N'-dibutylcarbamimidothioic acid
Formula: C9H20N2S
Exact mass: 188.1347
SMILES: CCCCNC(=S)NCCCC
InChI: InChI=1S/C9H20N2S/c1-3-5-7-10-9(12)11-8-6-4-2/h3-8H2,1-2H3,(H2,10,11,12)
Instrument: Q Exactive Orbitrap (Thermo Scientific)
Instrument type: LC-ESI-QFT
Ms type: MS2
Ion mode: POSITIVE
Ionization: ESI
Fragmentation mode: HCD
Collision energy: 15
Resolution: 17500
Column name: Acquity BEH C18 1.7um, 2.1x150mm (Waters)
Retention time: 16.407 min
Base peak: 79.0211
Precursor m/z: 189.142
Precursor type: [M+H]+
Precursor intensity: 8828112.6875
m/z	relative intensity	assigned
57.0699	84	C4H9+
59.9902	22	CH2NS+
74.0964	999	C4H12N+
116.0528	77	C5H10NS+
189.1419	525	C9H21N2S+
