Mass spectrum: Amoxapine; LC-ESI-QFT; MS2; CE: 45; R=17500; [M+H]+
Name: Amoxapine
Name: 8-chloro-6-piperazin-1-ylbenzo[b][1,4]benzoxazepine
Formula: C17H16ClN3O
Exact mass: 313.0982
SMILES: ClC1=CC=C2OC3=C(C=CC=C3)N=C(N3CCNCC3)C2=C1
InChI: InChI=1S/C17H16ClN3O/c18-12-5-6-15-13(11-12)17(21-9-7-19-8-10-21)20-14-3-1-2-4-16(14)22-15/h1-6,11,19H,7-10H2
Instrument: Q Exactive Orbitrap (Thermo Scientific)
Instrument type: LC-ESI-QFT
Ms type: MS2
Ion mode: POSITIVE
Ionization: ESI
Fragmentation mode: HCD
Collision energy: 45
Resolution: 17500
Column name: Acquity BEH C18 1.7um, 2.1x150mm (Waters)
Retention time: 15.206 min
Base peak: 79.0211
Precursor m/z: 314.1055
Precursor type: [M+H]+
Precursor intensity: 19266232.5625
m/z	relative intensity	assigned
53.0022	1	C3HO+
56.0495	1	C3H6N+
68.0495	2	C4H6N+
70.0651	312	C4H8N+
71.0603	12	C3H7N2+
85.076	4	C4H9N2+
93.0573	4	C6H7N+
118.0651	1	C8H8N+
119.073	4	C8H9N+
193.0522	16	C13H7NO+
200.026	1	C12H7ClN+
205.0526	1	C11H10ClN2+
208.0993	1	C14H12N2+
221.0477	3	C11H10ClN2O+
222.0549	1	C11H11ClN2O+
228.021	49	C13H7ClNO+
230.0367	6	C13H9ClNO+
235.0864	2	C15H11N2O+
236.0946	3	C15H12N2O+
243.0682	1	C14H12ClN2+
244.0526	3	C14H11ClNO+
245.0477	109	C13H10ClN2O+
254.0373	2	C15H9ClNO+
257.0471	1	C14H10ClN2O+
261.1021	1	C17H13N2O+
269.0478	2	C15H10ClN2O+
271.0632	999	C15H12ClN2O+
282.0554	2	C16H11ClN2O+
297.079	154	C17H14ClN2O+
312.09	1	C17H15ClN3O+
314.1055	126	C17H17ClN3O+
