Mass spectrum: Colchicine; LC-ESI-QFT; MS2; CE: 60; R=17500; [M+H]+
Name: Colchicine
Name: N-[(7S)-1,2,3,10-tetramethoxy-9-oxo-6,7-dihydro-5H-benzo[a]heptalen-7-yl]acetamide
Formula: C22H25NO6
Exact mass: 399.1682
SMILES: COC1=CC2=C(C(OC)=C1OC)C1=CC=C(OC)C(=O)C=C1[C@H](CC2)NC(C)=O
InChI: InChI=1S/C22H25NO6/c1-12(24)23-16-8-6-13-10-19(27-3)21(28-4)22(29-5)20(13)14-7-9-18(26-2)17(25)11-15(14)16/h7,9-11,16H,6,8H2,1-5H3,(H,23,24)/t16-/m0/s1
Instrument: Q Exactive Orbitrap (Thermo Scientific)
Instrument type: LC-ESI-QFT
Ms type: MS2
Ion mode: POSITIVE
Ionization: ESI
Fragmentation mode: HCD
Collision energy: 60
Resolution: 17500
Column name: Acquity BEH C18 1.7um, 2.1x150mm (Waters)
Retention time: 14.647 min
Base peak: 79.0211
Precursor m/z: 400.1755
Precursor type: [M+H]+
Precursor intensity: 10574971.875
m/z	relative intensity	assigned
55.0178	14	C3H3O+
56.0495	34	C3H6N+
60.0444	65	C2H6NO+
65.0385	12	C5H5+
68.0493	11	C4H6N+
70.0287	26	C3H4NO+
71.0491	6	C4H7O+
75.0439	19	C3H7O2+
78.0464	8	C6H6+
79.0542	7	C6H7+
80.0495	12	C5H6N+
84.0443	22	C4H6NO+
85.0284	10	C4H5O2+
86.06	13	C4H8NO+
91.0542	41	C7H7+
94.0413	5	C6H6O+
95.0491	14	C6H7O+
100.0393	13	C4H6NO2+
103.0543	15	C8H7+
104.049	8	C7H6N+
104.062	11	C8H8+
105.0699	12	C8H9+
107.0491	20	C7H7O+
109.0646	8	C7H9O+
110.0362	20	C6H6O2+
110.0599	9	C6H8NO+
111.044	19	C6H7O2+
115.0543	16	C9H7+
116.0619	6	C9H8+
117.0697	13	C9H9+
118.0649	11	C8H8N+
119.0491	33	C8H7O+
119.073	7	C8H9N+
121.0647	13	C8H9O+
122.0361	17	C7H6O2+
123.0438	18	C7H7O2+
125.0597	23	C7H9O2+
128.062	8	C10H8+
130.0414	8	C9H6O+
130.0651	18	C9H8N+
131.0491	25	C9H7O+
132.0571	13	C9H8O+
133.0522	101	C8H7NO+
133.0649	19	C9H9O+
134.0604	5	C8H8NO+
135.0441	9	C8H7O2+
136.0518	6	C8H8O2+
136.0758	10	C8H10NO+
137.0471	16	C7H7NO2+
137.0597	167	C8H9O2+
138.0675	18	C8H10O2+
139.0542	6	C11H7+
144.0571	10	C10H8O+
145.0648	57	C10H9O+
146.06	19	C9H8NO+
146.0723	10	C10H10O+
147.044	26	C9H7O2+
147.0679	12	C9H9NO+
147.0805	9	C10H11O+
148.0515	31	C9H8O2+
148.0756	43	C9H10NO+
149.0465	6	C8H7NO2+
149.0595	19	C9H9O2+
150.0551	83	C8H8NO2+
150.0675	11	C9H10O2+
151.039	14	C8H7O3+
151.0754	43	C9H11O2+
152.0634	11	C12H8+
152.0706	52	C8H10NO2+
153.0699	15	C12H9+
158.06	17	C10H8NO+
158.0726	7	C11H10O+
159.0438	13	C10H7O2+
159.068	8	C10H9NO+
159.0803	7	C11H11O+
160.0519	20	C10H8O2+
160.0757	45	C10H10NO+
161.0474	12	C9H7NO2+
161.0596	33	C10H9O2+
162.055	11	C9H8NO2+
162.0674	10	C10H10O2+
163.0754	34	C10H11O2+
164.0703	28	C9H10NO2+
165.07	44	C13H9+
165.0785	64	C9H11NO2+
166.0626	30	C9H10O3+
166.0777	15	C13H10+
167.0704	7	C9H11O3+
167.0856	48	C13H11+
168.0785	8	C12H10N+
169.0649	12	C12H9O+
170.0724	7	C12H10O+
172.0524	6	C11H8O2+
172.0758	12	C11H10NO+
173.0597	35	C11H9O2+
173.0835	8	C11H11NO+
174.0676	20	C11H10O2+
174.0915	12	C11H12NO+
175.0393	14	C10H7O3+
175.0627	26	C10H9NO2+
175.0752	31	C11H11O2+
176.0706	128	C10H10NO2+
176.0832	65	C11H12O2+
177.0548	59	C10H9O3+
177.0697	12	C14H9+
177.0782	7	C10H11NO2+
177.0912	11	C11H13O2+
178.0628	9	C10H10O3+
178.0778	32	C14H10+
178.0858	9	C10H12NO2+
179.0706	45	C10H11O3+
179.0855	61	C14H11+
180.0573	12	C13H8O+
180.0801	7	C13H10N+
180.0936	6	C14H12+
181.0646	57	C13H9O+
181.0859	151	C10H13O3+
181.1007	15	C14H13+
182.0728	43	C13H10O+
183.0804	35	C13H11O+
184.0521	10	C12H8O2+
184.0755	7	C12H10NO+
185.0599	20	C12H9O2+
185.0963	7	C13H13O+
186.0538	7	C11H8NO2+
186.0668	7	C12H10O2+
187.075	14	C12H11O2+
188.046	5	C11H8O3+
188.0707	60	C11H10NO2+
188.0828	34	C12H12O2+
189.0546	9	C11H9O3+
189.0702	27	C15H9+
189.0786	7	C11H11NO2+
190.0511	7	C10H8NO3+
190.0625	22	C11H10O3+
190.0777	10	C15H10+
190.0856	30	C11H12NO2+
191.0705	57	C11H11O3+
191.0853	46	C15H11+
192.057	8	C14H8O+
192.0656	41	C10H10NO3+
192.0781	7	C11H12O3+
192.0937	10	C15H12+
193.0651	27	C14H9O+
193.0742	7	C10H11NO3+
193.1013	9	C15H13+
194.0727	42	C14H10O+
194.0961	9	C14H12N+
195.0443	11	C13H7O2+
195.0804	156	C14H11O+
196.0882	63	C14H12O+
197.0596	51	C13H9O2+
197.0839	6	C13H11NO+
197.0961	34	C14H13O+
198.0675	33	C13H10O2+
198.091	9	C13H12NO+
199.0753	74	C13H11O2+
201.0547	13	C12H9O3+
201.0905	6	C13H13O2+
202.0774	10	C16H10+
202.0866	11	C12H12NO2+
203.0707	9	C12H11O3+
203.0847	9	C16H11+
203.0941	66	C12H13NO2+
204.0655	58	C11H10NO3+
204.079	17	C12H12O3+
205.0646	71	C15H9O+
205.074	15	C11H11NO3+
205.0851	28	C12H13O3+
206.0722	80	C15H10O+
206.0818	16	C11H12NO3+
206.095	22	C12H14O3+
207.069	11	C14H9NO+
207.0803	175	C15H11O+
207.1016	59	C12H15O3+
208.052	18	C14H8O2+
208.0767	10	C14H10NO+
208.088	80	C15H12O+
209.0599	55	C14H9O2+
209.0844	13	C14H11NO+
209.096	85	C15H13O+
210.0674	60	C14H10O2+
210.0915	11	C14H12NO+
210.1037	10	C15H14O+
211.0753	135	C14H11O2+
211.1004	10	C14H13NO+
211.1115	43	C15H15O+
212.0719	5	C13H10NO2+
212.0831	78	C14H12O2+
212.1058	7	C14H14NO+
213.0549	9	C13H9O3+
213.0908	46	C14H13O2+
214.0863	8	C13H12NO2+
215.0703	26	C13H11O3+
216.0789	10	C13H12O3+
217.0647	25	C16H9O+
217.0858	8	C13H13O3+
218.0719	14	C16H10O+
218.0827	31	C12H12NO3+
218.093	9	C13H14O3+
219.0685	12	C15H9NO+
219.0789	64	C16H11O+
219.0893	20	C12H13NO3+
220.0518	17	C15H8O2+
220.0755	19	C15H10NO+
220.0881	42	C16H12O+
220.0972	24	C12H14NO3+
221.0599	56	C15H9O2+
221.084	11	C15H11NO+
221.0957	76	C16H13O+
222.0674	56	C15H10O2+
222.0919	41	C15H12NO+
222.1132	8	C12H16NO3+
223.0753	265	C15H11O2+
223.0991	15	C15H13NO+
223.1114	13	C16H15O+
224.0715	19	C14H10NO2+
224.0831	249	C15H12O2+
224.1066	22	C15H14NO+
225.0543	44	C14H9O3+
225.0786	21	C14H11NO2+
225.0908	141	C15H13O2+
226.0629	37	C14H10O3+
226.0863	31	C14H12NO2+
226.0989	54	C15H14O2+
227.0703	236	C14H11O3+
227.1065	68	C15H15O2+
228.066	7	C13H10NO3+
228.0781	22	C14H12O3+
228.1017	9	C14H14NO2+
229.086	18	C14H13O3+
231.1022	7	C14H15O3+
232.0759	9	C16H10NO+
233.06	62	C16H9O2+
233.0828	14	C16H11NO+
233.0955	10	C17H13O+
234.0676	87	C16H10O2+
234.0911	51	C16H12NO+
234.1127	23	C13H16NO3+
235.0753	347	C16H11O2+
235.099	26	C16H13NO+
236.047	16	C15H8O3+
236.0707	30	C15H10NO2+
236.0831	164	C16H12O2+
236.1063	74	C16H14NO+
237.0548	51	C15H9O3+
237.0784	25	C15H11NO2+
237.0909	260	C16H13O2+
237.1145	22	C16H15NO+
238.0631	28	C15H10O3+
238.0858	23	C15H12NO2+
238.0989	93	C16H14O2+
239.0702	95	C15H11O3+
239.0943	25	C15H13NO2+
239.1065	372	C16H15O2+
240.0652	15	C14H10NO3+
240.078	198	C15H12O3+
240.1018	59	C15H14NO2+
240.1149	25	C16H16O2+
241.0858	225	C15H13O3+
242.0584	10	C14H10O4+
242.081	20	C14H12NO3+
242.0937	108	C15H14O3+
243.065	50	C14H11O4+
243.0889	12	C14H13NO3+
243.1021	15	C15H15O3+
244.0733	12	C14H12O4+
246.0912	14	C17H12NO+
247.0757	71	C17H11O2+
247.0989	13	C17H13NO+
248.0699	18	C16H10NO2+
248.0835	61	C17H12O2+
248.1067	34	C17H14NO+
249.0546	25	C16H9O3+
249.0781	35	C16H11NO2+
249.0912	125	C17H13O2+
250.0628	58	C16H10O3+
250.0862	103	C16H12NO2+
250.0992	106	C17H14O2+
250.1222	8	C17H16NO+
251.0702	412	C16H11O3+
251.0939	49	C16H13NO2+
251.1068	170	C17H15O2+
252.0782	328	C16H12O3+
252.1019	129	C16H14NO2+
252.115	43	C17H16O2+
253.0506	33	C15H9O4+
253.0731	30	C15H11NO3+
253.0861	145	C16H13O3+
253.1227	14	C17H17O2+
254.0575	14	C15H10O4+
254.0811	50	C15H12NO3+
254.0939	70	C16H14O3+
254.117	39	C16H16NO2+
255.0652	230	C15H11O4+
255.0898	11	C15H13NO3+
255.1014	202	C16H15O3+
256.0598	12	C14H10NO4+
256.073	40	C15H12O4+
256.0959	32	C15H14NO3+
256.1094	29	C16H16O3+
257.0807	39	C15H13O4+
257.1038	10	C15H15NO3+
257.1171	9	C16H17O3+
258.089	21	C15H14O4+
258.1129	14	C15H16NO3+
259.0962	30	C15H15O4+
261.0539	12	C17H9O3+
261.0776	7	C17H11NO2+
262.0624	23	C17H10O3+
262.0853	27	C17H12NO2+
263.0704	222	C17H11O3+
263.0934	48	C17H13NO2+
264.0421	9	C16H8O4+
264.0649	23	C16H10NO3+
264.0787	78	C17H12O3+
264.1018	147	C17H14NO2+
265.0499	22	C16H9O4+
265.0861	302	C17H13O3+
265.1092	61	C17H15NO2+
266.0577	7	C16H10O4+
266.0805	36	C16H12NO3+
266.094	148	C17H14O3+
266.1173	59	C17H16NO2+
267.0903	51	C16H13NO3+
267.1017	999	C17H15O3+
268.0731	160	C16H12O4+
268.0968	224	C16H14NO3+
268.11	47	C17H16O3+
269.0808	176	C16H13O4+
269.1043	13	C16H15NO3+
269.1175	28	C17H17O3+
270.0759	12	C15H12NO4+
270.0889	135	C16H14O4+
270.1114	38	C16H16NO3+
270.1251	12	C17H18O3+
271.0604	23	C15H11O5+
271.083	16	C15H13NO4+
271.0968	75	C16H15O4+
272.0675	14	C15H12O5+
272.0921	21	C15H14NO4+
272.1286	34	C16H18NO3+
273.1123	16	C16H17O4+
274.0851	7	C18H12NO2+
275.0708	9	C18H11O3+
275.0942	15	C18H13NO2+
276.0782	13	C18H12O3+
276.1024	36	C18H14NO2+
277.0725	13	C17H11NO3+
277.0861	82	C18H13O3+
277.11	25	C18H15NO2+
278.0571	20	C17H10O4+
278.0808	82	C17H12NO3+
278.0941	85	C18H14O3+
278.1172	40	C15H18O5+
279.0654	221	C17H11O4+
279.0881	44	C17H13NO3+
279.1021	91	C18H15O3+
279.1246	11	C18H17NO2+
280.0569	9	C16H10NO4+
280.0733	152	C17H12O4+
280.0969	178	C17H14NO3+
281.0446	8	C16H9O5+
281.0676	22	C16H11NO4+
281.0841	37	C20H11NO+
281.104	51	C17H15NO3+
282.0752	20	C16H12NO4+
282.1122	143	C17H16NO3+
282.1256	157	C18H18O3+
283.0965	457	C17H15O4+
284.0891	59	C16H14NO4+
284.1052	39	C17H16O4+
284.1271	36	C17H18NO3+
285.076	45	C16H13O5+
285.0989	29	C16H15NO4+
286.0879	9	C19H12NO2+
286.1069	102	C16H16NO4+
287.0913	135	C16H15O5+
290.0809	8	C18H12NO3+
291.0889	21	C18H13NO3+
292.0958	97	C18H14NO3+
292.134	7	C19H18NO2+
293.081	113	C18H13O4+
293.1046	109	C18H15NO3+
294.0754	24	C17H12NO4+
294.0893	61	C18H14O4+
294.1127	158	C18H16NO3+
295.0969	655	C18H15O4+
295.1196	70	C18H17NO3+
296.0682	69	C17H12O5+
296.0918	179	C17H14NO4+
296.1279	75	C18H18NO3+
297.0754	18	C17H13O5+
297.1139	80	C21H15NO+
298.1202	46	C18H18O4+
299.0915	25	C17H15O5+
299.1151	31	C17H17NO4+
300.1229	298	C17H18NO4+
301.1312	60	C17H19NO4+
302.1152	8	C17H18O5+
304.0963	8	C19H14NO3+
305.104	9	C19H15NO3+
306.1121	47	C19H16NO3+
307.119	10	C19H17NO3+
308.091	70	C18H14NO4+
308.1276	68	C19H18NO3+
309.0959	60	C18H15NO4+
309.1363	11	C19H19NO3+
310.1073	122	C18H16NO4+
310.1219	59	C22H16NO+
311.0916	397	C18H15O5+
311.1143	44	C18H17NO4+
312.0863	12	C17H14NO5+
312.1225	66	C18H18NO4+
314.1022	71	C17H16NO5+
314.1373	34	C18H20NO4+
315.1109	8	C17H17NO5+
320.0922	22	C19H14NO4+
320.1288	8	C20H18NO3+
321.0996	19	C19H15NO4+
322.1078	15	C19H16NO4+
322.1434	9	C20H20NO3+
323.1144	28	C19H17NO4+
323.1514	6	C20H21NO3+
324.1229	166	C19H18NO4+
325.108	57	C19H17O5+
325.129	9	C19H19NO4+
326.1148	26	C19H18O5+
326.139	35	C19H20NO4+
327.1108	17	C18H17NO5+
328.1177	105	C18H18NO5+
334.107	15	C20H16NO4+
336.087	17	C19H14NO5+
336.1226	12	C20H18NO4+
337.0947	11	C19H15NO5+
338.1392	26	C20H20NO4+
339.1462	28	C20H21NO4+
340.154	7	C20H22NO4+
341.1392	7	C20H21O5+
342.1337	109	C19H20NO5+
343.1417	11	C19H21NO5+
351.1098	15	C20H17NO5+
352.1184	16	C20H18NO5+
366.1343	13	C21H20NO5+
384.1462	8	C21H22NO6+
