Mass spectrum: 2-Amino-N-(1-methylethyl)benzamide; LC-ESI-QFT; MS2; CE: 75; R=17500; [M+H]+
Name: 2-Amino-N-(1-methylethyl)benzamide
Name: 2-Amino-n-isopropylbenzamide
Name: 2-amino-N-propan-2-ylbenzamide
Formula: C10H14N2O
Exact mass: 178.1106
SMILES: CC(C)NC(=O)C1=C(N)C=CC=C1
InChI: InChI=1S/C10H14N2O/c1-7(2)12-10(13)8-5-3-4-6-9(8)11/h3-7H,11H2,1-2H3,(H,12,13)
Instrument: Q Exactive Orbitrap (Thermo Scientific)
Instrument type: LC-ESI-QFT
Ms type: MS2
Ion mode: POSITIVE
Ionization: ESI
Fragmentation mode: HCD
Collision energy: 75
Resolution: 17500
Column name: Acquity BEH C18 1.7um, 2.1x150mm (Waters)
Retention time: 12.156 min
Base peak: 79.0211
Precursor m/z: 179.1179
Precursor type: [M+H]+
Precursor intensity: 4206745.6875
m/z	relative intensity	assigned
65.0386	165	C5H5+
72.0444	4	C3H6NO+
79.0544	3	C6H7+
92.0495	744	C6H6N+
110.0601	18	C6H8NO+
120.0445	999	C7H6NO+
122.0726	11	C8H10O+
137.0119	95	C9HN2+
139.999	12	C8N2O+
151.0274	11	C10H3N2+
151.9993	4	C9N2O+
155.0224	71	C9H3N2O+
169.0382	9	C10H5N2O+
