Mass spectrum: (4-Aminophenyl)arsonic acid; LC-ESI-QFT; MS2; CE: 45; R=17500; [M-H]-
Name: (4-Aminophenyl)arsonic acid
Name: Arsanilic acid
Formula: C6H8AsNO3
Exact mass: 216.9720
SMILES: NC1=CC=C(C=C1)[As](O)(O)=O
InChI: InChI=1S/C6H8AsNO3/c8-6-3-1-5(2-4-6)7(9,10)11/h1-4H,8H2,(H2,9,10,11)
Instrument: Q Exactive Orbitrap (Thermo Scientific)
Instrument type: LC-ESI-QFT
Ms type: MS2
Ion mode: NEGATIVE
Ionization: ESI
Fragmentation mode: HCD
Collision energy: 45
Resolution: 17500
Column name: Acquity BEH C18 1.7um, 2.1x150mm (Waters)
Retention time: 2.437 min
Base peak: 63.9624
Precursor m/z: 215.9647
Precursor type: [M-H]-
Precursor intensity: 1003139.269287
m/z	relative intensity	assigned
61.9884	7	NO3-
106.912	748	AsO2-
108.0456	14	C6H6NO-
122.9069	999	AsO3-
123.9147	75	AsHO3-
124.9225	296	AsH2O3-
159.9368	14	C3H3AsNO2-
215.9647	146	C6H7AsNO3-
