Mass spectrum: Methyl red; LC-ESI-QFT; MS2; CE: 60; R=17500; [M+H]+
Name: Methyl red
Name: 2-[[4-(dimethylamino)phenyl]diazenyl]benzoic acid
Formula: C15H15N3O2
Exact mass: 269.1164
SMILES: CN(C)C1=CC=C(C=C1)N=NC2=CC=CC=C2C(=O)O
InChI: InChI=1S/C15H15N3O2/c1-18(2)12-9-7-11(8-10-12)16-17-14-6-4-3-5-13(14)15(19)20/h3-10H,1-2H3,(H,19,20)
Instrument: Q Exactive Orbitrap (Thermo Scientific)
Instrument type: LC-ESI-QFT
Ms type: MS2
Ion mode: POSITIVE
Ionization: ESI
Fragmentation mode: HCD
Collision energy: 60
Resolution: 17500
Column name: Acquity BEH C18 1.7um, 2.1x150mm (Waters)
Retention time: 18.101 min
Base peak: 79.0211
Precursor m/z: 270.1237
Precursor type: [M+H]+
Precursor intensity: 26219533.1875
m/z	relative intensity	assigned
53.0023	1	C3HO+
53.0386	4	C4H5+
57.0698	11	C4H9+
58.0651	2	C3H8N+
65.0385	4	C5H5+
67.0541	1	C5H7+
68.0494	7	C4H6N+
71.0854	4	C5H11+
72.0444	1	C3H6NO+
72.0808	6	C4H10N+
74.0964	45	C4H12N+
77.0385	3	C6H5+
79.0542	41	C6H7+
80.0495	5	C5H6N+
81.0335	9	C5H5O+
81.0572	4	C5H7N+
82.0286	1	C4H4NO+
90.0103	1	C6H2O+
91.0543	32	C7H7+
92.0494	2	C6H6N+
92.062	4	C7H8+
93.0699	15	C7H9+
94.0652	18	C6H8N+
95.0491	10	C6H7O+
96.0808	11	C6H10N+
103.0542	12	C8H7+
104.0495	2	C7H6N+
105.0448	3	C6H5N2+
105.0573	26	C7H7N+
110.06	3	C6H8NO+
115.0542	55	C9H7+
117.0572	2	C8H7N+
118.0651	17	C8H8N+
119.0731	5	C8H9N+
120.0808	118	C8H10N+
121.0283	2	C7H5O2+
121.0395	1	C6H5N2O+
121.0885	1	C8H11N+
124.0757	10	C7H10NO+
127.0543	3	C10H7+
128.0619	7	C10H8+
129.07	16	C10H9+
130.065	2	C9H8N+
131.073	7	C9H9N+
132.081	1	C9H10N+
133.0763	1	C8H9N2+
134.0838	1	C8H10N2+
139.0542	3	C11H7+
140.062	4	C11H8+
141.0699	37	C11H9+
145.0647	2	C10H9O+
147.1042	3	C10H13N+
148.0757	698	C9H10NO+
151.0542	4	C12H7+
152.0621	454	C12H8+
153.0699	999	C12H9+
154.065	5	C11H8N+
154.0777	56	C12H10+
155.0603	4	C10H7N2+
155.074	8	C11H9N+
155.0855	53	C12H11+
157.0883	1	C11H11N+
162.1276	6	C11H16N+
163.1116	1	C11H15O+
164.062	1	C13H8+
165.07	113	C13H9+
166.0652	223	C12H8N+
166.0768	24	C13H10+
167.0735	7	C12H9N+
167.0856	31	C13H11+
168.057	12	C12H8O+
168.0806	8	C12H10N+
168.0934	12	C13H12+
169.0649	25	C12H9O+
169.0886	2	C12H11N+
177.0699	2	C14H9+
178.0648	2	C13H8N+
178.0777	17	C14H10+
179.0605	11	C12H7N2+
179.0731	13	C13H9N+
179.0859	6	C14H11+
180.0571	115	C13H8O+
180.0808	427	C13H10N+
181.065	95	C13H9O+
181.0885	593	C13H11N+
182.0726	5	C13H10O+
182.0837	1	C12H10N2+
183.0802	4	C13H11O+
191.0726	1	C14H9N+
192.0806	2	C14H10N+
193.0648	6	C14H9O+
193.0742	1	C13H9N2+
193.0885	5	C14H11N+
194.0604	16	C13H8NO+
194.0965	84	C14H12N+
195.1043	92	C14H13N+
196.0758	21	C13H10NO+
196.1121	95	C14H14N+
204.0808	13	C15H10N+
206.06	2	C14H8NO+
207.0679	36	C14H9NO+
207.1042	2	C15H13N+
208.0758	258	C14H10NO+
209.0835	237	C14H11NO+
212.0471	8	C11H6N3O2+
222.0914	134	C15H12NO+
223.0992	57	C15H13NO+
224.1069	18	C15H14NO+
236.0818	1	C14H10N3O+
237.09	1	C14H11N3O+
251.1052	8	C15H13N3O+
252.1133	19	C15H14N3O+
