Mass spectrum: 3-Hydroxy-2-naphthoic o-anisidide; LC-ESI-QFT; MS2; CE: 45; R=17500; [M-H]-
Name: 3-Hydroxy-2-naphthoic o-anisidide
Name: 3-Hydroxy-2'-methoxy-2-naphthanilide
Name: 3-hydroxy-N-(2-methoxyphenyl)naphthalene-2-carboxamide
Formula: C18H15NO3
Exact mass: 293.1052
SMILES: COC1=CC=CC=C1NC(=O)C1=CC2=C(C=CC=C2)C=C1O
InChI: InChI=1S/C18H15NO3/c1-22-17-9-5-4-8-15(17)19-18(21)14-10-12-6-2-3-7-13(12)11-16(14)20/h2-11,20H,1H3,(H,19,21)
Instrument: Q Exactive Orbitrap (Thermo Scientific)
Instrument type: LC-ESI-QFT
Ms type: MS2
Ion mode: NEGATIVE
Ionization: ESI
Fragmentation mode: HCD
Collision energy: 45
Resolution: 17500
Column name: Acquity BEH C18 1.7um, 2.1x150mm (Waters)
Retention time: 18.323 min
Base peak: 292.0981
Precursor m/z: 292.0979
Precursor type: [M-H]-
Precursor intensity: 54901104.74414
m/z	relative intensity	assigned
106.0425	1	C7H6O-
107.0377	429	C6H5NO-
108.0217	2	C6H4O2-
115.0553	3	C9H7-
122.0609	2	C7H8NO-
130.0424	13	C9H6O-
134.0247	999	C7H4NO2-
141.071	4	C11H9-
142.0424	2	C10H6O-
143.0502	254	C10H7O-
158.0373	8	C10H6O2-
159.045	7	C10H7O2-
168.0454	12	C11H6NO-
216.0818	2	C16H10N-
218.0609	2	C15H8NO-
232.0768	20	C16H10NO-
233.0608	22	C16H9O2-
233.0842	1	C16H11NO-
234.0683	3	C16H10O2-
248.0717	3	C16H10NO2-
249.0794	17	C16H11NO2-
260.0716	49	C17H10NO2-
274.0874	1	C18H12NO2-
276.0665	86	C17H10NO3-
277.0744	301	C17H11NO3-
292.0975	54	C18H14NO3-
