Mass spectrum: 3-Amino-9-ethylcarbazole; LC-ESI-QFT; MS2; CE: 90; R=17500; [M+H]+
Name: 3-Amino-9-ethylcarbazole
Name: 9-ethylcarbazol-3-amine
Formula: C14H14N2
Exact mass: 210.1157
SMILES: CCN1C2=C(C=CC=C2)C2=C1C=CC(N)=C2
InChI: InChI=1S/C14H14N2/c1-2-16-13-6-4-3-5-11(13)12-9-10(15)7-8-14(12)16/h3-9H,2,15H2,1H3
Instrument: Q Exactive Orbitrap (Thermo Scientific)
Instrument type: LC-ESI-QFT
Ms type: MS2
Ion mode: POSITIVE
Ionization: ESI
Fragmentation mode: HCD
Collision energy: 90
Resolution: 17500
Column name: Acquity BEH C18 1.7um, 2.1x150mm (Waters)
Retention time: 14.120 min
Base peak: 79.0212
Precursor m/z: 211.123
Precursor type: [M+H]+
Precursor intensity: 8370340.3125
m/z	relative intensity	assigned
115.0542	6	C9H7+
116.0496	3	C8H6N+
117.0573	7	C8H7N+
129.0574	9	C9H7N+
129.07	6	C10H9+
130.0652	60	C9H8N+
137.0119	3	C9HN2+
139.0542	23	C11H7+
140.0494	21	C10H6N+
141.07	3	C11H9+
143.073	3	C10H9N+
152.0622	61	C12H8+
153.0574	23	C11H7N+
153.07	4	C12H9+
154.0651	77	C11H8N+
155.0605	9	C10H7N2+
155.073	73	C11H9N+
156.0809	13	C11H10N+
165.0575	16	C12H7N+
165.0699	17	C13H9+
166.0652	109	C12H8N+
167.073	99	C12H9N+
168.0811	9	C12H10N+
176.0625	2	C14H8+
178.0652	240	C13H8N+
179.0732	221	C13H9N+
180.0809	133	C13H10N+
181.0761	604	C12H9N2+
182.0839	999	C12H10N2+
183.0917	17	C12H11N2+
192.0809	19	C14H10N+
193.0888	22	C14H11N+
194.0967	10	C14H12N+
195.0918	208	C13H11N2+
209.107	3	C14H13N2+
210.1155	7	C14H14N2+
