Mass spectrum: 4-Methoxyaniline; LC-ESI-QFT; MS2; CE: 60; R=17500; [M+H]+
Name: 4-Methoxyaniline
Name: p-Anisidine
Formula: C7H9NO
Exact mass: 123.0684
SMILES: COC1=CC=C(N)C=C1
InChI: InChI=1S/C7H9NO/c1-9-7-4-2-6(8)3-5-7/h2-5H,8H2,1H3
Instrument: Q Exactive Orbitrap (Thermo Scientific)
Instrument type: LC-ESI-QFT
Ms type: MS2
Ion mode: POSITIVE
Ionization: ESI
Fragmentation mode: HCD
Collision energy: 60
Resolution: 17500
Column name: Acquity BEH C18 1.7um, 2.1x150mm (Waters)
Retention time: 3.938 min
Base peak: 79.0211
Precursor m/z: 124.0757
Precursor type: [M+H]+
Precursor intensity: 5150218.1875
m/z	relative intensity	assigned
53.0386	22	C4H5+
55.0178	1	C3H3O+
63.023	1	C5H3+
65.0385	48	C5H5+
66.0463	6	C5H6+
67.0542	1	C5H7+
68.0495	2	C4H6N+
77.0384	5	C6H5+
79.0541	18	C6H7+
80.0494	29	C5H6N+
81.0573	163	C5H7N+
82.0412	2	C5H6O+
92.0257	57	C6H4O+
92.0495	474	C6H6N+
93.0573	999	C6H7N+
94.0652	21	C6H8N+
95.0491	77	C6H7O+
96.0444	11	C5H6NO+
96.0807	2	C6H10N+
97.0649	10	C6H9O+
107.0492	3	C7H7O+
108.0443	14	C6H6NO+
108.057	2	C7H8O+
109.0522	361	C6H7NO+
110.06	37	C6H8NO+
123.0678	44	C7H9NO+
124.0757	811	C7H10NO+
