Mass spectrum: Tembotrione; LC-ESI-QFT; MS2; CE: 30; R=17500; [M-H]-
Name: Tembotrione
Name: 2-[2-chloro-4-methylsulfonyl-3-(2,2,2-trifluoroethoxymethyl)benzoyl]cyclohexane-1,3-dione
Formula: C17H16ClF3O6S
Exact mass: 440.0308
SMILES: CS(=O)(=O)C1=C(COCC(F)(F)F)C(Cl)=C(C=C1)C(=O)C1C(=O)CCCC1=O
InChI: InChI=1S/C17H16ClF3O6S/c1-28(25,26)13-6-5-9(15(18)10(13)7-27-8-17(19,20)21)16(24)14-11(22)3-2-4-12(14)23/h5-6,14H,2-4,7-8H2,1H3
Instrument: Q Exactive Orbitrap (Thermo Scientific)
Instrument type: LC-ESI-QFT
Ms type: MS2
Ion mode: NEGATIVE
Ionization: ESI
Fragmentation mode: HCD
Collision energy: 30
Resolution: 17500
Column name: Acquity BEH C18 1.7um, 2.1x150mm (Waters)
Retention time: 16.872 min
Base peak: 291.0599
Precursor m/z: 439.0235
Precursor type: [M-H]-
Precursor intensity: 3160110.44043
m/z	relative intensity	assigned
78.9861	2	CH3O2S-
80.9651	1	HO3S-
195.0811	2	C14H11O-
197.061	4	C13H9O2-
238.0635	2	C15H10O3-
239.0714	52	C15H11O3-
241.087	25	C15H13O3-
258.0533	32	C14H10O5-
303.0333	4	C15H11O5S-
304.041	4	C15H12O5S-
305.0484	13	C15H13O5S-
361.0369	7	C15H12F3O5S-
403.0469	999	C17H14F3O6S-
