Mass spectrum: Novaluron; LC-ESI-QFT; MS2; CE: 45; R=17500; [M-H]-
Name: Novaluron
Name: N-[[3-chloro-4-[1,1,2-trifluoro-2-(trifluoromethoxy)ethoxy]phenyl]carbamoyl]-2,6-difluorobenzamide
Formula: C17H9ClF8N2O4
Exact mass: 492.0123
SMILES: FC(OC(F)(F)F)C(F)(F)OC1=C(Cl)C=C(NC(=O)NC(=O)C2=C(F)C=CC=C2F)C=C1
InChI: InChI=1S/C17H9ClF8N2O4/c18-8-6-7(4-5-11(8)31-16(22,23)14(21)32-17(24,25)26)27-15(30)28-13(29)12-9(19)2-1-3-10(12)20/h1-6,14H,(H2,27,28,29,30)
Instrument: Q Exactive Orbitrap (Thermo Scientific)
Instrument type: LC-ESI-QFT
Ms type: MS2
Ion mode: NEGATIVE
Ionization: ESI
Fragmentation mode: HCD
Collision energy: 45
Resolution: 17500
Column name: Acquity BEH C18 1.7um, 2.1x150mm (Waters)
Retention time: 18.982 min
Base peak: 183.0582
Precursor m/z: 491.005
Precursor type: [M-H]-
Precursor intensity: 16118147.83203
m/z	relative intensity	assigned
68.9958	18	CF3-
82.9694	3	C4Cl-
84.9906	999	CF3O-
93.0146	36	C6H2F-
113.0208	163	C6H3F2-
132.0091	1	C7H2NO2-
134.0285	4	C7H3FN2-
136.0204	2	C7H3FNO-
140.9987	103	C6H4ClNO-
146.9877	1	C3F5O-
150.0235	1	C7H3FN2O-
156.0021	4	C7H4ClFN-
162.9824	28	C3F5O2-
165.9939	62	C7H3ClN2O-
167.9857	34	C7H3ClNO2-
216.0463	2	C4H8F6NO2-
260.9996	10	C5H6ClF6NO2-
269.0363	8	C6H7F6N2O3-
