Mass spectrum: Chloridazon; LC-ESI-QFT; MS2; CE: 90; R=17500; [M-H]-
Name: Chloridazon
Name: 5-amino-4-chloro-2-phenylpyridazin-3-one
Formula: C10H8ClN3O
Exact mass: 221.0356
SMILES: NC1=C(Cl)C(=O)N(N=C1)C1=CC=CC=C1
InChI: InChI=1S/C10H8ClN3O/c11-9-8(12)6-13-14(10(9)15)7-4-2-1-3-5-7/h1-6H,12H2
Instrument: Q Exactive Orbitrap (Thermo Scientific)
Instrument type: LC-ESI-QFT
Ms type: MS2
Ion mode: NEGATIVE
Ionization: ESI
Fragmentation mode: HCD
Collision energy: 90
Resolution: 17500
Column name: Acquity BEH C18 1.7um, 2.1x150mm (Waters)
Retention time: 13.150 min
Base peak: 118.0299
Precursor m/z: 220.0283
Precursor type: [M-H]-
Precursor intensity: 7413706.589355
m/z	relative intensity	assigned
50.0035	16	C3N-
64.0067	14	C3N2-
65.0145	125	C3HN2-
65.9986	238	C3NO-
73.9803	153	C2HClN-
74.9643	999	C2ClO-
90.0349	7	C6H4N-
92.0505	37	C6H6N-
100.9914	3	C3H2ClN2-
101.9753	5	C3HClNO-
117.0458	92	C7H5N2-
118.0299	10	C7H4NO-
150.0118	8	C8H5ClN-
