Mass spectrum: Michler`s ketone; LC-ESI-QFT; MS2; CE: 75; R=17500; [M+H]+
Name: Michler's ketone
Name: bis[4-(dimethylamino)phenyl]methanone
Formula: C17H20N2O
Exact mass: 268.1576
SMILES: CN(C)C1=CC=C(C=C1)C(=O)C1=CC=C(C=C1)N(C)C
InChI: InChI=1S/C17H20N2O/c1-18(2)15-9-5-13(6-10-15)17(20)14-7-11-16(12-8-14)19(3)4/h5-12H,1-4H3
Instrument: Q Exactive Orbitrap (Thermo Scientific)
Instrument type: LC-ESI-QFT
Ms type: MS2
Ion mode: POSITIVE
Ionization: ESI
Fragmentation mode: HCD
Collision energy: 75
Resolution: 17500
Column name: Acquity BEH C18 1.7um, 2.1x150mm (Waters)
Retention time: 18.149 min
Base peak: 79.0211
Precursor m/z: 269.1648
Precursor type: [M+H]+
Precursor intensity: 33701693.78125
m/z	relative intensity	assigned
53.0386	17	C4H5+
54.0339	2	C3H4N+
55.0179	1	C3H3O+
65.0385	7	C5H5+
67.0542	2	C5H7+
68.0495	2	C4H6N+
77.0385	7	C6H5+
78.0465	3	C6H6+
79.0542	194	C6H7+
80.0494	24	C5H6N+
81.0335	12	C5H5O+
81.0573	4	C5H7N+
82.0287	1	C4H4NO+
91.0542	128	C7H7+
92.0495	14	C6H6N+
92.062	35	C7H8+
93.0574	6	C6H7N+
93.0699	62	C7H9+
94.0412	2	C6H6O+
94.0651	11	C6H8N+
95.0491	58	C6H7O+
96.0443	2	C5H6NO+
96.0808	10	C6H10N+
103.0542	48	C8H7+
104.0495	19	C7H6N+
105.0448	20	C6H5N2+
105.0573	160	C7H7N+
109.0525	2	C6H7NO+
109.0648	3	C7H9O+
110.06	15	C6H8NO+
117.0572	1	C8H7N+
118.0651	44	C8H8N+
119.0601	1	C7H7N2+
119.073	19	C8H9N+
120.0808	214	C8H10N+
124.0756	13	C7H10NO+
132.0443	1	C8H6NO+
136.0753	1	C8H10NO+
138.0912	4	C8H12NO+
148.0756	999	C9H10NO+
