Mass spectrum: Ilepatril; LC-ESI-QFT; MS2; CE: 75; R=17500; [M+H]+
Name: Ilepatril
Name: (4S,7S,12bR)-7-[[(2S)-2-acetylsulfanyl-3-methylbutanoyl]amino]-6-oxo-2,3,4,7,8,12b-hexahydro-1H-pyrido[2,1-a][2]benzazepine-4-carboxylic acid
Formula: C22H28N2O5S
Exact mass: 432.1719
SMILES: CC(C)[C@H](SC(C)=O)C(=O)N[C@H]1CC2=C(C=CC=C2)[C@H]2CCC[C@H](N2C1=O)C(O)=O
InChI: InChI=1S/C22H28N2O5S/c1-12(2)19(30-13(3)25)20(26)23-16-11-14-7-4-5-8-15(14)17-9-6-10-18(22(28)29)24(17)21(16)27/h4-5,7-8,12,16-19H,6,9-11H2,1-3H3,(H,23,26)(H,28,29)/t16-,17+,18-,19-/m0/s1
Instrument: Q Exactive Orbitrap (Thermo Scientific)
Instrument type: LC-ESI-QFT
Ms type: MS2
Ion mode: POSITIVE
Ionization: ESI
Fragmentation mode: HCD
Collision energy: 75
Resolution: 17500
Column name: Acquity BEH C18 1.7um, 2.1x150mm (Waters)
Retention time: 16.899 min
Base peak: 79.0212
Precursor m/z: 433.1792
Precursor type: [M+H]+
Precursor intensity: 10660170
m/z	relative intensity	assigned
53.0021	1	C3HO+
53.0386	14	C4H5+
54.0337	2	C3H4N+
55.0542	324	C4H7+
56.0495	155	C3H6N+
57.0698	3	C4H9+
61.0107	3	C2H5S+
68.0494	26	C4H6N+
70.0651	10	C4H8N+
74.0235	13	C2H4NO2+
80.0494	18	C5H6N+
82.065	30	C5H8N+
89.0419	851	C4H9S+
91.0542	50	C7H7+
103.0541	10	C8H7+
105.0699	12	C8H9+
114.055	8	C5H8NO2+
115.0542	55	C9H7+
116.0495	3	C8H6N+
116.0621	6	C9H8+
117.0574	4	C8H7N+
117.0698	45	C9H9+
128.0621	46	C10H8+
128.0702	10	C6H10NO2+
129.0699	136	C10H9+
130.0651	117	C9H8N+
131.0527	38	C6H11OS+
131.0856	161	C10H11+
132.0808	28	C9H10N+
133.0649	4	C9H9O+
141.0699	487	C11H9+
142.0652	15	C10H8N+
142.0779	6	C11H10+
143.073	122	C10H9N+
143.0854	29	C11H11+
144.0808	32	C10H10N+
145.0647	2	C10H9O+
145.0886	9	C10H11N+
146.0964	97	C10H12N+
152.062	27	C12H8+
153.0701	7	C12H9+
154.0653	6	C11H8N+
154.0776	8	C12H10+
155.0731	8	C11H9N+
155.0854	19	C12H11+
156.0808	478	C11H10N+
157.0647	5	C11H9O+
157.0884	6	C11H11N+
157.1012	7	C12H13+
158.0965	545	C11H12N+
159.0806	4	C11H11O+
160.0756	16	C10H10NO+
165.0701	30	C13H9+
166.0774	13	C13H10+
167.0855	156	C13H11+
168.0808	60	C12H10N+
169.065	3	C12H9O+
169.0887	36	C12H11N+
169.1011	25	C13H13+
170.0965	95	C12H12N+
171.1045	14	C12H13N+
172.112	7	C12H14N+
174.0915	2	C11H12NO+
180.0808	42	C13H10N+
181.0882	4	C13H11N+
182.0965	790	C13H12N+
183.1042	44	C13H13N+
184.1121	999	C13H14N+
185.1198	29	C13H15N+
186.1277	54	C13H16N+
188.0709	3	C11H10NO2+
189.0785	11	C11H11NO2+
194.0966	24	C14H12N+
200.1072	8	C13H14NO+
201.1385	6	C13H17N2+
202.0864	9	C12H12NO2+
202.1226	96	C13H16NO+
210.0915	2	C14H12NO+
212.1068	20	C14H14NO+
216.0839	3	C13H14NS+
216.1019	23	C13H14NO2+
228.1018	389	C14H14NO2+
230.1176	190	C14H16NO2+
