Mass spectrum: Oxazepam; LC-ESI-QFT; MS2; CE: 75; R=17500; [M+H]+
Name: Oxazepam
Name: 7-chloro-3-hydroxy-5-phenyl-1,3-dihydro-1,4-benzodiazepin-2-one
Formula: C15H11ClN2O2
Exact mass: 286.0509
SMILES: OC1N=C(C2=CC=CC=C2)C2=CC(Cl)=CC=C2NC1=O
InChI: InChI=1S/C15H11ClN2O2/c16-10-6-7-12-11(8-10)13(9-4-2-1-3-5-9)18-15(20)14(19)17-12/h1-8,15,20H,(H,17,19)
Instrument: Q Exactive Orbitrap (Thermo Scientific)
Instrument type: LC-ESI-QFT
Ms type: MS2
Ion mode: POSITIVE
Ionization: ESI
Fragmentation mode: HCD
Collision energy: 75
Resolution: 17500
Column name: Acquity BEH C18 1.7um, 2.1x150mm (Waters)
Retention time: 16.615 min
Base peak: 79.0211
Precursor m/z: 287.0582
Precursor type: [M+H]+
Precursor intensity: 14420084.0625
m/z	relative intensity	assigned
50.0152	1	C4H2+
51.023	2	C4H3+
53.0386	31	C4H5+
55.0178	2	C3H3O+
63.0229	1	C5H3+
65.0386	2	C5H5+
66.0464	1	C5H6+
74.0964	1	C4H12N+
75.0229	3	C6H3+
76.018	1	C5H2N+
77.0385	14	C6H5+
79.0178	1	C5H3O+
79.0542	18	C6H7+
81.0335	5	C5H5O+
86.9996	10	C4H4Cl+
90.0339	11	C6H4N+
91.0417	2	C6H5N+
92.0495	4	C6H6N+
93.0573	294	C6H7N+
94.0413	3	C6H6O+
95.0491	89	C6H7O+
98.9996	10	C5H4Cl+
100.0181	5	C7H2N+
104.0494	999	C7H6N+
105.0335	2	C7H5O+
105.0447	38	C6H5N2+
108.0443	2	C6H6NO+
110.9996	3	C6H4Cl+
111.0442	3	C6H7O2+
117.0447	14	C7H5N2+
118.0525	90	C7H6N2+
122.0599	4	C7H8NO+
126.0105	40	C6H5ClN+
127.0184	1	C6H6ClN+
128.0261	131	C6H7ClN+
129.0102	25	C6H6ClO+
129.0447	9	C8H5N2+
130.0402	4	C9H6O+
135.0554	5	C7H7N2O+
135.9947	5	C7H3ClN+
136.0758	6	C8H10NO+
138.0105	137	C7H5ClN+
139.0057	63	C6H4ClN2+
145.0508	14	C9H7NO+
151.0058	4	C7H4ClN2+
151.0542	1	C12H7+
152.0137	9	C7H5ClN2+
152.062	18	C12H8+
153.0214	151	C7H6ClN2+
154.0055	10	C7H5ClNO+
155.0355	1	C10H5NO+
156.0211	1	C7H7ClNO+
163.0057	359	C8H4ClN2+
164.0009	68	C10N2O+
165.0698	2	C13H9+
166.0054	25	C8H5ClNO+
168.0808	1	C12H10N+
169.0647	13	C12H9O+
177.0574	5	C13H7N+
178.065	16	C13H8N+
179.0005	7	C8H4ClN2O+
179.0606	4	C12H7N2+
179.073	18	C13H9N+
180.0089	1	C8H5ClN2O+
180.0806	6	C13H10N+
181.0163	67	C8H6ClN2O+
184.0519	1	C12H8O2+
187.031	4	C12H8Cl+
194.0838	4	C13H10N2+
195.032	47	C9H8ClN2O+
195.0917	43	C13H11N2+
196.0753	2	C13H10NO+
199.0268	6	C8H8ClN2O2+
205.076	68	C14H9N2+
206.0599	1	C14H8NO+
206.0838	16	C14H10N2+
207.0678	16	C14H9NO+
214.0417	41	C13H9ClN+
216.0452	1	C12H9ClN2+
223.0866	1	C14H11N2O+
224.0261	4	C14H7ClN+
226.0295	1	C13H7ClN2+
229.0526	48	C13H10ClN2+
231.0684	15	C13H12ClN2+
238.0739	1	C14H10N2O2+
239.0371	13	C14H8ClN2+
240.0448	4	C14H9ClN2+
241.0526	694	C14H10ClN2+
242.0363	1	C14H9ClNO+
257.0475	31	C14H10ClN2O+
269.0482	1	C15H10ClN2O+
