Mass spectrum: Amoxapine; LC-ESI-QFT; MS2; CE: 60; R=17500; [M+H]+
Name: Amoxapine
Name: 8-chloro-6-piperazin-1-ylbenzo[b][1,4]benzoxazepine
Formula: C17H16ClN3O
Exact mass: 313.0982
SMILES: ClC1=CC=C2OC3=C(C=CC=C3)N=C(N3CCNCC3)C2=C1
InChI: InChI=1S/C17H16ClN3O/c18-12-5-6-15-13(11-12)17(21-9-7-19-8-10-21)20-14-3-1-2-4-16(14)22-15/h1-6,11,19H,7-10H2
Instrument: Q Exactive Orbitrap (Thermo Scientific)
Instrument type: LC-ESI-QFT
Ms type: MS2
Ion mode: POSITIVE
Ionization: ESI
Fragmentation mode: HCD
Collision energy: 60
Resolution: 17500
Column name: Acquity BEH C18 1.7um, 2.1x150mm (Waters)
Retention time: 15.206 min
Base peak: 79.0211
Precursor m/z: 314.1055
Precursor type: [M+H]+
Precursor intensity: 22765145.625
m/z	relative intensity	assigned
53.0022	3	C3HO+
56.0495	4	C3H6N+
65.0385	3	C5H5+
68.0494	8	C4H6N+
70.065	405	C4H8N+
71.0603	22	C3H7N2+
79.0541	4	C6H7+
80.0494	2	C5H6N+
84.0681	1	C4H8N2+
85.0759	4	C4H9N2+
91.0542	1	C7H7+
93.0573	16	C6H7N+
95.0493	1	C6H7O+
104.0493	12	C7H6N+
106.0651	9	C7H8N+
107.049	2	C7H7O+
108.0444	2	C6H6NO+
111.044	1	C3H10ClNO+
117.0572	2	C8H7N+
118.065	21	C8H8N+
119.0729	32	C8H9N+
120.0442	1	C7H6NO+
134.0601	2	C8H8NO+
143.0601	1	C9H7N2+
144.0808	1	C10H10N+
154.0055	3	C7H5ClNO+
164.0262	3	C9H7ClN+
164.0493	21	C12H6N+
165.0573	1	C12H7N+
166.065	1	C12H8N+
167.0729	4	C12H9N+
173.0153	2	C11H6Cl+
178.042	1	C10H9ClN+
180.0686	1	C12H8N2+
180.0806	4	C13H10N+
181.0886	4	C13H11N+
190.0652	1	C14H8N+
191.0727	4	C14H9N+
192.0446	4	C13H6NO+
192.068	1	C13H8N2+
192.0809	1	C14H10N+
193.0522	379	C13H7NO+
194.0602	1	C13H8NO+
196.0392	1	C9H9ClN2O+
200.0261	45	C12H7ClN+
201.0338	3	C12H8ClN+
205.0529	4	C11H10ClN2+
205.0764	1	C14H9N2+
206.0598	1	C14H8NO+
206.0838	5	C14H10N2+
207.0678	1	C14H9NO+
207.0915	14	C14H11N2+
208.0993	24	C14H12N2+
209.0834	8	C14H11NO+
210.0548	17	C10H11ClN2O+
214.0419	3	C13H9ClN+
215.0266	1	C13H8ClO+
216.0211	1	C12H7ClNO+
216.0574	1	C13H11ClN+
218.0362	3	C12H9ClNO+
218.0833	1	C15H10N2+
219.0676	3	C15H9NO+
219.092	1	C15H11N2+
220.0504	15	C13H6N3O+
220.0754	4	C15H10NO+
221.0481	3	C11H10ClN2O+
221.0705	3	C14H9N2O+
226.042	1	C14H9ClN+
227.0374	1	C13H8ClN2+
227.0489	1	C17H7O+
228.0209	241	C13H7ClNO+
229.0287	4	C13H8ClNO+
229.0526	1	C13H10ClN2+
230.0365	17	C13H9ClNO+
233.1077	3	C16H13N2+
234.0789	2	C15H10N2O+
235.0865	40	C15H11N2O+
236.0943	13	C15H12N2O+
241.0292	2	C14H8ClNO+
242.0366	2	C14H9ClNO+
242.0608	6	C14H11ClN2+
243.0444	1	C14H10ClNO+
243.0683	10	C14H12ClN2+
244.0522	19	C14H11ClNO+
245.0475	45	C13H10ClN2O+
247.087	1	C13H14ClN3+
253.0524	4	C15H10ClN2+
254.0236	6	C14H7ClN2O+
254.0368	18	C15H9ClNO+
254.0607	1	C15H11ClN2+
255.0319	2	C14H8ClN2O+
255.0445	1	C15H10ClNO+
256.0399	3	C14H9ClN2O+
256.0523	2	C15H11ClNO+
257.0472	1	C14H10ClN2O+
261.1022	10	C17H13N2O+
262.1096	1	C17H14N2O+
267.0681	1	C16H12ClN2+
268.0528	1	C16H11ClNO+
269.0474	7	C15H10ClN2O+
269.0835	3	C16H14ClN2+
270.0536	1	C15H11ClN2O+
270.0695	3	C16H13ClNO+
271.063	999	C15H12ClN2O+
281.0476	3	C16H10ClN2O+
282.0551	16	C16H11ClN2O+
295.0634	6	C17H12ClN2O+
297.0788	145	C17H14ClN2O+
312.0905	1	C17H15ClN3O+
314.1057	4	C17H17ClN3O+
