Mass spectrum: Ilepatril; LC-ESI-QFT; MS2; CE: 75; R=17500; [M-H]-
Name: Ilepatril
Name: (4S,7S,12bR)-7-[[(2S)-2-acetylsulfanyl-3-methylbutanoyl]amino]-6-oxo-2,3,4,7,8,12b-hexahydro-1H-pyrido[2,1-a][2]benzazepine-4-carboxylic acid
Formula: C22H28N2O5S
Exact mass: 432.1719
SMILES: CC(C)[C@H](SC(C)=O)C(=O)N[C@H]1CC2=C(C=CC=C2)[C@H]2CCC[C@H](N2C1=O)C(O)=O
InChI: InChI=1S/C22H28N2O5S/c1-12(2)19(30-13(3)25)20(26)23-16-11-14-7-4-5-8-15(14)17-9-6-10-18(22(28)29)24(17)21(16)27/h4-5,7-8,12,16-19H,6,9-11H2,1-3H3,(H,23,26)(H,28,29)/t16-,17+,18-,19-/m0/s1
Instrument: Q Exactive Orbitrap (Thermo Scientific)
Instrument type: LC-ESI-QFT
Ms type: MS2
Ion mode: NEGATIVE
Ionization: ESI
Fragmentation mode: HCD
Collision energy: 75
Resolution: 17500
Column name: Acquity BEH C18 1.7um, 2.1x150mm (Waters)
Retention time: 16.862 min
Base peak: 231.0097
Precursor m/z: 431.1646
Precursor type: [M-H]-
Precursor intensity: 13444496.93848
m/z	relative intensity	assigned
57.9757	4	CNS-
58.0298	8	C2H4NO-
59.0138	93	C2H3O2-
59.9913	20	CH2NS-
60.9754	4	CHOS-
63.9624	5	O2S-
66.0349	8	C4H4N-
71.0251	30	C2H3N2O-
72.9754	44	C2HOS-
73.9833	6	C2H2OS-
74.991	576	C2H3OS-
80.0506	4	C5H6N-
82.0662	4	C5H8N-
83.0502	8	C5H7O-
84.0455	5	C4H6NO-
85.0295	22	C4H5O2-
87.0274	69	C4H7S-
87.9861	3	C2H2NOS-
87.9989	33	C3H4OS-
88.9941	999	C2H3NOS-
90.0019	26	C2H4NOS-
96.0819	19	C6H10N-
97.0044	7	C3HN2O2-
97.0169	11	C4H3NO2-
98.0122	13	C3H2N2O2-
98.0609	5	C5H8NO-
99.02	19	C3H3N2O2-
99.9863	8	C3H2NOS-
100.0769	3	C5H10NO-
103.0224	12	C4H7OS-
105.0711	5	C8H9-
111.0199	9	C4H3N2O2-
112.0767	42	C6H10NO-
114.0383	16	C5H8NS-
115.0223	40	C5H7OS-
115.0552	6	C9H7-
116.0176	7	C4H6NOS-
116.0502	3	C8H6N-
126.9972	30	C4H3N2OS-
129.0709	5	C10H9-
130.0661	7	C9H8N-
132.0489	119	C5H10NOS-
137.0718	13	C7H9N2O-
139.0512	6	C6H7N2O2-
140.0717	108	C7H10NO2-
141.071	22	C11H9-
142.066	22	C10H8N-
143.0501	15	C10H7O-
145.0659	19	C10H9O-
155.0866	4	C12H11-
156.058	4	C11H8O-
156.0816	11	C11H10N-
157.0534	13	C10H7NO-
157.0657	36	C11H9O-
158.061	42	C10H8NO-
159.0814	5	C11H11O-
160.077	7	C10H10NO-
166.0662	8	C12H8N-
167.0868	4	C13H11-
168.0821	4	C12H10N-
170.0609	3	C11H8NO-
171.069	48	C11H9NO-
171.0813	4	C12H11O-
172.0769	20	C11H10NO-
172.1131	10	C12H14N-
180.0581	3	C13H8O-
180.0821	3	C13H10N-
181.0534	8	C12H7NO-
182.0611	3	C12H8NO-
182.0974	14	C13H12N-
183.0818	8	C13H11O-
184.0767	7	C12H10NO-
184.1133	11	C13H14N-
188.0478	7	C11H8O3-
192.0818	6	C14H10N-
194.0973	13	C14H12N-
195.0814	11	C14H11O-
196.0765	5	C13H10NO-
200.108	4	C13H14NO-
203.0588	91	C11H9NO3-
212.1081	58	C14H14NO-
227.1186	12	C14H15N2O-
229.1346	21	C14H17N2O-
