Mass spectrum: Folic acid; LC-ESI-QFT; MS2; CE: 15; R=17500; [M-H]-
Name: Folic acid
Name: (2S)-2-[[4-[(2-amino-4-oxo-1H-pteridin-6-yl)methylamino]benzoyl]amino]pentanedioic acid
Formula: C19H19N7O6
Exact mass: 441.1397
SMILES: NC1=NC(=O)C2=C(N1)N=CC(CNC1=CC=C(C=C1)C(=O)N[C@@H](CCC(O)=O)C(O)=O)=N2
InChI: InChI=1S/C19H19N7O6/c20-19-25-15-14(17(30)26-19)23-11(8-22-15)7-21-10-3-1-9(2-4-10)16(29)24-12(18(31)32)5-6-13(27)28/h1-4,8,12,21H,5-7H2,(H,24,29)(H,27,28)(H,31,32)(H3,20,22,25,26,30)/t12-/m0/s1
Instrument: Q Exactive Orbitrap (Thermo Scientific)
Instrument type: LC-ESI-QFT
Ms type: MS2
Ion mode: NEGATIVE
Ionization: ESI
Fragmentation mode: HCD
Collision energy: 15
Resolution: 17500
Column name: Acquity BEH C18 1.7um, 2.1x150mm (Waters)
Retention time: 11.004 min
Base peak: 116.9285
Precursor m/z: 440.1324
Precursor type: [M-H]-
Precursor intensity: 514153.2104492
m/z	relative intensity	assigned
311.0898	90	C14H11N6O3-
396.1433	15	C18H18N7O4-
422.1221	31	C19H16N7O5-
440.1323	999	C19H18N7O6-
