Mass spectrum: 4,4`-Sulfonyldiphenol; LC-ESI-QFT; MS2; CE: 30; R=17500; [M+H]+
Name: 4,4'-Sulfonyldiphenol
Name: 4-(4-hydroxyphenyl)sulfonylphenol
Formula: C12H10O4S
Exact mass: 250.0300
SMILES: OC1=CC=C(C=C1)S(=O)(=O)C1=CC=C(O)C=C1
InChI: InChI=1S/C12H10O4S/c13-9-1-5-11(6-2-9)17(15,16)12-7-3-10(14)4-8-12/h1-8,13-14H
Instrument: Q Exactive Orbitrap (Thermo Scientific)
Instrument type: LC-ESI-QFT
Ms type: MS2
Ion mode: POSITIVE
Ionization: ESI
Fragmentation mode: HCD
Collision energy: 30
Resolution: 17500
Column name: Acquity BEH C18 1.7um, 2.1x150mm (Waters)
Retention time: 13.605 min
Base peak: 79.0211
Precursor m/z: 251.0373
Precursor type: [M+H]+
Precursor intensity: 1340821.125
m/z	relative intensity	assigned
65.0385	9	C5H5+
68.997	2	C3HO2+
71.0127	4	C3H3O2+
93.0336	7	C6H5O+
109.0284	116	C6H5O2+
110.0361	1	C6H6O2+
111.0441	46	C6H7O2+
156.9954	999	C6H5O3S+
251.0372	480	C12H11O4S+
