Mass spectrum: 4-Methylphthalic anhydride; LC-ESI-QFT; MS2; CE: 75; R=17500; [M+H]+
Name: 4-Methylphthalic anhydride
Name: 5-methyl-2-benzofuran-1,3-dione
Formula: C9H6O3
Exact mass: 162.0317
SMILES: CC1=CC2=C(C=C1)C(=O)OC2=O
InChI: InChI=1S/C9H6O3/c1-5-2-3-6-7(4-5)9(11)12-8(6)10/h2-4H,1H3
Instrument: Q Exactive Orbitrap (Thermo Scientific)
Instrument type: LC-ESI-QFT
Ms type: MS2
Ion mode: POSITIVE
Ionization: ESI
Fragmentation mode: HCD
Collision energy: 75
Resolution: 17500
Column name: Acquity BEH C18 1.7um, 2.1x150mm (Waters)
Retention time: 16.611 min
Base peak: 79.0212
Precursor m/z: 163.039
Precursor type: [M+H]+
Precursor intensity: 2041409.375
m/z	relative intensity	assigned
50.0151	11	C4H2+
51.0229	27	C4H3+
53.0386	328	C4H5+
55.0179	20	C3H3O+
63.0229	5	C5H3+
64.0308	5	C5H4+
67.0542	5	C5H7+
68.997	2	C3HO2+
77.0385	120	C6H5+
79.0542	162	C6H7+
81.0335	34	C5H5O+
91.0543	15	C7H7+
92.0257	415	C6H4O+
94.0414	34	C6H6O+
95.0492	999	C6H7O+
105.0336	259	C7H5O+
107.0492	22	C7H7O+
120.0207	15	C7H4O2+
133.0285	239	C8H5O2+
135.0441	281	C8H7O2+
138.0312	68	C7H6O3+
163.039	115	C9H7O3+
