Mass spectrum: SR58611; LC-ESI-QFT; MS2; CE: 45; R=17500; [M+H]+
Name: SR58611
Name: ethyl 2-[[7-[[2-(3-chlorophenyl)-2-hydroxyethyl]amino]-5,6,7,8-tetrahydronaphthalen-2-yl]oxy]acetate
Formula: C22H26ClNO4
Exact mass: 403.1550
SMILES: CCOC(=O)COC1=CC2=C(CCC(C2)NCC(O)C2=CC(Cl)=CC=C2)C=C1
InChI: InChI=1S/C22H26ClNO4/c1-2-27-22(26)14-28-20-9-7-15-6-8-19(11-17(15)12-20)24-13-21(25)16-4-3-5-18(23)10-16/h3-5,7,9-10,12,19,21,24-25H,2,6,8,11,13-14H2,1H3
Instrument: Q Exactive Orbitrap (Thermo Scientific)
Instrument type: LC-ESI-QFT
Ms type: MS2
Ion mode: POSITIVE
Ionization: ESI
Fragmentation mode: HCD
Collision energy: 45
Resolution: 17500
Column name: Acquity BEH C18 1.7um, 2.1x150mm (Waters)
Retention time: 15.271 min
Base peak: 79.0211
Precursor m/z: 404.1623
Precursor type: [M+H]+
Precursor intensity: 25062792.5
m/z	relative intensity	assigned
79.0542	2	C6H7+
91.0542	42	C7H7+
103.0542	7	C8H7+
105.0699	4	C8H9+
115.0541	4	C9H7+
116.0621	6	C9H8+
117.0699	9	C9H9+
118.0651	25	C8H8N+
119.073	34	C8H9N+
127.0544	1	C10H7+
128.0618	11	C10H8+
129.0699	40	C10H9+
131.0855	492	C10H11+
133.0647	1	C9H9O+
139.031	11	C8H8Cl+
141.0699	13	C11H9+
142.0775	1	C11H10+
144.057	9	C10H8O+
145.0649	29	C10H9O+
146.0726	45	C10H10O+
147.0804	52	C10H11O+
154.0418	220	C8H9ClN+
155.0604	2	C9H12Cl+
157.0761	84	C9H14Cl+
159.0804	999	C11H11O+
168.0575	1	C9H11ClN+
169.0759	1	C10H14Cl+
172.0881	1	C12H12O+
174.0915	1	C11H12NO+
174.1035	2	C12H14O+
175.1117	1	C12H15O+
177.0912	3	C11H13O2+
187.0753	10	C12H11O2+
187.1119	6	C13H15O+
191.1066	9	C12H15O2+
205.086	121	C12H13O3+
207.1018	3	C12H15O3+
233.1172	276	C14H17O3+
358.1201	1	C20H21ClNO3+
386.1521	2	C22H25ClNO3+
