Mass spectrum: 6-Nitrobenzimidazole; LC-ESI-QFT; MS2; CE: 45; R=17500; [M+H]+
Name: 6-Nitrobenzimidazole
Name: 5-Nitrobenzimidazole
Formula: C7H5N3O2
Exact mass: 163.0382
SMILES: [O-][N+](=O)C1=CC2=C(NC=N2)C=C1
InChI: InChI=1S/C7H5N3O2/c11-10(12)5-1-2-6-7(3-5)9-4-8-6/h1-4H,(H,8,9)
Instrument: Q Exactive Orbitrap (Thermo Scientific)
Instrument type: LC-ESI-QFT
Ms type: MS2
Ion mode: POSITIVE
Ionization: ESI
Fragmentation mode: HCD
Collision energy: 45
Resolution: 17500
Column name: Acquity BEH C18 1.7um, 2.1x150mm (Waters)
Retention time: 10.079 min
Base peak: 79.0211
Precursor m/z: 164.0455
Precursor type: [M+H]+
Precursor intensity: 20925507.75
m/z	relative intensity	assigned
54.0338	2	C3H4N+
91.0415	1	C6H5N+
93.0447	2	C5H5N2+
94.0526	13	C5H6N2+
106.0525	21	C6H6N2+
117.0448	2	C7H5N2+
118.0525	683	C7H6N2+
134.0474	71	C7H6N2O+
150.0423	970	C7H6N2O2+
152.0466	4	C6H6N3O2+
164.0453	999	C7H6N3O2+
