Mass spectrum: 4-Nitro-N-phenylaniline; LC-ESI-QFT; MS2; CE: 60; R=17500; [M-H]-
Name: 4-Nitro-N-phenylaniline
Name: 4-Nitrodiphenylamine
Formula: C12H10N2O2
Exact mass: 214.0742
SMILES: [O-][N+](=O)C1=CC=C(NC2=CC=CC=C2)C=C1
InChI: InChI=1S/C12H10N2O2/c15-14(16)12-8-6-11(7-9-12)13-10-4-2-1-3-5-10/h1-9,13H
Instrument: Q Exactive Orbitrap (Thermo Scientific)
Instrument type: LC-ESI-QFT
Ms type: MS2
Ion mode: NEGATIVE
Ionization: ESI
Fragmentation mode: HCD
Collision energy: 60
Resolution: 17500
Column name: Acquity BEH C18 1.7um, 2.1x150mm (Waters)
Retention time: 17.870 min
Base peak: 213.067
Precursor m/z: 213.067
Precursor type: [M-H]-
Precursor intensity: 41078563.91211
m/z	relative intensity	assigned
90.0349	2	C6H4N-
93.0346	35	C6H5O-
107.0377	4	C6H5NO-
116.0507	6	C8H6N-
119.0246	2	C6H3N2O-
122.0247	10	C6H4NO2-
137.0356	98	C6H5N2O2-
140.0506	5	C10H6N-
141.0584	4	C10H7N-
153.0583	2	C11H7N-
154.0663	12	C11H8N-
165.0583	7	C12H7N-
166.0663	42	C12H8N-
167.0741	5	C12H9N-
168.0458	11	C11H6NO-
170.0613	24	C11H8NO-
178.0541	2	C12H6N2-
181.0534	47	C12H7NO-
182.0611	165	C12H8NO-
183.0689	512	C12H9NO-
195.0567	9	C12H7N2O-
198.0563	8	C12H8NO2-
211.0514	150	C12H7N2O2-
213.067	999	C12H9N2O2-
