Mass spectrum: CI-1029; LC-ESI-QFT; MS2; CE: 90; R=17500; [M-H]-
Name: CI-1029
Name: (2S)-2-[2-(4-aminophenyl)ethyl]-5-[2-tert-butyl-4-(hydroxymethyl)-5-methylphenyl]sulfanyl-4-hydroxy-2-propan-2-yl-3H-pyran-6-one
Formula: C28H37NO4S
Exact mass: 483.2443
SMILES: CC(C)[C@]1(CCC2=CC=C(N)C=C2)CC(O)=C(SC2=CC(C)=C(CO)C=C2C(C)(C)C)C(=O)O1
InChI: InChI=1S/C28H37NO4S/c1-17(2)28(12-11-19-7-9-21(29)10-8-19)15-23(31)25(26(32)33-28)34-24-13-18(3)20(16-30)14-22(24)27(4,5)6/h7-10,13-14,17,30-31H,11-12,15-16,29H2,1-6H3/t28-/m0/s1
Instrument: Q Exactive Orbitrap (Thermo Scientific)
Instrument type: LC-ESI-QFT
Ms type: MS2
Ion mode: NEGATIVE
Ionization: ESI
Fragmentation mode: HCD
Collision energy: 90
Resolution: 17500
Column name: Acquity BEH C18 1.7um, 2.1x150mm (Waters)
Retention time: 15.677 min
Base peak: 356.1305
Precursor m/z: 482.2371
Precursor type: [M-H]-
Precursor intensity: 2097055.470703
m/z	relative intensity	assigned
59.9675	110	COS-
60.9752	17	CHOS-
63.9625	87	O2S-
70.9961	69	C3H3S-
71.9676	999	C2OS-
72.9754	31	C2HOS-
85.0659	20	C5H9O-
111.9988	30	C5H4OS-
135.0271	16	C8H7S-
146.0612	14	C9H8NO-
155.9891	17	C6H4O3S-
173.0432	50	C11H9S-
175.0591	11	C11H11S-
186.051	21	C12H10S-
187.0589	35	C12H11S-
188.0668	12	C12H12S-
203.0536	51	C12H11OS-
203.0902	76	C13H15S-
215.0539	48	C13H11OS-
