Mass spectrum: SSR161421; LC-ESI-QFT; MS2; CE: 30; R=17500; [M-H]-
Name: SSR161421
Name: N-[4-(benzylamino)-3-cyanoquinolin-2-yl]-4-methoxybenzamide
Formula: C25H20N4O2
Exact mass: 408.1586
SMILES: COC1=CC=C(C=C1)C(=O)NC1=C(C#N)C(NCC2=CC=CC=C2)=C2C=CC=CC2=N1
InChI: InChI=1S/C25H20N4O2/c1-31-19-13-11-18(12-14-19)25(30)29-24-21(15-26)23(20-9-5-6-10-22(20)28-24)27-16-17-7-3-2-4-8-17/h2-14H,16H2,1H3,(H2,27,28,29,30)
Instrument: Q Exactive Orbitrap (Thermo Scientific)
Instrument type: LC-ESI-QFT
Ms type: MS2
Ion mode: NEGATIVE
Ionization: ESI
Fragmentation mode: HCD
Collision energy: 30
Resolution: 17500
Column name: Acquity BEH C18 1.7um, 2.1x150mm (Waters)
Retention time: 16.904 min
Base peak: 350.0275
Precursor m/z: 407.1513
Precursor type: [M-H]-
Precursor intensity: 18368886.13184
m/z	relative intensity	assigned
65.0145	43	C3HN2-
93.0346	2	C6H5O-
108.0217	2	C6H4O2-
118.03	1	C7H4NO-
128.0505	4	C9H6N-
131.0615	2	C8H7N2-
142.0411	1	C8H4N3-
150.056	3	C8H8NO2-
168.0567	2	C10H6N3-
169.0407	1	C10H5N2O-
171.0562	1	C10H7N2O-
174.0561	6	C10H8NO2-
175.0512	1	C9H7N2O2-
181.0518	1	C10H5N4-
183.0438	4	C10H5N3O-
208.039	1	C11H4N4O-
209.0468	27	C11H5N4O-
244.0876	1	C16H10N3-
247.0876	1	C16H11N2O-
251.0825	10	C15H11N2O2-
257.06	1	C16H7N3O-
259.0873	1	C17H11N2O-
260.0589	2	C16H8N2O2-
272.0831	67	C17H10N3O-
272.1068	24	C17H12N4-
274.0625	1	C16H8N3O2-
274.0983	1	C17H12N3O-
275.0828	19	C17H11N2O2-
277.0981	14	C17H13N2O2-
287.0701	7	C17H9N3O2-
287.0941	1	C17H11N4O-
288.078	22	C17H10N3O2-
289.0859	9	C17H11N3O2-
298.0858	4	C18H10N4O-
299.0938	95	C18H11N4O-
301.0731	63	C17H9N4O2-
302.0935	133	C18H12N3O2-
303.1007	3	C18H13N3O2-
304.0956	2	C17H12N4O2-
315.0888	58	C18H11N4O2-
316.0965	29	C18H12N4O2-
320.104	1	C21H12N4-
353.1303	1	C23H17N2O2-
364.1103	4	C23H14N3O2-
365.1172	2	C23H15N3O2-
366.1244	11	C23H16N3O2-
374.117	10	C24H14N4O-
380.1405	158	C24H18N3O2-
389.1408	31	C25H17N4O-
391.1207	1	C24H15N4O2-
392.128	106	C24H16N4O2-
406.1449	1	C25H18N4O2-
407.1513	999	C25H19N4O2-
