Mass spectrum: Loratadine; LC-ESI-QFT; MS2; CE: 90; R=17500; [M+H]+
Name: Loratadine
Name: ethyl 4-(13-chloro-4-azatricyclo[9.4.0.03,8]pentadeca-1(11),3(8),4,6,12,14-hexaen-2-ylidene)piperidine-1-carboxylate
Formula: C22H23ClN2O2
Exact mass: 382.1448
SMILES: CCOC(=O)N1CCC(CC1)=C1C2=C(CCC3=C1N=CC=C3)C=C(Cl)C=C2
InChI: InChI=1S/C22H23ClN2O2/c1-2-27-22(26)25-12-9-15(10-13-25)20-19-8-7-18(23)14-17(19)6-5-16-4-3-11-24-21(16)20/h3-4,7-8,11,14H,2,5-6,9-10,12-13H2,1H3
Instrument: Q Exactive Orbitrap (Thermo Scientific)
Instrument type: LC-ESI-QFT
Ms type: MS2
Ion mode: POSITIVE
Ionization: ESI
Fragmentation mode: HCD
Collision energy: 90
Resolution: 17500
Column name: Acquity BEH C18 1.7um, 2.1x150mm (Waters)
Retention time: 17.754 min
Base peak: 79.0212
Precursor m/z: 383.1521
Precursor type: [M+H]+
Precursor intensity: 25857769
m/z	relative intensity	assigned
53.0386	5	C4H5+
55.0543	7	C4H7+
56.0495	2	C3H6N+
58.0652	9	C3H8N+
65.0386	14	C5H5+
67.0417	23	C4H5N+
67.0543	3	C5H7+
68.0495	2	C4H6N+
80.0495	40	C5H6N+
82.0652	64	C5H8N+
88.0393	2	C3H6NO2+
91.0543	7	C7H7+
93.0574	22	C6H7N+
94.0652	4	C6H8N+
96.0443	4	C5H6NO+
103.0544	4	C8H7+
106.0653	8	C7H8N+
115.0542	10	C9H7+
117.0573	18	C8H7N+
118.0652	17	C8H8N+
125.0155	6	C7H6Cl+
126.055	2	C6H8NO2+
128.0622	6	C10H8+
130.0652	30	C9H8N+
131.0729	6	C9H9N+
132.0808	6	C9H10N+
134.0602	4	C8H8NO+
141.0699	5	C11H9+
142.0654	3	C10H8N+
142.0775	3	C11H10+
143.073	9	C10H9N+
144.0808	10	C10H10N+
154.0652	8	C11H8N+
154.0777	1	C12H10+
156.0807	12	C11H10N+
165.0699	32	C13H9+
166.0779	6	C13H10+
167.0732	8	C12H9N+
168.0807	7	C12H10N+
170.0964	3	C12H12N+
175.0308	3	C11H8Cl+
178.0777	6	C14H10+
179.073	56	C13H9N+
179.0855	5	C14H11+
191.073	31	C14H9N+
191.0851	8	C15H11+
192.0809	64	C14H10N+
193.0887	108	C14H11N+
194.0969	10	C14H12N+
199.0311	11	C13H8Cl+
202.0776	19	C16H10+
204.0809	53	C15H10N+
205.0883	10	C15H11N+
206.0964	8	C15H12N+
213.0342	13	C13H8ClN+
214.0419	253	C13H9ClN+
215.0857	11	C17H11+
216.0809	173	C16H10N+
217.0887	374	C16H11N+
218.0965	143	C16H12N+
219.0918	12	C15H11N2+
219.1044	27	C16H13N+
220.0997	10	C15H12N2+
220.1108	2	C10H19ClNO2+
226.0421	27	C14H9ClN+
227.0494	21	C14H10ClN+
228.0577	111	C14H11ClN+
228.0806	68	C17H10N+
229.0657	7	C14H12ClN+
229.0888	107	C17H11N+
229.101	5	C18H13+
230.0966	469	C17H12N+
231.1044	567	C17H13N+
232.1121	173	C17H14N+
233.12	7	C17H15N+
238.0418	77	C15H9ClN+
239.0497	4	C15H10ClN+
240.0803	4	C18H10N+
241.053	9	C14H10ClN2+
241.0887	74	C18H11N+
242.0966	267	C18H12N+
243.1044	921	C18H13N+
244.1121	490	C18H14N+
245.1199	391	C18H15N+
246.1277	82	C18H16N+
247.1355	4	C18H17N+
249.0464	8	C17H10Cl+
251.0497	366	C16H10ClN+
252.0575	633	C16H11ClN+
253.0653	55	C16H12ClN+
254.0735	9	C16H13ClN+
254.0964	13	C19H12N+
255.1044	6	C19H13N+
256.1121	181	C19H14N+
257.12	66	C19H15N+
258.1278	628	C19H16N+
259.1357	55	C19H17N+
260.1447	2	C19H18N+
264.0575	130	C17H11ClN+
265.0654	172	C17H12ClN+
266.0731	999	C17H13ClN+
267.081	136	C17H14ClN+
268.088	2	C20H12O+
276.0577	29	C18H11ClN+
277.0654	77	C18H12ClN+
278.0732	204	C18H13ClN+
279.0811	67	C18H14ClN+
280.0888	358	C18H15ClN+
281.0965	5	C18H16ClN+
282.1039	7	C21H14O+
291.0809	3	C19H14ClN+
292.0886	55	C19H15ClN+
