Mass spectrum: Hydramethylnon; LC-ESI-QFT; MS2; CE: 75; R=17500; [M+H]+
Name: Hydramethylnon
Name: N-[[(1E,4E)-1,5-bis[4-(trifluoromethyl)phenyl]penta-1,4-dien-3-ylidene]amino]-5,5-dimethyl-4,6-dihydro-1H-pyrimidin-2-amine
Formula: C25H24F6N4
Exact mass: 494.1905
SMILES: CC1(C)CNC(NC1)=NN=C(\C=C\C1=CC=C(C=C1)C(F)(F)F)/C=C/C1=CC=C(C=C1)C(F)(F)F
InChI: InChI=1S/C25H24F6N4/c1-23(2)15-32-22(33-16-23)35-34-21(13-7-17-3-9-19(10-4-17)24(26,27)28)14-8-18-5-11-20(12-6-18)25(29,30)31/h3-14H,15-16H2,1-2H3,(H2,32,33,35)/b13-7+,14-8+
Instrument: Q Exactive Orbitrap (Thermo Scientific)
Instrument type: LC-ESI-QFT
Ms type: MS2
Ion mode: POSITIVE
Ionization: ESI
Fragmentation mode: HCD
Collision energy: 75
Resolution: 17500
Column name: Acquity BEH C18 1.7um, 2.1x150mm (Waters)
Retention time: 17.750 min
Base peak: 79.0211
Precursor m/z: 495.1978
Precursor type: [M+H]+
Precursor intensity: 38359081.5
m/z	relative intensity	assigned
53.0386	3	C4H5+
54.0339	1	C3H4N+
55.0291	30	C2H3N2+
55.0542	34	C4H7+
56.0495	47	C3H6N+
56.062	12	C4H8+
57.0447	15	C2H5N2+
57.0573	5	C3H7N+
57.0698	4	C4H9+
58.04	2	CH4N3+
58.0651	39	C3H8N+
59.0478	1	CH5N3+
60.0557	1	CH6N3+
65.0386	1	C5H5+
67.0416	2	C4H5N+
67.0542	4	C5H7+
68.0243	3	C2H2N3+
68.0494	10	C4H6N+
68.9946	5	CF3+
69.0447	20	C3H5N2+
69.0698	46	C5H9+
70.0399	11	C2H4N3+
70.0651	95	C4H8N+
71.0605	2	C3H7N2+
71.0729	35	C4H9N+
72.0556	3	C2H6N3+
72.0807	17	C4H10N+
75.0228	2	CH2FN3+
77.0197	1	C3H3F2+
80.0494	10	C5H6N+
81.0447	1	C4H5N2+
81.0572	1	C5H7N+
82.0525	4	C4H6N2+
82.0651	29	C5H8N+
83.0478	5	C3H5N3+
83.0603	13	C4H7N2+
83.073	2	C5H9N+
84.0556	9	C3H6N3+
84.0808	14	C5H10N+
85.0509	1	C2H5N4+
85.076	2	C4H9N2+
86.0964	15	C5H12N+
94.0651	4	C6H8N+
95.0604	10	C5H7N2+
96.0444	1	F4H6N+
96.0556	13	C4H6N3+
96.0806	2	CH9FN4+
97.0636	6	CH9F4+
97.076	42	C5H9N2+
98.0713	1	C4H8N3+
98.0838	1	C5H10N2+
99.0915	3	C5H11N2+
101.0197	4	C5H3F2+
102.0464	152	C8H6+
107.0605	4	C6H7N2+
109.0448	49	C7H6F+
109.076	3	C6H9N2+
111.0791	2	C5H9N3+
111.0918	7	C6H11N2+
112.0869	113	C5H10N3+
113.1073	20	C6H13N2+
116.062	2	C9H8+
119.0493	1	C3H7F4+
120.0371	5	C8H5F+
121.0446	2	C3H5F2N3+
125.0197	3	C7H3F2+
126.1026	27	C6H12N3+
127.0354	2	C7H5F2+
127.0415	1	CH6F5N+
127.098	1	C2H13F4N+
128.1182	57	C6H14N3+
129.0445	3	F5H6N2+
131.0292	5	C9H4F+
133.0447	8	C9H6F+
139.0353	5	C3H4F3N3+
143.073	1	C10H9N+
145.026	20	C7H4F3+
147.0353	2	C8H4FN2+
148.0555	1	C4H6F2N4+
149.0399	6	C12H5+
151.0354	999	C9H5F2+
153.1134	14	C7H13N4+
154.0652	3	C11H8N+
155.0598	2	C2H8F5N2+
156.0442	13	C5H6F4N+
156.068	5	C2H9F5N2+
158.04	8	C10H5FN+
159.0416	95	C8H6F3+
163.0552	1	C13H7+
163.1229	2	C10H15N2+
164.0436	2	C10H6F2+
165.0511	8	C10H7F2+
166.0464	5	C9H6F2N+
169.0269	6	C9H4F3+
169.0459	115	C12H6F+
170.0711	1	C2H9F5N3+
171.0416	178	C9H6F3+
172.0367	3	C3H4F4N4+
172.0555	1	C6H6F2N4+
173.0509	2	C2H7F6N2+
174.0345	1	C13H4N+
174.0535	2	C8H7F3N+
176.0306	9	C10H4F2N+
177.0506	5	C6H6F3N3+
178.0462	94	C10H6F2N+
182.0338	1	C10H5F3+
183.0417	23	C10H6F3+
183.0616	31	C13H8F+
184.0371	1	C9H5F3N+
185.0448	6	C9H6F3N+
185.0571	1	C5H7F4N3+
186.0524	3	C4H6F4N4+
189.0508	1	C7H6F3N3+
190.0469	2	C11H6F2N+
190.0661	5	C14H8N+
191.0418	3	C10H5F2N2+
193.0577	2	C10H7F2N2+
194.0413	4	C13H5FN+
196.0369	57	C10H5F3N+
197.0444	4	C5H5F4N4+
197.0822	4	C8H11F4N+
198.0526	18	C10H7F3N+
199.0477	1	C9H6F3N2+
202.0469	2	C12H6F2N+
202.0776	5	C8H11F5+
203.0855	1	C16H11+
209.0571	5	C7H7F4N3+
210.0527	2	C11H7F3N+
211.0483	1	C10H6F3N2+
212.0682	1	C11H9F3N+
213.0633	6	C10H8F3N2+
214.0473	28	C13H6F2N+
215.0853	3	C12H10FN3+
216.0935	1	C17H12+
217.1015	2	C17H13+
218.0526	8	C8H8F6+
222.0524	3	C7H6F4N4+
223.0476	1	C11H6F3N2+
224.0679	1	C7H8F4N4+
225.0633	5	C11H8F3N2+
228.0632	4	C14H8F2N+
230.0969	2	C17H12N+
234.071	1	C11H8F2N4+
235.0609	2	C13H8F3N+
238.0586	13	C11H7F3N3+
238.0767	1	C6H10F6N3+
239.1544	1	C16H19N2+
246.0706	4	C12H8F2N4+
247.0789	7	C12H9F2N4+
251.0664	2	C12H8F3N3+
251.0794	1	C13H10F3N2+
253.1454	2	C12H19F4N+
255.1091	1	C13H14F3N2+
258.0705	1	C13H8F2N4+
259.0795	3	C18H10FN+
267.0851	2	C12H10F3N4+
270.0651	1	C17H9F3+
271.073	3	C17H10F3+
272.0809	1	C17H11F3+
278.0771	2	C13H9F3N4+
278.0901	1	C19H12F2+
283.0735	1	C18H10F3+
284.0675	3	C12H8F4N4+
285.0889	1	C18H12F3+
297.0767	1	C18H10F3N+
298.0838	26	C18H11F3N+
301.0628	2	C13H8F5N3+
303.0672	1	C17H9F4N+
308.0682	1	C19H9F3N+
327.066	3	C14H8F5N4+
329.0659	1	C24H8FN+
340.0675	1	C21H8F2N3+
346.0646	1	C14H8F6N4+
347.0724	1	C14H9F6N4+
353.0633	4	C21H7F2N4+
366.0712	3	C22H8F2N4+
368.0861	1	C22H10F2N4+
