Mass spectrum: Fluridone; LC-ESI-QFT; MS2; CE: 90; R=17500; [M+H]+
Name: Fluridone
Name: 1-methyl-3-phenyl-5-[3-(trifluoromethyl)phenyl]pyridin-4-one
Formula: C19H14F3NO
Exact mass: 329.1027
SMILES: CN1C=C(C(=O)C(=C1)C1=CC(=CC=C1)C(F)(F)F)C1=CC=CC=C1
InChI: InChI=1S/C19H14F3NO/c1-23-11-16(13-6-3-2-4-7-13)18(24)17(12-23)14-8-5-9-15(10-14)19(20,21)22/h2-12H,1H3
Instrument: Q Exactive Orbitrap (Thermo Scientific)
Instrument type: LC-ESI-QFT
Ms type: MS2
Ion mode: POSITIVE
Ionization: ESI
Fragmentation mode: HCD
Collision energy: 90
Resolution: 17500
Column name: Acquity BEH C18 1.7um, 2.1x150mm (Waters)
Retention time: 16.806 min
Base peak: 79.0211
Precursor m/z: 330.11
Precursor type: [M+H]+
Precursor intensity: 51670823.625
m/z	relative intensity	assigned
51.023	5	C4H3+
53.0386	53	C4H5+
65.0385	44	C5H5+
77.0385	30	C6H5+
79.0542	8	C6H7+
89.0386	24	C7H5+
90.0464	19	C7H6+
91.0543	358	C7H7+
94.0413	6	C6H6O+
95.0492	152	C6H7O+
102.0464	65	C8H6+
103.0542	273	C8H7+
104.0495	28	C7H6N+
105.0336	19	C7H5O+
105.07	13	C8H9+
109.0448	66	C7H6F+
113.0383	2	C9H5+
115.0542	498	C9H7+
116.0495	26	C8H6N+
116.0621	68	C9H8+
117.0573	84	C8H7N+
117.0698	21	C9H9+
118.0651	43	C8H8N+
121.0447	2	C8H6F+
125.0197	4	C7H3F2+
127.0354	10	C7H5F2+
127.0543	6	C10H7+
128.062	73	C10H8+
129.0336	6	C9H5O+
129.0699	42	C10H9+
130.0652	33	C9H8N+
130.0775	2	C10H10+
131.0492	6	C9H7O+
131.073	13	C9H9N+
132.0812	3	C9H10N+
133.0448	81	C9H6F+
139.0354	10	C8H5F2+
139.0543	18	C11H7+
140.0495	26	C10H6N+
140.0618	3	C11H8+
141.0697	5	C11H9+
143.0729	13	C10H9N+
144.0571	5	C10H8O+
144.0808	7	C10H10N+
145.026	72	C7H4F3+
145.0448	7	C10H6F+
145.065	12	C10H9O+
146.0526	6	C10H7F+
151.0354	350	C9H5F2+
153.0573	6	C11H7N+
154.0652	21	C11H8N+
155.073	6	C11H9N+
156.0809	24	C11H10N+
157.0261	6	C8H4F3+
157.0448	25	C11H6F+
157.0887	12	C11H11N+
158.0402	18	C10H5FN+
159.0417	104	C8H6F3+
159.0606	14	C11H8F+
163.0355	7	C10H5F2+
163.0552	6	C10H8FO+
164.0432	47	C10H6F2+
165.0511	30	C10H7F2+
165.07	35	C13H9+
166.0465	11	C9H6F2N+
166.0653	4	C12H8N+
167.0729	10	C12H9N+
168.0807	3	C12H10N+
169.0458	19	C9H7F2O+
170.0338	12	C9H5F3+
171.0416	53	C9H6F3+
172.0368	16	C8H5F3N+
173.0211	8	C8H4F3O+
177.0511	33	C11H7F2+
178.0465	3	C10H6F2N+
178.0779	5	C14H10+
180.0623	2	C10H8F2N+
182.0336	16	C10H5F3+
182.0603	7	C12H8NO+
183.0415	86	C10H6F3+
184.0476	3	C10H7F3+
184.0563	30	C12H7FN+
184.0756	5	C12H10NO+
185.0449	8	C9H6F3N+
185.0638	12	C12H8FN+
186.0547	16	C9H7F3N+
189.0699	66	C15H9+
190.0776	27	C15H10+
191.0856	132	C15H11+
192.0933	13	C15H12+
197.0574	14	C11H8F3+
198.0522	3	C10H7F3N+
200.062	37	C16H8+
201.0593	3	C12H8FNO+
201.0697	24	C16H9+
202.0777	186	C16H10+
203.0855	27	C16H11+
204.0625	8	C12H8F2N+
204.0933	12	C16H12+
205.0648	11	C15H9O+
205.0882	3	C15H11N+
206.0966	2	C15H12N+
207.0598	9	C15H8F+
208.0371	3	C11H5F3N+
208.112	9	C15H14N+
209.0759	6	C15H10F+
209.1156	11	C13H15F2+
214.0778	11	C17H10+
215.0855	118	C17H11+
216.0807	43	C16H10N+
216.0916	3	C17H12+
217.0886	164	C16H11N+
218.0728	18	C16H10O+
218.0963	31	C16H12N+
219.0801	20	C16H11O+
220.0682	236	C16H9F+
221.0643	3	C12H9F2NO+
221.0759	37	C16H10F+
223.0556	6	C15H8FO+
224.0684	9	C12H9F3N+
225.0763	3	C12H10F3N+
226.0772	3	C18H10+
227.073	83	C17H9N+
228.0808	14	C17H10N+
229.0644	2	C17H9O+
230.0605	3	C16H8NO+
230.0964	50	C17H12N+
231.0805	20	C17H11O+
231.104	18	C17H13N+
232.1119	19	C17H14N+
233.0573	8	C14H8F3+
233.0761	76	C17H10F+
234.0714	3	C16H9FN+
234.083	3	C17H11F+
235.0792	4	C16H10FN+
235.0901	1	C17H12F+
236.0873	2	C16H11FN+
238.0584	23	C16H8F2+
241.0887	97	C18H11N+
242.0961	108	C18H12N+
243.0678	15	C17H9NO+
243.0808	3	C18H11O+
243.1039	2	C18H13N+
244.0766	55	C17H10NO+
245.0633	20	C17H8FN+
245.0836	54	C17H11NO+
246.0708	97	C17H9FN+
246.0925	14	C17H12NO+
247.0791	100	C17H10FN+
248.0626	9	C17H9FO+
248.0867	10	C17H11FN+
249.071	25	C17H10FO+
251.0664	41	C17H9F2+
252.0621	4	C16H8F2N+
255.0679	6	C18H9NO+
256.0751	3	C18H10NO+
257.0835	20	C18H11NO+
258.0914	188	C18H12NO+
259.0758	49	C16H10F3+
259.0992	578	C18H13NO+
260.087	78	C18H11FN+
260.1069	63	C18H14NO+
261.0712	14	C18H10FO+
261.0947	71	C18H12FN+
262.0784	14	C18H11FO+
262.1025	66	C18H13FN+
266.0777	60	C17H10F2N+
267.0616	34	C17H9F2O+
267.0857	8	C17H11F2N+
268.0755	5	C19H10NO+
269.0837	12	C19H11NO+
270.065	20	C17H9F3+
270.0911	32	C19H12NO+
271.0786	9	C19H10FN+
272.0684	9	C16H9F3N+
272.0867	15	C19H11FN+
273.0944	5	C19H12FN+
274.0663	141	C18H9FNO+
275.0744	36	C18H10FNO+
276.082	13	C18H11FNO+
277.0732	14	C15H10F3NO+
280.0932	58	C18H12F2N+
281.1011	4	C18H13F2N+
283.0733	6	C18H10F3+
285.076	47	C17H10F3N+
286.0838	89	C17H11F3N+
287.0915	72	C17H12F3N+
288.082	57	C19H11FNO+
289.0899	25	C19H12FNO+
290.0973	32	C19H13FNO+
291.089	594	C16H12F3NO+
292.0934	7	C19H12F2N+
293.0648	17	C18H9F2NO+
294.0725	999	C18H10F2NO+
295.0798	8	C18H11F2NO+
298.0838	5	C18H11F3N+
300.0997	11	C18H13F3N+
302.1148	2	C18H15F3N+
307.08	5	C19H11F2NO+
308.0881	64	C19H12F2NO+
309.096	452	C19H13F2NO+
310.1035	17	C19H14F2NO+
311.0919	2	C19H12F3N+
314.0789	75	C18H11F3NO+
315.0858	4	C18H12F3NO+
328.0943	15	C19H13F3NO+
330.1102	4	C19H15F3NO+
