Mass spectrum: CP-457920; LC-ESI-QFT; MS2; CE: 75; R=17500; [M-H]-
Name: CP-457920
Name: 1,5-Naphthyridine-3-carboxamide, 6-ethoxy-1,4-dihydro-4-oxo-N-(phenylmethyl)-
Name: N-benzyl-6-ethoxy-4-oxo-1H-1,5-naphthyridine-3-carboxamide
Formula: C18H17N3O3
Exact mass: 323.1270
SMILES: CCOC1=NC2=C(NC=C(C(=O)NCC3=CC=CC=C3)C2=O)C=C1
InChI: InChI=1S/C18H17N3O3/c1-2-24-15-9-8-14-16(21-15)17(22)13(11-19-14)18(23)20-10-12-6-4-3-5-7-12/h3-9,11H,2,10H2,1H3,(H,19,22)(H,20,23)
Instrument: Q Exactive Orbitrap (Thermo Scientific)
Instrument type: LC-ESI-QFT
Ms type: MS2
Ion mode: NEGATIVE
Ionization: ESI
Fragmentation mode: HCD
Collision energy: 75
Resolution: 17500
Column name: Acquity BEH C18 1.7um, 2.1x150mm (Waters)
Retention time: 16.923 min
Base peak: 360.1269
Precursor m/z: 322.1197
Precursor type: [M-H]-
Precursor intensity: 19739138.36328
m/z	relative intensity	assigned
64.0192	3	C4H2N-
65.9985	8	C3NO-
78.0349	2	C5H4N-
81.022	4	C4H3NO-
90.0349	2	C6H4N-
91.0302	19	C5H3N2-
92.0142	2	C5H2NO-
94.0298	1	C5H4NO-
96.009	3	C4H2NO2-
96.0456	1	C5H6NO-
103.0302	1	C6H3N2-
104.0381	28	C6H4N2-
105.022	1	C6H3NO-
105.0458	2	C6H5N2-
106.0173	29	C5H2N2O-
106.0299	4	C6H4NO-
107.025	5	C5H3N2O-
108.0329	31	C5H4N2O-
109.0169	6	C5H3NO2-
115.0303	1	C7H3N2-
118.0298	2	C7H4NO-
119.0251	98	C6H3N2O-
121.0168	2	C6H3NO2-
122.0248	3	C6H4NO2-
123.0199	3	C5H3N2O2-
124.0403	3	C6H6NO2-
131.025	1	C7H3N2O-
132.0329	674	C7H4N2O-
133.0407	77	C7H5N2O-
134.0247	71	C7H4NO2-
135.02	39	C6H3N2O2-
136.0279	5	C6H4N2O2-
137.0118	1	C6H3NO3-
143.025	4	C8H3N2O-
145.0408	4	C8H5N2O-
147.02	336	C7H3N2O2-
148.0278	18	C7H4N2O2-
159.0199	9	C8H3N2O2-
160.0279	280	C8H4N2O2-
161.0356	999	C8H5N2O2-
163.0148	4	C7H3N2O3-
173.0358	1	C9H5N2O2-
175.0147	3	C8H3N2O3-
175.0387	2	C8H5N3O2-
176.0226	26	C8H4N2O3-
177.0305	7	C8H5N2O3-
186.0309	18	C9H4N3O2-
187.0149	2	C9H3N2O3-
189.0305	6	C9H5N2O3-
250.0744	1	C15H10N2O2-
275.0697	1	C16H9N3O2-
276.0777	3	C16H10N3O2-
294.0884	7	C16H12N3O3-
