Mass spectrum: Clomazone; LC-ESI-QFT; MS2; CE: 45; R=17500; [M+H]+
Name: Clomazone
Name: 2-[(2-chlorophenyl)methyl]-4,4-dimethyl-1,2-oxazolidin-3-one
Formula: C12H14ClNO2
Exact mass: 239.0713
SMILES: CC1(C)CON(CC2=C(Cl)C=CC=C2)C1=O
InChI: InChI=1S/C12H14ClNO2/c1-12(2)8-16-14(11(12)15)7-9-5-3-4-6-10(9)13/h3-6H,7-8H2,1-2H3
Instrument: Q Exactive Orbitrap (Thermo Scientific)
Instrument type: LC-ESI-QFT
Ms type: MS2
Ion mode: POSITIVE
Ionization: ESI
Fragmentation mode: HCD
Collision energy: 45
Resolution: 17500
Column name: Acquity BEH C18 1.7um, 2.1x150mm (Waters)
Retention time: 16.986 min
Base peak: 79.0211
Precursor m/z: 240.0786
Precursor type: [M+H]+
Precursor intensity: 8153020.4375
m/z	relative intensity	assigned
55.0543	1	C4H7+
72.0444	2	C3H6NO+
73.0648	1	C4H9O+
89.0384	2	C7H5+
98.9996	1	C5H4Cl+
100.0757	1	C5H10NO+
125.0152	999	C7H6Cl+
128.071	2	C6H10NO2+
134.0964	104	C9H12N+
162.0914	1	C10H12NO+
240.0785	5	C12H15ClNO2+
