Mass spectrum: AVE2865; LC-ESI-QFT; MS2; CE: 75; R=17500; [M+H]+
Name: AVE2865
Name: 1-{2-[3-(2-Chloro-4,5-Difluoro-Benzoyl)-Ureido]-4-Fluoro-Phenyl}-Piperidine-4-Carboxylic Acid
Name: 1-[2-[(2-chloro-4,5-difluorobenzoyl)carbamoylamino]-4-fluorophenyl]piperidine-4-carboxylic acid
Formula: C20H17ClF3N3O4
Exact mass: 455.0860
SMILES: OC(=O)C1CCN(CC1)C1=C(NC(=O)NC(=O)C2=CC(F)=C(F)C=C2Cl)C=C(F)C=C1
InChI: InChI=1S/C20H17ClF3N3O4/c21-13-9-15(24)14(23)8-12(13)18(28)26-20(31)25-16-7-11(22)1-2-17(16)27-5-3-10(4-6-27)19(29)30/h1-2,7-10H,3-6H2,(H,29,30)(H2,25,26,28,31)
Instrument: Q Exactive Orbitrap (Thermo Scientific)
Instrument type: LC-ESI-QFT
Ms type: MS2
Ion mode: POSITIVE
Ionization: ESI
Fragmentation mode: HCD
Collision energy: 75
Resolution: 17500
Column name: Acquity BEH C18 1.7um, 2.1x150mm (Waters)
Retention time: 18.374 min
Base peak: 79.0211
Precursor m/z: 456.0932
Precursor type: [M+H]+
Precursor intensity: 2809434.0625
m/z	relative intensity	assigned
53.0022	14	C3HO+
53.0387	6	C4H5+
55.0543	145	C4H7+
57.0336	2	C3H5O+
65.0386	70	C5H5+
67.0542	380	C5H7+
69.0335	22	C4H5O+
69.0699	18	C5H9+
79.0542	5	C6H7+
80.0496	2	C5H6N+
83.0291	6	C5H4F+
92.0495	14	C6H6N+
93.0574	3	C6H7N+
95.0492	18	C6H7O+
98.0399	3	C5H5FN+
105.0335	2	C7H5O+
108.0243	13	C6H3FN+
110.0401	34	C6H5FN+
110.0601	13	C6H8NO+
124.0195	11	C6H3FNO+
125.051	22	C6H6FN2+
126.0588	5	C6H7FN2+
135.0353	29	C7H4FN2+
136.0558	3	C8H7FN+
137.051	999	C7H6FN2+
140.0508	2	C7H7FNO+
145.051	3	ClFH13NO4+
146.0403	2	C9H5FN+
147.048	2	C9H6FN+
148.0556	29	C9H7FN+
149.0511	51	C8H6FN2+
149.0635	12	C9H8FN+
150.0589	23	C8H7FN2+
151.0302	34	C7H4FN2O+
151.0668	8	C8H8FN2+
152.038	15	C7H5FN2O+
153.0459	80	C7H6FN2O+
154.0654	2	C11H8N+
161.0633	2	C10H8FN+
162.0589	3	C9H7FN2+
163.0303	75	C8H4FN2O+
163.0666	43	C9H8FN2+
165.046	829	C8H6FN2O+
172.0559	2	C11H7FN+
174.0715	3	C11H9FN+
174.9758	4	C7H2ClF2O+
175.0666	6	C10H8FN2+
176.0745	5	C10H9FN2+
177.0823	2	C10H10FN2+
178.0535	9	C9H7FN2O+
179.0612	4	C9H8FN2O+
181.0757	2	C12H9N2+
185.0514	2	C11H6FN2+
186.0592	3	C11H7FN2+
187.0667	9	C11H8FN2+
189.0459	19	C10H6FN2O+
189.0822	7	C11H10FN2+
190.0537	10	C10H7FN2O+
191.0616	101	C10H8FN2O+
191.0979	48	C11H12FN2+
197.0719	4	C9H10FN2O2+
200.0746	24	ClF3H16N2O4+
201.0824	26	ClF3H17N2O4+
203.0616	14	C11H8FN2O+
204.0695	9	C11H9FN2O+
212.0508	5	C13H7FNO+
215.0615	2	C12H8FN2O+
219.0929	56	C12H12FN2O+
228.0689	3	C13H9FN2O+
229.0773	60	C13H10FN2O+
