Mass spectrum: 2,7-Acetylaminofluorene; LC-ESI-QFT; MS2; CE: 45; R=17500; [M+H]+
Name: 2,7-Acetylaminofluorene
Name: 2,7-Diacetamidofluorene
Name: N-(7-acetamido-9H-fluoren-2-yl)acetamide
Formula: C17H16N2O2
Exact mass: 280.1212
SMILES: CC(=O)NC1=CC=C2C(CC3=C2C=CC(NC(C)=O)=C3)=C1
InChI: InChI=1S/C17H16N2O2/c1-10(20)18-14-3-5-16-12(8-14)7-13-9-15(19-11(2)21)4-6-17(13)16/h3-6,8-9H,7H2,1-2H3,(H,18,20)(H,19,21)
Instrument: Q Exactive Orbitrap (Thermo Scientific)
Instrument type: LC-ESI-QFT
Ms type: MS2
Ion mode: POSITIVE
Ionization: ESI
Fragmentation mode: HCD
Collision energy: 45
Resolution: 17500
Column name: Acquity BEH C18 1.7um, 2.1x150mm (Waters)
Retention time: 14.586 min
Base peak: 79.0211
Precursor m/z: 281.1285
Precursor type: [M+H]+
Precursor intensity: 10848303
m/z	relative intensity	assigned
153.0693	1	C12H9+
156.0809	9	C11H10N+
157.0653	1	C11H9O+
167.0491	7	C12H7O+
168.0807	3	C12H10N+
170.0964	4	C12H12N+
171.0802	1	C12H11O+
180.0808	110	C13H10N+
181.0649	10	C13H9O+
181.0886	78	C13H11N+
182.0731	1	C13H10O+
182.0839	2	C12H10N2+
183.0679	2	C12H9NO+
184.0759	46	C12H10NO+
185.06	2	C12H9O2+
194.0967	7	C14H12N+
195.0915	7	C13H11N2+
196.0998	73	C13H12N2+
197.1074	818	C13H13N2+
198.0914	222	C13H12NO+
199.0757	6	C13H11O2+
206.084	3	C14H10N2+
212.0705	5	C13H10NO2+
212.1073	2	C14H14NO+
221.1074	102	C15H13N2+
222.0915	40	C15H12NO+
223.0989	11	C15H13NO+
226.0864	3	C14H12NO2+
236.1069	3	C16H14NO+
237.1027	7	C15H13N2O+
238.1103	29	C15H14N2O+
239.1179	999	C15H15N2O+
240.1019	58	C15H14NO2+
263.1179	109	C17H15N2O+
281.1286	246	C17H17N2O2+
