Mass spectrum: Hydramethylnon; LC-ESI-QFT; MS2; CE: 45; R=17500; [M-H]-
Name: Hydramethylnon
Name: N-[[(1E,4E)-1,5-bis[4-(trifluoromethyl)phenyl]penta-1,4-dien-3-ylidene]amino]-5,5-dimethyl-4,6-dihydro-1H-pyrimidin-2-amine
Formula: C25H24F6N4
Exact mass: 494.1905
SMILES: CC1(C)CNC(NC1)=NN=C(\C=C\C1=CC=C(C=C1)C(F)(F)F)/C=C/C1=CC=C(C=C1)C(F)(F)F
InChI: InChI=1S/C25H24F6N4/c1-23(2)15-32-22(33-16-23)35-34-21(13-7-17-3-9-19(10-4-17)24(26,27)28)14-8-18-5-11-20(12-6-18)25(29,30)31/h3-14H,15-16H2,1-2H3,(H2,32,33,35)/b13-7+,14-8+
Instrument: Q Exactive Orbitrap (Thermo Scientific)
Instrument type: LC-ESI-QFT
Ms type: MS2
Ion mode: NEGATIVE
Ionization: ESI
Fragmentation mode: HCD
Collision energy: 45
Resolution: 17500
Column name: Acquity BEH C18 1.7um, 2.1x150mm (Waters)
Retention time: 17.721 min
Base peak: 317.1619
Precursor m/z: 493.1832
Precursor type: [M-H]-
Precursor intensity: 4763982.295898
m/z	relative intensity	assigned
65.0145	25	C3HN2-
68.9957	3	CF3-
81.0459	4	C4H5N2-
95.0614	18	C5H7N2-
121.0771	25	C7H9N2-
126.1037	33	C6H12N3-
145.027	718	C7H4F3-
159.0426	65	C8H6F3-
163.0365	4	C10H5F2-
164.0318	10	C9H4F2N-
170.0223	2	C8H3F3N-
176.088	31	C3H12F6N-
183.043	5	C10H6F3-
184.0379	34	C9H5F3N-
185.0591	3	C10H8F3-
189.0168	55	C14H2F-
196.0942	46	C11H12F2N-
198.041	6	C9H5F3N2-
200.0629	40	C11H7FN3-
209.0585	5	C12H8F3-
211.0489	9	C10H6F3N2-
217.0584	7	C12H7F2N2-
220.0691	78	C11H8F2N3-
222.0413	3	C11H5F3N2-
224.0567	27	C11H7F3N2-
236.0441	10	C11H5F3N3-
237.0644	999	C12H8F3N2-
238.0597	176	C11H7F3N3-
240.1007	16	C13H13F3N-
242.1164	6	C13H15F3N-
255.1114	26	C13H14F3N2-
263.0549	4	C12H6F3N4-
276.1316	422	C15H16F2N3-
294.1226	28	C20H16F2-
295.074	5	C19H10F3-
300.076	7	C21H10F2-
323.0799	2	C19H10F3N2-
330.122	3	C18H15F3N3-
333.0705	4	C14H9F6N3-
353.077	18	C19H11F6-
355.0926	131	C22H11F2N3-
363.0924	25	C19H12F5N2-
367.0791	3	C22H9F2N4-
381.0831	78	C19H11F6N2-
383.0988	101	C19H13F6N2-
