Mass spectrum: Quinine; LC-ESI-QFT; MS2; CE: 30; R=17500; [M+H]+
Name: Quinine
Name: (R)-[(2S,4S,5R)-5-ethenyl-1-azabicyclo[2.2.2]octan-2-yl]-(6-methoxyquinolin-4-yl)methanol
Formula: C20H24N2O2
Exact mass: 324.1838
SMILES: C=C[C@H]1CN2CC[C@H]1C[C@H]2[C@H](O)c1ccnc2ccc(OC)cc12
InChI: InChI=1S/C20H24N2O2/c1-3-13-12-22-9-7-14(13)10-19(22)20(23)16-6-8-21-18-5-4-15(24-2)11-17(16)18/h3-6,8,11,13-14,19-20,23H,1,7,9-10,12H2,2H3/t13-,14-,19-,20+/m0/s1
Instrument: Q Exactive Orbitrap (Thermo Scientific)
Instrument type: LC-ESI-QFT
Ms type: MS2
Ion mode: POSITIVE
Ionization: ESI
Fragmentation mode: HCD
Collision energy: 30
Resolution: 17500
Column name: Acquity BEH C18 1.7um, 2.1x150mm (Waters)
Retention time: 11.420 min
Base peak: 79.0211
Precursor m/z: 325.1911
Precursor type: [M+H]+
Precursor intensity: 27545799.5
m/z	relative intensity	assigned
58.0652	1	C3H8N+
67.0542	2	C5H7+
79.0542	2	C6H7+
81.0699	11	C6H9+
82.0652	3	C5H8N+
93.0699	1	C7H9+
96.0807	2	C6H10N+
107.0853	1	C8H11+
108.0808	2	C7H10N+
110.0965	18	C7H12N+
122.0964	2	C8H12N+
124.1121	3	C8H14N+
134.0964	4	C9H12N+
135.1041	1	C9H13N+
136.1121	1	C9H14N+
160.0757	21	C10H10NO+
162.0912	1	C10H12NO+
166.1227	8	C10H16NO+
172.0756	6	C11H10NO+
173.0834	2	C11H11NO+
174.0915	3	C11H12NO+
184.0758	32	C12H10NO+
185.0836	1	C12H11NO+
186.0914	7	C12H12NO+
196.0759	1	C13H10NO+
198.0914	16	C13H12NO+
199.0865	1	C12H11N2O+
202.0865	1	C12H12NO2+
210.0918	2	C14H12NO+
213.102	1	C13H13N2O+
224.1069	1	C15H14NO+
226.1224	3	C15H16NO+
227.1176	2	C14H15N2O+
239.118	1	C15H15N2O+
250.1235	1	C17H16NO+
251.1188	1	C16H15N2O+
252.1251	1	C16H16N2O+
252.1385	1	C17H18NO+
253.1336	26	C16H17N2O+
264.1384	13	C18H18NO+
265.1336	1	C17H17N2O+
266.1541	1	C18H20NO+
276.1395	1	C19H18NO+
278.1538	3	C19H20NO+
279.1492	13	C18H19N2O+
282.1485	1	C18H20NO2+
290.1538	1	C20H20NO+
297.196	4	C19H25N2O+
307.1806	92	C20H23N2O+
325.191	999	C20H25N2O2+
