Mass spectrum: Hydramethylnon; LC-ESI-QFT; MS2; CE: 30; R=17500; [M+H]+
Name: Hydramethylnon
Name: N-[[(1E,4E)-1,5-bis[4-(trifluoromethyl)phenyl]penta-1,4-dien-3-ylidene]amino]-5,5-dimethyl-4,6-dihydro-1H-pyrimidin-2-amine
Formula: C25H24F6N4
Exact mass: 494.1905
SMILES: CC1(C)CNC(NC1)=NN=C(\C=C\C1=CC=C(C=C1)C(F)(F)F)/C=C/C1=CC=C(C=C1)C(F)(F)F
InChI: InChI=1S/C25H24F6N4/c1-23(2)15-32-22(33-16-23)35-34-21(13-7-17-3-9-19(10-4-17)24(26,27)28)14-8-18-5-11-20(12-6-18)25(29,30)31/h3-14H,15-16H2,1-2H3,(H2,32,33,35)/b13-7+,14-8+
Instrument: Q Exactive Orbitrap (Thermo Scientific)
Instrument type: LC-ESI-QFT
Ms type: MS2
Ion mode: POSITIVE
Ionization: ESI
Fragmentation mode: HCD
Collision energy: 30
Resolution: 17500
Column name: Acquity BEH C18 1.7um, 2.1x150mm (Waters)
Retention time: 17.750 min
Base peak: 79.0211
Precursor m/z: 495.1978
Precursor type: [M+H]+
Precursor intensity: 42960685
m/z	relative intensity	assigned
69.0698	2	C5H9+
70.065	1	C4H8N+
82.0651	1	C5H8N+
86.0964	6	C5H12N+
97.0761	3	C5H9N2+
111.0917	1	C6H11N2+
112.0995	4	C6H12N2+
113.1073	9	C6H13N2+
126.1026	16	C6H12N3+
127.0866	3	CH11F4N2+
127.1104	3	C6H13N3+
128.1182	59	C6H14N3+
142.1211	1	C6H14N4+
163.1226	1	C2H16F5N2+
171.0417	3	C9H6F3+
213.0637	1	C10H8F3N2+
225.0634	1	C11H8F3N2+
238.0585	7	C11H7F3N3+
267.085	2	C12H10F3N4+
275.1358	2	C16H17F2N2+
281.1258	1	C15H16F3N2+
295.1416	9	C16H18F3N2+
298.1526	1	C15H19F3N3+
323.1477	327	C16H18F3N4+
334.1515	2	C18H19F3N3+
335.147	1	C17H18F3N4+
336.1545	1	C17H19F3N4+
467.1944	1	C25H25F6N2+
495.1979	999	C25H25F6N4+
