Mass spectrum: Oxadixyl; LC-ESI-QFT; MS2; CE: 45; R=17500; [M+H]+
Name: Oxadixyl
Name: N-(2,6-dimethylphenyl)-2-methoxy-N-(2-oxo-1,3-oxazolidin-3-yl)acetamide
Formula: C14H18N2O4
Exact mass: 278.1267
SMILES: COCC(=O)N(N1CCOC1=O)C1=C(C)C=CC=C1C
InChI: InChI=1S/C14H18N2O4/c1-10-5-4-6-11(2)13(10)16(12(17)9-19-3)15-7-8-20-14(15)18/h4-6H,7-9H2,1-3H3
Instrument: Q Exactive Orbitrap (Thermo Scientific)
Instrument type: LC-ESI-QFT
Ms type: MS2
Ion mode: POSITIVE
Ionization: ESI
Fragmentation mode: HCD
Collision energy: 45
Resolution: 17500
Column name: Acquity BEH C18 1.7um, 2.1x150mm (Waters)
Retention time: 14.470 min
Base peak: 79.0211
Precursor m/z: 279.1339
Precursor type: [M+H]+
Precursor intensity: 771459.25
m/z	relative intensity	assigned
88.0395	115	C3H6NO2+
102.0549	147	C4H8NO2+
117.0572	120	C8H7N+
118.0652	69	C8H8N+
119.0855	200	C9H11+
120.0811	65	C8H10N+
132.0809	613	C9H10N+
133.0887	999	C9H11N+
134.0601	119	C8H8NO+
134.0966	100	C9H12N+
149.0235	129	C8H5O3+
160.0175	104	C12H2N+
219.0567	203	C14H7N2O+
219.1132	118	C12H15N2O2+
