Mass spectrum: Fluometuron; LC-ESI-QFT; MS2; CE: 90; R=17500; [M-H]-
Name: Fluometuron
Name: 1,1-dimethyl-3-[3-(trifluoromethyl)phenyl]urea
Formula: C10H11F3N2O
Exact mass: 232.0823
SMILES: CN(C)C(=O)NC1=CC=CC(=C1)C(F)(F)F
InChI: InChI=1S/C10H11F3N2O/c1-15(2)9(16)14-8-5-3-4-7(6-8)10(11,12)13/h3-6H,1-2H3,(H,14,16)
Instrument: Q Exactive Orbitrap (Thermo Scientific)
Instrument type: LC-ESI-QFT
Ms type: MS2
Ion mode: NEGATIVE
Ionization: ESI
Fragmentation mode: HCD
Collision energy: 90
Resolution: 17500
Column name: Acquity BEH C18 1.7um, 2.1x150mm (Waters)
Retention time: 16.063 min
Base peak: 221.0818
Precursor m/z: 231.0751
Precursor type: [M-H]-
Precursor intensity: 18169718.52441
m/z	relative intensity	assigned
65.9985	11	C3NO-
68.9957	11	CF3-
90.0352	4	C6H4N-
92.9957	11	C3F3-
94.9937	8	C5FO-
98.0037	999	C7N-
100.0193	22	C7H2N-
118.0099	319	C7HFN-
118.994	17	C7FO-
120.0254	51	C7H3FN-
136.0203	7	C7H3FNO-
138.0161	74	C7H2F2N-
140.0316	8	C7H4F2N-
143.0116	16	C7H2F3-
146.0048	526	C8HFNO-
158.0224	17	C7H3F3N-
160.038	184	C7H5F3N-
166.0109	127	C8H2F2NO-
186.0173	217	C8H3F3NO-
200.0205	18	C8H3F3N2O-
215.0445	15	C9H6F3N2O-
