Mass spectrum: 3-((Ethylphenylamino)methyl)benzenesulfonic acid; LC-ESI-QFT; MS2; CE: 45; R=17500; [M+H]+
Name: 3-((Ethylphenylamino)methyl)benzenesulfonic acid
Name: 3-[(N-ethylanilino)methyl]benzenesulfonic acid
Formula: C15H17NO3S
Exact mass: 291.0929
SMILES: CCN(CC1=CC(=CC=C1)S(O)(=O)=O)C1=CC=CC=C1
InChI: InChI=1S/C15H17NO3S/c1-2-16(14-8-4-3-5-9-14)12-13-7-6-10-15(11-13)20(17,18)19/h3-11H,2,12H2,1H3,(H,17,18,19)
Instrument: Q Exactive Orbitrap (Thermo Scientific)
Instrument type: LC-ESI-QFT
Ms type: MS2
Ion mode: POSITIVE
Ionization: ESI
Fragmentation mode: HCD
Collision energy: 45
Resolution: 17500
Column name: Acquity BEH C18 1.7um, 2.1x150mm (Waters)
Retention time: 11.275 min
Base peak: 79.0212
Precursor m/z: 292.1002
Precursor type: [M+H]+
Precursor intensity: 4227753.78125
m/z	relative intensity	assigned
53.0385	1	C4H5+
77.0385	3	C6H5+
79.0543	5	C6H7+
91.0542	1	C7H7+
93.0574	5	C6H7N+
95.0493	2	C6H7O+
106.0651	892	C7H8N+
120.0809	45	C8H10N+
121.0886	999	C8H11N+
134.0963	3	C9H12N+
165.0701	5	C13H9+
171.011	103	C7H7O3S+
180.0809	2	C13H10N+
181.0881	1	C13H11N+
182.0966	9	C13H12N+
196.0758	2	C13H10NO+
197.0834	1	C13H11NO+
200.1067	1	C13H14NO+
210.1286	1	C15H16N+
262.0538	1	C13H12NO3S+
263.0613	12	C13H13NO3S+
264.0688	1	C13H14NO3S+
292.0999	4	C15H18NO3S+
