Mass spectrum: Chloroxuron; LC-ESI-QFT; MS2; CE: 30; R=17500; [M+H]+
Name: Chloroxuron
Name: 3-[4-(4-chlorophenoxy)phenyl]-1,1-dimethylurea
Formula: C15H15ClN2O2
Exact mass: 290.0822
SMILES: CN(C)C(=O)NC1=CC=C(OC2=CC=C(Cl)C=C2)C=C1
InChI: InChI=1S/C15H15ClN2O2/c1-18(2)15(19)17-12-5-9-14(10-6-12)20-13-7-3-11(16)4-8-13/h3-10H,1-2H3,(H,17,19)
Instrument: Q Exactive Orbitrap (Thermo Scientific)
Instrument type: LC-ESI-QFT
Ms type: MS2
Ion mode: POSITIVE
Ionization: ESI
Fragmentation mode: HCD
Collision energy: 30
Resolution: 17500
Column name: Acquity BEH C18 1.7um, 2.1x150mm (Waters)
Retention time: 17.967 min
Base peak: 79.0211
Precursor m/z: 291.0895
Precursor type: [M+H]+
Precursor intensity: 20488263.625
m/z	relative intensity	assigned
56.0132	2	C2H2NO+
72.0444	999	C3H6NO+
118.0651	3	C8H8N+
119.073	7	C8H9N+
126.9946	1	C6H4ClO+
147.0679	10	C9H9NO+
149.0708	1	C8H9N2O+
163.0865	3	C9H11N2O+
164.0945	66	C9H12N2O+
218.0367	14	C12H9ClNO+
246.0315	3	C13H9ClNO2+
256.1208	1	C15H16N2O2+
291.0896	319	C15H16ClN2O2+
