Mass spectrum: Terbucarb; LC-ESI-QFT; MS2; CE: 90; R=17500; [M+H]+
Name: Terbucarb
Name: (2,6-ditert-butyl-4-methylphenyl) N-methylcarbamate
Formula: C17H27NO2
Exact mass: 277.2042
SMILES: CNC(=O)OC1=C(C=C(C)C=C1C(C)(C)C)C(C)(C)C
InChI: InChI=1S/C17H27NO2/c1-11-9-12(16(2,3)4)14(20-15(19)18-8)13(10-11)17(5,6)7/h9-10H,1-8H3,(H,18,19)
Instrument: Q Exactive Orbitrap (Thermo Scientific)
Instrument type: LC-ESI-QFT
Ms type: MS2
Ion mode: POSITIVE
Ionization: ESI
Fragmentation mode: HCD
Collision energy: 90
Resolution: 17500
Column name: Acquity BEH C18 1.7um, 2.1x150mm (Waters)
Retention time: 20.802 min
Base peak: 79.0211
Precursor m/z: 278.2115
Precursor type: [M+H]+
Precursor intensity: 33474560.96875
m/z	relative intensity	assigned
53.0386	2	C4H5+
55.0542	4	C4H7+
57.0698	2	C4H9+
65.0383	5	C5H5+
77.0382	1	C6H5+
79.0541	31	C6H7+
91.0542	3	C7H7+
95.0491	6	C6H7O+
104.0493	4	C7H6N+
105.0335	1	C7H5O+
106.065	98	C7H8N+
107.0728	39	C7H9N+
117.0696	1	C9H9+
120.0806	5	C8H10N+
121.0886	5	C8H11N+
122.0964	2	C8H12N+
123.0675	3	C7H9NO+
132.0442	3	C8H6NO+
134.0599	629	C8H8NO+
150.0549	826	C8H8NO2+
151.0625	999	C8H9NO2+
166.0861	19	C9H12NO2+
178.0777	1	C14H10+
191.085	1	C15H11+
