Mass spectrum: Pyrazophos; LC-ESI-QFT; MS2; CE: 75; R=17500; [M+H]+
Name: Pyrazophos
Name: ethyl 2-diethoxyphosphinothioyloxy-5-methylpyrazolo[1,5-a]pyrimidine-6-carboxylate
Formula: C14H20N3O5PS
Exact mass: 373.0861
SMILES: CCOC(=O)C1=CN2N=C(OP(=S)(OCC)OCC)C=C2N=C1C
InChI: InChI=1S/C14H20N3O5PS/c1-5-19-14(18)11-9-17-12(15-10(11)4)8-13(16-17)22-23(24,20-6-2)21-7-3/h8-9H,5-7H2,1-4H3
Instrument: Q Exactive Orbitrap (Thermo Scientific)
Instrument type: LC-ESI-QFT
Ms type: MS2
Ion mode: POSITIVE
Ionization: ESI
Fragmentation mode: HCD
Collision energy: 75
Resolution: 17500
Column name: Acquity BEH C18 1.7um, 2.1x150mm (Waters)
Retention time: 18.878 min
Base peak: 79.0211
Precursor m/z: 374.0934
Precursor type: [M+H]+
Precursor intensity: 13380059.25
m/z	relative intensity	assigned
51.0229	1	C4H3+
52.0182	1	C3H2N+
53.0022	4	C3HO+
54.0338	17	C3H4N+
55.0178	1	C3H3O+
55.029	1	C2H3N2+
56.0494	9	C3H6N+
61.0106	2	C2H5S+
64.9786	146	H2O2P+
65.0385	9	C5H5+
66.0337	23	C4H4N+
67.0177	5	C4H3O+
67.029	3	C3H3N2+
67.0416	3	C4H5N+
68.013	30	C3H2NO+
68.0494	8	C4H6N+
70.0287	8	C3H4NO+
71.0128	1	C3H3O2+
74.0964	2	C4H12N+
78.0337	14	C5H4N+
78.9401	2	OPS+
78.9943	7	CH4O2P+
79.029	2	C4H3N2+
80.0131	20	C4H2NO+
80.0368	1	C4H4N2+
80.0494	3	C5H6N+
80.9735	1	H2O3P+
81.0447	17	C4H5N2+
82.0287	6	C4H4NO+
82.0526	1	C4H6N2+
82.9892	6	H4O3P+
83.0127	3	C4H3O2+
83.0604	1	C4H7N2+
84.0444	3	C4H6NO+
92.0367	1	C5H4N2+
92.0495	19	C6H6N+
93.01	36	C2H6O2P+
93.0447	89	C5H5N2+
94.0287	68	C5H4NO+
94.0651	5	C6H8N+
95.0603	29	C5H7N2+
96.0444	4	C5H6NO+
96.9507	15	H2O2PS+
97.0397	2	C4H5N2O+
98.9664	5	H4O2PS+
98.9841	74	H4O4P+
99.0552	17	C4H7N2O+
100.0393	15	C4H6NO2+
104.0367	1	C6H4N2+
105.0447	18	C6H5N2+
106.0288	9	C6H4NO+
106.0523	2	C6H6N2+
107.0239	2	C5H3N2O+
107.0605	1	C6H7N2+
108.0317	2	C5H4N2O+
108.0444	2	C6H6NO+
109.005	5	C2H6O3P+
109.0395	14	C5H5N2O+
110.0235	6	C5H4NO2+
110.0349	3	C4H4N3O+
110.0599	8	C6H8NO+
111.0313	3	C5H5NO2+
111.0552	41	C5H7N2O+
112.0393	17	C5H6NO2+
112.9998	3	CH6O4P+
113.9535	150	H3O3PS+
114.9613	708	H4O3PS+
119.024	3	C6H3N2O+
120.0447	15	C3H9N2OP+
120.0556	137	C6H6N3+
121.0396	77	C6H5N2O+
122.0237	3	C6H4NO2+
122.0713	13	C6H8N3+
123.0551	7	C6H7N2O+
124.0393	4	C6H6NO2+
124.0506	7	C5H6N3O+
126.0425	2	C5H6N2O2+
127.0499	2	C5H7N2O2+
128.0339	2	C5H6NO3+
128.0454	2	C4H6N3O2+
128.9769	23	CH6O3PS+
130.0399	8	C7H4N3+
130.9562	9	H4O4PS+
131.0101	1	CH8O5P+
131.0239	4	C7H3N2O+
131.0477	17	C7H5N3+
131.06	2	C8H7N2+
131.9637	1	H5O4PS+
132.0558	1	C7H6N3+
132.9718	7	H6O4PS+
133.0396	11	C7H5N2O+
133.0633	6	C7H7N3+
134.0473	7	C7H6N2O+
137.0169	7	C6H5N2S+
137.0344	4	C6H5N2O2+
138.055	2	C7H8NO2+
138.0662	4	C6H8N3O+
139.0502	172	C6H7N2O2+
142.9927	4	C2H8O3PS+
145.9797	2	CH7O4PS+
146.9874	7	CH8O4PS+
148.0504	525	C7H6N3O+
149.0345	70	C7H5N2O2+
150.0661	29	C7H8N3O+
151.0499	5	C7H7N2O2+
152.0458	2	C6H6N3O2+
152.058	17	C7H8N2O2+
153.0658	2	C7H9N2O2+
155.045	3	C6H7N2O3+
159.0427	115	C8H5N3O+
160.0505	11	C8H6N3O+
162.9955	2	C7H3N2OS+
164.0278	5	C7H6N3S+
164.0457	1	C7H6N3O2+
165.0117	74	C7H5N2OS+
166.0611	324	C7H8N3O2+
167.0449	7	C7H7N2O3+
169.0371	5	C7H7NO4+
169.0616	1	C3H12N3O3P+
170.9638	2	C9O2P+
172.967	5	C2H6O5PS+
175.0375	9	C8H5N3O2+
176.0454	999	C8H6N3O2+
177.0295	90	C8H5N2O3+
177.0531	320	C8H7N3O2+
178.061	48	C8H8N3O2+
180.0764	8	C10H12O3+
180.0889	2	C9H12N2O2+
181.0065	34	C7H5N2O2S+
182.0143	1	C7H6N2O2S+
183.0223	184	C7H7N2O2S+
184.9672	1	C3H6O5PS+
190.007	4	C8H4N3OS+
192.0226	13	C8H6N3OS+
193.0481	4	C8H7N3O3+
194.056	884	C8H8N3O3+
196.9676	1	C4H6O5PS+
199.0171	53	C7H7N2O3S+
205.0844	14	C10H11N3O2+
206.0924	7	C10H12N3O2+
207.0099	6	C8H5N3O2S+
208.0175	9	C8H6N3O2S+
208.0715	26	C9H10N3O3+
210.0328	19	C8H8N3O2S+
211.0537	4	C9H11N2O2S+
212.0215	2	C11H4N2O3+
213.0327	9	C8H9N2O3S+
222.0062	2	C8H5N3O3P+
222.0876	8	C10H12N3O3+
222.9706	1	C5H6NO5PS+
227.0483	1	C9H11N2O3S+
238.0639	1	C10H12N3O2S+
239.0093	1	C8H6N3O4P+
240.0162	8	C12H4N2O4+
256.0117	7	C8H7N3O5P+
268.9749	4	C12H2N2O4P+
271.9894	2	C8H7N3O4PS+
274.0216	1	C14H11O2PS+
