Mass spectrum: Fluocinolone acetonide; LC-ESI-QFT; MS2; CE: 45; R=17500; [M+H]+
Name: Fluocinolone acetonide
Name: (1S,2S,4R,8S,9S,11S,12R,13S,19S)-12,19-difluoro-11-hydroxy-8-(2-hydroxyacetyl)-6,6,9,13-tetramethyl-5,7-dioxapentacyclo[10.8.0.02,9.04,8.013,18]icosa-14,17-dien-16-one
Formula: C24H30F2O6
Exact mass: 452.2010
SMILES: CC1(C)O[C@@H]2C[C@H]3[C@@H]4C[C@H](F)C5=CC(=O)C=C[C@]5(C)[C@@]4(F)[C@@H](O)C[C@]3(C)[C@@]2(O1)C(=O)CO
InChI: InChI=1S/C24H30F2O6/c1-20(2)31-19-9-13-14-8-16(25)15-7-12(28)5-6-21(15,3)23(14,26)17(29)10-22(13,4)24(19,32-20)18(30)11-27/h5-7,13-14,16-17,19,27,29H,8-11H2,1-4H3/t13-,14-,16-,17-,19+,21-,22-,23-,24+/m0/s1
Instrument: Q Exactive Orbitrap (Thermo Scientific)
Instrument type: LC-ESI-QFT
Ms type: MS2
Ion mode: POSITIVE
Ionization: ESI
Fragmentation mode: HCD
Collision energy: 45
Resolution: 17500
Column name: Acquity BEH C18 1.7um, 2.1x150mm (Waters)
Retention time: 16.806 min
Base peak: 79.0211
Precursor m/z: 453.2083
Precursor type: [M+H]+
Precursor intensity: 3473530.90625
m/z	relative intensity	assigned
53.0388	5	C4H5+
55.0179	35	C3H3O+
55.0542	8	C4H7+
57.0335	5	C3H5O+
59.0492	121	C3H7O+
67.0542	15	C5H7+
69.0334	33	C4H5O+
71.0492	8	C4H7O+
79.0542	19	C6H7+
81.0335	10	C5H5O+
81.0698	28	C6H9+
83.0491	11	C5H7O+
87.044	10	C4H7O2+
91.0543	42	C7H7+
93.07	63	C7H9+
95.0492	38	C6H7O+
95.0856	24	C7H11+
97.0284	20	C5H5O2+
97.0649	11	C6H9O+
99.0441	7	C5H7O2+
99.0604	18	C6H8F+
101.0234	13	C4H5O3+
103.0542	9	C8H7+
105.0699	86	C8H9+
107.0492	20	C7H7O+
107.0856	28	C8H11+
109.045	8	C7H6F+
109.0648	41	C7H9O+
111.0441	17	C6H7O2+
111.0805	9	C7H11O+
115.0391	15	C5H7O3+
115.0543	12	C9H7+
117.0699	36	C9H9+
119.0492	11	C8H7O+
119.0855	23	C9H11+
121.0648	999	C8H9O+
123.0441	17	C7H7O2+
123.0605	12	C8H8F+
123.0804	12	C8H11O+
125.0599	13	C7H9O2+
125.0762	4	C8H10F+
127.0553	11	C7H8FO+
128.0618	5	C10H8+
129.0697	22	C10H9+
131.0856	28	C10H11+
133.0648	78	C9H9O+
133.1013	4	C10H13+
135.0442	15	C8H7O2+
135.0805	116	C9H11O+
137.0597	28	C8H9O2+
137.0762	54	C9H10F+
139.0556	36	C8H8FO+
139.0755	10	C8H11O2+
141.0548	8	C7H9O3+
141.0704	17	C11H9+
143.0855	30	C11H11+
145.0649	101	C10H9O+
147.0805	109	C10H11O+
149.0597	13	C9H9O2+
149.0761	26	C10H10F+
151.0391	8	C8H7O3+
151.0755	9	C9H11O2+
153.0544	4	C8H9O3+
153.0709	14	C9H10FO+
155.0856	13	C12H11+
157.0653	20	C11H9O+
158.0726	24	C11H10O+
159.0805	141	C11H11O+
161.0596	32	C10H9O2+
161.0763	11	C11H10F+
161.0963	15	C11H13O+
163.0557	11	C10H8FO+
163.0753	12	C10H11O2+
165.0709	34	C10H10FO+
167.0859	16	C13H11+
169.065	39	C12H9O+
169.1016	8	C13H13+
170.0728	5	C12H10O+
171.0804	122	C12H11O+
172.0881	5	C12H12O+
173.0598	8	C11H9O2+
173.0761	6	C12H10F+
173.0961	27	C12H13O+
175.0752	23	C11H11O2+
177.0713	31	C11H10FO+
179.0865	19	C11H12FO+
180.0934	7	C14H12+
181.0662	37	C10H10FO2+
181.1013	12	C14H13+
182.073	13	C13H10O+
183.0806	32	C13H11O+
184.0885	7	C13H12O+
185.0598	34	C12H9O2+
185.0766	5	C13H10F+
185.0963	32	C13H13O+
187.0758	40	C12H11O2+
189.0714	22	C12H10FO+
189.0916	4	C12H13O2+
190.0781	9	C15H10+
191.0865	29	C12H12FO+
192.0937	5	C15H12+
193.1014	27	C15H13+
194.0725	10	C14H10O+
194.1092	4	C15H14+
195.0808	41	C14H11O+
195.1172	31	C15H15+
196.0887	20	C14H12O+
197.0963	50	C14H13O+
198.1045	7	C14H14O+
199.0757	4	C13H11O2+
199.112	15	C14H15O+
201.0909	5	C13H13O2+
202.0772	5	C16H10+
203.0698	6	C12H11O3+
203.0867	14	C13H12FO+
204.0933	9	C16H12+
205.066	46	C12H10FO2+
205.1015	29	C16H13+
206.0732	6	C15H10O+
206.1087	5	C16H14+
207.0805	8	C15H11O+
207.1173	17	C16H15+
208.0883	47	C15H12O+
209.0781	4	C12H11F2O+
209.0962	63	C15H13O+
210.1043	19	C15H14O+
211.075	11	C14H11O2+
211.1118	88	C15H15O+
212.1192	31	C15H16O+
213.0912	7	C14H13O2+
213.1274	33	C15H17O+
215.0856	11	C17H11+
216.0935	15	C17H12+
217.102	15	C14H14FO+
218.1093	14	C17H14+
219.0807	12	C16H11O+
219.117	16	C17H15+
220.0881	9	C16H12O+
221.0961	52	C16H13O+
221.1327	8	C17H17+
222.104	53	C16H14O+
223.1119	129	C16H15O+
224.0834	9	C15H12O2+
225.091	14	C15H13O2+
225.1272	24	C16H17O+
227.1069	9	C15H15O2+
229.102	18	C15H14FO+
230.1093	17	C18H14+
231.0809	14	C17H11O+
231.1174	31	C15H16FO+
232.0884	19	C17H12O+
233.0965	32	C17H13O+
233.1327	33	C18H17+
234.1042	40	C17H14O+
235.0758	8	C16H11O2+
235.112	101	C17H15O+
236.0825	5	C16H12O2+
236.1197	17	C17H16O+
237.0915	17	C16H13O2+
237.1275	61	C17H17O+
238.0987	10	C16H14O2+
239.0864	11	C16H12FO+
239.1069	38	C16H15O2+
239.1427	8	C17H19O+
240.094	9	C16H13FO+
240.1143	7	C16H16O2+
241.1016	10	C19H13+
241.1222	30	C16H17O2+
242.1097	5	C16H15FO+
243.0819	5	C15H12FO2+
243.117	31	C19H15+
245.0963	20	C18H13O+
245.1324	23	C19H17+
246.1036	57	C18H14O+
247.1116	51	C18H15O+
248.084	4	C14H13FO3+
248.1196	38	C18H16O+
249.0915	11	C17H13O2+
249.1276	72	C18H17O+
250.099	11	C17H14O2+
250.1353	11	C18H18O+
251.1066	54	C17H15O2+
251.1431	48	C18H19O+
253.1224	55	C17H17O2+
255.1176	19	C17H16FO+
255.1382	6	C17H19O2+
257.0957	4	C19H13O+
257.1333	5	C17H18FO+
258.1042	47	C19H14O+
259.1119	45	C19H15O+
260.1192	20	C19H16O+
261.0915	13	C18H13O2+
261.1273	98	C19H17O+
262.099	21	C18H14O2+
263.1073	18	C15H16FO3+
263.1266	5	C16H17F2O+
263.1427	33	C19H19O+
265.1226	14	C18H17O2+
267.138	7	C18H19O2+
271.1129	7	C17H16FO2+
273.1272	63	C20H17O+
274.0991	14	C19H14O2+
275.1068	17	C19H15O2+
276.1143	26	C19H16O2+
277.1051	8	C16H15F2O2+
277.1223	43	C19H17O2+
279.1203	7	C16H17F2O2+
279.1377	41	C19H19O2+
281.134	11	C19H18FO+
281.1518	4	C19H21O2+
283.1126	7	C18H16FO2+
286.0989	13	C20H14O2+
289.1225	15	C20H17O2+
291.1377	36	C20H19O2+
293.1172	7	C19H17O3+
295.1326	6	C19H19O3+
301.1226	17	C21H17O2+
304.1096	5	C20H16O3+
329.155	5	C20H22FO3+
