Mass spectrum: 2-Norbornene-5,6-dicarboxylic anhydride; LC-ESI-QFT; MS2; CE: 75; R=17500; [M+H]+
Name: 2-Norbornene-5,6-dicarboxylic anhydride
Name: 5-Norbornene-2,3-dicarboxylic anhydride
Name: 4-oxatricyclo[5.2.1.02,6]dec-8-ene-3,5-dione
Formula: C9H8O3
Exact mass: 164.0473
SMILES: O=C1OC(=O)C2C3CC(C=C3)C12
InChI: InChI=1S/C9H8O3/c10-8-6-4-1-2-5(3-4)7(6)9(11)12-8/h1-2,4-7H,3H2
Instrument: Q Exactive Orbitrap (Thermo Scientific)
Instrument type: LC-ESI-QFT
Ms type: MS2
Ion mode: POSITIVE
Ionization: ESI
Fragmentation mode: HCD
Collision energy: 75
Resolution: 17500
Column name: Acquity BEH C18 1.7um, 2.1x150mm (Waters)
Retention time: 17.413 min
Base peak: 79.0212
Precursor m/z: 165.0546
Precursor type: [M+H]+
Precursor intensity: 3808161.703125
m/z	relative intensity	assigned
50.0151	2	C4H2+
51.023	4	C4H3+
53.0023	4	C3HO+
53.0386	45	C4H5+
55.0178	8	C3H3O+
63.023	2	C5H3+
64.0306	2	C5H4+
65.0386	17	C5H5+
66.0464	14	C5H6+
67.0542	3	C5H7+
68.9972	3	C3HO2+
75.0229	34	C6H3+
77.0385	40	C6H5+
78.0464	2	C6H6+
79.0179	12	C5H3O+
79.0542	49	C6H7+
81.0335	10	C5H5O+
81.0699	3	C6H9+
82.0413	2	C5H6O+
91.0543	3	C7H7+
92.0257	96	C6H4O+
94.0414	22	C6H6O+
95.0492	127	C6H7O+
105.0335	11	C7H5O+
107.0128	999	C6H3O2+
109.0283	2	C6H5O2+
109.0648	13	C7H9O+
119.0127	3	C7H3O2+
120.0206	27	C7H4O2+
121.0285	13	C7H5O2+
122.0362	862	C7H6O2+
125.0233	55	C6H5O3+
125.0596	9	C7H9O2+
135.044	31	C8H7O2+
137.0598	2	C8H9O2+
138.0311	4	C7H6O3+
139.039	33	C7H7O3+
150.0312	169	C8H6O3+
165.0547	79	C9H9O3+
