Mass spectrum: Diclosulam; LC-ESI-QFT; MS2; CE: 90; R=17500; [M+H]+
Name: Diclosulam
Name: N-(2,6-dichlorophenyl)-5-ethoxy-7-fluoro-[1,2,4]triazolo[1,5-c]pyrimidine-2-sulfonamide
Formula: C13H10Cl2FN5O3S
Exact mass: 404.9865
SMILES: CCOC1=NC(F)=CC2=NC(=NN12)S(=O)(=O)NC1=C(Cl)C=CC=C1Cl
InChI: InChI=1S/C13H10Cl2FN5O3S/c1-2-24-13-17-9(16)6-10-18-12(19-21(10)13)25(22,23)20-11-7(14)4-3-5-8(11)15/h3-6,20H,2H2,1H3
Instrument: Q Exactive Orbitrap (Thermo Scientific)
Instrument type: LC-ESI-QFT
Ms type: MS2
Ion mode: POSITIVE
Ionization: ESI
Fragmentation mode: HCD
Collision energy: 90
Resolution: 17500
Column name: Acquity BEH C18 1.7um, 2.1x150mm (Waters)
Retention time: 15.765 min
Base peak: 79.0211
Precursor m/z: 405.9938
Precursor type: [M+H]+
Precursor intensity: 3168530.28125
m/z	relative intensity	assigned
62.015	7	C5H2+
63.0229	48	C5H3+
65.0261	1	C4H3N+
67.0291	2	C3H3N2+
72.9839	9	C3H2Cl+
80.0494	5	C5H6N+
81.0335	30	C5H5O+
89.026	7	C6H3N+
90.0338	150	C6H4N+
91.0416	5	C6H5N+
96.984	3	C5H2Cl+
97.9918	7	C5H3Cl+
98.9996	55	C5H4Cl+
101.0027	3	C4H4ClN+
108.0443	22	C6H6NO+
111.9949	1	C5H3ClN+
113.0145	2	C4H2FN2O+
114.0106	2	C5H5ClN+
123.9949	18	C6H3ClN+
124.0393	3	C6H6NO2+
125.0027	205	C6H4ClN+
126.0105	92	C6H5ClN+
132.0558	1	C7H6N3+
132.9606	11	C5H3Cl2+
133.9684	30	C5H4Cl2+
142.0056	4	C6H5ClNO+
147.9715	11	C5H4Cl2N+
159.9716	3	C6H4Cl2N+
160.9793	999	C6H5Cl2N+
164.0006	1	C10N2O+
175.9665	8	C6H4Cl2NO+
