Mass spectrum: Methabenzthiazuron; LC-ESI-QFT; MS2; CE: 90; R=17500; [M+H]+
Name: Methabenzthiazuron
Name: 1-(1,3-benzothiazol-2-yl)-1,3-dimethylurea
Formula: C10H11N3OS
Exact mass: 221.0623
SMILES: CNC(=O)N(C)C1=NC2=C(S1)C=CC=C2
InChI: InChI=1S/C10H11N3OS/c1-11-9(14)13(2)10-12-7-5-3-4-6-8(7)15-10/h3-6H,1-2H3,(H,11,14)
Instrument: Q Exactive Orbitrap (Thermo Scientific)
Instrument type: LC-ESI-QFT
Ms type: MS2
Ion mode: POSITIVE
Ionization: ESI
Fragmentation mode: HCD
Collision energy: 90
Resolution: 17500
Column name: Acquity BEH C18 1.7um, 2.1x150mm (Waters)
Retention time: 16.489 min
Base peak: 79.0211
Precursor m/z: 222.0696
Precursor type: [M+H]+
Precursor intensity: 3435635.75
m/z	relative intensity	assigned
58.0287	26	C2H4NO+
65.0386	25	C5H5+
71.0602	1	C3H7N2+
80.0494	91	C5H6N+
92.0495	87	C6H6N+
94.0651	2	C6H8N+
96.0028	25	C5H4S+
97.0106	9	C5H5S+
106.0653	1	C7H8N+
109.0107	76	C6H5S+
111.0263	4	C6H7S+
118.0525	10	C7H6N2+
123.0137	146	C6H5NS+
124.0216	251	C6H6NS+
131.0605	4	C8H7N2+
132.0682	18	C8H8N2+
136.0216	11	C7H6NS+
138.0371	1	C7H8NS+
149.017	2	C7H5N2S+
150.0246	999	C7H6N2S+
163.0325	9	C8H7N2S+
164.0397	1	C8H8N2S+
165.0482	273	C8H9N2S+
