Mass spectrum: Quercetin; LC-ESI-QFT; MS2; CE: 15; R=17500; [M-H]-
Name: Quercetin
Name: 2-(3,4-dihydroxyphenyl)-3,5,7-trihydroxychromen-4-one
Formula: C15H10O7
Exact mass: 302.0427
SMILES: OC1=CC2=C(C(O)=C1)C(=O)C(O)=C(O2)C1=CC(O)=C(O)C=C1
InChI: InChI=1S/C15H10O7/c16-7-4-10(19)12-11(5-7)22-15(14(21)13(12)20)6-1-2-8(17)9(18)3-6/h1-5,16-19,21H
Instrument: Q Exactive Orbitrap (Thermo Scientific)
Instrument type: LC-ESI-QFT
Ms type: MS2
Ion mode: NEGATIVE
Ionization: ESI
Fragmentation mode: HCD
Collision energy: 15
Resolution: 17500
Column name: Acquity BEH C18 1.7um, 2.1x150mm (Waters)
Retention time: 15.510 min
Base peak: 112.9856
Precursor m/z: 301.0354
Precursor type: [M-H]-
Precursor intensity: 1526639.881348
m/z	relative intensity	assigned
121.0295	6	C7H5O2-
151.0037	54	C7H3O4-
178.9986	64	C8H3O5-
257.0458	3	C14H9O5-
273.0404	5	C14H9O6-
301.0354	999	C15H9O7-
