Mass spectrum: Diphenylacetonitrile; LC-ESI-QFT; MS2; CE: 60; R=17500; [M+H]+
Name: Diphenylacetonitrile
Name: 2,2-diphenylacetonitrile
Formula: C14H11N
Exact mass: 193.0891
SMILES: N#CC(C1=CC=CC=C1)C1=CC=CC=C1
InChI: InChI=1S/C14H11N/c15-11-14(12-7-3-1-4-8-12)13-9-5-2-6-10-13/h1-10,14H
Instrument: Q Exactive Orbitrap (Thermo Scientific)
Instrument type: LC-ESI-QFT
Ms type: MS2
Ion mode: POSITIVE
Ionization: ESI
Fragmentation mode: HCD
Collision energy: 60
Resolution: 17500
Column name: Acquity BEH C18 1.7um, 2.1x150mm (Waters)
Retention time: 15.768 min
Base peak: 79.0211
Precursor m/z: 194.0964
Precursor type: [M+H]+
Precursor intensity: 1853162.6875
m/z	relative intensity	assigned
91.0542	2	C7H7+
116.0495	3	C8H6N+
117.0574	1	C8H7N+
152.0624	3	C12H8+
165.0701	4	C13H9+
167.0736	4	C12H9N+
167.0857	15	C13H11+
176.0622	1	C14H8+
177.0701	8	C14H9+
178.065	1	C13H8N+
178.0778	2	C14H10+
179.073	39	C13H9N+
192.0803	5	C14H10N+
193.0889	86	C14H11N+
194.0965	999	C14H12N+
