Mass spectrum: Indole-3-butyric acid; LC-ESI-QFT; MS2; CE: 15; R=17500; [M-H]-
Name: Indole-3-butyric acid
Name: 4-(1H-indol-3-yl)butanoic acid
Formula: C12H13NO2
Exact mass: 203.0946
SMILES: OC(=O)CCCC1=CNC2=C1C=CC=C2
InChI: InChI=1S/C12H13NO2/c14-12(15)7-3-4-9-8-13-11-6-2-1-5-10(9)11/h1-2,5-6,8,13H,3-4,7H2,(H,14,15)
Instrument: Q Exactive Orbitrap (Thermo Scientific)
Instrument type: LC-ESI-QFT
Ms type: MS2
Ion mode: NEGATIVE
Ionization: ESI
Fragmentation mode: HCD
Collision energy: 15
Resolution: 17500
Column name: Acquity BEH C18 1.7um, 2.1x150mm (Waters)
Retention time: 15.810 min
Base peak: 112.9857
Precursor m/z: 202.0874
Precursor type: [M-H]-
Precursor intensity: 8424160.016602
m/z	relative intensity	assigned
57.0345	1	C3H5O-
59.0138	5	C2H3O2-
71.0138	2	C3H3O2-
73.0295	6	C3H5O2-
85.0295	1	C4H5O2-
116.0506	192	C8H6N-
129.0583	3	C9H7N-
130.0661	2	C9H8N-
135.0452	4	C8H7O2-
142.0663	6	C10H8N-
156.0818	4	C11H10N-
158.0975	290	C11H12N-
161.0481	5	C9H7NO2-
184.0769	29	C12H10NO-
202.0875	999	C12H12NO2-
