Mass spectrum: 1,2-Benzisothiazolin-3-one; LC-ESI-QFT; MS2; CE: 90; R=17500; [M+H]+
Name: 1,2-Benzisothiazolin-3-one
Name: 1,2-Benzisothiazol-3(2H)-one
Name: 1,2-benzothiazol-3-one
Formula: C7H5NOS
Exact mass: 151.0092
SMILES: O=C1NSC2=C1C=CC=C2
InChI: InChI=1S/C7H5NOS/c9-7-5-3-1-2-4-6(5)10-8-7/h1-4H,(H,8,9)
Instrument: Q Exactive Orbitrap (Thermo Scientific)
Instrument type: LC-ESI-QFT
Ms type: MS2
Ion mode: POSITIVE
Ionization: ESI
Fragmentation mode: HCD
Collision energy: 90
Resolution: 17500
Column name: Acquity BEH C18 1.7um, 2.1x150mm (Waters)
Retention time: 12.912 min
Base peak: 79.0211
Precursor m/z: 152.0165
Precursor type: [M+H]+
Precursor intensity: 1364094.6875
m/z	relative intensity	assigned
53.0387	87	C4H5+
63.023	53	C5H3+
65.0386	149	C5H5+
68.9795	24	C3HS+
80.0495	335	C5H6N+
81.0336	31	C5H5O+
90.0339	289	C6H4N+
92.0495	11	C6H6N+
97.0107	29	C5H5S+
105.0336	729	C7H5O+
106.9951	104	C6H3S+
109.0108	969	C6H5S+
124.0217	20	C6H6NS+
134.006	690	C7H4NS+
135.998	23	C7H4OS+
152.0166	999	C7H6NOS+
