Mass spectrum: 4,4`-Methylenebis(2-methylaniline); LC-ESI-QFT; MS2; CE: 30; R=17500; [M+H]+
Name: 4,4'-Methylenebis(2-methylaniline)
Name: 4-[(4-amino-3-methylphenyl)methyl]-2-methylaniline
Formula: C15H18N2
Exact mass: 226.1470
SMILES: CC1=C(N)C=CC(CC2=CC(C)=C(N)C=C2)=C1
InChI: InChI=1S/C15H18N2/c1-10-7-12(3-5-14(10)16)9-13-4-6-15(17)11(2)8-13/h3-8H,9,16-17H2,1-2H3
Instrument: Q Exactive Orbitrap (Thermo Scientific)
Instrument type: LC-ESI-QFT
Ms type: MS2
Ion mode: POSITIVE
Ionization: ESI
Fragmentation mode: HCD
Collision energy: 30
Resolution: 17500
Column name: Acquity BEH C18 1.7um, 2.1x150mm (Waters)
Retention time: 10.156 min
Base peak: 79.0211
Precursor m/z: 227.1543
Precursor type: [M+H]+
Precursor intensity: 19699683.4375
m/z	relative intensity	assigned
120.0808	107	C8H10N+
129.0697	1	C10H9+
178.0778	3	C14H10+
193.1012	8	C15H13+
195.1043	5	C14H13N+
210.1276	7	C15H16N+
227.1542	999	C15H19N2+
