Mass spectrum: Acetazolamide; LC-ESI-QFT; MS2; CE: 30; R=17500; [M-H]-
Name: Acetazolamide
Name: N-(5-sulfamoyl-1,3,4-thiadiazol-2-yl)acetamide
Formula: C4H6N4O3S2
Exact mass: 221.9881
SMILES: CC(=O)NC1=NN=C(S1)S(N)(=O)=O
InChI: InChI=1S/C4H6N4O3S2/c1-2(9)6-3-7-8-4(12-3)13(5,10)11/h1H3,(H2,5,10,11)(H,6,7,9)
Instrument: Q Exactive Orbitrap (Thermo Scientific)
Instrument type: LC-ESI-QFT
Ms type: MS2
Ion mode: NEGATIVE
Ionization: ESI
Fragmentation mode: HCD
Collision energy: 30
Resolution: 17500
Column name: Acquity BEH C18 1.7um, 2.1x150mm (Waters)
Retention time: 8.459 min
Base peak: 220.9808
Precursor m/z: 220.9809
Precursor type: [M-H]-
Precursor intensity: 5514796.194092
m/z	relative intensity	assigned
57.9757	541	CNS-
61.9706	12	NOS-
63.9624	4	O2S-
72.9866	27	CHN2S-
77.9655	17	NO2S-
79.9812	177	H2NO2S-
83.0251	999	C3H3N2O-
97.9819	2	C2N3S-
114.9972	2	C3H3N2OS-
115.0084	9	C2H3N4S-
115.9924	14	C2H2N3OS-
119.9869	1	CH2N3O2S-
126.0309	3	C4H4N3O2-
136.9485	3	CHN2O2S2-
142.0081	21	C4H4N3OS-
158.003	1	C4H4N3O2S-
178.9703	1	C2H3N4O2S2-
220.9809	326	C4H5N4O3S2-
