Mass spectrum: Pyridaben; LC-ESI-QFT; MS2; CE: 30; R=17500; [M+H]+
Name: Pyridaben
Formula: C19H25ClN2OS
Exact mass: 364.1376
SMILES: CC(C)(C)N1N=CC(SCC2=CC=C(C=C2)C(C)(C)C)=C(Cl)C1=O
InChI: InChI=1S/C19H25ClN2OS/c1-18(2,3)14-9-7-13(8-10-14)12-24-15-11-21-22(19(4,5)6)17(23)16(15)20/h7-11H,12H2,1-6H3
Instrument: Q Exactive Orbitrap (Thermo Scientific)
Instrument type: LC-ESI-QFT
Ms type: MS2
Ion mode: POSITIVE
Ionization: ESI
Fragmentation mode: HCD
Collision energy: 30
Resolution: 17500
Column name: Acquity BEH C18 1.7um, 2.1x150mm (Waters)
Retention time: 20.462 min
Base peak: 79.0211
Precursor m/z: 365.1449
Precursor type: [M+H]+
Precursor intensity: 12479159.375
m/z	relative intensity	assigned
105.0698	3	C8H9+
119.0856	3	C9H11+
132.0934	2	C10H12+
147.1168	999	C11H15+
309.0823	311	C15H18ClN2OS+
