Mass spectrum: Bezafibrate; LC-ESI-QFT; MS2; CE: 75; R=17500; [M-H]-
Name: Bezafibrate
Name: 2-[4-[2-[(4-chlorobenzoyl)amino]ethyl]phenoxy]-2-methylpropanoic acid
Formula: C19H20ClNO4
Exact mass: 361.1081
SMILES: CC(C)(OC1=CC=C(CCNC(=O)C2=CC=C(Cl)C=C2)C=C1)C(O)=O
InChI: InChI=1S/C19H20ClNO4/c1-19(2,18(23)24)25-16-9-3-13(4-10-16)11-12-21-17(22)14-5-7-15(20)8-6-14/h3-10H,11-12H2,1-2H3,(H,21,22)(H,23,24)
Instrument: Q Exactive Orbitrap (Thermo Scientific)
Instrument type: LC-ESI-QFT
Ms type: MS2
Ion mode: NEGATIVE
Ionization: ESI
Fragmentation mode: HCD
Collision energy: 75
Resolution: 17500
Column name: Acquity BEH C18 1.7um, 2.1x150mm (Waters)
Retention time: 17.311 min
Base peak: 360.101
Precursor m/z: 360.1008
Precursor type: [M-H]-
Precursor intensity: 24175064.56348
m/z	relative intensity	assigned
85.0295	846	C4H5O2-
93.0346	179	C6H5O-
106.0425	10	C7H6O-
107.0504	34	C7H7O-
111.0007	167	C6H4Cl-
119.0503	120	C8H7O-
154.0066	999	C7H5ClNO-
154.9905	8	C7H4ClO2-
