Mass spectrum: 17-Methyltestosterone; LC-ESI-QFT; MS2; CE: 30; R=17500; [M+H]+
Name: 17-Methyltestosterone
Name: Methyltestosterone
Name: (8R,9S,10R,13S,14S,17S)-17-hydroxy-10,13,17-trimethyl-2,6,7,8,9,11,12,14,15,16-decahydro-1H-cyclopenta[a]phenanthren-3-one
Formula: C20H30O2
Exact mass: 302.2246
SMILES: C[C@]1(O)CC[C@H]2[C@@H]3CCC4=CC(=O)CC[C@]4(C)[C@H]3CC[C@]12C
InChI: InChI=1S/C20H30O2/c1-18-9-6-14(21)12-13(18)4-5-15-16(18)7-10-19(2)17(15)8-11-20(19,3)22/h12,15-17,22H,4-11H2,1-3H3/t15-,16+,17+,18+,19+,20+/m1/s1
Instrument: Q Exactive Orbitrap (Thermo Scientific)
Instrument type: LC-ESI-QFT
Ms type: MS2
Ion mode: POSITIVE
Ionization: ESI
Fragmentation mode: HCD
Collision energy: 30
Resolution: 17500
Column name: Acquity BEH C18 1.7um, 2.1x150mm (Waters)
Retention time: 18.150 min
Base peak: 79.0212
Precursor m/z: 303.2319
Precursor type: [M+H]+
Precursor intensity: 4887982.8125
m/z	relative intensity	assigned
67.0543	2	C5H7+
69.07	3	C5H9+
71.0492	2	C4H7O+
79.0541	4	C6H7+
81.0699	12	C6H9+
83.0491	31	C5H7O+
83.0855	3	C6H11+
85.0648	8	C5H9O+
93.0699	7	C7H9+
95.0856	56	C7H11+
97.0648	560	C6H9O+
99.0805	5	C6H11O+
105.07	6	C8H9+
107.0492	1	C7H7O+
107.0855	25	C8H11+
109.0648	353	C7H9O+
109.1012	27	C8H13+
111.0805	4	C7H11O+
119.0856	14	C9H11+
121.0649	15	C8H9O+
121.1013	33	C9H13+
123.0804	30	C8H11O+
123.1169	5	C9H15+
131.0856	4	C10H11+
133.1011	18	C10H13+
135.0803	2	C9H11O+
135.1168	27	C10H15+
137.096	5	C9H13O+
137.1325	6	C10H17+
143.0855	3	C11H11+
145.1012	15	C11H13+
147.0809	1	C10H11O+
147.1168	15	C11H15+
149.0962	5	C10H13O+
149.1325	16	C11H17+
151.1117	6	C10H15O+
155.0854	2	C12H11+
157.1011	9	C12H13+
159.1168	37	C12H15+
161.096	4	C11H13O+
161.1326	25	C12H17+
163.1117	12	C11H15O+
163.1481	17	C12H19+
169.101	2	C13H13+
171.1168	14	C13H15+
173.1326	20	C13H17+
175.1117	7	C12H15O+
175.1482	25	C13H19+
177.1275	38	C12H17O+
177.1638	48	C13H21+
183.1167	4	C14H15+
185.1325	22	C14H17+
187.1483	12	C14H19+
189.1273	9	C13H17O+
189.1638	113	C14H21+
191.1432	8	C13H19O+
197.1329	8	C15H17+
199.1483	12	C15H19+
201.1275	2	C14H17O+
201.164	23	C15H21+
203.1431	5	C14H19O+
203.1795	31	C15H23+
211.1482	35	C16H19+
213.1637	3	C16H21+
215.1426	7	C15H19O+
215.1797	15	C16H23+
217.1589	3	C15H21O+
225.1635	14	C17H21+
227.1795	73	C17H23+
229.1587	23	C16H21O+
239.1795	4	C18H23+
241.1952	4	C18H25+
243.1746	9	C17H23O+
243.2105	3	C18H27+
245.19	58	C17H25O+
267.2107	159	C20H27+
285.2214	308	C20H29O+
303.2319	999	C20H31O2+
