Mass spectrum: 2-[4-(Diethylamino)-2-hydroxybenzoyl]benzoic acid; LC-ESI-QFT; MS2; CE: 75; R=17500; [M+H]+
Name: 2-[4-(Diethylamino)-2-hydroxybenzoyl]benzoic acid
Name: 2-(4-(Diethylamino)-2-hydroxybenzoyl)benzoic acid
Formula: C18H19NO4
Exact mass: 313.1314
SMILES: CCN(CC)C1=CC(O)=C(C=C1)C(=O)C1=C(C=CC=C1)C(O)=O
InChI: InChI=1S/C18H19NO4/c1-3-19(4-2)12-9-10-15(16(20)11-12)17(21)13-7-5-6-8-14(13)18(22)23/h5-11,20H,3-4H2,1-2H3,(H,22,23)
Instrument: Q Exactive Orbitrap (Thermo Scientific)
Instrument type: LC-ESI-QFT
Ms type: MS2
Ion mode: POSITIVE
Ionization: ESI
Fragmentation mode: HCD
Collision energy: 75
Resolution: 17500
Column name: Acquity BEH C18 1.7um, 2.1x150mm (Waters)
Retention time: 17.547 min
Base peak: 79.0211
Precursor m/z: 314.1387
Precursor type: [M+H]+
Precursor intensity: 36424279.03125
m/z	relative intensity	assigned
53.0021	3	C3HO+
53.0385	12	C4H5+
54.0339	2	C3H4N+
55.0179	13	C3H3O+
56.0495	3	C3H6N+
58.0652	25	C3H8N+
65.0385	451	C5H5+
67.0416	2	C4H5N+
67.0541	9	C5H7+
68.013	16	C3H2NO+
68.0495	7	C4H6N+
69.0333	3	C4H5O+
70.065	6	C4H8N+
72.0443	4	C3H6NO+
72.0807	43	C4H10N+
74.0964	2	C4H12N+
77.0386	3	C6H5+
79.0542	21	C6H7+
80.0494	26	C5H6N+
81.0335	3	C5H5O+
81.0573	6	C5H7N+
82.0412	10	C5H6O+
82.0651	14	C5H8N+
83.0492	3	C5H7O+
91.0542	120	C7H7+
92.0495	39	C6H6N+
93.0335	119	C6H5O+
93.0699	23	C7H9+
94.0413	8	C6H6O+
94.0651	15	C6H8N+
95.0491	48	C6H7O+
96.0443	7	C5H6NO+
96.0807	4	C6H10N+
98.0363	12	C5H6O2+
98.0963	5	C6H12N+
100.0757	2	C5H10NO+
103.0543	19	C8H7+
104.0495	5	C7H6N+
105.0335	89	C7H5O+
105.0699	12	C8H9+
106.0651	11	C7H8N+
108.0443	24	C6H6NO+
108.0808	9	C7H10N+
109.0522	133	C6H7NO+
109.0647	19	C7H9O+
110.06	119	C6H8NO+
110.0964	8	C7H12N+
111.044	118	C6H7O2+
115.0542	21	C9H7+
117.0569	2	C8H7N+
118.065	19	C8H8N+
119.0128	6	C7H3O2+
119.0729	5	C8H9N+
120.0442	12	C7H6NO+
120.0808	22	C8H10N+
121.0284	604	C7H5O2+
122.06	365	C7H8NO+
123.0804	6	C8H11O+
124.112	3	C8H14N+
125.0595	3	C7H9O2+
128.062	10	C10H8+
129.0699	25	C10H9+
131.0492	7	C9H7O+
132.0808	2	C9H10N+
133.0284	40	C8H5O2+
133.0647	2	C9H9O+
134.0601	12	C8H8NO+
134.0964	7	C9H12N+
135.0678	3	C8H9NO+
136.0394	8	C7H6NO2+
136.0757	161	C8H10NO+
137.0835	93	C8H11NO+
138.0913	190	C8H12NO+
139.0541	34	C11H7+
140.0495	3	C10H6N+
140.0623	6	C11H8+
141.0698	66	C11H9+
142.0777	4	C11H10+
143.0493	16	C10H7O+
144.0571	2	C10H8O+
145.0646	3	C10H9O+
146.06	8	C9H8NO+
148.0395	19	C8H6NO2+
149.0233	999	C8H5O3+
150.0912	21	C9H12NO+
152.062	34	C12H8+
153.0698	48	C12H9+
154.0651	10	C11H8N+
154.0782	2	C12H10+
155.0492	6	C11H7O+
155.073	4	C11H9N+
155.0852	3	C12H11+
156.057	4	C11H8O+
156.0807	5	C11H10N+
157.0648	22	C11H9O+
159.0442	10	C10H7O2+
162.0555	2	C9H8NO2+
163.039	15	C9H7O3+
164.0705	230	C9H10NO2+
164.107	82	C10H14NO+
165.0574	2	C12H7N+
165.0699	33	C13H9+
166.0652	15	C12H8N+
166.1226	123	C10H16NO+
167.0338	6	C8H7O4+
167.0491	38	C12H7O+
167.0732	20	C12H9N+
167.0855	11	C13H11+
168.057	37	C12H8O+
168.0806	16	C12H10N+
169.0649	25	C12H9O+
170.0361	8	C11H6O2+
170.06	7	C11H8NO+
171.0442	10	C11H7O2+
171.08	3	C12H11O+
176.062	4	C14H8+
177.0697	9	C14H9+
178.0652	6	C13H8N+
178.0778	6	C14H10+
179.0488	3	C13H7O+
179.0727	3	C13H9N+
180.0444	6	C12H6NO+
180.0573	11	C13H8O+
180.0808	36	C13H10N+
181.0502	21	C9H9O4+
181.0647	57	C13H9O+
182.06	26	C12H8NO+
182.0965	9	C13H12N+
183.0438	16	C12H7O2+
183.0676	15	C12H9NO+
183.082	2	C13H11O+
183.1046	2	C13H13N+
184.0518	38	C12H8O2+
184.0757	3	C12H10NO+
185.0592	10	C12H9O2+
192.0807	3	C14H10N+
193.052	4	C13H7NO+
193.0652	3	C14H9O+
193.0887	5	C14H11N+
194.0603	9	C13H8NO+
194.072	4	C14H10O+
194.0964	25	C14H12N+
195.0441	33	C13H7O2+
195.068	16	C13H9NO+
195.0804	10	C14H11O+
195.1041	11	C14H13N+
196.0519	75	C13H8O2+
196.0757	73	C13H10NO+
197.0597	120	C13H9O2+
198.055	42	C12H8NO2+
198.0674	16	C13H10O2+
198.0911	6	C13H12NO+
199.039	9	C12H7O3+
204.0808	22	C15H10N+
205.0648	4	C15H9O+
206.0602	20	C14H8NO+
207.0436	3	C14H7O2+
207.0678	8	C14H9NO+
208.0757	112	C14H10NO+
209.0598	23	C14H9O2+
209.0833	6	C14H11NO+
210.0552	32	C13H8NO2+
210.0666	3	C14H10O2+
210.0914	21	C14H12NO+
211.0627	65	C13H9NO2+
211.0742	3	C14H11O2+
212.0466	6	C13H8O3+
212.0706	88	C13H10NO2+
214.0878	2	C13H12NO2+
220.0755	34	C15H10NO+
221.0597	5	C15H9O2+
221.0835	7	C15H11NO+
222.055	26	C14H8NO2+
222.0914	32	C15H12NO+
223.039	65	C14H7O3+
223.0632	7	C14H9NO2+
223.075	5	C15H11O2+
224.0705	310	C14H10NO2+
224.1063	22	C15H14NO+
225.0546	47	C14H9O3+
225.0782	31	C14H11NO2+
226.0497	11	C13H8NO3+
226.0616	3	C14H10O3+
226.0862	22	C14H12NO2+
227.0577	4	C13H9NO3+
228.0415	17	C13H8O4+
232.0756	25	C16H10NO+
233.0833	18	C16H11NO+
234.0549	37	C15H8NO2+
235.0627	26	C15H9NO2+
236.0703	11	C15H10NO2+
238.05	30	C14H8NO3+
238.0861	40	C15H12NO2+
239.0575	17	C14H9NO3+
239.0936	19	C15H13NO2+
240.1018	532	C15H14NO2+
248.0708	16	C16H10NO2+
249.0784	9	C16H11NO2+
250.0861	22	C16H12NO2+
251.0577	8	C15H9NO3+
252.0654	285	C15H10NO3+
253.0736	4	C15H11NO3+
255.0527	7	C14H9NO4+
266.0811	323	C16H12NO3+
267.0896	5	C16H13NO3+
268.0969	6	C16H14NO3+
270.0762	11	C15H12NO4+
