Mass spectrum: Oxazepam; LC-ESI-QFT; MS2; CE: 15; R=17500; [M+H]+
Name: Oxazepam
Name: 7-chloro-3-hydroxy-5-phenyl-1,3-dihydro-1,4-benzodiazepin-2-one
Formula: C15H11ClN2O2
Exact mass: 286.0509
SMILES: OC1N=C(C2=CC=CC=C2)C2=CC(Cl)=CC=C2NC1=O
InChI: InChI=1S/C15H11ClN2O2/c16-10-6-7-12-11(8-10)13(9-4-2-1-3-5-9)18-15(20)14(19)17-12/h1-8,15,20H,(H,17,19)
Instrument: Q Exactive Orbitrap (Thermo Scientific)
Instrument type: LC-ESI-QFT
Ms type: MS2
Ion mode: POSITIVE
Ionization: ESI
Fragmentation mode: HCD
Collision energy: 15
Resolution: 17500
Column name: Acquity BEH C18 1.7um, 2.1x150mm (Waters)
Retention time: 16.615 min
Base peak: 79.0211
Precursor m/z: 287.0582
Precursor type: [M+H]+
Precursor intensity: 14052373.25
m/z	relative intensity	assigned
104.0499	1	C7H6N+
166.0053	1	C8H5ClNO+
229.0539	1	C13H10ClN2+
231.0686	5	C13H12ClN2+
241.0525	69	C14H10ClN2+
242.0358	1	C14H9ClNO+
269.0475	438	C15H10ClN2O+
287.058	999	C15H12ClN2O2+
