Mass spectrum: 2,7-Acetylaminofluorene; LC-ESI-QFT; MS2; CE: 75; R=17500; [M-H]-
Name: 2,7-Acetylaminofluorene
Name: 2,7-Diacetamidofluorene
Name: N-(7-acetamido-9H-fluoren-2-yl)acetamide
Formula: C17H16N2O2
Exact mass: 280.1212
SMILES: CC(=O)NC1=CC=C2C(CC3=C2C=CC(NC(C)=O)=C3)=C1
InChI: InChI=1S/C17H16N2O2/c1-10(20)18-14-3-5-16-12(8-14)7-13-9-15(19-11(2)21)4-6-17(13)16/h3-6,8-9H,7H2,1-2H3,(H,18,20)(H,19,21)
Instrument: Q Exactive Orbitrap (Thermo Scientific)
Instrument type: LC-ESI-QFT
Ms type: MS2
Ion mode: NEGATIVE
Ionization: ESI
Fragmentation mode: HCD
Collision energy: 75
Resolution: 17500
Column name: Acquity BEH C18 1.7um, 2.1x150mm (Waters)
Retention time: 14.559 min
Base peak: 112.9857
Precursor m/z: 279.1139
Precursor type: [M-H]-
Precursor intensity: 5959005.049316
m/z	relative intensity	assigned
166.0661	13	C12H8N-
168.0819	227	C12H10N-
178.0668	6	C13H8N-
179.074	13	C13H9N-
180.0692	6	C12H8N2-
193.0771	487	C13H9N2-
194.0849	999	C13H10N2-
195.0927	514	C13H11N2-
205.0775	5	C14H9N2-
207.0566	11	C13H7N2O-
210.0925	117	C14H12NO-
218.0847	6	C15H10N2-
219.0929	17	C15H11N2-
220.0646	37	C14H8N2O-
220.0763	8	C15H10NO-
221.0721	427	C14H9N2O-
236.0955	195	C15H12N2O-
237.1034	172	C15H13N2O-
261.103	5	C17H13N2O-
263.082	41	C16H11N2O2-
