Mass spectrum: Selegiline; LC-ESI-QFT; MS2; CE: 75; R=17500; [M+H]+
Name: Selegiline
Name: (2R)-N-methyl-1-phenyl-N-prop-2-ynylpropan-2-amine
Formula: C13H17N
Exact mass: 187.1361
SMILES: C#CCN(C)[C@H](C)Cc1ccccc1
InChI: InChI=1S/C13H17N/c1-4-10-14(3)12(2)11-13-8-6-5-7-9-13/h1,5-9,12H,10-11H2,2-3H3/t12-/m1/s1
Instrument: Q Exactive Orbitrap (Thermo Scientific)
Instrument type: LC-ESI-QFT
Ms type: MS2
Ion mode: POSITIVE
Ionization: ESI
Fragmentation mode: HCD
Collision energy: 75
Resolution: 17500
Column name: Acquity BEH C18 1.7um, 2.1x150mm (Waters)
Retention time: 11.296 min
Base peak: 79.0211
Precursor m/z: 188.1434
Precursor type: [M+H]+
Precursor intensity: 13718263
m/z	relative intensity	assigned
65.0386	12	C5H5+
70.0651	16	C4H8N+
91.0542	999	C7H7+
119.0857	2	C9H11+
