Mass spectrum: Propanil; LC-ESI-QFT; MS2; CE: 45; R=17500; [M-H]-
Name: Propanil
Name: N-(3,4-dichlorophenyl)propanamide
Formula: C9H9Cl2NO
Exact mass: 217.0061
SMILES: CCC(=O)NC1=CC=C(Cl)C(Cl)=C1
InChI: InChI=1S/C9H9Cl2NO/c1-2-9(13)12-6-3-4-7(10)8(11)5-6/h3-5H,2H2,1H3,(H,12,13)
Instrument: Q Exactive Orbitrap (Thermo Scientific)
Instrument type: LC-ESI-QFT
Ms type: MS2
Ion mode: NEGATIVE
Ionization: ESI
Fragmentation mode: HCD
Collision energy: 45
Resolution: 17500
Column name: Acquity BEH C18 1.7um, 2.1x150mm (Waters)
Retention time: 17.574 min
Base peak: 215.9988
Precursor m/z: 215.9988
Precursor type: [M-H]-
Precursor intensity: 72073317.12695
m/z	relative intensity	assigned
123.996	27	C6H3ClN-
159.9726	999	C6H4Cl2N-
160.9565	7	C6H3Cl2O-
185.9521	2	C7H2Cl2NO-
215.9988	241	C9H8Cl2NO-
