Mass spectrum: CI-1018; LC-ESI-QFT; MS2; CE: 60; R=17500; [M+H]+
Name: CI-1018
Name: N-[(11R)-6-methyl-12-oxo-9-phenyl-1,10-diazatricyclo[6.4.1.04,13]trideca-4(13),5,7,9-tetraen-11-yl]pyridine-4-carboxamide
Formula: C24H20N4O2
Exact mass: 396.1586
SMILES: CC1=CC2=C3N(CC2)C(=O)[C@H](NC(=O)C2=CC=NC=C2)N=C(C2=CC=CC=C2)C3=C1
InChI: InChI=1S/C24H20N4O2/c1-15-13-18-9-12-28-21(18)19(14-15)20(16-5-3-2-4-6-16)26-22(24(28)30)27-23(29)17-7-10-25-11-8-17/h2-8,10-11,13-14,22H,9,12H2,1H3,(H,27,29)/t22-/m0/s1
Instrument: Q Exactive Orbitrap (Thermo Scientific)
Instrument type: LC-ESI-QFT
Ms type: MS2
Ion mode: POSITIVE
Ionization: ESI
Fragmentation mode: HCD
Collision energy: 60
Resolution: 17500
Column name: Acquity BEH C18 1.7um, 2.1x150mm (Waters)
Retention time: 17.174 min
Base peak: 79.0212
Precursor m/z: 397.1659
Precursor type: [M+H]+
Precursor intensity: 22786441
m/z	relative intensity	assigned
78.0338	4	C5H4N+
80.0494	3	C5H6N+
105.0447	2	C6H5N2+
106.0287	4	C6H4NO+
115.054	1	C9H7+
116.0494	2	C8H6N+
123.0552	12	C6H7N2O+
143.0731	1	C10H9N+
144.0807	35	C10H10N+
155.0603	2	C10H7N2+
159.0916	1	C10H11N2+
162.0912	2	C10H12NO+
167.0729	1	C12H9N+
168.081	1	C12H10N+
169.076	1	C11H9N2+
172.0757	5	C11H10NO+
186.1025	1	C11H12N3+
205.0887	1	C15H11N+
220.1123	1	C16H14N+
231.091	3	C16H11N2+
232.0994	4	C16H12N2+
242.0841	1	C17H10N2+
245.1079	1	C17H13N2+
246.1158	2	C17H14N2+
247.1228	999	C17H15N2+
256.0998	1	C18H12N2+
257.1075	3	C18H13N2+
259.0859	3	C17H11N2O+
260.094	5	C17H12N2O+
263.1176	4	C17H15N2O+
273.102	1	C18H13N2O+
274.1087	1	C18H14N2O+
275.1176	19	C18H15N2O+
