Mass spectrum: 2,2`-(Oxydimethanediyl)bis(2-ethylpropane-1,3-diol); LC-ESI-QFT; MS2; CE: 90; R=17500; [M+H]+
Name: 2,2'-(Oxydimethanediyl)bis(2-ethylpropane-1,3-diol)
Name: Ditrimethylolpropane
Name: 2-[2,2-bis(hydroxymethyl)butoxymethyl]-2-ethylpropane-1,3-diol
Formula: C12H26O5
Exact mass: 250.1780
SMILES: CCC(CO)(CO)COCC(CC)(CO)CO
InChI: InChI=1S/C12H26O5/c1-3-11(5-13,6-14)9-17-10-12(4-2,7-15)8-16/h13-16H,3-10H2,1-2H3
Instrument: Q Exactive Orbitrap (Thermo Scientific)
Instrument type: LC-ESI-QFT
Ms type: MS2
Ion mode: POSITIVE
Ionization: ESI
Fragmentation mode: HCD
Collision energy: 90
Resolution: 17500
Column name: Acquity BEH C18 1.7um, 2.1x150mm (Waters)
Retention time: 13.467 min
Base peak: 79.0211
Precursor m/z: 251.1853
Precursor type: [M+H]+
Precursor intensity: 4471848
m/z	relative intensity	assigned
53.0022	125	C3HO+
53.0386	209	C4H5+
55.0543	488	C4H7+
57.0335	362	C3H5O+
57.0699	21	C4H9+
61.0284	29	C2H5O2+
65.0385	53	C5H5+
66.0463	36	C5H6+
67.0541	26	C5H7+
69.0699	602	C5H9+
71.0491	32	C4H7O+
79.0542	999	C6H7+
81.0699	889	C6H9+
85.0649	18	C5H9O+
95.0492	66	C6H7O+
99.0804	49	C6H11O+
152.062	21	C12H8+
