Mass spectrum: Anastrozole; LC-ESI-QFT; MS2; CE: 30; R=17500; [M+H]+
Name: Anastrozole
Name: 2-[3-(2-cyanopropan-2-yl)-5-(1,2,4-triazol-1-ylmethyl)phenyl]-2-methylpropanenitrile
Formula: C17H19N5
Exact mass: 293.1640
SMILES: CC(C)(C#N)C1=CC(=CC(CN2C=NC=N2)=C1)C(C)(C)C#N
InChI: InChI=1S/C17H19N5/c1-16(2,9-18)14-5-13(8-22-12-20-11-21-22)6-15(7-14)17(3,4)10-19/h5-7,11-12H,8H2,1-4H3
Instrument: Q Exactive Orbitrap (Thermo Scientific)
Instrument type: LC-ESI-QFT
Ms type: MS2
Ion mode: POSITIVE
Ionization: ESI
Fragmentation mode: HCD
Collision energy: 30
Resolution: 17500
Column name: Acquity BEH C18 1.7um, 2.1x150mm (Waters)
Retention time: 14.587 min
Base peak: 79.0211
Precursor m/z: 294.1713
Precursor type: [M+H]+
Precursor intensity: 7892546.5
m/z	relative intensity	assigned
198.1282	1	C14H16N+
225.1386	999	C15H17N2+
267.1605	4	C16H19N4+
294.1714	257	C17H20N5+
