Mass spectrum: Pantothenate; LC-ESI-QFT; MS2; CE: 15; R=17500; [M-H]-
Name: Pantothenate
Name: Pantothenic acid
Name: 3-[[(2R)-2,4-dihydroxy-3,3-dimethylbutanoyl]amino]propanoic acid
Formula: C9H17NO5
Exact mass: 219.1107
SMILES: CC(C)(CO)[C@@H](O)C(=O)NCCC(O)=O
InChI: InChI=1S/C9H17NO5/c1-9(2,5-11)7(14)8(15)10-4-3-6(12)13/h7,11,14H,3-5H2,1-2H3,(H,10,15)(H,12,13)/t7-/m0/s1
Instrument: Q Exactive Orbitrap (Thermo Scientific)
Instrument type: LC-ESI-QFT
Ms type: MS2
Ion mode: NEGATIVE
Ionization: ESI
Fragmentation mode: HCD
Collision energy: 15
Resolution: 17500
Column name: Acquity BEH C18 1.7um, 2.1x150mm (Waters)
Retention time: 8.081 min
Base peak: 218.1034
Precursor m/z: 218.1034
Precursor type: [M-H]-
Precursor intensity: 2779293.268311
m/z	relative intensity	assigned
59.0138	4	C2H3O2-
71.0139	93	C3H3O2-
71.0503	15	C4H7O-
88.0404	999	C3H6NO2-
99.0452	5	C5H7O2-
116.0354	5	C4H6NO3-
116.0717	7	C5H10NO2-
129.0557	6	C6H9O3-
146.0823	477	C6H12NO3-
218.1034	352	C9H16NO5-
