Mass spectrum: Monuron; LC-ESI-QFT; MS2; CE: 75; R=17500; [M+H]+
Name: Monuron
Name: 3-(4-chlorophenyl)-1,1-dimethylurea
Formula: C9H11ClN2O
Exact mass: 198.0560
SMILES: CN(C)C(=O)NC1=CC=C(Cl)C=C1
InChI: InChI=1S/C9H11ClN2O/c1-12(2)9(13)11-8-5-3-7(10)4-6-8/h3-6H,1-2H3,(H,11,13)
Instrument: Q Exactive Orbitrap (Thermo Scientific)
Instrument type: LC-ESI-QFT
Ms type: MS2
Ion mode: POSITIVE
Ionization: ESI
Fragmentation mode: HCD
Collision energy: 75
Resolution: 17500
Column name: Acquity BEH C18 1.7um, 2.1x150mm (Waters)
Retention time: 15.153 min
Base peak: 79.0211
Precursor m/z: 199.0633
Precursor type: [M+H]+
Precursor intensity: 7504529.75
m/z	relative intensity	assigned
55.0543	4	C4H7+
56.0131	13	C2H2NO+
72.0444	999	C3H6NO+
74.0964	11	C4H12N+
83.0856	2	C6H11+
90.034	2	C6H4N+
91.0417	1	C6H5N+
97.0076	4	C8H+
98.9996	18	C5H4Cl+
111.0234	1	C9H3+
126.0106	108	C6H5ClN+
129.0102	2	C6H6ClO+
139.0058	4	C6H4ClN2+
154.0055	4	C7H5ClNO+
