Mass spectrum: 4-[(3-oxobutanoyl)amino]benzenesulfonate; LC-ESI-QFT; MS2; CE: 90; R=17500; [M-H]-
Name: 4-[(3-oxobutanoyl)amino]benzenesulfonate
Name: 4-(3-Oxobutanamido)benzenesulfonic acid
Name: 4-(3-oxobutanoylamino)benzenesulfonic acid
Formula: C10H11NO5S
Exact mass: 257.0358
SMILES: CC(=O)CC(=O)NC1=CC=C(C=C1)S(O)(=O)=O
InChI: InChI=1S/C10H11NO5S/c1-7(12)6-10(13)11-8-2-4-9(5-3-8)17(14,15)16/h2-5H,6H2,1H3,(H,11,13)(H,14,15,16)
Instrument: Q Exactive Orbitrap (Thermo Scientific)
Instrument type: LC-ESI-QFT
Ms type: MS2
Ion mode: NEGATIVE
Ionization: ESI
Fragmentation mode: HCD
Collision energy: 90
Resolution: 17500
Column name: Acquity BEH C18 1.7um, 2.1x150mm (Waters)
Retention time: 3.763 min
Base peak: 198.9363
Precursor m/z: 256.0285
Precursor type: [M-H]-
Precursor intensity: 1713615.262939
m/z	relative intensity	assigned
57.0345	20	C3H5O-
78.035	299	C5H4N-
79.9574	999	O3S-
80.9651	25	HO3S-
106.0299	145	C6H4NO-
107.0378	71	C6H5NO-
108.0456	28	C6H6NO-
118.0299	12	C7H4NO-
134.0249	200	C7H4NO2-
170.9997	46	C6H5NO3S-
172.0076	58	C6H6NO3S-
197.9867	86	C7H4NO4S-
