Mass spectrum: Famotidine; LC-ESI-QFT; MS2; CE: 45; R=17500; [M-H]-
Name: Famotidine
Name: 3-[[2-(diaminomethylideneamino)-1,3-thiazol-4-yl]methylsulfanyl]-N'-sulfamoylpropanimidamide
Formula: C8H15N7O2S3
Exact mass: 337.0449
SMILES: NC(N)=NC1=NC(CSCCC(N)=NS(N)(=O)=O)=CS1
InChI: InChI=1S/C8H15N7O2S3/c9-6(15-20(12,16)17)1-2-18-3-5-4-19-8(13-5)14-7(10)11/h4H,1-3H2,(H2,9,15)(H2,12,16,17)(H4,10,11,13,14)
Instrument: Q Exactive Orbitrap (Thermo Scientific)
Instrument type: LC-ESI-QFT
Ms type: MS2
Ion mode: NEGATIVE
Ionization: ESI
Fragmentation mode: HCD
Collision energy: 45
Resolution: 17500
Column name: Acquity BEH C18 1.7um, 2.1x150mm (Waters)
Retention time: 8.019 min
Base peak: 185.0455
Precursor m/z: 336.0377
Precursor type: [M-H]-
Precursor intensity: 1431065.649414
m/z	relative intensity	assigned
57.9756	134	CNS-
66.0097	5	C2N3-
77.9655	275	NO2S-
78.9732	8	HNO2S-
83.0361	51	C2H3N4-
86.0069	16	C3H4NS-
94.992	999	H3N2O2S-
103.0334	48	C3H7N2S-
111.0021	208	C4H3N2S-
113.0178	8	C4H5N2S-
138.013	16	C5H4N3S-
144.9898	15	C4H5N2S2-
148.0184	59	C3H6N3O2S-
169.9849	24	C5H4N3S2-
187.0117	48	C5H7N4S2-
