Mass spectrum: SB413217A; LC-ESI-QFT; MS2; CE: 75; R=17500; [M+H]+
Name: SB413217A
Name: (E)-3-(4-fluorophenyl)-N-[4-[2-[7-(5-methyl-1,2,4-oxadiazol-3-yl)-1,2,4,5-tetrahydro-3-benzazepin-3-yl]ethyl]cyclohexyl]prop-2-enamide
Formula: C30H35FN4O2
Exact mass: 502.2744
SMILES: Cc1nc(-c2ccc3c(c2)CCN(CCC2CCC(NC(=O)/C=C/c4ccc(F)cc4)CC2)CC3)no1
InChI: InChI=1S/C30H35FN4O2/c1-21-32-30(34-37-21)26-8-7-24-15-18-35(19-16-25(24)20-26)17-14-23-4-11-28(12-5-23)33-29(36)13-6-22-2-9-27(31)10-3-22/h2-3,6-10,13,20,23,28H,4-5,11-12,14-19H2,1H3,(H,33,36)/b13-6+
Instrument: Q Exactive Orbitrap (Thermo Scientific)
Instrument type: LC-ESI-QFT
Ms type: MS2
Ion mode: POSITIVE
Ionization: ESI
Fragmentation mode: HCD
Collision energy: 75
Resolution: 17500
Column name: Acquity BEH C18 1.7um, 2.1x150mm (Waters)
Retention time: 15.241 min
Base peak: 79.0211
Precursor m/z: 503.2817
Precursor type: [M+H]+
Precursor intensity: 8454790
m/z	relative intensity	assigned
51.023	1	C4H3+
53.0023	6	C3HO+
53.0387	7	C4H5+
55.0179	1	C3H3O+
55.0543	15	C4H7+
56.0495	5	C3H6N+
58.0652	7	C3H8N+
65.0386	23	C5H5+
66.0463	1	C5H6+
67.0542	338	C5H7+
69.0698	3	FH8N3+
75.0229	26	C6H3+
77.0385	17	C6H5+
79.0542	49	C6H7+
81.0699	107	C6H9+
91.0542	74	C7H7+
94.0776	1	C7H10+
95.029	1	C6H4F+
95.0492	10	C6H7O+
95.0855	3	C7H11+
97.0447	1	C6H6F+
98.0965	5	C6H12N+
101.0385	21	C8H5+
103.0543	25	C8H7+
105.0335	2	C7H5O+
105.0447	3	C6H5N2+
105.0699	5	C8H9+
107.0855	5	C8H11+
109.1012	16	C8H13+
113.0398	1	C6H6FO+
115.0542	36	C9H7+
116.0621	2	C9H8+
117.0573	4	C8H7N+
117.07	10	C9H9+
118.0413	1	C8H6O+
118.0779	1	C9H10+
119.0492	60	C8H7O+
120.0371	1	C8H5F+
121.0448	999	C8H6F+
123.0353	2	C6H4FN2+
123.0604	16	C8H8F+
124.0558	5	C7H7FN+
124.1122	2	C8H14N+
127.0542	2	C10H7+
128.0496	6	C9H6N+
128.0621	20	C10H8+
129.0447	201	C8H5N2+
129.0696	17	C5H8FN3+
130.0419	1	C9H6O+
130.0652	18	C9H8N+
131.0603	3	C8H7N2+
131.0732	5	C9H9N+
132.0682	2	C8H8N2+
132.0808	11	C9H10N+
135.0805	2	C9H11O+
138.1277	3	C9H16N+
142.0652	64	C10H8N+
142.0777	3	C11H10+
143.0603	2	C9H7N2+
143.0727	4	C5H8FN4+
144.0685	6	C9H8N2+
144.0808	48	C10H10N+
145.065	12	C10H9O+
145.0759	12	C9H9N2+
145.0885	2	C10H11N+
146.0601	4	C9H8NO+
146.0836	1	C9H10N2+
146.0959	1	C5H11FN4+
147.0805	7	C10H11O+
148.0556	4	C9H7FN+
149.0398	488	C9H6FO+
154.0651	62	C11H8N+
155.0604	14	C10H7N2+
155.0726	1	C6H8FN4+
156.0683	12	C10H8N2+
156.0805	5	C6H9FN4+
157.076	27	C10H9N2+
158.0839	3	C10H10N2+
158.0964	5	C11H12N+
159.0917	84	C10H11N2+
159.1031	11	C6H12FN4+
160.0757	39	C10H10NO+
166.0664	10	C9H9FNO+
168.0682	3	C11H8N2+
169.0759	7	C11H9N2+
170.0711	4	C10H8N3+
170.0839	2	C11H10N2+
171.0917	92	C11H11N2+
172.0756	38	C11H10NO+
173.1071	3	C11H13N2+
174.0911	2	C6H11FN4O+
183.0915	5	C12H11N2+
184.0869	1	C11H10N3+
185.0947	8	C11H11N3+
185.1072	12	C12H13N2+
186.0786	1	C11H10N2O+
186.1025	2	C11H12N3+
187.0863	1	C11H11N2O+
188.118	5	C11H14N3+
189.1021	1	C11H13N2O+
198.1028	4	C12H12N3+
200.1182	41	C12H14N3+
201.1023	21	C12H13N2O+
212.082	2	C12H10N3O+
213.1021	3	C13H13N2O+
214.1337	2	C13H16N3+
227.1052	3	C13H13N3O+
230.1283	3	C13H16N3O+
242.1288	31	C14H16N3O+
