Mass spectrum: PD-0333941; LC-ESI-QFT; MS2; CE: 60; R=17500; [M+H]+
Name: PD-0333941
Name: 3-[4-[2-(5-methyl-2-phenyl-1,3-oxazol-4-yl)ethoxy]indol-1-yl]propanoic acid
Formula: C23H22N2O4
Exact mass: 390.1580
SMILES: CC1=C(CCOC2=CC=CC3=C2C=CN3CCC(O)=O)N=C(O1)C1=CC=CC=C1
InChI: InChI=1S/C23H22N2O4/c1-16-19(24-23(29-16)17-6-3-2-4-7-17)12-15-28-21-9-5-8-20-18(21)10-13-25(20)14-11-22(26)27/h2-10,13H,11-12,14-15H2,1H3,(H,26,27)
Instrument: Q Exactive Orbitrap (Thermo Scientific)
Instrument type: LC-ESI-QFT
Ms type: MS2
Ion mode: POSITIVE
Ionization: ESI
Fragmentation mode: HCD
Collision energy: 60
Resolution: 17500
Column name: Acquity BEH C18 1.7um, 2.1x150mm (Waters)
Retention time: 18.720 min
Base peak: 79.0211
Precursor m/z: 391.1652
Precursor type: [M+H]+
Precursor intensity: 25106290.28125
m/z	relative intensity	assigned
51.023	2	C4H3+
53.0386	12	C4H5+
55.0179	4	C3H3O+
55.0543	36	C4H7+
65.0387	2	C5H5+
69.0335	14	C4H5O+
73.0284	3	C3H5O2+
74.0965	1	C4H12N+
77.0383	5	C6H5+
81.0336	1	C5H5O+
83.0491	204	C5H7O+
84.057	3	C5H8O+
91.0542	9	C7H7+
92.0576	1	C2H8N2O2+
95.0492	29	C6H7O+
103.0543	4	C8H7+
104.0495	999	C7H6N+
105.0335	350	C7H5O+
106.0651	2	C7H8N+
115.0542	8	C9H7+
116.062	1	C9H8+
117.0574	3	C8H7N+
117.0699	37	C9H9+
118.065	11	C8H8N+
119.0366	4	C7H5NO+
120.0399	2	C4H8O4+
120.0444	7	C7H6NO+
120.0808	2	C8H10N+
121.0477	4	C4H9O4+
121.0649	2	C8H9O+
122.0601	4	C7H8NO+
123.0678	2	C7H9NO+
128.0495	1	C9H6N+
128.0621	20	C10H8+
129.0699	3	C10H9+
130.0652	45	C9H8N+
131.0853	3	C10H11+
132.0444	7	C8H6NO+
133.0524	21	C8H7NO+
134.0555	10	C5H10O4+
134.0602	3	C8H8NO+
135.0632	1	C5H11O4+
136.0758	8	C8H10NO+
141.0699	3	C11H9+
143.073	48	C10H9N+
144.0808	286	C10H10N+
145.065	6	C10H9O+
146.0601	123	C9H8NO+
148.0392	1	C8H6NO2+
148.0758	5	C9H10NO+
149.0472	12	C8H7NO2+
154.0649	2	C11H8N+
155.0603	7	C10H7N2+
158.0601	24	C10H8NO+
158.0964	18	C11H12N+
159.0679	3	C10H9NO+
160.0753	2	C10H10NO+
162.0549	4	C9H8NO2+
162.0918	5	C10H12NO+
163.0633	8	C9H9NO2+
167.0729	4	C12H9N+
168.0807	8	C12H10N+
170.0602	5	C11H8NO+
171.0676	1	C11H9NO+
172.0757	74	C11H10NO+
173.0833	2	C11H11NO+
176.0707	9	C10H10NO2+
182.06	1	C12H8NO+
182.0963	3	C13H12N+
184.0756	3	C12H10NO+
185.0835	10	C12H11NO+
186.0914	341	C12H12NO+
187.0993	5	C12H13NO+
188.0708	2	C11H10NO2+
190.0864	15	C11H12NO2+
195.0674	1	C13H9NO+
196.0761	3	C13H10NO+
197.0833	5	C13H11NO+
200.0708	5	C12H10NO2+
205.0736	9	C11H11NO3+
206.0812	1	C11H12NO3+
210.0916	11	C14H12NO+
214.0867	1	C13H12NO2+
218.0812	54	C12H12NO3+
228.102	4	C14H14NO2+
255.0889	4	C15H13NO3+
270.1126	4	C16H16NO3+
