Mass spectrum: Indole-3-acetic acid; LC-ESI-QFT; MS2; CE: 90; R=17500; [M-H]-
Name: Indole-3-acetic acid
Name: 2-(1H-indol-3-yl)acetic acid
Formula: C10H9NO2
Exact mass: 175.0633
SMILES: OC(=O)CC1=CNC2=C1C=CC=C2
InChI: InChI=1S/C10H9NO2/c12-10(13)5-7-6-11-9-4-2-1-3-8(7)9/h1-4,6,11H,5H2,(H,12,13)
Instrument: Q Exactive Orbitrap (Thermo Scientific)
Instrument type: LC-ESI-QFT
Ms type: MS2
Ion mode: NEGATIVE
Ionization: ESI
Fragmentation mode: HCD
Collision energy: 90
Resolution: 17500
Column name: Acquity BEH C18 1.7um, 2.1x150mm (Waters)
Retention time: 14.046 min
Base peak: 175.04
Precursor m/z: 174.0561
Precursor type: [M-H]-
Precursor intensity: 39985529.87598
m/z	relative intensity	assigned
65.0033	263	C4HO-
65.0396	26	C5H5-
67.019	9	C4H3O-
77.0397	40	C6H5-
89.0397	406	C7H5-
91.019	76	C6H3O-
91.0554	40	C7H7-
93.0346	117	C6H5O-
95.0503	280	C6H7O-
102.0475	21	C8H6-
103.0553	36	C8H7-
105.0346	113	C7H5O-
107.0503	18	C7H7O-
109.0295	18	C6H5O2-
119.0502	999	C8H7O-
121.0296	8	C7H5O2-
123.0452	299	C7H7O2-
130.0424	80	C9H6O-
131.0503	179	C9H7O-
132.0217	65	C8H4O2-
133.0296	560	C8H5O2-
145.0295	10	C9H5O2-
146.0373	6	C9H6O2-
147.0452	278	C9H7O2-
