Mass spectrum: Acetazolamide; LC-ESI-QFT; MS2; CE: 45; R=17500; [M+H]+
Name: Acetazolamide
Name: N-(5-sulfamoyl-1,3,4-thiadiazol-2-yl)acetamide
Formula: C4H6N4O3S2
Exact mass: 221.9881
SMILES: CC(=O)NC1=NN=C(S1)S(N)(=O)=O
InChI: InChI=1S/C4H6N4O3S2/c1-2(9)6-3-7-8-4(12-3)13(5,10)11/h1H3,(H2,5,10,11)(H,6,7,9)
Instrument: Q Exactive Orbitrap (Thermo Scientific)
Instrument type: LC-ESI-QFT
Ms type: MS2
Ion mode: POSITIVE
Ionization: ESI
Fragmentation mode: HCD
Collision energy: 45
Resolution: 17500
Column name: Acquity BEH C18 1.7um, 2.1x150mm (Waters)
Retention time: 8.531 min
Base peak: 79.0211
Precursor m/z: 222.9954
Precursor type: [M+H]+
Precursor intensity: 1077510.625
m/z	relative intensity	assigned
58.9825	4	CHNS+
59.9903	7	CH2NS+
61.0106	14	C2H5S+
71.9902	8	C2H2NS+
72.9855	52	CHN2S+
79.98	2	H2NO2S+
99.9964	24	C2H2N3S+
116.9659	4	H5O3S2+
118.9631	4	C3H3OS2+
130.9819	6	CH7O3S2+
132.9786	5	C4H5OS2+
142.0071	4	C4H4N3OS+
162.9635	14	C3H3N2O2S2+
180.9849	999	C2H5N4O2S2+
181.9689	770	C2H4N3O3S2+
222.9954	27	C4H7N4O3S2+
