Mass spectrum: Norethindrone; LC-ESI-QFT; MS2; CE: 15; R=17500; [M+H]+
Name: Norethindrone
Name: (8R,9S,10R,13S,14S,17R)-17-ethynyl-17-hydroxy-13-methyl-1,2,6,7,8,9,10,11,12,14,15,16-dodecahydrocyclopenta[a]phenanthren-3-one
Formula: C20H26O2
Exact mass: 298.1933
SMILES: C[C@]12CC[C@H]3[C@@H](CCC4=CC(=O)CC[C@H]34)[C@@H]1CC[C@@]2(O)C#C
InChI: InChI=1S/C20H26O2/c1-3-20(22)11-9-18-17-6-4-13-12-14(21)5-7-15(13)16(17)8-10-19(18,20)2/h1,12,15-18,22H,4-11H2,2H3/t15-,16+,17+,18-,19-,20-/m0/s1
Instrument: Q Exactive Orbitrap (Thermo Scientific)
Instrument type: LC-ESI-QFT
Ms type: MS2
Ion mode: POSITIVE
Ionization: ESI
Fragmentation mode: HCD
Collision energy: 15
Resolution: 17500
Column name: Acquity BEH C18 1.7um, 2.1x150mm (Waters)
Retention time: 17.309 min
Base peak: 79.0211
Precursor m/z: 299.2006
Precursor type: [M+H]+
Precursor intensity: 3679800.84375
m/z	relative intensity	assigned
81.0699	1	C6H9+
83.049	3	C5H7O+
93.0698	1	C7H9+
95.0856	1	C7H11+
105.0698	1	C8H9+
107.0491	1	C7H7O+
107.0855	1	C8H11+
109.0648	8	C7H9O+
111.0805	1	C7H11O+
119.0854	4	C9H11+
131.0854	1	C10H11+
133.1012	2	C10H13+
135.0802	3	C9H11O+
135.117	1	C10H15+
137.0958	1	C9H13O+
143.0856	1	C11H11+
145.1012	4	C11H13+
147.117	1	C11H15+
149.0963	2	C10H13O+
157.1012	2	C12H13+
159.1169	2	C12H15+
161.096	1	C11H13O+
161.1324	1	C12H17+
163.1116	1	C11H15O+
169.1013	2	C13H13+
171.1166	4	C13H15+
173.1325	3	C13H17+
175.112	1	C12H15O+
183.1169	2	C14H15+
185.0962	2	C13H13O+
185.1324	3	C14H17+
187.1115	2	C13H15O+
189.1276	2	C13H17O+
195.1168	1	C15H15+
197.1325	2	C15H17+
199.1481	2	C15H19+
207.1168	2	C16H15+
211.1118	1	C15H15O+
211.148	1	C16H19+
213.1271	1	C15H17O+
213.1638	2	C16H21+
215.1432	1	C15H19O+
221.1322	2	C17H17+
223.1483	6	C17H19+
225.1274	1	C16H17O+
231.1743	12	C16H23O+
235.1485	2	C18H19+
237.1637	1	C18H21+
239.1795	4	C18H23+
241.1588	2	C17H21O+
253.1585	1	C18H21O+
253.1949	1	C19H25+
257.1906	2	C18H25O+
263.1795	7	C20H23+
281.1899	20	C20H25O+
299.2006	999	C20H27O2+
