Mass spectrum: PharmaGSID_47259; LC-ESI-QFT; MS2; CE: 90; R=17500; [M+H]+
Name: PharmaGSID_47259
Name: 1,3-Dichloro-6,7,8,9,10,12-hexahydroazepino(2,1-b)quinazoline
Name: 1,3-dichloro-6,7,8,9,10,12-hexahydroazepino[2,1-b]quinazoline
Formula: C13H14Cl2N2
Exact mass: 268.0534
SMILES: ClC1=CC2=C(CN3CCCCCC3=N2)C(Cl)=C1
InChI: InChI=1S/C13H14Cl2N2/c14-9-6-11(15)10-8-17-5-3-1-2-4-13(17)16-12(10)7-9/h6-7H,1-5,8H2
Instrument: Q Exactive Orbitrap (Thermo Scientific)
Instrument type: LC-ESI-QFT
Ms type: MS2
Ion mode: POSITIVE
Ionization: ESI
Fragmentation mode: HCD
Collision energy: 90
Resolution: 17500
Column name: Acquity BEH C18 1.7um, 2.1x150mm (Waters)
Retention time: 13.543 min
Base peak: 79.0211
Precursor m/z: 269.0607
Precursor type: [M+H]+
Precursor intensity: 21304298.25
m/z	relative intensity	assigned
53.0022	32	ClH4N+
53.0386	34	C4H5+
54.0338	115	C3H4N+
55.0542	414	C4H7+
56.0495	10	C3H6N+
65.0385	3	C5H5+
67.0542	24	C5H7+
68.0494	55	C4H6N+
69.0698	672	C5H9+
77.0384	7	C6H5+
79.0542	248	C6H7+
80.0494	41	C5H6N+
81.0573	135	C5H7N+
84.0808	2	C5H10N+
94.0651	34	C6H8N+
95.0492	45	C3H10ClN+
96.0808	446	C6H10N+
104.0494	7	C7H6N+
105.0447	17	C6H5N2+
120.0808	10	C8H10N+
129.0102	14	C3H9Cl2N+
130.0399	9	C6H9ClN+
138.0105	23	C7H5ClN+
139.0057	19	C6H4ClN2+
139.0183	15	C7H6ClN+
145.9684	13	C6H4Cl2+
146.9763	38	C6H5Cl2+
151.0183	41	C8H6ClN+
154.065	1	C11H8N+
158.9763	7	C7H5Cl2+
162.0104	10	C9H5ClN+
163.0179	3	C9H6ClN+
164.026	7	C9H7ClN+
165.0215	20	C8H6ClN2+
165.0337	12	C9H8ClN+
167.073	3	C12H9N+
170.9762	8	C8H5Cl2+
171.9715	76	C7H4Cl2N+
172.9794	28	C7H5Cl2N+
173.9872	999	C7H6Cl2N+
175.0183	4	C10H6ClN+
177.0338	5	C10H8ClN+
178.0292	18	C9H7ClN2+
178.0415	4	C10H9ClN+
179.037	62	C9H8ClN2+
180.0211	4	C6H10Cl2N2+
181.0881	3	C13H11N+
183.9717	10	C8H4Cl2N+
184.9795	8	C8H5Cl2N+
185.9873	19	C8H6Cl2N+
186.9948	7	C8H7Cl2N+
188.0263	7	C11H7ClN+
192.0449	6	C10H9ClN2+
192.0567	2	C11H11ClN+
193.0652	2	C11H12ClN+
197.9872	48	C9H6Cl2N+
198.9827	12	C8H5Cl2N2+
199.9902	11	C8H6Cl2N2+
200.0025	7	C9H8Cl2N+
200.9984	3	C8H7Cl2N2+
202.0417	5	C12H9ClN+
203.0371	3	C11H8ClN2+
204.0574	1	C12H11ClN+
205.053	3	C11H10ClN2+
205.0649	1	C12H12ClN+
209.9878	6	C10H6Cl2N+
210.9952	6	C10H7Cl2N+
211.9902	32	C9H6Cl2N2+
212.0026	7	C10H8Cl2N+
212.998	510	C9H7Cl2N2+
214.0058	197	C9H8Cl2N2+
215.0136	19	C9H9Cl2N2+
216.0574	4	C13H11ClN+
224.0029	1	C11H8Cl2N+
224.9981	20	C10H7Cl2N2+
227.0137	332	C10H9Cl2N2+
228.0219	1	C10H10Cl2N2+
228.0341	2	C11H12Cl2N+
233.0834	1	C13H14ClN2+
236.0028	6	C12H8Cl2N+
239.0137	65	C11H9Cl2N2+
240.0215	5	C11H10Cl2N2+
241.0292	3	C11H11Cl2N2+
252.0344	3	C13H12Cl2N+
253.0293	31	C12H11Cl2N2+
254.0365	2	C12H12Cl2N2+
269.0606	73	C13H15Cl2N2+
