Mass spectrum: Thiamethoxam; LC-ESI-QFT; MS2; CE: 30; R=17500; [M+H]+
Name: Thiamethoxam
Name: N-[3-[(2-chloro-1,3-thiazol-5-yl)methyl]-5-methyl-1,3,5-oxadiazinan-4-ylidene]nitramide
Formula: C8H10ClN5O3S
Exact mass: 291.0193
SMILES: CN1COCN(CC2=CN=C(Cl)S2)C1=N[N+]([O-])=O
InChI: InChI=1S/C8H10ClN5O3S/c1-12-4-17-5-13(8(12)11-14(15)16)3-6-2-10-7(9)18-6/h2H,3-5H2,1H3
Instrument: Q Exactive Orbitrap (Thermo Scientific)
Instrument type: LC-ESI-QFT
Ms type: MS2
Ion mode: POSITIVE
Ionization: ESI
Fragmentation mode: HCD
Collision energy: 30
Resolution: 17500
Column name: Acquity BEH C18 1.7um, 2.1x150mm (Waters)
Retention time: 11.173 min
Base peak: 79.0212
Precursor m/z: 292.0266
Precursor type: [M+H]+
Precursor intensity: 2783714.25
m/z	relative intensity	assigned
69.0447	14	C3H5N2+
122.0713	28	C6H8N3+
131.9671	900	C4H3ClNS+
138.0123	12	C5H4N3S+
151.0203	10	C6H5N3S+
160.9937	14	C5H6ClN2S+
174.9728	51	C5H4ClN2OS+
179.0392	7	C7H7N4S+
180.0466	115	C7H8N4S+
181.0544	320	C7H9N4S+
199.0651	28	C7H11N4OS+
210.057	123	C8H10N4OS+
211.0651	999	C8H11N4OS+
