Mass spectrum: Diflufenzopyr; LC-ESI-QFT; MS2; CE: 30; R=17500; [M+H]+
Name: Diflufenzopyr
Name: 2-[(E)-N-[(3,5-difluorophenyl)carbamoylamino]-C-methylcarbonimidoyl]pyridine-3-carboxylic acid
Formula: C15H12F2N4O3
Exact mass: 334.0877
SMILES: C\C(=N/NC(=O)NC1=CC(F)=CC(F)=C1)C1=NC=CC=C1C(O)=O
InChI: InChI=1S/C15H12F2N4O3/c1-8(13-12(14(22)23)3-2-4-18-13)20-21-15(24)19-11-6-9(16)5-10(17)7-11/h2-7H,1H3,(H,22,23)(H2,19,21,24)/b20-8+
Instrument: Q Exactive Orbitrap (Thermo Scientific)
Instrument type: LC-ESI-QFT
Ms type: MS2
Ion mode: POSITIVE
Ionization: ESI
Fragmentation mode: HCD
Collision energy: 30
Resolution: 17500
Column name: Acquity BEH C18 1.7um, 2.1x150mm (Waters)
Retention time: 16.398 min
Base peak: 79.0211
Precursor m/z: 335.095
Precursor type: [M+H]+
Precursor intensity: 1845007.875
m/z	relative intensity	assigned
96.0443	16	C5H6NO+
121.0398	8	C6H5N2O+
124.0393	14	C6H6NO2+
130.0464	10	C6H6F2N+
148.0393	74	C8H6NO2+
150.0553	34	C8H8NO2+
151.0629	43	C8H9NO2+
161.0709	9	C9H9N2O+
162.0662	999	C8H8N3O+
163.0502	451	C8H7N2O2+
180.077	66	C8H10N3O2+
188.0455	38	C9H6N3O2+
206.0561	800	C9H8N3O3+
221.1075	68	C15H13N2+
