Mass spectrum: Atorvastatin; LC-ESI-QFT; MS2; CE: 30; R=17500; [M+H]+
Name: Atorvastatin
Name: (3R,5R)-7-[2-(4-fluorophenyl)-3-phenyl-4-(phenylcarbamoyl)-5-propan-2-ylpyrrol-1-yl]-3,5-dihydroxyheptanoic acid
Formula: C33H35FN2O5
Exact mass: 558.2530
SMILES: CC(C)c1c(C(=O)Nc2ccccc2)c(-c2ccccc2)c(-c2ccc(F)cc2)n1CC[C@@H](O)C[C@@H](O)CC(O)=O
InChI: InChI=1S/C33H35FN2O5/c1-21(2)31-30(33(41)35-25-11-7-4-8-12-25)29(22-9-5-3-6-10-22)32(23-13-15-24(34)16-14-23)36(31)18-17-26(37)19-27(38)20-28(39)40/h3-16,21,26-27,37-38H,17-20H2,1-2H3,(H,35,41)(H,39,40)/t26-,27-/m1/s1
Instrument: Q Exactive Orbitrap (Thermo Scientific)
Instrument type: LC-ESI-QFT
Ms type: MS2
Ion mode: POSITIVE
Ionization: ESI
Fragmentation mode: HCD
Collision energy: 30
Resolution: 17500
Column name: Acquity BEH C18 1.7um, 2.1x150mm (Waters)
Retention time: 17.830 min
Base peak: 79.0211
Precursor m/z: 559.2603
Precursor type: [M+H]+
Precursor intensity: 7811464.5
m/z	relative intensity	assigned
79.0541	5	C6H7+
83.0491	4	C5H7O+
89.0231	3	C3H5O3+
92.0493	1	C6H6N+
99.0805	2	C6H11O+
101.0598	3	C5H9O2+
107.0491	2	C7H7O+
120.0444	14	C7H6NO+
125.0596	3	C7H9O2+
237.0949	1	C16H12FN+
238.1027	14	C16H13FN+
248.0878	1	C17H11FN+
249.0947	6	C17H12FN+
250.1026	241	C17H13FN+
251.1109	2	C17H14FN+
252.1181	11	C17H15FN+
262.1027	7	C18H13FN+
264.0816	1	C17H11FNO+
264.1177	1	C18H15FN+
276.0827	9	C18H11FNO+
276.1183	103	C19H15FN+
277.1256	4	C19H16FN+
278.1339	1	C19H17FN+
279.1415	13	C19H18FN+
280.1496	29	C19H19FN+
290.1336	4	C20H17FN+
292.1496	454	C20H19FN+
294.0929	6	C18H13FNO2+
294.1652	70	C20H21FN+
300.1186	1	C21H15FN+
302.098	5	C20H13FNO+
302.1341	11	C21H17FN+
304.1498	3	C21H19FN+
306.1288	8	C20H17FNO+
316.1501	3	C22H19FN+
318.1313	10	C21H17FNO+
318.1651	49	C22H21FN+
320.1097	1	C20H15FNO2+
320.1444	20	C21H19FNO+
334.1958	3	C23H25FN+
336.1404	7	C21H19FNO2+
336.1758	15	C22H23FNO+
344.1446	12	C23H19FNO+
344.1813	4	C24H23FN+
346.1235	1	C22H17FNO2+
358.1968	1	C25H25FN+
360.1402	7	C23H19FNO2+
362.1551	104	C23H21FNO2+
369.1406	5	C24H18FN2O+
376.1702	1	C24H23FNO2+
380.1659	257	C23H23FNO3+
388.1348	7	C24H19FNO3+
402.1862	14	C26H25FNO2+
404.2021	61	C26H27FNO2+
406.145	9	C24H21FNO4+
406.181	3	C25H25FNO3+
413.2026	3	C27H26FN2O+
422.2128	224	C26H29FNO3+
430.1816	15	C27H25FNO3+
440.2234	999	C26H31FNO4+
448.1916	11	C27H27FNO4+
466.2028	129	C27H29FNO5+
