Mass spectrum: AVE2865; LC-ESI-QFT; MS2; CE: 45; R=17500; [M-H]-
Name: AVE2865
Name: 1-{2-[3-(2-Chloro-4,5-Difluoro-Benzoyl)-Ureido]-4-Fluoro-Phenyl}-Piperidine-4-Carboxylic Acid
Name: 1-[2-[(2-chloro-4,5-difluorobenzoyl)carbamoylamino]-4-fluorophenyl]piperidine-4-carboxylic acid
Formula: C20H17ClF3N3O4
Exact mass: 455.0860
SMILES: OC(=O)C1CCN(CC1)C1=C(NC(=O)NC(=O)C2=CC(F)=C(F)C=C2Cl)C=C(F)C=C1
InChI: InChI=1S/C20H17ClF3N3O4/c21-13-9-15(24)14(23)8-12(13)18(28)26-20(31)25-16-7-11(22)1-2-17(16)27-5-3-10(4-6-27)19(29)30/h1-2,7-10H,3-6H2,(H,29,30)(H2,25,26,28,31)
Instrument: Q Exactive Orbitrap (Thermo Scientific)
Instrument type: LC-ESI-QFT
Ms type: MS2
Ion mode: NEGATIVE
Ionization: ESI
Fragmentation mode: HCD
Collision energy: 45
Resolution: 17500
Column name: Acquity BEH C18 1.7um, 2.1x150mm (Waters)
Retention time: 18.369 min
Base peak: 292.098
Precursor m/z: 454.0787
Precursor type: [M-H]-
Precursor intensity: 6486822.277344
m/z	relative intensity	assigned
92.0505	2	C6H6N-
112.9856	5	C2F3O2-
113.9891	1	C2H4ClFO2-
125.0521	1	C6H6FN2-
135.0364	45	C7H4FN2-
150.0236	11	C7H3FN2O-
151.0313	253	C7H4FN2O-
161.0518	1	C9H6FN2-
163.0313	3	C8H4FN2O-
165.0466	2	C8H6FN2O-
176.039	1	C9H5FN2O-
177.0833	1	C10H10FN2-
189.0834	1	C11H10FN2-
191.0988	2	C11H12FN2-
199.0681	1	ClF3H15N2O4-
199.0877	3	C12H11N2O-
201.0834	6	C12H10FN2-
219.0939	999	C12H12FN2O-
