Mass spectrum: N-Dodecanoyl-N-methylglycine; LC-ESI-QFT; MS2; CE: 60; R=17500; [M+H]+
Name: N-Dodecanoyl-N-methylglycine
Name: N-Lauroylsarcosine
Name: 2-[dodecanoyl(methyl)amino]acetic acid
Formula: C15H29NO3
Exact mass: 271.2147
SMILES: CCCCCCCCCCCC(=O)N(C)CC(O)=O
InChI: InChI=1S/C15H29NO3/c1-3-4-5-6-7-8-9-10-11-12-14(17)16(2)13-15(18)19/h3-13H2,1-2H3,(H,18,19)
Instrument: Q Exactive Orbitrap (Thermo Scientific)
Instrument type: LC-ESI-QFT
Ms type: MS2
Ion mode: POSITIVE
Ionization: ESI
Fragmentation mode: HCD
Collision energy: 60
Resolution: 17500
Column name: Acquity BEH C18 1.7um, 2.1x150mm (Waters)
Retention time: 19.710 min
Base peak: 79.0211
Precursor m/z: 272.222
Precursor type: [M+H]+
Precursor intensity: 9737173
m/z	relative intensity	assigned
53.0022	25	C3HO+
53.0386	2	C4H5+
53.9974	4	C2NO+
55.0542	82	C4H7+
57.0699	684	C4H9+
58.0651	18	C3H8N+
65.0384	2	C5H5+
67.0542	132	C5H7+
69.0699	23	C5H9+
71.0855	191	C5H11+
72.0807	6	C4H10N+
74.0963	4	C4H12N+
79.0542	7	C6H7+
81.0699	97	C6H9+
83.0855	22	C6H11+
85.1012	45	C6H13+
90.055	999	C3H8NO2+
93.07	6	C7H9+
95.0856	163	C7H11+
97.1012	5	C7H13+
100.1124	3	C6H14N+
109.1012	40	C8H13+
117.0573	8	C8H7N+
123.1166	3	C9H15+
128.062	5	C10H8+
129.1148	2	C7H15NO+
130.0653	8	C9H8N+
131.0733	3	C9H9N+
141.0694	2	C11H9+
143.0854	4	C11H11+
144.0808	6	C10H10N+
157.0888	2	C11H11N+
158.0964	5	C11H12N+
167.0727	4	C12H9N+
171.0803	14	C12H11O+
172.037	14	C10H6NO2+
174.0529	15	C10H8NO2+
186.0527	41	C11H8NO2+
198.0528	35	C12H8NO2+
199.0608	5	C12H9NO2+
200.0319	9	C11H6NO3+
200.0683	14	C12H10NO2+
212.0682	8	C13H10NO2+
213.0762	5	C13H11NO2+
226.0472	6	C13H8NO3+
228.0995	6	C14H14NO2+
