Mass spectrum: Fenamiphos; LC-ESI-QFT; MS2; CE: 90; R=17500; [M+H]+
Name: Fenamiphos
Name: N-[ethoxy-(3-methyl-4-methylsulfanylphenoxy)phosphoryl]propan-2-amine
Formula: C13H22NO3PS
Exact mass: 303.1058
SMILES: CCOP(=O)(NC(C)C)OC1=CC=C(SC)C(C)=C1
InChI: InChI=1S/C13H22NO3PS/c1-6-16-18(15,14-10(2)3)17-12-7-8-13(19-5)11(4)9-12/h7-10H,6H2,1-5H3,(H,14,15)
Instrument: Q Exactive Orbitrap (Thermo Scientific)
Instrument type: LC-ESI-QFT
Ms type: MS2
Ion mode: POSITIVE
Ionization: ESI
Fragmentation mode: HCD
Collision energy: 90
Resolution: 17500
Column name: Acquity BEH C18 1.7um, 2.1x150mm (Waters)
Retention time: 18.218 min
Base peak: 79.0212
Precursor m/z: 304.1131
Precursor type: [M+H]+
Precursor intensity: 46250310.5
m/z	relative intensity	assigned
53.0023	4	C3HO+
53.0386	50	C4H5+
55.0179	3	C3H3O+
58.0651	1	C3H8N+
58.995	76	C2H3S+
59.9665	8	COS+
60.0808	7	C3H10N+
62.9453	40	PS+
65.0386	31	C5H5+
66.0464	29	C5H6+
67.0542	14	C5H7+
68.9793	3	C3HS+
70.995	11	C3H3S+
77.0384	15	C6H5+
78.0464	128	C6H6+
79.0542	173	C6H7+
80.0493	1	C5H6N+
80.0621	14	C6H8+
81.0334	4	C5H5O+
81.0699	12	C6H9+
89.0385	12	C7H5+
90.0464	11	C7H6+
91.0543	256	C7H7+
92.0621	8	C7H8+
93.0699	43	C7H9+
94.0413	9	C6H6O+
95.0492	118	C6H7O+
96.0027	1	C5H4S+
97.0107	238	C5H5S+
98.0002	54	H5NO3P+
102.0464	3	C8H6+
103.0543	64	C8H7+
104.062	60	C8H8+
105.0335	8	C7H5O+
105.0448	41	H11NO3S+
105.0699	10	C8H9+
106.0413	26	C7H6O+
106.065	5	C7H8N+
107.0492	230	C7H7O+
108.057	176	C7H8O+
109.0107	33	C6H5S+
109.0648	92	C7H9O+
110.0185	275	C6H6S+
111.0263	50	C6H7S+
112.0159	1	CH7NO3P+
115.0541	4	C9H7+
117.0698	7	C9H9+
119.0604	4	CH13NO3S+
121.0107	146	C7H5S+
122.0185	270	C7H6S+
123.0264	5	C7H7S+
125.0419	39	C7H9S+
125.0595	2	C7H9O2+
134.0184	10	C8H6S+
134.0965	1	C9H12N+
135.0263	30	C8H7S+
136.0342	5	C8H8S+
137.0056	41	C7H5OS+
137.0421	18	C8H9S+
138.0134	344	C7H6OS+
139.0212	59	C7H7OS+
140.029	22	C7H8OS+
141.01	15	C6H6O2P+
149.0419	5	C9H9S+
150.0493	1	C9H10S+
151.0212	9	C8H7OS+
153.0369	68	C8H9OS+
154.0447	8	C8H10OS+
154.9715	37	C6H4OPS+
155.0256	2	C7H8O2P+
155.0526	5	C8H11OS+
168.9873	132	C7H6OPS+
169.0049	231	C7H6O3P+
180.9871	3	C8H6OPS+
183.9744	7	C7H5O2PS+
184.9817	5	C7H6O2PS+
186.9974	1	C7H8O2PS+
187.0156	7	C10H6NOP+
187.0398	1	C7H10NO3P+
198.9979	8	C8H8O2PS+
200.9771	109	C7H6O3PS+
201.9848	999	C7H7O3PS+
202.9925	64	C7H8O3PS+
214.9925	26	C8H8O3PS+
217.0083	29	C8H10O3PS+
