Mass spectrum: Pentaethylene glycol; LC-ESI-QFT; MS2; CE: 75; R=17500; [M+H]+
Name: Pentaethylene glycol
Name: 2-[2-[2-[2-(2-hydroxyethoxy)ethoxy]ethoxy]ethoxy]ethanol
Formula: C10H22O6
Exact mass: 238.1416
SMILES: OCCOCCOCCOCCOCCO
InChI: InChI=1S/C10H22O6/c11-1-3-13-5-7-15-9-10-16-8-6-14-4-2-12/h11-12H,1-10H2
Instrument: Q Exactive Orbitrap (Thermo Scientific)
Instrument type: LC-ESI-QFT
Ms type: MS2
Ion mode: POSITIVE
Ionization: ESI
Fragmentation mode: HCD
Collision energy: 75
Resolution: 17500
Column name: Acquity BEH C18 1.7um, 2.1x150mm (Waters)
Retention time: 9.691 min
Base peak: 79.0211
Precursor m/z: 239.1489
Precursor type: [M+H]+
Precursor intensity: 6198665.0625
m/z	relative intensity	assigned
89.0598	999	C4H9O2+
107.0705	37	C4H11O3+
