Mass spectrum: PharmaGSID_48518; LC-ESI-QFT; MS2; CE: 90; R=17500; [M+H]+
Name: PharmaGSID_48518
Name: 2-bromo-4-fluoro-N-[(E)-2-thiophen-2-ylethenyl]sulfonylbenzamide
Formula: C13H9BrFNO3S2
Exact mass: 388.9191
SMILES: FC1=CC(Br)=C(C=C1)C(=O)NS(=O)(=O)\C=C\C1=CC=CS1
InChI: InChI=1S/C13H9BrFNO3S2/c14-12-8-9(15)3-4-11(12)13(17)16-21(18,19)7-5-10-2-1-6-20-10/h1-8H,(H,16,17)/b7-5+
Instrument: Q Exactive Orbitrap (Thermo Scientific)
Instrument type: LC-ESI-QFT
Ms type: MS2
Ion mode: POSITIVE
Ionization: ESI
Fragmentation mode: HCD
Collision energy: 90
Resolution: 17500
Column name: Acquity BEH C18 1.7um, 2.1x150mm (Waters)
Retention time: 16.424 min
Base peak: 79.0212
Precursor m/z: 389.9264
Precursor type: [M+H]+
Precursor intensity: 619646.3125
m/z	relative intensity	assigned
65.0386	999	C5H5+
68.9793	123	C3HS+
81.0335	4	C5H5O+
82.995	25	C4H3S+
84.0028	12	C4H4S+
94.0214	71	C6H3F+
97.0107	19	C5H5S+
102.9671	12	C3H3S2+
108.0029	45	C6H4S+
109.0108	754	C6H5S+
112.0318	25	C6H5FO+
126.967	31	C5H3S2+
148.9396	5	C4H3BrF+
190.9501	10	C6H5BrFO+
200.9347	22	C7H3BrFO+
200.9458	65	C3H8BrNO2S+
