Mass spectrum: Isoproturon; LC-ESI-QFT; MS2; CE: 30; R=17500; [M+H]+
Name: Isoproturon
Name: 1,1-dimethyl-3-(4-propan-2-ylphenyl)urea
Formula: C12H18N2O
Exact mass: 206.1419
SMILES: CC(C)C1=CC=C(NC(=O)N(C)C)C=C1
InChI: InChI=1S/C12H18N2O/c1-9(2)10-5-7-11(8-6-10)13-12(15)14(3)4/h5-9H,1-4H3,(H,13,15)
Instrument: Q Exactive Orbitrap (Thermo Scientific)
Instrument type: LC-ESI-QFT
Ms type: MS2
Ion mode: POSITIVE
Ionization: ESI
Fragmentation mode: HCD
Collision energy: 30
Resolution: 17500
Column name: Acquity BEH C18 1.7um, 2.1x150mm (Waters)
Retention time: 16.558 min
Base peak: 79.0211
Precursor m/z: 207.1492
Precursor type: [M+H]+
Precursor intensity: 28454060.75
m/z	relative intensity	assigned
72.0443	999	C3H6NO+
120.0443	3	C7H6NO+
134.0963	6	C9H12N+
162.0912	14	C10H12NO+
165.1022	245	C9H13N2O+
207.1491	839	C12H19N2O+
