Mass spectrum: Methoxyfenozide; LC-ESI-QFT; MS2; CE: 45; R=17500; [M-H]-
Name: Methoxyfenozide
Name: N'-tert-butyl-N'-(3,5-dimethylbenzoyl)-3-methoxy-2-methylbenzohydrazide
Formula: C22H28N2O3
Exact mass: 368.2100
SMILES: COC1=CC=CC(C(=O)NN(C(=O)C2=CC(C)=CC(C)=C2)C(C)(C)C)=C1C
InChI: InChI=1S/C22H28N2O3/c1-14-11-15(2)13-17(12-14)21(26)24(22(4,5)6)23-20(25)18-9-8-10-19(27-7)16(18)3/h8-13H,1-7H3,(H,23,25)
Instrument: Q Exactive Orbitrap (Thermo Scientific)
Instrument type: LC-ESI-QFT
Ms type: MS2
Ion mode: NEGATIVE
Ionization: ESI
Fragmentation mode: HCD
Collision energy: 45
Resolution: 17500
Column name: Acquity BEH C18 1.7um, 2.1x150mm (Waters)
Retention time: 17.518 min
Base peak: 307.0977
Precursor m/z: 367.2027
Precursor type: [M-H]-
Precursor intensity: 54740583.62891
m/z	relative intensity	assigned
93.0346	3	C6H5O-
105.0709	216	C8H9-
107.0502	1	C7H7O-
108.0218	1	C6H4O2-
121.0294	1	C7H5O2-
121.0659	7	C8H9O-
122.0373	10	C7H6O2-
146.0248	17	C8H4NO2-
148.0405	1	C8H6NO2-
148.0769	7	C9H10NO-
149.0607	999	C9H9O2-
163.0511	1	C8H7N2O2-
165.0557	9	C9H9O3-
189.0666	2	C10H9N2O2-
204.1393	26	C13H18NO-
309.1247	2	C18H17N2O3-
311.1405	3	C18H19N2O3-
