Mass spectrum: Leucomalachite green; LC-ESI-QFT; MS2; CE: 90; R=17500; [M+H]+
Name: Leucomalachite green
Name: 4-[[4-(dimethylamino)phenyl]-phenylmethyl]-N,N-dimethylaniline
Formula: C23H26N2
Exact mass: 330.2096
SMILES: CN(C)C1=CC=C(C=C1)C(C1=CC=CC=C1)C1=CC=C(C=C1)N(C)C
InChI: InChI=1S/C23H26N2/c1-24(2)21-14-10-19(11-15-21)23(18-8-6-5-7-9-18)20-12-16-22(17-13-20)25(3)4/h5-17,23H,1-4H3
Instrument: Q Exactive Orbitrap (Thermo Scientific)
Instrument type: LC-ESI-QFT
Ms type: MS2
Ion mode: POSITIVE
Ionization: ESI
Fragmentation mode: HCD
Collision energy: 90
Resolution: 17500
Column name: Acquity BEH C18 1.7um, 2.1x150mm (Waters)
Retention time: 16.907 min
Base peak: 79.0211
Precursor m/z: 331.2169
Precursor type: [M+H]+
Precursor intensity: 31431813.875
m/z	relative intensity	assigned
53.0385	4	C4H5+
56.0495	1	C3H6N+
58.0651	2	C3H8N+
68.0494	4	C4H6N+
79.0542	9	C6H7+
82.065	1	C5H8N+
91.0542	35	C7H7+
102.0464	2	C8H6+
103.0542	13	C8H7+
104.0494	2	C7H6N+
106.0651	2	C7H8N+
107.073	1	C7H9N+
108.0808	1	C7H10N+
115.0542	21	C9H7+
116.0497	2	C8H6N+
116.062	3	C9H8+
117.0573	8	C8H7N+
118.0651	14	C8H8N+
120.0808	38	C8H10N+
121.0887	4	C8H11N+
128.0621	5	C10H8+
130.0652	2	C9H8N+
131.0731	2	C9H9N+
132.0806	5	C9H10N+
134.0964	27	C9H12N+
139.0545	1	C11H7+
141.0698	10	C11H9+
143.0729	1	C10H9N+
144.0809	3	C10H10N+
152.0387	12	C10H4N2+
152.062	48	C12H8+
153.0699	53	C12H9+
154.0776	7	C12H10+
155.0851	4	C12H11+
156.0804	2	C11H10N+
165.0699	296	C13H9+
166.0778	88	C13H10+
167.073	5	C12H9N+
167.0854	42	C13H11+
168.0806	4	C12H10N+
170.0963	8	C12H12N+
171.104	1	C12H13N+
178.0779	7	C14H10+
179.073	30	C13H9N+
179.0862	4	C14H11+
180.0807	135	C13H10N+
181.0885	71	C13H11N+
182.0964	38	C13H12N+
183.104	7	C13H13N+
184.1118	4	C13H14N+
191.0852	4	C15H11+
192.0807	17	C14H10N+
193.0887	88	C14H11N+
194.0964	463	C14H12N+
195.1042	161	C14H13N+
196.112	159	C14H14N+
197.1198	88	C14H15N+
198.1279	1	C14H16N+
202.078	6	C16H10+
206.0959	3	C15H12N+
207.0916	9	C14H11N2+
207.104	10	C15H13N+
208.1119	184	C15H14N+
209.1073	102	C14H13N2+
209.1193	34	C15H15N+
210.1278	65	C15H16N+
215.0855	11	C17H11+
217.1007	1	C17H13+
220.112	1	C16H14N+
221.1072	12	C15H13N2+
222.1152	22	C15H14N2+
223.1229	999	C15H15N2+
224.1307	551	C15H16N2+
226.0786	2	C18H10+
228.093	9	C18H12+
229.1009	9	C18H13+
230.0961	5	C17H12N+
231.103	4	C17H13N+
237.1387	32	C16H17N2+
238.1449	14	C16H18N2+
239.1542	817	C16H19N2+
241.0863	3	C18H11N+
241.101	24	C19H13+
242.0932	8	C18H12N+
242.1087	4	C19H14+
244.1123	6	C18H14N+
245.1186	1	C18H15N+
246.1264	1	C18H16N+
250.0741	1	C20H10+
252.0693	1	C18H8N2+
254.0965	4	C19H12N+
255.1043	5	C19H13N+
256.112	39	C19H14N+
257.1198	13	C19H15N+
258.1279	8	C19H16N+
268.1118	3	C20H14N+
269.1193	3	C20H15N+
270.128	39	C20H16N+
271.1222	1	C19H15N2+
271.136	13	C20H17N+
272.1437	19	C20H18N+
275.0694	8	C21H9N+
276.0768	2	C21H10N+
284.1455	6	C21H18N+
285.1373	9	C20H17N2+
286.1586	3	C21H20N+
287.0874	4	C23H11+
288.0955	3	C23H12+
289.0853	3	C22H11N+
290.0925	1	C22H12N+
299.1543	103	C21H19N2+
300.162	26	C21H20N2+
313.1703	1	C22H21N2+
314.175	2	C22H22N2+
315.1861	44	C22H23N2+
