Mass spectrum: 7-Diethylamino-4-methylcoumarin; LC-ESI-QFT; MS2; CE: 90; R=17500; [M+H]+
Name: 7-Diethylamino-4-methylcoumarin
Name: 7-(diethylamino)-4-methylchromen-2-one
Formula: C14H17NO2
Exact mass: 231.1259
SMILES: CCN(CC)C1=CC=C2C(C)=CC(=O)OC2=C1
InChI: InChI=1S/C14H17NO2/c1-4-15(5-2)11-6-7-12-10(3)8-14(16)17-13(12)9-11/h6-9H,4-5H2,1-3H3
Instrument: Q Exactive Orbitrap (Thermo Scientific)
Instrument type: LC-ESI-QFT
Ms type: MS2
Ion mode: POSITIVE
Ionization: ESI
Fragmentation mode: HCD
Collision energy: 90
Resolution: 17500
Column name: Acquity BEH C18 1.7um, 2.1x150mm (Waters)
Retention time: 17.638 min
Base peak: 79.0211
Precursor m/z: 232.1332
Precursor type: [M+H]+
Precursor intensity: 38531733
m/z	relative intensity	assigned
53.0386	5	C4H5+
55.0179	2	C3H3O+
56.0495	1	C3H6N+
58.0652	1	C3H8N+
65.0385	5	C5H5+
67.0178	19	C4H3O+
67.0542	3	C5H7+
68.0131	44	C3H2NO+
70.065	1	C4H8N+
72.0807	2	C4H10N+
77.0386	3	C6H5+
79.0542	27	C6H7+
81.0698	1	C6H9+
82.0651	1	C5H8N+
89.0386	1	C7H5+
91.0542	64	C7H7+
92.0494	2	C6H6N+
93.0574	2	C6H7N+
93.0699	28	C7H9+
94.065	1	C6H8N+
95.0492	13	C6H7O+
96.0444	3	C5H6NO+
102.0466	1	C8H6+
103.0542	74	C8H7+
104.0495	22	C7H6N+
104.062	10	C8H8+
105.0699	76	C8H9+
106.0651	15	C7H8N+
107.0493	2	C7H7O+
109.0648	13	C7H9O+
110.0601	3	C6H8NO+
115.0542	85	C9H7+
116.0621	106	C9H8+
117.0573	47	C8H7N+
117.0698	29	C9H9+
118.0651	31	C8H8N+
119.073	22	C8H9N+
119.0858	1	C9H11+
120.0808	19	C8H10N+
121.0648	37	C8H9O+
122.06	10	C7H8NO+
128.0495	2	C9H6N+
128.0621	2	C10H8+
129.0698	4	C10H9+
130.0652	32	C9H8N+
131.0492	58	C9H7O+
131.0729	12	C9H9N+
132.057	147	C9H8O+
132.0808	135	C9H10N+
133.0522	1	C8H7NO+
133.0647	15	C9H9O+
133.0885	8	C9H11N+
134.0601	5	C8H8NO+
134.0965	8	C9H12N+
135.0805	1	C9H11O+
136.076	1	C8H10NO+
138.0914	2	C8H12NO+
141.0702	1	C11H9+
142.0652	13	C10H8N+
143.073	18	C10H9N+
144.0808	78	C10H10N+
145.0522	8	C9H7NO+
145.0649	4	C10H9O+
145.0886	3	C10H11N+
146.0601	43	C9H8NO+
146.0964	35	C10H12N+
147.0678	28	C9H9NO+
147.1043	5	C10H13N+
148.0756	4	C9H10NO+
148.1121	23	C10H14N+
150.0912	1	C9H12NO+
156.081	1	C11H10N+
157.0886	2	C11H11N+
158.06	3	C10H8NO+
158.0966	13	C11H12N+
159.0442	8	C10H7O2+
159.0678	4	C10H9NO+
160.0757	659	C10H10NO+
161.0596	7	C10H9O2+
161.0836	2	C10H11NO+
161.1198	9	C11H15N+
171.1045	1	C12H13N+
172.112	9	C12H14N+
173.0595	1	C11H9O2+
173.0835	1	C11H11NO+
174.0556	4	C10H8NO2+
174.0677	46	C11H10O2+
174.0914	80	C11H12NO+
174.1281	4	C12H16N+
175.0629	4	C10H9NO2+
175.0992	31	C11H13NO+
176.0706	2	C10H10NO2+
176.107	3	C11H14NO+
176.1434	21	C12H18N+
186.0919	1	C12H12NO+
188.0706	999	C11H10NO2+
189.0787	1	C11H11NO2+
192.0417	5	C13H6NO+
192.1022	1	C11H14NO2+
202.0863	38	C12H12NO2+
203.094	3	C12H13NO2+
204.1021	3	C12H14NO2+
216.102	7	C13H14NO2+
232.1332	3	C14H18NO2+
