Mass spectrum: Karbutilate; LC-ESI-QFT; MS2; CE: 30; R=17500; [M+H]+
Name: Karbutilate
Name: [3-(dimethylcarbamoylamino)phenyl] N-tert-butylcarbamate
Formula: C14H21N3O3
Exact mass: 279.1583
SMILES: CN(C)C(=O)NC1=CC=CC(OC(=O)NC(C)(C)C)=C1
InChI: InChI=1S/C14H21N3O3/c1-14(2,3)16-13(19)20-11-8-6-7-10(9-11)15-12(18)17(4)5/h6-9H,1-5H3,(H,15,18)(H,16,19)
Instrument: Q Exactive Orbitrap (Thermo Scientific)
Instrument type: LC-ESI-QFT
Ms type: MS2
Ion mode: POSITIVE
Ionization: ESI
Fragmentation mode: HCD
Collision energy: 30
Resolution: 17500
Column name: Acquity BEH C18 1.7um, 2.1x150mm (Waters)
Retention time: 15.141 min
Base peak: 79.0211
Precursor m/z: 280.1656
Precursor type: [M+H]+
Precursor intensity: 5837036.5
m/z	relative intensity	assigned
72.0444	192	C3H6NO+
88.0757	8	C4H10NO+
128.107	6	C7H14NO+
136.0395	21	C7H6NO2+
181.0972	999	C9H13N2O2+
224.103	17	C10H14N3O3+
