Mass spectrum: Dodecylamine; LC-ESI-QFT; MS2; CE: 45; R=17500; [M+H]+
Name: Dodecylamine
Name: dodecan-1-amine
Formula: C12H27N
Exact mass: 185.2143
SMILES: CCCCCCCCCCCCN
InChI: InChI=1S/C12H27N/c1-2-3-4-5-6-7-8-9-10-11-12-13/h2-13H2,1H3
Instrument: Q Exactive Orbitrap (Thermo Scientific)
Instrument type: LC-ESI-QFT
Ms type: MS2
Ion mode: POSITIVE
Ionization: ESI
Fragmentation mode: HCD
Collision energy: 45
Resolution: 17500
Column name: Acquity BEH C18 1.7um, 2.1x150mm (Waters)
Retention time: 9.462 min
Base peak: 79.0211
Precursor m/z: 186.2216
Precursor type: [M+H]+
Precursor intensity: 80750975.59375
m/z	relative intensity	assigned
58.0651	3	C3H8N+
60.0807	6	C3H10N+
72.0808	1	C4H10N+
86.0964	5	C5H12N+
100.112	10	C6H14N+
102.1277	34	C6H16N+
114.1277	492	C7H16N+
142.159	107	C9H20N+
144.1746	213	C9H22N+
186.2216	999	C12H28N+
