Mass spectrum: 9-Ethyl-3-nitro-9H-carbazole; LC-ESI-QFT; MS2; CE: 90; R=17500; [M+H]+
Name: 9-Ethyl-3-nitro-9H-carbazole
Name: 9-ethyl-3-nitrocarbazole
Formula: C14H12N2O2
Exact mass: 240.0899
SMILES: CCN1C2=C(C=CC=C2)C2=C1C=CC(=C2)[N+]([O-])=O
InChI: InChI=1S/C14H12N2O2/c1-2-15-13-6-4-3-5-11(13)12-9-10(16(17)18)7-8-14(12)15/h3-9H,2H2,1H3
Instrument: Q Exactive Orbitrap (Thermo Scientific)
Instrument type: LC-ESI-QFT
Ms type: MS2
Ion mode: POSITIVE
Ionization: ESI
Fragmentation mode: HCD
Collision energy: 90
Resolution: 17500
Column name: Acquity BEH C18 1.7um, 2.1x150mm (Waters)
Retention time: 14.796 min
Base peak: 79.0211
Precursor m/z: 241.0972
Precursor type: [M+H]+
Precursor intensity: 5398436.625
m/z	relative intensity	assigned
53.0022	4	C3HO+
55.0291	10	C2H3N2+
56.0495	13	C3H6N+
58.0652	61	C3H8N+
67.029	33	C3H3N2+
69.0447	8	C3H5N2+
70.065	3	C4H8N+
71.0604	621	C3H7N2+
72.0444	9	C3H6NO+
78.0104	3	C5H2O+
79.0058	321	C4HNO+
83.0604	332	C4H7N2+
90.0106	36	C6H2O+
95.0604	8	C5H7N2+
96.0557	342	C6H8O+
102.0103	2	C7H2O+
103.0059	5	C6HNO+
104.001	999	C5N2O+
108.0557	39	C7H8O+
110.0462	40	C5H6N2O+
110.0713	29	C7H10O+
111.0792	10	C7H11O+
119.0371	32	C7H5NO+
121.0284	2	C7H5O2+
121.051	4	C7H7NO+
132.0324	92	C7H4N2O+
135.0667	6	C8H9NO+
136.0749	3	C8H10NO+
136.0871	26	C9H12O+
138.0774	11	C7H10N2O+
144.0323	8	C8H4N2O+
146.0229	44	C8H4NO2+
150.0775	3	C8H10N2O+
173.0588	3	C11H9O2+
174.0541	10	C10H8NO2+
194.0966	4	C14H12N+
214.0851	7	C13H12NO2+
