Mass spectrum: Ifosfamide; LC-ESI-QFT; MS2; CE: 90; R=17500; [M+H]+
Name: Ifosfamide
Name: N,3-bis(2-chloroethyl)-2-oxo-1,3,2lambda5-oxazaphosphinan-2-amine
Formula: C7H15Cl2N2O2P
Exact mass: 260.0248
SMILES: ClCCNP1(=O)OCCCN1CCCl
InChI: InChI=1S/C7H15Cl2N2O2P/c8-2-4-10-14(12)11(6-3-9)5-1-7-13-14/h1-7H2,(H,10,12)
Instrument: Q Exactive Orbitrap (Thermo Scientific)
Instrument type: LC-ESI-QFT
Ms type: MS2
Ion mode: POSITIVE
Ionization: ESI
Fragmentation mode: HCD
Collision energy: 90
Resolution: 17500
Column name: Acquity BEH C18 1.7um, 2.1x150mm (Waters)
Retention time: 13.918 min
Base peak: 79.0211
Precursor m/z: 261.0321
Precursor type: [M+H]+
Precursor intensity: 8753840.3125
m/z	relative intensity	assigned
53.0022	5	C3HO+
54.0338	13	C3H4N+
55.0542	4	C4H7+
56.0495	229	C3H6N+
57.0573	4	C3H7N+
57.0699	2	C4H9+
58.0651	10	C3H8N+
59.0491	5	C3H7O+
62.9996	999	C2H4Cl+
63.9948	27	CH3ClN+
64.9787	4	H2O2P+
65.0385	5	C5H5+
67.0415	4	C4H5N+
67.0541	11	C5H7+
68.0494	9	C4H6N+
70.0651	6	C4H8N+
72.0443	10	C3H6NO+
78.0105	183	C2H5ClN+
78.9943	4	CH4O2P+
80.0262	6	C2H7ClN+
80.0494	7	C5H6N+
81.0573	3	C5H7N+
82.0651	13	C5H8N+
83.073	3	C5H9N+
84.0808	4	C5H10N+
87.9947	4	C2H3NOP+
90.0104	2	C2H5NOP+
92.0261	571	C3H7ClN+
95.9513	1	CH2ClOP+
97.0048	5	C2H6ClO2+
98.0001	28	CH5ClNO2+
99.9947	7	C3H3NOP+
102.0104	1	C3H5NOP+
106.0053	6	C2H5NO2P+
109.0049	10	C3H6ClO2+
112.0157	1	C2H7ClNO2+
115.9662	3	ClH4NO2P+
116.9502	41	CH3Cl2O2+
118.0053	5	C3H5NO2P+
118.0418	3	C5H9ClN+
120.0208	4	C3H7NO2P+
120.0574	15	C5H11ClN+
124.0157	10	C3H7ClNO2+
126.971	2	C2H5ClO2P+
127.9663	12	CH4ClNO2P+
128.026	10	C5H7NOP+
134.9611	1	C6O2P+
136.0158	13	C4H7ClNO2+
141.9818	11	C2H6ClNO2P+
143.9609	3	C2H4Cl2NO2+
146.0366	1	C5H9NO2P+
153.9818	49	C3H6ClNO2P+
