Mass spectrum: 2-Methyl-4,6-dinitrophenol; LC-ESI-QFT; MS2; CE: 75; R=17500; [M-H]-
Name: 2-Methyl-4,6-dinitrophenol
Name: 4,6-Dinitro-O-cresol
Formula: C7H6N2O5
Exact mass: 198.0277
SMILES: CC1=C(O)C(=CC(=C1)[N+]([O-])=O)[N+]([O-])=O
InChI: InChI=1S/C7H6N2O5/c1-4-2-5(8(11)12)3-6(7(4)10)9(13)14/h2-3,10H,1H3
Instrument: Q Exactive Orbitrap (Thermo Scientific)
Instrument type: LC-ESI-QFT
Ms type: MS2
Ion mode: NEGATIVE
Ionization: ESI
Fragmentation mode: HCD
Collision energy: 75
Resolution: 17500
Column name: Acquity BEH C18 1.7um, 2.1x150mm (Waters)
Retention time: 16.349 min
Base peak: 197.0204
Precursor m/z: 197.0204
Precursor type: [M-H]-
Precursor intensity: 41997357.85498
m/z	relative intensity	assigned
55.019	6	C3H3O-
63.0115	3	C4HN-
63.024	15	C5H3-
64.0193	45	C4H2N-
65.0033	8	C4HO-
65.0146	9	C3HN2-
65.0397	147	C5H5-
65.9985	37	C3NO-
66.0349	14	C4H4N-
67.0189	43	C4H3O-
68.0143	4	C3H2NO-
68.9982	24	C3HO2-
69.0347	5	C4H5O-
75.0241	5	C6H3-
76.0193	3	C5H2N-
78.035	5	C5H4N-
79.0191	2	C5H3O-
80.0267	13	C5H4O-
81.0346	35	C5H5O-
82.03	2	C4H4NO-
83.0139	2	C4H3O2-
88.0192	14	C6H2N-
91.0191	2	C6H3O-
92.0143	1	C5H2NO-
93.0346	77	C6H5O-
94.0298	3	C5H4NO-
95.0138	9	C5H3O2-
96.0091	3	C4H2NO2-
103.019	5	C7H3O-
106.0298	1	C6H4NO-
108.0217	18	C6H4O2-
109.0295	999	C6H5O2-
110.0248	31	C5H4NO2-
120.0219	2	C7H4O2-
121.0295	50	C7H5O2-
122.0248	120	C6H4NO2-
123.0087	2	C6H3O3-
123.0326	37	C6H5NO2-
125.0121	2	C5H3NO3-
134.0247	22	C7H4NO2-
136.0164	10	C7H4O3-
137.0244	315	C7H5O3-
138.0197	110	C6H4NO3-
139.0275	52	C6H5NO3-
150.0196	297	C7H4NO3-
151.0276	6	C7H5NO3-
166.0145	52	C7H4NO4-
167.0224	34	C7H5NO4-
180.0177	263	C7H4N2O4-
197.0204	31	C7H5N2O5-
