Mass spectrum: Methoxyfenozide; LC-ESI-QFT; MS2; CE: 75; R=17500; [M-H]-
Name: Methoxyfenozide
Name: N'-tert-butyl-N'-(3,5-dimethylbenzoyl)-3-methoxy-2-methylbenzohydrazide
Formula: C22H28N2O3
Exact mass: 368.2100
SMILES: COC1=CC=CC(C(=O)NN(C(=O)C2=CC(C)=CC(C)=C2)C(C)(C)C)=C1C
InChI: InChI=1S/C22H28N2O3/c1-14-11-15(2)13-17(12-14)21(26)24(22(4,5)6)23-20(25)18-9-8-10-19(27-7)16(18)3/h8-13H,1-7H3,(H,23,25)
Instrument: Q Exactive Orbitrap (Thermo Scientific)
Instrument type: LC-ESI-QFT
Ms type: MS2
Ion mode: NEGATIVE
Ionization: ESI
Fragmentation mode: HCD
Collision energy: 75
Resolution: 17500
Column name: Acquity BEH C18 1.7um, 2.1x150mm (Waters)
Retention time: 17.518 min
Base peak: 307.0977
Precursor m/z: 367.2027
Precursor type: [M-H]-
Precursor intensity: 60338336.88672
m/z	relative intensity	assigned
91.019	112	C6H3O-
93.0347	22	C6H5O-
105.071	999	C8H9-
106.0424	11	C7H6O-
118.0301	45	C7H4NO-
119.0503	9	C8H7O-
121.0295	164	C7H5O2-
121.0659	32	C8H9O-
122.0374	66	C7H6O2-
132.0459	6	C8H6NO-
136.0405	18	C7H6NO2-
146.0248	243	C8H4NO2-
147.0324	8	C8H5NO2-
147.0815	12	C10H11O-
148.0405	22	C8H6NO2-
148.0768	19	C9H10NO-
149.0608	619	C9H9O2-
204.1401	5	C13H18NO-
