Mass spectrum: Fludioxonil; LC-ESI-QFT; MS2; CE: 45; R=17500; [M-H]-
Name: Fludioxonil
Name: 4-(2,2-difluoro-1,3-benzodioxol-4-yl)-1H-pyrrole-3-carbonitrile
Formula: C12H6F2N2O2
Exact mass: 248.0397
SMILES: FC1(F)OC2=CC=CC(=C2O1)C1=CNC=C1C#N
InChI: InChI=1S/C12H6F2N2O2/c13-12(14)17-10-3-1-2-8(11(10)18-12)9-6-16-5-7(9)4-15/h1-3,5-6,16H
Instrument: Q Exactive Orbitrap (Thermo Scientific)
Instrument type: LC-ESI-QFT
Ms type: MS2
Ion mode: NEGATIVE
Ionization: ESI
Fragmentation mode: HCD
Collision energy: 45
Resolution: 17500
Column name: Acquity BEH C18 1.7um, 2.1x150mm (Waters)
Retention time: 17.532 min
Base peak: 247.0324
Precursor m/z: 247.0325
Precursor type: [M-H]-
Precursor intensity: 162933948.4512
m/z	relative intensity	assigned
65.0146	2	C3HN2-
89.0145	6	C5HN2-
89.0396	1	C7H5-
114.0347	1	C8H4N-
126.0349	36	C9H4N-
127.03	3	C8H3N2-
139.03	1	C9H3N2-
145.0411	1	C8H5N2O-
151.0302	11	C10H3N2-
153.0458	16	C10H5N2-
154.03	2	C10H4NO-
155.0251	1	C9H3N2O-
169.0407	9	C10H5N2O-
171.0362	1	C10H4FN2-
179.025	14	C11H3N2O-
180.0329	69	C11H4N2O-
181.0408	92	C11H5N2O-
183.036	2	C11H4FN2-
195.0197	3	C11H3N2O2-
197.0356	19	C11H5N2O2-
199.0313	16	C11H4FN2O-
207.0198	3	C12H3N2O2-
220.0219	1	C11H4F2NO2-
227.0264	5	C12H4FN2O2-
247.0323	999	C12H5F2N2O2-
