Mass spectrum: C.I. Solvent Yellow 14; LC-ESI-QFT; MS2; CE: 30; R=17500; [M+H]+
Name: C.I. Solvent Yellow 14
Name: 1-phenyldiazenylnaphthalen-2-ol
Formula: C16H12N2O
Exact mass: 248.0950
SMILES: OC1=CC=C2C=CC=CC2=C1N=NC1=CC=CC=C1
InChI: InChI=1S/C16H12N2O/c19-15-11-10-12-6-4-5-9-14(12)16(15)18-17-13-7-2-1-3-8-13/h1-11,19H
Instrument: Q Exactive Orbitrap (Thermo Scientific)
Instrument type: LC-ESI-QFT
Ms type: MS2
Ion mode: POSITIVE
Ionization: ESI
Fragmentation mode: HCD
Collision energy: 30
Resolution: 17500
Column name: Acquity BEH C18 1.7um, 2.1x150mm (Waters)
Retention time: 20.798 min
Base peak: 79.0211
Precursor m/z: 249.1022
Precursor type: [M+H]+
Precursor intensity: 1092258.84375
m/z	relative intensity	assigned
80.0495	10	C5H6N+
92.0495	20	C6H6N+
93.0574	999	C6H7N+
128.0495	44	C9H6N+
146.0598	9	C9H8NO+
156.0445	757	C10H6NO+
204.0809	32	C15H10N+
211.0865	7	C13H11N2O+
221.1075	62	C15H13N2+
231.0919	176	C16H11N2+
232.0777	134	C16H10NO+
232.0997	791	C16H12N2+
233.0834	29	C16H11NO+
248.0942	34	C16H12N2O+
249.1021	677	C16H13N2O+
