Mass spectrum: PharmaGSID_48511; LC-ESI-QFT; MS2; CE: 60; R=17500; [M-H]-
Name: PharmaGSID_48511
Name: 4-[(9-cyclopentyl-7,7-difluoro-5-methyl-6-oxo-8H-pyrimido[4,5-b][1,4]diazepin-2-yl)amino]-3-methoxy-N-(1-methylpiperidin-4-yl)benzamide
Formula: C27H35F2N7O3
Exact mass: 543.2769
SMILES: COC1=C(NC2=NC3=C(C=N2)N(C)C(=O)C(F)(F)CN3C2CCCC2)C=CC(=C1)C(=O)NC1CCN(C)CC1
InChI: InChI=1S/C27H35F2N7O3/c1-34-12-10-18(11-13-34)31-24(37)17-8-9-20(22(14-17)39-3)32-26-30-15-21-23(33-26)36(19-6-4-5-7-19)16-27(28,29)25(38)35(21)2/h8-9,14-15,18-19H,4-7,10-13,16H2,1-3H3,(H,31,37)(H,30,32,33)
Instrument: Q Exactive Orbitrap (Thermo Scientific)
Instrument type: LC-ESI-QFT
Ms type: MS2
Ion mode: NEGATIVE
Ionization: ESI
Fragmentation mode: HCD
Collision energy: 60
Resolution: 17500
Column name: Acquity BEH C18 1.7um, 2.1x150mm (Waters)
Retention time: 14.779 min
Base peak: 112.9857
Precursor m/z: 542.2697
Precursor type: [M-H]-
Precursor intensity: 1856354.025391
m/z	relative intensity	assigned
65.0145	48	C3HN2-
65.9986	33	C3NO-
66.0099	38	C2N3-
79.0177	50	C3HN3-
91.0304	44	C5H3N2-
92.0254	26	C4H2N3-
106.0284	387	C4H2N4-
107.0374	27	CH4FN4O-
109.0772	84	C6H9N2-
116.0255	33	C6H2N3-
118.0301	127	C7H4NO-
124.0404	52	C6H6NO2-
130.0285	38	C6H2N4-
132.033	72	C7H4N2O-
133.0407	104	C7H5N2O-
139.0314	443	C6H4FN2O-
147.0315	34	C6H3N4O-
148.0273	43	C2H3FN5O2-
176.0469	39	C8H6N3O2-
191.0373	83	C3H3F2N7O-
213.0577	24	C6H5F2N7-
217.0971	52	C10H11N5O-
240.0444	21	C15H4N4-
241.0531	48	C12H6FN4O-
247.1329	143	C13H17N3O2-
258.1247	154	C14H16N3O2-
272.128	634	C14H16N4O2-
273.1358	999	C14H17N4O2-
280.1141	58	C13H14F2N4O-
298.1311	68	C15H16N5O2-
320.1396	30	C17H16N6O-
322.1318	35	C14H17FN5O3-
324.146	36	C17H18N5O2-
365.1532	183	C19H18FN6O-
378.1683	537	C19H20N7O2-
381.1482	227	C24H19N3O2-
394.1638	240	C19H20N7O3-
395.1713	110	C19H21N7O3-
429.205	58	C24H25N6O2-
