Mass spectrum: Phosalone; LC-ESI-QFT; MS2; CE: 75; R=17500; [M+H]+
Name: Phosalone
Name: 6-chloro-3-(diethoxyphosphinothioylsulfanylmethyl)-1,3-benzoxazol-2-one
Formula: C12H15ClNO4PS2
Exact mass: 366.9869
SMILES: CCOP(=S)(OCC)SCN1C(=O)OC2=CC(Cl)=CC=C12
InChI: InChI=1S/C12H15ClNO4PS2/c1-3-16-19(20,17-4-2)21-8-14-10-6-5-9(13)7-11(10)18-12(14)15/h5-7H,3-4,8H2,1-2H3
Instrument: Q Exactive Orbitrap (Thermo Scientific)
Instrument type: LC-ESI-QFT
Ms type: MS2
Ion mode: POSITIVE
Ionization: ESI
Fragmentation mode: HCD
Collision energy: 75
Resolution: 17500
Column name: Acquity BEH C18 1.7um, 2.1x150mm (Waters)
Retention time: 18.842 min
Base peak: 79.0211
Precursor m/z: 367.9941
Precursor type: [M+H]+
Precursor intensity: 3998952.71875
m/z	relative intensity	assigned
51.0231	13	C4H3+
53.0023	53	C3HO+
53.0386	27	C4H5+
55.0543	999	C4H7+
56.0495	32	C3H6N+
57.0335	10	C3H5O+
57.0699	121	C4H9+
64.9788	8	CH2ClO+
67.0542	261	C5H7+
69.0699	570	C5H9+
70.0651	26	C4H8N+
71.0491	19	C4H7O+
71.0855	29	C5H11+
75.0229	50	C6H3+
79.0542	104	C6H7+
81.0699	206	C6H9+
83.0491	18	C5H7O+
83.0856	199	C6H11+
85.0648	12	C5H9O+
86.9996	19	C4H4Cl+
91.0543	64	C7H7+
93.0699	71	C7H9+
95.0491	18	C6H7O+
95.0856	161	C7H11+
97.0647	36	C6H9O+
97.1012	50	C7H13+
98.9842	32	H4O4P+
102.0339	12	C7H4N+
105.07	42	C8H9+
107.0856	40	C8H11+
109.0049	15	C2H6O3P+
109.1013	35	C8H13+
114.9614	186	H4O3PS+
119.0856	37	C9H11+
120.0444	11	C7H6NO+
121.101	10	C9H13+
129.0101	78	C6H6ClO+
130.0401	46	C3H11ClO3+
133.1013	13	C10H13+
138.0107	23	C7H5ClN+
139.0058	129	C3H7O4S+
170.0004	20	C7H5ClNO2+
