Mass spectrum: Prodiamine; LC-ESI-QFT; MS2; CE: 90; R=17500; [M-H]-
Name: Prodiamine
Name: 2,4-dinitro-3-N,3-N-dipropyl-6-(trifluoromethyl)benzene-1,3-diamine
Formula: C13H17F3N4O4
Exact mass: 350.1202
SMILES: CCCN(CCC)C1=C(C(N)=C(C=C1[N+]([O-])=O)C(F)(F)F)[N+]([O-])=O
InChI: InChI=1S/C13H17F3N4O4/c1-3-5-18(6-4-2)11-9(19(21)22)7-8(13(14,15)16)10(17)12(11)20(23)24/h7H,3-6,17H2,1-2H3
Instrument: Q Exactive Orbitrap (Thermo Scientific)
Instrument type: LC-ESI-QFT
Ms type: MS2
Ion mode: NEGATIVE
Ionization: ESI
Fragmentation mode: HCD
Collision energy: 90
Resolution: 17500
Column name: Acquity BEH C18 1.7um, 2.1x150mm (Waters)
Retention time: 19.704 min
Base peak: 349.1128
Precursor m/z: 349.1129
Precursor type: [M-H]-
Precursor intensity: 72405414.07617
m/z	relative intensity	assigned
50.0035	110	C3N-
57.9933	11	CNO2-
64.0067	170	C3N2-
64.0193	41	C4H2N-
65.0145	500	C3HN2-
65.9985	999	C3NO-
68.9958	81	CF3-
70.9938	29	C3FO-
73.0295	24	C3H5O2-
74.0036	330	C5N-
76.0004	18	C2F2N-
76.0067	25	C4N2-
77.0145	11	C4HN2-
80.0016	9	C3N2O-
81.0021	50	C4FN-
82.0097	14	C4HFN-
88.0005	653	C3F2N-
88.0067	572	C5N2-
89.0145	422	C5HN2-
89.9985	213	C5NO-
90.0098	128	C4N3-
92.0255	19	C4H2N3-
92.9957	66	C3F3-
94.0099	18	C5HFN-
95.0051	22	C4FN2-
100.0005	102	C4F2N-
101.0144	94	C6HN2-
102.0098	30	C5N3-
102.0348	29	C7H4N-
103.9953	44	C3F2NO-
104.0014	13	C5N2O-
104.0505	26	C7H6N-
106.0098	49	C6HFN-
106.0169	12	C5H2N2O-
106.9989	16	C3F3N-
107.0051	195	C5FN2-
108.0067	17	C3HF3N-
108.0215	32	CH3FN3O2-
108.9907	51	C3F3O-
108.9968	62	C5FNO-
109.0208	17	C5H2FN2-
111.0001	48	C4FN2O-
112.0004	367	C5F2N-
112.0066	149	C7N2-
113.0146	126	C7HN2-
114.0097	356	C6N3-
115.0176	19	C6HN3-
115.0301	45	C7H3N2-
116.0253	132	C6H2N3-
117.0092	19	C6HN2O-
117.0206	54	C5HN4-
117.0459	20	C7H5N2-
118.041	11	C6H4N3-
119.005	107	C6FN2-
119.0251	61	C6H3N2O-
120.0067	19	C4HF3N-
121.0205	20	C6H2FN2-
124.0005	94	C6F2N-
124.0057	14	C8N2-
125.0145	16	C8HN2-
126.0035	50	C5F2N2-
126.0095	51	C7N3-
127.0118	18	C5HF2N2-
127.0175	138	C7HN3-
127.0301	30	C8H3N2-
128.0254	33	C7H2N3-
128.0382	18	C8H4N2-
129.01	11	C7HN2O-
129.0333	36	C7H3N3-
129.0457	54	C8H5N2-
130.0284	33	C6H2N4-
130.9988	360	C5F3N-
131.0049	84	C7FN2-
132.0126	16	C7HFN2-
133.0019	49	C4F3N2-
133.0078	15	C6FN3-
133.0209	79	C7H2FN2-
134.0048	18	C7HFNO-
134.016	141	C6HFN3-
135.0001	37	C6FN2O-
136.0014	36	C4HF3NO-
137.0154	13	C6H2FN2O-
138.0097	114	C8N3-
139.0113	94	C6HF2N2-
139.0174	16	C8HN3-
139.0301	37	C9H3N2-
140.0254	121	C8H2N3-
141.0206	40	C7HN4-
141.0458	40	C9H5N2-
142.041	53	C8H4N3-
143.0249	15	C8H3N2O-
143.0363	73	C7H3N4-
144.0065	90	C6HF3N-
144.0201	30	C7H2N3O-
144.0565	22	C8H6N3-
145.0021	30	C5F3N2-
145.0518	18	C7H5N4-
146.0101	23	C5HF3N2-
146.016	34	C7HFN3-
146.029	14	C8H3FN2-
146.9938	27	C5F3NO-
147	20	C7FN2O-
147.0239	91	C7H2FN3-
148.0079	28	C7HFN2O-
150.0033	37	C7F2N2-
151.0115	51	C7HF2N2-
151.9951	27	C7F2NO-
152.0129	13	C8N4-
152.0256	28	C9H2N3-
153.0332	21	C9H3N3-
154.0285	35	C8H2N4-
154.0411	52	C9H4N3-
154.9986	39	C7F3N-
155.0057	18	C6HF2N2O-
155.0124	51	C8HN3O-
156.0331	14	C9H4N2O-
156.0569	13	C9H6N3-
157.0019	464	C6F3N2-
158.0096	16	C6HF3N2-
158.016	295	C8HFN3-
159.011	28	C7FN4-
159.0177	48	C6H2F3N2-
159.0243	24	C13H3-
160.0018	50	C6HF3NO-
160.0315	72	C8H3FN3-
161.0159	51	C8H2FN2O-
161.0525	10	C9H6FN2-
162.0108	29	C7HFN3O-
162.0175	13	C6H3F3NO-
166.0409	49	C10H4N3-
167.006	13	C7HF2N2O-
167.0363	72	C9H3N4-
168.0135	13	C10HFN2-
168.0207	16	C9H2N3O-
168.0564	14	C10H6N3-
169.0408	12	C10H5N2O-
169.052	29	C9H5N4-
170.0093	15	C7HF3N2-
172.0194	14	C13H2N-
172.0316	34	C9H3FN3-
173.003	20	C8FN3O-
173.0393	73	C9H4FN3-
174.0044	45	C6HF3N2O-
174.0477	10	C9H5FN3-
175.0188	50	C8H2FN3O-
178.0219	113	C8H2F2N3-
179.0297	18	C8H3F2N3-
181.0219	12	C8H3F2N2O-
184.0128	129	C7HF3N3-
184.0314	39	C10H3FN3-
186.0475	55	C10H5FN3-
187.0125	34	C7H2F3N2O-
188.0264	26	C9H3FN3O-
191.03	38	C9H3F2N3-
197.0202	44	C5H4F3N2O3-
199.0364	18	C13H5F2-
200.027	13	C10H3FN3O-
202.0001	14	C7HF3N2O2-
204.0028	21	C11H2F2O2-
204.0375	62	C10H4F2N3-
205.0288	14	C12H4F3-
206.0531	22	C10H6F2N3-
210.0284	45	C9H3F3N3-
211.0244	13	C13H3F2N-
212.0444	11	C9H5F3N3-
215.0314	12	C13H5F2O-
230.0182	13	C8H3F3N3O2-
237.0389	33	C10H4F3N4-
240.039	30	C10H5F3N3O-
