Mass spectrum: Phenolphthalin; LC-ESI-QFT; MS2; CE: 90; R=17500; [M-H]-
Name: Phenolphthalin
Name: 2-[bis(4-hydroxyphenyl)methyl]benzoic acid
Formula: C20H16O4
Exact mass: 320.1049
SMILES: OC(=O)C1=C(C=CC=C1)C(C1=CC=C(O)C=C1)C1=CC=C(O)C=C1
InChI: InChI=1S/C20H16O4/c21-15-9-5-13(6-10-15)19(14-7-11-16(22)12-8-14)17-3-1-2-4-18(17)20(23)24/h1-12,19,21-22H,(H,23,24)
Instrument: Q Exactive Orbitrap (Thermo Scientific)
Instrument type: LC-ESI-QFT
Ms type: MS2
Ion mode: NEGATIVE
Ionization: ESI
Fragmentation mode: HCD
Collision energy: 90
Resolution: 17500
Column name: Acquity BEH C18 1.7um, 2.1x150mm (Waters)
Retention time: 15.574 min
Base peak: 319.0974
Precursor m/z: 319.0976
Precursor type: [M-H]-
Precursor intensity: 13206262.88623
m/z	relative intensity	assigned
65.0397	39	C5H5-
93.0346	744	C6H5O-
151.0553	41	C12H7-
152.0633	35	C12H8-
153.0711	14	C12H9-
167.0504	132	C12H7O-
169.066	32	C12H9O-
180.0582	205	C13H8O-
181.0657	27	C13H9O-
185.0609	9	C12H9O2-
195.0452	230	C13H7O2-
196.0529	56	C13H8O2-
197.0608	154	C13H9O2-
204.0583	74	C15H8O-
205.0661	80	C15H9O-
213.0556	94	C13H9O3-
215.0868	59	C17H11-
217.066	30	C16H9O-
223.0395	8	C14H7O3-
230.0738	69	C17H10O-
231.0814	25	C17H11O-
243.0816	522	C18H11O-
244.0893	39	C18H12O-
245.0977	45	C18H13O-
256.0893	9	C19H12O-
258.0685	9	C18H10O2-
271.0767	999	C19H11O2-
272.0845	211	C19H12O2-
273.0922	43	C19H13O2-
