Mass spectrum: 2,2`-(Oxydimethanediyl)bis(2-ethylpropane-1,3-diol); LC-ESI-QFT; MS2; CE: 60; R=17500; [M+H]+
Name: 2,2'-(Oxydimethanediyl)bis(2-ethylpropane-1,3-diol)
Name: Ditrimethylolpropane
Name: 2-[2,2-bis(hydroxymethyl)butoxymethyl]-2-ethylpropane-1,3-diol
Formula: C12H26O5
Exact mass: 250.1780
SMILES: CCC(CO)(CO)COCC(CC)(CO)CO
InChI: InChI=1S/C12H26O5/c1-3-11(5-13,6-14)9-17-10-12(4-2,7-15)8-16/h13-16H,3-10H2,1-2H3
Instrument: Q Exactive Orbitrap (Thermo Scientific)
Instrument type: LC-ESI-QFT
Ms type: MS2
Ion mode: POSITIVE
Ionization: ESI
Fragmentation mode: HCD
Collision energy: 60
Resolution: 17500
Column name: Acquity BEH C18 1.7um, 2.1x150mm (Waters)
Retention time: 13.467 min
Base peak: 79.0211
Precursor m/z: 251.1853
Precursor type: [M+H]+
Precursor intensity: 4327081.625
m/z	relative intensity	assigned
53.0022	22	C3HO+
53.0386	29	C4H5+
55.0542	169	C4H7+
57.0335	254	C3H5O+
59.0492	6	C3H7O+
61.0284	9	C2H5O2+
67.0542	19	C5H7+
69.0698	601	C5H9+
71.0491	48	C4H7O+
71.0855	39	C5H11+
79.0542	237	C6H7+
81.0699	999	C6H9+
83.0856	14	C6H11+
85.0648	65	C5H9O+
87.0806	6	C5H11O+
95.0493	15	C6H7O+
97.0649	7	C6H9O+
99.0805	261	C6H11O+
117.091	32	C6H13O2+
152.0625	8	C12H8+
