Mass spectrum: 1-Dodecyl-2-pyrrolidinone; LC-ESI-QFT; MS2; CE: 45; R=17500; [M+H]+
Name: 1-Dodecyl-2-pyrrolidinone
Name: 1-dodecylpyrrolidin-2-one
Formula: C16H31NO
Exact mass: 253.2406
SMILES: CCCCCCCCCCCCN1CCCC1=O
InChI: InChI=1S/C16H31NO/c1-2-3-4-5-6-7-8-9-10-11-14-17-15-12-13-16(17)18/h2-15H2,1H3
Instrument: Q Exactive Orbitrap (Thermo Scientific)
Instrument type: LC-ESI-QFT
Ms type: MS2
Ion mode: POSITIVE
Ionization: ESI
Fragmentation mode: HCD
Collision energy: 45
Resolution: 17500
Column name: Acquity BEH C18 1.7um, 2.1x150mm (Waters)
Retention time: 20.681 min
Base peak: 79.0211
Precursor m/z: 254.2478
Precursor type: [M+H]+
Precursor intensity: 37045348
m/z	relative intensity	assigned
53.0023	2	C3HO+
55.0542	1	C4H7+
57.0699	73	C4H9+
68.0495	2	C4H6N+
69.0334	19	C4H5O+
70.0651	2	C4H8N+
71.0855	40	C5H11+
85.1012	14	C6H13+
86.06	775	C4H8NO+
98.06	21	C5H8NO+
100.0757	4	C5H10NO+
114.0913	8	C6H12NO+
128.1069	15	C7H14NO+
142.1227	8	C8H16NO+
156.1384	3	C9H18NO+
170.154	1	C10H20NO+
184.1697	1	C11H22NO+
198.185	1	C12H24NO+
254.2477	999	C16H32NO+
