Mass spectrum: Triamcinolone; LC-ESI-QFT; MS2; CE: 45; R=17500; [M-H]-
Name: Triamcinolone
Name: (8S,9R,10S,11S,13S,14S,16R,17S)-9-fluoro-11,16,17-trihydroxy-17-(2-hydroxyacetyl)-10,13-dimethyl-6,7,8,11,12,14,15,16-octahydrocyclopenta[a]phenanthren-3-one
Formula: C21H27FO6
Exact mass: 394.1792
SMILES: C[C@]12C[C@H](O)[C@@]3(F)[C@@H](CCC4=CC(=O)C=C[C@]34C)[C@@H]1C[C@@H](O)[C@]2(O)C(=O)CO
InChI: InChI=1S/C21H27FO6/c1-18-6-5-12(24)7-11(18)3-4-13-14-8-15(25)21(28,17(27)10-23)19(14,2)9-16(26)20(13,18)22/h5-7,13-16,23,25-26,28H,3-4,8-10H2,1-2H3/t13-,14-,15+,16-,18-,19-,20-,21-/m0/s1
Instrument: Q Exactive Orbitrap (Thermo Scientific)
Instrument type: LC-ESI-QFT
Ms type: MS2
Ion mode: NEGATIVE
Ionization: ESI
Fragmentation mode: HCD
Collision energy: 45
Resolution: 17500
Column name: Acquity BEH C18 1.7um, 2.1x150mm (Waters)
Retention time: 14.609 min
Base peak: 288.1355
Precursor m/z: 393.1719
Precursor type: [M-H]-
Precursor intensity: 5523318.217773
m/z	relative intensity	assigned
71.0139	40	C3H3O2-
73.0296	49	C3H5O2-
85.0294	14	C4H5O2-
93.0345	9	C6H5O-
95.0501	9	C6H7O-
107.0502	37	C7H7O-
111.045	12	C6H7O2-
119.0502	26	C8H7O-
121.0294	11	C7H5O2-
121.0659	107	C8H9O-
122.0373	7	C7H6O2-
123.0452	92	C7H7O2-
131.0501	7	C9H7O-
133.0659	36	C9H9O-
135.045	22	C8H7O2-
137.0604	12	C8H9O2-
144.0582	9	C10H8O-
145.0294	5	C9H5O2-
145.0657	25	C10H9O-
147.0449	8	C9H7O2-
147.0816	9	C10H11O-
148.0529	6	C9H8O2-
149.0609	26	C9H9O2-
157.0657	17	C11H9O-
158.0371	7	C10H6O2-
159.0815	15	C11H11O-
160.0529	13	C10H8O2-
161.0609	34	C10H9O2-
163.0765	12	C10H11O2-
165.0554	16	C9H9O3-
171.0452	38	C11H7O2-
171.0814	11	C12H11O-
172.0529	17	C11H8O2-
173.0605	25	C11H9O2-
173.0973	7	C12H13O-
174.0325	69	C10H6O3-
175.04	14	C10H7O3-
175.0762	25	C11H11O2-
178.0636	88	C10H10O3-
179.0714	24	C10H11O3-
183.0812	9	C13H11O-
185.0608	28	C12H9O2-
186.0692	24	C12H10O2-
187.0401	40	C11H7O3-
187.0756	8	C12H11O2-
188.0478	7	C11H8O3-
189.0559	39	C11H9O3-
190.0637	77	C11H10O3-
191.0719	12	C11H11O3-
197.0972	9	C14H13O-
199.0766	8	C13H11O2-
201.0554	8	C12H9O3-
201.0921	26	C13H13O2-
203.0715	18	C12H11O3-
209.097	22	C15H13O-
220.0892	16	C16H12O-
223.113	15	C16H15O-
224.0843	31	C15H12O2-
225.0923	16	C15H13O2-
227.1076	19	C15H15O2-
232.0889	8	C17H12O-
233.0973	11	C17H13O-
235.1129	45	C17H15O-
237.0924	38	C16H13O2-
238.0999	23	C16H14O2-
239.1077	34	C16H15O2-
241.1235	33	C16H17O2-
245.097	7	C18H13O-
247.113	7	C18H15O-
249.0924	62	C17H13O2-
251.108	24	C17H15O2-
253.1236	24	C17H17O2-
259.077	9	C18H11O2-
262.1002	11	C18H14O2-
263.1077	19	C18H15O2-
264.115	11	C18H16O2-
265.1235	50	C18H17O2-
266.0953	17	C17H14O3-
267.1024	18	C17H15O3-
269.1187	10	C17H17O3-
269.1554	5	C15H22FO3-
273.0916	13	C19H13O2-
274.1	14	C19H14O2-
276.0796	36	C18H12O3-
277.0872	107	C18H13O3-
277.1239	10	C19H17O2-
281.1187	65	C18H17O3-
282.1263	31	C18H18O3-
283.1343	11	C18H19O3-
289.1231	24	C20H17O2-
291.1027	93	C19H15O3-
292.1108	131	C19H16O3-
293.1181	12	C19H17O3-
294.0902	49	C18H14O4-
295.0981	17	C18H15O4-
297.1495	39	C19H21O3-
307.1341	136	C20H19O3-
309.1137	88	C19H17O4-
310.1213	379	C19H18O4-
313.145	21	C19H21O4-
322.1207	18	C20H18O4-
325.1447	999	C20H21O4-
329.1196	50	C19H18FO4-
337.1446	30	C21H21O4-
345.1508	541	C20H22FO4-
