Mass spectrum: Fluconazole; LC-ESI-QFT; MS2; CE: 45; R=17500; [M+H]+
Name: Fluconazole
Name: 2-(2,4-difluorophenyl)-1,3-bis(1,2,4-triazol-1-yl)propan-2-ol
Formula: C13H12F2N6O
Exact mass: 306.1041
SMILES: OC(CN1C=NC=N1)(CN1C=NC=N1)C1=C(F)C=C(F)C=C1
InChI: InChI=1S/C13H12F2N6O/c14-10-1-2-11(12(15)3-10)13(22,4-20-8-16-6-18-20)5-21-9-17-7-19-21/h1-3,6-9,22H,4-5H2
Instrument: Q Exactive Orbitrap (Thermo Scientific)
Instrument type: LC-ESI-QFT
Ms type: MS2
Ion mode: POSITIVE
Ionization: ESI
Fragmentation mode: HCD
Collision energy: 45
Resolution: 17500
Column name: Acquity BEH C18 1.7um, 2.1x150mm (Waters)
Retention time: 13.017 min
Base peak: 79.0211
Precursor m/z: 307.1113
Precursor type: [M+H]+
Precursor intensity: 5914362
m/z	relative intensity	assigned
70.0399	562	C2H4N3+
82.0399	5	C3H4N3+
83.0479	11	C3H5N3+
84.0557	4	C3H6N3+
100.0506	2	C3H6N3O+
119.0494	1	C8H7O+
121.0448	82	C8H6F+
124.0507	2	C5H6N3O+
127.0354	277	C7H5F2+
129.0448	5	C8H5N2+
139.0354	192	C8H5F2+
141.0147	35	C7H3F2O+
141.051	212	C8H7F2+
149.0398	5	C9H6FO+
151.0354	159	C9H5F2+
153.0385	1	C8H5F2N+
164.0433	4	C10H6F2+
165.051	3	C10H7F2+
166.0463	30	C9H6F2N+
167.0499	6	C12H7O+
168.0623	7	C9H8F2N+
169.0459	999	C9H7F2O+
170.071	6	C5H7FN6+
172.0556	4	C6H6F2N4+
173.0509	47	C10H6FN2+
176.0309	1	C10H4F2N+
177.0458	16	C9H6FN2O+
178.046	5	C10H6F2N+
187.0565	22	C12H8FO+
193.0572	29	C10H7F2N2+
200.0619	134	C11H7FN3+
201.0718	6	C13H10FO+
208.0683	6	C10H8F2N3+
220.0681	947	C11H8F2N3+
238.0786	442	C11H10F2N3O+
289.1002	1	C13H11F2N6+
307.1117	1	C13H13F2N6O+
