Mass spectrum: Progesterone; LC-ESI-QFT; MS2; CE: 90; R=17500; [M+H]+
Name: Progesterone
Name: (8S,9S,10R,13S,14S,17S)-17-acetyl-10,13-dimethyl-1,2,6,7,8,9,11,12,14,15,16,17-dodecahydrocyclopenta[a]phenanthren-3-one
Formula: C21H30O2
Exact mass: 314.2246
SMILES: CC(=O)[C@H]1CC[C@H]2[C@@H]3CCC4=CC(=O)CC[C@]4(C)[C@H]3CC[C@]12C
InChI: InChI=1S/C21H30O2/c1-13(22)17-6-7-18-16-5-4-14-12-15(23)8-10-20(14,2)19(16)9-11-21(17,18)3/h12,16-19H,4-11H2,1-3H3/t16-,17+,18-,19-,20-,21+/m0/s1
Instrument: Q Exactive Orbitrap (Thermo Scientific)
Instrument type: LC-ESI-QFT
Ms type: MS2
Ion mode: POSITIVE
Ionization: ESI
Fragmentation mode: HCD
Collision energy: 90
Resolution: 17500
Column name: Acquity BEH C18 1.7um, 2.1x150mm (Waters)
Retention time: 18.764 min
Base peak: 79.0211
Precursor m/z: 315.2319
Precursor type: [M+H]+
Precursor intensity: 6339314.8125
m/z	relative intensity	assigned
53.0022	25	C3HO+
53.0386	79	C4H5+
55.0179	95	C3H3O+
55.0542	64	C4H7+
57.0336	13	C3H5O+
65.0386	50	C5H5+
66.0463	8	C5H6+
67.0542	177	C5H7+
69.0335	21	C4H5O+
69.0699	119	C5H9+
71.0491	14	C4H7O+
77.0385	11	C6H5+
79.0542	654	C6H7+
81.0699	489	C6H9+
83.0491	61	C5H7O+
85.0649	5	C5H9O+
91.0543	247	C7H7+
93.0699	99	C7H9+
94.0413	31	C6H6O+
95.0492	106	C6H7O+
95.0856	96	C7H11+
97.0648	999	C6H9O+
103.0542	13	C8H7+
105.0699	149	C8H9+
107.0491	21	C7H7O+
107.0855	33	C8H11+
108.057	7	C7H8O+
109.0648	815	C7H9O+
111.0804	2	C7H11O+
115.0543	15	C9H7+
117.0699	40	C9H9+
119.0856	54	C9H11+
121.0648	19	C8H9O+
121.1012	8	C9H13+
123.0804	83	C8H11O+
128.0621	21	C10H8+
129.0699	34	C10H9+
130.0777	12	C10H10+
131.0856	43	C10H11+
133.1011	17	C10H13+
135.1167	3	C10H15+
141.0698	11	C11H9+
142.0778	18	C11H10+
143.0856	27	C11H11+
144.0933	7	C11H12+
145.1012	23	C11H13+
147.0807	2	C10H11O+
147.1167	3	C11H15+
148.0879	4	C10H12O+
149.0959	4	C10H13O+
155.0857	13	C12H11+
156.0934	9	C12H12+
157.1014	13	C12H13+
158.1087	4	C12H14+
159.1166	8	C12H15+
165.0697	6	C13H9+
166.0774	3	C13H10+
167.0855	8	C13H11+
168.0933	3	C13H12+
169.1011	5	C13H13+
171.1163	3	C13H15+
181.1008	4	C14H13+
183.1166	5	C14H15+
185.1326	3	C14H17+
195.1165	2	C15H15+
