Mass spectrum: SAR115740; LC-ESI-QFT; MS2; CE: 45; R=17500; [M-H]-
Name: SAR115740
Name: 5-fluoro-1-[(3-fluorophenyl)methyl]-N-(1H-indol-5-yl)indole-2-carboxamide
Formula: C24H17F2N3O
Exact mass: 401.1340
SMILES: FC1=CC=C2N(CC3=CC(F)=CC=C3)C(=CC2=C1)C(=O)NC1=CC=C2NC=CC2=C1
InChI: InChI=1S/C24H17F2N3O/c25-18-3-1-2-15(10-18)14-29-22-7-4-19(26)11-17(22)13-23(29)24(30)28-20-5-6-21-16(12-20)8-9-27-21/h1-13,27H,14H2,(H,28,30)
Instrument: Q Exactive Orbitrap (Thermo Scientific)
Instrument type: LC-ESI-QFT
Ms type: MS2
Ion mode: NEGATIVE
Ionization: ESI
Fragmentation mode: HCD
Collision energy: 45
Resolution: 17500
Column name: Acquity BEH C18 1.7um, 2.1x150mm (Waters)
Retention time: 18.334 min
Base peak: 292.0981
Precursor m/z: 400.1267
Precursor type: [M-H]-
Precursor intensity: 6393232.724609
m/z	relative intensity	assigned
75.024	50	C6H3-
93.0346	13	C6H5O-
95.0303	515	C6H4F-
114.035	1	C8H4N-
126.0349	102	C9H4N-
129.0458	16	C8H5N2-
130.0538	13	C8H6N2-
131.0615	1	C8H7N2-
134.0411	7	C8H5FN-
139.0201	24	C10H3O-
146.0411	396	C9H5FN-
157.0407	999	C9H5N2O-
190.031	16	C13H4NO-
220.0571	1	C15H7FN-
222.0725	12	C15H9FN-
240.063	16	C15H8F2N-
241.0704	1	C15H9F2N-
242.0787	58	C15H10F2N-
247.0673	2	C16H8FN2-
268.0578	3	C16H8F2NO-
290.0735	22	C17H9FN3O-
