Mass spectrum: Clothianidin; LC-ESI-QFT; MS2; CE: 15; R=17500; [M+H]+
Name: Clothianidin
Name: 1-[(2-chloro-1,3-thiazol-5-yl)methyl]-2-methyl-3-nitroguanidine
Formula: C6H8ClN5O2S
Exact mass: 249.0087
SMILES: CN\C(NCC1=CN=C(Cl)S1)=N/[N+]([O-])=O
InChI: InChI=1S/C6H8ClN5O2S/c1-8-6(11-12(13)14)10-3-4-2-9-5(7)15-4/h2H,3H2,1H3,(H2,8,10,11)
Instrument: Q Exactive Orbitrap (Thermo Scientific)
Instrument type: LC-ESI-QFT
Ms type: MS2
Ion mode: POSITIVE
Ionization: ESI
Fragmentation mode: HCD
Collision energy: 15
Resolution: 17500
Column name: Acquity BEH C18 1.7um, 2.1x150mm (Waters)
Retention time: 12.566 min
Base peak: 79.0211
Precursor m/z: 250.016
Precursor type: [M+H]+
Precursor intensity: 1044700.625
m/z	relative intensity	assigned
113.0166	18	C4H5N2S+
131.9669	640	C4H3ClNS+
146.9775	20	C4H4ClN2S+
168.0464	331	C6H8N4S+
169.0542	999	C6H9N4S+
174.9732	15	C5H4ClN2OS+
206.0148	39	C6H9ClN3OS+
