Mass spectrum: Thiophanate-methyl; LC-ESI-QFT; MS2; CE: 30; R=17500; [M+H]+
Name: Thiophanate-methyl
Name: N'-methoxycarbonyl-N-[2-[(N-methoxycarbonyl-C-sulfanylcarbonimidoyl)amino]phenyl]carbamimidothioic acid
Formula: C12H14N4O4S2
Exact mass: 342.0456
SMILES: COC(=O)NC(=S)NC1=C(NC(=S)NC(=O)OC)C=CC=C1
InChI: InChI=1S/C12H14N4O4S2/c1-19-11(17)15-9(21)13-7-5-3-4-6-8(7)14-10(22)16-12(18)20-2/h3-6H,1-2H3,(H2,13,15,17,21)(H2,14,16,18,22)
Instrument: Q Exactive Orbitrap (Thermo Scientific)
Instrument type: LC-ESI-QFT
Ms type: MS2
Ion mode: POSITIVE
Ionization: ESI
Fragmentation mode: HCD
Collision energy: 30
Resolution: 17500
Column name: Acquity BEH C18 1.7um, 2.1x150mm (Waters)
Retention time: 15.164 min
Base peak: 79.0211
Precursor m/z: 343.0529
Precursor type: [M+H]+
Precursor intensity: 7321088.625
m/z	relative intensity	assigned
74.0059	24	C2H4NS+
76.0393	16	C2H6NO2+
85.9695	27	C2NOS+
93.0574	1	C6H7N+
109.0761	14	C6H9N2+
117.9957	27	C3H4NO2S+
134.0713	7	C7H8N3+
135.0553	6	C7H7N2O+
149.0168	8	C7H5N2S+
150.0244	1	C7H6N2S+
151.0325	999	C7H7N2S+
160.0505	32	C8H6N3O+
174.0659	1	C9H8N3O+
176.0279	3	C8H6N3S+
177.0117	6	C8H5N2OS+
190.0436	1	C9H8N3S+
192.0767	34	C9H10N3O2+
192.9893	4	C8H5N2S2+
194.0383	26	C8H8N3OS+
209.0385	4	C9H9N2O2S+
219.0336	19	C9H7N4OS+
226.0644	4	C9H12N3O2S+
235.9948	35	C9H6N3OS2+
245.0129	5	C10H5N4O2S+
251.0596	9	C10H11N4O2S+
268.021	12	C10H10N3O2S2+
277.0392	7	C11H9N4O3S+
279.0006	5	C10H7N4O2S2+
311.0265	6	C11H11N4O3S2+
