Mass spectrum: 1-Dodecyl-2-pyrrolidinone; LC-ESI-QFT; MS2; CE: 90; R=17500; [M+H]+
Name: 1-Dodecyl-2-pyrrolidinone
Name: 1-dodecylpyrrolidin-2-one
Formula: C16H31NO
Exact mass: 253.2406
SMILES: CCCCCCCCCCCCN1CCCC1=O
InChI: InChI=1S/C16H31NO/c1-2-3-4-5-6-7-8-9-10-11-14-17-15-12-13-16(17)18/h2-15H2,1H3
Instrument: Q Exactive Orbitrap (Thermo Scientific)
Instrument type: LC-ESI-QFT
Ms type: MS2
Ion mode: POSITIVE
Ionization: ESI
Fragmentation mode: HCD
Collision energy: 90
Resolution: 17500
Column name: Acquity BEH C18 1.7um, 2.1x150mm (Waters)
Retention time: 20.681 min
Base peak: 79.0211
Precursor m/z: 254.2478
Precursor type: [M+H]+
Precursor intensity: 36728861.48438
m/z	relative intensity	assigned
53.0023	53	C3HO+
53.9975	5	C2NO+
54.01	1	C3H2O+
55.0543	13	C4H7+
57.0699	168	C4H9+
58.0652	7	C3H8N+
68.0495	33	C4H6N+
69.0335	254	C4H5O+
70.0651	13	C4H8N+
71.0491	2	C4H7O+
71.0855	11	C5H11+
84.0444	3	C4H6NO+
85.1012	1	C6H13+
86.06	999	C4H8NO+
98.0601	9	C5H8NO+
99.0679	1	C5H9NO+
112.0757	1	C6H10NO+
114.0915	3	C6H12NO+
128.107	1	C7H14NO+
