Mass spectrum: Fluconazole; LC-ESI-QFT; MS2; CE: 30; R=17500; [M-H]-
Name: Fluconazole
Name: 2-(2,4-difluorophenyl)-1,3-bis(1,2,4-triazol-1-yl)propan-2-ol
Formula: C13H12F2N6O
Exact mass: 306.1041
SMILES: OC(CN1C=NC=N1)(CN1C=NC=N1)C1=C(F)C=C(F)C=C1
InChI: InChI=1S/C13H12F2N6O/c14-10-1-2-11(12(15)3-10)13(22,4-20-8-16-6-18-20)5-21-9-17-7-19-21/h1-3,6-9,22H,4-5H2
Instrument: Q Exactive Orbitrap (Thermo Scientific)
Instrument type: LC-ESI-QFT
Ms type: MS2
Ion mode: NEGATIVE
Ionization: ESI
Fragmentation mode: HCD
Collision energy: 30
Resolution: 17500
Column name: Acquity BEH C18 1.7um, 2.1x150mm (Waters)
Retention time: 12.986 min
Base peak: 305.0967
Precursor m/z: 305.0968
Precursor type: [M-H]-
Precursor intensity: 9831884.104492
m/z	relative intensity	assigned
65.9983	1	C3NO-
67.0303	1	C3H3N2-
68.0254	393	C2H2N3-
82.0411	1	C3H4N3-
94.0298	6	C5H4NO-
94.0411	28	C4H4N3-
95.0252	2	C4H3N2O-
108.0204	47	C4H2N3O-
113.0205	1	C6H3F2-
122.036	65	C5H4N3O-
136.0516	2	C6H6N3O-
149.047	2	C6H5N4O-
149.058	12	C5H5N6-
164.0578	6	C6H6N5O-
191.0687	999	C7H7N6O-
222.0483	14	C10H6F2N3O-
