Mass spectrum: 1,3-Diphenylguanidine; LC-ESI-QFT; MS2; CE: 75; R=17500; [M+H]+
Name: 1,3-Diphenylguanidine
Name: 1,2-diphenylguanidine
Formula: C13H13N3
Exact mass: 211.1109
SMILES: N=C(NC1=CC=CC=C1)NC1=CC=CC=C1
InChI: InChI=1S/C13H13N3/c14-13(15-11-7-3-1-4-8-11)16-12-9-5-2-6-10-12/h1-10H,(H3,14,15,16)
Instrument: Q Exactive Orbitrap (Thermo Scientific)
Instrument type: LC-ESI-QFT
Ms type: MS2
Ion mode: POSITIVE
Ionization: ESI
Fragmentation mode: HCD
Collision energy: 75
Resolution: 17500
Column name: Acquity BEH C18 1.7um, 2.1x150mm (Waters)
Retention time: 11.649 min
Base peak: 79.0211
Precursor m/z: 212.1182
Precursor type: [M+H]+
Precursor intensity: 66701322.65625
m/z	relative intensity	assigned
50.0152	1	C4H2+
51.0231	2	C4H3+
53.0386	120	C4H5+
65.0385	54	C5H5+
67.0542	2	C5H7+
74.0964	1	C4H12N+
77.0385	79	C6H5+
78.0463	2	C6H6+
92.0495	372	C6H6N+
93.0573	6	C6H7N+
94.0651	619	C6H8N+
95.0491	356	C4H5N3+
105.0447	132	C6H5N2+
109.0648	1	C5H7N3+
117.0447	12	C7H5N2+
118.0527	2	C7H6N2+
119.0604	999	C7H7N2+
130.0398	1	C7H4N3+
167.0732	3	C12H9N+
168.0807	7	C12H10N+
194.0842	1	C13H10N2+
195.0917	86	C13H11N2+
212.1185	2	C13H14N3+
