Mass spectrum: Enterolactone; LC-ESI-QFT; MS2; CE: 45; R=17500; [M-H]-
Name: Enterolactone
Name: (-)-Enterolactone
Name: (3R,4R)-3,4-bis[(3-hydroxyphenyl)methyl]oxolan-2-one
Formula: C18H18O4
Exact mass: 298.1205
SMILES: OC1=CC(C[C@H]2COC(=O)[C@@H]2CC2=CC(O)=CC=C2)=CC=C1
InChI: InChI=1S/C18H18O4/c19-15-5-1-3-12(8-15)7-14-11-22-18(21)17(14)10-13-4-2-6-16(20)9-13/h1-6,8-9,14,17,19-20H,7,10-11H2/t14-,17+/m0/s1
Instrument: Q Exactive Orbitrap (Thermo Scientific)
Instrument type: LC-ESI-QFT
Ms type: MS2
Ion mode: NEGATIVE
Ionization: ESI
Fragmentation mode: HCD
Collision energy: 45
Resolution: 17500
Column name: Acquity BEH C18 1.7um, 2.1x150mm (Waters)
Retention time: 15.387 min
Base peak: 297.1133
Precursor m/z: 297.1132
Precursor type: [M-H]-
Precursor intensity: 12858201.49561
m/z	relative intensity	assigned
57.0346	1	C3H5O-
65.0397	10	C5H5-
79.0553	6	C6H7-
81.0345	1	C5H5O-
91.0555	2	C7H7-
92.0269	3	C6H4O-
93.0346	28	C6H5O-
95.0139	3	C5H3O2-
95.0503	4	C6H7O-
103.0554	1	C8H7-
106.0424	14	C7H6O-
107.0502	999	C7H7O-
108.0217	12	C6H4O2-
109.0294	5	C6H5O2-
109.0659	14	C7H9O-
117.0346	1	C8H5O-
119.0502	297	C8H7O-
120.0581	7	C8H8O-
121.0295	113	C7H5O2-
121.0659	450	C8H9O-
130.0424	17	C9H6O-
131.0502	101	C9H7O-
132.0581	44	C9H8O-
133.0659	121	C9H9O-
135.045	9	C8H7O2-
136.0168	1	C7H4O3-
137.0245	6	C7H5O3-
143.0502	36	C10H7O-
144.0581	3	C10H8O-
145.0659	181	C10H9O-
146.0737	47	C10H10O-
147.0452	65	C9H7O2-
149.0606	3	C9H9O2-
152.0479	6	C8H8O3-
157.066	7	C11H9O-
158.0375	3	C10H6O2-
159.0452	9	C10H7O2-
159.0815	7	C11H11O-
161.0607	5	C10H9O2-
165.0557	81	C9H9O3-
171.0454	3	C11H7O2-
173.0609	1	C11H9O2-
181.0659	1	C13H9O-
183.0814	3	C13H11O-
189.0558	312	C11H9O3-
195.0817	5	C14H11O-
211.1125	1	C15H15O-
225.1287	1	C16H17O-
235.1131	4	C17H15O-
237.0924	1	C16H13O2-
249.0928	2	C17H13O2-
251.1078	61	C17H15O2-
253.1234	585	C17H17O2-
279.1032	2	C18H15O3-
297.1131	71	C18H17O4-
