Mass spectrum: N-Ethyl-4-menthane-3-carboxamide; LC-ESI-QFT; MS2; CE: 60; R=17500; [M+H]+
Name: N-Ethyl-4-menthane-3-carboxamide
Name: N-Ethyl-p-menthane-3-carboxamide
Name: N-ethyl-5-methyl-2-propan-2-ylcyclohexane-1-carboxamide
Formula: C13H25NO
Exact mass: 211.1936
SMILES: CCNC(=O)C1CC(C)CCC1C(C)C
InChI: InChI=1S/C13H25NO/c1-5-14-13(15)12-8-10(4)6-7-11(12)9(2)3/h9-12H,5-8H2,1-4H3,(H,14,15)
Instrument: Q Exactive Orbitrap (Thermo Scientific)
Instrument type: LC-ESI-QFT
Ms type: MS2
Ion mode: POSITIVE
Ionization: ESI
Fragmentation mode: HCD
Collision energy: 60
Resolution: 17500
Column name: Acquity BEH C18 1.7um, 2.1x150mm (Waters)
Retention time: 17.986 min
Base peak: 79.0211
Precursor m/z: 212.2009
Precursor type: [M+H]+
Precursor intensity: 93654206.0625
m/z	relative intensity	assigned
53.0022	11	C3HO+
53.0385	10	C4H5+
53.9975	2	C2NO+
55.0542	429	C4H7+
56.0495	14	C3H6N+
57.0699	164	C4H9+
58.0651	33	C3H8N+
59.049	1	C3H7O+
67.0542	44	C5H7+
69.0698	587	C5H9+
70.0651	3	C4H8N+
71.0855	27	C5H11+
72.0443	723	C3H6NO+
74.06	163	C3H8NO+
79.0542	23	C6H7+
81.0699	181	C6H9+
82.065	2	C5H8N+
83.0855	829	C6H11+
84.0807	10	C5H10N+
85.1011	6	C6H13+
86.0965	3	C5H12N+
87.0679	6	C4H9NO+
88.0757	4	C4H10NO+
91.0542	10	C7H7+
93.0699	66	C7H9+
94.0652	3	C6H8N+
95.0855	102	C7H11+
96.0806	1	C6H10N+
97.1012	449	C7H13+
98.0599	4	C5H8NO+
98.0964	2	C6H12N+
100.0757	68	C5H10NO+
100.1119	5	C6H14N+
105.0699	11	C8H9+
107.0855	71	C8H11+
108.0808	1	C7H10N+
109.0647	3	C7H9O+
109.1011	18	C8H13+
110.0964	3	C7H12N+
111.0804	3	C7H11O+
112.0753	1	C6H10NO+
112.1122	1	C7H14N+
114.0913	8	C6H12NO+
121.1011	21	C9H13+
122.0964	3	C8H12N+
123.0803	6	C8H11O+
123.1041	4	C8H13N+
123.1168	78	C9H15+
124.112	12	C8H14N+
125.1325	11	C9H17+
126.0914	6	C7H12NO+
126.1277	1	C8H16N+
127.0992	4	C7H13NO+
128.1071	8	C7H14NO+
136.112	3	C9H14N+
137.1198	1	C9H15N+
137.1325	6	C10H17+
138.1276	4	C9H16N+
139.1483	3	C10H19+
140.107	5	C8H14NO+
140.1433	6	C9H18N+
142.1226	21	C8H16NO+
147.1165	1	C11H15+
149.1325	16	C11H17+
150.1277	7	C10H16N+
152.1433	26	C10H18N+
154.1225	8	C9H16NO+
156.1385	4	C9H18NO+
166.1591	2	C11H20N+
168.1381	15	C10H18NO+
170.1539	805	C10H20NO+
184.1693	3	C11H22NO+
194.1903	16	C13H24N+
196.1691	10	C12H22NO+
210.1848	4	C13H24NO+
212.2008	999	C13H26NO+
