Mass spectrum: Quercetin; LC-ESI-QFT; MS2; CE: 75; R=17500; [M-H]-
Name: Quercetin
Name: 2-(3,4-dihydroxyphenyl)-3,5,7-trihydroxychromen-4-one
Formula: C15H10O7
Exact mass: 302.0427
SMILES: OC1=CC2=C(C(O)=C1)C(=O)C(O)=C(O2)C1=CC(O)=C(O)C=C1
InChI: InChI=1S/C15H10O7/c16-7-4-10(19)12-11(5-7)22-15(14(21)13(12)20)6-1-2-8(17)9(18)3-6/h1-5,16-19,21H
Instrument: Q Exactive Orbitrap (Thermo Scientific)
Instrument type: LC-ESI-QFT
Ms type: MS2
Ion mode: NEGATIVE
Ionization: ESI
Fragmentation mode: HCD
Collision energy: 75
Resolution: 17500
Column name: Acquity BEH C18 1.7um, 2.1x150mm (Waters)
Retention time: 15.510 min
Base peak: 112.9856
Precursor m/z: 301.0354
Precursor type: [M-H]-
Precursor intensity: 1601436.882324
m/z	relative intensity	assigned
63.024	570	C5H3-
65.0033	999	C4HO-
83.0139	379	C4H3O2-
93.0346	334	C6H5O-
95.0139	34	C5H3O2-
107.0138	393	C6H3O2-
108.0217	27	C6H4O2-
109.0295	82	C6H5O2-
117.0344	19	C8H5O-
121.0295	319	C7H5O2-
133.0297	29	C8H5O2-
135.0453	14	C8H7O2-
137.0241	10	C7H5O3-
139.0402	74	C7H7O3-
145.0297	17	C9H5O2-
147.0087	12	C8H3O3-
147.0449	11	C9H7O2-
148.0164	16	C8H4O3-
149.0244	30	C8H5O3-
151.0037	176	C7H3O4-
159.0451	19	C10H7O2-
161.0244	51	C9H5O3-
162.0322	10	C9H6O3-
163.0041	11	C8H3O4-
164.0114	15	C8H4O4-
169.0138	16	C7H5O5-
175.04	15	C10H7O3-
183.0449	20	C12H7O2-
199.0398	12	C12H7O3-
211.0402	10	C13H7O3-
243.029	10	C13H7O5-
