Mass spectrum: CP-409092; LC-ESI-QFT; MS2; CE: 45; R=17500; [M-H]-
Name: CP-409092
Name: 1H-Indole-3-carboxamide, 4,5,6,7-tetrahydro-N-(4-((methylamino)methyl)phenyl)-4-oxo-
Name: N-[4-(methylaminomethyl)phenyl]-4-oxo-1,5,6,7-tetrahydroindole-3-carboxamide
Formula: C17H19N3O2
Exact mass: 297.1477
SMILES: CNCC1=CC=C(NC(=O)C2=CNC3=C2C(=O)CCC3)C=C1
InChI: InChI=1S/C17H19N3O2/c1-18-9-11-5-7-12(8-6-11)20-17(22)13-10-19-14-3-2-4-15(21)16(13)14/h5-8,10,18-19H,2-4,9H2,1H3,(H,20,22)
Instrument: Q Exactive Orbitrap (Thermo Scientific)
Instrument type: LC-ESI-QFT
Ms type: MS2
Ion mode: NEGATIVE
Ionization: ESI
Fragmentation mode: HCD
Collision energy: 45
Resolution: 17500
Column name: Acquity BEH C18 1.7um, 2.1x150mm (Waters)
Retention time: 12.411 min
Base peak: 296.1404
Precursor m/z: 296.1405
Precursor type: [M-H]-
Precursor intensity: 11225282.76147
m/z	relative intensity	assigned
65.9986	2	C3NO-
92.0506	3	C6H6N-
104.0506	3	C7H6N-
106.0662	23	C7H8N-
107.0377	1	C6H5NO-
121.017	1	C6H3NO2-
122.0611	87	C7H8NO-
132.0454	3	C8H6NO-
133.0534	1	C8H7NO-
134.0611	999	C8H8NO-
135.0927	200	C8H11N2-
148.0404	9	C8H6NO2-
149.0481	21	C8H7NO2-
159.0565	5	C9H7N2O-
160.0403	12	C9H6NO2-
170.004	3	C13N-
179.0823	3	C9H11N2O2-
201.994	1	C13NO2-
265.098	2	C16H13N2O2-
266.1061	165	C16H14N2O2-
267.114	1	C16H15N2O2-
280.1096	2	C16H14N3O2-
296.1404	378	C17H18N3O2-
