Mass spectrum: Thidiazuron; LC-ESI-QFT; MS2; CE: 45; R=17500; [M+H]+
Name: Thidiazuron
Name: 1-phenyl-3-(thiadiazol-5-yl)urea
Formula: C9H8N4OS
Exact mass: 220.0419
SMILES: O=C(NC1=CN=NS1)NC1=CC=CC=C1
InChI: InChI=1S/C9H8N4OS/c14-9(12-8-6-10-13-15-8)11-7-4-2-1-3-5-7/h1-6H,(H2,11,12,14)
Instrument: Q Exactive Orbitrap (Thermo Scientific)
Instrument type: LC-ESI-QFT
Ms type: MS2
Ion mode: POSITIVE
Ionization: ESI
Fragmentation mode: HCD
Collision energy: 45
Resolution: 17500
Column name: Acquity BEH C18 1.7um, 2.1x150mm (Waters)
Retention time: 15.561 min
Base peak: 79.0211
Precursor m/z: 221.0492
Precursor type: [M+H]+
Precursor intensity: 5331899.625
m/z	relative intensity	assigned
59.9903	1	CH2NS+
71.9902	2	C2H2NS+
74.0058	3	C2H4NS+
91.0543	3	C7H7+
92.0495	4	C6H6N+
94.0651	54	C6H8N+
95.0492	1	C6H7O+
102.012	999	C2H4N3S+
120.0443	14	C7H6NO+
127.9913	102	C3H2N3OS+
130.9818	2	C7HNS+
144.9976	2	C8H3NS+
159.0131	2	C9H5NS+
221.0491	16	C9H9N4OS+
