Mass spectrum: Dulcin; LC-ESI-QFT; MS2; CE: 30; R=17500; [M+H]+
Name: Dulcin
Name: (4-ethoxyphenyl)urea
Formula: C9H12N2O2
Exact mass: 180.0899
SMILES: CCOC1=CC=C(NC(N)=O)C=C1
InChI: InChI=1S/C9H12N2O2/c1-2-13-8-5-3-7(4-6-8)11-9(10)12/h3-6H,2H2,1H3,(H3,10,11,12)
Instrument: Q Exactive Orbitrap (Thermo Scientific)
Instrument type: LC-ESI-QFT
Ms type: MS2
Ion mode: POSITIVE
Ionization: ESI
Fragmentation mode: HCD
Collision energy: 30
Resolution: 17500
Column name: Acquity BEH C18 1.7um, 2.1x150mm (Waters)
Retention time: 13.186 min
Base peak: 79.0211
Precursor m/z: 181.0972
Precursor type: [M+H]+
Precursor intensity: 10841103.15625
m/z	relative intensity	assigned
92.0497	2	C6H6N+
93.0573	1	C6H7N+
108.0444	33	C6H6NO+
109.0522	7	C6H7NO+
110.0601	77	C6H8NO+
111.0441	1	C6H7O2+
135.0683	11	C8H9NO+
136.0759	296	C8H10NO+
137.0836	2	C8H11NO+
138.0914	356	C8H12NO+
153.0662	2	C7H9N2O2+
153.0789	2	C8H11NO2+
164.0706	56	C9H10NO2+
181.0972	999	C9H13N2O2+
