Mass spectrum: AM580; LC-ESI-QFT; MS2; CE: 75; R=17500; [M+H]+
Name: AM580
Name: 4-{[(5,5,8,8-Tetramethyl-5,6,7,8-tetrahydronaphthalen-2-yl)carbonyl]amino}benzoic acid
Name: 4-[(5,5,8,8-tetramethyl-6,7-dihydronaphthalene-2-carbonyl)amino]benzoic acid
Formula: C22H25NO3
Exact mass: 351.1834
SMILES: CC1(C)CCC(C)(C)C2=C1C=CC(=C2)C(=O)NC1=CC=C(C=C1)C(O)=O
InChI: InChI=1S/C22H25NO3/c1-21(2)11-12-22(3,4)18-13-15(7-10-17(18)21)19(24)23-16-8-5-14(6-9-16)20(25)26/h5-10,13H,11-12H2,1-4H3,(H,23,24)(H,25,26)
Instrument: Q Exactive Orbitrap (Thermo Scientific)
Instrument type: LC-ESI-QFT
Ms type: MS2
Ion mode: POSITIVE
Ionization: ESI
Fragmentation mode: HCD
Collision energy: 75
Resolution: 17500
Column name: Acquity BEH C18 1.7um, 2.1x150mm (Waters)
Retention time: 19.378 min
Base peak: 79.0211
Precursor m/z: 352.1907
Precursor type: [M+H]+
Precursor intensity: 6720733.125
m/z	relative intensity	assigned
53.0022	10	C3HO+
53.0386	15	C4H5+
55.0179	4	C3H3O+
55.0542	20	C4H7+
57.0699	67	C4H9+
65.0386	219	C5H5+
66.0464	30	C5H6+
67.0542	35	C5H7+
69.0699	61	C5H9+
71.0854	7	C5H11+
77.0386	7	C6H5+
78.0464	10	C6H6+
79.0542	44	C6H7+
80.0494	3	C5H6N+
81.0335	21	C5H5O+
81.0699	48	C6H9+
83.0854	8	C6H11+
89.0386	10	C7H5+
90.0339	5	C6H4N+
90.0464	25	C7H6+
91.0543	890	C7H7+
92.0496	7	C6H6N+
93.0336	12	C6H5O+
93.0699	43	C7H9+
94.0416	6	C6H6O+
95.0492	59	C6H7O+
95.0856	34	C7H11+
103.0543	84	C8H7+
104.0621	10	C8H8+
105.0699	336	C8H9+
107.0492	10	C7H7O+
107.0855	33	C8H11+
108.0444	245	C6H6NO+
111.0441	9	C6H7O2+
115.0543	169	C9H7+
116.0621	247	C9H8+
117.0699	287	C9H9+
118.0413	137	C8H6O+
118.0776	29	C9H10+
119.0856	180	C9H11+
120.0444	4	C7H6NO+
121.0284	71	C7H5O2+
121.0648	27	C8H9O+
121.1013	7	C9H13+
122.0364	14	C7H6O2+
124.0758	24	C7H10NO+
128.062	28	C10H8+
129.0699	151	C10H9+
130.0778	122	C10H10+
131.0493	234	C9H7O+
131.0856	853	C10H11+
132.057	27	C9H8O+
132.0935	17	C10H12+
133.0648	7	C9H9O+
133.1012	56	C10H13+
135.0441	13	C8H7O2+
135.0804	47	C9H11O+
136.0394	248	C7H6NO2+
136.0519	39	C8H8O2+
139.039	26	C7H7O3+
141.07	5	C11H9+
142.0775	24	C11H10+
143.0856	175	C11H11+
144.0809	4	C10H10N+
144.0934	74	C11H12+
145.0649	434	C10H9O+
145.1012	725	C11H13+
146.0237	4	C8H4NO2+
146.0726	27	C10H10O+
146.1089	3	C11H14+
147.0806	4	C10H11O+
147.1166	5	C11H15+
148.0522	3	C9H8O2+
149.0962	10	C10H13O+
150.0676	98	C9H10O2+
155.0857	7	C12H11+
156.0934	4	C12H12+
157.1013	371	C12H13+
158.1092	65	C12H14+
159.0805	99	C11H11O+
159.1169	187	C12H15+
162.0675	8	C10H10O2+
164.0342	40	C8H6NO3+
165.0698	7	C13H9+
168.066	7	C8H10NO3+
170.1091	11	C13H14+
171.1172	13	C13H15+
172.1247	384	C13H16+
173.0959	17	C12H13O+
176.083	15	C11H12O2+
180.0808	7	C13H10N+
187.1483	30	C14H19+
192.0818	3	C14H10N+
200.1197	330	C14H16O+
204.1146	463	C13H16O2+
205.1588	5	C14H21O+
208.0763	15	C14H10NO+
210.0911	3	C14H12NO+
215.1431	999	C15H19O+
226.0863	7	C14H12NO2+
236.0708	3	C15H10NO2+
254.0825	3	C15H12NO3+
264.1021	3	C17H14NO2+
