Mass spectrum: C.I. Solvent Yellow 14; LC-ESI-QFT; MS2; CE: 15; R=17500; [M+H]+
Name: C.I. Solvent Yellow 14
Name: 1-phenyldiazenylnaphthalen-2-ol
Formula: C16H12N2O
Exact mass: 248.0950
SMILES: OC1=CC=C2C=CC=CC2=C1N=NC1=CC=CC=C1
InChI: InChI=1S/C16H12N2O/c19-15-11-10-12-6-4-5-9-14(12)16(15)18-17-13-7-2-1-3-8-13/h1-11,19H
Instrument: Q Exactive Orbitrap (Thermo Scientific)
Instrument type: LC-ESI-QFT
Ms type: MS2
Ion mode: POSITIVE
Ionization: ESI
Fragmentation mode: HCD
Collision energy: 15
Resolution: 17500
Column name: Acquity BEH C18 1.7um, 2.1x150mm (Waters)
Retention time: 20.798 min
Base peak: 79.0211
Precursor m/z: 249.1022
Precursor type: [M+H]+
Precursor intensity: 1668329.53125
m/z	relative intensity	assigned
92.0495	5	C6H6N+
93.0574	244	C6H7N+
128.0498	5	C9H6N+
156.0444	292	C10H6NO+
221.1077	9	C15H13N2+
231.0917	79	C16H11N2+
232.0787	49	C16H10NO+
232.0997	432	C16H12N2+
233.0834	7	C16H11NO+
248.0952	9	C16H12N2O+
249.1021	999	C16H13N2O+
