Mass spectrum: Thiazopyr; LC-ESI-QFT; MS2; CE: 90; R=17500; [M+H]+
Name: Thiazopyr
Name: methyl 2-(difluoromethyl)-5-(4,5-dihydro-1,3-thiazol-2-yl)-4-(2-methylpropyl)-6-(trifluoromethyl)pyridine-3-carboxylate
Formula: C16H17F5N2O2S
Exact mass: 396.0931
SMILES: COC(=O)C1=C(CC(C)C)C(C2=NCCS2)=C(N=C1C(F)F)C(F)(F)F
InChI: InChI=1S/C16H17F5N2O2S/c1-7(2)6-8-9(15(24)25-3)11(13(17)18)23-12(16(19,20)21)10(8)14-22-4-5-26-14/h7,13H,4-6H2,1-3H3
Instrument: Q Exactive Orbitrap (Thermo Scientific)
Instrument type: LC-ESI-QFT
Ms type: MS2
Ion mode: POSITIVE
Ionization: ESI
Fragmentation mode: HCD
Collision energy: 90
Resolution: 17500
Column name: Acquity BEH C18 1.7um, 2.1x150mm (Waters)
Retention time: 18.344 min
Base peak: 79.0211
Precursor m/z: 397.1004
Precursor type: [M+H]+
Precursor intensity: 21293647.75
m/z	relative intensity	assigned
53.0022	13	C3HO+
57.9872	11	C2H2S+
58.995	146	C2H3S+
60.0028	131	C2H4S+
61.0106	999	C2H5S+
62.9699	22	CFS+
68.9793	19	C3HS+
68.9947	16	CF3+
73.0647	10	C4H9O+
76.0215	19	C2H6NS+
88.0214	4	C3H6NS+
96.0055	8	C2HF3N+
103.0542	12	C8H7+
107.0292	12	C7H4F+
107.9714	12	C2F2NS+
114.0338	24	C8H4N+
115.0542	34	C9H7+
116.0493	5	F5H7N+
121.045	3	C8H6F+
122.04	20	C7H5FN+
127.0354	11	C7H5F2+
127.0542	17	C10H7+
128.0496	34	C9H6N+
128.062	62	C10H8+
129.0447	37	C8H5N2+
129.07	29	C10H9+
130.0651	13	C9H8N+
131.0603	6	C8H7N2+
133.0448	68	C9H6F+
134.0399	34	C8H5FN+
136.9932	15	C6H3NOS+
139.0013	40	C7H4FS+
140.0307	10	C7H4F2N+
140.0495	62	C10H6N+
141.0574	10	C10H7N+
142.0651	10	C10H8N+
144.0808	8	C10H10N+
145.0648	37	C10H9O+
146.0059	92	C8H4NS+
146.0401	14	C9H5FN+
146.0527	29	C10H7F+
146.06	9	C9H8NO+
147.0137	5	C8H5NS+
147.0355	18	C8H4FN2+
147.0604	46	C10H8F+
148.0558	30	C9H7FN+
149.0511	20	C8H6FN2+
151.0355	14	C9H5F2+
151.9967	15	C7H3FNS+
152.0308	23	C8H4F2N+
152.0499	10	C11H6N+
153.0044	27	C7H4FNS+
153.0383	9	C8H5F2N+
153.045	9	C10H5N2+
153.0512	7	C9H7F2+
154.0651	124	C11H8N+
155.0604	82	C10H7N2+
156.0683	13	C10H8N2+
156.9919	13	C7H3F2S+
158.0212	34	C7H3F3N+
158.0401	43	C10H5FN+
159.0355	15	C9H4FN2+
159.048	22	C10H6FN+
159.0553	11	C9H7N2O+
160.0092	4	C8H4N2S+
160.0436	27	C9H5FN2+
160.0557	29	C10H7FN+
161.0168	31	C8H5N2S+
161.051	12	C9H6FN2+
163.0557	5	C10H8FO+
163.9964	55	C8H3FNS+
164.0309	15	C9H4F2N+
164.0433	8	C10H6F2+
165.0259	42	C8H3F2N2+
165.0516	7	C10H7F2+
166.0123	45	C8H5FNS+
166.0529	9	C11H6N2+
167.0419	11	C8H5F2N2+
169.0765	8	C11H9N2+
170.021	31	C8H3F3N+
170.06	25	C11H8NO+
171.0355	25	C10H4FN2+
171.0479	10	C11H6FN+
172.0216	19	C10H6NS+
172.0557	44	C11H7FN+
173.0169	44	C9H5N2S+
173.0509	37	C10H6FN2+
173.0708	23	C2H10F5N2O+
174.0247	19	C9H6N2S+
174.0714	63	C11H9FN+
175.0322	9	CH8F5N2S+
175.0668	18	C10H8FN2+
175.0797	9	C11H10FN+
177.0043	33	C9H4FNS+
177.9996	32	C8H3FN2S+
178.012	41	C9H5FNS+
178.0335	13	C9H4F2N2+
178.0465	14	C10H6F2N+
178.0664	19	C10H9FNO+
179.0075	28	C8H4FN2S+
179.0203	4	C9H6FNS+
179.0419	34	C9H5F2N2+
179.9913	8	C8H3FNOS+
180.0622	7	C10H8F2N+
181.0573	8	C9H7F2N2+
181.0763	10	C12H9N2+
181.9871	52	C8H2F2NS+
182.0415	9	C9H6F2NO+
182.9946	20	C8H3F2NS+
183.043	4	C7H7F4O+
184.0025	102	C8H4F2NS+
184.0232	43	C8H7FNOS+
184.037	11	C9H5F3N+
184.0555	17	C12H7FN+
185.032	28	C8H4F3N2+
185.0515	23	C11H6FN2+
185.0713	7	C11H9N2O+
186.0179	28	C8H6F2NS+
186.0381	6	C8H9FNOS+
186.0591	42	C11H7FN2+
186.0712	4	C12H9FN+
187.0319	16	C2H8F5N2S+
187.0667	32	C11H8FN2+
187.9968	22	C10H3FNS+
188.0409	6	C7H9FN2OS+
188.0504	42	C11H7FNO+
189.0383	24	C11H5F2N+
190.0124	21	C10H5FNS+
190.0463	50	C11H6F2N+
191.0077	19	C9H4FN2S+
191.0417	109	C10H5F2N2+
191.0617	5	C10H8FN2O+
192.0155	18	C9H5FN2S+
192.0273	16	C10H7FNS+
192.062	12	C11H8F2N+
192.082	43	C11H11FNO+
193.0216	102	C6H4F3N2O2+
193.0773	29	C10H10FN2O+
194.0073	13	C9H5FNOS+
194.0215	8	C10H3F3N+
194.0774	10	C11H10F2N+
194.9938	6	C6HF4NO2+
195.0025	13	C8H4FN2OS+
195.0165	64	C9H2F3N2+
195.9904	96	C8H2F2N2S+
196.0027	30	C9H4F2NS+
196.0235	14	C6H8F2NO2S+
196.9981	56	C8H3F2N2S+
197.0518	45	C9H7F2N2O+
198.0059	56	C8H4F2N2S+
198.0182	14	C9H6F2NS+
198.9901	10	C8H3F2NOS+
199.0328	16	C11H7N2S+
199.0481	20	C9H6F3N2+
199.0673	21	C9H9F2N2O+
199.0868	10	C12H11N2O+
201.0274	16	C8H4F3N2O+
201.0473	5	C8H7F2N2O2+
201.0822	30	C12H10FN2+
201.9932	72	C8H3F3NS+
202.0132	8	C8H6F2NOS+
202.0469	12	C9H7F3NO+
202.0665	11	C12H9FNO+
203.043	30	C8H6F3N2O+
204.0153	43	C10H5FN2S+
204.0288	20	C8H8F2NOS+
204.0504	7	C8H7F3N2O+
204.0621	9	C12H8F2N+
205.0231	90	C10H6FN2S+
205.0413	7	C5H9F4N2S+
205.0571	33	C11H7F2N2+
206.0413	5	C11H6F2NO+
206.0651	61	C11H8F2N2+
207.0017	14	C9H4FN2OS+
207.0731	9	C11H9F2N2+
208.0025	108	C10H4F2NS+
208.036	5	C8H10F2O2S+
208.0566	6	C11H8F2NO+
208.9981	135	C9H3F2N2S+
209.0527	10	C7H8F3N2O2+
210.0173	4	C7H4F4NO2+
210.0389	17	C10H9FNOS+
210.0527	30	C11H7F3N+
211.0139	28	C9H5F2N2S+
211.0329	30	C12H7N2S+
211.0477	28	C10H6F3N2+
211.0676	4	C10H9F2N2O+
211.9979	11	C9H4F2NOS+
212.9936	36	C5H4F3N2O2S+
213.0271	124	C9H4F3N2O+
213.0473	9	C9H7F2N2O2+
214.0132	11	C9H6F2NOS+
214.9887	247	C8H2F3N2S+
215.0075	57	C11H4FN2S+
215.0226	21	C9H3F4N2+
215.0612	18	C12H8FN2O+
215.9965	55	C8H3F3N2S+
216.0493	6	C12H6F2N2+
217.0234	21	C11H6FN2S+
217.057	32	C12H7F2N2+
217.0766	6	C15H9N2+
218.0303	8	C11H7FN2S+
219.003	5	C7H5F2N2O2S+
219.0373	35	C8H6F3N2O2+
219.073	11	C12H9F2N2+
219.9831	16	C8H2F4NS+
221.0182	56	C10H6FN2OS+
221.0326	22	C11H4F3N2+
221.0522	9	C11H7F2N2O+
221.0881	7	C9H16FNO2S+
222.0257	24	C10H7FN2OS+
222.04	28	C11H5F3N2+
222.0728	11	C12H10F2NO+
223.0137	138	C10H5F2N2S+
223.0679	16	C11H9F2N2O+
223.9979	44	C10H4F2NOS+
224.0214	58	C10H6F2N2S+
224.0557	4	C11H7F3N2+
224.0684	7	C12H9F3N+
224.993	55	C9H3F2N2OS+
225.0291	125	C10H7F2N2S+
225.9811	8	C9HF3N2S+
226.0121	6	C13H5FNS+
226.9886	55	C9H2F3N2S+
227.0086	26	C9H5F2N2OS+
227.9964	44	C9H3F3N2S+
228.0093	43	C10H5F3NS+
228.0626	7	C11H9F3NO+
229.0044	81	C9H4F3N2S+
229.0177	5	C12H3F2N2O+
229.0225	10	C12H3F2N2O+
229.0585	7	C10H8F3N2O+
229.0774	8	C13H10FN2O+
229.988	15	C9H3F3NOS+
230.012	75	C9H5F3N2S+
230.0448	20	C10H10F2NOS+
230.9839	7	C8H2F3N2OS+
231.0023	16	C11H4FN2OS+
231.0384	32	C12H8FN2S+
231.0541	12	C7H8F5N2O+
231.0733	5	C13H13NOS+
232.0103	11	C11H5FN2OS+
232.0242	5	C12H3F3N2+
232.9794	30	C8HF4N2S+
232.9992	79	C8H4F3N2OS+
233.0182	7	C11H6FN2OS+
233.0333	32	C9H5F4N2O+
233.052	24	C12H7F2N2O+
234.0007	9	C14F2N2+
234.0058	9	C14F2N2+
234.0598	11	C12H8F2N2O+
234.9954	23	C5H4F5N2OS+
235.014	73	C11H5F2N2S+
235.0334	7	C11H8FN2OS+
235.049	11	C9H7F4N2O+
235.0677	17	C12H9F2N2O+
236.0072	5	C15H2F2O+
236.0207	13	C8H4F4N2O2+
236.0552	5	C9H12F2NO2S+
236.993	51	C10H3F2N2OS+
237.0291	12	C11H7F2N2S+
237.0639	12	C12H8F3N2+
238.0716	3	C12H9F3N2+
239.0086	8	C10H5F2N2OS+
240.988	10	C9H3F2N2O2S+
241.0044	19	C10H4F3N2S+
241.0241	29	C10H7F2N2OS+
242.0121	30	C15H2N2O2+
242.9835	129	C9H2F3N2OS+
243.0198	248	C10H6F3N2S+
243.991	24	C9H3F3N2OS+
244.0042	31	C10H5F3NOS+
244.9992	33	C9H4F3N2OS+
245.0535	12	C10H8F3N2O2+
245.9868	24	C9H2F4N2S+
246.0216	4	C10H3F5N2+
246.9948	39	C9H3F4N2S+
247.0147	8	C9H6F3N2OS+
247.0486	5	C10H7F4N2O+
248.0024	62	C9H4F4N2S+
248.0158	10	C7H7F5NOS+
249.0111	40	C6H6F5N2OS+
249.0834	6	C13H11F2N2O+
250.0208	8	C11H7FN2O2S+
251.0086	67	C11H5F2N2OS+
251.0438	4	C12H9F2N2S+
252.0161	16	C11H6F2N2OS+
252.0289	5	C12H8F2NOS+
253.0244	14	C11H7F2N2OS+
254.0123	13	C11H5F3N2S+
255.0199	109	C11H6F3N2S+
255.0378	18	C11H6F3N2O2+
256.0439	4	C14H10NO2S+
256.0591	4	C15H11FNS+
256.9994	22	C10H4F3N2OS+
257.0137	3	C13H3F2N2O2+
257.0359	11	C11H8F3N2S+
258.0074	11	C10H5F3N2OS+
258.0264	13	C10H8F2N2O2S+
258.0406	3	C11H6F4N2O+
259.015	11	C10H6F3N2OS+
260.9942	25	C9H4F3N2O2S+
261.0106	24	C10H5F4N2S+
262.0183	59	C10H6F4N2S+
263.9973	8	C9H4F4N2OS+
264.9885	8	C11H3F2N2O2S+
265.0053	6	C9H5F4N2OS+
265.0599	10	C10H9F4N2O2+
269.0191	18	C11H7F2N2O2S+
270.9791	14	C10H2F3N2O2S+
271.0147	261	C11H6F3N2OS+
271.9849	5	C13H2F2N2OS+
272	24	C11HF5N2O+
272.0229	14	C11H7F3N2OS+
272.9942	22	C10H4F3N2O2S+
273.0105	8	C11H5F4N2S+
273.0302	7	C11H8F3N2OS+
274.0185	12	C11H6F4N2S+
275.026	208	C11H7F4N2S+
276.0181	7	C10H7F3N2O2S+
276.0337	41	C11H8F4N2S+
277.0055	29	C10H5F4N2OS+
279.0037	12	C12H5F2N2O2S+
279.9927	7	C9H4F4N2O2S+
280.04	4	C14H9F3NS+
283.0153	6	C12H6F3N2OS+
288.0303	3	C15H4F4N2+
289.0251	8	C11H8F3N2O2S+
290.985	11	C10H3F4N2O2S+
291.0208	57	C11H7F4N2OS+
291.9926	4	C10H4F4N2O2S+
294.0082	39	C10H6F4N2O2S+
299.0098	67	C12H6F3N2O2S+
300.0174	15	C12H7F3N2O2S+
317.0207	10	C15H7F2N2O2S+
319.016	39	C12H7F4N2O2S+
