Mass spectrum: AVE3295; LC-ESI-QFT; MS2; CE: 45; R=17500; [M+H]+
Name: AVE3295
Name: 5-Fluoro-N-[(1S)-1-phenylpropyl]-2-[(quinolin-8-ylsulfonyl)amino]benzamide
Name: 5-fluoro-N-[(1S)-1-phenylpropyl]-2-(quinolin-8-ylsulfonylamino)benzamide
Formula: C25H22FN3O3S
Exact mass: 463.1366
SMILES: CC[C@H](NC(=O)c1cc(F)ccc1NS(=O)(=O)c1cccc2cccnc12)c1ccccc1
InChI: InChI=1S/C25H22FN3O3S/c1-2-21(17-8-4-3-5-9-17)28-25(30)20-16-19(26)13-14-22(20)29-33(31,32)23-12-6-10-18-11-7-15-27-24(18)23/h3-16,21,29H,2H2,1H3,(H,28,30)/t21-/m0/s1
Instrument: Q Exactive Orbitrap (Thermo Scientific)
Instrument type: LC-ESI-QFT
Ms type: MS2
Ion mode: POSITIVE
Ionization: ESI
Fragmentation mode: HCD
Collision energy: 45
Resolution: 17500
Column name: Acquity BEH C18 1.7um, 2.1x150mm (Waters)
Retention time: 17.503 min
Base peak: 79.0211
Precursor m/z: 464.1439
Precursor type: [M+H]+
Precursor intensity: 17272407.5
m/z	relative intensity	assigned
65.0384	5	FH4N3+
91.0541	914	C7H7+
105.0573	1	C7H7N+
106.065	6	C7H8N+
119.0854	79	C9H11+
128.0493	22	C9H6N+
129.0574	1	C9H7N+
134.0963	38	C9H12N+
137.0271	1	C7H4FNO+
138.0349	47	C7H5FNO+
144.0444	2	C9H6NO+
146.0599	33	C9H8NO+
154.0535	26	C7H7FN2O+
155.0376	10	C7H6FNO2+
156.0444	1	C10H6NO+
156.0552	1	C9H6N3+
160.0214	10	C9H6NS+
160.0754	3	C10H10NO+
161.0292	7	C9H7NS+
170.061	1	C8H9FNO2+
174.0551	1	C10H8NO2+
177.0241	1	C9H7NOS+
192.0112	21	C9H6NO2S+
194.027	1	C9H8NO2S+
210.0218	50	C9H8NO3S+
217.0759	1	C15H9N2+
224.0373	1	C10H10NO3S+
236.0745	3	C15H9FN2+
237.0824	5	C15H10FN2+
243.0926	3	C14H12FN2O+
264.0693	15	C16H9FN2O+
265.0769	999	C13H15NO3S+
329.0388	24	C16H10FN2O3S+
