Mass spectrum: Cyprodinil; LC-ESI-QFT; MS2; CE: 45; R=17500; [M+H]+
Name: Cyprodinil
Name: 4-cyclopropyl-6-methyl-N-phenylpyrimidin-2-amine
Formula: C14H15N3
Exact mass: 225.1266
SMILES: CC1=NC(NC2=CC=CC=C2)=NC(=C1)C1CC1
InChI: InChI=1S/C14H15N3/c1-10-9-13(11-7-8-11)17-14(15-10)16-12-5-3-2-4-6-12/h2-6,9,11H,7-8H2,1H3,(H,15,16,17)
Instrument: Q Exactive Orbitrap (Thermo Scientific)
Instrument type: LC-ESI-QFT
Ms type: MS2
Ion mode: POSITIVE
Ionization: ESI
Fragmentation mode: HCD
Collision energy: 45
Resolution: 17500
Column name: Acquity BEH C18 1.7um, 2.1x150mm (Waters)
Retention time: 17.671 min
Base peak: 79.0211
Precursor m/z: 226.1339
Precursor type: [M+H]+
Precursor intensity: 53901545.34375
m/z	relative intensity	assigned
67.0541	2	C5H7+
79.0542	1	C6H7+
80.0494	1	C5H6N+
81.0697	1	C6H9+
82.0651	1	C5H8N+
91.0542	4	C7H7+
92.0494	4	C6H6N+
93.0573	10	C6H7N+
94.0651	1	C6H8N+
106.0651	7	C7H8N+
108.0683	1	C6H8N2+
108.0807	32	C7H10N+
109.076	2	C6H9N2+
116.0493	1	C8H6N+
117.0573	1	C8H7N+
118.0525	2	C7H6N2+
118.065	4	C8H8N+
119.0603	9	C7H7N2+
123.0917	4	C7H11N2+
131.0604	1	C8H7N2+
132.0681	2	C8H8N2+
133.076	19	C8H9N2+
143.0603	2	C9H7N2+
144.0807	15	C10H10N+
145.076	2	C9H9N2+
159.0917	5	C10H11N2+
168.0808	2	C12H10N+
169.0759	1	C11H9N2+
183.0917	1	C12H11N2+
184.0869	6	C11H10N3+
185.1073	11	C12H13N2+
194.0833	1	C13H10N2+
197.095	1	C12H11N3+
198.1026	2	C12H12N3+
209.1074	10	C14H13N2+
210.1025	12	C13H12N3+
211.1103	5	C13H13N3+
224.1182	2	C14H14N3+
226.1337	999	C14H16N3+
