Mass spectrum: Thiabendazole; LC-ESI-QFT; MS2; CE: 90; R=17500; [M+H]+
Name: Thiabendazole
Name: 4-(1H-benzimidazol-2-yl)-1,3-thiazole
Formula: C10H7N3S
Exact mass: 201.0361
SMILES: N1C2=C(C=CC=C2)N=C1C1=CSC=N1
InChI: InChI=1S/C10H7N3S/c1-2-4-8-7(3-1)12-10(13-8)9-5-14-6-11-9/h1-6H,(H,12,13)
Instrument: Q Exactive Orbitrap (Thermo Scientific)
Instrument type: LC-ESI-QFT
Ms type: MS2
Ion mode: POSITIVE
Ionization: ESI
Fragmentation mode: HCD
Collision energy: 90
Resolution: 17500
Column name: Acquity BEH C18 1.7um, 2.1x150mm (Waters)
Retention time: 11.145 min
Base peak: 79.0212
Precursor m/z: 202.0433
Precursor type: [M+H]+
Precursor intensity: 28469943
m/z	relative intensity	assigned
65.0385	274	C5H5+
74.0058	1	C2H4NS+
77.0386	1	C6H5+
83.9903	2	C3H2NS+
92.0494	230	C6H6N+
93.0572	3	C6H7N+
104.0494	56	C7H6N+
111.001	3	C4H3N2S+
116.0494	2	C8H6N+
117.0573	2	C8H7N+
118.0525	11	C7H6N2+
119.0603	4	C7H7N2+
129.0447	6	C8H5N2+
131.0603	999	C8H7N2+
134.0058	23	C7H4NS+
142.0525	6	C9H6N2+
143.0604	81	C9H7N2+
148.0215	4	C8H6NS+
151.0326	1	C7H7N2S+
156.0555	1	C9H6N3+
157.0633	12	C9H7N3+
158.0712	29	C9H8N3+
161.0165	2	C8H5N2S+
162.0244	2	C8H6N2S+
168.0556	3	C10H6N3+
169.0633	6	C10H7N3+
170.0712	18	C10H8N3+
174.0246	3	C9H6N2S+
175.0324	980	C9H7N2S+
202.0433	172	C10H8N3S+
