Mass spectrum: 2,2`-(3-Chlorophenylimino)diethanol; LC-ESI-QFT; MS2; CE: 75; R=17500; [M+H]+
Name: 2,2'-(3-Chlorophenylimino)diethanol
Name: 3-Chloro-N,N-bis(2-hydroxyethyl)aniline
Name: 2-[3-chloro-N-(2-hydroxyethyl)anilino]ethanol
Formula: C10H14ClNO2
Exact mass: 215.0713
SMILES: OCCN(CCO)C1=CC(Cl)=CC=C1
InChI: InChI=1S/C10H14ClNO2/c11-9-2-1-3-10(8-9)12(4-6-13)5-7-14/h1-3,8,13-14H,4-7H2
Instrument: Q Exactive Orbitrap (Thermo Scientific)
Instrument type: LC-ESI-QFT
Ms type: MS2
Ion mode: POSITIVE
Ionization: ESI
Fragmentation mode: HCD
Collision energy: 75
Resolution: 17500
Column name: Acquity BEH C18 1.7um, 2.1x150mm (Waters)
Retention time: 15.559 min
Base peak: 79.0212
Precursor m/z: 216.0786
Precursor type: [M+H]+
Precursor intensity: 5624919.3125
m/z	relative intensity	assigned
51.023	2	C4H3+
53.0386	7	C4H5+
75.0229	3	C6H3+
77.0386	3	C6H5+
86.9996	7	C4H4Cl+
91.0542	87	C7H7+
92.062	42	C7H8+
93.0574	54	C6H7N+
95.0492	24	C6H7O+
98.9996	5	C5H4Cl+
102.0464	7	C8H6+
103.0543	28	C8H7+
104.0494	121	C7H6N+
105.0573	6	C7H7N+
106.0652	3	C7H8N+
109.0647	3	C7H9O+
110.9994	4	C6H4Cl+
112.0074	20	C6H5Cl+
113.0153	7	C6H6Cl+
115.0542	6	C9H7+
116.0497	2	C8H6N+
117.0573	119	C8H7N+
118.0651	999	C8H8N+
119.073	953	C8H9N+
125.0153	9	C7H6Cl+
126.0106	23	C6H5ClN+
127.0184	31	C6H6ClN+
127.0308	2	C7H8Cl+
128.0261	42	C6H7ClN+
129.0102	36	C6H6ClO+
130.0651	113	C9H8N+
131.0731	2	C9H9N+
132.0808	254	C9H10N+
134.0601	2	C8H8NO+
137.0154	5	C8H6Cl+
138.0105	58	C7H5ClN+
139.0058	45	C9HNO+
140.0262	579	C7H7ClN+
143.0729	11	C10H9N+
144.0808	113	C10H10N+
145.0886	52	C10H11N+
151.0184	21	C8H6ClN+
152.0262	171	C8H7ClN+
153.034	135	C8H8ClN+
154.0418	993	C8H9ClN+
164.026	27	C9H7ClN+
165.034	4	C9H8ClN+
166.0419	5	C9H9ClN+
172.0516	3	C8H11ClNO+
178.042	4	C10H9ClN+
180.0575	12	C10H11ClN+
198.0681	7	C10H13ClNO+
