Mass spectrum: 4-Nitrosodiphenylamine; LC-ESI-QFT; MS2; CE: 30; R=17500; [M+H]+
Name: 4-Nitrosodiphenylamine
Name: 4-nitroso-N-phenylaniline
Formula: C12H10N2O
Exact mass: 198.0793
SMILES: O=NC1=CC=C(NC2=CC=CC=C2)C=C1
InChI: InChI=1S/C12H10N2O/c15-14-12-8-6-11(7-9-12)13-10-4-2-1-3-5-10/h1-9,13H
Instrument: Q Exactive Orbitrap (Thermo Scientific)
Instrument type: LC-ESI-QFT
Ms type: MS2
Ion mode: POSITIVE
Ionization: ESI
Fragmentation mode: HCD
Collision energy: 30
Resolution: 17500
Column name: Acquity BEH C18 1.7um, 2.1x150mm (Waters)
Retention time: 16.721 min
Base peak: 79.0211
Precursor m/z: 199.0866
Precursor type: [M+H]+
Precursor intensity: 5920596.46875
m/z	relative intensity	assigned
77.0388	1	C6H5+
100.0757	3	C5H10NO+
169.0886	16	C12H11N+
181.076	12	C12H9N2+
182.084	29	C12H10N2+
199.0866	999	C12H11N2O+
