Mass spectrum: CP-409092; LC-ESI-QFT; MS2; CE: 15; R=17500; [M-H]-
Name: CP-409092
Name: 1H-Indole-3-carboxamide, 4,5,6,7-tetrahydro-N-(4-((methylamino)methyl)phenyl)-4-oxo-
Name: N-[4-(methylaminomethyl)phenyl]-4-oxo-1,5,6,7-tetrahydroindole-3-carboxamide
Formula: C17H19N3O2
Exact mass: 297.1477
SMILES: CNCC1=CC=C(NC(=O)C2=CNC3=C2C(=O)CCC3)C=C1
InChI: InChI=1S/C17H19N3O2/c1-18-9-11-5-7-12(8-6-11)20-17(22)13-10-19-14-3-2-4-15(21)16(13)14/h5-8,10,18-19H,2-4,9H2,1H3,(H,20,22)
Instrument: Q Exactive Orbitrap (Thermo Scientific)
Instrument type: LC-ESI-QFT
Ms type: MS2
Ion mode: NEGATIVE
Ionization: ESI
Fragmentation mode: HCD
Collision energy: 15
Resolution: 17500
Column name: Acquity BEH C18 1.7um, 2.1x150mm (Waters)
Retention time: 12.411 min
Base peak: 296.1404
Precursor m/z: 296.1405
Precursor type: [M-H]-
Precursor intensity: 12409174.71533
m/z	relative intensity	assigned
134.061	5	C8H8NO-
266.105	1	C16H14N2O2-
296.1404	999	C17H18N3O2-
