Mass spectrum: Ethyl 2-cyano-3,3-diphenylacrylate; LC-ESI-QFT; MS2; CE: 15; R=17500; [M+H]+
Name: Ethyl 2-cyano-3,3-diphenylacrylate
Name: ethyl 2-cyano-3,3-diphenylprop-2-enoate
Formula: C18H15NO2
Exact mass: 277.1103
SMILES: CCOC(=O)C(C#N)=C(C1=CC=CC=C1)C1=CC=CC=C1
InChI: InChI=1S/C18H15NO2/c1-2-21-18(20)16(13-19)17(14-9-5-3-6-10-14)15-11-7-4-8-12-15/h3-12H,2H2,1H3
Instrument: Q Exactive Orbitrap (Thermo Scientific)
Instrument type: LC-ESI-QFT
Ms type: MS2
Ion mode: POSITIVE
Ionization: ESI
Fragmentation mode: HCD
Collision energy: 15
Resolution: 17500
Column name: Acquity BEH C18 1.7um, 2.1x150mm (Waters)
Retention time: 17.863 min
Base peak: 79.0212
Precursor m/z: 278.1176
Precursor type: [M+H]+
Precursor intensity: 6572033.40625
m/z	relative intensity	assigned
77.0387	2	C6H5+
96.0444	3	C5H6NO+
104.0495	1	C7H6N+
105.0333	9	C7H5O+
129.0333	1	C9H5O+
147.0439	6	C9H7O2+
157.0284	5	C10H5O2+
167.0855	6	C13H11+
178.0782	3	C14H10+
182.0965	4	C13H12N+
183.0804	6	C13H11O+
191.0857	5	C15H11+
203.0731	2	C15H9N+
204.0808	3	C15H10N+
206.0963	3	C15H12N+
207.0808	1	C15H11O+
232.0757	689	C16H10NO+
235.0754	42	C16H11O2+
243.0803	4	C18H11O+
246.0515	24	C16H8NO2+
250.0863	862	C16H12NO2+
260.1072	5	C18H14NO+
264.1015	4	C17H14NO2+
278.1176	999	C18H16NO2+
