Mass spectrum: Roxithromycin; LC-ESI-QFT; MS2; CE: 60; R=17500; [M+H]+
Name: Roxithromycin
Name: (3R,4S,5S,6R,7R,9R,11S,12R,13S,14R)-6-[(2S,3R,4S,6R)-4-(dimethylamino)-3-hydroxy-6-methyloxan-2-yl]oxy-14-ethyl-7,12,13-trihydroxy-4-[(2R,4R,5S,6S)-5-hydroxy-4-methoxy-4,6-dimethyloxan-2-yl]oxy-10-(2-methoxyethoxymethoxyimino)-3,5,7,9,11,13-hexamethyl-oxacyclotetradecan-2-one
Formula: C41H76N2O15
Exact mass: 836.5246
SMILES: CC[C@H]1OC(=O)[C@H](C)[C@@H](O[C@H]2C[C@@](C)(OC)[C@@H](O)[C@H](C)O2)[C@H](C)[C@@H](O[C@@H]2O[C@H](C)C[C@@H]([C@H]2O)N(C)C)[C@](C)(O)C[C@@H](C)C(=NOCOCCOC)[C@H](C)[C@@H](O)[C@]1(C)O
InChI: InChI=1S/C41H76N2O15/c1-15-29-41(10,49)34(45)24(4)31(42-53-21-52-17-16-50-13)22(2)19-39(8,48)36(58-38-32(44)28(43(11)12)18-23(3)54-38)25(5)33(26(6)37(47)56-29)57-30-20-40(9,51-14)35(46)27(7)55-30/h22-30,32-36,38,44-46,48-49H,15-21H2,1-14H3/t22-,23-,24+,25+,26-,27+,28+,29-,30+,32-,33+,34-,35+,36-,38+,39-,40-,41-/m1/s1
Instrument: Q Exactive Orbitrap (Thermo Scientific)
Instrument type: LC-ESI-QFT
Ms type: MS2
Ion mode: POSITIVE
Ionization: ESI
Fragmentation mode: HCD
Collision energy: 60
Resolution: 17500
Column name: Acquity BEH C18 1.7um, 2.1x150mm (Waters)
Retention time: 16.237 min
Base peak: 79.0211
Precursor m/z: 837.5318
Precursor type: [M+H]+
Precursor intensity: 6692718.75
m/z	relative intensity	assigned
58.0651	26	C3H8N+
59.0491	137	C3H7O+
61.0284	1	C2H5O2+
65.0385	2	C5H5+
67.0542	13	C5H7+
68.0494	5	C4H6N+
69.0334	7	C4H5O+
69.0698	11	C5H9+
70.0651	37	C4H8N+
71.0491	7	C4H7O+
71.0729	11	C4H9N+
71.0855	2	C5H11+
72.0807	742	C4H10N+
73.0522	26	C3H7NO+
73.0647	9	C4H9O+
74.0601	1	C3H8NO+
79.0542	12	C6H7+
81.0699	36	C6H9+
82.0652	2	C5H8N+
83.0491	999	C5H7O+
84.0808	69	C5H10N+
85.0284	11	C4H5O2+
85.0647	6	C5H9O+
86.06	8	C4H8NO+
86.0963	3	C5H12N+
87.0441	191	C4H7O2+
87.0678	11	C4H9NO+
88.0757	137	C4H10NO+
89.0596	1	C4H9O2+
91.0542	1	C7H7+
93.0699	1	C7H9+
94.0651	1	C6H8N+
95.049	10	C6H7O+
95.0855	2	C7H11+
96.0808	6	C6H10N+
97.0647	7	C6H9O+
97.1009	1	C7H13+
98.0964	394	C6H12N+
99.0804	6	C6H11O+
99.1041	11	C6H13N+
100.0756	22	C5H10NO+
101.047	1	C4H7NO2+
101.0836	2	C5H11NO+
105.0697	1	C8H9+
107.0854	2	C8H11+
108.0807	1	C7H10N+
109.0648	13	C7H9O+
109.1012	10	C8H13+
110.0964	2	C7H12N+
112.1121	1	C7H14N+
113.0597	27	C6H9O2+
113.0834	1	C6H11NO+
114.0913	20	C6H12NO+
115.0752	1	C6H11O2+
116.0706	200	C5H10NO2+
116.1069	181	C6H14NO+
119.0856	2	C9H11+
121.1011	3	C9H13+
122.0963	1	C8H12N+
123.0804	7	C8H11O+
124.1121	3	C8H14N+
125.0959	4	C8H13O+
127.0753	4	C7H11O2+
127.0987	1	C7H13NO+
128.1067	3	C7H14NO+
134.0952	1	C9H12N+
137.0959	5	C9H13O+
138.0913	1	C8H12NO+
140.1069	3	C8H14NO+
142.1225	1	C8H16NO+
147.1164	2	C11H15+
151.0749	1	C9H11O2+
151.112	1	C10H15O+
158.1175	56	C8H16NO2+
165.1274	1	C11H17O+
175.1111	1	C12H15O+
