Mass spectrum: Dicrotophos; LC-ESI-QFT; MS2; CE: 30; R=17500; [M+H]+
Name: Dicrotophos
Name: [(E)-4-(dimethylamino)-4-oxobut-2-en-2-yl] dimethyl phosphate
Formula: C8H16NO5P
Exact mass: 237.0766
SMILES: COP(=O)(OC)O\C(C)=C\C(=O)N(C)C
InChI: InChI=1S/C8H16NO5P/c1-7(6-8(10)9(2)3)14-15(11,12-4)13-5/h6H,1-5H3/b7-6+
Instrument: Q Exactive Orbitrap (Thermo Scientific)
Instrument type: LC-ESI-QFT
Ms type: MS2
Ion mode: POSITIVE
Ionization: ESI
Fragmentation mode: HCD
Collision energy: 30
Resolution: 17500
Column name: Acquity BEH C18 1.7um, 2.1x150mm (Waters)
Retention time: 11.817 min
Base peak: 79.0211
Precursor m/z: 238.0839
Precursor type: [M+H]+
Precursor intensity: 15341526.625
m/z	relative intensity	assigned
55.0178	1	C3H3O+
55.0544	1	C4H7+
58.0288	1	C2H4NO+
58.0651	8	C3H8N+
67.0178	33	C4H3O+
69.0335	1	C4H5O+
70.0651	17	C4H8N+
72.0444	412	C3H6NO+
81.0335	3	C5H5O+
84.0808	7	C5H10N+
94.0653	1	C6H8N+
110.06	1	C6H8NO+
112.0757	999	C6H10NO+
127.0155	551	C2H8O4P+
193.0261	122	C6H10O5P+
238.0842	6	C8H17NO5P+
