Mass spectrum: PD-0333941; LC-ESI-QFT; MS2; CE: 45; R=17500; [M+H]+
Name: PD-0333941
Name: 3-[4-[2-(5-methyl-2-phenyl-1,3-oxazol-4-yl)ethoxy]indol-1-yl]propanoic acid
Formula: C23H22N2O4
Exact mass: 390.1580
SMILES: CC1=C(CCOC2=CC=CC3=C2C=CN3CCC(O)=O)N=C(O1)C1=CC=CC=C1
InChI: InChI=1S/C23H22N2O4/c1-16-19(24-23(29-16)17-6-3-2-4-7-17)12-15-28-21-9-5-8-20-18(21)10-13-25(20)14-11-22(26)27/h2-10,13H,11-12,14-15H2,1H3,(H,26,27)
Instrument: Q Exactive Orbitrap (Thermo Scientific)
Instrument type: LC-ESI-QFT
Ms type: MS2
Ion mode: POSITIVE
Ionization: ESI
Fragmentation mode: HCD
Collision energy: 45
Resolution: 17500
Column name: Acquity BEH C18 1.7um, 2.1x150mm (Waters)
Retention time: 18.720 min
Base peak: 79.0211
Precursor m/z: 391.1652
Precursor type: [M+H]+
Precursor intensity: 21639397.78125
m/z	relative intensity	assigned
53.0386	1	C4H5+
55.0178	1	C3H3O+
55.0542	9	C4H7+
69.0334	2	C4H5O+
77.0387	2	C6H5+
83.0491	222	C5H7O+
91.0543	2	C7H7+
95.0491	3	C6H7O+
104.0494	635	C7H6N+
105.0335	133	C7H5O+
115.0545	1	C9H7+
117.0697	6	C9H9+
118.0653	1	C8H8N+
119.0365	1	C7H5NO+
120.0402	1	C4H8O4+
120.0446	1	C7H6NO+
122.0599	4	C7H8NO+
128.0621	6	C10H8+
130.0652	4	C9H8N+
131.0854	1	C10H11+
132.0445	2	C8H6NO+
133.0523	7	C8H7NO+
134.0555	5	C5H10O4+
134.0602	1	C8H8NO+
135.0632	1	C5H11O4+
136.0756	7	C8H10NO+
141.0699	1	C11H9+
143.073	12	C10H9N+
144.0808	212	C10H10N+
145.0649	1	C10H9O+
146.06	60	C9H8NO+
148.0762	1	C9H10NO+
149.0471	9	C8H7NO2+
158.0599	8	C10H8NO+
158.0962	8	C11H12N+
162.0549	2	C9H8NO2+
162.0918	1	C10H12NO+
163.0633	16	C9H9NO2+
167.0732	1	C12H9N+
168.0807	5	C12H10N+
170.0598	1	C11H8NO+
172.0757	23	C11H10NO+
174.0913	9	C11H12NO+
176.0706	6	C10H10NO2+
182.0965	2	C13H12N+
184.0759	1	C12H10NO+
185.0836	2	C12H11NO+
186.0913	999	C12H12NO+
187.0992	16	C12H13NO+
188.0704	3	C11H10NO2+
190.0861	6	C11H12NO2+
197.0832	3	C13H11NO+
200.0708	2	C12H10NO2+
205.0735	9	C11H11NO3+
206.0812	11	C11H12NO3+
210.0911	13	C14H12NO+
214.0864	1	C13H12NO2+
218.0811	114	C12H12NO3+
228.1016	9	C14H14NO2+
255.0884	1	C15H13NO3+
270.1123	14	C16H16NO3+
299.0584	1	C19H9NO3+
331.1438	1	C21H19N2O2+
