Mass spectrum: Flufenacet; LC-ESI-QFT; MS2; CE: 30; R=17500; [M+H]+
Name: Flufenacet
Name: N-(4-fluorophenyl)-N-propan-2-yl-2-[[5-(trifluoromethyl)-1,3,4-thiadiazol-2-yl]oxy]acetamide
Formula: C14H13F4N3O2S
Exact mass: 363.0665
SMILES: CC(C)N(C(=O)COC1=NN=C(S1)C(F)(F)F)C1=CC=C(F)C=C1
InChI: InChI=1S/C14H13F4N3O2S/c1-8(2)21(10-5-3-9(15)4-6-10)11(22)7-23-13-20-19-12(24-13)14(16,17)18/h3-6,8H,7H2,1-2H3
Instrument: Q Exactive Orbitrap (Thermo Scientific)
Instrument type: LC-ESI-QFT
Ms type: MS2
Ion mode: POSITIVE
Ionization: ESI
Fragmentation mode: HCD
Collision energy: 30
Resolution: 17500
Column name: Acquity BEH C18 1.7um, 2.1x150mm (Waters)
Retention time: 17.908 min
Base peak: 79.0211
Precursor m/z: 364.0737
Precursor type: [M+H]+
Precursor intensity: 4454695.4375
m/z	relative intensity	assigned
57.07	9	C4H9+
109.045	57	C7H6F+
124.0559	140	C7H7FN+
129.0701	6	C10H9+
143.0858	27	C11H11+
144.0808	17	C10H10N+
152.0507	999	C8H7FNO+
152.0871	84	C9H11FN+
166.1028	13	C10H13FN+
172.0756	24	C11H10NO+
175.9562	32	C3F4O2S+
194.0979	90	C11H13FNO+
346.0384	46	C14H10F4N2O2S+
