Mass spectrum: Diphenylacetonitrile; LC-ESI-QFT; MS2; CE: 15; R=17500; [M+H]+
Name: Diphenylacetonitrile
Name: 2,2-diphenylacetonitrile
Formula: C14H11N
Exact mass: 193.0891
SMILES: N#CC(C1=CC=CC=C1)C1=CC=CC=C1
InChI: InChI=1S/C14H11N/c15-11-14(12-7-3-1-4-8-12)13-9-5-2-6-10-13/h1-10,14H
Instrument: Q Exactive Orbitrap (Thermo Scientific)
Instrument type: LC-ESI-QFT
Ms type: MS2
Ion mode: POSITIVE
Ionization: ESI
Fragmentation mode: HCD
Collision energy: 15
Resolution: 17500
Column name: Acquity BEH C18 1.7um, 2.1x150mm (Waters)
Retention time: 15.768 min
Base peak: 79.0211
Precursor m/z: 194.0964
Precursor type: [M+H]+
Precursor intensity: 1519970.3125
m/z	relative intensity	assigned
193.0892	1	C14H11N+
194.0966	999	C14H12N+
