Mass spectrum: Bioresmethrin; LC-ESI-QFT; MS2; CE: 15; R=17500; [M+H]+
Name: Bioresmethrin
Name: (5-benzylfuran-3-yl)methyl (1R,3R)-2,2-dimethyl-3-(2-methylprop-1-enyl)cyclopropane-1-carboxylate
Formula: C22H26O3
Exact mass: 338.1882
SMILES: CC(C)=C[C@@H]1[C@@H](C(=O)OCC2=COC(CC3=CC=CC=C3)=C2)C1(C)C
InChI: InChI=1S/C22H26O3/c1-15(2)10-19-20(22(19,3)4)21(23)25-14-17-12-18(24-13-17)11-16-8-6-5-7-9-16/h5-10,12-13,19-20H,11,14H2,1-4H3/t19-,20+/m1/s1
Instrument: Q Exactive Orbitrap (Thermo Scientific)
Instrument type: LC-ESI-QFT
Ms type: MS2
Ion mode: POSITIVE
Ionization: ESI
Fragmentation mode: HCD
Collision energy: 15
Resolution: 17500
Column name: Acquity BEH C18 1.7um, 2.1x150mm (Waters)
Retention time: 20.626 min
Base peak: 79.0211
Precursor m/z: 339.1955
Precursor type: [M+H]+
Precursor intensity: 1696566.65625
m/z	relative intensity	assigned
91.0543	43	C7H7+
95.0854	6	C7H11+
117.0703	8	C9H9+
119.0857	4	C9H11+
121.1012	33	C9H13+
123.1169	11	C9H15+
133.1012	5	C10H13+
135.1169	11	C10H15+
139.1118	9	C9H15O+
141.0911	15	C8H13O2+
143.0854	4	C11H11+
149.0959	19	C10H13O+
159.1169	9	C12H15+
167.1068	61	C10H15O2+
171.0805	390	C12H11O+
173.096	12	C12H13O+
173.1327	6	C13H17+
175.1484	22	C13H19+
181.1225	36	C11H17O2+
185.0962	10	C13H13O+
187.1119	5	C13H15O+
199.1125	21	C14H15O+
203.143	28	C14H19O+
205.1224	10	C13H17O2+
225.1277	41	C16H17O+
226.1363	4	C16H18O+
237.1279	7	C17H17O+
239.1433	27	C17H19O+
251.1431	19	C18H19O+
253.1225	4	C17H17O2+
275.1799	5	C21H23+
283.1327	12	C18H19O3+
293.1901	134	C21H25O+
321.1853	96	C22H25O2+
339.1957	999	C22H27O3+
