Mass spectrum: N-Dodecanoyl-N-methylglycine; LC-ESI-QFT; MS2; CE: 15; R=17500; [M+H]+
Name: N-Dodecanoyl-N-methylglycine
Name: N-Lauroylsarcosine
Name: 2-[dodecanoyl(methyl)amino]acetic acid
Formula: C15H29NO3
Exact mass: 271.2147
SMILES: CCCCCCCCCCCC(=O)N(C)CC(O)=O
InChI: InChI=1S/C15H29NO3/c1-3-4-5-6-7-8-9-10-11-12-14(17)16(2)13-15(18)19/h3-13H2,1-2H3,(H,18,19)
Instrument: Q Exactive Orbitrap (Thermo Scientific)
Instrument type: LC-ESI-QFT
Ms type: MS2
Ion mode: POSITIVE
Ionization: ESI
Fragmentation mode: HCD
Collision energy: 15
Resolution: 17500
Column name: Acquity BEH C18 1.7um, 2.1x150mm (Waters)
Retention time: 19.710 min
Base peak: 79.0211
Precursor m/z: 272.222
Precursor type: [M+H]+
Precursor intensity: 10665348.0625
m/z	relative intensity	assigned
57.0698	7	C4H9+
67.0541	1	C5H7+
71.0855	6	C5H11+
74.0963	3	C4H12N+
81.0699	2	C6H9+
83.0855	4	C6H11+
85.1011	5	C6H13+
90.0549	999	C3H8NO2+
95.0855	11	C7H11+
97.101	1	C7H13+
109.1012	10	C8H13+
123.1168	2	C9H15+
129.1148	2	C7H15NO+
165.1639	2	C12H21+
183.1743	30	C12H23O+
186.0523	2	C11H8NO2+
199.0751	3	C13H11O2+
200.0686	1	C12H10NO2+
228.0993	14	C14H14NO2+
254.0781	2	C15H12NO3+
254.2113	4	C15H28NO2+
272.2219	112	C15H30NO3+
