Mass spectrum: Isopropalin; LC-ESI-QFT; MS2; CE: 75; R=17500; [M+H]+
Name: Isopropalin
Name: 2,6-dinitro-4-propan-2-yl-N,N-dipropylaniline
Formula: C15H23N3O4
Exact mass: 309.1689
SMILES: CCCN(CCC)C1=C(C=C(C=C1[N+]([O-])=O)C(C)C)[N+]([O-])=O
InChI: InChI=1S/C15H23N3O4/c1-5-7-16(8-6-2)15-13(17(19)20)9-12(11(3)4)10-14(15)18(21)22/h9-11H,5-8H2,1-4H3
Instrument: Q Exactive Orbitrap (Thermo Scientific)
Instrument type: LC-ESI-QFT
Ms type: MS2
Ion mode: POSITIVE
Ionization: ESI
Fragmentation mode: HCD
Collision energy: 75
Resolution: 17500
Column name: Acquity BEH C18 1.7um, 2.1x150mm (Waters)
Retention time: 20.366 min
Base peak: 79.0212
Precursor m/z: 310.1761
Precursor type: [M+H]+
Precursor intensity: 1342962.625
m/z	relative intensity	assigned
52.0182	74	C3H2N+
53.0022	284	C3HO+
53.0386	151	C4H5+
55.0543	256	C4H7+
57.0335	112	C3H5O+
57.0699	94	C4H9+
58.0653	91	C3H8N+
65.0385	179	C5H5+
67.0543	268	C5H7+
69.0698	131	C5H9+
78.0465	103	C6H6+
79.0543	425	C6H7+
80.0496	137	C5H6N+
89.0385	91	C7H5+
91.0542	964	C7H7+
92.0496	129	C6H6N+
93.0573	160	C6H7N+
93.07	114	C7H9+
94.0652	196	C6H8N+
95.0492	200	C6H7O+
103.0543	91	C8H7+
104.0495	349	C7H6N+
105.0448	275	C6H5N2+
105.0699	133	C8H9+
106.0652	640	C7H8N+
115.054	91	C9H7+
116.0494	362	C8H6N+
117.0573	562	C8H7N+
117.0699	85	C9H9+
118.0526	165	C7H6N2+
118.0652	999	C8H8N+
119.0604	226	C7H7N2+
119.0729	142	C8H9N+
120.0808	214	C8H10N+
121.0399	119	C6H5N2O+
122.0604	82	C7H8NO+
128.0495	93	C9H6N+
130.065	423	C9H8N+
131.0605	427	C8H7N2+
131.0732	101	C9H9N+
132.0445	73	C8H6NO+
132.0683	430	C8H8N2+
132.0806	334	C9H10N+
133.0393	77	C7H5N2O+
133.076	905	C8H9N2+
133.0887	200	C9H11N+
134.0473	104	C7H6N2O+
134.0599	168	C8H8NO+
134.0965	243	C9H12N+
135.0555	178	C7H7N2O+
143.0608	189	C9H7N2+
144.0684	250	C9H8N2+
145.0762	884	C9H9N2+
146.084	83	C9H10N2+
147.0553	447	C8H7N2O+
147.0918	240	C9H11N2+
149.0221	115	C6H3N3O2+
149.0711	130	C8H9N2O+
157.0762	177	C10H9N2+
159.0918	165	C10H11N2+
160.0635	131	C9H8N2O+
160.0997	247	C10H12N2+
161.0711	886	C9H9N2O+
163.0868	219	C9H11N2O+
164.0584	99	C8H8N2O2+
171.0917	505	C11H11N2+
172.0995	324	C11H12N2+
173.1074	573	C11H13N2+
175.0867	927	C10H11N2O+
176.0942	129	C10H12N2O+
187.0862	166	C11H11N2O+
187.1233	158	C12H15N2+
188.131	197	C12H16N2+
189.1023	124	C11H13N2O+
190.0612	325	C9H8N3O2+
191.0693	158	C9H9N3O2+
191.0816	384	C10H11N2O2+
194.0562	454	C8H8N3O3+
201.1393	66	C13H17N2+
203.1178	859	C12H15N2O+
206.0926	99	C10H12N3O2+
209.0796	145	C9H11N3O3+
218.0922	128	C11H12N3O2+
