Mass spectrum: 5HPP-33; LC-ESI-QFT; MS2; CE: 60; R=17500; [M+H]+
Name: 5HPP-33
Name: 2-(2,6-Diisopropylphenyl)-5-hydroxyisoindoline-1,3-dione
Name: 2-[2,6-di(propan-2-yl)phenyl]-5-hydroxyisoindole-1,3-dione
Formula: C20H21NO3
Exact mass: 323.1521
SMILES: CC(C)C1=CC=CC(C(C)C)=C1N1C(=O)C2=C(C=C(O)C=C2)C1=O
InChI: InChI=1S/C20H21NO3/c1-11(2)14-6-5-7-15(12(3)4)18(14)21-19(23)16-9-8-13(22)10-17(16)20(21)24/h5-12,22H,1-4H3
Instrument: Q Exactive Orbitrap (Thermo Scientific)
Instrument type: LC-ESI-QFT
Ms type: MS2
Ion mode: POSITIVE
Ionization: ESI
Fragmentation mode: HCD
Collision energy: 60
Resolution: 17500
Column name: Acquity BEH C18 1.7um, 2.1x150mm (Waters)
Retention time: 18.685 min
Base peak: 79.0211
Precursor m/z: 324.1594
Precursor type: [M+H]+
Precursor intensity: 3534030.0625
m/z	relative intensity	assigned
51.023	1	C4H3+
53.0022	1	C3HO+
53.0386	21	C4H5+
65.0385	11	C5H5+
68.9971	1	C3HO2+
77.0388	6	C6H5+
81.0334	2	C5H5O+
90.0339	2	C6H4N+
91.0542	4	C7H7+
93.0336	1	C6H5O+
94.0413	1	C6H6O+
95.0492	63	C6H7O+
105.0334	5	C7H5O+
111.0439	9	C6H7O2+
116.0497	2	C8H6N+
120.0444	37	C7H6NO+
121.0284	187	C7H5O2+
128.0498	3	C9H6N+
130.0288	6	C8H4NO+
138.0105	1	C10H2O+
139.0062	1	C9HNO+
146.0237	290	C8H4NO2+
164.0344	10	C8H6NO3+
166.0658	1	C12H8N+
169.065	2	C12H9O+
173.0209	3	C10H5O3+
178.0499	19	C9H8NO3+
184.0757	4	C12H10NO+
194.0603	1	C13H8NO+
196.076	2	C13H10NO+
204.0809	6	C15H10N+
212.0705	9	C13H10NO2+
218.084	2	C12H12NO3+
222.055	6	C14H8NO2+
232.0755	9	C16H10NO+
240.0656	999	C14H10NO3+
242.0612	11	C17H8NO+
246.0915	2	C17H12NO+
248.0712	2	C16H10NO2+
249.0781	5	C16H11NO2+
