Mass spectrum: 3-Amino-4-methylbenzamide; LC-ESI-QFT; MS2; CE: 75; R=17500; [M+H]+
Name: 3-Amino-4-methylbenzamide
Formula: C8H10N2O
Exact mass: 150.0793
SMILES: CC1=C(N)C=C(C=C1)C(N)=O
InChI: InChI=1S/C8H10N2O/c1-5-2-3-6(8(10)11)4-7(5)9/h2-4H,9H2,1H3,(H2,10,11)
Instrument: Q Exactive Orbitrap (Thermo Scientific)
Instrument type: LC-ESI-QFT
Ms type: MS2
Ion mode: POSITIVE
Ionization: ESI
Fragmentation mode: HCD
Collision energy: 75
Resolution: 17500
Column name: Acquity BEH C18 1.7um, 2.1x150mm (Waters)
Retention time: 4.498 min
Base peak: 79.0211
Precursor m/z: 151.0866
Precursor type: [M+H]+
Precursor intensity: 7299668.46875
m/z	relative intensity	assigned
55.0417	3	C3H5N+
65.0385	11	C5H5+
66.0338	5	C4H4N+
66.0464	6	C5H6+
68.0494	108	C4H6N+
78.0463	2	C6H6+
79.0541	8	C6H7+
80.0494	5	C5H6N+
81.0573	20	C5H7N+
81.0703	1	C6H9+
82.0651	25	C5H8N+
91.0417	5	C6H5N+
91.0541	2	C7H7+
92.0495	69	C6H6N+
93.0448	170	C5H5N2+
93.0573	17	C6H7N+
94.0651	28	C6H8N+
96.0445	1	C5H6NO+
105.0446	1	C6H5N2+
106.0525	5	C6H6N2+
106.0652	29	C7H8N+
107.0604	12	C6H7N2+
107.073	26	C7H9N+
108.0808	14	C7H10N+
110.0602	4	C6H8NO+
116.0494	1	C8H6N+
117.0574	2	C8H7N+
118.0522	6	C7H6N2+
119.0604	297	C7H7N2+
120.0808	192	C8H10N+
121.0886	50	C8H11N+
124.0757	4	C7H10NO+
132.0683	4	C8H8N2+
133.0761	999	C8H9N2+
134.0838	757	C8H10N2+
135.0552	1	C7H7N2O+
136.0758	16	C8H10NO+
151.0866	245	C8H11N2O+
