Mass spectrum: Tomelukast; LC-ESI-QFT; MS2; CE: 30; R=17500; [M+H]+
Name: Tomelukast
Name: 1-[2-hydroxy-3-propyl-4-[4-(2H-tetrazol-5-yl)butoxy]phenyl]ethanone
Formula: C16H22N4O3
Exact mass: 318.1692
SMILES: CCCC1=C(OCCCCC2=NN=NN2)C=CC(C(C)=O)=C1O
InChI: InChI=1S/C16H22N4O3/c1-3-6-13-14(9-8-12(11(2)21)16(13)22)23-10-5-4-7-15-17-19-20-18-15/h8-9,22H,3-7,10H2,1-2H3,(H,17,18,19,20)
Instrument: Q Exactive Orbitrap (Thermo Scientific)
Instrument type: LC-ESI-QFT
Ms type: MS2
Ion mode: POSITIVE
Ionization: ESI
Fragmentation mode: HCD
Collision energy: 30
Resolution: 17500
Column name: Acquity BEH C18 1.7um, 2.1x150mm (Waters)
Retention time: 17.710 min
Base peak: 79.0211
Precursor m/z: 319.1765
Precursor type: [M+H]+
Precursor intensity: 10741562.67188
m/z	relative intensity	assigned
53.0386	4	C4H5+
54.0339	2	C3H4N+
55.0291	68	C2H3N2+
55.0542	39	C4H7+
56.0494	4	C3H6N+
57.0699	6	C4H9+
67.0542	5	C5H7+
68.0494	7	C4H6N+
69.0447	9	C3H5N2+
70.0652	2	C4H8N+
71.0605	1	C3H7N2+
80.0494	11	C5H6N+
82.0651	5	C5H8N+
97.0761	56	C5H9N2+
98.0838	1	C5H10N2+
99.0917	4	C5H11N2+
111.044	17	C6H7O2+
123.044	14	C7H7O2+
125.0822	999	C5H9N4+
137.0598	31	C8H9O2+
149.0601	2	C9H9O2+
151.0753	23	C9H11O2+
153.0547	13	C8H9O3+
153.091	83	C9H13O2+
161.0601	1	C10H9O2+
163.0755	2	C10H11O2+
165.0548	21	C9H9O3+
165.0911	59	C10H13O2+
175.0755	11	C11H11O2+
177.0542	1	C10H9O3+
177.0909	14	C11H13O2+
179.0703	28	C10H11O3+
179.1061	3	C11H15O2+
189.0911	28	C12H13O2+
190.0501	9	C10H8NO3+
190.0862	4	C11H12NO2+
191.0702	4	C11H11O3+
191.1067	11	C12H15O2+
193.086	25	C11H13O3+
195.1017	242	C11H15O3+
200.0705	1	C12H10NO2+
204.0654	12	C11H10NO3+
205.1222	2	C13H17O2+
207.1017	47	C12H15O3+
207.1131	3	C11H15N2O2+
207.138	56	C13H19O2+
214.0864	6	C13H12NO2+
215.1069	3	C14H15O2+
218.0816	7	C12H12NO3+
220.0969	19	C12H14NO3+
231.1021	4	C14H15O3+
231.1255	4	C14H17NO2+
232.0968	11	C13H14NO3+
232.133	11	C14H18NO2+
233.1172	8	C14H17O3+
249.1481	2	C15H21O3+
274.1441	15	C16H20NO3+
277.1658	11	C14H21N4O2+
291.1693	1	C16H23N2O3+
