Mass spectrum: Albendazole; LC-ESI-QFT; MS2; CE: 45; R=17500; [M-H]-
Name: Albendazole
Name: methyl N-(6-propylsulfanyl-1H-benzimidazol-2-yl)carbamate
Formula: C12H15N3O2S
Exact mass: 265.0885
SMILES: CCCSC1=CC=C2NC(NC(=O)OC)=NC2=C1
InChI: InChI=1S/C12H15N3O2S/c1-3-6-18-8-4-5-9-10(7-8)14-11(13-9)15-12(16)17-2/h4-5,7H,3,6H2,1-2H3,(H2,13,14,15,16)
Instrument: Q Exactive Orbitrap (Thermo Scientific)
Instrument type: LC-ESI-QFT
Ms type: MS2
Ion mode: NEGATIVE
Ionization: ESI
Fragmentation mode: HCD
Collision energy: 45
Resolution: 17500
Column name: Acquity BEH C18 1.7um, 2.1x150mm (Waters)
Retention time: 16.045 min
Base peak: 323.107
Precursor m/z: 264.0812
Precursor type: [M-H]-
Precursor intensity: 461627.3994141
m/z	relative intensity	assigned
189.0003	999	C8H3N3OS-
221.0264	90	C9H7N3O2S-
232.0549	51	C11H10N3OS-
