Mass spectrum: Nomifensine; LC-ESI-QFT; MS2; CE: 15; R=17500; [M+H]+
Name: Nomifensine
Name: 2-methyl-4-phenyl-3,4-dihydro-1H-isoquinolin-8-amine
Formula: C16H18N2
Exact mass: 238.1470
SMILES: CN1CC(C2=CC=CC=C2)C2=CC=CC(N)=C2C1
InChI: InChI=1S/C16H18N2/c1-18-10-14(12-6-3-2-4-7-12)13-8-5-9-16(17)15(13)11-18/h2-9,14H,10-11,17H2,1H3
Instrument: Q Exactive Orbitrap (Thermo Scientific)
Instrument type: LC-ESI-QFT
Ms type: MS2
Ion mode: POSITIVE
Ionization: ESI
Fragmentation mode: HCD
Collision energy: 15
Resolution: 17500
Column name: Acquity BEH C18 1.7um, 2.1x150mm (Waters)
Retention time: 13.050 min
Base peak: 79.0211
Precursor m/z: 239.1543
Precursor type: [M+H]+
Precursor intensity: 36367871
m/z	relative intensity	assigned
91.0542	9	C7H7+
118.0649	1	C8H8N+
120.0807	4	C8H10N+
130.065	5	C9H8N+
132.0806	1	C9H10N+
161.1073	2	C10H13N2+
194.0965	1	C14H12N+
196.112	27	C14H14N+
208.1119	16	C15H14N+
210.1277	6	C15H16N+
222.127	2	C16H16N+
237.139	1	C16H17N2+
239.1541	999	C16H19N2+
