Mass spectrum: 2,5-Dichloro-3-nitrobenzoic acid; LC-ESI-QFT; MS2; CE: 30; R=17500; [M-H]-
Name: 2,5-Dichloro-3-nitrobenzoic acid
Formula: C7H3Cl2NO4
Exact mass: 234.9439
SMILES: OC(=O)C1=C(Cl)C(=CC(Cl)=C1)[N+]([O-])=O
InChI: InChI=1S/C7H3Cl2NO4/c8-3-1-4(7(11)12)6(9)5(2-3)10(13)14/h1-2H,(H,11,12)
Instrument: Q Exactive Orbitrap (Thermo Scientific)
Instrument type: LC-ESI-QFT
Ms type: MS2
Ion mode: NEGATIVE
Ionization: ESI
Fragmentation mode: HCD
Collision energy: 30
Resolution: 17500
Column name: Acquity BEH C18 1.7um, 2.1x150mm (Waters)
Retention time: 15.456 min
Base peak: 297.1132
Precursor m/z: 233.9366
Precursor type: [M-H]-
Precursor intensity: 647877.4482422
m/z	relative intensity	assigned
159.9489	124	C6H2Cl2O-
175.9438	371	C6H2Cl2O2-
189.9468	999	C6H2Cl2NO2-
