Mass spectrum: Dapsone; LC-ESI-QFT; MS2; CE: 75; R=17500; [M+H]+
Name: Dapsone
Name: 4-(4-aminophenyl)sulfonylaniline
Formula: C12H12N2O2S
Exact mass: 248.0619
SMILES: NC1=CC=C(C=C1)S(=O)(=O)C1=CC=C(N)C=C1
InChI: InChI=1S/C12H12N2O2S/c13-9-1-5-11(6-2-9)17(15,16)12-7-3-10(14)4-8-12/h1-8H,13-14H2
Instrument: Q Exactive Orbitrap (Thermo Scientific)
Instrument type: LC-ESI-QFT
Ms type: MS2
Ion mode: POSITIVE
Ionization: ESI
Fragmentation mode: HCD
Collision energy: 75
Resolution: 17500
Column name: Acquity BEH C18 1.7um, 2.1x150mm (Waters)
Retention time: 10.889 min
Base peak: 79.0212
Precursor m/z: 249.0692
Precursor type: [M+H]+
Precursor intensity: 7059756.1875
m/z	relative intensity	assigned
52.018	1	C3H2N+
53.0022	6	C3HO+
53.0386	10	C4H5+
54.0339	4	C3H4N+
55.0178	5	C3H3O+
55.0543	2	C4H7+
56.0495	1	C3H6N+
61.0106	2	C2H5S+
63.0229	1	C5H3+
65.0385	803	C5H5+
66.0464	24	C5H6+
67.0416	1	C4H5N+
68.0494	73	C4H6N+
69.0335	7	C4H5O+
74.0963	2	C4H12N+
78.0338	8	C5H4N+
79.0178	11	C5H3O+
80.0494	220	C5H6N+
81.0336	1	C5H5O+
82.0288	1	C4H4NO+
83.0491	3	C5H7O+
90.0338	1	C6H4N+
92.0494	845	C6H6N+
93.0573	352	C6H7N+
95.0366	2	C5H5NO+
96.0444	11	C5H6NO+
108.0443	999	C6H6NO+
109.052	4	C6H7NO+
110.06	262	C6H8NO+
114.9709	1	C3HNO2S+
120.0556	13	C8H8O+
124.0215	3	C6H6NS+
124.0758	3	C7H10NO+
140.0164	4	C6H6NOS+
156.0113	6	C6H6NO2S+
167.0727	1	C12H9N+
