Mass spectrum: Suxibuzone; LC-ESI-QFT; MS2; CE: 90; R=17500; [M+H]+
Name: Suxibuzone
Name: 4-[(4-butyl-3,5-dioxo-1,2-diphenylpyrazolidin-4-yl)methoxy]-4-oxobutanoic acid
Formula: C24H26N2O6
Exact mass: 438.1791
SMILES: CCCCC1(COC(=O)CCC(O)=O)C(=O)N(N(C1=O)C1=CC=CC=C1)C1=CC=CC=C1
InChI: InChI=1S/C24H26N2O6/c1-2-3-16-24(17-32-21(29)15-14-20(27)28)22(30)25(18-10-6-4-7-11-18)26(23(24)31)19-12-8-5-9-13-19/h4-13H,2-3,14-17H2,1H3,(H,27,28)
Instrument: Q Exactive Orbitrap (Thermo Scientific)
Instrument type: LC-ESI-QFT
Ms type: MS2
Ion mode: POSITIVE
Ionization: ESI
Fragmentation mode: HCD
Collision energy: 90
Resolution: 17500
Column name: Acquity BEH C18 1.7um, 2.1x150mm (Waters)
Retention time: 17.579 min
Base peak: 79.0212
Precursor m/z: 439.1864
Precursor type: [M+H]+
Precursor intensity: 11810926.25
m/z	relative intensity	assigned
50.0152	8	C4H2+
51.023	6	C4H3+
53.0022	39	C3HO+
53.0386	325	C4H5+
53.9975	6	C2NO+
55.0179	585	C3H3O+
55.0543	86	C4H7+
57.0699	140	C4H9+
65.0386	350	C5H5+
66.0463	9	C5H6+
67.0542	103	C5H7+
68.0495	3	C4H6N+
68.9971	5	C3HO2+
69.0698	22	C5H9+
73.0284	389	C3H5O2+
74.0965	3	C4H12N+
77.0385	112	C6H5+
78.0464	21	C6H6+
79.0542	191	C6H7+
80.0496	8	C5H6N+
81.0335	31	C5H5O+
81.0699	54	C6H9+
87.044	6	C4H7O2+
91.0392	9	C3H7O3+
91.0543	133	C7H7+
92.0495	278	C6H6N+
93.0335	7	C6H5O+
93.0573	79	C6H7N+
94.0415	35	C6H6O+
94.0652	276	C6H8N+
95.0492	999	C6H7O+
97.0648	8	C6H9O+
101.0234	46	C4H5O3+
103.0542	51	C8H7+
104.0495	839	C7H6N+
105.0337	44	C7H5O+
105.0447	369	C6H5N2+
106.0651	409	C7H8N+
107.0493	3	C7H7O+
107.0602	2	C6H7N2+
109.0649	10	C7H9O+
111.044	29	C6H7O2+
115.0391	5	C5H7O3+
115.0543	37	C9H7+
116.0496	20	C8H6N+
117.0573	89	C8H7N+
117.0697	12	C9H9+
118.0651	319	C8H8N+
119.073	42	C8H9N+
120.0444	84	C7H6NO+
120.0807	39	C8H10N+
124.0758	7	C7H10NO+
125.0601	2	C7H9O2+
128.0495	127	C9H6N+
128.0618	22	C10H8+
129.0699	8	C10H9+
130.0652	341	C9H8N+
131.0604	30	C8H7N2+
131.073	49	C9H9N+
132.0444	125	C8H6NO+
132.0808	51	C9H10N+
133.0397	16	C7H5N2O+
133.0521	70	C8H7NO+
134.06	35	C8H8NO+
142.0651	11	C10H8N+
143.073	36	C10H9N+
143.0858	4	C11H11+
144.0445	13	C9H6NO+
144.0808	78	C10H10N+
145.076	7	C9H9N2+
145.0885	36	C10H11N+
146.0601	166	C9H8NO+
154.0654	5	C11H8N+
155.0603	4	C10H7N2+
156.0444	7	C10H6NO+
156.0809	14	C11H10N+
157.0882	4	C11H11N+
158.0599	14	C10H8NO+
158.0966	12	C11H12N+
159.0679	5	C10H9NO+
160.0759	21	C10H10NO+
160.1121	151	C11H14N+
162.0551	16	C9H8NO2+
162.1277	3	C11H16N+
164.0704	2	C9H10NO2+
165.0699	6	C13H9+
166.0653	21	C12H8N+
167.0731	55	C12H9N+
168.0807	17	C12H10N+
169.0889	3	C12H11N+
170.0602	8	C11H8NO+
170.0971	2	C12H12N+
172.0755	5	C11H10NO+
174.0553	13	C10H8NO2+
180.0807	27	C13H10N+
182.084	42	C12H10N2+
183.0918	5	C12H11N2+
184.076	7	C12H10NO+
193.0766	5	C13H9N2+
193.0882	3	C14H11N+
194.0609	4	C13H8NO+
195.0919	11	C13H11N2+
206.084	25	C14H10N2+
207.0918	134	C14H11N2+
208.099	16	C14H12N2+
209.1076	7	C14H13N2+
211.0868	5	C13H11N2O+
219.092	9	C15H11N2+
221.1078	7	C15H13N2+
245.107	5	C17H13N2+
247.0863	3	C16H11N2O+
