Mass spectrum: 3-(Trifluoromethyl)benzoic acid; LC-ESI-QFT; MS2; CE: 90; R=17500; [M-H]-
Name: 3-(Trifluoromethyl)benzoic acid
Formula: C8H5F3O2
Exact mass: 190.0242
SMILES: OC(=O)C1=CC(=CC=C1)C(F)(F)F
InChI: InChI=1S/C8H5F3O2/c9-8(10,11)6-3-1-2-5(4-6)7(12)13/h1-4H,(H,12,13)
Instrument: Q Exactive Orbitrap (Thermo Scientific)
Instrument type: LC-ESI-QFT
Ms type: MS2
Ion mode: NEGATIVE
Ionization: ESI
Fragmentation mode: HCD
Collision energy: 90
Resolution: 17500
Column name: Acquity BEH C18 1.7um, 2.1x150mm (Waters)
Retention time: 16.760 min
Base peak: 307.0395
Precursor m/z: 189.0169
Precursor type: [M-H]-
Precursor intensity: 19762564.50586
m/z	relative intensity	assigned
68.9958	78	CF3-
75.0241	70	C6H3-
85.0084	103	C7H-
105.0146	297	C7H2F-
121.0094	14	C7H2FO-
125.0208	135	C7H3F2-
145.0271	999	C7H4F3-
161.0218	10	C7H4F3O-
189.0168	43	C8H4F3O2-
