Mass spectrum: 4-Hexylaniline; LC-ESI-QFT; MS2; CE: 90; R=17500; [M+H]+
Name: 4-Hexylaniline
Formula: C12H19N
Exact mass: 177.1517
SMILES: CCCCCCC1=CC=C(N)C=C1
InChI: InChI=1S/C12H19N/c1-2-3-4-5-6-11-7-9-12(13)10-8-11/h7-10H,2-6,13H2,1H3
Instrument: Q Exactive Orbitrap (Thermo Scientific)
Instrument type: LC-ESI-QFT
Ms type: MS2
Ion mode: POSITIVE
Ionization: ESI
Fragmentation mode: HCD
Collision energy: 90
Resolution: 17500
Column name: Acquity BEH C18 1.7um, 2.1x150mm (Waters)
Retention time: 16.558 min
Base peak: 79.0211
Precursor m/z: 178.159
Precursor type: [M+H]+
Precursor intensity: 5899190.53125
m/z	relative intensity	assigned
51.0229	2	C4H3+
53.0386	26	C4H5+
55.0543	24	C4H7+
57.0699	19	C4H9+
63.0229	4	C5H3+
65.0386	179	C5H5+
66.0464	79	C5H6+
67.0542	6	C5H7+
69.0699	3	C5H9+
77.0386	9	C6H5+
78.0464	9	C6H6+
79.0542	41	C6H7+
81.0699	2	C6H9+
89.0386	29	C7H5+
90.0464	78	C7H6+
91.0543	999	C7H7+
93.0574	58	C6H7N+
94.0652	251	C6H8N+
103.0543	27	C8H7+
104.062	9	C8H8+
105.0699	39	C8H9+
106.0651	281	C7H8N+
107.0729	153	C7H9N+
115.0543	1	C9H7+
117.07	5	C9H9+
119.0852	2	C9H11+
120.0808	29	C8H10N+
121.0887	2	C8H11N+
178.1591	19	C12H20N+
