Mass spectrum: Troglitazone; LC-ESI-QFT; MS2; CE: 75; R=17500; [M+H]+
Name: Troglitazone
Name: 5-[[4-[(6-hydroxy-2,5,7,8-tetramethyl-3,4-dihydrochromen-2-yl)methoxy]phenyl]methyl]-1,3-thiazolidine-2,4-dione
Formula: C24H27NO5S
Exact mass: 441.161
SMILES: CC1=C(O)C(C)=C2CCC(C)(COC3=CC=C(CC4SC(=O)NC4=O)C=C3)OC2=C1C
InChI: InChI=1S/C24H27NO5S/c1-13-14(2)21-18(15(3)20(13)26)9-10-24(4,30-21)12-29-17-7-5-16(6-8-17)11-19-22(27)25-23(28)31-19/h5-8,19,26H,9-12H2,1-4H3,(H,25,27,28)
Instrument: Q Exactive Orbitrap (Thermo Scientific)
Instrument type: LC-ESI-QFT
Ms type: MS2
Ion mode: POSITIVE
Ionization: ESI
Fragmentation mode: HCD
Collision energy: 75
Resolution: 17500
Column name: Acquity BEH C18 1.7um, 2.1x150mm (Waters)
Retention time: 18.792 min
Base peak: 79.0212
Precursor m/z: 442.1683
Precursor type: [M+H]+
Precursor intensity: 444662.9375
m/z	relative intensity	assigned
55.0543	158	C4H7+
67.0542	818	C5H7+
79.0543	135	C6H7+
81.07	381	C6H9+
83.0492	107	C5H7O+
91.0543	487	C7H7+
93.07	100	C7H9+
95.0855	49	C7H11+
107.0859	69	C8H11+
109.1013	556	C8H13+
117.07	105	C9H9+
119.0855	731	C9H11+
121.065	54	C8H9O+
122.0727	617	C8H10O+
130.0781	61	C10H10+
131.0493	81	C9H7O+
131.0857	74	C10H11+
135.0806	108	C9H11O+
137.0962	999	C9H13O+
145.0649	58	C10H9O+
145.1015	69	C11H13+
149.0963	140	C10H13O+
155.0858	187	C12H11+
158.0726	354	C11H10O+
159.081	78	C11H11O+
162.0674	50	C10H10O2+
163.112	55	C11H15O+
165.091	976	C10H13O2+
173.0965	78	C12H13O+
175.0756	77	C11H11O2+
189.0914	165	C12H13O2+
