Mass spectrum: Resmethrin; LC-ESI-QFT; MS2; CE: 45; R=17500; [M+H]+
Name: Resmethrin
Formula: C22H26O3
Exact mass: 338.1882
SMILES: CC(C)=CC1C(C(=O)OCC2=COC(CC3=CC=CC=C3)=C2)C1(C)C
InChI: InChI=1S/C22H26O3/c1-15(2)10-19-20(22(19,3)4)21(23)25-14-17-12-18(24-13-17)11-16-8-6-5-7-9-16/h5-10,12-13,19-20H,11,14H2,1-4H3
Instrument: Q Exactive Orbitrap (Thermo Scientific)
Instrument type: LC-ESI-QFT
Ms type: MS2
Ion mode: POSITIVE
Ionization: ESI
Fragmentation mode: HCD
Collision energy: 45
Resolution: 17500
Column name: Acquity BEH C18 1.7um, 2.1x150mm (Waters)
Retention time: 20.591 min
Base peak: 79.0211
Precursor m/z: 339.1955
Precursor type: [M+H]+
Precursor intensity: 550264.3125
m/z	relative intensity	assigned
55.0544	29	C4H7+
59.0494	35	C3H7O+
65.0386	17	C5H5+
69.0699	73	C5H9+
79.0542	51	C6H7+
81.0699	95	C6H9+
83.0494	36	C5H7O+
91.0543	999	C7H7+
93.07	77	C7H9+
95.0492	40	C6H7O+
95.0855	80	C7H11+
103.0547	17	C8H7+
105.0335	200	C7H5O+
105.0698	76	C8H9+
107.0857	53	C8H11+
109.065	49	C7H9O+
109.1015	32	C8H13+
115.0544	65	C9H7+
117.07	60	C9H9+
119.0857	93	C9H11+
121.0649	89	C8H9O+
121.1013	241	C9H13+
123.1168	35	C9H15+
125.0598	16	C7H9O2+
128.0621	250	C10H8+
129.0701	54	C10H9+
131.0857	36	C10H11+
133.1013	46	C10H13+
135.0809	43	C9H11O+
135.1171	69	C10H15+
139.1123	24	C9H15O+
141.07	31	C11H9+
143.0856	598	C11H11+
147.0808	52	C10H11O+
149.0964	92	C10H13O+
153.07	22	C12H9+
155.0857	17	C12H11+
157.1012	19	C12H13+
159.0807	52	C11H11O+
159.1172	56	C12H15+
161.0962	42	C11H13O+
161.1332	22	C12H17+
171.0806	352	C12H11O+
173.0961	26	C12H13O+
173.1332	41	C13H17+
175.1485	32	C13H19+
178.0788	18	C14H10+
183.1171	22	C14H15+
187.1123	19	C13H15O+
197.1323	32	C15H17+
199.112	33	C14H15O+
201.1278	24	C14H17O+
202.1354	30	C14H18O+
203.1431	23	C14H19O+
205.1229	23	C13H17O2+
219.1176	15	C17H15+
225.128	20	C16H17O+
247.1343	29	C15H19O3+
251.1438	24	C18H19O+
293.1903	23	C21H25O+
