Mass spectrum: Chrysin; LC-ESI-QFT; MS2; CE: 90; R=17500; [M-H]-
Name: Chrysin
Name: 5,7-dihydroxy-2-phenylchromen-4-one
Formula: C15H10O4
Exact mass: 254.0579
SMILES: OC1=CC2=C(C(O)=C1)C(=O)C=C(O2)C1=CC=CC=C1
InChI: InChI=1S/C15H10O4/c16-10-6-11(17)15-12(18)8-13(19-14(15)7-10)9-4-2-1-3-5-9/h1-8,16-17H
Instrument: Q Exactive Orbitrap (Thermo Scientific)
Instrument type: LC-ESI-QFT
Ms type: MS2
Ion mode: NEGATIVE
Ionization: ESI
Fragmentation mode: HCD
Collision energy: 90
Resolution: 17500
Column name: Acquity BEH C18 1.7um, 2.1x150mm (Waters)
Retention time: 17.836 min
Base peak: 253.0506
Precursor m/z: 253.0506
Precursor type: [M-H]-
Precursor intensity: 60484123.375
m/z	relative intensity	assigned
55.0189	4	C3H3O-
61.0084	4	C5H-
62.0162	1	C5H2-
63.024	999	C5H3-
63.9955	10	C4O-
65.0033	707	C4HO-
67.0189	4	C4H3O-
68.9982	3	C3HO2-
77.0033	3	C5HO-
79.0189	28	C5H3O-
83.0139	29	C4H3O2-
89.0033	65	C6HO-
95.014	2	C5H3O2-
101.0397	176	C8H5-
103.0189	1	C7H3O-
104.0268	1	C7H4O-
107.0139	68	C6H3O2-
115.0553	69	C9H7-
117.0347	17	C8H5O-
119.0502	162	C8H7O-
121.0297	1	C7H5O2-
125.0396	3	C10H5-
127.0554	3	C10H7-
129.0343	1	C9H5O-
129.0704	1	C10H9-
135.009	1	C7H3O3-
138.0475	3	C11H6-
139.0553	16	C11H7-
141.0346	4	C10H5O-
141.0711	4	C11H9-
143.0502	143	C10H7O-
145.0295	123	C9H5O2-
148.0168	1	C8H4O3-
151.0039	4	C7H3O4-
151.0548	1	C12H7-
152.0633	1	C12H8-
153.0709	2	C12H9-
155.0503	10	C11H7O-
157.0661	2	C11H9O-
165.0709	7	C13H9-
167.0502	16	C12H7O-
169.0296	1	C11H5O2-
169.0661	3	C12H9O-
180.0579	2	C13H8O-
181.066	4	C13H9O-
183.0447	1	C12H7O2-
208.0534	3	C14H8O2-
253.0512	2	C15H9O4-
