Mass spectrum: CP-401387; LC-ESI-QFT; MS2; CE: 60; R=17500; [M-H]-
Name: CP-401387
Name: 4-cyano-4-(1-cyclohexyl-3-ethylindazol-6-yl)cyclohexane-1-carboxylic acid
Formula: C23H29N3O2
Exact mass: 379.2260
SMILES: CCC1=NN(C2CCCCC2)C2=C1C=CC(=C2)[C@]1(CC[C@@H](CC1)C(O)=O)C#N
InChI: InChI=1S/C23H29N3O2/c1-2-20-19-9-8-17(23(15-24)12-10-16(11-13-23)22(27)28)14-21(19)26(25-20)18-6-4-3-5-7-18/h8-9,14,16,18H,2-7,10-13H2,1H3,(H,27,28)/t16-,23-
Instrument: Q Exactive Orbitrap (Thermo Scientific)
Instrument type: LC-ESI-QFT
Ms type: MS2
Ion mode: NEGATIVE
Ionization: ESI
Fragmentation mode: HCD
Collision energy: 60
Resolution: 17500
Column name: Acquity BEH C18 1.7um, 2.1x150mm (Waters)
Retention time: 19.021 min
Base peak: 271.9888
Precursor m/z: 378.2187
Precursor type: [M-H]-
Precursor intensity: 2499112.962891
m/z	relative intensity	assigned
52.0193	7	C3H2N-
66.0349	10	C4H4N-
80.0506	46	C5H6N-
158.085	27	C10H10N2-
169.0774	10	C11H9N2-
171.0928	106	C11H11N2-
173.1086	11	C11H13N2-
183.0802	58	C11H9N3-
183.0927	10	C12H11N2-
184.1005	23	C12H12N2-
185.1085	20	C12H13N2-
190.0751	48	C10H10N2O2-
195.0925	7	C13H11N2-
196.088	999	C12H10N3-
197.1084	146	C13H13N2-
198.1163	24	C13H14N2-
199.1241	435	C13H15N2-
204.0904	27	C11H12N2O2-
208.088	12	C13H10N3-
209.0963	15	C13H11N3-
210.1035	18	C13H12N3-
211.1242	14	C14H15N2-
222.1035	79	C14H12N3-
223.1237	22	C15H15N2-
225.1398	348	C15H17N2-
236.1194	17	C15H14N3-
250.135	303	C16H16N3-
251.1431	20	C16H17N3-
252.1506	540	C16H18N3-
266.1661	12	C17H20N3-
269.1168	22	C15H15N3O2-
334.23	8	C22H28N3-
