Mass spectrum: CP-642931; LC-ESI-QFT; MS2; CE: 75; R=17500; [M+H]+
Name: CP-642931
Name: (1R)-1-[4-[(2R,6S)-4-(4,6-dimethyl-1,3,5-triazin-2-yl)-2,6-dimethylpiperazin-1-yl]pyrimidin-2-yl]ethanol
Formula: C17H25N7O
Exact mass: 343.2121
SMILES: C[C@@H](O)C1=NC(=CC=N1)N1[C@@H](C)CN(C[C@H]1C)C1=NC(C)=NC(C)=N1
InChI: InChI=1S/C17H25N7O/c1-10-8-23(17-20-13(4)19-14(5)21-17)9-11(2)24(10)15-6-7-18-16(22-15)12(3)25/h6-7,10-12,25H,8-9H2,1-5H3/t10-,11+,12-/m1/s1
Instrument: Q Exactive Orbitrap (Thermo Scientific)
Instrument type: LC-ESI-QFT
Ms type: MS2
Ion mode: POSITIVE
Ionization: ESI
Fragmentation mode: HCD
Collision energy: 75
Resolution: 17500
Column name: Acquity BEH C18 1.7um, 2.1x150mm (Waters)
Retention time: 10.435 min
Base peak: 79.0211
Precursor m/z: 344.2193
Precursor type: [M+H]+
Precursor intensity: 25899505.5
m/z	relative intensity	assigned
52.0182	7	C3H2N+
53.0022	31	C3HO+
53.0386	41	C4H5+
54.0338	116	C3H4N+
55.0291	141	C2H3N2+
55.0542	121	C4H7+
56.0495	920	C3H6N+
57.0447	4	C2H5N2+
57.0573	8	C3H7N+
58.0651	48	C3H8N+
65.0385	40	C5H5+
66.0338	8	C4H4N+
66.0464	4	C5H6+
67.029	156	C3H3N2+
67.0416	41	C4H5N+
67.0542	37	C5H7+
68.0368	14	C3H4N2+
68.0494	280	C4H6N+
69.0447	489	C3H5N2+
69.0698	52	C5H9+
70.0651	82	C4H8N+
78.0338	56	C5H4N+
79.029	20	C4H3N2+
79.0542	380	C6H7+
80.0495	196	C5H6N+
81.0447	281	C4H5N2+
81.0574	49	C5H7N+
81.0699	314	C6H9+
82.0651	631	C5H8N+
83.0604	896	C4H7N2+
84.0557	26	C3H6N3+
84.0808	356	C5H10N+
91.0543	27	C7H7+
92.0495	45	C6H6N+
93.0447	16	C5H5N2+
93.0575	12	C6H7N+
93.0699	33	C7H9+
94.04	13	C4H4N3+
94.0651	225	C6H8N+
95.0493	30	C6H7O+
95.0604	122	C5H7N2+
95.0729	23	C6H9N+
96.0444	15	C5H6NO+
96.0556	44	C4H6N3+
96.0808	257	C6H10N+
97.0761	94	C5H9N2+
97.0886	8	C6H11N+
98.0964	59	C6H12N+
103.0542	4	C8H7+
104.0495	4	C7H6N+
105.0448	378	C6H5N2+
106.0525	13	C6H6N2+
106.0651	201	C7H8N+
107.0604	179	C6H7N2+
108.0556	535	C5H6N3+
108.0682	92	C6H8N2+
108.0808	241	C7H10N+
109.0761	359	C6H9N2+
110.0601	26	C6H8NO+
110.0713	120	C5H8N3+
110.0838	18	C6H10N2+
110.0964	32	C7H12N+
111.0553	10	C5H7N2O+
111.0916	61	C6H11N2+
112.0504	6	C4H6N3O+
117.0572	4	C8H7N+
118.0651	79	C8H8N+
119.0605	27	C7H7N2+
120.056	8	C6H6N3+
120.0683	57	C7H8N2+
120.0808	35	C8H10N+
121.076	425	C7H9N2+
122.0713	389	C6H8N3+
122.084	20	C7H10N2+
123.0792	33	C6H9N3+
123.0917	469	C7H11N2+
124.0758	193	C7H10NO+
124.0869	308	C6H10N3+
125.071	14	C6H9N2O+
125.0822	83	C5H9N4+
126.0423	5	C3H4N5O+
126.0663	31	C5H8N3O+
132.0558	3	C7H6N3+
132.0681	34	C8H8N2+
133.0636	95	C7H7N3+
133.076	29	C8H9N2+
134.0713	625	C7H8N3+
135.0917	776	C8H11N2+
136.087	267	C7H10N3+
136.0994	109	C8H12N2+
137.0822	124	C6H9N4+
137.0949	12	C7H11N3+
137.1073	101	C8H13N2+
138.0428	5	C4H4N5O+
138.1025	65	C7H12N3+
140.0819	7	C6H10N3O+
140.1182	7	C7H14N3+
142.0975	13	C6H12N3O+
145.076	27	C9H9N2+
146.0713	99	C8H8N3+
146.0839	10	C9H10N2+
147.0667	145	C7H7N4+
147.0791	277	C8H9N3+
147.0916	108	C9H11N2+
148.0869	89	C8H10N3+
149.0822	167	C7H9N4+
149.0947	87	C8H11N3+
150.1028	6	C8H12N3+
151.0978	10	C7H11N4+
159.0912	4	C10H11N2+
160.0871	57	C9H10N3+
161.1073	12	C10H13N2+
162.1026	999	C9H12N3+
163.0979	40	C8H11N4+
164.1182	386	C9H14N3+
165.1135	223	C8H13N4+
172.0869	9	C10H10N3+
174.1025	4	C10H12N3+
175.0977	5	C9H11N4+
176.1183	55	C10H14N3+
177.1135	6	C9H13N4+
180.1133	13	C9H14N3O+
186.1027	8	C11H12N3+
187.0981	6	C10H11N4+
187.1105	10	C11H13N3+
189.1135	3	C10H13N4+
192.1241	7	C9H14N5+
202.1339	67	C12H16N3+
205.1448	550	C11H17N4+
229.1194	6	C11H13N6+
244.1557	12	C13H18N5+
