Mass spectrum: Zearalenone; LC-ESI-QFT; MS2; CE: 90; R=17500; [M-H]-
Name: Zearalenone
Name: (4S,12E)-16,18-dihydroxy-4-methyl-3-oxabicyclo[12.4.0]octadeca-1(14),12,15,17-tetraene-2,8-dione
Formula: C18H22O5
Exact mass: 318.1467
SMILES: C[C@H]1CCCC(=O)CCC\C=C\C2=C(C(O)=CC(O)=C2)C(=O)O1
InChI: InChI=1S/C18H22O5/c1-12-6-5-9-14(19)8-4-2-3-7-13-10-15(20)11-16(21)17(13)18(22)23-12/h3,7,10-12,20-21H,2,4-6,8-9H2,1H3/b7-3+/t12-/m0/s1
Instrument: Q Exactive Orbitrap (Thermo Scientific)
Instrument type: LC-ESI-QFT
Ms type: MS2
Ion mode: NEGATIVE
Ionization: ESI
Fragmentation mode: HCD
Collision energy: 90
Resolution: 17500
Column name: Acquity BEH C18 1.7um, 2.1x150mm (Waters)
Retention time: 17.846 min
Base peak: 317.1395
Precursor m/z: 317.1394
Precursor type: [M-H]-
Precursor intensity: 45431322.78711
m/z	relative intensity	assigned
57.0346	999	C3H5O-
63.024	222	C5H3-
65.0033	355	C4HO-
65.0397	146	C5H5-
67.019	30	C4H3O-
68.9982	20	C3HO2-
69.0346	44	C4H5O-
71.0503	7	C4H7O-
77.0396	18	C6H5-
79.0553	29	C6H7-
81.0347	40	C5H5O-
83.0503	26	C5H7O-
85.0659	14	C5H9O-
89.0397	155	C7H5-
91.0189	21	C6H3O-
91.0553	143	C7H7-
93.0346	65	C6H5O-
95.0503	81	C6H7O-
101.0397	35	C8H5-
102.0475	248	C8H6-
103.0554	200	C8H7-
104.0268	21	C7H4O-
105.0346	64	C7H5O-
105.071	12	C8H9-
107.0503	123	C7H7O-
108.0217	9	C6H4O2-
109.0657	6	C7H9O-
115.0554	97	C9H7-
117.0346	112	C8H5O-
117.071	11	C9H9-
119.0502	216	C8H7O-
121.0296	13	C7H5O2-
121.066	15	C8H9O-
123.0451	18	C7H7O2-
129.0349	7	C9H5O-
129.071	17	C10H9-
130.0424	807	C9H6O-
131.0503	419	C9H7O-
132.0217	700	C8H4O2-
133.0295	102	C8H5O2-
133.0659	28	C9H9O-
135.0452	6	C8H7O2-
136.0528	6	C8H8O2-
137.061	21	C8H9O2-
141.0345	7	C10H5O-
143.0503	137	C10H7O-
144.058	7	C10H8O-
145.0295	430	C9H5O2-
146.0373	76	C9H6O2-
147.0452	86	C9H7O2-
147.0812	11	C10H11O-
149.0245	6	C8H5O3-
149.0607	8	C9H9O2-
151.0767	4	C9H11O2-
157.0658	35	C11H9O-
158.0371	21	C10H6O2-
159.0452	100	C10H7O2-
159.0818	6	C11H11O-
160.0167	215	C9H4O3-
161.0244	30	C9H5O3-
163.0398	4	C9H7O3-
164.0478	6	C9H8O3-
171.0818	5	C12H11O-
173.0244	9	C10H5O3-
173.0609	13	C11H9O2-
174.0322	20	C10H6O3-
175.0401	27	C10H7O3-
185.0607	10	C12H9O2-
187.0402	89	C11H7O3-
201.0556	15	C12H9O3-
