Mass spectrum: Biochanin A; LC-ESI-QFT; MS2; CE: 45; R=17500; [M+H]+
Name: Biochanin A
Name: 5,7-dihydroxy-3-(4-methoxyphenyl)chromen-4-one
Formula: C16H12O5
Exact mass: 284.0685
SMILES: COC1=CC=C(C=C1)C1=COC2=C(C(O)=CC(O)=C2)C1=O
InChI: InChI=1S/C16H12O5/c1-20-11-4-2-9(3-5-11)12-8-21-14-7-10(17)6-13(18)15(14)16(12)19/h2-8,17-18H,1H3
Instrument: Q Exactive Orbitrap (Thermo Scientific)
Instrument type: LC-ESI-QFT
Ms type: MS2
Ion mode: POSITIVE
Ionization: ESI
Fragmentation mode: HCD
Collision energy: 45
Resolution: 17500
Column name: Acquity BEH C18 1.7um, 2.1x150mm (Waters)
Retention time: 17.742 min
Base peak: 79.0211
Precursor m/z: 285.0757
Precursor type: [M+H]+
Precursor intensity: 7975860.4375
m/z	relative intensity	assigned
67.0178	2	C4H3O+
68.9969	3	C3HO2+
79.0541	1	C6H7+
103.0543	3	C8H7+
105.0699	6	C8H9+
107.0491	13	C7H7O+
111.0076	2	C5H3O3+
118.0413	26	C8H6O+
119.0492	2	C8H7O+
121.0284	3	C7H5O2+
123.044	77	C7H7O2+
124.0155	8	C6H4O3+
131.0492	2	C9H7O+
133.0647	16	C9H9O+
135.0439	2	C8H7O2+
139.039	8	C7H7O3+
145.065	1	C10H9O+
147.0441	1	C9H7O2+
149.0233	77	C8H5O3+
151.0389	1	C8H7O3+
152.0104	42	C7H4O4+
153.0182	46	C7H5O4+
158.0362	7	C10H6O2+
159.0443	1	C10H7O2+
159.0803	1	C11H11O+
161.0598	1	C10H9O2+
161.0959	2	C11H13O+
163.0389	5	C9H7O3+
167.0338	2	C8H7O4+
169.0646	2	C12H9O+
170.0209	143	C7H6O5+
173.06	3	C11H9O2+
179.0339	26	C9H7O4+
183.0441	1	C12H7O2+
183.0805	2	C13H11O+
184.0367	11	C8H8O5+
186.0674	1	C12H10O2+
187.0753	2	C12H11O2+
192.0417	1	C10H8O4+
197.0595	8	C13H9O2+
199.0757	2	C13H11O2+
200.0468	1	C12H8O3+
201.0547	7	C12H9O3+
201.0908	2	C13H13O2+
211.0751	2	C14H11O2+
213.0546	13	C13H9O3+
214.0626	5	C13H10O3+
215.0709	3	C13H11O3+
216.0413	1	C12H8O4+
224.0469	1	C14H8O3+
225.0546	3	C14H9O3+
226.0624	2	C14H10O3+
229.086	141	C14H13O3+
239.07	2	C15H11O3+
241.049	4	C14H9O4+
242.0573	73	C14H10O4+
243.065	1	C14H11O4+
252.0416	18	C15H8O4+
253.0495	99	C15H9O4+
254.056	1	C15H10O4+
255.0651	4	C15H11O4+
257.0808	11	C15H13O4+
261.0758	1	C14H13O5+
267.0646	2	C16H11O4+
269.0444	69	C15H9O5+
270.0522	241	C15H10O5+
285.0757	999	C16H13O5+
