Mass spectrum: Sulfasalazine; LC-ESI-QFT; MS2; CE: 30; R=17500; [M+H]+
Name: Sulfasalazine
Name: 2-hydroxy-5-[[4-(pyridin-2-ylsulfamoyl)phenyl]diazenyl]benzoic acid
Formula: C18H14N4O5S
Exact mass: 398.0685
SMILES: C1=CC=NC(=C1)NS(=O)(=O)C2=CC=C(C=C2)N=NC3=CC(=C(C=C3)O)C(=O)O
InChI: InChI=1S/C18H14N4O5S/c23-16-9-6-13(11-15(16)18(24)25)21-20-12-4-7-14(8-5-12)28(26,27)22-17-3-1-2-10-19-17/h1-11,23H,(H,19,22)(H,24,25)
Instrument: Q Exactive Orbitrap (Thermo Scientific)
Instrument type: LC-ESI-QFT
Ms type: MS2
Ion mode: POSITIVE
Ionization: ESI
Fragmentation mode: HCD
Collision energy: 30
Resolution: 17500
Column name: Acquity BEH C18 1.7um, 2.1x150mm (Waters)
Retention time: 16.948 min
Base peak: 79.0211
Precursor m/z: 399.0758
Precursor type: [M+H]+
Precursor intensity: 882192.625
m/z	relative intensity	assigned
94.0526	21	C5H6N2+
95.0489	3	C6H7O+
95.0605	35	C5H7N2+
119.0129	26	C7H3O2+
121.0396	11	C6H5N2O+
122.0234	8	C6H4NO2+
134.0236	2	C7H4NO2+
137.0231	9	C7H5O3+
152.0344	17	C7H6NO3+
165.0296	57	C7H5N2O3+
197.0714	7	C6H15NO4S+
199.0501	9	C11H7N2O2+
213.0661	55	C12H9N2O2+
223.0502	7	C13H7N2O2+
226.0612	18	C12H8N3O2+
241.0606	65	C13H9N2O3+
242.0686	7	C13H10N2O3+
256.0475	5	C13H8N2O4+
257.0559	35	C13H9N2O4+
259.0717	24	C13H11N2O4+
261.1022	7	C17H13N2O+
269.0672	4	C13H9N4O3+
273.0507	50	C13H9N2O5+
287.0811	5	C10H15N4O4S+
289.1096	4	C17H13N4O+
305.0229	27	C13H9N2O5S+
315.088	32	C18H11N4O2+
317.1036	211	C18H13N4O2+
332.0909	67	C18H12N4O3+
333.0986	93	C18H13N4O3+
335.1142	26	C18H15N4O3+
349.0933	58	C18H13N4O4+
381.0657	999	C18H13N4O4S+
399.0764	195	C18H15N4O5S+
