Mass spectrum: Amiodarone hydrochloride; LC-ESI-QFT; MS2; CE: 60; R=17500; [M+H]+
Name: Amiodarone
Name: (2-butyl-1-benzofuran-3-yl)-[4-[2-(diethylamino)ethoxy]-3,5-diiodophenyl]methanone
Formula: C25H29I2NO3
Exact mass: 645.0237
SMILES: CCCCC1=C(C(=O)C2=CC(I)=C(OCCN(CC)CC)C(I)=C2)C2=CC=CC=C2O1
InChI: InChI=1S/C25H29I2NO3/c1-4-7-11-22-23(18-10-8-9-12-21(18)31-22)24(29)17-15-19(26)25(20(27)16-17)30-14-13-28(5-2)6-3/h8-10,12,15-16H,4-7,11,13-14H2,1-3H3
Instrument: Q Exactive Orbitrap (Thermo Scientific)
Instrument type: LC-ESI-QFT
Ms type: MS2
Ion mode: POSITIVE
Ionization: ESI
Fragmentation mode: HCD
Collision energy: 60
Resolution: 17500
Column name: Acquity BEH C18 1.7um, 2.1x150mm (Waters)
Retention time: 18.103 min
Base peak: 79.0211
Precursor m/z: 646.031
Precursor type: [M+H]+
Precursor intensity: 17451204
m/z	relative intensity	assigned
56.0495	1	C3H6N+
58.0651	999	C3H8N+
70.065	3	C4H8N+
72.0807	131	C4H10N+
73.0885	5	C4H11N+
74.0963	5	C4H12N+
86.0964	108	C5H12N+
91.0543	1	C7H7+
100.112	43	C6H14N+
103.0541	1	C8H7+
115.0543	1	C9H7+
117.0697	1	C9H9+
118.0412	1	C8H6O+
131.0491	14	C9H7O+
131.0855	1	C10H11+
159.044	33	C10H7O2+
165.07	2	C13H9+
171.044	4	C11H7O2+
178.0777	1	C14H10+
179.0494	1	C13H7O+
191.0855	1	C15H11+
192.0569	4	C14H8O+
193.0647	2	C14H9O+
201.0909	11	C13H13O2+
205.0648	7	C15H9O+
206.0724	2	C15H10O+
207.0804	1	C15H11O+
217.9228	1	C6H3IO+
218.0724	2	C16H10O+
219.0804	2	C16H11O+
220.0517	2	C15H8O2+
220.0882	1	C16H12O+
221.0597	9	C15H9O2+
231.0801	2	C17H11O+
233.0596	4	C16H9O2+
234.0674	6	C16H10O2+
235.0753	3	C16H11O2+
247.0754	9	C17H11O2+
248.0832	5	C17H12O2+
249.0542	1	C16H9O3+
259.0756	2	C18H11O2+
261.0546	1	C17H9O3+
261.091	1	C18H13O2+
272.9403	1	C9H6IO2+
275.0701	7	C18H11O3+
276.0782	5	C18H12O3+
289.0855	1	C19H13O3+
333.949	1	C14H7IO2+
346.9559	3	C15H8IO2+
372.8232	1	C7H3I2O2+
