Mass spectrum: N2-(4-Nitrophenyl)-L-glutamine; LC-ESI-QFT; MS2; CE: 90; R=17500; [M+H]+
Name: N2-(4-Nitrophenyl)-L-glutamine
Name: (2S)-5-amino-2-(4-nitroanilino)-5-oxopentanoic acid
Formula: C11H13N3O5
Exact mass: 267.0855
SMILES: NC(=O)CC[C@H](NC1=CC=C(C=C1)[N+]([O-])=O)C(O)=O
InChI: InChI=1S/C11H13N3O5/c12-10(15)6-5-9(11(16)17)13-7-1-3-8(4-2-7)14(18)19/h1-4,9,13H,5-6H2,(H2,12,15)(H,16,17)/t9-/m0/s1
Instrument: Q Exactive Orbitrap (Thermo Scientific)
Instrument type: LC-ESI-QFT
Ms type: MS2
Ion mode: POSITIVE
Ionization: ESI
Fragmentation mode: HCD
Collision energy: 90
Resolution: 17500
Column name: Acquity BEH C18 1.7um, 2.1x150mm (Waters)
Retention time: 11.256 min
Base peak: 79.0211
Precursor m/z: 268.0928
Precursor type: [M+H]+
Precursor intensity: 6609894.25
m/z	relative intensity	assigned
53.0022	22	C3HO+
53.9974	3	C2NO+
55.0178	4	C3H3O+
56.0495	409	C3H6N+
57.0335	6	C3H5O+
65.0385	16	C5H5+
67.0416	3	C4H5N+
68.0495	12	C4H6N+
69.0334	4	C4H5O+
84.0444	999	C4H6NO+
85.0283	17	C4H5O2+
92.0494	43	C6H6N+
93.0573	23	C6H7N+
104.0494	3	C7H6N+
110.06	14	C6H8NO+
119.0369	2	C7H5NO+
122.0475	101	C6H6N2O+
125.0471	22	C6H7NO2+
130.0651	21	C9H8N+
131.0728	3	C9H9N+
149.0347	3	C7H5N2O2+
150.03	5	C6H4N3O2+
158.0839	6	C10H10N2+
159.0684	3	C10H9NO+
181.0651	2	C11H7N3+
