Mass spectrum: Dodecanedioic acid; LC-ESI-QFT; MS2; CE: 15; R=17500; [M-H]-
Name: Dodecanedioic acid
Formula: C12H22O4
Exact mass: 230.1518
SMILES: OC(=O)CCCCCCCCCCC(O)=O
InChI: InChI=1S/C12H22O4/c13-11(14)9-7-5-3-1-2-4-6-8-10-12(15)16/h1-10H2,(H,13,14)(H,15,16)
Instrument: Q Exactive Orbitrap (Thermo Scientific)
Instrument type: LC-ESI-QFT
Ms type: MS2
Ion mode: NEGATIVE
Ionization: ESI
Fragmentation mode: HCD
Collision energy: 15
Resolution: 17500
Column name: Acquity BEH C18 1.7um, 2.1x150mm (Waters)
Retention time: 17.454 min
Base peak: 307.0977
Precursor m/z: 229.1445
Precursor type: [M-H]-
Precursor intensity: 26065593.52148
m/z	relative intensity	assigned
167.1442	119	C11H19O-
185.1549	5	C11H21O2-
211.134	440	C12H19O3-
229.1445	999	C12H21O4-
