Mass spectrum: 3-Ethylphenol; LC-ESI-QFT; MS2; CE: 75; R=17500; [M-H]-
Name: 3-Ethylphenol
Formula: C8H10O
Exact mass: 122.0732
SMILES: CCC1=CC=CC(O)=C1
InChI: InChI=1S/C8H10O/c1-2-7-4-3-5-8(9)6-7/h3-6,9H,2H2,1H3
Instrument: Q Exactive Orbitrap (Thermo Scientific)
Instrument type: LC-ESI-QFT
Ms type: MS2
Ion mode: NEGATIVE
Ionization: ESI
Fragmentation mode: HCD
Collision energy: 75
Resolution: 17500
Column name: Acquity BEH C18 1.7um, 2.1x150mm (Waters)
Retention time: 19.417 min
Base peak: 121.0659
Precursor m/z: 121.0659
Precursor type: [M-H]-
Precursor intensity: 10932940.00391
m/z	relative intensity	assigned
67.0191	1	C4H3O-
79.0553	2	C6H7-
91.0552	2	C7H7-
93.071	3	C7H9-
106.0423	19	C7H6O-
119.0501	12	C8H7O-
120.0581	14	C8H8O-
121.0659	999	C8H9O-
