Mass spectrum: Mepanipyrim; LC-ESI-QFT; MS2; CE: 60; R=17500; [M+H]+
Name: Mepanipyrim
Name: 4-methyl-N-phenyl-6-prop-1-ynylpyrimidin-2-amine
Formula: C14H13N3
Exact mass: 223.1109
SMILES: CC#CC1=CC(C)=NC(NC2=CC=CC=C2)=N1
InChI: InChI=1S/C14H13N3/c1-3-7-13-10-11(2)15-14(17-13)16-12-8-5-4-6-9-12/h4-6,8-10H,1-2H3,(H,15,16,17)
Instrument: Q Exactive Orbitrap (Thermo Scientific)
Instrument type: LC-ESI-QFT
Ms type: MS2
Ion mode: POSITIVE
Ionization: ESI
Fragmentation mode: HCD
Collision energy: 60
Resolution: 17500
Column name: Acquity BEH C18 1.7um, 2.1x150mm (Waters)
Retention time: 17.957 min
Base peak: 79.0211
Precursor m/z: 224.1182
Precursor type: [M+H]+
Precursor intensity: 53835086.40625
m/z	relative intensity	assigned
53.0386	21	C4H5+
54.0338	3	C3H4N+
56.0495	1	C3H6N+
63.0229	9	C5H3+
65.0385	64	C5H5+
66.0338	44	C4H4N+
66.0463	2	C5H6+
67.029	15	C3H3N2+
67.0416	4	C4H5N+
67.0541	7	C5H7+
68.0494	7	C4H6N+
77.0384	27	C6H5+
78.0338	1	C5H4N+
78.0463	6	C6H6+
79.0542	199	C6H7+
80.0494	57	C5H6N+
81.0572	5	C5H7N+
82.0527	1	C4H6N2+
82.0651	25	C5H8N+
89.0386	5	C7H5+
90.0338	49	C6H4N+
91.0291	1	C5H3N2+
91.0416	3	C6H5N+
91.0542	11	C7H7+
92.0494	18	C6H6N+
93.0447	2	C5H5N2+
93.0573	24	C6H7N+
94.0651	114	C6H8N+
95.0491	84	C4H5N3+
104.0494	220	C7H6N+
105.0447	40	C6H5N2+
105.0573	4	C7H7N+
106.0651	623	C7H8N+
107.0603	46	C6H7N2+
107.0729	24	C7H9N+
108.0679	1	C6H8N2+
109.0645	1	C5H7N3+
115.0542	34	C9H7+
116.0495	8	C8H6N+
117.0572	9	C8H7N+
118.0526	7	C7H6N2+
118.065	41	C8H8N+
119.0604	88	C7H7N2+
120.0681	1	C7H8N2+
121.076	159	C7H9N2+
128.0493	3	C9H6N+
128.062	2	C10H8+
129.0449	2	C8H5N2+
129.0698	11	C10H9+
130.0396	1	C7H4N3+
130.0525	2	C8H6N2+
130.065	10	C9H8N+
131.0603	211	C8H7N2+
132.0681	59	C8H8N2+
132.0803	6	C9H10N+
133.0758	1	C8H9N2+
133.0885	9	C9H11N+
139.0541	7	C11H7+
140.0494	17	C10H6N+
141.0693	1	C11H9+
142.0651	84	C10H8N+
143.0603	98	C9H7N2+
143.073	13	C10H9N+
144.0681	1	C9H8N2+
145.0759	3	C9H9N2+
146.0711	9	C8H8N3+
147.079	37	C8H9N3+
148.0868	4	C8H10N3+
148.1121	10	C10H14N+
152.0618	3	C12H8+
153.0697	7	C12H9+
154.0652	6	C11H8N+
155.0604	4	C10H7N2+
155.073	1	C11H9N+
156.0684	2	C10H8N2+
156.0807	17	C11H10N+
157.0759	8	C10H9N2+
157.0885	3	C11H11N+
158.084	3	C10H10N2+
159.0915	19	C10H11N2+
166.0651	38	C12H8N+
167.0607	8	C11H7N2+
167.0727	23	C12H9N+
168.0682	62	C11H8N2+
169.0643	2	C10H7N3+
169.0759	7	C11H9N2+
170.0963	3	C12H12N+
178.0656	1	C13H8N+
179.0729	5	C13H9N+
180.0807	68	C13H10N+
181.0759	24	C12H9N2+
181.0886	5	C13H11N+
182.0839	98	C12H10N2+
183.0794	7	C11H9N3+
183.0916	107	C12H11N2+
184.0869	56	C11H10N3+
184.0993	9	C12H12N2+
190.065	8	C14H8N+
191.0725	5	C14H9N+
192.068	57	C13H8N2+
193.0763	1	C13H9N2+
194.0711	1	C12H8N3+
194.0838	2	C13H10N2+
195.0916	20	C13H11N2+
196.0896	1	C12H10N3+
196.0998	11	C13H12N2+
197.0961	2	C12H11N3+
197.1072	19	C13H13N2+
198.1027	1	C12H12N3+
205.076	28	C14H9N2+
206.0838	127	C14H10N2+
207.0916	129	C14H11N2+
208.0868	68	C13H10N3+
208.0993	24	C14H12N2+
209.0947	190	C13H11N3+
221.0948	2	C14H11N3+
222.1025	56	C14H12N3+
223.1103	45	C14H13N3+
224.1181	999	C14H14N3+
