Mass spectrum: Bupropion; LC-ESI-QFT; MS2; CE: 75; R=17500; [M+H]+
Name: Bupropion
Name: 2-(tert-butylamino)-1-(3-chlorophenyl)propan-1-one
Formula: C13H18ClNO
Exact mass: 239.1077
SMILES: CC(NC(C)(C)C)C(=O)C1=CC=CC(Cl)=C1
InChI: InChI=1S/C13H18ClNO/c1-9(15-13(2,3)4)12(16)10-6-5-7-11(14)8-10/h5-9,15H,1-4H3
Instrument: Q Exactive Orbitrap (Thermo Scientific)
Instrument type: LC-ESI-QFT
Ms type: MS2
Ion mode: POSITIVE
Ionization: ESI
Fragmentation mode: HCD
Collision energy: 75
Resolution: 17500
Column name: Acquity BEH C18 1.7um, 2.1x150mm (Waters)
Retention time: 13.415 min
Base peak: 79.0211
Precursor m/z: 240.115
Precursor type: [M+H]+
Precursor intensity: 22233014.875
m/z	relative intensity	assigned
53.0022	6	C3HO+
53.0386	3	C4H5+
55.0179	1	C3H3O+
57.0699	188	C4H9+
72.0442	1	C3H6NO+
77.0386	2	C6H5+
89.0386	1	C7H5+
95.0491	8	C6H7O+
102.0463	1	C8H6+
103.0542	247	C8H7+
104.0621	6	C8H8+
129.0103	2	C6H6ClO+
130.0652	317	C9H8N+
131.0729	999	C9H9N+
132.0569	12	C9H8O+
138.9946	21	C7H4ClO+
139.0309	265	C8H8Cl+
148.0758	3	C9H10NO+
151.0183	24	C8H6ClN+
158.0712	2	C11H10O+
166.0418	49	C9H9ClN+
167.0258	17	C9H8ClO+
