Mass spectrum: SSR 240612; LC-ESI-QFT; MS2; CE: 30; R=17500; [M+H]+
Name: SSR 240612
Name: Ssr-240612 free base
Name: (2R)-2-[[(3R)-3-(1,3-benzodioxol-5-yl)-3-[(6-methoxynaphthalen-2-yl)sulfonylamino]propanoyl]amino]-3-[4-[[(2S,6R)-2,6-dimethylpiperidin-1-yl]methyl]phenyl]-N-methyl-N-propan-2-ylpropanamide
Formula: C42H52N4O7S
Exact mass: 756.3557
SMILES: COc1ccc2cc(S(=O)(=O)N[C@H](CC(=O)N[C@H](Cc3ccc(CN4[C@@H](C)CCC[C@H]4C)cc3)C(=O)N(C)C(C)C)c3ccc4c(c3)OCO4)ccc2c1
InChI: InChI=1S/C42H52N4O7S/c1-27(2)45(5)42(48)38(20-30-10-12-31(13-11-30)25-46-28(3)8-7-9-29(46)4)43-41(47)24-37(34-16-19-39-40(23-34)53-26-52-39)44-54(49,50)36-18-15-32-21-35(51-6)17-14-33(32)22-36/h10-19,21-23,27-29,37-38,44H,7-9,20,24-26H2,1-6H3,(H,43,47)/t28-,29+,37-,38-/m1/s1
Instrument: Q Exactive Orbitrap (Thermo Scientific)
Instrument type: LC-ESI-QFT
Ms type: MS2
Ion mode: POSITIVE
Ionization: ESI
Fragmentation mode: HCD
Collision energy: 30
Resolution: 17500
Column name: Acquity BEH C18 1.7um, 2.1x150mm (Waters)
Retention time: 15.712 min
Base peak: 79.0211
Precursor m/z: 757.3629
Precursor type: [M+H]+
Precursor intensity: 6547336.5
m/z	relative intensity	assigned
58.0287	4	C2H4NO+
70.0651	1	C4H8N+
72.0807	360	C4H10N+
74.0964	83	C4H12N+
91.0543	2	C7H7+
100.0756	10	C5H10NO+
105.0699	1	C8H9+
112.1121	51	C7H14N+
114.1278	3	C7H16N+
115.0548	2	C9H7+
117.0698	43	C9H9+
124.0756	3	C7H10NO+
125.0835	7	C7H11NO+
129.1022	9	C6H13N2O+
131.0492	2	C9H7O+
132.0807	9	C9H10N+
134.0963	1	C9H12N+
135.044	1	C8H7O2+
143.0492	1	C10H7O+
144.0574	2	C10H8O+
145.0283	1	C9H5O2+
145.0648	4	C10H9O+
149.0597	36	C9H9O2+
150.0549	28	C8H8NO2+
155.081	1	C7H11N2O2+
157.0649	1	C11H9O+
158.06	57	C10H8NO+
159.1169	1	C12H15+
160.0756	2	C10H10NO+
161.0595	2	C10H9O2+
173.0601	1	C11H9O2+
174.0914	13	C11H12NO+
175.039	229	C10H7O3+
184.0758	5	C12H10NO+
188.1434	18	C13H18N+
192.0655	16	C10H10NO3+
216.1383	999	C14H18NO+
221.0266	23	C11H9O3S+
230.0448	10	C12H8NO4+
231.1491	32	C14H19N2O+
237.0909	1	C16H13O2+
242.1539	17	C16H20NO+
245.2011	5	C16H25N2+
247.0754	4	C17H11O2+
249.0908	3	C17H13O2+
254.1179	3	C16H16NO2+
259.1439	34	C15H19N2O2+
261.091	1	C18H13O2+
264.1016	1	C17H14NO2+
271.1806	3	C17H23N2O+
275.0696	1	C10H15N2O5S+
277.0858	1	C18H13O3+
289.0862	6	C19H13O3+
306.1125	74	C19H16NO3+
346.1802	7	C23H24NO2+
348.1594	49	C22H22NO3+
370.0744	40	C19H16NO5S+
372.2646	34	C22H34N3O2+
407.1966	42	C24H27N2O4+
447.2279	8	C27H31N2O4+
520.3176	6	C25H48N2O7S+
543.1588	16	C38H23O4+
684.2725	2	C38H42N3O7S+
757.3634	8	C42H53N4O7S+
