Mass spectrum: 6-Phenyl-1,3,5-triazine-2,4-diamine; LC-ESI-QFT; MS2; CE: 75; R=17500; [M+H]+
Name: 6-Phenyl-1,3,5-triazine-2,4-diamine
Formula: C9H9N5
Exact mass: 187.0858
SMILES: NC1=NC(=NC(N)=N1)C1=CC=CC=C1
InChI: InChI=1S/C9H9N5/c10-8-12-7(13-9(11)14-8)6-4-2-1-3-5-6/h1-5H,(H4,10,11,12,13,14)
Instrument: Q Exactive Orbitrap (Thermo Scientific)
Instrument type: LC-ESI-QFT
Ms type: MS2
Ion mode: POSITIVE
Ionization: ESI
Fragmentation mode: HCD
Collision energy: 75
Resolution: 17500
Column name: Acquity BEH C18 1.7um, 2.1x150mm (Waters)
Retention time: 10.585 min
Base peak: 79.0212
Precursor m/z: 188.0931
Precursor type: [M+H]+
Precursor intensity: 22105096.26563
m/z	relative intensity	assigned
53.0386	3	C4H5+
68.0243	176	C2H2N3+
77.0385	2	C6H5+
85.0509	287	C2H5N4+
91.0542	4	C7H7+
95.0492	9	C4H5N3+
104.0494	999	C7H6N+
105.0447	3	C6H5N2+
118.065	1	C8H8N+
121.076	34	C7H9N2+
122.0599	3	C5H6N4+
129.0448	3	C8H5N2+
136.0758	2	C6H8N4+
146.0712	70	C8H8N3+
188.0931	88	C9H10N5+
