Mass spectrum: Phosalone; LC-ESI-QFT; MS2; CE: 90; R=17500; [M+H]+
Name: Phosalone
Name: 6-chloro-3-(diethoxyphosphinothioylsulfanylmethyl)-1,3-benzoxazol-2-one
Formula: C12H15ClNO4PS2
Exact mass: 366.9869
SMILES: CCOP(=S)(OCC)SCN1C(=O)OC2=CC(Cl)=CC=C12
InChI: InChI=1S/C12H15ClNO4PS2/c1-3-16-19(20,17-4-2)21-8-14-10-6-5-9(13)7-11(10)18-12(14)15/h5-7H,3-4,8H2,1-2H3
Instrument: Q Exactive Orbitrap (Thermo Scientific)
Instrument type: LC-ESI-QFT
Ms type: MS2
Ion mode: POSITIVE
Ionization: ESI
Fragmentation mode: HCD
Collision energy: 90
Resolution: 17500
Column name: Acquity BEH C18 1.7um, 2.1x150mm (Waters)
Retention time: 18.842 min
Base peak: 79.0211
Precursor m/z: 367.9941
Precursor type: [M+H]+
Precursor intensity: 4155779.40625
m/z	relative intensity	assigned
51.023	16	C4H3+
53.0022	68	C3HO+
53.0386	43	C4H5+
53.9974	9	C2NO+
55.0543	999	C4H7+
56.0494	20	C3H6N+
57.0699	98	C4H9+
64.9788	21	CH2ClO+
67.0542	256	C5H7+
69.0699	353	C5H9+
70.0651	15	C4H8N+
71.0491	9	C4H7O+
75.0229	146	C6H3+
79.0543	122	C6H7+
81.0699	178	C6H9+
83.0491	10	C5H7O+
83.0855	76	C6H11+
85.0649	13	C5H9O+
86.9997	13	C4H4Cl+
91.0543	92	C7H7+
93.07	55	C7H9+
95.0492	26	C6H7O+
95.0856	85	C7H11+
97.0647	9	C6H9O+
98.9842	22	H4O4P+
102.0338	31	C7H4N+
105.0699	53	C8H9+
107.0856	17	C8H11+
109.1014	11	C4H16NP+
114.9614	161	H4O3PS+
119.0857	14	C5H14NP+
120.0444	14	C7H6NO+
129.0102	61	C6H6ClO+
130.0402	21	C3H11ClO3+
139.0058	88	C3H7O4S+
170.0007	14	C7H5ClNO2+
