Mass spectrum: Tris(2-butoxyethyl) phosphate; LC-ESI-QFT; MS2; CE: 90; R=17500; [M+H]+
Name: Tris(2-butoxyethyl) phosphate
Formula: C18H39O7P
Exact mass: 398.2433
SMILES: CCCCOCCOP(=O)(OCCOCCCC)OCCOCCCC
InChI: InChI=1S/C18H39O7P/c1-4-7-10-20-13-16-23-26(19,24-17-14-21-11-8-5-2)25-18-15-22-12-9-6-3/h4-18H2,1-3H3
Instrument: Q Exactive Orbitrap (Thermo Scientific)
Instrument type: LC-ESI-QFT
Ms type: MS2
Ion mode: POSITIVE
Ionization: ESI
Fragmentation mode: HCD
Collision energy: 90
Resolution: 17500
Column name: Acquity BEH C18 1.7um, 2.1x150mm (Waters)
Retention time: 19.345 min
Base peak: 79.0211
Precursor m/z: 399.2506
Precursor type: [M+H]+
Precursor intensity: 44981307.59375
m/z	relative intensity	assigned
53.0022	136	C3HO+
53.0386	25	C4H5+
55.0543	588	C4H7+
57.0699	999	C4H9+
59.0045	21	C2H4P+
59.0491	55	C3H7O+
61.0202	119	C2H6P+
62.028	191	C2H7P+
67.9892	6	C3O2+
68.9971	5	C3HO2+
75.0358	79	C3H8P+
76.0436	349	C3H9P+
89.0515	43	C4H10P+
90.0593	112	C4H11P+
91.0307	24	C3H8OP+
91.0671	6	C4H12P+
98.9842	876	H4O4P+
101.0512	5	C5H10P+
103.0671	28	C5H12P+
104.0747	5	C5H13P+
108.0335	33	C3H9O2P+
116.9947	8	H6O5P+
117.0828	36	C6H14P+
119.0621	16	C5H12OP+
125	23	C2H6O4P+
131.0104	5	CH8O5P+
131.0985	66	C7H16P+
133.0779	7	C6H14OP+
145.1141	38	C8H18P+
159.13	16	C9H20P+
173.1456	57	C10H22P+
187.1613	27	C11H24P+
201.1768	16	C12H26P+
215.1924	26	C13H28P+
229.2082	63	C14H30P+
243.224	11	C15H32P+
257.2397	6	C16H34P+
271.2549	8	C17H36P+
285.2712	10	C18H38P+
