Mass spectrum: Imazaquin; LC-ESI-QFT; MS2; CE: 45; R=17500; [M+H]+
Name: Imazaquin
Name: 2-(4-methyl-5-oxo-4-propan-2-yl-1H-imidazol-2-yl)quinoline-3-carboxylic acid
Formula: C17H17N3O3
Exact mass: 311.1270
SMILES: CC(C)C1(C)N=C(NC1=O)C1=NC2=C(C=CC=C2)C=C1C(O)=O
InChI: InChI=1S/C17H17N3O3/c1-9(2)17(3)16(23)19-14(20-17)13-11(15(21)22)8-10-6-4-5-7-12(10)18-13/h4-9H,1-3H3,(H,21,22)(H,19,20,23)
Instrument: Q Exactive Orbitrap (Thermo Scientific)
Instrument type: LC-ESI-QFT
Ms type: MS2
Ion mode: POSITIVE
Ionization: ESI
Fragmentation mode: HCD
Collision energy: 45
Resolution: 17500
Column name: Acquity BEH C18 1.7um, 2.1x150mm (Waters)
Retention time: 15.221 min
Base peak: 79.0212
Precursor m/z: 312.1343
Precursor type: [M+H]+
Precursor intensity: 18919605
m/z	relative intensity	assigned
53.0022	14	C3HO+
53.9974	1	C2NO+
56.0494	1	C3H6N+
58.0651	31	C3H8N+
67.0542	6	C5H7+
69.0698	636	C5H9+
70.0651	9	C4H8N+
71.0729	6	C4H9N+
71.0855	19	C5H11+
72.0806	1	C4H10N+
84.0808	9	C5H10N+
86.0964	792	C5H12N+
97.0648	60	C6H9O+
114.0913	8	C6H12NO+
116.0496	1	C8H6N+
127.0418	1	C9H5N+
128.0501	5	C9H6N+
130.0529	2	C8H6N2+
146.0599	2	C9H8NO+
153.0452	2	C10H5N2+
154.0526	2	C10H6N2+
155.0602	55	C10H7N2+
157.0761	2	C10H9N2+
160.0757	7	C10H10NO+
171.0551	3	C10H7N2O+
174.0549	4	C10H8NO2+
181.0395	76	C11H5N2O+
182.0961	3	C13H12N+
183.0552	15	C11H7N2O+
183.0918	10	C12H11N2+
184.0391	4	C11H6NO2+
186.0548	3	C11H8NO2+
197.071	162	C12H9N2O+
198.0662	551	C11H8N3O+
199.0501	999	C11H7N2O2+
201.0659	3	C11H9N2O2+
206.0959	1	C15H12N+
208.0759	1	C14H10NO+
211.0498	10	C12H7N2O2+
213.0653	1	C12H9N2O2+
216.0764	6	C11H10N3O2+
221.1062	1	C15H13N2+
223.0742	11	C13H9N3O+
223.1229	83	C15H15N2+
224.0817	266	C13H10N3O+
225.1021	114	C14H13N2O+
226.0859	5	C14H12NO2+
226.0973	24	C13H12N3O+
227.0817	11	C13H11N2O2+
232.0746	1	C16H10NO+
234.079	2	C15H10N2O+
240.1018	1	C15H14NO2+
240.1501	2	C15H18N3+
241.0844	13	C13H11N3O2+
242.0922	2	C13H12N3O2+
249.1021	163	C16H13N2O+
251.0689	33	C14H9N3O2+
252.0766	751	C14H10N3O2+
266.1287	365	C16H16N3O+
267.1126	753	C16H15N2O2+
269.0793	37	C14H11N3O3+
270.0871	285	C14H12N3O3+
282.0867	1	C15H12N3O3+
284.1392	68	C16H18N3O2+
294.1237	29	C17H16N3O2+
312.1341	164	C17H18N3O3+
