Mass spectrum: CP-728663; LC-ESI-QFT; MS2; CE: 15; R=17500; [M+H]+
Name: CP-728663
Name: (1aR,7bS)-5-[[[(2S,3S,6S)-6-ethyl-2-phenylpiperidin-3-yl]amino]methyl]-6-methoxy-3-methyl-1a,7b-dihydro-1H-cyclopropa[c]quinolin-2-one
Formula: C26H33N3O2
Exact mass: 419.2573
SMILES: CC[C@H]1CC[C@H](NCC2=CC3=C(C=C2OC)[C@H]2C[C@H]2C(=O)N3C)[C@@H](N1)C1=CC=CC=C1
InChI: InChI=1S/C26H33N3O2/c1-4-18-10-11-22(25(28-18)16-8-6-5-7-9-16)27-15-17-12-23-20(14-24(17)31-3)19-13-21(19)26(30)29(23)2/h5-9,12,14,18-19,21-22,25,27-28H,4,10-11,13,15H2,1-3H3/t18-,19+,21+,22-,25-/m0/s1
Instrument: Q Exactive Orbitrap (Thermo Scientific)
Instrument type: LC-ESI-QFT
Ms type: MS2
Ion mode: POSITIVE
Ionization: ESI
Fragmentation mode: HCD
Collision energy: 15
Resolution: 17500
Column name: Acquity BEH C18 1.7um, 2.1x150mm (Waters)
Retention time: 11.327 min
Base peak: 79.0211
Precursor m/z: 420.2646
Precursor type: [M+H]+
Precursor intensity: 27046683.5
m/z	relative intensity	assigned
188.1432	171	C13H18N+
203.1541	8	C13H19N2+
216.1017	476	C13H14NO2+
403.2379	4	C26H31N2O2+
420.2643	999	C26H34N3O2+
