Mass spectrum: UK-416244; LC-ESI-QFT; MS2; CE: 15; R=17500; [M+H]+
Name: UK-416244
Name: 3-((Dimethylamino)methyl)-4-(3-methyl-4-(methylthio)phenoxy)benzenesulfonamide
Name: 3-[(dimethylamino)methyl]-4-(3-methyl-4-methylsulfanylphenoxy)benzenesulfonamide
Formula: C17H22N2O3S2
Exact mass: 366.1072
SMILES: CSC1=CC=C(OC2=CC=C(C=C2CN(C)C)S(N)(=O)=O)C=C1C
InChI: InChI=1S/C17H22N2O3S2/c1-12-9-14(5-8-17(12)23-4)22-16-7-6-15(24(18,20)21)10-13(16)11-19(2)3/h5-10H,11H2,1-4H3,(H2,18,20,21)
Instrument: Q Exactive Orbitrap (Thermo Scientific)
Instrument type: LC-ESI-QFT
Ms type: MS2
Ion mode: POSITIVE
Ionization: ESI
Fragmentation mode: HCD
Collision energy: 15
Resolution: 17500
Column name: Acquity BEH C18 1.7um, 2.1x150mm (Waters)
Retention time: 13.853 min
Base peak: 79.0212
Precursor m/z: 367.1145
Precursor type: [M+H]+
Precursor intensity: 17909418.375
m/z	relative intensity	assigned
242.076	9	C15H14OS+
260.0387	3	C13H10NO3S+
274.0526	5	C14H12NO3S+
275.061	18	C14H13NO3S+
304.0889	1	C15H16N2O3S+
322.0565	107	C15H16NO3S2+
367.1143	999	C17H23N2O3S2+
