Mass spectrum: Xanthone; LC-ESI-QFT; MS2; CE: 45; R=17500; [M+H]+
Name: Xanthone
Formula: C13H8O2
Exact mass: 196.0524
SMILES: O=C1C2=C(OC3=C1C=CC=C3)C=CC=C2
InChI: InChI=1S/C13H8O2/c14-13-9-5-1-3-7-11(9)15-12-8-4-2-6-10(12)13/h1-8H
Instrument: Q Exactive Orbitrap (Thermo Scientific)
Instrument type: LC-ESI-QFT
Ms type: MS2
Ion mode: POSITIVE
Ionization: ESI
Fragmentation mode: HCD
Collision energy: 45
Resolution: 17500
Column name: Acquity BEH C18 1.7um, 2.1x150mm (Waters)
Retention time: 17.885 min
Base peak: 79.0212
Precursor m/z: 197.0597
Precursor type: [M+H]+
Precursor intensity: 3023127.1875
m/z	relative intensity	assigned
77.0387	1	C6H5+
141.07	2	C11H9+
169.0649	1	C12H9O+
197.0598	999	C13H9O2+
