Mass spectrum: CP-607366; LC-ESI-QFT; MS2; CE: 75; R=17500; [M+H]+
Name: CP-607366
Name: 1-(2-(3,4-Dichlorophenoxy)-5-fluorophenyl)-N-methylmethanamine
Name: 1-[2-(3,4-dichlorophenoxy)-5-fluorophenyl]-N-methylmethanamine
Formula: C14H12Cl2FNO
Exact mass: 299.0280
SMILES: CNCC1=C(OC2=CC=C(Cl)C(Cl)=C2)C=CC(F)=C1
InChI: InChI=1S/C14H12Cl2FNO/c1-18-8-9-6-10(17)2-5-14(9)19-11-3-4-12(15)13(16)7-11/h2-7,18H,8H2,1H3
Instrument: Q Exactive Orbitrap (Thermo Scientific)
Instrument type: LC-ESI-QFT
Ms type: MS2
Ion mode: POSITIVE
Ionization: ESI
Fragmentation mode: HCD
Collision energy: 75
Resolution: 17500
Column name: Acquity BEH C18 1.7um, 2.1x150mm (Waters)
Retention time: 15.598 min
Base peak: 79.0211
Precursor m/z: 300.0353
Precursor type: [M+H]+
Precursor intensity: 17508675.25
m/z	relative intensity	assigned
75.0229	3	C6H3+
108.9841	2	C6H2Cl+
113.0396	3	C6H6FO+
123.0354	4	C2H13Cl2O+
129.0102	1	C6H6ClO+
139.0058	1	C9HNO+
150.0467	1	C12H6+
152.0621	1	C12H8+
169.0644	1	C12H9O+
170.0526	113	C12H7F+
171.0605	29	C12H8F+
172.9669	2	C9ClNO+
186.0232	90	C12H7Cl+
187.0552	1	C12H8FO+
197.0399	1	C13H6FO+
198.0472	4	C13H7FO+
199.0554	610	C13H8FO+
205.0214	2	C12H7ClF+
206.0294	56	C12H8ClF+
213.0103	1	C13H6ClO+
214.0172	1	C13H7ClO+
215.0259	33	C13H8ClO+
220.9922	1	C12H7Cl2+
230.0372	5	C13H9ClNO+
233.0164	999	C13H7ClFO+
234.0242	8	C13H8ClFO+
248.9867	6	C13H7Cl2O+
