Mass spectrum: Sulfaquinoxaline; LC-ESI-QFT; MS2; CE: 75; R=17500; [M-H]-
Name: Sulfaquinoxaline
Name: 4-amino-N-quinoxalin-2-ylbenzenesulfonamide
Formula: C14H12N4O2S
Exact mass: 300.0681
SMILES: NC1=CC=C(C=C1)S(=O)(=O)NC1=CN=C2C=CC=CC2=N1
InChI: InChI=1S/C14H12N4O2S/c15-10-5-7-11(8-6-10)21(19,20)18-14-9-16-12-3-1-2-4-13(12)17-14/h1-9H,15H2,(H,17,18)
Instrument: Q Exactive Orbitrap (Thermo Scientific)
Instrument type: LC-ESI-QFT
Ms type: MS2
Ion mode: NEGATIVE
Ionization: ESI
Fragmentation mode: HCD
Collision energy: 75
Resolution: 17500
Column name: Acquity BEH C18 1.7um, 2.1x150mm (Waters)
Retention time: 13.928 min
Base peak: 358.0229
Precursor m/z: 299.0608
Precursor type: [M-H]-
Precursor intensity: 6118090.384766
m/z	relative intensity	assigned
61.9706	19	NOS-
63.9625	77	O2S-
66.0098	5	C2N3-
77.9655	61	NO2S-
78.9734	11	HNO2S-
79.9812	10	H2NO2S-
90.0348	6	C6H4N-
91.0427	6	C6H5N-
92.0506	31	C6H6N-
93.0345	2	C6H5O-
107.0377	51	C6H5NO-
108.0455	24	C6H6NO-
115.0302	26	C7H3N2-
117.0459	221	C7H5N2-
131.0377	2	C8H5NO-
132.0331	15	C7H4N2O-
132.0567	6	C7H6N3-
142.0411	544	C8H4N3-
143.0488	13	C8H5N3-
144.0567	999	C8H6N3-
145.0407	10	C8H5N2O-
156.0127	15	C6H6NO2S-
181.0774	3	C12H9N2-
206.0722	4	C13H8N3-
207.0802	9	C13H9N3-
208.0882	31	C13H10N3-
232.0755	30	C14H8N4-
233.0832	77	C14H9N4-
235.099	3	C14H11N4-
