Mass spectrum: AVE3295; LC-ESI-QFT; MS2; CE: 60; R=17500; [M-H]-
Name: AVE3295
Name: 5-Fluoro-N-[(1S)-1-phenylpropyl]-2-[(quinolin-8-ylsulfonyl)amino]benzamide
Name: 5-fluoro-N-[(1S)-1-phenylpropyl]-2-(quinolin-8-ylsulfonylamino)benzamide
Formula: C25H22FN3O3S
Exact mass: 463.1366
SMILES: CC[C@H](NC(=O)c1cc(F)ccc1NS(=O)(=O)c1cccc2cccnc12)c1ccccc1
InChI: InChI=1S/C25H22FN3O3S/c1-2-21(17-8-4-3-5-9-17)28-25(30)20-16-19(26)13-14-22(20)29-33(31,32)23-12-6-10-18-11-7-15-27-24(18)23/h3-16,21,29H,2H2,1H3,(H,28,30)/t21-/m0/s1
Instrument: Q Exactive Orbitrap (Thermo Scientific)
Instrument type: LC-ESI-QFT
Ms type: MS2
Ion mode: NEGATIVE
Ionization: ESI
Fragmentation mode: HCD
Collision energy: 60
Resolution: 17500
Column name: Acquity BEH C18 1.7um, 2.1x150mm (Waters)
Retention time: 17.482 min
Base peak: 462.1292
Precursor m/z: 462.1293
Precursor type: [M-H]-
Precursor intensity: 24890556.34424
m/z	relative intensity	assigned
61.9706	3	NOS-
63.9625	18	O2S-
64.0192	6	C4H2N-
65.9985	1	C3NO-
77.0146	3	C4HN2-
77.9655	1	NO2S-
79.9574	2	O3S-
79.9812	5	H2NO2S-
84.0255	12	C4H3FN-
90.035	5	C6H4N-
95.0304	1	C6H4F-
103.0061	2	C6HNO-
108.0255	7	C6H3FN-
109.0333	11	C6H4FN-
110.0411	245	C6H5FN-
111.0251	7	C6H4FO-
116.0508	3	C8H6N-
128.0506	576	C9H6N-
135.0366	1	C7H4FN2-
135.9864	2	C6H2NOS-
137.0155	1	C6H2FN2O-
138.9898	3	C6H2FNS-
141.0457	1	C9H5N2-
143.0613	6	C9H7N2-
144.0455	515	C9H6NO-
146.0612	10	C9H8NO-
150.0234	13	C7H3FN2O-
151.0313	2	C7H4FN2O-
152.0516	3	C8H7FNO-
154.0308	1	C7H5FNO2-
155.9925	1	C6H3FNOS-
163.0314	90	C8H4FN2O-
166.0662	114	C12H8N-
172.0405	44	C10H6NO2-
175.0098	1	C9H5NOS-
176.0506	1	C13H6N-
177.0472	12	C9H6FN2O-
190.0663	13	C14H8N-
191.0621	17	C7H13NO3S-
192.0125	54	C9H6NO2S-
197.0644	1	C10H13O2S-
208.0567	8	C14H7FN-
210.0725	59	C14H9FN-
215.0615	64	C15H7N2-
217.0771	219	C15H9N2-
218.0724	5	C14H8N3-
221.0647	3	C15H8FN-
222.0598	15	C14H7FN2-
225.0598	5	C14H8FNO-
230.0723	9	C15H8N3-
234.0594	1	C12H12NO2S-
235.0677	999	C15H8FN2-
237.0833	73	C15H10FN2-
239.0628	12	C14H8FN2O-
241.0778	1	C11H15NO3S-
242.0866	3	C14H11FN2O-
253.0784	6	C15H10FN2O-
258.0673	13	C16H8N3O-
259.0511	1	C16H7N2O2-
263.0625	11	C16H8FN2O-
272.0194	1	C14H7FNO2S-
299.0302	1	C23H4F-
301.0449	1	C15H10FN2O2S-
