Mass spectrum: Methiuron; LC-ESI-QFT; MS2; CE: 15; R=17500; [M+H]+
Name: Methiuron
Name: N,N-dimethyl-N'-(3-methylphenyl)carbamimidothioic acid
Formula: C10H14N2S
Exact mass: 194.0878
SMILES: CN(C)C(=S)NC1=CC(C)=CC=C1
InChI: InChI=1S/C10H14N2S/c1-8-5-4-6-9(7-8)11-10(13)12(2)3/h4-7H,1-3H3,(H,11,13)
Instrument: Q Exactive Orbitrap (Thermo Scientific)
Instrument type: LC-ESI-QFT
Ms type: MS2
Ion mode: POSITIVE
Ionization: ESI
Fragmentation mode: HCD
Collision energy: 15
Resolution: 17500
Column name: Acquity BEH C18 1.7um, 2.1x150mm (Waters)
Retention time: 14.286 min
Base peak: 79.0211
Precursor m/z: 195.095
Precursor type: [M+H]+
Precursor intensity: 10177035.125
m/z	relative intensity	assigned
61.0107	1	C2H5S+
72.9979	2	C2H3NS+
88.0215	999	C3H6NS+
150.0372	68	C8H8NS+
161.1073	1	C10H13N2+
180.9841	54	C10HN2S+
195.095	365	C10H15N2S+
