Mass spectrum: 2,2`-(Tetradecylimino)diethanol; LC-ESI-QFT; MS2; CE: 30; R=17500; [M+H]+
Name: 2,2'-(Tetradecylimino)diethanol
Name: Tetradecyldiethanolamine
Formula: C18H39NO2
Exact mass: 301.2981
SMILES: CCCCCCCCCCCCCCN(CCO)CCO
InChI: InChI=1S/C18H39NO2/c1-2-3-4-5-6-7-8-9-10-11-12-13-14-19(15-17-20)16-18-21/h20-21H,2-18H2,1H3
Instrument: Q Exactive Orbitrap (Thermo Scientific)
Instrument type: LC-ESI-QFT
Ms type: MS2
Ion mode: POSITIVE
Ionization: ESI
Fragmentation mode: HCD
Collision energy: 30
Resolution: 17500
Column name: Acquity BEH C18 1.7um, 2.1x150mm (Waters)
Retention time: 18.110 min
Base peak: 79.0211
Precursor m/z: 302.3054
Precursor type: [M+H]+
Precursor intensity: 39627809
m/z	relative intensity	assigned
57.0696	3	C4H9+
70.065	3	C4H8N+
71.0854	2	C5H11+
85.1011	1	C6H13+
88.0756	16	C4H10NO+
102.0913	4	C5H12NO+
106.0862	25	C4H12NO2+
258.279	2	C16H36NO+
284.2946	30	C18H38NO+
302.3051	999	C18H40NO2+
