Mass spectrum: Phosfolan; LC-ESI-QFT; MS2; CE: 30; R=17500; [M+H]+
Name: Phosfolan
Name: N-diethoxyphosphoryl-1,3-dithiolan-2-imine
Formula: C7H14NO3PS2
Exact mass: 255.0153
SMILES: CCOP(=O)(OCC)N=C1SCCS1
InChI: InChI=1S/C7H14NO3PS2/c1-3-10-12(9,11-4-2)8-7-13-5-6-14-7/h3-6H2,1-2H3
Instrument: Q Exactive Orbitrap (Thermo Scientific)
Instrument type: LC-ESI-QFT
Ms type: MS2
Ion mode: POSITIVE
Ionization: ESI
Fragmentation mode: HCD
Collision energy: 30
Resolution: 17500
Column name: Acquity BEH C18 1.7um, 2.1x150mm (Waters)
Retention time: 14.064 min
Base peak: 79.0212
Precursor m/z: 256.0225
Precursor type: [M+H]+
Precursor intensity: 30954133.75
m/z	relative intensity	assigned
59.9904	2	CH2NS+
61.0106	550	C2H5S+
64.9786	1	H2O2P+
80.9736	1	H2O3P+
89.0419	1	C4H9S+
107.9843	1	C5O3+
109.0048	2	C2H6O3P+
119.9936	1	C3H6NS2+
133.9591	1	C3H3O2PS+
139.9565	769	CH3NO3PS+
167.9878	999	C3H7NO3PS+
177.9488	1	C7HNOPS+
196.0192	555	C5H11NO3PS+
199.9599	568	C3H7NO3PS2+
227.9911	617	C5H11NO3PS2+
256.0224	308	C7H15NO3PS2+
