Mass spectrum: Danazol; LC-ESI-QFT; MS2; CE: 75; R=17500; [M+H]+
Name: Danazol
Name: (1S,2R,13R,14S,17R,18S)-17-ethynyl-2,18-dimethyl-7-oxa-6-azapentacyclo[11.7.0.02,10.04,8.014,18]icosa-4(8),5,9-trien-17-ol
Formula: C22H27NO2
Exact mass: 337.2042
SMILES: C[C@]12CC[C@H]3[C@@H](CCC4=CC5=C(C[C@]34C)C=NO5)[C@@H]1CC[C@@]2(O)C#C
InChI: InChI=1S/C22H27NO2/c1-4-22(24)10-8-18-16-6-5-15-11-19-14(13-23-25-19)12-20(15,2)17(16)7-9-21(18,22)3/h1,11,13,16-18,24H,5-10,12H2,2-3H3/t16-,17+,18+,20+,21+,22+/m1/s1
Instrument: Q Exactive Orbitrap (Thermo Scientific)
Instrument type: LC-ESI-QFT
Ms type: MS2
Ion mode: POSITIVE
Ionization: ESI
Fragmentation mode: HCD
Collision energy: 75
Resolution: 17500
Column name: Acquity BEH C18 1.7um, 2.1x150mm (Waters)
Retention time: 18.811 min
Base peak: 79.0211
Precursor m/z: 338.2115
Precursor type: [M+H]+
Precursor intensity: 5785041.5
m/z	relative intensity	assigned
51.023	8	C4H3+
53.0023	29	C3HO+
53.0386	103	C4H5+
54.0338	11	C3H4N+
55.0178	53	C3H3O+
55.0542	73	C4H7+
56.0495	114	C3H6N+
63.0232	5	C5H3+
65.0386	102	C5H5+
67.0415	11	C4H5N+
67.0542	211	C5H7+
68.0494	21	C4H6N+
69.0335	23	C4H5O+
69.0698	19	C5H9+
70.0287	171	C3H4NO+
70.0651	188	C4H8N+
77.0386	37	C6H5+
78.0463	9	C6H6+
79.0542	496	C6H7+
80.0494	95	C5H6N+
81.0335	46	C5H5O+
81.0573	14	C5H7N+
81.0699	148	C6H9+
82.0651	39	C5H8N+
83.0493	10	C5H7O+
84.0444	105	C4H6NO+
91.0542	999	C7H7+
92.0495	72	C6H6N+
93.0573	32	C6H7N+
93.0699	418	C7H9+
94.0652	158	C6H8N+
95.0492	264	C6H7O+
95.073	14	C6H9N+
95.0855	94	C7H11+
96.0443	53	C5H6NO+
96.0808	20	C6H10N+
98.06	8	C5H8NO+
102.0466	6	C8H6+
103.0542	168	C8H7+
104.0494	6	C7H6N+
104.0622	30	C8H8+
105.0699	501	C8H9+
106.0651	245	C7H8N+
107.049	38	C7H7O+
107.0731	40	C7H9N+
107.0855	110	C8H11+
108.0446	11	C6H6NO+
108.0808	57	C7H10N+
109.0523	13	C6H7NO+
109.0647	45	C7H9O+
109.1012	32	C8H13+
110.0601	32	C6H8NO+
115.0543	276	C9H7+
116.0621	94	C9H8+
117.0574	15	C8H7N+
117.0699	261	C9H9+
118.0651	56	C8H8N+
118.078	6	C9H10+
119.0493	27	C8H7O+
119.0731	26	C8H9N+
119.0856	189	C9H11+
120.0445	90	C7H6NO+
120.0808	365	C8H10N+
121.0648	281	C8H9O+
121.0886	33	C8H11N+
121.1014	26	C9H13+
122.06	49	C7H8NO+
122.0964	54	C8H12N+
123.0679	21	C7H9NO+
123.0804	14	C8H11O+
124.0758	19	C7H10NO+
127.0542	12	C10H7+
128.062	318	C10H8+
129.0699	302	C10H9+
130.0652	48	C9H8N+
130.0777	73	C10H10+
131.0492	17	C9H7O+
131.0732	32	C9H9N+
131.0856	193	C10H11+
132.0571	8	C9H8O+
132.0808	63	C9H10N+
132.0937	8	C10H12+
133.0522	18	C8H7NO+
133.065	31	C9H9O+
133.0884	12	C9H11N+
133.1013	47	C10H13+
134.0597	33	C8H8NO+
134.0963	46	C9H12N+
135.0679	12	C8H9NO+
135.0805	32	C9H11O+
135.1041	5	C9H13N+
136.0754	13	C8H10NO+
141.0699	235	C11H9+
142.0778	214	C11H10+
143.0729	16	C10H9N+
143.0856	160	C11H11+
144.0571	10	C10H8O+
144.0808	53	C10H10N+
144.0937	25	C11H12+
145.0649	63	C10H9O+
145.0886	24	C10H11N+
145.1011	83	C11H13+
146.0602	14	C9H8NO+
146.0727	10	C10H10O+
146.0963	44	C10H12N+
147.0804	86	C10H11O+
147.1045	6	C10H13N+
147.1166	8	C11H15+
148.0757	200	C9H10NO+
149.0838	19	C9H11NO+
150.0916	13	C9H12NO+
152.0622	41	C12H8+
153.0699	118	C12H9+
154.0778	102	C12H10+
155.0855	160	C12H11+
156.081	23	C11H10N+
156.0935	54	C12H12+
157.0648	16	C11H9O+
157.0887	17	C11H11N+
157.1012	67	C12H13+
158.0726	14	C11H10O+
158.0965	41	C11H12N+
159.0805	27	C11H11O+
159.1045	12	C11H13N+
159.1168	19	C12H15+
160.0758	16	C10H10NO+
160.1121	24	C11H14N+
162.0914	22	C10H12NO+
165.07	160	C13H9+
166.0779	62	C13H10+
167.0733	7	C12H9N+
167.0856	119	C13H11+
168.0808	14	C12H10N+
168.0932	39	C13H12+
169.0648	11	C12H9O+
169.0888	8	C12H11N+
169.1011	82	C13H13+
170.0963	23	C12H12N+
170.109	6	C13H14+
171.0804	18	C12H11O+
171.104	5	C12H13N+
171.1166	19	C13H15+
172.1121	20	C12H14N+
173.0965	10	C12H13O+
173.1202	6	C12H15N+
174.0915	16	C11H12NO+
174.1277	7	C12H16N+
177.0697	9	C14H9+
178.0777	78	C14H10+
179.0856	108	C14H11+
180.0808	6	C13H10N+
180.0934	29	C14H12+
181.0648	12	C13H9O+
181.0885	6	C13H11N+
181.1011	63	C14H13+
182.0965	15	C13H12N+
182.1092	22	C14H14+
183.0805	12	C13H11O+
183.1169	27	C14H15+
184.0879	7	C13H12O+
184.1125	16	C13H14N+
185.0962	11	C13H13O+
185.133	6	C14H17+
186.1278	7	C13H16N+
188.1071	12	C12H14NO+
189.0697	25	C15H9+
190.0779	32	C15H10+
191.0856	59	C15H11+
192.0934	46	C15H12+
193.1012	44	C15H13+
194.0972	9	C14H12N+
194.1091	18	C15H14+
195.0809	7	C14H11O+
195.1172	24	C15H15+
196.112	8	C14H14N+
197.0967	9	C14H13O+
197.1327	10	C15H17+
198.1279	8	C14H16N+
199.1118	8	C14H15O+
200.1067	5	C13H14NO+
202.0776	41	C16H10+
203.0856	68	C16H11+
204.0932	27	C16H12+
205.1012	54	C16H13+
206.0974	6	C15H12N+
206.1094	25	C16H14+
207.1056	8	C15H13N+
207.1171	19	C16H15+
208.1121	9	C15H14N+
208.1231	5	C16H16+
210.1282	10	C15H16N+
211.1113	8	C15H15O+
212.1076	7	C14H14NO+
212.1431	9	C15H18N+
215.0857	33	C17H11+
216.0935	21	C17H12+
217.1009	39	C17H13+
218.1093	9	C17H14+
219.1167	28	C17H15+
220.1121	8	C16H14N+
221.0966	7	C16H13O+
222.128	8	C16H16N+
223.1117	9	C16H15O+
229.1012	19	C18H13+
230.1095	10	C18H14+
231.117	21	C18H15+
233.0954	5	C17H13O+
234.1278	9	C17H16N+
243.1186	6	C19H15+
245.133	8	C19H17+
295.193	18	C20H25NO+
