Mass spectrum: Trifloxystrobin; LC-ESI-QFT; MS2; CE: 90; R=17500; [M+H]+
Name: Trifloxystrobin
Name: methyl 2-methoxyimino-2-[2-[[1-[3-(trifluoromethyl)phenyl]ethylideneamino]oxymethyl]phenyl]acetate
Formula: C20H19F3N2O4
Exact mass: 408.1297
SMILES: CON=C(C(=O)OC)C1=CC=CC=C1CON=C(C)C1=CC(=CC=C1)C(F)(F)F
InChI: InChI=1S/C20H19F3N2O4/c1-13(14-8-6-9-16(11-14)20(21,22)23)24-29-12-15-7-4-5-10-17(15)18(25-28-3)19(26)27-2/h4-11H,12H2,1-3H3
Instrument: Q Exactive Orbitrap (Thermo Scientific)
Instrument type: LC-ESI-QFT
Ms type: MS2
Ion mode: POSITIVE
Ionization: ESI
Fragmentation mode: HCD
Collision energy: 90
Resolution: 17500
Column name: Acquity BEH C18 1.7um, 2.1x150mm (Waters)
Retention time: 18.993 min
Base peak: 79.0211
Precursor m/z: 409.137
Precursor type: [M+H]+
Precursor intensity: 31211232.5
m/z	relative intensity	assigned
50.0152	1	C4H2+
51.023	1	C4H3+
53.0386	7	C4H5+
55.0179	1	C3H3O+
57.0135	4	C3H2F+
62.015	1	C5H2+
63.0229	19	C5H3+
65.0386	39	C5H5+
66.0464	18	C5H6+
68.0256	1	C4H4O+
71.0291	14	C4H4F+
75.004	12	C3HF2+
75.0229	35	C6H3+
77.0386	4	C6H5+
78.0464	11	C6H6+
79.0178	4	C5H3O+
79.0542	10	C6H7+
81.0335	1	C5H5O+
89.0386	233	C7H5+
90.0338	8	C6H4N+
90.0464	63	C7H6+
91.0417	9	C6H5N+
91.0543	139	C7H7+
92.0257	1	C6H4O+
92.0622	1	C7H8+
94.0414	3	C6H6O+
95.0104	8	C3H2F3+
95.0291	17	C6H4F+
95.0492	20	C6H7O+
99.004	4	C5HF2+
99.0242	1	C5H4FO+
101.0198	1	C5H3F2+
103.0543	26	C8H7+
104.0495	20	C7H6N+
104.0621	10	C8H8+
105.0335	4	C7H5O+
105.0447	8	C6H5N2+
105.0573	1	C7H7N+
105.07	6	C8H9+
107.049	1	C7H7O+
109.0449	5	C7H6F+
109.0648	3	C7H9O+
113.0397	84	C6H6FO+
114.0339	3	C8H4N+
115.0356	3	C6H5F2+
115.0417	29	C8H5N+
115.0544	5	C9H7+
116.0495	169	C8H6N+
117.0573	103	C8H7N+
118.0413	7	C8H6O+
118.0651	77	C8H8N+
119.0104	9	C5H2F3+
119.0491	8	C8H7O+
119.0604	1	C7H7N2+
122.0363	2	C7H6O2+
123.0353	102	C6H4FN2+
125.0198	75	C7H3F2+
128.0495	3	C9H6N+
130.0652	132	C9H8N+
131.073	66	C9H9N+
132.0444	43	C8H6NO+
132.0808	5	C9H10N+
133.0523	5	C8H7NO+
134.06	20	C8H8NO+
143.0304	5	C7H5F2O+
143.0364	1	C9H5NO+
144.0443	1	C9H6NO+
145.026	999	C7H4F3+
146.0599	16	C9H8NO+
147.0679	1	C9H9NO+
148.0756	11	C9H10NO+
159.0417	1	C8H6F3+
161.0472	9	C9H7NO2+
163.0364	2	C7H6F3O+
171.0366	3	C7H5F2N2O+
173.0322	15	C7H4F3N2+
186.0526	10	C9H7F3N+
