Mass spectrum: 4,4`-Sulfonylbis[2-(prop-2-en-1-yl)phenol]; LC-ESI-QFT; MS2; CE: 15; R=17500; [M+H]+
Name: 4,4'-Sulfonylbis[2-(prop-2-en-1-yl)phenol]
Name: Phenol, 4,4'-sulfonylbis[2-(2-propenyl)-
Name: 4-(4-hydroxy-3-prop-2-enylphenyl)sulfonyl-2-prop-2-enylphenol
Formula: C18H18O4S
Exact mass: 330.0926
SMILES: OC1=C(CC=C)C=C(C=C1)S(=O)(=O)C1=CC(CC=C)=C(O)C=C1
InChI: InChI=1S/C18H18O4S/c1-3-5-13-11-15(7-9-17(13)19)23(21,22)16-8-10-18(20)14(12-16)6-4-2/h3-4,7-12,19-20H,1-2,5-6H2
Instrument: Q Exactive Orbitrap (Thermo Scientific)
Instrument type: LC-ESI-QFT
Ms type: MS2
Ion mode: POSITIVE
Ionization: ESI
Fragmentation mode: HCD
Collision energy: 15
Resolution: 17500
Column name: Acquity BEH C18 1.7um, 2.1x150mm (Waters)
Retention time: 17.082 min
Base peak: 79.0211
Precursor m/z: 331.0999
Precursor type: [M+H]+
Precursor intensity: 5459534.71875
m/z	relative intensity	assigned
105.0699	1	C8H9+
133.0647	15	C9H9O+
145.0649	2	C10H9O+
149.0597	9	C9H9O2+
151.0754	1	C9H11O2+
156.9953	7	C6H5O3S+
173.0962	1	C12H13O+
197.0268	112	C9H9O3S+
263.037	1	C13H11O4S+
303.0685	13	C16H15O4S+
331.0999	999	C18H19O4S+
