Mass spectrum: Ethionamide; LC-ESI-QFT; MS2; CE: 60; R=17500; [M+H]+
Name: Ethionamide
Name: 2-ethylpyridine-4-carboximidothioic acid
Formula: C8H10N2S
Exact mass: 166.0565
SMILES: CCC1=NC=CC(=C1)C(N)=S
InChI: InChI=1S/C8H10N2S/c1-2-7-5-6(8(9)11)3-4-10-7/h3-5H,2H2,1H3,(H2,9,11)
Instrument: Q Exactive Orbitrap (Thermo Scientific)
Instrument type: LC-ESI-QFT
Ms type: MS2
Ion mode: POSITIVE
Ionization: ESI
Fragmentation mode: HCD
Collision energy: 60
Resolution: 17500
Column name: Acquity BEH C18 1.7um, 2.1x150mm (Waters)
Retention time: 6.556 min
Base peak: 79.0211
Precursor m/z: 167.0637
Precursor type: [M+H]+
Precursor intensity: 7170380.015625
m/z	relative intensity	assigned
61.0106	15	C2H5S+
62.0185	1	C2H6S+
79.0541	2	C6H7+
80.0493	1	C5H6N+
93.0573	9	C6H7N+
97.0077	4	C8H+
106.065	5	C7H8N+
107.0729	90	C7H9N+
108.0808	11	C7H10N+
112.0216	1	C5H6NS+
117.0573	5	C8H7N+
118.0522	3	C7H6N2+
119.0603	1	C7H7N2+
123.0917	5	C7H11N2+
125.0294	30	C6H7NS+
133.0761	167	C8H9N2+
134.0838	309	C8H10N2+
140.0528	999	C7H10NS+
150.0373	10	C8H8NS+
152.0403	15	C7H8N2S+
167.0637	515	C8H11N2S+
