Mass spectrum: Tolcapone; LC-ESI-QFT; MS2; CE: 60; R=17500; [M-H]-
Name: Tolcapone
Name: (3,4-dihydroxy-5-nitrophenyl)-(4-methylphenyl)methanone
Formula: C14H11NO5
Exact mass: 273.0637
SMILES: CC1=CC=C(C=C1)C(=O)C1=CC(O)=C(O)C(=C1)[N+]([O-])=O
InChI: InChI=1S/C14H11NO5/c1-8-2-4-9(5-3-8)13(17)10-6-11(15(19)20)14(18)12(16)7-10/h2-7,16,18H,1H3
Instrument: Q Exactive Orbitrap (Thermo Scientific)
Instrument type: LC-ESI-QFT
Ms type: MS2
Ion mode: NEGATIVE
Ionization: ESI
Fragmentation mode: HCD
Collision energy: 60
Resolution: 17500
Column name: Acquity BEH C18 1.7um, 2.1x150mm (Waters)
Retention time: 17.494 min
Base peak: 307.0977
Precursor m/z: 272.0564
Precursor type: [M-H]-
Precursor intensity: 475416.625
m/z	relative intensity	assigned
115.0553	52	C9H7-
141.0709	171	C11H9-
159.0452	105	C10H7O2-
169.0659	359	C12H9O-
181.0661	999	C13H9O-
182.0611	558	C12H8NO-
185.0611	69	C12H9O2-
196.0531	54	C13H8O2-
197.0607	165	C13H9O2-
210.0565	87	C13H8NO2-
214.0635	118	C13H10O3-
224.0478	88	C14H8O3-
225.0559	501	C14H9O3-
241.0506	172	C14H9O4-
242.0585	229	C14H10O4-
255.0541	118	C14H9NO4-
272.0569	69	C14H10NO5-
