Mass spectrum: CP-728663; LC-ESI-QFT; MS2; CE: 60; R=17500; [M+H]+
Name: CP-728663
Name: (1aR,7bS)-5-[[[(2S,3S,6S)-6-ethyl-2-phenylpiperidin-3-yl]amino]methyl]-6-methoxy-3-methyl-1a,7b-dihydro-1H-cyclopropa[c]quinolin-2-one
Formula: C26H33N3O2
Exact mass: 419.2573
SMILES: CC[C@H]1CC[C@H](NCC2=CC3=C(C=C2OC)[C@H]2C[C@H]2C(=O)N3C)[C@@H](N1)C1=CC=CC=C1
InChI: InChI=1S/C26H33N3O2/c1-4-18-10-11-22(25(28-18)16-8-6-5-7-9-16)27-15-17-12-23-20(14-24(17)31-3)19-13-21(19)26(30)29(23)2/h5-9,12,14,18-19,21-22,25,27-28H,4,10-11,13,15H2,1-3H3/t18-,19+,21+,22-,25-/m0/s1
Instrument: Q Exactive Orbitrap (Thermo Scientific)
Instrument type: LC-ESI-QFT
Ms type: MS2
Ion mode: POSITIVE
Ionization: ESI
Fragmentation mode: HCD
Collision energy: 60
Resolution: 17500
Column name: Acquity BEH C18 1.7um, 2.1x150mm (Waters)
Retention time: 11.327 min
Base peak: 79.0211
Precursor m/z: 420.2646
Precursor type: [M+H]+
Precursor intensity: 24601370.5
m/z	relative intensity	assigned
53.0022	1	C3HO+
53.0387	2	C4H5+
55.0542	35	C4H7+
56.0495	13	C3H6N+
58.0288	1	C2H4NO+
58.0651	14	C3H8N+
65.0385	2	C5H5+
67.0542	3	C5H7+
68.0495	4	C4H6N+
69.0335	1	C4H5O+
69.0698	23	C5H9+
70.0649	1	C4H8N+
77.0386	1	C6H5+
79.0541	3	C6H7+
80.0494	1	C5H6N+
82.0651	23	C5H8N+
84.0807	9	C5H10N+
91.0542	175	C7H7+
92.0621	4	C7H8+
93.0572	2	C6H7N+
93.07	3	C7H9+
96.0444	8	C5H6NO+
96.0808	12	C6H10N+
97.0886	26	C6H11N+
103.0541	7	C8H7+
104.0494	3	C7H6N+
105.0698	10	C8H9+
106.0651	6	C7H8N+
110.0964	2	C7H12N+
115.0541	31	C9H7+
116.0496	1	C8H6N+
116.062	3	C9H8+
117.0573	11	C8H7N+
117.0698	59	C9H9+
118.0651	12	C8H8N+
119.0729	26	C8H9N+
119.0855	7	C9H11+
120.0807	35	C8H10N+
127.0543	1	C10H7+
128.062	20	C10H8+
129.0698	65	C10H9+
130.0652	31	C9H8N+
130.0779	2	C10H10+
131.0492	3	C9H7O+
131.073	38	C9H9N+
131.0855	24	C10H11+
132.0808	71	C9H10N+
134.0964	54	C9H12N+
140.0495	3	C10H6N+
141.0698	26	C11H9+
142.0649	6	C10H8N+
143.073	106	C10H9N+
143.0854	17	C11H11+
144.0808	187	C10H10N+
145.0648	30	C10H9O+
145.0886	189	C10H11N+
145.1013	10	C11H13+
146.06	6	C9H8NO+
146.0964	132	C10H12N+
147.0802	7	C10H11O+
148.0759	3	C9H10NO+
153.0573	16	C11H7N+
154.0653	1	C11H8N+
155.0604	3	C10H7N2+
155.073	3	C11H9N+
156.0808	10	C11H10N+
157.0648	10	C11H9O+
157.0887	52	C11H11N+
158.0964	736	C11H12N+
159.0678	3	C10H9NO+
159.0806	3	C11H11O+
159.104	4	C11H13N+
160.0757	36	C10H10NO+
160.112	377	C11H14N+
162.0913	21	C10H12NO+
166.0651	2	C12H8N+
167.0729	61	C12H9N+
168.0807	59	C12H10N+
169.0645	5	C12H9O+
170.0599	14	C11H8NO+
170.0966	5	C12H12N+
171.0678	38	C11H9NO+
171.1168	2	C13H15+
172.0758	11	C11H10NO+
172.0869	13	C10H10N3+
173.0835	170	C11H11NO+
174.0913	215	C11H12NO+
176.0708	1	C10H10NO2+
176.1068	1	C11H14NO+
183.0683	1	C12H9NO+
184.0754	5	C12H10NO+
185.0834	5	C12H11NO+
186.0913	999	C12H12NO+
187.0991	9	C12H13NO+
188.107	155	C12H14NO+
188.1432	217	C13H18N+
200.0703	1	C12H10NO2+
201.0784	14	C12H11NO2+
204.1019	27	C12H14NO2+
214.0864	21	C13H12NO2+
214.0976	3	C12H12N3O+
216.1018	173	C13H14NO2+
