Mass spectrum: 5,6-Benzoflavone; LC-ESI-QFT; MS2; CE: 90; R=17500; [M+H]+
Name: 5,6-Benzoflavone
Name: beta-Naphthoflavone
Name: 3-phenylbenzo[f]chromen-1-one
Formula: C19H12O2
Exact mass: 272.0837
SMILES: O=C1C=C(OC2=C1C1=C(C=CC=C1)C=C2)C1=CC=CC=C1
InChI: InChI=1S/C19H12O2/c20-16-12-18(14-7-2-1-3-8-14)21-17-11-10-13-6-4-5-9-15(13)19(16)17/h1-12H
Instrument: Q Exactive Orbitrap (Thermo Scientific)
Instrument type: LC-ESI-QFT
Ms type: MS2
Ion mode: POSITIVE
Ionization: ESI
Fragmentation mode: HCD
Collision energy: 90
Resolution: 17500
Column name: Acquity BEH C18 1.7um, 2.1x150mm (Waters)
Retention time: 19.580 min
Base peak: 79.0211
Precursor m/z: 273.091
Precursor type: [M+H]+
Precursor intensity: 18803300.5
m/z	relative intensity	assigned
50.0151	1	C4H2+
51.023	1	C4H3+
53.0386	36	C4H5+
63.0229	1	C5H3+
68.9971	39	C3HO2+
74.015	1	C6H2+
75.0228	21	C6H3+
77.0385	17	C6H5+
81.0335	3	C5H5O+
89.0385	4	C7H5+
91.0542	4	C7H7+
94.0412	6	C6H6O+
95.0491	108	C6H7O+
101.0386	11	C8H5+
102.0464	9	C8H6+
103.0542	229	C8H7+
105.0335	24	C7H5O+
109.0647	1	C7H9O+
115.0542	999	C9H7+
117.0698	11	C9H9+
119.0491	12	C8H7O+
126.0464	55	C10H6+
127.0542	316	C10H7+
128.0621	2	C10H8+
129.0334	403	C9H5O+
130.0413	1	C9H6O+
131.0489	3	C9H7O+
139.0541	5	C11H7+
143.0492	79	C10H7O+
144.057	5	C10H8O+
145.0648	276	C10H9O+
152.0618	5	C12H8+
153.07	3	C12H9+
156.0571	2	C11H8O+
159.0805	4	C11H11O+
161.0592	2	C10H9O2+
169.0646	1	C12H9O+
171.0439	44	C11H7O2+
175.0753	1	C11H11O2+
190.0775	2	C15H10+
201.0697	1	C16H9+
202.0777	149	C16H10+
203.0855	4	C16H11+
204.093	1	C16H12+
215.0854	76	C17H11+
216.0933	15	C17H12+
217.1013	5	C17H13+
219.0802	1	C16H11O+
226.0776	37	C18H10+
227.0855	6	C18H11+
228.0933	12	C18H12+
244.0878	2	C18H12O+
273.0908	7	C19H13O2+
