Mass spectrum: Clothianidin; LC-ESI-QFT; MS2; CE: 75; R=17500; [M-H]-
Name: Clothianidin
Name: 1-[(2-chloro-1,3-thiazol-5-yl)methyl]-2-methyl-3-nitroguanidine
Formula: C6H8ClN5O2S
Exact mass: 249.0087
SMILES: CN\C(NCC1=CN=C(Cl)S1)=N/[N+]([O-])=O
InChI: InChI=1S/C6H8ClN5O2S/c1-8-6(11-12(13)14)10-3-4-2-9-5(7)15-4/h2H,3H2,1H3,(H2,8,10,11)
Instrument: Q Exactive Orbitrap (Thermo Scientific)
Instrument type: LC-ESI-QFT
Ms type: MS2
Ion mode: NEGATIVE
Ionization: ESI
Fragmentation mode: HCD
Collision energy: 75
Resolution: 17500
Column name: Acquity BEH C18 1.7um, 2.1x150mm (Waters)
Retention time: 12.515 min
Base peak: 248.0015
Precursor m/z: 248.0014
Precursor type: [M-H]-
Precursor intensity: 17506401.25293
m/z	relative intensity	assigned
55.0301	56	C2H3N2-
56.9804	18	C2HS-
57.9757	999	CNS-
61.0044	46	HN2O2-
64.0067	1	C3N2-
65.0145	1	C3HN2-
79.0176	7	C3HN3-
81.9756	1	C3NS-
83.9912	2	C3H2NS-
85.9997	1	CN3O2-
86.0071	1	C3H4NS-
90.0098	6	C4N3-
91.0176	1	C4HN3-
92.0255	11	C4H2N3-
95.0251	4	C4H3N2O-
96.9865	1	C3HN2S-
107.0123	1	C4HN3O-
111.0023	29	C4H3N2S-
117.0206	2	C5HN4-
117.9524	16	C3HClNS-
119.0362	3	C5H3N4-
122.0356	1	C5H4N3O-
122.9899	5	C4HN3S-
123.9974	1	C4H2N3S-
125.9891	1	C4H2N2OS-
132.0445	1	C6H4N4-
133.052	3	C6H5N4-
135.9974	1	C5H2N3S-
138.013	1	C5H4N3S-
148.9928	19	C5HN4S-
150.0006	63	C5H2N4S-
151.0085	2	C5H3N4S-
163.0079	1	C6H3N4S-
165.024	11	C6H5N4S-
