Mass spectrum: Anastrozole; LC-ESI-QFT; MS2; CE: 90; R=17500; [M+H]+
Name: Anastrozole
Name: 2-[3-(2-cyanopropan-2-yl)-5-(1,2,4-triazol-1-ylmethyl)phenyl]-2-methylpropanenitrile
Formula: C17H19N5
Exact mass: 293.1640
SMILES: CC(C)(C#N)C1=CC(=CC(CN2C=NC=N2)=C1)C(C)(C)C#N
InChI: InChI=1S/C17H19N5/c1-16(2,9-18)14-5-13(8-22-12-20-11-21-22)6-15(7-14)17(3,4)10-19/h5-7,11-12H,8H2,1-4H3
Instrument: Q Exactive Orbitrap (Thermo Scientific)
Instrument type: LC-ESI-QFT
Ms type: MS2
Ion mode: POSITIVE
Ionization: ESI
Fragmentation mode: HCD
Collision energy: 90
Resolution: 17500
Column name: Acquity BEH C18 1.7um, 2.1x150mm (Waters)
Retention time: 14.587 min
Base peak: 79.0211
Precursor m/z: 294.1713
Precursor type: [M+H]+
Precursor intensity: 8549458.375
m/z	relative intensity	assigned
53.0386	7	C4H5+
55.0542	2	C4H7+
68.0494	7	C4H6N+
79.0541	4	C6H7+
89.0387	4	C7H5+
90.0465	7	C7H6+
91.0542	128	C7H7+
92.0622	1	C7H8+
93.0698	2	C7H9+
102.0463	9	C8H6+
103.0542	36	C8H7+
104.0617	2	C8H8+
105.0699	9	C8H9+
115.0542	694	C9H7+
116.0495	51	C8H6N+
116.062	62	C9H8+
117.0573	21	C8H7N+
117.0698	25	C9H9+
118.0651	6	C8H8N+
119.0852	2	C9H11+
128.062	128	C10H8+
129.0698	479	C10H9+
130.0653	33	C9H8N+
130.0777	225	C10H10+
131.0855	88	C10H11+
133.0647	5	C7H7N3+
140.0495	64	C10H6N+
140.0622	3	C11H8+
141.0574	39	C10H7N+
141.0699	265	C11H9+
142.0651	999	C10H8N+
143.073	50	C10H9N+
143.0855	67	C11H11+
144.0807	8	C10H10N+
144.0933	3	C11H12+
145.0648	20	C8H7N3+
145.101	5	C11H13+
153.0573	68	C11H7N+
153.0697	7	C12H9+
154.0651	102	C11H8N+
155.0609	21	C10H7N2+
155.0729	69	C11H9N+
155.0852	34	C12H11+
156.0809	125	C11H10N+
156.0928	37	C12H12+
157.0885	107	C11H11N+
158.0966	22	C11H12N+
158.1088	3	C12H14+
160.0757	22	C8H8N4+
165.0698	17	C13H9+
166.0652	15	C12H8N+
166.0777	3	C13H10+
167.073	101	C12H9N+
168.0807	495	C12H10N+
169.0647	25	C10H7N3+
169.076	25	C11H9N2+
169.0886	6	C12H11N+
170.0963	36	C12H12N+
171.1168	16	C13H15+
178.0651	11	C13H8N+
179.0601	14	C12H7N2+
180.0683	17	C12H8N2+
181.0757	6	C12H9N2+
181.0888	6	C13H11N+
181.101	1	C14H13+
182.0965	84	C13H12N+
183.1043	59	C13H13N+
184.1123	5	C13H14N+
192.0806	6	C14H10N+
193.0761	11	C13H9N2+
194.084	54	C13H10N2+
195.0917	343	C13H11N2+
198.1277	26	C14H16N+
208.0998	2	C14H12N2+
209.1073	359	C14H13N2+
210.1151	178	C14H14N2+
225.1385	92	C15H17N2+
227.1176	2	C12H13N5+
228.1256	16	C12H14N5+
242.1415	5	C13H16N5+
