Mass spectrum: Imidacloprid; LC-ESI-QFT; MS2; CE: 30; R=17500; [M+H]+
Name: Imidacloprid
Name: N-[1-[(6-Chloro-3-pyridinyl)methyl]-4,5-dihydroimidazol-2-yl]nitramide
Name: N-[1-[(6-chloropyridin-3-yl)methyl]-4,5-dihydroimidazol-2-yl]nitramide
Formula: C9H10ClN5O2
Exact mass: 255.0523
SMILES: [O-][N+](=O)\N=C1/NCCN1CC1=CN=C(Cl)C=C1
InChI: InChI=1S/C9H10ClN5O2/c10-8-2-1-7(5-12-8)6-14-4-3-11-9(14)13-15(16)17/h1-2,5H,3-4,6H2,(H,11,13)
Instrument: Q Exactive Orbitrap (Thermo Scientific)
Instrument type: LC-ESI-QFT
Ms type: MS2
Ion mode: POSITIVE
Ionization: ESI
Fragmentation mode: HCD
Collision energy: 30
Resolution: 17500
Column name: Acquity BEH C18 1.7um, 2.1x150mm (Waters)
Retention time: 12.341 min
Base peak: 79.0211
Precursor m/z: 256.0596
Precursor type: [M+H]+
Precursor intensity: 6109581.46875
m/z	relative intensity	assigned
56.0495	39	C3H6N+
71.0603	3	C3H7N2+
72.0681	7	C3H8N2+
84.0557	278	C3H6N3+
97.0635	12	C4H7N3+
98.0714	10	C4H8N3+
99.0554	39	C4H7N2O+
126.0106	24	C6H5ClN+
127.019	2	C6H6ClN+
128.0262	157	C6H7ClN+
141.0215	2	C6H6ClN2+
151.0183	17	C8H6ClN+
167.0245	6	C7H6ClN3+
167.037	3	C8H8ClN2+
168.032	2	C7H7ClN3+
173.0826	11	C9H9N4+
174.0902	113	C9H10N4+
175.0979	921	C9H11N4+
176.0819	2	C9H10N3O+
181.0402	1	C8H8ClN3+
193.0404	5	C9H8ClN3+
194.0482	4	C9H9ClN3+
195.0321	6	C9H8ClN2O+
195.0433	4	C8H8ClN4+
209.059	999	C9H10ClN4+
210.0668	139	C9H11ClN4+
212.0586	172	C9H11ClN3O+
226.0615	2	C9H11ClN4O+
256.0596	44	C9H11ClN5O2+
