Mass spectrum: Azaconazole; LC-ESI-QFT; MS2; CE: 90; R=17500; [M+H]+
Name: Azaconazole
Name: 1-[[2-(2,4-dichlorophenyl)-1,3-dioxolan-2-yl]methyl]-1,2,4-triazole
Formula: C12H11Cl2N3O2
Exact mass: 299.0228
SMILES: ClC1=CC(Cl)=C(C=C1)C1(CN2C=NC=N2)OCCO1
InChI: InChI=1S/C12H11Cl2N3O2/c13-9-1-2-10(11(14)5-9)12(18-3-4-19-12)6-17-8-15-7-16-17/h1-2,5,7-8H,3-4,6H2
Instrument: Q Exactive Orbitrap (Thermo Scientific)
Instrument type: LC-ESI-QFT
Ms type: MS2
Ion mode: POSITIVE
Ionization: ESI
Fragmentation mode: HCD
Collision energy: 90
Resolution: 17500
Column name: Acquity BEH C18 1.7um, 2.1x150mm (Waters)
Retention time: 16.727 min
Base peak: 79.0211
Precursor m/z: 300.0301
Precursor type: [M+H]+
Precursor intensity: 7450496.125
m/z	relative intensity	assigned
63.0228	1	C5H3+
65.0386	1	C5H5+
70.0399	18	C2H4N3+
72.9838	4	C3H2Cl+
84.0556	1	C3H6N3+
84.9839	2	C4H2Cl+
89.0385	35	C7H5+
96.9839	2	C5H2Cl+
98.9996	38	C5H4Cl+
100.0075	2	C5H5Cl+
108.984	3	C6H2Cl+
117.0699	2	C9H9+
122.9996	192	C7H4Cl+
124.0074	58	C7H5Cl+
126.9944	1	C6H4ClO+
128.0023	2	C6H5ClO+
132.9606	24	C5H3Cl2+
144.9604	2	C6H3Cl2+
152.0021	3	C8H5ClO+
158.9762	999	C7H5Cl2+
162.9711	3	C6H5Cl2O+
172.9555	63	C7H3Cl2O+
172.9665	21	C9ClNO+
