Mass spectrum: Phenethyl anthranilate; LC-ESI-QFT; MS2; CE: 60; R=17500; [M+H]+
Name: Phenethyl anthranilate
Name: 2-phenylethyl 2-aminobenzoate
Formula: C15H15NO2
Exact mass: 241.1103
SMILES: NC1=CC=CC=C1C(=O)OCCC1=CC=CC=C1
InChI: InChI=1S/C15H15NO2/c16-14-9-5-4-8-13(14)15(17)18-11-10-12-6-2-1-3-7-12/h1-9H,10-11,16H2
Instrument: Q Exactive Orbitrap (Thermo Scientific)
Instrument type: LC-ESI-QFT
Ms type: MS2
Ion mode: POSITIVE
Ionization: ESI
Fragmentation mode: HCD
Collision energy: 60
Resolution: 17500
Column name: Acquity BEH C18 1.7um, 2.1x150mm (Waters)
Retention time: 18.603 min
Base peak: 79.0211
Precursor m/z: 242.1176
Precursor type: [M+H]+
Precursor intensity: 3768894.125
m/z	relative intensity	assigned
53.0386	6	C4H5+
57.0699	70	C4H9+
58.0652	47	C3H8N+
65.0386	3	C5H5+
72.0808	7	C4H10N+
74.0964	31	C4H12N+
77.0384	5	C6H5+
79.0543	119	C6H7+
86.0965	9	C5H12N+
91.0543	90	C7H7+
92.0495	24	C6H6N+
95.0491	18	C6H7O+
100.1122	363	C6H14N+
103.0543	72	C8H7+
104.0497	4	C7H6N+
105.07	999	C8H9+
106.0647	4	C7H8N+
107.0491	10	C7H7O+
118.0652	40	C8H8N+
120.0445	77	C7H6NO+
133.0522	13	C8H7NO+
146.0601	14	C9H8NO+
178.0777	8	C14H10+
179.0858	16	C14H11+
194.0967	9	C14H12N+
196.1122	11	C14H14N+
206.0966	134	C15H12N+
224.1073	17	C15H14NO+
