Mass spectrum: 2,4,5-Trichlorophenoxyacetic acid; LC-ESI-QFT; MS2; CE: 90; R=17500; [M-H]-
Name: 2,4,5-Trichlorophenoxyacetic acid
Name: 2-(2,4,5-trichlorophenoxy)acetic acid
Formula: C8H5Cl3O3
Exact mass: 253.9304
SMILES: OC(=O)COC1=C(Cl)C=C(Cl)C(Cl)=C1
InChI: InChI=1S/C8H5Cl3O3/c9-4-1-6(11)7(2-5(4)10)14-3-8(12)13/h1-2H,3H2,(H,12,13)
Instrument: Q Exactive Orbitrap (Thermo Scientific)
Instrument type: LC-ESI-QFT
Ms type: MS2
Ion mode: NEGATIVE
Ionization: ESI
Fragmentation mode: HCD
Collision energy: 90
Resolution: 17500
Column name: Acquity BEH C18 1.7um, 2.1x150mm (Waters)
Retention time: 18.063 min
Base peak: 243.1601
Precursor m/z: 252.9232
Precursor type: [M-H]-
Precursor intensity: 5773772.375977
m/z	relative intensity	assigned
94.9694	70	C5Cl-
122.9643	171	C6ClO-
132.9619	20	C5H3Cl2-
158.941	999	C6HCl2O-
194.9176	96	C6H2Cl3O-
