Mass spectrum: CP-114271; LC-ESI-QFT; MS2; CE: 45; R=17500; [M-H]-
Name: CP-114271
Name: 2-[4-[2-[[2-hydroxy-2-[2-(trifluoromethyl)-1,3-thiazol-4-yl]ethyl]amino]propyl]phenoxy]acetic acid
Formula: C17H19F3N2O4S
Exact mass: 404.1018
SMILES: CC(CC1=CC=C(OCC(O)=O)C=C1)NCC(O)C1=CSC(=N1)C(F)(F)F
InChI: InChI=1S/C17H19F3N2O4S/c1-10(6-11-2-4-12(5-3-11)26-8-15(24)25)21-7-14(23)13-9-27-16(22-13)17(18,19)20/h2-5,9-10,14,21,23H,6-8H2,1H3,(H,24,25)
Instrument: Q Exactive Orbitrap (Thermo Scientific)
Instrument type: LC-ESI-QFT
Ms type: MS2
Ion mode: NEGATIVE
Ionization: ESI
Fragmentation mode: HCD
Collision energy: 45
Resolution: 17500
Column name: Acquity BEH C18 1.7um, 2.1x150mm (Waters)
Retention time: 13.754 min
Base peak: 403.0945
Precursor m/z: 403.0945
Precursor type: [M-H]-
Precursor intensity: 10483183.06934
m/z	relative intensity	assigned
56.9804	283	C2HS-
57.9756	6	CNS-
58.0297	2	C2H4NO-
59.0138	2	C2H3O2-
66.0349	5	C4H4N-
68.0505	3	C4H6N-
68.9955	9	CF3-
84.0455	64	C4H6NO-
86.0612	1	C4H8NO-
93.0345	2	C6H5O-
98.007	2	C4H4NS-
106.0424	33	C7H6O-
107.0502	58	C7H7O-
108.0216	17	C6H4O2-
119.0501	12	C8H7O-
120.058	1	C8H8O-
121.0295	4	C7H5O2-
121.066	6	C8H9O-
123.045	1	C7H7O2-
126.9836	3	C3H2F3S-
127.9786	3	C2HF3NS-
133.0659	114	C9H9O-
135.0454	6	C8H7O2-
135.0817	3	C9H11O-
138.0323	7	C7H6O3-
147.0687	1	C9H9NO-
147.0814	2	C10H11O-
149.0607	2	C9H9O2-
151.9787	999	C4HF3NS-
162.0925	8	C10H12NO-
163.0764	2	C10H11O2-
174.0924	8	C11H12NO-
181.9893	15	C5H3F3NOS-
192.103	843	C11H14NO2-
195.9683	1	C5HF3NO2S-
206.1186	3	C12H16NO2-
345.089	12	C15H16F3N2O2S-
