Mass spectrum: SAR102608; LC-ESI-QFT; MS2; CE: 60; R=17500; [M+H]+
Name: SAR102608
Name: N-(5-Fluoro-3-methyl-1H-indol-1-yl)-4-methyl-2-(pyridin-2-yl)pyrimidine-5-carboxamide
Name: N-(5-fluoro-3-methylindol-1-yl)-4-methyl-2-pyridin-2-ylpyrimidine-5-carboxamide
Formula: C20H16FN5O
Exact mass: 361.1339
SMILES: CC1=CN(NC(=O)C2=C(C)N=C(N=C2)C2=CC=CC=N2)C2=CC=C(F)C=C12
InChI: InChI=1S/C20H16FN5O/c1-12-11-26(18-7-6-14(21)9-15(12)18)25-20(27)16-10-23-19(24-13(16)2)17-5-3-4-8-22-17/h3-11H,1-2H3,(H,25,27)
Instrument: Q Exactive Orbitrap (Thermo Scientific)
Instrument type: LC-ESI-QFT
Ms type: MS2
Ion mode: POSITIVE
Ionization: ESI
Fragmentation mode: HCD
Collision energy: 60
Resolution: 17500
Column name: Acquity BEH C18 1.7um, 2.1x150mm (Waters)
Retention time: 16.955 min
Base peak: 79.0212
Precursor m/z: 362.1412
Precursor type: [M+H]+
Precursor intensity: 17564636.65625
m/z	relative intensity	assigned
53.0022	36	C3HO+
54.0338	40	C3H4N+
55.0178	1	C3H3O+
55.0416	27	C3H5N+
56.0495	23	C3H6N+
66.0337	4	C4H4N+
67.0177	3	C4H3O+
67.0416	27	C4H5N+
68.0256	10	C4H4O+
68.0494	6	C4H6N+
70.0287	4	C3H4NO+
78.0339	8	C5H4N+
79.0415	45	FH4N4+
80.0494	8	C5H6N+
81.0448	15	C4H5N2+
82.0287	22	C4H4NO+
82.0525	42	C4H6N2+
83.0366	1	C4H5NO+
84.0444	3	C4H6NO+
92.0494	2	C6H6N+
93.0447	8	C5H5N2+
94.0287	97	C5H4NO+
95.0365	162	C5H5NO+
96.0443	52	C5H6NO+
105.0447	503	C6H5N2+
106.0525	10	C6H6N2+
109.0397	4	C5H5N2O+
110.06	18	C6H8NO+
111.0314	22	C3H3N4O+
112.0393	8	C3H4N4O+
117.0572	3	C8H7N+
118.0525	8	C7H6N2+
118.065	2	C3H7FN4+
119.0604	20	C7H7N2+
121.0449	2	C8H6F+
128.0495	1	C9H6N+
129.0445	1	C3H4FN5+
131.0603	8	C8H7N2+
132.0681	2	C3H7FN5+
133.0633	3	C7H7N3+
138.0716	2	C8H9FN+
142.0525	1	C9H6N2+
143.0603	45	C9H7N2+
144.0556	13	C8H6N3+
144.0682	17	C9H8N2+
145.0634	13	C8H7N3+
145.0759	14	C9H9N2+
146.0533	1	C10H7F+
146.06	2	C9H8NO+
146.0712	1	C8H8N3+
147.0789	2	C8H9N3+
148.0556	69	C9H7FN+
149.0636	22	C9H8FN+
150.0589	2	C8H7FN2+
155.0603	43	C10H7N2+
156.0554	6	C9H6N3+
157.0634	309	C9H7N3+
158.0712	36	C9H8N3+
159.0791	27	C9H9N3+
160.0505	23	C8H6N3O+
161.0583	1	C8H7N3O+
163.0662	2	C9H8FN2+
164.0502	1	C9H7FNO+
165.0822	4	C9H10FN2+
166.066	3	C9H9FNO+
169.0635	1	C10H7N3+
170.0712	353	C10H8N3+
171.079	999	C10H9N3+
172.0554	1	C11H7FN+
172.0868	12	C10H10N3+
174.0656	5	C9H8N3O+
185.0822	187	C10H9N4+
186.0662	289	C10H8N3O+
186.0898	270	C10H10N4+
187.0734	1	C10H9N3O+
188.0816	2	C10H10N3O+
191.0591	1	C8H6FN5+
197.0821	381	C11H9N4+
198.066	78	C11H8N3O+
200.0739	1	C12H9FN2+
213.0768	122	C11H9N4O+
214.0844	8	C11H10N4O+
215.0922	3	C11H11N4O+
226.0536	9	C13H7FN2O+
241.0772	8	C14H10FN2O+
243.0801	3	C13H10FN3O+
258.1034	1	C14H13FN3O+
302.0963	1	C18H11FN4+
303.1038	1	C18H12FN4+
304.0989	1	C17H11FN5+
315.1032	1	C19H12FN4+
330.0909	4	C19H11FN4O+
332.0943	2	C18H11FN5O+
345.1151	1	C20H14FN4O+
