Mass spectrum: 2,2,4-Trimethylpentane-1,3-diyl dibenzoate; LC-ESI-QFT; MS2; CE: 45; R=17500; [M+H]+
Name: 2,2,4-Trimethylpentane-1,3-diyl dibenzoate
Name: (3-benzoyloxy-2,2,4-trimethylpentyl) benzoate
Formula: C22H26O4
Exact mass: 354.1831
SMILES: CC(C)C(OC(=O)C1=CC=CC=C1)C(C)(C)COC(=O)C1=CC=CC=C1
InChI: InChI=1S/C22H26O4/c1-16(2)19(26-21(24)18-13-9-6-10-14-18)22(3,4)15-25-20(23)17-11-7-5-8-12-17/h5-14,16,19H,15H2,1-4H3
Instrument: Q Exactive Orbitrap (Thermo Scientific)
Instrument type: LC-ESI-QFT
Ms type: MS2
Ion mode: POSITIVE
Ionization: ESI
Fragmentation mode: HCD
Collision energy: 45
Resolution: 17500
Column name: Acquity BEH C18 1.7um, 2.1x150mm (Waters)
Retention time: 20.157 min
Base peak: 79.0211
Precursor m/z: 355.1904
Precursor type: [M+H]+
Precursor intensity: 1878989.21875
m/z	relative intensity	assigned
123.0244	999	C10H3+
165.0707	824	C13H9+
