Mass spectrum: 2-Amino-5-azotoluene; LC-ESI-QFT; MS2; CE: 75; R=17500; [M+H]+
Name: 2-Amino-5-azotoluene
Name: o-Aminoazotoluene
Name: 2-methyl-4-[(2-methylphenyl)diazenyl]aniline
Formula: C14H15N3
Exact mass: 225.1266
SMILES: CC1=C(N)C=CC(=C1)N=NC1=C(C)C=CC=C1
InChI: InChI=1S/C14H15N3/c1-10-5-3-4-6-14(10)17-16-12-7-8-13(15)11(2)9-12/h3-9H,15H2,1-2H3
Instrument: Q Exactive Orbitrap (Thermo Scientific)
Instrument type: LC-ESI-QFT
Ms type: MS2
Ion mode: POSITIVE
Ionization: ESI
Fragmentation mode: HCD
Collision energy: 75
Resolution: 17500
Column name: Acquity BEH C18 1.7um, 2.1x150mm (Waters)
Retention time: 18.780 min
Base peak: 79.0212
Precursor m/z: 226.1339
Precursor type: [M+H]+
Precursor intensity: 36199257.96875
m/z	relative intensity	assigned
51.0229	1	C4H3+
53.0386	35	C4H5+
54.0338	2	C3H4N+
63.0229	4	C5H3+
65.0386	250	C5H5+
66.0463	6	C5H6+
67.0416	3	C4H5N+
67.0542	7	C5H7+
68.0494	4	C4H6N+
77.0385	17	C6H5+
78.0338	3	C5H4N+
78.0463	3	C6H6+
79.0542	330	C6H7+
80.0494	13	C5H6N+
81.0573	3	C5H7N+
82.0651	3	C5H8N+
89.0384	4	C7H5+
91.0542	999	C7H7+
92.0495	13	C6H6N+
93.0573	12	C6H7N+
94.0651	171	C6H8N+
95.0491	104	C4H5N3+
104.0495	19	C7H6N+
105.0447	52	C6H5N2+
106.0651	338	C7H8N+
107.0493	4	C5H5N3+
107.0729	54	C7H9N+
108.0807	2	C7H10N+
109.0648	17	C5H7N3+
116.0493	1	C8H6N+
118.0525	17	C7H6N2+
119.0604	26	C7H7N2+
120.0682	4	C7H8N2+
120.0808	29	C8H10N+
121.076	562	C7H9N2+
122.0838	8	C7H10N2+
133.076	44	C8H9N2+
134.0711	2	C7H8N3+
137.0118	1	C9HN2+
165.0699	4	C13H9+
166.0654	1	C12H8N+
167.0728	10	C12H9N+
168.0808	2	C12H10N+
180.0806	2	C13H10N+
181.0883	1	C13H11N+
182.0841	1	C12H10N2+
182.0962	5	C13H12N+
183.0915	1	C12H11N2+
184.0992	4	C12H12N2+
191.073	1	C14H9N+
192.0806	2	C14H10N+
193.0758	2	C13H9N2+
193.0882	1	C14H11N+
194.084	16	C13H10N2+
195.0916	5	C13H11N2+
196.0873	4	C12H10N3+
196.112	1	C14H14N+
208.0992	2	C14H12N2+
209.1074	13	C14H13N2+
210.1026	13	C13H12N3+
