Mass spectrum: Nicardipine; LC-ESI-QFT; MS2; CE: 75; R=17500; [M+H]+
Name: Nicardipine
Name: 5-O-[2-[benzyl(methyl)amino]ethyl] 3-O-methyl 2,6-dimethyl-4-(3-nitrophenyl)-1,4-dihydropyridine-3,5-dicarboxylate
Formula: C26H29N3O6
Exact mass: 479.2056
SMILES: COC(=O)C1=C(C)NC(C)=C(C1C1=CC(=CC=C1)[N+]([O-])=O)C(=O)OCCN(C)CC1=CC=CC=C1
InChI: InChI=1S/C26H29N3O6/c1-17-22(25(30)34-4)24(20-11-8-12-21(15-20)29(32)33)23(18(2)27-17)26(31)35-14-13-28(3)16-19-9-6-5-7-10-19/h5-12,15,24,27H,13-14,16H2,1-4H3
Instrument: Q Exactive Orbitrap (Thermo Scientific)
Instrument type: LC-ESI-QFT
Ms type: MS2
Ion mode: POSITIVE
Ionization: ESI
Fragmentation mode: HCD
Collision energy: 75
Resolution: 17500
Column name: Acquity BEH C18 1.7um, 2.1x150mm (Waters)
Retention time: 14.916 min
Base peak: 79.0211
Precursor m/z: 480.2129
Precursor type: [M+H]+
Precursor intensity: 25341122.5
m/z	relative intensity	assigned
53.0022	1	C3HO+
53.0386	1	C4H5+
56.0494	1	C3H6N+
58.0651	4	C3H8N+
63.0229	1	C5H3+
65.0386	39	C5H5+
67.0178	121	C4H3O+
74.06	3	C3H8NO+
79.0542	5	C6H7+
80.0493	1	C5H6N+
91.0542	999	C7H7+
95.049	1	C6H7O+
99.044	1	C5H7O2+
102.0465	1	C8H6+
103.0543	3	C8H7+
104.0495	1	C7H6N+
105.0699	25	C8H9+
106.0651	3	C7H8N+
108.0444	1	C6H6NO+
111.044	8	C6H7O2+
115.0541	4	C9H7+
118.0413	3	C8H6O+
128.062	5	C10H8+
129.0698	3	C10H9+
130.0413	2	C9H6O+
133.0522	7	C8H7NO+
134.06	14	C8H8NO+
139.0542	4	C11H7+
140.0619	7	C11H8+
141.0698	9	C11H9+
142.0413	1	C10H6O+
142.0651	1	C10H8N+
143.0732	2	C10H9N+
145.0887	2	C10H11N+
146.0361	1	C9H6O2+
147.0441	1	C9H7O2+
148.039	1	C8H6NO2+
148.1121	3	C10H14N+
150.055	8	C8H8NO2+
152.062	6	C12H8+
153.0698	11	C12H9+
154.0411	1	C11H6O+
154.065	3	C11H8N+
154.0775	1	C12H10+
155.0496	1	C11H7O+
155.0605	1	C10H7N2+
155.0729	2	C11H9N+
156.0568	1	C11H8O+
156.0808	2	C11H10N+
157.0396	1	C9H5N2O+
157.0645	2	C11H9O+
158.0962	1	C11H12N+
160.0757	1	C10H10NO+
164.0703	1	C9H10NO2+
165.0699	5	C13H9+
165.0784	16	C9H11NO2+
166.0652	7	C12H8N+
166.0777	1	C13H10+
167.049	1	C12H7O+
167.0729	9	C12H9N+
168.0572	4	C12H8O+
168.0808	28	C12H10N+
169.0648	2	C12H9O+
169.0884	1	C12H11N+
170.0598	1	C11H8NO+
170.0965	4	C12H12N+
171.0677	2	C11H9NO+
171.1043	5	C12H13N+
172.0755	1	C11H10NO+
173.0836	1	C11H11NO+
174.0551	1	C10H8NO2+
176.0342	6	C9H6NO3+
178.0649	3	C13H8N+
179.0731	4	C13H9N+
179.0939	1	C10H13NO2+
180.0663	10	C9H10NO3+
180.0807	48	C13H10N+
181.0647	3	C13H9O+
181.0886	26	C13H11N+
182.0602	2	C12H8NO+
182.0964	26	C13H12N+
183.0676	3	C12H9NO+
183.1042	4	C13H13N+
184.0757	7	C12H10NO+
184.1122	1	C13H14N+
185.0833	1	C12H11NO+
186.031	1	C11H6O3+
186.0543	1	C11H8NO2+
186.0912	1	C12H12NO+
189.0657	3	C10H9N2O2+
190.0649	1	C14H8N+
191.0726	1	C14H9N+
192.0806	1	C14H10N+
192.1019	7	C11H14NO2+
193.0644	1	C14H9O+
193.0759	1	C13H9N2+
193.0883	1	C14H11N+
193.1097	4	C11H15NO2+
194.06	8	C13H8NO+
194.0967	3	C14H12N+
195.0677	2	C13H9NO+
196.0757	23	C13H10NO+
196.1119	1	C14H14N+
197.0683	27	C9H11NO4+
197.0832	5	C13H11NO+
198.0913	16	C13H12NO+
200.0341	3	C11H6NO3+
200.0458	1	C10H6N3O2+
200.0704	5	C12H10NO2+
202.0859	1	C12H12NO2+
203.0577	1	C11H9NO3+
206.06	2	C14H8NO+
207.0679	4	C14H9NO+
208.0757	83	C14H10NO+
209.0715	1	C13H9N2O+
209.0835	28	C14H11NO+
210.0913	104	C14H12NO+
211.0626	1	C13H9NO2+
211.0991	8	C14H13NO+
212.0705	4	C13H10NO2+
213.0781	3	C13H11NO2+
214.0862	3	C13H12NO2+
215.0941	1	C13H13NO2+
217.0608	2	C11H9N2O3+
221.0708	6	C14H9N2O+
222.0549	3	C14H8NO2+
222.0772	1	C11H12NO4+
223.0626	1	C14H9NO2+
224.0706	5	C14H10NO2+
224.1072	1	C15H14NO+
225.0783	6	C14H11NO2+
226.0862	105	C14H12NO2+
227.0573	1	C13H9NO3+
227.0816	3	C13H11N2O2+
228.065	1	C13H10NO3+
228.1014	1	C14H14NO2+
235.0626	2	C15H9NO2+
236.0706	37	C15H10NO2+
237.0657	1	C14H9N2O2+
237.0784	4	C15H11NO2+
238.0732	1	C14H10N2O2+
238.0863	1	C15H12NO2+
239.0577	1	C14H9NO3+
239.0812	1	C14H11N2O2+
239.0941	1	C15H13NO2+
240.0652	2	C14H10NO3+
240.1018	14	C15H14NO2+
241.0732	20	C14H11NO3+
242.0812	3	C14H12NO3+
243.089	11	C14H13NO3+
249.0658	1	C15H9N2O2+
252.0658	2	C15H10NO3+
253.0735	5	C15H11NO3+
254.0811	32	C15H12NO3+
255.0761	1	C14H11N2O3+
255.0883	1	C15H13NO3+
256.0968	3	C15H14NO3+
257.0678	4	C14H11NO4+
266.0686	1	C15H10N2O3+
267.0526	3	C15H9NO4+
267.0893	5	C16H13NO3+
268.0968	30	C16H14NO3+
269.0682	5	C15H11NO4+
269.1048	9	C16H15NO3+
281.0919	2	C16H13N2O3+
285.0633	10	C15H11NO5+
298.0951	1	C16H14N2O4+
299.0789	11	C16H13NO5+
301.0943	11	C16H15NO5+
