Mass spectrum: Trilostane; LC-ESI-QFT; MS2; CE: 60; R=17500; [M+H]+
Name: Trilostane
Name: (1S,2R,6R,8S,11S,12S,15S,16S)-5,15-dihydroxy-2,16-dimethyl-7-oxapentacyclo[9.7.0.02,8.06,8.012,16]octadec-4-ene-4-carbonitrile
Formula: C20H27NO3
Exact mass: 329.1991
SMILES: C[C@]12CC[C@H]3[C@@H](CC[C@@]45O[C@@H]4C(O)=C(C[C@]35C)C#N)[C@@H]1CC[C@@H]2O
InChI: InChI=1S/C20H27NO3/c1-18-7-6-14-12(13(18)3-4-15(18)22)5-8-20-17(24-20)16(23)11(10-21)9-19(14,20)2/h12-15,17,22-23H,3-9H2,1-2H3/t12-,13-,14-,15-,17+,18-,19+,20+/m0/s1
Instrument: Q Exactive Orbitrap (Thermo Scientific)
Instrument type: LC-ESI-QFT
Ms type: MS2
Ion mode: POSITIVE
Ionization: ESI
Fragmentation mode: HCD
Collision energy: 60
Resolution: 17500
Column name: Acquity BEH C18 1.7um, 2.1x150mm (Waters)
Retention time: 16.986 min
Base peak: 79.0211
Precursor m/z: 330.2064
Precursor type: [M+H]+
Precursor intensity: 1239290.375
m/z	relative intensity	assigned
55.018	2	C3H3O+
55.0543	2	C4H7+
65.0386	1	C5H5+
67.0542	15	C5H7+
69.0698	2	C5H9+
79.0542	13	C6H7+
81.0334	1	C5H5O+
81.0699	10	C6H9+
82.0649	1	C5H8N+
91.0542	23	C7H7+
93.0699	3	C7H9+
95.0492	3	C6H7O+
96.0809	19	C6H10N+
103.0541	2	C8H7+
105.07	23	C8H9+
107.049	3	C7H7O+
107.0858	1	C8H11+
115.0542	12	C9H7+
117.0699	88	C9H9+
119.0493	3	C8H7O+
119.0856	69	C9H11+
121.1015	2	C9H13+
124.0393	4	C6H6NO2+
124.0758	7	C7H10NO+
128.0622	4	C10H8+
129.0699	11	C10H9+
130.0778	13	C10H10+
131.0856	19	C10H11+
133.0649	5	C9H9O+
133.1012	11	C10H13+
136.0759	8	C8H10NO+
138.0552	2	C7H8NO2+
142.0781	2	C11H10+
143.0857	43	C11H11+
145.0651	16	C10H9O+
145.1013	204	C11H13+
146.0604	3	C9H8NO+
146.073	2	C10H10O+
146.0968	1	C10H12N+
147.0804	20	C10H11O+
147.1169	33	C11H15+
153.0698	2	C12H9+
154.0779	1	C12H10+
155.0856	56	C12H11+
156.0935	7	C12H12+
157.089	2	C11H11N+
157.1013	17	C12H13+
158.0728	14	C11H10O+
159.0806	5	C11H11O+
159.117	10	C12H15+
160.112	18	C11H14N+
161.0956	5	C11H13O+
165.0699	3	C13H9+
166.0779	2	C13H10+
167.0856	6	C13H11+
168.0933	3	C13H12+
169.1011	18	C13H13+
170.0965	6	C12H12N+
171.0805	8	C12H11O+
171.1038	2	C12H13N+
171.1168	23	C13H15+
172.1121	7	C12H14N+
173.0599	32	C11H9O2+
173.0832	5	C11H11NO+
173.0962	54	C12H13O+
175.1118	3	C12H15O+
179.0854	4	C14H11+
180.0939	2	C14H12+
181.1016	16	C14H13+
182.1093	11	C14H14+
183.0679	2	C12H9NO+
183.0807	4	C13H11O+
183.1171	29	C14H15+
185.0964	1	C13H13O+
185.1329	1	C14H17+
187.1118	2	C13H15O+
188.1071	30	C12H14NO+
191.0855	1	C15H11+
192.0937	9	C15H12+
193.085	10	C11H13O3+
193.1006	3	C15H13+
194.1095	4	C15H14+
195.117	4	C15H15+
196.0759	6	C13H10NO+
196.1251	10	C15H16+
197.1328	29	C15H17+
198.0914	5	C13H12NO+
199.0755	2	C13H11O2+
199.1119	3	C14H15O+
200.1072	6	C13H14NO+
201.0808	2	C12H11NO2+
201.0909	11	C13H13O2+
202.0864	2	C12H12NO2+
205.1013	2	C16H13+
206.1089	4	C16H14+
207.1169	10	C16H15+
209.0958	1	C15H13O+
209.1329	4	C16H17+
210.1044	4	C15H14O+
214.086	3	C13H12NO2+
214.159	3	C15H20N+
215.0945	3	C13H13NO2+
216.102	999	C13H14NO2+
224.1078	2	C15H14NO+
224.1199	5	C16H16O+
224.144	3	C16H18N+
225.128	9	C16H17O+
225.1641	5	C17H21+
228.1021	6	C14H14NO2+
228.1384	3	C15H18NO+
235.1116	1	C17H15O+
235.1486	1	C18H19+
237.115	3	C16H15NO+
242.1539	2	C16H20NO+
242.1904	2	C17H24N+
244.1334	310	C15H18NO2+
252.1386	6	C17H18NO+
253.1224	4	C17H17O2+
253.159	3	C18H21O+
268.1341	2	C17H18NO2+
269.1416	1	C17H19NO2+
270.1489	68	C17H20NO2+
286.143	4	C17H20NO3+
290.0975	3	C19H14O3+
298.1805	31	C19H24NO2+
302.1748	2	C18H24NO3+
314.1738	3	C19H24NO3+
330.2062	4	C20H28NO3+
