Mass spectrum: Betamethasone; LC-ESI-QFT; MS2; CE: 60; R=17500; [M+H]+
Name: Betamethasone
Name: (8S,9R,10S,11S,13S,14S,16S,17R)-9-fluoro-11,17-dihydroxy-17-(2-hydroxyacetyl)-10,13,16-trimethyl-6,7,8,11,12,14,15,16-octahydrocyclopenta[a]phenanthren-3-one
Formula: C22H29FO5
Exact mass: 392.1999
SMILES: C[C@H]1C[C@H]2[C@@H]3CCC4=CC(=O)C=C[C@]4(C)[C@@]3(F)[C@@H](O)C[C@]2(C)[C@@]1(O)C(=O)CO
InChI: InChI=1S/C22H29FO5/c1-12-8-16-15-5-4-13-9-14(25)6-7-19(13,2)21(15,23)17(26)10-20(16,3)22(12,28)18(27)11-24/h6-7,9,12,15-17,24,26,28H,4-5,8,10-11H2,1-3H3/t12-,15-,16-,17-,19-,20-,21-,22-/m0/s1
Instrument: Q Exactive Orbitrap (Thermo Scientific)
Instrument type: LC-ESI-QFT
Ms type: MS2
Ion mode: POSITIVE
Ionization: ESI
Fragmentation mode: HCD
Collision energy: 60
Resolution: 17500
Column name: Acquity BEH C18 1.7um, 2.1x150mm (Waters)
Retention time: 16.590 min
Base peak: 79.0212
Precursor m/z: 393.2072
Precursor type: [M+H]+
Precursor intensity: 3790801.8125
m/z	relative intensity	assigned
55.0544	120	C4H7+
67.0542	152	C5H7+
79.0543	144	C6H7+
91.0543	324	C7H7+
93.0701	177	C7H9+
95.0492	132	C6H7O+
95.0856	190	C7H11+
105.0337	377	C7H5O+
105.0701	378	C8H9+
107.0857	315	C8H11+
109.1014	163	C8H13+
119.0856	416	C9H11+
121.0648	483	C8H9O+
121.1014	158	C9H13+
123.0806	104	C8H11O+
125.0594	89	C7H9O2+
128.0622	282	C10H8+
129.0699	136	C10H9+
131.0857	161	C10H11+
135.0803	273	C9H11O+
143.0859	214	C11H11+
145.0649	186	C10H9O+
145.1013	130	C11H13+
147.0805	999	C10H11O+
158.0727	176	C11H10O+
159.0805	371	C11H11O+
161.0963	107	C11H13O+
171.0803	508	C12H11O+
173.0961	257	C12H13O+
185.0972	158	C10H14FO2+
195.0809	125	C14H11O+
197.096	124	C14H13O+
199.1117	108	C14H15O+
209.096	148	C15H13O+
222.1044	233	C16H14O+
235.1118	198	C17H15O+
249.1278	113	C18H17O+
263.1425	149	C19H19O+
