Mass spectrum: 2-Methyl-4`-(methylthio)-2-morpholinopropiophenone; LC-ESI-QFT; MS2; CE: 90; R=17500; [M+H]+
Name: 2-Methyl-4'-(methylthio)-2-morpholinopropiophenone
Name: 2-methyl-1-(4-methylsulfanylphenyl)-2-morpholin-4-ylpropan-1-one
Formula: C15H21NO2S
Exact mass: 279.1293
SMILES: CSC1=CC=C(C=C1)C(=O)C(C)(C)N1CCOCC1
InChI: InChI=1S/C15H21NO2S/c1-15(2,16-8-10-18-11-9-16)14(17)12-4-6-13(19-3)7-5-12/h4-7H,8-11H2,1-3H3
Instrument: Q Exactive Orbitrap (Thermo Scientific)
Instrument type: LC-ESI-QFT
Ms type: MS2
Ion mode: POSITIVE
Ionization: ESI
Fragmentation mode: HCD
Collision energy: 90
Resolution: 17500
Column name: Acquity BEH C18 1.7um, 2.1x150mm (Waters)
Retention time: 14.172 min
Base peak: 79.0211
Precursor m/z: 280.1366
Precursor type: [M+H]+
Precursor intensity: 11233654.375
m/z	relative intensity	assigned
53.0022	6	C3HO+
53.0385	2	C4H5+
55.0543	1	C4H7+
56.0495	5	C3H6N+
58.0651	1	C3H8N+
58.995	4	C2H3S+
59.0491	1	C3H7O+
60.0443	2	C2H6NO+
61.0106	5	C2H5S+
63.0229	1	C5H3+
65.0385	5	C5H5+
68.0494	13	C4H6N+
70.0651	301	C4H8N+
77.0384	1	C6H5+
78.0464	30	C6H6+
79.0542	6	C6H7+
84.0808	60	C5H10N+
86.0601	5	C4H8NO+
87.0264	1	C4H7S+
88.0757	290	C4H10NO+
91.0543	184	C7H7+
93.0699	9	C7H9+
95.0492	4	C6H7O+
97.0106	3	C5H5S+
103.0542	38	C8H7+
104.062	15	C8H8+
105.0699	15	C8H9+
109.0107	77	C6H5S+
110.0186	10	C6H6S+
111.0264	6	C6H7S+
114.0914	2	C6H12NO+
115.0543	379	C9H7+
116.0621	43	C9H8+
117.0699	999	C9H9+
118.0777	282	C9H10+
121.0105	11	C7H5S+
122.0185	135	C7H6S+
123.0263	8	C7H7S+
124.0342	33	C7H8S+
125.042	53	C7H9S+
128.107	111	C7H14NO+
129.0697	3	C10H9+
131.0492	202	C9H7O+
134.0185	17	C8H6S+
135.0263	228	C8H7S+
137.042	606	C8H9S+
145.0648	80	C10H9O+
146.0727	49	C10H10O+
147.0263	1	C9H7S+
149.042	50	C9H9S+
150.0498	210	C9H10S+
165.0733	107	C10H13S+
