Mass spectrum: Methiuron; LC-ESI-QFT; MS2; CE: 45; R=17500; [M+H]+
Name: Methiuron
Name: N,N-dimethyl-N'-(3-methylphenyl)carbamimidothioic acid
Formula: C10H14N2S
Exact mass: 194.0878
SMILES: CN(C)C(=S)NC1=CC(C)=CC=C1
InChI: InChI=1S/C10H14N2S/c1-8-5-4-6-9(7-8)11-10(13)12(2)3/h4-7H,1-3H3,(H,11,13)
Instrument: Q Exactive Orbitrap (Thermo Scientific)
Instrument type: LC-ESI-QFT
Ms type: MS2
Ion mode: POSITIVE
Ionization: ESI
Fragmentation mode: HCD
Collision energy: 45
Resolution: 17500
Column name: Acquity BEH C18 1.7um, 2.1x150mm (Waters)
Retention time: 14.286 min
Base peak: 79.0211
Precursor m/z: 195.095
Precursor type: [M+H]+
Precursor intensity: 10389717.25
m/z	relative intensity	assigned
56.0495	3	C3H6N+
61.0107	1	C2H5S+
63.0262	1	C2H7S+
65.0386	1	C5H5+
71.0604	2	C3H7N2+
72.998	8	C2H3NS+
88.0216	999	C3H6NS+
91.0542	7	C7H7+
92.0621	4	C7H8+
119.0605	4	C7H7N2+
123.0263	11	C7H7S+
150.0372	203	C8H8NS+
157.0113	2	C10H5S+
161.1073	3	C10H13N2+
180.9842	8	C10HN2S+
195.0954	13	C10H15N2S+
