Mass spectrum: Nicardipine; LC-ESI-QFT; MS2; CE: 60; R=17500; [M+H]+
Name: Nicardipine
Name: 5-O-[2-[benzyl(methyl)amino]ethyl] 3-O-methyl 2,6-dimethyl-4-(3-nitrophenyl)-1,4-dihydropyridine-3,5-dicarboxylate
Formula: C26H29N3O6
Exact mass: 479.2056
SMILES: COC(=O)C1=C(C)NC(C)=C(C1C1=CC(=CC=C1)[N+]([O-])=O)C(=O)OCCN(C)CC1=CC=CC=C1
InChI: InChI=1S/C26H29N3O6/c1-17-22(25(30)34-4)24(20-11-8-12-21(15-20)29(32)33)23(18(2)27-17)26(31)35-14-13-28(3)16-19-9-6-5-7-10-19/h5-12,15,24,27H,13-14,16H2,1-4H3
Instrument: Q Exactive Orbitrap (Thermo Scientific)
Instrument type: LC-ESI-QFT
Ms type: MS2
Ion mode: POSITIVE
Ionization: ESI
Fragmentation mode: HCD
Collision energy: 60
Resolution: 17500
Column name: Acquity BEH C18 1.7um, 2.1x150mm (Waters)
Retention time: 14.916 min
Base peak: 79.0211
Precursor m/z: 480.2129
Precursor type: [M+H]+
Precursor intensity: 24008577
m/z	relative intensity	assigned
56.0494	1	C3H6N+
58.0651	6	C3H8N+
65.0385	17	C5H5+
67.0178	64	C4H3O+
74.06	6	C3H8NO+
79.0541	2	C6H7+
91.0542	999	C7H7+
103.0542	1	C8H7+
105.0699	43	C8H9+
106.0651	1	C7H8N+
111.044	12	C6H7O2+
128.062	1	C10H8+
133.0521	2	C8H7NO+
134.06	4	C8H8NO+
140.0617	1	C11H8+
141.07	1	C11H9+
148.112	35	C10H14N+
150.0551	1	C8H8NO2+
153.0697	1	C12H9+
154.065	1	C11H8N+
158.0965	1	C11H12N+
165.07	1	C13H9+
165.0783	12	C9H11NO2+
166.0649	1	C12H8N+
166.1227	7	C10H16NO+
167.0728	1	C12H9N+
168.0572	3	C12H8O+
168.0807	15	C12H10N+
169.0885	1	C12H11N+
170.0597	1	C11H8NO+
170.0963	1	C12H12N+
171.0677	2	C11H9NO+
171.1042	7	C12H13N+
172.0753	1	C11H10NO+
173.0836	3	C11H11NO+
174.055	2	C10H8NO2+
176.0341	7	C9H6NO3+
179.073	2	C13H9N+
179.0937	1	C10H13NO2+
180.0567	2	C13H8O+
180.0655	10	C9H10NO3+
180.0806	10	C13H10N+
181.0885	12	C13H11N+
182.0964	12	C13H12N+
183.1042	6	C13H13N+
184.0757	3	C12H10NO+
184.1118	1	C13H14N+
185.0833	1	C12H11NO+
186.0547	2	C11H8NO2+
186.0912	1	C12H12NO+
189.0656	2	C10H9N2O2+
192.0655	1	C10H10NO3+
192.1017	5	C11H14NO2+
193.0884	1	C14H11N+
193.1097	15	C11H15NO2+
194.0601	2	C13H8NO+
194.0963	2	C14H12N+
195.0679	1	C13H9NO+
196.0757	15	C13H10NO+
196.1117	2	C14H14N+
197.0683	27	C9H11NO4+
197.0831	4	C13H11NO+
198.0546	1	C12H8NO2+
198.0913	7	C13H12NO+
199.0988	1	C13H13NO+
200.0342	7	C11H6NO3+
200.0706	2	C12H10NO2+
202.086	2	C12H12NO2+
207.0678	4	C14H9NO+
208.0757	30	C14H10NO+
209.0834	28	C14H11NO+
210.0913	92	C14H12NO+
211.0869	1	C13H11N2O+
211.0991	20	C14H13NO+
212.0706	3	C13H10NO2+
213.0783	3	C13H11NO2+
214.0494	1	C12H8NO3+
214.0859	4	C13H12NO2+
215.0943	2	C13H13NO2+
217.0607	7	C11H9N2O3+
221.0711	2	C14H9N2O+
222.0548	1	C14H8NO2+
223.0624	1	C14H9NO2+
224.0705	3	C14H10NO2+
224.1066	1	C15H14NO+
225.0782	5	C14H11NO2+
226.0862	141	C14H12NO2+
227.0815	8	C13H11N2O2+
228.0653	1	C13H10NO3+
228.1016	2	C14H14NO2+
229.1097	1	C14H15NO2+
231.0889	1	C13H13NO3+
235.0628	4	C15H9NO2+
236.0705	33	C15H10NO2+
237.0655	1	C14H9N2O2+
237.0783	6	C15H11NO2+
238.0734	4	C14H10N2O2+
238.086	2	C15H12NO2+
239.0812	4	C14H11N2O2+
239.0939	2	C15H13NO2+
240.0655	3	C14H10NO3+
240.0893	1	C14H12N2O2+
240.1017	14	C15H14NO2+
241.0605	2	C13H9N2O3+
241.0731	22	C14H11NO3+
241.1095	3	C15H15NO2+
242.0684	1	C13H10N2O3+
242.0809	6	C14H12NO3+
243.089	28	C14H13NO3+
249.0658	2	C15H9N2O2+
249.0867	1	C12H13N2O4+
252.0653	1	C15H10NO3+
253.0732	9	C15H11NO3+
253.097	1	C15H13N2O2+
254.0811	70	C15H12NO3+
255.076	12	C14H11N2O3+
255.0893	2	C15H13NO3+
256.0967	10	C15H14NO3+
257.0681	3	C14H11NO4+
257.0915	2	C14H13N2O3+
257.1049	1	C15H15NO3+
266.0684	5	C15H10N2O3+
267.0533	3	C15H9NO4+
267.089	17	C16H13NO3+
268.0967	84	C16H14NO3+
269.0691	9	C15H11NO4+
269.1047	57	C16H15NO3+
270.0622	2	C14H10N2O4+
270.0995	3	C15H14N2O3+
281.0918	8	C16H13N2O3+
283.0706	20	C15H11N2O4+
284.0918	3	C16H14NO4+
285.0631	14	C15H11NO5+
285.0993	1	C16H15NO4+
297.0869	2	C16H13N2O4+
298.0948	24	C16H14N2O4+
299.0788	27	C16H13NO5+
301.0944	61	C16H15NO5+
313.0817	2	C16H13N2O5+
313.1303	2	C18H19NO4+
315.0974	25	C16H15N2O5+
327.0977	1	C17H15N2O5+
345.1205	6	C18H19NO6+
359.1236	6	C18H19N2O6+
