Mass spectrum: 6-Ethoxy-2,3,4-trimethyl-1,2,3,4-tetrahydroquinoline; LC-ESI-QFT; MS2; CE: 75; R=17500; [M+H]+
Name: 6-Ethoxy-2,3,4-trimethyl-1,2,3,4-tetrahydroquinoline
Name: 6-Ethoxy-2,2,4-trimethyl-1,2,3,4-tetrahydroquinoline
Name: 6-ethoxy-2,2,4-trimethyl-3,4-dihydro-1H-quinoline
Formula: C14H21NO
Exact mass: 219.1623
SMILES: CCOC1=CC=C2NC(C)(C)CC(C)C2=C1
InChI: InChI=1S/C14H21NO/c1-5-16-11-6-7-13-12(8-11)10(2)9-14(3,4)15-13/h6-8,10,15H,5,9H2,1-4H3
Instrument: Q Exactive Orbitrap (Thermo Scientific)
Instrument type: LC-ESI-QFT
Ms type: MS2
Ion mode: POSITIVE
Ionization: ESI
Fragmentation mode: HCD
Collision energy: 75
Resolution: 17500
Column name: Acquity BEH C18 1.7um, 2.1x150mm (Waters)
Retention time: 13.808 min
Base peak: 79.0211
Precursor m/z: 220.1696
Precursor type: [M+H]+
Precursor intensity: 12489591.875
m/z	relative intensity	assigned
53.0386	3	C4H5+
54.0339	2	C3H4N+
55.0179	4	C3H3O+
55.0543	4	C4H7+
65.0385	11	C5H5+
67.0542	7	C5H7+
68.0133	1	C3H2NO+
68.0494	1	C4H6N+
69.0333	1	C4H5O+
77.0385	1	C6H5+
78.0464	1	C6H6+
79.0542	11	C6H7+
80.0495	11	C5H6N+
81.0574	1	C5H7N+
81.0699	21	C6H9+
82.0651	1	C5H8N+
89.0386	1	C7H5+
91.0542	373	C7H7+
92.0495	11	C6H6N+
93.0573	142	C6H7N+
93.0699	41	C7H9+
94.0413	4	C6H6O+
94.0652	25	C6H8N+
95.0492	19	C6H7O+
96.0439	1	C5H6NO+
103.0542	34	C8H7+
105.0573	1	C7H7N+
106.0651	34	C7H8N+
107.0491	11	C7H7O+
107.073	75	C7H9N+
108.0444	17	C6H6NO+
108.0808	330	C7H10N+
109.0523	8	C6H7NO+
109.0648	28	C7H9O+
110.0601	21	C6H8NO+
116.0497	2	C8H6N+
117.0573	28	C8H7N+
118.0651	184	C8H8N+
119.0492	104	C8H7O+
119.073	111	C8H9N+
120.0808	64	C8H10N+
121.0645	1	C8H9O+
121.0886	5	C8H11N+
122.06	57	C7H8NO+
134.0601	89	C8H8NO+
135.0679	703	C8H9NO+
136.0757	999	C8H10NO+
138.0911	2	C8H12NO+
147.0803	1	C10H11O+
148.076	2	C9H10NO+
150.0914	9	C9H12NO+
163.0994	6	C10H13NO+
164.107	677	C10H14NO+
