Mass spectrum: Dihexyl phthalate; LC-ESI-QFT; MS2; CE: 30; R=17500; [M+H]+
Name: Dihexyl phthalate
Name: dihexyl benzene-1,2-dicarboxylate
Formula: C20H30O4
Exact mass: 334.2144
SMILES: CCCCCCOC(=O)C1=C(C=CC=C1)C(=O)OCCCCCC
InChI: InChI=1S/C20H30O4/c1-3-5-7-11-15-23-19(21)17-13-9-10-14-18(17)20(22)24-16-12-8-6-4-2/h9-10,13-14H,3-8,11-12,15-16H2,1-2H3
Instrument: Q Exactive Orbitrap (Thermo Scientific)
Instrument type: LC-ESI-QFT
Ms type: MS2
Ion mode: POSITIVE
Ionization: ESI
Fragmentation mode: HCD
Collision energy: 30
Resolution: 17500
Column name: Acquity BEH C18 1.7um, 2.1x150mm (Waters)
Retention time: 20.894 min
Base peak: 79.0212
Precursor m/z: 335.2217
Precursor type: [M+H]+
Precursor intensity: 6122781.960938
m/z	relative intensity	assigned
85.1013	21	C6H13+
149.0234	999	C8H5O3+
163.0391	27	C9H7O3+
181.0496	36	C9H9O4+
