Mass spectrum: Propylparaben; LC-ESI-QFT; MS2; CE: 75; R=17500; [M-H]-
Name: Propylparaben
Name: propyl 4-hydroxybenzoate
Formula: C10H12O3
Exact mass: 180.0786
SMILES: CCCOC(=O)C1=CC=C(O)C=C1
InChI: InChI=1S/C10H12O3/c1-2-7-13-10(12)8-3-5-9(11)6-4-8/h3-6,11H,2,7H2,1H3
Instrument: Q Exactive Orbitrap (Thermo Scientific)
Instrument type: LC-ESI-QFT
Ms type: MS2
Ion mode: NEGATIVE
Ionization: ESI
Fragmentation mode: HCD
Collision energy: 75
Resolution: 17500
Column name: Acquity BEH C18 1.7um, 2.1x150mm (Waters)
Retention time: 16.598 min
Base peak: 179.0714
Precursor m/z: 179.0714
Precursor type: [M-H]-
Precursor intensity: 42508138.75098
m/z	relative intensity	assigned
53.0033	1	C3HO-
57.0346	95	C3H5O-
59.0502	5	C3H7O-
65.0033	1	C4HO-
65.0396	7	C5H5-
67.0189	4	C4H3O-
68.9982	14	C3HO2-
69.0346	12	C4H5O-
70.0061	3	C3H2O2-
71.0139	9	C3H3O2-
72.9931	5	C2HO3-
78.0113	1	C5H2O-
79.019	5	C5H3O-
79.9905	6	C4O2-
80.9982	3	C4HO2-
82.0061	31	C4H2O2-
83.0137	1	C4H3O2-
86.001	1	C3H2O3-
91.019	94	C6H3O-
92.0268	103	C6H4O-
93.0346	999	C6H5O-
95.0139	477	C5H3O2-
97.0296	7	C5H5O2-
98.0011	2	C4H2O3-
106.006	28	C6H2O2-
107.014	2	C6H3O2-
108.0217	458	C6H4O2-
109.0296	2	C6H5O2-
119.014	8	C7H3O2-
121.0295	33	C7H5O2-
123.0088	58	C6H3O3-
125.0244	1	C6H5O3-
136.0165	77	C7H4O3-
137.0244	51	C7H5O3-
151.0766	3	C9H11O2-
179.0715	7	C10H11O3-
