Mass spectrum: GSK232420A; LC-ESI-QFT; MS2; CE: 75; R=17500; [M-H]-
Name: GSK232420A
Name: 2-[4-cyano-N-(2,2,2-trifluoroethyl)-3-(trifluoromethyl)anilino]acetamide
Formula: C12H9F6N3O
Exact mass: 325.0650
SMILES: NC(=O)CN(CC(F)(F)F)C1=CC(=C(C=C1)C#N)C(F)(F)F
InChI: InChI=1S/C12H9F6N3O/c13-11(14,15)6-21(5-10(20)22)8-2-1-7(4-19)9(3-8)12(16,17)18/h1-3H,5-6H2,(H2,20,22)
Instrument: Q Exactive Orbitrap (Thermo Scientific)
Instrument type: LC-ESI-QFT
Ms type: MS2
Ion mode: NEGATIVE
Ionization: ESI
Fragmentation mode: HCD
Collision energy: 75
Resolution: 17500
Column name: Acquity BEH C18 1.7um, 2.1x150mm (Waters)
Retention time: 15.748 min
Base peak: 284.0451
Precursor m/z: 324.0577
Precursor type: [M-H]-
Precursor intensity: 3627844.185547
m/z	relative intensity	assigned
65.0145	351	C3HN2-
65.9985	302	C3NO-
68.9958	71	CF3-
93.0095	242	C4HN2O-
100.0193	33	C7H2N-
112.0068	56	C7N2-
113.0157	999	C4H2FN2O-
122.0037	149	C9N-
130.0099	83	C8HFN-
139.0304	65	C9H3N2-
149.0144	219	C2H2F5N2-
150.0157	206	C8H2F2N-
162.016	105	C9H2F2N-
168.0071	60	C8HF3N-
168.0266	56	C8H4F2NO-
169.0207	770	C10H2FN2-
170.0222	366	C8H3F3N-
175.0112	382	C9HF2N2-
176.0191	114	C9H2F2N2-
185.0333	619	C8H4F3N2-
189.027	301	C10H3F2N2-
190.0118	53	C10H2F2NO-
194.0222	79	C10H3F3N-
195.0178	301	C9H2F3N2-
196.0255	40	C9H3F3N2-
209.0333	635	C10H4F3N2-
210.0173	477	C10H3F3NO-
217.022	95	C11H3F2N2O-
236.0442	94	C11H5F3N3-
237.0283	193	C11H4F3N2O-
