Mass spectrum: Pyrimethamine; LC-ESI-QFT; MS2; CE: 90; R=17500; [M+H]+
Name: Pyrimethamine
Name: 5-(4-chlorophenyl)-6-ethylpyrimidine-2,4-diamine
Formula: C12H13ClN4
Exact mass: 248.0829
SMILES: CCC1=NC(N)=NC(N)=C1C1=CC=C(Cl)C=C1
InChI: InChI=1S/C12H13ClN4/c1-2-9-10(11(14)17-12(15)16-9)7-3-5-8(13)6-4-7/h3-6H,2H2,1H3,(H4,14,15,16,17)
Instrument: Q Exactive Orbitrap (Thermo Scientific)
Instrument type: LC-ESI-QFT
Ms type: MS2
Ion mode: POSITIVE
Ionization: ESI
Fragmentation mode: HCD
Collision energy: 90
Resolution: 17500
Column name: Acquity BEH C18 1.7um, 2.1x150mm (Waters)
Retention time: 13.596 min
Base peak: 79.0211
Precursor m/z: 249.0902
Precursor type: [M+H]+
Precursor intensity: 14373207.28125
m/z	relative intensity	assigned
56.0494	48	C3H6N+
57.0573	1	C3H7N+
60.0556	11	CH6N3+
67.029	13	C3H3N2+
68.0243	4	C2H2N3+
68.0494	4	C4H6N+
74.0964	1	C4H12N+
75.0228	11	C6H3+
78.0338	3	C5H4N+
79.0178	4	C2H6ClN+
81.0446	2	C4H5N2+
82.0526	7	C4H6N2+
85.0508	1	C2H5N4+
86.9996	31	C4H4Cl+
89.0385	7	C7H5+
94.0413	3	C3H9ClN+
95.0604	1	C5H7N2+
96.0444	2	C2H9ClN2+
103.0542	19	C8H7+
110.9994	13	C6H4Cl+
111.044	9	CH8ClN4+
114.0335	5	C8H4N+
115.0541	62	C9H7+
116.0494	14	C8H6N+
117.0572	107	C8H7N+
122.9995	18	C7H4Cl+
125.0152	88	C7H6Cl+
127.0542	48	C10H7+
128.062	522	C10H8+
129.0101	102	C4H4ClN3+
129.0697	11	C10H9+
130.0651	33	C9H8N+
130.0775	10	C10H10+
131.0603	3	C8H7N2+
131.073	2	C9H9N+
132.0684	1	C8H8N2+
137.0153	7	C8H6Cl+
137.0822	3	C6H9N4+
138.0105	13	C7H5ClN+
139.0057	197	C6H4ClN2+
140.0494	28	C10H6N+
142.0525	54	C9H6N2+
143.0603	7	C9H7N2+
143.0729	7	C10H9N+
144.0564	1	C8H6N3+
144.0806	9	C10H10N+
145.0647	119	C7H12ClN+
145.0885	17	C10H11N+
149.0152	42	C9H6Cl+
150.0105	54	C8H5ClN+
150.023	4	C9H7Cl+
151.0184	7	C8H6ClN+
152.0261	51	C8H7ClN+
153.0465	1	C9H10Cl+
153.0573	25	C11H7N+
154.065	170	C11H8N+
155.0604	182	C10H7N2+
155.0725	99	C11H9N+
156.0681	81	C10H8N2+
157.076	14	C10H9N2+
158.0713	3	C9H8N3+
159.0798	1	C9H9N3+
161.0026	73	C9H4ClN+
162.0105	10	C9H5ClN+
162.0227	9	C10H7Cl+
163.0308	163	C10H8Cl+
164.0261	15	C9H7ClN+
165.0213	12	C8H6ClN2+
165.0335	1	C9H8ClN+
168.0209	5	C6H5ClN4+
169.0759	25	C11H9N2+
170.0601	10	C8H11ClN2+
170.084	4	C11H10N2+
171.0913	8	C11H11N2+
172.0993	7	C11H12N2+
174.0104	29	C10H5ClN+
175.0184	3	C10H6ClN+
176.0135	4	C9H5ClN2+
177.0213	999	C9H6ClN2+
178.0291	2	C9H7ClN2+
178.0414	2	C10H9ClN+
179.0602	32	C12H7N2+
180.0682	9	C12H8N2+
181.0633	30	C11H7N3+
181.0758	3	C12H9N2+
182.0713	10	C11H8N3+
185.0816	2	C10H9N4+
188.0262	15	C11H7ClN+
189.0213	37	C10H6ClN2+
190.0417	64	C11H9ClN+
191.0371	19	C10H8ClN2+
191.0495	12	C11H10ClN+
192.0324	5	C9H7ClN3+
192.0449	17	C10H9ClN2+
196.0869	58	C12H10N3+
197.0823	52	C11H9N4+
197.0945	8	C12H11N3+
198.0899	786	C11H10N4+
199.0976	8	C11H11N4+
204.0318	2	C10H7ClN3+
205.0529	2	C11H10ClN2+
207.0681	15	C11H12ClN2+
213.1134	24	C12H13N4+
215.0373	4	C12H8ClN2+
216.0322	51	C11H7ClN3+
217.0403	5	C11H8ClN3+
232.0505	2	C11H9ClN4+
232.0629	1	C12H11ClN3+
233.0587	839	C11H10ClN4+
234.0662	1	C11H11ClN4+
247.0745	1	C12H12ClN4+
249.0901	23	C12H14ClN4+
