Mass spectrum: 2-Naphthalenol; LC-ESI-QFT; MS2; CE: 75; R=17500; [M+H]+
Name: 2-Naphthalenol
Name: 2-Naphthol
Name: naphthalen-2-ol
Formula: C10H8O
Exact mass: 144.0575
SMILES: OC1=CC2=C(C=CC=C2)C=C1
InChI: InChI=1S/C10H8O/c11-10-6-5-8-3-1-2-4-9(8)7-10/h1-7,11H
Instrument: Q Exactive Orbitrap (Thermo Scientific)
Instrument type: LC-ESI-QFT
Ms type: MS2
Ion mode: POSITIVE
Ionization: ESI
Fragmentation mode: HCD
Collision energy: 75
Resolution: 17500
Column name: Acquity BEH C18 1.7um, 2.1x150mm (Waters)
Retention time: 15.689 min
Base peak: 79.0211
Precursor m/z: 145.0648
Precursor type: [M+H]+
Precursor intensity: 16939664.1875
m/z	relative intensity	assigned
51.023	2	C4H3+
53.0385	8	C4H5+
63.0229	1	C5H3+
65.0384	5	C5H5+
77.0384	6	C6H5+
89.0382	1	C7H5+
91.0542	402	C7H7+
95.0491	27	C6H7O+
101.0383	1	C8H5+
102.0464	4	C8H6+
103.0542	187	C8H7+
105.0334	1	C7H5O+
115.0542	796	C9H7+
116.062	45	C9H8+
117.0698	928	C9H9+
119.0494	2	C8H7O+
126.0464	30	C10H6+
127.0542	408	C10H7+
128.0619	6	C10H8+
130.0411	1	C9H6O+
131.0493	9	C9H7O+
143.0491	1	C10H7O+
144.057	45	C10H8O+
145.0647	999	C10H9O+
