Mass spectrum: Methyldopa; LC-ESI-QFT; MS2; CE: 45; R=17500; [M+H]+
Name: Methyldopa
Name: (2S)-2-amino-3-(3,4-dihydroxyphenyl)-2-methylpropanoic acid
Formula: C10H13NO4
Exact mass: 211.0845
SMILES: C[C@](N)(Cc1ccc(O)c(O)c1)C(=O)O
InChI: InChI=1S/C10H13NO4/c1-10(11,9(14)15)5-6-2-3-7(12)8(13)4-6/h2-4,12-13H,5,11H2,1H3,(H,14,15)/t10-/m0/s1
Instrument: Q Exactive Orbitrap (Thermo Scientific)
Instrument type: LC-ESI-QFT
Ms type: MS2
Ion mode: POSITIVE
Ionization: ESI
Fragmentation mode: HCD
Collision energy: 45
Resolution: 17500
Column name: Acquity BEH C18 1.7um, 2.1x150mm (Waters)
Retention time: 3.672 min
Base peak: 79.0211
Precursor m/z: 212.0917
Precursor type: [M+H]+
Precursor intensity: 2272318.375
m/z	relative intensity	assigned
56.0495	11	C3H6N+
57.0335	6	C3H5O+
58.0651	3	C3H8N+
65.0386	4	C5H5+
88.0393	15	C3H6NO2+
93.0336	16	C6H5O+
93.0698	2	C7H9+
94.0653	3	C6H8N+
103.0542	22	C8H7+
105.0699	27	C8H9+
107.0492	6	C7H7O+
111.0441	198	C6H7O2+
120.081	7	C8H10N+
121.0649	25	C8H9O+
123.0441	112	C7H7O2+
125.0597	3	C7H9O2+
131.0492	90	C9H7O+
133.0648	23	C9H9O+
139.039	995	C7H7O3+
148.0756	5	C9H10NO+
149.0598	80	C9H9O2+
151.0753	33	C9H11O2+
159.044	5	C10H7O2+
166.0864	999	C9H12NO2+
167.0703	3	C9H11O3+
177.0547	17	C10H9O3+
195.0652	24	C10H11O4+
212.0919	3	C10H14NO4+
