Mass spectrum: Kinetin; LC-ESI-QFT; MS2; CE: 45; R=17500; [M-H]-
Name: Kinetin
Name: N-(furan-2-ylmethyl)-7H-purin-6-amine
Formula: C10H9N5O
Exact mass: 215.0807
SMILES: C(NC1=C2N=CN=C2N=CN1)C1=CC=CO1
InChI: InChI=1S/C10H9N5O/c1-2-7(16-3-1)4-11-9-8-10(13-5-12-8)15-6-14-9/h1-3,5-6H,4H2,(H2,11,12,13,14,15)
Instrument: Q Exactive Orbitrap (Thermo Scientific)
Instrument type: LC-ESI-QFT
Ms type: MS2
Ion mode: NEGATIVE
Ionization: ESI
Fragmentation mode: HCD
Collision energy: 45
Resolution: 17500
Column name: Acquity BEH C18 1.7um, 2.1x150mm (Waters)
Retention time: 11.237 min
Base peak: 214.0735
Precursor m/z: 214.0734
Precursor type: [M-H]-
Precursor intensity: 5422303.530029
m/z	relative intensity	assigned
64.0065	1	C3N2-
65.0145	2	C3HN2-
69.0346	6	C4H5O-
79.0174	1	C3HN3-
90.0096	1	C4N3-
92.0255	16	C4H2N3-
106.0285	13	C4H2N4-
107.0125	2	C4HN3O-
107.0363	25	C4H3N4-
117.0206	26	C5HN4-
119.0361	2	C5H3N4-
121.0407	5	C6H5N2O-
132.0316	36	C5H2N5-
133.0394	999	C5H3N5-
134.0472	661	C5H4N5-
142.041	16	C8H4N3-
143.0361	2	C7H3N4-
144.0314	7	C6H2N5-
146.0472	13	C6H4N5-
158.0472	17	C7H4N5-
159.0673	1	C8H7N4-
160.0263	8	C6H2N5O-
160.0628	12	C7H6N5-
169.0519	18	C9H5N4-
170.0473	55	C8H4N5-
171.0549	1	C8H5N5-
171.0676	1	C9H7N4-
172.0629	11	C8H6N5-
173.0342	7	C7H3N5O-
184.063	1	C9H6N5-
186.0785	40	C9H8N5-
187.0625	23	C9H7N4O-
195.055	1	C10H5N5-
196.0628	110	C10H6N5-
198.055	1	C10H6N4O-
199.0502	2	C9H5N5O-
212.0575	1	C10H6N5O-
214.0735	105	C10H8N5O-
