Mass spectrum: Diphenylacetonitrile; LC-ESI-QFT; MS2; CE: 90; R=17500; [M+H]+
Name: Diphenylacetonitrile
Name: 2,2-diphenylacetonitrile
Formula: C14H11N
Exact mass: 193.0891
SMILES: N#CC(C1=CC=CC=C1)C1=CC=CC=C1
InChI: InChI=1S/C14H11N/c15-11-14(12-7-3-1-4-8-12)13-9-5-2-6-10-13/h1-10,14H
Instrument: Q Exactive Orbitrap (Thermo Scientific)
Instrument type: LC-ESI-QFT
Ms type: MS2
Ion mode: POSITIVE
Ionization: ESI
Fragmentation mode: HCD
Collision energy: 90
Resolution: 17500
Column name: Acquity BEH C18 1.7um, 2.1x150mm (Waters)
Retention time: 15.768 min
Base peak: 79.0211
Precursor m/z: 194.0964
Precursor type: [M+H]+
Precursor intensity: 2275075.5
m/z	relative intensity	assigned
65.0386	10	C5H5+
89.0386	18	C7H5+
90.0464	8	C7H6+
91.0543	34	C7H7+
116.0495	22	C8H6N+
117.0574	39	C8H7N+
128.0493	5	C9H6N+
128.062	4	C10H8+
152.0621	83	C12H8+
165.07	76	C13H9+
166.0657	11	C12H8N+
166.0781	20	C13H10+
167.073	111	C12H9N+
167.0852	34	C13H11+
168.081	9	C12H10N+
176.0622	31	C14H8+
177.0574	5	C13H7N+
177.0702	23	C14H9+
178.0652	77	C13H8N+
178.0778	20	C14H10+
179.073	550	C13H9N+
191.073	19	C14H9N+
192.081	218	C14H10N+
193.0888	999	C14H11N+
194.0965	762	C14H12N+
