Mass spectrum: 2,3-Quinolinedicarboxylic acid; LC-ESI-QFT; MS2; CE: 15; R=17500; [M-H]-
Name: 2,3-Quinolinedicarboxylic acid
Name: quinoline-2,3-dicarboxylic acid
Formula: C11H7NO4
Exact mass: 217.0375
SMILES: OC(=O)C1=C(N=C2C=CC=CC2=C1)C(O)=O
InChI: InChI=1S/C11H7NO4/c13-10(14)7-5-6-3-1-2-4-8(6)12-9(7)11(15)16/h1-5H,(H,13,14)(H,15,16)
Instrument: Q Exactive Orbitrap (Thermo Scientific)
Instrument type: LC-ESI-QFT
Ms type: MS2
Ion mode: NEGATIVE
Ionization: ESI
Fragmentation mode: HCD
Collision energy: 15
Resolution: 17500
Column name: Acquity BEH C18 1.7um, 2.1x150mm (Waters)
Retention time: 12.181 min
Base peak: 112.9857
Precursor m/z: 216.0302
Precursor type: [M-H]-
Precursor intensity: 219078.0561523
m/z	relative intensity	assigned
128.0506	996	C9H6N-
144.0456	163	C9H6NO-
172.0405	999	C10H6NO2-
