Mass spectrum: Metolachlor; LC-ESI-QFT; MS2; CE: 75; R=17500; [M+H]+
Name: Metolachlor
Name: 2-chloro-N-(2-ethyl-6-methylphenyl)-N-(1-methoxypropan-2-yl)acetamide
Formula: C15H22ClNO2
Exact mass: 283.1339
SMILES: CCC1=C(N(C(C)COC)C(=O)CCl)C(C)=CC=C1
InChI: InChI=1S/C15H22ClNO2/c1-5-13-8-6-7-11(2)15(13)17(14(18)9-16)12(3)10-19-4/h6-8,12H,5,9-10H2,1-4H3
Instrument: Q Exactive Orbitrap (Thermo Scientific)
Instrument type: LC-ESI-QFT
Ms type: MS2
Ion mode: POSITIVE
Ionization: ESI
Fragmentation mode: HCD
Collision energy: 75
Resolution: 17500
Column name: Acquity BEH C18 1.7um, 2.1x150mm (Waters)
Retention time: 18.192 min
Base peak: 79.0211
Precursor m/z: 284.1412
Precursor type: [M+H]+
Precursor intensity: 23578516.25
m/z	relative intensity	assigned
53.0023	27	C3HO+
53.0387	4	C4H5+
53.9974	3	C2NO+
56.0495	15	C3H6N+
58.0652	4	C3H8N+
65.0384	13	C5H5+
67.0541	5	C5H7+
70.0651	3	C4H8N+
73.0647	171	C4H9O+
75.9947	4	C2H3ClN+
76.9788	175	C2H2ClO+
78.0462	3	C6H6+
79.0542	41	C6H7+
81.0698	10	C6H9+
90.0103	2	C6H2O+
91.0542	433	C7H7+
92.0619	4	C7H8+
93.0574	36	C6H7N+
93.0699	76	C7H9+
95.049	19	C6H7O+
103.0543	58	C8H7+
104.062	35	C8H8+
105.0699	72	C8H9+
106.0652	37	C7H8N+
106.0776	4	C8H10+
107.0491	21	C7H7O+
107.0729	29	C7H9N+
107.0855	37	C8H11+
108.0807	242	C7H10N+
109.0648	110	C7H9O+
115.0542	80	C9H7+
116.0622	11	C9H8+
117.0573	30	C8H7N+
117.0699	236	C9H9+
118.0651	119	C8H8N+
119.073	294	C8H9N+
119.0856	134	C9H11+
120.0808	268	C8H10N+
121.0648	9	C8H9O+
128.062	5	C10H8+
129.0698	16	C10H9+
130.0652	106	C9H8N+
130.0778	9	C10H10+
131.073	170	C9H9N+
131.0854	43	C10H11+
132.0808	288	C9H10N+
133.0886	717	C9H11N+
134.0964	999	C9H12N+
135.0804	17	C9H11O+
135.1042	6	C9H13N+
136.1121	20	C9H14N+
137.0962	7	C9H13O+
139.0309	7	C8H8Cl+
141.0699	6	C11H9+
142.0778	7	C11H10+
143.073	138	C10H9N+
144.0808	209	C10H10N+
145.0886	177	C10H11N+
146.0602	23	C9H8NO+
146.0964	427	C10H12N+
147.0681	21	C9H9NO+
147.1042	76	C10H13N+
148.0757	23	C9H10NO+
148.112	113	C10H14N+
156.081	5	C11H10N+
157.0884	14	C11H11N+
158.0965	189	C11H12N+
159.1043	122	C11H13N+
160.1121	344	C11H14N+
161.0833	3	C10H11NO+
161.1199	23	C11H15N+
162.0913	70	C10H12NO+
162.1277	4	C11H16N+
166.0419	28	C9H9ClN+
174.091	6	C11H12NO+
174.1277	16	C12H16N+
176.1434	730	C12H18N+
178.0417	10	C10H9ClN+
182.0363	4	C12H6O2+
184.0524	166	C9H11ClNO+
188.1069	14	C12H14NO+
192.0577	5	C11H11ClN+
194.0733	16	C11H13ClN+
196.0525	4	C10H11ClNO+
202.1225	14	C13H16NO+
212.0837	13	C11H15ClNO+
252.1149	34	C14H19ClNO+
