Mass spectrum: 2,2`-[(4-Methylphenyl)imino]diethanol; LC-ESI-QFT; MS2; CE: 75; R=17500; [M+H]+
Name: 2,2'-[(4-Methylphenyl)imino]diethanol
Name: N,N-Bis(2-hydroxyethyl)-p-toluidine
Name: 2-[N-(2-hydroxyethyl)-4-methylanilino]ethanol
Formula: C11H17NO2
Exact mass: 195.1259
SMILES: CC1=CC=C(C=C1)N(CCO)CCO
InChI: InChI=1S/C11H17NO2/c1-10-2-4-11(5-3-10)12(6-8-13)7-9-14/h2-5,13-14H,6-9H2,1H3
Instrument: Q Exactive Orbitrap (Thermo Scientific)
Instrument type: LC-ESI-QFT
Ms type: MS2
Ion mode: POSITIVE
Ionization: ESI
Fragmentation mode: HCD
Collision energy: 75
Resolution: 17500
Column name: Acquity BEH C18 1.7um, 2.1x150mm (Waters)
Retention time: 9.123 min
Base peak: 79.0211
Precursor m/z: 196.1332
Precursor type: [M+H]+
Precursor intensity: 14983955.21875
m/z	relative intensity	assigned
53.0387	1	C4H5+
65.0385	4	C5H5+
67.0542	1	C5H7+
74.0963	1	C4H12N+
77.0385	1	C6H5+
79.0541	6	C6H7+
80.0494	1	C5H6N+
91.0542	66	C7H7+
92.062	13	C7H8+
93.0573	10	C6H7N+
93.0699	18	C7H9+
94.0652	1	C6H8N+
95.049	2	C6H7O+
103.0543	1	C8H7+
104.0495	3	C7H6N+
105.0699	14	C8H9+
106.0651	25	C7H8N+
106.0778	1	C8H10+
107.0729	56	C7H9N+
107.0854	7	C8H11+
108.0807	19	C7H10N+
109.0648	8	C7H9O+
115.0542	15	C9H7+
117.0573	17	C8H7N+
117.0699	20	C9H9+
118.0652	79	C8H8N+
119.0731	154	C8H9N+
120.0807	999	C8H10N+
128.0619	1	C10H8+
130.0651	12	C9H8N+
131.073	6	C9H9N+
132.0808	136	C9H10N+
133.0886	104	C9H11N+
134.0963	288	C9H12N+
135.1039	2	C9H13N+
144.0807	12	C10H10N+
145.0885	13	C10H11N+
146.0964	1	C10H12N+
150.0916	1	C9H12NO+
151.0991	17	C9H13NO+
152.1069	2	C9H14NO+
158.0962	1	C11H12N+
160.112	5	C11H14N+
178.1225	8	C11H16NO+
