Mass spectrum: Cyproterone acetate; LC-ESI-QFT; MS2; CE: 75; R=17500; [M+H]+
Name: Cyproterone acetate
Name: [(1S,2S,3S,5R,11R,12S,15R,16S)-15-acetyl-9-chloro-2,16-dimethyl-6-oxo-15-pentacyclo[9.7.0.02,8.03,5.012,16]octadeca-7,9-dienyl] acetate
Formula: C24H29ClO4
Exact mass: 416.1754
SMILES: CC(=O)O[C@@]1(CC[C@H]2[C@@H]3C=C(Cl)C4=CC(=O)[C@@H]5C[C@@H]5[C@]4(C)[C@H]3CC[C@]12C)C(C)=O
InChI: InChI=1S/C24H29ClO4/c1-12(26)24(29-13(2)27)8-6-16-14-10-20(25)19-11-21(28)15-9-18(15)23(19,4)17(14)5-7-22(16,24)3/h10-11,14-18H,5-9H2,1-4H3/t14-,15+,16-,17-,18-,22-,23-,24-/m0/s1
Instrument: Q Exactive Orbitrap (Thermo Scientific)
Instrument type: LC-ESI-QFT
Ms type: MS2
Ion mode: POSITIVE
Ionization: ESI
Fragmentation mode: HCD
Collision energy: 75
Resolution: 17500
Column name: Acquity BEH C18 1.7um, 2.1x150mm (Waters)
Retention time: 18.263 min
Base peak: 79.0211
Precursor m/z: 417.1827
Precursor type: [M+H]+
Precursor intensity: 3246421.75
m/z	relative intensity	assigned
53.0022	14	C3HO+
53.0386	67	C4H5+
55.0179	54	C3H3O+
55.0543	117	C4H7+
57.0699	14	C4H9+
59.0491	31	C3H7O+
65.0386	58	C5H5+
67.0543	197	C5H7+
69.0335	29	C4H5O+
69.0698	32	C5H9+
77.0385	17	C6H5+
79.0543	267	C6H7+
81.0335	10	C5H5O+
81.07	106	C6H9+
83.0491	28	C5H7O+
85.0285	26	C4H5O2+
85.0651	13	C5H9O+
91.0543	950	C7H7+
93.07	250	C7H9+
94.0414	12	C6H6O+
95.0492	119	C6H7O+
95.0858	62	C7H11+
97.065	27	C6H9O+
103.0544	88	C8H7+
105.07	999	C8H9+
107.0492	72	C7H7O+
107.0855	68	C8H11+
109.0652	60	C7H9O+
109.1012	14	C8H13+
113.0151	18	C6H6Cl+
115.0543	237	C9H7+
116.0622	67	C9H8+
117.07	309	C9H9+
118.0777	16	C9H10+
119.0857	290	C9H11+
120.057	10	C8H8O+
121.0649	102	C8H9O+
121.1013	31	C9H13+
123.0804	17	C8H11O+
125.0152	18	C7H6Cl+
127.0312	16	C7H8Cl+
127.0545	27	C10H7+
128.0622	301	C10H8+
129.0699	376	C10H9+
130.0778	95	C10H10+
131.0492	52	C9H7O+
131.0857	272	C10H11+
132.057	42	C9H8O+
133.0649	44	C9H9O+
133.1013	375	C10H13+
135.0806	23	C9H11O+
139.0309	36	C8H8Cl+
141.07	382	C11H9+
142.0779	383	C11H10+
143.0857	254	C11H11+
144.0571	58	C10H8O+
144.0938	46	C11H12+
145.065	213	C10H9O+
145.1013	148	C11H13+
146.0728	41	C10H10O+
147.0804	35	C10H11O+
147.1169	104	C11H15+
149.0965	13	C10H13O+
151.0308	17	C9H8Cl+
152.0622	68	C12H8+
153.07	167	C12H9+
154.0777	115	C12H10+
155.026	20	C8H8ClO+
155.0606	70	C9H12Cl+
155.0856	302	C12H11+
156.0937	68	C12H12+
157.0649	103	C11H9O+
157.1013	120	C12H13+
158.0726	61	C11H10O+
159.0807	87	C11H11O+
159.117	46	C12H15+
160.0886	10	C11H12O+
162.0234	14	C10H7Cl+
163.0308	30	C10H8Cl+
165.0471	15	C10H10Cl+
165.0701	282	C13H9+
166.0778	142	C13H10+
167.0858	246	C13H11+
168.0571	16	C12H8O+
168.0938	78	C13H12+
169.0651	54	C12H9O+
169.1012	111	C13H13+
170.0729	51	C12H10O+
170.1086	19	C13H14+
171.0805	108	C12H11O+
171.1167	39	C13H15+
172.0882	13	C12H12O+
173.0964	16	C12H13O+
175.0312	45	C11H8Cl+
175.0758	11	C11H11O2+
177.0464	27	C11H10Cl+
178.0778	138	C14H10+
179.026	14	C10H8ClO+
179.0857	282	C14H11+
180.0936	107	C14H12+
181.0417	23	C10H10ClO+
181.0644	34	C13H9O+
181.1013	198	C14H13+
182.0729	33	C13H10O+
182.1095	47	C14H14+
183.0803	60	C13H11O+
183.117	122	C14H15+
184.0884	35	C13H12O+
185.0963	78	C13H13O+
185.1331	13	C14H17+
189.0465	26	C12H10Cl+
189.0703	29	C15H9+
190.0779	57	C15H10+
191.026	56	C11H8ClO+
191.0619	11	C12H12Cl+
191.0855	137	C15H11+
192.0936	151	C15H12+
193.0415	15	C11H10ClO+
193.1015	219	C15H13+
194.073	28	C14H10O+
194.1091	84	C15H14+
195.0809	56	C14H11O+
195.1171	121	C15H15+
196.0881	16	C14H12O+
196.1251	22	C15H16+
197.0966	17	C14H13O+
197.1327	24	C15H17+
199.1117	14	C14H15O+
201.0464	15	C13H10Cl+
202.0778	78	C16H10+
203.0626	18	C13H12Cl+
203.0856	128	C16H11+
204.0937	90	C16H12+
205.0415	21	C12H10ClO+
205.1014	183	C16H13+
206.0731	17	C15H10O+
206.1092	77	C16H14+
207.0806	79	C15H11O+
207.117	110	C16H15+
208.0886	58	C15H12O+
208.125	26	C16H16+
209.0965	64	C15H13O+
209.1327	67	C16H17+
210.1043	12	C15H14O+
210.1404	13	C16H18+
211.1122	10	C15H15O+
215.0624	20	C14H12Cl+
215.0859	58	C17H11+
216.0935	91	C17H12+
217.0784	18	C14H14Cl+
217.1016	102	C17H13+
218.0728	10	C16H10O+
218.1092	66	C17H14+
219.0564	13	C13H12ClO+
219.0807	47	C16H11O+
219.1169	125	C17H15+
220.0884	43	C16H12O+
220.1253	67	C17H16+
221.0964	140	C16H13O+
221.1325	101	C17H17+
222.1035	49	C16H14O+
223.1119	39	C16H15O+
223.1481	13	C17H19+
229.101	79	C18H13+
230.1094	61	C18H14+
231.1168	111	C18H15+
232.0885	31	C17H12O+
232.1248	41	C18H16+
233.0961	67	C17H13O+
233.1325	78	C18H17+
234.1045	45	C17H14O+
234.1403	21	C18H18+
235.1122	93	C17H15O+
235.1483	100	C18H19+
236.1196	32	C17H16O+
237.1273	25	C17H17O+
243.1162	24	C19H15+
244.1262	21	C19H16+
245.1326	64	C19H17+
246.1044	16	C18H14O+
246.1407	26	C19H18+
247.1117	68	C18H15O+
248.1194	65	C18H16O+
249.1273	87	C18H17O+
249.1639	23	C19H21+
250.1352	17	C18H18O+
251.1432	15	C18H19O+
255.1167	19	C20H15+
261.128	14	C19H17O+
261.1639	22	C20H21+
262.1356	19	C19H18O+
263.1433	157	C19H19O+
264.1507	18	C19H20O+
273.1275	12	C20H17O+
277.1582	20	C20H21O+
279.1737	21	C20H23O+
