Mass spectrum: PFOSA; LC-ESI-QFT; MS2; CE: 45; R=17500; [M-H]-
Name: PFOSA
Name: Perfluorooctanesulfonamide
Name: 1,1,2,2,3,3,4,4,5,5,6,6,7,7,8,8,8-heptadecafluorooctane-1-sulfonamide
Formula: C8H2F17NO2S
Exact mass: 498.9535
SMILES: NS(=O)(=O)C(F)(F)C(F)(F)C(F)(F)C(F)(F)C(F)(F)C(F)(F)C(F)(F)C(F)(F)F
InChI: InChI=1S/C8H2F17NO2S/c9-1(10,3(13,14)5(17,18)7(21,22)23)2(11,12)4(15,16)6(19,20)8(24,25)29(26,27)28/h(H2,26,27,28)
Instrument: Q Exactive Orbitrap (Thermo Scientific)
Instrument type: LC-ESI-QFT
Ms type: MS2
Ion mode: NEGATIVE
Ionization: ESI
Fragmentation mode: HCD
Collision energy: 45
Resolution: 17500
Column name: Acquity BEH C18 1.7um, 2.1x150mm (Waters)
Retention time: 19.172 min
Base peak: 497.9461
Precursor m/z: 497.9462
Precursor type: [M-H]-
Precursor intensity: 2305012.148438
m/z	relative intensity	assigned
63.9624	16	O2S-
77.9655	999	NO2S-
82.9609	3	FO2S-
118.9926	2	C2F5-
151.991	12	C2HF5O2-
168.9892	10	C3F7-
293.9709	6	CF14O-
