Mass spectrum: AVE2865; LC-ESI-QFT; MS2; CE: 45; R=17500; [M+H]+
Name: AVE2865
Name: 1-{2-[3-(2-Chloro-4,5-Difluoro-Benzoyl)-Ureido]-4-Fluoro-Phenyl}-Piperidine-4-Carboxylic Acid
Name: 1-[2-[(2-chloro-4,5-difluorobenzoyl)carbamoylamino]-4-fluorophenyl]piperidine-4-carboxylic acid
Formula: C20H17ClF3N3O4
Exact mass: 455.0860
SMILES: OC(=O)C1CCN(CC1)C1=C(NC(=O)NC(=O)C2=CC(F)=C(F)C=C2Cl)C=C(F)C=C1
InChI: InChI=1S/C20H17ClF3N3O4/c21-13-9-15(24)14(23)8-12(13)18(28)26-20(31)25-16-7-11(22)1-2-17(16)27-5-3-10(4-6-27)19(29)30/h1-2,7-10H,3-6H2,(H,29,30)(H2,25,26,28,31)
Instrument: Q Exactive Orbitrap (Thermo Scientific)
Instrument type: LC-ESI-QFT
Ms type: MS2
Ion mode: POSITIVE
Ionization: ESI
Fragmentation mode: HCD
Collision energy: 45
Resolution: 17500
Column name: Acquity BEH C18 1.7um, 2.1x150mm (Waters)
Retention time: 18.374 min
Base peak: 79.0211
Precursor m/z: 456.0932
Precursor type: [M+H]+
Precursor intensity: 3410292.75
m/z	relative intensity	assigned
55.0542	9	C4H7+
65.0386	3	C5H5+
67.0542	93	C5H7+
69.0335	11	C4H5O+
69.0699	13	C5H9+
92.0494	2	C6H6N+
95.0491	14	C6H7O+
137.051	17	C7H6FN2+
151.0303	7	C7H4FN2O+
153.0459	36	C7H6FN2O+
165.0459	999	C8H6FN2O+
177.0458	2	C9H6FN2O+
179.0614	3	C9H8FN2O+
190.0539	3	C10H7FN2O+
191.0616	39	C10H8FN2O+
191.098	18	C11H12FN2+
197.0721	11	C9H10FN2O2+
200.0745	2	ClF3H16N2O4+
203.0616	5	C11H8FN2O+
203.0977	3	C12H12FN2+
209.0714	2	C10H12ClN3+
212.0508	3	C13H7FNO+
217.0771	4	C12H10FN2O+
219.0928	258	C12H12FN2O+
229.0772	50	C13H10FN2O+
247.0878	544	C13H12FN2O2+
265.0983	783	C13H14FN2O3+
