Mass spectrum: SR271425; LC-ESI-QFT; MS2; CE: 90; R=17500; [M+H]+
Name: SR271425
Name: Formamide, N-((1-((2-(diethylamino)ethyl)amino)-7-methoxy-9-oxo-9H-thioxanthen-4-yl)methyl)-
Name: N-[[1-[2-(diethylamino)ethylamino]-7-methoxy-9-oxothioxanthen-4-yl]methyl]formamide
Formula: C22H27N3O3S
Exact mass: 413.1773
SMILES: CCN(CC)CCNC1=C2C(=O)C3=C(SC2=C(CNC=O)C=C1)C=CC(OC)=C3
InChI: InChI=1S/C22H27N3O3S/c1-4-25(5-2)11-10-24-18-8-6-15(13-23-14-26)22-20(18)21(27)17-12-16(28-3)7-9-19(17)29-22/h6-9,12,14,24H,4-5,10-11,13H2,1-3H3,(H,23,26)
Instrument: Q Exactive Orbitrap (Thermo Scientific)
Instrument type: LC-ESI-QFT
Ms type: MS2
Ion mode: POSITIVE
Ionization: ESI
Fragmentation mode: HCD
Collision energy: 90
Resolution: 17500
Column name: Acquity BEH C18 1.7um, 2.1x150mm (Waters)
Retention time: 14.230 min
Base peak: 79.0211
Precursor m/z: 414.1846
Precursor type: [M+H]+
Precursor intensity: 16896719.25
m/z	relative intensity	assigned
56.0494	9	C3H6N+
58.0652	1	C3H8N+
70.0651	41	C4H8N+
72.0808	999	C4H10N+
74.0964	4	C4H12N+
85.0886	6	C5H11N+
86.0964	7	C5H12N+
98.0965	3	C6H12N+
100.1121	674	C6H14N+
117.0574	3	C8H7N+
165.0701	17	C13H9+
180.0807	22	C13H10N+
181.0887	5	C13H11N+
184.0342	25	C12H8S+
191.073	84	C14H9N+
192.0808	35	C14H10N+
193.0887	7	C14H11N+
196.0337	2	C13H8S+
197.0419	23	C13H9S+
198.0499	14	C13H10S+
204.0808	13	C15H10N+
207.0681	6	C14H9NO+
208.0341	8	C14H8S+
208.0759	27	C14H10NO+
209.0836	31	C14H11NO+
210.0372	18	C13H8NS+
211.0213	2	C13H7OS+
211.0449	11	C13H9NS+
212.0291	3	C13H8OS+
212.0529	16	C13H10NS+
213.0367	3	C13H9OS+
213.0608	4	C13H11NS+
219.0679	37	C15H9NO+
220.0758	20	C15H10NO+
222.0372	4	C14H8NS+
223.0451	47	C14H9NS+
224.0529	170	C14H10NS+
225.0607	74	C14H11NS+
226.0446	3	C14H10OS+
227.0402	8	C13H9NOS+
232.0759	4	C16H10NO+
235.045	19	C15H9NS+
235.0602	1	C15H9NO2+
235.0632	1	C15H9NO2+
236.0294	3	C15H8OS+
236.0529	67	C15H10NS+
237.0607	1	C15H11NS+
237.0784	3	C15H11NO2+
238.0323	5	C14H8NOS+
239.0404	11	C14H9NOS+
240.0478	23	C14H10NOS+
241.0555	13	C14H11NOS+
247.0996	1	C17H13NO+
248.0524	3	C16H10NS+
249.0786	4	C16H11NO2+
251.0399	2	C15H9NOS+
251.0638	6	C15H11N2S+
252.0478	130	C15H10NOS+
253.0556	184	C15H11NOS+
254.0632	5	C15H12NOS+
263.0397	5	C16H9NOS+
264.0478	7	C16H10NOS+
264.1024	3	C17H14NO2+
265.0571	1	C16H11NOS+
266.0633	2	C16H12NOS+
267.0348	2	C15H9NO2S+
268.0428	7	C15H10NO2S+
269.0499	1	C15H11NO2S+
270.0579	2	C15H12NO2S+
278.0631	7	C17H12NOS+
280.0425	8	C16H10NO2S+
280.0662	7	C16H12N2OS+
281.0506	6	C16H11NO2S+
282.0585	3	C16H12NO2S+
294.0583	3	C17H12NO2S+
296.0737	3	C17H14NO2S+
