Mass spectrum: AVE5638; LC-ESI-QFT; MS2; CE: 90; R=17500; [M+H]+
Name: AVE5638
Name: 1-{3-[1-({5-[(2-Fluorophenyl)ethynyl]furan-2-yl}carbonyl)piperidin-4-yl]phenyl}methanamine
Name: [4-[3-(aminomethyl)phenyl]piperidin-1-yl]-[5-[2-(2-fluorophenyl)ethynyl]furan-2-yl]methanone
Formula: C25H23FN2O2
Exact mass: 402.1744
SMILES: NCC1=CC=CC(=C1)C1CCN(CC1)C(=O)C1=CC=C(O1)C#CC1=CC=CC=C1F
InChI: InChI=1S/C25H23FN2O2/c26-23-7-2-1-5-20(23)8-9-22-10-11-24(30-22)25(29)28-14-12-19(13-15-28)21-6-3-4-18(16-21)17-27/h1-7,10-11,16,19H,12-15,17,27H2
Instrument: Q Exactive Orbitrap (Thermo Scientific)
Instrument type: LC-ESI-QFT
Ms type: MS2
Ion mode: POSITIVE
Ionization: ESI
Fragmentation mode: HCD
Collision energy: 90
Resolution: 17500
Column name: Acquity BEH C18 1.7um, 2.1x150mm (Waters)
Retention time: 16.173 min
Base peak: 79.0211
Precursor m/z: 403.1816
Precursor type: [M+H]+
Precursor intensity: 14626970.25
m/z	relative intensity	assigned
53.0386	3	C4H5+
55.0178	4	C3H3O+
55.0543	12	C4H7+
56.0495	44	C3H6N+
65.0385	5	C5H5+
67.0416	1	C4H5N+
67.0542	2	C5H7+
79.0178	1	C5H3O+
79.0542	1	C6H7+
80.0495	1	C5H6N+
81.0334	2	C5H5O+
82.0651	3	C5H8N+
83.0291	9	C5H4F+
87.023	1	C7H3+
91.0542	78	C7H7+
95.0128	6	C5H3O2+
95.0491	2	C6H7O+
103.0542	5	C8H7+
105.0699	2	C8H9+
107.0291	11	C7H4F+
109.0448	14	C7H6F+
115.0542	24	C9H7+
116.062	21	C9H8+
117.0573	1	C8H7N+
117.0698	4	C9H9+
118.0651	2	C8H8N+
121.0448	1	C8H6F+
123.024	1	C7H4FO+
125.0386	2	C10H5+
127.0542	1	C10H7+
128.062	19	C10H8+
129.0698	13	C10H9+
130.0651	3	C9H8N+
131.0292	8	C9H4F+
131.0855	3	C10H11+
133.0448	12	C9H6F+
137.0386	6	C11H5+
141.0699	13	C11H9+
142.065	1	C10H8N+
142.0777	7	C11H10+
143.0729	5	C10H9N+
144.0806	2	C10H10N+
145.0448	4	C10H6F+
145.0649	3	C10H9O+
146.0525	1	C10H7F+
147.0241	12	C9H4FO+
150.0465	8	C12H6+
151.0543	2	C12H7+
152.062	8	C12H8+
153.0699	4	C12H9+
155.0605	3	C10H7N2+
155.0856	1	C12H11+
156.0368	3	C11H5F+
156.0811	5	C11H10N+
157.0448	999	C11H6F+
159.0605	1	C11H8F+
163.0555	1	C10H8FO+
165.0699	12	C13H9+
169.0648	26	C12H9O+
170.0526	137	C12H7F+
171.0605	7	C12H8F+
173.0512	3	C10H6FN2+
176.0625	1	C14H8+
178.0775	4	C14H10+
179.0604	6	C12H7N2+
179.0855	1	C14H11+
183.0605	4	C13H8F+
187.0555	5	C12H8FO+
189.0695	3	C15H9+
190.0774	1	C15H10+
191.0852	1	C15H11+
196.0685	1	C14H9F+
197.0506	2	C12H6FN2+
199.0552	5	C13H8FO+
202.0778	3	C16H10+
209.0762	1	C15H10F+
213.0345	2	C13H6FO2+
215.0853	2	C17H11+
220.0682	17	C16H9F+
221.0759	2	C16H10F+
225.0701	1	C18H9+
226.0777	104	C18H10+
227.0855	7	C18H11+
228.0931	2	C18H12+
231.0604	1	C17H8F+
233.0761	19	C17H10F+
235.0915	1	C17H12F+
239.0855	11	C19H11+
240.0932	1	C19H12+
244.0683	15	C18H9F+
245.0761	23	C18H10F+
246.0839	136	C18H11F+
247.0915	5	C18H12F+
250.078	2	C20H10+
252.0936	5	C20H12+
253.1014	1	C20H13+
255.0804	1	C19H11O+
257.0761	25	C19H10F+
258.0837	4	C19H11F+
259.0918	11	C19H12F+
263.0857	2	C21H11+
265.1009	2	C21H13+
270.0839	25	C20H11F+
271.0917	6	C20H12F+
272.0995	1	C20H13F+
273.0709	3	C19H10FO+
276.0934	1	C22H12+
283.0919	8	C21H12F+
284.0996	1	C21H13F+
294.0847	2	C22H11F+
295.0921	1	C22H12F+
