Mass spectrum: PharmaGSID_47263; LC-ESI-QFT; MS2; CE: 30; R=17500; [M-H]-
Name: PharmaGSID_47263
Name: 1-Ethyl-5-(4-hydroxyphenyl)-3-methyl-6,7-dihydropyrazolo(4,3-E)(1,4)diazepin-8(1H)-one
Name: 1-ethyl-5-(4-hydroxyphenyl)-3-methyl-6,7-dihydropyrazolo[4,3-e][1,4]diazepin-8-one
Formula: C15H16N4O2
Exact mass: 284.1273
SMILES: CCN1N=C(C)C2=C1C(=O)NCC(=N2)C1=CC=C(O)C=C1
InChI: InChI=1S/C15H16N4O2/c1-3-19-14-13(9(2)18-19)17-12(8-16-15(14)21)10-4-6-11(20)7-5-10/h4-7,20H,3,8H2,1-2H3,(H,16,21)
Instrument: Q Exactive Orbitrap (Thermo Scientific)
Instrument type: LC-ESI-QFT
Ms type: MS2
Ion mode: NEGATIVE
Ionization: ESI
Fragmentation mode: HCD
Collision energy: 30
Resolution: 17500
Column name: Acquity BEH C18 1.7um, 2.1x150mm (Waters)
Retention time: 15.142 min
Base peak: 253.0505
Precursor m/z: 283.12
Precursor type: [M-H]-
Precursor intensity: 2567237.850586
m/z	relative intensity	assigned
93.0345	5	C6H5O-
131.0377	22	C8H5NO-
132.0461	1	C8H6NO-
159.0326	7	C9H5NO2-
177.0787	2	C8H9N4O-
190.0863	4	C9H10N4O-
215.0594	13	C10H7N4O2-
228.1146	1	C13H14N3O-
253.0733	29	C13H9N4O2-
254.081	41	C13H10N4O2-
255.0889	33	C13H11N4O2-
255.1252	3	C14H15N4O-
283.1202	999	C15H15N4O2-
