Mass spectrum: Triamterene; LC-ESI-QFT; MS2; CE: 90; R=17500; [M+H]+
Name: Triamterene
Name: 6-phenylpteridine-2,4,7-triamine
Formula: C12H11N7
Exact mass: 253.1076
SMILES: NC1=NC(N)=C2N=C(C(N)=NC2=N1)C1=CC=CC=C1
InChI: InChI=1S/C12H11N7/c13-9-7(6-4-2-1-3-5-6)16-8-10(14)18-12(15)19-11(8)17-9/h1-5H,(H6,13,14,15,17,18,19)
Instrument: Q Exactive Orbitrap (Thermo Scientific)
Instrument type: LC-ESI-QFT
Ms type: MS2
Ion mode: POSITIVE
Ionization: ESI
Fragmentation mode: HCD
Collision energy: 90
Resolution: 17500
Column name: Acquity BEH C18 1.7um, 2.1x150mm (Waters)
Retention time: 11.875 min
Base peak: 79.0211
Precursor m/z: 254.1149
Precursor type: [M+H]+
Precursor intensity: 29081087.90625
m/z	relative intensity	assigned
51.0229	1	C4H3+
53.0386	10	C4H5+
55.029	15	C2H3N2+
65.0133	4	C3HN2+
67.029	11	C3H3N2+
68.0243	4	C2H2N3+
77.0383	8	C6H5+
79.0541	5	C6H7+
80.0243	22	C3H2N3+
82.0399	25	C3H4N3+
89.0385	28	C7H5+
92.0243	122	C4H2N3+
95.0491	32	C4H5N3+
97.0508	1	C3H5N4+
103.0416	14	C7H5N+
104.0494	999	C7H6N+
105.0446	12	C6H5N2+
106.0651	3	C7H8N+
107.0352	25	C4H3N4+
109.051	1	C4H5N4+
116.0494	298	C8H6N+
117.0572	9	C8H7N+
118.065	1	C8H8N+
122.0601	3	C5H6N4+
128.0368	8	C8H4N2+
129.0447	21	C8H5N2+
131.0603	51	C8H7N2+
132.0443	8	C6H4N4+
133.076	2	C8H9N2+
134.0461	11	C5H4N5+
134.0599	37	C6H6N4+
136.0753	2	C6H8N4+
141.0447	352	C9H5N2+
142.0525	58	C9H6N2+
143.0603	235	C9H7N2+
144.0555	4	C8H6N3+
147.055	1	C6H5N5+
148.0756	3	C7H8N4+
153.0446	13	C10H5N2+
156.0555	5	C9H6N3+
158.0712	8	C9H8N3+
159.0553	9	C7H5N5+
161.0709	7	C7H7N5+
166.0399	10	C10H4N3+
167.0475	2	C10H5N3+
168.0556	408	C10H6N3+
169.0396	1	C8H3N5+
169.0633	10	C10H7N3+
170.0713	5	C10H8N3+
171.0552	3	C8H5N5+
183.0665	76	C10H7N4+
184.0504	4	C8H4N6+
184.0742	3	C10H8N4+
185.0821	38	C10H9N4+
186.066	16	C8H6N6+
193.0509	45	C11H5N4+
194.0583	1	C11H6N4+
195.0665	206	C11H7N4+
196.0503	2	C9H4N6+
210.0773	94	C11H8N5+
211.0609	1	C9H5N7+
211.0847	1	C11H9N5+
212.093	26	C11H10N5+
213.0771	7	C9H7N7+
220.0616	29	C12H6N5+
227.104	6	C11H11N6+
235.0724	2	C12H7N6+
237.0882	146	C12H9N6+
252.099	1	C12H10N7+
254.1146	9	C12H12N7+
