Mass spectrum: Dicloran; LC-ESI-QFT; MS2; CE: 30; R=17500; [M-H]-
Name: Dicloran
Name: 2,6-dichloro-4-nitroaniline
Formula: C6H4Cl2N2O2
Exact mass: 205.9650
SMILES: NC1=C(Cl)C=C(C=C1Cl)[N+]([O-])=O
InChI: InChI=1S/C6H4Cl2N2O2/c7-4-1-3(10(11)12)2-5(8)6(4)9/h1-2H,9H2
Instrument: Q Exactive Orbitrap (Thermo Scientific)
Instrument type: LC-ESI-QFT
Ms type: MS2
Ion mode: NEGATIVE
Ionization: ESI
Fragmentation mode: HCD
Collision energy: 30
Resolution: 17500
Column name: Acquity BEH C18 1.7um, 2.1x150mm (Waters)
Retention time: 17.054 min
Base peak: 221.1183
Precursor m/z: 204.9577
Precursor type: [M-H]-
Precursor intensity: 2150773.446289
m/z	relative intensity	assigned
138.9831	2	C6H2ClNO-
168.981	8	C6H2ClN2O2-
174.9597	41	C6H3Cl2NO-
204.9577	999	C6H3Cl2N2O2-
