Mass spectrum: Diphenamid; LC-ESI-QFT; MS2; CE: 15; R=17500; [M+H]+
Name: Diphenamid
Name: N,N-dimethyl-2,2-diphenylacetamide
Formula: C16H17NO
Exact mass: 239.1310
SMILES: CN(C)C(=O)C(C1=CC=CC=C1)C1=CC=CC=C1
InChI: InChI=1S/C16H17NO/c1-17(2)16(18)15(13-9-5-3-6-10-13)14-11-7-4-8-12-14/h3-12,15H,1-2H3
Instrument: Q Exactive Orbitrap (Thermo Scientific)
Instrument type: LC-ESI-QFT
Ms type: MS2
Ion mode: POSITIVE
Ionization: ESI
Fragmentation mode: HCD
Collision energy: 15
Resolution: 17500
Column name: Acquity BEH C18 1.7um, 2.1x150mm (Waters)
Retention time: 16.705 min
Base peak: 79.0211
Precursor m/z: 240.1383
Precursor type: [M+H]+
Precursor intensity: 49364272.0625
m/z	relative intensity	assigned
72.0446	1	C3H6NO+
134.0963	186	C9H12N+
162.0912	17	C10H12NO+
165.0704	1	C13H9+
167.0854	18	C13H11+
240.1381	999	C16H18NO+
