Mass spectrum: Pirinixic acid; LC-ESI-QFT; MS2; CE: 60; R=17500; [M-H]-
Name: Pirinixic acid
Name: 2-[4-chloro-6-(2,3-dimethylanilino)pyrimidin-2-yl]sulfanylacetic acid
Formula: C14H14ClN3O2S
Exact mass: 323.0495
SMILES: CC1=C(C)C(NC2=NC(SCC(O)=O)=NC(Cl)=C2)=CC=C1
InChI: InChI=1S/C14H14ClN3O2S/c1-8-4-3-5-10(9(8)2)16-12-6-11(15)17-14(18-12)21-7-13(19)20/h3-6H,7H2,1-2H3,(H,19,20)(H,16,17,18)
Instrument: Q Exactive Orbitrap (Thermo Scientific)
Instrument type: LC-ESI-QFT
Ms type: MS2
Ion mode: NEGATIVE
Ionization: ESI
Fragmentation mode: HCD
Collision energy: 60
Resolution: 17500
Column name: Acquity BEH C18 1.7um, 2.1x150mm (Waters)
Retention time: 17.852 min
Base peak: 429.0791
Precursor m/z: 322.0422
Precursor type: [M-H]-
Precursor intensity: 11753015.59961
m/z	relative intensity	assigned
57.9757	263	CNS-
64.0067	15	C3N2-
65.0146	999	C3HN2-
70.9836	12	C2HNS-
71.9914	21	C2H2NS-
90.0099	23	C4N3-
121.9945	4	C5H2N2S-
130.0663	71	C9H8N-
138.9973	18	C5H3N2OS-
145.0269	21	C7H3N3O-
145.0771	43	C9H9N2-
154.0536	8	C10H6N2-
167.0613	6	C11H7N2-
168.0696	5	C11H8N2-
169.0773	440	C11H9N2-
194.0726	30	C12H8N3-
196.0882	52	C12H10N3-
199.0338	12	C11H7N2S-
208.0881	7	C13H10N3-
226.0448	18	C12H8N3S-
227.0526	54	C12H9N3S-
248.0057	18	C11H7ClN3S-
262.0215	171	C12H9ClN3S-
278.0529	95	C13H13ClN3S-
