Mass spectrum: Physostigmine; LC-ESI-QFT; MS2; CE: 90; R=17500; [M+H]+
Name: Physostigmine
Name: [(3aR,8bS)-3,4,8b-trimethyl-2,3a-dihydro-1H-pyrrolo[2,3-b]indol-7-yl] N-methylcarbamate
Formula: C15H21N3O2
Exact mass: 275.1634
SMILES: CNC(=O)OC1=CC2=C(C=C1)N(C)[C@H]1N(C)CC[C@@]21C
InChI: InChI=1S/C15H21N3O2/c1-15-7-8-17(3)13(15)18(4)12-6-5-10(9-11(12)15)20-14(19)16-2/h5-6,9,13H,7-8H2,1-4H3,(H,16,19)/t13-,15+/m1/s1
Instrument: Q Exactive Orbitrap (Thermo Scientific)
Instrument type: LC-ESI-QFT
Ms type: MS2
Ion mode: POSITIVE
Ionization: ESI
Fragmentation mode: HCD
Collision energy: 90
Resolution: 17500
Column name: Acquity BEH C18 1.7um, 2.1x150mm (Waters)
Retention time: 10.625 min
Base peak: 79.0211
Precursor m/z: 276.1707
Precursor type: [M+H]+
Precursor intensity: 13578301.625
m/z	relative intensity	assigned
56.0495	8	C3H6N+
58.0651	8	C3H8N+
91.0543	29	C7H7+
93.07	26	C7H9+
94.0653	4	C6H8N+
95.0492	7	C6H7O+
95.0731	3	C6H9N+
103.0543	29	C8H7+
105.07	10	C8H9+
107.0491	11	C7H7O+
115.0541	6	C9H7+
117.0701	8	C9H9+
118.065	22	C8H8N+
119.073	18	C8H9N+
119.0855	5	C9H11+
121.0649	40	C8H9O+
128.0619	4	C10H8+
130.0651	9	C9H8N+
131.0492	10	C9H7O+
133.0521	6	C8H7NO+
133.0649	4	C9H9O+
134.0603	5	C8H8NO+
134.0965	48	C9H12N+
144.081	26	C10H10N+
145.065	7	C10H9O+
145.0887	28	C10H11N+
146.0602	372	C9H8NO+
147.0679	999	C9H9NO+
148.0759	3	C9H10NO+
159.1045	3	C11H13N+
160.0758	211	C10H10NO+
161.0836	274	C10H11NO+
162.0914	174	C10H12NO+
170.097	2	C12H12N+
172.0758	90	C11H10NO+
173.0836	154	C11H11NO+
176.1069	19	C11H14NO+
188.1073	22	C12H14NO+
