Mass spectrum: Methadone; LC-ESI-QFT; MS2; CE: 15; R=17500; [M+H]+
Name: Methadone
Name: 6-(dimethylamino)-4,4-diphenylheptan-3-one
Formula: C21H27NO
Exact mass: 309.2093
SMILES: CCC(=O)C(CC(C)N(C)C)(C1=CC=CC=C1)C1=CC=CC=C1
InChI: InChI=1S/C21H27NO/c1-5-20(23)21(16-17(2)22(3)4,18-12-8-6-9-13-18)19-14-10-7-11-15-19/h6-15,17H,5,16H2,1-4H3
Instrument: Q Exactive Orbitrap (Thermo Scientific)
Instrument type: LC-ESI-QFT
Ms type: MS2
Ion mode: POSITIVE
Ionization: ESI
Fragmentation mode: HCD
Collision energy: 15
Resolution: 17500
Column name: Acquity BEH C18 1.7um, 2.1x150mm (Waters)
Retention time: 15.477 min
Base peak: 79.0211
Precursor m/z: 310.2165
Precursor type: [M+H]+
Precursor intensity: 65400805.46875
m/z	relative intensity	assigned
57.0336	2	C3H5O+
91.0545	1	C7H7+
105.0331	7	C7H5O+
105.0697	1	C8H9+
159.1165	1	C12H15+
187.1121	2	C13H15O+
223.1119	3	C16H15O+
247.1482	3	C19H19+
265.1585	898	C19H21O+
310.2164	999	C21H28NO+
