Mass spectrum: Physostigmine; LC-ESI-QFT; MS2; CE: 15; R=17500; [M+H]+
Name: Physostigmine
Name: [(3aR,8bS)-3,4,8b-trimethyl-2,3a-dihydro-1H-pyrrolo[2,3-b]indol-7-yl] N-methylcarbamate
Formula: C15H21N3O2
Exact mass: 275.1634
SMILES: CNC(=O)OC1=CC2=C(C=C1)N(C)[C@H]1N(C)CC[C@@]21C
InChI: InChI=1S/C15H21N3O2/c1-15-7-8-17(3)13(15)18(4)12-6-5-10(9-11(12)15)20-14(19)16-2/h5-6,9,13H,7-8H2,1-4H3,(H,16,19)/t13-,15+/m1/s1
Instrument: Q Exactive Orbitrap (Thermo Scientific)
Instrument type: LC-ESI-QFT
Ms type: MS2
Ion mode: POSITIVE
Ionization: ESI
Fragmentation mode: HCD
Collision energy: 15
Resolution: 17500
Column name: Acquity BEH C18 1.7um, 2.1x150mm (Waters)
Retention time: 10.625 min
Base peak: 79.0211
Precursor m/z: 276.1707
Precursor type: [M+H]+
Precursor intensity: 9033238.6875
m/z	relative intensity	assigned
58.0651	3	C3H8N+
147.0679	4	C9H9NO+
161.0833	1	C10H11NO+
162.0914	199	C10H12NO+
176.107	24	C11H14NO+
188.1068	11	C12H14NO+
219.1129	999	C12H15N2O2+
233.1286	102	C13H17N2O2+
245.1286	114	C14H17N2O2+
