Mass spectrum: Dantrolene; LC-ESI-QFT; MS2; CE: 15; R=17500; [M-H]-
Name: Dantrolene
Name: 1-({[5-(4-Nitrophenyl)furan-2-yl]methylidene}amino)imidazolidine-2,4-dione
Name: 1-[[5-(4-nitrophenyl)furan-2-yl]methylideneamino]imidazolidine-2,4-dione
Formula: C14H10N4O5
Exact mass: 314.0651
SMILES: [O-][N+](=O)C1=CC=C(C=C1)C1=CC=C(O1)C=NN1CC(=O)NC1=O
InChI: InChI=1S/C14H10N4O5/c19-13-8-17(14(20)16-13)15-7-11-5-6-12(23-11)9-1-3-10(4-2-9)18(21)22/h1-7H,8H2,(H,16,19,20)
Instrument: Q Exactive Orbitrap (Thermo Scientific)
Instrument type: LC-ESI-QFT
Ms type: MS2
Ion mode: NEGATIVE
Ionization: ESI
Fragmentation mode: HCD
Collision energy: 15
Resolution: 17500
Column name: Acquity BEH C18 1.7um, 2.1x150mm (Waters)
Retention time: 15.481 min
Base peak: 313.0579
Precursor m/z: 313.0578
Precursor type: [M-H]-
Precursor intensity: 10774579.30859
m/z	relative intensity	assigned
99.0201	23	C3H3N2O2-
200.0353	21	C11H6NO3-
202.0511	3	C11H8NO3-
214.051	58	C12H8NO3-
228.0415	236	C11H6N3O3-
243.0415	1	C12H7N2O4-
270.0521	180	C13H8N3O4-
313.0579	999	C14H9N4O5-
