Mass spectrum: Warfarin; LC-ESI-QFT; MS2; CE: 90; R=17500; [M-H]-
Name: Warfarin
Name: 4-hydroxy-3-(3-oxo-1-phenylbutyl)chromen-2-one
Formula: C19H16O4
Exact mass: 308.1049
SMILES: CC(=O)CC(C1=CC=CC=C1)C1=C(O)C2=CC=CC=C2OC1=O
InChI: InChI=1S/C19H16O4/c1-12(20)11-15(13-7-3-2-4-8-13)17-18(21)14-9-5-6-10-16(14)23-19(17)22/h2-10,15,21H,11H2,1H3
Instrument: Q Exactive Orbitrap (Thermo Scientific)
Instrument type: LC-ESI-QFT
Ms type: MS2
Ion mode: NEGATIVE
Ionization: ESI
Fragmentation mode: HCD
Collision energy: 90
Resolution: 17500
Column name: Acquity BEH C18 1.7um, 2.1x150mm (Waters)
Retention time: 17.443 min
Base peak: 307.0976
Precursor m/z: 307.0976
Precursor type: [M-H]-
Precursor intensity: 82125410.24219
m/z	relative intensity	assigned
57.0346	825	C3H5O-
65.0396	3	C5H5-
83.0138	11	C4H3O2-
89.0398	3	C7H5-
93.0346	69	C6H5O-
95.0138	5	C5H3O2-
101.0397	33	C8H5-
108.0217	4	C6H4O2-
115.0554	9	C9H7-
117.0346	999	C8H5O-
119.0503	6	C8H7O-
135.0452	2	C8H7O2-
141.0711	5	C11H9-
143.0504	5	C10H7O-
145.0295	2	C9H5O2-
145.0662	1	C10H9O-
161.0245	33	C9H5O3-
193.0659	19	C14H9O-
195.0821	3	C14H11O-
205.0658	8	C15H9O-
206.0742	2	C15H10O-
219.0819	4	C16H11O-
221.0615	3	C15H9O2-
249.0557	9	C16H9O3-
250.064	1	C16H10O3-
