Mass spectrum: 2,7-Acetylaminofluorene; LC-ESI-QFT; MS2; CE: 30; R=17500; [M+H]+
Name: 2,7-Acetylaminofluorene
Name: 2,7-Diacetamidofluorene
Name: N-(7-acetamido-9H-fluoren-2-yl)acetamide
Formula: C17H16N2O2
Exact mass: 280.1212
SMILES: CC(=O)NC1=CC=C2C(CC3=C2C=CC(NC(C)=O)=C3)=C1
InChI: InChI=1S/C17H16N2O2/c1-10(20)18-14-3-5-16-12(8-14)7-13-9-15(19-11(2)21)4-6-17(13)16/h3-6,8-9H,7H2,1-2H3,(H,18,20)(H,19,21)
Instrument: Q Exactive Orbitrap (Thermo Scientific)
Instrument type: LC-ESI-QFT
Ms type: MS2
Ion mode: POSITIVE
Ionization: ESI
Fragmentation mode: HCD
Collision energy: 30
Resolution: 17500
Column name: Acquity BEH C18 1.7um, 2.1x150mm (Waters)
Retention time: 14.586 min
Base peak: 79.0211
Precursor m/z: 281.1285
Precursor type: [M+H]+
Precursor intensity: 9283604.125
m/z	relative intensity	assigned
180.0804	5	C13H10N+
181.0883	2	C13H11N+
184.0755	1	C12H10NO+
196.0994	3	C13H12N2+
197.1073	28	C13H13N2+
198.0913	16	C13H12NO+
221.1073	6	C15H13N2+
222.0913	7	C15H12NO+
223.0989	2	C15H13NO+
236.1072	1	C16H14NO+
238.1098	7	C15H14N2O+
239.1178	340	C15H15N2O+
240.1017	29	C15H14NO2+
263.1177	50	C17H15N2O+
281.1282	999	C17H17N2O2+
