Mass spectrum: Dicrotophos; LC-ESI-QFT; MS2; CE: 90; R=17500; [M+H]+
Name: Dicrotophos
Name: [(E)-4-(dimethylamino)-4-oxobut-2-en-2-yl] dimethyl phosphate
Formula: C8H16NO5P
Exact mass: 237.0766
SMILES: COP(=O)(OC)O\C(C)=C\C(=O)N(C)C
InChI: InChI=1S/C8H16NO5P/c1-7(6-8(10)9(2)3)14-15(11,12-4)13-5/h6H,1-5H3/b7-6+
Instrument: Q Exactive Orbitrap (Thermo Scientific)
Instrument type: LC-ESI-QFT
Ms type: MS2
Ion mode: POSITIVE
Ionization: ESI
Fragmentation mode: HCD
Collision energy: 90
Resolution: 17500
Column name: Acquity BEH C18 1.7um, 2.1x150mm (Waters)
Retention time: 11.813 min
Base peak: 79.0212
Precursor m/z: 238.0839
Precursor type: [M+H]+
Precursor intensity: 17192451
m/z	relative intensity	assigned
53.0022	2	C3HO+
53.0386	3	C4H5+
54.0339	3	C3H4N+
55.0179	7	C3H3O+
55.0417	29	C3H5N+
55.0542	2	C4H7+
56.0131	16	C2H2NO+
56.0495	2	C3H6N+
58.0287	6	C2H4NO+
58.0651	6	C3H8N+
67.0178	208	C4H3O+
68.0495	2	C4H6N+
69.0335	6	C4H5O+
70.0652	71	C4H8N+
72.0444	999	C3H6NO+
78.9944	16	CH4O2P+
82.0652	1	C5H8N+
84.0809	9	C5H10N+
110.06	3	C6H8NO+
112.0758	17	C6H10NO+
112.9999	64	CH6O4P+
127.0155	322	C2H8O4P+
