Mass spectrum: Tomelukast; LC-ESI-QFT; MS2; CE: 15; R=17500; [M+H]+
Name: Tomelukast
Name: 1-[2-hydroxy-3-propyl-4-[4-(2H-tetrazol-5-yl)butoxy]phenyl]ethanone
Formula: C16H22N4O3
Exact mass: 318.1692
SMILES: CCCC1=C(OCCCCC2=NN=NN2)C=CC(C(C)=O)=C1O
InChI: InChI=1S/C16H22N4O3/c1-3-6-13-14(9-8-12(11(2)21)16(13)22)23-10-5-4-7-15-17-19-20-18-15/h8-9,22H,3-7,10H2,1-2H3,(H,17,18,19,20)
Instrument: Q Exactive Orbitrap (Thermo Scientific)
Instrument type: LC-ESI-QFT
Ms type: MS2
Ion mode: POSITIVE
Ionization: ESI
Fragmentation mode: HCD
Collision energy: 15
Resolution: 17500
Column name: Acquity BEH C18 1.7um, 2.1x150mm (Waters)
Retention time: 17.693 min
Base peak: 79.0211
Precursor m/z: 319.1765
Precursor type: [M+H]+
Precursor intensity: 8577433.875
m/z	relative intensity	assigned
55.0291	12	C2H3N2+
55.0542	12	C4H7+
80.0496	2	C5H6N+
86.0966	1	C5H12N+
97.0761	47	C5H9N2+
111.0444	2	C6H7O2+
123.044	3	C7H7O2+
125.0822	999	C5H9N4+
137.0598	4	C8H9O2+
151.0753	9	C9H11O2+
153.0546	3	C8H9O3+
153.091	63	C9H13O2+
165.0547	3	C9H9O3+
165.0909	21	C10H13O2+
175.0751	2	C11H11O2+
177.0917	1	C11H13O2+
179.0705	4	C10H11O3+
189.091	2	C12H13O2+
191.1069	1	C12H15O2+
193.0861	26	C11H13O3+
195.1016	251	C11H15O3+
205.1224	4	C13H17O2+
207.1018	56	C12H15O3+
207.138	233	C13H19O2+
218.081	4	C12H12NO3+
220.0968	3	C12H14NO3+
232.0969	5	C13H14NO3+
232.1332	5	C14H18NO2+
233.1169	5	C14H17O3+
247.1332	1	C15H19O3+
274.1439	22	C16H20NO3+
277.1659	615	C14H21N4O2+
291.1706	3	C16H23N2O3+
