Mass spectrum: Dantrolene; LC-ESI-QFT; MS2; CE: 90; R=17500; [M-H]-
Name: Dantrolene
Name: 1-({[5-(4-Nitrophenyl)furan-2-yl]methylidene}amino)imidazolidine-2,4-dione
Name: 1-[[5-(4-nitrophenyl)furan-2-yl]methylideneamino]imidazolidine-2,4-dione
Formula: C14H10N4O5
Exact mass: 314.0651
SMILES: [O-][N+](=O)C1=CC=C(C=C1)C1=CC=C(O1)C=NN1CC(=O)NC1=O
InChI: InChI=1S/C14H10N4O5/c19-13-8-17(14(20)16-13)15-7-11-5-6-12(23-11)9-1-3-10(4-2-9)18(21)22/h1-7H,8H2,(H,16,19,20)
Instrument: Q Exactive Orbitrap (Thermo Scientific)
Instrument type: LC-ESI-QFT
Ms type: MS2
Ion mode: NEGATIVE
Ionization: ESI
Fragmentation mode: HCD
Collision energy: 90
Resolution: 17500
Column name: Acquity BEH C18 1.7um, 2.1x150mm (Waters)
Retention time: 15.460 min
Base peak: 165.0556
Precursor m/z: 313.0578
Precursor type: [M-H]-
Precursor intensity: 10612229.76465
m/z	relative intensity	assigned
63.0241	90	C5H3-
88.0318	50	C7H4-
91.0189	153	C6H3O-
99.0202	24	C3H3N2O2-
113.0398	81	C9H5-
116.0269	443	C8H4O-
122.0247	71	C6H4NO2-
141.0346	75	C10H5O-
146.0248	999	C8H4NO2-
169.0296	30	C11H5O2-
