Mass spectrum: Thiamethoxam; LC-ESI-QFT; MS2; CE: 60; R=17500; [M+H]+
Name: Thiamethoxam
Name: N-[3-[(2-chloro-1,3-thiazol-5-yl)methyl]-5-methyl-1,3,5-oxadiazinan-4-ylidene]nitramide
Formula: C8H10ClN5O3S
Exact mass: 291.0193
SMILES: CN1COCN(CC2=CN=C(Cl)S2)C1=N[N+]([O-])=O
InChI: InChI=1S/C8H10ClN5O3S/c1-12-4-17-5-13(8(12)11-14(15)16)3-6-2-10-7(9)18-6/h2H,3-5H2,1H3
Instrument: Q Exactive Orbitrap (Thermo Scientific)
Instrument type: LC-ESI-QFT
Ms type: MS2
Ion mode: POSITIVE
Ionization: ESI
Fragmentation mode: HCD
Collision energy: 60
Resolution: 17500
Column name: Acquity BEH C18 1.7um, 2.1x150mm (Waters)
Retention time: 11.173 min
Base peak: 79.0212
Precursor m/z: 292.0266
Precursor type: [M+H]+
Precursor intensity: 2482405.1875
m/z	relative intensity	assigned
57.0448	7	C2H5N2+
61.0107	11	C2H5S+
67.0417	16	C4H5N+
69.0447	197	C3H5N2+
70.995	99	C3H3S+
87.995	8	C3H3ClN+
95.0604	11	C5H7N2+
98.0058	12	C4H4NS+
99.0011	40	C3H3N2S+
99.0551	8	C4H7N2O+
108.0556	80	C5H6N3+
112.0215	19	C5H6NS+
113.0168	12	C4H5N2S+
122.0713	185	C6H8N3+
123.0791	46	C6H9N3+
125.0168	66	C5H5N2S+
131.967	999	C4H3ClNS+
138.0122	31	C5H4N3S+
139.0325	27	C6H7N2S+
151.0199	59	C6H5N3S+
152.0277	247	C6H6N3S+
165.0231	9	C6H5N4S+
174.9726	29	C5H4ClN2OS+
179.0386	10	C7H7N4S+
180.0467	15	C7H8N4S+
181.0543	258	C7H9N4S+
199.0644	16	C7H11N4OS+
211.0648	16	C8H11N4OS+
