Mass spectrum: Betamethasone; LC-ESI-QFT; MS2; CE: 30; R=17500; [M+H]+
Name: Betamethasone
Name: (8S,9R,10S,11S,13S,14S,16S,17R)-9-fluoro-11,17-dihydroxy-17-(2-hydroxyacetyl)-10,13,16-trimethyl-6,7,8,11,12,14,15,16-octahydrocyclopenta[a]phenanthren-3-one
Formula: C22H29FO5
Exact mass: 392.1999
SMILES: C[C@H]1C[C@H]2[C@@H]3CCC4=CC(=O)C=C[C@]4(C)[C@@]3(F)[C@@H](O)C[C@]2(C)[C@@]1(O)C(=O)CO
InChI: InChI=1S/C22H29FO5/c1-12-8-16-15-5-4-13-9-14(25)6-7-19(13,2)21(15,23)17(26)10-20(16,3)22(12,28)18(27)11-24/h6-7,9,12,15-17,24,26,28H,4-5,8,10-11H2,1-3H3/t12-,15-,16-,17-,19-,20-,21-,22-/m0/s1
Instrument: Q Exactive Orbitrap (Thermo Scientific)
Instrument type: LC-ESI-QFT
Ms type: MS2
Ion mode: POSITIVE
Ionization: ESI
Fragmentation mode: HCD
Collision energy: 30
Resolution: 17500
Column name: Acquity BEH C18 1.7um, 2.1x150mm (Waters)
Retention time: 16.590 min
Base peak: 79.0212
Precursor m/z: 393.2072
Precursor type: [M+H]+
Precursor intensity: 3262696.3125
m/z	relative intensity	assigned
95.0855	180	C7H11+
105.0335	136	C7H5O+
107.0853	226	C8H11+
109.1012	84	C8H13+
119.0855	110	C9H11+
121.0647	155	C8H9O+
121.1012	172	C9H13+
123.0808	133	C8H11O+
131.0856	83	C10H11+
135.0805	331	C9H11O+
147.0805	875	C10H11O+
149.0962	216	C10H13O+
153.0911	269	C9H13O2+
159.0806	225	C11H11O+
161.0961	206	C11H13O+
171.0807	620	C12H11O+
173.0962	426	C12H13O+
187.0753	153	C12H11O2+
187.1119	108	C13H15O+
197.0966	160	C14H13O+
211.112	226	C15H15O+
215.1067	172	C14H15O2+
223.1126	188	C13H16FO2+
225.1277	111	C16H17O+
235.112	211	C17H15O+
237.1278	501	C17H17O+
249.1275	149	C18H17O+
263.1427	250	C19H19O+
267.138	95	C18H19O2+
277.1588	280	C20H21O+
279.1743	999	C20H23O+
309.1847	128	C21H25O2+
325.179	86	C21H25O3+
337.1798	224	C22H25O3+
393.2096	245	C22H30FO5+
