Mass spectrum: Octrizole; LC-ESI-QFT; MS2; CE: 45; R=17500; [M+H]+
Name: Octrizole
Name: 2-(benzotriazol-2-yl)-4-(2,4,4-trimethylpentan-2-yl)phenol
Formula: C20H25N3O
Exact mass: 323.1998
SMILES: CC(C)(C)CC(C)(C)C1=CC(N2N=C3C=CC=CC3=N2)=C(O)C=C1
InChI: InChI=1S/C20H25N3O/c1-19(2,3)13-20(4,5)14-10-11-18(24)17(12-14)23-21-15-8-6-7-9-16(15)22-23/h6-12,24H,13H2,1-5H3
Instrument: Q Exactive Orbitrap (Thermo Scientific)
Instrument type: LC-ESI-QFT
Ms type: MS2
Ion mode: POSITIVE
Ionization: ESI
Fragmentation mode: HCD
Collision energy: 45
Resolution: 17500
Column name: Acquity BEH C18 1.7um, 2.1x150mm (Waters)
Retention time: 22.623 min
Base peak: 79.0211
Precursor m/z: 324.207
Precursor type: [M+H]+
Precursor intensity: 1045753.960937
m/z	relative intensity	assigned
53.0024	6	C3HO+
55.0542	10	C4H7+
57.0699	999	C4H9+
58.0652	5	C3H8N+
69.0699	8	C5H9+
71.0855	15	C5H11+
92.0495	19	C6H6N+
105.07	7	C8H9+
107.0491	6	C7H7O+
120.0556	41	C6H6N3+
121.0649	15	C8H9O+
129.0699	12	C10H9+
134.0728	12	C9H10O+
135.0802	15	C9H11O+
149.0963	8	C10H13O+
183.0685	7	C12H9NO+
184.0757	16	C12H10NO+
184.2061	11	C12H26N+
209.0958	7	C15H13O+
210.0915	43	C14H12NO+
212.0819	636	C12H10N3O+
224.1071	30	C15H14NO+
225.1148	13	C15H15NO+
238.0976	21	C14H12N3O+
252.1133	21	C15H14N3O+
253.121	91	C15H15N3O+
324.2073	622	C20H26N3O+
