Mass spectrum: Bioresmethrin; LC-ESI-QFT; MS2; CE: 30; R=17500; [M+H]+
Name: Bioresmethrin
Name: (5-benzylfuran-3-yl)methyl (1R,3R)-2,2-dimethyl-3-(2-methylprop-1-enyl)cyclopropane-1-carboxylate
Formula: C22H26O3
Exact mass: 338.1882
SMILES: CC(C)=C[C@@H]1[C@@H](C(=O)OCC2=COC(CC3=CC=CC=C3)=C2)C1(C)C
InChI: InChI=1S/C22H26O3/c1-15(2)10-19-20(22(19,3)4)21(23)25-14-17-12-18(24-13-17)11-16-8-6-5-7-9-16/h5-10,12-13,19-20H,11,14H2,1-4H3/t19-,20+/m1/s1
Instrument: Q Exactive Orbitrap (Thermo Scientific)
Instrument type: LC-ESI-QFT
Ms type: MS2
Ion mode: POSITIVE
Ionization: ESI
Fragmentation mode: HCD
Collision energy: 30
Resolution: 17500
Column name: Acquity BEH C18 1.7um, 2.1x150mm (Waters)
Retention time: 20.626 min
Base peak: 79.0211
Precursor m/z: 339.1955
Precursor type: [M+H]+
Precursor intensity: 1913788.21875
m/z	relative intensity	assigned
67.0538	12	C5H7+
69.0697	34	C5H9+
81.0698	41	C6H9+
83.049	20	C5H7O+
91.0543	637	C7H7+
93.0698	24	C7H9+
95.0492	23	C6H7O+
95.0856	82	C7H11+
105.0335	37	C7H5O+
105.07	29	C8H9+
107.0855	44	C8H11+
109.065	20	C7H9O+
111.0442	12	C6H7O2+
115.0541	18	C9H7+
117.0699	57	C9H9+
119.0855	36	C9H11+
121.0649	39	C8H9O+
121.1013	271	C9H13+
123.1167	68	C9H15+
125.0598	42	C7H9O2+
128.062	22	C10H8+
129.0698	15	C10H9+
131.0854	18	C10H11+
133.101	25	C10H13+
135.0806	23	C9H11O+
135.1169	82	C10H15+
139.112	59	C9H15O+
141.07	14	C11H9+
141.0909	47	C8H13O2+
143.0856	375	C11H11+
147.0803	20	C10H11O+
149.0962	151	C10H13O+
155.0856	17	C12H11+
157.1014	19	C12H13+
159.0804	17	C11H11O+
159.117	67	C12H15+
161.0961	25	C11H13O+
161.1325	23	C12H17+
167.1067	76	C10H15O2+
171.0805	999	C12H11O+
173.096	17	C12H13O+
173.1325	38	C13H17+
175.1483	81	C13H19+
181.1221	17	C11H17O2+
185.096	46	C13H13O+
187.1125	15	C13H15O+
197.1325	52	C15H17+
199.1118	100	C14H15O+
203.1433	76	C14H19O+
205.1227	31	C13H17O2+
209.1327	21	C16H17+
219.1167	17	C17H15+
225.1276	128	C16H17O+
226.1355	24	C16H18O+
237.1275	50	C17H17O+
239.1432	72	C17H19O+
247.1327	40	C15H19O3+
251.1435	59	C18H19O+
253.1231	18	C17H17O2+
275.1786	20	C21H23+
283.1329	19	C18H19O3+
293.1903	209	C21H25O+
321.1847	59	C22H25O2+
339.1949	129	C22H27O3+
