Mass spectrum: Prodiamine; LC-ESI-QFT; MS2; CE: 45; R=17500; [M-H]-
Name: Prodiamine
Name: 2,4-dinitro-3-N,3-N-dipropyl-6-(trifluoromethyl)benzene-1,3-diamine
Formula: C13H17F3N4O4
Exact mass: 350.1202
SMILES: CCCN(CCC)C1=C(C(N)=C(C=C1[N+]([O-])=O)C(F)(F)F)[N+]([O-])=O
InChI: InChI=1S/C13H17F3N4O4/c1-3-5-18(6-4-2)11-9(19(21)22)7-8(13(14,15)16)10(17)12(11)20(23)24/h7H,3-6,17H2,1-2H3
Instrument: Q Exactive Orbitrap (Thermo Scientific)
Instrument type: LC-ESI-QFT
Ms type: MS2
Ion mode: NEGATIVE
Ionization: ESI
Fragmentation mode: HCD
Collision energy: 45
Resolution: 17500
Column name: Acquity BEH C18 1.7um, 2.1x150mm (Waters)
Retention time: 19.704 min
Base peak: 349.1128
Precursor m/z: 349.1129
Precursor type: [M-H]-
Precursor intensity: 68236776.44141
m/z	relative intensity	assigned
57.9934	12	CNO2-
64.0067	40	C3N2-
65.0145	45	C3HN2-
65.9985	180	C3NO-
68.0142	4	C3H2NO-
68.9957	20	CF3-
70.9939	6	C3FO-
73.0295	32	C3H5O2-
74.0036	8	C5N-
76.0067	6	C4N2-
77.0145	6	C4HN2-
79.9904	6	C4O2-
84.9968	10	C3FNO-
86.9887	7	C3FO2-
88.0004	226	C3F2N-
88.0066	88	C5N2-
89.0144	26	C5HN2-
89.9986	16	C5NO-
90.0098	17	C4N3-
92.0253	5	C4H2N3-
92.9959	7	C3F3-
93.0095	8	C4HN2O-
94.0047	6	C3N3O-
94.01	4	C5HFN-
95.005	30	C4FN2-
100.0005	27	C4F2N-
101.0146	17	C6HN2-
102.0098	10	C5N3-
103.9954	81	C3F2NO-
104.0015	8	C5N2O-
104.0504	4	C2H5FN4-
106.0172	7	C5H2N2O-
106.9989	9	C3F3N-
107.0051	22	C5FN2-
108.0067	15	C3HF3N-
108.0217	13	C6H4O2-
108.9907	44	C3F3O-
108.9969	35	C5FNO-
109.0208	7	C5H2FN2-
111	47	C4FN2O-
112.0004	64	C5F2N-
113.9996	5	C4HFNO2-
114.0098	32	C6N3-
115.0176	21	C6HN3-
115.0301	3	C7H3N2-
116.0252	19	C6H2N3-
117.0096	9	C6HN2O-
117.0206	12	C5HN4-
117.0459	9	C7H5N2-
118.0413	4	C6H4N3-
119.0052	21	C6FN2-
119.0251	90	C6H3N2O-
120.0065	21	C4HF3N-
120.0202	4	C5H2N3O-
121.0084	8	C10H-
121.0205	4	C6H2FN2-
122.0046	6	CF2N4O-
122.9998	5	C5FN2O-
124.0078	10	C8N2-
126.0036	32	C5F2N2-
126.0098	22	C7N3-
127.0114	36	C5HF2N2-
127.0176	34	C7HN3-
127.9953	14	C5F2NO-
128.0255	4	C7H2N3-
128.038	7	C8H4N2-
129.0036	4	C5HF2NO-
129.0095	4	C7HN2O-
129.0329	4	C7H3N3-
129.046	18	C8H5N2-
130.0284	5	C6H2N4-
130.9987	36	C5F3N-
131.0123	7	C6HN3O-
132.0069	7	C5HF3N-
132.0203	7	C6H2N3O-
133.002	60	C4F3N2-
133.008	8	C6FN3-
133.0209	14	C7H2FN2-
133.041	5	C7H5N2O-
134.0048	5	C7HFNO-
134.0161	110	C11H2-
134.9999	26	C6FN2O-
136.0016	99	C4HF3NO-
136.0077	11	C6HFN2O-
136.0205	23	C7H3FNO-
137.0158	16	C6H2FN2O-
138.9948	5	C5FN2O2-
139.0113	29	C6HF2N2-
139.9954	4	C6F2NO-
140.0253	5	C8H2N3-
141.0206	8	C7HN4-
141.0458	12	C9H5N2-
142.041	14	C8H4N3-
143.0363	15	C7H3N4-
143.0485	5	C8H5N3-
143.0613	11	C9H7N2-
144.0066	38	C6HF3N-
144.0204	18	C7H2N3O-
144.0568	14	C8H6N3-
145.0019	137	C5F3N2-
145.052	22	C7H5N4-
146.0097	77	C5HF3N2-
146.016	27	C7HFN3-
146.994	8	C5F3NO-
147.0003	6	C7FN2O-
147.024	37	C12H3-
148.0018	5	C5HF3NO-
148.008	14	C7HFN2O-
149.003	21	C6FN3O-
149.0092	7	C5H2F3NO-
150.0359	4	C3H4F2N4O-
151.0114	16	C7HF2N2-
151.0441	25	C8H6FNO-
152.013	6	C8N4-
152.0254	3	C9H2N3-
153.0332	3	C9H3N3-
154.0286	5	C8H2N4-
154.041	5	C9H4N3-
155.006	9	C6HF2N2O-
155.0125	26	C8HN3O-
155.0488	10	C9H5N3-
156.0077	4	C7N4O-
156.0201	9	C8H2N3O-
156.0266	22	C7H4F2NO-
156.033	7	C9H4N2O-
156.0568	24	C9H6N3-
157.0019	244	C6F3N2-
158.0096	13	C6HF3N2-
158.016	13	C8HFN3-
158.0355	4	C8H4N3O-
159.011	13	C7FN4-
159.0176	102	C6H2F3N2-
159.0365	8	C9H4FN2-
160.0016	90	C6HF3NO-
160.0317	27	C8H3FN3-
160.9969	55	C5F3N2O-
161.0158	7	C8H2FN2O-
161.0525	6	C9H6FN2-
162.0108	42	C7HFN3O-
162.0173	4	C6H3F3NO-
162.08	18	C9H10N2O-
163.0127	5	C5H2F3N2O-
164.0062	5	C7F2N3-
164.0263	6	C7H3FN3O-
165.0107	12	C7H2FN2O2-
166.0226	16	C12H3F-
166.041	26	C10H4N3-
167.006	10	C7HF2N2O-
167.0364	11	C9H3N4-
168.0132	6	C10HFN2-
168.0204	14	C9H2N3O-
168.0565	8	C10H6N3-
169.0017	12	C7F3N2-
169.0219	5	C7H3F2N2O-
169.0407	9	C10H5N2O-
169.0518	13	C9H5N4-
170.0101	28	C7HF3N2-
171.0176	35	C7H2F3N2-
172.0016	7	C7HF3NO-
172.0517	6	C9H6N3O-
173.0206	19	C6H2F3N3-
173.039	6	C9H4FN3-
174.0045	28	C6HF3N2O-
174.0474	22	C9H5FN3-
175.0121	11	C6H2F3N2O-
175.0194	35	C13H3O-
175.0313	8	C9H4FN2O-
175.0551	7	C9H6FN3-
176.0201	9	C6H3F3N2O-
176.0274	24	C5H4F2N3O2-
176.0391	8	C9H5FN2O-
177.0472	24	C9H6FN2O-
178.0221	40	C8H2F2N3-
180.0016	10	C7F2N3O-
181.0218	11	C8H3F2N2O-
182.0171	8	C7H2F2N3O-
182.0362	28	C10H4N3O-
183.0441	7	C10H5N3O-
184.0129	60	C7HF3N3-
184.0319	6	C10H3FN3-
184.0514	60	C10H6N3O-
184.9968	137	C7F3N2O-
186.0476	19	C10H5FN3-
187.0127	50	C7H2F3N2O-
187.0551	5	C10H6FN3-
187.9963	10	C7HF3NO2-
188.0078	35	C6HF3N3O-
188.0267	55	C9H3FN3O-
188.0629	33	C10H7FN3-
189.0152	8	C6H2F3N3O-
189.047	20	C10H6FN2O-
190.0208	5	C3H5F3N2O4-
191.0074	15	C6H2F3N2O2-
191.0296	4	C9H3F2N3-
194.0171	17	C8H2F2N3O-
196.0327	21	C8H4F2N3O-
197.0173	10	C5H4F3N2O3-
199.0365	42	C13H5F2-
199.0488	39	C9H6F3N2-
200.0074	15	C7HF3N3O-
201.0155	13	C7H2F3N3O-
201.0644	36	C9H8F3N2-
201.9995	84	C7HF3N2O2-
202.0231	5	C7H3F3N3O-
202.0419	31	C10H5FN3O-
203.0504	17	C10H6FN3O-
204.0026	46	C6HF3N3O2-
204.0579	42	C10H7FN3O-
205.0245	28	C12H4F3-
206.0536	55	C10H6F2N3-
208.0328	19	C9H4F2N3O-
208.0688	3	C10H8F2N3-
208.0881	7	C13H10N3-
209.0286	5	C13H4FNO-
210.0281	39	C9H3F3N3-
211.0235	12	C8H2F3N4-
212.0278	25	C13H5FO2-
212.0435	19	C9H5F3N3-
213.0277	3	C9H4F3N2O-
213.0647	6	C10H8F3N2-
214.0234	110	C8H3F3N3O-
215.031	95	C8H4F3N3O-
215.0421	5	C12H5F2N2-
216.1142	344	C12H14N3O-
217.0105	20	C7H2F3N3O2-
217.0228	24	C8H4F3N2O2-
217.0531	4	C10H6FN4O-
217.9944	57	C7HF3N2O3-
218.0179	71	C7H3F3N3O2-
219.026	5	C7H4F3N3O2-
220.0098	9	C7H3F3N2O3-
222.0484	26	C10H6F2N3O-
223.0568	4	C10H7F2N3O-
224.0441	6	C10H5F3N3-
224.0642	24	C10H8F2N3O-
225.0232	46	C13H4FNO2-
225.0515	8	C10H6F3N3-
226.0431	5	C9H6F2N3O2-
226.06	22	C10H7F3N3-
228.0263	18	C8H3F3N4O-
228.0391	28	C9H5F3N3O-
228.0944	5	C13H11FN3-
229.0343	9	C8H4F3N4O-
230.0032	19	C12H3FO4-
230.0175	28	C11H2F2N3O-
230.0544	7	C9H7F3N3O-
231.0135	74	C7H2F3N4O2-
231.0273	4	C13H4F3N-
231.0326	5	C13H4F3N-
231.0753	11	C10H10F3N2O-
231.9975	999	C7HF3N3O3-
233.0483	35	C10H6FN4O2-
235.0216	6	C12H5F2O3-
235.0435	11	C10H5F2N4O-
237.0394	45	C10H4F3N4-
238.0462	15	C9H9F3O4-
238.0594	6	C11H7F3N3-
239.0549	29	C10H6F3N4-
240.0391	59	C10H5F3N3O-
240.0616	8	C9H11F3O4-
240.0754	12	C11H9F3N3-
241.034	10	C9H4F3N4O-
241.047	8	C10H6F3N3O-
242.0549	82	C10H7F3N3O-
243.0132	6	C8H2F3N4O2-
243.062	4	C10H8F3N3O-
244.021	19	C8H3F3N4O2-
244.0339	34	C9H5F3N3O2-
244.0703	78	C10H9F3N3O-
245.0292	31	C8H4F3N4O2-
246.086	15	C10H11F3N3O-
249.0001	26	C7H2F3N3O4-
250.0081	33	C7H3F3N3O4-
251.0387	13	C10H5F2N4O2-
253.0544	9	C10H7F2N4O2-
253.0835	9	C12H10F3N3-
255.0499	58	C10H6F3N4O-
256.0579	32	C10H7F3N4O-
257.0652	6	C10H8F3N4O-
258.0502	9	C10H7F3N3O2-
259.1062	162	C12H14F3N2O-
260.0655	21	C10H9F3N3O2-
266.1109	135	C13H14F2N3O-
268.1071	13	C13H13F3N3-
270.0375	15	C10H5F3N4O2-
271.0447	35	C10H6F3N4O2-
272.052	18	C13H6F2N4O-
273.0597	4	C13H7F2N4O-
285.0602	8	C11H8F3N4O2-
286.1173	88	C13H15F3N3O-
287.0762	9	C11H10F3N4O2-
288.0482	5	C10H7F3N4O3-
289.0554	30	C10H8F3N4O3-
289.1173	16	C13H16F3N2O2-
302.1121	65	C13H15F3N3O2-
306.1073	46	C12H15F3N3O3-
313.0919	5	C13H12F3N4O2-
349.1128	287	C13H16F3N4O4-
