Mass spectrum: CI-1018; LC-ESI-QFT; MS2; CE: 45; R=17500; [M+H]+
Name: CI-1018
Name: N-[(11R)-6-methyl-12-oxo-9-phenyl-1,10-diazatricyclo[6.4.1.04,13]trideca-4(13),5,7,9-tetraen-11-yl]pyridine-4-carboxamide
Formula: C24H20N4O2
Exact mass: 396.1586
SMILES: CC1=CC2=C3N(CC2)C(=O)[C@H](NC(=O)C2=CC=NC=C2)N=C(C2=CC=CC=C2)C3=C1
InChI: InChI=1S/C24H20N4O2/c1-15-13-18-9-12-28-21(18)19(14-15)20(16-5-3-2-4-6-16)26-22(24(28)30)27-23(29)17-7-10-25-11-8-17/h2-8,10-11,13-14,22H,9,12H2,1H3,(H,27,29)/t22-/m0/s1
Instrument: Q Exactive Orbitrap (Thermo Scientific)
Instrument type: LC-ESI-QFT
Ms type: MS2
Ion mode: POSITIVE
Ionization: ESI
Fragmentation mode: HCD
Collision energy: 45
Resolution: 17500
Column name: Acquity BEH C18 1.7um, 2.1x150mm (Waters)
Retention time: 17.174 min
Base peak: 79.0212
Precursor m/z: 397.1659
Precursor type: [M+H]+
Precursor intensity: 20629844.25
m/z	relative intensity	assigned
78.0338	2	C5H4N+
80.0494	2	C5H6N+
105.0447	1	C6H5N2+
106.0287	8	C6H4NO+
123.0552	12	C6H7N2O+
144.0808	10	C10H10N+
159.0917	1	C10H11N2+
162.0911	1	C10H12NO+
168.0807	2	C12H10N+
172.0756	15	C11H10NO+
183.0554	1	C11H7N2O+
186.1026	1	C11H12N3+
211.0866	1	C13H11N2O+
232.0991	1	C16H12N2+
247.1228	999	C17H15N2+
257.1075	2	C18H13N2+
260.0941	4	C17H12N2O+
262.1327	1	C17H16N3+
263.1176	2	C17H15N2O+
274.1099	2	C18H14N2O+
274.135	1	C20H18O+
275.1177	244	C18H15N2O+
290.1283	3	C18H16N3O+
369.1712	3	C23H21N4O+
379.1554	2	C24H19N4O+
