Mass spectrum: 4-[3-(4-Acetyl-3-hydroxy-2-propylphenoxy)propoxy]phenoxy-acetic acid; LC-ESI-QFT; MS2; CE: 60; R=17500; [M-H]-
Name: 4-[3-(4-Acetyl-3-hydroxy-2-propylphenoxy)propoxy]phenoxy-acetic acid
Name: 2-(4-(3-(4-Acetyl-3-hydroxy-2-propylphenoxy)propoxy)phenoxy)acetic acid
Name: 2-[4-[3-(4-acetyl-3-hydroxy-2-propylphenoxy)propoxy]phenoxy]acetic acid
Formula: C22H26O7
Exact mass: 402.1679
SMILES: CCCC1=C(OCCCOC2=CC=C(OCC(O)=O)C=C2)C=CC(C(C)=O)=C1O
InChI: InChI=1S/C22H26O7/c1-3-5-19-20(11-10-18(15(2)23)22(19)26)28-13-4-12-27-16-6-8-17(9-7-16)29-14-21(24)25/h6-11,26H,3-5,12-14H2,1-2H3,(H,24,25)
Instrument: Q Exactive Orbitrap (Thermo Scientific)
Instrument type: LC-ESI-QFT
Ms type: MS2
Ion mode: NEGATIVE
Ionization: ESI
Fragmentation mode: HCD
Collision energy: 60
Resolution: 17500
Column name: Acquity BEH C18 1.7um, 2.1x150mm (Waters)
Retention time: 19.176 min
Base peak: 401.1605
Precursor m/z: 401.1606
Precursor type: [M-H]-
Precursor intensity: 16650921.64258
m/z	relative intensity	assigned
81.0346	1	C5H5O-
85.0297	2	C4H5O2-
91.0553	1	C7H7-
93.0345	2	C6H5O-
95.0138	2	C5H3O2-
95.0502	1	C6H7O-
107.0868	9	C8H11-
108.0217	999	C6H4O2-
109.0294	24	C6H5O2-
119.0867	1	C9H11-
120.0581	1	C8H8O-
121.0295	23	C7H5O2-
122.0373	37	C7H6O2-
123.0087	1	C6H3O3-
123.0452	6	C7H7O2-
133.0659	19	C9H9O-
135.0451	6	C8H7O2-
136.0529	4	C8H8O2-
149.0609	1	C9H9O2-
149.0971	28	C10H13O-
151.0403	2	C8H7O3-
151.0764	53	C9H11O2-
161.0246	2	C9H5O3-
161.097	3	C11H13O-
163.0401	165	C9H7O3-
164.0479	20	C9H8O3-
175.0764	5	C11H11O2-
176.0482	1	C10H8O3-
177.0557	116	C10H9O3-
189.0559	1	C11H9O3-
191.0714	19	C11H11O3-
192.079	1	C11H12O3-
193.0869	229	C11H13O3-
195.0662	9	C10H11O4-
196.0377	3	C9H8O5-
205.087	28	C12H13O3-
208.038	1	C10H8O5-
233.1184	3	C14H17O3-
