Mass spectrum: Colchicine; LC-ESI-QFT; MS2; CE: 15; R=17500; [M+H]+
Name: Colchicine
Name: N-[(7S)-1,2,3,10-tetramethoxy-9-oxo-6,7-dihydro-5H-benzo[a]heptalen-7-yl]acetamide
Formula: C22H25NO6
Exact mass: 399.1682
SMILES: COC1=CC2=C(C(OC)=C1OC)C1=CC=C(OC)C(=O)C=C1[C@H](CC2)NC(C)=O
InChI: InChI=1S/C22H25NO6/c1-12(24)23-16-8-6-13-10-19(27-3)21(28-4)22(29-5)20(13)14-7-9-18(26-2)17(25)11-15(14)16/h7,9-11,16H,6,8H2,1-5H3,(H,23,24)/t16-/m0/s1
Instrument: Q Exactive Orbitrap (Thermo Scientific)
Instrument type: LC-ESI-QFT
Ms type: MS2
Ion mode: POSITIVE
Ionization: ESI
Fragmentation mode: HCD
Collision energy: 15
Resolution: 17500
Column name: Acquity BEH C18 1.7um, 2.1x150mm (Waters)
Retention time: 14.647 min
Base peak: 79.0211
Precursor m/z: 400.1755
Precursor type: [M+H]+
Precursor intensity: 11866375
m/z	relative intensity	assigned
310.1208	1	C19H18O4+
313.1442	1	C19H21O4+
326.1379	1	C19H20NO4+
341.1388	3	C20H21O5+
358.1648	5	C20H24NO5+
368.1493	1	C21H22NO5+
382.165	4	C22H24NO5+
385.1517	1	C21H23NO6+
400.1756	999	C22H26NO6+
