Mass spectrum: Oxyphenisatin; LC-ESI-QFT; MS2; CE: 90; R=17500; [M+H]+
Name: Oxyphenisatin
Name: Oxyphenisatine
Name: 3,3-bis(4-hydroxyphenyl)-1H-indol-2-one
Formula: C20H15NO3
Exact mass: 317.1052
SMILES: OC1=CC=C(C=C1)C1(C(=O)NC2=CC=CC=C12)C1=CC=C(O)C=C1
InChI: InChI=1S/C20H15NO3/c22-15-9-5-13(6-10-15)20(14-7-11-16(23)12-8-14)17-3-1-2-4-18(17)21-19(20)24/h1-12,22-23H,(H,21,24)
Instrument: Q Exactive Orbitrap (Thermo Scientific)
Instrument type: LC-ESI-QFT
Ms type: MS2
Ion mode: POSITIVE
Ionization: ESI
Fragmentation mode: HCD
Collision energy: 90
Resolution: 17500
Column name: Acquity BEH C18 1.7um, 2.1x150mm (Waters)
Retention time: 15.339 min
Base peak: 79.0211
Precursor m/z: 318.1125
Precursor type: [M+H]+
Precursor intensity: 3871368.75
m/z	relative intensity	assigned
53.0386	10	C4H5+
55.0178	20	C3H3O+
65.0385	25	C5H5+
68.9971	50	C3HO2+
79.0177	10	C5H3O+
91.0541	10	C7H7+
95.0491	20	C6H7O+
105.0338	4	C7H5O+
115.0542	217	C9H7+
121.0283	5	C7H5O2+
128.062	21	C10H8+
129.0698	7	C10H9+
130.0286	7	C8H4NO+
130.04	6	C9H6O+
130.0653	27	C9H8N+
140.0495	10	C10H6N+
140.062	12	C11H8+
141.0699	410	C11H9+
142.0649	20	C10H8N+
144.0445	11	C9H6NO+
145.0647	13	C10H9O+
151.0544	27	C12H7+
152.0621	77	C12H8+
153.0574	50	C11H7N+
153.0699	16	C12H9+
154.0652	62	C11H8N+
155.0491	15	C11H7O+
155.0728	27	C11H9N+
159.0805	8	C11H11O+
166.0654	43	C12H8N+
167.073	999	C12H9N+
168.0808	401	C12H10N+
169.0648	498	C12H9O+
170.0599	30	C11H8NO+
177.0573	122	C13H7N+
178.0651	118	C13H8N+
179.0728	23	C13H9N+
180.0563	8	C13H8O+
180.0809	24	C13H10N+
181.0648	10	C13H9O+
181.0841	9	C10H13O3+
183.0689	5	C12H9NO+
184.0519	10	C12H8O2+
194.0601	17	C13H8NO+
194.097	17	C14H12N+
195.0679	37	C13H9NO+
195.0995	19	C11H15O3+
196.0758	467	C13H10NO+
197.0597	105	C13H9O2+
206.0599	9	C14H8NO+
207.0677	47	C14H9NO+
209.0839	7	C14H11NO+
210.1102	24	C11H16NO3+
211.0627	5	C13H9NO2+
223.0629	71	C14H9NO2+
224.0707	24	C14H10NO2+
227.0576	8	C13H9NO3+
228.0414	22	C16H6NO+
