Mass spectrum: Carboxin; LC-ESI-QFT; MS2; CE: 90; R=17500; [M+H]+
Name: Carboxin
Name: 6-methyl-N-phenyl-2,3-dihydro-1,4-oxathiine-5-carboxamide
Formula: C12H13NO2S
Exact mass: 235.0667
SMILES: CC1=C(SCCO1)C(=O)NC1=CC=CC=C1
InChI: InChI=1S/C12H13NO2S/c1-9-11(16-8-7-15-9)12(14)13-10-5-3-2-4-6-10/h2-6H,7-8H2,1H3,(H,13,14)
Instrument: Q Exactive Orbitrap (Thermo Scientific)
Instrument type: LC-ESI-QFT
Ms type: MS2
Ion mode: POSITIVE
Ionization: ESI
Fragmentation mode: HCD
Collision energy: 90
Resolution: 17500
Column name: Acquity BEH C18 1.7um, 2.1x150mm (Waters)
Retention time: 15.686 min
Base peak: 79.0211
Precursor m/z: 236.074
Precursor type: [M+H]+
Precursor intensity: 10530046.0625
m/z	relative intensity	assigned
53.0386	17	C4H5+
55.0178	2	C3H3O+
55.0543	3	C4H7+
58.995	66	C2H3S+
61.0107	12	C2H5S+
61.0284	8	C2H5O2+
65.0385	17	C5H5+
66.0464	46	C5H6+
70.995	2	C3H3S+
73.0106	19	C3H5S+
75.044	7	C3H7O2+
77.0385	6	C6H5+
80.0495	104	C5H6N+
86.99	20	C3H3OS+
89.0057	7	C3H5OS+
91.0542	5	C7H7+
92.0495	48	C6H6N+
93.0574	999	C6H7N+
94.0652	22	C6H8N+
95.0492	42	C6H7O+
97.0107	7	C5H5S+
99.0265	9	C5H7S+
104.0495	53	C7H6N+
106.0653	3	C7H8N+
109.0107	11	C6H5S+
115.0213	2	C5H7OS+
118.0651	5	C8H8N+
120.0443	6	C7H6NO+
121.0109	1	C7H5S+
124.0216	107	C6H6NS+
128.0494	20	C9H6N+
130.065	3	C9H8N+
132.0445	76	C8H6NO+
136.0217	3	C7H6NS+
138.0374	2	C7H8NS+
143.0162	83	C6H7O2S+
146.0601	15	C9H8NO+
148.0215	6	C8H6NS+
162.0371	8	C9H8NS+
165.0246	3	C8H7NOS+
166.0325	3	C8H8NOS+
