Mass spectrum: Trifloxystrobin; LC-ESI-QFT; MS2; CE: 15; R=17500; [M+H]+
Name: Trifloxystrobin
Name: methyl 2-methoxyimino-2-[2-[[1-[3-(trifluoromethyl)phenyl]ethylideneamino]oxymethyl]phenyl]acetate
Formula: C20H19F3N2O4
Exact mass: 408.1297
SMILES: CON=C(C(=O)OC)C1=CC=CC=C1CON=C(C)C1=CC(=CC=C1)C(F)(F)F
InChI: InChI=1S/C20H19F3N2O4/c1-13(14-8-6-9-16(11-14)20(21,22)23)24-29-12-15-7-4-5-10-17(15)18(25-28-3)19(26)27-2/h4-11H,12H2,1-3H3
Instrument: Q Exactive Orbitrap (Thermo Scientific)
Instrument type: LC-ESI-QFT
Ms type: MS2
Ion mode: POSITIVE
Ionization: ESI
Fragmentation mode: HCD
Collision energy: 15
Resolution: 17500
Column name: Acquity BEH C18 1.7um, 2.1x150mm (Waters)
Retention time: 18.993 min
Base peak: 79.0211
Precursor m/z: 409.137
Precursor type: [M+H]+
Precursor intensity: 24073245.5
m/z	relative intensity	assigned
105.0699	6	C8H9+
116.0495	125	C8H6N+
117.0576	2	C8H7N+
118.0651	1	C8H8N+
119.049	1	C8H7O+
130.0651	1	C9H8N+
131.0729	43	C9H9N+
132.0808	67	C9H10N+
134.06	30	C8H8NO+
145.0254	4	C7H4F3+
146.0601	11	C9H8NO+
147.0678	2	C9H9NO+
148.0758	6	C9H10NO+
162.0913	36	C10H12NO+
186.0525	999	C9H7F3N+
192.0649	2	C10H10NO3+
200.0679	1	C10H9F3N+
206.0811	551	C11H12NO3+
