Mass spectrum: SSR69071; LC-ESI-QFT; MS2; CE: 60; R=17500; [M+H]+
Name: SSR69071
Name: 6-methoxy-1,1-dioxo-2-[[4-oxo-9-(2-piperidin-1-ylethoxy)pyrido[1,2-a]pyrimidin-2-yl]oxymethyl]-4-propan-2-yl-1,2-benzothiazol-3-one
Formula: C27H32N4O7S
Exact mass: 556.1992
SMILES: COC1=CC2=C(C(=O)N(COC3=CC(=O)N4C=CC=C(OCCN5CCCCC5)C4=N3)S2(=O)=O)C(=C1)C(C)C
InChI: InChI=1S/C27H32N4O7S/c1-18(2)20-14-19(36-3)15-22-25(20)27(33)31(39(22,34)35)17-38-23-16-24(32)30-11-7-8-21(26(30)28-23)37-13-12-29-9-5-4-6-10-29/h7-8,11,14-16,18H,4-6,9-10,12-13,17H2,1-3H3
Instrument: Q Exactive Orbitrap (Thermo Scientific)
Instrument type: LC-ESI-QFT
Ms type: MS2
Ion mode: POSITIVE
Ionization: ESI
Fragmentation mode: HCD
Collision energy: 60
Resolution: 17500
Column name: Acquity BEH C18 1.7um, 2.1x150mm (Waters)
Retention time: 15.597 min
Base peak: 79.0211
Precursor m/z: 557.2064
Precursor type: [M+H]+
Precursor intensity: 3566600.125
m/z	relative intensity	assigned
53.0023	2	C3HO+
55.0542	12	C4H7+
56.0495	28	C3H6N+
58.0651	14	C3H8N+
67.0542	2	C5H7+
69.0699	54	C5H9+
70.065	2	C4H8N+
74.0964	2	C4H12N+
79.0543	1	C6H7+
81.0699	2	C6H9+
83.0855	2	C6H11+
84.0808	35	C5H10N+
91.0543	9	C7H7+
93.07	1	C7H9+
97.0886	1	C6H11N+
105.07	2	C8H9+
107.0492	1	C7H7O+
109.065	1	C7H9O+
110.0965	7	C7H12N+
112.1121	999	C7H14N+
115.0542	6	C9H7+
116.0622	1	C9H8+
117.07	3	C9H9+
121.0648	3	C8H9O+
132.0571	5	C9H8O+
133.0648	12	C9H9O+
138.0135	1	C7H6OS+
143.0489	1	C10H7O+
144.0571	1	C10H8O+
145.065	1	C10H9O+
146.0602	2	C9H8NO+
147.0804	13	C10H11O+
148.0882	1	C10H12O+
149.0598	9	C9H9O2+
149.0708	5	C8H9N2O+
150.0136	2	C8H6OS+
153.037	8	C8H9OS+
159.0804	3	C11H11O+
160.0758	2	C10H10NO+
161.0598	14	C10H9O2+
161.0835	5	C10H11NO+
162.0676	4	C10H10O2+
163.0629	1	C9H9NO2+
165.037	15	C9H9OS+
175.0754	7	C11H11O2+
176.0834	3	C11H12O2+
176.107	4	C11H14NO+
177.0369	1	C10H9OS+
177.0912	1	C11H13O2+
189.0785	9	C11H11NO2+
193.0319	8	C10H9O2S+
195.0114	1	C9H7O3S+
195.0474	3	C10H11O2S+
208.0733	1	C11H12O4+
211.0424	1	C10H11O3S+
217.0609	9	C11H9N2O3+
221.0683	21	C11H11NO4+
239.0372	4	C11H11O4S+
268.0638	3	C12H14NO4S+
