Mass spectrum: Tebuthiuron; LC-ESI-QFT; MS2; CE: 75; R=17500; [M+H]+
Name: Tebuthiuron
Name: 1-(5-tert-butyl-1,3,4-thiadiazol-2-yl)-1,3-dimethylurea
Formula: C9H16N4OS
Exact mass: 228.1045
SMILES: CNC(=O)N(C)C1=NN=C(S1)C(C)(C)C
InChI: InChI=1S/C9H16N4OS/c1-9(2,3)6-11-12-8(15-6)13(5)7(14)10-4/h1-5H3,(H,10,14)
Instrument: Q Exactive Orbitrap (Thermo Scientific)
Instrument type: LC-ESI-QFT
Ms type: MS2
Ion mode: POSITIVE
Ionization: ESI
Fragmentation mode: HCD
Collision energy: 75
Resolution: 17500
Column name: Acquity BEH C18 1.7um, 2.1x150mm (Waters)
Retention time: 15.522 min
Base peak: 79.0211
Precursor m/z: 229.1118
Precursor type: [M+H]+
Precursor intensity: 19967669.375
m/z	relative intensity	assigned
53.0022	2	C3HO+
54.0338	1	C3H4N+
55.029	1	C2H3N2+
55.0542	4	C4H7+
56.0495	7	C3H6N+
57.0447	200	C2H5N2+
57.0699	155	C4H9+
58.0288	6	C2H4NO+
58.0651	2	C3H8N+
58.995	15	C2H3S+
59.9902	12	CH2NS+
61.0106	3	C2H5S+
62.0059	308	CH4NS+
65.0385	4	C5H5+
67.0542	5	C5H7+
69.0699	9	C5H9+
70.0651	1	C4H8N+
71.0604	2	C3H7N2+
72.0808	4	C4H10N+
72.9979	2	C2H3NS+
73.0106	2	C3H5S+
74.0058	284	C2H4NS+
75.0012	8	CH3N2S+
75.0262	1	C3H7S+
82.0399	2	C3H4N3+
82.0652	4	C5H8N+
83.0729	2	C5H9N+
84.0808	8	C5H10N+
84.9855	5	C2HN2S+
87.0262	1	C4H7S+
88.0215	20	C3H6NS+
89.0168	224	C2H5N2S+
99.0263	3	C5H7S+
99.0917	2	C5H11N2+
100.0215	2	C4H6NS+
101.0295	1	C4H7NS+
101.042	30	C5H9S+
108.0682	1	C6H8N2+
116.0277	999	C3H6N3S+
124.0869	2	C6H10N3+
129.0355	6	C4H7N3S+
131.0636	1	C5H11N2S+
141.0481	12	C6H9N2S+
142.0434	69	C5H8N3S+
156.059	44	C6H10N3S+
157.0669	226	C6H11N3S+
170.0748	1	C7H12N3S+
172.0902	354	C7H14N3S+
