Mass spectrum: Spirotetramat; LC-ESI-QFT; MS2; CE: 75; R=17500; [M+H]+
Name: Spirotetramat
Formula: C21H27NO5
Exact mass: 373.1889
SMILES: CCOC(=O)OC1=C(C(=O)N[C@@]11CC[C@@H](CC1)OC)C1=C(C)C=CC(C)=C1
InChI: InChI=1S/C21H27NO5/c1-5-26-20(24)27-18-17(16-12-13(2)6-7-14(16)3)19(23)22-21(18)10-8-15(25-4)9-11-21/h6-7,12,15H,5,8-11H2,1-4H3,(H,22,23)/t15-,21+
Instrument: Q Exactive Orbitrap (Thermo Scientific)
Instrument type: LC-ESI-QFT
Ms type: MS2
Ion mode: POSITIVE
Ionization: ESI
Fragmentation mode: HCD
Collision energy: 75
Resolution: 17500
Column name: Acquity BEH C18 1.7um, 2.1x150mm (Waters)
Retention time: 17.784 min
Base peak: 79.0211
Precursor m/z: 374.1962
Precursor type: [M+H]+
Precursor intensity: 14861191
m/z	relative intensity	assigned
53.0023	3	C3HO+
53.0386	12	C4H5+
54.0339	6	C3H4N+
55.0178	15	C3H3O+
55.0542	13	C4H7+
56.0494	4	C3H6N+
57.0699	15	C4H9+
65.0385	11	C5H5+
67.0542	60	C5H7+
68.0132	2	C3H2NO+
68.0495	5	C4H6N+
69.0334	9	C4H5O+
69.0698	14	C5H9+
70.0288	2	C3H4NO+
70.065	2	C4H8N+
72.0444	2	C3H6NO+
74.0964	1	C4H12N+
77.0387	4	C6H5+
79.0542	68	C6H7+
80.0495	6	C5H6N+
81.0335	5	C5H5O+
81.0573	6	C5H7N+
81.0699	23	C6H9+
82.0286	2	C4H4NO+
82.0652	5	C5H8N+
83.0491	2	C5H7O+
91.0542	228	C7H7+
93.0699	24	C7H9+
94.0652	6	C6H8N+
95.0491	20	C6H7O+
95.0857	8	C7H11+
96.0444	4	C5H6NO+
96.0807	38	C6H10N+
102.0466	1	C8H6+
103.0542	21	C8H7+
104.062	7	C8H8+
105.0699	318	C8H9+
106.065	2	C7H8N+
107.0491	8	C7H7O+
107.0855	10	C8H11+
108.0808	4	C7H10N+
109.0651	1	C7H9O+
110.0601	5	C6H8NO+
115.0542	176	C9H7+
116.0621	30	C9H8+
117.0699	731	C9H9+
118.0652	4	C8H8N+
118.0777	15	C9H10+
119.0855	502	C9H11+
121.065	2	C8H9O+
121.1012	2	C9H13+
122.0602	2	C7H8NO+
123.0805	4	C8H11O+
124.0393	35	C6H6NO2+
124.0758	8	C7H10NO+
127.054	3	C10H7+
128.062	122	C10H8+
129.0698	120	C10H9+
130.066	16	C9H8N+
130.0777	300	C10H10+
131.0492	5	C9H7O+
131.0732	13	C9H9N+
131.0855	81	C10H11+
132.0571	8	C9H8O+
132.0808	5	C9H10N+
132.0935	2	C10H12+
133.0648	45	C9H9O+
133.1011	26	C10H13+
136.0758	9	C8H10NO+
138.0551	6	C7H8NO2+
141.0698	34	C11H9+
142.0498	5	C6H8NO3+
142.0778	46	C11H10+
143.0856	300	C11H11+
144.057	2	C10H8O+
144.0807	20	C10H10N+
144.0935	9	C11H12+
145.0647	49	C10H9O+
145.0889	211	C10H11N+
145.1011	698	C11H13+
146.0599	3	C9H8NO+
146.0726	18	C10H10O+
146.0965	15	C10H12N+
147.0804	99	C10H11O+
147.1167	21	C11H15+
152.062	6	C12H8+
153.0698	40	C12H9+
154.0653	4	C11H8N+
154.0777	19	C12H10+
155.0731	16	C11H9N+
155.0855	208	C12H11+
156.057	2	C11H8O+
156.0808	4	C11H10N+
156.0933	36	C12H12+
157.0647	14	C11H9O+
157.0887	37	C11H11N+
157.101	27	C12H13+
158.0726	125	C11H10O+
158.0964	13	C11H12N+
159.0804	13	C11H11O+
159.1042	9	C11H13N+
159.1173	3	C12H15+
160.0753	10	C10H10NO+
160.112	128	C11H14N+
161.0963	3	C11H13O+
165.0699	23	C13H9+
166.0776	20	C13H10+
167.0736	7	C12H9N+
167.0855	49	C13H11+
168.057	2	C12H8O+
168.081	10	C12H10N+
168.0933	26	C13H12+
169.0647	3	C12H9O+
169.1012	48	C13H13+
170.0964	40	C12H12N+
171.0805	32	C12H11O+
171.1044	7	C12H13N+
171.1168	16	C13H15+
172.0754	4	C11H10NO+
172.0881	5	C12H12O+
172.1119	13	C12H14N+
173.0599	19	C11H9O2+
173.0836	94	C11H11NO+
173.0962	75	C12H13O+
174.0914	7	C11H12NO+
175.0756	2	C11H11O2+
176.0452	2	C10H8O3+
178.0779	7	C14H10+
179.0854	35	C14H11+
180.0807	4	C13H10N+
180.0934	11	C14H12+
181.0885	5	C13H11N+
181.1011	32	C14H13+
182.0601	3	C12H8NO+
182.097	8	C13H12N+
182.1091	34	C14H14+
183.0679	38	C12H9NO+
183.0807	8	C13H11O+
183.1169	18	C14H15+
184.0522	5	C12H8O2+
184.076	5	C12H10NO+
184.1118	1	C13H14N+
185.0962	1	C13H13O+
186.0549	2	C11H8NO2+
186.0911	5	C12H12NO+
187.0991	3	C12H13NO+
188.107	170	C12H14NO+
191.0853	14	C15H11+
192.0933	44	C15H12+
193.1012	10	C15H13+
194.0562	3	C10H10O4+
194.0964	5	C14H12N+
194.1092	6	C15H14+
195.0803	8	C14H11O+
195.1055	1	C14H13N+
195.1169	7	C15H15+
196.076	6	C13H10NO+
196.1121	6	C14H14N+
196.1242	3	C15H16+
197.1326	7	C15H17+
198.0913	23	C13H12NO+
199.0755	12	C13H11O2+
200.0707	7	C12H10NO2+
200.1069	13	C13H14NO+
201.0785	15	C12H11NO2+
201.1154	2	C13H15NO+
204.0799	2	C15H10N+
205.101	4	C16H13+
206.1087	2	C16H14+
207.105	1	C15H13N+
207.1163	8	C16H15+
208.1119	5	C15H14N+
209.0836	4	C14H11NO+
209.0962	4	C15H13O+
209.1198	1	C15H15N+
210.0915	4	C14H12NO+
210.1038	5	C15H14O+
211.0753	3	C14H11O2+
212.1074	4	C14H14NO+
212.1434	1	C15H18N+
213.0786	3	C13H11NO2+
214.0862	16	C13H12NO2+
215.0944	2	C13H13NO2+
216.1019	999	C13H14NO2+
218.0959	2	C16H12N+
219.1039	2	C16H13N+
222.0908	2	C12H14O4+
222.1276	2	C16H16N+
224.1072	2	C15H14NO+
228.1024	2	C14H14NO2+
229.1098	2	C14H15NO2+
236.107	5	C16H14NO+
237.1146	9	C16H15NO+
242.0816	1	C14H12NO3+
244.1332	10	C15H18NO2+
250.1223	3	C17H16NO+
252.1383	3	C17H18NO+
254.1171	2	C16H16NO2+
268.1333	4	C17H18NO2+
270.1493	4	C17H20NO2+
