Mass spectrum: Methylprednisolone; LC-ESI-QFT; MS2; CE: 60; R=17500; [M+H]+
Name: Methylprednisolone
Formula: C22H30O5
Exact mass: 374.2093
SMILES: C[C@H]1C[C@H]2[C@@H]3CC[C@](O)(C(=O)CO)[C@@]3(C)C[C@H](O)[C@@H]2[C@@]2(C)C=CC(=O)C=C12
InChI: InChI=1S/C22H30O5/c1-12-8-14-15-5-7-22(27,18(26)11-23)21(15,3)10-17(25)19(14)20(2)6-4-13(24)9-16(12)20/h4,6,9,12,14-15,17,19,23,25,27H,5,7-8,10-11H2,1-3H3/t12-,14-,15-,17-,19+,20-,21-,22-/m0/s1
Instrument: Q Exactive Orbitrap (Thermo Scientific)
Instrument type: LC-ESI-QFT
Ms type: MS2
Ion mode: POSITIVE
Ionization: ESI
Fragmentation mode: HCD
Collision energy: 60
Resolution: 17500
Column name: Acquity BEH C18 1.7um, 2.1x150mm (Waters)
Retention time: 16.827 min
Base peak: 79.0211
Precursor m/z: 375.2166
Precursor type: [M+H]+
Precursor intensity: 5577768
m/z	relative intensity	assigned
55.0543	66	C4H7+
67.0542	157	C5H7+
79.0543	200	C6H7+
81.07	137	C6H9+
91.0543	399	C7H7+
93.07	256	C7H9+
95.0492	72	C6H7O+
95.0856	69	C7H11+
97.0648	74	C6H9O+
105.07	569	C8H9+
107.0856	324	C8H11+
109.0649	56	C7H9O+
109.1015	64	C8H13+
115.0544	126	C9H7+
117.0699	197	C9H9+
119.0857	241	C9H11+
121.0648	703	C8H9O+
128.0622	56	C10H8+
129.0701	97	C10H9+
130.0782	45	C10H10+
131.0857	262	C10H11+
133.0649	62	C9H9O+
133.1013	273	C10H13+
135.0805	772	C9H11O+
142.0778	76	C11H10+
143.0856	144	C11H11+
145.0649	177	C10H9O+
145.1015	102	C11H13+
146.0729	113	C10H10O+
147.0806	177	C10H11O+
149.0962	53	C10H13O+
155.0855	98	C12H11+
157.1013	108	C12H13+
158.0729	201	C11H10O+
159.0807	346	C11H11O+
160.0887	62	C11H12O+
161.0962	999	C11H13O+
171.0806	182	C12H11O+
172.0883	160	C12H12O+
173.096	218	C12H13O+
175.1117	56	C12H15O+
179.0862	50	C14H11+
181.0653	53	C13H9O+
183.081	70	C13H11O+
185.0964	670	C13H13O+
187.112	168	C13H15O+
193.1018	199	C15H13+
195.0808	131	C14H11O+
196.0885	157	C14H12O+
197.0963	182	C14H13O+
199.1123	78	C14H15O+
205.1019	50	C16H13+
207.1173	80	C16H15+
208.0886	99	C15H12O+
209.0966	321	C15H13O+
210.1041	154	C15H14O+
211.1119	448	C15H15O+
221.0961	79	C16H13O+
222.1041	138	C16H14O+
223.112	227	C16H15O+
224.1197	126	C16H16O+
225.1275	100	C16H17O+
235.1123	67	C17H15O+
236.1197	158	C17H16O+
237.1274	142	C17H17O+
238.1349	98	C17H18O+
247.112	71	C18H15O+
249.1274	96	C18H17O+
250.1359	47	C18H18O+
251.1431	97	C18H19O+
263.1432	49	C19H19O+
265.1588	190	C19H21O+
273.127	63	C20H17O+
