Mass spectrum: Pyriproxyfen; LC-ESI-QFT; MS2; CE: 75; R=17500; [M+H]+
Name: Pyriproxyfen
Name: 2-[1-(4-phenoxyphenoxy)propan-2-yloxy]pyridine
Formula: C20H19NO3
Exact mass: 321.1365
SMILES: CC(COC1=CC=C(OC2=CC=CC=C2)C=C1)OC1=NC=CC=C1
InChI: InChI=1S/C20H19NO3/c1-16(23-20-9-5-6-14-21-20)15-22-17-10-12-19(13-11-17)24-18-7-3-2-4-8-18/h2-14,16H,15H2,1H3
Instrument: Q Exactive Orbitrap (Thermo Scientific)
Instrument type: LC-ESI-QFT
Ms type: MS2
Ion mode: POSITIVE
Ionization: ESI
Fragmentation mode: HCD
Collision energy: 75
Resolution: 17500
Column name: Acquity BEH C18 1.7um, 2.1x150mm (Waters)
Retention time: 19.691 min
Base peak: 79.0211
Precursor m/z: 322.1438
Precursor type: [M+H]+
Precursor intensity: 38400102.39063
m/z	relative intensity	assigned
50.0151	1	C4H2+
51.023	1	C4H3+
53.0386	36	C4H5+
55.0179	5	C3H3O+
65.0385	4	C5H5+
77.0385	17	C6H5+
78.0338	46	C5H4N+
79.0542	9	C6H7+
81.0334	3	C5H5O+
91.0543	94	C7H7+
93.0698	1	C7H9+
94.0413	7	C6H6O+
95.0492	109	C6H7O+
96.0444	999	C5H6NO+
103.0542	7	C8H7+
105.0699	28	C8H9+
106.0777	1	C8H10+
107.0492	4	C7H7O+
110.06	9	C6H8NO+
111.0442	1	C6H7O2+
115.0543	74	C9H7+
116.0621	3	C9H8+
117.07	3	C9H9+
119.0492	140	C8H7O+
127.0542	1	C10H7+
128.0621	77	C10H8+
129.0699	150	C10H9+
131.0492	2	C9H7O+
133.0648	21	C9H9O+
134.0727	12	C9H10O+
136.0757	1	C8H10NO+
141.0699	48	C11H9+
142.0776	3	C11H10+
143.0854	2	C11H11+
145.0648	8	C10H9O+
152.0621	4	C12H8+
153.0699	4	C12H9+
157.0649	16	C11H9O+
165.0698	6	C13H9+
166.0777	1	C13H10+
168.0567	3	C12H8O+
169.0649	4	C12H9O+
170.0725	2	C12H10O+
171.0803	1	C12H11O+
181.0648	3	C13H9O+
184.0519	1	C12H8O2+
185.0598	17	C12H9O2+
186.0675	2	C12H10O2+
189.0693	1	C15H9+
194.0728	1	C14H10O+
197.0596	2	C13H9O2+
