Mass spectrum: Imipramine; LC-ESI-QFT; MS2; CE: 30; R=17500; [M+H]+
Name: Imipramine
Name: 3-(5,6-dihydrobenzo[b][1]benzazepin-11-yl)-N,N-dimethylpropan-1-amine
Formula: C19H24N2
Exact mass: 280.1939
SMILES: CN(C)CCCN1C2=CC=CC=C2CCC2=CC=CC=C12
InChI: InChI=1S/C19H24N2/c1-20(2)14-7-15-21-18-10-5-3-8-16(18)12-13-17-9-4-6-11-19(17)21/h3-6,8-11H,7,12-15H2,1-2H3
Instrument: Q Exactive Orbitrap (Thermo Scientific)
Instrument type: LC-ESI-QFT
Ms type: MS2
Ion mode: POSITIVE
Ionization: ESI
Fragmentation mode: HCD
Collision energy: 30
Resolution: 17500
Column name: Acquity BEH C18 1.7um, 2.1x150mm (Waters)
Retention time: 15.455 min
Base peak: 79.0211
Precursor m/z: 281.2012
Precursor type: [M+H]+
Precursor intensity: 24773259
m/z	relative intensity	assigned
58.0651	191	C3H8N+
86.0963	999	C5H12N+
208.112	23	C15H14N+
236.1433	17	C17H18N+
281.201	57	C19H25N2+
