Mass spectrum: CI-959; LC-ESI-QFT; MS2; CE: 90; R=17500; [M+H]+
Name: CI-959
Name: CI-959 free acid
Name: 5-methoxy-3-propan-2-yloxy-N-(2H-tetrazol-5-yl)-1-benzothiophene-2-carboxamide
Formula: C14H15N5O3S
Exact mass: 333.0896
SMILES: COC1=CC2=C(SC(C(=O)NC3=NN=NN3)=C2OC(C)C)C=C1
InChI: InChI=1S/C14H15N5O3S/c1-7(2)22-11-9-6-8(21-3)4-5-10(9)23-12(11)13(20)15-14-16-18-19-17-14/h4-7H,1-3H3,(H2,15,16,17,18,19,20)
Instrument: Q Exactive Orbitrap (Thermo Scientific)
Instrument type: LC-ESI-QFT
Ms type: MS2
Ion mode: POSITIVE
Ionization: ESI
Fragmentation mode: HCD
Collision energy: 90
Resolution: 17500
Column name: Acquity BEH C18 1.7um, 2.1x150mm (Waters)
Retention time: 17.398 min
Base peak: 79.0211
Precursor m/z: 334.0968
Precursor type: [M+H]+
Precursor intensity: 6620565
m/z	relative intensity	assigned
53.0386	34	C4H5+
58.04	76	CH4N3+
65.0386	25	C5H5+
67.0542	39	C5H7+
68.9793	14	C3HS+
69.0083	76	C2HN2O+
70.9949	7	C3H3S+
78.0463	16	C6H6+
79.0542	75	C6H7+
86.0461	564	CH4N5+
91.0542	21	C7H7+
92.0257	24	C6H4O+
94.0414	14	C6H6O+
95.0492	353	C6H7O+
96.0029	62	C5H4S+
97.0107	18	C5H5S+
105.0448	31	C6H5N2+
107.0493	24	C7H7O+
108.0028	324	C6H4S+
109.0106	16	C6H5S+
109.0648	14	C7H9O+
111.0265	30	C6H7S+
111.9977	36	C5H4OS+
112.0255	81	C2H2N5O+
119.0491	32	C8H7O+
121.0107	30	C7H5S+
123.0263	7	C7H7S+
123.9978	157	C6H4OS+
125.0597	91	C7H9O2+
135.044	174	C8H7O2+
135.0552	30	C7H7N2O+
135.9978	781	C7H4OS+
137.0057	14	C7H5OS+
138.0135	22	C7H6OS+
139.0212	999	C7H7OS+
145.0648	9	C10H9O+
147.9978	9	C8H4OS+
150.0133	5	C8H6OS+
151.0212	821	C8H7OS+
159.0806	8	C11H11O+
163.021	29	C9H7OS+
163.9926	103	C8H4O2S+
166.0081	22	C8H6O2S+
177.037	9	C10H9OS+
178.0446	14	C10H10OS+
179.0162	88	C9H7O2S+
191.9881	5	C9H4O3S+
207.011	27	C10H7O3S+
209.9983	7	C10H2N4S+
