Mass spectrum: Niacinamide; LC-ESI-QFT; MS2; CE: 75; R=17500; [M+H]+
Name: Niacinamide
Name: Nicotinamide
Name: pyridine-3-carboxamide
Formula: C6H6N2O
Exact mass: 122.0480
SMILES: NC(=O)C1=CC=CN=C1
InChI: InChI=1S/C6H6N2O/c7-6(9)5-2-1-3-8-4-5/h1-4H,(H2,7,9)
Instrument: Q Exactive Orbitrap (Thermo Scientific)
Instrument type: LC-ESI-QFT
Ms type: MS2
Ion mode: POSITIVE
Ionization: ESI
Fragmentation mode: HCD
Collision energy: 75
Resolution: 17500
Column name: Acquity BEH C18 1.7um, 2.1x150mm (Waters)
Retention time: 2.445 min
Base peak: 79.0211
Precursor m/z: 123.0553
Precursor type: [M+H]+
Precursor intensity: 7476884.28125
m/z	relative intensity	assigned
53.0386	36	C4H5+
54.0339	1	C3H4N+
68.0494	11	C4H6N+
78.0338	35	C5H4N+
79.0414	3	C5H5N+
80.0494	999	C5H6N+
95.0603	6	C5H7N2+
96.0443	298	C5H6NO+
105.0447	7	C6H5N2+
106.0287	31	C6H4NO+
123.0552	520	C6H7N2O+
