Mass spectrum: PharmaGSID_47261; LC-ESI-QFT; MS2; CE: 45; R=17500; [M-H]-
Name: PharmaGSID_47261
Name: (2S,3S)-3-methyl-2-(3-oxo-1,2-benzothiazol-2-yl)pentanoic acid
Formula: C13H15NO3S
Exact mass: 265.0773
SMILES: CC[C@H](C)[C@H](N1SC2=CC=CC=C2C1=O)C(O)=O
InChI: InChI=1S/C13H15NO3S/c1-3-8(2)11(13(16)17)14-12(15)9-6-4-5-7-10(9)18-14/h4-8,11H,3H2,1-2H3,(H,16,17)/t8-,11-/m0/s1
Instrument: Q Exactive Orbitrap (Thermo Scientific)
Instrument type: LC-ESI-QFT
Ms type: MS2
Ion mode: NEGATIVE
Ionization: ESI
Fragmentation mode: HCD
Collision energy: 45
Resolution: 17500
Column name: Acquity BEH C18 1.7um, 2.1x150mm (Waters)
Retention time: 16.593 min
Base peak: 179.0714
Precursor m/z: 264.07
Precursor type: [M-H]-
Precursor intensity: 13489262.86328
m/z	relative intensity	assigned
63.9625	4	O2S-
80.0506	1	C5H6N-
82.0663	3	C5H8N-
106.9962	1	C6H3S-
108.004	2	C6H4S-
108.0216	1	C6H4O2-
109.0117	999	C6H5S-
110.9911	1	C5H3OS-
120.0455	4	C7H6NO-
134.0071	11	C7H4NS-
137.0066	43	C7H5OS-
150.0019	77	C7H4NOS-
152.0176	42	C7H6NOS-
163.0099	2	C8H5NOS-
193.0693	1	C11H13OS-
202.0702	2	C12H12NS-
205.0566	12	C11H11NOS-
218.0643	1	C12H12NOS-
220.0801	667	C12H14NOS-
237.0463	1	C11H11NO3S-
