Mass spectrum: Sulfaquinoxaline; LC-ESI-QFT; MS2; CE: 90; R=17500; [M+H]+
Name: Sulfaquinoxaline
Name: 4-amino-N-quinoxalin-2-ylbenzenesulfonamide
Formula: C14H12N4O2S
Exact mass: 300.0681
SMILES: NC1=CC=C(C=C1)S(=O)(=O)NC1=CN=C2C=CC=CC2=N1
InChI: InChI=1S/C14H12N4O2S/c15-10-5-7-11(8-6-10)21(19,20)18-14-9-16-12-3-1-2-4-13(12)17-14/h1-9H,15H2,(H,17,18)
Instrument: Q Exactive Orbitrap (Thermo Scientific)
Instrument type: LC-ESI-QFT
Ms type: MS2
Ion mode: POSITIVE
Ionization: ESI
Fragmentation mode: HCD
Collision energy: 90
Resolution: 17500
Column name: Acquity BEH C18 1.7um, 2.1x150mm (Waters)
Retention time: 13.985 min
Base peak: 79.0211
Precursor m/z: 301.0754
Precursor type: [M+H]+
Precursor intensity: 7321073.21875
m/z	relative intensity	assigned
53.0022	9	C3HO+
53.0386	11	C4H5+
54.0339	1	C3H4N+
55.0178	1	C3H3O+
55.0543	3	C4H7+
56.0495	3	C3H6N+
63.0229	2	C5H3+
65.0385	999	C5H5+
66.0339	2	C4H4N+
67.0542	2	C5H7+
68.0494	25	C4H6N+
69.0335	2	C4H5O+
78.0338	3	C5H4N+
79.0179	4	C5H3O+
80.0494	271	C5H6N+
81.0335	1	C5H5O+
83.0491	4	C5H7O+
90.0339	8	C6H4N+
91.0417	5	C6H5N+
92.0495	489	C6H6N+
93.0572	5	C6H7N+
94.0652	2	C6H8N+
95.0492	1	C6H7O+
96.0444	2	C5H6NO+
102.0339	3	C7H4N+
107.0604	2	C6H7N2+
108.0444	451	C6H6NO+
109.0522	2	C6H7NO+
110.06	127	C6H8NO+
117.0447	4	C7H5N2+
118.0525	73	C7H6N2+
119.0605	4	C7H7N2+
120.0443	6	C7H6NO+
120.0555	4	C6H6N3+
124.0758	4	C7H10NO+
129.0447	51	C8H5N2+
130.04	19	C7H4N3+
135.0557	1	C7H7N2O+
144.0557	2	C8H6N3+
145.0633	2	C8H7N3+
146.0712	50	C8H8N3+
147.0553	54	C8H7N2O+
156.0113	1	C6H6NO2S+
161.0708	5	C9H9N2O+
