Mass spectrum: Glybenclamide; LC-ESI-QFT; MS2; CE: 90; R=17500; [M+H]+
Name: Glybenclamide
Name: Glyburide
Name: 5-chloro-N-[2-[4-(cyclohexylcarbamoylsulfamoyl)phenyl]ethyl]-2-methoxybenzamide
Formula: C23H28ClN3O5S
Exact mass: 493.1438
SMILES: COC1=C(C=C(Cl)C=C1)C(=O)NCCC1=CC=C(C=C1)S(=O)(=O)NC(=O)NC1CCCCC1
InChI: InChI=1S/C23H28ClN3O5S/c1-32-21-12-9-17(24)15-20(21)22(28)25-14-13-16-7-10-19(11-8-16)33(30,31)27-23(29)26-18-5-3-2-4-6-18/h7-12,15,18H,2-6,13-14H2,1H3,(H,25,28)(H2,26,27,29)
Instrument: Q Exactive Orbitrap (Thermo Scientific)
Instrument type: LC-ESI-QFT
Ms type: MS2
Ion mode: POSITIVE
Ionization: ESI
Fragmentation mode: HCD
Collision energy: 90
Resolution: 17500
Column name: Acquity BEH C18 1.7um, 2.1x150mm (Waters)
Retention time: 17.866 min
Base peak: 79.0212
Precursor m/z: 494.1511
Precursor type: [M+H]+
Precursor intensity: 6273439.25
m/z	relative intensity	assigned
50.0152	9	C4H2+
51.0229	23	C4H3+
53.0022	11	C3HO+
53.0386	100	C4H5+
55.0178	6	C3H3O+
55.0543	58	C4H7+
63.0229	22	C5H3+
65.0386	50	C5H5+
74.015	6	C6H2+
75.0229	75	C6H3+
77.0385	34	C6H5+
78.0464	30	C6H6+
79.0178	17	C5H3O+
79.0542	20	C6H7+
81.0335	26	C5H5O+
83.0856	26	C6H11+
86.9997	83	C4H4Cl+
91.0543	296	C7H7+
93.0336	8	C6H5O+
94.0413	20	C6H6O+
95.0492	325	C6H7O+
98.0361	3	C5H6O2+
100.112	3	C6H14N+
102.0464	20	C8H6+
103.0543	240	C8H7+
104.0621	27	C8H8+
105.0448	121	C6H5N2+
105.07	46	C8H9+
107.0492	36	C7H7O+
110.9997	52	C6H4Cl+
111.0441	38	C6H7O2+
113.0153	110	C6H6Cl+
114.9946	9	C5H4ClO+
118.0651	4	C8H8N+
119.0493	34	C8H7O+
119.0731	3	C8H9N+
120.0569	6	C8H8O+
120.0808	10	C8H10N+
121.0647	12	C8H9O+
125.9868	999	C6H3ClO+
128.0025	9	C6H5ClO+
129.0102	261	C6H6ClO+
131.0604	10	C8H7N2+
138.0231	13	C8H7Cl+
138.9955	64	C5H3N2OS+
139.0058	492	C6H4ClN2+
140.0027	3	C7H5ClO+
141.0102	42	C7H6ClO+
152.0621	14	C12H8+
153.0699	11	C12H9+
153.9817	7	C7H3ClO2+
154.9895	9	C7H4ClO2+
165.0699	48	C13H9+
166.026	12	C8H6O4+
166.0778	13	C13H10+
169.0052	882	C8H6ClO2+
171.9923	224	C7H5ClO3+
181.0646	18	C2H16ClN3O2S+
186.008	6	C8H7ClO3+
194.0726	3	C14H10O+
217.0416	6	C13H10ClO+
