Mass spectrum: Fluazifop-butyl; LC-ESI-QFT; MS2; CE: 90; R=17500; [M+H]+
Name: Fluazifop-butyl
Name: butyl 2-[4-[5-(trifluoromethyl)pyridin-2-yl]oxyphenoxy]propanoate
Formula: C19H20F3NO4
Exact mass: 383.1344
SMILES: CCCCOC(=O)C(C)OC1=CC=C(OC2=CC=C(C=N2)C(F)(F)F)C=C1
InChI: InChI=1S/C19H20F3NO4/c1-3-4-11-25-18(24)13(2)26-15-6-8-16(9-7-15)27-17-10-5-14(12-23-17)19(20,21)22/h5-10,12-13H,3-4,11H2,1-2H3
Instrument: Q Exactive Orbitrap (Thermo Scientific)
Instrument type: LC-ESI-QFT
Ms type: MS2
Ion mode: POSITIVE
Ionization: ESI
Fragmentation mode: HCD
Collision energy: 90
Resolution: 17500
Column name: Acquity BEH C18 1.7um, 2.1x150mm (Waters)
Retention time: 19.277 min
Base peak: 79.0212
Precursor m/z: 384.1417
Precursor type: [M+H]+
Precursor intensity: 22695133.25
m/z	relative intensity	assigned
50.0151	1	C4H2+
51.023	2	C4H3+
53.0022	42	C3HO+
53.0386	14	C4H5+
53.9974	6	C2NO+
55.0178	20	C3H3O+
55.0542	4	C4H7+
57.0699	28	C4H9+
63.0229	38	C5H3+
64.0307	9	C5H4+
65.0385	840	C5H5+
66.0463	6	C5H6+
67.0543	5	C5H7+
68.9969	1	C3HO2+
69.0335	1	C4H5O+
73.0283	6	C3H5O2+
75.0041	26	C3HF2+
75.0229	75	C6H3+
76.0307	3	C6H4+
77.0385	8	C6H5+
78.0338	9	C5H4N+
79.0178	3	C5H3O+
79.0542	11	C6H7+
80.0619	1	C6H8+
81.0335	18	C5H5O+
89.0385	8	C7H5+
90.0464	11	C7H6+
91.0542	999	C7H7+
92.0256	35	C6H4O+
92.062	6	C7H8+
93.0336	9	C6H5O+
93.0699	5	C7H9+
94.0413	28	C6H6O+
95.0491	31	C6H7O+
96.0443	5	C5H6NO+
97.0084	2	C5H2FO+
99.0041	17	C5HF2+
101.0199	3	C5H3F2+
103.0229	1	C4H3F2N+
103.0542	27	C8H7+
104.0131	52	C6H2NO+
105.0335	1	C7H5O+
105.0447	12	FH8NO4+
105.07	1	C8H9+
107.0491	10	C7H7O+
108.0569	1	C7H8O+
109.0285	9	C6H5O2+
109.0449	1	C7H6F+
109.0648	4	C7H9O+
110.0362	13	C6H6O2+
111.044	19	C6H7O2+
115.0541	8	C9H7+
117.0146	2	C5H3F2O+
117.0572	14	C8H7N+
118.0651	3	C8H8N+
119.0365	6	C7H5NO+
119.0491	14	C8H7O+
119.0604	1	CH10FNO4+
120.0444	9	C7H6NO+
120.057	3	C8H8O+
121.0285	16	C7H5O2+
121.0648	4	C8H9O+
124.0193	21	C6H3FNO+
126.0149	21	C6H2F2N+
127.0227	18	C6H3F2N+
128.0066	2	C6H2F2O+
130.0651	46	C9H8N+
131.0491	130	C9H7O+
132.0569	7	C9H8O+
133.0257	3	C6H4F3+
133.0448	30	C9H6F+
133.0521	9	C8H7NO+
134.0599	3	C8H8NO+
135.029	3	C5H4F3N+
139.0355	4	C8H5F2+
140.0308	3	C7H4F2N+
140.0494	49	C10H6N+
141.0572	341	C10H7N+
142.0411	8	C10H6O+
142.0651	6	C10H8N+
143.0729	2	C10H9N+
144.0255	11	C6H4F2NO+
144.0443	4	C9H6NO+
145.0333	23	C6H5F2NO+
146.0212	68	C6H3F3N+
147.0291	16	C6H4F3N+
148.0368	17	C6H5F3N+
151.0354	16	C9H5F2+
152.0432	12	C9H6F2+
156.0806	5	C11H10N+
157.026	5	C8H4F3+
157.0523	4	C10H7NO+
157.0886	4	C11H11N+
158.06	77	C10H8NO+
159.0479	13	C10H6FN+
159.0679	2	C10H9NO+
160.0561	7	C10H7FN+
161.0451	4	C7H6F3N+
163.0239	15	C6H4F3NO+
163.0355	10	C10H5F2+
164.0317	410	C6H5F3NO+
166.046	3	C9H6F2N+
166.0651	9	C12H8N+
167.0729	21	C12H9N+
168.0443	88	C11H6NO+
169.0521	33	C11H7NO+
170.0399	12	C11H5FN+
170.0598	8	C11H8NO+
172.0368	9	C8H5F3N+
176.0315	1	C7H5F3NO+
177.0581	7	C10H8FNO+
178.0471	25	C7H7F3NO+
179.0188	133	C6H4F3NO2+
179.0536	9	C10H7F2N+
180.038	36	C10H6F2O+
181.0459	10	C10H7F2O+
182.033	5	C10H5F3+
182.0417	6	C9H6F2NO+
183.0415	12	C10H6F3+
184.0367	6	C9H5F3N+
184.076	3	C12H10NO+
185.0448	35	C9H6F3N+
186.0715	3	C12H9FN+
187.043	8	C11H6FNO+
188.0506	50	C11H7FNO+
189.038	9	C11H5F2N+
190.0462	105	C11H6F2N+
191.0414	17	C4H8F3NO4+
191.0538	1	C11H7F2N+
196.0559	5	C13H7FN+
198.0349	6	C12H5FNO+
198.0526	80	C10H7F3N+
199.0364	4	C10H6F3O+
199.06	5	C10H8F3N+
200.0317	3	C9H5F3NO+
200.0441	3	C10H7F3O+
200.07	2	C12H10NO2+
201.0419	25	C11H7NO3+
202.0471	14	C9H7F3NO+
206.0412	12	C11H6F2NO+
207.049	17	C11H7F2NO+
208.0567	10	C11H8F2NO+
209.0446	64	C11H6F3N+
210.0525	32	C11H7F3N+
211.0602	25	C11H8F3N+
212.0319	2	C10H5F3NO+
212.0693	6	C11H9F3N+
214.0665	1	C13H9FNO+
216.0451	1	C12H7FNO2+
216.0619	2	C13H8F2N+
218.0411	127	C12H6F2NO+
222.0523	2	C12H7F3N+
224.0684	2	C12H9F3N+
225.0394	3	C11H6F3NO+
226.0473	43	C11H7F3NO+
227.0551	77	C11H8F3NO+
235.0603	18	C13H8F3N+
236.0317	9	C12H5F3NO+
236.0679	3	C13H9F3N+
237.0398	2	C12H6F3NO+
238.0473	227	C12H7F3NO+
254.0422	241	C12H7F3NO2+
256.0581	2	C12H9F3NO2+
264.0633	2	C14H9F3NO+
269.0295	2	C12H6F3NO3+
