Mass spectrum: Biotin; LC-ESI-QFT; MS2; CE: 75; R=17500; [M-H]-
Name: Biotin
Name: 5-[(3aS,4S,6aR)-2-oxo-1,3,3a,4,6,6a-hexahydrothieno[3,4-d]imidazol-4-yl]pentanoic acid
Formula: C10H16N2O3S
Exact mass: 244.0882
SMILES: OC(=O)CCCC[C@@H]1SC[C@@H]2NC(=O)N[C@H]12
InChI: InChI=1S/C10H16N2O3S/c13-8(14)4-2-1-3-7-9-6(5-16-7)11-10(15)12-9/h6-7,9H,1-5H2,(H,13,14)(H2,11,12,15)/t6-,7-,9-/m0/s1
Instrument: Q Exactive Orbitrap (Thermo Scientific)
Instrument type: LC-ESI-QFT
Ms type: MS2
Ion mode: NEGATIVE
Ionization: ESI
Fragmentation mode: HCD
Collision energy: 75
Resolution: 17500
Column name: Acquity BEH C18 1.7um, 2.1x150mm (Waters)
Retention time: 11.886 min
Base peak: 243.0807
Precursor m/z: 243.0809
Precursor type: [M-H]-
Precursor intensity: 6805092.214355
m/z	relative intensity	assigned
52.0192	86	C3H2N-
58.9961	59	C2H3S-
59.0138	336	C2H3O2-
59.0251	274	CH3N2O-
63.9624	54	O2S-
66.035	110	C4H4N-
68.0142	451	C3H2NO-
68.0506	582	C4H6N-
71.9914	701	C2H2NS-
72.9991	289	C2H3NS-
74.007	999	C2H4NS-
82.0172	152	C3H2N2O-
82.0662	123	C5H8N-
83.0251	160	C3H3N2O-
85.0117	110	C4H5S-
94.0663	88	C6H8N-
95.0251	965	C4H3N2O-
95.0503	57	C6H7O-
97.0407	99	C4H5N2O-
97.0659	141	C6H9O-
99.0151	51	C4H5NS-
103.0587	669	C5H11S-
111.0564	156	C5H7N2O-
122.0977	111	C8H12N-
123.0562	48	C6H7N2O-
130.0698	202	C6H12NS-
136.077	52	C8H10NO-
139.0589	309	C8H11S-
153.1034	107	C8H13N2O-
154.0877	59	C8H12NO2-
156.085	98	C8H14NS-
166.0878	52	C9H12NO2-
