Mass spectrum: MK-274; LC-ESI-QFT; MS2; CE: 30; R=17500; [M+H]+
Name: MK-274
Name: 3-[5'-Fluoro-2'-(2,2,3,3,3-pentafluoropropoxy)biphenyl-3-yl]-1H-1,2,4-triazole-5-carboxamide
Name: 3-[3-[5-fluoro-2-(2,2,3,3,3-pentafluoropropoxy)phenyl]phenyl]-1H-1,2,4-triazole-5-carboxamide
Formula: C18H12F6N4O2
Exact mass: 430.0864
SMILES: NC(=O)C1=NC(=NN1)C1=CC=CC(=C1)C1=CC(F)=CC=C1OCC(F)(F)C(F)(F)F
InChI: InChI=1S/C18H12F6N4O2/c19-11-4-5-13(30-8-17(20,21)18(22,23)24)12(7-11)9-2-1-3-10(6-9)15-26-16(14(25)29)28-27-15/h1-7H,8H2,(H2,25,29)(H,26,27,28)
Instrument: Q Exactive Orbitrap (Thermo Scientific)
Instrument type: LC-ESI-QFT
Ms type: MS2
Ion mode: POSITIVE
Ionization: ESI
Fragmentation mode: HCD
Collision energy: 30
Resolution: 17500
Column name: Acquity BEH C18 1.7um, 2.1x150mm (Waters)
Retention time: 17.801 min
Base peak: 79.0211
Precursor m/z: 431.0937
Precursor type: [M+H]+
Precursor intensity: 13418438.25
m/z	relative intensity	assigned
101.0031	3	C4H2FO2+
224.0525	3	C11H8F2NO2+
225.0585	1	C14H8FNO+
253.0529	9	C10H7F2N4O2+
298.0861	54	C15H11FN4O2+
299.0703	15	C15H11F4O2+
346.0664	2	C16H10F6NO+
358.0667	2	C17H10F6NO+
388.0885	3	C17H12F6N3O+
413.0831	31	C18H11F6N4O+
414.0655	29	C18H10F6N3O2+
431.0944	999	C18H13F6N4O2+
