Mass spectrum: Azathioprine; LC-ESI-QFT; MS2; CE: 75; R=17500; [M+H]+
Name: Azathioprine
Name: 6-(3-methyl-5-nitroimidazol-4-yl)sulfanyl-7H-purine
Formula: C9H7N7O2S
Exact mass: 277.0382
SMILES: CN1C=NC(=C1SC1=NC=NC2=C1NC=N2)[N+]([O-])=O
InChI: InChI=1S/C9H7N7O2S/c1-15-4-14-7(16(17)18)9(15)19-8-5-6(11-2-10-5)12-3-13-8/h2-4H,1H3,(H,10,11,12,13)
Instrument: Q Exactive Orbitrap (Thermo Scientific)
Instrument type: LC-ESI-QFT
Ms type: MS2
Ion mode: POSITIVE
Ionization: ESI
Fragmentation mode: HCD
Collision energy: 75
Resolution: 17500
Column name: Acquity BEH C18 1.7um, 2.1x150mm (Waters)
Retention time: 10.727 min
Base peak: 79.0212
Precursor m/z: 278.0455
Precursor type: [M+H]+
Precursor intensity: 4640460.84375
m/z	relative intensity	assigned
52.0182	6	C3H2N+
54.0212	34	C2H2N2+
54.0339	55	C3H4N+
57.9746	374	CNS+
58.0287	32	C2H4NO+
58.995	32	C2H3S+
59.9902	15	CH2NS+
61.0107	11	C2H5S+
65.0134	7	C3HN2+
66.0213	21	C3H2N2+
67.0291	999	C3H3N2+
69.0083	188	C2HN2O+
69.0447	201	C3H5N2+
70.0399	13	C2H4N3+
72.998	92	C2H3NS+
74.0059	725	C2H4NS+
79.0291	13	C4H3N2+
81.0322	107	C3H3N3+
81.0447	412	C4H5N2+
84.9855	648	C2HN2S+
85.9696	10	C2NOS+
86.0059	167	C3H4NS+
90.001	10	C2H4NOS+
92.0243	110	C4H2N3+
94.04	32	C4H4N3+
97.9933	12	C3H2N2S+
100.9806	24	C2HN2OS+
106.04	34	C5H4N3+
108.0192	14	C4H2N3O+
108.0431	102	C4H4N4+
109.0271	26	C4H3N3O+
111.0012	21	C4H3N2S+
112.0091	10	C4H4N2S+
113.0168	375	C4H5N2S+
118.0401	22	C6H4N3+
119.0353	690	C5H3N4+
120.0431	145	C5H4N4+
120.056	11	C6H6N3+
121.0509	188	C5H5N4+
124.0506	108	C5H6N3O+
125.0042	103	C4H3N3S+
131.0353	14	C6H3N4+
132.0431	20	C6H4N4+
133.051	32	C6H5N4+
134.0587	102	C6H6N4+
135.0304	17	C5H3N4O+
135.9964	37	C5H2N3S+
136.0379	74	C5H4N4O+
137.0043	15	C5H3N3S+
137.0459	114	C5H5N4O+
138.0122	32	C5H4N3S+
142.007	82	C4H4N3OS+
145.0509	131	C7H5N4+
146.0461	141	C6H4N5+
147.0668	48	C7H7N4+
148.0618	10	C6H6N5+
149.0045	22	C6H3N3S+
151.02	14	C6H5N3S+
152.0151	473	C5H4N4S+
152.033	97	C5H4N4O2+
153.0232	53	C5H5N4S+
158.0587	84	C8H6N4+
159.054	115	C7H5N5+
160.0619	54	C7H6N5+
163.0073	18	C6H3N4S+
164.0151	666	C6H4N4S+
165.023	382	C6H5N4S+
170.0459	12	C8H4N5+
172.0618	492	C8H6N5+
173.0698	16	C8H7N5+
174.0773	82	C8H8N5+
176.0152	89	C7H4N4S+
177.0229	311	C7H5N4S+
178.0306	16	C7H6N4S+
181.0182	13	C6H5N4OS+
187.0725	12	C8H7N6+
188.0157	21	C8H4N4S+
190.0184	19	C7H4N5S+
191.0254	9	C7H5N5S+
198.0653	17	C9H6N6+
199.0727	294	C9H7N6+
200.0809	10	C9H8N6+
204.0339	656	C8H6N5S+
205.0418	87	C8H7N5S+
214.0421	18	C6H8N5O2S+
215.0263	10	C9H5N5S+
217.0291	9	C8H5N6S+
231.0448	153	C9H7N6S+
