Mass spectrum: 4,4`-Methylenebis(N,N-dimethylaniline); LC-ESI-QFT; MS2; CE: 75; R=17500; [M+H]+
Name: 4,4'-Methylenebis(N,N-dimethylaniline)
Name: 4-[[4-(dimethylamino)phenyl]methyl]-N,N-dimethylaniline
Formula: C17H22N2
Exact mass: 254.1783
SMILES: CN(C)C1=CC=C(CC2=CC=C(C=C2)N(C)C)C=C1
InChI: InChI=1S/C17H22N2/c1-18(2)16-9-5-14(6-10-16)13-15-7-11-17(12-8-15)19(3)4/h5-12H,13H2,1-4H3
Instrument: Q Exactive Orbitrap (Thermo Scientific)
Instrument type: LC-ESI-QFT
Ms type: MS2
Ion mode: POSITIVE
Ionization: ESI
Fragmentation mode: HCD
Collision energy: 75
Resolution: 17500
Column name: Acquity BEH C18 1.7um, 2.1x150mm (Waters)
Retention time: 10.439 min
Base peak: 79.0212
Precursor m/z: 255.1856
Precursor type: [M+H]+
Precursor intensity: 26791313.75
m/z	relative intensity	assigned
68.0494	1	C4H6N+
79.0542	1	C6H7+
91.0542	6	C7H7+
104.0496	1	C7H6N+
106.0651	1	C7H8N+
107.073	1	C7H9N+
108.0807	1	C7H10N+
117.0573	1	C8H7N+
118.0651	34	C8H8N+
119.0731	5	C8H9N+
120.0808	96	C8H10N+
121.0886	33	C8H11N+
122.0964	4	C8H12N+
132.0808	18	C9H10N+
133.0886	4	C9H11N+
134.0963	257	C9H12N+
141.0698	1	C11H9+
144.0808	1	C10H10N+
152.0624	1	C12H8+
155.0854	2	C12H11+
163.1232	1	C10H15N2+
165.0698	9	C13H9+
166.0777	10	C13H10+
167.0731	1	C12H9N+
167.0854	6	C13H11+
170.0965	3	C12H12N+
179.0851	2	C14H11+
180.0807	50	C13H10N+
181.0885	67	C13H11N+
182.0961	2	C13H12N+
183.104	1	C13H13N+
184.1124	1	C13H14N+
193.0886	1	C14H11N+
194.0965	27	C14H12N+
195.1043	46	C14H13N+
196.112	344	C14H14N+
197.1202	2	C14H15N+
198.1275	1	C14H16N+
208.1119	10	C15H14N+
209.1074	9	C14H13N2+
209.12	12	C15H15N+
210.1276	196	C15H16N+
223.1229	41	C15H15N2+
224.1307	70	C15H16N2+
225.1385	48	C15H17N2+
237.1386	1	C16H17N2+
238.1454	3	C16H18N2+
239.1541	999	C16H19N2+
240.1619	27	C16H20N2+
