Mass spectrum: Diflufenican; LC-ESI-QFT; MS2; CE: 90; R=17500; [M-H]-
Name: Diflufenican
Name: N-(2,4-difluorophenyl)-2-[3-(trifluoromethyl)phenoxy]pyridine-3-carboxamide
Formula: C19H11F5N2O2
Exact mass: 394.0741
SMILES: FC1=CC=C(NC(=O)C2=C(OC3=CC(=CC=C3)C(F)(F)F)N=CC=C2)C(F)=C1
InChI: InChI=1S/C19H11F5N2O2/c20-12-6-7-16(15(21)10-12)26-17(27)14-5-2-8-25-18(14)28-13-4-1-3-11(9-13)19(22,23)24/h1-10H,(H,26,27)
Instrument: Q Exactive Orbitrap (Thermo Scientific)
Instrument type: LC-ESI-QFT
Ms type: MS2
Ion mode: NEGATIVE
Ionization: ESI
Fragmentation mode: HCD
Collision energy: 90
Resolution: 17500
Column name: Acquity BEH C18 1.7um, 2.1x150mm (Waters)
Retention time: 19.046 min
Base peak: 271.9888
Precursor m/z: 393.0668
Precursor type: [M-H]-
Precursor intensity: 7903404.78125
m/z	relative intensity	assigned
50.0035	25	C3N-
65.0033	80	C4HO-
65.9986	12	C3NO-
66.0349	6	C4H4N-
68.9958	34	CF3-
73.0084	77	C6H-
74.0036	18	C5N-
76.0193	26	C5H2N-
88.0193	19	C6H2N-
89.0035	22	C6HO-
92.0142	10	C5H2NO-
92.9958	5	C3F3-
93.0145	11	C6H2F-
94.0298	34	C5H4NO-
96.0255	154	C5H3FN-
98.0035	26	C7N-
108.0255	38	C6H3FN-
114.035	9	C8H4N-
121.0095	33	C7H2FO-
128.0316	18	C6H4F2N-
135.0365	46	C7H4FN2-
136.0201	5	C7H3FNO-
138.0351	34	C10H4N-
140.0153	6	C6H3FNO2-
141.0158	16	C7H3F2O-
143.0111	6	C7H2F3-
152.0155	22	C7H3FNO2-
153.046	14	C10H5N2-
159.0364	77	C9H4FN2-
160.0381	31	C7H5F3N-
161.0219	77	C7H4F3O-
165.0458	417	C11H5N2-
172.0194	128	C13H2N-
180.0333	11	C11H4N2O-
181.0408	16	C11H5N2O-
182.0412	20	C12H5FN-
183.012	9	C14HN-
183.0368	15	C11H4FN2-
185.0334	13	C8H4F3N2-
185.052	242	C11H6FN2-
186.0359	7	C11H5FNO-
188.0315	5	C11H4F2N-
192.0256	949	C13H3FN-
195.0365	45	C12H4FN2-
202.0475	12	C12H6F2N-
209.0344	9	C7H5F4N2O-
210.0162	21	C13H2F2N-
212.0318	999	C13H4F2N-
213.047	11	C12H6FN2O-
218.0406	5	C15H5FN-
220.0376	5	C12H5F3N-
222.0352	5	C17H4N-
223.0318	5	C13H4FN2O-
229.042	9	C12H6FN2O2-
230.0222	107	C13H3F3N-
230.0418	7	C13H6F2NO-
232.0379	80	C13H5F3N-
235.0253	6	C12H4F3NO-
235.0482	10	C12H6F3N2-
237.046	41	C17H5N2-
242.0421	5	C14H6F2NO-
243.014	7	C13H3F2NO2-
249.0458	16	C18H5N2-
250.0289	19	C13H4F4N-
252.044	106	C13H6F4N-
257.0524	19	C17H6FN2-
263.02	20	C13H4F3NO2-
263.044	11	C13H6F3N2O-
265.0406	20	C10H6F5N2O-
267.036	15	C18H5NO2-
268.0442	15	C18H5FN2-
270.0346	71	C13H5F5N-
288.0512	4	C15H7F3N2O-
