Mass spectrum: 1-Amino-2-methylanthraquinone; LC-ESI-QFT; MS2; CE: 75; R=17500; [M+H]+
Name: 1-Amino-2-methylanthraquinone
Name: 1-amino-2-methylanthracene-9,10-dione
Formula: C15H11NO2
Exact mass: 237.0790
SMILES: CC1=CC=C2C(=O)C3=C(C=CC=C3)C(=O)C2=C1N
InChI: InChI=1S/C15H11NO2/c1-8-6-7-11-12(13(8)16)15(18)10-5-3-2-4-9(10)14(11)17/h2-7H,16H2,1H3
Instrument: Q Exactive Orbitrap (Thermo Scientific)
Instrument type: LC-ESI-QFT
Ms type: MS2
Ion mode: POSITIVE
Ionization: ESI
Fragmentation mode: HCD
Collision energy: 75
Resolution: 17500
Column name: Acquity BEH C18 1.7um, 2.1x150mm (Waters)
Retention time: 18.494 min
Base peak: 79.0212
Precursor m/z: 238.0863
Precursor type: [M+H]+
Precursor intensity: 1179482.125
m/z	relative intensity	assigned
53.0387	31	C4H5+
65.0386	33	C5H5+
72.0443	19	C3H6NO+
77.0387	9	C6H5+
79.0543	25	C6H7+
91.0543	91	C7H7+
95.0491	69	C6H7O+
104.0495	53	C7H6N+
105.0336	310	C7H5O+
106.0652	103	C7H8N+
115.0544	40	C9H7+
124.0761	27	C7H10NO+
128.0621	12	C10H8+
130.029	56	C8H4NO+
132.0448	14	C8H6NO+
133.0286	24	C8H5O2+
134.0601	315	C8H8NO+
139.0544	10	C11H7+
141.0701	39	C11H9+
152.062	61	C12H8+
153.0701	29	C12H9+
155.0858	48	C12H11+
160.0394	88	C9H6NO2+
165.07	999	C13H9+
166.0656	21	C12H8N+
166.078	26	C13H10+
167.0731	813	C12H9N+
168.0569	52	C12H8O+
169.0643	9	C12H9O+
177.0576	32	C13H7N+
180.0808	176	C13H10N+
181.065	14	C13H9O+
181.0889	106	C13H11N+
182.0598	9	C12H8NO+
182.097	36	C13H12N+
183.0806	15	C13H11O+
190.0654	55	C14H8N+
191.0731	52	C14H9N+
192.0807	72	C14H10N+
193.0651	173	C14H9O+
193.0882	64	C14H11N+
194.0603	32	C13H8NO+
194.0731	24	C14H10O+
195.068	692	C13H9NO+
197.0599	10	C13H9O2+
198.0687	10	C13H10O2+
208.0758	28	C14H10NO+
209.0836	68	C14H11NO+
210.0914	89	C14H12NO+
211.0758	26	C14H11O2+
220.0762	51	C15H10NO+
221.0601	43	C15H9O2+
222.0551	75	C14H8NO2+
223.0629	553	C14H9NO2+
236.0711	24	C15H10NO2+
238.0863	252	C15H12NO2+
