Mass spectrum: Acetohexamide; LC-ESI-QFT; MS2; CE: 90; R=17500; [M+H]+
Name: Acetohexamide
Name: 1-(4-acetylphenyl)sulfonyl-3-cyclohexylurea
Formula: C15H20N2O4S
Exact mass: 324.1144
SMILES: CC(=O)C1=CC=C(C=C1)S(=O)(=O)NC(=O)NC1CCCCC1
InChI: InChI=1S/C15H20N2O4S/c1-11(18)12-7-9-14(10-8-12)22(20,21)17-15(19)16-13-5-3-2-4-6-13/h7-10,13H,2-6H2,1H3,(H2,16,17,19)
Instrument: Q Exactive Orbitrap (Thermo Scientific)
Instrument type: LC-ESI-QFT
Ms type: MS2
Ion mode: POSITIVE
Ionization: ESI
Fragmentation mode: HCD
Collision energy: 90
Resolution: 17500
Column name: Acquity BEH C18 1.7um, 2.1x150mm (Waters)
Retention time: 16.086 min
Base peak: 79.0212
Precursor m/z: 325.1217
Precursor type: [M+H]+
Precursor intensity: 1418056.21875
m/z	relative intensity	assigned
53.0022	10	C3HO+
53.0386	47	C4H5+
55.0543	172	C4H7+
65.0386	185	C5H5+
67.0542	44	C5H7+
69.0334	8	C4H5O+
79.0542	73	C6H7+
81.0336	7	C5H5O+
81.0699	27	C6H9+
83.0855	19	C6H11+
91.0542	999	C7H7+
93.0699	36	C7H9+
95.0491	96	C6H7O+
95.0854	6	C7H11+
103.0542	38	C8H7+
105.0448	45	C6H5N2+
105.0699	95	C8H9+
107.0491	37	C7H7O+
107.0854	10	C8H11+
109.0648	6	C7H9O+
109.1012	4	C8H13+
115.0542	86	C9H7+
117.0699	57	C9H9+
119.0492	16	C8H7O+
119.0856	84	C9H11+
121.0648	93	C8H9O+
128.062	144	C10H8+
129.0699	61	C10H9+
130.0778	22	C10H10+
131.0491	29	C9H7O+
131.0857	24	C10H11+
132.0569	74	C9H8O+
133.0647	8	C9H9O+
133.1009	5	C10H13+
135.0808	6	C9H11O+
141.0699	69	C11H9+
142.0777	31	C11H10+
143.0855	35	C11H11+
144.0569	27	C10H8O+
145.0648	62	C10H9O+
145.1013	15	C11H13+
147.0554	22	C8H7N2O+
147.0805	77	C10H11O+
152.0618	26	C12H8+
153.0697	41	C12H9+
155.0605	12	C10H7N2+
155.0855	30	C12H11+
157.0649	28	C11H9O+
158.0726	63	C11H10O+
159.0805	22	C11H11O+
165.0699	97	C13H9+
166.0778	27	C13H10+
167.0852	32	C13H11+
169.0646	23	C12H9O+
171.0804	75	C12H11O+
173.0962	11	C12H13O+
178.0777	46	C14H10+
179.0856	81	C14H11+
180.0934	18	C14H12+
181.0648	60	C13H9O+
181.1015	16	C14H13+
182.0729	26	C13H10O+
183.0803	12	C13H11O+
189.0697	46	C15H9+
190.0778	36	C15H10+
191.0853	40	C15H11+
193.1011	21	C15H13+
194.0723	28	C14H10O+
195.0806	74	C14H11O+
195.1172	7	C15H15+
196.0884	27	C14H12O+
197.0961	14	C14H13O+
202.0778	31	C8H14N2O2S+
203.0852	32	C8H15N2O2S+
204.094	13	C8H16N2O2S+
205.1015	20	C8H17N2O2S+
207.0803	53	C15H11O+
207.1169	6	C8H19N2O2S+
208.0885	44	C15H12O+
209.096	50	C15H13O+
210.1039	13	C15H14O+
215.0855	36	C9H15N2O2S+
216.0936	17	C9H16N2O2S+
217.1011	10	C9H17N2O2S+
219.0804	22	C8H15N2O3S+
219.1174	8	C9H19N2O2S+
220.0883	10	C8H16N2O3S+
221.0963	42	C8H17N2O3S+
222.1037	22	C8H18N2O3S+
223.1121	30	C8H19N2O3S+
224.1197	4	C8H20N2O3S+
228.0937	6	C10H16N2O2S+
229.1015	16	C10H17N2O2S+
232.0878	12	C9H16N2O3S+
233.0956	9	C9H17N2O3S+
234.1039	9	C9H18N2O3S+
235.1117	11	C9H19N2O3S+
236.1198	6	C9H20N2O3S+
245.096	13	C10H17N2O3S+
246.1042	4	C10H18N2O3S+
247.1119	8	C10H19N2O3S+
259.1116	10	C11H19N2O3S+
261.1251	5	C11H21N2O3S+
