Mass spectrum: Praziquantel; LC-ESI-QFT; MS2; CE: 90; R=17500; [M+H]+
Name: Praziquantel
Name: 2-(cyclohexanecarbonyl)-3,6,7,11b-tetrahydro-1H-pyrazino[2,1-a]isoquinolin-4-one
Formula: C19H24N2O2
Exact mass: 312.1838
SMILES: O=C(C1CCCCC1)N1CC2N(CCC3=C2C=CC=C3)C(=O)C1
InChI: InChI=1S/C19H24N2O2/c22-18-13-20(19(23)15-7-2-1-3-8-15)12-17-16-9-5-4-6-14(16)10-11-21(17)18/h4-6,9,15,17H,1-3,7-8,10-13H2
Instrument: Q Exactive Orbitrap (Thermo Scientific)
Instrument type: LC-ESI-QFT
Ms type: MS2
Ion mode: POSITIVE
Ionization: ESI
Fragmentation mode: HCD
Collision energy: 90
Resolution: 17500
Column name: Acquity BEH C18 1.7um, 2.1x150mm (Waters)
Retention time: 17.238 min
Base peak: 79.0211
Precursor m/z: 313.1911
Precursor type: [M+H]+
Precursor intensity: 11727729.1875
m/z	relative intensity	assigned
53.0023	15	C3HO+
53.0386	23	C4H5+
53.9975	2	C2NO+
54.0339	8	C3H4N+
55.0543	999	C4H7+
56.0495	1	C3H6N+
58.0286	1	C2H4NO+
72.0443	49	C3H6NO+
79.0542	3	C6H7+
81.0697	2	C6H9+
83.0855	356	C6H11+
91.0542	18	C7H7+
103.0542	15	C8H7+
105.0699	52	C8H9+
115.0542	40	C9H7+
116.0621	3	C9H8+
117.0573	33	C8H7N+
117.0698	78	C9H9+
118.0651	3	C8H8N+
119.0854	6	C9H11+
128.062	67	C10H8+
129.0698	173	C10H9+
130.0651	66	C9H8N+
131.073	42	C9H9N+
131.0854	2	C10H11+
132.0807	414	C9H10N+
143.0728	7	C10H9N+
144.0807	43	C10H10N+
145.0648	7	C10H9O+
145.0886	54	C10H11N+
146.0964	107	C10H12N+
155.0603	10	C10H7N2+
156.0809	2	C11H10N+
158.0963	12	C11H12N+
171.0916	1	C11H11N2+
174.0913	106	C11H12NO+
185.1072	2	C12H13N2+
203.1177	1	C12H15N2O+
