Mass spectrum: Diflufenican; LC-ESI-QFT; MS2; CE: 60; R=17500; [M-H]-
Name: Diflufenican
Name: N-(2,4-difluorophenyl)-2-[3-(trifluoromethyl)phenoxy]pyridine-3-carboxamide
Formula: C19H11F5N2O2
Exact mass: 394.0741
SMILES: FC1=CC=C(NC(=O)C2=C(OC3=CC(=CC=C3)C(F)(F)F)N=CC=C2)C(F)=C1
InChI: InChI=1S/C19H11F5N2O2/c20-12-6-7-16(15(21)10-12)26-17(27)14-5-2-8-25-18(14)28-13-4-1-3-11(9-13)19(22,23)24/h1-10H,(H,26,27)
Instrument: Q Exactive Orbitrap (Thermo Scientific)
Instrument type: LC-ESI-QFT
Ms type: MS2
Ion mode: NEGATIVE
Ionization: ESI
Fragmentation mode: HCD
Collision energy: 60
Resolution: 17500
Column name: Acquity BEH C18 1.7um, 2.1x150mm (Waters)
Retention time: 19.046 min
Base peak: 271.9888
Precursor m/z: 393.0668
Precursor type: [M-H]-
Precursor intensity: 6953047.595703
m/z	relative intensity	assigned
50.0035	3	C3N-
62.9888	3	CFO2-
65.0033	60	C4HO-
66.035	2	C4H4N-
68.9957	27	CF3-
73.0084	3	C6H-
76.0193	6	C5H2N-
85.0094	2	C4H2FO-
89.0033	8	C6HO-
92.9957	2	C3F3-
94.0299	9	C5H4NO-
96.0255	94	C5H3FN-
108.0255	4	C6H3FN-
109.0096	4	C6H2FO-
121.0096	2	C7H2FO-
136.0205	2	C7H3FNO-
143.0113	11	C7H2F3-
152.0154	17	C7H3FNO2-
159.0365	3	C9H4FN2-
161.022	80	C7H4F3O-
165.0458	64	C11H5N2-
166.0298	40	C11H4NO-
176.0155	2	C9H3FNO2-
180.0329	16	C11H4N2O-
181.041	2	C11H5N2O-
183.0119	4	C14HN-
183.0364	3	C11H4FN2-
185.0332	23	C8H4F3N2-
185.052	416	C11H6FN2-
186.0361	34	C11H5FNO-
188.0318	9	C11H4F2N-
192.0257	16	C13H3FN-
195.0368	3	C12H4FN2-
198.0359	2	C12H5FNO-
200.0393	16	C11H5FN2O-
201.047	13	C11H6FN2O-
202.0471	3	C12H6F2N-
209.0349	10	C7H5F4N2O-
211.0316	7	C12H4FN2O-
212.0317	341	C13H4F2N-
215.0429	2	C12H5F2N2-
217.0348	6	C12H5F2NO-
218.041	2	C15H5FN-
228.0344	7	C12H5FN2O2-
229.0419	46	C12H6FN2O2-
230.0426	3	C13H6F2NO-
232.0379	155	C13H5F3N-
235.0253	8	C12H4F3NO-
235.0487	17	C12H6F3N2-
237.0459	9	C17H5N2-
238.0488	9	C12H7F3NO-
242.0418	4	C14H6F2NO-
243.0139	4	C13H3F2NO2-
243.0377	7	C13H5F2N2O-
249.046	17	C18H5N2-
250.029	11	C13H4F4N-
252.0442	999	C13H6F4N-
257.0521	30	C17H6FN2-
263.02	18	C13H4F3NO2-
263.0436	23	C13H6F3N2O-
264.0505	3	C16H6F2N2-
265.0404	16	C10H6F5N2O-
267.0322	11	C10H6F5NO2-
268.0446	10	C18H5FN2-
269.0519	58	C18H6FN2-
270.0348	91	C13H5F5N-
271.0317	2	C17H4FN2O-
272.0505	168	C13H7F5N-
276.0286	4	C14H5F3NO2-
277.0578	12	C17H7F2N2-
282.0535	4	C17H7F3N-
283.0503	7	C13H7F4N2O-
284.0353	7	C13H5F5N2-
285.0469	43	C18H6FN2O-
288.0497	14	C18H6F2N2-
289.0585	43	C18H7F2N2-
296.0567	15	C17H7F3N2-
297.0645	13	C17H8F3N2-
301.042	4	C18H6FN2O2-
305.0532	8	C18H7F2N2O-
307.0488	16	C18H6F3N2-
308.0569	6	C18H7F3N2-
309.064	17	C18H8F3N2-
313.0419	5	C19H6FN2O2-
324.0513	24	C18H7F3N2O-
325.0596	29	C18H8F3N2O-
329.0708	7	C18H9F4N2-
335.0438	20	C19H6F3N2O-
336.0365	4	C16H5F5N2O-
353.0552	8	C19H8F3N2O2-
