Mass spectrum: FR130739; LC-ESI-QFT; MS2; CE: 45; R=17500; [M-H]-
Name: FR130739
Name: FK-739 free acid
Name: 2-butyl-3-[[4-[2-(2H-tetrazol-5-yl)phenyl]phenyl]methyl]imidazo[4,5-b]pyridine
Formula: C24H23N7
Exact mass: 409.2015
SMILES: CCCCC1=NC2=C(N=CC=C2)N1CC1=CC=C(C=C1)C1=CC=CC=C1C1=NN=NN1
InChI: InChI=1S/C24H23N7/c1-2-3-10-22-26-21-9-6-15-25-24(21)31(22)16-17-11-13-18(14-12-17)19-7-4-5-8-20(19)23-27-29-30-28-23/h4-9,11-15H,2-3,10,16H2,1H3,(H,27,28,29,30)
Instrument: Q Exactive Orbitrap (Thermo Scientific)
Instrument type: LC-ESI-QFT
Ms type: MS2
Ion mode: NEGATIVE
Ionization: ESI
Fragmentation mode: HCD
Collision energy: 45
Resolution: 17500
Column name: Acquity BEH C18 1.7um, 2.1x150mm (Waters)
Retention time: 16.686 min
Base peak: 408.1942
Precursor m/z: 408.1942
Precursor type: [M-H]-
Precursor intensity: 16719141.87891
m/z	relative intensity	assigned
118.041	1	C6H4N3-
131.0489	72	C7H5N3-
132.0567	8	C7H6N3-
144.0567	49	C8H6N3-
172.0885	2	C10H10N3-
174.1036	999	C10H12N3-
177.071	2	C14H9-
195.0813	4	C12H9N3-
