Mass spectrum: Vincamine; LC-ESI-QFT; MS2; CE: 30; R=17500; [M+H]+
Name: Vincamine
Name: methyl (15S,17S,19S)-15-ethyl-17-hydroxy-1,11-diazapentacyclo[9.6.2.02,7.08,18.015,19]nonadeca-2,4,6,8(18)-tetraene-17-carboxylate
Formula: C21H26N2O3
Exact mass: 354.1943
SMILES: CC[C@@]12CCCN3CCC4=C([C@H]13)N(C1=C4C=CC=C1)[C@](O)(C2)C(=O)OC
InChI: InChI=1S/C21H26N2O3/c1-3-20-10-6-11-22-12-9-15-14-7-4-5-8-16(14)23(17(15)18(20)22)21(25,13-20)19(24)26-2/h4-5,7-8,18,25H,3,6,9-13H2,1-2H3/t18-,20+,21+/m1/s1
Instrument: Q Exactive Orbitrap (Thermo Scientific)
Instrument type: LC-ESI-QFT
Ms type: MS2
Ion mode: POSITIVE
Ionization: ESI
Fragmentation mode: HCD
Collision energy: 30
Resolution: 17500
Column name: Acquity BEH C18 1.7um, 2.1x150mm (Waters)
Retention time: 12.617 min
Base peak: 79.0211
Precursor m/z: 355.2016
Precursor type: [M+H]+
Precursor intensity: 19938448.25
m/z	relative intensity	assigned
70.0651	4	C4H8N+
84.0808	1	C5H10N+
110.0965	2	C7H12N+
112.112	2	C7H14N+
124.1122	1	C8H14N+
144.0807	37	C10H10N+
152.107	5	C9H14NO+
156.0808	1	C11H10N+
158.0965	1	C11H12N+
180.102	1	C10H14NO2+
185.1073	1	C12H13N2+
194.1176	9	C11H16NO2+
212.128	51	C11H18NO3+
222.128	1	C16H16N+
224.1434	1	C16H18N+
236.1434	3	C17H18N+
239.0946	1	C15H13NO2+
246.128	2	C18H16N+
248.1435	1	C18H18N+
250.1589	6	C18H20N+
252.1035	1	C16H14NO2+
253.1698	4	C17H21N2+
254.1177	1	C16H16NO2+
264.1029	1	C17H14NO2+
266.117	2	C17H16NO2+
266.154	1	C18H20NO+
267.1257	2	C17H17NO2+
268.1331	19	C17H18NO2+
274.1231	1	C19H16NO+
277.1697	8	C19H21N2+
278.1778	2	C19H22N2+
279.1258	1	C18H17NO2+
280.1331	43	C18H18NO2+
282.1489	4	C18H20NO2+
292.1337	1	C19H18NO2+
294.1488	60	C19H20NO2+
295.1804	37	C19H23N2O+
305.1649	5	C20H21N2O+
306.1489	7	C20H20NO2+
307.1438	1	C19H19N2O2+
308.1656	68	C20H22NO2+
309.16	3	C19H21N2O2+
310.1802	21	C20H24NO2+
320.1652	3	C21H22NO2+
324.1601	2	C20H22NO3+
325.1917	2	C20H25N2O2+
326.1762	6	C20H24NO3+
337.1909	999	C21H25N2O2+
338.1748	4	C21H24NO3+
355.2014	873	C21H27N2O3+
