Mass spectrum: Chloranocryl; LC-ESI-QFT; MS2; CE: 90; R=17500; [M-H]-
Name: Chloranocryl
Name: N-(3,4-dichlorophenyl)-2-methylprop-2-enamide
Formula: C10H9Cl2NO
Exact mass: 229.0061
SMILES: CC(=C)C(=O)NC1=CC=C(Cl)C(Cl)=C1
InChI: InChI=1S/C10H9Cl2NO/c1-6(2)10(14)13-7-3-4-8(11)9(12)5-7/h3-5H,1H2,2H3,(H,13,14)
Instrument: Q Exactive Orbitrap (Thermo Scientific)
Instrument type: LC-ESI-QFT
Ms type: MS2
Ion mode: NEGATIVE
Ionization: ESI
Fragmentation mode: HCD
Collision energy: 90
Resolution: 17500
Column name: Acquity BEH C18 1.7um, 2.1x150mm (Waters)
Retention time: 17.863 min
Base peak: 227.999
Precursor m/z: 227.9988
Precursor type: [M-H]-
Precursor intensity: 39052315.19434
m/z	relative intensity	assigned
55.0189	999	C3H3O-
86.0037	41	C6N-
89.0032	6	C6HO-
98.9644	54	C4ClO-
100.0194	18	C7H2N-
113.9986	27	C7NO-
114.035	5	C8H4N-
121.9803	94	C6HClN-
123.9962	4	C6H3ClN-
124.98	54	C6H2ClO-
149.9752	121	C7HClNO-
155.0377	27	C10H5NO-
156.0455	45	C10H6NO-
159.9729	12	C6H4Cl2N-
160.9566	27	C6H3Cl2O-
185.952	12	C7H2Cl2NO-
190.007	14	C10H5ClNO-
225.9832	4	C10H6Cl2NO-
