Mass spectrum: Meloxicam; LC-ESI-QFT; MS2; CE: 30; R=17500; [M-H]-
Name: Meloxicam
Name: 4-hydroxy-2-methyl-N-(5-methyl-1,3-thiazol-2-yl)-1,1-dioxo-1lambda6,2-benzothiazine-3-carboxamide
Formula: C14H13N3O4S2
Exact mass: 351.0347
SMILES: CN1C(C(=O)NC2=NC=C(C)S2)=C(O)C2=C(C=CC=C2)S1(=O)=O
InChI: InChI=1S/C14H13N3O4S2/c1-8-7-15-14(22-8)16-13(19)11-12(18)9-5-3-4-6-10(9)23(20,21)17(11)2/h3-7,18H,1-2H3,(H,15,16,19)
Instrument: Q Exactive Orbitrap (Thermo Scientific)
Instrument type: LC-ESI-QFT
Ms type: MS2
Ion mode: NEGATIVE
Ionization: ESI
Fragmentation mode: HCD
Collision energy: 30
Resolution: 17500
Column name: Acquity BEH C18 1.7um, 2.1x150mm (Waters)
Retention time: 16.796 min
Base peak: 189.0169
Precursor m/z: 350.0275
Precursor type: [M-H]-
Precursor intensity: 8391904.132813
m/z	relative intensity	assigned
86.007	1	C3H4NS-
113.0179	354	C4H5N2S-
118.0664	1	C8H8N-
119.0503	28	C8H7O-
124.9941	1	C5H3NOS-
127.0335	2	C5H7N2S-
128.0505	6	C9H6N-
131.0377	117	C8H5NO-
135.9862	1	C6H2NOS-
136.0226	6	C7H6NS-
140.0289	2	C5H6N3S-
144.0456	20	C9H6NO-
145.0296	15	C9H5O2-
146.0612	999	C9H8NO-
148.0225	5	C8H6NS-
148.9943	1	C7H3NOS-
150.9859	2	C7H3O2S-
151.9811	1	C6H2NO2S-
160.0405	9	C9H6NO2-
163.0101	1	C8H5NOS-
164.0176	23	C8H6NOS-
164.9888	4	C7H3NO2S-
168.0236	2	C6H6N3OS-
172.0403	1	C10H6NO2-
176.9892	5	C8H3NO2S-
182.0394	11	C7H8N3OS-
192.0126	118	C9H6NO2S-
200.047	1	C10H6N3O2-
208.0878	1	C13H10N3-
210.0231	110	C9H8NO3S-
214.0619	1	C11H8N3O2-
217.0438	5	C11H9N2OS-
240.0779	2	C13H10N3O2-
243.0471	1	C12H9N3OS-
252.078	60	C14H10N3O2-
271.0421	12	C13H9N3O2S-
286.0657	143	C14H12N3O2S-
350.0277	2	C14H12N3O4S2-
