Mass spectrum: Gibberellic acid; LC-ESI-QFT; MS2; CE: 45; R=17500; [M-H]-
Name: Gibberellic acid
Name: (1R,2R,5S,8S,9S,10R,11S,12S)-5,12-dihydroxy-11-methyl-6-methylidene-16-oxo-15-oxapentacyclo[9.3.2.15,8.01,10.02,8]heptadec-13-ene-9-carboxylic acid
Formula: C19H22O6
Exact mass: 346.1416
SMILES: C[C@@]12[C@H]3[C@H](C(O)=O)[C@@]45CC(=C)[C@@](O)(C4)CC[C@H]5[C@]3(OC1=O)C=C[C@@H]2O
InChI: InChI=1S/C19H22O6/c1-9-7-17-8-18(9,24)5-3-10(17)19-6-4-11(20)16(2,15(23)25-19)13(19)12(17)14(21)22/h4,6,10-13,20,24H,1,3,5,7-8H2,2H3,(H,21,22)/t10-,11+,12-,13-,16-,17+,18+,19-/m1/s1
Instrument: Q Exactive Orbitrap (Thermo Scientific)
Instrument type: LC-ESI-QFT
Ms type: MS2
Ion mode: NEGATIVE
Ionization: ESI
Fragmentation mode: HCD
Collision energy: 45
Resolution: 17500
Column name: Acquity BEH C18 1.7um, 2.1x150mm (Waters)
Retention time: 13.063 min
Base peak: 305.0968
Precursor m/z: 345.1344
Precursor type: [M-H]-
Precursor intensity: 8804997.505371
m/z	relative intensity	assigned
55.0189	3	C3H3O-
57.0346	4	C3H5O-
60.9932	2	CHO3-
69.0347	3	C4H5O-
71.0503	174	C4H7O-
73.0295	54	C3H5O2-
83.0502	118	C5H7O-
93.0347	1	C6H5O-
95.0503	4	C6H7O-
105.071	14	C8H9-
107.0502	3	C7H7O-
119.0868	3	C9H11-
121.0659	3	C8H9O-
129.0708	1	C10H9-
133.0659	4	C9H9O-
133.1024	1	C10H13-
143.0866	999	C11H11-
145.0657	4	C10H9O-
146.0735	8	C10H10O-
149.0971	5	C10H13O-
155.0865	3	C12H11-
157.0656	1	C11H9O-
157.1022	1	C12H13-
158.0734	1	C11H10O-
159.0814	9	C11H11O-
159.1179	1	C12H15-
161.0972	37	C11H13O-
169.0663	1	C12H9O-
169.1023	4	C13H13-
170.0733	1	C12H10O-
171.0813	6	C12H11O-
171.1176	3	C13H15-
172.0893	3	C12H12O-
173.0972	9	C12H13O-
179.0866	3	C14H11-
181.1025	2	C14H13-
183.0816	9	C13H11O-
183.1177	5	C14H15-
184.0896	2	C13H12O-
185.061	1	C12H9O2-
185.0971	11	C13H13O-
187.0763	2	C12H11O2-
187.1127	1	C13H15O-
189.092	2	C12H13O2-
193.1022	15	C15H13-
197.0972	6	C14H13O-
197.1337	19	C15H17-
198.0684	3	C13H10O2-
199.0763	9	C13H11O2-
199.113	9	C14H15O-
201.1284	28	C14H17O-
205.1022	6	C16H13-
206.1101	4	C16H14-
209.0972	14	C15H13O-
211.0768	1	C14H11O2-
211.113	2	C15H15O-
212.0846	1	C14H12O2-
213.0919	1	C14H13O2-
213.1287	18	C15H17O-
215.1439	3	C15H19O-
217.1231	3	C14H17O2-
219.1179	16	C17H15-
220.0895	1	C16H12O-
221.1336	364	C17H17-
223.1126	2	C16H15O-
227.1078	230	C15H15O2-
237.1282	10	C17H17O-
239.1075	2	C16H15O2-
239.1442	31	C17H19O-
241.1233	1	C16H17O2-
243.0657	5	C14H11O4-
245.118	1	C15H17O3-
253.1232	2	C17H17O2-
255.139	14	C17H19O2-
257.1548	16	C17H21O2-
265.1237	4	C18H17O2-
271.0979	20	C16H15O4-
273.1502	1	C17H21O3-
283.1338	13	C18H19O3-
301.1447	4	C18H21O4-
345.135	3	C19H21O6-
