Mass spectrum: Triamcinolone acetonide; LC-ESI-QFT; MS2; CE: 75; R=17500; [M+H]+
Name: Triamcinolone acetonide
Name: (1S,2S,4R,8S,9S,11S,12R,13S)-12-fluoro-11-hydroxy-8-(2-hydroxyacetyl)-6,6,9,13-tetramethyl-5,7-dioxapentacyclo[10.8.0.02,9.04,8.013,18]icosa-14,17-dien-16-one
Formula: C24H31FO6
Exact mass: 434.2105
SMILES: CC1(C)O[C@@H]2C[C@H]3[C@@H]4CCC5=CC(=O)C=C[C@]5(C)[C@@]4(F)[C@@H](O)C[C@]3(C)[C@@]2(O1)C(=O)CO
InChI: InChI=1S/C24H31FO6/c1-20(2)30-19-10-16-15-6-5-13-9-14(27)7-8-21(13,3)23(15,25)17(28)11-22(16,4)24(19,31-20)18(29)12-26/h7-9,15-17,19,26,28H,5-6,10-12H2,1-4H3/t15-,16-,17-,19+,21-,22-,23-,24+/m0/s1
Instrument: Q Exactive Orbitrap (Thermo Scientific)
Instrument type: LC-ESI-QFT
Ms type: MS2
Ion mode: POSITIVE
Ionization: ESI
Fragmentation mode: HCD
Collision energy: 75
Resolution: 17500
Column name: Acquity BEH C18 1.7um, 2.1x150mm (Waters)
Retention time: 16.761 min
Base peak: 79.0211
Precursor m/z: 435.2177
Precursor type: [M+H]+
Precursor intensity: 5769953.5625
m/z	relative intensity	assigned
53.0386	95	C4H5+
55.0179	356	C3H3O+
55.0542	134	C4H7+
59.0492	311	C3H7O+
65.0386	62	C5H5+
67.0543	264	C5H7+
69.0335	141	C4H5O+
69.07	40	C5H9+
71.0491	34	C4H7O+
77.0384	30	C6H5+
79.0543	421	C6H7+
81.0334	62	C5H5O+
81.0699	296	C6H9+
83.0492	41	C5H7O+
91.0543	999	C7H7+
93.07	377	C7H9+
95.0492	352	C6H7O+
95.0856	149	C7H11+
97.0284	48	C5H5O2+
97.065	47	C6H9O+
103.0543	106	C8H7+
105.0699	682	C8H9+
107.0492	123	C7H7O+
107.0855	70	C8H11+
109.0648	147	C7H9O+
111.0441	39	C6H7O2+
115.0543	300	C9H7+
116.0621	75	C9H8+
117.0699	263	C9H9+
119.0855	346	C9H11+
121.0648	981	C8H9O+
123.0442	28	C7H7O2+
128.0621	570	C10H8+
129.0701	291	C10H9+
130.0779	67	C10H10+
131.0494	49	C9H7O+
131.0855	256	C10H11+
132.057	176	C9H8O+
133.065	69	C9H9O+
133.1013	31	C10H13+
135.0804	88	C9H11O+
137.0598	31	C8H9O2+
141.0698	290	C11H9+
142.0776	124	C11H10+
143.0856	358	C11H11+
144.057	239	C10H8O+
145.0649	537	C10H9O+
145.1012	72	C11H13+
146.0727	82	C10H10O+
147.0805	648	C10H11O+
152.0622	78	C12H8+
153.0702	174	C12H9+
154.0776	46	C12H10+
155.0856	279	C12H11+
156.0572	43	C11H8O+
157.0651	95	C11H9O+
157.1016	60	C12H13+
158.0728	402	C11H10O+
159.0805	502	C11H11O+
161.096	75	C11H13O+
165.0702	356	C13H9+
166.0782	124	C13H10+
167.0856	225	C13H11+
168.0572	46	C12H8O+
169.0647	146	C12H9O+
169.1015	68	C13H13+
170.0728	69	C12H10O+
171.0805	665	C12H11O+
172.0886	71	C12H12O+
173.0961	159	C12H13O+
178.0778	261	C14H10+
179.0858	283	C14H11+
180.0934	169	C14H12+
181.065	169	C13H9O+
181.1014	115	C14H13+
182.0725	147	C13H10O+
182.1081	42	C14H14+
183.0807	157	C13H11O+
184.0885	62	C13H12O+
185.0964	135	C13H13O+
189.0702	112	C15H9+
190.0781	146	C15H10+
191.0857	294	C15H11+
192.0933	327	C15H12+
193.1015	139	C15H13+
194.0725	129	C14H10O+
195.0806	372	C14H11O+
195.1168	50	C15H15+
197.0962	155	C14H13O+
198.1039	146	C14H14O+
199.1119	35	C14H15O+
202.0782	157	C16H10+
203.0857	150	C16H11+
204.0934	63	C16H12+
205.0645	67	C15H9O+
205.1016	146	C16H13+
206.0727	31	C15H10O+
206.1094	61	C16H14+
207.0804	113	C15H11O+
207.1171	87	C16H15+
208.0884	277	C15H12O+
209.0964	397	C15H13O+
210.1041	129	C15H14O+
211.1119	37	C15H15O+
213.1277	76	C15H17O+
215.0857	156	C17H11+
216.0934	78	C17H12+
217.1014	130	C17H13+
218.0727	73	C16H10O+
219.0808	184	C16H11O+
219.1168	35	C17H15+
220.0883	67	C16H12O+
221.096	182	C16H13O+
222.1044	131	C16H14O+
223.1119	106	C16H15O+
225.1275	49	C16H17O+
229.1016	110	C18H13+
230.1103	45	C15H15FO+
231.0805	109	C17H11O+
231.117	28	C18H15+
232.0883	89	C17H12O+
233.0964	213	C17H13O+
234.1036	59	C17H14O+
235.1119	143	C17H15O+
241.1016	37	C19H13+
242.109	51	C19H14+
245.0965	189	C18H13O+
246.1043	61	C18H14O+
247.1122	85	C18H15O+
248.1197	62	C18H16O+
259.1117	72	C19H15O+
