Mass spectrum: CP-612372; LC-ESI-QFT; MS2; CE: 15; R=17500; [M-H]-
Name: CP-612372
Name: 2-(2,1,3-Benzoxadiazol-5-yloxy)-N-((4-(1-hydroxy-1-methylethyl)phenyl)methyl)-3-pyridinecarboxamide
Name: 2-(2,1,3-benzoxadiazol-5-yloxy)-N-[[4-(2-hydroxypropan-2-yl)phenyl]methyl]pyridine-3-carboxamide
Formula: C22H20N4O4
Exact mass: 404.1485
SMILES: CC(C)(O)C1=CC=C(CNC(=O)C2=CC=CN=C2OC2=CC3=NON=C3C=C2)C=C1
InChI: InChI=1S/C22H20N4O4/c1-22(2,28)15-7-5-14(6-8-15)13-24-20(27)17-4-3-11-23-21(17)29-16-9-10-18-19(12-16)26-30-25-18/h3-12,28H,13H2,1-2H3,(H,24,27)
Instrument: Q Exactive Orbitrap (Thermo Scientific)
Instrument type: LC-ESI-QFT
Ms type: MS2
Ion mode: NEGATIVE
Ionization: ESI
Fragmentation mode: HCD
Collision energy: 15
Resolution: 17500
Column name: Acquity BEH C18 1.7um, 2.1x150mm (Waters)
Retention time: 16.352 min
Base peak: 202.9785
Precursor m/z: 403.1412
Precursor type: [M-H]-
Precursor intensity: 7129894.0625
m/z	relative intensity	assigned
57.0346	1	C3H5O-
94.0299	3	C5H4NO-
119.0253	1	C6H3N2O-
122.0246	1	C6H4NO2-
133.0282	1	C6H3N3O-
134.0363	1	C6H4N3O-
135.0201	24	C6H3N2O2-
138.0197	23	C6H4NO3-
237.0417	7	C12H5N4O2-
240.0417	20	C12H6N3O3-
241.0493	16	C12H7N3O3-
242.0577	2	C12H8N3O3-
250.0494	1	C13H6N4O2-
268.0981	1	C16H14NO3-
282.1248	141	C16H16N3O2-
307.1085	3	C18H15N2O3-
327.0889	5	C19H11N4O2-
330.1247	1	C20H16N3O2-
342.1243	4	C21H16N3O2-
355.1326	3	C22H17N3O2-
358.1198	2	C21H16N3O3-
359.1503	3	C21H19N4O2-
360.1353	3	C21H18N3O3-
367.1192	7	C22H15N4O2-
368.1273	3	C22H16N4O2-
369.099	2	C21H13N4O3-
370.1054	1	C21H14N4O3-
384.1223	1	C22H16N4O3-
385.1307	645	C22H17N4O3-
386.1386	1	C22H18N4O3-
403.1411	999	C22H19N4O4-
