Mass spectrum: N-(3-Chloro-4-methylphenyl)acetamide; LC-ESI-QFT; MS2; CE: 60; R=17500; [M+H]+
Name: N-(3-Chloro-4-methylphenyl)acetamide
Formula: C9H10ClNO
Exact mass: 183.0451
SMILES: CC(=O)NC1=CC(Cl)=C(C)C=C1
InChI: InChI=1S/C9H10ClNO/c1-6-3-4-8(5-9(6)10)11-7(2)12/h3-5H,1-2H3,(H,11,12)
Instrument: Q Exactive Orbitrap (Thermo Scientific)
Instrument type: LC-ESI-QFT
Ms type: MS2
Ion mode: POSITIVE
Ionization: ESI
Fragmentation mode: HCD
Collision energy: 60
Resolution: 17500
Column name: Acquity BEH C18 1.7um, 2.1x150mm (Waters)
Retention time: 16.482 min
Base peak: 79.0211
Precursor m/z: 184.0524
Precursor type: [M+H]+
Precursor intensity: 1095396.28125
m/z	relative intensity	assigned
106.0652	32	C7H8N+
107.073	999	C7H9N+
127.0184	13	C6H6ClN+
131.073	4	C9H9N+
138.0124	3	C7H5ClN+
142.0419	598	C7H9ClN+
143.0256	3	C7H8ClO+
166.0417	3	C9H9ClN+
184.0527	24	C9H11ClNO+
