Mass spectrum: Metconazole; LC-ESI-QFT; MS2; CE: 60; R=17500; [M+H]+
Name: Metconazole
Name: 5-[(4-chlorophenyl)methyl]-2,2-dimethyl-1-(1,2,4-triazol-1-ylmethyl)cyclopentan-1-ol
Formula: C17H22ClN3O
Exact mass: 319.1451
SMILES: CC1(C)CCC(CC2=CC=C(Cl)C=C2)C1(O)CN1C=NC=N1
InChI: InChI=1S/C17H22ClN3O/c1-16(2)8-7-14(9-13-3-5-15(18)6-4-13)17(16,22)10-21-12-19-11-20-21/h3-6,11-12,14,22H,7-10H2,1-2H3
Instrument: Q Exactive Orbitrap (Thermo Scientific)
Instrument type: LC-ESI-QFT
Ms type: MS2
Ion mode: POSITIVE
Ionization: ESI
Fragmentation mode: HCD
Collision energy: 60
Resolution: 17500
Column name: Acquity BEH C18 1.7um, 2.1x150mm (Waters)
Retention time: 18.878 min
Base peak: 79.0211
Precursor m/z: 320.1524
Precursor type: [M+H]+
Precursor intensity: 25122018.25
m/z	relative intensity	assigned
55.0543	1	C4H7+
59.0491	5	C3H7O+
67.0542	3	C5H7+
69.0698	2	C5H9+
70.0399	999	C2H4N3+
79.054	1	C6H7+
81.0699	2	C6H9+
93.0699	1	C7H9+
95.0855	12	C7H11+
103.0542	1	C8H7+
107.0855	2	C8H11+
125.0153	114	C7H6Cl+
128.0619	1	C10H8+
139.0309	6	C8H8Cl+
142.0777	5	C11H10+
151.0308	4	C9H8Cl+
163.0309	5	C10H8Cl+
177.0466	7	C11H10Cl+
191.0621	1	C12H12Cl+
