Mass spectrum: Betamethasone; LC-ESI-QFT; MS2; CE: 45; R=17500; [M+H]+
Name: Betamethasone
Name: (8S,9R,10S,11S,13S,14S,16S,17R)-9-fluoro-11,17-dihydroxy-17-(2-hydroxyacetyl)-10,13,16-trimethyl-6,7,8,11,12,14,15,16-octahydrocyclopenta[a]phenanthren-3-one
Formula: C22H29FO5
Exact mass: 392.1999
SMILES: C[C@H]1C[C@H]2[C@@H]3CCC4=CC(=O)C=C[C@]4(C)[C@@]3(F)[C@@H](O)C[C@]2(C)[C@@]1(O)C(=O)CO
InChI: InChI=1S/C22H29FO5/c1-12-8-16-15-5-4-13-9-14(25)6-7-19(13,2)21(15,23)17(26)10-20(16,3)22(12,28)18(27)11-24/h6-7,9,12,15-17,24,26,28H,4-5,8,10-11H2,1-3H3/t12-,15-,16-,17-,19-,20-,21-,22-/m0/s1
Instrument: Q Exactive Orbitrap (Thermo Scientific)
Instrument type: LC-ESI-QFT
Ms type: MS2
Ion mode: POSITIVE
Ionization: ESI
Fragmentation mode: HCD
Collision energy: 45
Resolution: 17500
Column name: Acquity BEH C18 1.7um, 2.1x150mm (Waters)
Retention time: 16.590 min
Base peak: 79.0212
Precursor m/z: 393.2072
Precursor type: [M+H]+
Precursor intensity: 4212598.75
m/z	relative intensity	assigned
93.07	129	C7H9+
95.0857	172	C7H11+
105.0337	136	C7H5O+
105.07	95	C8H9+
107.0856	339	C8H11+
109.0649	62	C7H9O+
109.1013	171	C8H13+
117.0699	69	C9H9+
119.0856	260	C9H11+
121.0647	312	C8H9O+
121.1012	127	C9H13+
123.0803	131	C8H11O+
125.0598	70	C7H9O2+
131.0858	160	C10H11+
135.0805	275	C9H11O+
143.0857	89	C11H11+
145.0649	97	C10H9O+
145.1013	61	C11H13+
147.0806	999	C10H11O+
149.0957	137	C10H13O+
153.0911	78	C9H13O2+
159.0805	356	C11H11O+
161.0964	172	C11H13O+
171.0805	536	C12H11O+
173.0962	272	C12H13O+
185.0967	164	C10H14FO2+
187.075	63	C12H11O2+
187.1119	64	C13H15O+
197.0963	196	C14H13O+
199.1119	76	C14H15O+
211.1121	164	C15H15O+
215.1067	79	C14H15O2+
222.1044	109	C16H14O+
223.1124	201	C13H16FO2+
225.1276	89	C16H17O+
235.1118	135	C17H15O+
237.1277	191	C17H17O+
263.1433	192	C19H19O+
277.1589	97	C20H21O+
279.1747	192	C20H23O+
