Mass spectrum: (4-Aminophenyl)arsonic acid; LC-ESI-QFT; MS2; CE: 90; R=17500; [M+H]+
Name: (4-Aminophenyl)arsonic acid
Name: Arsanilic acid
Formula: C6H8AsNO3
Exact mass: 216.9720
SMILES: NC1=CC=C(C=C1)[As](O)(O)=O
InChI: InChI=1S/C6H8AsNO3/c8-6-3-1-5(2-4-6)7(9,10)11/h1-4H,8H2,(H2,9,10,11)
Instrument: Q Exactive Orbitrap (Thermo Scientific)
Instrument type: LC-ESI-QFT
Ms type: MS2
Ion mode: POSITIVE
Ionization: ESI
Fragmentation mode: HCD
Collision energy: 90
Resolution: 17500
Column name: Acquity BEH C18 1.7um, 2.1x150mm (Waters)
Retention time: 2.514 min
Base peak: 79.0211
Precursor m/z: 217.9793
Precursor type: [M+H]+
Precursor intensity: 6701132.0625
m/z	relative intensity	assigned
53.0022	18	C3HO+
53.0386	16	C4H5+
55.0544	1	C4H7+
56.0495	5	C3H6N+
65.0385	999	C5H5+
66.0338	5	C4H4N+
68.0495	2	C4H6N+
80.0494	592	C5H6N+
81.0573	69	C5H7N+
82.0413	14	C5H6O+
82.0651	2	C5H8N+
83.0491	3	C5H7O+
90.916	83	AsO+
92.0495	96	C6H6N+
93.0336	1	C6H5O+
93.0575	8	C6H7N+
96.0442	1	C5H6NO+
100.9368	4	C2H2As+
108.0444	355	C6H6NO+
109.0522	575	C6H7NO+
110.06	16	C6H8NO+
111.0442	5	C6H7O2+
126.9525	7	C4H4As+
129.9857	81	AsH9NO2+
143.965	13	AsH7NO3+
144.963	3	C4H6AsO+
145.9807	6	AsH9NO3+
153.9638	3	C5H5AsN+
