Mass spectrum: Haloxyfop; LC-ESI-QFT; MS2; CE: 60; R=17500; [M-H]-
Name: Haloxyfop
Name: 2-[4-[3-chloro-5-(trifluoromethyl)pyridin-2-yl]oxyphenoxy]propanoic acid
Formula: C15H11ClF3NO4
Exact mass: 361.0329
SMILES: CC(OC1=CC=C(OC2=NC=C(C=C2Cl)C(F)(F)F)C=C1)C(O)=O
InChI: InChI=1S/C15H11ClF3NO4/c1-8(14(21)22)23-10-2-4-11(5-3-10)24-13-12(16)6-9(7-20-13)15(17,18)19/h2-8H,1H3,(H,21,22)
Instrument: Q Exactive Orbitrap (Thermo Scientific)
Instrument type: LC-ESI-QFT
Ms type: MS2
Ion mode: NEGATIVE
Ionization: ESI
Fragmentation mode: HCD
Collision energy: 60
Resolution: 17500
Column name: Acquity BEH C18 1.7um, 2.1x150mm (Waters)
Retention time: 18.614 min
Base peak: 360.0257
Precursor m/z: 360.0256
Precursor type: [M-H]-
Precursor intensity: 14938298.46289
m/z	relative intensity	assigned
67.019	3	C4H3O-
69.0346	20	C4H5O-
71.0139	319	C3H3O2-
95.0302	4	C6H4F-
97.0296	14	C5H5O2-
108.0217	419	C6H4O2-
117.0345	4	C8H5O-
156.0255	11	C10H3FN-
162.0172	27	C6H3F3NO-
164.0144	2	C11H2NO-
168.0257	4	C11H3FN-
170.0223	106	C8H3F3N-
175.9718	9	C6HClF2NO-
176.032	12	C10H4F2N-
177.0157	9	C10H3F2O-
179.9834	133	C6H2ClF3N-
184.0203	47	C11H3FNO-
188.0315	3	C11H4F2N-
195.9783	999	C6H2ClF3NO-
196.0374	60	C10H5F3N-
197.0219	46	C10H4F3O-
197.9938	14	C6H4ClF3NO-
204.0266	96	C11H4F2NO-
208.0375	18	C11H5F3N-
212.0154	13	C12H3FNO2-
214.0491	13	C10H7F3NO-
224.0329	83	C11H5F3NO-
232.0215	67	C12H4F2NO2-
242.0432	5	C11H7F3NO2-
252.0279	219	C12H5F3NO2-
253.0357	18	C12H6F3NO2-
