Mass spectrum: SSR69071; LC-ESI-QFT; MS2; CE: 45; R=17500; [M+H]+
Name: SSR69071
Name: 6-methoxy-1,1-dioxo-2-[[4-oxo-9-(2-piperidin-1-ylethoxy)pyrido[1,2-a]pyrimidin-2-yl]oxymethyl]-4-propan-2-yl-1,2-benzothiazol-3-one
Formula: C27H32N4O7S
Exact mass: 556.1992
SMILES: COC1=CC2=C(C(=O)N(COC3=CC(=O)N4C=CC=C(OCCN5CCCCC5)C4=N3)S2(=O)=O)C(=C1)C(C)C
InChI: InChI=1S/C27H32N4O7S/c1-18(2)20-14-19(36-3)15-22-25(20)27(33)31(39(22,34)35)17-38-23-16-24(32)30-11-7-8-21(26(30)28-23)37-13-12-29-9-5-4-6-10-29/h7-8,11,14-16,18H,4-6,9-10,12-13,17H2,1-3H3
Instrument: Q Exactive Orbitrap (Thermo Scientific)
Instrument type: LC-ESI-QFT
Ms type: MS2
Ion mode: POSITIVE
Ionization: ESI
Fragmentation mode: HCD
Collision energy: 45
Resolution: 17500
Column name: Acquity BEH C18 1.7um, 2.1x150mm (Waters)
Retention time: 15.597 min
Base peak: 79.0211
Precursor m/z: 557.2064
Precursor type: [M+H]+
Precursor intensity: 4623321.75
m/z	relative intensity	assigned
53.0022	1	C3HO+
55.0542	4	C4H7+
56.0495	8	C3H6N+
58.0651	3	C3H8N+
69.0698	16	C5H9+
84.0808	11	C5H10N+
91.0542	1	C7H7+
110.0966	2	C7H12N+
112.112	999	C7H14N+
115.0541	1	C9H7+
147.0804	8	C10H11O+
149.0598	3	C9H9O2+
149.071	1	C8H9N2O+
153.0367	3	C8H9OS+
161.0598	1	C10H9O2+
161.0836	1	C10H11NO+
163.0629	1	C9H9NO2+
165.037	2	C9H9OS+
175.0752	1	C11H11O2+
176.0834	1	C11H12O2+
176.107	2	C11H14NO+
189.0784	6	C11H11NO2+
193.0318	5	C10H9O2S+
193.0493	1	C10H9O4+
195.0474	1	C10H11O2S+
204.102	4	C12H14NO2+
211.0425	1	C10H11O3S+
217.0608	14	C11H9N2O3+
221.0683	15	C11H11NO4+
232.1073	2	C12H14N3O2+
239.0372	12	C11H11O4S+
268.0637	36	C12H14NO4S+
