Mass spectrum: Metalaxyl; LC-ESI-QFT; MS2; CE: 15; R=17500; [M+H]+
Name: Metalaxyl
Name: methyl 2-(N-(2-methoxyacetyl)-2,6-dimethylanilino)propanoate
Formula: C15H21NO4
Exact mass: 279.1471
SMILES: COCC(=O)N(C(C)C(=O)OC)C1=C(C)C=CC=C1C
InChI: InChI=1S/C15H21NO4/c1-10-7-6-8-11(2)14(10)16(13(17)9-19-4)12(3)15(18)20-5/h6-8,12H,9H2,1-5H3
Instrument: Q Exactive Orbitrap (Thermo Scientific)
Instrument type: LC-ESI-QFT
Ms type: MS2
Ion mode: POSITIVE
Ionization: ESI
Fragmentation mode: HCD
Collision energy: 15
Resolution: 17500
Column name: Acquity BEH C18 1.7um, 2.1x150mm (Waters)
Retention time: 16.409 min
Base peak: 79.0211
Precursor m/z: 280.1543
Precursor type: [M+H]+
Precursor intensity: 35470372.75
m/z	relative intensity	assigned
132.0811	1	C9H10N+
148.1119	15	C10H14N+
160.1119	13	C11H14N+
162.1276	1	C11H16N+
165.1148	3	C10H15NO+
188.107	3	C12H14NO+
192.1382	145	C12H18NO+
208.1328	3	C12H18NO2+
220.1331	999	C13H18NO2+
221.0127	1	C13H3NO3+
248.1279	482	C14H18NO3+
252.159	3	C14H22NO3+
280.1541	257	C15H22NO4+
