Mass spectrum: Benalaxyl; LC-ESI-QFT; MS2; CE: 90; R=17500; [M+H]+
Name: Benalaxyl
Name: methyl 2-(2,6-dimethyl-N-(2-phenylacetyl)anilino)propanoate
Formula: C20H23NO3
Exact mass: 325.1678
SMILES: COC(=O)C(C)N(C(=O)CC1=CC=CC=C1)C1=C(C)C=CC=C1C
InChI: InChI=1S/C20H23NO3/c1-14-9-8-10-15(2)19(14)21(16(3)20(23)24-4)18(22)13-17-11-6-5-7-12-17/h5-12,16H,13H2,1-4H3
Instrument: Q Exactive Orbitrap (Thermo Scientific)
Instrument type: LC-ESI-QFT
Ms type: MS2
Ion mode: POSITIVE
Ionization: ESI
Fragmentation mode: HCD
Collision energy: 90
Resolution: 17500
Column name: Acquity BEH C18 1.7um, 2.1x150mm (Waters)
Retention time: 18.580 min
Base peak: 79.0211
Precursor m/z: 326.1751
Precursor type: [M+H]+
Precursor intensity: 60555270.125
m/z	relative intensity	assigned
53.0022	8	C3HO+
53.0386	3	C4H5+
53.9975	1	C2NO+
55.0542	3	C4H7+
56.0495	1	C3H6N+
57.0699	41	C4H9+
58.0651	68	C3H8N+
63.0229	3	C5H3+
65.0386	107	C5H5+
71.0855	1	C5H11+
77.0386	2	C6H5+
79.0542	52	C6H7+
91.0542	999	C7H7+
93.07	3	C7H9+
95.0492	13	C6H7O+
103.0542	30	C8H7+
104.0621	2	C8H8+
105.0699	127	C8H9+
106.0651	188	C7H8N+
106.0775	10	C8H10+
107.073	15	C7H9N+
107.0855	5	C8H11+
116.0621	5	C9H8+
118.0651	45	C8H8N+
119.0856	12	C9H11+
120.0808	88	C8H10N+
121.0886	237	C8H11N+
122.0965	3	C8H12N+
123.0804	2	C8H11O+
129.0702	3	C10H9+
131.073	2	C9H9N+
131.0856	11	C10H11+
132.0808	24	C9H10N+
133.0886	71	C9H11N+
134.0965	1	C9H12N+
146.0963	5	C10H12N+
148.1121	192	C10H14N+
181.0886	2	C13H11N+
