Mass spectrum: 2-Amino-6-nitrobenzothiazole; LC-ESI-QFT; MS2; CE: 75; R=17500; [M+H]+
Name: 2-Amino-6-nitrobenzothiazole
Name: 6-nitro-1,3-benzothiazol-2-amine
Formula: C7H5N3O2S
Exact mass: 195.0102
SMILES: NC1=NC2=CC=C(C=C2S1)[N+]([O-])=O
InChI: InChI=1S/C7H5N3O2S/c8-7-9-5-2-1-4(10(11)12)3-6(5)13-7/h1-3H,(H2,8,9)
Instrument: Q Exactive Orbitrap (Thermo Scientific)
Instrument type: LC-ESI-QFT
Ms type: MS2
Ion mode: POSITIVE
Ionization: ESI
Fragmentation mode: HCD
Collision energy: 75
Resolution: 17500
Column name: Acquity BEH C18 1.7um, 2.1x150mm (Waters)
Retention time: 14.491 min
Base peak: 79.0212
Precursor m/z: 196.0175
Precursor type: [M+H]+
Precursor intensity: 1636453.625
m/z	relative intensity	assigned
59.9903	2	CH2NS+
61.0106	9	C2H5S+
63.0229	1	C5H3+
67.0416	1	C4H5N+
72.0029	1	C3H4S+
80.0494	4	C5H6N+
84.0028	2	C4H4S+
91.0416	7	C6H5N+
92.0493	1	C6H6N+
96.0028	61	C5H4S+
99.0137	1	C4H5NS+
105.0447	3	C6H5N2+
106.0525	12	C6H6N2+
108.0028	2	C6H4S+
110.0061	1	C5H4NS+
111.0137	14	C5H5NS+
111.9977	2	C5H4OS+
118.0525	18	C7H6N2+
122.0059	5	C6H4NS+
123.0137	136	C6H5NS+
126.0247	11	C5H6N2S+
127.9927	12	C5H4O2S+
128.0291	1	C4H6N3S+
138.0246	31	C6H6N2S+
149.0169	4	C7H5N2S+
150.0246	497	C7H6N2S+
153.0116	7	C6H5N2OS+
165.0118	12	C7H5N2OS+
166.0194	22	C7H6N2OS+
182.0144	999	C7H6N2O2S+
184.0184	6	C6H6N3O2S+
196.0173	11	C7H6N3O2S+
