Mass spectrum: MK-274; LC-ESI-QFT; MS2; CE: 60; R=17500; [M+H]+
Name: MK-274
Name: 3-[5'-Fluoro-2'-(2,2,3,3,3-pentafluoropropoxy)biphenyl-3-yl]-1H-1,2,4-triazole-5-carboxamide
Name: 3-[3-[5-fluoro-2-(2,2,3,3,3-pentafluoropropoxy)phenyl]phenyl]-1H-1,2,4-triazole-5-carboxamide
Formula: C18H12F6N4O2
Exact mass: 430.0864
SMILES: NC(=O)C1=NC(=NN1)C1=CC=CC(=C1)C1=CC(F)=CC=C1OCC(F)(F)C(F)(F)F
InChI: InChI=1S/C18H12F6N4O2/c19-11-4-5-13(30-8-17(20,21)18(22,23)24)12(7-11)9-2-1-3-10(6-9)15-26-16(14(25)29)28-27-15/h1-7H,8H2,(H2,25,29)(H,26,27,28)
Instrument: Q Exactive Orbitrap (Thermo Scientific)
Instrument type: LC-ESI-QFT
Ms type: MS2
Ion mode: POSITIVE
Ionization: ESI
Fragmentation mode: HCD
Collision energy: 60
Resolution: 17500
Column name: Acquity BEH C18 1.7um, 2.1x150mm (Waters)
Retention time: 17.801 min
Base peak: 79.0211
Precursor m/z: 431.0937
Precursor type: [M+H]+
Precursor intensity: 13929962.84375
m/z	relative intensity	assigned
69.0083	73	C2HN2O+
69.9922	2	C2NO2+
114.0338	2	C8H4N+
133.0448	1	C9H6F+
149.0396	2	CH7F6O+
157.045	3	C11H6F+
159.0604	8	C11H8F+
161.0397	2	C10H6FO+
165.0574	1	C12H7N+
169.0447	1	C12H6F+
170.0525	204	C4H8F6+
171.0478	2	C11H6FN+
178.065	12	C5H9F5N+
180.0445	1	C12H6NO+
181.0443	1	C8H5F2N3+
181.0524	2	C12H7NO+
183.0603	14	C5H9F6+
185.0392	2	C7H5F2N3O+
185.0635	7	C12H8FN+
186.0475	187	C12H7FO+
187.0553	26	C4H9F6O+
190.065	5	C6H9F5N+
193.0521	3	C13H7NO+
196.0557	124	C13H7FN+
197.0634	194	C5H9F6N+
198.0475	122	C5H8F6O+
199.0553	38	C13H8FO+
201.0497	1	C8H6F3N3+
201.0586	13	C12H8FNO+
205.0522	37	C14H7NO+
206.0601	16	C14H8NO+
207.0478	49	C14H6FN+
209.0512	3	C13H6FN2+
210.035	1	C13H5FNO+
210.0583	6	C5H8F6N2+
210.0706	1	C9H8F2N4+
212.0505	420	C5H8F6NO+
213.0347	30	C13H6FO2+
214.0425	8	C13H7FO2+
214.0663	16	C13H9FNO+
215.05	16	C8H7F2N3O2+
216.0582	15	C13H9FO2+
219.0311	1	CH5F6N4O2+
223.043	1	C14H6FNO+
224.0504	999	C6H8F6NO+
226.0659	5	C9H8F2N4O+
228.0456	3	C13H7FNO2+
228.0815	1	C9H10F2N4O+
230.0372	34	C16H6O2+
236.0382	7	C14H5FN2O+
236.0612	3	C6H8F6N3+
237.0462	21	C14H6FN2O+
237.0693	24	C6H9F6N3+
238.0533	9	C6H8F6N2O+
238.0663	5	C15H9FNO+
239.0375	44	C6H7F6NO2+
239.0599	7	C9H8F5N2+
239.074	2	C15H10FNO+
240.0456	4	C14H7FNO2+
242.0611	5	C14H9FNO2+
244.0766	13	C9H10F2N4O2+
246.0685	1	C17H10O2+
250.0469	1	C8H6F4N4O+
252.0694	8	C15H9FN2O+
253.053	82	C10H7F2N4O2+
253.065	27	C11H10F5O+
254.0724	10	C14H9FN3O+
258.0525	2	C15H7F3N+
264.0568	10	C12H9F5O+
269.0707	2	C13H9F4N2+
270.0515	1	C11H6F4N4+
286.0471	6	C11H6F4N4O+
296.0829	1	C8H12F6N3O2+
298.0624	16	C15H10F4O2+
299.07	13	C15H11F4O2+
306.0535	3	C11H7F5N4O+
320.0632	3	C15H10F6O+
331.055	23	C16H9F6O+
345.058	11	C16H9F6NO+
346.0659	80	C16H10F6NO+
358.0661	20	C17H10F6NO+
359.0611	4	C16H9F6N2O+
371.0613	10	C17H9F6N2O+
378.0927	9	C15H12F6N4O+
386.0581	4	C16H8F6N4O+
392.065	1	C18H9F5N4O+
