Mass spectrum: Simetryn; LC-ESI-QFT; MS2; CE: 75; R=17500; [M+H]+
Name: Simetryn
Name: 2-N,4-N-diethyl-6-methylsulfanyl-1,3,5-triazine-2,4-diamine
Formula: C8H15N5S
Exact mass: 213.1048
SMILES: CCNC1=NC(SC)=NC(NCC)=N1
InChI: InChI=1S/C8H15N5S/c1-4-9-6-11-7(10-5-2)13-8(12-6)14-3/h4-5H2,1-3H3,(H2,9,10,11,12,13)
Instrument: Q Exactive Orbitrap (Thermo Scientific)
Instrument type: LC-ESI-QFT
Ms type: MS2
Ion mode: POSITIVE
Ionization: ESI
Fragmentation mode: HCD
Collision energy: 75
Resolution: 17500
Column name: Acquity BEH C18 1.7um, 2.1x150mm (Waters)
Retention time: 14.298 min
Base peak: 79.0211
Precursor m/z: 214.1121
Precursor type: [M+H]+
Precursor intensity: 43058588.53125
m/z	relative intensity	assigned
52.0182	10	C3H2N+
53.026	8	C3H3N+
53.0386	14	C4H5+
54.0338	12	C3H4N+
61.0107	1	C2H5S+
65.0386	5	C5H5+
66.0463	4	C5H6+
68.0243	999	C2H2N3+
69.0448	3	C3H5N2+
70.0399	2	C2H4N3+
71.0603	540	C3H7N2+
74.0058	174	C2H4NS+
77.0385	12	C6H5+
79.029	7	C4H3N2+
80.0368	322	C4H4N2+
81.0447	25	C4H5N2+
82.0525	63	C4H6N2+
85.0508	5	C2H5N4+
91.0324	21	C2H7N2S+
92.0495	15	C6H6N+
93.0573	156	C6H7N+
94.0407	1	C4H4N3+
94.0651	6	C6H8N+
95.0491	50	C4H5N3+
96.0556	762	C4H6N3+
97.0396	1	C2H3N5+
99.0011	2	C3H3N2S+
99.0915	1	C5H11N2+
102.0371	12	C4H8NS+
105.0447	20	C6H5N2+
106.0399	1	C5H4N3+
107.0604	8	C6H7N2+
108.0556	24	C5H6N3+
109.0634	58	C5H7N3+
110.046	4	C3H4N5+
110.0711	5	C5H8N3+
113.0821	14	C4H9N4+
116.0277	278	C3H6N3S+
119.0601	1	C7H7N2+
121.0509	83	C5H5N4+
122.0586	160	C5H6N4+
123.0664	7	C5H7N4+
124.0869	223	C6H10N3+
138.0773	17	C5H8N5+
141.1134	2	C6H13N4+
144.0589	110	C5H10N3S+
158.0498	4	C4H8N5S+
166.1086	23	C7H12N5+
186.0808	12	C6H12N5S+
214.112	14	C8H16N5S+
