Mass spectrum: Myclobutanil; LC-ESI-QFT; MS2; CE: 90; R=17500; [M+H]+
Name: Myclobutanil
Name: 2-(4-chlorophenyl)-2-(1,2,4-triazol-1-ylmethyl)hexanenitrile
Formula: C15H17ClN4
Exact mass: 288.1142
SMILES: CCCCC(CN1C=NC=N1)(C#N)C1=CC=C(Cl)C=C1
InChI: InChI=1S/C15H17ClN4/c1-2-3-8-15(9-17,10-20-12-18-11-19-20)13-4-6-14(16)7-5-13/h4-7,11-12H,2-3,8,10H2,1H3
Instrument: Q Exactive Orbitrap (Thermo Scientific)
Instrument type: LC-ESI-QFT
Ms type: MS2
Ion mode: POSITIVE
Ionization: ESI
Fragmentation mode: HCD
Collision energy: 90
Resolution: 17500
Column name: Acquity BEH C18 1.7um, 2.1x150mm (Waters)
Retention time: 17.761 min
Base peak: 79.0211
Precursor m/z: 289.1215
Precursor type: [M+H]+
Precursor intensity: 8191478.875
m/z	relative intensity	assigned
53.0022	1	ClH4N+
53.0386	1	C4H5+
55.0542	9	C4H7+
57.0699	2	C4H9+
63.0229	5	C5H3+
65.0385	3	C5H5+
66.0464	3	C5H6+
67.0416	1	C4H5N+
70.0399	999	C2H4N3+
72.984	3	C3H2Cl+
79.0542	4	C6H7+
80.0495	3	C5H6N+
81.0699	3	C6H9+
82.04	18	C3H4N3+
82.0651	1	C5H8N+
83.0478	2	C3H5N3+
89.0386	99	C7H5+
90.0464	18	C7H6+
91.0543	4	C7H7+
93.0573	1	C6H7N+
94.0652	2	C6H8N+
95.0492	2	C3H10ClN+
98.9996	44	C5H4Cl+
102.0464	10	C8H6+
103.0542	3	C8H7+
115.0542	39	C9H7+
116.062	60	C9H8+
119.0491	2	C5H10ClN+
122.9995	4	C7H4Cl+
125.0153	545	C7H6Cl+
128.0495	17	C9H6N+
128.0619	3	C10H8+
129.0447	7	C8H5N2+
129.0697	4	C10H9+
130.0651	17	C9H8N+
131.0731	2	C9H9N+
133.0648	2	C6H12ClN+
137.0153	11	C8H6Cl+
139.0308	1	C8H8Cl+
141.07	1	C11H9+
142.0777	1	C11H10+
143.0606	2	C9H7N2+
143.0728	7	C10H9N+
143.0856	2	C11H11+
146.0601	2	C6H11ClN2+
149.0152	9	C9H6Cl+
150.0105	13	C8H5ClN+
151.0309	17	C9H8Cl+
152.0621	2	C12H8+
153.0699	6	C12H9+
156.081	3	C11H10N+
164.0261	9	C9H7ClN+
167.0854	2	C13H11+
168.0208	1	C6H5ClN4+
175.0309	2	C11H8Cl+
178.0414	1	C10H9ClN+
184.1123	1	C13H14N+
