Mass spectrum: Oleyl sarcosine; LC-ESI-QFT; MS2; CE: 75; R=17500; [M+H]+
Name: Oleyl sarcosine
Name: Oleoyl sarcosine
Name: 2-[methyl-[(Z)-octadec-9-enoyl]amino]acetic acid
Formula: C21H39NO3
Exact mass: 353.2930
SMILES: CCCCCCCC\C=C/CCCCCCCC(=O)N(C)CC(O)=O
InChI: InChI=1S/C21H39NO3/c1-3-4-5-6-7-8-9-10-11-12-13-14-15-16-17-18-20(23)22(2)19-21(24)25/h10-11H,3-9,12-19H2,1-2H3,(H,24,25)/b11-10-
Instrument: Q Exactive Orbitrap (Thermo Scientific)
Instrument type: LC-ESI-QFT
Ms type: MS2
Ion mode: POSITIVE
Ionization: ESI
Fragmentation mode: HCD
Collision energy: 75
Resolution: 17500
Column name: Acquity BEH C18 1.7um, 2.1x150mm (Waters)
Retention time: 21.843 min
Base peak: 79.0211
Precursor m/z: 354.3003
Precursor type: [M+H]+
Precursor intensity: 2193705.9375
m/z	relative intensity	assigned
53.0022	56	C3HO+
53.0386	63	C4H5+
55.0543	999	C4H7+
57.0335	14	C3H5O+
57.0699	143	C4H9+
65.0385	28	C5H5+
67.0542	606	C5H7+
69.0699	564	C5H9+
79.0542	345	C6H7+
81.0699	356	C6H9+
83.0856	162	C6H11+
90.055	909	C3H8NO2+
91.0542	92	C7H7+
93.0699	225	C7H9+
95.0491	39	C6H7O+
95.0856	204	C7H11+
97.0649	58	C6H9O+
97.101	18	C7H13+
107.0856	68	C8H11+
109.1012	32	C8H13+
121.1013	33	C9H13+
