Mass spectrum: Buprofezin; LC-ESI-QFT; MS2; CE: 75; R=17500; [M+H]+
Name: Buprofezin
Name: 2-tert-butylimino-5-phenyl-3-propan-2-yl-1,3,5-thiadiazinan-4-one
Formula: C16H23N3OS
Exact mass: 305.1562
SMILES: CC(C)N1C(SCN(C1=O)C1=CC=CC=C1)=NC(C)(C)C
InChI: InChI=1S/C16H23N3OS/c1-12(2)19-14(17-16(3,4)5)21-11-18(15(19)20)13-9-7-6-8-10-13/h6-10,12H,11H2,1-5H3
Instrument: Q Exactive Orbitrap (Thermo Scientific)
Instrument type: LC-ESI-QFT
Ms type: MS2
Ion mode: POSITIVE
Ionization: ESI
Fragmentation mode: HCD
Collision energy: 75
Resolution: 17500
Column name: Acquity BEH C18 1.7um, 2.1x150mm (Waters)
Retention time: 19.254 min
Base peak: 79.0212
Precursor m/z: 306.1635
Precursor type: [M+H]+
Precursor intensity: 52879998.5
m/z	relative intensity	assigned
53.0022	21	C3HO+
53.0386	7	C4H5+
53.9974	2	C2NO+
57.0699	999	C4H9+
59.9903	401	CH2NS+
77.0385	4	C6H5+
78.0465	6	C6H6+
79.0542	48	C6H7+
85.076	4	C4H9N2+
85.9695	3	C2NOS+
86.0601	48	C4H8NO+
95.0492	19	C6H7O+
102.0372	4	C4H8NS+
102.996	15	C2H3N2OS+
104.0494	2	C7H6N+
105.0448	10	C6H5N2+
106.0652	870	C7H8N+
