Mass spectrum: 2,2-Dimethyl-2,3-dihydro-1-benzofuran-7-amine; LC-ESI-QFT; MS2; CE: 15; R=17500; [M+H]+
Name: 2,2-Dimethyl-2,3-dihydro-1-benzofuran-7-amine
Name: 2,2-dimethyl-3H-1-benzofuran-7-amine
Formula: C10H13NO
Exact mass: 163.0997
SMILES: CC1(C)CC2=C(O1)C(N)=CC=C2
InChI: InChI=1S/C10H13NO/c1-10(2)6-7-4-3-5-8(11)9(7)12-10/h3-5H,6,11H2,1-2H3
Instrument: Q Exactive Orbitrap (Thermo Scientific)
Instrument type: LC-ESI-QFT
Ms type: MS2
Ion mode: POSITIVE
Ionization: ESI
Fragmentation mode: HCD
Collision energy: 15
Resolution: 17500
Column name: Acquity BEH C18 1.7um, 2.1x150mm (Waters)
Retention time: 12.296 min
Base peak: 79.0212
Precursor m/z: 164.107
Precursor type: [M+H]+
Precursor intensity: 24368829.625
m/z	relative intensity	assigned
55.0543	5	C4H7+
91.0542	8	C7H7+
94.0652	11	C6H8N+
108.0444	11	C6H6NO+
109.0523	140	C6H7NO+
110.06	10	C6H8NO+
119.0856	32	C9H11+
122.06	542	C7H8NO+
129.0698	1	C10H9+
136.0757	39	C8H10NO+
146.0964	1	C10H12N+
147.0804	183	C10H11O+
149.0837	3	C9H11NO+
164.107	999	C10H14NO+
