Mass spectrum: PharmaGSID_47261; LC-ESI-QFT; MS2; CE: 45; R=17500; [M+H]+
Name: PharmaGSID_47261
Name: (2S,3S)-3-methyl-2-(3-oxo-1,2-benzothiazol-2-yl)pentanoic acid
Formula: C13H15NO3S
Exact mass: 265.0773
SMILES: CC[C@H](C)[C@H](N1SC2=CC=CC=C2C1=O)C(O)=O
InChI: InChI=1S/C13H15NO3S/c1-3-8(2)11(13(16)17)14-12(15)9-6-4-5-7-10(9)18-14/h4-8,11H,3H2,1-2H3,(H,16,17)/t8-,11-/m0/s1
Instrument: Q Exactive Orbitrap (Thermo Scientific)
Instrument type: LC-ESI-QFT
Ms type: MS2
Ion mode: POSITIVE
Ionization: ESI
Fragmentation mode: HCD
Collision energy: 45
Resolution: 17500
Column name: Acquity BEH C18 1.7um, 2.1x150mm (Waters)
Retention time: 16.615 min
Base peak: 79.0211
Precursor m/z: 266.0845
Precursor type: [M+H]+
Precursor intensity: 10010387.46875
m/z	relative intensity	assigned
53.0022	10	C3HO+
53.9975	1	C2NO+
57.0335	1	C3H5O+
59.0492	1	C3H7O+
67.0542	5	C5H7+
69.0698	609	C5H9+
73.0647	6	C4H9O+
97.0647	3	C6H9O+
109.0107	1	C6H5S+
137.0057	1	C7H5OS+
152.0164	999	C7H6NOS+
164.0164	39	C8H6NOS+
178.0322	2	C9H8NOS+
220.079	76	C12H14NOS+
