Mass spectrum: 4-Hydroxyacetophenone; LC-ESI-QFT; MS2; CE: 75; R=17500; [M-H]-
Name: 4-Hydroxyacetophenone
Name: 4'-Hydroxyacetophenone
Name: 1-(4-hydroxyphenyl)ethanone
Formula: C8H8O2
Exact mass: 136.0524
SMILES: CC(=O)C1=CC=C(O)C=C1
InChI: InChI=1S/C8H8O2/c1-6(9)7-2-4-8(10)5-3-7/h2-5,10H,1H3
Instrument: Q Exactive Orbitrap (Thermo Scientific)
Instrument type: LC-ESI-QFT
Ms type: MS2
Ion mode: NEGATIVE
Ionization: ESI
Fragmentation mode: HCD
Collision energy: 75
Resolution: 17500
Column name: Acquity BEH C18 1.7um, 2.1x150mm (Waters)
Retention time: 12.451 min
Base peak: 135.0451
Precursor m/z: 135.0452
Precursor type: [M-H]-
Precursor intensity: 26626541.86572
m/z	relative intensity	assigned
53.0032	1	C3HO-
65.0033	1	C4HO-
65.0397	12	C5H5-
67.0191	2	C4H3O-
68.9982	7	C3HO2-
69.0347	9	C4H5O-
70.0061	1	C3H2O2-
71.0138	5	C3H3O2-
79.019	3	C5H3O-
79.9904	2	C4O2-
80.9984	1	C4HO2-
82.0061	16	C4H2O2-
92.0268	60	C6H4O-
93.0346	999	C6H5O-
95.0139	325	C5H3O2-
97.0296	3	C5H5O2-
106.006	17	C6H2O2-
107.0139	2	C6H3O2-
108.0217	514	C6H4O2-
117.0347	17	C8H5O-
120.0217	11	C7H4O2-
135.0452	244	C8H7O2-
