Mass spectrum: Raloxifene; LC-ESI-QFT; MS2; CE: 90; R=17500; [M+H]+
Name: Raloxifene
Name: [6-hydroxy-2-(4-hydroxyphenyl)-1-benzothiophen-3-yl]-[4-(2-piperidin-1-ylethoxy)phenyl]methanone
Formula: C28H27NO4S
Exact mass: 473.1661
SMILES: OC1=CC=C(C=C1)C1=C(C(=O)C2=CC=C(OCCN3CCCCC3)C=C2)C2=CC=C(O)C=C2S1
InChI: InChI=1S/C28H27NO4S/c30-21-8-4-20(5-9-21)28-26(24-13-10-22(31)18-25(24)34-28)27(32)19-6-11-23(12-7-19)33-17-16-29-14-2-1-3-15-29/h4-13,18,30-31H,1-3,14-17H2
Instrument: Q Exactive Orbitrap (Thermo Scientific)
Instrument type: LC-ESI-QFT
Ms type: MS2
Ion mode: POSITIVE
Ionization: ESI
Fragmentation mode: HCD
Collision energy: 90
Resolution: 17500
Column name: Acquity BEH C18 1.7um, 2.1x150mm (Waters)
Retention time: 14.280 min
Base peak: 79.0211
Precursor m/z: 474.1734
Precursor type: [M+H]+
Precursor intensity: 9972706.1875
m/z	relative intensity	assigned
53.0022	24	C3HO+
53.0386	4	C4H5+
53.9975	4	C2NO+
54.0339	2	C3H4N+
55.0543	76	C4H7+
56.0495	236	C3H6N+
57.0573	13	C3H7N+
57.0698	1	C4H9+
58.0651	38	C3H8N+
65.0386	28	C5H5+
67.0542	18	C5H7+
68.0494	3	C4H6N+
69.0699	60	C5H9+
70.0651	94	C4H8N+
74.0151	2	C6H2+
75.0229	4	C6H3+
82.0651	15	C5H8N+
83.073	1	C5H9N+
84.0808	999	C5H10N+
85.0886	35	C5H11N+
86.0965	8	C5H12N+
91.0542	16	C7H7+
96.0808	1	C6H10N+
97.0886	2	C6H11N+
98.0964	4	C6H12N+
103.0179	6	C7H3O+
110.0964	6	C7H12N+
112.1121	54	C7H14N+
121.0284	7	C7H5O2+
121.0398	1	H11NO4S+
137.0057	1	C7H5OS+
141.0699	13	C11H9+
147.0445	2	C9H7O2+
147.0551	1	C2H13NO4S+
152.0621	8	C12H8+
169.0648	12	C12H9O+
181.0652	3	C13H9O+
184.0342	8	C12H8S+
185.0419	3	C12H9S+
187.0214	2	C11H7OS+
195.0266	3	C13H7S+
197.0598	48	C13H9O2+
213.0369	14	C13H9OS+
224.0293	3	C14H8OS+
240.0243	2	C14H8O2S+
241.0318	2	C14H9O2S+
245.0426	1	C17H9S+
252.0235	1	C15H8O2S+
255.08	3	C19H11O+
258.0499	3	C18H10S+
259.0579	2	C18H11S+
261.0374	1	C17H9OS+
268.019	1	C15H8O3S+
269.0269	1	C15H9O3S+
271.0582	2	C19H11S+
271.0743	1	C19H11O2+
274.0448	2	C18H10OS+
275.0521	1	C18H11OS+
287.0526	9	C19H11OS+
298.0456	2	C20H10OS+
299.0536	1	C20H11OS+
303.0482	3	C19H11O2S+
315.0474	1	C20H11O2S+
316.0557	1	C20H12O2S+
327.0473	2	C21H11O2S+
343.0428	2	C21H11O3S+
361.0539	1	C21H13O4S+
