Mass spectrum: Sulfaquinoxaline; LC-ESI-QFT; MS2; CE: 45; R=17500; [M+H]+
Name: Sulfaquinoxaline
Name: 4-amino-N-quinoxalin-2-ylbenzenesulfonamide
Formula: C14H12N4O2S
Exact mass: 300.0681
SMILES: NC1=CC=C(C=C1)S(=O)(=O)NC1=CN=C2C=CC=CC2=N1
InChI: InChI=1S/C14H12N4O2S/c15-10-5-7-11(8-6-10)21(19,20)18-14-9-16-12-3-1-2-4-13(12)17-14/h1-9H,15H2,(H,17,18)
Instrument: Q Exactive Orbitrap (Thermo Scientific)
Instrument type: LC-ESI-QFT
Ms type: MS2
Ion mode: POSITIVE
Ionization: ESI
Fragmentation mode: HCD
Collision energy: 45
Resolution: 17500
Column name: Acquity BEH C18 1.7um, 2.1x150mm (Waters)
Retention time: 13.985 min
Base peak: 79.0211
Precursor m/z: 301.0754
Precursor type: [M+H]+
Precursor intensity: 7364826.125
m/z	relative intensity	assigned
53.0022	3	C3HO+
53.0386	8	C4H5+
54.0338	8	C3H4N+
55.0179	9	C3H3O+
65.0386	59	C5H5+
67.0178	3	C4H3O+
67.0416	1	C4H5N+
68.0495	174	C4H6N+
69.0335	14	C4H5O+
74.0962	1	C4H12N+
78.0339	18	C5H4N+
79.0179	28	C5H3O+
80.0495	11	C5H6N+
81.0333	1	C5H5O+
82.0289	4	C4H4NO+
92.0495	417	C6H6N+
93.0573	3	C6H7N+
94.0652	10	C6H8N+
95.0366	5	C5H5NO+
96.0444	23	C5H6NO+
107.0367	1	C6H5NO+
107.0604	1	C6H7N2+
108.0444	999	C6H6NO+
109.0522	3	C6H7NO+
110.0601	110	C6H8NO+
118.0525	9	C7H6N2+
119.0606	1	C7H7N2+
120.0557	25	C6H6N3+
124.0759	2	C7H10NO+
129.0451	1	C8H5N2+
144.0557	22	C8H6N3+
145.0636	29	C8H7N3+
146.0713	227	C8H8N3+
147.0554	2	C8H7N2O+
152.0821	2	C7H10N3O+
156.0114	709	C6H6NO2S+
162.0661	5	C8H8N3O+
208.0179	5	C8H6N3O2S+
226.0282	12	C14H2N4+
235.098	21	C14H11N4+
237.1139	3	C14H13N4+
301.0753	3	C14H13N4O2S+
