Mass spectrum: Flutamide; LC-ESI-QFT; MS2; CE: 75; R=17500; [M-H]-
Name: Flutamide
Name: 2-methyl-N-[4-nitro-3-(trifluoromethyl)phenyl]propanamide
Formula: C11H11F3N2O3
Exact mass: 276.0722
SMILES: CC(C)C(=O)NC1=CC(=C(C=C1)[N+]([O-])=O)C(F)(F)F
InChI: InChI=1S/C11H11F3N2O3/c1-6(2)10(17)15-7-3-4-9(16(18)19)8(5-7)11(12,13)14/h3-6H,1-2H3,(H,15,17)
Instrument: Q Exactive Orbitrap (Thermo Scientific)
Instrument type: LC-ESI-QFT
Ms type: MS2
Ion mode: NEGATIVE
Ionization: ESI
Fragmentation mode: HCD
Collision energy: 75
Resolution: 17500
Column name: Acquity BEH C18 1.7um, 2.1x150mm (Waters)
Retention time: 17.509 min
Base peak: 275.0649
Precursor m/z: 275.0649
Precursor type: [M-H]-
Precursor intensity: 159589785.3594
m/z	relative intensity	assigned
50.0035	16	C3N-
62.9888	6	CFO2-
63.0114	3	C4HN-
65.0146	6	C3HN2-
65.9985	108	C3NO-
68.0144	2	C3H2NO-
68.9958	3	CF3-
70.9939	24	C3FO-
74.0036	22	C5N-
76.0193	8	C5H2N-
77.0145	3	C4HN2-
86.0037	6	C6N-
86.9889	21	C3FO2-
87.0114	19	C6HN-
89.0146	3	C5HN2-
89.9985	14	C5NO-
91.0191	3	C6H3O-
92.014	3	C5H2NO-
92.9957	4	C3F3-
93.0096	9	C4HN2O-
94.0099	11	C5HFN-
98.0038	11	C7N-
101.0145	6	C6HN2-
103.0064	5	C6HNO-
106.0099	47	C6HFN-
107.0178	15	C6H2FN-
110.0049	2	C5HFNO-
110.9883	3	C5FO2-
111.0001	7	C4FN2O-
111.0054	2	C6HF2-
113.9985	59	C7NO-
114.0161	15	C5H2F2N-
115.0064	8	C7HNO-
116.0141	11	C7H2NO-
118.0099	48	C7HFN-
121.0206	2	C6H2FN2-
123.0127	11	C6H2FNO-
126.0161	119	C6H2F2N-
134.0048	173	C7HFNO-
135.0126	9	C7H2FNO-
136.0205	13	C7H3FNO-
138.016	17	C7H2F2N-
139.0238	5	C7H3F2N-
140.0317	5	C7H4F2N-
143.0114	45	C7H2F3-
146.0052	2	C8HFNO-
146.0224	21	C6H3F3N-
151.0076	3	C7H2FNO2-
154.011	213	C7H2F2NO-
155.0189	34	C7H3F2NO-
156.0269	4	C7H4F2NO-
159.0301	38	C7H4F3N-
160.0379	999	C7H5F3N-
161.9997	140	C8HFNO2-
162.017	7	C6H3F3NO-
165.0103	13	C7H2FN2O2-
166.011	23	C8H2F2NO-
174.0169	11	C7H3F3NO-
175.0251	136	C7H4F3NO-
176.0091	32	C7H3F3O2-
182.0059	842	C8H2F2NO2-
185.0583	7	C10H8F3-
186.0172	324	C8H3F3NO-
190.0121	7	C7H3F3NO2-
202.0122	694	C8H3F3NO2-
205.023	142	C7H4F3N2O2-
206.0071	19	C7H3F3NO3-
214.0119	2	C9H3F3NO2-
229.036	5	C10H6F3NO2-
229.0718	9	C11H10F3NO-
230.007	8	C9H3F3NO3-
244.0106	3	C9H3F3N2O3-
259.0339	20	C10H6F3N2O3-
275.0647	4	C11H10F3N2O3-
