Mass spectrum: Ingliforib; LC-ESI-QFT; MS2; CE: 45; R=17500; [M-H]-
Name: Ingliforib
Name: 5-chloro-N-[(2S,3R)-4-[(3R,4S)-3,4-dihydroxypyrrolidin-1-yl]-3-hydroxy-4-oxo-1-phenylbutan-2-yl]-1H-indole-2-carboxamide
Formula: C23H24ClN3O5
Exact mass: 457.1404
SMILES: O[C@H]([C@H](CC1=CC=CC=C1)NC(=O)C1=CC2=CC(Cl)=CC=C2N1)C(=O)N1C[C@H](O)[C@H](O)C1
InChI: InChI=1S/C23H24ClN3O5/c24-15-6-7-16-14(9-15)10-18(25-16)22(31)26-17(8-13-4-2-1-3-5-13)21(30)23(32)27-11-19(28)20(29)12-27/h1-7,9-10,17,19-21,25,28-30H,8,11-12H2,(H,26,31)/t17-,19-,20+,21+/m0/s1
Instrument: Q Exactive Orbitrap (Thermo Scientific)
Instrument type: LC-ESI-QFT
Ms type: MS2
Ion mode: NEGATIVE
Ionization: ESI
Fragmentation mode: HCD
Collision energy: 45
Resolution: 17500
Column name: Acquity BEH C18 1.7um, 2.1x150mm (Waters)
Retention time: 17.367 min
Base peak: 329.1063
Precursor m/z: 456.1332
Precursor type: [M-H]-
Precursor intensity: 19656606.98242
m/z	relative intensity	assigned
59.0139	1	C2H3O2-
66.0349	50	C4H4N-
70.0299	1	C3H4NO-
71.0139	5	C3H3O2-
73.0295	5	C3H5O2-
75.0089	1	C2H3O3-
82.0299	1	C4H4NO-
84.0091	1	C3H2NO2-
84.0454	1	C4H6NO-
88.0404	4	C3H6NO2-
98.0247	1	C4H4NO2-
100.0405	12	C4H6NO2-
101.0271	1	C7H3N-
102.056	17	C4H8NO2-
114.0349	2	C8H4N-
116.0507	1	C8H6N-
118.0658	1	C8H8N-
124.0402	3	C6H6NO2-
130.0507	1	C5H8NO3-
131.05	6	C9H7O-
133.066	1	C9H9O-
144.0454	1	C9H6NO-
146.0611	6	C9H8NO-
149.0031	5	C11HO-
150.0115	538	C8H5ClN-
162.0924	1	C10H12NO-
164.9987	21	C8H4ClNO-
174.0432	1	C9H6N2O2-
174.0561	11	C10H8NO2-
174.0921	1	C11H12NO-
175.0068	19	C9H4ClN2-
178.0067	5	C9H5ClNO-
180.0221	3	C9H7ClNO-
189.0226	1	C10H6ClN2-
190.0872	4	C11H12NO2-
193.0173	999	C9H6ClN2O-
194.0012	16	C9H5ClNO2-
198.0434	1	C11H6N2O2-
198.0921	5	C13H12NO-
201.0309	3	C7H8ClN3O2-
205.0173	63	C10H6ClN2O-
206.0012	3	C13H2O3-
207.0328	5	C13H5NO2-
208.017	16	C10H7ClNO2-
216.0096	2	C11H5ClN2O-
218.0822	2	C12H12NO3-
232.0045	6	C11H5ClN2O2-
233.0123	30	C11H6ClN2O2-
234.0201	446	C11H7ClN2O2-
238.015	27	C10H7ClN2O3-
252.0586	1	C16H11ClN-
268.0532	14	C16H11ClNO-
279.0695	2	C17H12ClN2-
280.0532	4	C17H11ClNO-
281.0853	3	C17H14ClN2-
292.0535	2	C18H11ClNO-
295.0642	41	C17H12ClN2O-
297.08	11	C17H14ClN2O-
307.0644	24	C18H12ClN2O-
322.0513	1	C18H11ClN2O2-
323.0588	6	C21H9NO3-
325.0748	61	C18H14ClN2O2-
335.0591	7	C19H12ClN2O2-
