Mass spectrum: Pantothenate; LC-ESI-QFT; MS2; CE: 30; R=17500; [M+H]+
Name: Pantothenate
Name: Pantothenic acid
Name: 3-[[(2R)-2,4-dihydroxy-3,3-dimethylbutanoyl]amino]propanoic acid
Formula: C9H17NO5
Exact mass: 219.1107
SMILES: CC(C)(CO)[C@@H](O)C(=O)NCCC(O)=O
InChI: InChI=1S/C9H17NO5/c1-9(2,5-11)7(14)8(15)10-4-3-6(12)13/h7,11,14H,3-5H2,1-2H3,(H,10,15)(H,12,13)/t7-/m0/s1
Instrument: Q Exactive Orbitrap (Thermo Scientific)
Instrument type: LC-ESI-QFT
Ms type: MS2
Ion mode: POSITIVE
Ionization: ESI
Fragmentation mode: HCD
Collision energy: 30
Resolution: 17500
Column name: Acquity BEH C18 1.7um, 2.1x150mm (Waters)
Retention time: 8.134 min
Base peak: 79.0211
Precursor m/z: 220.1179
Precursor type: [M+H]+
Precursor intensity: 8004039.875
m/z	relative intensity	assigned
57.0699	14	C4H9+
59.0491	18	C3H7O+
67.0542	7	C5H7+
69.0698	32	C5H9+
70.0287	7	C3H4NO+
72.0444	79	C3H6NO+
73.0283	10	C3H5O2+
83.0492	5	C5H7O+
85.0648	50	C5H9O+
86.0964	10	C5H12N+
87.0805	28	C5H11O+
90.055	999	C3H8NO2+
95.0491	29	C6H7O+
98.0237	50	C4H4NO2+
100.0393	19	C4H6NO2+
103.0754	90	C5H11O2+
113.0597	14	C6H9O2+
116.0342	168	C4H6NO3+
124.0757	78	C7H10NO+
130.0861	2	C6H12NO2+
131.0705	10	C6H11O3+
142.0863	56	C7H12NO2+
156.1019	14	C8H14NO2+
160.0968	28	C7H14NO3+
166.0865	24	C9H12NO2+
172.097	4	C8H14NO3+
174.1124	32	C8H16NO3+
184.0969	251	C9H14NO3+
189.9893	3	C9H2O5+
190.9852	2	C8HNO5+
202.1075	323	C9H16NO4+
220.1181	253	C9H18NO5+
