Mass spectrum: Cyanazine; LC-ESI-QFT; MS2; CE: 45; R=17500; [M+H]+
Name: Cyanazine
Name: 2-[[4-chloro-6-(ethylamino)-1,3,5-triazin-2-yl]amino]-2-methylpropanenitrile
Formula: C9H13ClN6
Exact mass: 240.0890
SMILES: CCNC1=NC(NC(C)(C)C#N)=NC(Cl)=N1
InChI: InChI=1S/C9H13ClN6/c1-4-12-7-13-6(10)14-8(15-7)16-9(2,3)5-11/h4H2,1-3H3,(H2,12,13,14,15,16)
Instrument: Q Exactive Orbitrap (Thermo Scientific)
Instrument type: LC-ESI-QFT
Ms type: MS2
Ion mode: POSITIVE
Ionization: ESI
Fragmentation mode: HCD
Collision energy: 45
Resolution: 17500
Column name: Acquity BEH C18 1.7um, 2.1x150mm (Waters)
Retention time: 14.799 min
Base peak: 79.0211
Precursor m/z: 241.0963
Precursor type: [M+H]+
Precursor intensity: 6453365.5
m/z	relative intensity	assigned
58.0651	1	C3H8N+
61.9791	5	CHClN+
68.0242	42	C2H2N3+
70.0651	1	C4H8N+
71.0603	52	C3H7N2+
79.0057	38	CH4ClN2+
83.0603	18	C4H7N2+
90.0105	14	C3H5ClN+
96.0556	200	C4H6N3+
103.0056	1	C3H4ClN2+
104.0009	126	C2H3ClN3+
107.037	1	C3H8ClN2+
108.0556	2	C5H6N3+
110.0462	4	C3H4N5+
110.0712	42	C5H8N3+
111.079	5	C5H9N3+
111.0916	4	C6H11N2+
119.037	50	C4H8ClN2+
132.0323	122	C4H7ClN3+
135.0666	2	C6H7N4+
136.0744	2	C6H8N4+
136.0869	44	C7H10N3+
138.0774	13	C5H8N5+
144.0323	7	C5H7ClN3+
145.0272	1	C4H6ClN4+
146.0228	33	C3H5ClN5+
150.0775	3	C6H8N5+
163.0977	37	C8H11N4+
171.043	13	C6H8ClN4+
173.0588	32	C6H10ClN4+
174.0541	110	C5H9ClN5+
177.0883	21	C7H9N6+
178.1087	29	C8H12N5+
180.1245	4	C8H14N5+
186.0541	21	C6H9ClN5+
197.0589	6	C8H10ClN4+
205.1196	77	C9H13N6+
213.0651	1	C7H10ClN6+
214.0853	999	C8H13ClN5+
241.0962	159	C9H14ClN6+
