Mass spectrum: Labetalol; LC-ESI-QFT; MS2; CE: 60; R=17500; [M-H]-
Name: Labetalol
Name: 2-hydroxy-5-[1-hydroxy-2-(4-phenylbutan-2-ylamino)ethyl]benzamide
Formula: C19H24N2O3
Exact mass: 328.1787
SMILES: CC(CCC1=CC=CC=C1)NCC(O)C1=CC=C(O)C(=C1)C(N)=O
InChI: InChI=1S/C19H24N2O3/c1-13(7-8-14-5-3-2-4-6-14)21-12-18(23)15-9-10-17(22)16(11-15)19(20)24/h2-6,9-11,13,18,21-23H,7-8,12H2,1H3,(H2,20,24)
Instrument: Q Exactive Orbitrap (Thermo Scientific)
Instrument type: LC-ESI-QFT
Ms type: MS2
Ion mode: NEGATIVE
Ionization: ESI
Fragmentation mode: HCD
Collision energy: 60
Resolution: 17500
Column name: Acquity BEH C18 1.7um, 2.1x150mm (Waters)
Retention time: 13.525 min
Base peak: 304.1303
Precursor m/z: 327.1714
Precursor type: [M-H]-
Precursor intensity: 8482441.212402
m/z	relative intensity	assigned
65.9985	15	C3NO-
91.0189	10	C6H3O-
91.0553	12	C7H7-
93.0345	28	C6H5O-
95.0503	13	C6H7O-
105.0345	6	C7H5O-
106.0424	165	C7H6O-
107.0502	27	C7H7O-
108.0217	51	C6H4O2-
117.0346	17	C8H5O-
118.0299	109	C7H4NO-
119.0501	20	C8H7O-
120.0454	4	C7H6NO-
121.0297	13	C7H5O2-
123.0454	20	C7H7O2-
131.0376	515	C8H5NO-
132.0455	189	C8H6NO-
133.0169	12	C7H3NO2-
133.0533	187	C8H7NO-
134.0246	13	C7H4NO2-
134.0612	33	C8H8NO-
136.0402	19	C7H6NO2-
138.032	34	C7H6O3-
142.0298	4	C9H4NO-
144.0455	47	C9H6NO-
146.0246	41	C8H4NO2-
146.0611	38	C9H8NO-
148.0407	4	C8H6NO2-
149.0482	300	C8H7NO2-
150.0559	6	C8H8NO2-
157.0407	861	C9H5N2O-
158.0249	15	C9H4NO2-
158.0486	81	C9H6N2O-
158.0602	18	C10H8NO-
159.0564	103	C9H7N2O-
160.0767	24	C10H10NO-
162.0559	36	C9H8NO2-
162.0922	3	C10H12NO-
163.0275	209	C8H5NO3-
164.0355	54	C8H6NO3-
169.0407	7	C10H5N2O-
171.0564	50	C10H7N2O-
175.0513	999	C9H7N2O2-
176.0591	592	C9H8N2O2-
177.067	21	C9H9N2O2-
181.0381	367	C11H5N2O-
183.0563	5	C11H7N2O-
184.0643	7	C11H8N2O-
185.072	62	C11H9N2O-
186.0672	13	C12H10O2-
186.0797	13	C11H10N2O-
187.0875	57	C11H11N2O-
189.0668	50	C10H9N2O2-
199.0877	30	C12H11N2O-
203.0825	17	C11H11N2O2-
248.1073	5	C17H14NO-
258.0802	4	C17H10N2O-
266.1551	116	C18H20NO-
275.1185	7	C18H15N2O-
291.1504	207	C19H19N2O-
309.1611	16	C19H21N2O2-
