Mass spectrum: Indole-3-acetic acid; LC-ESI-QFT; MS2; CE: 60; R=17500; [M-H]-
Name: Indole-3-acetic acid
Name: 2-(1H-indol-3-yl)acetic acid
Formula: C10H9NO2
Exact mass: 175.0633
SMILES: OC(=O)CC1=CNC2=C1C=CC=C2
InChI: InChI=1S/C10H9NO2/c12-10(13)5-7-6-11-9-4-2-1-3-8(7)9/h1-4,6,11H,5H2,(H,12,13)
Instrument: Q Exactive Orbitrap (Thermo Scientific)
Instrument type: LC-ESI-QFT
Ms type: MS2
Ion mode: NEGATIVE
Ionization: ESI
Fragmentation mode: HCD
Collision energy: 60
Resolution: 17500
Column name: Acquity BEH C18 1.7um, 2.1x150mm (Waters)
Retention time: 14.046 min
Base peak: 175.04
Precursor m/z: 174.0561
Precursor type: [M-H]-
Precursor intensity: 38928123.30957
m/z	relative intensity	assigned
65.0032	41	C4HO-
77.0398	4	C6H5-
89.0397	103	C7H5-
91.0189	15	C6H3O-
91.0553	6	C7H7-
93.0345	7	C6H5O-
95.0502	68	C6H7O-
102.0475	11	C8H6-
103.0554	31	C8H7-
105.0346	33	C7H5O-
107.0503	26	C7H7O-
109.0295	24	C6H5O2-
119.0502	348	C8H7O-
123.0452	199	C7H7O2-
130.0424	96	C9H6O-
130.0662	5	C9H8N-
131.0503	708	C9H7O-
132.0218	13	C8H4O2-
133.0296	999	C8H5O2-
146.0375	4	C9H6O2-
147.0452	629	C9H7O2-
