Mass spectrum: Metamitron; LC-ESI-QFT; MS2; CE: 15; R=17500; [M+H]+
Name: Metamitron
Name: 4-amino-3-methyl-6-phenyl-1,2,4-triazin-5-one
Formula: C10H10N4O
Exact mass: 202.0855
SMILES: CC1=NN=C(C(=O)N1N)C1=CC=CC=C1
InChI: InChI=1S/C10H10N4O/c1-7-12-13-9(10(15)14(7)11)8-5-3-2-4-6-8/h2-6H,11H2,1H3
Instrument: Q Exactive Orbitrap (Thermo Scientific)
Instrument type: LC-ESI-QFT
Ms type: MS2
Ion mode: POSITIVE
Ionization: ESI
Fragmentation mode: HCD
Collision energy: 15
Resolution: 17500
Column name: Acquity BEH C18 1.7um, 2.1x150mm (Waters)
Retention time: 12.812 min
Base peak: 79.0211
Precursor m/z: 203.0927
Precursor type: [M+H]+
Precursor intensity: 12735437.34375
m/z	relative intensity	assigned
57.0447	4	C2H5N2+
72.0444	4	C3H6NO+
72.0556	1	C2H6N3+
79.0542	4	C6H7+
83.024	2	C3H3N2O+
89.0384	1	C7H5+
100.0505	1	C3H6N3O+
104.0494	15	C7H6N+
106.0651	15	C7H8N+
117.0335	1	C8H5O+
119.0605	1	C7H7N2+
130.0652	3	C9H8N+
145.0396	21	C8H5N2O+
158.0711	1	C9H8N3+
174.0788	23	C10H10N2O+
175.0978	57	C9H11N4+
186.066	2	C10H8N3O+
203.0927	999	C10H11N4O+
