Mass spectrum: Propoxycarbazone; LC-ESI-QFT; MS2; CE: 75; R=17500; [M+H]+
Name: Propoxycarbazone
Name: methyl 2-[(4-methyl-5-oxo-3-propoxy-1,2,4-triazole-1-carbonyl)sulfamoyl]benzoate
Formula: C15H18N4O7S
Exact mass: 398.0896
SMILES: CCCOC1=NN(C(=O)NS(=O)(=O)C2=C(C=CC=C2)C(=O)OC)C(=O)N1C
InChI: InChI=1S/C15H18N4O7S/c1-4-9-26-14-16-19(15(22)18(14)2)13(21)17-27(23,24)11-8-6-5-7-10(11)12(20)25-3/h5-8H,4,9H2,1-3H3,(H,17,21)
Instrument: Q Exactive Orbitrap (Thermo Scientific)
Instrument type: LC-ESI-QFT
Ms type: MS2
Ion mode: POSITIVE
Ionization: ESI
Fragmentation mode: HCD
Collision energy: 75
Resolution: 17500
Column name: Acquity BEH C18 1.7um, 2.1x150mm (Waters)
Retention time: 15.573 min
Base peak: 79.0211
Precursor m/z: 399.0969
Precursor type: [M+H]+
Precursor intensity: 4380710.625
m/z	relative intensity	assigned
51.023	38	C4H3+
53.0386	160	C4H5+
58.0288	170	C2H4NO+
59.0241	34	CH3N2O+
77.0387	43	C6H5+
79.0543	93	C6H7+
81.0335	92	C5H5O+
90.0339	325	C6H4N+
92.0257	206	C6H4O+
95.0492	460	C6H7O+
105.0338	50	C7H5O+
105.0448	192	C6H5N2+
107.0495	11	C7H7O+
116.0455	999	C3H6N3O2+
120.0209	15	C7H4O2+
130.0401	24	C7H4N3+
135.0442	194	C8H7O2+
138.0314	45	C7H6O3+
146.0238	39	C8H4NO2+
168.9957	19	C7H5O3S+
