Mass spectrum: UK-373911; LC-ESI-QFT; MS2; CE: 90; R=17500; [M-H]-
Name: UK-373911
Name: (5S,8S)-5-(3,4-dichlorophenyl)-8-(methylamino)-5,6,7,8-tetrahydronaphthalene-2-sulfonamide
Formula: C17H18Cl2N2O2S
Exact mass: 384.0466
SMILES: CN[C@H]1CC[C@@H](C2=CC=C(Cl)C(Cl)=C2)C2=CC=C(C=C12)S(N)(=O)=O
InChI: InChI=1S/C17H18Cl2N2O2S/c1-21-17-7-5-12(10-2-6-15(18)16(19)8-10)13-4-3-11(9-14(13)17)24(20,22)23/h2-4,6,8-9,12,17,21H,5,7H2,1H3,(H2,20,22,23)/t12-,17-/m0/s1
Instrument: Q Exactive Orbitrap (Thermo Scientific)
Instrument type: LC-ESI-QFT
Ms type: MS2
Ion mode: NEGATIVE
Ionization: ESI
Fragmentation mode: HCD
Collision energy: 90
Resolution: 17500
Column name: Acquity BEH C18 1.7um, 2.1x150mm (Waters)
Retention time: 14.654 min
Base peak: 112.9857
Precursor m/z: 383.0393
Precursor type: [M-H]-
Precursor intensity: 2601732.206055
m/z	relative intensity	assigned
61.9706	999	NOS-
63.9625	504	O2S-
77.9655	341	NO2S-
78.9734	268	HNO2S-
79.9812	625	H2NO2S-
115.0553	120	C9H7-
129.0587	53	C9H7N-
130.0539	24	C8H6N2-
130.0664	38	C9H8N-
142.0662	604	C10H8N-
143.05	53	C10H7O-
143.0615	36	C9H7N2-
144.0819	59	C10H10N-
216.0823	14	C16H10N-
260.0041	15	C14H8Cl2N-
