Mass spectrum: 1-Phenylurea; LC-ESI-QFT; MS2; CE: 90; R=17500; [M+H]+
Name: 1-Phenylurea
Name: phenylurea
Formula: C7H8N2O
Exact mass: 136.0637
SMILES: NC(=O)NC1=CC=CC=C1
InChI: InChI=1S/C7H8N2O/c8-7(10)9-6-4-2-1-3-5-6/h1-5H,(H3,8,9,10)
Instrument: Q Exactive Orbitrap (Thermo Scientific)
Instrument type: LC-ESI-QFT
Ms type: MS2
Ion mode: POSITIVE
Ionization: ESI
Fragmentation mode: HCD
Collision energy: 90
Resolution: 17500
Column name: Acquity BEH C18 1.7um, 2.1x150mm (Waters)
Retention time: 11.084 min
Base peak: 79.0211
Precursor m/z: 137.0709
Precursor type: [M+H]+
Precursor intensity: 3999688.25
m/z	relative intensity	assigned
50.0152	10	C4H2+
51.0229	18	C4H3+
53.0386	267	C4H5+
55.0178	15	C3H3O+
65.0385	36	C5H5+
67.0542	29	C5H7+
77.0385	107	C6H5+
81.0335	27	C5H5O+
81.0699	2	C6H9+
86.0036	101	C6N+
92.0495	100	C6H6N+
93.0573	78	C6H7N+
94.0652	999	C6H8N+
95.0491	737	C6H7O+
96.0443	4	C5H6NO+
105.0448	329	C6H5N2+
120.0444	16	C7H6NO+
137.0714	1	C7H9N2O+
