Mass spectrum: 3,5,3`-Triiodothyronine; LC-ESI-QFT; MS2; CE: 45; R=17500; [M-H]-
Name: 3,5,3'-Triiodothyronine
Name: Liothyronine
Name: (2S)-2-amino-3-[4-(4-hydroxy-3-iodophenoxy)-3,5-diiodophenyl]propanoic acid
Formula: C15H12I3NO4
Exact mass: 650.7901
SMILES: N[C@@H](CC1=CC(I)=C(OC2=CC(I)=C(O)C=C2)C(I)=C1)C(O)=O
InChI: InChI=1S/C15H12I3NO4/c16-9-6-8(1-2-13(9)20)23-14-10(17)3-7(4-11(14)18)5-12(19)15(21)22/h1-4,6,12,20H,5,19H2,(H,21,22)/t12-/m0/s1
Instrument: Q Exactive Orbitrap (Thermo Scientific)
Instrument type: LC-ESI-QFT
Ms type: MS2
Ion mode: NEGATIVE
Ionization: ESI
Fragmentation mode: HCD
Collision energy: 45
Resolution: 17500
Column name: Acquity BEH C18 1.7um, 2.1x150mm (Waters)
Retention time: 16.268 min
Base peak: 202.9786
Precursor m/z: 649.7828
Precursor type: [M-H]-
Precursor intensity: 1131817.5
m/z	relative intensity	assigned
72.0091	20	C2H2NO2-
126.905	999	I-
448.8541	1	C13H7I2O2-
