Mass spectrum: 2-Amino-6-nitrobenzothiazole; LC-ESI-QFT; MS2; CE: 60; R=17500; [M-H]-
Name: 2-Amino-6-nitrobenzothiazole
Name: 6-nitro-1,3-benzothiazol-2-amine
Formula: C7H5N3O2S
Exact mass: 195.0102
SMILES: NC1=NC2=CC=C(C=C2S1)[N+]([O-])=O
InChI: InChI=1S/C7H5N3O2S/c8-7-9-5-2-1-4(10(11)12)3-6(5)13-7/h1-3H,(H2,8,9)
Instrument: Q Exactive Orbitrap (Thermo Scientific)
Instrument type: LC-ESI-QFT
Ms type: MS2
Ion mode: NEGATIVE
Ionization: ESI
Fragmentation mode: HCD
Collision energy: 60
Resolution: 17500
Column name: Acquity BEH C18 1.7um, 2.1x150mm (Waters)
Retention time: 14.413 min
Base peak: 194.0028
Precursor m/z: 194.003
Precursor type: [M-H]-
Precursor intensity: 14557172.61719
m/z	relative intensity	assigned
50.0036	12	C3N-
56.9803	4	C2HS-
57.9757	999	CNS-
60.9754	107	CHOS-
61.9706	6	NOS-
64.0192	6	C4H2N-
65.0145	14	C3HN2-
65.9985	15	C3NO-
70.9836	13	C2HNS-
77.0147	7	C4HN2-
78.0224	14	C4H2N2-
81.9758	33	C3NS-
83.9914	12	C3H2NS-
88.9703	97	C2HO2S-
89.0146	15	C5HN2-
91.0302	22	C5H3N2-
94.9836	12	C4HNS-
95.9914	8	C4H2NS-
104.0379	7	C6H4N2-
106.9961	24	C6H3S-
107.9915	50	C5H2NS-
108.975	3	C5HOS-
115.0302	135	C7H3N2-
119.0252	55	C6H3N2O-
119.9913	11	C6H2NS-
120.0091	8	C6H2NO2-
120.9993	143	C6H3NS-
121.9945	10	C5H2N2S-
122.0126	8	C5H2N2O2-
123.0024	6	C5H3N2S-
123.9865	21	C5H2NOS-
124.994	4	C5H3NOS-
129.0336	5	C7H3N3-
130.0173	97	C7H2N2O-
131.0251	16	C7H3N2O-
132.033	123	C7H4N2O-
132.9868	3	C6HN2S-
135.0024	30	C6H3N2S-
135.9863	14	C6H2NOS-
136.0101	24	C6H4N2S-
136.9944	21	C6H3NOS-
138.986	7	C6H3O2S-
145.9946	10	C7H2N2S-
147.0024	53	C7H3N2S-
147.0202	143	C7H3N2O2-
148.0103	919	C7H4N2S-
149.9895	6	C6H2N2OS-
150.9973	130	C6H3N2OS-
152.9768	6	C5HN2O2S-
153.9969	12	C6H4NO2S-
162.0311	814	C7H4N3O2-
162.9973	170	C7H3N2OS-
164.0052	269	C7H4N2OS-
166.9922	73	C6H3N2O2S-
177.0004	241	C7H3N3OS-
178.9924	10	C7H3N2O2S-
192.9955	9	C7H3N3O2S-
194.0032	976	C7H4N3O2S-
