Mass spectrum: Azoxystrobin; LC-ESI-QFT; MS2; CE: 75; R=17500; [M+H]+
Name: Azoxystrobin
Formula: C22H17N3O5
Exact mass: 403.1168
SMILES: CO\C=C(\C(=O)OC)C1=CC=CC=C1OC1=CC(OC2=CC=CC=C2C#N)=NC=N1
InChI: InChI=1S/C22H17N3O5/c1-27-13-17(22(26)28-2)16-8-4-6-10-19(16)30-21-11-20(24-14-25-21)29-18-9-5-3-7-15(18)12-23/h3-11,13-14H,1-2H3/b17-13+
Instrument: Q Exactive Orbitrap (Thermo Scientific)
Instrument type: LC-ESI-QFT
Ms type: MS2
Ion mode: POSITIVE
Ionization: ESI
Fragmentation mode: HCD
Collision energy: 75
Resolution: 17500
Column name: Acquity BEH C18 1.7um, 2.1x150mm (Waters)
Retention time: 16.922 min
Base peak: 79.0212
Precursor m/z: 404.1241
Precursor type: [M+H]+
Precursor intensity: 25802690.34375
m/z	relative intensity	assigned
50.0151	2	C4H2+
51.0229	3	C4H3+
53.0022	10	C3HO+
53.0386	7	C4H5+
54.0464	1	C4H6+
55.0179	10	C3H3O+
63.0229	6	C5H3+
64.0307	3	C5H4+
65.0386	22	C5H5+
66.0464	13	C5H6+
68.013	7	C3H2NO+
68.9971	30	C3HO2+
69.9923	2	C2NO2+
75.0228	15	C6H3+
75.0439	2	C3H7O2+
76.0182	3	C5H2N+
77.0384	10	C6H5+
78.0338	13	C5H4N+
78.0464	11	C6H6+
79.0182	2	C5H3O+
79.0415	6	C5H5N+
79.0543	17	C6H7+
80.013	2	C4H2NO+
80.0494	1	C5H6N+
82.0287	11	C4H4NO+
83.0128	2	C4H3O2+
89.0386	118	C7H5+
90.0338	2	C6H4N+
90.0465	6	C7H6+
91.0418	23	C6H5N+
91.0543	38	C7H7+
92.0256	10	C6H4O+
92.0366	2	C5H4N2+
92.0495	17	C6H6N+
93.0336	3	C6H5O+
94.0412	5	C6H6O+
95.0492	25	C6H7O+
101.0386	5	C8H5+
102.0338	27	C7H4N+
102.0465	11	C8H6+
103.0416	21	C7H5N+
103.0543	18	C8H7+
104.0495	94	C7H6N+
105.0336	26	C7H5O+
105.0449	9	C6H5N2+
105.0574	12	C7H7N+
106.0288	2	C6H4NO+
106.0412	3	C7H6O+
106.0651	13	C7H8N+
107.0492	22	C7H7O+
108.0443	4	C6H6NO+
111.0441	3	C6H7O2+
114.0339	71	C8H4N+
115.0417	13	C8H5N+
115.0543	9	C9H7+
116.0495	96	C8H6N+
117.0335	41	C8H5O+
117.0573	22	C8H7N+
118.0287	2	C7H4NO+
118.0414	22	C8H6O+
118.0526	2	C7H6N2+
118.0653	3	C8H8N+
119.0367	33	C7H5NO+
119.0491	13	C8H7O+
120.0444	106	C7H6NO+
121.0282	2	C7H5O2+
121.0521	5	C7H7NO+
121.0648	12	C8H9O+
124.0519	3	C7H8O2+
127.0417	59	C9H5N+
128.0495	53	C9H6N+
129.0336	33	C9H5O+
129.0448	160	C8H5N2+
130.0288	54	C8H4NO+
130.0401	140	C7H4N3+
130.0652	7	C9H8N+
131.0366	5	C8H5NO+
131.0491	11	C9H7O+
131.0553	2	H9N3O5+
131.0602	12	C8H7N2+
132.0444	30	C8H6NO+
133.0285	29	C8H5O2+
133.0523	157	C8H7NO+
134.0363	23	C8H6O2+
134.0601	160	C8H8NO+
140.0495	10	C10H6N+
141.0448	28	C9H5N2+
142.0526	10	C9H6N2+
143.0367	34	C9H5NO+
143.0604	63	C9H7N2+
144.0444	106	C9H6NO+
145.0284	25	C9H5O2+
145.0523	99	C9H7NO+
146.0237	46	C8H4NO2+
146.0601	22	C9H8NO+
147.0442	5	C9H7O2+
147.0554	8	C8H7N2O+
148.0395	2	C8H6NO2+
148.0755	1	C9H10NO+
149.0473	2	C8H7NO2+
150.0551	7	C8H8NO2+
153.0448	5	C10H5N2+
154.0288	7	C10H4NO+
154.0406	2	C9H4N3+
154.0526	12	C10H6N2+
155.0368	14	C10H5NO+
155.0604	71	C10H7N2+
156.0444	851	C10H6NO+
157.0283	9	C10H5O2+
157.0397	3	C9H5N2O+
157.0523	15	C10H7NO+
158.0363	4	C10H6O2+
158.0472	2	C9H6N2O+
158.0602	3	C10H8NO+
159.0316	12	C9H5NO2+
159.0553	28	C9H7N2O+
160.0394	9	C9H6NO2+
160.0754	2	C10H10NO+
161.0471	5	C9H7NO2+
161.0711	10	C9H9N2O+
162.0313	16	C9H6O3+
162.055	11	C9H8NO2+
168.0445	2	C11H6NO+
169.0397	27	C10H5N2O+
169.0521	2	C11H7NO+
170.0237	6	C10H4NO2+
170.0476	46	C10H6N2O+
170.0604	4	C11H8NO+
171.0554	150	C10H7N2O+
172.0393	999	C10H6NO2+
173.0473	14	C10H7NO2+
174.0184	2	C9H4NO3+
174.0553	3	C10H8NO2+
175.039	4	C10H7O3+
177.0546	6	C10H9O3+
181.0396	19	C11H5N2O+
181.0638	4	C11H7N3+
182.0476	43	C11H6N2O+
182.0714	7	C11H8N3+
183.0554	185	C11H7N2O+
184.0394	11	C11H6NO2+
184.0628	2	C11H8N2O+
185.0238	2	C11H5O3+
185.0466	2	C11H7NO2+
186.0421	4	C10H6N2O2+
186.0551	13	C11H8NO2+
187.0498	7	C10H7N2O2+
188.0709	9	C11H10NO2+
189.0696	2	C15H9+
190.0497	6	C10H8NO3+
190.0651	5	C14H8N+
191.0733	2	C14H9N+
195.0549	3	C12H7N2O+
197.0347	12	C11H5N2O2+
197.0705	3	C12H9N2O+
198.0427	2	C11H6N2O2+
199.0503	124	C11H7N2O2+
200.0343	183	C11H6NO3+
201.0424	28	C11H7NO3+
201.0653	8	C11H9N2O2+
203.0727	3	C15H9N+
204.081	9	C15H10N+
205.0659	2	C15H9O+
205.0762	6	C14H9N2+
206.0603	3	C14H8NO+
207.0553	3	C13H7N2O+
210.0423	28	C12H6N2O2+
210.0663	3	C12H8N3O+
211.0503	27	C12H7N2O2+
214.0374	3	C11H6N2O3+
216.0678	2	C15H8N2+
216.0809	2	C16H10N+
217.0764	7	C15H9N2+
218.0837	18	C15H10N2+
219.0681	3	C15H9NO+
219.0919	4	C15H11N2+
220.0755	6	C15H10NO+
221.0719	2	C14H9N2O+
227.0445	7	C12H7N2O3+
228.0682	3	C16H8N2+
229.0758	14	C16H9N2+
230.0597	2	C16H8NO+
231.0914	5	C16H11N2+
232.0634	1	C15H8N2O+
232.0756	6	C16H10NO+
232.0869	4	C15H10N3+
233.0714	17	C15H9N2O+
234.091	1	C16H12NO+
236.0709	3	C15H10NO2+
242.0322	37	C12H6N2O4+
244.075	2	C17H10NO+
244.087	28	C16H10N3+
245.0709	48	C16H9N2O+
245.0949	4	C16H11N3+
246.0785	12	C16H10N2O+
247.0866	8	C16H11N2O+
248.0713	2	C16H10NO2+
254.0711	2	C17H8N3+
256.0873	7	C17H10N3+
257.0712	6	C17H9N2O+
258.0793	9	C17H10N2O+
259.087	8	C17H11N2O+
260.07	3	C17H10NO2+
261.0783	3	C17H11NO2+
271.0872	3	C18H11N2O+
272.0819	112	C17H10N3O+
273.0659	43	C17H9N2O2+
273.0899	13	C17H11N3O+
274.0739	16	C17H10N2O2+
275.0812	17	C17H11N2O2+
283.0747	3	C18H9N3O+
284.0816	8	C18H10N3O+
285.066	3	C18H9N2O2+
286.0739	2	C18H10N2O2+
287.0821	7	C18H11N2O2+
288.0652	1	C18H10NO3+
300.0769	95	C18H10N3O2+
301.0844	20	C18H11N3O2+
312.076	2	C19H10N3O2+
328.0717	173	C19H10N3O3+
329.08	10	C19H11N3O3+
