Mass spectrum: C.I. Basic Red 9; LC-ESI-QFT; MS2; CE: 90; R=17500; [M+H]+
Name: C.I. Basic Red 9
Name: 4-[(4-aminophenyl)-(4-iminocyclohexa-2,5-dien-1-ylidene)methyl]aniline
Formula: C19H17N3
Exact mass: 287.1422
SMILES: NC1=CC=C(C=C1)C(C1=CC=C(N)C=C1)=C1C=CC(=N)C=C1
InChI: InChI=1S/C19H17N3/c20-16-7-1-13(2-8-16)19(14-3-9-17(21)10-4-14)15-5-11-18(22)12-6-15/h1-12,20H,21-22H2
Instrument: Q Exactive Orbitrap (Thermo Scientific)
Instrument type: LC-ESI-QFT
Ms type: MS2
Ion mode: POSITIVE
Ionization: ESI
Fragmentation mode: HCD
Collision energy: 90
Resolution: 17500
Column name: Acquity BEH C18 1.7um, 2.1x150mm (Waters)
Retention time: 13.053 min
Base peak: 79.0211
Precursor m/z: 288.1495
Precursor type: [M+H]+
Precursor intensity: 34756416.5
m/z	relative intensity	assigned
54.0338	7	C3H4N+
65.0385	6	C5H5+
79.0542	5	C6H7+
80.0495	12	C5H6N+
91.0543	10	C7H7+
92.0494	4	C6H6N+
93.0573	7	C6H7N+
94.0651	2	C6H8N+
95.0491	3	C4H5N3+
103.0542	9	C8H7+
106.0652	23	C7H8N+
115.0542	42	C9H7+
117.0574	5	C8H7N+
117.0699	2	C9H9+
118.0651	9	C8H8N+
119.0605	2	C7H7N2+
120.081	1	C8H10N+
127.0539	8	C10H7+
128.0495	5	C9H6N+
128.062	12	C10H8+
130.0651	23	C9H8N+
131.0732	2	C9H9N+
139.0542	4	C11H7+
140.0495	11	C10H6N+
141.0698	113	C11H9+
142.0651	9	C10H8N+
143.0604	3	C9H7N2+
143.0729	74	C10H9N+
144.0807	6	C10H10N+
145.0648	14	C8H7N3+
145.0762	1	C9H9N2+
151.0541	40	C12H7+
152.062	38	C12H8+
153.0573	26	C11H7N+
153.0697	8	C12H9+
154.0651	64	C11H8N+
155.0494	8	C9H5N3+
155.0605	29	C10H7N2+
155.0725	9	C11H9N+
156.0809	1	C11H10N+
165.0696	1	C13H9+
166.0653	17	C12H8N+
167.073	327	C12H9N+
168.0807	397	C12H10N+
169.0648	278	C10H7N3+
171.0916	4	C11H11N2+
177.0573	62	C13H7N+
178.0651	367	C13H8N+
179.0604	96	C12H7N2+
179.0728	19	C13H9N+
180.0561	3	C11H6N3+
180.0683	8	C12H8N2+
180.0807	40	C13H10N+
181.076	11	C12H9N2+
182.0839	2	C12H10N2+
183.0802	4	C11H9N3+
191.0859	1	C15H11+
192.0683	4	C13H8N2+
193.0762	52	C13H9N2+
193.0883	7	C14H11N+
194.084	121	C13H10N2+
195.0917	999	C13H11N2+
196.0994	3	C13H12N2+
202.0776	20	C16H10+
203.0731	3	C15H9N+
203.0856	4	C16H11+
204.0808	21	C15H10N+
205.0886	2	C15H11N+
206.0718	2	C13H8N3+
206.0966	2	C15H12N+
208.0996	3	C14H12N2+
215.0853	12	C17H11+
216.0813	5	C16H10N+
216.0914	1	C17H12+
217.0886	28	C16H11N+
218.0963	13	C16H12N+
219.0807	2	C14H9N3+
219.0916	9	C15H11N2+
219.1044	3	C16H13N+
221.1075	16	C15H13N2+
226.0777	32	C18H10+
227.0729	5	C17H9N+
227.0856	10	C18H11+
228.0808	22	C17H10N+
228.0936	6	C18H12+
229.0761	3	C16H9N2+
229.0885	5	C17H11N+
230.0963	59	C17H12N+
231.0917	4	C16H11N2+
231.1043	4	C17H13N+
232.0996	11	C16H12N2+
233.1074	4	C16H13N2+
234.115	3	C16H14N2+
237.0696	6	C19H9+
239.0856	11	C19H11+
240.081	6	C18H10N+
241.0886	20	C18H11N+
242.0839	3	C17H10N2+
242.0965	18	C18H12N+
243.0914	2	C17H11N2+
243.1041	20	C18H13N+
244.0995	2	C17H12N2+
244.1121	7	C18H14N+
245.1073	75	C17H13N2+
246.1149	5	C17H14N2+
247.1236	2	C17H15N2+
252.0804	11	C19H10N+
253.0885	16	C19H11N+
254.0964	120	C19H12N+
255.0915	30	C18H11N2+
255.1047	9	C19H13N+
256.0992	32	C18H12N2+
256.1123	20	C19H14N+
257.1074	14	C18H13N2+
258.1021	1	C17H12N3+
258.1154	8	C18H14N2+
259.1231	3	C18H15N2+
260.1181	1	C17H14N3+
269.1073	78	C19H13N2+
270.1017	3	C18H12N3+
270.1153	12	C19H14N2+
271.1232	113	C19H15N2+
272.1181	79	C18H14N3+
273.1259	14	C18H15N3+
286.1339	45	C19H16N3+
