Mass spectrum: N-Phenyldiethanolamine; LC-ESI-QFT; MS2; CE: 75; R=17500; [M+H]+
Name: N-Phenyldiethanolamine
Name: 2-[N-(2-hydroxyethyl)anilino]ethanol
Formula: C10H15NO2
Exact mass: 181.1103
SMILES: OCCN(CCO)C1=CC=CC=C1
InChI: InChI=1S/C10H15NO2/c12-8-6-11(7-9-13)10-4-2-1-3-5-10/h1-5,12-13H,6-9H2
Instrument: Q Exactive Orbitrap (Thermo Scientific)
Instrument type: LC-ESI-QFT
Ms type: MS2
Ion mode: POSITIVE
Ionization: ESI
Fragmentation mode: HCD
Collision energy: 75
Resolution: 17500
Column name: Acquity BEH C18 1.7um, 2.1x150mm (Waters)
Retention time: 6.737 min
Base peak: 79.0212
Precursor m/z: 182.1176
Precursor type: [M+H]+
Precursor intensity: 3802836.65625
m/z	relative intensity	assigned
51.023	2	C4H3+
53.0386	25	C4H5+
54.034	2	C3H4N+
55.0178	2	C3H3O+
65.0386	6	C5H5+
67.0542	1	C5H7+
74.0964	2	C4H12N+
77.0385	12	C6H5+
78.0463	9	C6H6+
79.0542	63	C6H7+
80.0493	8	C5H6N+
81.0335	2	C5H5O+
91.0542	75	C7H7+
92.0495	28	C6H6N+
92.0621	2	C7H8+
93.0574	47	C6H7N+
93.0699	54	C7H9+
94.0652	75	C6H8N+
95.0492	76	C6H7O+
103.0543	151	C8H7+
104.0495	30	C7H6N+
105.0575	6	C7H7N+
105.07	8	C8H9+
106.0652	782	C7H8N+
110.0603	3	C6H8NO+
117.0573	29	C8H7N+
117.07	1	C9H9+
118.0652	357	C8H8N+
119.073	201	C8H9N+
120.0808	999	C8H10N+
121.0885	2	C8H11N+
128.0622	4	C10H8+
129.07	3	C10H9+
130.0652	37	C9H8N+
131.073	48	C9H9N+
132.0807	10	C9H10N+
133.0887	2	C9H11N+
137.0835	14	C8H11NO+
138.0912	10	C8H12NO+
144.0808	11	C10H10N+
145.0887	3	C10H11N+
146.0965	23	C10H12N+
164.107	25	C10H14NO+
182.1175	4	C10H16NO2+
