Mass spectrum: 4-Nitro-N-phenylaniline; LC-ESI-QFT; MS2; CE: 45; R=17500; [M-H]-
Name: 4-Nitro-N-phenylaniline
Name: 4-Nitrodiphenylamine
Formula: C12H10N2O2
Exact mass: 214.0742
SMILES: [O-][N+](=O)C1=CC=C(NC2=CC=CC=C2)C=C1
InChI: InChI=1S/C12H10N2O2/c15-14(16)12-8-6-11(7-9-12)13-10-4-2-1-3-5-10/h1-9,13H
Instrument: Q Exactive Orbitrap (Thermo Scientific)
Instrument type: LC-ESI-QFT
Ms type: MS2
Ion mode: NEGATIVE
Ionization: ESI
Fragmentation mode: HCD
Collision energy: 45
Resolution: 17500
Column name: Acquity BEH C18 1.7um, 2.1x150mm (Waters)
Retention time: 17.870 min
Base peak: 213.067
Precursor m/z: 213.067
Precursor type: [M-H]-
Precursor intensity: 33052413.30664
m/z	relative intensity	assigned
93.0345	5	C6H5O-
116.0505	1	C8H6N-
122.0249	1	C6H4NO2-
137.0355	8	C6H5N2O2-
140.0504	1	C10H6N-
166.0661	4	C12H8N-
167.0614	1	C11H7N2-
168.0454	2	C11H6NO-
170.0609	2	C11H8NO-
178.0532	1	C12H6N2-
181.0534	1	C12H7NO-
182.0609	25	C12H8NO-
183.0688	230	C12H9NO-
195.0559	3	C12H7N2O-
198.056	1	C12H8NO2-
211.0513	50	C12H7N2O2-
213.0667	999	C12H9N2O2-
