Mass spectrum: Piragliatin; LC-ESI-QFT; MS2; CE: 30; R=17500; [M+H]+
Name: Piragliatin
Name: (2R)-2-(3-chloro-4-methylsulfonylphenyl)-3-[(1R)-3-oxocyclopentyl]-N-pyrazin-2-ylpropanamide
Formula: C19H20ClN3O4S
Exact mass: 421.0863
SMILES: CS(=O)(=O)C1=CC=C(C=C1Cl)[C@@H](C[C@H]1CCC(=O)C1)C(=O)NC1=NC=CN=C1
InChI: InChI=1S/C19H20ClN3O4S/c1-28(26,27)17-5-3-13(10-16(17)20)15(9-12-2-4-14(24)8-12)19(25)23-18-11-21-6-7-22-18/h3,5-7,10-12,15H,2,4,8-9H2,1H3,(H,22,23,25)/t12-,15+/m0/s1
Instrument: Q Exactive Orbitrap (Thermo Scientific)
Instrument type: LC-ESI-QFT
Ms type: MS2
Ion mode: POSITIVE
Ionization: ESI
Fragmentation mode: HCD
Collision energy: 30
Resolution: 17500
Column name: Acquity BEH C18 1.7um, 2.1x150mm (Waters)
Retention time: 14.557 min
Base peak: 79.0211
Precursor m/z: 422.0936
Precursor type: [M+H]+
Precursor intensity: 1471380.03125
m/z	relative intensity	assigned
55.0179	16	C3H3O+
78.9848	15	CH3O2S+
83.049	23	C5H7O+
95.0494	6	C6H7O+
96.0556	999	C4H6N3+
97.0395	8	C4H5N2O+
141.0103	24	C7H6ClO+
162.023	35	C10H7Cl+
163.0309	10	C10H8Cl+
167.0859	18	C13H11+
168.0936	27	C13H12+
175.031	14	C11H8Cl+
176.0388	6	C11H9Cl+
177.0466	25	C11H10Cl+
185.0962	10	C13H13O+
201.0469	5	C13H10Cl+
202.0543	75	C13H11Cl+
202.9932	22	C8H8ClO2S+
203.0623	120	C13H12Cl+
241.0086	105	C11H10ClO2S+
255.024	36	C12H12ClO2S+
281.0398	113	C14H14ClO2S+
291.0239	44	C15H12ClO2S+
299.0503	95	C14H16ClO3S+
327.0449	29	C15H16ClO4S+
404.0833	638	C19H19ClN3O3S+
422.0946	20	C19H21ClN3O4S+
