Mass spectrum: CP-532623; LC-ESI-QFT; MS2; CE: 30; R=17500; [M-H]-
Name: CP-532623
Name: propan-2-yl (2R,4S)-4-[acetyl-[[3,5-bis(trifluoromethyl)phenyl]methyl]amino]-2-ethyl-6-(trifluoromethyl)-3,4-dihydro-2H-quinoline-1-carboxylate
Formula: C27H27F9N2O3
Exact mass: 598.1878
SMILES: CC[C@@H]1C[C@H](N(CC2=CC(=CC(=C2)C(F)(F)F)C(F)(F)F)C(C)=O)C2=C(C=CC(=C2)C(F)(F)F)N1C(=O)OC(C)C
InChI: InChI=1S/C27H27F9N2O3/c1-5-20-12-23(21-11-17(25(28,29)30)6-7-22(21)38(20)24(40)41-14(2)3)37(15(4)39)13-16-8-18(26(31,32)33)10-19(9-16)27(34,35)36/h6-11,14,20,23H,5,12-13H2,1-4H3/t20-,23+/m1/s1
Instrument: Q Exactive Orbitrap (Thermo Scientific)
Instrument type: LC-ESI-QFT
Ms type: MS2
Ion mode: NEGATIVE
Ionization: ESI
Fragmentation mode: HCD
Collision energy: 30
Resolution: 17500
Column name: Acquity BEH C18 1.7um, 2.1x150mm (Waters)
Retention time: 19.739 min
Base peak: 249.1496
Precursor m/z: 597.1805
Precursor type: [M-H]-
Precursor intensity: 1225390.125
m/z	relative intensity	assigned
58.0298	12	C2H4NO-
213.0144	16	C8H3F6-
224.0695	6	C12H9F3N-
227.0302	999	C9H5F6-
228.1002	6	C4H14F8N-
238.0849	3	C13H11F3N-
253.0093	20	C10H3F6O-
254.0799	186	C13H11F3NO-
267.0752	20	C13H10F3N2O-
271.0199	3	C10H5F6O2-
280.0949	7	C7H14F8NO-
283.0438	514	C11H7F6NO-
284.0518	34	C19H7FNO-
294.1312	24	C16H18F2NO2-
309.0857	10	C15H12F3N2O2-
310.0311	23	C20H5FNO2-
314.1374	99	C16H19F3NO2-
369.1444	2	C18H20F3N2O3-
375.0611	10	C21H9F6-
396.0452	8	C22H7F5NO-
415.0733	8	C21H11F8-
435.08	12	C21H12F9-
436.0749	4	C20H11F9N-
