Mass spectrum: 2-Ethylhexyl 4-(dimethylamino)benzoate; LC-ESI-QFT; MS2; CE: 60; R=17500; [M+H]+
Name: 2-Ethylhexyl 4-(dimethylamino)benzoate
Formula: C17H27NO2
Exact mass: 277.2042
SMILES: CCCCC(CC)COC(=O)C1=CC=C(C=C1)N(C)C
InChI: InChI=1S/C17H27NO2/c1-5-7-8-14(6-2)13-20-17(19)15-9-11-16(12-10-15)18(3)4/h9-12,14H,5-8,13H2,1-4H3
Instrument: Q Exactive Orbitrap (Thermo Scientific)
Instrument type: LC-ESI-QFT
Ms type: MS2
Ion mode: POSITIVE
Ionization: ESI
Fragmentation mode: HCD
Collision energy: 60
Resolution: 17500
Column name: Acquity BEH C18 1.7um, 2.1x150mm (Waters)
Retention time: 20.789 min
Base peak: 79.0211
Precursor m/z: 278.2115
Precursor type: [M+H]+
Precursor intensity: 40752520.95312
m/z	relative intensity	assigned
55.0542	1	C4H7+
57.0699	1	C4H9+
70.0776	1	C5H10+
83.0854	1	C6H11+
106.0651	5	C7H8N+
107.0729	34	C7H9N+
120.0807	2	C8H10N+
121.0887	3	C8H11N+
122.0964	12	C8H12N+
134.06	38	C8H8NO+
148.0758	1	C9H10NO+
150.0551	57	C8H8NO2+
151.0627	999	C8H9NO2+
166.0862	336	C9H12NO2+
278.2117	1	C17H28NO2+
