Mass spectrum: Clodinafop-propargyl; LC-ESI-QFT; MS2; CE: 15; R=17500; [M+H]+
Name: Clodinafop-propargyl
Name: prop-2-ynyl (2R)-2-[4-(5-chloro-3-fluoropyridin-2-yl)oxyphenoxy]propanoate
Formula: C17H13ClFNO4
Exact mass: 349.0517
SMILES: C[C@@H](OC1=CC=C(OC2=NC=C(Cl)C=C2F)C=C1)C(=O)OCC#C
InChI: InChI=1S/C17H13ClFNO4/c1-3-8-22-17(21)11(2)23-13-4-6-14(7-5-13)24-16-15(19)9-12(18)10-20-16/h1,4-7,9-11H,8H2,2H3/t11-/m1/s1
Instrument: Q Exactive Orbitrap (Thermo Scientific)
Instrument type: LC-ESI-QFT
Ms type: MS2
Ion mode: POSITIVE
Ionization: ESI
Fragmentation mode: HCD
Collision energy: 15
Resolution: 17500
Column name: Acquity BEH C18 1.7um, 2.1x150mm (Waters)
Retention time: 18.291 min
Base peak: 79.0212
Precursor m/z: 350.059
Precursor type: [M+H]+
Precursor intensity: 12986932.5
m/z	relative intensity	assigned
91.0543	3	C7H7+
111.044	1	C6H7O2+
112.0517	1	C6H8O2+
129.9858	1	C5H2ClFN+
131.0491	3	C9H7O+
157.0647	2	C11H9O+
158.0722	1	C11H10O+
204.0782	4	C12H12O3+
238.0068	6	C11H6ClFNO2+
238.043	4	C12H10ClFNO+
239.0137	2	C14H4FO3+
240.0223	1	C11H8ClFNO2+
252.0234	1	C12H8ClFNO2+
266.0378	999	C13H10ClFNO2+
276.0225	5	C14H8ClFNO2+
277.0301	22	C14H9ClFNO2+
278.0378	7	C14H10ClFNO2+
292.0172	4	C14H8ClFNO3+
294.0328	15	C14H10ClFNO3+
304.0535	14	C16H12ClFNO2+
311.0356	5	C14H11ClFNO4+
350.059	810	C17H14ClFNO4+
