Mass spectrum: Dapsone; LC-ESI-QFT; MS2; CE: 60; R=17500; [M+H]+
Name: Dapsone
Name: 4-(4-aminophenyl)sulfonylaniline
Formula: C12H12N2O2S
Exact mass: 248.0619
SMILES: NC1=CC=C(C=C1)S(=O)(=O)C1=CC=C(N)C=C1
InChI: InChI=1S/C12H12N2O2S/c13-9-1-5-11(6-2-9)17(15,16)12-7-3-10(14)4-8-12/h1-8H,13-14H2
Instrument: Q Exactive Orbitrap (Thermo Scientific)
Instrument type: LC-ESI-QFT
Ms type: MS2
Ion mode: POSITIVE
Ionization: ESI
Fragmentation mode: HCD
Collision energy: 60
Resolution: 17500
Column name: Acquity BEH C18 1.7um, 2.1x150mm (Waters)
Retention time: 10.889 min
Base peak: 79.0212
Precursor m/z: 249.0692
Precursor type: [M+H]+
Precursor intensity: 5956332.96875
m/z	relative intensity	assigned
53.0022	2	C3HO+
53.0386	6	C4H5+
54.0338	6	C3H4N+
55.0178	6	C3H3O+
61.0107	1	C2H5S+
65.0385	242	C5H5+
66.0464	5	C5H6+
67.0177	2	C4H3O+
67.0416	2	C4H5N+
68.0494	127	C4H6N+
69.0334	11	C4H5O+
78.0338	15	C5H4N+
79.0178	18	C5H3O+
80.0494	51	C5H6N+
81.0334	1	C5H5O+
82.0288	3	C4H4NO+
83.0491	1	C5H7O+
92.0495	628	C6H6N+
93.0573	228	C6H7N+
95.0367	3	C5H5NO+
96.0444	19	C5H6NO+
108.0443	999	C6H6NO+
109.0521	3	C6H7NO+
110.06	224	C6H8NO+
120.0556	19	C8H8O+
124.0758	2	C7H10NO+
140.0164	2	C6H6NOS+
141.0195	1	C9H3NO+
156.0113	60	C6H6NO2S+
