Mass spectrum: Trilostane; LC-ESI-QFT; MS2; CE: 90; R=17500; [M+H]+
Name: Trilostane
Name: (1S,2R,6R,8S,11S,12S,15S,16S)-5,15-dihydroxy-2,16-dimethyl-7-oxapentacyclo[9.7.0.02,8.06,8.012,16]octadec-4-ene-4-carbonitrile
Formula: C20H27NO3
Exact mass: 329.1991
SMILES: C[C@]12CC[C@H]3[C@@H](CC[C@@]45O[C@@H]4C(O)=C(C[C@]35C)C#N)[C@@H]1CC[C@@H]2O
InChI: InChI=1S/C20H27NO3/c1-18-7-6-14-12(13(18)3-4-15(18)22)5-8-20-17(24-20)16(23)11(10-21)9-19(14,20)2/h12-15,17,22-23H,3-9H2,1-2H3/t12-,13-,14-,15-,17+,18-,19+,20+/m0/s1
Instrument: Q Exactive Orbitrap (Thermo Scientific)
Instrument type: LC-ESI-QFT
Ms type: MS2
Ion mode: POSITIVE
Ionization: ESI
Fragmentation mode: HCD
Collision energy: 90
Resolution: 17500
Column name: Acquity BEH C18 1.7um, 2.1x150mm (Waters)
Retention time: 16.986 min
Base peak: 79.0211
Precursor m/z: 330.2064
Precursor type: [M+H]+
Precursor intensity: 54473403.28125
m/z	relative intensity	assigned
53.0386	88	C4H5+
65.0385	69	C5H5+
79.0542	15	C6H7+
81.0334	8	C5H5O+
91.0543	521	C7H7+
95.0492	231	C6H7O+
103.0542	386	C8H7+
105.0698	20	C8H9+
115.0542	695	C9H7+
116.062	87	C9H8+
117.0698	30	C9H9+
118.065	84	C8H8N+
128.062	99	C10H8+
129.0698	56	C10H9+
141.0698	8	C11H9+
144.0808	10	C10H10N+
145.0647	16	C10H9O+
146.0596	4	C9H8NO+
156.0809	36	C11H10N+
157.0884	16	C11H11N+
165.07	148	C13H9+
168.0811	7	C12H10N+
178.078	11	C14H10+
184.0758	7	C12H10NO+
191.0855	191	C15H11+
192.093	15	C15H12+
193.0847	43	C11H13O3+
194.0924	20	C11H14O3+
200.0712	4	C12H10NO2+
205.0997	3	C16H13+
208.1124	93	C15H14N+
253.17	4	C14H23NO3+
286.1541	14	C18H22O3+
290.0976	40	C19H14O3+
291.089	999	C18H13NO3+
314.1733	149	C19H24NO3+
