Mass spectrum: Cladribine; LC-ESI-QFT; MS2; CE: 90; R=17500; [M-H]-
Name: Cladribine
Formula: C10H12ClN5O3
Exact mass: 285.0629
SMILES: NC1=NC(Cl)=NC2=C1N=CN2[C@H]1C[C@H](O)[C@@H](CO)O1
InChI: InChI=1S/C10H12ClN5O3/c11-10-14-8(12)7-9(15-10)16(3-13-7)6-1-4(18)5(2-17)19-6/h3-6,17-18H,1-2H2,(H2,12,14,15)/t4-,5+,6+/m0/s1
Instrument: Q Exactive Orbitrap (Thermo Scientific)
Instrument type: LC-ESI-QFT
Ms type: MS2
Ion mode: NEGATIVE
Ionization: ESI
Fragmentation mode: HCD
Collision energy: 90
Resolution: 17500
Column name: Acquity BEH C18 1.7um, 2.1x150mm (Waters)
Retention time: 10.813 min
Base peak: 276.0309
Precursor m/z: 284.0556
Precursor type: [M-H]-
Precursor intensity: 2251937.285156
m/z	relative intensity	assigned
59.0138	6	C2H3O2-
66.0098	999	C2N3-
78.0097	29	C3N3-
90.0098	38	C4N3-
104.0128	17	C4N4-
105.0207	82	C4HN4-
107.0363	23	C4H3N4-
131.0237	483	C5HN5-
132.0316	403	C5H2N5-
158.0478	5	C7H4N5-
167.0001	14	C5H2ClN5-
168.0084	10	C5H3ClN5-
