Mass spectrum: SB413217A; LC-ESI-QFT; MS2; CE: 90; R=17500; [M+H]+
Name: SB413217A
Name: (E)-3-(4-fluorophenyl)-N-[4-[2-[7-(5-methyl-1,2,4-oxadiazol-3-yl)-1,2,4,5-tetrahydro-3-benzazepin-3-yl]ethyl]cyclohexyl]prop-2-enamide
Formula: C30H35FN4O2
Exact mass: 502.2744
SMILES: Cc1nc(-c2ccc3c(c2)CCN(CCC2CCC(NC(=O)/C=C/c4ccc(F)cc4)CC2)CC3)no1
InChI: InChI=1S/C30H35FN4O2/c1-21-32-30(34-37-21)26-8-7-24-15-18-35(19-16-25(24)20-26)17-14-23-4-11-28(12-5-23)33-29(36)13-6-22-2-9-27(31)10-3-22/h2-3,6-10,13,20,23,28H,4-5,11-12,14-19H2,1H3,(H,33,36)/b13-6+
Instrument: Q Exactive Orbitrap (Thermo Scientific)
Instrument type: LC-ESI-QFT
Ms type: MS2
Ion mode: POSITIVE
Ionization: ESI
Fragmentation mode: HCD
Collision energy: 90
Resolution: 17500
Column name: Acquity BEH C18 1.7um, 2.1x150mm (Waters)
Retention time: 15.241 min
Base peak: 79.0211
Precursor m/z: 503.2817
Precursor type: [M+H]+
Precursor intensity: 7391510.875
m/z	relative intensity	assigned
50.0151	1	C4H2+
51.023	2	C4H3+
53.0022	12	C3HO+
53.0386	22	C4H5+
55.0179	2	C3H3O+
55.0543	21	C4H7+
56.0495	8	C3H6N+
58.0651	6	C3H8N+
65.0385	47	C5H5+
66.0464	3	C5H6+
67.0542	361	C5H7+
69.0698	4	FH8N3+
70.0651	1	C4H8N+
74.0149	6	CHFN3+
75.0229	101	C6H3+
77.0385	47	C6H5+
79.0542	85	C6H7+
81.0699	96	C6H9+
82.0651	1	C5H8N+
91.0542	174	C7H7+
94.0778	2	C7H10+
95.029	2	C6H4F+
95.0491	30	C6H7O+
95.0856	3	C7H11+
97.0448	3	C6H6F+
98.0964	3	C6H12N+
101.0386	72	C8H5+
102.0464	1	C8H6+
103.0542	46	C8H7+
105.0336	5	C7H5O+
105.0446	10	C6H5N2+
105.0699	9	C8H9+
107.0856	3	C8H11+
109.1012	5	C8H13+
113.0398	7	C6H6FO+
115.0542	107	C9H7+
116.0621	9	C9H8+
117.0573	11	C8H7N+
117.0699	28	C9H9+
118.0414	4	C8H6O+
118.0649	6	C3H7FN4+
118.0777	1	C9H10+
119.0492	177	C8H7O+
120.0368	1	C8H5F+
121.0448	999	C8H6F+
123.0351	7	C6H4FN2+
123.0603	9	C8H8F+
124.0556	3	C7H7FN+
127.0542	16	C10H7+
128.0496	14	C9H6N+
128.062	64	C10H8+
129.0447	499	C8H5N2+
129.0697	43	C5H8FN3+
130.0418	4	C9H6O+
130.0651	28	C9H8N+
130.0776	25	C5H9FN3+
131.0605	9	C8H7N2+
131.0729	6	C9H9N+
132.0444	2	C8H6NO+
132.0682	4	C8H8N2+
132.0808	13	C9H10N+
142.0652	81	C10H8N+
142.0778	4	C11H10+
143.0603	6	C9H7N2+
144.0684	9	C9H8N2+
144.0808	56	C10H10N+
145.0648	34	C10H9O+
145.0757	10	C9H9N2+
146.06	10	C9H8NO+
147.0804	11	C10H11O+
148.0557	2	C9H7FN+
149.0397	175	C9H6FO+
154.0651	80	C11H8N+
155.0603	44	C10H7N2+
155.0726	2	C6H8FN4+
156.0683	15	C10H8N2+
156.0804	8	C6H9FN4+
157.076	26	C10H9N2+
158.084	4	C10H10N2+
158.0966	3	C11H12N+
159.0917	34	C10H11N2+
159.1031	5	C6H12FN4+
160.0756	31	C10H10NO+
166.0661	1	C9H9FNO+
168.0681	5	C11H8N2+
169.0758	7	C11H9N2+
170.0713	5	C10H8N3+
170.0837	2	C11H10N2+
171.0916	40	C11H11N2+
173.107	1	C11H13N2+
174.0911	2	C6H11FN4O+
183.0918	1	C12H11N2+
184.087	3	C11H10N3+
185.0945	6	C11H11N3+
185.107	7	C12H13N2+
186.0785	1	C11H10N2O+
198.1031	1	C12H12N3+
200.1181	9	C12H14N3+
201.1023	8	C12H13N2O+
212.0817	1	C12H10N3O+
242.1289	3	C14H16N3O+
