Mass spectrum: 2-phenylphenate tetrahydrate; LC-ESI-QFT; MS2; CE: 15; R=17500; [M+H]+
Name: 2-phenylphenate tetrahydrate
Name: 2-phenylphenol
Formula: C12H10O
Exact mass: 170.0732
SMILES: OC1=C(C=CC=C1)C1=CC=CC=C1
InChI: InChI=1S/C12H10O/c13-12-9-5-4-8-11(12)10-6-2-1-3-7-10/h1-9,13H
Instrument: Q Exactive Orbitrap (Thermo Scientific)
Instrument type: LC-ESI-QFT
Ms type: MS2
Ion mode: POSITIVE
Ionization: ESI
Fragmentation mode: HCD
Collision energy: 15
Resolution: 17500
Column name: Acquity BEH C18 1.7um, 2.1x150mm (Waters)
Retention time: 18.023 min
Base peak: 79.0211
Precursor m/z: 171.0804
Precursor type: [M+H]+
Precursor intensity: 1926146.015625
m/z	relative intensity	assigned
55.0179	6	C3H3O+
57.0699	5	C4H9+
83.0855	1	C6H11+
103.0539	1	C8H7+
115.0542	6	C9H7+
127.0542	1	C10H7+
128.0621	38	C10H8+
129.07	16	C10H9+
141.0696	2	C11H9+
143.0856	145	C11H11+
145.0649	4	C10H9O+
152.0619	2	C12H8+
153.0699	48	C12H9+
169.0649	2	C12H9O+
170.0734	1	C12H10O+
171.0805	999	C12H11O+
