Mass spectrum: 3,3`,5,5`-Tetrabromobisphenol A; LC-ESI-QFT; MS2; CE: 30; R=17500; [M-H]-
Name: 3,3',5,5'-Tetrabromobisphenol A
Name: Tetrabromobisphenol A
Name: 2,6-dibromo-4-[2-(3,5-dibromo-4-hydroxyphenyl)propan-2-yl]phenol
Formula: C15H12Br4O2
Exact mass: 539.7571
SMILES: CC(C)(C1=CC(Br)=C(O)C(Br)=C1)C1=CC(Br)=C(O)C(Br)=C1
InChI: InChI=1S/C15H12Br4O2/c1-15(2,7-3-9(16)13(20)10(17)4-7)8-5-11(18)14(21)12(19)6-8/h3-6,20-21H,1-2H3
Instrument: Q Exactive Orbitrap (Thermo Scientific)
Instrument type: LC-ESI-QFT
Ms type: MS2
Ion mode: NEGATIVE
Ionization: ESI
Fragmentation mode: HCD
Collision energy: 30
Resolution: 17500
Column name: Acquity BEH C18 1.7um, 2.1x150mm (Waters)
Retention time: 19.390 min
Base peak: 542.7457
Precursor m/z: 538.7498
Precursor type: [M-H]-
Precursor intensity: 1610773.789063
m/z	relative intensity	assigned
78.9189	999	Br-
248.8563	12	C6H3Br2O-
288.8871	180	C9H7Br2O-
299.8784	7	C10H6Br2O-
339.8739	31	C12H6Br2O2-
351.8733	6	C13H6Br2O2-
415.8068	5	C13H7Br3O-
431.7998	14	C13H7Br3O2-
443.8001	37	C14H7Br3O2-
444.8076	24	C14H8Br3O2-
523.7264	55	C14H8Br4O2-
538.7499	820	C15H11Br4O2-
