Mass spectrum: Besonprodil; LC-ESI-QFT; MS2; CE: 90; R=17500; [M+H]+
Name: Besonprodil
Name: 6-[2-[4-[(4-fluorophenyl)methyl]piperidin-1-yl]ethylsulfinyl]-3H-1,3-benzoxazol-2-one
Formula: C21H23FN2O3S
Exact mass: 402.1413
SMILES: FC1=CC=C(CC2CCN(CCS(=O)C3=CC=C4NC(=O)OC4=C3)CC2)C=C1
InChI: InChI=1S/C21H23FN2O3S/c22-17-3-1-15(2-4-17)13-16-7-9-24(10-8-16)11-12-28(26)18-5-6-19-20(14-18)27-21(25)23-19/h1-6,14,16H,7-13H2,(H,23,25)
Instrument: Q Exactive Orbitrap (Thermo Scientific)
Instrument type: LC-ESI-QFT
Ms type: MS2
Ion mode: POSITIVE
Ionization: ESI
Fragmentation mode: HCD
Collision energy: 90
Resolution: 17500
Column name: Acquity BEH C18 1.7um, 2.1x150mm (Waters)
Retention time: 13.242 min
Base peak: 79.0211
Precursor m/z: 403.1486
Precursor type: [M+H]+
Precursor intensity: 9641677.25
m/z	relative intensity	assigned
53.0022	2	C3HO+
53.0386	3	C4H5+
54.0339	10	C3H4N+
54.0464	2	C4H6+
55.0417	1	C3H5N+
55.0543	18	C4H7+
56.0495	214	C3H6N+
57.0135	2	C3H2F+
57.0573	8	C3H7N+
58.0651	54	C3H8N+
65.0386	8	C5H5+
67.0416	4	C4H5N+
67.0542	22	C5H7+
68.0495	154	C4H6N+
69.0573	386	C4H7N+
70.0651	139	C4H8N+
72.0808	5	C4H10N+
78.0339	1	C5H4N+
79.0542	8	C6H7+
80.0494	13	C5H6N+
81.0574	4	C5H7N+
81.0699	4	C6H9+
82.0651	118	C5H8N+
83.0291	37	C5H4F+
83.0729	13	C5H9N+
84.0808	47	C5H10N+
89.0386	3	C7H5+
91.0542	1	C7H7+
92.0494	2	C6H6N+
94.0651	8	C6H8N+
94.9951	2	C5H3S+
95.0729	3	C6H9N+
96.0808	117	C6H10N+
97.0887	6	C6H11N+
98.0964	1	C6H12N+
103.0542	15	C8H7+
108.0444	4	C6H6NO+
108.0809	2	C7H10N+
109.0449	999	C7H6F+
110.0964	16	C7H12N+
111.1041	3	C7H13N+
112.1119	1	C7H14N+
115.0543	49	C9H7+
121.0448	8	C8H6F+
122.0058	3	C6H4NS+
123.0605	21	C8H8F+
128.0621	18	C10H8+
129.0699	8	C10H9+
133.0448	43	C9H6F+
134.0528	9	C9H7F+
135.0605	80	C9H8F+
136.0394	15	C7H6NO2+
136.0683	6	C9H9F+
143.0856	1	C11H11+
145.0648	6	C10H9O+
146.0526	10	C10H7F+
147.0605	77	C10H8F+
148.0683	17	C10H9F+
149.0762	16	C10H10F+
150.0713	5	C9H9FN+
153.9957	1	C6H4NO2S+
155.0602	5	C10H7N2+
161.0761	3	C11H10F+
163.0916	6	C11H12F+
164.087	2	C10H11FN+
175.0917	1	C12H12F+
181.9907	1	C7H4NO3S+
192.1183	26	C12H15FN+
206.134	6	C13H17FN+
220.1496	4	C14H19FN+
