Mass spectrum: 1-Phenyl-2-thiourea; LC-ESI-QFT; MS2; CE: 60; R=17500; [M+H]+
Name: 1-Phenyl-2-thiourea
Name: N'-phenylcarbamimidothioic acid
Formula: C7H8N2S
Exact mass: 152.0408
SMILES: NC(=S)NC1=CC=CC=C1
InChI: InChI=1S/C7H8N2S/c8-7(10)9-6-4-2-1-3-5-6/h1-5H,(H3,8,9,10)
Instrument: Q Exactive Orbitrap (Thermo Scientific)
Instrument type: LC-ESI-QFT
Ms type: MS2
Ion mode: POSITIVE
Ionization: ESI
Fragmentation mode: HCD
Collision energy: 60
Resolution: 17500
Column name: Acquity BEH C18 1.7um, 2.1x150mm (Waters)
Retention time: 10.372 min
Base peak: 79.0211
Precursor m/z: 153.0481
Precursor type: [M+H]+
Precursor intensity: 975672.625
m/z	relative intensity	assigned
50.0151	3	C4H2+
51.0229	3	C4H3+
53.0386	79	C4H5+
59.9903	175	CH2NS+
61.0106	3	C2H5S+
67.0542	4	C5H7+
77.0384	25	C6H5+
78.0465	16	C6H6+
86.0036	164	C6N+
93.0573	7	C6H7N+
94.0652	999	C6H8N+
105.0448	87	C6H5N2+
109.0107	133	C6H5S+
119.0605	20	C7H7N2+
123.0132	7	C6H5NS+
136.0216	934	C7H6NS+
153.0481	52	C7H9N2S+
