Mass spectrum: Triamcinolone; LC-ESI-QFT; MS2; CE: 90; R=17500; [M-H]-
Name: Triamcinolone
Name: (8S,9R,10S,11S,13S,14S,16R,17S)-9-fluoro-11,16,17-trihydroxy-17-(2-hydroxyacetyl)-10,13-dimethyl-6,7,8,11,12,14,15,16-octahydrocyclopenta[a]phenanthren-3-one
Formula: C21H27FO6
Exact mass: 394.1792
SMILES: C[C@]12C[C@H](O)[C@@]3(F)[C@@H](CCC4=CC(=O)C=C[C@]34C)[C@@H]1C[C@@H](O)[C@]2(O)C(=O)CO
InChI: InChI=1S/C21H27FO6/c1-18-6-5-12(24)7-11(18)3-4-13-14-8-15(25)21(28,17(27)10-23)19(14,2)9-16(26)20(13,18)22/h5-7,13-16,23,25-26,28H,3-4,8-10H2,1-2H3/t13-,14-,15+,16-,18-,19-,20-,21-/m0/s1
Instrument: Q Exactive Orbitrap (Thermo Scientific)
Instrument type: LC-ESI-QFT
Ms type: MS2
Ion mode: NEGATIVE
Ionization: ESI
Fragmentation mode: HCD
Collision energy: 90
Resolution: 17500
Column name: Acquity BEH C18 1.7um, 2.1x150mm (Waters)
Retention time: 14.609 min
Base peak: 288.1355
Precursor m/z: 393.1719
Precursor type: [M-H]-
Precursor intensity: 4856704.706543
m/z	relative intensity	assigned
69.0348	106	C4H5O-
71.0139	205	C3H3O2-
79.0553	69	C6H7-
81.0346	80	C5H5O-
83.0502	113	C5H7O-
93.0345	211	C6H5O-
95.0501	107	C6H7O-
107.0502	300	C7H7O-
108.0216	97	C6H4O2-
109.0294	151	C6H5O2-
109.0659	58	C7H9O-
119.0502	389	C8H7O-
121.0295	254	C7H5O2-
121.0659	501	C8H9O-
122.0373	243	C7H6O2-
123.0452	428	C7H7O2-
130.0425	471	C9H6O-
131.0503	364	C9H7O-
133.0659	374	C9H9O-
134.037	99	C8H6O2-
135.0452	114	C8H7O2-
143.0503	999	C10H7O-
145.0296	299	C9H5O2-
145.0661	650	C10H9O-
146.0373	175	C9H6O2-
147.0453	491	C9H7O2-
147.0819	86	C10H11O-
148.0529	101	C9H8O2-
149.0608	190	C9H9O2-
157.0658	685	C11H9O-
158.0373	267	C10H6O2-
159.0453	329	C10H7O2-
159.0818	116	C11H11O-
160.0529	115	C10H8O2-
161.0607	251	C10H9O2-
167.0501	122	C12H7O-
169.0659	253	C12H9O-
171.0452	782	C11H7O2-
171.0814	137	C12H11O-
172.0533	73	C11H8O2-
173.0245	665	C10H5O3-
173.0605	396	C11H9O2-
174.0323	750	C10H6O3-
175.04	179	C10H7O3-
181.0657	71	C13H9O-
182.0736	140	C13H10O-
183.0813	180	C13H11O-
185.0609	480	C12H9O2-
187.0398	74	C11H7O3-
187.0765	105	C12H11O2-
189.0558	207	C11H9O3-
193.066	399	C14H9O-
195.0813	280	C14H11O-
197.0607	167	C13H9O2-
197.0972	135	C14H13O-
199.0767	72	C13H11O2-
207.0816	456	C15H11O-
208.0896	135	C15H12O-
209.0604	135	C14H9O2-
209.0974	538	C15H13O-
210.069	78	C14H10O2-
211.0762	269	C14H11O2-
219.0818	323	C16H11O-
220.0888	144	C16H12O-
221.0969	360	C16H13O-
222.0688	271	C15H10O2-
223.0766	230	C15H11O2-
224.084	222	C15H12O2-
225.0919	170	C15H13O2-
227.1083	83	C12H16FO3-
231.0815	333	C17H11O-
232.0891	258	C17H12O-
233.0974	322	C17H13O-
235.076	186	C16H11O2-
235.1128	665	C17H15O-
236.0843	117	C16H12O2-
237.092	373	C16H13O2-
238.0992	64	C16H14O2-
245.0973	94	C18H13O-
247.0763	457	C17H11O2-
248.0842	238	C17H12O2-
249.0922	386	C17H13O2-
258.0691	374	C18H10O2-
259.0769	369	C18H11O2-
260.0844	499	C18H12O2-
261.0914	144	C18H13O2-
263.1076	228	C18H15O2-
265.0873	112	C17H13O3-
273.0924	98	C19H13O2-
275.0712	480	C18H11O3-
276.0791	490	C18H12O3-
291.1022	93	C19H15O3-
