Mass spectrum: Fipronil; LC-ESI-QFT; MS2; CE: 90; R=17500; [M-H]-
Name: Fipronil
Name: 5-amino-1-[2,6-dichloro-4-(trifluoromethyl)phenyl]-4-(trifluoromethylsulfinyl)pyrazole-3-carbonitrile
Formula: C12H4Cl2F6N4OS
Exact mass: 435.9387
SMILES: NC1=C(C(=NN1C1=C(Cl)C=C(C=C1Cl)C(F)(F)F)C#N)S(=O)C(F)(F)F
InChI: InChI=1S/C12H4Cl2F6N4OS/c13-5-1-4(11(15,16)17)2-6(14)8(5)24-10(22)9(7(3-21)23-24)26(25)12(18,19)20/h1-2H,22H2
Instrument: Q Exactive Orbitrap (Thermo Scientific)
Instrument type: LC-ESI-QFT
Ms type: MS2
Ion mode: NEGATIVE
Ionization: ESI
Fragmentation mode: HCD
Collision energy: 90
Resolution: 17500
Column name: Acquity BEH C18 1.7um, 2.1x150mm (Waters)
Retention time: 18.222 min
Base peak: 434.9313
Precursor m/z: 434.9314
Precursor type: [M-H]-
Precursor intensity: 73364471.08203
m/z	relative intensity	assigned
50.0035	24	C3N-
57.9757	220	CNS-
64.0067	6	C3N2-
65.9987	7	C3NO-
66.0098	12	C2N3-
66.9415	1	ClS-
74.0036	48	C5N-
76.0067	1	C4N2-
77.0145	27	C4HN2-
81.9757	55	C3NS-
84.9907	3	CF3O-
85.9706	7	C2NOS-
86.0036	38	C6N-
88.0005	54	C3F2N-
88.0067	11	C5N2-
89.0143	2	C5HN2-
90.0098	28	CH2F4-
98.0037	70	C7N-
112.0005	100	C5F2N-
112.0067	33	C7N2-
113.0146	418	C7HN2-
124.0067	4	C8N2-
130.9988	3	C5F3N-
136.0005	31	C7F2N-
136.0063	3	CHF5N2-
143.0051	999	C8FN2-
148.0068	43	C10N2-
148.9913	14	C7H2ClN2-
150.0037	2	C7F2N2-
151.971	5	C7ClFN-
154.999	29	C7F3N-
158.0093	2	C6HF3N2-
162.0035	6	C8F2N2-
163.0114	552	C8HF2N2-
170.0096	9	C7HF3N2-
174.9774	3	C8FN2S-
181.0021	12	C8F3N2-
182.0096	18	C8HF3N2-
183.0176	293	C8H2F3N2-
188.0066	40	C6H2F6-
191.9837	3	C7H2ClF3N-
194.9837	4	C8HF2N2S-
196.9724	7	C8ClF2N2-
198.0039	9	C11F2N2-
199.0112	10	C11HF2N2-
201.9984	3	C10F2N2O-
205.002	12	C10F3N2-
208.0128	33	C9HF3N3-
208.9582	2	C8H2ClN2OS-
212.0067	47	C8H2F6-
213.9733	1	C3HClF6N2-
214.9897	6	C8H2F3N2S-
216.9784	8	C8HClF3N2-
218.0098	8	C11HF3N2-
223.9836	16	C6H3ClF6-
227.0176	2	C8H3F6N-
229.9526	2	C8HClF2N2S-
232.0129	24	C11HF3N3-
243.9896	24	C9H2ClF3N3-
244.9211	3	C2HCl2F4N3S-
249.9583	16	C8H2ClF3N2S-
267.9896	47	C11H2ClF3N3-
271.985	8	C8H2F6N2S-
