Mass spectrum: CP-612372; LC-ESI-QFT; MS2; CE: 45; R=17500; [M-H]-
Name: CP-612372
Name: 2-(2,1,3-Benzoxadiazol-5-yloxy)-N-((4-(1-hydroxy-1-methylethyl)phenyl)methyl)-3-pyridinecarboxamide
Name: 2-(2,1,3-benzoxadiazol-5-yloxy)-N-[[4-(2-hydroxypropan-2-yl)phenyl]methyl]pyridine-3-carboxamide
Formula: C22H20N4O4
Exact mass: 404.1485
SMILES: CC(C)(O)C1=CC=C(CNC(=O)C2=CC=CN=C2OC2=CC3=NON=C3C=C2)C=C1
InChI: InChI=1S/C22H20N4O4/c1-22(2,28)15-7-5-14(6-8-15)13-24-20(27)17-4-3-11-23-21(17)29-16-9-10-18-19(12-16)26-30-25-18/h3-12,28H,13H2,1-2H3,(H,24,27)
Instrument: Q Exactive Orbitrap (Thermo Scientific)
Instrument type: LC-ESI-QFT
Ms type: MS2
Ion mode: NEGATIVE
Ionization: ESI
Fragmentation mode: HCD
Collision energy: 45
Resolution: 17500
Column name: Acquity BEH C18 1.7um, 2.1x150mm (Waters)
Retention time: 16.352 min
Base peak: 202.9785
Precursor m/z: 403.1412
Precursor type: [M-H]-
Precursor intensity: 9298657.6875
m/z	relative intensity	assigned
57.0345	11	C3H5O-
65.0146	13	C3HN2-
65.9985	17	C3NO-
68.0142	11	C3H2NO-
74.0037	1	C5N-
77.0145	13	C4HN2-
78.0224	10	C4H2N2-
89.0146	20	C5HN2-
90.0098	4	C4N3-
90.0224	24	C5H2N2-
91.0301	10	C5H3N2-
92.0142	2	C5H2NO-
94.0299	249	C5H4NO-
102.0223	1	C6H2N2-
102.035	15	C7H4N-
103.0302	9	C6H3N2-
104.0381	2	C6H4N2-
105.0095	2	C5HN2O-
105.0332	4	C5H3N3-
105.0456	3	C6H5N2-
106.0173	12	C5H2N2O-
109.0169	1	C5H3NO2-
116.0254	6	C6H2N3-
117.0332	1	C6H3N3-
117.046	8	C7H5N2-
118.0172	5	C6H2N2O-
118.041	8	C6H4N3-
119.0251	91	C6H3N2O-
121.0407	1	C6H5N2O-
122.0247	31	C6H4NO2-
130.0412	4	C7H4N3-
130.0664	2	C9H8N-
131.0863	1	C10H11-
132.0206	2	C6H2N3O-
133.0282	999	C6H3N3O-
134.0359	25	C6H4N3O-
135.02	68	C6H3N2O2-
137.0359	3	C6H5N2O2-
138.0197	143	C6H4NO3-
141.046	1	C9H5N2-
143.025	1	C8H3N2O-
146.0359	1	C7H4N3O-
146.0976	10	C10H12N-
156.082	3	C11H10N-
161.0357	3	C8H5N2O2-
167.0616	3	C11H7N2-
168.0457	8	C11H6NO-
169.0411	2	C10H5N2O-
170.0977	7	C12H12N-
173.0846	21	C11H11NO-
179.0612	1	C12H7N2-
186.0559	2	C11H8NO2-
188.1081	37	C12H14NO-
196.0514	2	C11H6N3O-
197.0353	4	C11H5N2O2-
197.0719	5	C12H9N2O-
198.0436	18	C11H6N2O2-
210.0312	1	C11H4N3O2-
211.0512	13	C12H7N2O2-
213.0303	1	C11H5N2O3-
220.0517	12	C13H6N3O-
222.0306	1	C12H4N3O2-
222.0799	1	C14H10N2O-
223.0388	6	C12H5N3O2-
224.0468	1	C12H6N3O2-
228.1033	2	C14H14NO2-
229.0253	2	C11H5N2O4-
237.0418	10	C12H5N4O2-
237.1037	2	C15H13N2O-
238.0623	2	C13H8N3O2-
238.1112	16	C15H14N2O-
239.0828	1	C14H11N2O2-
240.0415	9	C12H6N3O3-
240.0903	2	C14H12N2O2-
241.0496	5	C12H7N3O3-
246.1034	4	C16H12N3-
247.1114	1	C16H13N3-
248.0828	2	C15H10N3O-
249.1029	2	C16H13N2O-
250.0493	2	C13H6N4O2-
250.0871	7	C16H12NO2-
251.119	38	C16H15N2O-
252.1032	1	C16H14NO2-
253.0982	1	C15H13N2O2-
255.114	65	C15H15N2O2-
264.1143	21	C16H14N3O-
265.1222	45	C16H15N3O-
267.1135	2	C16H15N2O2-
268.0983	5	C16H14NO3-
277.0969	1	C17H13N2O2-
282.1248	292	C16H16N3O2-
285.1247	8	C16H17N2O3-
291.1014	2	C17H13N3O2-
292.1098	1	C17H14N3O2-
300.1134	2	C19H14N3O-
309.0783	2	C19H9N4O-
314.0938	4	C19H12N3O2-
315.1156	1	C20H15N2O2-
323.1069	5	C21H13N3O-
324.1142	35	C21H14N3O-
325.0856	1	C20H11N3O2-
326.0937	28	C20H12N3O2-
339.1256	6	C21H15N4O-
340.109	4	C21H14N3O2-
341.1023	2	C20H13N4O2-
341.1191	1	C21H15N3O2-
342.0887	3	C20H12N3O3-
342.1249	13	C21H16N3O2-
349.1094	7	C22H13N4O-
351.0886	8	C21H11N4O2-
351.125	15	C22H15N4O-
353.1038	5	C21H13N4O2-
354.1254	1	C22H16N3O2-
355.1314	1	C22H17N3O2-
357.1357	1	C21H17N4O2-
358.1211	2	C21H16N3O3-
367.12	128	C22H15N4O2-
368.1279	1	C22H16N4O2-
369.0992	60	C21H13N4O3-
369.1355	15	C22H17N4O2-
385.1301	6	C22H17N4O3-
