Mass spectrum: 4,4`-Sulfonylbis[2-(prop-2-en-1-yl)phenol]; LC-ESI-QFT; MS2; CE: 60; R=17500; [M+H]+
Name: 4,4'-Sulfonylbis[2-(prop-2-en-1-yl)phenol]
Name: Phenol, 4,4'-sulfonylbis[2-(2-propenyl)-
Name: 4-(4-hydroxy-3-prop-2-enylphenyl)sulfonyl-2-prop-2-enylphenol
Formula: C18H18O4S
Exact mass: 330.0926
SMILES: OC1=C(CC=C)C=C(C=C1)S(=O)(=O)C1=CC(CC=C)=C(O)C=C1
InChI: InChI=1S/C18H18O4S/c1-3-5-13-11-15(7-9-17(13)19)23(21,22)16-8-10-18(20)14(12-16)6-4-2/h3-4,7-12,19-20H,1-2,5-6H2
Instrument: Q Exactive Orbitrap (Thermo Scientific)
Instrument type: LC-ESI-QFT
Ms type: MS2
Ion mode: POSITIVE
Ionization: ESI
Fragmentation mode: HCD
Collision energy: 60
Resolution: 17500
Column name: Acquity BEH C18 1.7um, 2.1x150mm (Waters)
Retention time: 17.082 min
Base peak: 79.0211
Precursor m/z: 331.0999
Precursor type: [M+H]+
Precursor intensity: 4472424.375
m/z	relative intensity	assigned
50.0152	1	C4H2+
51.023	3	C4H3+
53.0023	6	C3HO+
53.0387	62	C4H5+
55.0179	232	C3H3O+
63.0227	1	C5H3+
65.0386	46	C5H5+
66.0464	2	C5H6+
67.0542	3	C5H7+
68.9971	2	C3HO2+
71.0127	3	C3H3O2+
77.0385	21	C6H5+
78.0464	4	C6H6+
79.0542	999	C6H7+
81.0336	8	C5H5O+
81.0698	2	C6H9+
83.0126	2	C4H3O2+
89.0385	3	C7H5+
91.0543	89	C7H7+
93.0335	4	C6H5O+
93.0699	27	C7H9+
94.0413	11	C6H6O+
95.0492	233	C6H7O+
97.0106	3	C5H5S+
102.0464	1	C8H6+
103.0543	637	C8H7+
104.0621	8	C8H8+
105.0699	537	C8H9+
107.0492	73	C7H7O+
109.0285	28	C6H5O2+
109.0648	4	C7H9O+
110.0362	4	C6H6O2+
111.0441	29	C6H7O2+
115.0543	210	C9H7+
116.0622	4	C9H8+
117.0699	8	C9H9+
118.0413	13	C8H6O+
119.0492	24	C8H7O+
121.0648	45	C8H9O+
122.0362	1	C7H6O2+
123.0442	4	C7H7O2+
123.0803	3	C8H11O+
128.0623	2	C10H8+
131.0492	44	C9H7O+
132.057	30	C9H8O+
133.0648	61	C9H9O+
134.0729	7	C9H10O+
135.0439	8	C8H7O2+
141.0006	5	C6H5O2S+
141.0698	2	C11H9+
144.0575	1	C10H8O+
145.0647	9	C10H9O+
149.0598	147	C9H9O2+
150.0677	7	C9H10O2+
151.0754	76	C9H11O2+
152.0619	2	C12H8+
153.0698	6	C12H9+
154.0083	4	C7H6O2S+
156.9956	6	C6H5O3S+
159.0806	3	C11H11O+
165.07	2	C13H9+
169.0648	6	C12H9O+
170.0727	9	C12H10O+
173.0959	2	C12H13O+
181.0318	2	C9H9O2S+
181.0648	4	C13H9O+
197.0266	2	C9H9O3S+
197.0602	4	C13H9O2+
198.0675	6	C13H10O2+
