Mass spectrum: Imidacloprid; LC-ESI-QFT; MS2; CE: 90; R=17500; [M+H]+
Name: Imidacloprid
Name: N-[1-[(6-Chloro-3-pyridinyl)methyl]-4,5-dihydroimidazol-2-yl]nitramide
Name: N-[1-[(6-chloropyridin-3-yl)methyl]-4,5-dihydroimidazol-2-yl]nitramide
Formula: C9H10ClN5O2
Exact mass: 255.0523
SMILES: [O-][N+](=O)\N=C1/NCCN1CC1=CN=C(Cl)C=C1
InChI: InChI=1S/C9H10ClN5O2/c10-8-2-1-7(5-12-8)6-14-4-3-11-9(14)13-15(16)17/h1-2,5H,3-4,6H2,(H,11,13)
Instrument: Q Exactive Orbitrap (Thermo Scientific)
Instrument type: LC-ESI-QFT
Ms type: MS2
Ion mode: POSITIVE
Ionization: ESI
Fragmentation mode: HCD
Collision energy: 90
Resolution: 17500
Column name: Acquity BEH C18 1.7um, 2.1x150mm (Waters)
Retention time: 12.341 min
Base peak: 79.0211
Precursor m/z: 256.0596
Precursor type: [M+H]+
Precursor intensity: 3595370.25
m/z	relative intensity	assigned
54.0339	29	C3H4N+
56.0495	137	C3H6N+
57.0448	42	C2H5N2+
65.0386	107	C5H5+
69.0447	76	C3H5N2+
70.0288	20	C3H4NO+
71.0604	48	C3H7N2+
78.0337	45	C5H4N+
79.0542	33	C6H7+
80.0495	133	C5H6N+
84.0557	528	C3H6N3+
90.0339	112	C6H4N+
91.0417	25	C6H5N+
92.0495	93	C6H6N+
93.0448	33	C5H5N2+
93.0574	63	C6H7N+
95.0604	23	C5H7N2+
96.0444	102	C5H6NO+
96.0556	13	C4H6N3+
98.0713	21	C4H8N3+
98.9996	90	C5H4Cl+
99.0553	41	C4H7N2O+
104.0495	65	C7H6N+
105.0448	277	C6H5N2+
106.0526	43	C6H6N2+
106.0652	165	C7H8N+
107.0605	166	C6H7N2+
108.0445	17	C6H6NO+
108.068	41	C6H8N2+
109.0635	42	C5H7N3+
110.06	30	C6H8NO+
113.0027	13	C5H4ClN+
114.0105	52	C5H5ClN+
117.0447	28	C7H5N2+
118.0526	83	C7H6N2+
119.048	56	C6H5N3+
119.0605	196	C7H7N2+
120.0557	196	C6H6N3+
120.0683	17	C7H8N2+
121.0762	17	C7H9N2+
122.0712	27	C6H8N3+
123.0554	59	C6H7N2O+
126.0106	180	C6H5ClN+
127.0184	93	C6H6ClN+
128.0263	109	C6H7ClN+
130.0056	14	C5H5ClNO+
131.048	24	C7H5N3+
131.0604	168	C8H7N2+
132.0557	100	C7H6N3+
132.0682	65	C8H8N2+
133.0636	318	C7H7N3+
133.076	137	C8H9N2+
134.06	21	C8H8NO+
134.0714	148	C7H8N3+
134.0838	8	C8H10N2+
135.0554	43	C7H7N2O+
135.0792	42	C7H9N3+
138.0106	23	C7H5ClN+
139.0057	57	C6H4ClN2+
140.0262	30	C7H7ClN+
141.0215	155	C6H6ClN2+
144.0214	36	C6H7ClNO+
144.9924	48	C5H4ClNO2+
145.0508	45	C7H5N4+
146.0591	38	C7H6N4+
146.0714	295	C8H8N3+
147.0666	459	C7H7N4+
147.0791	27	C8H9N3+
148.0744	30	C7H8N4+
148.0869	178	C8H10N3+
149.0711	9	C8H9N2O+
150.0663	16	C7H8N3O+
151.0185	18	C8H6ClN+
152.0133	11	C7H5ClN2+
153.0215	14	C7H6ClN2+
154.0168	22	C6H5ClN3+
157.0637	95	C9H7N3+
158.0714	209	C9H8N3+
159.0666	41	C8H7N4+
159.0792	367	C9H9N3+
160.0745	9	C8H8N4+
166.0168	131	C7H5ClN3+
167.0372	79	C8H8ClN2+
173.0823	622	C9H9N4+
174.0901	292	C9H10N4+
175.0979	521	C9H11N4+
180.0197	106	C7H5ClN4+
180.0323	27	C8H7ClN3+
181.0276	125	C7H6ClN4+
191.093	106	C9H11N4O+
193.0278	21	C8H6ClN4+
194.048	34	C9H9ClN3+
207.0436	31	C9H8ClN4+
208.0512	133	C9H9ClN4+
209.059	999	C9H10ClN4+
