Mass spectrum: Etofenprox; LC-ESI-QFT; MS2; CE: 45; R=17500; [M+H]+
Name: Etofenprox
Name: 1-ethoxy-4-[2-methyl-1-[(3-phenoxyphenyl)methoxy]propan-2-yl]benzene
Formula: C25H28O3
Exact mass: 376.2038
SMILES: CCOC1=CC=C(C=C1)C(C)(C)COCC1=CC(OC2=CC=CC=C2)=CC=C1
InChI: InChI=1S/C25H28O3/c1-4-27-22-15-13-21(14-16-22)25(2,3)19-26-18-20-9-8-12-24(17-20)28-23-10-6-5-7-11-23/h5-17H,4,18-19H2,1-3H3
Instrument: Q Exactive Orbitrap (Thermo Scientific)
Instrument type: LC-ESI-QFT
Ms type: MS2
Ion mode: POSITIVE
Ionization: ESI
Fragmentation mode: HCD
Collision energy: 45
Resolution: 17500
Column name: Acquity BEH C18 1.7um, 2.1x150mm (Waters)
Retention time: 16.967 min
Base peak: 79.0212
Precursor m/z: 377.2111
Precursor type: [M+H]+
Precursor intensity: 8132173.25
m/z	relative intensity	assigned
55.0543	50	C4H7+
59.0491	27	C3H7O+
67.0542	43	C5H7+
69.0333	13	C4H5O+
69.0698	27	C5H9+
79.0542	61	C6H7+
81.0699	107	C6H9+
83.0489	17	C5H7O+
85.0649	35	C5H9O+
87.044	29	C4H7O2+
91.0541	70	C7H7+
93.0699	115	C7H9+
95.049	67	C6H7O+
95.0855	244	C7H11+
97.0649	41	C6H9O+
99.0441	11	C5H7O2+
99.0806	15	C6H11O+
101.0598	15	C5H9O2+
105.0699	160	C8H9+
107.0491	39	C7H7O+
107.0855	155	C8H11+
109.0649	117	C7H9O+
109.1013	36	C8H13+
111.0806	38	C7H11O+
115.054	16	C9H7+
117.0699	38	C9H9+
119.0855	182	C9H11+
121.0648	384	C8H9O+
121.1012	39	C9H13+
123.0804	138	C8H11O+
125.0598	80	C7H9O2+
129.07	25	C10H9+
131.0857	45	C10H11+
133.1012	84	C10H13+
135.0804	999	C9H11O+
137.0962	55	C9H13O+
139.0756	37	C8H11O2+
142.078	16	C11H10+
143.0855	98	C11H11+
145.0649	70	C10H9O+
145.1012	131	C11H13+
146.0726	15	C10H10O+
147.0806	224	C10H11O+
147.117	38	C11H15+
149.0961	67	C10H13O+
155.0858	15	C12H11+
157.1013	70	C12H13+
158.0728	12	C11H10O+
159.0806	205	C11H11O+
160.0885	16	C11H12O+
161.0961	792	C11H13O+
163.076	13	C10H11O2+
163.1115	26	C11H15O+
165.0912	38	C10H13O2+
169.1011	14	C13H13+
171.0799	51	C12H11O+
171.117	41	C13H15+
172.0884	43	C12H12O+
173.0961	157	C12H13O+
175.1117	104	C12H15O+
177.0905	16	C11H13O2+
179.0865	20	C14H11+
181.102	25	C14H13+
183.0808	30	C13H11O+
183.1168	17	C14H15+
185.0961	338	C13H13O+
187.1119	132	C13H15O+
189.1275	68	C13H17O+
193.101	25	C15H13+
195.0806	39	C14H11O+
195.1169	30	C15H15+
196.0886	20	C14H12O+
197.0964	71	C14H13O+
198.104	24	C14H14O+
199.1116	100	C14H15O+
201.092	27	C13H13O2+
201.1274	26	C14H17O+
203.0862	14	C16H11+
203.1065	19	C13H15O2+
204.0936	19	C16H12+
205.1012	11	C16H13+
206.1093	11	C16H14+
208.0884	35	C15H12O+
208.1247	11	C16H16+
209.0961	158	C15H13O+
209.1328	31	C16H17+
210.104	64	C15H14O+
211.1115	119	C15H15O+
213.1275	89	C15H17O+
217.1016	13	C17H13+
217.1229	24	C14H17O2+
218.109	31	C17H14+
219.1172	33	C17H15+
220.089	16	C16H12O+
221.0962	26	C16H13O+
221.1339	16	C17H17+
222.1039	124	C16H14O+
223.1118	186	C16H15O+
224.1195	73	C16H16O+
225.1273	111	C16H17O+
227.1069	61	C15H15O2+
227.1439	14	C16H19O+
229.1225	89	C15H17O2+
231.117	17	C18H15+
233.1328	38	C18H17+
234.1036	16	C17H14O+
235.1116	82	C17H15O+
236.1196	159	C17H16O+
237.1274	393	C17H17O+
238.1357	26	C17H18O+
239.1433	78	C17H19O+
246.1039	10	C18H14O+
247.1116	23	C18H15O+
247.1484	26	C19H19+
248.1196	39	C18H16O+
249.1274	114	C18H17O+
250.135	43	C18H18O+
251.1432	311	C18H19O+
253.1587	70	C18H21O+
259.112	64	C19H15O+
260.1193	24	C19H16O+
261.1276	37	C19H17O+
262.1359	44	C19H18O+
263.1433	144	C19H19O+
264.1506	48	C19H20O+
267.1385	29	C18H19O2+
273.1271	61	C20H17O+
274.1355	41	C20H18O+
277.159	58	C20H21O+
278.1674	76	C20H22O+
279.1743	622	C20H23O+
281.1547	12	C19H21O2+
287.1433	15	C21H19O+
288.1509	63	C21H20O+
293.1899	32	C21H25O+
295.1711	14	C20H23O2+
303.1745	83	C22H23O+
306.1623	13	C21H22O2+
321.1853	28	C22H25O2+
