Mass spectrum: N-(3,4-Dichlorophenyl)-N`-methylurea; LC-ESI-QFT; MS2; CE: 15; R=17500; [M-H]-
Name: N-(3,4-Dichlorophenyl)-N'-methylurea
Name: 1-(3,4-dichlorophenyl)-3-methylurea
Formula: C8H8Cl2N2O
Exact mass: 218.0014
SMILES: CNC(=O)NC1=CC(Cl)=C(Cl)C=C1
InChI: InChI=1S/C8H8Cl2N2O/c1-11-8(13)12-5-2-3-6(9)7(10)4-5/h2-4H,1H3,(H2,11,12,13)
Instrument: Q Exactive Orbitrap (Thermo Scientific)
Instrument type: LC-ESI-QFT
Ms type: MS2
Ion mode: NEGATIVE
Ionization: ESI
Fragmentation mode: HCD
Collision energy: 15
Resolution: 17500
Column name: Acquity BEH C18 1.7um, 2.1x150mm (Waters)
Retention time: 16.759 min
Base peak: 216.9941
Precursor m/z: 216.9941
Precursor type: [M-H]-
Precursor intensity: 31343970.63672
m/z	relative intensity	assigned
123.9959	2	C6H3ClN-
159.9725	999	C6H4Cl2N-
216.9941	20	C8H7Cl2N2O-
