Mass spectrum: AVE9423; LC-ESI-QFT; MS2; CE: 60; R=17500; [M+H]+
Name: AVE9423
Name: 1-(2-carboxyphenyl)-7-chloro-6-(2-chloro-4,6-difluoroanilino)-4-oxoquinoline-3-carboxylic acid
Formula: C23H12Cl2F2N2O5
Exact mass: 504.0091
SMILES: OC(=O)C1=CC=CC=C1N1C=C(C(O)=O)C(=O)C2=C1C=C(Cl)C(NC1=C(F)C=C(F)C=C1Cl)=C2
InChI: InChI=1S/C23H12Cl2F2N2O5/c24-14-8-19-12(7-17(14)28-20-15(25)5-10(26)6-16(20)27)21(30)13(23(33)34)9-29(19)18-4-2-1-3-11(18)22(31)32/h1-9,28H,(H,31,32)(H,33,34)
Instrument: Q Exactive Orbitrap (Thermo Scientific)
Instrument type: LC-ESI-QFT
Ms type: MS2
Ion mode: POSITIVE
Ionization: ESI
Fragmentation mode: HCD
Collision energy: 60
Resolution: 17500
Column name: Acquity BEH C18 1.7um, 2.1x150mm (Waters)
Retention time: 17.513 min
Base peak: 79.0211
Precursor m/z: 505.0164
Precursor type: [M+H]+
Precursor intensity: 2652376
m/z	relative intensity	assigned
68.997	13	C3HO2+
101.0199	16	C5H3F2+
105.0333	8	C7H5O+
127.0227	14	C6H3F2N+
134.9806	43	C5H2ClF2+
144.0256	61	C6H4F2NO+
161.9918	483	C6H3ClF2N+
178.0655	41	C13H8N+
180.0022	21	C6H5ClF2NO+
190.0651	67	C14H8N+
205.0765	13	C14H9N2+
206.0602	21	C14H8NO+
213.0343	23	C13H6FO2+
224.0265	38	C14H7ClN+
225.0341	711	C14H8ClN+
229.0292	83	C10H11Cl2N2+
234.0552	31	C12H11ClN2O+
240.0214	18	C11H10Cl2N2+
241.0573	25	C14H7F2N2+
245.0251	12	C10H9ClFNO3+
246.0544	34	C16H8NO2+
253.029	380	C15H8ClNO+
268.043	11	C18H5FN2+
269.0242	77	C12H11Cl2N2O+
290.0782	68	C19H10F2N+
291.0723	9	C18H9F2N2+
296.0745	10	C20H9FN2+
297.0822	87	C20H10FN2+
303.0727	10	C19H9F2N2+
304.0815	11	C19H10F2N2+
305.0895	19	C19H11F2N2+
311.9789	31	C14H6Cl2F2NO+
314.0651	31	C20H8F2N2+
315.073	386	C20H9F2N2+
316.081	527	C20H10F2N2+
317.0888	343	C20H11F2N2+
319.0686	24	C21H13ClF+
324.0392	14	C19H9ClF2N+
325.077	39	C21H10FN2O+
327.0733	45	C21H9F2N2+
331.0433	30	C20H9ClFN2+
331.0669	14	C23H8FN2+
332.0753	26	C20H10F2N2O+
344.0757	134	C21H10F2N2O+
345.0835	108	C21H11F2N2O+
349.0342	133	C20H8ClF2N2+
350.0421	51	C20H9ClF2N2+
351.0494	87	C20H10ClF2N2+
352.0576	292	C20H11ClF2N2+
354.0363	27	C22H6F2NO2+
356.053	17	C19H11ClF2N2O+
359.0389	15	C23H13Cl2+
360.0238	11	C15H12Cl2F2N2O2+
360.0463	70	C21H10ClFN2O+
361.0104	44	C18H9Cl2F2N2+
361.078	9	C21H11F2N2O2+
362.0424	9	C21H9ClF2N2+
365.0063	39	C17H9Cl2F2N2O+
371.0631	54	C22H9F2N2O2+
372.0714	44	C22H10F2N2O2+
373.0784	163	C22H11F2N2O2+
375.0266	30	C19H11Cl2F2N2+
377.0289	118	C21H8ClF2N2O+
378.037	999	C23H13Cl2F+
380.052	28	C21H11ClF2N2O+
385.0108	296	C20H9Cl2F2N2+
386.0195	42	C20H10Cl2F2N2+
387.0276	40	C20H11Cl2F2N2+
388.0426	43	C19H11ClF2N2O3+
391.0213	10	C19H11Cl2F2N2O+
392.9992	26	C21H8Cl2FN2O+
396.0481	14	C21H11ClF2N2O2+
397.011	57	C21H9Cl2F2N2+
403.021	15	C20H11Cl2F2N2O+
406.0321	399	C22H9ClF2N2O2+
407.0396	20	C22H10ClF2N2O2+
408.0469	22	C22H11ClF2N2O2+
413.006	49	C21H9Cl2F2N2O+
417.0011	21	C20H9Cl2F2N2O2+
441.0018	15	C22H9Cl2F2N2O2+
443.0164	151	C22H11Cl2F2N2O2+
444.9956	23	C21H9Cl2F2N2O3+
459.0115	75	C22H11Cl2F2N2O3+
468.9986	9	C23H9Cl2F2N2O3+
505.0168	79	C23H13Cl2F2N2O5+
