Mass spectrum: Nicardipine; LC-ESI-QFT; MS2; CE: 30; R=17500; [M-H]-
Name: Nicardipine
Name: 5-O-[2-[benzyl(methyl)amino]ethyl] 3-O-methyl 2,6-dimethyl-4-(3-nitrophenyl)-1,4-dihydropyridine-3,5-dicarboxylate
Formula: C26H29N3O6
Exact mass: 479.2056
SMILES: COC(=O)C1=C(C)NC(C)=C(C1C1=CC(=CC=C1)[N+]([O-])=O)C(=O)OCCN(C)CC1=CC=CC=C1
InChI: InChI=1S/C26H29N3O6/c1-17-22(25(30)34-4)24(20-11-8-12-21(15-20)29(32)33)23(18(2)27-17)26(31)35-14-13-28(3)16-19-9-6-5-7-10-19/h5-12,15,24,27H,13-14,16H2,1-4H3
Instrument: Q Exactive Orbitrap (Thermo Scientific)
Instrument type: LC-ESI-QFT
Ms type: MS2
Ion mode: NEGATIVE
Ionization: ESI
Fragmentation mode: HCD
Collision energy: 30
Resolution: 17500
Column name: Acquity BEH C18 1.7um, 2.1x150mm (Waters)
Retention time: 14.882 min
Base peak: 307.0283
Precursor m/z: 478.1984
Precursor type: [M-H]-
Precursor intensity: 13212059.80078
m/z	relative intensity	assigned
67.019	2	C4H3O-
68.9982	1	C3HO2-
82.006	10	C4H2O2-
92.0268	52	C6H4O-
93.0345	1	C6H5O-
95.0139	55	C5H3O2-
106.0663	1	C7H8N-
108.0217	105	C6H4O2-
120.0456	1	C7H6NO-
122.0247	999	C6H4NO2-
123.0087	4	C6H3O3-
123.0318	1	C6H5NO2-
138.0195	2	C6H4NO3-
140.0353	44	C6H6NO3-
149.0483	2	C8H7NO2-
150.056	33	C8H8NO2-
160.0771	1	C10H10NO-
162.0562	1	C9H8NO2-
164.0717	44	C9H10NO2-
166.0145	49	C7H4NO4-
181.0385	1	C8H7NO4-
188.0953	1	C11H12N2O-
190.0511	5	C10H8NO3-
192.0304	1	C9H6NO4-
192.0669	2	C10H10NO3-
207.0538	12	C13H7N2O-
208.0615	63	C13H8N2O-
209.0717	3	C13H9N2O-
210.056	1	C13H8NO2-
213.0426	3	C12H7NO3-
221.0362	1	C13H5N2O2-
221.0693	10	C11H11NO4-
224.0717	122	C14H10NO2-
228.0676	1	C13H10NO3-
234.0774	1	C12H12NO4-
235.1089	1	C12H15N2O3-
237.0671	7	C14H9N2O2-
238.0507	2	C14H8NO3-
239.0458	9	C13H7N2O3-
239.0828	1	C14H11N2O2-
242.0823	2	C14H12NO3-
244.0615	1	C13H10NO4-
250.0748	2	C15H10N2O2-
251.0584	4	C15H9NO3-
253.0617	4	C14H9N2O3-
253.075	1	C15H11NO3-
254.0456	1	C14H8NO4-
254.0691	3	C14H10N2O3-
255.0773	3	C14H11N2O3-
257.0572	1	C13H9N2O4-
264.0534	3	C15H8N2O3-
265.0619	2	C15H9N2O3-
265.0755	1	C16H11NO3-
268.0614	32	C15H10NO4-
271.0725	2	C14H11N2O4-
272.0564	1	C14H10NO5-
281.0565	2	C15H9N2O4-
282.0778	1	C16H12NO4-
283.0358	5	C14H7N2O5-
283.0857	1	C16H13NO4-
295.0723	54	C16H11N2O4-
296.0806	2	C16H12N2O4-
297.161	2	C18H21N2O2-
298.0593	25	C15H10N2O5-
313.083	38	C16H13N2O5-
341.1511	1	C19H21N2O4-
355.1663	205	C20H23N2O4-
401.1509	10	C24H21N2O4-
428.1614	21	C25H22N3O4-
429.1684	1	C25H23N3O4-
430.1544	1	C25H22N2O5-
431.1485	19	C24H21N3O5-
446.1719	11	C25H24N3O5-
478.1983	12	C26H28N3O6-
