Mass spectrum: CP-457677; LC-ESI-QFT; MS2; CE: 15; R=17500; [M+H]+
Name: CP-457677
Name: 3-Pyridinecarboxamide, 2-(4-fluorophenoxy)-N-((4-(1-hydroxy-1-methylethyl)phenyl)methyl)-
Name: 2-(4-fluorophenoxy)-N-[[4-(2-hydroxypropan-2-yl)phenyl]methyl]pyridine-3-carboxamide
Formula: C22H21FN2O3
Exact mass: 380.1536
SMILES: CC(C)(O)C1=CC=C(CNC(=O)C2=CC=CN=C2OC2=CC=C(F)C=C2)C=C1
InChI: InChI=1S/C22H21FN2O3/c1-22(2,27)16-7-5-15(6-8-16)14-25-20(26)19-4-3-13-24-21(19)28-18-11-9-17(23)10-12-18/h3-13,27H,14H2,1-2H3,(H,25,26)
Instrument: Q Exactive Orbitrap (Thermo Scientific)
Instrument type: LC-ESI-QFT
Ms type: MS2
Ion mode: POSITIVE
Ionization: ESI
Fragmentation mode: HCD
Collision energy: 15
Resolution: 17500
Column name: Acquity BEH C18 1.7um, 2.1x150mm (Waters)
Retention time: 16.667 min
Base peak: 79.0212
Precursor m/z: 381.1609
Precursor type: [M+H]+
Precursor intensity: 8401793.625
m/z	relative intensity	assigned
119.0855	2	C9H11+
131.0855	26	C10H11+
149.0962	25	C10H13O+
216.0455	21	C12H7FNO2+
245.0721	6	C13H10FN2O2+
323.1196	1	C19H16FN2O2+
363.1504	999	C22H20FN2O2+
