Mass spectrum: Ifosfamide; LC-ESI-QFT; MS2; CE: 75; R=17500; [M+H]+
Name: Ifosfamide
Name: N,3-bis(2-chloroethyl)-2-oxo-1,3,2lambda5-oxazaphosphinan-2-amine
Formula: C7H15Cl2N2O2P
Exact mass: 260.0248
SMILES: ClCCNP1(=O)OCCCN1CCCl
InChI: InChI=1S/C7H15Cl2N2O2P/c8-2-4-10-14(12)11(6-3-9)5-1-7-13-14/h1-7H2,(H,10,12)
Instrument: Q Exactive Orbitrap (Thermo Scientific)
Instrument type: LC-ESI-QFT
Ms type: MS2
Ion mode: POSITIVE
Ionization: ESI
Fragmentation mode: HCD
Collision energy: 75
Resolution: 17500
Column name: Acquity BEH C18 1.7um, 2.1x150mm (Waters)
Retention time: 13.918 min
Base peak: 79.0211
Precursor m/z: 261.0321
Precursor type: [M+H]+
Precursor intensity: 8961358
m/z	relative intensity	assigned
53.0022	3	C3HO+
53.9973	1	C2NO+
54.0338	11	C3H4N+
55.0542	4	C4H7+
56.0495	210	C3H6N+
57.0573	2	C3H7N+
57.0699	2	C4H9+
58.0651	10	C3H8N+
59.0491	3	C3H7O+
62.9996	673	C2H4Cl+
63.9948	18	CH3ClN+
64.9786	2	H2O2P+
65.0385	4	C5H5+
67.0417	3	C4H5N+
67.0542	15	C5H7+
68.0494	7	C4H6N+
70.0651	5	C4H8N+
72.0443	18	C3H6NO+
78.0105	251	C2H5ClN+
78.9942	1	CH4O2P+
80.0262	11	C2H7ClN+
80.0494	7	C5H6N+
81.0572	2	C5H7N+
82.0651	20	C5H8N+
83.073	6	C5H9N+
84.0808	9	C5H10N+
87.9947	1	C2H3NOP+
90.0104	2	C2H5NOP+
92.0261	999	C3H7ClN+
95.9515	1	CH2ClOP+
97.0049	2	C2H6ClO2+
98.0002	17	CH5ClNO2+
99.9947	6	C3H3NOP+
102.0104	1	C3H5NOP+
106.0052	9	C2H5NO2P+
109.0049	11	C3H6ClO2+
112.0156	1	C2H7ClNO2+
114.9708	1	CH5ClO2P+
115.9663	5	ClH4NO2P+
116.9503	104	CH3Cl2O2+
118.0052	6	C3H5NO2P+
118.0417	9	C4H9NOP+
120.0209	9	C3H7NO2P+
120.0575	54	C5H11ClN+
123.9712	2	C2H4ClNOP+
124.0158	15	C3H7ClNO2+
125.9506	1	CH2ClNO2P+
126.9709	4	C2H5ClO2P+
127.9663	19	CH4ClNO2P+
128.0259	17	C5H7NOP+
130.9657	1	C2H5Cl2O2+
136.0158	29	C4H7ClNO2+
138.0316	3	C4H9ClNO2+
141.9819	24	C2H6ClNO2P+
143.9611	6	C2H4Cl2NO2+
146.0366	8	C5H9NO2P+
147.0206	1	C6H8ClO2+
153.9819	230	C3H6ClNO2P+
154.9468	3	C3H4Cl2NP+
160.0519	1	C6H11NO2P+
171.9921	2	C4H8Cl2NO2+
172.9573	2	C3H6Cl2NOP+
182.0129	1	C5H10ClNO2P+
