Mass spectrum: Isoxadifen-ethyl; LC-ESI-QFT; MS2; CE: 60; R=17500; [M+H]+
Name: Isoxadifen-ethyl
Name: ethyl 5,5-diphenyl-4H-1,2-oxazole-3-carboxylate
Formula: C18H17NO3
Exact mass: 295.1208
SMILES: CCOC(=O)C1=NOC(C1)(C1=CC=CC=C1)C1=CC=CC=C1
InChI: InChI=1S/C18H17NO3/c1-2-21-17(20)16-13-18(22-19-16,14-9-5-3-6-10-14)15-11-7-4-8-12-15/h3-12H,2,13H2,1H3
Instrument: Q Exactive Orbitrap (Thermo Scientific)
Instrument type: LC-ESI-QFT
Ms type: MS2
Ion mode: POSITIVE
Ionization: ESI
Fragmentation mode: HCD
Collision energy: 60
Resolution: 17500
Column name: Acquity BEH C18 1.7um, 2.1x150mm (Waters)
Retention time: 18.392 min
Base peak: 79.0212
Precursor m/z: 296.1281
Precursor type: [M+H]+
Precursor intensity: 12582083.5
m/z	relative intensity	assigned
53.0386	27	C4H5+
55.0178	2	C3H3O+
75.023	2	C6H3+
77.0383	7	C6H5+
81.0335	2	C5H5O+
91.0541	8	C7H7+
94.0413	2	C6H6O+
95.0491	84	C6H7O+
101.0384	2	C8H5+
103.0542	15	C8H7+
104.0494	22	C7H6N+
105.0335	424	C7H5O+
109.0644	1	C7H9O+
116.0494	5	C8H6N+
117.0572	2	C8H7N+
128.0494	30	C9H6N+
130.0286	11	C8H4NO+
130.0399	1	C9H6O+
146.06	25	C9H8NO+
152.0619	7	C12H8+
153.0697	19	C12H9+
154.065	1	C11H8N+
165.0698	34	C13H9+
166.078	5	C13H10+
167.0855	9	C13H11+
169.0647	30	C12H9O+
176.0621	205	C14H8+
177.0698	272	C14H9+
178.0653	15	C13H8N+
178.0776	106	C14H10+
179.0603	6	C9H9NO3+
179.0727	3	C13H9N+
179.0855	34	C14H11+
180.0806	2	C13H10N+
181.0647	21	C13H9O+
183.0804	3	C13H11O+
189.0695	4	C15H9+
190.0656	3	C14H8N+
190.0775	4	C15H10+
191.0855	121	C15H11+
192.0803	2	C14H10N+
192.0932	6	C15H12+
193.0647	1	C14H9O+
193.0885	21	C14H11N+
194.0963	14	C14H12N+
195.0803	16	C14H11O+
196.0757	10	C13H10NO+
201.0576	5	C15H7N+
202.0653	13	C15H8N+
202.0755	2	C16H10+
203.0729	473	C15H9N+
204.0808	999	C15H10N+
205.0649	5	C15H9O+
205.0759	23	C11H11NO3+
205.0883	25	C15H11N+
206.0964	45	C15H12N+
207.0804	295	C15H11O+
218.0969	3	C16H12N+
219.1042	3	C16H13N+
220.0753	16	C15H10NO+
222.0918	9	C15H12NO+
232.0756	139	C16H10NO+
233.0828	2	C16H11NO+
235.0749	14	C16H11O2+
