Mass spectrum: Pirinixic acid; LC-ESI-QFT; MS2; CE: 45; R=17500; [M+H]+
Name: Pirinixic acid
Name: 2-[4-chloro-6-(2,3-dimethylanilino)pyrimidin-2-yl]sulfanylacetic acid
Formula: C14H14ClN3O2S
Exact mass: 323.0495
SMILES: CC1=C(C)C(NC2=NC(SCC(O)=O)=NC(Cl)=C2)=CC=C1
InChI: InChI=1S/C14H14ClN3O2S/c1-8-4-3-5-10(9(8)2)16-12-6-11(15)17-14(18-12)21-7-13(19)20/h3-6H,7H2,1-2H3,(H,19,20)(H,16,17,18)
Instrument: Q Exactive Orbitrap (Thermo Scientific)
Instrument type: LC-ESI-QFT
Ms type: MS2
Ion mode: POSITIVE
Ionization: ESI
Fragmentation mode: HCD
Collision energy: 45
Resolution: 17500
Column name: Acquity BEH C18 1.7um, 2.1x150mm (Waters)
Retention time: 17.863 min
Base peak: 79.0211
Precursor m/z: 324.0568
Precursor type: [M+H]+
Precursor intensity: 8709124.203125
m/z	relative intensity	assigned
65.0387	1	C5H5+
71.9902	17	C2H2NS+
75.9948	18	C2H3ClN+
77.0388	1	C6H5+
79.029	1	C4H3N2+
79.0542	2	C6H7+
91.0543	1	C7H7+
93.07	1	C7H9+
103.0544	1	C8H7+
105.0699	27	C8H9+
107.0856	1	C8H11+
115.0058	2	C4H4ClN2+
117.0699	3	C9H9+
129.0696	2	C10H9+
130.0653	2	C9H8N+
131.0728	1	C9H9N+
132.0807	3	C9H10N+
133.0761	1	C8H9N2+
134.0964	37	C9H12N+
142.0653	1	C10H8N+
143.073	1	C10H9N+
144.0807	9	C10H10N+
145.0886	2	C10H11N+
154.065	1	C11H8N+
156.0807	13	C11H10N+
157.0765	1	C10H9N2+
157.0886	2	C11H11N+
158.0964	24	C11H12N+
159.0917	5	C10H11N2+
160.0758	2	C10H10NO+
164.0529	1	C9H10NS+
168.0686	2	C11H8N2+
169.0759	8	C11H9N2+
170.0841	2	C11H10N2+
171.0914	5	C11H11N2+
173.0212	1	C8H3N3O2+
174.037	1	C10H8NS+
174.0914	7	C11H12NO+
176.0527	7	C10H10NS+
178.0419	2	C10H9ClN+
181.0756	1	C12H9N2+
182.0838	2	C12H10N2+
183.0917	86	C12H11N2+
184.0993	10	C12H12N2+
188.0529	12	C11H10NS+
189.048	4	C10H9N2S+
190.0419	1	C11H9ClN+
192.0574	24	C11H11ClN+
196.0869	50	C12H10N3+
198.1025	2	C12H12N3+
200.0405	2	C11H8N2S+
201.1017	4	C12H13N2O+
203.0373	1	C11H8ClN2+
204.0447	11	C11H9ClN2+
207.0585	6	C10H11N2OS+
208.0871	9	C13H10N3+
209.0955	1	C13H11N3+
212.0279	6	C11H6N3S+
213.0478	6	C12H9N2S+
215.0637	190	C12H11N2S+
217.0537	2	C12H10ClN2+
217.0791	7	C12H13N2S+
218.0615	1	C12H11ClN2+
219.0683	904	C12H12ClN2+
220.0763	2	C12H13ClN2+
226.0439	1	C12H8N3S+
227.0508	9	C12H9N3S+
228.0589	1	C12H10N3S+
229.0669	17	C12H11N3S+
230.0474	7	C12H9ClN3+
231.0589	6	C9H14ClN3S+
232.0629	4	C12H11ClN3+
242.0621	26	C14H12NOS+
242.0745	521	C13H12N3S+
245.0711	1	C13H12ClN3+
249.0247	32	C12H10ClN2S+
262.0207	7	C12H9ClN3S+
262.0671	4	C12H12N3O2S+
263.0278	43	C12H10ClN3S+
266.0507	2	C12H13ClN3S+
278.0512	999	C13H13ClN3S+
280.0659	1	C13H15ClN3S+
306.0461	56	C14H13ClN3OS+
324.0572	3	C14H15ClN3O2S+
