Mass spectrum: Aplaviroc; LC-ESI-QFT; MS2; CE: 60; R=17500; [M+H]+
Name: Aplaviroc
Name: 4-[4-[[(3R)-1-butyl-3-[(R)-cyclohexyl(hydroxy)methyl]-2,5-dioxo-1,4,9-triazaspiro[5.5]undecan-9-yl]methyl]phenoxy]benzoic acid
Formula: C33H43N3O6
Exact mass: 577.3152
SMILES: CCCCN1C(=O)[C@@H]([C@H](O)C2CCCCC2)NC(=O)C12CCN(Cc1ccc(Oc3ccc(C(=O)O)cc3)cc1)CC2
InChI: InChI=1S/C33H43N3O6/c1-2-3-19-36-30(38)28(29(37)24-7-5-4-6-8-24)34-32(41)33(36)17-20-35(21-18-33)22-23-9-13-26(14-10-23)42-27-15-11-25(12-16-27)31(39)40/h9-16,24,28-29,37H,2-8,17-22H2,1H3,(H,34,41)(H,39,40)/t28-,29-/m1/s1
Instrument: Q Exactive Orbitrap (Thermo Scientific)
Instrument type: LC-ESI-QFT
Ms type: MS2
Ion mode: POSITIVE
Ionization: ESI
Fragmentation mode: HCD
Collision energy: 60
Resolution: 17500
Column name: Acquity BEH C18 1.7um, 2.1x150mm (Waters)
Retention time: 16.012 min
Base peak: 79.0212
Precursor m/z: 578.3225
Precursor type: [M+H]+
Precursor intensity: 4805735.625
m/z	relative intensity	assigned
53.0386	2	C4H5+
55.0178	4	C3H3O+
56.0495	2	C3H6N+
57.0698	1	C4H9+
65.0385	72	C5H5+
77.0385	1	C6H5+
79.054	1	C6H7+
91.0542	4	C7H7+
93.0335	3	C6H5O+
95.0127	4	C5H3O2+
95.0492	6	C6H7O+
97.0397	1	C4H5N2O+
99.0552	1	C4H7N2O+
103.0541	2	C8H7+
105.0448	2	C6H5N2+
107.0491	94	C7H7O+
110.0601	2	C6H8NO+
111.0438	3	C6H7O2+
115.0542	56	C9H7+
117.0699	1	C9H9+
121.0283	12	C7H5O2+
121.0394	3	C6H5N2O+
123.0077	1	C6H3O3+
127.05	1	C5H7N2O2+
127.0545	1	C10H7+
128.062	38	C10H8+
129.0698	70	C10H9+
131.0491	19	C9H7O+
133.0647	3	C9H9O+
139.0389	4	C7H7O3+
139.0496	1	C6H7N2O2+
141.0698	12	C11H9+
142.0774	1	C11H10+
143.0855	19	C11H11+
145.0646	7	C10H9O+
149.0345	10	C7H5N2O2+
152.062	12	C12H8+
153.0698	196	C12H9+
154.0776	102	C12H10+
155.0854	447	C12H11+
157.0647	4	C11H9O+
159.0442	1	C10H7O2+
165.0698	15	C13H9+
168.0569	26	C12H8O+
169.0649	1	C12H9O+
171.0803	18	C12H11O+
179.0601	1	C12H7N2+
181.0647	90	C13H9O+
182.0726	85	C13H10O+
183.0804	24	C13H11O+
183.1128	1	C9H15N2O2+
185.0601	3	C12H9O2+
195.1127	1	C10H15N2O2+
199.0392	1	C12H7O3+
199.0753	29	C13H11O2+
209.0596	32	C14H9O2+
212.0471	1	C13H8O3+
227.0701	999	C14H11O3+
