Mass spectrum: Isoxadifen-ethyl; LC-ESI-QFT; MS2; CE: 30; R=17500; [M+H]+
Name: Isoxadifen-ethyl
Name: ethyl 5,5-diphenyl-4H-1,2-oxazole-3-carboxylate
Formula: C18H17NO3
Exact mass: 295.1208
SMILES: CCOC(=O)C1=NOC(C1)(C1=CC=CC=C1)C1=CC=CC=C1
InChI: InChI=1S/C18H17NO3/c1-2-21-17(20)16-13-18(22-19-16,14-9-5-3-6-10-14)15-11-7-4-8-12-15/h3-12H,2,13H2,1H3
Instrument: Q Exactive Orbitrap (Thermo Scientific)
Instrument type: LC-ESI-QFT
Ms type: MS2
Ion mode: POSITIVE
Ionization: ESI
Fragmentation mode: HCD
Collision energy: 30
Resolution: 17500
Column name: Acquity BEH C18 1.7um, 2.1x150mm (Waters)
Retention time: 18.392 min
Base peak: 79.0212
Precursor m/z: 296.1281
Precursor type: [M+H]+
Precursor intensity: 14475155
m/z	relative intensity	assigned
70.0652	9	C4H8N+
77.0386	1	C6H5+
95.0491	2	C6H7O+
103.0542	9	C8H7+
104.0495	5	C7H6N+
105.0336	286	C7H5O+
128.0493	1	C9H6N+
130.0287	2	C8H4NO+
146.0602	3	C9H8NO+
165.0698	9	C13H9+
166.0777	2	C13H10+
167.0858	2	C13H11+
176.0623	2	C14H8+
177.0697	3	C14H9+
178.0778	5	C14H10+
179.0857	13	C14H11+
181.1012	1	C14H13+
183.0806	127	C13H11O+
191.0856	89	C15H11+
192.0937	2	C15H12+
193.0884	1	C14H11N+
193.1011	2	C15H13+
194.0964	10	C14H12N+
195.0809	2	C14H11O+
202.0778	2	C16H10+
203.0734	4	C15H9N+
204.0809	308	C15H10N+
205.0647	1	C15H9O+
205.0888	4	C15H11N+
206.0965	84	C15H12N+
207.0805	83	C15H11O+
217.102	1	C17H13+
219.1044	4	C16H13N+
222.0914	46	C15H12NO+
232.0758	999	C16H10NO+
233.0835	10	C16H11NO+
234.1278	3	C17H16N+
235.0755	24	C16H11O2+
235.1118	50	C17H15O+
240.1016	2	C15H14NO2+
250.0863	58	C16H12NO2+
263.1067	267	C18H15O2+
268.0973	5	C16H14NO3+
278.1176	3	C18H16NO2+
296.1282	10	C18H18NO3+
