Mass spectrum: Fenpyroximate (Z,E); LC-ESI-QFT; MS2; CE: 60; R=17500; [M+H]+
Name: Fenpyroximate (Z,E)
Name: tert-butyl 4-[[(1,3-dimethyl-5-phenoxypyrazol-4-yl)methylideneamino]oxymethyl]benzoate
Formula: C24H27N3O4
Exact mass: 421.2002
SMILES: CN1N=C(C)C(C=NOCC2=CC=C(C=C2)C(=O)OC(C)(C)C)=C1OC1=CC=CC=C1
InChI: InChI=1S/C24H27N3O4/c1-17-21(22(27(5)26-17)30-20-9-7-6-8-10-20)15-25-29-16-18-11-13-19(14-12-18)23(28)31-24(2,3)4/h6-15H,16H2,1-5H3
Instrument: Q Exactive Orbitrap (Thermo Scientific)
Instrument type: LC-ESI-QFT
Ms type: MS2
Ion mode: POSITIVE
Ionization: ESI
Fragmentation mode: HCD
Collision energy: 60
Resolution: 17500
Column name: Acquity BEH C18 1.7um, 2.1x150mm (Waters)
Retention time: 20.132 min
Base peak: 79.0211
Precursor m/z: 422.2074
Precursor type: [M+H]+
Precursor intensity: 27454272
m/z	relative intensity	assigned
52.0183	3	C3H2N+
53.0386	18	C4H5+
54.0338	68	C3H4N+
55.0178	6	C3H3O+
55.0416	35	C3H5N+
55.0542	2	C4H7+
56.0495	33	C3H6N+
57.0447	11	C2H5N2+
57.0699	49	C4H9+
58.0287	16	C2H4NO+
63.023	2	C5H3+
64.0308	3	C5H4+
65.0385	38	C5H5+
66.0338	32	C4H4N+
66.0464	9	C5H6+
67.0177	13	C4H3O+
67.029	5	C3H3N2+
67.0416	13	C4H5N+
68.0131	14	C3H2NO+
68.0369	23	C3H4N2+
68.0494	48	C4H6N+
69.0447	94	C3H5N2+
69.0573	10	C4H7N+
70.0287	11	C3H4NO+
71.0603	142	C3H7N2+
77.0386	11	C6H5+
78.0464	7	C6H6+
79.0291	14	C4H3N2+
79.0417	6	C5H5N+
79.0542	36	C6H7+
80.013	11	C4H2NO+
80.0368	2	C4H4N2+
80.0494	15	C5H6N+
81.0447	367	C4H5N2+
82.0287	307	C4H4NO+
82.0525	34	C4H6N2+
83.0603	61	C4H7N2+
84.0444	32	C4H6NO+
89.0387	7	C7H5+
90.0464	8	C7H6+
91.0416	81	C6H5N+
91.0542	72	C7H7+
92.0495	48	C6H6N+
92.0621	3	C7H8+
93.0447	22	C5H5N2+
93.0573	113	C6H7N+
94.0288	23	C5H4NO+
94.0413	51	C6H6O+
94.0523	3	C5H6N2+
94.0653	6	C6H8N+
95.0492	57	C6H7O+
95.0604	266	C5H7N2+
96.0681	252	C5H8N2+
97.0396	66	C4H5N2O+
99.0552	33	C4H7N2O+
103.0417	8	C7H5N+
103.0541	14	C8H7+
104.0494	122	C7H6N+
105.0335	11	C7H5O+
105.0449	18	C6H5N2+
105.0573	12	C7H7N+
105.07	3	C8H9+
106.0651	118	C7H8N+
107.024	45	C5H3N2O+
107.0491	363	C7H7O+
108.0444	9	C6H6NO+
108.0555	23	C5H6N3+
109.0396	70	C5H5N2O+
109.0519	11	C6H7NO+
110.0236	10	C5H4NO2+
110.0475	25	C5H6N2O+
110.0713	101	C5H8N3+
111.044	12	C6H7O2+
111.0553	128	C5H7N2O+
112.0631	13	C5H8N2O+
113.071	34	C5H9N2O+
115.0542	32	C9H7+
116.0494	26	C8H6N+
116.0622	4	C9H8+
117.0573	201	C8H7N+
118.0413	8	C8H6O+
118.0651	80	C8H8N+
119.0604	6	C7H7N2+
119.073	6	C8H9N+
120.0445	10	C7H6NO+
120.0557	16	C6H6N3+
120.0812	4	C8H10N+
121.0396	7	C6H5N2O+
121.0634	54	C6H7N3+
121.076	55	C7H9N2+
122.0712	220	C6H8N3+
123.0552	194	C6H7N2O+
124.0505	21	C5H6N3O+
125.0707	5	C6H9N2O+
127.0501	23	C5H7N2O2+
128.0494	20	C9H6N+
128.0622	3	C10H8+
129.0572	44	C9H7N+
129.0697	7	C10H9+
130.0651	241	C9H8N+
131.0492	5	C9H7O+
131.0605	27	C8H7N2+
131.0729	36	C9H9N+
132.0443	38	C8H6NO+
132.0681	53	C8H8N2+
132.0807	10	C9H10N+
133.0283	9	C8H5O2+
133.0523	8	C8H7NO+
133.0759	21	C8H9N2+
134.06	10	C8H8NO+
135.044	411	C8H7O2+
136.0506	24	C6H6N3O+
137.0583	13	C6H7N3O+
138.0662	999	C6H8N3O+
139.0501	13	C6H7N2O2+
139.0743	3	C6H9N3O+
140.0494	9	C10H6N+
141.0573	25	C10H7N+
141.0652	3	C6H9N2O2+
142.0524	19	C9H6N2+
142.0651	70	C10H8N+
143.0365	14	C9H5NO+
143.0604	101	C9H7N2+
143.073	51	C10H9N+
144.0444	311	C9H6NO+
144.0807	76	C10H10N+
145.0522	14	C9H7NO+
145.0659	26	C10H9O+
145.076	197	C9H9N2+
146.06	46	C9H8NO+
146.0838	35	C9H10N2+
147.0915	2	C9H11N2+
148.0761	2	C9H10NO+
154.065	9	C11H8N+
155.0494	46	C11H7O+
155.0602	79	C10H7N2+
156.0447	3	C10H6NO+
156.0681	19	C10H8N2+
156.0808	5	C11H10N+
157.0527	9	C10H7NO+
157.0607	92	C6H9N2O3+
157.076	145	C10H9N2+
158.0604	22	C10H8NO+
158.0838	147	C10H10N2+
159.0678	136	C10H9NO+
159.0916	47	C10H11N2+
160.0393	6	C9H6NO2+
160.0759	22	C10H10NO+
160.0869	4	C9H10N3+
161.0472	4	C9H7NO2+
161.0712	5	C9H9N2O+
161.1077	3	C10H13N2+
162.0549	5	C9H8NO2+
163.0866	5	C9H11N2O+
169.076	77	C11H9N2+
170.06	97	C11H8NO+
170.0697	5	C10H8N3+
170.0713	5	C10H8N3+
170.0838	7	C11H10N2+
171.0553	28	C10H7N2O+
171.0682	12	C11H9NO+
171.0782	3	C10H9N3+
171.0915	33	C11H11N2+
172.0632	2	C10H8N2O+
172.0755	13	C11H10NO+
172.0867	20	C10H10N3+
173.0709	136	C10H9N2O+
173.1074	7	C11H13N2+
174.055	4	C10H8NO2+
174.0785	10	C10H10N2O+
174.1024	20	C10H12N3+
175.0625	5	C10H9NO2+
175.0866	9	C10H11N2O+
177.0422	7	C9H7NO3+
183.0552	23	C11H7N2O+
184.0636	5	C11H8N2O+
184.0758	3	C12H10NO+
184.0864	2	C11H10N3+
185.0709	66	C11H9N2O+
186.0543	6	C11H8NO2+
186.1026	122	C11H12N3+
187.0865	57	C11H11N2O+
187.1104	9	C11H13N3+
188.071	5	C11H10NO2+
188.0817	8	C10H10N3O+
188.0943	6	C11H12N2O+
189.1023	15	C11H13N2O+
191.0809	4	C10H11N2O2+
196.0868	3	C12H10N3+
197.071	27	C12H9N2O+
198.0663	6	C11H8N3O+
198.0787	23	C12H10N2O+
198.1022	8	C12H12N3+
199.0742	36	C11H9N3O+
199.0866	52	C12H11N2O+
200.0818	75	C11H10N3O+
201.102	24	C12H13N2O+
202.0974	60	C11H12N3O+
203.0817	5	C11H11N2O2+
212.0815	6	C12H10N3O+
213.0896	3	C12H11N3O+
214.0974	530	C12H12N3O+
215.1051	34	C12H13N3O+
216.0763	4	C11H10N3O2+
230.0923	16	C12H12N3O2+
231.1004	10	C12H13N3O2+
242.1047	6	C14H14N2O2+
256.1084	4	C14H14N3O2+
