Mass spectrum: Tebupirimfos; LC-ESI-QFT; MS2; CE: 60; R=17500; [M+H]+
Name: Tebupirimfos
Name: (2-tert-butylpyrimidin-5-yl)oxy-ethoxy-propan-2-yloxy-sulfanylidene-lambda5-phosphane
Formula: C13H23N2O3PS
Exact mass: 318.1167
SMILES: CCOP(=S)(OC(C)C)OC1=CN=C(N=C1)C(C)(C)C
InChI: InChI=1S/C13H23N2O3PS/c1-7-16-19(20,17-10(2)3)18-11-8-14-12(15-9-11)13(4,5)6/h8-10H,7H2,1-6H3
Instrument: Q Exactive Orbitrap (Thermo Scientific)
Instrument type: LC-ESI-QFT
Ms type: MS2
Ion mode: POSITIVE
Ionization: ESI
Fragmentation mode: HCD
Collision energy: 60
Resolution: 17500
Column name: Acquity BEH C18 1.7um, 2.1x150mm (Waters)
Retention time: 19.637 min
Base peak: 79.0211
Precursor m/z: 319.124
Precursor type: [M+H]+
Precursor intensity: 24944690.25
m/z	relative intensity	assigned
57.0699	49	C4H9+
69.0446	2	C3H5N2+
70.0287	1	C3H4NO+
84.0808	3	C5H10N+
97.0396	22	C4H5N2O+
108.0807	1	C7H10N+
110.0474	1	C5H6N2O+
110.06	1	C6H8NO+
112.0758	2	C6H10NO+
114.9613	1	H4O3PS+
123.0548	2	C6H7N2O+
126.0913	3	C7H12NO+
137.0709	14	C7H9N2O+
138.0788	52	C7H10N2O+
149.9777	1	C3H5NO2PS+
152.0944	1	C8H12N2O+
153.1022	999	C8H13N2O+
154.0553	2	C7H10N2S+
158.995	2	C8HNO3+
165.9718	1	C7H2O3S+
168.0715	6	C8H12N2S+
169.0793	30	C8H13N2S+
174.9725	5	C4H4N2O2PS+
199.063	16	C8H12N2O2P+
215.0037	1	C11H5NO2S+
231.0351	159	C8H12N2O2PS+
249.0456	37	C8H14N2O3PS+
263.0613	28	C9H16N2O3PS+
277.0772	1	C10H18N2O3PS+
