Mass spectrum: Indapamide; LC-ESI-QFT; MS2; CE: 75; R=17500; [M+H]+
Name: Indapamide
Name: 4-chloro-N-(2-methyl-2,3-dihydroindol-1-yl)-3-sulfamoylbenzamide
Formula: C16H16ClN3O3S
Exact mass: 365.0601
SMILES: CC1CC2=C(C=CC=C2)N1NC(=O)C1=CC(=C(Cl)C=C1)S(N)(=O)=O
InChI: InChI=1S/C16H16ClN3O3S/c1-10-8-11-4-2-3-5-14(11)20(10)19-16(21)12-6-7-13(17)15(9-12)24(18,22)23/h2-7,9-10H,8H2,1H3,(H,19,21)(H2,18,22,23)
Instrument: Q Exactive Orbitrap (Thermo Scientific)
Instrument type: LC-ESI-QFT
Ms type: MS2
Ion mode: POSITIVE
Ionization: ESI
Fragmentation mode: HCD
Collision energy: 75
Resolution: 17500
Column name: Acquity BEH C18 1.7um, 2.1x150mm (Waters)
Retention time: 15.072 min
Base peak: 79.0211
Precursor m/z: 366.0674
Precursor type: [M+H]+
Precursor intensity: 908151.09375
m/z	relative intensity	assigned
65.0386	86	C5H5+
90.0465	12	C7H6+
91.0543	999	C7H7+
98.9997	11	C5H4Cl+
103.0544	15	C8H7+
105.0699	57	C8H9+
109.0648	44	C7H9O+
115.0543	19	C9H7+
117.0574	636	C8H7N+
118.0652	106	C8H8N+
130.0652	44	C9H8N+
131.073	19	C9H9N+
132.0809	380	C9H10N+
133.0888	9	C9H11N+
217.9672	18	C7H5ClNO3S+
