Mass spectrum: Carbetamide; LC-ESI-QFT; MS2; CE: 30; R=17500; [M+H]+
Name: Carbetamide
Name: [1-(ethylamino)-1-oxopropan-2-yl] N-phenylcarbamate
Formula: C12H16N2O3
Exact mass: 236.1161
SMILES: CCNC(=O)C(C)OC(=O)NC1=CC=CC=C1
InChI: InChI=1S/C12H16N2O3/c1-3-13-11(15)9(2)17-12(16)14-10-7-5-4-6-8-10/h4-9H,3H2,1-2H3,(H,13,15)(H,14,16)
Instrument: Q Exactive Orbitrap (Thermo Scientific)
Instrument type: LC-ESI-QFT
Ms type: MS2
Ion mode: POSITIVE
Ionization: ESI
Fragmentation mode: HCD
Collision energy: 30
Resolution: 17500
Column name: Acquity BEH C18 1.7um, 2.1x150mm (Waters)
Retention time: 14.852 min
Base peak: 79.0211
Precursor m/z: 237.1234
Precursor type: [M+H]+
Precursor intensity: 3120653.46875
m/z	relative intensity	assigned
72.0808	275	C4H10N+
100.0757	120	C5H10NO+
118.0864	999	C5H12NO2+
120.0445	654	C7H6NO+
150.1028	73	C10H14O+
192.0656	151	C10H10NO3+
