Mass spectrum: Imazamox; LC-ESI-QFT; MS2; CE: 60; R=17500; [M+H]+
Name: Imazamox
Name: 5-(methoxymethyl)-2-(4-methyl-5-oxo-4-propan-2-yl-1H-imidazol-2-yl)pyridine-3-carboxylic acid
Formula: C15H19N3O4
Exact mass: 305.1376
SMILES: COCC1=CN=C(C2=NC(C)(C(C)C)C(=O)N2)C(=C1)C(O)=O
InChI: InChI=1S/C15H19N3O4/c1-8(2)15(3)14(21)17-12(18-15)11-10(13(19)20)5-9(6-16-11)7-22-4/h5-6,8H,7H2,1-4H3,(H,19,20)(H,17,18,21)
Instrument: Q Exactive Orbitrap (Thermo Scientific)
Instrument type: LC-ESI-QFT
Ms type: MS2
Ion mode: POSITIVE
Ionization: ESI
Fragmentation mode: HCD
Collision energy: 60
Resolution: 17500
Column name: Acquity BEH C18 1.7um, 2.1x150mm (Waters)
Retention time: 13.539 min
Base peak: 79.0211
Precursor m/z: 306.1448
Precursor type: [M+H]+
Precursor intensity: 16792127
m/z	relative intensity	assigned
53.0022	46	C3HO+
53.9975	7	C2NO+
55.0179	1	C3H3O+
56.0495	6	C3H6N+
57.07	1	C4H9+
58.0651	20	C3H8N+
65.0386	1	C5H5+
67.0542	22	C5H7+
68.0255	2	C4H4O+
69.0698	999	C5H9+
70.0651	15	C4H8N+
71.0729	28	C4H9N+
71.0854	13	C5H11+
72.0444	8	C3H6NO+
72.0808	1	C4H10N+
74.0964	1	C4H12N+
78.0085	1	C3N3+
80.0493	1	C5H6N+
81.0335	1	C5H5O+
84.0808	6	C5H10N+
86.0964	881	C5H12N+
90.0338	1	C6H4N+
92.0493	5	C6H6N+
94.0525	14	C5H6N2+
94.0651	3	C6H8N+
95.0363	1	C5H5NO+
97.0648	23	C6H9O+
104.0494	1	C7H6N+
105.0447	2	C6H5N2+
106.0653	1	C7H8N+
107.0366	4	C6H5NO+
107.0603	7	C6H7N2+
108.0442	3	C6H6NO+
109.0648	12	C7H9O+
110.0601	4	C6H8NO+
111.044	1	C6H7O2+
114.0912	1	C6H12NO+
117.0448	3	C7H5N2+
118.0286	1	C7H4NO+
118.0525	5	C7H6N2+
119.0604	21	C7H7N2+
120.0443	8	C7H6NO+
121.0396	13	C6H5N2O+
122.0237	1	C6H4NO2+
122.0474	5	C6H6N2O+
122.0601	2	C7H8NO+
131.0605	4	C8H7N2+
133.0759	4	C8H9N2+
134.0474	1	C7H6N2O+
135.0555	9	C7H7N2O+
137.0347	1	C6H5N2O2+
137.071	2	C7H9N2O+
138.0549	2	C7H8NO2+
140.0706	20	C7H10NO2+
144.0808	3	C10H10N+
145.0396	51	C8H5N2O+
147.0553	14	C8H7N2O+
148.0395	2	C8H6NO2+
148.0632	9	C8H8N2O+
149.071	121	C8H9N2O+
150.0423	5	C7H6N2O2+
150.0548	2	C8H8NO2+
151.0501	1	C7H7N2O2+
151.0864	6	C8H11N2O+
153.0547	2	C8H9O3+
154.086	6	C8H12NO2+
155.0576	7	C7H9NO3+
159.0554	9	C9H7N2O+
160.0506	13	C8H6N3O+
160.0627	9	C9H8N2O+
161.0588	29	C8H7N3O+
161.0709	72	C9H9N2O+
162.0422	22	C8H6N2O2+
162.0662	14	C8H8N3O+
163.0501	619	C8H7N2O2+
164.0339	3	C8H6NO3+
165.0659	13	C8H9N2O2+
166.0499	1	C8H8NO3+
168.0654	20	C8H10NO3+
171.0918	5	C11H11N2+
175.0502	182	C9H7N2O2+
176.058	12	C9H8N2O2+
176.107	2	C11H14NO+
177.0659	59	C9H9N2O2+
177.1019	5	C10H13N2O+
178.0502	2	C9H8NO3+
178.0612	4	C8H8N3O2+
179.0451	3	C8H7N2O3+
180.0655	6	C9H10NO3+
183.0919	2	C12H11N2+
184.0995	5	C12H12N2+
185.1071	3	C12H13N2+
186.0664	7	C10H8N3O+
186.1154	9	C12H14N2+
187.0742	13	C10H9N3O+
187.0864	7	C11H11N2O+
187.123	2	C12H15N2+
188.0819	11	C10H10N3O+
188.0945	3	C11H12N2O+
189.0898	3	C10H11N3O+
189.1022	8	C11H13N2O+
190.0972	2	C10H12N3O+
191.0815	336	C10H11N2O2+
192.0768	247	C9H10N3O2+
193.0608	636	C9H9N2O3+
195.0762	1	C9H11N2O3+
197.0706	2	C12H9N2O+
200.1071	2	C13H14NO+
201.102	1	C12H13N2O+
202.1103	1	C12H14N2O+
203.0687	4	C10H9N3O2+
205.0608	2	C10H9N2O3+
205.0845	3	C10H11N3O2+
207.0761	11	C10H11N2O3+
211.086	2	C13H11N2O+
212.0948	7	C13H12N2O+
213.102	10	C13H13N2O+
215.0689	37	C11H9N3O2+
215.1182	5	C13H15N2O+
216.077	20	C11H10N3O2+
217.0845	22	C11H11N3O2+
217.1335	20	C13H17N2O+
218.0924	389	C11H12N3O2+
219.1126	33	C12H15N2O2+
220.0968	5	C12H14NO3+
220.1086	5	C11H14N3O2+
221.0924	5	C11H13N2O3+
228.0893	5	C13H12N2O2+
235.0951	25	C11H13N3O3+
236.1029	11	C11H14N3O3+
243.1128	65	C14H15N2O2+
245.0796	13	C12H11N3O3+
246.0873	301	C12H12N3O3+
260.1396	10	C14H18N3O2+
261.1235	39	C14H17N2O3+
263.0899	2	C12H13N3O4+
264.0978	11	C12H14N3O4+
276.0975	2	C13H14N3O4+
