Mass spectrum: 2,2`-(Oxydimethanediyl)bis(2-ethylpropane-1,3-diol); LC-ESI-QFT; MS2; CE: 45; R=17500; [M-H]-
Name: 2,2'-(Oxydimethanediyl)bis(2-ethylpropane-1,3-diol)
Name: Ditrimethylolpropane
Name: 2-[2,2-bis(hydroxymethyl)butoxymethyl]-2-ethylpropane-1,3-diol
Formula: C12H26O5
Exact mass: 250.1780
SMILES: CCC(CO)(CO)COCC(CC)(CO)CO
InChI: InChI=1S/C12H26O5/c1-3-11(5-13,6-14)9-17-10-12(4-2,7-15)8-16/h13-16H,3-10H2,1-2H3
Instrument: Q Exactive Orbitrap (Thermo Scientific)
Instrument type: LC-ESI-QFT
Ms type: MS2
Ion mode: NEGATIVE
Ionization: ESI
Fragmentation mode: HCD
Collision energy: 45
Resolution: 17500
Column name: Acquity BEH C18 1.7um, 2.1x150mm (Waters)
Retention time: 13.470 min
Base peak: 112.9857
Precursor m/z: 249.1707
Precursor type: [M-H]-
Precursor intensity: 512170.8544922
m/z	relative intensity	assigned
83.0502	156	C5H7O-
101.0609	572	C5H9O2-
133.087	999	C6H13O3-
