Mass spectrum: Carbimazole; LC-ESI-QFT; MS2; CE: 75; R=17500; [M+H]+
Name: Carbimazole
Name: ethyl 3-methyl-2-sulfanylideneimidazole-1-carboxylate
Formula: C7H10N2O2S
Exact mass: 186.0463
SMILES: CCOC(=O)N1C=CN(C)C1=S
InChI: InChI=1S/C7H10N2O2S/c1-3-11-7(10)9-5-4-8(2)6(9)12/h4-5H,3H2,1-2H3
Instrument: Q Exactive Orbitrap (Thermo Scientific)
Instrument type: LC-ESI-QFT
Ms type: MS2
Ion mode: POSITIVE
Ionization: ESI
Fragmentation mode: HCD
Collision energy: 75
Resolution: 17500
Column name: Acquity BEH C18 1.7um, 2.1x150mm (Waters)
Retention time: 11.592 min
Base peak: 79.0211
Precursor m/z: 187.0536
Precursor type: [M+H]+
Precursor intensity: 8299102.4375
m/z	relative intensity	assigned
54.0338	3	C3H4N+
56.0495	152	C3H6N+
57.0573	685	C3H7N+
58.9951	32	C2H3S+
61.0107	7	C2H5S+
69.0448	8	C3H5N2+
70.0651	12	C4H8N+
70.995	2	C3H3S+
71.0604	35	C3H7N2+
73.0107	4	C3H5S+
74.0059	194	C2H4NS+
81.0449	7	C4H5N2+
82.0526	24	C4H6N2+
83.0604	71	C4H7N2+
84.0808	3	C5H10N+
86.0059	7	C3H4NS+
88.0216	288	C3H6NS+
97.0076	2	H5N2O2S+
100.009	30	C3H4N2S+
109.0762	3	C6H9N2+
111.0919	2	C6H11N2+
113.0169	16	C4H5N2S+
114.0248	48	C4H6N2S+
115.0326	999	C4H7N2S+
128.0402	3	C5H8N2S+
130.982	3	C7HNS+
143.0639	11	C6H11N2S+
