Mass spectrum: Fluroxypyr; LC-ESI-QFT; MS2; CE: 30; R=17500; [M-H]-
Name: Fluroxypyr
Name: 2-(4-amino-3,5-dichloro-6-fluoropyridin-2-yl)oxyacetic acid
Formula: C7H5Cl2FN2O3
Exact mass: 253.9661
SMILES: NC1=C(Cl)C(F)=NC(OCC(O)=O)=C1Cl
InChI: InChI=1S/C7H5Cl2FN2O3/c8-3-5(11)4(9)7(12-6(3)10)15-1-2(13)14/h1H2,(H2,11,12)(H,13,14)
Instrument: Q Exactive Orbitrap (Thermo Scientific)
Instrument type: LC-ESI-QFT
Ms type: MS2
Ion mode: NEGATIVE
Ionization: ESI
Fragmentation mode: HCD
Collision energy: 30
Resolution: 17500
Column name: Acquity BEH C18 1.7um, 2.1x150mm (Waters)
Retention time: 15.115 min
Base peak: 194.9534
Precursor m/z: 252.9588
Precursor type: [M-H]-
Precursor intensity: 2508242.272461
m/z	relative intensity	assigned
65.9985	4	C3NO-
131.9414	15	C4Cl2N-
138.9704	4	C5ClN2O-
152.9861	6	C6H2ClN2O-
153.0106	2	C6H2FN2O2-
158.9768	16	C5HClFN2O-
172.9924	15	C6H3ClFN2O-
174.9471	27	C5HCl2N2O-
174.9716	4	C5HClFN2O2-
188.9629	59	C6H3Cl2N2O-
193.9455	3	C5HCl2FN2O-
194.9534	999	C5H2Cl2FN2O-
216.9822	31	C7H3ClFN2O3-
232.9526	101	C7H3Cl2N2O3-
252.9592	7	C7H4Cl2FN2O3-
