Mass spectrum: PharmaGSID_48516; LC-ESI-QFT; MS2; CE: 30; R=17500; [M-H]-
Name: 2-chloro-4-fluoro-N-[(E)-2-phenylethenyl]sulfonylbenzamide
Name: 2-Chloro-4-fluoro-N-{[(E)-2-phenylethenyl]sulfonyl}benzamide
Name: PharmaGSID_48516
Formula: C15H11ClFNO3S
Exact mass: 339.0132
SMILES: O=C(NS(=O)(=O)/C=C/c1ccccc1)c1ccc(F)cc1Cl
InChI: InChI=1S/C15H11ClFNO3S/c16-14-10-12(17)6-7-13(14)15(19)18-22(20,21)9-8-11-4-2-1-3-5-11/h1-10H,(H,18,19)/b9-8+
Instrument: Q Exactive Orbitrap (Thermo Scientific)
Instrument type: LC-ESI-QFT
Ms type: MS2
Ion mode: NEGATIVE
Ionization: ESI
Fragmentation mode: HCD
Collision energy: 30
Resolution: 17500
Column name: Acquity BEH C18 1.7um, 2.1x150mm (Waters)
Retention time: 16.712 min
Base peak: 429.0536
Precursor m/z: 338.0059
Precursor type: [M-H]-
Precursor intensity: 26083580.21094
m/z	relative intensity	assigned
61.9706	1	NOS-
63.9625	2	O2S-
77.9657	3	NO2S-
79.9812	14	H2NO2S-
101.0397	76	C8H5-
105.9605	8	CNO3S-
116.0506	6	C8H6N-
117.0345	3	C8H5O-
119.0502	999	C8H7O-
128.9912	21	C6H3ClF-
136.0203	3	C7H3FNO-
165.0016	8	C8H5O2S-
167.0171	3	C8H7O2S-
171.9971	464	C7H4ClFNO-
183.012	4	C8H7O3S-
199.9825	3	C7H3FNO3S-
208.0073	27	C9H6NO3S-
238.0674	44	C15H9FNO-
247.0337	1	C14H9ClFO-
302.0293	27	C15H9FNO3S-
338.0061	799	C15H10ClFNO3S-
