Mass spectrum: Procyazine; LC-ESI-QFT; MS2; CE: 60; R=17500; [M+H]+
Name: Procyazine
Name: 2-[[4-chloro-6-(cyclopropylamino)-1,3,5-triazin-2-yl]amino]-2-methylpropanenitrile
Formula: C10H13ClN6
Exact mass: 252.0890
SMILES: CC(C)(NC1=NC(Cl)=NC(NC2CC2)=N1)C#N
InChI: InChI=1S/C10H13ClN6/c1-10(2,5-12)17-9-15-7(11)14-8(16-9)13-6-3-4-6/h6H,3-4H2,1-2H3,(H2,13,14,15,16,17)
Instrument: Q Exactive Orbitrap (Thermo Scientific)
Instrument type: LC-ESI-QFT
Ms type: MS2
Ion mode: POSITIVE
Ionization: ESI
Fragmentation mode: HCD
Collision energy: 60
Resolution: 17500
Column name: Acquity BEH C18 1.7um, 2.1x150mm (Waters)
Retention time: 15.117 min
Base peak: 79.0212
Precursor m/z: 253.0963
Precursor type: [M+H]+
Precursor intensity: 4163392.25
m/z	relative intensity	assigned
53.0022	10	ClH4N+
54.0338	5	C3H4N+
55.0291	15	C2H3N2+
56.0495	170	C3H6N+
58.0651	125	C3H8N+
61.9792	30	CHClN+
63.9948	4	CH3ClN+
67.029	9	C3H3N2+
67.0416	4	C4H5N+
68.0243	133	C2H2N3+
68.0495	21	C4H6N+
69.0447	9	C3H5N2+
70.065	7	C4H8N+
74.9995	38	C3H4Cl+
78.0105	14	C2H5ClN+
79.0057	130	CH4ClN2+
79.029	22	C4H3N2+
80.0494	9	C5H6N+
81.0447	128	C4H5N2+
82.0651	38	C5H8N+
83.0603	999	C4H7N2+
85.0759	9	C4H9N2+
91.0058	28	C2H4ClN2+
93.0447	5	C5H5N2+
94.0651	2	C6H8N+
95.0604	4	C5H7N2+
96.0807	3	C6H10N+
102.0105	134	C4H5ClN+
103.0057	37	C3H4ClN2+
104.001	382	C2H3ClN3+
107.0603	35	C6H7N2+
108.0556	979	C5H6N3+
109.0502	2	C4H5N4+
110.046	11	C3H4N5+
110.0713	146	C5H8N3+
111.0554	4	C2H10ClN3+
117.0213	32	C4H6ClN2+
119.0371	720	C4H8ClN2+
120.0557	45	C6H6N3+
121.0508	15	C5H5N4+
121.0759	8	C7H9N2+
122.0715	6	C6H8N3+
123.0916	48	C7H11N2+
124.0868	6	C6H10N3+
125.0821	10	C5H9N4+
125.1075	7	C7H13N2+
128.9959	4	C3H2ClN4+
133.0508	6	C6H5N4+
135.0664	14	C6H7N4+
136.0746	14	C6H8N4+
137.0826	3	C6H9N4+
144.0323	587	C5H7ClN3+
145.0276	36	C4H6ClN4+
146.0228	32	C3H5ClN5+
148.0869	643	C8H10N3+
149.0822	79	C7H9N4+
150.0775	58	C6H8N5+
150.1025	12	C8H12N3+
151.1104	5	C8H13N3+
157.0274	4	C5H6ClN4+
158.0227	10	C4H5ClN5+
159.043	5	C5H8ClN4+
160.0616	4	C7H6N5+
161.0691	4	C7H7N5+
162.0775	4	C7H8N5+
165.1135	22	C8H13N4+
169.0278	19	C6H6ClN4+
170.0227	13	C5H5ClN5+
184.0383	3	C6H7ClN5+
185.0588	175	C7H10ClN4+
186.0541	286	C6H9ClN5+
188.0931	3	C9H10N5+
190.1087	124	C9H12N5+
198.0543	18	C7H9ClN5+
209.0588	11	C9H10ClN4+
217.1195	9	C10H13N6+
226.0854	515	C9H13ClN5+
