Mass spectrum: Triphenylphosphine oxide; LC-ESI-QFT; MS2; CE: 90; R=17500; [M+H]+
Name: Triphenylphosphine oxide
Name: diphenylphosphorylbenzene
Formula: C18H15OP
Exact mass: 278.0861
SMILES: O=P(C1=CC=CC=C1)(C1=CC=CC=C1)C1=CC=CC=C1
InChI: InChI=1S/C18H15OP/c19-20(16-10-4-1-5-11-16,17-12-6-2-7-13-17)18-14-8-3-9-15-18/h1-15H
Instrument: Q Exactive Orbitrap (Thermo Scientific)
Instrument type: LC-ESI-QFT
Ms type: MS2
Ion mode: POSITIVE
Ionization: ESI
Fragmentation mode: HCD
Collision energy: 90
Resolution: 17500
Column name: Acquity BEH C18 1.7um, 2.1x150mm (Waters)
Retention time: 16.902 min
Base peak: 79.0211
Precursor m/z: 279.0933
Precursor type: [M+H]+
Precursor intensity: 47958271
m/z	relative intensity	assigned
50.0151	4	C4H2+
51.0229	9	C4H3+
53.0386	360	C4H5+
55.0179	18	C3H3O+
56.9889	3	C2H2P+
65.0385	3	C5H5+
67.0542	3	C5H7+
68.9888	25	C3H2P+
75.023	1	C6H3+
77.0385	280	C6H5+
78.0463	2	C6H6+
79.0541	4	C6H7+
81.0335	33	C5H5O+
81.0698	4	C6H9+
91.0543	16	C7H7+
94.0414	40	C6H6O+
95.0046	440	C5H4P+
95.0491	999	C6H7O+
97.02	3	C5H6P+
106.0417	2	C7H6O+
107.0045	18	C6H4P+
107.0496	1	C7H7O+
108.0123	4	C6H5P+
109.02	1	C6H6P+
109.0649	9	C7H9O+
113.015	27	C5H6OP+
115.0543	24	C9H7+
116.0621	3	C9H8+
122.9994	39	C6H4OP+
125.0151	32	C6H6OP+
127.0307	3	C6H8OP+
128.0621	219	C10H8+
129.0698	179	C10H9+
133.0202	146	C8H6P+
141.0699	58	C11H9+
145.0202	14	C9H6P+
147.0358	39	C9H8P+
152.0621	29	C12H8+
153.0699	84	C12H9+
154.0777	146	C12H10+
155.0855	4	C12H11+
157.0202	11	C10H6P+
159.0358	5	C10H8P+
165.0462	1	C9H10OP+
168.0566	1	C12H8O+
170.0279	35	C11H7P+
171.0358	344	C11H8P+
172.0436	3	C11H9P+
173.0515	328	C11H10P+
183.0359	221	C12H8P+
186.0227	4	C11H7OP+
199.0307	14	C12H8OP+
201.0464	99	C12H10OP+
