Mass spectrum: PharmaGSID_48519; LC-ESI-QFT; MS2; CE: 75; R=17500; [M+H]+
Name: PharmaGSID_48519
Name: 3-(2-bromophenyl)-7-[[2-(hydroxymethyl)-2,3-dihydro-1,4-benzodioxin-6-yl]amino]-1-methyl-4H-pyrimido[4,5-d]pyrimidin-2-one
Formula: C22H20BrN5O4
Exact mass: 497.0699
SMILES: CN1C(=O)N(CC2=CN=C(NC3=CC4=C(OC(CO)CO4)C=C3)N=C12)C1=CC=CC=C1Br
InChI: InChI=1S/C22H20BrN5O4/c1-27-20-13(10-28(22(27)30)17-5-3-2-4-16(17)23)9-24-21(26-20)25-14-6-7-18-19(8-14)31-12-15(11-29)32-18/h2-9,15,29H,10-12H2,1H3,(H,24,25,26)
Instrument: Q Exactive Orbitrap (Thermo Scientific)
Instrument type: LC-ESI-QFT
Ms type: MS2
Ion mode: POSITIVE
Ionization: ESI
Fragmentation mode: HCD
Collision energy: 75
Resolution: 17500
Column name: Acquity BEH C18 1.7um, 2.1x150mm (Waters)
Retention time: 16.353 min
Base peak: 79.0211
Precursor m/z: 498.0771
Precursor type: [M+H]+
Precursor intensity: 4843551.9375
m/z	relative intensity	assigned
52.0182	6	C3H2N+
53.0022	8	C3HO+
53.0261	2	C3H3N+
53.0388	3	C4H5+
54.0339	160	C3H4N+
55.018	3	C3H3O+
57.0335	46	C3H5O+
65.0387	7	C5H5+
66.0338	603	C4H4N+
67.0417	11	C4H5N+
68.0495	666	C4H6N+
70.0652	6	C4H8N+
78.0338	6	C5H4N+
79.0178	9	C5H3O+
79.0542	6	C6H7+
80.0495	19	C5H6N+
81.0335	9	C5H5O+
81.0448	22	C4H5N2+
81.0573	5	C5H7N+
91.0543	16	C7H7+
93.0448	29	C5H5N2+
94.0415	2	C6H6O+
95.0604	999	C5H7N2+
96.0445	24	C5H6NO+
96.0683	5	C5H8N2+
104.0496	7	C7H6N+
105.0448	8	C6H5N2+
106.0652	9	C7H8N+
107.0128	28	C6H3O2+
107.0492	4	C7H7O+
107.0604	9	C6H7N2+
108.0445	6	C6H6NO+
108.0557	33	C5H6N3+
109.0284	4	C6H5O2+
110.0364	30	C6H6O2+
110.0713	9	C5H8N3+
116.0496	8	C8H6N+
117.0572	3	C8H7N+
118.0415	2	C8H6O+
118.0651	4	C8H8N+
119.049	2	C8H7O+
119.0605	11	C7H7N2+
120.0557	62	C6H6N3+
121.0284	3	C7H5O2+
121.0396	11	C6H5N2O+
122.0597	2	C7H8NO+
124.0395	22	C6H6NO2+
125.0472	5	C6H7NO2+
126.0663	13	C5H8N3O+
131.0605	13	C8H7N2+
132.0445	5	C8H6NO+
132.0556	2	C7H6N3+
132.0682	3	C8H8N2+
133.0398	2	C7H5N2O+
133.0632	2	C7H7N3+
133.076	6	C8H9N2+
134.06	8	C8H8NO+
134.0711	2	C7H8N3+
135.0314	3	C7H5NO2+
135.0441	24	C8H7O2+
135.0553	7	C7H7N2O+
136.0393	10	C7H6NO2+
137.0824	5	C6H9N4+
138.0663	29	C6H8N3O+
142.0532	2	C9H6N2+
143.0605	16	C9H7N2+
144.0444	3	C9H6NO+
144.0559	2	C8H6N3+
145.076	10	C9H9N2+
146.0604	2	C9H8NO+
146.0713	9	C8H8N3+
146.0835	2	C9H10N2+
147.044	2	C9H7O2+
147.0554	5	C8H7N2O+
147.0794	3	C8H9N3+
149.0348	5	C7H5N2O2+
149.0823	7	C7H9N4+
150.0426	5	C7H6N2O2+
150.0548	3	C8H8NO2+
151.0502	2	C7H7N2O2+
153.0527	3	C6H7N3O2+
155.0606	16	C10H7N2+
157.0634	6	C9H7N3+
157.0759	5	C10H9N2+
158.0714	60	C9H8N3+
159.0551	11	C9H7N2O+
159.0789	5	C9H9N3+
160.0394	3	C9H6NO2+
160.087	30	C9H10N3+
161.0347	6	C8H5N2O2+
161.0708	5	C9H9N2O+
161.0823	4	C8H9N4+
162.055	5	C9H8NO2+
163.0503	6	C8H7N2O2+
166.0628	17	C9H10O3+
169.0636	15	C10H7N3+
169.076	5	C11H9N2+
170.0714	127	C10H8N3+
171.0551	6	C10H7N2O+
171.0666	7	C9H7N4+
171.0794	13	C10H9N3+
172.0643	1	BrH19N3O2+
172.0661	2	BrH19N3O2+
172.0747	21	C9H8N4+
172.0869	21	C10H10N3+
173.0709	6	C10H9N2O+
173.0824	17	C9H9N4+
174.0664	11	C9H8N3O+
175.0502	8	C9H7N2O2+
180.0654	3	C9H10NO3+
181.0639	3	C11H7N3+
181.0739	2	C9H11NO3+
182.071	12	C11H8N3+
183.0653	5	C9H11O4+
183.079	7	C11H9N3+
184.0871	17	C11H10N3+
185.0579	5	C10H7N3O+
185.0823	16	C10H9N4+
186.0663	94	C10H8N3O+
186.0901	10	C10H10N4+
187.098	396	C10H11N4+
188.0818	25	C10H10N3O+
193.0607	22	C9H9N2O3+
195.0794	6	C12H9N3+
196.0872	40	C12H10N3+
197.0819	10	C11H9N4+
197.094	2	C12H11N3+
198.0663	35	C11H8N3O+
198.0906	5	C11H10N4+
198.1027	11	C12H12N3+
199.074	8	C11H9N3O+
199.098	26	C11H11N4+
200.0711	3	C12H10NO2+
200.082	20	C11H10N3O+
201.0534	6	C10H7N3O2+
201.0773	7	C10H9N4O+
207.0765	36	C10H11N2O3+
211.0984	9	C12H11N4+
212.0818	6	C12H10N3O+
213.0769	3	C11H9N4O+
213.1135	6	C12H13N4+
214.0613	27	C11H8N3O2+
214.0853	4	C11H10N4O+
214.0971	5	C12H12N3O+
215.069	22	C11H9N3O2+
215.0929	168	C11H11N4O+
216.0769	62	C11H10N3O2+
219.0767	13	C11H11N2O3+
224.0822	20	C13H10N3O+
226.0612	14	C12H8N3O2+
226.0852	3	C12H10N4O+
226.0972	6	C13H12N3O+
227.0928	23	C12H11N4O+
228.0769	7	C12H10N3O2+
228.1006	2	C12H12N4O+
234.0878	4	C11H12N3O3+
241.1086	7	C13H13N4O+
242.0929	3	C13H12N3O2+
243.088	26	C12H11N4O2+
244.0953	3	C12H12N4O2+
245.1038	4	C12H13N4O2+
253.1086	3	C14H13N4O+
254.0929	2	C14H12N3O2+
301.1296	8	C15H17N4O3+
