Mass spectrum: Phenobarbital; LC-ESI-QFT; MS2; CE: 30; R=17500; [M-H]-
Name: Phenobarbital
Name: 5-ethyl-5-phenyl-1,3-diazinane-2,4,6-trione
Formula: C12H12N2O3
Exact mass: 232.0848
SMILES: CCC1(C(=O)NC(O)=NC1=O)c1ccccc1
InChI: InChI=1S/C12H12N2O3/c1-2-12(8-6-4-3-5-7-8)9(15)13-11(17)14-10(12)16/h3-7H,2H2,1H3,(H2,13,14,15,16,17)
Instrument: Q Exactive Orbitrap (Thermo Scientific)
Instrument type: LC-ESI-QFT
Ms type: MS2
Ion mode: NEGATIVE
Ionization: ESI
Fragmentation mode: HCD
Collision energy: 30
Resolution: 17500
Column name: Acquity BEH C18 1.7um, 2.1x150mm (Waters)
Retention time: 14.149 min
Base peak: 211.0612
Precursor m/z: 231.0775
Precursor type: [M-H]-
Precursor intensity: 3893357.961914
m/z	relative intensity	assigned
85.0044	395	C2HN2O2-
144.082	73	C10H10N-
188.0717	289	C11H10NO2-
231.0775	999	C12H11N2O3-
