Mass spectrum: Penoxsulam; LC-ESI-QFT; MS2; CE: 90; R=17500; [M-H]-
Name: Penoxsulam
Name: 2-(2,2-difluoroethoxy)-N-(5,8-dimethoxy-[1,2,4]triazolo[1,5-c]pyrimidin-2-yl)-6-(trifluoromethyl)benzenesulfonamide
Formula: C16H14F5N5O5S
Exact mass: 483.0636
SMILES: COC1=CN=C(OC)N2N=C(NS(=O)(=O)C3=C(C=CC=C3OCC(F)F)C(F)(F)F)N=C12
InChI: InChI=1S/C16H14F5N5O5S/c1-29-10-6-22-15(30-2)26-13(10)23-14(24-26)25-32(27,28)12-8(16(19,20)21)4-3-5-9(12)31-7-11(17)18/h3-6,11H,7H2,1-2H3,(H,24,25)
Instrument: Q Exactive Orbitrap (Thermo Scientific)
Instrument type: LC-ESI-QFT
Ms type: MS2
Ion mode: NEGATIVE
Ionization: ESI
Fragmentation mode: HCD
Collision energy: 90
Resolution: 17500
Column name: Acquity BEH C18 1.7um, 2.1x150mm (Waters)
Retention time: 15.561 min
Base peak: 99.9976
Precursor m/z: 482.0563
Precursor type: [M-H]-
Precursor intensity: 20563730.50293
m/z	relative intensity	assigned
53.9985	103	C2NO-
58.9938	79	C2FO-
61.0095	643	C2H2FO-
63.9625	16	O2S-
64.0067	61	C3N2-
65.0035	12	C4HO-
65.0145	104	C3HN2-
65.9987	73	C3NO-
66.0098	999	C2N3-
68.0142	19	C3H2NO-
70.9939	99	C3FO-
73.0084	57	C6H-
74.0036	23	C5N-
77.9654	16	NO2S-
78.0097	14	C3N3-
80.0017	46	C3N2O-
81.0157	9	C2H3F2O-
81.9935	932	C3NO2-
82.9609	20	FO2S-
85.0083	12	C7H-
88.0067	77	C5N2-
90.0098	185	C4N3-
92.0254	7	C4H2N3-
92.9958	133	C3F3-
94.0046	25	C3N3O-
97.0084	437	C8H-
98.0036	31	C7N-
98.036	11	F4H6O-
104.0131	7	CH2F4N-
106.0046	9	C4N3O-
109.0044	283	C4HN2O2-
112.0067	68	C7N2-
113.0033	16	C8HO-
113.0147	13	C7HN2-
114.0097	22	C6N3-
115.0302	16	C7H3N2-
117.0146	379	C8H2F-
121.0096	109	C7H2FO-
121.0156	366	C4HN4O-
131.0051	15	C7FN2-
135.0075	136	C2H3F4O2-
135.0252	14	C8H4FO-
137.0208	337	C8H3F2-
140.0129	24	C4H2F4N-
141.0157	76	C7H3F2O-
143.0052	76	C8FN2-
143.0361	20	C3H8FO5-
145.0095	513	C9H2FO-
145.0269	51	C2H3F4N3-
146.0046	10	C3F2N4O-
148.0141	69	C6H3F3O-
149.0104	617	C5HN4O2-
150.0178	10	C5H2N4O2-
151.0023	15	C8H4FS-
154.0286	40	C5H4F4N-
155.0314	23	C8H5F2O-
157.0207	12	C9H2FN2-
157.0272	20	C8H4F3-
159.006	8	C2HF4N3O-
160.0319	9	C13H4-
161.022	974	C7H4F3O-
163.0118	44	C2H7F2NO3S-
164.034	88	C6H4N4O2-
169.0021	14	C7F3N2-
177.0272	7	C9H3F2N2-
178.0223	33	C8H2F2N3-
183.0177	56	C8H2F3N2-
183.0267	11	C9H5F2O2-
185.0219	107	C9H4F3O-
185.0467	19	CH6F5N4O-
186.0178	38	C2H9F3O4S-
197.0207	52	C8H2F3N3-
203.0175	25	C11H4FO3-
204.0253	24	C9H2F2N4-
205.0332	20	C11H6FO3-
208.0127	13	C9HF3N3-
210.0286	44	C14H4F2-
223.024	17	C3H5F4N3O4-
224.0316	417	C9H3F3N4-
250.0234	18	C11H3F3N3O-
289.0219	6	C12H2F3N5O-
