Mass spectrum: 5,6-Benzoflavone; LC-ESI-QFT; MS2; CE: 75; R=17500; [M+H]+
Name: 5,6-Benzoflavone
Name: beta-Naphthoflavone
Name: 3-phenylbenzo[f]chromen-1-one
Formula: C19H12O2
Exact mass: 272.0837
SMILES: O=C1C=C(OC2=C1C1=C(C=CC=C1)C=C2)C1=CC=CC=C1
InChI: InChI=1S/C19H12O2/c20-16-12-18(14-7-2-1-3-8-14)21-17-11-10-13-6-4-5-9-15(13)19(16)17/h1-12H
Instrument: Q Exactive Orbitrap (Thermo Scientific)
Instrument type: LC-ESI-QFT
Ms type: MS2
Ion mode: POSITIVE
Ionization: ESI
Fragmentation mode: HCD
Collision energy: 75
Resolution: 17500
Column name: Acquity BEH C18 1.7um, 2.1x150mm (Waters)
Retention time: 19.580 min
Base peak: 79.0211
Precursor m/z: 273.091
Precursor type: [M+H]+
Precursor intensity: 20646255.90625
m/z	relative intensity	assigned
50.0151	1	C4H2+
51.0229	1	C4H3+
53.0386	15	C4H5+
63.023	2	C5H3+
68.997	42	C3HO2+
74.0149	1	C6H2+
75.0227	4	C6H3+
77.0384	9	C6H5+
81.0333	1	C5H5O+
89.0384	1	C7H5+
91.0542	2	C7H7+
94.0412	1	C6H6O+
95.0491	42	C6H7O+
101.0386	3	C8H5+
102.0463	7	C8H6+
103.0542	301	C8H7+
105.0335	47	C7H5O+
115.0542	999	C9H7+
117.0698	10	C9H9+
119.0491	2	C8H7O+
126.0464	13	C10H6+
127.0542	163	C10H7+
128.0619	3	C10H8+
129.0334	570	C9H5O+
130.0413	1	C9H6O+
131.0489	2	C9H7O+
139.0541	4	C11H7+
143.0491	158	C10H7O+
144.0572	5	C10H8O+
145.0647	264	C10H9O+
152.062	2	C12H8+
153.0697	2	C12H9+
156.0572	2	C11H8O+
159.0803	3	C11H11O+
161.0596	8	C10H9O2+
167.0492	2	C12H7O+
169.0648	1	C12H9O+
171.044	179	C11H7O2+
175.0752	3	C11H11O2+
190.0776	4	C15H10+
201.0697	1	C16H9+
202.0777	206	C16H10+
203.0854	6	C16H11+
204.0933	2	C16H12+
215.0854	68	C17H11+
216.0933	32	C17H12+
217.1011	49	C17H13+
219.0805	2	C16H11O+
226.0776	34	C18H10+
227.0854	18	C18H11+
228.0933	33	C18H12+
231.08	2	C17H11O+
243.08	1	C18H11O+
244.0881	4	C18H12O+
245.0961	3	C18H13O+
255.0803	1	C19H11O+
273.0909	127	C19H13O2+
