Mass spectrum: Fluometuron; LC-ESI-QFT; MS2; CE: 15; R=17500; [M+H]+
Name: Fluometuron
Name: 1,1-dimethyl-3-[3-(trifluoromethyl)phenyl]urea
Formula: C10H11F3N2O
Exact mass: 232.0823
SMILES: CN(C)C(=O)NC1=CC=CC(=C1)C(F)(F)F
InChI: InChI=1S/C10H11F3N2O/c1-15(2)9(16)14-8-5-3-4-7(6-8)10(11,12)13/h3-6H,1-2H3,(H,14,16)
Instrument: Q Exactive Orbitrap (Thermo Scientific)
Instrument type: LC-ESI-QFT
Ms type: MS2
Ion mode: POSITIVE
Ionization: ESI
Fragmentation mode: HCD
Collision energy: 15
Resolution: 17500
Column name: Acquity BEH C18 1.7um, 2.1x150mm (Waters)
Retention time: 16.075 min
Base peak: 79.0211
Precursor m/z: 233.0896
Precursor type: [M+H]+
Precursor intensity: 16485921.125
m/z	relative intensity	assigned
72.0443	405	C3H6NO+
168.0256	1	C8H4F2NO+
213.083	4	C10H11F2N2O+
233.0896	999	C10H12F3N2O+
