Mass spectrum: Benalaxyl; LC-ESI-QFT; MS2; CE: 60; R=17500; [M+H]+
Name: Benalaxyl
Name: methyl 2-(2,6-dimethyl-N-(2-phenylacetyl)anilino)propanoate
Formula: C20H23NO3
Exact mass: 325.1678
SMILES: COC(=O)C(C)N(C(=O)CC1=CC=CC=C1)C1=C(C)C=CC=C1C
InChI: InChI=1S/C20H23NO3/c1-14-9-8-10-15(2)19(14)21(16(3)20(23)24-4)18(22)13-17-11-6-5-7-12-17/h5-12,16H,13H2,1-4H3
Instrument: Q Exactive Orbitrap (Thermo Scientific)
Instrument type: LC-ESI-QFT
Ms type: MS2
Ion mode: POSITIVE
Ionization: ESI
Fragmentation mode: HCD
Collision energy: 60
Resolution: 17500
Column name: Acquity BEH C18 1.7um, 2.1x150mm (Waters)
Retention time: 18.580 min
Base peak: 79.0211
Precursor m/z: 326.1751
Precursor type: [M+H]+
Precursor intensity: 56452237.03125
m/z	relative intensity	assigned
53.0023	2	C3HO+
57.0699	41	C4H9+
58.0651	29	C3H8N+
63.0229	1	C5H3+
65.0386	19	C5H5+
71.0855	9	C5H11+
77.0386	1	C6H5+
79.0543	2	C6H7+
85.1013	4	C6H13+
91.0543	999	C7H7+
103.0542	2	C8H7+
105.0699	15	C8H9+
106.0651	24	C7H8N+
107.0729	6	C7H9N+
107.0856	1	C8H11+
118.0651	6	C8H8N+
119.0855	6	C9H11+
120.0808	12	C8H10N+
121.0886	547	C8H11N+
122.0964	28	C8H12N+
131.0856	9	C10H11+
132.0807	1	C9H10N+
133.0886	21	C9H11N+
146.0964	3	C10H12N+
148.1121	913	C10H14N+
196.1124	1	C14H14N+
208.1334	3	C12H18NO2+
