Mass spectrum: Hydroxyflutamide; LC-ESI-QFT; MS2; CE: 75; R=17500; [M-H]-
Name: Hydroxyflutamide
Name: 2-hydroxy-2-methyl-N-[4-nitro-3-(trifluoromethyl)phenyl]propanamide
Formula: C11H11F3N2O4
Exact mass: 292.0671
SMILES: CC(C)(O)C(=O)NC1=CC(=C(C=C1)[N+]([O-])=O)C(F)(F)F
InChI: InChI=1S/C11H11F3N2O4/c1-10(2,18)9(17)15-6-3-4-8(16(19)20)7(5-6)11(12,13)14/h3-5,18H,1-2H3,(H,15,17)
Instrument: Q Exactive Orbitrap (Thermo Scientific)
Instrument type: LC-ESI-QFT
Ms type: MS2
Ion mode: NEGATIVE
Ionization: ESI
Fragmentation mode: HCD
Collision energy: 75
Resolution: 17500
Column name: Acquity BEH C18 1.7um, 2.1x150mm (Waters)
Retention time: 16.807 min
Base peak: 291.0599
Precursor m/z: 291.0598
Precursor type: [M-H]-
Precursor intensity: 123483260.5254
m/z	relative intensity	assigned
50.0035	42	C3N-
58.9939	3	C2FO-
62.0036	5	C4N-
62.9888	6	CFO2-
63.0115	48	C4HN-
63.9955	11	C4O-
64.0068	4	C3N2-
64.0192	4	C4H2N-
65.0034	4	C4HO-
65.0146	34	C3HN2-
65.9986	548	C3NO-
68.0142	17	C3H2NO-
68.996	2	CF3-
70.0098	3	C3HFN-
70.9939	188	C3FO-
74.0036	125	C5N-
75.0112	1	C5HN-
76.0193	6	C5H2N-
77.0145	37	C4HN2-
79.0064	8	C4HNO-
84.0016	6	C4HFO-
84.9969	11	C3FNO-
86.0037	2	C6N-
86.9888	186	C3FO2-
87.0115	160	C6HN-
89.0146	23	C5HN2-
89.9986	78	C5NO-
91.0064	25	C5HNO-
92.0141	18	C5H2NO-
93.0095	58	C4HN2O-
94.0099	6	C5HFN-
94.9939	6	C5FO-
95.005	12	C4FN2-
96.997	5	C4FNO-
101.0146	39	C6HN2-
101.9985	4	C6NO-
103.0064	19	C6HNO-
105.022	4	C6H3NO-
106.01	4	C6HFN-
106.9951	13	C3HF2O2-
107.0177	89	C6H2FN-
108.0018	2	C6HFO-
110.0048	24	C5HFNO-
111	39	C4FN2O-
113.9986	109	C7NO-
115.0064	61	C7HNO-
117.0094	12	C6HN2O-
119.0178	2	C7H2FN-
119.0251	26	C6H3N2O-
120.0092	4	C6H2NO2-
121.0209	7	C6H2FN2-
122.0048	6	C6HFNO-
123.0126	76	C6H2FNO-
129.0159	6	C6H3F2O-
130.9956	4	C2H2F3O3-
131.0012	9	C7HNO2-
134.0049	31	C7HFNO-
135.0126	55	C7H2FNO-
137.0043	9	C7H2FO2-
137.0157	17	C6H2FN2O-
137.9998	10	C6HFNO2-
138.995	6	C5FN2O2-
139.0237	12	C7H3F2N-
143.0188	4	C6H3F2NO-
145.0043	2	C7HN2O2-
148.0083	11	C7HFN2O-
151.0076	16	C7H2FNO2-
154.011	68	C7H2F2NO-
155.0189	197	C7H3F2NO-
158.0222	2	C7H3F3N-
159.0301	135	C7H4F3N-
160.0379	5	C7H5F3N-
162.0173	27	C6H3F3NO-
165.0105	73	C7H2FN2O2-
175.025	966	C7H4F3NO-
176.009	50	C7H3F3O2-
190.0119	4	C7H3F3NO2-
205.023	999	C7H4F3N2O2-
206.0071	34	C7H3F3NO3-
