Mass spectrum: Fenpyroximate (Z,E); LC-ESI-QFT; MS2; CE: 15; R=17500; [M+H]+
Name: Fenpyroximate (Z,E)
Name: tert-butyl 4-[[(1,3-dimethyl-5-phenoxypyrazol-4-yl)methylideneamino]oxymethyl]benzoate
Formula: C24H27N3O4
Exact mass: 421.2002
SMILES: CN1N=C(C)C(C=NOCC2=CC=C(C=C2)C(=O)OC(C)(C)C)=C1OC1=CC=CC=C1
InChI: InChI=1S/C24H27N3O4/c1-17-21(22(27(5)26-17)30-20-9-7-6-8-10-20)15-25-29-16-18-11-13-19(14-12-18)23(28)31-24(2,3)4/h6-15H,16H2,1-5H3
Instrument: Q Exactive Orbitrap (Thermo Scientific)
Instrument type: LC-ESI-QFT
Ms type: MS2
Ion mode: POSITIVE
Ionization: ESI
Fragmentation mode: HCD
Collision energy: 15
Resolution: 17500
Column name: Acquity BEH C18 1.7um, 2.1x150mm (Waters)
Retention time: 20.132 min
Base peak: 79.0211
Precursor m/z: 422.2074
Precursor type: [M+H]+
Precursor intensity: 28275645
m/z	relative intensity	assigned
57.0699	3	C4H9+
135.045	1	C8H7O2+
214.0975	36	C12H12N3O+
215.1054	9	C12H13N3O+
216.1129	1	C12H14N3O+
231.1004	2	C12H13N3O2+
366.1449	999	C20H20N3O4+
422.2077	156	C24H28N3O4+
