Mass spectrum: Octyl gallate; LC-ESI-QFT; MS2; CE: 30; R=17500; [M-H]-
Name: Octyl gallate
Name: octyl 3,4,5-trihydroxybenzoate
Formula: C15H22O5
Exact mass: 282.1467
SMILES: CCCCCCCCOC(=O)C1=CC(O)=C(O)C(O)=C1
InChI: InChI=1S/C15H22O5/c1-2-3-4-5-6-7-8-20-15(19)11-9-12(16)14(18)13(17)10-11/h9-10,16-18H,2-8H2,1H3
Instrument: Q Exactive Orbitrap (Thermo Scientific)
Instrument type: LC-ESI-QFT
Ms type: MS2
Ion mode: NEGATIVE
Ionization: ESI
Fragmentation mode: HCD
Collision energy: 30
Resolution: 17500
Column name: Acquity BEH C18 1.7um, 2.1x150mm (Waters)
Retention time: 18.717 min
Base peak: 357.026
Precursor m/z: 281.1394
Precursor type: [M-H]-
Precursor intensity: 5334194.017578
m/z	relative intensity	assigned
68.9982	1	C3HO2-
71.014	1	C3H3O2-
83.0138	2	C4H3O2-
110.0008	1	C5H2O3-
111.0087	7	C5H3O3-
123.0089	2	C6H3O3-
124.0168	9	C6H4O3-
125.0244	37	C6H5O3-
126.0115	1	C9H2O-
127.0036	3	C5H3O4-
136.988	6	C6HO4-
139.0037	10	C6H3O4-
140.0116	11	C6H4O4-
151.0036	2	C7H3O4-
154.9983	1	C6H3O5-
166.9984	2	C7H3O5-
168.0066	51	C7H4O5-
169.0143	110	C7H5O5-
237.1497	1	C14H21O3-
281.1394	999	C15H21O5-
