Mass spectrum: Diflufenican; LC-ESI-QFT; MS2; CE: 45; R=17500; [M-H]-
Name: Diflufenican
Name: N-(2,4-difluorophenyl)-2-[3-(trifluoromethyl)phenoxy]pyridine-3-carboxamide
Formula: C19H11F5N2O2
Exact mass: 394.0741
SMILES: FC1=CC=C(NC(=O)C2=C(OC3=CC(=CC=C3)C(F)(F)F)N=CC=C2)C(F)=C1
InChI: InChI=1S/C19H11F5N2O2/c20-12-6-7-16(15(21)10-12)26-17(27)14-5-2-8-25-18(14)28-13-4-1-3-11(9-13)19(22,23)24/h1-10H,(H,26,27)
Instrument: Q Exactive Orbitrap (Thermo Scientific)
Instrument type: LC-ESI-QFT
Ms type: MS2
Ion mode: NEGATIVE
Ionization: ESI
Fragmentation mode: HCD
Collision energy: 45
Resolution: 17500
Column name: Acquity BEH C18 1.7um, 2.1x150mm (Waters)
Retention time: 19.046 min
Base peak: 271.9888
Precursor m/z: 393.0668
Precursor type: [M-H]-
Precursor intensity: 7192723.494141
m/z	relative intensity	assigned
65.0033	73	C4HO-
66.0349	4	C4H4N-
68.9958	38	CF3-
76.0194	3	C5H2N-
85.0095	4	C4H2FO-
89.0032	4	C6HO-
94.0299	5	C5H4NO-
96.0255	73	C5H3FN-
109.0094	3	C6H2FO-
140.0155	2	C6H3FNO2-
143.0113	17	C7H2F3-
152.0154	7	C7H3FNO2-
160.0385	3	C7H5F3N-
161.0219	72	C7H4F3O-
166.0299	10	C11H4NO-
176.0151	4	C9H3FNO2-
183.0368	2	C11H4FN2-
185.052	461	C11H6FN2-
186.036	48	C11H5FNO-
198.0366	2	C12H5FNO-
200.0393	10	C11H5FN2O-
201.0471	8	C11H6FN2O-
209.0348	4	C7H5F4N2O-
211.0317	10	C12H4FN2O-
212.0316	26	C13H4F2N-
228.0339	9	C12H5FN2O2-
229.0418	65	C12H6FN2O2-
232.0377	36	C13H5F3N-
235.0488	14	C12H6F3N2-
238.0488	17	C12H7F3NO-
250.0275	2	C13H4F4N-
252.0442	783	C13H6F4N-
257.0518	9	C17H6FN2-
259.0675	5	C17H8FN2-
263.0199	5	C13H4F3NO2-
263.0443	18	C13H6F3N2O-
264.0502	3	C16H6F2N2-
267.0314	9	C10H6F5NO2-
268.0447	6	C18H5FN2-
269.0521	53	C18H6FN2-
270.0351	30	C13H5F5N-
271.031	3	C17H4FN2O-
272.0505	999	C13H7F5N-
276.0282	13	C14H5F3NO2-
277.0581	6	C17H7F2N2-
284.0341	7	C13H5F5N2-
285.0471	31	C18H6FN2O-
288.0512	4	C15H7F3N2O-
289.0583	124	C18H7F2N2-
293.0531	12	C17H7F2N2O-
296.0563	6	C17H7F3N2-
297.0643	27	C17H8F3N2-
301.0414	4	C18H6FN2O2-
302.0597	22	C17H8F4N-
305.0533	21	C18H7F2N2O-
307.0487	8	C18H6F3N2-
308.0563	2	C18H7F3N2-
309.0646	119	C18H8F3N2-
313.0414	14	C19H6FN2O2-
321.0474	2	C18H7F2N2O2-
324.0515	32	C18H7F3N2O-
325.0594	120	C18H8F3N2O-
326.0422	4	C18H7F3NO2-
327.055	6	C18H7F4N2-
327.0754	2	C18H10F3N2O-
328.0631	44	C18H8F4N2-
329.0707	112	C18H9F4N2-
333.0486	20	C19H7F2N2O2-
335.0439	34	C19H6F3N2O-
336.0354	6	C16H5F5N2O-
345.0651	28	C18H9F4N2O-
346.0495	6	C18H8F4NO2-
352.0463	7	C19H7F3N2O2-
353.0543	108	C19H8F3N2O2-
355.05	5	C19H7F4N2O-
373.0602	23	C19H9F4N2O2-
