Mass spectrum: Theobromine; LC-ESI-QFT; MS2; CE: 60; R=17500; [M+H]+
Name: Theobromine
Name: 3,7-dimethylpurine-2,6-dione
Formula: C7H8N4O2
Exact mass: 180.0647
SMILES: CN1C=NC2=C1C(=O)NC(=O)N2C
InChI: InChI=1S/C7H8N4O2/c1-10-3-8-5-4(10)6(12)9-7(13)11(5)2/h3H,1-2H3,(H,9,12,13)
Instrument: Q Exactive Orbitrap (Thermo Scientific)
Instrument type: LC-ESI-QFT
Ms type: MS2
Ion mode: POSITIVE
Ionization: ESI
Fragmentation mode: HCD
Collision energy: 60
Resolution: 17500
Column name: Acquity BEH C18 1.7um, 2.1x150mm (Waters)
Retention time: 8.350 min
Base peak: 79.0211
Precursor m/z: 181.072
Precursor type: [M+H]+
Precursor intensity: 748635.5625
m/z	relative intensity	assigned
56.0495	29	C3H6N+
65.0385	15	C5H5+
67.0291	276	C3H3N2+
69.0447	195	C3H5N2+
79.0541	19	C6H7+
83.0603	86	C4H7N2+
93.0698	18	C7H9+
94.04	35	C4H4N3+
96.0557	103	C4H6N3+
108.0556	383	C5H6N3+
110.0713	360	C5H8N3+
113.0346	37	C4H5N2O2+
121.0286	75	C7H5O2+
122.0587	167	C5H6N4+
123.0428	20	C5H5N3O+
124.0506	18	C5H6N3O+
133.0285	27	C6H3N3O+
135.0442	29	C6H5N3O+
135.0665	334	C6H7N4+
137.0823	344	C6H9N4+
138.0662	583	C6H8N3O+
148.0376	11	C6H4N4O+
149.0234	189	C6H3N3O2+
163.0388	62	C7H5N3O2+
163.0614	235	C7H7N4O+
167.0557	65	C6H7N4O2+
181.0721	999	C7H9N4O2+
