Mass spectrum: Etofenprox; LC-ESI-QFT; MS2; CE: 75; R=17500; [M+H]+
Name: Etofenprox
Name: 1-ethoxy-4-[2-methyl-1-[(3-phenoxyphenyl)methoxy]propan-2-yl]benzene
Formula: C25H28O3
Exact mass: 376.2038
SMILES: CCOC1=CC=C(C=C1)C(C)(C)COCC1=CC(OC2=CC=CC=C2)=CC=C1
InChI: InChI=1S/C25H28O3/c1-4-27-22-15-13-21(14-16-22)25(2,3)19-26-18-20-9-8-12-24(17-20)28-23-10-6-5-7-11-23/h5-17H,4,18-19H2,1-3H3
Instrument: Q Exactive Orbitrap (Thermo Scientific)
Instrument type: LC-ESI-QFT
Ms type: MS2
Ion mode: POSITIVE
Ionization: ESI
Fragmentation mode: HCD
Collision energy: 75
Resolution: 17500
Column name: Acquity BEH C18 1.7um, 2.1x150mm (Waters)
Retention time: 16.967 min
Base peak: 79.0212
Precursor m/z: 377.2111
Precursor type: [M+H]+
Precursor intensity: 6937436.25
m/z	relative intensity	assigned
53.0386	71	C4H5+
55.0179	44	C3H3O+
55.0543	168	C4H7+
59.0491	43	C3H7O+
65.0385	65	C5H5+
67.0542	249	C5H7+
69.0334	32	C4H5O+
69.0698	22	C5H9+
79.0543	357	C6H7+
81.0335	21	C5H5O+
81.0699	181	C6H9+
83.0492	40	C5H7O+
87.0441	18	C4H7O2+
91.0543	999	C7H7+
93.0699	327	C7H9+
95.0492	224	C6H7O+
95.0856	195	C7H11+
97.0649	24	C6H9O+
103.0543	71	C8H7+
104.062	17	C8H8+
105.07	900	C8H9+
107.0492	143	C7H7O+
107.0856	335	C8H11+
109.0649	138	C7H9O+
109.1013	22	C8H13+
111.0806	23	C7H11O+
115.0543	495	C9H7+
116.0621	59	C9H8+
117.0699	432	C9H9+
119.0856	253	C9H11+
121.0649	771	C8H9O+
123.0804	79	C8H11O+
128.0621	170	C10H8+
129.07	148	C10H9+
130.0778	58	C10H10+
131.0491	28	C9H7O+
131.0856	104	C10H11+
132.0572	34	C9H8O+
133.0648	94	C9H9O+
133.1013	204	C10H13+
135.0805	590	C9H11O+
141.0699	142	C11H9+
142.0778	254	C11H10+
143.0856	146	C11H11+
144.057	83	C10H8O+
145.0648	200	C10H9O+
145.1015	124	C11H13+
146.0728	235	C10H10O+
147.0805	152	C10H11O+
147.1167	21	C11H15+
152.0618	34	C12H8+
153.07	62	C12H9+
155.0858	103	C12H11+
156.0934	47	C12H12+
157.0649	58	C11H9O+
157.1014	84	C12H13+
158.0728	177	C11H10O+
159.0805	196	C11H11O+
160.0879	44	C11H12O+
161.0961	251	C11H13O+
165.0701	136	C13H9+
166.0776	57	C13H10+
167.086	46	C13H11+
169.0648	35	C12H9O+
169.101	30	C13H13+
171.0805	108	C12H11O+
171.1166	20	C13H15+
172.0883	94	C12H12O+
173.0962	106	C12H13O+
178.0773	76	C14H10+
179.0856	112	C14H11+
180.0934	45	C14H12+
181.0645	55	C13H9O+
181.1014	52	C14H13+
182.0726	51	C13H10O+
183.0808	87	C13H11O+
183.1171	23	C14H15+
184.088	23	C13H12O+
185.0962	171	C13H13O+
189.07	29	C15H9+
190.078	21	C15H10+
191.0856	63	C15H11+
192.0934	53	C15H12+
193.1013	136	C15H13+
194.0727	36	C14H10O+
194.1089	36	C15H14+
195.0806	202	C14H11O+
195.1163	37	C15H15+
196.0883	89	C14H12O+
197.0961	43	C14H13O+
198.1036	29	C14H14O+
199.1113	24	C14H15O+
202.0776	24	C16H10+
203.0855	112	C16H11+
204.0932	36	C16H12+
205.1013	67	C16H13+
206.1086	30	C16H14+
207.0807	109	C15H11O+
207.1169	29	C16H15+
208.0886	197	C15H12O+
208.1244	23	C16H16+
209.0964	283	C15H13O+
210.1039	64	C15H14O+
211.1117	39	C15H15O+
215.0854	58	C17H11+
216.0931	42	C17H12+
217.1014	66	C17H13+
219.0805	54	C16H11O+
219.1174	27	C17H15+
220.0886	55	C16H12O+
221.0963	282	C16H13O+
222.1039	239	C16H14O+
223.1119	95	C16H15O+
224.12	37	C16H16O+
230.1089	31	C18H14+
231.1172	54	C18H15+
232.0901	19	C17H12O+
233.0959	76	C17H13O+
233.1331	20	C18H17+
234.1038	71	C17H14O+
235.1123	110	C17H15O+
236.1197	82	C17H16O+
237.1269	39	C17H17O+
245.0961	22	C18H13O+
247.1113	49	C18H15O+
247.1484	20	C19H19+
248.1197	53	C18H16O+
249.1273	98	C18H17O+
258.104	58	C19H14O+
259.1116	101	C19H15O+
263.1433	55	C19H19O+
273.1274	26	C20H17O+
