Mass spectrum: Triamcinolone; LC-ESI-QFT; MS2; CE: 60; R=17500; [M-H]-
Name: Triamcinolone
Name: (8S,9R,10S,11S,13S,14S,16R,17S)-9-fluoro-11,16,17-trihydroxy-17-(2-hydroxyacetyl)-10,13-dimethyl-6,7,8,11,12,14,15,16-octahydrocyclopenta[a]phenanthren-3-one
Formula: C21H27FO6
Exact mass: 394.1792
SMILES: C[C@]12C[C@H](O)[C@@]3(F)[C@@H](CCC4=CC(=O)C=C[C@]34C)[C@@H]1C[C@@H](O)[C@]2(O)C(=O)CO
InChI: InChI=1S/C21H27FO6/c1-18-6-5-12(24)7-11(18)3-4-13-14-8-15(25)21(28,17(27)10-23)19(14,2)9-16(26)20(13,18)22/h5-7,13-16,23,25-26,28H,3-4,8-10H2,1-2H3/t13-,14-,15+,16-,18-,19-,20-,21-/m0/s1
Instrument: Q Exactive Orbitrap (Thermo Scientific)
Instrument type: LC-ESI-QFT
Ms type: MS2
Ion mode: NEGATIVE
Ionization: ESI
Fragmentation mode: HCD
Collision energy: 60
Resolution: 17500
Column name: Acquity BEH C18 1.7um, 2.1x150mm (Waters)
Retention time: 14.609 min
Base peak: 288.1355
Precursor m/z: 393.1719
Precursor type: [M-H]-
Precursor intensity: 4466111.521484
m/z	relative intensity	assigned
69.0346	47	C4H5O-
71.0139	258	C3H3O2-
73.0295	138	C3H5O2-
81.0347	41	C5H5O-
83.0502	47	C5H7O-
85.0295	62	C4H5O2-
93.0346	107	C6H5O-
95.0504	69	C6H7O-
107.0502	200	C7H7O-
109.0295	47	C6H5O2-
109.0658	43	C7H9O-
111.0452	108	C6H7O2-
119.0502	216	C8H7O-
121.0295	104	C7H5O2-
121.0659	661	C8H9O-
122.0375	69	C7H6O2-
123.0451	397	C7H7O2-
130.0423	102	C9H6O-
131.0501	117	C9H7O-
133.0659	303	C9H9O-
134.0377	34	C8H6O2-
135.0451	131	C8H7O2-
137.0605	55	C8H9O2-
143.0503	137	C10H7O-
144.0579	98	C10H8O-
145.0294	37	C9H5O2-
145.0658	284	C10H9O-
146.0374	42	C9H6O2-
147.045	124	C9H7O2-
147.0814	162	C10H11O-
148.053	52	C9H8O2-
149.0608	224	C9H9O2-
157.0658	185	C11H9O-
158.0369	46	C10H6O2-
159.0453	94	C10H7O2-
159.0816	133	C11H11O-
160.0531	139	C10H8O2-
161.0607	262	C10H9O2-
163.0768	59	C10H11O2-
171.0452	449	C11H7O2-
171.0816	63	C12H11O-
172.053	90	C11H8O2-
173.0245	57	C10H5O3-
173.0607	245	C11H9O2-
173.0975	60	C12H13O-
174.0323	582	C10H6O3-
175.0401	249	C10H7O3-
175.0764	187	C11H11O2-
178.0637	204	C10H10O3-
183.0814	68	C13H11O-
185.0606	274	C12H9O2-
186.069	154	C12H10O2-
187.0401	176	C11H7O3-
187.0763	68	C12H11O2-
188.0479	61	C11H8O3-
189.0559	358	C11H9O3-
190.0637	286	C11H10O3-
191.0713	35	C11H11O3-
195.0815	89	C14H11O-
197.0608	48	C13H9O2-
197.097	136	C14H13O-
199.0764	33	C13H11O2-
201.0558	44	C12H9O3-
201.092	101	C13H13O2-
203.0718	35	C12H11O3-
207.0814	101	C15H11O-
208.0896	85	C15H12O-
209.097	206	C15H13O-
211.0764	97	C14H11O2-
220.0893	80	C16H12O-
221.0973	93	C16H13O-
223.0768	92	C15H11O2-
223.113	75	C16H15O-
224.0844	183	C15H12O2-
225.0922	161	C15H13O2-
226.0999	67	C15H14O2-
227.1085	150	C12H16FO3-
232.089	62	C17H12O-
233.0968	135	C17H13O-
235.0766	40	C16H11O2-
235.1128	395	C17H15O-
237.0921	555	C16H13O2-
238.1	96	C16H14O2-
239.108	127	C16H15O2-
241.1233	127	C16H17O2-
245.0972	40	C18H13O-
247.0765	62	C17H11O2-
247.1134	76	C18H15O-
248.084	48	C17H12O2-
249.0922	433	C17H13O2-
251.1081	104	C17H15O2-
253.123	82	C17H17O2-
259.0766	113	C18H11O2-
260.0842	87	C18H12O2-
261.0915	89	C18H13O2-
263.1075	320	C18H15O2-
264.1159	52	C18H16O2-
265.0871	81	C17H13O3-
265.1234	102	C18H17O2-
266.0943	65	C17H14O3-
267.1025	162	C17H15O3-
269.1165	40	C17H17O3-
273.0925	121	C19H13O2-
274.0995	83	C19H14O2-
275.0709	132	C18H11O3-
275.108	53	C19H15O2-
276.079	346	C18H12O3-
277.0869	999	C18H13O3-
279.1389	57	C19H19O2-
281.1177	254	C18H17O3-
282.126	164	C18H18O3-
289.1235	50	C20H17O2-
291.1027	461	C19H15O3-
292.1104	261	C19H16O3-
293.118	114	C19H17O3-
294.0898	161	C18H14O4-
295.0977	131	C18H15O4-
297.1497	94	C19H21O3-
307.1342	64	C20H19O3-
309.113	316	C19H17O4-
310.1214	323	C19H18O4-
325.1446	818	C20H21O4-
345.1508	120	C20H22FO4-
