Mass spectrum: PharmaGSID_48518; LC-ESI-QFT; MS2; CE: 15; R=17500; [M+H]+
Name: PharmaGSID_48518
Name: 2-bromo-4-fluoro-N-[(E)-2-thiophen-2-ylethenyl]sulfonylbenzamide
Formula: C13H9BrFNO3S2
Exact mass: 388.9191
SMILES: FC1=CC(Br)=C(C=C1)C(=O)NS(=O)(=O)\C=C\C1=CC=CS1
InChI: InChI=1S/C13H9BrFNO3S2/c14-12-8-9(15)3-4-11(12)13(17)16-21(18,19)7-5-10-2-1-6-20-10/h1-8H,(H,16,17)/b7-5+
Instrument: Q Exactive Orbitrap (Thermo Scientific)
Instrument type: LC-ESI-QFT
Ms type: MS2
Ion mode: POSITIVE
Ionization: ESI
Fragmentation mode: HCD
Collision energy: 15
Resolution: 17500
Column name: Acquity BEH C18 1.7um, 2.1x150mm (Waters)
Retention time: 16.424 min
Base peak: 79.0212
Precursor m/z: 389.9264
Precursor type: [M+H]+
Precursor intensity: 1128944.5
m/z	relative intensity	assigned
97.0106	6	C5H5S+
109.0106	31	C6H5S+
127.0212	11	C6H7OS+
144.9777	5	C5H5OS2+
154.962	23	C6H3OS2+
172.9727	999	C6H5O2S2+
