Mass spectrum: 5-Methoxypsoralen; LC-ESI-QFT; MS2; CE: 60; R=17500; [M+H]+
Name: 5-Methoxypsoralen
Name: Bergapten
Name: 4-methoxyfuro[3,2-g]chromen-7-one
Formula: C12H8O4
Exact mass: 216.0423
SMILES: COC1=C2C=COC2=CC2=C1C=CC(=O)O2
InChI: InChI=1S/C12H8O4/c1-14-12-7-2-3-11(13)16-10(7)6-9-8(12)4-5-15-9/h2-6H,1H3
Instrument: Q Exactive Orbitrap (Thermo Scientific)
Instrument type: LC-ESI-QFT
Ms type: MS2
Ion mode: POSITIVE
Ionization: ESI
Fragmentation mode: HCD
Collision energy: 60
Resolution: 17500
Column name: Acquity BEH C18 1.7um, 2.1x150mm (Waters)
Retention time: 16.127 min
Base peak: 79.0212
Precursor m/z: 217.0495
Precursor type: [M+H]+
Precursor intensity: 5784448.5625
m/z	relative intensity	assigned
55.0178	2	C3H3O+
55.0542	1	C4H7+
66.0464	1	C5H6+
79.0542	1	C6H7+
83.0492	2	C5H7O+
89.0386	1	C7H5+
90.0463	4	C7H6+
91.0542	7	C7H7+
97.0076	2	C8H+
102.0463	1	C8H6+
103.0542	2	C8H7+
105.0699	10	C8H9+
111.044	1	C6H7O2+
115.0542	59	C9H7+
117.0699	11	C9H9+
118.0413	26	C8H6O+
130.0412	2	C9H6O+
131.0491	32	C9H7O+
133.0648	7	C9H9O+
143.049	6	C10H7O+
145.0283	2	C9H5O2+
145.0648	6	C10H9O+
146.0362	32	C9H6O2+
149.0234	1	C8H5O3+
156.0206	2	C10H4O2+
158.0362	13	C10H6O2+
159.0439	1	C10H7O2+
161.0597	24	C10H9O2+
162.031	1	C9H6O3+
171.0439	2	C11H7O2+
173.0598	19	C11H9O2+
174.0312	278	C10H6O3+
178.026	11	C9H6O4+
189.054	2	C11H9O3+
202.026	999	C11H6O4+
217.0495	90	C12H9O4+
