Mass spectrum: Phenazone; LC-ESI-QFT; MS2; CE: 75; R=17500; [M+H]+
Name: Phenazone
Name: Antipyrine
Name: 1,5-dimethyl-2-phenylpyrazol-3-one
Formula: C11H12N2O
Exact mass: 188.0950
SMILES: CN1N(C(=O)C=C1C)C1=CC=CC=C1
InChI: InChI=1S/C11H12N2O/c1-9-8-11(14)13(12(9)2)10-6-4-3-5-7-10/h3-8H,1-2H3
Instrument: Q Exactive Orbitrap (Thermo Scientific)
Instrument type: LC-ESI-QFT
Ms type: MS2
Ion mode: POSITIVE
Ionization: ESI
Fragmentation mode: HCD
Collision energy: 75
Resolution: 17500
Column name: Acquity BEH C18 1.7um, 2.1x150mm (Waters)
Retention time: 12.178 min
Base peak: 79.0211
Precursor m/z: 189.1022
Precursor type: [M+H]+
Precursor intensity: 45733653.4375
m/z	relative intensity	assigned
53.0022	5	C3HO+
53.0386	63	C4H5+
54.0339	10	C3H4N+
55.0179	33	C3H3O+
55.0417	8	C3H5N+
55.0543	9	C4H7+
56.0495	999	C3H6N+
58.0651	539	C3H8N+
65.0386	146	C5H5+
67.0179	3	C4H3O+
68.0495	21	C4H6N+
69.0573	38	C4H7N+
70.0651	13	C4H8N+
77.0384	32	C6H5+
78.0465	9	C6H6+
79.0542	50	C6H7+
80.0494	5	C5H6N+
81.0335	6	C5H5O+
81.0447	67	C4H5N2+
82.0287	3	C4H4NO+
83.0491	1	C5H7O+
83.0603	4	C4H7N2+
84.0443	2	C4H6NO+
86.0601	9	C4H8NO+
91.0542	124	C7H7+
92.0495	37	C6H6N+
93.0336	9	C6H5O+
93.0574	13	C6H7N+
93.0698	6	C7H9+
94.0413	5	C6H6O+
94.0651	23	C6H8N+
95.0492	185	C6H7O+
95.0604	73	C5H7N2+
96.0444	18	C5H6NO+
96.0682	133	C5H8N2+
98.0601	84	C5H8NO+
102.0464	4	C8H6+
103.0543	70	C8H7+
104.0495	495	C7H6N+
105.0336	17	C7H5O+
105.0448	74	C6H5N2+
105.0573	21	C7H7N+
105.0699	27	C8H9+
106.0651	408	C7H8N+
107.0604	10	C6H7N2+
107.0731	3	C7H9N+
111.0553	5	C5H7N2O+
112.0632	2	C5H8N2O+
113.0709	3	C5H9N2O+
115.0542	73	C9H7+
116.0496	5	C8H6N+
116.062	5	C9H8+
117.0573	82	C8H7N+
117.0699	151	C9H9+
118.0651	176	C8H8N+
119.0604	5	C7H7N2+
119.073	6	C8H9N+
120.0444	6	C7H6NO+
120.0808	114	C8H10N+
121.0758	5	C7H9N2+
128.0495	12	C9H6N+
128.062	6	C10H8+
129.0573	35	C9H7N+
129.0696	4	C10H9+
130.0652	244	C9H8N+
131.0606	76	C8H7N2+
131.073	197	C9H9N+
132.0444	6	C8H6NO+
132.0682	56	C8H8N2+
132.0808	70	C9H10N+
133.0522	37	C8H7NO+
133.076	20	C8H9N2+
134.0475	6	C7H6N2O+
134.0598	3	C8H8NO+
134.0964	25	C9H12N+
135.0552	4	C7H7N2O+
142.0651	2	C10H8N+
143.073	24	C10H9N+
144.0808	154	C10H10N+
145.0651	51	C10H9O+
145.0759	84	C9H9N2+
145.0882	8	C10H11N+
146.0603	9	C9H8NO+
146.0839	146	C9H10N2+
146.0964	18	C10H12N+
147.0917	249	C9H11N2+
148.0756	7	C9H10NO+
149.0711	16	C8H9N2O+
155.0603	8	C10H7N2+
157.0522	30	C10H7NO+
158.06	8	C10H8NO+
159.0551	9	C9H7N2O+
159.0918	12	C10H11N2+
160.0994	9	C10H12N2+
161.1074	43	C10H13N2+
162.0913	2	C10H12NO+
172.0756	20	C11H10NO+
173.0711	15	C10H9N2O+
174.0788	86	C10H10N2O+
189.1023	196	C11H13N2O+
