Mass spectrum: Bis[2-(2-butoxyethoxy)ethyl] hexandioate; LC-ESI-QFT; MS2; CE: 30; R=17500; [M+H]+
Name: Bis[2-(2-butoxyethoxy)ethyl] hexandioate
Name: Bis[2-(2-butoxyethoxy)ethyl] adipate
Name: bis[2-(2-butoxyethoxy)ethyl] hexanedioate
Formula: C22H42O8
Exact mass: 434.2880
SMILES: CCCCOCCOCCOC(=O)CCCCC(=O)OCCOCCOCCCC
InChI: InChI=1S/C22H42O8/c1-3-5-11-25-13-15-27-17-19-29-21(23)9-7-8-10-22(24)30-20-18-28-16-14-26-12-6-4-2/h3-20H2,1-2H3
Instrument: Q Exactive Orbitrap (Thermo Scientific)
Instrument type: LC-ESI-QFT
Ms type: MS2
Ion mode: POSITIVE
Ionization: ESI
Fragmentation mode: HCD
Collision energy: 30
Resolution: 17500
Column name: Acquity BEH C18 1.7um, 2.1x150mm (Waters)
Retention time: 18.791 min
Base peak: 79.0212
Precursor m/z: 435.2952
Precursor type: [M+H]+
Precursor intensity: 4248208.3125
m/z	relative intensity	assigned
55.0542	58	C4H7+
57.0699	176	C4H9+
59.0491	6	C3H7O+
67.0542	15	C5H7+
73.0284	12	C3H5O2+
73.0647	45	C4H9O+
83.0491	9	C5H7O+
83.0855	52	C6H11+
85.0649	7	C5H9O+
87.0441	4	C4H7O2+
89.0597	999	C4H9O2+
101.0962	197	C6H13O+
107.0703	249	C4H11O3+
111.0441	145	C6H7O2+
113.0597	18	C6H9O2+
121.0861	10	C5H13O3+
127.0754	13	C7H11O2+
129.0548	25	C6H9O3+
139.0754	12	C8H11O2+
143.0703	6	C7H11O3+
145.1224	339	C8H17O2+
155.0703	916	C8H11O3+
157.086	166	C8H13O3+
163.1329	440	C8H19O3+
173.081	167	C8H13O4+
199.0967	22	C10H15O4+
201.1121	8	C10H17O4+
217.1071	112	C10H17O5+
229.1433	4	C12H21O4+
255.1592	20	C14H23O4+
261.1333	65	C12H21O6+
273.1701	11	C14H25O5+
317.1959	39	C16H29O6+
