Mass spectrum: Ketoconazole; LC-ESI-QFT; MS2; CE: 45; R=17500; [M+H]+
Name: Ketoconazole
Name: Xolegel
Name: 1-[4-[4-[[(2R,4S)-2-(2,4-dichlorophenyl)-2-(imidazol-1-ylmethyl)-1,3-dioxolan-4-yl]methoxy]phenyl]piperazin-1-yl]ethanone
Formula: C26H28Cl2N4O4
Exact mass: 530.1488
SMILES: CC(=O)N1CCN(CC1)C1=CC=C(OC[C@H]2CO[C@@](CN3C=CN=C3)(O2)C2=CC=C(Cl)C=C2Cl)C=C1
InChI: InChI=1S/C26H28Cl2N4O4/c1-19(33)31-10-12-32(13-11-31)21-3-5-22(6-4-21)34-15-23-16-35-26(36-23,17-30-9-8-29-18-30)24-7-2-20(27)14-25(24)28/h2-9,14,18,23H,10-13,15-17H2,1H3/t23-,26-/m0/s1
Instrument: Q Exactive Orbitrap (Thermo Scientific)
Instrument type: LC-ESI-QFT
Ms type: MS2
Ion mode: POSITIVE
Ionization: ESI
Fragmentation mode: HCD
Collision energy: 45
Resolution: 17500
Column name: Acquity BEH C18 1.7um, 2.1x150mm (Waters)
Retention time: 15.405 min
Base peak: 79.0211
Precursor m/z: 531.156
Precursor type: [M+H]+
Precursor intensity: 11581392.75
m/z	relative intensity	assigned
54.0338	10	C3H4N+
55.0178	1	C3H3O+
55.0416	1	C3H5N+
55.0544	1	C4H7+
56.0495	15	C3H6N+
58.0651	6	C3H8N+
68.0368	11	C3H4N2+
68.0493	2	C4H6N+
69.0447	75	C3H5N2+
70.0651	41	C4H8N+
71.0603	57	C3H7N2+
80.0495	1	C5H6N+
81.0447	207	C4H5N2+
82.0525	999	C4H6N2+
83.0603	26	C4H7N2+
84.0683	1	C4H8N2+
85.0761	2	C4H9N2+
86.06	57	C4H8NO+
91.0544	2	C7H7+
94.0652	2	C6H8N+
95.0605	4	C5H7N2+
97.0396	2	C4H5N2O+
103.0542	2	C8H7+
105.0699	3	C8H9+
107.0491	8	C7H7O+
107.0602	6	C6H7N2+
109.0397	3	C5H5N2O+
109.0522	1	C6H7NO+
109.076	5	C6H9N2+
111.0554	3	C5H7N2O+
112.0757	265	C6H10NO+
113.071	8	C5H9N2O+
114.0423	8	C4H6N2O2+
117.0574	2	C8H7N+
117.0697	4	C9H9+
118.065	5	C8H8N+
119.0729	3	C8H9N+
120.0443	12	C7H6NO+
120.0808	12	C8H10N+
121.076	1	C7H9N2+
122.0601	27	C7H8NO+
123.0001	1	C7H4Cl+
123.0918	2	C7H11N2+
125.0153	1	C7H6Cl+
127.0501	5	C5H7N2O2+
128.0622	1	C10H8+
129.0697	5	C10H9+
130.065	9	C9H8N+
131.0492	3	C9H7O+
131.0728	4	C9H9N+
132.0444	1	C8H6NO+
132.0567	4	C9H8O+
132.0807	12	C9H10N+
133.0524	1	C8H7NO+
133.0648	4	C9H9O+
134.06	27	C8H8NO+
135.0678	218	C8H9NO+
136.0757	67	C8H10NO+
138.0234	1	C8H7Cl+
139.031	2	C8H8Cl+
143.0733	1	C10H9N+
144.0808	37	C10H10N+
145.0648	6	C10H9O+
145.0885	17	C10H11N+
146.06	20	C9H8NO+
146.0964	45	C10H12N+
147.0679	5	C9H9NO+
147.0805	2	C10H11O+
148.0756	151	C9H10NO+
149.0152	2	C9H6Cl+
150.0234	3	C9H7Cl+
151.031	2	C9H8Cl+
154.0653	1	C11H8N+
156.0807	8	C11H10N+
157.0885	2	C11H11N+
158.0598	1	C10H8NO+
158.0965	16	C11H12N+
158.9763	58	C7H5Cl2+
159.0679	3	C10H9NO+
159.9841	4	C7H6Cl2+
160.0756	17	C10H10NO+
161.0835	5	C10H11NO+
161.1074	2	C10H13N2+
162.0912	17	C10H12NO+
162.1154	1	C10H14N2+
163.0309	15	C10H8Cl+
163.0866	1	C9H11N2O+
163.1229	18	C10H15N2+
164.0706	3	C9H10NO2+
167.0258	18	C9H8ClO+
167.0815	118	C8H11N2O2+
169.9684	34	C8H4Cl2+
170.9765	2	C8H5Cl2+
171.0674	1	C11H9NO+
172.0756	29	C11H10NO+
172.1122	6	C12H14N+
172.9555	49	C7H3Cl2O+
173.0835	5	C11H11NO+
174.0913	155	C11H12NO+
174.9713	1	C7H5Cl2O+
175.0867	2	C10H11N2O+
175.0989	1	C11H13NO+
175.123	3	C11H15N2+
176.0943	9	C10H12N2O+
176.1072	1	C11H14NO+
177.1022	245	C10H13N2O+
178.11	66	C10H14N2O+
179.0256	5	C10H8ClO+
184.0755	1	C12H10NO+
184.992	57	C9H7Cl2+
185.9634	143	C8H4Cl2O+
186.9712	10	C8H5Cl2O+
187.1225	1	C5H25Cl2O2+
188.1069	11	C12H14NO+
189.1386	27	C12H17N2+
190.0863	5	C11H12NO2+
191.0261	1	C8H11Cl2N+
191.0941	5	C11H13NO2+
191.1177	6	C11H15N2O+
192.1019	31	C11H14NO2+
199.0078	2	C10H9Cl2+
200.107	23	C13H14NO+
201.9946	8	C9H8Cl2O+
202.9661	13	C8H5Cl2O2+
203.037	30	C11H8ClN2+
205.0529	1	C11H10ClN2+
205.0972	9	C11H13N2O2+
205.1337	11	C12H17N2O+
209.0364	27	C11H10ClO2+
215.1178	9	C13H15N2O+
216.1019	46	C13H14NO2+
217.1335	123	C13H17N2O+
218.1173	10	C13H16NO2+
219.1127	159	C12H15N2O2+
220.1205	62	C12H16N2O2+
224.9983	2	C10H7Cl2N2+
226.0061	3	C10H8Cl2N2+
233.0475	6	C12H10ClN2O+
234.1125	18	C13H16NO3+
235.144	41	C13H19N2O2+
238.0058	70	C11H8Cl2N2+
239.0142	6	C11H9Cl2N2+
244.0052	163	C11H10Cl2O2+
247.0633	22	C13H12ClN2O+
255.0086	186	C11H9Cl2N2O+
259.144	5	C15H19N2O2+
267.0085	91	C12H9Cl2N2O+
268.0168	7	C12H10Cl2N2O+
276.1462	1	C15H20N2O3+
281.0241	18	C13H11Cl2N2O+
295.0405	1	C14H13Cl2N2O+
311.035	18	C14H13Cl2N2O2+
378.0655	20	C22H15ClO4+
420.0762	8	C21H20Cl2NO4+
446.1033	12	C22H22Cl2N3O3+
487.129	2	C24H25Cl2N4O3+
489.1458	85	C24H27Cl2N4O3+
531.1568	51	C26H29Cl2N4O4+
