Mass spectrum: Atrazine; LC-ESI-QFT; MS2; CE: 15; R=17500; [M+H]+
Name: Atrazine
Name: 6-chloro-4-N-ethyl-2-N-propan-2-yl-1,3,5-triazine-2,4-diamine
Formula: C8H14ClN5
Exact mass: 215.0938
SMILES: CCNC1=NC(NC(C)C)=NC(Cl)=N1
InChI: InChI=1S/C8H14ClN5/c1-4-10-7-12-6(9)13-8(14-7)11-5(2)3/h5H,4H2,1-3H3,(H2,10,11,12,13,14)
Instrument: Q Exactive Orbitrap (Thermo Scientific)
Instrument type: LC-ESI-QFT
Ms type: MS2
Ion mode: POSITIVE
Ionization: ESI
Fragmentation mode: HCD
Collision energy: 15
Resolution: 17500
Column name: Acquity BEH C18 1.7um, 2.1x150mm (Waters)
Retention time: 16.364 min
Base peak: 79.0211
Precursor m/z: 216.101
Precursor type: [M+H]+
Precursor intensity: 14431128.71875
m/z	relative intensity	assigned
96.0555	2	C4H6N3+
104.0006	1	C2H3ClN3+
132.0322	1	C4H7ClN3+
138.1025	4	C7H12N3+
146.0478	2	C5H9ClN3+
174.054	154	C5H9ClN5+
216.1008	999	C8H15ClN5+
