Mass spectrum: Dulcin; LC-ESI-QFT; MS2; CE: 75; R=17500; [M+H]+
Name: Dulcin
Name: (4-ethoxyphenyl)urea
Formula: C9H12N2O2
Exact mass: 180.0899
SMILES: CCOC1=CC=C(NC(N)=O)C=C1
InChI: InChI=1S/C9H12N2O2/c1-2-13-8-5-3-7(4-6-8)11-9(10)12/h3-6H,2H2,1H3,(H3,10,11,12)
Instrument: Q Exactive Orbitrap (Thermo Scientific)
Instrument type: LC-ESI-QFT
Ms type: MS2
Ion mode: POSITIVE
Ionization: ESI
Fragmentation mode: HCD
Collision energy: 75
Resolution: 17500
Column name: Acquity BEH C18 1.7um, 2.1x150mm (Waters)
Retention time: 13.186 min
Base peak: 79.0211
Precursor m/z: 181.0972
Precursor type: [M+H]+
Precursor intensity: 12726709.6875
m/z	relative intensity	assigned
53.0386	4	C4H5+
55.0178	1	C3H3O+
55.0543	1	C4H7+
63.0229	1	C5H3+
65.0386	238	C5H5+
67.0416	7	C4H5N+
67.0542	8	C5H7+
68.013	5	C3H2NO+
68.0493	1	C4H6N+
80.0494	16	C5H6N+
81.0335	77	C5H5O+
81.0572	7	C5H7N+
82.0651	52	C5H8N+
83.0491	2	C5H7O+
90.0338	3	C6H4N+
91.0543	4	C7H7+
92.0495	119	C6H6N+
93.0335	65	C6H5O+
93.0574	59	C6H7N+
94.0414	1	C6H6O+
94.0651	3	C6H8N+
95.0492	7	C6H7O+
97.0078	1	C8H+
105.0448	3	C6H5N2+
108.0444	999	C6H6NO+
109.0523	53	C6H7NO+
110.0601	476	C6H8NO+
111.044	200	C6H7O2+
121.0287	5	C7H5O2+
121.0397	13	C6H5N2O+
124.0757	1	C7H10NO+
125.0597	10	C7H9O2+
133.0286	1	C8H5O2+
135.0441	2	C8H7O2+
135.0682	8	C8H9NO+
136.0396	6	C7H6NO2+
136.076	57	C8H10NO+
137.0836	4	C8H11NO+
138.0914	40	C8H12NO+
139.0756	1	C8H11O2+
146.0351	1	C9H6O2+
153.0788	2	C8H11NO2+
164.0707	3	C9H10NO2+
