Mass spectrum: 4-Hexyloxyaniline; LC-ESI-QFT; MS2; CE: 60; R=17500; [M+H]+
Name: 4-Hexyloxyaniline
Name: 4-hexoxyaniline
Formula: C12H19NO
Exact mass: 193.1467
SMILES: CCCCCCOC1=CC=C(N)C=C1
InChI: InChI=1S/C12H19NO/c1-2-3-4-5-10-14-12-8-6-11(13)7-9-12/h6-9H,2-5,10,13H2,1H3
Instrument: Q Exactive Orbitrap (Thermo Scientific)
Instrument type: LC-ESI-QFT
Ms type: MS2
Ion mode: POSITIVE
Ionization: ESI
Fragmentation mode: HCD
Collision energy: 60
Resolution: 17500
Column name: Acquity BEH C18 1.7um, 2.1x150mm (Waters)
Retention time: 15.896 min
Base peak: 79.0211
Precursor m/z: 194.1539
Precursor type: [M+H]+
Precursor intensity: 18615659.8125
m/z	relative intensity	assigned
53.0022	2	C3HO+
55.0543	1	C4H7+
57.0699	6	C4H9+
65.0385	158	C5H5+
67.0416	4	C4H5N+
67.0542	11	C5H7+
68.0494	1	C4H6N+
80.0494	6	C5H6N+
81.0573	4	C5H7N+
82.0651	70	C5H8N+
83.0492	2	C5H7O+
92.0495	151	C6H6N+
93.0335	107	C6H5O+
93.0573	9	C6H7N+
108.0444	1	C6H6NO+
109.0524	33	C6H7NO+
110.06	999	C6H8NO+
124.0757	3	C7H10NO+
194.154	107	C12H20NO+
