Mass spectrum: 1-Phenyl-2-thiourea; LC-ESI-QFT; MS2; CE: 45; R=17500; [M+H]+
Name: 1-Phenyl-2-thiourea
Name: N'-phenylcarbamimidothioic acid
Formula: C7H8N2S
Exact mass: 152.0408
SMILES: NC(=S)NC1=CC=CC=C1
InChI: InChI=1S/C7H8N2S/c8-7(10)9-6-4-2-1-3-5-6/h1-5H,(H3,8,9,10)
Instrument: Q Exactive Orbitrap (Thermo Scientific)
Instrument type: LC-ESI-QFT
Ms type: MS2
Ion mode: POSITIVE
Ionization: ESI
Fragmentation mode: HCD
Collision energy: 45
Resolution: 17500
Column name: Acquity BEH C18 1.7um, 2.1x150mm (Waters)
Retention time: 10.372 min
Base peak: 79.0211
Precursor m/z: 153.0481
Precursor type: [M+H]+
Precursor intensity: 1719708.59375
m/z	relative intensity	assigned
53.0385	13	C4H5+
59.9902	98	CH2NS+
61.0106	6	C2H5S+
77.0384	6	C6H5+
78.0464	4	C6H6+
86.0036	41	C6N+
93.0572	3	C6H7N+
94.0651	999	C6H8N+
97.9948	2	C3H2N2S+
105.0446	21	C6H5N2+
109.0107	37	C6H5S+
119.0604	15	C7H7N2+
123.013	21	C6H5NS+
136.0216	965	C7H6NS+
153.0481	266	C7H9N2S+
