Mass spectrum: Fensulfothion; LC-ESI-QFT; MS2; CE: 75; R=17500; [M+H]+
Name: Fensulfothion
Name: diethoxy-(4-methylsulfinylphenoxy)-sulfanylidene-lambda5-phosphane
Formula: C11H17O4PS2
Exact mass: 308.0306
SMILES: CCOP(=S)(OCC)OC1=CC=C(C=C1)S(C)=O
InChI: InChI=1S/C11H17O4PS2/c1-4-13-16(17,14-5-2)15-10-6-8-11(9-7-10)18(3)12/h6-9H,4-5H2,1-3H3
Instrument: Q Exactive Orbitrap (Thermo Scientific)
Instrument type: LC-ESI-QFT
Ms type: MS2
Ion mode: POSITIVE
Ionization: ESI
Fragmentation mode: HCD
Collision energy: 75
Resolution: 17500
Column name: Acquity BEH C18 1.7um, 2.1x150mm (Waters)
Retention time: 16.417 min
Base peak: 79.0212
Precursor m/z: 309.0379
Precursor type: [M+H]+
Precursor intensity: 21201274.25
m/z	relative intensity	assigned
53.0386	5	C4H5+
55.0179	1	C3H3O+
62.9899	51	CH3OS+
63.9435	2	S2+
64.9786	13	H2O2P+
65.0385	6	C5H5+
66.0463	19	C5H6+
67.0542	4	C5H7+
68.9792	1	C3HS+
69.987	2	C3H2S+
70.995	1	C3H3S+
77.0385	2	C6H5+
78.0464	10	C6H6+
78.967	15	CH3S2+
79.0178	2	C5H3O+
79.0542	2	C6H7+
81.0334	9	C5H5O+
84.0028	5	C4H4S+
85.0106	3	C4H5S+
91.0542	11	C7H7+
92.0257	4	C6H4O+
92.062	3	C7H8+
94.0413	605	C6H6O+
94.9949	2	C5H3S+
95.0491	20	C6H7O+
96.0027	25	C5H4S+
96.9508	11	H2O2PS+
97.0106	36	C5H5S+
98.9842	129	H4O4P+
104.062	1	C8H8+
105.0698	6	C8H9+
107.0492	10	C7H7O+
108.0028	5	C6H4S+
108.0571	5	C7H8O+
109.005	86	C2H6O3P+
109.0106	34	C6H5S+
109.0283	12	C6H5O2+
110.0185	381	C6H6S+
111.0263	25	C6H7S+
111.9977	2	C5H4OS+
113.0056	3	C5H5OS+
114.9613	285	H4O3PS+
116.9945	2	CH10PS2+
120.0569	1	C8H8O+
121.0107	3	C7H5S+
122.0186	1	C7H6S+
122.0726	3	C8H10O+
122.9895	1	C6H3OS+
123.0262	15	C7H7S+
123.9978	10	C6H4OS+
124.0341	13	C7H8S+
125.0056	249	C6H5OS+
126.0134	3	C6H6OS+
126.9672	1	C5H3S2+
127.0214	1	C6H7OS+
127.9747	6	C5H4S2+
127.9925	2	C5H4O2S+
128.977	7	CH6O3PS+
128.9821	1	C5H5S2+
132.9719	2	H6O4PS+
134.0184	1	C8H6S+
135.0264	1	C8H7S+
136.0343	3	C8H8S+
137.0057	3	C7H5OS+
137.0422	1	C8H9S+
138.0499	2	C8H10S+
139.0213	201	C7H7OS+
140.029	999	C7H8OS+
140.9827	132	C6H5S2+
141.0004	102	C6H5O2S+
142.0082	500	C6H6O2S+
142.9982	2	C6H7S2+
146.9872	1	CH8O4PS+
152.9827	2	C7H5S2+
153.0367	2	C8H9OS+
154.9984	259	C7H7S2+
155.9699	124	C6H4OS2+
156.0061	648	C7H8S2+
156.9777	102	C6H5OS2+
157.0317	343	C7H9O2S+
157.9854	294	C6H6OS2+
166.0446	1	C9H10OS+
168.0604	3	C9H12OS+
169.0138	1	C8H9S2+
170.0398	1	C8H10O2S+
170.9932	13	C7H7OS2+
171.9741	48	C6H5O2PS+
172.001	39	C7H8OS2+
173.0089	147	C7H9OS2+
174.0077	28	C6H7O4P+
175.0151	2	C6H8O4P+
184.037	2	C9H12S2+
185.9899	7	C7H7O2PS+
186.0166	1	C8H10OS2+
186.9614	7	C6H4O3PS+
187.9688	7	C6H5O3PS+
188.9771	1	C6H6O3PS+
189.9848	19	C6H7O3PS+
190.9922	3	C6H8O3PS+
201.9848	4	C7H7O3PS+
202.9927	33	C7H8O3PS+
203.9643	3	C6H5O4PS+
204.9719	1	C6H6O4PS+
217.9618	79	C7H7O2PS2+
218.9874	1	C7H8O4PS+
219.9412	45	C6H5O3PS2+
219.9952	105	C7H9O4PS+
220.9671	1	C10H6PS2+
221.9745	74	C10H7PS2+
234.9647	84	C7H8O3PS2+
235.9724	11	C7H9O3PS2+
236.9981	79	C11H10PS2+
237.9517	17	C6H7O4PS2+
249.9884	9	C8H11O3PS2+
251.9675	4	C7H9O4PS2+
252.9746	2	C7H10O4PS2+
266.9916	7	C8H12O4PS2+
