Mass spectrum: 2-Aminoanthraquinone; LC-ESI-QFT; MS2; CE: 90; R=17500; [M+H]+
Name: 2-Aminoanthraquinone
Name: 2-aminoanthracene-9,10-dione
Formula: C14H9NO2
Exact mass: 223.0633
SMILES: NC1=CC=C2C(=O)C3=C(C=CC=C3)C(=O)C2=C1
InChI: InChI=1S/C14H9NO2/c15-8-5-6-11-12(7-8)14(17)10-4-2-1-3-9(10)13(11)16/h1-7H,15H2
Instrument: Q Exactive Orbitrap (Thermo Scientific)
Instrument type: LC-ESI-QFT
Ms type: MS2
Ion mode: POSITIVE
Ionization: ESI
Fragmentation mode: HCD
Collision energy: 90
Resolution: 17500
Column name: Acquity BEH C18 1.7um, 2.1x150mm (Waters)
Retention time: 15.327 min
Base peak: 79.0211
Precursor m/z: 224.0706
Precursor type: [M+H]+
Precursor intensity: 2295649.65625
m/z	relative intensity	assigned
53.0386	6	C4H5+
55.0178	16	C3H3O+
65.0385	27	C5H5+
68.9971	56	C3HO2+
75.0229	3	C6H3+
77.0384	6	C6H5+
79.0178	12	C5H3O+
79.0542	2	C6H7+
91.0543	21	C7H7+
94.0414	4	C6H6O+
95.0491	17	C6H7O+
103.0541	7	C8H7+
115.0542	323	C9H7+
116.0494	15	C8H6N+
127.0542	19	C10H7+
128.0494	13	C9H6N+
128.062	29	C10H8+
129.07	5	C10H9+
130.0399	2	C9H6O+
130.0651	31	C9H8N+
139.054	20	C11H7+
140.0496	15	C10H6N+
140.062	21	C11H8+
141.0699	396	C11H9+
142.0652	24	C10H8N+
144.0445	14	C9H6NO+
144.0571	11	C10H8O+
145.0646	18	C10H9O+
146.0602	4	C9H8NO+
150.0465	23	C12H6+
151.0542	40	C12H7+
152.062	88	C12H8+
153.0573	69	C11H7N+
153.0697	6	C12H9+
154.0651	61	C11H8N+
155.0492	16	C11H7O+
155.0728	23	C11H9N+
156.0445	4	C10H6NO+
166.0652	66	C12H8N+
167.073	999	C12H9N+
168.0572	60	C12H8O+
168.0808	208	C12H10N+
169.0648	465	C12H9O+
170.06	31	C11H8NO+
171.0688	1	C11H9NO+
177.0573	176	C13H7N+
178.0652	78	C13H8N+
179.0728	15	C13H9N+
180.0562	14	C13H8O+
180.0807	2	C13H10N+
181.0647	3	C13H9O+
183.0683	1	C12H9NO+
184.052	8	C12H8O2+
184.0759	3	C12H10NO+
194.0602	19	C13H8NO+
195.068	27	C13H9NO+
196.0757	157	C13H10NO+
197.0598	64	C13H9O2+
199.063	2	C12H9NO2+
206.0601	4	C14H8NO+
207.0679	19	C14H9NO+
211.063	6	C13H9NO2+
222.0551	5	C14H8NO2+
223.0628	33	C14H9NO2+
224.0705	3	C14H10NO2+
