Mass spectrum: SSR161421; LC-ESI-QFT; MS2; CE: 60; R=17500; [M+H]+
Name: SSR161421
Name: N-[4-(benzylamino)-3-cyanoquinolin-2-yl]-4-methoxybenzamide
Formula: C25H20N4O2
Exact mass: 408.1586
SMILES: COC1=CC=C(C=C1)C(=O)NC1=C(C#N)C(NCC2=CC=CC=C2)=C2C=CC=CC2=N1
InChI: InChI=1S/C25H20N4O2/c1-31-19-13-11-18(12-14-19)25(30)29-24-21(15-26)23(20-9-5-6-10-22(20)28-24)27-16-17-7-3-2-4-8-17/h2-14H,16H2,1H3,(H2,27,28,29,30)
Instrument: Q Exactive Orbitrap (Thermo Scientific)
Instrument type: LC-ESI-QFT
Ms type: MS2
Ion mode: POSITIVE
Ionization: ESI
Fragmentation mode: HCD
Collision energy: 60
Resolution: 17500
Column name: Acquity BEH C18 1.7um, 2.1x150mm (Waters)
Retention time: 16.963 min
Base peak: 79.0211
Precursor m/z: 409.1659
Precursor type: [M+H]+
Precursor intensity: 24878672
m/z	relative intensity	assigned
53.0386	26	C4H5+
55.0178	1	C3H3O+
63.0227	2	C5H3+
65.0385	1	C5H5+
68.0256	2	C4H4O+
77.0384	10	C6H5+
79.0178	1	C5H3O+
79.0542	19	C6H7+
81.0335	3	C5H5O+
91.0542	42	C7H7+
92.0256	35	C6H4O+
94.0412	2	C6H6O+
95.0491	74	C6H7O+
105.0447	29	C6H5N2+
107.0491	9	C7H7O+
124.0517	1	C7H8O2+
125.0597	85	C7H9O2+
135.0441	999	C8H7O2+
231.0921	1	C16H11N2+
257.0949	1	C17H11N3+
