Mass spectrum: Thiabendazole; LC-ESI-QFT; MS2; CE: 15; R=17500; [M+H]+
Name: Thiabendazole
Name: 4-(1H-benzimidazol-2-yl)-1,3-thiazole
Formula: C10H7N3S
Exact mass: 201.0361
SMILES: N1C2=C(C=CC=C2)N=C1C1=CSC=N1
InChI: InChI=1S/C10H7N3S/c1-2-4-8-7(3-1)12-10(13-8)9-5-14-6-11-9/h1-6H,(H,12,13)
Instrument: Q Exactive Orbitrap (Thermo Scientific)
Instrument type: LC-ESI-QFT
Ms type: MS2
Ion mode: POSITIVE
Ionization: ESI
Fragmentation mode: HCD
Collision energy: 15
Resolution: 17500
Column name: Acquity BEH C18 1.7um, 2.1x150mm (Waters)
Retention time: 11.145 min
Base peak: 79.0212
Precursor m/z: 202.0433
Precursor type: [M+H]+
Precursor intensity: 29415160
m/z	relative intensity	assigned
175.0316	1	C9H7N2S+
201.0354	1	C10H7N3S+
202.0433	999	C10H8N3S+
