Mass spectrum: Azathioprine; LC-ESI-QFT; MS2; CE: 45; R=17500; [M-H]-
Name: Azathioprine
Name: 6-(3-methyl-5-nitroimidazol-4-yl)sulfanyl-7H-purine
Formula: C9H7N7O2S
Exact mass: 277.0382
SMILES: CN1C=NC(=C1SC1=NC=NC2=C1NC=N2)[N+]([O-])=O
InChI: InChI=1S/C9H7N7O2S/c1-15-4-14-7(16(17)18)9(15)19-8-5-6(11-2-10-5)12-3-13-8/h2-4H,1H3,(H,10,11,12,13)
Instrument: Q Exactive Orbitrap (Thermo Scientific)
Instrument type: LC-ESI-QFT
Ms type: MS2
Ion mode: NEGATIVE
Ionization: ESI
Fragmentation mode: HCD
Collision energy: 45
Resolution: 17500
Column name: Acquity BEH C18 1.7um, 2.1x150mm (Waters)
Retention time: 10.668 min
Base peak: 276.0308
Precursor m/z: 276.0309
Precursor type: [M-H]-
Precursor intensity: 13306942.57056
m/z	relative intensity	assigned
55.0301	4	C2H3N2-
57.9757	39	CNS-
65.0145	3	C3HN2-
66.0098	13	C2N3-
69.0094	4	C2HN2O-
73.9707	7	CNOS-
79.0176	3	C3HN3-
81.9757	17	C3NS-
82.0411	1	C3H4N3-
90.0097	13	C4N3-
92.0254	4	C4H2N3-
93.0207	2	C3HN4-
94.0048	3	C3N3O-
96.9867	5	C3HN2S-
97.9945	9	C3H2N2S-
106.0284	3	C4H2N4-
107.0126	22	C4HN3O-
108.9865	3	C4HN2S-
109.9817	4	C3N3S-
111.0023	20	C4H3N2S-
112.0102	2	C4H4N2S-
112.0153	5	C3H2N3O2-
112.9814	5	C3HN2OS-
113.9893	2	C3H2N2OS-
117.0207	190	C5HN4-
118.0283	3	C5H2N4-
118.0411	2	C6H4N3-
119.0363	2	C5H3N4-
121.0155	1	C4HN4O-
123.9974	33	C4H2N3S-
124.0101	3	C5H4N2S-
124.9817	1	C4HN2OS-
125.0178	1	C5H5N2S-
126.9844	7	C3HN3OS-
128.0051	9	C4H4N2OS-
131.0237	2	C5HN5-
132.0442	26	C6H4N4-
133.0154	1	C5HN4O-
134.0235	119	C5H2N4O-
135.9975	13	C5H2N3S-
136.0151	5	C5H2N3O2-
138.9846	21	C4HN3OS-
139.9925	3	C4H2N3OS-
142.9794	4	C3HN3O2S-
143.0365	2	C7H3N4-
143.9873	25	C3H2N3O2S-
144.0315	33	C6H2N5-
145.0518	3	C7H5N4-
147.9972	3	C6H2N3S-
148.9924	1	C5HN4S-
150.0005	4	C5H2N4S-
150.0421	3	C5H4N5O-
151.0083	17	C5H3N4S-
151.9923	5	C5H2N3OS-
157.0393	2	C7H3N5-
158.0029	999	C4H4N3O2S-
163.0085	3	C6H3N4S-
164.0339	5	C6H4N4O2-
170.0473	8	C8H4N5-
172.0264	1	C7H2N5O-
173.0456	2	C6H3N7-
175.0083	1	C7H3N4S-
176.0161	4	C7H4N4S-
183.0426	5	C8H3N6-
184.0375	2	C7H2N7-
189.0113	1	C7H3N5S-
197.0583	5	C9H5N6-
202.0194	4	C8H4N5S-
203.027	3	C8H5N5S-
214.0068	5	C8H2N6S-
215.0144	10	C8H3N6S-
229.0301	22	C9H5N6S-
230.0379	8	C9H6N6S-
276.0308	26	C9H6N7O2S-
