Mass spectrum: Apomorphine; LC-ESI-QFT; MS2; CE: 75; R=17500; [M+H]+
Name: Apomorphine
Name: (6aR)-6-methyl-5,6,6a,7-tetrahydro-4H-dibenzo[de,g]quinoline-10,11-diol
Formula: C17H17NO2
Exact mass: 267.1259
SMILES: CN1CCc2cccc3c2[C@H]1Cc1ccc(O)c(O)c1-3
InChI: InChI=1S/C17H17NO2/c1-18-8-7-10-3-2-4-12-15(10)13(18)9-11-5-6-14(19)17(20)16(11)12/h2-6,13,19-20H,7-9H2,1H3/t13-/m1/s1
Instrument: Q Exactive Orbitrap (Thermo Scientific)
Instrument type: LC-ESI-QFT
Ms type: MS2
Ion mode: POSITIVE
Ionization: ESI
Fragmentation mode: HCD
Collision energy: 75
Resolution: 17500
Column name: Acquity BEH C18 1.7um, 2.1x150mm (Waters)
Retention time: 11.129 min
Base peak: 79.0211
Precursor m/z: 268.1332
Precursor type: [M+H]+
Precursor intensity: 23448298.25
m/z	relative intensity	assigned
152.062	3	C12H8+
163.0545	1	C13H7+
165.0699	21	C13H9+
166.0777	1	C13H10+
167.0852	2	C13H11+
176.062	3	C14H8+
177.0697	3	C14H9+
178.0778	2	C14H10+
179.0854	7	C14H11+
189.07	124	C15H9+
190.0778	344	C15H10+
191.0854	999	C15H11+
200.062	4	C16H8+
201.0698	21	C16H9+
202.0775	7	C16H10+
205.0648	12	C15H9O+
207.0807	1	C15H11O+
218.0726	20	C16H10O+
219.0804	112	C16H11O+
237.091	6	C16H13O2+
