Mass spectrum: Farglitazar; LC-ESI-QFT; MS2; CE: 45; R=17500; [M-H]-
Name: Farglitazar
Name: (2S)-2-(2-benzoylanilino)-3-[4-[2-(5-methyl-2-phenyl-1,3-oxazol-4-yl)ethoxy]phenyl]propanoic acid
Formula: C34H30N2O5
Exact mass: 546.2155
SMILES: CC1=C(CCOC2=CC=C(C[C@H](NC3=C(C=CC=C3)C(=O)C3=CC=CC=C3)C(O)=O)C=C2)N=C(O1)C1=CC=CC=C1
InChI: InChI=1S/C34H30N2O5/c1-23-29(36-33(41-23)26-12-6-3-7-13-26)20-21-40-27-18-16-24(17-19-27)22-31(34(38)39)35-30-15-9-8-14-28(30)32(37)25-10-4-2-5-11-25/h2-19,31,35H,20-22H2,1H3,(H,38,39)/t31-/m0/s1
Instrument: Q Exactive Orbitrap (Thermo Scientific)
Instrument type: LC-ESI-QFT
Ms type: MS2
Ion mode: NEGATIVE
Ionization: ESI
Fragmentation mode: HCD
Collision energy: 45
Resolution: 17500
Column name: Acquity BEH C18 1.7um, 2.1x150mm (Waters)
Retention time: 20.138 min
Base peak: 112.9856
Precursor m/z: 545.2082
Precursor type: [M-H]-
Precursor intensity: 5618380.921387
m/z	relative intensity	assigned
92.0506	293	C6H6N-
93.0346	535	C6H5O-
102.0349	124	C7H4N-
106.0424	901	C7H6O-
107.0503	999	C7H7O-
108.0217	354	C6H4O2-
117.0346	16	C8H5O-
118.0297	19	C7H4NO-
119.0502	511	C8H7O-
120.0456	36	C7H6NO-
123.0454	12	C7H7O2-
131.0377	524	C8H5NO-
132.0456	14	C8H6NO-
133.0659	99	C9H9O-
134.0373	133	C8H6O2-
138.0322	176	C7H6O3-
144.0455	252	C9H6NO-
157.0534	25	C10H7NO-
158.0611	15	C10H8NO-
160.0768	286	C10H10NO-
168.082	50	C12H10N-
171.0813	12	C12H11O-
172.0769	66	C11H10NO-
186.0925	108	C12H12NO-
192.082	108	C14H10N-
194.0611	157	C13H8NO-
195.0815	103	C14H11O-
196.0768	433	C13H10NO-
204.0824	6	C15H10N-
207.0688	53	C14H9NO-
208.0768	212	C14H10NO-
209.0847	166	C14H11NO-
210.0559	21	C13H8NO2-
210.0678	14	C14H10O2-
210.0924	94	C14H12NO-
220.0767	31	C15H10NO-
221.0615	12	C15H9O2-
222.0688	9	C15H10O2-
223.0764	66	C15H11O2-
225.0797	9	C14H11NO2-
236.0719	50	C15H10NO2-
237.0797	25	C15H11NO2-
238.0875	63	C15H12NO2-
292.1344	167	C19H18NO2-
296.108	141	C21H14NO-
297.116	89	C21H15NO-
298.1235	49	C21H16NO-
313.1106	11	C21H15NO2-
315.1271	11	C21H17NO2-
316.1341	39	C21H18NO2-
483.2091	14	C33H27N2O2-
