Mass spectrum: Quizalofop-ethyl; LC-ESI-QFT; MS2; CE: 45; R=17500; [M+H]+
Name: Quizalofop-ethyl
Name: ethyl 2-[4-(6-chloroquinoxalin-2-yl)oxyphenoxy]propanoate
Formula: C19H17ClN2O4
Exact mass: 372.0877
SMILES: CCOC(=O)C(C)OC1=CC=C(OC2=CN=C3C=C(Cl)C=CC3=N2)C=C1
InChI: InChI=1S/C19H17ClN2O4/c1-3-24-19(23)12(2)25-14-5-7-15(8-6-14)26-18-11-21-17-10-13(20)4-9-16(17)22-18/h4-12H,3H2,1-2H3
Instrument: Q Exactive Orbitrap (Thermo Scientific)
Instrument type: LC-ESI-QFT
Ms type: MS2
Ion mode: POSITIVE
Ionization: ESI
Fragmentation mode: HCD
Collision energy: 45
Resolution: 17500
Column name: Acquity BEH C18 1.7um, 2.1x150mm (Waters)
Retention time: 19.435 min
Base peak: 79.0211
Precursor m/z: 373.095
Precursor type: [M+H]+
Precursor intensity: 8683760.21875
m/z	relative intensity	assigned
53.0386	1	C4H5+
55.0179	13	C3H3O+
65.0385	37	C5H5+
67.0541	1	C5H7+
69.0334	5	C4H5O+
72.0808	3	C4H10N+
73.0284	29	C3H5O2+
73.0647	3	C4H9O+
74.0362	4	C3H6O2+
77.0384	1	C6H5+
79.0542	2	C6H7+
81.0334	3	C5H5O+
81.0699	3	C6H9+
91.0542	999	C7H7+
92.062	8	C7H8+
93.0336	7	C6H5O+
93.0699	6	C7H9+
94.0413	4	C6H6O+
95.0129	4	C5H3O2+
95.0489	8	C6H7O+
103.0544	7	C8H7+
105.0447	9	C6H5N2+
107.0491	3	C7H7O+
109.0648	18	C7H9O+
110.0362	1	C6H6O2+
111.0441	17	C6H7O2+
119.0492	187	C8H7O+
120.057	37	C8H8O+
121.0284	151	C7H5O2+
121.0647	63	C8H9O+
126.0105	6	C6H5ClN+
135.0439	7	C8H7O2+
137.0597	15	C8H9O2+
138.0103	1	C7H5ClN+
140.0137	3	C6H5ClN2+
147.044	13	C9H7O2+
147.0555	2	C8H7N2O+
151.0057	5	C7H4ClN2+
152.0134	3	C7H5ClN2+
153.0216	5	C7H6ClN2+
163.0057	64	C8H4ClN2+
164.0135	22	C8H5ClN2+
165.0214	26	C8H6ClN2+
177.0213	10	C9H6ClN2+
178.029	4	C9H7ClN2+
179.0007	28	C8H4ClN2O+
179.0368	4	C9H8ClN2+
180.0086	24	C8H5ClN2O+
181.0163	255	C8H6ClN2O+
189.0214	6	C10H6ClN2+
189.0339	4	C11H8ClN+
190.0295	3	C10H7ClN2+
191.0371	7	C10H8ClN2+
192.0681	33	C13H8N2+
193.076	23	C13H9N2+
195.032	23	C9H8ClN2O+
196.0035	23	C8H5ClN2O2+
199.0271	3	C8H8ClN2O2+
203.0371	40	C11H8ClN2+
205.0166	4	C10H6ClN2O+
207.0917	48	C14H11N2+
208.0996	47	C14H12N2+
209.0705	10	C13H9N2O+
215.0371	55	C12H8ClN2+
216.0208	4	C15H4O2+
216.0449	80	C12H9ClN2+
217.0527	17	C12H10ClN2+
218.0841	11	C15H10N2+
219.0915	3	C15H11N2+
220.0632	5	C14H8N2O+
221.0709	30	C14H9N2O+
227.0372	24	C13H8ClN2+
228.0451	31	C13H9ClN2+
229.0526	32	C13H10ClN2+
235.0865	46	C15H11N2O+
236.0944	119	C15H12N2O+
237.0657	13	C14H9N2O2+
239.0367	4	C17H5NO+
240.0452	4	C14H9ClN2+
241.0528	5	C14H10ClN2+
242.0241	3	C13H7ClN2O+
242.0614	3	C14H11ClN2+
243.0321	21	C13H8ClN2O+
243.0684	401	C14H12ClN2+
244.0398	252	C13H9ClN2O+
245.0478	17	C13H10ClN2O+
249.066	34	C15H9N2O2+
253.0527	125	C15H10ClN2+
254.0607	4	C15H11ClN2+
255.032	492	C14H8ClN2O+
256.0398	73	C14H9ClN2O+
257.0474	17	C14H10ClN2O+
263.0814	4	C16H11N2O2+
270.0191	22	C14H7ClN2O2+
270.0552	4	C15H11ClN2O+
271.0283	42	C14H8ClN2O2+
271.0632	621	C15H12ClN2O+
272.0345	131	C14H9ClN2O2+
273.0424	94	C14H10ClN2O2+
281.0477	42	C16H10ClN2O+
283.0272	3	C15H8ClN2O2+
284.0348	28	C15H9ClN2O2+
285.0421	1	C18H7NO3+
299.0582	629	C16H12ClN2O2+
317.068	1	C19H11NO4+
327.055	2	C17H12ClN2O3+
345.0638	16	C17H14ClN2O4+
