Mass spectrum: Cyclanilide; LC-ESI-QFT; MS2; CE: 75; R=17500; [M-H]-
Name: Cyclanilide
Name: 1-[(2,4-dichlorophenyl)carbamoyl]cyclopropane-1-carboxylic acid
Formula: C11H9Cl2NO3
Exact mass: 272.9959
SMILES: OC(=O)C1(CC1)C(=O)NC1=CC=C(Cl)C=C1Cl
InChI: InChI=1S/C11H9Cl2NO3/c12-6-1-2-8(7(13)5-6)14-9(15)11(3-4-11)10(16)17/h1-2,5H,3-4H2,(H,14,15)(H,16,17)
Instrument: Q Exactive Orbitrap (Thermo Scientific)
Instrument type: LC-ESI-QFT
Ms type: MS2
Ion mode: NEGATIVE
Ionization: ESI
Fragmentation mode: HCD
Collision energy: 75
Resolution: 17500
Column name: Acquity BEH C18 1.7um, 2.1x150mm (Waters)
Retention time: 19.046 min
Base peak: 271.9888
Precursor m/z: 271.9887
Precursor type: [M-H]-
Precursor intensity: 51183716.42383
m/z	relative intensity	assigned
88.0193	1	C6H2N-
123.9959	349	C6H3ClN-
128.0504	1	C9H6N-
156.0454	3	C10H6NO-
159.9727	999	C6H4Cl2N-
172.0188	2	C7H7ClNO2-
225.9832	12	C10H6Cl2NO-
