Mass spectrum: Besonprodil; LC-ESI-QFT; MS2; CE: 75; R=17500; [M-H]-
Name: Besonprodil
Name: 6-[2-[4-[(4-fluorophenyl)methyl]piperidin-1-yl]ethylsulfinyl]-3H-1,3-benzoxazol-2-one
Formula: C21H23FN2O3S
Exact mass: 402.1413
SMILES: FC1=CC=C(CC2CCN(CCS(=O)C3=CC=C4NC(=O)OC4=C3)CC2)C=C1
InChI: InChI=1S/C21H23FN2O3S/c22-17-3-1-15(2-4-17)13-16-7-9-24(10-8-16)11-12-28(26)18-5-6-19-20(14-18)27-21(25)23-19/h1-6,14,16H,7-13H2,(H,23,25)
Instrument: Q Exactive Orbitrap (Thermo Scientific)
Instrument type: LC-ESI-QFT
Ms type: MS2
Ion mode: NEGATIVE
Ionization: ESI
Fragmentation mode: HCD
Collision energy: 75
Resolution: 17500
Column name: Acquity BEH C18 1.7um, 2.1x150mm (Waters)
Retention time: 13.201 min
Base peak: 118.0299
Precursor m/z: 401.1341
Precursor type: [M-H]-
Precursor intensity: 8342763.025391
m/z	relative intensity	assigned
50.0035	1	C3N-
56.9804	8	C2HS-
57.9757	67	CNS-
62.0162	1	C5H2-
63.9625	9	O2S-
64.0193	3	C4H2N-
65.0032	8	C4HO-
65.9986	49	C3NO-
68.0142	51	C3H2NO-
68.9982	4	C3HO2-
71.9676	1	C2OS-
74.0035	1	C5N-
80.9806	2	C4HS-
81.022	14	C4H3NO-
81.9757	27	C3NS-
81.9883	2	C4H2S-
83.9914	152	C3H2NS-
84.9754	2	C3HOS-
92.0143	7	C5H2NO-
93.0221	1	C5H3NO-
93.9883	96	C5H2S-
96.0092	6	C4H2NO2-
96.9993	2	C4H3NS-
97.9833	1	C4H2OS-
98.9785	1	C3HNOS-
107.9914	41	C5H2NS-
108.9993	2	C5H3NS-
109.017	15	C5H3NO2-
110.9911	6	C5H3OS-
111.9863	10	C4H2NOS-
112.9941	35	C4H3NOS-
120.0091	108	C6H2NO2-
121.0169	57	C6H3NO2-
123.9863	3	C5H2NOS-
124.0042	2	C5H2NO3-
124.994	13	C5H3NOS-
125.9781	9	C5H2O2S-
133.017	10	C7H3NO2-
134.0249	1	C7H4NO2-
135.9863	28	C6H2NOS-
136.004	45	C6H2NO3-
136.9941	71	C6H3NOS-
137.978	8	C6H2O2S-
138.986	4	C6H3O2S-
139.9815	5	C5H2NO2S-
149.0118	999	C7H3NO3-
151.9812	42	C6H2NO2S-
152.989	36	C6H3NO2S-
153.007	2	C7H4FNS-
164.989	246	C7H3NO2S-
179.9761	9	C7H2NO3S-
180.984	355	C7H3NO3S-
181.9919	2	C7H4NO3S-
