Mass spectrum: Metalaxyl; LC-ESI-QFT; MS2; CE: 45; R=17500; [M+H]+
Name: Metalaxyl
Name: methyl 2-(N-(2-methoxyacetyl)-2,6-dimethylanilino)propanoate
Formula: C15H21NO4
Exact mass: 279.1471
SMILES: COCC(=O)N(C(C)C(=O)OC)C1=C(C)C=CC=C1C
InChI: InChI=1S/C15H21NO4/c1-10-7-6-8-11(2)14(10)16(13(17)9-19-4)12(3)15(18)20-5/h6-8,12H,9H2,1-5H3
Instrument: Q Exactive Orbitrap (Thermo Scientific)
Instrument type: LC-ESI-QFT
Ms type: MS2
Ion mode: POSITIVE
Ionization: ESI
Fragmentation mode: HCD
Collision energy: 45
Resolution: 17500
Column name: Acquity BEH C18 1.7um, 2.1x150mm (Waters)
Retention time: 16.409 min
Base peak: 79.0211
Precursor m/z: 280.1543
Precursor type: [M+H]+
Precursor intensity: 26941246
m/z	relative intensity	assigned
59.0491	1	C3H7O+
77.0385	1	C6H5+
105.07	3	C8H9+
107.0856	1	C8H11+
118.0651	1	C8H8N+
119.0856	4	C9H11+
121.0888	7	C8H11N+
130.065	1	C9H8N+
131.073	3	C9H9N+
132.0808	14	C9H10N+
133.0887	45	C9H11N+
134.0964	79	C9H12N+
135.1042	2	C9H13N+
144.081	3	C10H10N+
145.0887	32	C10H11N+
146.0965	65	C10H12N+
147.1039	1	C10H13N+
148.1121	179	C10H14N+
150.0913	6	C9H12NO+
158.0965	2	C11H12N+
160.1121	999	C11H14N+
161.0831	4	C10H11NO+
162.1277	153	C11H16N+
164.1072	3	C10H14NO+
165.1148	27	C10H15NO+
188.1071	9	C12H14NO+
192.1383	576	C12H18NO+
208.1335	1	C12H18NO2+
220.1332	109	C13H18NO2+
