Mass spectrum: Reserpine; LC-ESI-QFT; MS2; CE: 45; R=17500; [M-H]-
Name: Reserpine
Name: methyl (1R,15S,17R,18R,19S,20S)-6,18-dimethoxy-17-(3,4,5-trimethoxybenzoyl)oxy-1,3,11,12,14,15,16,17,18,19,20,21-dodecahydroyohimban-19-carboxylate
Formula: C33H40N2O9
Exact mass: 608.2734
SMILES: CO[C@H]1[C@@H](C[C@@H]2CN3CCC4=C(NC5=C4C=CC(OC)=C5)[C@H]3C[C@@H]2[C@@H]1C(=O)OC)OC(=O)C1=CC(OC)=C(OC)C(OC)=C1
InChI: InChI=1S/C33H40N2O9/c1-38-19-7-8-20-21-9-10-35-16-18-13-27(44-32(36)17-11-25(39-2)30(41-4)26(12-17)40-3)31(42-5)28(33(37)43-6)22(18)15-24(35)29(21)34-23(20)14-19/h7-8,11-12,14,18,22,24,27-28,31,34H,9-10,13,15-16H2,1-6H3/t18-,22+,24-,27-,28+,31+/m1/s1
Instrument: Q Exactive Orbitrap (Thermo Scientific)
Instrument type: LC-ESI-QFT
Ms type: MS2
Ion mode: NEGATIVE
Ionization: ESI
Fragmentation mode: HCD
Collision energy: 45
Resolution: 17500
Column name: Acquity BEH C18 1.7um, 2.1x150mm (Waters)
Retention time: 15.298 min
Base peak: 112.9857
Precursor m/z: 607.2661
Precursor type: [M-H]-
Precursor intensity: 242832.5844727
m/z	relative intensity	assigned
65.0032	24	C4HO-
81.0347	58	C5H5O-
93.0346	37	C6H5O-
95.0139	37	C5H3O2-
97.0296	27	C5H5O2-
109.0294	97	C6H5O2-
110.0011	20	C5H2O3-
111.0086	21	C5H3O3-
120.9931	65	C6HO3-
122.001	43	C6H2O3-
123.0088	89	C6H3O3-
125.0245	38	C6H5O3-
125.9959	60	C5H2O4-
137.0245	742	C7H5O3-
137.9956	87	C6H2O4-
139.0036	46	C6H3O4-
141.0193	23	C6H5O4-
153.0196	109	C7H5O4-
153.0557	999	C8H9O3-
153.9909	32	C6H2O5-
155.0351	245	C7H7O4-
168.043	31	C8H8O4-
169.0146	17	C7H5O5-
198.08	46	C12H10N2O-
235.0879	31	C15H11N2O-
236.0956	33	C15H12N2O-
