Mass spectrum: Quinine; LC-ESI-QFT; MS2; CE: 75; R=17500; [M+H]+
Name: Quinine
Name: (R)-[(2S,4S,5R)-5-ethenyl-1-azabicyclo[2.2.2]octan-2-yl]-(6-methoxyquinolin-4-yl)methanol
Formula: C20H24N2O2
Exact mass: 324.1838
SMILES: C=C[C@H]1CN2CC[C@H]1C[C@H]2[C@H](O)c1ccnc2ccc(OC)cc12
InChI: InChI=1S/C20H24N2O2/c1-3-13-12-22-9-7-14(13)10-19(22)20(23)16-6-8-21-18-5-4-15(24-2)11-17(16)18/h3-6,8,11,13-14,19-20,23H,1,7,9-10,12H2,2H3/t13-,14-,19-,20+/m0/s1
Instrument: Q Exactive Orbitrap (Thermo Scientific)
Instrument type: LC-ESI-QFT
Ms type: MS2
Ion mode: POSITIVE
Ionization: ESI
Fragmentation mode: HCD
Collision energy: 75
Resolution: 17500
Column name: Acquity BEH C18 1.7um, 2.1x150mm (Waters)
Retention time: 11.420 min
Base peak: 79.0211
Precursor m/z: 325.1911
Precursor type: [M+H]+
Precursor intensity: 33227916.5
m/z	relative intensity	assigned
51.0229	2	C4H3+
53.0022	18	C3HO+
53.0386	170	C4H5+
53.9974	5	C2NO+
54.0339	5	C3H4N+
55.0542	112	C4H7+
56.0495	39	C3H6N+
57.0573	3	C3H7N+
58.0651	8	C3H8N+
65.0385	78	C5H5+
66.0464	29	C5H6+
67.0416	20	C4H5N+
67.0542	204	C5H7+
68.0494	53	C4H6N+
69.0573	18	C4H7N+
69.0699	4	C5H9+
70.0651	23	C4H8N+
77.0385	12	C6H5+
78.0465	1	C6H6+
79.0542	999	C6H7+
80.0494	160	C5H6N+
81.0699	649	C6H9+
82.0651	138	C5H8N+
83.0729	4	C5H9N+
84.0808	19	C5H10N+
86.0602	2	C4H8NO+
89.0386	3	C7H5+
91.0543	115	C7H7+
92.0494	4	C6H6N+
92.062	3	C7H8+
93.0573	24	C6H7N+
93.0699	45	C7H9+
94.0651	72	C6H8N+
95.0492	95	C6H7O+
95.073	28	C6H9N+
95.0855	27	C7H11+
96.0444	2	C5H6NO+
96.0808	30	C6H10N+
102.0465	2	C8H6+
103.0542	16	C8H7+
105.0448	33	C6H5N2+
105.0699	42	C8H9+
106.0651	59	C7H8N+
107.073	14	C7H9N+
107.0856	11	C8H11+
108.0808	75	C7H10N+
109.0648	8	C7H9O+
109.0887	5	C7H11N+
110.06	4	C6H8NO+
110.0964	29	C7H12N+
115.0542	51	C9H7+
116.0493	12	C8H6N+
117.0573	92	C8H7N+
117.0698	15	C9H9+
118.0651	11	C8H8N+
119.0604	2	C7H7N2+
119.073	6	C8H9N+
119.0853	3	C9H11+
120.0808	40	C8H10N+
121.0645	2	C8H9O+
121.0886	3	C8H11N+
122.0963	19	C8H12N+
124.0759	2	C7H10NO+
124.1122	12	C8H14N+
128.0496	3	C9H6N+
129.0573	25	C9H7N+
130.0411	2	C9H6O+
130.0652	18	C9H8N+
131.073	42	C9H9N+
132.0442	2	C8H6NO+
132.0806	11	C9H10N+
133.0524	5	C8H7NO+
133.0648	16	C9H9O+
134.0964	64	C9H12N+
135.1043	3	C9H13N+
136.0759	5	C8H10NO+
136.1121	25	C9H14N+
138.1279	7	C9H16N+
140.0501	3	C10H6N+
141.0573	25	C10H7N+
142.0652	37	C10H8N+
143.0368	5	C9H5NO+
143.073	105	C10H9N+
144.0807	34	C10H10N+
145.0522	87	C9H7NO+
145.0648	24	C10H9O+
146.0602	14	C9H8NO+
146.0967	2	C10H12N+
147.068	5	C9H9NO+
148.0396	5	C8H6NO2+
148.0759	3	C9H10NO+
153.0573	5	C11H7N+
154.0651	117	C11H8N+
155.0607	6	C10H7N2+
155.0729	119	C11H9N+
156.0687	14	C10H8N2+
156.0808	31	C11H10N+
157.0522	40	C10H7NO+
157.0886	7	C11H11N+
158.0601	99	C10H8NO+
159.0679	47	C10H9NO+
160.0757	303	C10H10NO+
161.0473	4	C9H7NO2+
162.0914	7	C10H12NO+
166.0651	31	C12H8N+
166.1224	8	C10H16NO+
167.073	107	C12H9N+
168.0684	19	C11H8N2+
168.0807	23	C12H10N+
169.0523	144	C11H7NO+
169.0761	8	C11H9N2+
169.0887	12	C12H11N+
170.0601	79	C11H8NO+
170.0834	9	C11H10N2+
171.0678	41	C11H9NO+
172.0756	552	C11H10NO+
173.0836	85	C11H11NO+
174.0549	28	C10H8NO2+
174.0913	47	C11H12NO+
175.0629	22	C10H9NO2+
176.0347	2	C12H4N2+
176.0712	3	C10H10NO2+
179.0729	8	C13H9N+
180.0808	33	C13H10N+
181.0524	7	C12H7NO+
181.0764	4	C12H9N2+
181.0885	28	C13H11N+
182.0602	72	C12H8NO+
182.0838	15	C12H10N2+
182.0966	6	C13H12N+
183.068	122	C12H9NO+
183.104	12	C13H13N+
184.0758	187	C12H10NO+
185.0472	5	C11H7NO2+
185.0708	2	C11H9N2O+
185.0836	14	C12H11NO+
186.0549	16	C11H8NO2+
186.0914	175	C12H12NO+
187.0992	5	C12H13NO+
188.0703	14	C11H10NO2+
189.0785	17	C11H11NO2+
191.0728	7	C14H9N+
192.0808	18	C14H10N+
193.0773	3	C13H9N2+
193.0888	24	C14H11N+
194.0595	9	C13H8NO+
194.0844	5	C13H10N2+
194.0965	15	C14H12N+
195.068	30	C13H9NO+
195.0919	6	C13H11N2+
195.1048	5	C14H13N+
196.0635	7	C12H8N2O+
196.0756	50	C13H10NO+
196.0994	6	C13H12N2+
197.0713	9	C12H9N2O+
197.0837	42	C13H11NO+
197.1071	2	C13H13N2+
198.0794	8	C12H10N2O+
198.0913	96	C13H12NO+
199.0629	5	C12H9NO2+
199.0866	18	C12H11N2O+
199.0977	3	C13H13NO+
200.0707	28	C12H10NO2+
200.1071	9	C13H14NO+
201.103	2	C12H13N2O+
202.0862	22	C12H12NO2+
204.0809	18	C15H10N+
205.0773	3	C14H9N2+
205.0889	8	C15H11N+
206.0841	6	C14H10N2+
206.0966	16	C15H12N+
207.0675	3	C14H9NO+
207.0918	10	C14H11N2+
207.1042	11	C15H13N+
208.0758	16	C14H10NO+
208.0995	14	C14H12N2+
208.1102	2	C15H14N+
209.0723	3	C13H9N2O+
209.0837	15	C14H11NO+
209.1077	4	C14H13N2+
209.1201	2	C15H15N+
210.0796	5	C13H10N2O+
210.0913	73	C14H12NO+
210.1152	5	C14H14N2+
211.0867	28	C13H11N2O+
211.0992	9	C14H13NO+
212.0948	6	C13H12N2O+
212.1072	16	C14H14NO+
213.1018	4	C13H13N2O+
214.0861	22	C13H12NO2+
216.0817	2	C16H10N+
217.0884	9	C16H11N+
218.0845	3	C15H10N2+
218.0965	14	C16H12N+
219.0675	4	C15H9NO+
219.0919	9	C15H11N2+
219.1042	7	C16H13N+
220.0757	21	C15H10NO+
220.0998	5	C15H12N2+
220.1122	8	C16H14N+
221.0721	2	C14H9N2O+
221.0835	6	C15H11NO+
221.1072	11	C15H13N2+
221.12	11	C16H15N+
222.0791	6	C14H10N2O+
222.0916	14	C15H12NO+
222.1153	6	C15H14N2+
223.0866	5	C14H11N2O+
223.0994	10	C15H13NO+
224.0946	6	C14H12N2O+
224.1069	36	C15H14NO+
225.1027	15	C14H13N2O+
225.1146	3	C15H15NO+
226.1226	12	C15H16NO+
227.1178	4	C14H15N2O+
230.0972	4	C17H12N+
231.1044	3	C17H13N+
232.0755	3	C16H10NO+
232.1011	2	C16H12N2+
232.1115	10	C17H14N+
233.0844	2	C16H11NO+
233.1197	3	C17H15N+
234.0913	16	C16H12NO+
234.1154	6	C16H14N2+
234.1277	1	C17H16N+
235.0866	12	C15H11N2O+
235.0993	4	C16H13NO+
235.1228	3	C16H15N2+
235.1358	4	C17H17N+
236.0944	9	C15H12N2O+
236.1072	17	C16H14NO+
237.1023	36	C15H13N2O+
237.1147	2	C16H15NO+
238.1108	2	C15H14N2O+
238.1225	11	C16H16NO+
239.1182	5	C15H15N2O+
246.0914	3	C17H12NO+
247.0993	2	C17H13NO+
247.1228	2	C17H15N2+
248.0945	3	C16H12N2O+
248.1072	16	C17H14NO+
249.1024	12	C16H13N2O+
249.1147	3	C17H15NO+
250.1094	5	C16H14N2O+
250.1229	16	C17H16NO+
251.1178	70	C16H15N2O+
252.1258	4	C16H16N2O+
252.1395	3	C17H18NO+
253.1332	12	C16H17N2O+
260.1072	3	C18H14NO+
262.123	11	C18H16NO+
263.1177	9	C17H15N2O+
263.1546	2	C18H19N2+
264.138	10	C18H18NO+
265.1334	16	C17H17N2O+
266.1549	3	C18H20NO+
274.1234	2	C19H16NO+
277.1338	6	C18H17N2O+
279.1492	4	C18H19N2O+
291.1492	3	C19H19N2O+
307.1794	4	C20H23N2O+
