Mass spectrum: SSR161421; LC-ESI-QFT; MS2; CE: 90; R=17500; [M-H]-
Name: SSR161421
Name: N-[4-(benzylamino)-3-cyanoquinolin-2-yl]-4-methoxybenzamide
Formula: C25H20N4O2
Exact mass: 408.1586
SMILES: COC1=CC=C(C=C1)C(=O)NC1=C(C#N)C(NCC2=CC=CC=C2)=C2C=CC=CC2=N1
InChI: InChI=1S/C25H20N4O2/c1-31-19-13-11-18(12-14-19)25(30)29-24-21(15-26)23(20-9-5-6-10-22(20)28-24)27-16-17-7-3-2-4-8-17/h2-14H,16H2,1H3,(H2,27,28,29,30)
Instrument: Q Exactive Orbitrap (Thermo Scientific)
Instrument type: LC-ESI-QFT
Ms type: MS2
Ion mode: NEGATIVE
Ionization: ESI
Fragmentation mode: HCD
Collision energy: 90
Resolution: 17500
Column name: Acquity BEH C18 1.7um, 2.1x150mm (Waters)
Retention time: 16.904 min
Base peak: 350.0275
Precursor m/z: 407.1513
Precursor type: [M-H]-
Precursor intensity: 19069366.8291
m/z	relative intensity	assigned
50.0036	3	C3N-
64.0067	69	C3N2-
65.0145	869	C3HN2-
65.9985	254	C3NO-
80.0016	3	C3N2O-
90.0098	53	C4N3-
93.0346	157	C6H5O-
95.0139	10	C5H3O2-
102.035	14	C7H4N-
108.0216	6	C6H4O2-
115.0303	24	C7H3N2-
117.0458	42	C7H5N2-
118.0298	179	C7H4NO-
126.035	3	C9H4N-
127.0302	17	C8H3N2-
128.038	30	C8H4N2-
128.0504	18	C9H6N-
130.0298	7	C8H4NO-
131.0376	16	C8H5NO-
139.0299	17	C9H3N2-
140.0254	41	C8H2N3-
141.0333	10	C8H3N3-
141.0458	97	C9H5N2-
142.041	236	C8H4N3-
145.0408	4	C8H5N2O-
152.0254	19	C9H2N3-
153.0335	13	C9H3N3-
155.0251	40	C9H3N2O-
155.0488	10	C9H5N3-
156.0329	509	C9H4N2O-
159.0326	8	C9H5NO2-
160.0275	6	C8H4N2O2-
166.041	335	C10H4N3-
168.0567	72	C10H6N3-
169.0409	4	C10H5N2O-
170.0361	14	C9H4N3O-
180.0441	999	C10H4N4-
181.0283	4	C10H3N3O-
181.0515	16	C10H5N4-
182.036	162	C10H4N3O-
183.0201	22	C10H3N2O2-
193.0517	11	C11H5N4-
194.0362	3	C11H4N3O-
195.0678	11	C11H7N4-
204.069	32	C14H8N2-
207.0312	649	C11H3N4O-
209.0469	50	C11H5N4O-
217.0767	21	C15H9N2-
218.0613	5	C15H8NO-
218.0724	10	C14H8N3-
219.0567	9	C14H7N2O-
222.0583	3	C14H8NO2-
228.0695	17	C16H8N2-
229.0644	282	C15H7N3-
230.0727	3	C15H8N3-
231.0575	16	C15H7N2O-
231.08	35	C15H9N3-
232.0643	27	C15H8N2O-
233.0485	4	C15H7NO2-
233.0719	11	C15H9N2O-
234.044	4	C14H6N2O2-
234.0561	6	C15H8NO2-
235.0511	20	C14H7N2O2-
242.0727	4	C16H8N3-
244.0878	84	C16H10N3-
245.0592	59	C15H7N3O-
245.0827	4	C15H9N4-
246.0676	4	C15H8N3O-
255.0802	33	C17H9N3-
257.0595	128	C16H7N3O-
258.0669	15	C16H8N3O-
259.0509	17	C16H7N2O2-
260.0816	4	C16H10N3O-
261.0669	15	C16H9N2O2-
271.0627	26	C16H7N4O-
271.099	22	C17H11N4-
272.0703	132	C16H8N4O-
273.0542	34	C16H7N3O2-
286.0623	68	C17H8N3O2-
288.0782	4	C17H10N3O2-
298.0483	7	C17H6N4O2-
299.0574	54	C17H7N4O2-
300.066	12	C17H8N4O2-
362.0948	6	C23H12N3O2-
