Mass spectrum: Pravastatin; LC-ESI-QFT; MS2; CE: 15; R=17500; [M-H]-
Name: Pravastatin
Name: (3R,5R)-7-[(1S,2S,6S,8S,8aR)-6-hydroxy-2-methyl-8-[(2S)-2-methylbutanoyl]oxy-1,2,6,7,8,8a-hexahydronaphthalen-1-yl]-3,5-dihydroxyheptanoic acid
Formula: C23H36O7
Exact mass: 424.2461
SMILES: CC[C@H](C)C(=O)O[C@H]1C[C@H](O)C=C2C=C[C@H](C)[C@H](CC[C@@H](O)C[C@@H](O)CC(O)=O)[C@H]21
InChI: InChI=1S/C23H36O7/c1-4-13(2)23(29)30-20-11-17(25)9-15-6-5-14(3)19(22(15)20)8-7-16(24)10-18(26)12-21(27)28/h5-6,9,13-14,16-20,22,24-26H,4,7-8,10-12H2,1-3H3,(H,27,28)/t13-,14-,16+,17+,18+,19-,20-,22-/m0/s1
Instrument: Q Exactive Orbitrap (Thermo Scientific)
Instrument type: LC-ESI-QFT
Ms type: MS2
Ion mode: NEGATIVE
Ionization: ESI
Fragmentation mode: HCD
Collision energy: 15
Resolution: 17500
Column name: Acquity BEH C18 1.7um, 2.1x150mm (Waters)
Retention time: 16.416 min
Base peak: 187.134
Precursor m/z: 423.2388
Precursor type: [M-H]-
Precursor intensity: 6323840.671875
m/z	relative intensity	assigned
57.0345	2	C3H5O-
59.0138	415	C2H3O2-
85.0295	153	C4H5O2-
101.0608	318	C5H9O2-
141.071	14	C11H9-
199.1128	41	C14H15O-
217.1232	6	C14H17O2-
225.1278	2	C16H17O-
243.0688	3	C14H11O4-
267.1391	2	C18H19O2-
285.1496	25	C18H21O3-
287.059	30	C15H11O6-
303.1603	662	C18H23O4-
321.1708	999	C18H25O5-
