Mass spectrum: Flutolanil; LC-ESI-QFT; MS2; CE: 75; R=17500; [M-H]-
Name: Flutolanil
Name: N-(3-propan-2-yloxyphenyl)-2-(trifluoromethyl)benzamide
Formula: C17H16F3NO2
Exact mass: 323.1133
SMILES: CC(C)OC1=CC(NC(=O)C2=C(C=CC=C2)C(F)(F)F)=CC=C1
InChI: InChI=1S/C17H16F3NO2/c1-11(2)23-13-7-5-6-12(10-13)21-16(22)14-8-3-4-9-15(14)17(18,19)20/h3-11H,1-2H3,(H,21,22)
Instrument: Q Exactive Orbitrap (Thermo Scientific)
Instrument type: LC-ESI-QFT
Ms type: MS2
Ion mode: NEGATIVE
Ionization: ESI
Fragmentation mode: HCD
Collision energy: 75
Resolution: 17500
Column name: Acquity BEH C18 1.7um, 2.1x150mm (Waters)
Retention time: 17.426 min
Base peak: 456.1333
Precursor m/z: 322.106
Precursor type: [M-H]-
Precursor intensity: 26085116.89844
m/z	relative intensity	assigned
57.0345	1	C3H5O-
68.9958	208	CF3-
75.0241	2	C6H3-
85.0085	1	C7H-
91.0189	9	C6H3O-
105.0146	22	C7H2F-
118.0302	1	C7H4NO-
120.0253	2	C7H3FN-
125.0209	29	C7H3F2-
134.0248	178	C7H4NO2-
145.0272	999	C7H4F3-
146.0248	5	C8H4NO2-
148.0203	1	C8H3FNO-
164.0506	6	C12H6N-
189.0171	42	C8H4F3O2-
192.0458	10	C13H6NO-
210.0363	5	C13H5FNO-
212.0521	9	C13H7FNO-
220.0404	13	C14H6NO2-
240.0471	8	C14H7FNO2-
258.0379	2	C14H6F2NO2-
