Mass spectrum: PharmaGSID_48505; LC-ESI-QFT; MS2; CE: 45; R=17500; [M+H]+
Name: PharmaGSID_48505
Name: 5-(2-chlorophenyl)-3-methyl-7-nitro-1,2-dihydropyrazolo[3,4-b][1,4]benzodiazepine
Formula: C17H12ClN5O2
Exact mass: 353.0680
SMILES: CC1=C2N=C(C3=CC=CC=C3Cl)C3=C(NC2=NN1)C=CC(=C3)[N+]([O-])=O
InChI: InChI=1S/C17H12ClN5O2/c1-9-15-17(22-21-9)19-14-7-6-10(23(24)25)8-12(14)16(20-15)11-4-2-3-5-13(11)18/h2-8H,1H3,(H2,19,21,22)
Instrument: Q Exactive Orbitrap (Thermo Scientific)
Instrument type: LC-ESI-QFT
Ms type: MS2
Ion mode: POSITIVE
Ionization: ESI
Fragmentation mode: HCD
Collision energy: 45
Resolution: 17500
Column name: Acquity BEH C18 1.7um, 2.1x150mm (Waters)
Retention time: 17.626 min
Base peak: 79.0212
Precursor m/z: 354.0752
Precursor type: [M+H]+
Precursor intensity: 3780653.875
m/z	relative intensity	assigned
70.0524	5	C3H6N2+
96.0555	3	C4H6N3+
123.0238	5	C10H3+
125.0151	7	C7H6Cl+
154.0524	3	C10H6N2+
165.0704	2	C13H9+
168.0683	3	C11H8N2+
169.0634	4	C10H7N3+
174.023	2	C11H7Cl+
183.0665	2	C10H7N4+
184.0741	13	C10H8N4+
186.0422	4	C10H6N2O2+
190.0649	2	C14H8N+
195.0666	65	C11H7N4+
196.0744	123	C11H8N4+
198.023	5	C13H7Cl+
199.0619	3	C7H10ClN5+
200.0577	3	C10H13ClO2+
202.018	13	C12H7ClO+
204.0687	11	C14H8N2+
204.0785	2	C15H10N+
205.0761	38	C14H9N2+
213.034	24	C13H8ClN+
214.0416	2	C13H9ClN+
216.0643	3	C9H13ClN2O2+
217.0751	2	C15H9N2+
219.0921	3	C15H11N2+
220.0862	3	C14H10N3+
221.0709	3	C14H9N2O+
225.0341	21	C14H8ClN+
225.0642	16	C11H7N5O+
228.064	122	C8H11ClN5O+
229.0592	12	C10H7N5O2+
229.073	3	C16H9N2+
230.0712	14	C15H8N3+
231.0791	2	C15H9N3+
232.0871	19	C15H10N3+
238.0291	2	C14H7ClN2+
239.037	47	C14H8ClN2+
240.0446	17	C17H6NO+
242.0673	40	C11H8N5O2+
243.0913	3	C17H11N2+
245.1077	18	C17H13N2+
246.1026	18	C16H12N3+
253.0523	3	C15H10ClN2+
256.0867	25	C17H10N3+
258.0896	6	C16H10N4+
260.1062	2	C16H12N4+
261.1135	84	C16H13N4+
264.0324	2	C15H7ClN3+
265.0521	3	C16H10ClN2+
266.0481	15	C15H9ClN3+
267.0559	4	C15H10ClN3+
271.0973	11	C17H11N4+
272.0349	3	C14H9ClN2O2+
272.1055	38	C17H12N4+
273.1134	235	C17H13N4+
276.1011	23	C16H12N4O+
278.0789	2	C15H10N4O2+
279.0683	14	C17H12ClN2+
281.073	10	C16H12ClN3+
287.0924	2	C17H11N4O+
288.1002	3	C17H12N4O+
289.1083	43	C17H13N4O+
290.0479	15	C17H9ClN3+
291.0557	3	C17H10ClN3+
292.0633	9	C17H11ClN3+
293.0588	7	C16H10ClN4+
295.0745	4	C16H12ClN4+
299.0452	5	C15H10ClN3O2+
304.095	4	C17H12N4O2+
307.0744	629	C17H12ClN4+
308.0823	473	C17H13ClN4+
311.0693	124	C16H12ClN4O+
312.0769	14	C16H13ClN4O+
313.0616	20	C16H12ClN3O2+
318.0988	5	C17H12N5O2+
319.1065	40	C17H13N5O2+
323.0692	36	C17H12ClN4O+
327.0633	14	C16H12ClN4O2+
337.0736	4	C17H12ClN5O+
340.0722	999	C17H13ClN4O2+
354.0752	586	C17H13ClN5O2+
