Mass spectrum: 4-Cyanobenzoic acid; LC-ESI-QFT; MS2; CE: 30; R=17500; [M-H]-
Name: 4-Cyanobenzoic acid
Formula: C8H5NO2
Exact mass: 147.0320
SMILES: OC(=O)C1=CC=C(C=C1)C#N
InChI: InChI=1S/C8H5NO2/c9-5-6-1-3-7(4-2-6)8(10)11/h1-4H,(H,10,11)
Instrument: Q Exactive Orbitrap (Thermo Scientific)
Instrument type: LC-ESI-QFT
Ms type: MS2
Ion mode: NEGATIVE
Ionization: ESI
Fragmentation mode: HCD
Collision energy: 30
Resolution: 17500
Column name: Acquity BEH C18 1.7um, 2.1x150mm (Waters)
Retention time: 13.304 min
Base peak: 112.9857
Precursor m/z: 146.0248
Precursor type: [M-H]-
Precursor intensity: 1110790.083008
m/z	relative intensity	assigned
102.035	999	C7H4N-
146.0248	86	C8H4NO2-
