Mass spectrum: Amoxapine; LC-ESI-QFT; MS2; CE: 75; R=17500; [M+H]+
Name: Amoxapine
Name: 8-chloro-6-piperazin-1-ylbenzo[b][1,4]benzoxazepine
Formula: C17H16ClN3O
Exact mass: 313.0982
SMILES: ClC1=CC=C2OC3=C(C=CC=C3)N=C(N3CCNCC3)C2=C1
InChI: InChI=1S/C17H16ClN3O/c18-12-5-6-15-13(11-12)17(21-9-7-19-8-10-21)20-14-3-1-2-4-16(14)22-15/h1-6,11,19H,7-10H2
Instrument: Q Exactive Orbitrap (Thermo Scientific)
Instrument type: LC-ESI-QFT
Ms type: MS2
Ion mode: POSITIVE
Ionization: ESI
Fragmentation mode: HCD
Collision energy: 75
Resolution: 17500
Column name: Acquity BEH C18 1.7um, 2.1x150mm (Waters)
Retention time: 15.206 min
Base peak: 79.0211
Precursor m/z: 314.1055
Precursor type: [M+H]+
Precursor intensity: 23102839.5
m/z	relative intensity	assigned
53.0022	2	C3HO+
53.0386	4	C4H5+
55.0417	1	C3H5N+
56.0495	7	C3H6N+
58.0652	1	C3H8N+
65.0385	7	C5H5+
68.0494	11	C4H6N+
70.0651	249	C4H8N+
71.0603	26	C3H7N2+
79.0542	11	C6H7+
80.0494	3	C5H6N+
83.0603	1	C4H7N2+
84.0682	2	C4H8N2+
85.0759	2	C4H9N2+
91.0543	6	C7H7+
92.0257	1	C6H4O+
92.0495	1	C6H6N+
92.0621	3	C7H8+
93.0573	19	C6H7N+
95.0492	5	C6H7O+
104.0495	38	C7H6N+
105.0447	3	C6H5N2+
106.0651	10	C7H8N+
107.049	2	C7H7O+
108.0444	1	C6H6NO+
111.0439	2	C3H10ClNO+
116.0496	1	C8H6N+
117.0573	4	C8H7N+
118.0651	45	C8H8N+
119.073	24	C8H9N+
120.0443	2	C7H6NO+
125.0152	2	C7H6Cl+
125.9865	4	C6H3ClO+
128.0495	1	C9H6N+
130.0652	2	C9H8N+
134.0602	2	C8H8NO+
140.0495	6	C10H6N+
143.0601	1	C9H7N2+
144.0808	2	C10H10N+
149.0153	4	C9H6Cl+
150.0105	1	C8H5ClN+
152.0621	1	C12H8+
153.0572	1	C11H7N+
153.0701	1	C12H9+
154.0054	3	C7H5ClNO+
162.023	1	C10H7Cl+
164.0494	126	C12H6N+
165.0574	13	C12H7N+
165.0699	2	C13H9+
166.0651	3	C12H8N+
167.073	13	C12H9N+
168.0443	1	C11H6NO+
168.0569	2	C12H8O+
169.0524	1	C11H7NO+
169.0644	1	C12H9O+
173.0153	24	C11H6Cl+
174.0104	11	C10H5ClN+
177.0577	1	C13H7N+
178.0652	1	C13H8N+
179.0599	3	C12H7N2+
179.0728	2	C13H9N+
180.068	5	C12H8N2+
180.0808	15	C13H10N+
181.0764	1	C12H9N2+
181.0885	10	C13H11N+
182.0602	1	C12H8NO+
182.0839	1	C12H10N2+
183.0678	5	C12H9NO+
190.0652	4	C14H8N+
191.0375	1	C10H8ClN2+
191.0732	9	C14H9N+
192.0444	5	C13H6NO+
192.068	2	C13H8N2+
192.0809	4	C14H10N+
193.0523	999	C13H7NO+
194.0599	3	C13H8NO+
195.068	2	C13H9NO+
195.0911	1	C13H11N2+
196.0391	1	C9H9ClN2O+
196.0757	1	C13H10NO+
199.031	2	C13H8Cl+
200.0262	137	C12H7ClN+
201.0339	8	C12H8ClN+
202.0177	1	C12H7ClO+
202.0412	1	C15H6O+
203.0372	1	C11H8ClN2+
204.0211	2	C11H7ClNO+
205.0527	3	C11H10ClN2+
205.0764	6	C14H9N2+
206.0599	1	C14H8NO+
206.084	14	C14H10N2+
206.0953	1	C15H12N+
207.0916	30	C14H11N2+
208.0755	3	C14H10NO+
208.0994	30	C14H12N2+
209.0834	12	C14H11NO+
210.0549	32	C10H11ClN2O+
211.0628	1	C10H12ClN2O+
214.018	1	C13H7ClO+
214.0302	1	C12H7ClN2+
214.0417	6	C13H9ClN+
215.0136	1	C12H6ClNO+
215.0255	3	C13H8ClO+
215.0369	3	C12H8ClN2+
216.0209	2	C12H7ClNO+
216.0448	1	C12H9ClN2+
216.0573	2	C13H11ClN+
218.0367	7	C12H9ClNO+
218.0827	3	C15H10N2+
219.0677	8	C15H9NO+
219.0917	2	C15H11N2+
220.0507	22	C13H6N3O+
220.0756	7	C15H10NO+
226.0417	1	C14H9ClN+
227.0129	4	C13H6ClNO+
227.0369	2	C13H8ClN2+
228.0211	158	C13H7ClNO+
229.0166	1	C12H6ClN2O+
229.0287	6	C13H8ClNO+
229.0525	2	C13H10ClN2+
230.0369	13	C13H9ClNO+
232.0989	2	C16H12N2+
233.107	4	C16H13N2+
234.0785	4	C15H10N2O+
234.0914	1	C16H12NO+
235.0866	63	C15H11N2O+
236.0944	6	C15H12N2O+
239.0374	2	C14H8ClN2+
240.0208	1	C14H7ClNO+
240.0445	1	C17H6NO+
241.0297	4	C14H8ClNO+
241.0523	8	C17H7NO+
242.0372	1	C14H9ClNO+
242.0603	10	C14H11ClN2+
243.0449	1	C14H10ClNO+
243.0685	7	C14H12ClN2+
244.0391	1	C13H9ClN2O+
244.0522	11	C14H11ClNO+
245.0477	7	C13H10ClN2O+
253.0525	8	C15H10ClN2+
254.0237	14	C14H7ClN2O+
254.0367	22	C15H9ClNO+
254.06	1	C15H11ClN2+
255.0319	3	C14H8ClN2O+
255.0448	1	C15H10ClNO+
256.0399	4	C14H9ClN2O+
256.0521	1	C15H11ClNO+
257.0469	1	C14H10ClN2O+
261.1023	10	C17H13N2O+
267.0679	1	C16H12ClN2+
268.076	1	C16H13ClN2+
269.0474	11	C15H10ClN2O+
269.0828	1	C16H14ClN2+
270.0535	1	C15H11ClN2O+
270.0683	2	C16H13ClNO+
271.0632	253	C15H12ClN2O+
281.0477	7	C16H10ClN2O+
282.0554	8	C16H11ClN2O+
295.0632	9	C17H12ClN2O+
297.0789	25	C17H14ClN2O+
