Mass spectrum: N2-(4-Nitrophenyl)-L-glutamine; LC-ESI-QFT; MS2; CE: 45; R=17500; [M-H]-
Name: N2-(4-Nitrophenyl)-L-glutamine
Name: (2S)-5-amino-2-(4-nitroanilino)-5-oxopentanoic acid
Formula: C11H13N3O5
Exact mass: 267.0855
SMILES: NC(=O)CC[C@H](NC1=CC=C(C=C1)[N+]([O-])=O)C(O)=O
InChI: InChI=1S/C11H13N3O5/c12-10(15)6-5-9(11(16)17)13-7-1-3-8(4-2-7)14(18)19/h1-4,9,13H,5-6H2,(H2,12,15)(H,16,17)/t9-/m0/s1
Instrument: Q Exactive Orbitrap (Thermo Scientific)
Instrument type: LC-ESI-QFT
Ms type: MS2
Ion mode: NEGATIVE
Ionization: ESI
Fragmentation mode: HCD
Collision energy: 45
Resolution: 17500
Column name: Acquity BEH C18 1.7um, 2.1x150mm (Waters)
Retention time: 11.224 min
Base peak: 266.0782
Precursor m/z: 266.0782
Precursor type: [M-H]-
Precursor intensity: 2826013.82605
m/z	relative intensity	assigned
82.0297	5	C4H4NO-
84.0455	2	C4H6NO-
107.0375	23	C6H5NO-
122.0247	3	C6H4NO2-
128.0352	238	C5H6NO3-
137.0355	999	C6H5N2O2-
177.067	2	C9H9N2O2-
191.046	2	C9H7N2O3-
204.0775	4	C10H10N3O2-
222.0885	1	C10H12N3O3-
