Mass spectrum: UK-416244; LC-ESI-QFT; MS2; CE: 75; R=17500; [M+H]+
Name: UK-416244
Name: 3-((Dimethylamino)methyl)-4-(3-methyl-4-(methylthio)phenoxy)benzenesulfonamide
Name: 3-[(dimethylamino)methyl]-4-(3-methyl-4-methylsulfanylphenoxy)benzenesulfonamide
Formula: C17H22N2O3S2
Exact mass: 366.1072
SMILES: CSC1=CC=C(OC2=CC=C(C=C2CN(C)C)S(N)(=O)=O)C=C1C
InChI: InChI=1S/C17H22N2O3S2/c1-12-9-14(5-8-17(12)23-4)22-16-7-6-15(24(18,20)21)10-13(16)11-19(2)3/h5-10H,11H2,1-4H3,(H2,18,20,21)
Instrument: Q Exactive Orbitrap (Thermo Scientific)
Instrument type: LC-ESI-QFT
Ms type: MS2
Ion mode: POSITIVE
Ionization: ESI
Fragmentation mode: HCD
Collision energy: 75
Resolution: 17500
Column name: Acquity BEH C18 1.7um, 2.1x150mm (Waters)
Retention time: 13.853 min
Base peak: 79.0212
Precursor m/z: 367.1145
Precursor type: [M+H]+
Precursor intensity: 15799656.75
m/z	relative intensity	assigned
63.9851	1	H2NOS+
67.0542	1	C5H7+
94.0651	2	C6H8N+
95.0491	1	C6H7O+
115.0544	1	C9H7+
122.0599	4	C7H8NO+
141.0698	7	C11H9+
152.0619	14	C12H8+
153.0699	2	C12H9+
156.0568	3	C11H8O+
156.0808	1	C11H10N+
165.0699	40	C13H9+
166.0777	18	C13H10+
167.073	1	C12H9N+
167.0855	4	C13H11+
168.0569	21	C12H8O+
169.0647	18	C12H9O+
170.0724	2	C12H10O+
179.049	32	C13H7O+
180.0569	125	C13H8O+
181.0647	12	C13H9O+
182.0725	16	C13H10O+
183.0439	2	C12H7O2+
183.0679	1	C12H9NO+
183.0804	8	C13H11O+
184.034	1	C12H8S+
184.0519	5	C12H8O2+
184.0756	20	C12H10NO+
186.0222	1	C7H8NO3S+
193.0648	25	C14H9O+
194.0726	193	C14H10O+
195.0804	428	C14H11O+
196.0524	2	C13H8O2+
196.0757	19	C13H10NO+
197.0597	74	C13H9O2+
198.0676	12	C13H10O2+
198.0911	13	C13H12NO+
199.0576	1	C13H11S+
209.0834	1	C14H11NO+
210.0674	2	C14H10O2+
210.0913	14	C14H12NO+
211.0753	45	C14H11O2+
212.0304	17	C13H8OS+
212.0467	320	C13H8O3+
225.0366	4	C14H9OS+
225.0547	3	C14H9O3+
226.0452	30	C11H14OS2+
226.0623	419	C14H10O3+
227.0523	52	C14H11OS+
228.0242	1	C13H8O2S+
228.0662	1	C13H10NO3+
240.0602	1	C15H12OS+
241.068	60	C15H13OS+
242.0395	7	C14H10O2S+
243.0477	1	C14H11O2S+
244.0181	2	C13H8O3S+
257.0265	1	C14H9O3S+
258.0347	11	C14H10O3S+
259.0287	1	C13H9NO3S+
259.0425	2	C14H11O3S+
260.0375	999	C13H10NO3S+
261.045	1	C13H11NO3S+
272.0501	2	C15H12O3S+
273.0451	2	C14H11NO3S+
274.053	783	C14H12NO3S+
291.0017	2	C13H9NO3S2+
292.0096	8	C13H10NO3S2+
305.0174	6	C14H11NO3S2+
306.0251	24	C14H12NO3S2+
