Mass spectrum: Fluorosalan; LC-ESI-QFT; MS2; CE: 60; R=17500; [M-H]-
Name: Fluorosalan
Name: 3,5-dibromo-2-hydroxy-N-[3-(trifluoromethyl)phenyl]benzamide
Formula: C14H8Br2F3NO2
Exact mass: 436.8874
SMILES: OC1=C(C=C(Br)C=C1Br)C(=O)NC1=CC(=CC=C1)C(F)(F)F
InChI: InChI=1S/C14H8Br2F3NO2/c15-8-5-10(12(21)11(16)6-8)13(22)20-9-3-1-2-7(4-9)14(17,18)19/h1-6,21H,(H,20,22)
Instrument: Q Exactive Orbitrap (Thermo Scientific)
Instrument type: LC-ESI-QFT
Ms type: MS2
Ion mode: NEGATIVE
Ionization: ESI
Fragmentation mode: HCD
Collision energy: 60
Resolution: 17500
Column name: Acquity BEH C18 1.7um, 2.1x150mm (Waters)
Retention time: 20.723 min
Base peak: 437.8779
Precursor m/z: 435.8801
Precursor type: [M-H]-
Precursor intensity: 44004957.83594
m/z	relative intensity	assigned
78.9188	999	Br-
89.0032	12	C6HO-
120.0255	1	C7H3FN-
160.0379	49	C7H5F3N-
161.0222	2	C7H4F3O-
168.9294	146	C6H2BrO-
246.8398	3	C6HBr2O-
248.8555	33	C6H3Br2O-
