Mass spectrum: 4,4`-Sulfonyldiphenol; LC-ESI-QFT; MS2; CE: 60; R=17500; [M+H]+
Name: 4,4'-Sulfonyldiphenol
Name: 4-(4-hydroxyphenyl)sulfonylphenol
Formula: C12H10O4S
Exact mass: 250.0300
SMILES: OC1=CC=C(C=C1)S(=O)(=O)C1=CC=C(O)C=C1
InChI: InChI=1S/C12H10O4S/c13-9-1-5-11(6-2-9)17(15,16)12-7-3-10(14)4-8-12/h1-8,13-14H
Instrument: Q Exactive Orbitrap (Thermo Scientific)
Instrument type: LC-ESI-QFT
Ms type: MS2
Ion mode: POSITIVE
Ionization: ESI
Fragmentation mode: HCD
Collision energy: 60
Resolution: 17500
Column name: Acquity BEH C18 1.7um, 2.1x150mm (Waters)
Retention time: 13.605 min
Base peak: 79.0211
Precursor m/z: 251.0373
Precursor type: [M+H]+
Precursor intensity: 2224754.625
m/z	relative intensity	assigned
51.023	4	C4H3+
53.0022	12	C3HO+
53.0387	8	C4H5+
55.0179	42	C3H3O+
61.0106	41	C2H5S+
65.0386	999	C5H5+
68.9971	26	C3HO2+
69.0335	10	C4H5O+
71.0128	28	C3H3O2+
79.0179	16	C5H3O+
81.0335	46	C5H5O+
83.0127	5	C4H3O2+
93.0335	45	C6H5O+
94.0414	44	C6H6O+
95.0493	6	C6H7O+
97.0287	6	C5H5O2+
109.0285	592	C6H5O2+
110.0363	17	C6H6O2+
111.0441	796	C6H7O2+
122.0367	10	C7H6O2+
141	6	C6H5O2S+
156.9955	193	C6H5O3S+
