Mass spectrum: Dinitramine; LC-ESI-QFT; MS2; CE: 75; R=17500; [M-H]-
Name: Dinitramine
Formula: C11H13F3N4O4
Exact mass: 322.0889
SMILES: CCN(CC)C1=C(C=C(C(N)=C1[N+]([O-])=O)C(F)(F)F)[N+]([O-])=O
InChI: InChI=1S/C11H13F3N4O4/c1-3-16(4-2)9-7(17(19)20)5-6(11(12,13)14)8(15)10(9)18(21)22/h5H,3-4,15H2,1-2H3
Instrument: Q Exactive Orbitrap (Thermo Scientific)
Instrument type: LC-ESI-QFT
Ms type: MS2
Ion mode: NEGATIVE
Ionization: ESI
Fragmentation mode: HCD
Collision energy: 75
Resolution: 17500
Column name: Acquity BEH C18 1.7um, 2.1x150mm (Waters)
Retention time: 18.942 min
Base peak: 321.0815
Precursor m/z: 321.0816
Precursor type: [M-H]-
Precursor intensity: 23487678.62109
m/z	relative intensity	assigned
50.0035	53	C3N-
57.9935	22	CNO2-
59.0138	49	C2H3O2-
64.0067	125	C3N2-
64.0193	36	C4H2N-
65.0145	450	C3HN2-
65.9986	999	C3NO-
68.0142	13	C3H2NO-
68.9958	103	CF3-
70.9939	49	C3FO-
74.0037	227	C5N-
76.0004	13	C2F2N-
76.0068	13	C4N2-
76.0192	11	C5H2N-
77.0145	23	C4HN2-
80.0017	19	C3N2O-
81.0021	32	C4FN-
82.0098	22	C4HFN-
86.0037	9	C6N-
87.0114	24	C6HN-
88.0005	752	C3F2N-
88.0067	405	C5N2-
88.0192	64	C6H2N-
89.0146	346	C5HN2-
89.9986	191	C5NO-
90.0098	76	C4N3-
90.0349	54	C6H4N-
91.0301	27	C5H3N2-
92.0255	23	C4H2N3-
92.9958	51	C3F3-
93.0095	12	C4HN2O-
94.0045	8	C3N3O-
94.0099	28	C5HFN-
94.9939	9	C5FO-
95.0052	49	C4FN2-
98.0038	18	C7N-
100.0005	123	C4F2N-
100.0067	16	C6N2-
100.0194	28	C7H2N-
101.0146	138	C6HN2-
102.0099	41	C5N3-
103.9954	72	C3F2NO-
104.0015	14	C5N2O-
106.0098	22	C6HFN-
106.0173	15	C5H2N2O-
106.0411	11	C5H4N3-
107.0051	196	C5FN2-
107.0251	14	C5H3N2O-
108.0066	26	C3HF3N-
108.0255	17	C6H3FN-
108.9906	63	C3F3O-
108.9969	76	C5FNO-
109.0207	27	C5H2FN2-
111	67	C4FN2O-
112.0005	438	C5F2N-
112.0068	89	C7N2-
113.0145	94	C7HN2-
114.0098	306	C6N3-
115.0177	23	C6HN3-
115.0302	144	C7H3N2-
116.0143	9	C7H2NO-
116.0254	88	C6H2N3-
116.9959	13	C5F3-
117.0095	30	C6HN2O-
117.0206	48	C5HN4-
118.0107	9	C4H2F2NO-
119.0051	115	C6FN2-
119.0254	51	C6H3N2O-
120.0067	37	C4HF3N-
120.0207	16	C5H2N3O-
121.008	9	C5FN3-
121.0207	32	C6H2FN2-
121.0281	10	C5H3N3O-
122.0049	21	C6HFNO-
124.0005	67	C6F2N-
124.008	9	C5HFN2O-
125.0146	31	C8HN2-
126.0035	75	C5F2N2-
126.0097	97	C7N3-
126.0153	13	CHF3N4-
127.0119	19	C5HF2N2-
127.0176	114	C7HN3-
127.0301	33	C8H3N2-
127.9953	26	C5F2NO-
128.0256	43	C7H2N3-
128.0379	12	C8H4N2-
129.0334	31	C7H3N3-
129.046	16	C8H5N2-
130.0173	19	C7H2N2O-
130.0286	18	C6H2N4-
130.041	38	C7H4N3-
130.9988	316	C5F3N-
131.0049	94	C7FN2-
131.0363	78	C6H3N4-
132.0068	25	C5HF3N-
132.0204	10	C6H2N3O-
132.0326	13	C7H4N2O-
133.0021	116	C4F3N2-
133.0076	17	C6FN3-
133.0209	74	C7H2FN2-
133.0406	21	C7H5N2O-
134.0048	28	C7HFNO-
135.0001	39	C6FN2O-
135.0364	25	C7H4FN2-
136.0016	77	C4HF3NO-
136.0204	103	C7H3FNO-
137.0155	17	C6H2FN2O-
138.0098	72	C8N3-
139.0115	162	C6HF2N2-
139.0171	14	C8HN3-
139.0303	13	C9H3N2-
139.9955	22	C6F2NO-
140.0255	193	C8H2N3-
141.0208	41	C7HN4-
141.0334	13	C8H3N3-
141.0461	14	C9H5N2-
142.0046	9	C7N3O-
142.0409	90	C8H4N3-
143.0052	9	C8FN2-
143.0252	59	C8H3N2O-
144.0067	124	C6HF3N-
144.0203	34	C7H2N3O-
145.002	111	C5F3N2-
145.0079	18	C7FN3-
145.0213	11	C8H2FN2-
146.0097	55	C5HF3N2-
146.016	75	C7HFN3-
146.0289	13	C8H3FN2-
146.9937	35	C5F3NO-
146.9999	19	C7FN2O-
147.0238	121	C7H2FN3-
147.0363	13	C8H4FN2-
148.0079	30	C7HFN2O-
148.0315	14	C7H3FN3-
149.0029	18	C6FN3O-
150.0035	29	C7F2N2-
151.0114	83	C7HF2N2-
151.9954	25	C7F2NO-
152.013	25	C8N4-
152.0255	40	C9H2N3-
153.0268	15	C7H3F2N2-
153.0332	15	C9H3N3-
154.0109	13	C7H2F2NO-
154.0287	58	C8H2N4-
154.0411	44	C9H4N3-
154.9989	31	C7F3N-
155.0061	19	C6HF2N2O-
155.0126	75	C8HN3O-
155.0248	14	C9H3N2O-
155.0363	80	C8H3N4-
156.0201	28	C8H2N3O-
156.0331	22	C9H4N2O-
157.0019	504	C6F3N2-
158.0095	40	C6HF3N2-
158.016	287	C8HFN3-
158.0222	18	C7H3F3N-
159.011	14	C7FN4-
159.0175	131	C6H2F3N2-
159.0242	26	C8H2FN3-
159.0365	36	C9H4FN2-
160.0016	132	C6HF3NO-
160.0317	143	C8H3FN3-
160.997	22	C5F3N2O-
161.0155	61	C8H2FN2O-
161.0394	25	C8H4FN3-
161.0721	19	C9H9N2O-
162.0109	38	C7HFN3O-
162.0176	19	C6H3F3NO-
162.024	12	C8H3FN2O-
163.0315	13	C8H4FN2O-
164.0065	48	C7F2N3-
165.0101	10	C7H2FN2O2-
165.0206	12	C9HN4-
165.0273	14	C8H3F2N2-
166.0221	33	C7H2F2N3-
167.0063	26	C7HF2N2O-
168.0205	54	C9H2N3O-
169.0017	21	C7F3N2-
170.0098	33	C7HF3N2-
170.036	38	C9H4N3O-
171.0174	17	C7H2F3N2-
172.0016	37	C7HF3NO-
172.0193	20	C8HFN4-
172.0319	63	C9H3FN3-
173.003	27	C8FN3O-
173.0208	27	C11H3F2-
173.0397	54	C9H4FN3-
173.0523	12	C10H6FN2-
174.0045	93	C6HF3N2O-
174.0107	7	C8HFN3O-
174.0473	136	C9H5FN3-
175.0187	86	C8H2FN3O-
175.0315	29	C9H4FN2O-
176.0264	15	C8H3FN3O-
177.0107	11	C8H2FN2O2-
178.0223	123	C8H2F2N3-
179.0301	16	C2H6F3N2O4-
181.022	38	C8H3F2N2O-
183.018	12	C8H2F3N2-
184.0129	200	C7HF3N3-
184.0308	10	C10H3FN3-
184.9966	13	C7F3N2O-
186.0184	32	C8H2N4O2-
186.0275	16	C7H3F3N3-
187.0125	44	C7H2F3N2O-
187.9967	20	C7HF3NO2-
188.0263	44	C9H3FN3O-
188.083	192	C10H10N3O-
189.0353	17	C6H5F2N3O2-
191.0078	20	C6H2F3N2O2-
191.03	62	C9H3F2N3-
192.038	154	C9H4F2N3-
194.017	18	C8H2F2N3O-
197.0174	29	C5H4F3N2O3-
198.0283	32	C8H3F3N3-
199.036	43	C8H4F3N3-
200.02	24	C8H3F3N2O-
201.0286	16	C8H4F3N2O-
201.9992	76	C7HF3N2O2-
204.0027	41	C6HF3N3O2-
205.0164	39	C8H2FN4O2-
205.0287	25	C6H5F2N3O3-
210.028	18	C9H3F3N3-
211.0237	27	C8H2F3N4-
212.0446	19	C9H5F3N3-
214.0235	50	C8H3F3N3O-
215.0314	67	C8H4F3N3O-
217.0156	44	C9H2FN4O2-
218.0186	10	C7H3F3N3O2-
221.0282	12	C9H3F2N4O-
223.02	31	C9H3F2N3O2-
224.0304	31	C8H7F3O4-
224.0422	9	C7H7F3N2O3-
225.0232	11	C8H3F2N4O2-
225.0397	11	C9H4F3N4-
228.0271	11	C8H3F3N4O-
228.0386	39	C9H5F3N3O-
230.0182	29	C8H3F3N3O2-
231.0752	17	C10H10F3N2O-
231.9973	46	C7HF3N3O3-
241.0347	102	C9H4F3N4O-
256.0205	12	C9H3F3N4O2-
257.0291	23	C9H4F3N4O2-
