Mass spectrum: Thidiazuron; LC-ESI-QFT; MS2; CE: 90; R=17500; [M+H]+
Name: Thidiazuron
Name: 1-phenyl-3-(thiadiazol-5-yl)urea
Formula: C9H8N4OS
Exact mass: 220.0419
SMILES: O=C(NC1=CN=NS1)NC1=CC=CC=C1
InChI: InChI=1S/C9H8N4OS/c14-9(12-8-6-10-13-15-8)11-7-4-2-1-3-5-7/h1-6H,(H2,11,12,14)
Instrument: Q Exactive Orbitrap (Thermo Scientific)
Instrument type: LC-ESI-QFT
Ms type: MS2
Ion mode: POSITIVE
Ionization: ESI
Fragmentation mode: HCD
Collision energy: 90
Resolution: 17500
Column name: Acquity BEH C18 1.7um, 2.1x150mm (Waters)
Retention time: 15.561 min
Base peak: 79.0211
Precursor m/z: 221.0492
Precursor type: [M+H]+
Precursor intensity: 5556990.5
m/z	relative intensity	assigned
50.0152	3	C4H2+
51.023	15	C4H3+
53.0386	68	C4H5+
59.9903	141	CH2NS+
61.0105	4	C2H5S+
65.0386	42	C5H5+
71.9902	142	C2H2NS+
72.9981	64	C2H3NS+
74.0058	16	C2H4NS+
77.0386	26	C6H5+
91.0543	19	C7H7+
92.0495	186	C6H6N+
94.0652	86	C6H8N+
95.0492	202	C6H7O+
102.0121	999	C2H4N3S+
105.0448	80	C6H5N2+
120.0443	20	C7H6NO+
124.0758	5	C5H8N4+
127.9913	162	C3H2N3OS+
130.9819	27	C7HNS+
