Mass spectrum: Topiramate; LC-ESI-QFT; MS2; CE: 75; R=17500; [M-H]-
Name: Topiramate
Name: [(1R,2S,6S,9R)-4,4,11,11-tetramethyl-3,5,7,10,12-pentaoxatricyclo[7.3.0.02,6]dodecan-6-yl]methyl sulfamate
Formula: C12H21NO8S
Exact mass: 339.0988
SMILES: CC1(C)O[C@@H]2CO[C@@]3(COS(N)(=O)=O)OC(C)(C)O[C@H]3[C@@H]2O1
InChI: InChI=1S/C12H21NO8S/c1-10(2)18-7-5-16-12(6-17-22(13,14)15)9(8(7)19-10)20-11(3,4)21-12/h7-9H,5-6H2,1-4H3,(H2,13,14,15)/t7-,8-,9+,12+/m1/s1
Instrument: Q Exactive Orbitrap (Thermo Scientific)
Instrument type: LC-ESI-QFT
Ms type: MS2
Ion mode: NEGATIVE
Ionization: ESI
Fragmentation mode: HCD
Collision energy: 75
Resolution: 17500
Column name: Acquity BEH C18 1.7um, 2.1x150mm (Waters)
Retention time: 14.210 min
Base peak: 211.0612
Precursor m/z: 338.0915
Precursor type: [M-H]-
Precursor intensity: 4861524.027344
m/z	relative intensity	assigned
57.0345	1	C3H5O-
61.9706	5	NOS-
63.9625	35	O2S-
69.0346	1	C4H5O-
77.9655	999	NO2S-
79.9574	19	O3S-
79.9813	5	H2NO2S-
80.9651	3	HO3S-
83.0139	1	C4H3O2-
94.9682	1	HNO3S-
95.9761	71	H2NO3S-
96.9601	1	HO4S-
97.0295	2	C5H5O2-
