Mass spectrum: Indinavir; LC-ESI-QFT; MS2; CE: 90; R=17500; [M+H]+
Name: Indinavir
Formula: C36H47N5O4
Exact mass: 613.3628
SMILES: CC(C)(C)NC(=O)[C@@H]1CN(Cc2cccnc2)CCN1C[C@@H](O)C[C@@H](Cc1ccccc1)C(=O)N[C@H]1c2ccccc2C[C@H]1O
InChI: InChI=1S/C36H47N5O4/c1-36(2,3)39-35(45)31-24-40(22-26-12-9-15-37-21-26)16-17-41(31)23-29(42)19-28(18-25-10-5-4-6-11-25)34(44)38-33-30-14-8-7-13-27(30)20-32(33)43/h4-15,21,28-29,31-33,42-43H,16-20,22-24H2,1-3H3,(H,38,44)(H,39,45)/t28-,29+,31+,32-,33+/m1/s1
Instrument: Q Exactive Orbitrap (Thermo Scientific)
Instrument type: LC-ESI-QFT
Ms type: MS2
Ion mode: POSITIVE
Ionization: ESI
Fragmentation mode: HCD
Collision energy: 90
Resolution: 17500
Column name: Acquity BEH C18 1.7um, 2.1x150mm (Waters)
Retention time: 15.300 min
Base peak: 79.0212
Precursor m/z: 614.3701
Precursor type: [M+H]+
Precursor intensity: 8192861.25
m/z	relative intensity	assigned
53.0022	3	C3HO+
53.0386	5	C4H5+
54.0338	10	C3H4N+
55.0179	12	C3H3O+
55.0542	1	C4H7+
56.0495	95	C3H6N+
57.0573	2	C3H7N+
57.0699	2	C4H9+
58.065	1	C3H8N+
65.0385	66	C5H5+
67.0542	11	C5H7+
68.0494	271	C4H6N+
69.0447	92	C3H5N2+
69.0572	7	C4H7N+
70.0651	34	C4H8N+
72.0444	1	C3H6NO+
77.0385	1	C6H5+
79.0542	39	C6H7+
80.0494	22	C5H6N+
81.0337	1	C5H5O+
81.0447	12	C4H5N2+
81.0573	1	C5H7N+
82.0525	29	C4H6N2+
82.0651	6	C5H8N+
83.0603	88	C4H7N2+
84.0682	9	C4H8N2+
91.0542	132	C7H7+
92.0494	244	C6H6N+
93.0573	45	C6H7N+
94.0651	74	C6H8N+
95.0491	11	C6H7O+
95.0603	9	C5H7N2+
95.0729	2	C6H9N+
96.0444	7	C5H6NO+
96.068	4	C5H8N2+
96.0809	3	C6H10N+
97.076	999	C5H9N2+
98.0838	17	C5H10N2+
103.0542	28	C8H7+
105.0699	92	C8H9+
106.0651	26	C7H8N+
107.0605	3	C6H7N2+
108.0683	3	C6H8N2+
108.0809	2	C7H10N+
109.076	9	C6H9N2+
110.0601	16	C6H8NO+
110.084	1	C6H10N2+
115.0542	54	C9H7+
116.062	1	C9H8+
117.0572	6	C8H7N+
117.0698	58	C9H9+
118.0651	2	C8H8N+
119.0603	3	C7H7N2+
121.076	49	C7H9N2+
122.06	2	C7H8NO+
122.0837	1	C7H10N2+
123.0916	17	C7H11N2+
124.0996	2	C7H12N2+
128.062	41	C10H8+
129.0698	127	C10H9+
130.0652	3	C9H8N+
131.0855	11	C10H11+
132.0807	11	C9H10N+
133.0647	75	C9H9O+
135.0916	3	C8H11N2+
141.0701	1	C11H9+
143.0855	7	C11H11+
145.0647	10	C10H9O+
145.076	2	C9H9N2+
145.1012	1	C11H13+
147.0916	2	C9H11N2+
149.0707	1	C8H9N2O+
153.0697	3	C12H9+
155.0602	6	C10H7N2+
157.0648	24	C11H9O+
171.0803	1	C12H11O+
171.0918	1	C11H11N2+
174.1025	3	C10H12N3+
175.0756	1	C11H11O2+
175.1105	1	C10H13N3+
176.118	2	C10H14N3+
