Mass spectrum: Octabenzone; LC-ESI-QFT; MS2; CE: 75; R=17500; [M+H]+
Name: Octabenzone
Name: (2-hydroxy-4-octoxyphenyl)-phenylmethanone
Formula: C21H26O3
Exact mass: 326.1882
SMILES: CCCCCCCCOC1=CC(O)=C(C=C1)C(=O)C1=CC=CC=C1
InChI: InChI=1S/C21H26O3/c1-2-3-4-5-6-10-15-24-18-13-14-19(20(22)16-18)21(23)17-11-8-7-9-12-17/h7-9,11-14,16,22H,2-6,10,15H2,1H3
Instrument: Q Exactive Orbitrap (Thermo Scientific)
Instrument type: LC-ESI-QFT
Ms type: MS2
Ion mode: POSITIVE
Ionization: ESI
Fragmentation mode: HCD
Collision energy: 75
Resolution: 17500
Column name: Acquity BEH C18 1.7um, 2.1x150mm (Waters)
Retention time: 18.891 min
Base peak: 79.0211
Precursor m/z: 327.1955
Precursor type: [M+H]+
Precursor intensity: 2663310.34375
m/z	relative intensity	assigned
50.0152	8	C4H2+
51.0229	17	C4H3+
53.0023	26	C3HO+
53.0386	223	C4H5+
55.018	7	C3H3O+
57.0699	84	C4H9+
77.0385	47	C6H5+
81.0335	999	C5H5O+
95.0492	461	C6H7O+
115.0542	8	C9H7+
141.0699	12	C11H9+
