Mass spectrum: Carbonyl cyanide chlorophenylhydrazone; LC-ESI-QFT; MS2; CE: 60; R=17500; [M-H]-
Name: Carbonyl cyanide chlorophenylhydrazone
Name: (3-Chlorophenyl)hydrazonomalononitrile
Name: 2-[(3-chlorophenyl)hydrazinylidene]propanedinitrile
Formula: C9H5ClN4
Exact mass: 204.0203
SMILES: ClC1=CC=CC(NN=C(C#N)C#N)=C1
InChI: InChI=1S/C9H5ClN4/c10-7-2-1-3-8(4-7)13-14-9(5-11)6-12/h1-4,13H
Instrument: Q Exactive Orbitrap (Thermo Scientific)
Instrument type: LC-ESI-QFT
Ms type: MS2
Ion mode: NEGATIVE
Ionization: ESI
Fragmentation mode: HCD
Collision energy: 60
Resolution: 17500
Column name: Acquity BEH C18 1.7um, 2.1x150mm (Waters)
Retention time: 18.007 min
Base peak: 203.0131
Precursor m/z: 203.013
Precursor type: [M-H]-
Precursor intensity: 140380847.875
m/z	relative intensity	assigned
64.0067	442	C3N2-
65.0145	19	C3HN2-
66.0098	2	C2N3-
80.0016	8	ClH3N3-
88.0193	11	C6H2N-
89.0145	12	C5HN2-
93.0207	4	C3HN4-
112.0193	1	C8H2N-
115.0301	447	C7H3N2-
139.0302	18	C9H3N2-
140.0254	14	C8H2N3-
151.0068	999	C7H4ClN2-
167.0366	1	C9H3N4-
176.002	50	C8H3ClN3-
203.0129	15	C9H4ClN4-
