Mass spectrum: Imazamox; LC-ESI-QFT; MS2; CE: 90; R=17500; [M+H]+
Name: Imazamox
Name: 5-(methoxymethyl)-2-(4-methyl-5-oxo-4-propan-2-yl-1H-imidazol-2-yl)pyridine-3-carboxylic acid
Formula: C15H19N3O4
Exact mass: 305.1376
SMILES: COCC1=CN=C(C2=NC(C)(C(C)C)C(=O)N2)C(=C1)C(O)=O
InChI: InChI=1S/C15H19N3O4/c1-8(2)15(3)14(21)17-12(18-15)11-10(13(19)20)5-9(6-16-11)7-22-4/h5-6,8H,7H2,1-4H3,(H,19,20)(H,17,18,21)
Instrument: Q Exactive Orbitrap (Thermo Scientific)
Instrument type: LC-ESI-QFT
Ms type: MS2
Ion mode: POSITIVE
Ionization: ESI
Fragmentation mode: HCD
Collision energy: 90
Resolution: 17500
Column name: Acquity BEH C18 1.7um, 2.1x150mm (Waters)
Retention time: 13.539 min
Base peak: 79.0211
Precursor m/z: 306.1448
Precursor type: [M+H]+
Precursor intensity: 15232955.1875
m/z	relative intensity	assigned
52.0182	3	C3H2N+
53.0022	163	C3HO+
53.0386	19	C4H5+
53.9975	28	C2NO+
54.0338	5	C3H4N+
55.0179	9	C3H3O+
56.0495	68	C3H6N+
58.0651	30	C3H8N+
63.0229	21	C5H3+
65.0385	125	C5H5+
66.0338	7	C4H4N+
67.0417	9	C4H5N+
67.0542	50	C5H7+
67.9893	3	C3O2+
68.0257	6	C4H4O+
68.0494	6	C4H6N+
69.0698	999	C5H9+
70.0651	100	C4H8N+
71.0729	254	C4H9N+
72.0443	5	C3H6NO+
74.0965	2	C4H12N+
78.0088	4	C3N3+
78.0338	25	C5H4N+
79.0416	24	C5H5N+
79.0542	14	C6H7+
80.0494	50	C5H6N+
81.0336	15	C5H5O+
81.0699	3	C6H9+
85.0284	4	C4H5O2+
86.0964	555	C5H12N+
88.0182	94	C6H2N+
90.0339	64	C6H4N+
91.0416	15	C6H5N+
92.0495	208	C6H6N+
93.021	6	C5H3NO+
93.0448	5	C5H5N2+
93.0573	13	C6H7N+
94.0525	39	C5H6N2+
94.0652	7	C6H8N+
95.0365	13	C5H5NO+
95.0491	23	C6H7O+
96.0444	20	C5H6NO+
97.0649	5	C6H9O+
103.0291	28	C6H3N2+
104.0367	4	C6H4N2+
104.0494	12	C7H6N+
105.0447	76	C6H5N2+
106.0288	16	C6H4NO+
106.0525	10	C6H6N2+
106.0651	23	C7H8N+
107.0366	50	C6H5NO+
107.0604	173	C6H7N2+
108.0443	92	C6H6NO+
109.0523	20	C6H7NO+
109.0647	10	C7H9O+
110.0601	134	C6H8NO+
111.044	11	C6H7O2+
117.0447	140	C7H5N2+
117.0572	7	C8H7N+
118.0288	20	C7H4NO+
118.0525	271	C7H6N2+
118.065	15	C8H8N+
119.0604	140	C7H7N2+
120.0444	94	C7H6NO+
120.0682	20	C7H8N2+
121.0397	39	C6H5N2O+
122.0238	3	C6H4NO2+
122.0475	18	C6H6N2O+
122.0601	17	C7H8NO+
123.0678	5	C7H9NO+
124.0395	7	C6H6NO2+
126.0548	12	C6H8NO2+
131.0604	34	C8H7N2+
131.0729	2	C9H9N+
132.0318	15	C7H4N2O+
132.0443	2	C8H6NO+
132.0556	9	C7H6N3+
132.0681	12	C8H8N2+
133.0396	63	C7H5N2O+
133.0761	49	C8H9N2+
134.0474	44	C7H6N2O+
135.0552	87	C7H7N2O+
136.0393	8	C7H6NO2+
137.0346	5	C6H5N2O2+
137.0709	17	C7H9N2O+
138.055	17	C7H8NO2+
139.0627	5	C7H9NO2+
140.0706	504	C7H10NO2+
143.0603	4	C9H7N2+
144.0318	67	C8H4N2O+
144.0682	8	C9H8N2+
144.0806	9	C10H10N+
145.0396	477	C8H5N2O+
146.0474	38	C8H6N2O+
146.084	3	C9H10N2+
147.0553	70	C8H7N2O+
148.0391	4	C8H6NO2+
148.063	29	C8H8N2O+
149.0345	25	C7H5N2O2+
149.071	55	C8H9N2O+
150.0423	15	C7H6N2O2+
150.0547	5	C8H8NO2+
151.0502	77	C7H7N2O2+
153.0546	3	C8H9O3+
154.0864	11	C8H12NO2+
155.0577	59	C7H9NO3+
158.0711	13	C9H8N3+
159.0553	31	C9H7N2O+
159.0791	17	C9H9N3+
160.0631	185	C9H8N2O+
161.0586	141	C8H7N3O+
161.0708	189	C9H9N2O+
162.0424	224	C8H6N2O2+
162.0662	17	C8H8N3O+
163.0502	562	C8H7N2O2+
164.0342	45	C8H6NO3+
165.0658	92	C8H9N2O2+
168.0654	31	C8H10NO3+
169.076	7	C11H9N2+
170.0837	4	C11H10N2+
171.0916	17	C11H11N2+
173.0711	11	C10H9N2O+
174.0661	8	C9H8N3O+
175.0502	168	C9H7N2O2+
176.0581	33	C9H8N2O2+
177.0658	42	C9H9N2O2+
178.0612	6	C8H8N3O2+
179.0449	7	C8H7N2O3+
183.0919	6	C12H11N2+
184.0995	9	C12H12N2+
186.0663	8	C10H8N3O+
187.074	53	C10H9N3O+
187.0873	2	C11H11N2O+
188.0821	12	C10H10N3O+
188.0947	7	C11H12N2O+
189.1024	3	C11H13N2O+
191.0815	124	C10H11N2O2+
192.0767	22	C9H10N3O2+
193.0609	45	C9H9N2O3+
197.0711	7	C12H9N2O+
201.0656	2	C11H9N2O2+
203.0688	6	C10H9N3O2+
207.0764	17	C10H11N2O3+
211.0867	2	C13H11N2O+
212.0949	5	C13H12N2O+
214.0611	2	C11H8N3O2+
215.0689	29	C11H9N3O2+
216.0768	9	C11H10N3O2+
218.0924	18	C11H12N3O2+
219.0641	2	C10H9N3O3+
230.0927	2	C12H12N3O2+
246.0873	4	C12H12N3O3+
