Mass spectrum: Hexanedioic acid; LC-ESI-QFT; MS2; CE: 75; R=17500; [M-H]-
Name: Hexanedioic acid
Name: Adipic acid
Formula: C6H10O4
Exact mass: 146.0579
SMILES: OC(=O)CCCCC(O)=O
InChI: InChI=1S/C6H10O4/c7-5(8)3-1-2-4-6(9)10/h1-4H2,(H,7,8)(H,9,10)
Instrument: Q Exactive Orbitrap (Thermo Scientific)
Instrument type: LC-ESI-QFT
Ms type: MS2
Ion mode: NEGATIVE
Ionization: ESI
Fragmentation mode: HCD
Collision energy: 75
Resolution: 17500
Column name: Acquity BEH C18 1.7um, 2.1x150mm (Waters)
Retention time: 9.798 min
Base peak: 116.9285
Precursor m/z: 145.0506
Precursor type: [M-H]-
Precursor intensity: 780341.0839844
m/z	relative intensity	assigned
81.0347	999	C5H5O-
83.0503	598	C5H7O-
101.0606	183	C5H9O2-
