Mass spectrum: Thidiazuron; LC-ESI-QFT; MS2; CE: 60; R=17500; [M-H]-
Name: Thidiazuron
Name: 1-phenyl-3-(thiadiazol-5-yl)urea
Formula: C9H8N4OS
Exact mass: 220.0419
SMILES: O=C(NC1=CN=NS1)NC1=CC=CC=C1
InChI: InChI=1S/C9H8N4OS/c14-9(12-8-6-10-13-15-8)11-7-4-2-1-3-5-7/h1-6H,(H2,11,12,14)
Instrument: Q Exactive Orbitrap (Thermo Scientific)
Instrument type: LC-ESI-QFT
Ms type: MS2
Ion mode: NEGATIVE
Ionization: ESI
Fragmentation mode: HCD
Collision energy: 60
Resolution: 17500
Column name: Acquity BEH C18 1.7um, 2.1x150mm (Waters)
Retention time: 15.520 min
Base peak: 99.9976
Precursor m/z: 219.0346
Precursor type: [M-H]-
Precursor intensity: 5953664.485352
m/z	relative intensity	assigned
57.9756	4	CNS-
70.9835	999	C2HNS-
71.9913	28	C2H2NS-
85.9703	2	C2NOS-
92.0504	4	C6H6N-
99.9975	604	C2H2N3S-
