Mass spectrum: 2-Amino-6-nitrobenzothiazole; LC-ESI-QFT; MS2; CE: 45; R=17500; [M+H]+
Name: 2-Amino-6-nitrobenzothiazole
Name: 6-nitro-1,3-benzothiazol-2-amine
Formula: C7H5N3O2S
Exact mass: 195.0102
SMILES: NC1=NC2=CC=C(C=C2S1)[N+]([O-])=O
InChI: InChI=1S/C7H5N3O2S/c8-7-9-5-2-1-4(10(11)12)3-6(5)13-7/h1-3H,(H2,8,9)
Instrument: Q Exactive Orbitrap (Thermo Scientific)
Instrument type: LC-ESI-QFT
Ms type: MS2
Ion mode: POSITIVE
Ionization: ESI
Fragmentation mode: HCD
Collision energy: 45
Resolution: 17500
Column name: Acquity BEH C18 1.7um, 2.1x150mm (Waters)
Retention time: 14.491 min
Base peak: 79.0212
Precursor m/z: 196.0175
Precursor type: [M+H]+
Precursor intensity: 2936858.5625
m/z	relative intensity	assigned
59.9902	2	CH2NS+
61.0106	5	C2H5S+
84.0028	1	C4H4S+
96.0029	1	C5H4S+
111.9976	1	C5H4OS+
123.0133	1	C6H5NS+
126.0248	8	C5H6N2S+
138.0246	30	C6H6N2S+
150.0247	515	C7H6N2S+
153.0119	6	C6H5N2OS+
166.0196	72	C7H6N2OS+
182.0145	999	C7H6N2O2S+
184.0187	4	C6H6N3O2S+
196.0176	641	C7H6N3O2S+
