Mass spectrum: 2-Amino-6-nitrobenzothiazole; LC-ESI-QFT; MS2; CE: 15; R=17500; [M-H]-
Name: 2-Amino-6-nitrobenzothiazole
Name: 6-nitro-1,3-benzothiazol-2-amine
Formula: C7H5N3O2S
Exact mass: 195.0102
SMILES: NC1=NC2=CC=C(C=C2S1)[N+]([O-])=O
InChI: InChI=1S/C7H5N3O2S/c8-7-9-5-2-1-4(10(11)12)3-6(5)13-7/h1-3H,(H2,8,9)
Instrument: Q Exactive Orbitrap (Thermo Scientific)
Instrument type: LC-ESI-QFT
Ms type: MS2
Ion mode: NEGATIVE
Ionization: ESI
Fragmentation mode: HCD
Collision energy: 15
Resolution: 17500
Column name: Acquity BEH C18 1.7um, 2.1x150mm (Waters)
Retention time: 14.420 min
Base peak: 194.0029
Precursor m/z: 194.003
Precursor type: [M-H]-
Precursor intensity: 11956150.58594
m/z	relative intensity	assigned
57.9756	6	CNS-
130.0174	1	C7H2N2O-
147.0021	1	C7H3N2S-
148.0101	31	C7H4N2S-
162.0309	19	C7H4N3O2-
162.997	3	C7H3N2OS-
164.0051	22	C7H4N2OS-
166.9921	8	C6H3N2O2S-
177.0004	9	C7H3N3OS-
194.0029	999	C7H4N3O2S-
