Mass spectrum: Isoxaben; LC-ESI-QFT; MS2; CE: 90; R=17500; [M+H]+
Name: Isoxaben
Name: 2,6-dimethoxy-N-[3-(3-methylpentan-3-yl)-1,2-oxazol-5-yl]benzamide
Formula: C18H24N2O4
Exact mass: 332.1736
SMILES: CCC(C)(CC)C1=NOC(NC(=O)C2=C(OC)C=CC=C2OC)=C1
InChI: InChI=1S/C18H24N2O4/c1-6-18(3,7-2)14-11-15(24-20-14)19-17(21)16-12(22-4)9-8-10-13(16)23-5/h8-11H,6-7H2,1-5H3,(H,19,21)
Instrument: Q Exactive Orbitrap (Thermo Scientific)
Instrument type: LC-ESI-QFT
Ms type: MS2
Ion mode: POSITIVE
Ionization: ESI
Fragmentation mode: HCD
Collision energy: 90
Resolution: 17500
Column name: Acquity BEH C18 1.7um, 2.1x150mm (Waters)
Retention time: 17.390 min
Base peak: 79.0212
Precursor m/z: 333.1809
Precursor type: [M+H]+
Precursor intensity: 23056401.5
m/z	relative intensity	assigned
50.0152	2	C4H2+
51.0231	3	C4H3+
53.0021	6	C3HO+
53.0386	47	C4H5+
55.0178	14	C3H3O+
63.0229	4	C5H3+
64.0307	3	C5H4+
65.0385	14	C5H5+
66.0464	12	C5H6+
67.0542	3	C5H7+
68.997	3	C3HO2+
75.0229	33	C6H3+
77.0385	46	C6H5+
78.0463	2	C6H6+
79.0542	71	C6H7+
81.0335	10	C5H5O+
81.0699	7	C6H9+
82.0413	3	C5H6O+
91.0542	4	C7H7+
92.0257	93	C6H4O+
93.0333	1	C6H5O+
94.0413	22	C6H6O+
95.0491	136	C6H7O+
103.0179	2	C7H3O+
105.0336	17	C7H5O+
105.0448	50	C6H5N2+
107.0127	999	C6H3O2+
109.0648	24	C7H9O+
120.0206	31	C7H4O2+
121.0285	15	C7H5O2+
122.0362	960	C7H6O2+
123.0439	3	C7H7O2+
125.0233	42	C6H5O3+
125.0596	17	C7H9O2+
133.0282	1	C8H5O2+
135.044	43	C8H7O2+
135.0554	6	C7H7N2O+
137.0596	4	C8H9O2+
138.0311	2	C7H6O3+
139.0389	21	C7H7O3+
150.0311	338	C8H6O3+
165.0546	237	C9H9O3+
168.0417	321	C8H8O4+
182.0574	30	C9H10O4+
