Mass spectrum: Raloxifene; LC-ESI-QFT; MS2; CE: 45; R=17500; [M-H]-
Name: Raloxifene
Name: [6-hydroxy-2-(4-hydroxyphenyl)-1-benzothiophen-3-yl]-[4-(2-piperidin-1-ylethoxy)phenyl]methanone
Formula: C28H27NO4S
Exact mass: 473.1661
SMILES: OC1=CC=C(C=C1)C1=C(C(=O)C2=CC=C(OCCN3CCCCC3)C=C2)C2=CC=C(O)C=C2S1
InChI: InChI=1S/C28H27NO4S/c30-21-8-4-20(5-9-21)28-26(24-13-10-22(31)18-25(24)34-28)27(32)19-6-11-23(12-7-19)33-17-16-29-14-2-1-3-15-29/h4-13,18,30-31H,1-3,14-17H2
Instrument: Q Exactive Orbitrap (Thermo Scientific)
Instrument type: LC-ESI-QFT
Ms type: MS2
Ion mode: NEGATIVE
Ionization: ESI
Fragmentation mode: HCD
Collision energy: 45
Resolution: 17500
Column name: Acquity BEH C18 1.7um, 2.1x150mm (Waters)
Retention time: 14.256 min
Base peak: 472.1585
Precursor m/z: 472.1588
Precursor type: [M-H]-
Precursor intensity: 8985593.737305
m/z	relative intensity	assigned
93.0346	42	C6H5O-
183.027	2	C12H7S-
211.0222	19	C13H7OS-
212.0302	14	C13H8OS-
215.0189	1	C12H7O2S-
227.0174	1	C13H7O2S-
229.0322	1	C13H9O2S-
238.0097	3	C14H6O2S-
239.0172	398	C14H7O2S-
240.025	155	C14H8O2S-
241.0328	172	C14H9O2S-
243.0126	1	C13H7O3S-
253.0328	5	C15H9O2S-
254.0405	3	C15H10O2S-
265.0331	3	C16H9O2S-
266.0045	12	C15H6O3S-
266.0407	3	C16H10O2S-
267.0121	124	C15H7O3S-
278.0399	1	C17H10O2S-
284.0153	1	C15H8O4S-
299.0714	1	C20H11O3-
303.0485	2	C19H11O2S-
305.0276	2	C18H9O3S-
315.0495	3	C20H11O2S-
316.056	10	C20H12O2S-
317.0261	1	C25H3N-
319.0429	1	C25H5N-
327.0656	1	C21H11O4-
331.0438	17	C20H11O3S-
332.0511	43	C20H12O3S-
333.0583	3	C26H7N-
342.0358	2	C21H10O3S-
343.0432	29	C21H11O3S-
350.122	3	C21H20NO2S-
352.138	3	C21H22NO2S-
359.0382	31	C21H11O4S-
360.0461	999	C21H12O4S-
361.0539	218	C21H13O4S-
387.07	4	C23H15O4S-
472.1585	34	C28H26NO4S-
