Mass spectrum: Dicrotophos; LC-ESI-QFT; MS2; CE: 60; R=17500; [M+H]+
Name: Dicrotophos
Name: [(E)-4-(dimethylamino)-4-oxobut-2-en-2-yl] dimethyl phosphate
Formula: C8H16NO5P
Exact mass: 237.0766
SMILES: COP(=O)(OC)O\C(C)=C\C(=O)N(C)C
InChI: InChI=1S/C8H16NO5P/c1-7(6-8(10)9(2)3)14-15(11,12-4)13-5/h6H,1-5H3/b7-6+
Instrument: Q Exactive Orbitrap (Thermo Scientific)
Instrument type: LC-ESI-QFT
Ms type: MS2
Ion mode: POSITIVE
Ionization: ESI
Fragmentation mode: HCD
Collision energy: 60
Resolution: 17500
Column name: Acquity BEH C18 1.7um, 2.1x150mm (Waters)
Retention time: 11.813 min
Base peak: 79.0212
Precursor m/z: 238.0839
Precursor type: [M+H]+
Precursor intensity: 15415554.875
m/z	relative intensity	assigned
53.0385	2	C4H5+
55.0179	10	C3H3O+
55.0416	7	C3H5N+
55.0543	4	C4H7+
56.0132	3	C2H2NO+
56.0495	2	C3H6N+
58.0287	5	C2H4NO+
58.0651	14	C3H8N+
67.0178	162	C4H3O+
68.0493	1	C4H6N+
69.0335	7	C4H5O+
70.0651	85	C4H8N+
72.0444	999	C3H6NO+
78.9943	1	CH4O2P+
81.0336	4	C5H5O+
82.0649	2	C5H8N+
84.0808	19	C5H10N+
94.0651	2	C6H8N+
110.06	3	C6H8NO+
112.0757	205	C6H10NO+
112.9998	15	CH6O4P+
127.0155	526	C2H8O4P+
