Mass spectrum: PharmaGSID_48516; LC-ESI-QFT; MS2; CE: 45; R=17500; [M-H]-
Name: 2-chloro-4-fluoro-N-[(E)-2-phenylethenyl]sulfonylbenzamide
Name: 2-Chloro-4-fluoro-N-{[(E)-2-phenylethenyl]sulfonyl}benzamide
Name: PharmaGSID_48516
Formula: C15H11ClFNO3S
Exact mass: 339.0132
SMILES: O=C(NS(=O)(=O)/C=C/c1ccccc1)c1ccc(F)cc1Cl
InChI: InChI=1S/C15H11ClFNO3S/c16-14-10-12(17)6-7-13(14)15(19)18-22(20,21)9-8-11-4-2-1-3-5-11/h1-10H,(H,18,19)/b9-8+
Instrument: Q Exactive Orbitrap (Thermo Scientific)
Instrument type: LC-ESI-QFT
Ms type: MS2
Ion mode: NEGATIVE
Ionization: ESI
Fragmentation mode: HCD
Collision energy: 45
Resolution: 17500
Column name: Acquity BEH C18 1.7um, 2.1x150mm (Waters)
Retention time: 16.712 min
Base peak: 429.0536
Precursor m/z: 338.0059
Precursor type: [M-H]-
Precursor intensity: 19910216.18164
m/z	relative intensity	assigned
61.9705	4	NOS-
63.9624	6	O2S-
77.9655	7	NO2S-
79.9812	16	H2NO2S-
80.9652	3	HO3S-
91.0553	5	C7H7-
101.0397	195	C8H5-
105.9604	3	CNO3S-
116.0506	15	C8H6N-
117.0346	35	C8H5O-
119.0502	999	C8H7O-
128.9913	14	C6H3ClF-
136.0204	4	C7H3FNO-
153.9868	2	C7H2ClFN-
165.0014	1	C8H5O2S-
167.0172	6	C8H7O2S-
171.9971	187	C7H4ClFNO-
183.0122	9	C8H7O3S-
183.9874	3	C7H3FNO2S-
199.9823	2	C7H3FNO3S-
208.0077	4	C9H6NO3S-
238.0674	36	C15H9FNO-
247.0334	1	C14H9ClFO-
302.0299	4	C15H9FNO3S-
338.0061	26	C15H10ClFNO3S-
