Mass spectrum: Candoxatril; LC-ESI-QFT; MS2; CE: 30; R=17500; [M+H]+
Name: Candoxatril
Formula: C29H41NO7
Exact mass: 515.2883
SMILES: COCCOC[C@H](CC1(CCCC1)C(=O)N[C@H]1CC[C@H](CC1)C(O)=O)C(=O)OC1=CC2=C(CCC2)C=C1
InChI: InChI=1S/C29H41NO7/c1-35-15-16-36-19-23(27(33)37-25-12-9-20-5-4-6-22(20)17-25)18-29(13-2-3-14-29)28(34)30-24-10-7-21(8-11-24)26(31)32/h9,12,17,21,23-24H,2-8,10-11,13-16,18-19H2,1H3,(H,30,34)(H,31,32)/t21-,23-,24+/m0/s1
Instrument: Q Exactive Orbitrap (Thermo Scientific)
Instrument type: LC-ESI-QFT
Ms type: MS2
Ion mode: POSITIVE
Ionization: ESI
Fragmentation mode: HCD
Collision energy: 30
Resolution: 17500
Column name: Acquity BEH C18 1.7um, 2.1x150mm (Waters)
Retention time: 18.625 min
Base peak: 79.0211
Precursor m/z: 516.2956
Precursor type: [M+H]+
Precursor intensity: 9908780.25
m/z	relative intensity	assigned
59.0491	74	C3H7O+
67.0545	3	C5H7+
69.0334	5	C4H5O+
79.0542	34	C6H7+
81.0699	82	C6H9+
93.0699	46	C7H9+
107.0855	171	C8H11+
109.0648	40	C7H9O+
109.1012	8	C8H13+
117.07	45	C9H9+
126.0914	304	C7H12NO+
127.0754	53	C7H11O2+
134.0964	8	C9H12N+
135.0804	461	C9H11O+
138.0914	3	C8H12NO+
144.102	20	C7H14NO2+
147.0803	4	C10H11O+
152.107	71	C9H14NO+
153.091	75	C9H13O2+
156.102	12	C8H14NO2+
163.0753	28	C10H11O2+
167.1069	6	C10H15O2+
179.1069	16	C11H15O2+
180.1019	785	C10H14NO2+
183.138	6	C11H19O2+
187.0756	7	C12H11O2+
198.1123	4	C10H16NO3+
204.1381	3	C13H18NO+
211.1329	160	C12H19O3+
224.1275	4	C12H18NO3+
239.1279	25	C13H19O4+
242.1537	6	C16H20NO+
256.1544	39	C13H22NO4+
260.1645	294	C16H22NO2+
269.1537	117	C18H21O2+
270.1486	42	C17H20NO2+
278.1751	851	C16H24NO3+
288.1594	363	C17H22NO3+
297.1489	8	C19H21O3+
306.17	999	C17H24NO4+
336.2166	9	C19H30NO4+
354.2276	59	C19H32NO5+
364.2119	72	C20H30NO5+
373.1999	13	C22H29O5+
382.2226	433	C20H32NO6+
440.2436	81	C26H34NO5+
