Mass spectrum: Thiamethoxam; LC-ESI-QFT; MS2; CE: 75; R=17500; [M+H]+
Name: Thiamethoxam
Name: N-[3-[(2-chloro-1,3-thiazol-5-yl)methyl]-5-methyl-1,3,5-oxadiazinan-4-ylidene]nitramide
Formula: C8H10ClN5O3S
Exact mass: 291.0193
SMILES: CN1COCN(CC2=CN=C(Cl)S2)C1=N[N+]([O-])=O
InChI: InChI=1S/C8H10ClN5O3S/c1-12-4-17-5-13(8(12)11-14(15)16)3-6-2-10-7(9)18-6/h2H,3-5H2,1H3
Instrument: Q Exactive Orbitrap (Thermo Scientific)
Instrument type: LC-ESI-QFT
Ms type: MS2
Ion mode: POSITIVE
Ionization: ESI
Fragmentation mode: HCD
Collision energy: 75
Resolution: 17500
Column name: Acquity BEH C18 1.7um, 2.1x150mm (Waters)
Retention time: 11.173 min
Base peak: 79.0212
Precursor m/z: 292.0266
Precursor type: [M+H]+
Precursor intensity: 2887962.75
m/z	relative intensity	assigned
61.0107	19	C2H5S+
67.0417	59	C4H5N+
69.0448	229	C3H5N2+
70.9951	354	C3H3S+
78.9405	25	CClS+
81.0448	33	C4H5N2+
82.9826	12	C3HNS+
87.9949	22	C3H3ClN+
95.0604	28	C5H7N2+
97.0397	20	C4H5N2O+
98.0059	56	C4H4NS+
99.0013	40	C3H3N2S+
108.0557	319	C5H6N3+
111.0011	13	C4H3N2S+
112.0217	42	C5H6NS+
113.0169	21	C4H5N2S+
122.0714	141	C6H8N3+
123.0793	62	C6H9N3+
124.009	25	C5H4N2S+
125.0168	109	C5H5N2S+
131.967	999	C4H3ClNS+
132.9751	31	C4H4ClNS+
138.012	33	C5H4N3S+
151.0198	68	C6H5N3S+
152.0279	280	C6H6N3S+
174.9727	17	C5H4ClN2OS+
181.0544	50	C7H9N4S+
