Mass spectrum: Flutriafol; LC-ESI-QFT; MS2; CE: 60; R=17500; [M+H]+
Name: Flutriafol
Name: 1-(2-fluorophenyl)-1-(4-fluorophenyl)-2-(1,2,4-triazol-1-yl)ethanol
Formula: C16H13F2N3O
Exact mass: 301.1027
SMILES: OC(CN1C=NC=N1)(C1=CC=C(F)C=C1)C1=C(F)C=CC=C1
InChI: InChI=1S/C16H13F2N3O/c17-13-7-5-12(6-8-13)16(22,9-21-11-19-10-20-21)14-3-1-2-4-15(14)18/h1-8,10-11,22H,9H2
Instrument: Q Exactive Orbitrap (Thermo Scientific)
Instrument type: LC-ESI-QFT
Ms type: MS2
Ion mode: POSITIVE
Ionization: ESI
Fragmentation mode: HCD
Collision energy: 60
Resolution: 17500
Column name: Acquity BEH C18 1.7um, 2.1x150mm (Waters)
Retention time: 16.275 min
Base peak: 79.0211
Precursor m/z: 302.1099
Precursor type: [M+H]+
Precursor intensity: 3848429.46875
m/z	relative intensity	assigned
70.04	999	C2H4N3+
71.0292	1	C4H4F+
91.0543	1	C7H7+
95.0292	1	C6H4F+
109.0449	162	C7H6F+
113.0397	9	C6H6FO+
123.0241	386	C7H4FO+
137.0398	5	C8H6FO+
165.0699	3	C13H9+
193.0651	2	C14H9O+
194.0527	2	C14H7F+
195.0606	8	C14H8F+
203.0599	1	C14H7N2+
214.0589	4	C14H8F2+
215.0669	6	C14H9F2+
