Mass spectrum: 4`-Sulfamylacetanilide; LC-ESI-QFT; MS2; CE: 90; R=17500; [M-H]-
Name: 4'-Sulfamylacetanilide
Name: 4-Acetamidobenzenesulfonamide
Name: N-(4-sulfamoylphenyl)acetamide
Formula: C8H10N2O3S
Exact mass: 214.0412
SMILES: CC(=O)NC1=CC=C(C=C1)S(N)(=O)=O
InChI: InChI=1S/C8H10N2O3S/c1-6(11)10-7-2-4-8(5-3-7)14(9,12)13/h2-5H,1H3,(H,10,11)(H2,9,12,13)
Instrument: Q Exactive Orbitrap (Thermo Scientific)
Instrument type: LC-ESI-QFT
Ms type: MS2
Ion mode: NEGATIVE
Ionization: ESI
Fragmentation mode: HCD
Collision energy: 90
Resolution: 17500
Column name: Acquity BEH C18 1.7um, 2.1x150mm (Waters)
Retention time: 8.232 min
Base peak: 204.124
Precursor m/z: 213.0339
Precursor type: [M-H]-
Precursor intensity: 4523639.646729
m/z	relative intensity	assigned
61.9706	162	NOS-
63.9625	123	O2S-
68.0144	3	C3H2NO-
77.9656	440	NO2S-
78.9734	247	HNO2S-
79.9812	96	H2NO2S-
80.9652	10	HO3S-
82.0299	3	C4H4NO-
90.0349	13	C6H4N-
91.0428	68	C6H5N-
92.0506	999	C6H6N-
93.0346	10	C6H5O-
93.9605	84	NO3S-
94.0299	37	C5H4NO-
96.009	6	C4H2NO2-
106.0299	16	C6H4NO-
106.0537	16	C6H6N2-
107.0377	49	C6H5NO-
118.0299	104	C7H4NO-
122.0248	71	C6H4NO2-
123.0326	3	C6H5NO2-
133.0407	9	C7H5N2O-
133.0533	24	C8H7NO-
134.0248	54	C7H4NO2-
134.0612	42	C8H8NO-
136.0403	20	C7H6NO2-
149.0483	15	C8H7NO2-
150.0196	3	C7H4NO3-
153.9968	3	C6H4NO2S-
155.0043	4	C6H5NO2S-
