Mass spectrum: 3-Hydroxy-N-(3-nitrophenyl)naphthalene-2-carboxamide; LC-ESI-QFT; MS2; CE: 75; R=17500; [M-H]-
Name: 3-Hydroxy-N-(3-nitrophenyl)naphthalene-2-carboxamide
Name: 3-Hydroxy-3'-nitro-2-naphthanilide
Formula: C17H12N2O4
Exact mass: 308.0797
SMILES: OC1=CC2=C(C=CC=C2)C=C1C(=O)NC1=CC=CC(=C1)[N+]([O-])=O
InChI: InChI=1S/C17H12N2O4/c20-16-9-12-5-2-1-4-11(12)8-15(16)17(21)18-13-6-3-7-14(10-13)19(22)23/h1-10,20H,(H,18,21)
Instrument: Q Exactive Orbitrap (Thermo Scientific)
Instrument type: LC-ESI-QFT
Ms type: MS2
Ion mode: NEGATIVE
Ionization: ESI
Fragmentation mode: HCD
Collision energy: 75
Resolution: 17500
Column name: Acquity BEH C18 1.7um, 2.1x150mm (Waters)
Retention time: 18.710 min
Base peak: 307.0723
Precursor m/z: 307.0724
Precursor type: [M-H]-
Precursor intensity: 85757076.89063
m/z	relative intensity	assigned
65.9986	3	C3NO-
80.0268	13	C5H4O-
90.035	133	C6H4N-
91.019	3	C6H3O-
91.0427	1	C6H5N-
105.022	5	C6H3NO-
106.03	1	C6H4NO-
107.0377	153	C6H5NO-
108.0217	3	C6H4O2-
115.0553	281	C9H7-
117.0345	2	C8H5O-
118.0298	2	C7H4NO-
130.0424	5	C9H6O-
131.05	1	C9H7O-
133.017	7	C7H3NO2-
134.0248	38	C7H4NO2-
137.0357	199	C6H5N2O2-
138.0197	7	C6H4NO3-
141.0345	4	C10H5O-
142.0423	2	C10H6O-
143.0502	999	C10H7O-
145.0293	1	C9H5O2-
159.0453	1	C10H7O2-
163.0149	1	C7H3N2O3-
165.071	2	C13H9-
168.0456	14	C11H6NO-
206.061	2	C14H8NO-
216.0817	1	C16H10N-
220.0768	2	C15H10NO-
231.0692	4	C16H9NO-
232.0767	10	C16H10NO-
233.0607	14	C16H9O2-
247.064	4	C16H9NO2-
248.0718	9	C16H10NO2-
258.0562	5	C17H8NO2-
259.0638	1	C17H9NO2-
260.0715	6	C17H10NO2-
261.0794	2	C17H11NO2-
276.0665	3	C17H10NO3-
293.0697	6	C17H11NO4-
