Mass spectrum: Buturon; LC-ESI-QFT; MS2; CE: 90; R=17500; [M+H]+
Name: Buturon
Name: 1-but-3-yn-2-yl-3-(4-chlorophenyl)-1-methylurea
Formula: C12H13ClN2O
Exact mass: 236.0716
SMILES: CC(C#C)N(C)C(=O)NC1=CC=C(Cl)C=C1
InChI: InChI=1S/C12H13ClN2O/c1-4-9(2)15(3)12(16)14-11-7-5-10(13)6-8-11/h1,5-9H,2-3H3,(H,14,16)
Instrument: Q Exactive Orbitrap (Thermo Scientific)
Instrument type: LC-ESI-QFT
Ms type: MS2
Ion mode: POSITIVE
Ionization: ESI
Fragmentation mode: HCD
Collision energy: 90
Resolution: 17500
Column name: Acquity BEH C18 1.7um, 2.1x150mm (Waters)
Retention time: 16.576 min
Base peak: 79.0212
Precursor m/z: 237.0789
Precursor type: [M+H]+
Precursor intensity: 1615867.25
m/z	relative intensity	assigned
51.023	31	C4H3+
53.0386	527	C4H5+
55.0178	17	C3H3O+
55.0542	121	C4H7+
56.0495	82	C3H6N+
58.0288	102	C2H4NO+
58.0652	150	C3H8N+
68.0495	267	C4H6N+
69.0335	36	C4H5O+
69.0573	17	C4H7N+
84.0808	100	C5H10N+
90.0339	56	C6H4N+
93.0574	558	C6H7N+
98.9997	617	C5H4Cl+
117.0573	16	C8H7N+
118.0652	111	C8H8N+
126.0106	999	C6H5ClN+
127.0184	101	C6H6ClN+
128.0263	63	C6H7ClN+
129.0104	38	C6H6ClO+
130.0652	76	C9H8N+
139.0058	49	C6H4ClN2+
144.0811	60	C10H10N+
152.0261	22	C8H7ClN+
152.9977	45	C7H4ClNO+
164.0258	16	C12H4O+
167.0371	14	C8H8ClN2+
178.0419	13	C10H9ClN+
193.053	39	C10H10ClN2+
207.0324	19	C10H8ClN2O+
