Mass spectrum: Ancymidol; LC-ESI-QFT; MS2; CE: 75; R=17500; [M+H]+
Name: Ancymidol
Name: cyclopropyl-(4-methoxyphenyl)-pyrimidin-5-ylmethanol
Formula: C15H16N2O2
Exact mass: 256.1212
SMILES: COC1=CC=C(C=C1)C(O)(C1CC1)C1=CN=CN=C1
InChI: InChI=1S/C15H16N2O2/c1-19-14-6-4-12(5-7-14)15(18,11-2-3-11)13-8-16-10-17-9-13/h4-11,18H,2-3H2,1H3
Instrument: Q Exactive Orbitrap (Thermo Scientific)
Instrument type: LC-ESI-QFT
Ms type: MS2
Ion mode: POSITIVE
Ionization: ESI
Fragmentation mode: HCD
Collision energy: 75
Resolution: 17500
Column name: Acquity BEH C18 1.7um, 2.1x150mm (Waters)
Retention time: 15.425 min
Base peak: 79.0211
Precursor m/z: 257.1285
Precursor type: [M+H]+
Precursor intensity: 7759527.96875
m/z	relative intensity	assigned
52.0181	4	C3H2N+
53.0022	3	C3HO+
53.0386	25	C4H5+
54.0338	155	C3H4N+
55.0178	5	C3H3O+
56.0496	1	C3H6N+
57.0699	1	C4H9+
65.0386	2	C5H5+
67.0542	13	C5H7+
68.0256	1	C4H4O+
68.0494	1	C4H6N+
69.0335	77	C4H5O+
71.0855	2	C5H11+
77.0385	8	C6H5+
78.0464	1	C6H6+
79.0542	28	C6H7+
80.0369	1	C4H4N2+
80.0494	4	C5H6N+
81.0447	999	C4H5N2+
85.1012	1	C6H13+
91.0542	25	C7H7+
92.0256	25	C6H4O+
93.0572	1	C6H7N+
93.0699	3	C7H9+
94.0413	5	C6H6O+
94.0651	13	C6H8N+
95.0491	104	C6H7O+
102.0464	1	C8H6+
103.0543	2	C8H7+
104.0494	2	C7H6N+
105.0447	30	C6H5N2+
105.0699	5	C8H9+
106.0412	1	C7H6O+
107.0492	11	C7H7O+
107.0602	2	C6H7N2+
108.0569	1	C7H8O+
109.0648	8	C7H9O+
112.0264	1	C4H4N2O2+
115.0542	15	C9H7+
116.062	7	C9H8+
117.07	3	C9H9+
118.0416	1	C8H6O+
119.0489	1	C8H7O+
119.0603	2	C7H7N2+
120.057	1	C8H8O+
121.0648	124	C8H9O+
122.0602	2	C7H8NO+
125.0597	63	C7H9O2+
127.0542	2	C10H7+
128.062	15	C10H8+
129.0699	13	C10H9+
130.0412	2	C9H6O+
130.065	2	C9H8N+
131.0491	5	C9H7O+
131.0604	4	C8H7N2+
133.0647	6	C9H9O+
134.0722	1	C9H10O+
135.044	664	C8H7O2+
135.055	51	C7H7N2O+
136.0758	1	C8H10NO+
137.0118	10	C9HN2+
140.0622	1	C11H8+
141.0699	33	C11H9+
142.0777	32	C11H10+
143.0731	1	C10H9N+
144.057	21	C10H8O+
144.0805	1	C10H10N+
145.0521	2	C9H7NO+
145.0648	20	C10H9O+
146.0602	2	C9H8NO+
146.0726	7	C10H10O+
147.0804	2	C10H11O+
149.071	3	C8H9N2O+
149.0962	8	C10H13O+
151.0278	1	C10H3N2+
152.062	77	C12H8+
153.0699	47	C12H9+
154.066	6	C11H8N+
154.0776	24	C12H10+
155.0222	5	C9H3N2O+
155.0493	7	C11H7O+
155.0602	20	C10H7N2+
155.0854	3	C12H11+
156.0569	2	C11H8O+
156.0681	1	C10H8N2+
157.0652	1	C11H9O+
157.0764	1	C10H9N2+
158.0601	4	C10H8NO+
158.0727	3	C11H10O+
159.0681	2	C10H9NO+
159.0803	6	C11H11O+
160.0514	1	C10H8O2+
160.0756	4	C10H10NO+
161.0959	5	C11H13O+
165.0699	5	C13H9+
167.073	2	C12H9N+
168.0568	2	C12H8O+
168.0684	10	C11H8N2+
168.0807	15	C12H10N+
169.0648	38	C12H9O+
169.0756	2	C11H9N2+
169.0885	9	C12H11N+
170.0726	39	C12H10O+
171.0804	5	C12H11O+
172.0515	2	C11H8O2+
172.0756	2	C11H10NO+
173.0468	1	C10H7NO2+
173.0708	3	C10H9N2O+
173.0835	2	C11H11NO+
177.0913	2	C11H13O2+
179.0604	1	C12H7N2+
180.0569	7	C13H8O+
180.0807	6	C13H10N+
181.065	2	C13H9O+
181.076	10	C12H9N2+
181.0883	1	C13H11N+
182.0602	2	C12H8NO+
183.0549	5	C11H7N2O+
183.0804	1	C13H11O+
184.0882	1	C13H12O+
185.071	2	C11H9N2O+
185.096	3	C13H13O+
186.0912	1	C12H12NO+
188.0709	4	C11H10NO2+
193.0756	1	C13H9N2+
195.0805	3	C14H11O+
195.0917	12	C13H11N2+
196.0636	1	C12H8N2O+
196.0757	3	C13H10NO+
196.0998	4	C13H12N2+
197.0714	1	C12H9N2O+
197.0835	5	C13H11NO+
198.0786	2	C12H10N2O+
201.0657	2	C11H9N2O2+
207.092	6	C14H11N2+
209.0709	5	C13H9N2O+
215.081	4	C12H11N2O2+
223.0864	2	C14H11N2O+
224.0939	1	C14H12N2O+
