Mass spectrum: PharmaGSID_48516; LC-ESI-QFT; MS2; CE: 45; R=17500; [M+H]+
Name: 2-chloro-4-fluoro-N-[(E)-2-phenylethenyl]sulfonylbenzamide
Name: 2-Chloro-4-fluoro-N-{[(E)-2-phenylethenyl]sulfonyl}benzamide
Name: PharmaGSID_48516
Formula: C15H11ClFNO3S
Exact mass: 339.0132
SMILES: O=C(NS(=O)(=O)/C=C/c1ccccc1)c1ccc(F)cc1Cl
InChI: InChI=1S/C15H11ClFNO3S/c16-14-10-12(17)6-7-13(14)15(19)18-22(20,21)9-8-11-4-2-1-3-5-11/h1-10H,(H,18,19)/b9-8+
Instrument: Q Exactive Orbitrap (Thermo Scientific)
Instrument type: LC-ESI-QFT
Ms type: MS2
Ion mode: POSITIVE
Ionization: ESI
Fragmentation mode: HCD
Collision energy: 45
Resolution: 17500
Column name: Acquity BEH C18 1.7um, 2.1x150mm (Waters)
Retention time: 16.772 min
Base peak: 79.0211
Precursor m/z: 340.0205
Precursor type: [M+H]+
Precursor intensity: 1791870.125
m/z	relative intensity	assigned
53.0386	4	C4H5+
77.0385	2	C6H5+
95.0492	15	C6H7O+
102.0464	3	C8H6+
103.0543	999	C8H7+
105.0448	5	H11NO3S+
118.0417	2	C5H9ClN+
121.0646	3	C8H9O+
135.0806	1	C9H11O+
156.0013	8	C7H4ClFN+
156.9852	431	C7H3ClFO+
167.0162	35	C8H7O2S+
174.0117	6	C7H6ClFNO+
