Mass spectrum: AVE2865; LC-ESI-QFT; MS2; CE: 60; R=17500; [M+H]+
Name: AVE2865
Name: 1-{2-[3-(2-Chloro-4,5-Difluoro-Benzoyl)-Ureido]-4-Fluoro-Phenyl}-Piperidine-4-Carboxylic Acid
Name: 1-[2-[(2-chloro-4,5-difluorobenzoyl)carbamoylamino]-4-fluorophenyl]piperidine-4-carboxylic acid
Formula: C20H17ClF3N3O4
Exact mass: 455.0860
SMILES: OC(=O)C1CCN(CC1)C1=C(NC(=O)NC(=O)C2=CC(F)=C(F)C=C2Cl)C=C(F)C=C1
InChI: InChI=1S/C20H17ClF3N3O4/c21-13-9-15(24)14(23)8-12(13)18(28)26-20(31)25-16-7-11(22)1-2-17(16)27-5-3-10(4-6-27)19(29)30/h1-2,7-10H,3-6H2,(H,29,30)(H2,25,26,28,31)
Instrument: Q Exactive Orbitrap (Thermo Scientific)
Instrument type: LC-ESI-QFT
Ms type: MS2
Ion mode: POSITIVE
Ionization: ESI
Fragmentation mode: HCD
Collision energy: 60
Resolution: 17500
Column name: Acquity BEH C18 1.7um, 2.1x150mm (Waters)
Retention time: 18.374 min
Base peak: 79.0211
Precursor m/z: 456.0932
Precursor type: [M+H]+
Precursor intensity: 3489875.71875
m/z	relative intensity	assigned
53.0022	3	C3HO+
53.0386	1	C4H5+
55.0543	56	C4H7+
65.0386	16	C5H5+
67.0542	224	C5H7+
69.0335	16	C4H5O+
69.0699	15	C5H9+
79.0542	1	C6H7+
92.0494	6	C6H6N+
95.0492	16	C6H7O+
105.0336	3	C7H5O+
108.0243	1	C6H3FN+
110.0402	3	C6H5FN+
113.0597	2	C6H9O2+
125.051	4	C6H6FN2+
126.0588	1	C6H7FN2+
135.0355	3	C7H4FN2+
137.051	201	C7H6FN2+
148.0556	6	C9H7FN+
149.0512	9	C8H6FN2+
149.0639	1	C9H8FN+
150.059	5	C8H7FN2+
151.0303	21	C7H4FN2O+
151.0669	3	C8H8FN2+
152.0378	3	C7H5FN2O+
153.0459	54	C7H6FN2O+
163.0303	26	C8H4FN2O+
163.0667	11	C9H8FN2+
165.046	999	C8H6FN2O+
174.9757	2	C7H2ClF2O+
177.046	8	C9H6FN2O+
177.0825	1	C10H10FN2+
178.0539	3	C9H7FN2O+
179.0617	5	C9H8FN2O+
184.056	2	ClF3H14NO4+
187.067	4	C11H8FN2+
189.0823	1	C11H10FN2+
190.0538	7	C10H7FN2O+
191.0616	83	C10H8FN2O+
191.098	45	C11H12FN2+
197.072	8	C9H10FN2O2+
200.0747	10	ClF3H16N2O4+
201.0824	15	ClF3H17N2O4+
203.0615	8	C11H8FN2O+
203.098	1	C12H12FN2+
204.0694	7	C11H9FN2O+
209.0714	3	C10H12ClN3+
211.0667	3	CH15ClF3N2O4+
212.0507	11	C13H7FNO+
217.0772	10	C12H10FN2O+
219.0929	171	C12H12FN2O+
228.0694	1	C13H9FN2O+
229.0773	75	C13H10FN2O+
247.0879	128	C13H12FN2O2+
265.0984	53	C13H14FN2O3+
