Mass spectrum: Octrizole; LC-ESI-QFT; MS2; CE: 60; R=17500; [M+H]+
Name: Octrizole
Name: 2-(benzotriazol-2-yl)-4-(2,4,4-trimethylpentan-2-yl)phenol
Formula: C20H25N3O
Exact mass: 323.1998
SMILES: CC(C)(C)CC(C)(C)C1=CC(N2N=C3C=CC=CC3=N2)=C(O)C=C1
InChI: InChI=1S/C20H25N3O/c1-19(2,3)13-20(4,5)14-10-11-18(24)17(12-14)23-21-15-8-6-7-9-16(15)22-23/h6-12,24H,13H2,1-5H3
Instrument: Q Exactive Orbitrap (Thermo Scientific)
Instrument type: LC-ESI-QFT
Ms type: MS2
Ion mode: POSITIVE
Ionization: ESI
Fragmentation mode: HCD
Collision energy: 60
Resolution: 17500
Column name: Acquity BEH C18 1.7um, 2.1x150mm (Waters)
Retention time: 22.623 min
Base peak: 79.0211
Precursor m/z: 324.207
Precursor type: [M+H]+
Precursor intensity: 519334.28125
m/z	relative intensity	assigned
53.0024	9	C3HO+
55.0543	28	C4H7+
57.0699	999	C4H9+
58.0652	15	C3H8N+
65.0386	39	C5H5+
71.0855	21	C5H11+
79.0542	9	C6H7+
80.0496	9	C5H6N+
92.0496	258	C6H6N+
93.0337	14	C6H5O+
105.0699	27	C8H9+
106.0775	11	C8H10+
107.0493	24	C7H7O+
107.0605	14	C6H7N2+
111.0442	24	C4H5N3O+
120.0558	113	C6H6N3+
121.0649	68	C8H9O+
129.0699	24	C10H9+
133.065	35	C9H9O+
134.0727	36	C9H10O+
135.0805	22	C9H11O+
139.0754	11	C6H9N3O+
149.0967	7	C10H13O+
156.0808	17	C11H10N+
166.0657	15	C12H8N+
167.0731	11	C12H9N+
182.0968	14	C13H12N+
183.068	28	C12H9NO+
184.0761	20	C12H10NO+
184.2061	12	C12H26N+
196.0757	12	C13H10NO+
209.0961	26	C15H13O+
210.0918	109	C14H12NO+
212.0821	238	C12H10N3O+
224.1076	69	C15H14NO+
225.1155	8	C15H15NO+
238.0975	63	C14H12N3O+
252.1132	82	C15H14N3O+
253.1208	51	C15H15N3O+
324.2073	28	C20H26N3O+
