Mass spectrum: 2-Amino-6-nitrobenzothiazole; LC-ESI-QFT; MS2; CE: 15; R=17500; [M+H]+
Name: 2-Amino-6-nitrobenzothiazole
Name: 6-nitro-1,3-benzothiazol-2-amine
Formula: C7H5N3O2S
Exact mass: 195.0102
SMILES: NC1=NC2=CC=C(C=C2S1)[N+]([O-])=O
InChI: InChI=1S/C7H5N3O2S/c8-7-9-5-2-1-4(10(11)12)3-6(5)13-7/h1-3H,(H2,8,9)
Instrument: Q Exactive Orbitrap (Thermo Scientific)
Instrument type: LC-ESI-QFT
Ms type: MS2
Ion mode: POSITIVE
Ionization: ESI
Fragmentation mode: HCD
Collision energy: 15
Resolution: 17500
Column name: Acquity BEH C18 1.7um, 2.1x150mm (Waters)
Retention time: 14.474 min
Base peak: 79.0211
Precursor m/z: 196.0175
Precursor type: [M+H]+
Precursor intensity: 2491630.59375
m/z	relative intensity	assigned
88.0217	3	C3H6NS+
138.0246	1	C6H6N2S+
150.0247	41	C7H6N2S+
166.0196	9	C7H6N2OS+
182.0145	75	C7H6N2O2S+
196.0177	999	C7H6N3O2S+
