Mass spectrum: Indinavir; LC-ESI-QFT; MS2; CE: 45; R=17500; [M+H]+
Name: Indinavir
Formula: C36H47N5O4
Exact mass: 613.3628
SMILES: CC(C)(C)NC(=O)[C@@H]1CN(Cc2cccnc2)CCN1C[C@@H](O)C[C@@H](Cc1ccccc1)C(=O)N[C@H]1c2ccccc2C[C@H]1O
InChI: InChI=1S/C36H47N5O4/c1-36(2,3)39-35(45)31-24-40(22-26-12-9-15-37-21-26)16-17-41(31)23-29(42)19-28(18-25-10-5-4-6-11-25)34(44)38-33-30-14-8-7-13-27(30)20-32(33)43/h4-15,21,28-29,31-33,42-43H,16-20,22-24H2,1-3H3,(H,38,44)(H,39,45)/t28-,29+,31+,32-,33+/m1/s1
Instrument: Q Exactive Orbitrap (Thermo Scientific)
Instrument type: LC-ESI-QFT
Ms type: MS2
Ion mode: POSITIVE
Ionization: ESI
Fragmentation mode: HCD
Collision energy: 45
Resolution: 17500
Column name: Acquity BEH C18 1.7um, 2.1x150mm (Waters)
Retention time: 15.300 min
Base peak: 79.0212
Precursor m/z: 614.3701
Precursor type: [M+H]+
Precursor intensity: 6661510.875
m/z	relative intensity	assigned
56.0495	19	C3H6N+
68.0494	14	C4H6N+
69.0447	5	C3H5N2+
70.0651	2	C4H8N+
80.0495	1	C5H6N+
81.0447	4	C4H5N2+
82.0524	2	C4H6N2+
83.0603	11	C4H7N2+
84.0681	6	C4H8N2+
85.076	2	C4H9N2+
91.0541	9	C7H7+
92.0494	26	C6H6N+
93.0573	6	C6H7N+
94.0651	54	C6H8N+
95.0603	1	C5H7N2+
97.076	999	C5H9N2+
98.0838	93	C5H10N2+
105.0697	4	C8H9+
106.0651	9	C7H8N+
110.0839	1	C6H10N2+
111.0917	1	C6H11N2+
112.112	11	C7H14N+
115.0541	5	C9H7+
117.0699	11	C9H9+
121.076	47	C7H9N2+
122.0837	3	C7H10N2+
123.0916	63	C7H11N2+
124.0995	11	C7H12N2+
129.0697	13	C10H9+
131.0855	8	C10H11+
132.0807	16	C9H10N+
133.0648	89	C9H9O+
135.0915	3	C8H11N2+
137.0709	1	C7H9N2O+
143.0854	7	C11H11+
145.0647	20	C10H9O+
145.1011	3	C11H13+
147.0916	6	C9H11N2+
150.0913	2	C9H12NO+
151.0753	1	C9H11O2+
157.0648	7	C11H9O+
161.096	1	C11H13O+
163.0865	1	C9H11N2O+
167.1052	1	C8H13N3O+
170.0965	1	C12H12N+
171.0804	8	C12H11O+
174.0915	52	C11H12NO+
174.1025	82	C10H12N3+
175.0753	62	C11H11O2+
175.1103	35	C10H13N3+
176.1181	43	C10H14N3+
184.1445	1	C9H18N3O+
188.1069	25	C12H14NO+
188.1178	4	C11H14N3+
189.0911	3	C12H13O2+
190.1226	3	C12H16NO+
192.1018	83	C11H14NO2+
201.1262	1	C12H15N3+
206.1176	48	C12H16NO2+
214.1228	1	C14H16NO+
214.1337	16	C13H16N3+
215.1417	2	C13H17N3+
216.1487	2	C13H18N3+
221.1397	1	C11H17N4O+
223.1676	5	C12H21N3O+
227.1543	2	C15H19N2+
242.129	1	C14H16N3O+
244.1334	2	C15H18NO2+
254.1415	2	C16H18N2O+
259.1553	6	C14H19N4O+
271.144	15	C16H19N2O2+
271.1679	7	C16H21N3O+
272.1518	96	C16H20N2O2+
273.1599	2	C16H21N2O2+
276.1377	1	C19H18NO+
277.202	2	C15H25N4O+
289.1785	8	C16H23N3O2+
294.1599	6	C18H20N3O+
302.1535	1	C21H20NO+
306.1487	18	C20H20NO2+
315.2178	20	C18H27N4O+
320.1646	5	C21H22NO2+
324.1593	31	C20H22NO3+
338.1747	5	C21H24NO3+
363.2175	2	C22H27N4O+
364.202	18	C22H26N3O2+
385.2146	1	C25H27N3O+
403.2257	15	C25H29N3O2+
421.2361	159	C25H31N3O3+
495.2757	1	C31H35N4O2+
