Mass spectrum: Azacyclotridecan-2-one; LC-ESI-QFT; MS2; CE: 60; R=17500; [M+H]+
Name: Azacyclotridecan-2-one
Formula: C12H23NO
Exact mass: 197.1780
SMILES: O=C1CCCCCCCCCCCN1
InChI: InChI=1S/C12H23NO/c14-12-10-8-6-4-2-1-3-5-7-9-11-13-12/h1-11H2,(H,13,14)
Instrument: Q Exactive Orbitrap (Thermo Scientific)
Instrument type: LC-ESI-QFT
Ms type: MS2
Ion mode: POSITIVE
Ionization: ESI
Fragmentation mode: HCD
Collision energy: 60
Resolution: 17500
Column name: Acquity BEH C18 1.7um, 2.1x150mm (Waters)
Retention time: 17.456 min
Base peak: 79.0211
Precursor m/z: 198.1852
Precursor type: [M+H]+
Precursor intensity: 40491341.78125
m/z	relative intensity	assigned
53.0022	21	C3HO+
53.0386	6	C4H5+
53.9975	3	C2NO+
54.0339	2	C3H4N+
55.0179	50	C3H3O+
55.0542	422	C4H7+
56.0495	6	C3H6N+
57.0699	290	C4H9+
58.0651	19	C3H8N+
59.0491	3	C3H7O+
60.0444	5	C2H6NO+
65.0386	1	C5H5+
67.0542	59	C5H7+
68.0494	4	C4H6N+
69.0698	394	C5H9+
70.0651	14	C4H8N+
71.0491	11	C4H7O+
71.0855	94	C5H11+
72.0443	34	C3H6NO+
72.0807	55	C4H10N+
74.06	1	C3H8NO+
74.0963	2	C4H12N+
79.0542	69	C6H7+
81.0699	93	C6H9+
82.0651	28	C5H8N+
83.0492	24	C5H7O+
83.0855	335	C6H11+
84.0807	13	C5H10N+
85.0648	8	C5H9O+
85.1012	18	C6H13+
86.06	74	C4H8NO+
86.0964	22	C5H12N+
88.0756	7	C4H10NO+
91.0542	11	C7H7+
93.0699	76	C7H9+
95.0855	74	C7H11+
96.0808	38	C6H10N+
97.0648	59	C6H9O+
97.1012	164	C7H13+
98.0965	5	C6H12N+
99.0804	4	C6H11O+
100.0757	79	C5H10NO+
100.112	12	C6H14N+
102.0913	2	C5H12NO+
105.0701	4	C8H9+
107.0855	47	C8H11+
108.0805	1	C7H10N+
109.0651	1	C7H9O+
109.0886	2	C7H11N+
109.1011	11	C8H13+
110.0964	22	C7H12N+
111.0804	35	C7H11O+
111.1168	6	C8H15+
114.0914	29	C6H12NO+
114.1278	9	C7H16N+
121.1011	38	C9H13+
122.0966	1	C8H12N+
123.1169	3	C9H15+
124.1121	18	C8H14N+
125.0961	16	C8H13O+
128.1069	7	C7H14NO+
128.1434	7	C8H18N+
135.1167	3	C10H15+
137.1328	1	C10H17+
138.1276	11	C9H16N+
139.1116	5	C9H15O+
142.1229	1	C8H16NO+
142.1591	2	C9H20N+
154.1592	2	C10H20N+
156.1747	15	C10H22N+
163.148	3	C12H19+
180.1745	6	C12H22N+
198.1853	999	C12H24NO+
