Mass spectrum: Amiloride; LC-ESI-QFT; MS2; CE: 15; R=17500; [M+H]+
Name: Amiloride
Name: 3,5-diamino-6-chloro-N-(diaminomethylidene)pyrazine-2-carboxamide
Formula: C6H8ClN7O
Exact mass: 229.0479
SMILES: NC(=N)NC(=O)C1=NC(Cl)=C(N)N=C1N
InChI: InChI=1S/C6H8ClN7O/c7-2-4(9)13-3(8)1(12-2)5(15)14-6(10)11/h(H4,8,9,13)(H4,10,11,14,15)
Instrument: Q Exactive Orbitrap (Thermo Scientific)
Instrument type: LC-ESI-QFT
Ms type: MS2
Ion mode: POSITIVE
Ionization: ESI
Fragmentation mode: HCD
Collision energy: 15
Resolution: 17500
Column name: Acquity BEH C18 1.7um, 2.1x150mm (Waters)
Retention time: 9.322 min
Base peak: 79.0211
Precursor m/z: 230.0552
Precursor type: [M+H]+
Precursor intensity: 17234082
m/z	relative intensity	assigned
60.0556	163	CH6N3+
61.0396	3	CH5N2O+
86.0348	22	C2H4N3O+
116.0012	1	C3H3ClN3+
145.0275	2	C4H6ClN4+
171.0066	63	C5H4ClN4O+
188.0333	20	C5H7ClN5O+
189.0173	192	C3H4ClN7O+
203.0325	2	C4H6ClN7O+
213.0285	29	C6H6ClN6O+
230.055	999	C6H9ClN7O+
