Mass spectrum: Fenamiphos; LC-ESI-QFT; MS2; CE: 60; R=17500; [M+H]+
Name: Fenamiphos
Name: N-[ethoxy-(3-methyl-4-methylsulfanylphenoxy)phosphoryl]propan-2-amine
Formula: C13H22NO3PS
Exact mass: 303.1058
SMILES: CCOP(=O)(NC(C)C)OC1=CC=C(SC)C(C)=C1
InChI: InChI=1S/C13H22NO3PS/c1-6-16-18(15,14-10(2)3)17-12-7-8-13(19-5)11(4)9-12/h7-10H,6H2,1-5H3,(H,14,15)
Instrument: Q Exactive Orbitrap (Thermo Scientific)
Instrument type: LC-ESI-QFT
Ms type: MS2
Ion mode: POSITIVE
Ionization: ESI
Fragmentation mode: HCD
Collision energy: 60
Resolution: 17500
Column name: Acquity BEH C18 1.7um, 2.1x150mm (Waters)
Retention time: 18.218 min
Base peak: 79.0212
Precursor m/z: 304.1131
Precursor type: [M+H]+
Precursor intensity: 40881380.9375
m/z	relative intensity	assigned
53.0022	2	C3HO+
53.0386	2	C4H5+
58.0651	2	C3H8N+
58.995	24	C2H3S+
60.0808	43	C3H10N+
70.995	2	C3H3S+
77.0386	1	C6H5+
78.0464	2	C6H6+
79.0542	21	C6H7+
80.0493	1	C5H6N+
81.0698	2	C6H9+
91.0542	33	C7H7+
93.0699	18	C7H9+
95.0491	5	C6H7O+
97.0106	51	C5H5S+
97.0647	6	C6H9O+
98.0001	19	H5NO3P+
103.0542	24	C8H7+
104.062	15	C8H8+
105.0448	1	H11NO3S+
105.0699	2	C8H9+
107.0491	120	C7H7O+
108.0569	54	C7H8O+
109.0106	5	C6H5S+
109.0648	22	C7H9O+
110.0181	3	C6H6S+
111.0264	4	C6H7S+
115.0541	1	C9H7+
117.0697	2	C9H9+
118.0776	1	C9H10+
121.011	1	C3H8NPS+
121.0646	1	C8H9O+
122.0184	25	C7H6S+
122.0234	1	C6H4NO2+
125.0419	11	C7H9S+
125.0596	2	C7H9O2+
135.0262	12	C8H7S+
136.0342	1	C8H8S+
137.0419	45	C8H9S+
138.0133	8	C7H6OS+
139.0212	34	C7H7OS+
139.0753	2	C8H11O2+
140.0291	5	C7H8OS+
150.0496	4	C9H10S+
151.0209	1	C8H7OS+
153.0368	154	C8H9OS+
154.0446	5	C8H10OS+
155.0524	83	C8H11OS+
168.9871	100	C7H6OPS+
169.0042	9	C7H6O3P+
180.9869	1	C8H6OPS+
181.0684	1	C6H16NOPS+
183.0204	3	C8H8O3P+
184.9819	2	C7H6O2PS+
186.9976	6	C7H8O2PS+
187.0392	1	C7H10NO3P+
198.9978	39	C8H8O2PS+
200.9772	4	C7H6O3PS+
201.0011	8	C7H8NO2PS+
201.9847	999	C7H7O3PS+
202.9925	109	C7H8O3PS+
214.9925	11	C8H8O3PS+
217.0082	976	C8H10O3PS+
219.0116	1	C7H10NO3PS+
230.0161	11	C9H11O3PS+
231.0241	1	C9H12O3PS+
235.0185	2	C11H10NOPS+
245.0394	1	C10H14O3PS+
249.0345	2	C12H12NOPS+
