Mass spectrum: 2-Methoxy-5-methylaniline; LC-ESI-QFT; MS2; CE: 30; R=17500; [M+H]+
Name: 2-Methoxy-5-methylaniline
Formula: C8H11NO
Exact mass: 137.0841
SMILES: COC1=CC=C(C)C=C1N
InChI: InChI=1S/C8H11NO/c1-6-3-4-8(10-2)7(9)5-6/h3-5H,9H2,1-2H3
Instrument: Q Exactive Orbitrap (Thermo Scientific)
Instrument type: LC-ESI-QFT
Ms type: MS2
Ion mode: POSITIVE
Ionization: ESI
Fragmentation mode: HCD
Collision energy: 30
Resolution: 17500
Column name: Acquity BEH C18 1.7um, 2.1x150mm (Waters)
Retention time: 9.930 min
Base peak: 79.0211
Precursor m/z: 138.0913
Precursor type: [M+H]+
Precursor intensity: 17197073.84375
m/z	relative intensity	assigned
78.0465	1	C6H6+
79.0543	5	C6H7+
94.0652	1	C6H8N+
95.073	1	C6H9N+
106.0652	87	C7H8N+
107.0729	11	C7H9N+
108.0444	1	C6H6NO+
108.0809	1	C7H10N+
121.0648	4	C8H9O+
122.0601	17	C7H8NO+
123.0679	999	C7H9NO+
138.0914	994	C8H12NO+
