Mass spectrum: PharmaGSID_48506; LC-ESI-QFT; MS2; CE: 30; R=17500; [M+H]+
Name: PharmaGSID_48506
Name: (2R)-2-(3-chloro-4-methylsulfonylphenyl)-3-cyclopentyl-N-pyrazin-2-ylpropanamide
Formula: C19H22ClN3O3S
Exact mass: 407.1070
SMILES: CS(=O)(=O)C1=CC=C(C=C1Cl)[C@@H](CC1CCCC1)C(=O)NC1=NC=CN=C1
InChI: InChI=1S/C19H22ClN3O3S/c1-27(25,26)17-7-6-14(11-16(17)20)15(10-13-4-2-3-5-13)19(24)23-18-12-21-8-9-22-18/h6-9,11-13,15H,2-5,10H2,1H3,(H,22,23,24)/t15-/m1/s1
Instrument: Q Exactive Orbitrap (Thermo Scientific)
Instrument type: LC-ESI-QFT
Ms type: MS2
Ion mode: POSITIVE
Ionization: ESI
Fragmentation mode: HCD
Collision energy: 30
Resolution: 17500
Column name: Acquity BEH C18 1.7um, 2.1x150mm (Waters)
Retention time: 17.918 min
Base peak: 79.0211
Precursor m/z: 408.1143
Precursor type: [M+H]+
Precursor intensity: 6997673.875
m/z	relative intensity	assigned
52.0181	1	C3H2N+
69.0446	1	C3H5N2+
69.0698	5	C5H9+
78.9847	3	CH3O2S+
81.0698	13	C6H9+
96.0555	999	C4H6N3+
97.0396	15	C4H5N2O+
123.0426	1	C5H5N3O+
139.031	1	C8H8Cl+
141.0102	1	C7H6ClO+
149.0153	1	C9H6Cl+
150.0232	2	C9H7Cl+
162.023	1	C10H7Cl+
163.0308	18	C10H8Cl+
164.0386	14	C10H9Cl+
171.1167	21	C2H22ClN3OS+
177.0463	8	C11H10Cl+
178.0542	1	C11H11Cl+
191.0621	1	C12H12Cl+
202.9931	3	C8H8ClO2S+
205.0778	57	C13H14Cl+
206.0856	202	C13H15Cl+
216.0699	1	C14H13Cl+
217.0083	16	C9H10ClO2S+
229.0087	1	C10H10ClO2S+
285.0709	88	C14H18ClO2S+
310.041	6	C13H13ClN3O2S+
317.0969	2	C15H22ClO3S+
390.1035	15	C19H21ClN3O2S+
408.1143	187	C19H23ClN3O3S+
