Mass spectrum: 4-Hydroxyacetophenone; LC-ESI-QFT; MS2; CE: 15; R=17500; [M-H]-
Name: 4-Hydroxyacetophenone
Name: 4'-Hydroxyacetophenone
Name: 1-(4-hydroxyphenyl)ethanone
Formula: C8H8O2
Exact mass: 136.0524
SMILES: CC(=O)C1=CC=C(O)C=C1
InChI: InChI=1S/C8H8O2/c1-6(9)7-2-4-8(10)5-3-7/h2-5,10H,1H3
Instrument: Q Exactive Orbitrap (Thermo Scientific)
Instrument type: LC-ESI-QFT
Ms type: MS2
Ion mode: NEGATIVE
Ionization: ESI
Fragmentation mode: HCD
Collision energy: 15
Resolution: 17500
Column name: Acquity BEH C18 1.7um, 2.1x150mm (Waters)
Retention time: 12.451 min
Base peak: 135.0451
Precursor m/z: 135.0452
Precursor type: [M-H]-
Precursor intensity: 25960878.30615
m/z	relative intensity	assigned
92.0267	6	C6H4O-
93.0346	364	C6H5O-
95.0138	19	C5H3O2-
108.0217	135	C6H4O2-
117.0345	1	C8H5O-
120.0217	8	C7H4O2-
135.0451	999	C8H7O2-
