Mass spectrum: Procyazine; LC-ESI-QFT; MS2; CE: 90; R=17500; [M+H]+
Name: Procyazine
Name: 2-[[4-chloro-6-(cyclopropylamino)-1,3,5-triazin-2-yl]amino]-2-methylpropanenitrile
Formula: C10H13ClN6
Exact mass: 252.0890
SMILES: CC(C)(NC1=NC(Cl)=NC(NC2CC2)=N1)C#N
InChI: InChI=1S/C10H13ClN6/c1-10(2,5-12)17-9-15-7(11)14-8(16-9)13-6-3-4-6/h6H,3-4H2,1-2H3,(H2,13,14,15,16,17)
Instrument: Q Exactive Orbitrap (Thermo Scientific)
Instrument type: LC-ESI-QFT
Ms type: MS2
Ion mode: POSITIVE
Ionization: ESI
Fragmentation mode: HCD
Collision energy: 90
Resolution: 17500
Column name: Acquity BEH C18 1.7um, 2.1x150mm (Waters)
Retention time: 15.117 min
Base peak: 79.0212
Precursor m/z: 253.0963
Precursor type: [M+H]+
Precursor intensity: 5617286.15625
m/z	relative intensity	assigned
53.0023	60	ClH4N+
54.0339	23	C3H4N+
55.0291	108	C2H3N2+
56.0495	543	C3H6N+
58.0652	255	C3H8N+
61.9792	279	CHClN+
63.9949	7	CH3ClN+
66.0339	21	C4H4N+
67.0291	55	C3H3N2+
67.0418	15	C4H5N+
68.0243	900	C2H2N3+
69.0447	7	C3H5N2+
70.0399	3	C2H4N3+
70.0652	10	C4H8N+
74.0966	4	C4H12N+
74.9996	48	C3H4Cl+
78.0106	9	C2H5ClN+
79.0058	152	CH4ClN2+
79.0292	12	C4H3N2+
80.0495	12	C5H6N+
81.0448	240	C4H5N2+
82.0652	15	C5H8N+
83.0604	999	C4H7N2+
91.0057	26	C2H4ClN2+
92.0263	4	C3H7ClN+
93.0447	7	C5H5N2+
94.0653	3	C6H8N+
95.0605	6	C5H7N2+
97.0398	4	CH8ClN3+
102.0106	79	C4H5ClN+
103.0058	16	C3H4ClN2+
104.001	614	C2H3ClN3+
106.0651	5	C7H8N+
107.0605	17	C6H7N2+
108.0557	706	C5H6N3+
109.051	21	C4H5N4+
110.0462	3	C3H4N5+
110.0713	31	C5H8N3+
111.0555	5	C2H10ClN3+
117.0215	8	C4H6ClN2+
119.0372	88	C4H8ClN2+
120.0559	7	C6H6N3+
121.0511	9	C5H5N4+
122.0715	5	C6H8N3+
123.0661	3	C5H7N4+
123.0918	10	C7H11N2+
133.051	4	C6H5N4+
134.0463	5	C5H4N5+
135.0666	19	C6H7N4+
136.0745	9	C6H8N4+
144.0323	71	C5H7ClN3+
145.0275	5	C4H6ClN4+
146.0229	11	C3H5ClN5+
148.087	33	C8H10N3+
149.0823	8	C7H9N4+
150.0777	10	C6H8N5+
160.0623	7	C7H6N5+
170.023	11	C5H5ClN5+
184.0386	5	C6H7ClN5+
186.0543	11	C6H9ClN5+
