Mass spectrum: 4-(4-Hydroxyphenyl)butan-2-one; LC-ESI-QFT; MS2; CE: 60; R=17500; [M+H]+
Name: 4-(4-Hydroxyphenyl)butan-2-one
Name: 4-(4-Hydroxyphenyl)-2-butanone
Formula: C10H12O2
Exact mass: 164.0837
SMILES: CC(=O)CCC1=CC=C(O)C=C1
InChI: InChI=1S/C10H12O2/c1-8(11)2-3-9-4-6-10(12)7-5-9/h4-7,12H,2-3H2,1H3
Instrument: Q Exactive Orbitrap (Thermo Scientific)
Instrument type: LC-ESI-QFT
Ms type: MS2
Ion mode: POSITIVE
Ionization: ESI
Fragmentation mode: HCD
Collision energy: 60
Resolution: 17500
Column name: Acquity BEH C18 1.7um, 2.1x150mm (Waters)
Retention time: 15.236 min
Base peak: 79.0212
Precursor m/z: 165.091
Precursor type: [M+H]+
Precursor intensity: 3947375.75
m/z	relative intensity	assigned
51.0231	1	C4H3+
53.0023	1	C3HO+
53.0386	11	C4H5+
55.0542	153	C4H7+
65.0385	5	C5H5+
67.0542	29	C5H7+
77.0385	9	C6H5+
79.0543	2	C6H7+
81.0335	2	C5H5O+
81.0699	1	C6H9+
91.0542	63	C7H7+
93.0336	2	C6H5O+
95.0491	62	C6H7O+
103.0543	3	C8H7+
104.0621	1	C8H8+
105.0335	20	C7H5O+
107.049	4	C7H7O+
109.0284	4	C6H5O2+
109.065	2	C7H9O+
110.0362	2	C6H6O2+
111.0441	13	C6H7O2+
117.0698	5	C9H9+
119.0492	14	C8H7O+
119.0856	20	C9H11+
123.044	999	C7H7O2+
131.0493	1	C9H7O+
132.057	2	C9H8O+
137.0597	41	C8H9O2+
147.0804	10	C10H11O+
150.0677	1	C9H10O2+
165.091	9	C10H13O2+
