Mass spectrum: CP-122721; LC-ESI-QFT; MS2; CE: 90; R=17500; [M+H]+
Name: CP-122721
Name: (2S,3S)-N-[[2-methoxy-5-(trifluoromethoxy)phenyl]methyl]-2-phenylpiperidin-3-amine
Formula: C20H23F3N2O2
Exact mass: 380.1712
SMILES: COC1=C(CN[C@H]2CCCN[C@H]2C2=CC=CC=C2)C=C(OC(F)(F)F)C=C1
InChI: InChI=1S/C20H23F3N2O2/c1-26-18-10-9-16(27-20(21,22)23)12-15(18)13-25-17-8-5-11-24-19(17)14-6-3-2-4-7-14/h2-4,6-7,9-10,12,17,19,24-25H,5,8,11,13H2,1H3/t17-,19-/m0/s1
Instrument: Q Exactive Orbitrap (Thermo Scientific)
Instrument type: LC-ESI-QFT
Ms type: MS2
Ion mode: POSITIVE
Ionization: ESI
Fragmentation mode: HCD
Collision energy: 90
Resolution: 17500
Column name: Acquity BEH C18 1.7um, 2.1x150mm (Waters)
Retention time: 15.712 min
Base peak: 79.0211
Precursor m/z: 381.1784
Precursor type: [M+H]+
Precursor intensity: 55965624.65625
m/z	relative intensity	assigned
50.0151	1	C4H2+
51.0229	1	C4H3+
53.0022	1	C3HO+
53.0386	11	C4H5+
54.0338	17	C3H4N+
55.0542	67	C4H7+
56.0494	18	C3H6N+
57.0135	5	C3H2F+
58.0652	4	C3H8N+
59.0291	5	C3H4F+
63.0227	6	C5H3+
65.0385	58	C5H5+
67.0416	36	C4H5N+
68.0494	40	C4H6N+
68.9946	103	CF3+
69.0573	17	C4H7N+
70.0651	3	C4H8N+
77.0384	6	C6H5+
78.0463	8	C6H6+
79.0542	17	C6H7+
80.0494	20	C5H6N+
81.0572	1	C5H7N+
82.0651	130	C5H8N+
83.0291	160	C5H4F+
83.0729	8	C5H9N+
89.0385	24	C7H5+
90.0464	7	C7H6+
91.0542	999	C7H7+
92.0619	2	C7H8+
95.0491	23	C6H7O+
102.0463	4	C8H6+
103.0542	316	C8H7+
104.0494	59	C7H6N+
105.0699	122	C8H9+
106.0412	3	C7H6O+
106.0651	4	C7H8N+
109.0448	325	C7H6F+
111.0603	1	C7H8F+
115.0542	493	C9H7+
116.0494	2	C8H6N+
116.062	22	C9H8+
117.0573	525	C8H7N+
117.0697	100	C9H9+
118.065	54	C8H8N+
119.0729	70	C8H9N+
127.0353	9	C7H5F2+
127.0541	4	C10H7+
128.062	151	C10H8+
129.0698	22	C10H9+
130.0651	437	C9H8N+
131.073	48	C9H9N+
131.0855	55	C10H11+
132.0807	482	C9H10N+
133.0643	1	C9H9O+
141.0697	8	C11H9+
142.0778	2	C11H10+
143.0728	7	C10H9N+
143.0854	7	C11H11+
144.0807	12	C10H10N+
145.0648	10	C10H9O+
145.0885	4	C10H11N+
155.0602	12	C10H7N2+
158.0963	12	C11H12N+
159.104	5	C11H13N+
160.112	174	C11H14N+
175.0364	49	C8H6F3O+
177.0525	1	C8H8F3O+
