Mass spectrum: Cybutryne; LC-ESI-QFT; MS2; CE: 90; R=17500; [M+H]+
Name: Cybutryne
Name: 2-N-tert-butyl-4-N-cyclopropyl-6-methylsulfanyl-1,3,5-triazine-2,4-diamine
Formula: C11H19N5S
Exact mass: 253.1361
SMILES: CSC1=NC(NC(C)(C)C)=NC(NC2CC2)=N1
InChI: InChI=1S/C11H19N5S/c1-11(2,3)16-9-13-8(12-7-5-6-7)14-10(15-9)17-4/h7H,5-6H2,1-4H3,(H2,12,13,14,15,16)
Instrument: Q Exactive Orbitrap (Thermo Scientific)
Instrument type: LC-ESI-QFT
Ms type: MS2
Ion mode: POSITIVE
Ionization: ESI
Fragmentation mode: HCD
Collision energy: 90
Resolution: 17500
Column name: Acquity BEH C18 1.7um, 2.1x150mm (Waters)
Retention time: 17.002 min
Base peak: 79.0211
Precursor m/z: 254.1434
Precursor type: [M+H]+
Precursor intensity: 55356300.84375
m/z	relative intensity	assigned
54.0339	19	C3H4N+
55.0291	91	C2H3N2+
56.0495	960	C3H6N+
57.0448	4	C2H5N2+
57.0699	82	C4H9+
58.0651	127	C3H8N+
58.995	4	C2H3S+
61.0106	10	C2H5S+
66.0338	17	C4H4N+
67.0291	2	C3H3N2+
67.0416	6	C4H5N+
68.0243	999	C2H2N3+
70.0399	34	C2H4N3+
71.9902	2	C2H2NS+
74.0058	947	C2H4NS+
76.0088	5	CH4N2S+
81.0447	213	C4H5N2+
82.0399	1	C3H4N3+
83.0603	879	C4H7N2+
84.9855	6	C2HN2S+
85.0105	6	C4H5S+
85.0509	41	C2H5N4+
87.0263	64	C4H7S+
89.0166	2	C2H5N2S+
89.0419	6	C4H9S+
91.0324	474	C2H7N2S+
98.0712	4	C4H8N3+
99.0012	14	C3H3N2S+
103.0325	2	C3H7N2S+
108.0556	595	C5H6N3+
109.0509	12	C4H5N4+
110.0461	11	C3H4N5+
112.0868	1	C5H10N3+
114.012	8	C3H4N3S+
114.0372	46	C5H8NS+
116.0277	154	C3H6N3S+
123.0664	8	C5H7N4+
125.0822	46	C5H9N4+
126.0119	5	C4H4N3S+
127.0074	8	C3H3N4S+
141.023	2	C4H5N4S+
150.0774	24	C6H8N5+
156.0337	5	C4H6N5S+
156.059	41	C6H10N3S+
158.0495	8	C4H8N5S+
168.0337	16	C5H6N5S+
170.0494	12	C5H8N5S+
171.0702	1	C6H11N4S+
182.0495	6	C6H8N5S+
198.0809	22	C7H12N5S+
