Mass spectrum: Norethindrone; LC-ESI-QFT; MS2; CE: 75; R=17500; [M+H]+
Name: Norethindrone
Name: (8R,9S,10R,13S,14S,17R)-17-ethynyl-17-hydroxy-13-methyl-1,2,6,7,8,9,10,11,12,14,15,16-dodecahydrocyclopenta[a]phenanthren-3-one
Formula: C20H26O2
Exact mass: 298.1933
SMILES: C[C@]12CC[C@H]3[C@@H](CCC4=CC(=O)CC[C@H]34)[C@@H]1CC[C@@]2(O)C#C
InChI: InChI=1S/C20H26O2/c1-3-20(22)11-9-18-17-6-4-13-12-14(21)5-7-15(13)16(17)8-10-19(18,20)2/h1,12,15-18,22H,4-11H2,2H3/t15-,16+,17+,18-,19-,20-/m0/s1
Instrument: Q Exactive Orbitrap (Thermo Scientific)
Instrument type: LC-ESI-QFT
Ms type: MS2
Ion mode: POSITIVE
Ionization: ESI
Fragmentation mode: HCD
Collision energy: 75
Resolution: 17500
Column name: Acquity BEH C18 1.7um, 2.1x150mm (Waters)
Retention time: 17.309 min
Base peak: 79.0211
Precursor m/z: 299.2006
Precursor type: [M+H]+
Precursor intensity: 3940063.3125
m/z	relative intensity	assigned
51.023	6	C4H3+
53.0023	18	C3HO+
53.0386	81	C4H5+
55.0179	72	C3H3O+
55.0543	152	C4H7+
57.0336	6	C3H5O+
65.0386	66	C5H5+
66.0465	8	C5H6+
67.0542	290	C5H7+
69.0335	11	C4H5O+
69.0699	37	C5H9+
71.0491	7	C4H7O+
77.0387	17	C6H5+
79.0542	735	C6H7+
81.0335	33	C5H5O+
81.0699	518	C6H9+
83.0492	673	C5H7O+
91.0543	925	C7H7+
92.0619	6	C7H8+
93.07	348	C7H9+
94.0415	16	C6H6O+
95.0492	162	C6H7O+
95.0856	117	C7H11+
97.0648	27	C6H9O+
103.0543	89	C8H7+
104.0621	15	C8H8+
105.0699	522	C8H9+
107.0492	214	C7H7O+
107.0856	102	C8H11+
109.0649	999	C7H9O+
109.1012	75	C8H13+
111.0807	11	C7H11O+
115.0543	196	C9H7+
116.0621	68	C9H8+
117.0699	301	C9H9+
118.0776	8	C9H10+
119.0856	270	C9H11+
121.0648	30	C8H9O+
121.1012	66	C9H13+
123.0805	56	C8H11O+
123.117	8	C9H15+
128.0621	231	C10H8+
129.0699	243	C10H9+
130.0779	70	C10H10+
131.0856	227	C10H11+
133.0649	43	C9H9O+
133.1012	63	C10H13+
135.0805	134	C9H11O+
135.117	11	C10H15+
141.0699	125	C11H9+
142.0777	122	C11H10+
143.0856	166	C11H11+
144.0571	6	C10H8O+
144.0934	26	C11H12+
145.065	32	C10H9O+
145.1013	119	C11H13+
146.0728	7	C10H10O+
147.0805	25	C10H11O+
147.1169	11	C11H15+
149.0961	41	C10H13O+
152.0623	12	C12H8+
153.0699	46	C12H9+
154.0777	37	C12H10+
155.0856	102	C12H11+
156.0934	65	C12H12+
157.0652	6	C11H9O+
157.1013	74	C12H13+
158.1089	9	C12H14+
159.0803	24	C11H11O+
159.1167	23	C12H15+
161.0961	46	C11H13O+
161.1325	20	C12H17+
163.1116	13	C11H15O+
165.0701	61	C13H9+
166.0779	34	C13H10+
167.0857	62	C13H11+
168.0933	23	C13H12+
169.1014	48	C13H13+
170.1089	9	C13H14+
171.117	41	C13H15+
173.1326	16	C13H17+
175.1118	14	C12H15O+
178.078	24	C14H10+
179.0856	35	C14H11+
180.0936	14	C14H12+
181.101	34	C14H13+
182.1089	7	C14H14+
183.1168	27	C14H15+
185.1322	9	C14H17+
187.112	7	C13H15O+
187.1494	5	C14H19+
191.0854	17	C15H11+
192.0931	15	C15H12+
193.1012	19	C15H13+
195.1171	7	C15H15+
197.0951	5	C14H13O+
205.1011	13	C16H13+
206.1088	6	C16H14+
207.1167	12	C16H15+
209.1327	8	C16H17+
213.1637	6	C16H21+
