Mass spectrum: 2-Chloro-4-nitrobenzamide; LC-ESI-QFT; MS2; CE: 45; R=17500; [M-H]-
Name: 2-Chloro-4-nitrobenzamide
Name: Aklomide
Formula: C7H5ClN2O3
Exact mass: 199.9989
SMILES: NC(=O)C1=C(Cl)C=C(C=C1)[N+]([O-])=O
InChI: InChI=1S/C7H5ClN2O3/c8-6-3-4(10(12)13)1-2-5(6)7(9)11/h1-3H,(H2,9,11)
Instrument: Q Exactive Orbitrap (Thermo Scientific)
Instrument type: LC-ESI-QFT
Ms type: MS2
Ion mode: NEGATIVE
Ionization: ESI
Fragmentation mode: HCD
Collision energy: 45
Resolution: 17500
Column name: Acquity BEH C18 1.7um, 2.1x150mm (Waters)
Retention time: 11.800 min
Base peak: 112.9857
Precursor m/z: 198.9916
Precursor type: [M-H]-
Precursor intensity: 1298351.342285
m/z	relative intensity	assigned
122.9755	999	C5ClN2-
