Mass spectrum: Decanedioic acid; LC-ESI-QFT; MS2; CE: 15; R=17500; [M-H]-
Name: Decanedioic acid
Name: Sebacic acid
Formula: C10H18O4
Exact mass: 202.1205
SMILES: OC(=O)CCCCCCCCC(O)=O
InChI: InChI=1S/C10H18O4/c11-9(12)7-5-3-1-2-4-6-8-10(13)14/h1-8H2,(H,11,12)(H,13,14)
Instrument: Q Exactive Orbitrap (Thermo Scientific)
Instrument type: LC-ESI-QFT
Ms type: MS2
Ion mode: NEGATIVE
Ionization: ESI
Fragmentation mode: HCD
Collision energy: 15
Resolution: 17500
Column name: Acquity BEH C18 1.7um, 2.1x150mm (Waters)
Retention time: 15.858 min
Base peak: 201.1133
Precursor m/z: 201.1132
Precursor type: [M-H]-
Precursor intensity: 31385000.27344
m/z	relative intensity	assigned
57.0346	12	C3H5O-
111.0816	11	C7H11O-
137.0973	2	C9H13O-
139.1128	765	C9H15O-
157.1234	11	C9H17O2-
183.1027	524	C10H15O3-
201.1132	999	C10H17O4-
