Mass spectrum: SSR161421; LC-ESI-QFT; MS2; CE: 75; R=17500; [M-H]-
Name: SSR161421
Name: N-[4-(benzylamino)-3-cyanoquinolin-2-yl]-4-methoxybenzamide
Formula: C25H20N4O2
Exact mass: 408.1586
SMILES: COC1=CC=C(C=C1)C(=O)NC1=C(C#N)C(NCC2=CC=CC=C2)=C2C=CC=CC2=N1
InChI: InChI=1S/C25H20N4O2/c1-31-19-13-11-18(12-14-19)25(30)29-24-21(15-26)23(20-9-5-6-10-22(20)28-24)27-16-17-7-3-2-4-8-17/h2-14H,16H2,1H3,(H2,27,28,29,30)
Instrument: Q Exactive Orbitrap (Thermo Scientific)
Instrument type: LC-ESI-QFT
Ms type: MS2
Ion mode: NEGATIVE
Ionization: ESI
Fragmentation mode: HCD
Collision energy: 75
Resolution: 17500
Column name: Acquity BEH C18 1.7um, 2.1x150mm (Waters)
Retention time: 16.904 min
Base peak: 350.0275
Precursor m/z: 407.1513
Precursor type: [M-H]-
Precursor intensity: 19473877.50684
m/z	relative intensity	assigned
50.0036	5	C3N-
64.0067	50	C3N2-
65.0145	877	C3HN2-
65.9985	211	C3NO-
80.0016	5	C3N2O-
90.0098	47	C4N3-
93.0346	161	C6H5O-
95.0139	11	C5H3O2-
102.0349	16	C7H4N-
108.0217	11	C6H4O2-
115.0301	10	C7H3N2-
117.0457	26	C7H5N2-
118.0299	164	C7H4NO-
126.0352	5	C9H4N-
127.0305	8	C8H3N2-
128.0381	6	C8H4N2-
128.0507	30	C9H6N-
130.0299	19	C8H4NO-
131.0377	19	C8H5NO-
139.03	4	C9H3N2-
140.0255	15	C8H2N3-
141.0333	6	C8H3N3-
141.0458	86	C9H5N2-
142.0411	210	C8H4N3-
152.0254	4	C9H2N3-
153.0332	3	C9H3N3-
153.0456	6	C10H5N2-
155.0252	14	C9H3N2O-
155.0488	8	C9H5N3-
156.033	562	C9H4N2O-
159.0325	27	C9H5NO2-
160.028	14	C8H4N2O2-
166.0411	369	C10H4N3-
168.0567	239	C10H6N3-
169.0406	7	C10H5N2O-
170.0362	10	C9H4N3O-
171.0567	11	C10H7N2O-
180.0442	933	C10H4N4-
181.0284	4	C10H3N3O-
181.0521	62	C10H5N4-
182.036	218	C10H4N3O-
183.0202	17	C10H3N2O2-
183.0438	4	C10H5N3O-
184.0275	6	C10H4N2O2-
193.0522	8	C11H5N4-
194.0361	17	C11H4N3O-
194.0597	5	C11H6N4-
195.0676	36	C11H7N4-
201.0182	9	C12HN4-
204.0691	30	C14H8N2-
207.0312	999	C11H3N4O-
208.0388	22	C11H4N4O-
209.0468	214	C11H5N4O-
217.0773	16	C15H9N2-
218.0612	7	C15H8NO-
218.0723	9	C14H8N3-
219.0565	9	C14H7N2O-
222.0565	4	C14H8NO2-
228.0695	15	C16H8N2-
229.0645	145	C15H7N3-
230.0725	6	C15H8N3-
231.057	21	C15H7N2O-
231.0799	39	C15H9N3-
232.0641	69	C15H8N2O-
232.0881	10	C15H10N3-
233.0485	7	C15H7NO2-
233.0725	12	C15H9N2O-
234.0436	4	C14H6N2O2-
234.0562	6	C15H8NO2-
235.0513	34	C14H7N2O2-
244.088	122	C16H10N3-
245.0594	32	C15H7N3O-
245.0711	6	C16H9N2O-
245.0833	13	C15H9N4-
246.0678	22	C15H8N3O-
247.0521	8	C15H7N2O2-
255.0802	119	C17H9N3-
257.0595	468	C16H7N3O-
258.0673	14	C16H8N3O-
259.051	31	C16H7N2O2-
259.0755	5	C16H9N3O-
260.0592	29	C16H8N2O2-
260.0829	9	C16H10N3O-
261.0671	40	C16H9N2O2-
271.0628	17	C16H7N4O-
271.099	166	C17H11N4-
272.0704	231	C16H8N4O-
273.0547	94	C16H7N3O2-
273.0784	66	C16H9N4O-
274.0621	19	C16H8N3O2-
286.0622	118	C17H8N3O2-
288.0775	41	C17H10N3O2-
298.049	5	C17H6N4O2-
299.0573	81	C17H7N4O2-
299.0939	4	C18H11N4O-
300.0652	148	C17H8N4O2-
301.0737	9	C17H9N4O2-
315.0885	22	C18H11N4O2-
346.0981	4	C23H12N3O-
362.0932	19	C23H12N3O2-
364.1098	4	C23H14N3O2-
373.1107	5	C24H13N4O-
