Mass spectrum: Roxithromycin; LC-ESI-QFT; MS2; CE: 45; R=17500; [M+H]+
Name: Roxithromycin
Name: (3R,4S,5S,6R,7R,9R,11S,12R,13S,14R)-6-[(2S,3R,4S,6R)-4-(dimethylamino)-3-hydroxy-6-methyloxan-2-yl]oxy-14-ethyl-7,12,13-trihydroxy-4-[(2R,4R,5S,6S)-5-hydroxy-4-methoxy-4,6-dimethyloxan-2-yl]oxy-10-(2-methoxyethoxymethoxyimino)-3,5,7,9,11,13-hexamethyl-oxacyclotetradecan-2-one
Formula: C41H76N2O15
Exact mass: 836.5246
SMILES: CC[C@H]1OC(=O)[C@H](C)[C@@H](O[C@H]2C[C@@](C)(OC)[C@@H](O)[C@H](C)O2)[C@H](C)[C@@H](O[C@@H]2O[C@H](C)C[C@@H]([C@H]2O)N(C)C)[C@](C)(O)C[C@@H](C)C(=NOCOCCOC)[C@H](C)[C@@H](O)[C@]1(C)O
InChI: InChI=1S/C41H76N2O15/c1-15-29-41(10,49)34(45)24(4)31(42-53-21-52-17-16-50-13)22(2)19-39(8,48)36(58-38-32(44)28(43(11)12)18-23(3)54-38)25(5)33(26(6)37(47)56-29)57-30-20-40(9,51-14)35(46)27(7)55-30/h22-30,32-36,38,44-46,48-49H,15-21H2,1-14H3/t22-,23-,24+,25+,26-,27+,28+,29-,30+,32-,33+,34-,35+,36-,38+,39-,40-,41-/m1/s1
Instrument: Q Exactive Orbitrap (Thermo Scientific)
Instrument type: LC-ESI-QFT
Ms type: MS2
Ion mode: POSITIVE
Ionization: ESI
Fragmentation mode: HCD
Collision energy: 45
Resolution: 17500
Column name: Acquity BEH C18 1.7um, 2.1x150mm (Waters)
Retention time: 16.237 min
Base peak: 79.0211
Precursor m/z: 837.5318
Precursor type: [M+H]+
Precursor intensity: 6281425.25
m/z	relative intensity	assigned
58.0651	22	C3H8N+
59.0492	83	C3H7O+
61.0284	1	C2H5O2+
65.0385	1	C5H5+
67.0542	5	C5H7+
68.0495	2	C4H6N+
69.0335	6	C4H5O+
69.0699	9	C5H9+
70.0651	19	C4H8N+
71.0491	5	C4H7O+
71.0729	7	C4H9N+
71.0856	3	C5H11+
72.0807	564	C4H10N+
73.0522	13	C3H7NO+
73.0647	6	C4H9O+
74.06	1	C3H8NO+
74.0965	1	C4H12N+
79.0541	5	C6H7+
81.0699	21	C6H9+
82.0652	1	C5H8N+
83.0491	999	C5H7O+
84.0808	30	C5H10N+
85.0284	9	C4H5O2+
85.0647	7	C5H9O+
86.0601	5	C4H8NO+
86.0965	3	C5H12N+
87.0441	201	C4H7O2+
88.0757	108	C4H10NO+
89.0597	5	C4H9O2+
94.0651	1	C6H8N+
95.0492	12	C6H7O+
95.0855	1	C7H11+
96.0808	3	C6H10N+
97.0648	9	C6H9O+
97.1011	1	C7H13+
98.0964	459	C6H12N+
99.0804	7	C6H11O+
99.1042	17	C6H13N+
100.0757	46	C5H10NO+
101.0836	3	C5H11NO+
102.0913	1	C5H12NO+
107.0856	2	C8H11+
109.0649	11	C7H9O+
109.1012	8	C8H13+
110.0966	3	C7H12N+
112.0759	1	C6H10NO+
113.0597	101	C6H9O2+
114.0914	41	C6H12NO+
115.0754	10	C6H11O2+
116.0707	468	C5H10NO2+
116.1069	417	C6H14NO+
119.0856	1	C9H11+
121.1011	4	C9H13+
122.0963	1	C8H12N+
123.0804	9	C8H11O+
124.1121	4	C8H14N+
125.0963	6	C8H13O+
127.0753	17	C7H11O2+
127.099	1	C7H13NO+
128.1071	8	C7H14NO+
137.0962	5	C9H13O+
138.0915	2	C8H12NO+
140.1071	7	C8H14NO+
142.1226	5	C8H16NO+
143.1065	1	C8H15O2+
147.1171	1	C11H15+
151.0755	3	C9H11O2+
154.1228	2	C9H16NO+
155.1066	1	C9H15O2+
158.1176	480	C8H16NO2+
164.1071	2	C10H14NO+
165.0907	1	C10H13O2+
165.1274	1	C11H17O+
175.1118	2	C12H15O+
176.128	4	C8H18NO3+
183.1017	1	C10H15O3+
192.1385	2	C12H18NO+
193.1221	5	C12H17O2+
210.1491	1	C12H20NO2+
211.1327	2	C12H19O3+
221.1174	2	C13H17O3+
