Mass spectrum: Glybenclamide; LC-ESI-QFT; MS2; CE: 30; R=17500; [M+H]+
Name: Glybenclamide
Name: Glyburide
Name: 5-chloro-N-[2-[4-(cyclohexylcarbamoylsulfamoyl)phenyl]ethyl]-2-methoxybenzamide
Formula: C23H28ClN3O5S
Exact mass: 493.1438
SMILES: COC1=C(C=C(Cl)C=C1)C(=O)NCCC1=CC=C(C=C1)S(=O)(=O)NC(=O)NC1CCCCC1
InChI: InChI=1S/C23H28ClN3O5S/c1-32-21-12-9-17(24)15-20(21)22(28)25-14-13-16-7-10-19(11-8-16)33(30,31)27-23(29)26-18-5-3-2-4-6-18/h7-12,15,18H,2-6,13-14H2,1H3,(H,25,28)(H2,26,27,29)
Instrument: Q Exactive Orbitrap (Thermo Scientific)
Instrument type: LC-ESI-QFT
Ms type: MS2
Ion mode: POSITIVE
Ionization: ESI
Fragmentation mode: HCD
Collision energy: 30
Resolution: 17500
Column name: Acquity BEH C18 1.7um, 2.1x150mm (Waters)
Retention time: 17.866 min
Base peak: 79.0212
Precursor m/z: 494.1511
Precursor type: [M+H]+
Precursor intensity: 7235189.765625
m/z	relative intensity	assigned
55.0542	1	C4H7+
83.0855	6	C6H11+
100.1121	37	C6H14N+
105.07	5	C8H9+
107.0491	5	C7H7O+
125.9871	2	C6H3ClO+
131.0604	2	C8H7N2+
134.0965	7	C9H12N+
154.9897	1	C7H4ClO2+
167.0163	27	C8H7O2S+
168.0213	9	C8H7ClNO+
169.0052	999	C8H6ClO2+
198.0318	19	C9H9ClNO2+
209.0969	2	C12H16ClN+
210.0317	2	C10H9ClNO2+
210.104	5	C15H14O+
245.9987	9	C9H9ClNO3S+
259.0522	42	C15H12ClO2+
262.0629	2	C14H13ClNO2+
288.0787	47	C16H15ClNO2+
304.0737	297	C16H15ClNO3+
352.0408	20	C16H15ClNO4S+
369.0673	250	C16H18ClN2O4S+
370.0515	20	C16H17ClNO5S+
395.0468	17	C17H16ClN2O5S+
