Mass spectrum: Ethirimol; LC-ESI-QFT; MS2; CE: 30; R=17500; [M+H]+
Name: Ethirimol
Name: 5-butyl-2-(ethylamino)-6-methyl-1H-pyrimidin-4-one
Formula: C11H19N3O
Exact mass: 209.1528
SMILES: CCCCC1=C(O)N=C(NCC)N=C1C
InChI: InChI=1S/C11H19N3O/c1-4-6-7-9-8(3)13-11(12-5-2)14-10(9)15/h4-7H2,1-3H3,(H2,12,13,14,15)
Instrument: Q Exactive Orbitrap (Thermo Scientific)
Instrument type: LC-ESI-QFT
Ms type: MS2
Ion mode: POSITIVE
Ionization: ESI
Fragmentation mode: HCD
Collision energy: 30
Resolution: 17500
Column name: Acquity BEH C18 1.7um, 2.1x150mm (Waters)
Retention time: 13.266 min
Base peak: 79.0211
Precursor m/z: 210.1601
Precursor type: [M+H]+
Precursor intensity: 30599124.90625
m/z	relative intensity	assigned
140.107	16	C8H14NO+
150.1029	1	C8H12N3+
165.1021	1	C9H13N2O+
167.1053	1	C8H13N3O+
182.1289	11	C9H16N3O+
193.1338	8	C11H17N2O+
210.16	999	C11H20N3O+
