Mass spectrum: Milrinone; LC-ESI-QFT; MS2; CE: 75; R=17500; [M-H]-
Name: Milrinone
Name: 6-methyl-2-oxo-5-pyridin-4-yl-1H-pyridine-3-carbonitrile
Formula: C12H9N3O
Exact mass: 211.0746
SMILES: CC1=C(C=C(C#N)C(=O)N1)C1=CC=NC=C1
InChI: InChI=1S/C12H9N3O/c1-8-11(9-2-4-14-5-3-9)6-10(7-13)12(16)15-8/h2-6H,1H3,(H,15,16)
Instrument: Q Exactive Orbitrap (Thermo Scientific)
Instrument type: LC-ESI-QFT
Ms type: MS2
Ion mode: NEGATIVE
Ionization: ESI
Fragmentation mode: HCD
Collision energy: 75
Resolution: 17500
Column name: Acquity BEH C18 1.7um, 2.1x150mm (Waters)
Retention time: 3.062 min
Base peak: 210.0672
Precursor m/z: 210.0673
Precursor type: [M-H]-
Precursor intensity: 2567528.90625
m/z	relative intensity	assigned
50.0035	9	C3N-
64.0192	63	C4H2N-
65.0145	318	C3HN2-
65.9986	208	C3NO-
90.035	174	C6H4N-
91.0303	23	C5H3N2-
92.0505	32	C6H6N-
93.0094	19	C4HN2O-
102.0353	7	C7H4N-
107.0251	100	C5H3N2O-
116.0506	245	C8H6N-
117.0458	264	C7H5N2-
118.0299	106	C7H4NO-
140.0377	8	C9H4N2-
140.0507	21	C10H6N-
141.0458	330	C9H5N2-
143.0615	238	C9H7N2-
159.0564	16	C9H7N2O-
165.0458	12	C11H5N2-
166.0411	999	C10H4N3-
167.0615	735	C11H7N2-
168.0567	118	C10H6N3-
169.0405	17	C10H5N2O-
180.0567	11	C11H6N3-
182.072	45	C11H8N3-
183.0564	39	C11H7N2O-
194.036	136	C11H4N3O-
208.0519	43	C12H6N3O-
210.0673	405	C12H8N3O-
