Mass spectrum: CP-607366; LC-ESI-QFT; MS2; CE: 60; R=17500; [M+H]+
Name: CP-607366
Name: 1-(2-(3,4-Dichlorophenoxy)-5-fluorophenyl)-N-methylmethanamine
Name: 1-[2-(3,4-dichlorophenoxy)-5-fluorophenyl]-N-methylmethanamine
Formula: C14H12Cl2FNO
Exact mass: 299.0280
SMILES: CNCC1=C(OC2=CC=C(Cl)C(Cl)=C2)C=CC(F)=C1
InChI: InChI=1S/C14H12Cl2FNO/c1-18-8-9-6-10(17)2-5-14(9)19-11-3-4-12(15)13(16)7-11/h2-7,18H,8H2,1H3
Instrument: Q Exactive Orbitrap (Thermo Scientific)
Instrument type: LC-ESI-QFT
Ms type: MS2
Ion mode: POSITIVE
Ionization: ESI
Fragmentation mode: HCD
Collision energy: 60
Resolution: 17500
Column name: Acquity BEH C18 1.7um, 2.1x150mm (Waters)
Retention time: 15.598 min
Base peak: 79.0211
Precursor m/z: 300.0353
Precursor type: [M+H]+
Precursor intensity: 16486004.625
m/z	relative intensity	assigned
75.023	1	C6H3+
113.0397	2	C6H6FO+
123.0352	3	C2H13Cl2O+
139.0058	1	C9HNO+
170.0526	73	C12H7F+
171.0603	10	C12H8F+
172.9666	2	C9ClNO+
186.0231	87	C12H7Cl+
198.0473	2	C13H7FO+
199.0553	662	C13H8FO+
205.0214	12	C12H7ClF+
206.0293	59	C12H8ClF+
214.018	1	C13H7ClO+
215.0258	33	C13H8ClO+
220.9918	11	C12H7Cl2+
233.0163	999	C13H7ClFO+
234.024	136	C13H8ClFO+
240.9977	2	C12H8Cl2F+
248.9867	9	C13H7Cl2O+
266.9783	1	C13H6Cl2FO+
268.9933	5	C13H8Cl2FO+
