Mass spectrum: Nonivamide; LC-ESI-QFT; MS2; CE: 75; R=17500; [M+H]+
Name: Nonivamide
Name: N-[(4-hydroxy-3-methoxyphenyl)methyl]nonanamide
Formula: C17H27NO3
Exact mass: 293.1991
SMILES: CCCCCCCCC(=O)NCC1=CC(OC)=C(O)C=C1
InChI: InChI=1S/C17H27NO3/c1-3-4-5-6-7-8-9-17(20)18-13-14-10-11-15(19)16(12-14)21-2/h10-12,19H,3-9,13H2,1-2H3,(H,18,20)
Instrument: Q Exactive Orbitrap (Thermo Scientific)
Instrument type: LC-ESI-QFT
Ms type: MS2
Ion mode: POSITIVE
Ionization: ESI
Fragmentation mode: HCD
Collision energy: 75
Resolution: 17500
Column name: Acquity BEH C18 1.7um, 2.1x150mm (Waters)
Retention time: 17.928 min
Base peak: 79.0211
Precursor m/z: 294.2064
Precursor type: [M+H]+
Precursor intensity: 6624106.4375
m/z	relative intensity	assigned
51.0231	3	C4H3+
53.0387	8	C4H5+
55.0179	7	C3H3O+
55.0544	3	C4H7+
57.0699	28	C4H9+
65.0386	19	C5H5+
66.0464	41	C5H6+
67.0541	6	C5H7+
71.0855	14	C5H11+
77.0385	5	C6H5+
79.0542	70	C6H7+
81.0699	44	C6H9+
88.0758	8	C4H10NO+
91.0542	56	C7H7+
94.0413	333	C6H6O+
95.0491	22	C6H7O+
105.0334	3	C7H5O+
107.0491	29	C7H7O+
109.0648	41	C7H9O+
122.0362	621	C7H6O2+
135.0441	8	C8H7O2+
137.0597	999	C8H9O2+
158.1539	5	C9H20NO+
