Mass spectrum: Coumaphos; LC-ESI-QFT; MS2; CE: 90; R=17500; [M+H]+
Name: Coumaphos
Formula: C14H16ClO5PS
Exact mass: 362.0145
SMILES: CCOP(=S)(OCC)OC1=CC2=C(C=C1)C(C)=C(Cl)C(=O)O2
InChI: InChI=1S/C14H16ClO5PS/c1-4-17-21(22,18-5-2)20-10-6-7-11-9(3)13(15)14(16)19-12(11)8-10/h6-8H,4-5H2,1-3H3
Instrument: Q Exactive Orbitrap (Thermo Scientific)
Instrument type: LC-ESI-QFT
Ms type: MS2
Ion mode: POSITIVE
Ionization: ESI
Fragmentation mode: HCD
Collision energy: 90
Resolution: 17500
Column name: Acquity BEH C18 1.7um, 2.1x150mm (Waters)
Retention time: 18.628 min
Base peak: 79.0212
Precursor m/z: 363.0217
Precursor type: [M+H]+
Precursor intensity: 7876347.40625
m/z	relative intensity	assigned
53.0385	8	C4H5+
55.0178	1	C3H3O+
63.0228	7	C5H3+
64.9787	32	H2O2P+
65.0385	33	C5H5+
68.9793	26	C3HS+
68.9971	8	C3HO2+
75.0229	11	C6H3+
77.0386	6	C6H5+
89.0385	13	C7H5+
91.0542	201	C7H7+
94.0413	2	C6H6O+
95.0491	26	C6H7O+
96.9507	3	H2O2PS+
98.0151	40	C8H2+
98.9842	999	H4O4P+
102.0464	81	C8H6+
103.0542	143	C8H7+
104.0621	9	C8H8+
108.9839	2	C6H2Cl+
109.0049	9	C2H6O3P+
112.9602	27	C4H2PS+
114.0466	3	C9H6+
114.9613	227	H4O3PS+
115.0542	276	C9H7+
116.9948	20	H6O5P+
118.0413	8	C8H6O+
119.0492	57	C8H7O+
121.0106	24	C7H5S+
122.9995	6	C7H4Cl+
123.0262	5	C7H7S+
124.9966	12	ClH11OPS+
125.0153	23	C7H6Cl+
128.9769	8	CH6O3PS+
129.0444	9	ClH15O3P+
131.0105	17	CH8O5P+
131.0492	306	C9H7O+
132.057	67	C9H8O+
132.9713	2	H6O4PS+
133.0107	5	C8H5S+
134.0185	48	C8H6S+
134.981	39	CH9ClOPS+
135.0262	119	C8H7S+
136.0075	3	C8H5Cl+
136.0341	12	C8H8S+
137.0152	28	C8H6Cl+
138.023	9	C8H7Cl+
139.031	2	C8H8Cl+
147.0263	138	C9H7S+
147.044	80	C9H7O2+
148.0341	13	C9H8S+
148.0519	56	C9H8O2+
149.0055	8	C8H5OS+
149.0153	49	C9H6Cl+
150.0231	21	C9H7Cl+
153.0102	8	C8H6ClO+
155.026	18	C8H8ClO+
159.0441	61	C4H12ClO4+
159.0551	18	CH17ClO4P+
162.0134	30	C9H6OS+
163.0212	140	C9H7OS+
164.029	96	C9H8OS+
165.0028	9	C8H5O2S+
165.0101	55	C9H6ClO+
166.0181	62	C9H7ClO+
167.9794	4	C7H5OPS+
169.9685	11	C7H4ClOP+
171.0027	16	C7H8OPS+
172.9688	6	C9HO2S+
173.9626	240	C6H4ClO2P+
175.039	9	C10H7O3+
180.9872	6	C8H6OPS+
181.005	11	C9H6ClO2+
182.0129	65	C9H7ClO2+
188.968	1	C7H7ClPS+
191.0161	30	C10H7O2S+
192.0241	3	C10H8O2S+
194.013	51	C10H7ClO2+
196.9823	18	C9H6ClOS+
197.9902	10	C9H7ClOS+
198.9631	2	C8H4ClO2S+
198.9963	2	C2H13ClO4PS+
207.9744	2	C10H5ClOS+
210.0478	2	C8H15ClO2S+
211.0157	26	C10H8ClO3+
217.0286	2	C5H14O5PS+
225.9849	72	C10H7ClO2S+
226.9927	43	C10H8ClO2S+
256.9765	12	C10H7ClO4P+
289.006	4	C8H15ClO5PS+
