Mass spectrum: Isoxaben; LC-ESI-QFT; MS2; CE: 60; R=17500; [M+H]+
Name: Isoxaben
Name: 2,6-dimethoxy-N-[3-(3-methylpentan-3-yl)-1,2-oxazol-5-yl]benzamide
Formula: C18H24N2O4
Exact mass: 332.1736
SMILES: CCC(C)(CC)C1=NOC(NC(=O)C2=C(OC)C=CC=C2OC)=C1
InChI: InChI=1S/C18H24N2O4/c1-6-18(3,7-2)14-11-15(24-20-14)19-17(21)16-12(22-4)9-8-10-13(16)23-5/h8-11H,6-7H2,1-5H3,(H,19,21)
Instrument: Q Exactive Orbitrap (Thermo Scientific)
Instrument type: LC-ESI-QFT
Ms type: MS2
Ion mode: POSITIVE
Ionization: ESI
Fragmentation mode: HCD
Collision energy: 60
Resolution: 17500
Column name: Acquity BEH C18 1.7um, 2.1x150mm (Waters)
Retention time: 17.390 min
Base peak: 79.0212
Precursor m/z: 333.1809
Precursor type: [M+H]+
Precursor intensity: 29348567
m/z	relative intensity	assigned
53.0386	3	C4H5+
57.0699	1	C4H9+
75.023	1	C6H3+
77.0385	3	C6H5+
79.0542	25	C6H7+
81.0335	1	C5H5O+
81.07	2	C6H9+
91.0543	1	C7H7+
92.0256	3	C6H4O+
94.0413	3	C6H6O+
95.0492	10	C6H7O+
105.0336	5	C7H5O+
105.0448	3	C6H5N2+
107.0127	17	C6H3O2+
107.0492	22	C7H7O+
109.0649	11	C7H9O+
122.0363	70	C7H6O2+
123.0441	1	C7H7O2+
125.0597	7	C7H9O2+
135.044	15	C8H7O2+
135.0551	2	C7H7N2O+
137.0598	5	C8H9O2+
150.0312	165	C8H6O3+
165.0547	999	C9H9O3+
168.0417	126	C8H8O4+
182.0574	12	C9H10O4+
