Mass spectrum: Hexylparaben; LC-ESI-QFT; MS2; CE: 75; R=17500; [M-H]-
Name: Hexylparaben
Name: hexyl 4-hydroxybenzoate
Formula: C13H18O3
Exact mass: 222.1256
SMILES: CCCCCCOC(=O)C1=CC=C(O)C=C1
InChI: InChI=1S/C13H18O3/c1-2-3-4-5-10-16-13(15)11-6-8-12(14)9-7-11/h6-9,14H,2-5,10H2,1H3
Instrument: Q Exactive Orbitrap (Thermo Scientific)
Instrument type: LC-ESI-QFT
Ms type: MS2
Ion mode: NEGATIVE
Ionization: ESI
Fragmentation mode: HCD
Collision energy: 75
Resolution: 17500
Column name: Acquity BEH C18 1.7um, 2.1x150mm (Waters)
Retention time: 18.967 min
Base peak: 221.1183
Precursor m/z: 221.1183
Precursor type: [M-H]-
Precursor intensity: 73965435.90918
m/z	relative intensity	assigned
53.0033	1	C3HO-
65.0033	2	C4HO-
65.0397	8	C5H5-
67.019	3	C4H3O-
68.9982	14	C3HO2-
69.0346	11	C4H5O-
70.006	6	C3H2O2-
71.0139	6	C3H3O2-
72.9931	5	C2HO3-
78.0112	1	C5H2O-
79.0189	8	C5H3O-
79.9904	4	C4O2-
80.9983	3	C4HO2-
82.006	32	C4H2O2-
86.001	1	C3H2O3-
91.019	91	C6H3O-
92.0268	145	C6H4O-
93.0346	999	C6H5O-
95.0138	443	C5H3O2-
97.0297	6	C5H5O2-
97.066	2	C6H9O-
98.0011	1	C4H2O3-
99.0816	85	C6H11O-
106.006	22	C6H2O2-
107.0139	2	C6H3O2-
108.0217	420	C6H4O2-
109.0294	1	C6H5O2-
119.014	5	C7H3O2-
121.0295	38	C7H5O2-
123.0088	55	C6H3O3-
136.0165	51	C7H4O3-
137.0244	40	C7H5O3-
149.0238	1	C8H5O3-
221.1179	1	C13H17O3-
