Mass spectrum: Pioglitazone hydrochloride; LC-ESI-QFT; MS2; CE: 30; R=17500; [M-H]-
Name: Pioglitazone
Name: 5-[[4-[2-(5-ethylpyridin-2-yl)ethoxy]phenyl]methyl]-1,3-thiazolidine-2,4-dione
Formula: C19H20N2O3S
Exact mass: 356.1195
SMILES: CCC1=CN=C(CCOC2=CC=C(CC3SC(=O)NC3=O)C=C2)C=C1
InChI: InChI=1S/C19H20N2O3S/c1-2-13-3-6-15(20-12-13)9-10-24-16-7-4-14(5-8-16)11-17-18(22)21-19(23)25-17/h3-8,12,17H,2,9-11H2,1H3,(H,21,22,23)
Instrument: Q Exactive Orbitrap (Thermo Scientific)
Instrument type: LC-ESI-QFT
Ms type: MS2
Ion mode: NEGATIVE
Ionization: ESI
Fragmentation mode: HCD
Collision energy: 30
Resolution: 17500
Column name: Acquity BEH C18 1.7um, 2.1x150mm (Waters)
Retention time: 13.579 min
Base peak: 112.9855
Precursor m/z: 355.1122
Precursor type: [M-H]-
Precursor intensity: 8117630.807129
m/z	relative intensity	assigned
284.1114	162	C17H18NOS-
312.1064	823	C18H18NO2S-
355.1122	999	C19H19N2O3S-
