Mass spectrum: 2-[4-(Diethylamino)-2-hydroxybenzoyl]benzoic acid; LC-ESI-QFT; MS2; CE: 60; R=17500; [M-H]-
Name: 2-[4-(Diethylamino)-2-hydroxybenzoyl]benzoic acid
Name: 2-(4-(Diethylamino)-2-hydroxybenzoyl)benzoic acid
Formula: C18H19NO4
Exact mass: 313.1314
SMILES: CCN(CC)C1=CC(O)=C(C=C1)C(=O)C1=C(C=CC=C1)C(O)=O
InChI: InChI=1S/C18H19NO4/c1-3-19(4-2)12-9-10-15(16(20)11-12)17(21)13-7-5-6-8-14(13)18(22)23/h5-11,20H,3-4H2,1-2H3,(H,22,23)
Instrument: Q Exactive Orbitrap (Thermo Scientific)
Instrument type: LC-ESI-QFT
Ms type: MS2
Ion mode: NEGATIVE
Ionization: ESI
Fragmentation mode: HCD
Collision energy: 60
Resolution: 17500
Column name: Acquity BEH C18 1.7um, 2.1x150mm (Waters)
Retention time: 17.529 min
Base peak: 307.0977
Precursor m/z: 312.1241
Precursor type: [M-H]-
Precursor intensity: 25311720.33203
m/z	relative intensity	assigned
120.0455	63	C7H6NO-
121.0295	82	C7H5O2-
134.0614	2	C8H8NO-
135.069	37	C8H9NO-
136.0768	6	C8H10NO-
164.1081	35	C10H14NO-
169.0659	8	C12H9O-
182.0375	1	C12H6O2-
183.0121	2	C14HN-
184.016	2	C11H4O3-
184.0531	4	C12H8O2-
194.0609	1	C13H8NO-
195.0451	1	C13H7O2-
196.0404	1	C12H6NO2-
196.0767	13	C13H10NO-
197.0609	5	C13H9O2-
209.0482	1	C13H7NO2-
210.0562	12	C13H8NO2-
211.0637	3	C13H9NO2-
211.0763	1	C14H11O2-
212.0719	6	C13H10NO2-
220.0771	1	C15H10NO-
221.0847	1	C15H11NO-
222.0558	4	C14H8NO2-
223.0641	3	C14H9NO2-
223.0766	11	C15H11O2-
224.0717	999	C14H10NO2-
238.0511	6	C14H8NO3-
238.0874	56	C15H12NO2-
239.0952	8	C15H13NO2-
240.103	20	C15H14NO2-
252.0668	1	C15H10NO3-
252.1027	1	C16H14NO2-
256.0749	1	C15H12O4-
268.1344	30	C17H18NO2-
