Mass spectrum: Glipizide; LC-ESI-QFT; MS2; CE: 90; R=17500; [M-H]-
Name: Glipizide
Name: N-[2-[4-(cyclohexylcarbamoylsulfamoyl)phenyl]ethyl]-5-methylpyrazine-2-carboxamide
Formula: C21H27N5O4S
Exact mass: 445.1784
SMILES: CC1=NC=C(N=C1)C(=O)NCCC1=CC=C(C=C1)S(=O)(=O)NC(=O)NC1CCCCC1
InChI: InChI=1S/C21H27N5O4S/c1-15-13-24-19(14-23-15)20(27)22-12-11-16-7-9-18(10-8-16)31(29,30)26-21(28)25-17-5-3-2-4-6-17/h7-10,13-14,17H,2-6,11-12H2,1H3,(H,22,27)(H2,25,26,28)
Instrument: Q Exactive Orbitrap (Thermo Scientific)
Instrument type: LC-ESI-QFT
Ms type: MS2
Ion mode: NEGATIVE
Ionization: ESI
Fragmentation mode: HCD
Collision energy: 90
Resolution: 17500
Column name: Acquity BEH C18 1.7um, 2.1x150mm (Waters)
Retention time: 16.333 min
Base peak: 202.9785
Precursor m/z: 444.1711
Precursor type: [M-H]-
Precursor intensity: 6067434.801758
m/z	relative intensity	assigned
61.9706	281	NOS-
63.9624	514	O2S-
64.9703	36	HO2S-
77.9655	57	NO2S-
78.9733	999	HNO2S-
79.9812	137	H2NO2S-
80.9652	85	HO3S-
93.0458	69	C5H5N2-
93.9604	590	NO3S-
106.0424	34	C7H6O-
108.0217	13	C6H4O2-
118.041	7	C6H4N3-
118.0662	34	C8H8N-
121.0294	13	C7H5O2-
135.0926	2	C8H11N2-
136.0517	7	C6H6N3O-
138.0324	5	C7H6O3-
154.0094	155	C7H6O2S-
169.0205	18	C7H7NO2S-
170.0284	6	C7H8NO2S-
185.9992	55	C7H6O4S-
201.0104	5	C7H7NO4S-
