Mass spectrum: 2-Amino-6-nitrobenzothiazole; LC-ESI-QFT; MS2; CE: 75; R=17500; [M-H]-
Name: 2-Amino-6-nitrobenzothiazole
Name: 6-nitro-1,3-benzothiazol-2-amine
Formula: C7H5N3O2S
Exact mass: 195.0102
SMILES: NC1=NC2=CC=C(C=C2S1)[N+]([O-])=O
InChI: InChI=1S/C7H5N3O2S/c8-7-9-5-2-1-4(10(11)12)3-6(5)13-7/h1-3H,(H2,8,9)
Instrument: Q Exactive Orbitrap (Thermo Scientific)
Instrument type: LC-ESI-QFT
Ms type: MS2
Ion mode: NEGATIVE
Ionization: ESI
Fragmentation mode: HCD
Collision energy: 75
Resolution: 17500
Column name: Acquity BEH C18 1.7um, 2.1x150mm (Waters)
Retention time: 14.413 min
Base peak: 194.0028
Precursor m/z: 194.003
Precursor type: [M-H]-
Precursor intensity: 15820889.20996
m/z	relative intensity	assigned
50.0036	14	C3N-
56.9805	9	C2HS-
57.9757	999	CNS-
60.9753	94	CHOS-
64.0193	6	C4H2N-
65.0145	16	C3HN2-
65.9986	16	C3NO-
68.0143	4	C3H2NO-
70.9835	17	C2HNS-
77.0146	4	C4HN2-
78.0222	4	C4H2N2-
81.9757	34	C3NS-
83.9913	5	C3H2NS-
88.9704	42	C2HO2S-
89.0144	16	C5HN2-
91.0302	19	C5H3N2-
94.9838	13	C4HNS-
95.9915	4	C4H2NS-
96.004	7	C5H4S-
104.0381	14	C6H4N2-
106.9961	94	C6H3S-
107.9914	69	C5H2NS-
108.9754	6	C5HOS-
115.0302	155	C7H3N2-
119.0252	36	C6H3N2O-
119.9915	15	C6H2NS-
120.0091	2	C6H2NO2-
120.9992	154	C6H3NS-
121.9946	4	C5H2N2S-
122.0123	4	C5H2N2O2-
123.0022	3	C5H3N2S-
123.9866	13	C5H2NOS-
124.9938	3	C5H3NOS-
129.0335	3	C7H3N3-
130.0173	54	C7H2N2O-
131.0252	12	C7H3N2O-
132.033	212	C7H4N2O-
132.9871	2	C6HN2S-
135.0024	25	C6H3N2S-
135.9863	19	C6H2NOS-
136.0102	9	C6H4N2S-
138.9859	4	C6H3O2S-
145.9947	6	C7H2N2S-
147.0025	34	C7H3N2S-
147.0202	86	C7H3N2O2-
148.0103	365	C7H4N2S-
149.9894	6	C6H2N2OS-
150.9972	80	C6H3N2OS-
152.977	3	C5HN2O2S-
153.9971	8	C6H4NO2S-
162.0311	386	C7H4N3O2-
162.9973	86	C7H3N2OS-
164.0053	58	C7H4N2OS-
166.9922	12	C6H3N2O2S-
177.0005	63	C7H3N3OS-
178.9922	6	C7H3N2O2S-
192.9952	4	C7H3N3O2S-
194.0031	102	C7H4N3O2S-
