Mass spectrum: Zenarestat; LC-ESI-QFT; MS2; CE: 45; R=17500; [M-H]-
Name: Zenarestat
Name: 2-[3-[(4-bromo-2-fluorophenyl)methyl]-7-chloro-2,4-dioxoquinazolin-1-yl]acetic acid
Formula: C17H11BrClFN2O4
Exact mass: 439.9575
SMILES: OC(=O)CN1C(=O)N(CC2=CC=C(Br)C=C2F)C(=O)C2=C1C=C(Cl)C=C2
InChI: InChI=1S/C17H11BrClFN2O4/c18-10-2-1-9(13(20)5-10)7-22-16(25)12-4-3-11(19)6-14(12)21(17(22)26)8-15(23)24/h1-6H,7-8H2,(H,23,24)
Instrument: Q Exactive Orbitrap (Thermo Scientific)
Instrument type: LC-ESI-QFT
Ms type: MS2
Ion mode: NEGATIVE
Ionization: ESI
Fragmentation mode: HCD
Collision energy: 45
Resolution: 17500
Column name: Acquity BEH C18 1.7um, 2.1x150mm (Waters)
Retention time: 18.674 min
Base peak: 322.1448
Precursor m/z: 438.9502
Precursor type: [M-H]-
Precursor intensity: 3550840.558594
m/z	relative intensity	assigned
78.9189	999	Br-
120.0454	45	C7H6NO-
166.0065	284	C8H5ClNO-
179.0018	85	C8H4ClN2O-
196.9924	273	C8H3ClFN2O-
203.0018	45	C10H4ClN2O-
226.064	16	C14H10O3-
253.0174	54	C14H6ClN2O-
258.053	18	C17H8NO2-
346.9581	20	C15H9BrClN2O-
360.9386	317	C15H7BrClN2O2-
380.9435	71	C15H8BrClFN2O2-
