Mass spectrum: CP-671305; LC-ESI-QFT; MS2; CE: 90; R=17500; [M+H]+
Name: CP-671305
Name: (2R)-2-[4-[[[2-(1,3-benzodioxol-5-yloxy)pyridine-3-carbonyl]amino]methyl]-3-fluorophenoxy]propanoic acid
Formula: C23H19FN2O7
Exact mass: 454.1176
SMILES: C[C@@H](OC1=CC=C(CNC(=O)C2=CC=CN=C2OC2=CC=C3OCOC3=C2)C(F)=C1)C(O)=O
InChI: InChI=1S/C23H19FN2O7/c1-13(23(28)29)32-15-5-4-14(18(24)9-15)11-26-21(27)17-3-2-8-25-22(17)33-16-6-7-19-20(10-16)31-12-30-19/h2-10,13H,11-12H2,1H3,(H,26,27)(H,28,29)/t13-/m1/s1
Instrument: Q Exactive Orbitrap (Thermo Scientific)
Instrument type: LC-ESI-QFT
Ms type: MS2
Ion mode: POSITIVE
Ionization: ESI
Fragmentation mode: HCD
Collision energy: 90
Resolution: 17500
Column name: Acquity BEH C18 1.7um, 2.1x150mm (Waters)
Retention time: 16.757 min
Base peak: 79.0211
Precursor m/z: 455.1249
Precursor type: [M+H]+
Precursor intensity: 10469648
m/z	relative intensity	assigned
51.023	1	C4H3+
53.0386	34	C4H5+
55.0178	4	C3H3O+
57.0134	1	C3H2F+
65.0385	2	C5H5+
71.0291	4	C4H4F+
73.0084	1	C3H2FO+
75.0229	8	C6H3+
77.0385	24	C6H5+
81.0335	3	C5H5O+
91.0543	1	C7H7+
94.0413	4	C6H6O+
95.0491	109	C6H7O+
96.037	6	C6H5F+
96.0444	2	C5H6NO+
97.0448	79	C6H6F+
101.0387	1	C8H5+
103.0541	1	C8H7+
104.0495	1	C7H6N+
105.0337	6	C7H5O+
105.0447	41	C6H5N2+
113.0397	21	C6H6FO+
119.0492	3	C8H7O+
123.0354	29	C6H4FN2+
125.0397	999	C7H6FO+
128.0494	41	C9H6N+
129.0334	5	C9H5O+
129.0447	7	C8H5N2+
130.0651	1	C9H8N+
140.0496	1	C10H6N+
146.0599	3	C9H8NO+
156.0443	124	C10H6NO+
184.0393	22	C11H6NO2+
186.0551	2	C11H8NO2+
202.05	3	C11H8NO3+
212.0343	3	C12H6NO3+
216.0654	1	C12H10NO3+
242.0448	1	C13H8NO4+
