Mass spectrum: Volinanserin; LC-ESI-QFT; MS2; CE: 75; R=17500; [M+H]+
Name: Volinanserin
Formula: C22H28FNO3
Exact mass: 373.2053
SMILES: COC1=C(OC)C(=CC=C1)[C@H](O)C1CCN(CCC2=CC=C(F)C=C2)CC1
InChI: InChI=1S/C22H28FNO3/c1-26-20-5-3-4-19(22(20)27-2)21(25)17-11-14-24(15-12-17)13-10-16-6-8-18(23)9-7-16/h3-9,17,21,25H,10-15H2,1-2H3/t21-/m1/s1
Instrument: Q Exactive Orbitrap (Thermo Scientific)
Instrument type: LC-ESI-QFT
Ms type: MS2
Ion mode: POSITIVE
Ionization: ESI
Fragmentation mode: HCD
Collision energy: 75
Resolution: 17500
Column name: Acquity BEH C18 1.7um, 2.1x150mm (Waters)
Retention time: 13.636 min
Base peak: 79.0211
Precursor m/z: 374.2126
Precursor type: [M+H]+
Precursor intensity: 41306520.96875
m/z	relative intensity	assigned
51.023	1	C4H3+
53.0386	33	C4H5+
55.0179	1	C3H3O+
55.0542	3	C4H7+
56.0494	8	C3H6N+
58.0651	2	C3H8N+
65.0385	6	C5H5+
67.0416	2	C4H5N+
67.0542	18	C5H7+
68.0494	2	C4H6N+
69.0698	2	C5H9+
70.065	9	C4H8N+
75.0228	1	C6H3+
77.0384	14	C6H5+
79.0542	6	C6H7+
80.0494	6	C5H6N+
81.0334	3	C5H5O+
81.0572	2	C5H7N+
81.0698	4	C6H9+
82.065	38	C5H8N+
84.0807	23	C5H10N+
85.0886	3	C5H11N+
91.0542	36	C7H7+
93.0698	5	C7H9+
94.0412	3	C6H6O+
94.0651	14	C6H8N+
95.0491	90	C6H7O+
95.0729	20	C6H9N+
96.0807	22	C6H10N+
97.0447	9	C6H6F+
98.0964	68	C6H12N+
102.0464	15	C8H6+
103.0541	999	C8H7+
105.0699	5	C8H9+
106.0414	1	C7H6O+
107.0491	9	C7H7O+
108.0568	4	C7H8O+
108.0807	2	C7H10N+
109.0282	1	C6H5O2+
109.0447	24	C7H6F+
109.0647	7	C7H9O+
115.0541	12	C9H7+
116.062	2	C9H8+
117.0573	3	C8H7N+
117.0698	5	C9H9+
119.0491	3	C8H7O+
119.0854	2	C9H11+
121.0448	7	C8H6F+
121.0647	13	C8H9O+
122.0362	1	C7H6O2+
122.0526	4	C8H7F+
123.0603	998	C8H8F+
124.0517	7	C7H8O2+
128.0619	8	C10H8+
129.0698	13	C10H9+
130.0777	4	C10H10+
131.049	6	C9H7O+
131.0855	4	C10H11+
132.0806	3	C9H10N+
133.0449	2	C9H6F+
133.0645	3	C9H9O+
135.0437	31	C8H7O2+
135.0602	6	C9H8F+
136.0518	142	C8H8O2+
137.0595	16	C8H9O2+
138.0716	1	C8H9FN+
139.0752	3	C8H11O2+
141.0696	3	C11H9+
142.0775	1	C11H10+
143.049	6	C10H7O+
143.0855	8	C11H11+
144.0568	9	C10H8O+
145.0647	10	C10H9O+
146.0526	1	C10H7F+
146.0725	5	C10H10O+
147.0439	1	C9H7O2+
147.0603	2	C10H8F+
147.0802	5	C10H11O+
148.0557	8	C9H7FN+
149.0587	3	C9H9O2+
149.076	1	C10H10F+
150.0716	15	C9H9FN+
151.0752	30	C9H11O2+
152.0869	11	C9H11FN+
153.0694	1	C12H9+
155.0855	1	C12H11+
157.0648	7	C11H9O+
158.0725	11	C11H10O+
159.0439	2	C10H7O2+
159.0803	31	C11H11O+
160.0882	5	C11H12O+
161.0594	10	C10H9O2+
161.0961	1	C11H13O+
162.0713	1	C10H9FN+
163.0754	1	C10H11O2+
164.0829	1	C7H13FO3+
169.0646	1	C12H9O+
170.0723	2	C12H10O+
171.0803	7	C12H11O+
173.0592	1	C11H9O2+
173.0961	7	C12H13O+
174.0675	2	C11H10O2+
174.1038	3	C12H14O+
175.0752	9	C11H11O2+
176.0873	6	C11H11FN+
178.1025	3	C11H13FN+
185.0954	1	C13H13O+
187.0757	1	C12H11O2+
188.0842	1	C9H13FO3+
189.0927	3	C9H14FO3+
190.1004	1	C9H15FO3+
202.1027	5	C13H13FN+
203.1068	1	C13H15O2+
204.1181	51	C13H15FN+
216.1017	2	C13H14NO2+
232.1329	5	C14H18NO2+
298.1598	2	C19H21FNO+
340.1712	1	C21H23FNO2+
