Mass spectrum: Labetalol; LC-ESI-QFT; MS2; CE: 30; R=17500; [M+H]+
Name: Labetalol
Name: 2-hydroxy-5-[1-hydroxy-2-(4-phenylbutan-2-ylamino)ethyl]benzamide
Formula: C19H24N2O3
Exact mass: 328.1787
SMILES: CC(CCC1=CC=CC=C1)NCC(O)C1=CC=C(O)C(=C1)C(N)=O
InChI: InChI=1S/C19H24N2O3/c1-13(7-8-14-5-3-2-4-6-14)21-12-18(23)15-9-10-17(22)16(11-15)19(20)24/h2-6,9-11,13,18,21-23H,7-8,12H2,1H3,(H2,20,24)
Instrument: Q Exactive Orbitrap (Thermo Scientific)
Instrument type: LC-ESI-QFT
Ms type: MS2
Ion mode: POSITIVE
Ionization: ESI
Fragmentation mode: HCD
Collision energy: 30
Resolution: 17500
Column name: Acquity BEH C18 1.7um, 2.1x150mm (Waters)
Retention time: 13.584 min
Base peak: 79.0211
Precursor m/z: 329.186
Precursor type: [M+H]+
Precursor intensity: 17281999.875
m/z	relative intensity	assigned
77.0387	1	C6H5+
91.0542	522	C7H7+
105.0699	2	C8H9+
133.1011	38	C10H13+
134.0598	2	C8H8NO+
136.0758	3	C8H10NO+
147.0442	3	C9H7O2+
148.1119	2	C10H14N+
159.0806	1	C11H11O+
161.0598	4	C10H9O2+
162.0549	999	C9H8NO2+
164.0705	168	C9H10NO2+
165.0546	13	C9H9O3+
179.0815	395	C9H11N2O2+
180.0654	26	C9H10NO3+
190.0862	165	C11H12NO2+
194.0812	20	C10H12NO3+
207.1128	494	C11H15N2O2+
208.0968	20	C11H14NO3+
222.1122	2	C12H16NO3+
252.1021	5	C16H14NO2+
294.1488	690	C19H20NO2+
311.1753	827	C19H23N2O2+
312.1593	156	C19H22NO3+
329.1863	9	C19H25N2O3+
