Mass spectrum: N,N`-Dicyclohexylthiourea; LC-ESI-QFT; MS2; CE: 90; R=17500; [M+H]+
Name: N,N'-Dicyclohexylthiourea
Name: N,N'-dicyclohexylcarbamimidothioic acid
Formula: C13H24N2S
Exact mass: 240.1660
SMILES: S=C(NC1CCCCC1)NC1CCCCC1
InChI: InChI=1S/C13H24N2S/c16-13(14-11-7-3-1-4-8-11)15-12-9-5-2-6-10-12/h11-12H,1-10H2,(H2,14,15,16)
Instrument: Q Exactive Orbitrap (Thermo Scientific)
Instrument type: LC-ESI-QFT
Ms type: MS2
Ion mode: POSITIVE
Ionization: ESI
Fragmentation mode: HCD
Collision energy: 90
Resolution: 17500
Column name: Acquity BEH C18 1.7um, 2.1x150mm (Waters)
Retention time: 17.830 min
Base peak: 79.0211
Precursor m/z: 241.1733
Precursor type: [M+H]+
Precursor intensity: 26698780.75
m/z	relative intensity	assigned
53.0386	23	C4H5+
55.0543	999	C4H7+
59.9903	275	CH2NS+
77.0168	219	CH5N2S+
81.07	1	C6H9+
83.0855	310	C6H11+
91.0542	1	C7H7+
98.0965	1	C6H12N+
100.1121	2	C6H14N+
109.0887	1	C7H11N+
159.0951	1	C7H15N2S+
