Mass spectrum: Propranolol; LC-ESI-QFT; MS2; CE: 15; R=17500; [M+H]+
Name: Propranolol
Name: 1-naphthalen-1-yloxy-3-(propan-2-ylamino)propan-2-ol
Formula: C16H21NO2
Exact mass: 259.1572
SMILES: CC(C)NCC(O)COC1=C2C=CC=CC2=CC=C1
InChI: InChI=1S/C16H21NO2/c1-12(2)17-10-14(18)11-19-16-9-5-7-13-6-3-4-8-15(13)16/h3-9,12,14,17-18H,10-11H2,1-2H3
Instrument: Q Exactive Orbitrap (Thermo Scientific)
Instrument type: LC-ESI-QFT
Ms type: MS2
Ion mode: POSITIVE
Ionization: ESI
Fragmentation mode: HCD
Collision energy: 15
Resolution: 17500
Column name: Acquity BEH C18 1.7um, 2.1x150mm (Waters)
Retention time: 14.293 min
Base peak: 79.0212
Precursor m/z: 260.1645
Precursor type: [M+H]+
Precursor intensity: 19098394.5625
m/z	relative intensity	assigned
56.0495	1	C3H6N+
58.0651	5	C3H8N+
72.0807	10	C4H10N+
74.06	6	C3H8NO+
86.0964	7	C5H12N+
98.0965	15	C6H12N+
116.107	42	C6H14NO+
132.1019	2	C6H14NO2+
141.0701	1	C11H9+
157.0648	8	C11H9O+
183.0805	24	C13H11O+
218.1174	7	C13H16NO2+
242.1539	2	C16H20NO+
260.1645	999	C16H22NO2+
