Mass spectrum: Buturon; LC-ESI-QFT; MS2; CE: 15; R=17500; [M+H]+
Name: Buturon
Name: 1-but-3-yn-2-yl-3-(4-chlorophenyl)-1-methylurea
Formula: C12H13ClN2O
Exact mass: 236.0716
SMILES: CC(C#C)N(C)C(=O)NC1=CC=C(Cl)C=C1
InChI: InChI=1S/C12H13ClN2O/c1-4-9(2)15(3)12(16)14-11-7-5-10(13)6-8-11/h1,5-9H,2-3H3,(H,14,16)
Instrument: Q Exactive Orbitrap (Thermo Scientific)
Instrument type: LC-ESI-QFT
Ms type: MS2
Ion mode: POSITIVE
Ionization: ESI
Fragmentation mode: HCD
Collision energy: 15
Resolution: 17500
Column name: Acquity BEH C18 1.7um, 2.1x150mm (Waters)
Retention time: 16.576 min
Base peak: 79.0212
Precursor m/z: 237.0789
Precursor type: [M+H]+
Precursor intensity: 1888177.5
m/z	relative intensity	assigned
53.0386	7	C4H5+
58.0652	6	C3H8N+
68.0495	6	C4H6N+
69.0334	6	C4H5O+
84.0808	174	C5H10N+
110.0601	16	C6H8NO+
128.0262	2	C6H7ClN+
167.0374	3	C8H8ClN2+
185.0475	6	C8H10ClN2O+
222.0556	4	C11H11ClN2O+
237.0791	999	C12H14ClN2O+
