Mass spectrum: Ipconazole; LC-ESI-QFT; MS2; CE: 60; R=17500; [M+H]+
Name: Ipconazole
Name: 2-[(4-chlorophenyl)methyl]-5-propan-2-yl-1-(1,2,4-triazol-1-ylmethyl)cyclopentan-1-ol
Formula: C18H24ClN3O
Exact mass: 333.1608
SMILES: CC(C)C1CCC(CC2=CC=C(Cl)C=C2)C1(O)CN1C=NC=N1
InChI: InChI=1S/C18H24ClN3O/c1-13(2)17-8-5-15(9-14-3-6-16(19)7-4-14)18(17,23)10-22-12-20-11-21-22/h3-4,6-7,11-13,15,17,23H,5,8-10H2,1-2H3
Instrument: Q Exactive Orbitrap (Thermo Scientific)
Instrument type: LC-ESI-QFT
Ms type: MS2
Ion mode: POSITIVE
Ionization: ESI
Fragmentation mode: HCD
Collision energy: 60
Resolution: 17500
Column name: Acquity BEH C18 1.7um, 2.1x150mm (Waters)
Retention time: 19.299 min
Base peak: 79.0211
Precursor m/z: 334.1681
Precursor type: [M+H]+
Precursor intensity: 28426980
m/z	relative intensity	assigned
55.0542	3	C4H7+
59.0491	2	C3H7O+
67.0542	8	C5H7+
69.0698	2	C5H9+
70.0399	999	C2H4N3+
79.0541	2	C6H7+
81.0699	4	C6H9+
93.0697	1	C7H9+
95.0854	3	C7H11+
109.1012	5	C8H13+
115.0542	2	C9H7+
116.0621	2	C9H8+
125.0152	114	C7H6Cl+
128.0619	2	C10H8+
130.0777	1	C10H10+
139.0308	2	C8H8Cl+
142.0775	2	C11H10+
149.0153	1	C9H6Cl+
151.0308	6	C9H8Cl+
156.0933	1	C12H12+
163.0308	7	C10H8Cl+
165.0462	1	C10H10Cl+
177.0464	2	C11H10Cl+
191.0622	2	C12H12Cl+
