Mass spectrum: Simetryn; LC-ESI-QFT; MS2; CE: 15; R=17500; [M+H]+
Name: Simetryn
Name: 2-N,4-N-diethyl-6-methylsulfanyl-1,3,5-triazine-2,4-diamine
Formula: C8H15N5S
Exact mass: 213.1048
SMILES: CCNC1=NC(SC)=NC(NCC)=N1
InChI: InChI=1S/C8H15N5S/c1-4-9-6-11-7(10-5-2)13-8(12-6)14-3/h4-5H2,1-3H3,(H2,9,10,11,12,13)
Instrument: Q Exactive Orbitrap (Thermo Scientific)
Instrument type: LC-ESI-QFT
Ms type: MS2
Ion mode: POSITIVE
Ionization: ESI
Fragmentation mode: HCD
Collision energy: 15
Resolution: 17500
Column name: Acquity BEH C18 1.7um, 2.1x150mm (Waters)
Retention time: 14.298 min
Base peak: 79.0211
Precursor m/z: 214.1121
Precursor type: [M+H]+
Precursor intensity: 39290661.25
m/z	relative intensity	assigned
71.0604	1	C3H7N2+
95.0491	2	C4H5N3+
96.0553	1	C4H6N3+
105.0447	1	C6H5N2+
108.0555	1	C5H6N3+
122.0587	8	C5H6N4+
124.0869	13	C6H10N3+
144.0591	3	C5H10N3S+
166.1087	2	C7H12N5+
186.081	2	C6H12N5S+
199.0881	1	C7H13N5S+
214.1111	999	C8H16N5S+
