Mass spectrum: Fluoxastrobin; LC-ESI-QFT; MS2; CE: 90; R=17500; [M+H]+
Name: Fluoxastrobin
Name: (E)-1-[2-[6-(2-chlorophenoxy)-5-fluoropyrimidin-4-yl]oxyphenyl]-1-(5,6-dihydro-1,4,2-dioxazin-3-yl)-N-methoxymethanimine
Formula: C21H16ClFN4O5
Exact mass: 458.0793
SMILES: CO\N=C(\C1=NOCCO1)C1=C(OC2=C(F)C(OC3=C(Cl)C=CC=C3)=NC=N2)C=CC=C1
InChI: InChI=1S/C21H16ClFN4O5/c1-28-26-18(21-27-30-11-10-29-21)13-6-2-4-8-15(13)31-19-17(23)20(25-12-24-19)32-16-9-5-3-7-14(16)22/h2-9,12H,10-11H2,1H3/b26-18+
Instrument: Q Exactive Orbitrap (Thermo Scientific)
Instrument type: LC-ESI-QFT
Ms type: MS2
Ion mode: POSITIVE
Ionization: ESI
Fragmentation mode: HCD
Collision energy: 90
Resolution: 17500
Column name: Acquity BEH C18 1.7um, 2.1x150mm (Waters)
Retention time: 17.699 min
Base peak: 79.0212
Precursor m/z: 459.0866
Precursor type: [M+H]+
Precursor intensity: 13738833.75
m/z	relative intensity	assigned
50.0151	8	C4H2+
51.0228	14	C4H3+
52.0181	12	C3H2N+
52.0308	6	C4H4+
53.0022	59	C3HO+
53.0386	82	C4H5+
53.9976	6	C2NO+
54.0465	14	C4H6+
55.0179	21	C3H3O+
56.013	3	C2H2NO+
57.0135	14	C3H2F+
58.0088	4	C2HFN+
63.0229	154	C5H3+
64.0182	38	C4H2N+
64.0308	48	C5H4+
65.0386	367	C5H5+
66.0464	103	C5H6+
67.0542	9	C5H7+
68.0494	5	C4H6N+
69.0083	16	C2HN2O+
69.9924	58	C2NO2+
70.0087	14	C3HFN+
71.0291	15	C4H4F+
72.9839	23	C3H2Cl+
73.0196	26	C2H2FN2+
74.0151	92	C6H2+
75.0229	999	C6H3+
76.0182	60	C5H2N+
76.0307	45	C6H4+
77.026	16	C5H3N+
77.0385	100	C6H5+
78.0338	151	C5H4N+
79.0178	36	C5H3O+
79.0417	24	C5H5N+
79.0542	12	C6H7+
80.0254	3	FH3N3O+
80.0494	21	C5H6N+
81.0335	100	C5H5O+
82.0287	4	C4H4NO+
83.0291	24	C5H4F+
84.9839	43	C4H2Cl+
86.0036	5	C3HFNO+
86.9878	19	C3FO2+
86.9996	107	C4H4Cl+
88.0308	8	C7H4+
89.026	11	C6H3N+
89.0386	27	C7H5+
90.0339	318	C6H4N+
91.0417	114	C6H5N+
92.0257	153	C6H4O+
92.0368	12	C5H4N2+
92.0495	81	C6H6N+
93.0336	51	C6H5O+
94.0413	58	C6H6O+
95.0292	28	C6H4F+
95.0492	264	C6H7O+
96.0369	9	C6H5F+
96.0444	40	C5H6NO+
97.0522	13	C5H7NO+
98.0362	12	C5H6O2+
98.9996	99	C5H4Cl+
100.0182	41	C7H2N+
102.0339	413	C7H4N+
103.0417	23	C7H5N+
104.037	3	C6H4N2+
104.0495	25	C7H6N+
105.0336	241	C7H5O+
105.0447	124	C6H5N2+
106.0215	12	C7H3F+
106.0288	72	C6H4NO+
107.0292	160	C7H4F+
108.0206	3	C6H4O2+
108.0245	11	C6H3FN+
108.037	13	C7H5F+
108.0442	20	CH5FN4O+
109.0323	38	C6H4FN+
110.0161	4	C6H3FO+
110.06	4	C6H8NO+
110.9996	147	C6H4Cl+
111.0441	122	C6H7O2+
112.0075	19	C6H5Cl+
112.0319	9	C6H5FO+
113.0259	7	C2H6FO4+
113.0397	97	C6H6FO+
114.0339	70	C8H4N+
114.9946	8	C5H4ClO+
115.0293	4	C7H3N2+
115.0416	63	C8H5N+
116.0369	69	C7H4N2+
116.0496	6	C8H6N+
116.9902	7	C5H3ClF+
117.0448	42	C7H5N2+
117.0573	3	C8H7N+
118.0288	25	C7H4NO+
118.0527	16	CH9FNO4+
119.0366	68	C7H5NO+
120.0444	307	C7H6NO+
121.0323	87	C7H4FN+
121.0396	29	C6H5N2O+
122.0401	170	C7H5FN+
122.9995	15	C2H3ClFN3+
123.0353	140	C6H4FN2+
124.0392	3	CH5FN4O2+
125.0153	6	C7H6Cl+
125.0597	8	C7H9O2+
126.0349	5	C6H5FNO+
127.0291	17	C8H3N2+
128.0024	55	C6H5ClO+
128.0371	19	C8H4N2+
129.0102	345	C6H6ClO+
129.0447	263	C8H5N2+
130.0289	93	C8H4NO+
130.04	848	C7H4N3+
131.0368	10	C8H5NO+
131.0603	3	C8H7N2+
132.0244	132	C8H3FN+
132.0445	15	C8H6NO+
133.0323	263	C8H4FN+
134.0235	7	C2H3FN4O2+
134.0283	3	C7H3FN2+
134.0401	67	C8H5FN+
134.0472	16	C7H6N2O+
134.06	8	C8H8NO+
135.0307	4	C5H3N4O+
135.0357	6	C7H4FN2+
135.0554	5	C7H7N2O+
137.0027	16	C7H4ClN+
137.0272	39	C7H4FNO+
137.0471	10	C7H7NO2+
138.0106	140	C7H5ClN+
138.9947	55	C7H4ClO+
139.0058	645	C6H4ClN2+
140.0028	7	C7H5ClO+
140.0369	44	C9H4N2+
140.9901	99	C7H3ClF+
141.0447	11	C9H5N2+
143.0058	6	C7H5ClF+
143.0366	7	C9H5NO+
143.0478	4	C8H5N3+
144.0318	41	C8H4N2O+
144.0444	5	C9H6NO+
144.0557	4	C8H6N3+
145.0323	13	C9H4FN+
145.0396	72	C8H5N2O+
146.023	4	C3H3FN4O2+
147.0354	34	C8H4FN2+
147.0554	24	C8H7N2O+
147.9948	16	C8H3ClN+
148.0194	4	C8H3FNO+
148.0304	11	C7H3FN3+
148.0432	2	C8H5FN2+
149.027	7	C8H4FNO+
149.0515	5	C8H6FN2+
150.035	232	C8H5FNO+
151.0057	9	C7H4ClN2+
151.0427	36	C8H6FNO+
152.0381	4	C7H5FN2O+
152.0508	3	C8H7FNO+
152.0626	3	C12H8+
154.04	28	C9H4N3+
154.9897	10	C7H4ClO2+
155.0353	10	C8H3N4+
156.001	4	C7H4ClFN+
156.0554	3	C9H6N3+
157.0398	17	C9H5N2O+
158.0276	5	C3H8ClFN2O2+
158.0475	14	C9H6N2O+
159.0354	60	C9H4FN2+
159.0551	6	C9H7N2O+
160.0269	12	C8H4N2O2+
160.0432	160	C9H5FN2+
161.0272	90	C9H4FNO+
161.0341	6	C8H5N2O2+
161.071	24	C9H9N2O+
162.0349	12	C9H5FNO+
162.0428	10	C5H9ClN3O+
162.0546	18	C4H7FN4O2+
163.0057	7	C8H4ClN2+
163.0303	3	C8H4FN2O+
163.0428	4	C9H6FNO+
163.0504	7	C8H7N2O2+
164.0011	6	C7H3ClN3+
164.0336	19	C3H5FN4O3+
165.0222	18	C8H4FNO2+
165.0458	12	C8H6FN2O+
165.058	6	C9H8FNO+
166.03	3	C8H5FNO2+
166.0407	6	C3H12ClFO4+
167.0377	4	C8H6FNO2+
168.0011	76	C8H4ClFN+
168.0317	15	C10H4N2O+
168.0455	7	C8H7FNO2+
168.0559	8	C3H14ClFO4+
169.0396	118	C10H5N2O+
170.0528	25	C12H7F+
172.0306	4	C5H10ClFO3+
172.0429	4	C10H5FN2+
173.0384	4	C8H10ClO2+
173.0509	6	C10H6FN2+
174.0463	10	C9H5FN3+
175.0302	42	C9H4FN2O+
176.038	10	C9H5FN2O+
177.0459	12	C9H6FN2O+
177.0573	39	C13H7N+
178.0297	22	C9H5FNO2+
178.0651	7	C13H8N+
179.0608	6	C12H7N2+
181.0395	5	C11H5N2O+
182.0348	7	C10H4N3O+
182.0612	14	C9H9FNO2+
183.9961	5	C8H4ClFNO+
185.0387	6	C9H10ClO2+
186.0459	8	C10H5FN3+
187.0302	4	C10H4FN2O+
187.0554	5	C6H13ClFO3+
188.0381	412	C10H5FN2O+
189.0459	11	C10H6FN2O+
190.0411	4	C9H5FN3O+
191.0252	8	C9H4FN2O2+
191.0607	5	C13H7N2+
192.068	5	C13H8N2+
195.0327	7	C9H6FNO3+
195.0479	9	C13H6FN+
195.0563	4	C9H8FN2O2+
196.0566	31	CH13ClN4O5+
197.0635	16	C13H8FN+
199.041	3	C6H11ClFNO3+
202.0526	12	C14H6N2+
203.0605	21	C14H7N2+
204.0683	8	C14H8N2+
205.0407	9	C10H6FN2O2+
205.0757	6	C14H9N2+
207.0563	3	C10H8FN2O2+
208.0557	5	C14H7FN+
215.0604	16	C15H7N2+
218.0716	3	C7H16ClFO4+
220.0279	57	C10H5FN2O3+
222.0583	5	C14H7FN2+
223.0667	21	C14H8FN2+
224.0506	9	C14H7FNO+
225.0581	7	C14H8FNO+
228.0563	4	C8H14ClFO4+
230.0357	20	C11H5FN3O2+
230.0714	10	C15H8N3+
232.0632	8	C15H8N2O+
233.0501	4	C14H11ClF+
241.052	4	C12H6FN4O+
248.0615	9	C15H7FN3+
250.0533	24	C15H7FN2O+
251.0616	36	C15H8FN2O+
263.0603	5	C19H7N2+
279.0564	10	C16H8FN2O2+
