Mass spectrum: GSK232420A; LC-ESI-QFT; MS2; CE: 15; R=17500; [M-H]-
Name: GSK232420A
Name: 2-[4-cyano-N-(2,2,2-trifluoroethyl)-3-(trifluoromethyl)anilino]acetamide
Formula: C12H9F6N3O
Exact mass: 325.0650
SMILES: NC(=O)CN(CC(F)(F)F)C1=CC(=C(C=C1)C#N)C(F)(F)F
InChI: InChI=1S/C12H9F6N3O/c13-11(14,15)6-21(5-10(20)22)8-2-1-7(4-19)9(3-8)12(16,17)18/h1-3H,5-6H2,(H2,20,22)
Instrument: Q Exactive Orbitrap (Thermo Scientific)
Instrument type: LC-ESI-QFT
Ms type: MS2
Ion mode: NEGATIVE
Ionization: ESI
Fragmentation mode: HCD
Collision energy: 15
Resolution: 17500
Column name: Acquity BEH C18 1.7um, 2.1x150mm (Waters)
Retention time: 15.748 min
Base peak: 284.0451
Precursor m/z: 324.0577
Precursor type: [M-H]-
Precursor intensity: 3688327.515625
m/z	relative intensity	assigned
113.0156	7	C4H2FN2O-
209.0329	2	C10H4F3N2-
236.0438	5	C11H5F3N3-
237.0276	3	C11H4F3N2O-
264.0389	79	C12H5F3N3O-
284.0452	999	C12H6F4N3O-
