Mass spectrum: Pioglitazone hydrochloride; LC-ESI-QFT; MS2; CE: 45; R=17500; [M+H]+
Name: Pioglitazone
Name: 5-[[4-[2-(5-ethylpyridin-2-yl)ethoxy]phenyl]methyl]-1,3-thiazolidine-2,4-dione
Formula: C19H20N2O3S
Exact mass: 356.1195
SMILES: CCC1=CN=C(CCOC2=CC=C(CC3SC(=O)NC3=O)C=C2)C=C1
InChI: InChI=1S/C19H20N2O3S/c1-2-13-3-6-15(20-12-13)9-10-24-16-7-4-14(5-8-16)11-17-18(22)21-19(23)25-17/h3-8,12,17H,2,9-11H2,1H3,(H,21,22,23)
Instrument: Q Exactive Orbitrap (Thermo Scientific)
Instrument type: LC-ESI-QFT
Ms type: MS2
Ion mode: POSITIVE
Ionization: ESI
Fragmentation mode: HCD
Collision energy: 45
Resolution: 17500
Column name: Acquity BEH C18 1.7um, 2.1x150mm (Waters)
Retention time: 13.642 min
Base peak: 79.0211
Precursor m/z: 357.1267
Precursor type: [M+H]+
Precursor intensity: 26814132
m/z	relative intensity	assigned
79.0541	2	C6H7+
95.0493	1	C6H7O+
104.0492	1	C7H6N+
106.0651	7	C7H8N+
108.0806	1	C7H10N+
118.065	1	C8H8N+
119.073	84	C8H9N+
120.0808	19	C8H10N+
121.0886	13	C8H11N+
124.0756	4	C7H10NO+
134.0963	999	C9H12N+
135.104	174	C9H13N+
167.0939	6	C9H13NO2+
240.1382	5	C16H18NO+
241.146	3	C16H19NO+
286.1259	4	C17H20NOS+
357.1267	43	C19H21N2O3S+
