Mass spectrum: SB281832; LC-ESI-QFT; MS2; CE: 15; R=17500; [M+H]+
Name: SB281832
Name: 2-[4-(4-fluorophenyl)-5-(2-phenoxypyrimidin-4-yl)imidazol-1-yl]propane-1,3-diol
Formula: C22H19FN4O3
Exact mass: 406.1441
SMILES: OCC(CO)N1C=NC(=C1C1=CC=NC(OC2=CC=CC=C2)=N1)C1=CC=C(F)C=C1
InChI: InChI=1S/C22H19FN4O3/c23-16-8-6-15(7-9-16)20-21(27(14-25-20)17(12-28)13-29)19-10-11-24-22(26-19)30-18-4-2-1-3-5-18/h1-11,14,17,28-29H,12-13H2
Instrument: Q Exactive Orbitrap (Thermo Scientific)
Instrument type: LC-ESI-QFT
Ms type: MS2
Ion mode: POSITIVE
Ionization: ESI
Fragmentation mode: HCD
Collision energy: 15
Resolution: 17500
Column name: Acquity BEH C18 1.7um, 2.1x150mm (Waters)
Retention time: 15.228 min
Base peak: 79.0211
Precursor m/z: 407.1514
Precursor type: [M+H]+
Precursor intensity: 23807240
m/z	relative intensity	assigned
234.1207	1	C12H16N3O2+
333.1144	22	C19H14FN4O+
407.1516	999	C22H20FN4O3+
