Mass spectrum: Buturon; LC-ESI-QFT; MS2; CE: 75; R=17500; [M+H]+
Name: Buturon
Name: 1-but-3-yn-2-yl-3-(4-chlorophenyl)-1-methylurea
Formula: C12H13ClN2O
Exact mass: 236.0716
SMILES: CC(C#C)N(C)C(=O)NC1=CC=C(Cl)C=C1
InChI: InChI=1S/C12H13ClN2O/c1-4-9(2)15(3)12(16)14-11-7-5-10(13)6-8-11/h1,5-9H,2-3H3,(H,14,16)
Instrument: Q Exactive Orbitrap (Thermo Scientific)
Instrument type: LC-ESI-QFT
Ms type: MS2
Ion mode: POSITIVE
Ionization: ESI
Fragmentation mode: HCD
Collision energy: 75
Resolution: 17500
Column name: Acquity BEH C18 1.7um, 2.1x150mm (Waters)
Retention time: 16.576 min
Base peak: 79.0212
Precursor m/z: 237.0789
Precursor type: [M+H]+
Precursor intensity: 1888497.625
m/z	relative intensity	assigned
51.023	20	C4H3+
53.0386	515	C4H5+
55.0178	9	C3H3O+
55.0543	123	C4H7+
56.0495	82	C3H6N+
58.0288	74	C2H4NO+
58.0652	163	C3H8N+
67.0417	14	C4H5N+
68.0495	264	C4H6N+
69.0335	66	C4H5O+
69.0573	24	C4H7N+
70.0652	12	C4H8N+
84.0809	306	C5H10N+
90.0337	25	C6H4N+
93.0574	312	C6H7N+
98.9997	223	C5H4Cl+
117.0575	13	C8H7N+
118.0652	103	C8H8N+
126.0106	999	C6H5ClN+
127.0184	81	C6H6ClN+
128.0262	157	C6H7ClN+
129.0105	20	C6H6ClO+
130.0652	78	C9H8N+
139.0059	23	C6H4ClN2+
140.0259	10	C10H4O+
143.0728	9	C10H9N+
144.0808	61	C10H10N+
152.0261	30	C8H7ClN+
152.9976	46	C7H4ClNO+
154.0055	19	C7H5ClNO+
159.0921	38	C10H11N2+
167.0373	53	C8H8ClN2+
178.0418	30	C10H9ClN+
193.053	60	C10H10ClN2+
207.0321	66	C10H8ClN2O+
237.0794	15	C12H14ClN2O+
