Mass spectrum: Benodanil; LC-ESI-QFT; MS2; CE: 90; R=17500; [M+H]+
Name: Benodanil
Name: 2-iodo-N-phenylbenzamide
Formula: C13H10INO
Exact mass: 322.9807
SMILES: IC1=C(C=CC=C1)C(=O)NC1=CC=CC=C1
InChI: InChI=1S/C13H10INO/c14-12-9-5-4-8-11(12)13(16)15-10-6-2-1-3-7-10/h1-9H,(H,15,16)
Instrument: Q Exactive Orbitrap (Thermo Scientific)
Instrument type: LC-ESI-QFT
Ms type: MS2
Ion mode: POSITIVE
Ionization: ESI
Fragmentation mode: HCD
Collision energy: 90
Resolution: 17500
Column name: Acquity BEH C18 1.7um, 2.1x150mm (Waters)
Retention time: 16.272 min
Base peak: 79.0211
Precursor m/z: 323.988
Precursor type: [M+H]+
Precursor intensity: 7909286.8125
m/z	relative intensity	assigned
50.015	5	C4H2+
51.023	3	C4H3+
52.0308	26	C4H4+
53.0022	12	C3HO+
53.0386	70	C4H5+
54.0464	20	C4H6+
55.0179	52	C3H3O+
63.0228	6	C5H3+
64.0307	28	C5H4+
65.0021	5	C4HO+
65.0385	11	C5H5+
66.0464	147	C5H6+
75.0229	7	C6H3+
76.0307	885	C6H4+
77.0385	11	C6H5+
78.0464	17	C6H6+
79.0179	42	C5H3O+
79.0543	7	C6H7+
80.0257	8	C5H4O+
80.0495	1	C5H6N+
81.0335	317	C5H5O+
91.0179	26	C6H3O+
91.0541	1	C7H7+
92.0257	29	C6H4O+
92.0494	14	C6H6N+
93.0335	1	C6H5O+
94.0413	999	C6H6O+
95.0491	87	C6H7O+
96.0454	1	C5H6NO+
104.0256	21	C7H4O+
105.0335	55	C7H5O+
108.0569	22	C7H8O+
178.0655	2	C13H8N+
178.9353	2	C4H4I+
196.076	4	C13H10NO+
202.9353	13	C6H4I+
219.9378	4	C6H5IO+
220.9458	111	C6H6IO+
230.9302	124	C7H4IO+
231.9385	1	C7H5IO+
