Mass spectrum: CP-122721; LC-ESI-QFT; MS2; CE: 60; R=17500; [M+H]+
Name: CP-122721
Name: (2S,3S)-N-[[2-methoxy-5-(trifluoromethoxy)phenyl]methyl]-2-phenylpiperidin-3-amine
Formula: C20H23F3N2O2
Exact mass: 380.1712
SMILES: COC1=C(CN[C@H]2CCCN[C@H]2C2=CC=CC=C2)C=C(OC(F)(F)F)C=C1
InChI: InChI=1S/C20H23F3N2O2/c1-26-18-10-9-16(27-20(21,22)23)12-15(18)13-25-17-8-5-11-24-19(17)14-6-3-2-4-7-14/h2-4,6-7,9-10,12,17,19,24-25H,5,8,11,13H2,1H3/t17-,19-/m0/s1
Instrument: Q Exactive Orbitrap (Thermo Scientific)
Instrument type: LC-ESI-QFT
Ms type: MS2
Ion mode: POSITIVE
Ionization: ESI
Fragmentation mode: HCD
Collision energy: 60
Resolution: 17500
Column name: Acquity BEH C18 1.7um, 2.1x150mm (Waters)
Retention time: 15.712 min
Base peak: 79.0211
Precursor m/z: 381.1784
Precursor type: [M+H]+
Precursor intensity: 51308598.625
m/z	relative intensity	assigned
53.0385	1	C4H5+
54.0338	2	C3H4N+
55.0542	10	C4H7+
56.0494	9	C3H6N+
58.0651	1	C3H8N+
65.0385	4	C5H5+
67.0415	4	C4H5N+
68.0494	15	C4H6N+
68.9945	3	CF3+
69.0572	4	C4H7N+
79.0541	1	C6H7+
80.0494	4	C5H6N+
82.0651	100	C5H8N+
83.0291	3	C5H4F+
91.0542	155	C7H7+
103.0542	22	C8H7+
104.0493	6	C7H6N+
105.0698	11	C8H9+
106.065	1	C7H8N+
109.0448	58	C7H6F+
111.0604	4	C7H8F+
115.0542	71	C9H7+
116.062	2	C9H8+
117.0573	48	C8H7N+
117.0698	55	C9H9+
118.065	7	C8H8N+
119.049	1	C8H7O+
119.0604	1	C7H7N2+
119.0729	21	C8H9N+
128.062	38	C10H8+
129.0698	5	C10H9+
130.0651	69	C9H8N+
131.0734	5	C9H9N+
131.0855	58	C10H11+
132.0807	399	C9H10N+
141.0696	2	C11H9+
143.0855	15	C11H11+
144.0806	1	C10H10N+
145.0646	1	C10H9O+
145.0887	2	C10H11N+
155.0606	2	C10H7N2+
158.0964	8	C11H12N+
159.1037	2	C11H13N+
160.1119	999	C11H14N+
175.0364	82	C8H6F3O+
177.0521	12	C8H8F3O+
193.0467	2	C8H8F3O2+
203.0423	11	C8H6F3N2O+
205.047	35	C9H8F3O2+
