Mass spectrum: Sulisobenzone; LC-ESI-QFT; MS2; CE: 90; R=17500; [M-H]-
Name: Sulisobenzone
Name: 5-benzoyl-4-hydroxy-2-methoxybenzenesulfonic acid
Formula: C14H12O6S
Exact mass: 308.0355
SMILES: COC1=C(C=C(C(=O)C2=CC=CC=C2)C(O)=C1)S(O)(=O)=O
InChI: InChI=1S/C14H12O6S/c1-20-12-8-11(15)10(7-13(12)21(17,18)19)14(16)9-5-3-2-4-6-9/h2-8,15H,1H3,(H,17,18,19)
Instrument: Q Exactive Orbitrap (Thermo Scientific)
Instrument type: LC-ESI-QFT
Ms type: MS2
Ion mode: NEGATIVE
Ionization: ESI
Fragmentation mode: HCD
Collision energy: 90
Resolution: 17500
Column name: Acquity BEH C18 1.7um, 2.1x150mm (Waters)
Retention time: 14.834 min
Base peak: 307.0282
Precursor m/z: 307.0282
Precursor type: [M-H]-
Precursor intensity: 10724005.26904
m/z	relative intensity	assigned
63.9624	62	O2S-
64.9703	4	HO2S-
65.0033	18	C4HO-
66.0112	2	C4H2O-
68.9982	15	C3HO2-
71.9676	14	C2OS-
79.9574	999	O3S-
80.9652	135	HO3S-
89.0033	2	C6HO-
91.0189	11	C6H3O-
93.0346	3	C6H5O-
94.006	3	C5H2O2-
95.0139	29	C5H3O2-
96.993	1	C4HO3-
97.9832	2	C4H2OS-
101.0397	12	C8H5-
105.0347	1	C7H5O-
106.006	1	C6H2O2-
108.0216	2	C6H4O2-
110.0009	14	C5H2O3-
110.9755	1	CH3O4S-
113.9781	2	C4H2O2S-
121.0294	5	C7H5O2-
122.0008	1	C6H2O3-
123.0088	23	C6H3O3-
127.0553	4	C10H7-
128.9651	6	C4HO3S-
129.0346	12	C9H5O-
131.0503	1	C9H7O-
134.9758	1	C3H3O4S-
135.0089	3	C7H3O3-
139.0554	9	C11H7-
143.0501	3	C10H7O-
145.0295	41	C9H5O2-
147.0452	11	C9H7O2-
149.0244	3	C8H5O3-
149.9958	19	C7H2O4-
153.0195	1	C7H5O4-
154.043	1	C11H6O-
155.0502	37	C11H7O-
157.9676	2	C5H2O4S-
158.0369	1	C10H6O2-
158.976	1	C5H3O4S-
167.0502	106	C12H7O-
169.0295	16	C11H5O2-
171.0451	7	C11H7O2-
175.0396	1	C10H7O3-
182.0373	13	C12H6O2-
183.0451	162	C12H7O2-
184.0529	6	C12H8O2-
185.9631	10	C6H2O5S-
195.045	4	C13H7O2-
198.0318	1	C12H6O3-
199.0401	23	C12H7O3-
200.0479	3	C12H8O3-
210.0321	4	C13H6O3-
211.0401	400	C13H7O3-
213.9576	9	C7H2O6S-
226.0272	1	C13H6O4-
227.035	3	C13H7O4-
263.0018	7	C12H7O5S-
290.9965	3	C13H7O6S-
