Mass spectrum: Pirinixic acid; LC-ESI-QFT; MS2; CE: 75; R=17500; [M+H]+
Name: Pirinixic acid
Name: 2-[4-chloro-6-(2,3-dimethylanilino)pyrimidin-2-yl]sulfanylacetic acid
Formula: C14H14ClN3O2S
Exact mass: 323.0495
SMILES: CC1=C(C)C(NC2=NC(SCC(O)=O)=NC(Cl)=C2)=CC=C1
InChI: InChI=1S/C14H14ClN3O2S/c1-8-4-3-5-10(9(8)2)16-12-6-11(15)17-14(18-12)21-7-13(19)20/h3-6H,7H2,1-2H3,(H,19,20)(H,16,17,18)
Instrument: Q Exactive Orbitrap (Thermo Scientific)
Instrument type: LC-ESI-QFT
Ms type: MS2
Ion mode: POSITIVE
Ionization: ESI
Fragmentation mode: HCD
Collision energy: 75
Resolution: 17500
Column name: Acquity BEH C18 1.7um, 2.1x150mm (Waters)
Retention time: 17.863 min
Base peak: 79.0211
Precursor m/z: 324.0568
Precursor type: [M+H]+
Precursor intensity: 8727053.1875
m/z	relative intensity	assigned
51.023	2	C4H3+
52.0182	2	C3H2N+
53.0386	25	C4H5+
54.0338	1	C3H4N+
55.0179	1	C3H3O+
58.9949	2	C2H3S+
60.9839	1	C2H2Cl+
63.9948	1	CH3ClN+
65.0385	26	C5H5+
68.013	2	C3H2NO+
71.9902	192	C2H2NS+
75.9948	91	C2H3ClN+
77.0385	11	C6H5+
79.0542	349	C6H7+
80.0496	1	C5H6N+
83.9903	6	C3H2NS+
87.9948	6	C3H3ClN+
91.0542	37	C7H7+
92.0495	3	C6H6N+
93.0573	2	C6H7N+
93.0699	12	C7H9+
94.0413	2	C6H6O+
94.0651	1	C6H8N+
95.0492	75	C6H7O+
99.0012	5	C3H3N2S+
103.0543	223	C8H7+
104.0493	2	C7H6N+
104.0622	1	C8H8+
105.0699	999	C8H9+
105.9512	6	C2HClNS+
106.0652	4	C7H8N+
106.0776	7	C8H10+
107.0855	21	C8H11+
109.065	3	C7H9O+
111.0011	3	C4H3N2S+
111.0441	6	C6H7O2+
115.0058	7	C4H4ClN2+
115.0543	45	C9H7+
116.0494	8	C8H6N+
116.0621	7	C9H8+
117.0573	12	C8H7N+
117.0699	29	C9H9+
118.0651	10	C8H8N+
118.0778	1	C9H10+
119.0604	1	C7H7N2+
119.073	18	C8H9N+
119.0856	5	C9H11+
121.0395	2	C6H5N2O+
123.0805	20	C8H11O+
128.0497	3	C9H6N+
128.0619	20	C10H8+
129.0699	114	C10H9+
130.0652	85	C9H8N+
131.073	17	C9H9N+
131.0855	16	C10H11+
131.967	1	C4H3ClNS+
132.0808	27	C9H10N+
133.0761	14	C8H9N2+
134.0964	72	C9H12N+
139.0309	3	C8H8Cl+
140.0494	6	C10H6N+
141.0572	13	C10H7N+
142.0526	3	C9H6N2+
142.0652	32	C10H8N+
143.073	63	C10H9N+
144.0808	212	C10H10N+
144.9622	3	C4H2ClN2S+
145.0259	4	C7H3N3O+
145.0646	4	C10H9O+
145.0886	18	C10H11N+
146.0601	3	C9H8NO+
148.0757	4	C9H10NO+
153.0465	4	C9H10Cl+
153.0575	2	C11H7N+
154.0651	45	C11H8N+
155.0605	31	C10H7N2+
156.0691	31	C10H8N2+
156.0808	151	C11H10N+
157.0771	9	C9H14Cl+
157.0886	66	C11H11N+
158.0964	94	C11H12N+
159.0919	6	C10H11N2+
160.0758	24	C10H10NO+
162.037	7	C9H8NS+
163.0307	2	C10H8Cl+
164.052	1	C9H10NS+
165.0466	4	C10H10Cl+
166.0652	4	C12H8N+
167.0602	6	C11H7N2+
167.0728	7	C12H9N+
168.0682	107	C11H8N2+
169.076	126	C11H9N2+
170.0598	1	C11H8NO+
170.0839	30	C11H10N2+
171.0549	1	C10H7N2O+
171.0917	29	C11H11N2+
172.0214	1	C10H6NS+
172.0756	2	C11H10NO+
173.0293	10	C10H7NS+
173.0713	2	C7H12ClN3+
174.0372	6	C10H8NS+
174.0913	27	C11H12NO+
175.0628	4	C10H9NO2+
175.0865	2	C10H11N2O+
176.0524	7	C10H10NS+
177.034	5	C10H8ClN+
178.0417	15	C10H9ClN+
179.0603	10	C12H7N2+
180.0681	8	C12H8N2+
181.0629	1	C13H9O+
181.0666	2	C10H12ClN+
181.076	28	C12H9N2+
182.0839	36	C12H10N2+
183.0917	345	C12H11N2+
184.0869	5	C11H10N3+
184.0994	21	C12H12N2+
185.0709	5	C11H9N2O+
185.1072	4	C12H13N2+
186.0373	13	C11H8NS+
187.0324	2	C10H7N2S+
187.0451	3	C11H9NS+
188.0263	16	C11H7ClN+
188.053	18	C11H10NS+
188.1071	2	C12H14NO+
189.0215	25	C10H6ClN2+
189.0481	23	C10H9N2S+
190.0309	2	C10H8NOS+
190.0417	29	C11H9ClN+
192.0574	43	C11H11ClN+
193.0636	11	C12H7N3+
194.0712	14	C12H8N3+
195.0795	3	C12H9N3+
196.0869	17	C12H10N3+
198.0249	2	C11H6N2S+
198.1026	3	C12H12N3+
199.0324	3	C11H7N2S+
199.0862	3	C12H11N2O+
200.0405	11	C11H8N2S+
201.0481	3	C11H9N2S+
201.1021	7	C12H13N2O+
203.037	60	C11H8ClN2+
204.045	70	C11H9ClN2+
207.0584	5	C10H11N2OS+
207.0683	4	C11H12ClN2+
207.079	2	C13H9N3+
208.0871	14	C13H10N3+
209.0949	2	C13H11N3+
212.0279	31	C11H6N3S+
213.0479	16	C12H9N2S+
214.0441	2	C13H10OS+
214.0559	5	C12H10N2S+
215.0637	61	C12H11N2S+
216.0333	2	C13H9ClO+
216.0448	6	C12H9ClN2+
217.0404	4	C11H8ClN3+
217.0527	15	C12H10ClN2+
218.0605	4	C12H11ClN2+
219.0684	266	C12H12ClN2+
225.0475	1	C13H9N2S+
226.0434	30	C12H8N3S+
227.0511	19	C12H9N3S+
228.0588	5	C12H10N3S+
229.0669	13	C12H11N3S+
230.0482	13	C12H9ClN3+
232.0634	7	C12H11ClN3+
234.0011	3	C11H7ClN2S+
240.0588	4	C13H10N3S+
242.0746	55	C13H12N3S+
249.0246	10	C12H10ClN2S+
262.0203	17	C12H9ClN3S+
263.0274	3	C12H10ClN3S+
278.0508	4	C13H13ClN3S+
