Mass spectrum: Quizalofop-ethyl; LC-ESI-QFT; MS2; CE: 30; R=17500; [M+H]+
Name: Quizalofop-ethyl
Name: ethyl 2-[4-(6-chloroquinoxalin-2-yl)oxyphenoxy]propanoate
Formula: C19H17ClN2O4
Exact mass: 372.0877
SMILES: CCOC(=O)C(C)OC1=CC=C(OC2=CN=C3C=C(Cl)C=CC3=N2)C=C1
InChI: InChI=1S/C19H17ClN2O4/c1-3-24-19(23)12(2)25-14-5-7-15(8-6-14)26-18-11-21-17-10-13(20)4-9-16(17)22-18/h4-12H,3H2,1-2H3
Instrument: Q Exactive Orbitrap (Thermo Scientific)
Instrument type: LC-ESI-QFT
Ms type: MS2
Ion mode: POSITIVE
Ionization: ESI
Fragmentation mode: HCD
Collision energy: 30
Resolution: 17500
Column name: Acquity BEH C18 1.7um, 2.1x150mm (Waters)
Retention time: 19.435 min
Base peak: 79.0211
Precursor m/z: 373.095
Precursor type: [M+H]+
Precursor intensity: 8921256.1875
m/z	relative intensity	assigned
55.0179	1	C3H3O+
72.0808	1	C4H10N+
73.0284	3	C3H5O2+
73.0647	1	C4H9O+
91.0542	84	C7H7+
111.0441	1	C6H7O2+
119.0491	23	C8H7O+
121.0284	25	C7H5O2+
121.0648	4	C8H9O+
147.0439	1	C9H7O2+
163.0069	3	C8H4ClN2+
180.0086	1	C8H5ClN2O+
181.0163	6	C8H6ClN2O+
207.0916	3	C14H11N2+
208.0988	1	C14H12N2+
235.0864	2	C15H11N2O+
236.0944	19	C15H12N2O+
243.0684	27	C14H12ClN2+
244.0397	4	C13H9ClN2O+
249.0662	1	C15H9N2O2+
253.0527	4	C15H10ClN2+
255.0319	11	C14H8ClN2O+
256.0397	1	C14H9ClN2O+
257.0477	1	C14H10ClN2O+
270.0196	2	C14H7ClN2O2+
271.0633	129	C15H12ClN2O+
272.0345	35	C14H9ClN2O2+
273.0425	16	C14H10ClN2O2+
281.0474	9	C16H10ClN2O+
284.0355	2	C15H9ClN2O2+
299.0582	999	C16H12ClN2O2+
327.0536	6	C17H12ClN2O3+
345.0639	18	C17H14ClN2O4+
373.095	83	C19H18ClN2O4+
