Mass spectrum: Benzylparaben; LC-ESI-QFT; MS2; CE: 90; R=17500; [M-H]-
Name: Benzylparaben
Name: benzyl 4-hydroxybenzoate
Formula: C14H12O3
Exact mass: 228.0786
SMILES: OC1=CC=C(C=C1)C(=O)OCC1=CC=CC=C1
InChI: InChI=1S/C14H12O3/c15-13-8-6-12(7-9-13)14(16)17-10-11-4-2-1-3-5-11/h1-9,15H,10H2
Instrument: Q Exactive Orbitrap (Thermo Scientific)
Instrument type: LC-ESI-QFT
Ms type: MS2
Ion mode: NEGATIVE
Ionization: ESI
Fragmentation mode: HCD
Collision energy: 90
Resolution: 17500
Column name: Acquity BEH C18 1.7um, 2.1x150mm (Waters)
Retention time: 17.507 min
Base peak: 227.0714
Precursor m/z: 227.0714
Precursor type: [M-H]-
Precursor intensity: 65646015.69043
m/z	relative intensity	assigned
53.0033	5	C3HO-
65.0033	3	C4HO-
66.011	2	C4H2O-
67.0189	10	C4H3O-
68.9982	34	C3HO2-
69.0346	27	C4H5O-
70.006	9	C3H2O2-
71.0139	17	C3H3O2-
72.9932	13	C2HO3-
78.0111	4	C5H2O-
79.0189	14	C5H3O-
79.9903	11	C4O2-
80.9982	8	C4HO2-
82.0061	66	C4H2O2-
83.0141	3	C4H3O2-
86.001	3	C3H2O3-
91.0188	9	C6H3O-
92.0268	268	C6H4O-
93.0346	15	C6H5O-
95.0139	999	C5H3O2-
97.0295	15	C5H5O2-
98.0011	4	C4H2O3-
106.006	50	C6H2O2-
107.0139	8	C6H3O2-
107.0504	4	C7H7O-
108.0217	966	C6H4O2-
109.0295	4	C6H5O2-
121.0295	11	C7H5O2-
123.0088	117	C6H3O3-
125.0242	3	C6H5O3-
136.0166	15	C7H4O3-
