Mass spectrum: Melengestrol acetate; LC-ESI-QFT; MS2; CE: 30; R=17500; [M+H]+
Name: Melengestrol acetate
Name: [(8R,9S,10R,13S,14S,17R)-17-acetyl-6,10,13-trimethyl-16-methylidene-3-oxo-1,2,8,9,11,12,14,15-octahydrocyclopenta[a]phenanthren-17-yl] acetate
Formula: C25H32O4
Exact mass: 396.2301
SMILES: CC(=O)O[C@]1(C(C)=O)C(=C)C[C@H]2[C@@H]3C=C(C)C4=CC(=O)CC[C@]4(C)[C@H]3CC[C@]12C
InChI: InChI=1S/C25H32O4/c1-14-11-19-20(23(5)9-7-18(28)13-21(14)23)8-10-24(6)22(19)12-15(2)25(24,16(3)26)29-17(4)27/h11,13,19-20,22H,2,7-10,12H2,1,3-6H3/t19-,20+,22+,23-,24+,25+/m1/s1
Instrument: Q Exactive Orbitrap (Thermo Scientific)
Instrument type: LC-ESI-QFT
Ms type: MS2
Ion mode: POSITIVE
Ionization: ESI
Fragmentation mode: HCD
Collision energy: 30
Resolution: 17500
Column name: Acquity BEH C18 1.7um, 2.1x150mm (Waters)
Retention time: 18.605 min
Base peak: 79.0212
Precursor m/z: 397.2373
Precursor type: [M+H]+
Precursor intensity: 2552185.1875
m/z	relative intensity	assigned
81.0697	7	C6H9+
83.0491	7	C5H7O+
93.0698	4	C7H9+
95.0855	14	C7H11+
97.0648	24	C6H9O+
105.0699	16	C8H9+
107.0855	9	C8H11+
109.0649	3	C7H9O+
109.1015	4	C8H13+
111.0804	7	C7H11O+
119.0855	18	C9H11+
121.065	5	C8H9O+
121.1012	21	C9H13+
131.0857	5	C10H11+
133.1012	7	C10H13+
135.0804	6	C9H11O+
137.0961	11	C9H13O+
143.0857	12	C11H11+
145.1013	48	C11H13+
147.0805	5	C10H11O+
147.1169	6	C11H15+
149.0962	9	C10H13O+
151.1118	5	C10H15O+
157.1013	47	C12H13+
159.1168	16	C12H15+
161.096	15	C11H13O+
163.1117	16	C11H15O+
168.0418	21	C8H8O4+
169.1011	18	C13H13+
171.1166	17	C13H15+
173.0961	12	C12H13O+
175.1119	145	C12H15O+
181.1009	9	C14H13+
183.117	15	C14H15+
185.0968	22	C13H13O+
185.132	21	C14H17+
187.1118	261	C13H15O+
189.1275	11	C13H17O+
193.1012	8	C15H13+
195.117	15	C15H15+
197.1326	13	C15H17+
199.1117	17	C14H15O+
201.1275	12	C14H17O+
207.1168	7	C16H15+
209.1324	36	C16H17+
211.1481	11	C16H19+
219.1166	5	C17H15+
221.1326	131	C17H17+
222.1402	11	C17H18+
223.1482	116	C17H19+
224.1557	12	C17H20+
225.1279	6	C16H17O+
225.1641	16	C17H21+
227.1428	20	C16H19O+
232.1246	5	C18H16+
233.1321	8	C18H17+
234.141	4	C18H18+
235.148	52	C18H19+
236.1561	205	C18H20+
237.1639	240	C18H21+
239.1427	8	C17H19O+
246.1403	35	C19H18+
247.1478	5	C19H19+
249.1634	21	C19H21+
251.1424	6	C18H19O+
251.1792	15	C19H23+
253.1588	45	C18H21O+
261.164	131	C20H21+
262.1716	33	C20H22+
263.1425	5	C19H19O+
264.1507	10	C19H20O+
265.159	7	C19H21O+
266.1663	31	C19H22O+
267.1744	34	C19H23O+
275.1794	12	C21H23+
276.1882	9	C21H24+
277.1589	23	C20H21O+
277.1952	48	C21H25+
278.1663	5	C20H22O+
279.1744	999	C20H23O+
280.1818	16	C20H24O+
286.1718	16	C22H22+
293.1902	114	C21H25O+
294.198	216	C21H26O+
295.2058	228	C21H27O+
301.195	12	C23H25+
319.2062	37	C23H27O+
322.1932	9	C22H26O2+
337.2164	313	C23H29O2+
397.237	11	C25H33O4+
