Mass spectrum: Volinanserin; LC-ESI-QFT; MS2; CE: 60; R=17500; [M+H]+
Name: Volinanserin
Formula: C22H28FNO3
Exact mass: 373.2053
SMILES: COC1=C(OC)C(=CC=C1)[C@H](O)C1CCN(CCC2=CC=C(F)C=C2)CC1
InChI: InChI=1S/C22H28FNO3/c1-26-20-5-3-4-19(22(20)27-2)21(25)17-11-14-24(15-12-17)13-10-16-6-8-18(23)9-7-16/h3-9,17,21,25H,10-15H2,1-2H3/t21-/m1/s1
Instrument: Q Exactive Orbitrap (Thermo Scientific)
Instrument type: LC-ESI-QFT
Ms type: MS2
Ion mode: POSITIVE
Ionization: ESI
Fragmentation mode: HCD
Collision energy: 60
Resolution: 17500
Column name: Acquity BEH C18 1.7um, 2.1x150mm (Waters)
Retention time: 13.636 min
Base peak: 79.0211
Precursor m/z: 374.2126
Precursor type: [M+H]+
Precursor intensity: 43095011
m/z	relative intensity	assigned
53.0386	6	C4H5+
55.0542	1	C4H7+
56.0495	5	C3H6N+
58.0652	1	C3H8N+
65.0385	1	C5H5+
67.0542	9	C5H7+
68.0494	1	C4H6N+
69.0699	1	C5H9+
70.0651	4	C4H8N+
77.0383	3	C6H5+
79.0542	2	C6H7+
80.0494	2	C5H6N+
81.0697	2	C6H9+
82.0651	34	C5H8N+
84.0808	21	C5H10N+
85.0886	9	C5H11N+
91.0542	7	C7H7+
93.0699	2	C7H9+
94.0651	10	C6H8N+
95.0491	17	C6H7O+
95.073	8	C6H9N+
96.0807	17	C6H10N+
97.0448	2	C6H6F+
98.0964	62	C6H12N+
102.0464	3	C8H6+
103.0542	407	C8H7+
105.0699	1	C8H9+
107.0493	2	C7H7O+
108.0807	2	C7H10N+
109.0448	11	C7H6F+
109.0649	2	C7H9O+
109.0887	1	C7H11N+
115.0541	2	C9H7+
116.062	1	C9H8+
117.0573	1	C8H7N+
117.07	1	C9H9+
119.0493	1	C8H7O+
121.0448	2	C8H6F+
121.0649	10	C8H9O+
122.0527	3	C8H7F+
123.0604	999	C8H8F+
124.0516	4	C7H8O2+
128.0619	1	C10H8+
129.07	2	C10H9+
130.0776	2	C10H10+
131.0489	1	C9H7O+
131.0856	2	C10H11+
132.0808	5	C9H10N+
133.0449	1	C9H6F+
133.065	1	C9H9O+
135.0438	5	C8H7O2+
135.0605	7	C9H8F+
135.0805	1	C9H11O+
136.0519	99	C8H8O2+
137.0596	15	C8H9O2+
139.0753	5	C8H11O2+
143.0494	2	C10H7O+
143.0855	3	C11H11+
144.057	3	C10H8O+
145.0649	4	C10H9O+
146.0727	2	C10H10O+
147.0803	3	C10H11O+
148.0561	3	C9H7FN+
149.0587	2	C9H9O2+
149.0759	2	C10H10F+
150.0716	11	C9H9FN+
151.0753	35	C9H11O2+
152.0869	46	C9H11FN+
157.065	3	C11H9O+
158.0726	9	C11H10O+
159.0436	1	C10H7O2+
159.0804	15	C11H11O+
160.0883	6	C11H12O+
161.0597	4	C10H9O2+
161.0759	1	C11H10F+
161.0959	1	C11H13O+
163.0755	1	C10H11O2+
164.0827	1	C7H13FO3+
164.0869	1	C10H11FN+
166.1025	3	C10H13FN+
171.0804	6	C12H11O+
172.0882	1	C12H12O+
173.0594	1	C11H9O2+
173.0961	6	C12H13O+
174.0673	3	C11H10O2+
174.104	11	C12H14O+
175.0753	5	C11H11O2+
175.1115	1	C12H15O+
176.0862	5	C11H11FN+
177.0904	2	C11H13O2+
178.1026	15	C11H13FN+
185.096	2	C13H13O+
186.1038	1	C13H14O+
187.0752	1	C12H11O2+
188.0831	1	C12H12O2+
189.092	4	C9H14FO3+
190.0987	5	C9H15FO3+
191.1065	2	C12H15O2+
201.0911	1	C13H13O2+
202.1028	6	C13H13FN+
202.1224	1	C13H16NO+
203.1064	2	C13H15O2+
204.1183	218	C13H15FN+
205.1223	1	C13H17O2+
206.134	2	C13H17FN+
214.1222	3	C14H16NO+
216.102	1	C13H14NO2+
217.1221	1	C14H17O2+
218.1337	2	C14H17FN+
232.1331	28	C14H18NO2+
324.1756	2	C21H23FNO+
326.1551	2	C20H21FNO2+
340.1707	5	C21H23FNO2+
342.1863	1	C21H25FNO2+
344.1659	1	C20H23FNO3+
356.2022	3	C22H27FNO2+
