Mass spectrum: 4-Methoxyaniline; LC-ESI-QFT; MS2; CE: 90; R=17500; [M+H]+
Name: 4-Methoxyaniline
Name: p-Anisidine
Formula: C7H9NO
Exact mass: 123.0684
SMILES: COC1=CC=C(N)C=C1
InChI: InChI=1S/C7H9NO/c1-9-7-4-2-6(8)3-5-7/h2-5H,8H2,1H3
Instrument: Q Exactive Orbitrap (Thermo Scientific)
Instrument type: LC-ESI-QFT
Ms type: MS2
Ion mode: POSITIVE
Ionization: ESI
Fragmentation mode: HCD
Collision energy: 90
Resolution: 17500
Column name: Acquity BEH C18 1.7um, 2.1x150mm (Waters)
Retention time: 3.937 min
Base peak: 79.0211
Precursor m/z: 124.0757
Precursor type: [M+H]+
Precursor intensity: 5471485
m/z	relative intensity	assigned
51.023	1	C4H3+
53.0386	57	C4H5+
54.0464	10	C4H6+
55.0178	3	C3H3O+
63.0229	18	C5H3+
64.0307	18	C5H4+
65.0385	143	C5H5+
66.0463	37	C5H6+
67.0541	3	C5H7+
68.0494	2	C4H6N+
77.0385	35	C6H5+
79.0542	14	C6H7+
80.0494	157	C5H6N+
81.0573	344	C5H7N+
82.0413	2	C5H6O+
92.0257	286	C6H4O+
92.0494	180	C6H6N+
93.0573	999	C6H7N+
94.0651	10	C6H8N+
95.0491	169	C6H7O+
96.0443	10	C5H6NO+
97.0647	3	C6H9O+
107.0492	2	C7H7O+
108.0443	73	C6H6NO+
108.0567	5	C7H8O+
109.0522	217	C6H7NO+
110.06	16	C6H8NO+
123.0678	26	C7H9NO+
124.0757	69	C7H10NO+
