Mass spectrum: Ouabain; LC-ESI-QFT; MS2; CE: 75; R=17500; [M+H]+
Name: Ouabain
Name: 3-[(1R,3S,5S,8R,9S,10R,11R,13R,14S,17R)-1,5,11,14-tetrahydroxy-10-(hydroxymethyl)-13-methyl-3-[(2R,3R,4R,5R,6S)-3,4,5-trihydroxy-6-methyloxan-2-yl]oxy-2,3,4,6,7,8,9,11,12,15,16,17-dodecahydro-1H-cyclopenta[a]phenanthren-17-yl]-2H-furan-5-one
Formula: C29H44O12
Exact mass: 584.2833
SMILES: C[C@@H]1O[C@@H](O[C@H]2C[C@@H](O)[C@]3(CO)[C@H]4[C@H](O)C[C@]5(C)[C@H](CC[C@]5(O)[C@@H]4CC[C@]3(O)C2)C2=CC(=O)OC2)[C@H](O)[C@H](O)[C@H]1O
InChI: InChI=1S/C29H44O12/c1-13-22(34)23(35)24(36)25(40-13)41-15-8-19(32)28(12-30)21-17(3-5-27(28,37)9-15)29(38)6-4-16(14-7-20(33)39-11-14)26(29,2)10-18(21)31/h7,13,15-19,21-25,30-32,34-38H,3-6,8-12H2,1-2H3/t13-,15-,16+,17+,18+,19+,21+,22-,23+,24+,25-,26+,27-,28+,29-/m0/s1
Instrument: Q Exactive Orbitrap (Thermo Scientific)
Instrument type: LC-ESI-QFT
Ms type: MS2
Ion mode: POSITIVE
Ionization: ESI
Fragmentation mode: HCD
Collision energy: 75
Resolution: 17500
Column name: Acquity BEH C18 1.7um, 2.1x150mm (Waters)
Retention time: 11.918 min
Base peak: 79.0211
Precursor m/z: 585.2906
Precursor type: [M+H]+
Precursor intensity: 1042190.875
m/z	relative intensity	assigned
55.0543	131	C4H7+
57.0335	141	C3H5O+
67.0543	145	C5H7+
71.0492	482	C4H7O+
79.0541	321	C6H7+
81.0699	81	C6H9+
83.0492	78	C5H7O+
85.0284	471	C4H5O2+
91.0544	788	C7H7+
93.07	171	C7H9+
95.0492	94	C6H7O+
105.0699	594	C8H9+
109.0649	75	C7H9O+
111.0442	63	C6H7O2+
115.0543	307	C9H7+
116.0621	127	C9H8+
117.0699	553	C9H9+
119.0856	273	C9H11+
128.0622	527	C10H8+
129.0699	999	C10H9+
130.0778	76	C10H10+
131.0856	439	C10H11+
141.0701	589	C11H9+
142.0779	335	C11H10+
143.0855	520	C11H11+
145.0646	78	C10H9O+
145.1015	193	C11H13+
154.0781	118	C12H10+
155.0854	227	C12H11+
157.1013	360	C12H13+
159.0805	127	C11H11O+
159.1175	75	C12H15+
165.07	135	C13H9+
166.0778	112	C13H10+
167.0856	113	C13H11+
169.1016	138	C13H13+
178.0777	90	C14H10+
179.0856	149	C14H11+
181.1014	134	C14H13+
193.1008	70	C15H13+
195.1171	91	C15H15+
203.0853	131	C16H11+
217.1014	85	C17H13+
