Mass spectrum: Isoxaben; LC-ESI-QFT; MS2; CE: 15; R=17500; [M-H]-
Name: Isoxaben
Name: 2,6-dimethoxy-N-[3-(3-methylpentan-3-yl)-1,2-oxazol-5-yl]benzamide
Formula: C18H24N2O4
Exact mass: 332.1736
SMILES: CCC(C)(CC)C1=NOC(NC(=O)C2=C(OC)C=CC=C2OC)=C1
InChI: InChI=1S/C18H24N2O4/c1-6-18(3,7-2)14-11-15(24-20-14)19-17(21)16-12(22-4)9-8-10-13(16)23-5/h8-11H,6-7H2,1-5H3,(H,19,21)
Instrument: Q Exactive Orbitrap (Thermo Scientific)
Instrument type: LC-ESI-QFT
Ms type: MS2
Ion mode: NEGATIVE
Ionization: ESI
Fragmentation mode: HCD
Collision energy: 15
Resolution: 17500
Column name: Acquity BEH C18 1.7um, 2.1x150mm (Waters)
Retention time: 17.361 min
Base peak: 341.0253
Precursor m/z: 331.1663
Precursor type: [M-H]-
Precursor intensity: 5368390.763184
m/z	relative intensity	assigned
72.993	1	C2HO3-
137.0608	9	C8H9O2-
148.0404	1	C8H6NO2-
162.0561	1	C9H8NO2-
220.0615	22	C11H10NO4-
331.1664	999	C18H23N2O4-
