Mass spectrum: Azathioprine; LC-ESI-QFT; MS2; CE: 75; R=17500; [M-H]-
Name: Azathioprine
Name: 6-(3-methyl-5-nitroimidazol-4-yl)sulfanyl-7H-purine
Formula: C9H7N7O2S
Exact mass: 277.0382
SMILES: CN1C=NC(=C1SC1=NC=NC2=C1NC=N2)[N+]([O-])=O
InChI: InChI=1S/C9H7N7O2S/c1-15-4-14-7(16(17)18)9(15)19-8-5-6(11-2-10-5)12-3-13-8/h2-4H,1H3,(H,10,11,12,13)
Instrument: Q Exactive Orbitrap (Thermo Scientific)
Instrument type: LC-ESI-QFT
Ms type: MS2
Ion mode: NEGATIVE
Ionization: ESI
Fragmentation mode: HCD
Collision energy: 75
Resolution: 17500
Column name: Acquity BEH C18 1.7um, 2.1x150mm (Waters)
Retention time: 10.668 min
Base peak: 276.0308
Precursor m/z: 276.0309
Precursor type: [M-H]-
Precursor intensity: 14162043.8855
m/z	relative intensity	assigned
55.0301	8	C2H3N2-
56.9804	2	C2HS-
57.9757	109	CNS-
61.9706	1	NOS-
63.9624	10	O2S-
64.0067	1	C3N2-
65.0145	19	C3HN2-
66.0098	26	C2N3-
67.0302	2	C3H3N2-
69.0095	8	C2HN2O-
69.9755	1	C2NS-
70.9835	2	C2HNS-
71.9675	1	C2OS-
73.9706	101	CNOS-
79.0176	27	C3HN3-
81.9757	35	C3NS-
82.0171	2	C3H2N2O-
82.0412	2	C3H4N3-
83.9912	3	C3H2NS-
85.9706	51	C2NOS-
90.0098	202	C4N3-
92.0254	17	C4H2N3-
93.0208	3	C3HN4-
94.0047	3	C3N3O-
95.9788	6	C3N2S-
96.9866	5	C3HN2S-
97.9944	22	C3H2N2S-
105.0333	2	C5H3N3-
106.0284	18	C4H2N4-
107.0125	18	C4HN3O-
108.9866	5	C4HN2S-
109.9818	7	C3N3S-
111.0022	119	C4H3N2S-
112.0101	92	C4H4N2S-
112.9815	107	C3HN2OS-
113.9894	4	C3H2N2OS-
114.9972	2	C3H3N2OS-
117.0207	574	C5HN4-
118.041	2	C6H4N3-
119.0361	6	C5H3N4-
121.0157	1	C4HN4O-
122.9896	2	C4HN3S-
123.9975	21	C4H2N3S-
126.9845	14	C3HN3OS-
128.005	112	C4H4N2OS-
130.0284	2	C6H2N4-
131.0236	2	C5HN5-
131.0364	2	C6H3N4-
132.0441	39	C6H4N4-
133.0157	4	C5HN4O-
134.0234	74	C5H2N4O-
135.9974	6	C5H2N3S-
136.0147	2	C5H2N3O2-
138.9845	4	C4HN3OS-
142.016	2	C6N5-
142.9794	52	C3HN3O2S-
143.0362	6	C7H3N4-
143.9873	5	C3H2N3O2S-
144.0315	52	C6H2N5-
147.9972	1	C6H2N3S-
150.0003	9	C5H2N4S-
151.0082	12	C5H3N4S-
151.992	3	C5H2N3OS-
156.0317	2	C7H2N5-
157.0392	4	C7H3N5-
158.0029	999	C4H4N3O2S-
163.0083	2	C6H3N4S-
164.0339	5	C6H4N4O2-
168.0316	2	C8H2N5-
170.0472	4	C8H4N5-
174.0004	1	C7H2N4S-
175.0082	3	C7H3N4S-
182.0344	3	C8H2N6-
183.0424	7	C8H3N6-
184.038	1	C7H2N7-
195.0427	1	C9H3N6-
197.0577	3	C9H5N6-
202.0192	4	C8H4N5S-
214.0063	2	C8H2N6S-
215.0144	3	C8H3N6S-
229.0306	7	C9H5N6S-
