Mass spectrum: 2,2`,6,6`-Tetrachlorobisphenol A; LC-ESI-QFT; MS2; CE: 75; R=17500; [M-H]-
Name: 2,2',6,6'-Tetrachlorobisphenol A
Name: Tetrachlorobisphenol A
Name: 2,6-dichloro-4-[2-(3,5-dichloro-4-hydroxyphenyl)propan-2-yl]phenol
Formula: C15H12Cl4O2
Exact mass: 363.9591
SMILES: CC(C)(C1=CC(Cl)=C(O)C(Cl)=C1)C1=CC(Cl)=C(O)C(Cl)=C1
InChI: InChI=1S/C15H12Cl4O2/c1-15(2,7-3-9(16)13(20)10(17)4-7)8-5-11(18)14(21)12(19)6-8/h3-6,20-21H,1-2H3
Instrument: Q Exactive Orbitrap (Thermo Scientific)
Instrument type: LC-ESI-QFT
Ms type: MS2
Ion mode: NEGATIVE
Ionization: ESI
Fragmentation mode: HCD
Collision energy: 75
Resolution: 17500
Column name: Acquity BEH C18 1.7um, 2.1x150mm (Waters)
Retention time: 19.009 min
Base peak: 221.1183
Precursor m/z: 362.9519
Precursor type: [M-H]-
Precursor intensity: 6389505.5
m/z	relative intensity	assigned
61.0084	4	C5H-
77.0033	5	C5HO-
89.0033	198	C6HO-
124.9799	158	C6H2ClO-
148.0322	8	C12H4-
151.991	5	C10O2-
160.9566	23	C6H3Cl2O-
165.0115	6	C9H6ClO-
176.0267	37	C13H4O-
184.9566	40	C8H3Cl2O-
188.0036	3	C11H5ClO-
200.9879	185	C9H7Cl2O-
211.9801	10	C10H6Cl2O-
212.0035	82	C13H5ClO-
215.9988	9	C12H5ClO2-
223.9797	10	C11H6Cl2O-
232.9566	999	C12H3Cl2O-
235.9805	9	C12H6Cl2O-
246.9722	14	C13H5Cl2O-
247.9801	742	C13H6Cl2O-
251.9754	10	C12H6Cl2O2-
268.9335	38	C12H4Cl3O-
282.949	58	C13H6Cl3O-
283.9569	7	C13H7Cl3O-
296.9286	18	C13H4Cl3O2-
299.9515	5	C13H7Cl3O2-
310.944	11	C14H6Cl3O2-
