Mass spectrum: 2,2`-(Oxydimethanediyl)bis(2-ethylpropane-1,3-diol); LC-ESI-QFT; MS2; CE: 75; R=17500; [M+H]+
Name: 2,2'-(Oxydimethanediyl)bis(2-ethylpropane-1,3-diol)
Name: Ditrimethylolpropane
Name: 2-[2,2-bis(hydroxymethyl)butoxymethyl]-2-ethylpropane-1,3-diol
Formula: C12H26O5
Exact mass: 250.1780
SMILES: CCC(CO)(CO)COCC(CC)(CO)CO
InChI: InChI=1S/C12H26O5/c1-3-11(5-13,6-14)9-17-10-12(4-2,7-15)8-16/h13-16H,3-10H2,1-2H3
Instrument: Q Exactive Orbitrap (Thermo Scientific)
Instrument type: LC-ESI-QFT
Ms type: MS2
Ion mode: POSITIVE
Ionization: ESI
Fragmentation mode: HCD
Collision energy: 75
Resolution: 17500
Column name: Acquity BEH C18 1.7um, 2.1x150mm (Waters)
Retention time: 13.467 min
Base peak: 79.0211
Precursor m/z: 251.1853
Precursor type: [M+H]+
Precursor intensity: 4814869.6875
m/z	relative intensity	assigned
53.0022	67	C3HO+
53.0387	100	C4H5+
55.0543	270	C4H7+
57.0336	329	C3H5O+
59.0492	15	C3H7O+
61.0284	21	C2H5O2+
65.0386	14	C5H5+
66.0465	9	C5H6+
67.0542	23	C5H7+
69.0699	656	C5H9+
71.0492	37	C4H7O+
71.0855	20	C5H11+
79.0543	516	C6H7+
81.0699	999	C6H9+
85.0648	50	C5H9O+
95.0492	29	C6H7O+
99.0806	99	C6H11O+
152.0621	14	C12H8+
