Mass spectrum: Fluocinolone acetonide; LC-ESI-QFT; MS2; CE: 75; R=17500; [M+H]+
Name: Fluocinolone acetonide
Name: (1S,2S,4R,8S,9S,11S,12R,13S,19S)-12,19-difluoro-11-hydroxy-8-(2-hydroxyacetyl)-6,6,9,13-tetramethyl-5,7-dioxapentacyclo[10.8.0.02,9.04,8.013,18]icosa-14,17-dien-16-one
Formula: C24H30F2O6
Exact mass: 452.2010
SMILES: CC1(C)O[C@@H]2C[C@H]3[C@@H]4C[C@H](F)C5=CC(=O)C=C[C@]5(C)[C@@]4(F)[C@@H](O)C[C@]3(C)[C@@]2(O1)C(=O)CO
InChI: InChI=1S/C24H30F2O6/c1-20(2)31-19-9-13-14-8-16(25)15-7-12(28)5-6-21(15,3)23(14,26)17(29)10-22(13,4)24(19,32-20)18(30)11-27/h5-7,13-14,16-17,19,27,29H,8-11H2,1-4H3/t13-,14-,16-,17-,19+,21-,22-,23-,24+/m0/s1
Instrument: Q Exactive Orbitrap (Thermo Scientific)
Instrument type: LC-ESI-QFT
Ms type: MS2
Ion mode: POSITIVE
Ionization: ESI
Fragmentation mode: HCD
Collision energy: 75
Resolution: 17500
Column name: Acquity BEH C18 1.7um, 2.1x150mm (Waters)
Retention time: 16.806 min
Base peak: 79.0211
Precursor m/z: 453.2083
Precursor type: [M+H]+
Precursor intensity: 3881997.25
m/z	relative intensity	assigned
51.023	5	C4H3+
53.0022	8	C3HO+
53.0386	88	C4H5+
55.0179	109	C3H3O+
55.0542	17	C4H7+
59.0492	156	C3H7O+
65.0387	33	C5H5+
67.0542	46	C5H7+
68.9971	7	C3HO2+
69.0335	38	C4H5O+
71.0127	6	C3H3O2+
71.0491	5	C4H7O+
77.0385	24	C6H5+
78.0464	6	C6H6+
79.0542	128	C6H7+
81.0335	18	C5H5O+
81.0699	47	C6H9+
83.0491	10	C5H7O+
87.0442	6	C4H7O2+
91.0543	490	C7H7+
93.07	152	C7H9+
94.0413	8	C6H6O+
95.0492	232	C6H7O+
95.0855	20	C7H11+
97.0284	16	C5H5O2+
97.045	7	C6H6F+
97.0648	6	C6H9O+
99.0605	14	C6H8F+
101.0234	7	C4H5O3+
103.0543	110	C8H7+
105.07	191	C8H9+
107.0493	48	C7H7O+
107.0856	29	C8H11+
109.0449	75	C7H6F+
109.0649	55	C7H9O+
111.0444	10	C6H7O2+
111.0607	5	C7H8F+
111.0805	7	C7H11O+
115.0543	209	C9H7+
116.0623	21	C9H8+
117.0699	130	C9H9+
119.0492	9	C8H7O+
119.0857	45	C9H11+
121.0649	999	C8H9O+
123.0441	8	C7H7O2+
123.0605	33	C8H8F+
123.0803	5	C8H11O+
125.0402	7	C7H6FO+
125.0763	7	C8H10F+
127.0545	6	C10H7+
128.0621	153	C10H8+
129.0699	119	C10H9+
130.0778	17	C10H10+
131.0492	20	C9H7O+
131.0856	52	C10H11+
132.057	25	C9H8O+
133.045	17	C9H6F+
133.0647	38	C9H9O+
134.0525	9	C9H7F+
135.0439	11	C8H7O2+
135.0605	21	C9H8F+
135.0806	33	C9H11O+
137.0762	34	C9H10F+
139.0555	64	C8H8FO+
141.0699	81	C11H9+
142.078	24	C11H10+
143.0857	46	C11H11+
144.057	53	C10H8O+
145.0649	157	C10H9O+
146.0527	29	C10H7F+
146.0731	10	C10H10O+
147.0606	20	C10H8F+
147.0805	47	C10H11O+
149.0761	30	C10H10F+
152.0622	24	C12H8+
153.0701	40	C12H9+
154.0776	12	C12H10+
155.0856	48	C12H11+
157.065	38	C11H9O+
158.0727	57	C11H10O+
159.0606	16	C11H8F+
159.0805	70	C11H11O+
161.0598	10	C10H9O2+
161.0759	6	C11H10F+
161.0963	7	C11H13O+
162.0476	13	C10H7FO+
163.0553	14	C10H8FO+
165.07	133	C13H9+
166.0779	39	C13H10+
167.0858	31	C13H11+
168.0572	18	C12H8O+
168.0928	6	C13H12+
169.0648	55	C12H9O+
169.1017	6	C13H13+
170.0729	17	C12H10O+
171.0599	5	C12H8F+
171.0805	92	C12H11O+
172.0887	6	C12H12O+
176.0633	10	C11H9FO+
177.0707	25	C11H10FO+
178.0779	99	C14H10+
179.0857	118	C14H11+
180.0936	48	C14H12+
181.065	60	C13H9O+
181.1014	15	C14H13+
182.0727	45	C13H10O+
183.0605	6	C13H8F+
183.0805	22	C13H11O+
183.1169	6	C14H15+
184.0882	11	C13H12O+
185.06	23	C12H9O2+
185.0964	8	C13H13O+
189.0703	64	C15H9+
190.0777	89	C15H10+
191.0855	68	C15H11+
192.0934	53	C15H12+
193.1015	68	C15H13+
194.0726	35	C14H10O+
194.109	12	C15H14+
195.0807	71	C14H11O+
195.1172	16	C15H15+
196.0885	44	C14H12O+
197.0963	49	C14H13O+
202.0778	53	C16H10+
203.0859	98	C16H11+
204.0935	24	C16H12+
205.0648	29	C15H9O+
205.1013	64	C16H13+
206.0728	16	C15H10O+
206.1091	10	C16H14+
207.0808	50	C15H11O+
207.1165	17	C16H15+
208.0884	115	C15H12O+
209.0962	47	C15H13O+
210.1041	14	C15H14O+
211.0752	15	C14H11O2+
211.1119	18	C15H15O+
215.0858	87	C17H11+
216.0936	37	C17H12+
217.1016	42	C17H13+
218.0729	31	C16H10O+
218.1094	24	C17H14+
219.0808	71	C16H11O+
220.0883	46	C16H12O+
221.0961	67	C16H13O+
222.1039	47	C16H14O+
223.1122	20	C16H15O+
224.0834	8	C15H12O2+
225.0909	11	C15H13O2+
226.0788	15	C15H11FO+
227.0851	29	C18H11+
229.1013	38	C18H13+
230.1096	19	C18H14+
231.0807	97	C17H11O+
231.1169	9	C18H15+
232.0882	30	C17H12O+
233.0962	69	C17H13O+
234.1038	29	C17H14O+
235.0758	11	C16H11O2+
235.112	41	C17H15O+
236.1198	8	C17H16O+
237.0909	12	C16H13O2+
238.0996	9	C13H15FO3+
239.0862	22	C16H12FO+
240.0941	8	C16H13FO+
241.1017	13	C19H13+
243.0809	17	C18H11O+
243.1176	8	C16H16FO+
244.0881	8	C18H12O+
245.096	59	C18H13O+
246.1044	32	C18H14O+
247.0754	15	C17H11O2+
247.1124	16	C15H16FO2+
248.1198	6	C18H16O+
249.0914	17	C17H13O2+
249.1268	9	C18H17O+
253.1021	7	C17H14FO+
257.0963	20	C19H13O+
258.1043	29	C19H14O+
259.1118	9	C19H15O+
261.0913	27	C18H13O2+
261.1272	6	C19H17O+
263.0871	7	C18H12FO+
263.1055	7	C18H15O2+
274.0993	6	C19H14O2+
