Mass spectrum: Triadimefon; LC-ESI-QFT; MS2; CE: 90; R=17500; [M+H]+
Name: Triadimefon
Name: 1-(4-chlorophenoxy)-3,3-dimethyl-1-(1,2,4-triazol-1-yl)butan-2-one
Formula: C14H16ClN3O2
Exact mass: 293.0931
SMILES: CC(C)(C)C(=O)C(OC1=CC=C(Cl)C=C1)N1C=NC=N1
InChI: InChI=1S/C14H16ClN3O2/c1-14(2,3)12(19)13(18-9-16-8-17-18)20-11-6-4-10(15)5-7-11/h4-9,13H,1-3H3
Instrument: Q Exactive Orbitrap (Thermo Scientific)
Instrument type: LC-ESI-QFT
Ms type: MS2
Ion mode: POSITIVE
Ionization: ESI
Fragmentation mode: HCD
Collision energy: 90
Resolution: 17500
Column name: Acquity BEH C18 1.7um, 2.1x150mm (Waters)
Retention time: 17.637 min
Base peak: 79.0211
Precursor m/z: 294.1004
Precursor type: [M+H]+
Precursor intensity: 10107750.59375
m/z	relative intensity	assigned
50.0152	6	C4H2+
51.023	18	C4H3+
53.0023	196	C3HO+
53.0386	54	C4H5+
53.9975	31	C2NO+
55.0543	399	C4H7+
57.0699	927	C4H9+
62.9633	3	CClO+
63.023	12	C5H3+
65.0386	76	C5H5+
67.0542	30	C5H7+
67.9893	3	C3O2+
69.0699	293	C5H9+
70.0777	202	C5H10+
72.984	84	C3H2Cl+
75.023	162	C6H3+
77.0386	15	C6H5+
78.0088	3	C3N3+
78.0464	10	C6H6+
79.0179	9	C5H3O+
82.04	6	C3H4N3+
83.0478	3	C3H5N3+
86.9997	57	C4H4Cl+
91.0543	115	C7H7+
94.0414	113	C6H6O+
95.0492	112	C6H7O+
98.9997	999	C5H4Cl+
102.0465	13	C8H6+
105.0337	5	C7H5O+
105.0448	48	C6H5N2+
105.0699	10	C8H9+
107.0492	10	C7H7O+
109.065	7	C7H9O+
110.035	10	C4H4N3O+
110.9997	52	C6H4Cl+
111.0441	66	C6H7O2+
113.0153	73	C6H6Cl+
119.0492	11	C8H7O+
119.0606	7	C7H7N2+
119.0857	10	C9H11+
120.0572	25	C8H8O+
121.0397	19	C6H5N2O+
125.0155	16	C7H6Cl+
126.9946	162	C6H4ClO+
128.0025	8	C6H5ClO+
129.0102	228	C6H6ClO+
137.0152	5	C8H6Cl+
139.0059	325	C6H4ClN2+
141.0103	97	C7H6ClO+
146.0728	3	C10H10O+
147.0806	7	C10H11O+
155.0259	19	C8H8ClO+
159.0209	15	C7H8ClO2+
175.0755	13	C11H11O2+
