Mass spectrum: 6-Nitrobenzimidazole; LC-ESI-QFT; MS2; CE: 15; R=17500; [M-H]-
Name: 6-Nitrobenzimidazole
Name: 5-Nitrobenzimidazole
Formula: C7H5N3O2
Exact mass: 163.0382
SMILES: [O-][N+](=O)C1=CC2=C(NC=N2)C=C1
InChI: InChI=1S/C7H5N3O2/c11-10(12)5-1-2-6-7(3-5)9-4-8-6/h1-4H,(H,8,9)
Instrument: Q Exactive Orbitrap (Thermo Scientific)
Instrument type: LC-ESI-QFT
Ms type: MS2
Ion mode: NEGATIVE
Ionization: ESI
Fragmentation mode: HCD
Collision energy: 15
Resolution: 17500
Column name: Acquity BEH C18 1.7um, 2.1x150mm (Waters)
Retention time: 10.075 min
Base peak: 162.0308
Precursor m/z: 162.0309
Precursor type: [M-H]-
Precursor intensity: 25062355.10742
m/z	relative intensity	assigned
91.0303	1	C5H3N2-
92.0379	1	C5H4N2-
115.0302	1	C7H3N2-
116.0376	2	C7H4N2-
119.0249	1	C6H3N2O-
132.0328	120	C7H4N2O-
162.0308	999	C7H4N3O2-
