Mass spectrum: Ethoxyquin; LC-ESI-QFT; MS2; CE: 15; R=17500; [M+H]+
Name: Ethoxyquin
Name: 6-ethoxy-2,2,4-trimethyl-1H-quinoline
Formula: C14H19NO
Exact mass: 217.1467
SMILES: CCOC1=CC2=C(NC(C)(C)C=C2C)C=C1
InChI: InChI=1S/C14H19NO/c1-5-16-11-6-7-13-12(8-11)10(2)9-14(3,4)15-13/h6-9,15H,5H2,1-4H3
Instrument: Q Exactive Orbitrap (Thermo Scientific)
Instrument type: LC-ESI-QFT
Ms type: MS2
Ion mode: POSITIVE
Ionization: ESI
Fragmentation mode: HCD
Collision energy: 15
Resolution: 17500
Column name: Acquity BEH C18 1.7um, 2.1x150mm (Waters)
Retention time: 15.084 min
Base peak: 79.0211
Precursor m/z: 218.1539
Precursor type: [M+H]+
Precursor intensity: 11911045.5625
m/z	relative intensity	assigned
136.0755	1	C8H10NO+
148.0756	5	C9H10NO+
158.0171	3	C13H2+
162.0914	4	C10H12NO+
172.1122	1	C12H14N+
173.096	1	C12H13O+
173.1204	1	C12H15N+
174.0907	1	C11H12NO+
175.0999	1	C11H13NO+
176.107	14	C11H14NO+
188.1068	2	C12H14NO+
189.1146	4	C12H15NO+
190.1227	10	C12H16NO+
201.1275	1	C14H17O+
202.1225	2	C13H16NO+
203.131	2	C13H17NO+
218.1538	999	C14H20NO+
