Mass spectrum: Diflufenzopyr; LC-ESI-QFT; MS2; CE: 90; R=17500; [M-H]-
Name: Diflufenzopyr
Name: 2-[(E)-N-[(3,5-difluorophenyl)carbamoylamino]-C-methylcarbonimidoyl]pyridine-3-carboxylic acid
Formula: C15H12F2N4O3
Exact mass: 334.0877
SMILES: C\C(=N/NC(=O)NC1=CC(F)=CC(F)=C1)C1=NC=CC=C1C(O)=O
InChI: InChI=1S/C15H12F2N4O3/c1-8(13-12(14(22)23)3-2-4-18-13)20-21-15(24)19-11-6-9(16)5-10(17)7-11/h2-7H,1H3,(H,22,23)(H2,19,21,24)/b20-8+
Instrument: Q Exactive Orbitrap (Thermo Scientific)
Instrument type: LC-ESI-QFT
Ms type: MS2
Ion mode: NEGATIVE
Ionization: ESI
Fragmentation mode: HCD
Collision energy: 90
Resolution: 17500
Column name: Acquity BEH C18 1.7um, 2.1x150mm (Waters)
Retention time: 16.368 min
Base peak: 112.9856
Precursor m/z: 333.0805
Precursor type: [M-H]-
Precursor intensity: 9273108.322754
m/z	relative intensity	assigned
65.0034	10	C4HO-
65.9986	6	C3NO-
76.0192	4	C5H2N-
79.0554	88	C6H7-
87.0115	53	C6HN-
88.0193	836	C6H2N-
90.035	12	C6H4N-
91.03	7	C5H3N2-
93.0459	7	C5H5N2-
102.035	32	C7H4N-
103.0302	23	C6H3N2-
104.0506	37	C7H6N-
106.0663	10	C7H8N-
108.0256	638	C6H3FN-
128.0318	999	C6H4F2N-
132.0567	70	C7H6N3-
160.0518	92	C8H6N3O-
