Mass spectrum: Trifloxystrobin; LC-ESI-QFT; MS2; CE: 30; R=17500; [M+H]+
Name: Trifloxystrobin
Name: methyl 2-methoxyimino-2-[2-[[1-[3-(trifluoromethyl)phenyl]ethylideneamino]oxymethyl]phenyl]acetate
Formula: C20H19F3N2O4
Exact mass: 408.1297
SMILES: CON=C(C(=O)OC)C1=CC=CC=C1CON=C(C)C1=CC(=CC=C1)C(F)(F)F
InChI: InChI=1S/C20H19F3N2O4/c1-13(14-8-6-9-16(11-14)20(21,22)23)24-29-12-15-7-4-5-10-17(15)18(25-28-3)19(26)27-2/h4-11H,12H2,1-3H3
Instrument: Q Exactive Orbitrap (Thermo Scientific)
Instrument type: LC-ESI-QFT
Ms type: MS2
Ion mode: POSITIVE
Ionization: ESI
Fragmentation mode: HCD
Collision energy: 30
Resolution: 17500
Column name: Acquity BEH C18 1.7um, 2.1x150mm (Waters)
Retention time: 18.993 min
Base peak: 79.0211
Precursor m/z: 409.137
Precursor type: [M+H]+
Precursor intensity: 24251280
m/z	relative intensity	assigned
79.0542	1	C6H7+
89.0384	2	C7H5+
91.0542	6	C7H7+
103.0541	1	C8H7+
105.0698	19	C8H9+
109.0648	1	C7H9O+
115.0543	1	C9H7+
116.0494	178	C8H6N+
117.0572	9	C8H7N+
118.0651	15	C8H8N+
119.0491	6	C8H7O+
119.0727	4	C8H9N+
130.0651	6	C9H8N+
131.0729	136	C9H9N+
132.0444	8	C8H6NO+
132.0807	115	C9H10N+
133.0521	1	C8H7NO+
134.06	44	C8H8NO+
145.0257	15	C7H4F3+
146.06	90	C9H8NO+
147.0678	11	C9H9NO+
148.0756	12	C9H10NO+
149.047	1	C8H7NO2+
161.0471	6	C9H7NO2+
162.0913	15	C10H12NO+
163.0364	2	C7H6F3O+
173.0322	11	C7H4F3N2+
174.0551	3	C10H8NO2+
175.0628	14	C10H9NO2+
178.0863	8	C10H12NO2+
186.0525	999	C9H7F3N+
200.0682	1	C10H9F3N+
206.0811	259	C11H12NO3+
