Mass spectrum: Bentazone; LC-ESI-QFT; MS2; CE: 60; R=17500; [M-H]-
Name: Bentazone
Name: 2,2-dioxo-3-propan-2-yl-1H-2lambda6,1,3-benzothiadiazin-4-one
Formula: C10H12N2O3S
Exact mass: 240.0569
SMILES: CC(C)N1C(=O)C2=C(NS1(=O)=O)C=CC=C2
InChI: InChI=1S/C10H12N2O3S/c1-7(2)12-10(13)8-5-3-4-6-9(8)11-16(12,14)15/h3-7,11H,1-2H3
Instrument: Q Exactive Orbitrap (Thermo Scientific)
Instrument type: LC-ESI-QFT
Ms type: MS2
Ion mode: NEGATIVE
Ionization: ESI
Fragmentation mode: HCD
Collision energy: 60
Resolution: 17500
Column name: Acquity BEH C18 1.7um, 2.1x150mm (Waters)
Retention time: 15.674 min
Base peak: 239.0496
Precursor m/z: 239.0496
Precursor type: [M-H]-
Precursor intensity: 67252910.78809
m/z	relative intensity	assigned
69.0348	1	C4H5O-
77.9656	3	NO2S-
79.9574	29	O3S-
80.9653	2	HO3S-
90.035	1	C6H4N-
92.0506	1	C6H6N-
105.0221	2	C6H3NO-
105.0346	29	C7H5O-
115.0301	1	C7H3N2-
116.038	33	C7H4N2-
117.0458	104	C7H5N2-
121.0296	24	C7H5O2-
123.0452	6	C7H7O2-
130.0425	3	C9H6O-
131.0251	1	C7H3N2O-
132.0329	999	C7H4N2O-
133.0407	422	C7H5N2O-
145.0406	2	C8H5N2O-
145.0657	8	C10H9O-
147.0816	17	C10H11O-
149.0245	1	C8H5O3-
153.9967	4	C6H4NO2S-
159.0563	1	C9H7N2O-
167.9998	4	C6H4N2O2S-
175.0877	112	C10H11N2O-
194.9869	6	C7H3N2O3S-
195.9949	69	C7H4N2O3S-
197.0026	230	C7H5N2O3S-
239.0497	51	C10H11N2O3S-
