Mass spectrum: Propyzamide; LC-ESI-QFT; MS2; CE: 30; R=17500; [M+H]+
Name: Propyzamide
Name: 3,5-dichloro-N-(2-methylbut-3-yn-2-yl)benzamide
Formula: C12H11Cl2NO
Exact mass: 255.0218
SMILES: CC(C)(NC(=O)C1=CC(Cl)=CC(Cl)=C1)C#C
InChI: InChI=1S/C12H11Cl2NO/c1-4-12(2,3)15-11(16)8-5-9(13)7-10(14)6-8/h1,5-7H,2-3H3,(H,15,16)
Instrument: Q Exactive Orbitrap (Thermo Scientific)
Instrument type: LC-ESI-QFT
Ms type: MS2
Ion mode: POSITIVE
Ionization: ESI
Fragmentation mode: HCD
Collision energy: 30
Resolution: 17500
Column name: Acquity BEH C18 1.7um, 2.1x150mm (Waters)
Retention time: 17.797 min
Base peak: 79.0211
Precursor m/z: 256.029
Precursor type: [M+H]+
Precursor intensity: 4087742.03125
m/z	relative intensity	assigned
67.0542	113	C5H7+
172.9556	514	C7H3Cl2O+
189.9822	999	C7H6Cl2NO+
256.0295	671	C12H12Cl2NO+
