Mass spectrum: Chlordimeform; LC-ESI-QFT; MS2; CE: 90; R=17500; [M+H]+
Name: Chlordimeform
Name: N'-(4-chloro-2-methylphenyl)-N,N-dimethylmethanimidamide
Formula: C10H13ClN2
Exact mass: 196.0767
SMILES: CN(C)C=NC1=CC=C(Cl)C=C1C
InChI: InChI=1S/C10H13ClN2/c1-8-6-9(11)4-5-10(8)12-7-13(2)3/h4-7H,1-3H3
Instrument: Q Exactive Orbitrap (Thermo Scientific)
Instrument type: LC-ESI-QFT
Ms type: MS2
Ion mode: POSITIVE
Ionization: ESI
Fragmentation mode: HCD
Collision energy: 90
Resolution: 17500
Column name: Acquity BEH C18 1.7um, 2.1x150mm (Waters)
Retention time: 11.347 min
Base peak: 79.0211
Precursor m/z: 197.084
Precursor type: [M+H]+
Precursor intensity: 36615628.875
m/z	relative intensity	assigned
58.0652	31	C3H8N+
63.0228	5	C5H3+
65.0386	3	C5H5+
66.0464	9	C5H6+
89.0386	105	C7H5+
90.0465	46	C7H6+
91.0543	3	C7H7+
92.0496	2	C6H6N+
98.9997	38	C5H4Cl+
104.0619	1	C8H8+
106.0652	11	C7H8N+
116.0495	12	C8H6N+
117.0573	999	C8H7N+
118.065	12	C8H8N+
120.0809	7	C8H10N+
125.0153	273	C7H6Cl+
134.06	19	C5H11ClN2+
140.0263	3	C7H7ClN+
141.0338	5	C7H8ClN+
144.0556	16	C7H11ClN+
147.0914	3	C9H11N2+
151.0184	1	C8H6ClN+
152.0262	8	C8H7ClN+
153.0215	2	C7H6ClN2+
161.1076	2	C10H13N2+
197.0843	3	C10H14ClN2+
