Mass spectrum: Besonprodil; LC-ESI-QFT; MS2; CE: 60; R=17500; [M-H]-
Name: Besonprodil
Name: 6-[2-[4-[(4-fluorophenyl)methyl]piperidin-1-yl]ethylsulfinyl]-3H-1,3-benzoxazol-2-one
Formula: C21H23FN2O3S
Exact mass: 402.1413
SMILES: FC1=CC=C(CC2CCN(CCS(=O)C3=CC=C4NC(=O)OC4=C3)CC2)C=C1
InChI: InChI=1S/C21H23FN2O3S/c22-17-3-1-15(2-4-17)13-16-7-9-24(10-8-16)11-12-28(26)18-5-6-19-20(14-18)27-21(25)23-19/h1-6,14,16H,7-13H2,(H,23,25)
Instrument: Q Exactive Orbitrap (Thermo Scientific)
Instrument type: LC-ESI-QFT
Ms type: MS2
Ion mode: NEGATIVE
Ionization: ESI
Fragmentation mode: HCD
Collision energy: 60
Resolution: 17500
Column name: Acquity BEH C18 1.7um, 2.1x150mm (Waters)
Retention time: 13.201 min
Base peak: 118.0299
Precursor m/z: 401.1341
Precursor type: [M-H]-
Precursor intensity: 9881545.657227
m/z	relative intensity	assigned
56.9804	2	C2HS-
57.9757	74	CNS-
63.9624	3	O2S-
64.0192	1	C4H2N-
65.0033	9	C4HO-
65.9985	20	C3NO-
68.0142	15	C3H2NO-
68.9982	5	C3HO2-
81.022	4	C4H3NO-
81.9757	13	C3NS-
83.9914	73	C3H2NS-
84.9752	1	C3HOS-
92.0141	2	C5H2NO-
93.022	1	C5H3NO-
93.9883	49	C5H2S-
96.0093	1	C4H2NO2-
97.9832	1	C4H2OS-
98.9785	1	C3HNOS-
107.9913	13	C5H2NS-
108.999	1	C5H3NS-
109.0169	11	C5H3NO2-
110.991	5	C5H3OS-
111.9862	8	C4H2NOS-
112.9941	45	C4H3NOS-
120.0091	72	C6H2NO2-
121.0168	14	C6H3NO2-
122.0247	1	C6H4NO2-
123.986	2	C5H2NOS-
124.0041	1	C5H2NO3-
124.9941	13	C5H3NOS-
125.978	12	C5H2O2S-
133.017	3	C7H3NO2-
134.0247	3	C7H4NO2-
135.9862	15	C6H2NOS-
136.0039	11	C6H2NO3-
136.994	59	C6H3NOS-
137.9781	12	C6H2O2S-
138.0019	1	C6H4NOS-
138.9858	8	C6H3O2S-
139.9811	3	C5H2NO2S-
149.0118	625	C7H3NO3-
151.9811	27	C6H2NO2S-
152.989	57	C6H3NO2S-
164.9889	261	C7H3NO2S-
179.976	8	C7H2NO3S-
180.9839	999	C7H3NO3S-
181.9917	15	C7H4NO3S-
