Mass spectrum: N-methyl-alpha-phenylbenzeneacetamide; LC-ESI-QFT; MS2; CE: 60; R=17500; [M+H]+
Name: N-methyl-alpha-phenylbenzeneacetamide
Name: N-methyl-2,2-diphenylacetamide
Formula: C15H15NO
Exact mass: 225.1154
SMILES: CNC(=O)C(C1=CC=CC=C1)C1=CC=CC=C1
InChI: InChI=1S/C15H15NO/c1-16-15(17)14(12-8-4-2-5-9-12)13-10-6-3-7-11-13/h2-11,14H,1H3,(H,16,17)
Instrument: Q Exactive Orbitrap (Thermo Scientific)
Instrument type: LC-ESI-QFT
Ms type: MS2
Ion mode: POSITIVE
Ionization: ESI
Fragmentation mode: HCD
Collision energy: 60
Resolution: 17500
Column name: Acquity BEH C18 1.7um, 2.1x150mm (Waters)
Retention time: 16.084 min
Base peak: 79.0212
Precursor m/z: 226.1226
Precursor type: [M+H]+
Precursor intensity: 27948757.71875
m/z	relative intensity	assigned
58.0287	16	C2H4NO+
91.0542	39	C7H7+
107.0491	1	C7H7O+
120.0807	999	C8H10N+
141.0699	7	C11H9+
146.0601	1	C9H8NO+
148.0756	12	C9H10NO+
152.062	34	C12H8+
154.0774	1	C12H10+
165.0699	40	C13H9+
166.0777	14	C13H10+
167.0855	205	C13H11+
169.0647	1	C12H9O+
193.0885	4	C14H11N+
226.1227	1	C15H16NO+
