Mass spectrum: Phosalone; LC-ESI-QFT; MS2; CE: 30; R=17500; [M+H]+
Name: Phosalone
Name: 6-chloro-3-(diethoxyphosphinothioylsulfanylmethyl)-1,3-benzoxazol-2-one
Formula: C12H15ClNO4PS2
Exact mass: 366.9869
SMILES: CCOP(=S)(OCC)SCN1C(=O)OC2=CC(Cl)=CC=C12
InChI: InChI=1S/C12H15ClNO4PS2/c1-3-16-19(20,17-4-2)21-8-14-10-6-5-9(13)7-11(10)18-12(14)15/h5-7H,3-4,8H2,1-2H3
Instrument: Q Exactive Orbitrap (Thermo Scientific)
Instrument type: LC-ESI-QFT
Ms type: MS2
Ion mode: POSITIVE
Ionization: ESI
Fragmentation mode: HCD
Collision energy: 30
Resolution: 17500
Column name: Acquity BEH C18 1.7um, 2.1x150mm (Waters)
Retention time: 18.842 min
Base peak: 79.0211
Precursor m/z: 367.9941
Precursor type: [M+H]+
Precursor intensity: 4103856.53125
m/z	relative intensity	assigned
55.0543	165	C4H7+
57.0699	304	C4H9+
67.0542	91	C5H7+
69.0699	733	C5H9+
71.049	25	C4H7O+
71.0855	240	C5H11+
81.0699	205	C6H9+
83.0855	827	C6H11+
85.0649	31	C5H9O+
85.1012	152	C6H13+
93.0699	46	C7H9+
95.0855	248	C7H11+
97.1012	999	C7H13+
99.0803	27	C6H11O+
100.0757	19	C5H10NO+
101.0596	18	C5H9O2+
105.0698	24	C8H9+
107.0854	97	C8H11+
109.1013	208	C8H13+
111.0806	59	C7H11O+
111.1168	483	C8H15+
114.9614	302	H4O3PS+
119.0857	44	C5H14NP+
121.1012	116	C9H13+
123.1168	117	C9H15+
125.096	102	C8H13O+
133.1011	102	C10H13+
135.1169	113	C10H15+
137.0961	49	C9H13O+
138.0106	56	C7H5ClN+
139.1117	74	C9H15O+
147.1169	118	C11H15+
151.1122	75	C10H15O+
170.0005	62	C7H5ClNO2+
182.0004	679	C8H5ClNO2+
322.0057	19	C11H14ClNO4PS+
