Mass spectrum: Imazapic; LC-ESI-QFT; MS2; CE: 60; R=17500; [M+H]+
Name: Imazapic
Name: 5-methyl-2-(4-methyl-5-oxo-4-propan-2-yl-1H-imidazol-2-yl)pyridine-3-carboxylic acid
Formula: C14H17N3O3
Exact mass: 275.1270
SMILES: CC(C)C1(C)NC(=NC1=O)C1=NC=C(C)C=C1C(O)=O
InChI: InChI=1S/C14H17N3O3/c1-7(2)14(4)13(20)16-11(17-14)10-9(12(18)19)5-8(3)6-15-10/h5-7H,1-4H3,(H,18,19)(H,16,17,20)
Instrument: Q Exactive Orbitrap (Thermo Scientific)
Instrument type: LC-ESI-QFT
Ms type: MS2
Ion mode: POSITIVE
Ionization: ESI
Fragmentation mode: HCD
Collision energy: 60
Resolution: 17500
Column name: Acquity BEH C18 1.7um, 2.1x150mm (Waters)
Retention time: 13.617 min
Base peak: 79.0211
Precursor m/z: 276.1343
Precursor type: [M+H]+
Precursor intensity: 21404903.75
m/z	relative intensity	assigned
53.0022	30	C3HO+
53.0386	2	C4H5+
53.9975	5	C2NO+
55.0179	1	C3H3O+
56.0495	5	C3H6N+
58.0651	17	C3H8N+
67.0416	1	C4H5N+
67.0542	14	C5H7+
67.9893	1	C3O2+
68.0495	1	C4H6N+
69.0698	862	C5H9+
70.0651	12	C4H8N+
71.0729	21	C4H9N+
71.0854	7	C5H11+
72.0444	5	C3H6NO+
72.0807	1	C4H10N+
79.0416	1	C5H5N+
84.0807	1	C5H10N+
86.0964	790	C5H12N+
90.0338	2	C6H4N+
92.0495	4	C6H6N+
94.0525	10	C5H6N2+
94.0651	3	C6H8N+
96.0444	1	C5H6NO+
97.0647	16	C6H9O+
98.06	1	C5H8NO+
107.0366	3	C6H5NO+
108.0442	2	C6H6NO+
110.06	28	C6H8NO+
114.0913	1	C6H12NO+
117.0449	4	C7H5N2+
118.0526	9	C7H6N2+
119.0604	96	C7H7N2+
120.0682	2	C7H8N2+
121.0397	5	C6H5N2O+
121.076	7	C7H9N2+
122.06	3	C7H8NO+
124.0758	16	C7H10NO+
131.0727	1	C9H9N+
135.0553	28	C7H7N2O+
138.055	19	C7H8NO2+
144.0808	3	C10H10N+
145.0397	300	C8H5N2O+
146.0476	7	C8H6N2O+
146.0964	7	C10H12N+
147.0553	64	C8H7N2O+
147.0916	4	C9H11N2+
148.0393	1	C8H6NO2+
150.0551	11	C8H8NO2+
158.0966	1	C11H12N+
159.0794	1	C9H9N3+
160.0869	1	C9H10N3+
161.071	319	C9H9N2O+
162.0662	196	C8H8N3O+
163.0502	999	C8H7N2O2+
165.0668	2	C8H9N2O2+
168.0809	1	C12H10N+
170.0838	4	C11H10N2+
170.0968	5	C12H12N+
171.055	1	C10H7N2O+
171.0917	1	C11H11N2+
172.0757	2	C11H10NO+
172.0992	5	C11H12N2+
174.0786	2	C10H10N2O+
175.0503	1	C9H7N2O2+
177.0658	20	C9H9N2O2+
180.0767	1	C8H10N3O2+
185.1074	13	C12H13N2+
186.0663	3	C10H8N3O+
186.0917	2	C12H12NO+
187.0741	20	C10H9N3O+
187.123	26	C12H15N2+
188.0819	376	C10H10N3O+
189.1023	32	C11H13N2O+
190.0862	6	C11H12NO2+
190.0974	7	C10H12N3O+
191.0816	8	C10H11N2O2+
195.0919	1	C13H11N2+
198.0788	8	C12H10N2O+
205.0846	21	C10H11N3O2+
206.0925	8	C10H12N3O2+
213.1023	92	C13H13N2O+
215.0687	23	C11H9N3O2+
216.0768	406	C11H10N3O2+
220.1086	1	C11H14N3O2+
230.1287	11	C13H16N3O+
231.1128	99	C13H15N2O2+
233.0795	8	C11H11N3O3+
234.0873	32	C11H12N3O3+
246.0874	2	C12H12N3O3+
248.1394	4	C13H18N3O2+
276.1341	2	C14H18N3O3+
