Mass spectrum: Topiramate; LC-ESI-QFT; MS2; CE: 45; R=17500; [M-H]-
Name: Topiramate
Name: [(1R,2S,6S,9R)-4,4,11,11-tetramethyl-3,5,7,10,12-pentaoxatricyclo[7.3.0.02,6]dodecan-6-yl]methyl sulfamate
Formula: C12H21NO8S
Exact mass: 339.0988
SMILES: CC1(C)O[C@@H]2CO[C@@]3(COS(N)(=O)=O)OC(C)(C)O[C@H]3[C@@H]2O1
InChI: InChI=1S/C12H21NO8S/c1-10(2)18-7-5-16-12(6-17-22(13,14)15)9(8(7)19-10)20-11(3,4)21-12/h7-9H,5-6H2,1-4H3,(H2,13,14,15)/t7-,8-,9+,12+/m1/s1
Instrument: Q Exactive Orbitrap (Thermo Scientific)
Instrument type: LC-ESI-QFT
Ms type: MS2
Ion mode: NEGATIVE
Ionization: ESI
Fragmentation mode: HCD
Collision energy: 45
Resolution: 17500
Column name: Acquity BEH C18 1.7um, 2.1x150mm (Waters)
Retention time: 14.210 min
Base peak: 211.0612
Precursor m/z: 338.0915
Precursor type: [M-H]-
Precursor intensity: 5453745.873047
m/z	relative intensity	assigned
61.9707	1	NOS-
63.9624	9	O2S-
77.9655	999	NO2S-
79.9573	11	O3S-
79.9812	8	H2NO2S-
80.9652	9	HO3S-
83.0139	2	C4H3O2-
89.9656	1	CNO2S-
94.0298	1	C5H4NO-
95.9761	120	H2NO3S-
96.9601	2	HO4S-
97.0295	1	C5H5O2-
98.0248	2	C4H4NO2-
110.0248	3	C5H4NO2-
112.0403	2	C5H6NO2-
113.0246	1	C5H5O3-
122.0248	2	C6H4NO2-
124.0404	4	C6H6NO2-
125.0245	1	C6H5O3-
140.0353	1	C6H6NO3-
161.9867	2	C4H4NO4S-
338.0916	12	C12H20NO8S-
