Mass spectrum: Acetohexamide; LC-ESI-QFT; MS2; CE: 45; R=17500; [M+H]+
Name: Acetohexamide
Name: 1-(4-acetylphenyl)sulfonyl-3-cyclohexylurea
Formula: C15H20N2O4S
Exact mass: 324.1144
SMILES: CC(=O)C1=CC=C(C=C1)S(=O)(=O)NC(=O)NC1CCCCC1
InChI: InChI=1S/C15H20N2O4S/c1-11(18)12-7-9-14(10-8-12)22(20,21)17-15(19)16-13-5-3-2-4-6-13/h7-10,13H,2-6H2,1H3,(H2,16,17,19)
Instrument: Q Exactive Orbitrap (Thermo Scientific)
Instrument type: LC-ESI-QFT
Ms type: MS2
Ion mode: POSITIVE
Ionization: ESI
Fragmentation mode: HCD
Collision energy: 45
Resolution: 17500
Column name: Acquity BEH C18 1.7um, 2.1x150mm (Waters)
Retention time: 16.086 min
Base peak: 79.0212
Precursor m/z: 325.1217
Precursor type: [M+H]+
Precursor intensity: 945722.6875
m/z	relative intensity	assigned
55.0543	401	C4H7+
67.0543	48	C5H7+
79.0543	54	C6H7+
81.07	68	C6H9+
83.0856	521	C6H11+
91.0543	464	C7H7+
93.0699	98	C7H9+
95.0493	27	C6H7O+
95.0856	65	C7H11+
97.065	43	C6H9O+
100.1121	23	C6H14N+
105.07	107	C8H9+
107.0856	93	C8H11+
109.0649	19	C7H9O+
109.1014	42	C8H13+
111.0444	17	C6H7O2+
117.07	29	C9H9+
119.0493	269	C8H7O+
119.0856	116	C9H11+
121.0649	360	C8H9O+
125.0599	34	C7H9O2+
129.07	38	C10H9+
130.079	16	C10H10+
131.0858	60	C10H11+
133.0653	25	C9H9O+
133.1014	60	C10H13+
135.0807	111	C9H11O+
137.0599	204	C8H9O2+
143.0856	45	C11H11+
145.0647	84	C10H9O+
145.1014	46	C11H13+
147.0554	999	C8H7N2O+
147.0805	991	C10H11O+
149.0963	27	C10H13O+
151.0755	34	C9H11O2+
157.1014	62	C12H13+
158.0729	19	C11H10O+
159.0806	155	C11H11O+
161.0962	109	C11H13O+
163.076	50	C10H11O2+
165.0911	40	C10H13O2+
171.0806	602	C12H11O+
173.0963	306	C12H13O+
179.0857	25	C14H11+
183.0113	543	C8H7O3S+
185.0966	88	C13H13O+
187.1122	42	C13H15O+
195.081	39	C14H11O+
195.1172	43	C15H15+
196.0884	27	C14H12O+
197.0962	161	C14H13O+
199.1123	76	C14H15O+
200.038	85	C8H10NO3S+
205.1017	64	C8H17N2O2S+
208.0887	67	C15H12O+
209.0963	118	C15H13O+
210.1047	43	C15H14O+
211.112	138	C15H15O+
219.1165	20	C9H19N2O2S+
221.0961	90	C8H17N2O3S+
222.1042	32	C8H18N2O3S+
223.112	404	C8H19N2O3S+
224.12	57	C8H20N2O3S+
225.1282	106	C8H21N2O3S+
233.0963	22	C9H17N2O3S+
234.1039	48	C9H18N2O3S+
235.112	56	C9H19N2O3S+
236.1203	30	C9H20N2O3S+
237.1277	160	C9H21N2O3S+
245.0965	45	C10H17N2O3S+
247.1118	51	C10H19N2O3S+
249.1276	107	C10H21N2O3S+
259.1121	47	C11H19N2O3S+
261.1278	57	C11H21N2O3S+
263.1429	82	C14H19N2O3+
