Mass spectrum: Phosalone; LC-ESI-QFT; MS2; CE: 45; R=17500; [M+H]+
Name: Phosalone
Name: 6-chloro-3-(diethoxyphosphinothioylsulfanylmethyl)-1,3-benzoxazol-2-one
Formula: C12H15ClNO4PS2
Exact mass: 366.9869
SMILES: CCOP(=S)(OCC)SCN1C(=O)OC2=CC(Cl)=CC=C12
InChI: InChI=1S/C12H15ClNO4PS2/c1-3-16-19(20,17-4-2)21-8-14-10-6-5-9(13)7-11(10)18-12(14)15/h5-7H,3-4,8H2,1-2H3
Instrument: Q Exactive Orbitrap (Thermo Scientific)
Instrument type: LC-ESI-QFT
Ms type: MS2
Ion mode: POSITIVE
Ionization: ESI
Fragmentation mode: HCD
Collision energy: 45
Resolution: 17500
Column name: Acquity BEH C18 1.7um, 2.1x150mm (Waters)
Retention time: 18.842 min
Base peak: 79.0211
Precursor m/z: 367.9941
Precursor type: [M+H]+
Precursor intensity: 5123419.96875
m/z	relative intensity	assigned
55.0542	562	C4H7+
56.0495	11	C3H6N+
57.0334	13	C3H5O+
57.0699	211	C4H9+
67.0542	159	C5H7+
69.0699	999	C5H9+
70.0651	17	C4H8N+
71.0491	27	C4H7O+
71.0855	134	C5H11+
79.0543	43	C6H7+
81.0699	283	C6H9+
83.0855	750	C6H11+
85.065	17	CH12NOP+
85.1013	56	C6H13+
91.0542	35	C7H7+
93.0699	106	C7H9+
95.0856	340	C7H11+
97.0649	55	C6H9O+
97.1012	548	C7H13+
98.984	12	H4O4P+
99.0805	16	C6H11O+
100.0756	17	C5H10NO+
101.0597	10	C5H9O2+
105.0698	46	C8H9+
107.0856	81	C8H11+
109.0049	17	C2H6O3P+
109.0648	12	C7H9O+
109.1012	180	C8H13+
111.1169	127	C8H15+
114.9614	214	H4O3PS+
119.0855	71	C9H11+
121.1012	103	C9H13+
123.1169	84	C9H15+
125.0962	28	C8H13O+
130.0401	19	C3H11ClO3+
133.1013	76	C10H13+
135.1169	88	C10H15+
137.0961	20	C9H13O+
138.0106	117	C7H5ClN+
139.0058	40	C3H7O4S+
139.112	21	C9H15O+
147.1168	54	C11H15+
151.1123	14	C10H15O+
170.0006	56	C7H5ClNO2+
182.0004	151	C8H5ClNO2+
