Mass spectrum: Aplaviroc; LC-ESI-QFT; MS2; CE: 45; R=17500; [M+H]+
Name: Aplaviroc
Name: 4-[4-[[(3R)-1-butyl-3-[(R)-cyclohexyl(hydroxy)methyl]-2,5-dioxo-1,4,9-triazaspiro[5.5]undecan-9-yl]methyl]phenoxy]benzoic acid
Formula: C33H43N3O6
Exact mass: 577.3152
SMILES: CCCCN1C(=O)[C@@H]([C@H](O)C2CCCCC2)NC(=O)C12CCN(Cc1ccc(Oc3ccc(C(=O)O)cc3)cc1)CC2
InChI: InChI=1S/C33H43N3O6/c1-2-3-19-36-30(38)28(29(37)24-7-5-4-6-8-24)34-32(41)33(36)17-20-35(21-18-33)22-23-9-13-26(14-10-23)42-27-15-11-25(12-16-27)31(39)40/h9-16,24,28-29,37H,2-8,17-22H2,1H3,(H,34,41)(H,39,40)/t28-,29-/m1/s1
Instrument: Q Exactive Orbitrap (Thermo Scientific)
Instrument type: LC-ESI-QFT
Ms type: MS2
Ion mode: POSITIVE
Ionization: ESI
Fragmentation mode: HCD
Collision energy: 45
Resolution: 17500
Column name: Acquity BEH C18 1.7um, 2.1x150mm (Waters)
Retention time: 16.012 min
Base peak: 79.0212
Precursor m/z: 578.3225
Precursor type: [M+H]+
Precursor intensity: 6268196.125
m/z	relative intensity	assigned
56.0495	1	C3H6N+
65.0388	2	C5H5+
107.049	4	C7H7O+
110.0601	1	C6H8NO+
115.0542	3	C9H7+
128.0618	1	C10H8+
129.0698	4	C10H9+
131.0492	1	C9H7O+
143.0853	1	C11H11+
153.0699	18	C12H9+
153.1021	2	C8H13N2O+
154.0777	8	C12H10+
155.0856	69	C12H11+
165.0698	1	C13H9+
168.0572	2	C12H8O+
171.0801	2	C12H11O+
181.0648	6	C13H9O+
181.0972	5	C9H13N2O2+
182.0726	8	C13H10O+
183.0806	5	C13H11O+
183.1131	3	C9H15N2O2+
195.1132	2	C10H15N2O2+
199.0755	6	C13H11O2+
209.0598	6	C14H9O2+
227.0702	999	C14H11O3+
249.1965	1	C15H25N2O+
277.1917	2	C16H25N2O2+
