Mass spectrum: Kaempferol; LC-ESI-QFT; MS2; CE: 75; R=17500; [M-H]-
Name: Kaempferol
Name: 3,5,7-trihydroxy-2-(4-hydroxyphenyl)chromen-4-one
Formula: C15H10O6
Exact mass: 286.0477
SMILES: OC1=CC=C(C=C1)C1=C(O)C(=O)C2=C(O1)C=C(O)C=C2O
InChI: InChI=1S/C15H10O6/c16-8-3-1-7(2-4-8)15-14(20)13(19)12-10(18)5-9(17)6-11(12)21-15/h1-6,16-18,20H
Instrument: Q Exactive Orbitrap (Thermo Scientific)
Instrument type: LC-ESI-QFT
Ms type: MS2
Ion mode: NEGATIVE
Ionization: ESI
Fragmentation mode: HCD
Collision energy: 75
Resolution: 17500
Column name: Acquity BEH C18 1.7um, 2.1x150mm (Waters)
Retention time: 16.377 min
Base peak: 112.9856
Precursor m/z: 285.0405
Precursor type: [M-H]-
Precursor intensity: 6602619.37207
m/z	relative intensity	assigned
55.0189	14	C3H3O-
63.024	333	C5H3-
65.0033	373	C4HO-
65.0396	55	C5H5-
67.0189	110	C4H3O-
68.9983	54	C3HO2-
75.0241	12	C6H3-
79.0191	66	C5H3O-
80.0268	56	C5H4O-
81.0346	19	C5H5O-
83.0139	189	C4H3O2-
89.0396	51	C7H5-
91.0189	142	C6H3O-
91.0551	12	C7H7-
93.0346	999	C6H5O-
95.0139	143	C5H3O2-
95.0503	57	C6H7O-
107.0139	190	C6H3O2-
108.0217	274	C6H4O2-
109.0295	176	C6H5O2-
111.0089	12	C5H3O3-
115.0553	62	C9H7-
117.0346	694	C8H5O-
119.0137	57	C7H3O2-
119.0503	106	C8H7O-
120.0216	8	C7H4O2-
121.0295	92	C7H5O2-
123.0087	38	C6H3O3-
123.0452	149	C7H7O2-
124.0167	23	C6H4O3-
129.0347	65	C9H5O-
129.0709	19	C10H9-
130.0423	114	C9H6O-
131.0502	169	C9H7O-
132.0218	66	C8H4O2-
133.0295	122	C8H5O2-
133.0661	23	C9H9O-
135.0088	114	C7H3O3-
135.0453	54	C8H7O2-
136.0168	24	C7H4O3-
137.0245	80	C7H5O3-
139.0554	19	C11H7-
141.0346	60	C10H5O-
141.071	25	C11H9-
143.0502	443	C10H7O-
145.0295	396	C9H5O2-
145.0659	29	C10H9O-
147.0454	35	C9H7O2-
149.0244	13	C8H5O3-
151.0038	57	C7H3O4-
154.0425	132	C11H6O-
155.0502	147	C11H7O-
156.0218	16	C10H4O2-
156.0582	134	C11H8O-
157.0295	120	C10H5O2-
157.0658	116	C11H9O-
158.0373	126	C10H6O2-
159.0451	406	C10H7O2-
161.0245	254	C9H5O3-
161.0611	13	C10H9O2-
163.0038	71	C8H3O4-
164.0114	51	C8H4O4-
167.0502	136	C12H7O-
168.0578	25	C12H8O-
169.0293	45	C11H5O2-
169.0661	25	C12H9O-
170.0376	15	C11H6O2-
171.0451	177	C11H7O2-
173.0242	91	C10H5O3-
173.0609	30	C11H9O2-
174.032	30	C10H6O3-
182.0374	80	C12H6O2-
183.0451	227	C12H7O2-
184.053	108	C12H8O2-
185.0244	34	C11H5O3-
185.0609	162	C12H9O2-
186.0325	12	C11H6O3-
187.0401	282	C11H7O3-
189.0554	10	C11H9O3-
190.9986	36	C9H3O5-
192.0067	9	C9H4O5-
195.0451	67	C13H7O2-
196.0535	10	C13H8O2-
197.0245	17	C12H5O3-
198.0322	23	C12H6O3-
199.0404	18	C12H7O3-
200.0482	22	C12H8O3-
201.0562	46	C12H9O3-
202.0274	9	C11H6O4-
210.0323	65	C13H6O3-
211.0401	262	C13H7O3-
212.0481	19	C13H8O3-
213.0193	45	C12H5O4-
213.0557	22	C13H9O3-
214.0269	51	C12H6O4-
215.0352	23	C12H7O4-
219.0297	14	C11H7O5-
223.0402	24	C14H7O3-
227.035	272	C13H7O4-
229.0507	23	C13H9O4-
239.035	155	C14H7O4-
240.0432	25	C14H8O4-
243.0305	17	C13H7O5-
255.03	136	C14H7O5-
267.0302	59	C15H7O5-
268.0376	29	C15H8O5-
285.0405	76	C15H9O6-
