Mass spectrum: Pirimiphos-ethyl; LC-ESI-QFT; MS2; CE: 90; R=17500; [M+H]+
Name: Pirimiphos-ethyl
Formula: C13H24N3O3PS
Exact mass: 333.1276
SMILES: CCOP(=S)(OCC)OC1=CC(C)=NC(=N1)N(CC)CC
InChI: InChI=1S/C13H24N3O3PS/c1-6-16(7-2)13-14-11(5)10-12(15-13)19-20(21,17-8-3)18-9-4/h10H,6-9H2,1-5H3
Instrument: Q Exactive Orbitrap (Thermo Scientific)
Instrument type: LC-ESI-QFT
Ms type: MS2
Ion mode: POSITIVE
Ionization: ESI
Fragmentation mode: HCD
Collision energy: 90
Resolution: 17500
Column name: Acquity BEH C18 1.7um, 2.1x150mm (Waters)
Retention time: 19.447 min
Base peak: 79.0211
Precursor m/z: 334.1349
Precursor type: [M+H]+
Precursor intensity: 99262956.53125
m/z	relative intensity	assigned
54.0339	7	C3H4N+
56.0494	11	C3H6N+
58.0652	4	C3H8N+
58.995	73	C2H3S+
59.9902	35	CH2NS+
64.9787	103	H2O2P+
66.0213	3	C3H2N2+
66.0338	43	C4H4N+
67.029	874	C3H3N2+
68.013	20	C3H2NO+
68.0494	16	C4H6N+
69.0083	97	C2HN2O+
70.0651	25	C4H8N+
71.0603	535	C3H7N2+
72.0444	2	C3H6NO+
72.0807	10	C4H10N+
74.0963	41	C4H12N+
78.9401	23	OPS+
82.0651	9	C5H8N+
82.9949	47	C4H3S+
83.0604	60	C4H7N2+
84.0444	526	C4H6NO+
84.9855	107	C2HN2S+
85.0107	10	C4H5S+
88.0216	36	C3H6NS+
93.0448	5	C5H5N2+
94.0652	46	C6H8N+
95.0604	140	C5H7N2+
96.9508	110	H2O2PS+
97.0397	22	C4H5N2O+
99.0917	776	C5H11N2+
100.0215	999	C4H6NS+
101.0168	3	C3H5N2S+
107.0605	3	C6H7N2+
108.0556	650	C5H6N3+
109.0049	58	C2H6O3P+
109.0397	246	C5H5N2O+
109.076	37	C6H9N2+
110.0476	4	C5H6N2O+
110.9665	6	CH4O2PS+
111.0264	7	C6H7S+
111.0917	3	C6H11N2+
112.0215	44	C5H6NS+
112.0758	8	C6H10NO+
113.0168	44	C4H5N2S+
114.9613	820	H4O3PS+
115.0324	146	C4H7N2S+
116.0528	10	C5H10NS+
119.0604	9	C7H7N2+
120.0682	13	C7H8N2+
122.9954	4	CH4N2O3P+
125.0168	411	C5H5N2S+
126.0248	6	C5H6N2S+
126.0372	24	C6H8NS+
126.0662	74	C5H8N3O+
127.0324	18	C5H7N2S+
128.053	9	C6H10NS+
128.977	31	CH6O3PS+
132.9718	3	C6NOP+
134.0714	3	C7H8N3+
136.0216	16	C7H6NS+
136.0869	59	C7H10N3+
137.071	130	C7H9N2O+
138.0246	3	C6H6N2S+
138.0663	16	C6H8N3O+
139.1231	29	C8H15N2+
141.0354	46	C5H7N3S+
142.0434	355	C5H8N3S+
143.0638	4	C6H11N2S+
152.0819	8	C7H10N3O+
153.0481	185	C7H9N2S+
154.0433	66	C6H8N3S+
154.0974	148	C7H12N3O+
157.0794	9	C7H13N2S+
164.1181	26	C9H14N3+
168.059	61	C7H10N3S+
170.0746	322	C7H12N3S+
180.1134	4	C9H14N3O+
182.1289	29	C9H16N3O+
196.0905	5	C9H14N3S+
198.1059	37	C9H16N3S+
