Mass spectrum: Indoxacarb; LC-ESI-QFT; MS2; CE: 30; R=17500; [M+H]+
Name: Indoxacarb
Name: methyl (4aS)-7-chloro-2-[methoxycarbonyl-[4-(trifluoromethoxy)phenyl]carbamoyl]-3,5-dihydroindeno[1,2-e][1,3,4]oxadiazine-4a-carboxylate
Formula: C22H17ClF3N3O7
Exact mass: 527.0707
SMILES: COC(=O)N(C(=O)N1CO[C@]2(CC3=C(C=CC(Cl)=C3)C2=N1)C(=O)OC)C1=CC=C(OC(F)(F)F)C=C1
InChI: InChI=1S/C22H17ClF3N3O7/c1-33-18(30)21-10-12-9-13(23)3-8-16(12)17(21)27-28(11-35-21)19(31)29(20(32)34-2)14-4-6-15(7-5-14)36-22(24,25)26/h3-9H,10-11H2,1-2H3/t21-/m0/s1
Instrument: Q Exactive Orbitrap (Thermo Scientific)
Instrument type: LC-ESI-QFT
Ms type: MS2
Ion mode: POSITIVE
Ionization: ESI
Fragmentation mode: HCD
Collision energy: 30
Resolution: 17500
Column name: Acquity BEH C18 1.7um, 2.1x150mm (Waters)
Retention time: 18.917 min
Base peak: 79.0211
Precursor m/z: 528.078
Precursor type: [M+H]+
Precursor intensity: 6176672.125
m/z	relative intensity	assigned
56.0131	714	C2H2NO+
58.0288	9	C2H4NO+
68.9949	2	CF3+
74.06	4	C3H8NO+
75.0441	57	C3H7O2+
81.0146	20	C2H3F2O+
88.0394	13	C3H6NO2+
102.055	10	C4H8NO2+
104.0495	23	C7H6N+
128.0621	3	C10H8+
132.0444	23	C8H6NO+
137.0153	19	C8H6Cl+
146.035	8	C7H4N3O+
149.0153	6	C9H6Cl+
150.0106	216	C8H5ClN+
150.055	33	C8H8NO2+
151.0308	3	C9H8Cl+
155.0604	42	C10H7N2+
160.0506	62	C8H6N3O+
161.0155	5	C10H6Cl+
162.0105	40	C9H5ClN+
163.0308	30	C10H8Cl+
164.0261	35	C9H7ClN+
165.0339	8	C9H8ClN+
168.0211	828	C8H7ClNO+
169.0761	3	C11H9N2+
176.0261	7	C10H7ClN+
177.0338	10	C10H8ClN+
178.0054	6	C9H5ClNO+
179.0258	31	C10H8ClO+
180.0211	42	C9H7ClNO+
182.0368	47	C9H9ClNO+
182.0464	3	C2H12ClFN2O4+
189.0215	174	C10H6ClN2+
190.0055	616	C10H5ClNO+
190.0475	54	C8H7F3NO+
191.0371	4	C10H8ClN2+
194.0369	23	C10H9ClNO+
195.0208	91	C10H8ClO2+
196.0162	27	C9H7ClNO2+
199.0503	13	C11H7N2O2+
203.0189	657	C8H4F3NO2+
204.0086	28	C10H5ClN2O+
207.032	37	C10H8ClN2O+
208.0161	93	C10H7ClNO2+
214.0737	56	ClF2H17N2O6+
215.0428	30	C9H6F3N2O+
217.0164	397	C11H6ClN2O+
218.0424	999	C9H7F3NO2+
219.032	170	C11H8ClN2O+
222.0316	41	C11H9ClNO2+
223.0157	239	C11H8ClO3+
225.031	24	C6H9ClFN3O3+
230.006	5	C9H3F3NO3+
230.9957	45	C11H4ClN2O2+
231.0323	3	C12H8ClN2O+
235.0269	36	C11H8ClN2O2+
249.0426	271	C12H10ClN2O2+
263.0218	75	C12H8ClN2O3+
265.0373	13	C12H10ClN2O3+
