Mass spectrum: 4-Amino-6-tert-butyl-3-thioxo-3,4-dihydro-1,2,4-triazin-5(2H)-one; LC-ESI-QFT; MS2; CE: 30; R=17500; [M-H]-
Name: 4-Amino-6-tert-butyl-3-thioxo-3,4-dihydro-1,2,4-triazin-5(2H)-one
Name: 4-amino-6-tert-butyl-3-sulfanyl-1,2,4-triazin-5-one
Formula: C7H12N4OS
Exact mass: 200.0732
SMILES: CC(C)(C)C1=NNC(=S)N(N)C1=O
InChI: InChI=1S/C7H12N4OS/c1-7(2,3)4-5(12)11(8)6(13)10-9-4/h8H2,1-3H3,(H,10,13)
Instrument: Q Exactive Orbitrap (Thermo Scientific)
Instrument type: LC-ESI-QFT
Ms type: MS2
Ion mode: NEGATIVE
Ionization: ESI
Fragmentation mode: HCD
Collision energy: 30
Resolution: 17500
Column name: Acquity BEH C18 1.7um, 2.1x150mm (Waters)
Retention time: 14.944 min
Base peak: 199.0659
Precursor m/z: 199.0659
Precursor type: [M-H]-
Precursor intensity: 24126988.06055
m/z	relative intensity	assigned
56.0254	4	CH2N3-
57.9757	167	CNS-
71.9788	2	CN2S-
72.9866	1	CHN2S-
170.0521	2	C7H10N2OS-
199.0659	999	C7H11N4OS-
