Mass spectrum: 3-Hydroxy-N-(3-nitrophenyl)naphthalene-2-carboxamide; LC-ESI-QFT; MS2; CE: 60; R=17500; [M-H]-
Name: 3-Hydroxy-N-(3-nitrophenyl)naphthalene-2-carboxamide
Name: 3-Hydroxy-3'-nitro-2-naphthanilide
Formula: C17H12N2O4
Exact mass: 308.0797
SMILES: OC1=CC2=C(C=CC=C2)C=C1C(=O)NC1=CC=CC(=C1)[N+]([O-])=O
InChI: InChI=1S/C17H12N2O4/c20-16-9-12-5-2-1-4-11(12)8-15(16)17(21)18-13-6-3-7-14(10-13)19(22)23/h1-10,20H,(H,18,21)
Instrument: Q Exactive Orbitrap (Thermo Scientific)
Instrument type: LC-ESI-QFT
Ms type: MS2
Ion mode: NEGATIVE
Ionization: ESI
Fragmentation mode: HCD
Collision energy: 60
Resolution: 17500
Column name: Acquity BEH C18 1.7um, 2.1x150mm (Waters)
Retention time: 18.710 min
Base peak: 307.0723
Precursor m/z: 307.0724
Precursor type: [M-H]-
Precursor intensity: 101367148.377
m/z	relative intensity	assigned
65.9985	3	C3NO-
80.0268	5	C5H4O-
90.0349	53	C6H4N-
92.0142	1	C5H2NO-
105.022	5	C6H3NO-
107.0377	99	C6H5NO-
108.0217	3	C6H4O2-
115.0553	74	C9H7-
118.0298	1	C7H4NO-
123.0325	1	C6H5NO2-
130.0425	5	C9H6O-
133.017	12	C7H3NO2-
134.0248	38	C7H4NO2-
137.0357	351	C6H5N2O2-
138.0196	12	C6H4NO3-
141.0348	2	C10H5O-
142.0423	3	C10H6O-
143.0502	999	C10H7O-
158.0374	1	C10H6O2-
159.0454	3	C10H7O2-
163.0148	7	C7H3N2O3-
165.0708	1	C13H9-
168.0455	17	C11H6NO-
206.0607	3	C14H8NO-
206.0732	1	C15H10O-
217.0661	1	C16H9O-
231.0689	7	C16H9NO-
232.0768	14	C16H10NO-
233.0607	16	C16H9O2-
234.0689	1	C16H10O2-
247.0633	1	C16H9NO2-
248.0717	18	C16H10NO2-
249.0798	2	C16H11NO2-
258.0559	7	C17H8NO2-
259.0641	2	C17H9NO2-
260.0717	17	C17H10NO2-
261.0796	14	C17H11NO2-
264.0662	1	C16H10NO3-
276.0667	7	C17H10NO3-
289.0619	1	C17H9N2O3-
293.0695	40	C17H11NO4-
307.0724	13	C17H11N2O4-
