Mass spectrum: 3-Amino-4-methylbenzamide; LC-ESI-QFT; MS2; CE: 15; R=17500; [M+H]+
Name: 3-Amino-4-methylbenzamide
Formula: C8H10N2O
Exact mass: 150.0793
SMILES: CC1=C(N)C=C(C=C1)C(N)=O
InChI: InChI=1S/C8H10N2O/c1-5-2-3-6(8(10)11)4-7(5)9/h2-4H,9H2,1H3,(H2,10,11)
Instrument: Q Exactive Orbitrap (Thermo Scientific)
Instrument type: LC-ESI-QFT
Ms type: MS2
Ion mode: POSITIVE
Ionization: ESI
Fragmentation mode: HCD
Collision energy: 15
Resolution: 17500
Column name: Acquity BEH C18 1.7um, 2.1x150mm (Waters)
Retention time: 4.498 min
Base peak: 79.0211
Precursor m/z: 151.0866
Precursor type: [M+H]+
Precursor intensity: 5011538.1875
m/z	relative intensity	assigned
108.0808	2	C7H10N+
119.0605	1	C7H7N2+
120.0807	5	C8H10N+
121.0886	18	C8H11N+
133.076	7	C8H9N2+
134.0838	88	C8H10N2+
136.0758	1	C8H10NO+
151.0866	999	C8H11N2O+
