Mass spectrum: SSR126768; LC-ESI-QFT; MS2; CE: 60; R=17500; [M+H]+
Name: SSR126768
Name: 3-chloro-2-[(3R)-5-chloro-1-[(2,4-dimethoxyphenyl)methyl]-3-methyl-2-oxoindol-3-yl]-N-ethyl-N-(pyridin-3-ylmethyl)benzamide
Formula: C33H31Cl2N3O4
Exact mass: 603.1692
SMILES: CCN(Cc1cccnc1)C(=O)c1cccc(Cl)c1[C@]1(C)C(=O)N(Cc2ccc(OC)cc2OC)c2ccc(Cl)cc21
InChI: InChI=1S/C33H31Cl2N3O4/c1-5-37(19-21-8-7-15-36-18-21)31(39)25-9-6-10-27(35)30(25)33(2)26-16-23(34)12-14-28(26)38(32(33)40)20-22-11-13-24(41-3)17-29(22)42-4/h6-18H,5,19-20H2,1-4H3/t33-/m1/s1
Instrument: Q Exactive Orbitrap (Thermo Scientific)
Instrument type: LC-ESI-QFT
Ms type: MS2
Ion mode: POSITIVE
Ionization: ESI
Fragmentation mode: HCD
Collision energy: 60
Resolution: 17500
Column name: Acquity BEH C18 1.7um, 2.1x150mm (Waters)
Retention time: 18.525 min
Base peak: 79.0211
Precursor m/z: 604.1764
Precursor type: [M+H]+
Precursor intensity: 6754640.25
m/z	relative intensity	assigned
51.0229	1	C4H3+
52.0309	1	C4H4+
53.0386	20	C4H5+
55.0179	5	C3H3O+
65.0385	46	C5H5+
67.0542	10	C5H7+
77.0384	7	C6H5+
78.0464	22	C6H6+
79.0543	3	C6H7+
80.0494	1	C5H6N+
81.0335	3	C5H5O+
89.0384	1	C7H5+
91.0543	321	C7H7+
92.0495	121	C6H6N+
93.0574	19	C6H7N+
93.0701	8	C7H9+
94.0652	190	C6H8N+
95.0492	65	C6H7O+
96.0443	1	C5H6NO+
103.0543	4	C8H7+
105.0448	25	C6H5N2+
106.0414	26	C7H6O+
107.0493	1	C7H7O+
107.0605	7	C6H7N2+
108.057	4	C7H8O+
108.0809	1	C7H10N+
109.0648	5	C7H9O+
110.0601	7	C6H8NO+
118.0652	2	C8H8N+
119.0492	9	C8H7O+
119.0605	3	C7H7N2+
121.0648	999	C8H9O+
123.0804	14	C8H11O+
129.0103	1	C6H6ClO+
130.065	4	C9H8N+
135.0916	9	C8H11N2+
136.052	7	C8H8O2+
136.0997	1	C8H12N2+
137.0599	6	C8H9O2+
138.0104	2	C7H5ClN+
138.0676	7	C8H10O2+
138.9946	21	C7H4ClO+
139.0754	233	C8H11O2+
140.0261	3	C7H7ClN+
149.071	42	C8H9N2O+
151.0754	852	C9H11O2+
153.01	1	C8H6ClO+
153.091	2	C9H13O2+
161.0471	2	C9H7NO2+
164.0262	96	C9H7ClN+
177.0102	1	C10H6ClO+
194.0369	10	C10H9ClNO+
202.0651	8	C15H8N+
203.073	16	C15H9N+
204.0808	17	C15H10N+
205.0889	1	C15H11N+
207.068	1	C14H9NO+
214.0422	1	C13H9ClN+
225.034	2	C14H8ClN+
229.076	2	C16H9N2+
230.0602	8	C16H8NO+
235.0628	28	C15H9NO2+
237.0341	2	C15H8ClN+
238.0418	76	C15H9ClN+
239.0497	9	C15H10ClN+
240.0574	11	C15H11ClN+
242.0367	37	C14H9ClNO+
248.1186	1	C16H14N3+
253.0284	5	C18H5O2+
254.0366	2	C15H9ClNO+
263.0367	1	C19H5NO+
264.0449	1	C16H9ClN2+
265.0529	10	C16H10ClN2+
266.0368	53	C16H9ClNO+
268.0525	9	C16H11ClNO+
269.0603	3	C16H12ClNO+
270.0316	58	C15H9ClNO2+
273.0106	7	C15H9Cl2N+
273.0549	3	C15H12ClNO2+
274.0187	16	C15H10Cl2N+
275.1179	13	C18H15N2O+
282.0317	2	C16H9ClNO2+
295.0635	4	C14H15Cl2N3+
299.0151	4	C16H9Cl2N2+
299.9975	7	C16H8Cl2NO+
302.0132	10	C16H10Cl2NO+
304.0285	3	C19H9ClO2+
305.0006	21	C15H9Cl2NO2+
309.0784	4	C21H11NO2+
310.0863	1	C21H12NO2+
311.0945	12	C18H16ClN2O+
320.0238	1	C16H12Cl2NO2+
320.1173	1	C18H21ClO3+
343.0397	2	C18H13Cl2N2O+
345.0559	27	C18H15Cl2N2O+
357.0778	1	C25H11NO2+
436.0976	1	C24H20Cl2N3O+
