Mass spectrum: Norflurazon; LC-ESI-QFT; MS2; CE: 60; R=17500; [M-H]-
Name: Norflurazon
Name: 4-chloro-5-(methylamino)-2-[3-(trifluoromethyl)phenyl]pyridazin-3-one
Formula: C12H9ClF3N3O
Exact mass: 303.0386
SMILES: CNC1=C(Cl)C(=O)N(N=C1)C1=CC=CC(=C1)C(F)(F)F
InChI: InChI=1S/C12H9ClF3N3O/c1-17-9-6-18-19(11(20)10(9)13)8-4-2-3-7(5-8)12(14,15)16/h2-6,17H,1H3
Instrument: Q Exactive Orbitrap (Thermo Scientific)
Instrument type: LC-ESI-QFT
Ms type: MS2
Ion mode: NEGATIVE
Ionization: ESI
Fragmentation mode: HCD
Collision energy: 60
Resolution: 17500
Column name: Acquity BEH C18 1.7um, 2.1x150mm (Waters)
Retention time: 16.609 min
Base peak: 179.0714
Precursor m/z: 302.0313
Precursor type: [M-H]-
Precursor intensity: 9999964.94043
m/z	relative intensity	assigned
50.0036	12	C3N-
52.0192	49	C3H2N-
60.9725	11	CClN-
64.0067	162	C3N2-
65.0145	208	C3HN2-
65.9985	61	C3NO-
70.9695	16	C3Cl-
72.9724	25	C2ClN-
73.9803	181	C2HClN-
74.9643	195	C2ClO-
79.0302	62	C4H3N2-
80.0017	6	C3N2O-
87.996	613	C3H3ClN-
100.9912	13	C3H2ClN2-
101.9753	18	C3HClNO-
120.0254	11	C7H3FN-
122.0033	6	C9N-
138.0162	9	C7H2F2N-
142.0097	8	C9HFN-
145.0208	64	C8H2FN2-
145.0271	34	C7H4F3-
149.0147	14	C10HN2-
157.9803	17	C9HClN-
158.0225	20	C7H3F3N-
160.038	450	C7H5F3N-
161.0211	8	C10H3F2-
162.0162	21	C9H2F2N-
165.0271	14	C8H3F2N2-
169.0208	88	C10H2FN2-
177.9866	893	C9H2ClFN-
182.0221	23	C9H3F3N-
185.0332	443	C8H4F3N2-
189.0271	11	C10H3F2N2-
195.9971	234	C9H4ClFNO-
197.9928	251	C9H3ClF2N-
204.0143	24	C10H2F2N2O-
209.0332	91	C10H4F3N2-
211.0494	7	C10H6F3N2-
212.0444	5	C9H5F3N3-
216.0033	100	C9H5ClF2NO-
217.999	999	C9H4ClF3N-
224.0204	189	C10H3F3N2O-
230.9945	14	C9H3ClF3N2-
245.0103	6	C10H5ClF3N2-
251.0308	5	C11H4F3N3O-
252.0395	45	C11H5F3N3O-
258.9888	14	C10H3ClF3N2O-
286.0002	17	C11H4ClF3N3O-
