Mass spectrum: 5-Chlorosalicylanilide; LC-ESI-QFT; MS2; CE: 90; R=17500; [M-H]-
Name: 5-Chlorosalicylanilide
Name: 5-chloro-2-hydroxy-N-phenylbenzamide
Formula: C13H10ClNO2
Exact mass: 247.0400
SMILES: OC1=C(C=C(Cl)C=C1)C(=O)NC1=CC=CC=C1
InChI: InChI=1S/C13H10ClNO2/c14-9-6-7-12(16)11(8-9)13(17)15-10-4-2-1-3-5-10/h1-8,16H,(H,15,17)
Instrument: Q Exactive Orbitrap (Thermo Scientific)
Instrument type: LC-ESI-QFT
Ms type: MS2
Ion mode: NEGATIVE
Ionization: ESI
Fragmentation mode: HCD
Collision energy: 90
Resolution: 17500
Column name: Acquity BEH C18 1.7um, 2.1x150mm (Waters)
Retention time: 18.244 min
Base peak: 246.0327
Precursor m/z: 246.0327
Precursor type: [M-H]-
Precursor intensity: 84454846.61133
m/z	relative intensity	assigned
65.0034	8	C4HO-
89.0034	13	C6HO-
91.019	454	C6H3O-
92.0506	999	C6H6N-
93.0346	21	C6H5O-
124.98	49	C6H2ClO-
126.9956	847	C6H4ClO-
133.017	3	C7H3NO2-
151.9907	4	C7H3ClNO-
164.0502	2	C12H6N-
192.0451	4	C13H6NO-
228.0218	3	C13H7ClNO-
