Mass spectrum: 4-Nitroanthranilic acid; LC-ESI-QFT; MS2; CE: 45; R=17500; [M-H]-
Name: 4-Nitroanthranilic acid
Name: 2-amino-4-nitrobenzoic acid
Formula: C7H6N2O4
Exact mass: 182.0328
SMILES: NC1=C(C=CC(=C1)[N+]([O-])=O)C(O)=O
InChI: InChI=1S/C7H6N2O4/c8-6-3-4(9(12)13)1-2-5(6)7(10)11/h1-3H,8H2,(H,10,11)
Instrument: Q Exactive Orbitrap (Thermo Scientific)
Instrument type: LC-ESI-QFT
Ms type: MS2
Ion mode: NEGATIVE
Ionization: ESI
Fragmentation mode: HCD
Collision energy: 45
Resolution: 17500
Column name: Acquity BEH C18 1.7um, 2.1x150mm (Waters)
Retention time: 14.834 min
Base peak: 307.0282
Precursor m/z: 181.0255
Precursor type: [M-H]-
Precursor intensity: 9104678.694336
m/z	relative intensity	assigned
79.0428	1	C5H5N-
80.0268	25	C5H4O-
90.035	4	C6H4N-
92.9939	1	HN2O4-
106.0298	1	C6H4NO-
107.0376	543	C6H5NO-
122.0249	1	C6H4NO2-
124.0168	1	C6H4O3-
137.0356	999	C6H5N2O2-
153.0308	1	C6H5N2O3-
181.0255	7	C7H5N2O4-
