Mass spectrum: Butralin; LC-ESI-QFT; MS2; CE: 60; R=17500; [M+H]+
Name: Butralin
Formula: C14H21N3O4
Exact mass: 295.1532
SMILES: CCC(C)NC1=C(C=C(C=C1[N+]([O-])=O)C(C)(C)C)[N+]([O-])=O
InChI: InChI=1S/C14H21N3O4/c1-6-9(2)15-13-11(16(18)19)7-10(14(3,4)5)8-12(13)17(20)21/h7-9,15H,6H2,1-5H3
Instrument: Q Exactive Orbitrap (Thermo Scientific)
Instrument type: LC-ESI-QFT
Ms type: MS2
Ion mode: POSITIVE
Ionization: ESI
Fragmentation mode: HCD
Collision energy: 60
Resolution: 17500
Column name: Acquity BEH C18 1.7um, 2.1x150mm (Waters)
Retention time: 20.167 min
Base peak: 79.0211
Precursor m/z: 296.1605
Precursor type: [M+H]+
Precursor intensity: 1434070.921875
m/z	relative intensity	assigned
57.0699	188	C4H9+
79.0544	39	C6H7+
91.0543	111	C7H7+
93.0702	25	C7H9+
103.0544	23	C8H7+
105.0701	96	C8H9+
115.0543	35	C9H7+
117.07	188	C9H9+
119.0604	26	C7H7N2+
119.0856	172	C9H11+
130.0655	31	C9H8N+
130.0776	24	C10H10+
132.0808	37	C9H10N+
133.1014	32	C10H13+
145.1012	122	C11H13+
147.1169	999	C11H15+
159.0918	48	C10H11N2+
161.0713	42	C9H9N2O+
179.0861	25	C14H11+
208.0717	140	C9H10N3O3+
222.0874	112	C10H12N3O3+
223.0948	32	C10H13N3O3+
240.0976	19	C10H14N3O4+
