Mass spectrum: 1-(2-Hydroxyethyl)pyrrolidin-2-one; LC-ESI-QFT; MS2; CE: 75; R=17500; [M+H]+
Name: 1-(2-Hydroxyethyl)pyrrolidin-2-one
Formula: C6H11NO2
Exact mass: 129.0790
SMILES: OCCN1CCCC1=O
InChI: InChI=1S/C6H11NO2/c8-5-4-7-3-1-2-6(7)9/h8H,1-5H2
Instrument: Q Exactive Orbitrap (Thermo Scientific)
Instrument type: LC-ESI-QFT
Ms type: MS2
Ion mode: POSITIVE
Ionization: ESI
Fragmentation mode: HCD
Collision energy: 75
Resolution: 17500
Column name: Acquity BEH C18 1.7um, 2.1x150mm (Waters)
Retention time: 4.089 min
Base peak: 79.0211
Precursor m/z: 130.0863
Precursor type: [M+H]+
Precursor intensity: 3753936.5
m/z	relative intensity	assigned
53.0023	32	C3HO+
53.9975	4	C2NO+
55.0543	6	C4H7+
56.0495	33	C3H6N+
57.0699	6	C4H9+
67.0417	2	C4H5N+
67.0542	27	C5H7+
68.0494	8	C4H6N+
69.0335	999	C4H5O+
69.0698	53	C5H9+
70.0651	2	C4H8N+
71.0491	9	C4H7O+
72.0443	3	C3H6NO+
82.0651	56	C5H8N+
84.0808	296	C5H10N+
86.0601	6	C4H8NO+
94.0652	16	C6H8N+
95.0491	2	C6H7O+
112.0757	612	C6H10NO+
130.0863	33	C6H12NO2+
