Mass spectrum: Prednisone; LC-ESI-QFT; MS2; CE: 60; R=17500; [M-H]-
Name: Prednisone
Name: (8S,9S,10R,13S,14S,17R)-17-hydroxy-17-(2-hydroxyacetyl)-10,13-dimethyl-6,7,8,9,12,14,15,16-octahydrocyclopenta[a]phenanthrene-3,11-dione
Formula: C21H26O5
Exact mass: 358.1780
SMILES: C[C@]12CC(=O)[C@H]3[C@@H](CCC4=CC(=O)C=C[C@]34C)[C@@H]1CC[C@]2(O)C(=O)CO
InChI: InChI=1S/C21H26O5/c1-19-7-5-13(23)9-12(19)3-4-14-15-6-8-21(26,17(25)11-22)20(15,2)10-16(24)18(14)19/h5,7,9,14-15,18,22,26H,3-4,6,8,10-11H2,1-2H3/t14-,15-,18+,19-,20-,21-/m0/s1
Instrument: Q Exactive Orbitrap (Thermo Scientific)
Instrument type: LC-ESI-QFT
Ms type: MS2
Ion mode: NEGATIVE
Ionization: ESI
Fragmentation mode: HCD
Collision energy: 60
Resolution: 17500
Column name: Acquity BEH C18 1.7um, 2.1x150mm (Waters)
Retention time: 15.404 min
Base peak: 297.1132
Precursor m/z: 357.1707
Precursor type: [M-H]-
Precursor intensity: 1556327.085938
m/z	relative intensity	assigned
57.0346	57	C3H5O-
95.0502	64	C6H7O-
97.0659	69	C6H9O-
107.0502	117	C7H7O-
108.0218	22	C6H4O2-
109.066	31	C7H9O-
121.0658	227	C8H9O-
122.0373	226	C7H6O2-
123.0451	918	C7H7O2-
123.0815	70	C8H11O-
125.0608	117	C7H9O2-
133.0659	115	C9H9O-
135.0452	136	C8H7O2-
135.0815	209	C9H11O-
136.0529	171	C8H8O2-
137.0607	416	C8H9O2-
138.0321	36	C7H6O3-
143.0504	16	C10H7O-
145.0659	166	C10H9O-
147.0455	28	C9H7O2-
149.0607	999	C9H9O2-
151.0403	54	C8H7O3-
151.0764	257	C9H11O2-
157.0658	21	C11H9O-
159.0817	60	C11H11O-
162.0686	146	C10H10O2-
163.0765	105	C10H11O2-
168.0427	39	C8H8O4-
177.0922	50	C11H13O2-
185.0608	87	C12H9O2-
186.0689	28	C12H10O2-
187.0764	145	C12H11O2-
191.109	18	C12H15O2-
243.1389	22	C16H19O2-
269.1181	41	C17H17O3-
282.1263	32	C18H18O3-
284.1416	48	C18H20O3-
285.1499	86	C18H21O3-
309.1139	23	C19H17O4-
