Mass spectrum: Fensulfothion; LC-ESI-QFT; MS2; CE: 60; R=17500; [M+H]+
Name: Fensulfothion
Name: diethoxy-(4-methylsulfinylphenoxy)-sulfanylidene-lambda5-phosphane
Formula: C11H17O4PS2
Exact mass: 308.0306
SMILES: CCOP(=S)(OCC)OC1=CC=C(C=C1)S(C)=O
InChI: InChI=1S/C11H17O4PS2/c1-4-13-16(17,14-5-2)15-10-6-8-11(9-7-10)18(3)12/h6-9H,4-5H2,1-3H3
Instrument: Q Exactive Orbitrap (Thermo Scientific)
Instrument type: LC-ESI-QFT
Ms type: MS2
Ion mode: POSITIVE
Ionization: ESI
Fragmentation mode: HCD
Collision energy: 60
Resolution: 17500
Column name: Acquity BEH C18 1.7um, 2.1x150mm (Waters)
Retention time: 16.417 min
Base peak: 79.0212
Precursor m/z: 309.0379
Precursor type: [M+H]+
Precursor intensity: 20314710.625
m/z	relative intensity	assigned
51.023	1	C4H3+
53.0386	1	C4H5+
62.9899	38	CH3OS+
63.9977	1	CH4OS+
64.9786	3	H2O2P+
65.0385	1	C5H5+
66.0463	2	C5H6+
67.0543	1	C5H7+
78.0462	3	C6H6+
78.967	18	CH3S2+
81.0334	2	C5H5O+
91.0541	3	C7H7+
94.0413	265	C6H6O+
95.0491	14	C6H7O+
96.0026	6	C5H4S+
96.9507	6	H2O2PS+
97.0105	8	C5H5S+
98.9841	63	H4O4P+
104.0622	2	C8H8+
105.0699	7	C8H9+
107.0491	5	C7H7O+
108.0027	1	C6H4S+
108.0569	2	C7H8O+
109.0049	85	C2H6O3P+
109.0106	20	C6H5S+
109.0285	9	C6H5O2+
110.0184	150	C6H6S+
111.0262	13	C6H7S+
114.9613	168	H4O3PS+
116.9944	1	CH10PS2+
120.057	1	C8H8O+
121.0645	1	C8H9O+
122.0725	2	C8H10O+
123.0264	7	C7H7S+
123.9975	5	C6H4OS+
124.0341	8	C7H8S+
125.0055	128	C6H5OS+
126.0132	3	C6H6OS+
128.977	4	CH6O3PS+
132.9716	1	H6O4PS+
135.0261	2	C8H7S+
136.0339	2	C8H8S+
137.0056	2	C7H5OS+
137.0416	2	C8H9S+
138.0497	2	C8H10S+
139.0212	50	C7H7OS+
140.029	662	C7H8OS+
140.9826	25	C6H5S2+
141.0003	28	C6H5O2S+
142.0082	324	C6H6O2S+
142.9927	1	C2H8O3PS+
142.9981	4	C6H7S2+
152.983	1	C7H5S2+
153.0362	1	C8H9OS+
154.9715	6	C6H4OPS+
154.9984	101	C7H7S2+
155.9699	59	C6H4OS2+
156.0061	568	C7H8S2+
157.0317	999	C7H9O2S+
157.9853	251	C6H6OS2+
168.0602	6	C9H12OS+
169.0139	1	C8H9S2+
170.0395	3	C8H10O2S+
170.9932	46	C7H7OS2+
171.974	26	C6H5O2PS+
172.001	46	C7H8OS2+
173.0088	589	C7H9OS2+
174.0076	7	C6H7O4P+
175.0149	4	C6H8O4P+
184.0374	7	C9H12S2+
185.0631	3	C9H13O2S+
185.9897	2	C7H7O2PS+
186.017	2	C8H10OS2+
186.9611	2	C6H4O3PS+
187.9684	6	C6H5O3PS+
188.9771	2	C6H6O3PS+
189.9847	49	C6H7O3PS+
190.9923	13	C6H8O3PS+
201.0402	1	C9H13OS2+
201.9849	4	C7H7O3PS+
202.9925	26	C7H8O3PS+
203.964	2	C6H5O4PS+
217.9618	110	C7H7O2PS2+
218.9876	3	C7H8O4PS+
219.9411	62	C6H5O3PS2+
219.9952	89	C7H9O4PS+
220.9667	2	C10H6PS2+
221.9745	60	C10H7PS2+
234.9646	403	C7H8O3PS2+
235.9724	35	C7H9O3PS2+
236.9979	300	C11H10PS2+
237.9516	64	C6H7O4PS2+
249.9879	16	C8H11O3PS2+
251.9671	8	C7H9O4PS2+
252.9751	31	C7H10O4PS2+
264.0035	1	C9H13O3PS2+
265.9834	1	C8H11O4PS2+
266.9907	35	C8H12O4PS2+
