Mass spectrum: Indapamide; LC-ESI-QFT; MS2; CE: 15; R=17500; [M-H]-
Name: Indapamide
Name: 4-chloro-N-(2-methyl-2,3-dihydroindol-1-yl)-3-sulfamoylbenzamide
Formula: C16H16ClN3O3S
Exact mass: 365.0601
SMILES: CC1CC2=C(C=CC=C2)N1NC(=O)C1=CC(=C(Cl)C=C1)S(N)(=O)=O
InChI: InChI=1S/C16H16ClN3O3S/c1-10-8-11-4-2-3-5-14(11)20(10)19-16(21)12-6-7-13(17)15(9-12)24(18,22)23/h2-7,9-10H,8H2,1H3,(H,19,21)(H2,18,22,23)
Instrument: Q Exactive Orbitrap (Thermo Scientific)
Instrument type: LC-ESI-QFT
Ms type: MS2
Ion mode: NEGATIVE
Ionization: ESI
Fragmentation mode: HCD
Collision energy: 15
Resolution: 17500
Column name: Acquity BEH C18 1.7um, 2.1x150mm (Waters)
Retention time: 14.992 min
Base peak: 112.9857
Precursor m/z: 364.0528
Precursor type: [M-H]-
Precursor intensity: 2816792.075684
m/z	relative intensity	assigned
63.9624	1	O2S-
78.9733	1	HNO2S-
132.033	3	C7H4N2O-
168.0098	1	C7H5ClN2O-
169.0176	1	C7H6ClN2O-
189.9736	2	C6H5ClNO2S-
195.9947	1	C7H4N2O3S-
215.953	5	C7H3ClNO3S-
232.9794	9	C7H6ClN2O3S-
328.0761	1	C16H14N3O3S-
364.0531	999	C16H15ClN3O3S-
