Mass spectrum: 3-Trifluoromethyl-4-nitrophenol; LC-ESI-QFT; MS2; CE: 90; R=17500; [M-H]-
Name: 3-Trifluoromethyl-4-nitrophenol
Name: 4-nitro-3-(trifluoromethyl)phenol
Formula: C7H4F3NO3
Exact mass: 207.0143
SMILES: OC1=CC(=C(C=C1)[N+]([O-])=O)C(F)(F)F
InChI: InChI=1S/C7H4F3NO3/c8-7(9,10)5-3-4(12)1-2-6(5)11(13)14/h1-3,12H
Instrument: Q Exactive Orbitrap (Thermo Scientific)
Instrument type: LC-ESI-QFT
Ms type: MS2
Ion mode: NEGATIVE
Ionization: ESI
Fragmentation mode: HCD
Collision energy: 90
Resolution: 17500
Column name: Acquity BEH C18 1.7um, 2.1x150mm (Waters)
Retention time: 16.576 min
Base peak: 206.007
Precursor m/z: 206.0071
Precursor type: [M-H]-
Precursor intensity: 171129811.0215
m/z	relative intensity	assigned
50.0036	184	C3N-
52.0192	15	C3H2N-
60.0005	113	C5-
63.9955	125	C4O-
64.0192	11	C4H2N-
65.0033	71	C4HO-
65.9986	170	C3NO-
66.999	32	C4F-
68.9959	15	CF3-
68.9982	13	C3HO2-
70.0097	10	C3HFN-
70.9939	132	C3FO-
72.0006	42	C6-
74.0037	201	C5N-
75.0054	9	C3HF2-
75.9953	12	C5O-
77.9923	8	C2F2O-
79.9905	38	C4O2-
80.0068	329	C5HF-
82.006	11	C4H2O2-
82.9939	10	C4FO-
84.0017	64	C4HFO-
85.9974	57	C4F2-
86.9888	19	C3FO2-
87.0052	84	C4HF2-
87.9955	374	C6O-
89.0033	127	C6HO-
89.9983	15	C5NO-
91.0001	33	C3HF2O-
92.0069	36	C6HF-
92.9956	16	C3F3-
94.006	17	C5H2O2-
94.9939	34	C5FO-
95.0139	40	C5H3O2-
96.0016	22	C5HFO-
98.0007	8	C4H2O3-
99.0052	23	C5HF2-
99.9966	9	C4HFO2-
100.0131	24	C5H2F2-
101.9923	25	C4F2O-
103.0002	58	C4HF2O-
103.9903	18	C6O2-
106.0061	17	C6H2O2-
108.0017	600	C6HFO-
108.9907	37	C3F3O-
109.0095	45	C6H2FO-
110.9886	50	C5FO2-
111.0052	85	C6HF2-
112.013	228	C6H2F2-
115.0002	44	C5HF2O-
116.9958	34	C5F3-
120.0017	392	C4H2F2O2-
123.0088	22	C6H3O3-
123.9966	83	C6HFO2-
126.0124	67	C6H3FO2-
127.0001	58	C6HF2O-
128.008	417	C6H2F2O-
130.9951	11	C5HF2O2-
131.011	11	C6H2F3-
137.9933	27	C4HF3O2-
140.008	210	C7H2F2O-
142.995	14	C6HF2O2-
144.0027	91	C6H2F2O2-
145.9822	12	C5F2O3-
148.0143	25	C6H3F3O-
151.9916	14	C7HFO3-
156.0027	50	C7H2F2O2-
159.0064	16	C7H2F3O-
160.0142	495	C7H3F3O-
163.0013	177	C6H2F3O2-
171.9977	10	C7H2F2O3-
176.0091	999	C7H3F3O2-
190.9961	18	C7H2F3O3-
206.0073	21	C7H3F3NO3-
