Mass spectrum: Dichlorophen; LC-ESI-QFT; MS2; CE: 90; R=17500; [M-H]-
Name: Dichlorophen
Name: 4-chloro-2-[(5-chloro-2-hydroxyphenyl)methyl]phenol
Formula: C13H10Cl2O2
Exact mass: 268.0058
SMILES: OC1=CC=C(Cl)C=C1CC1=CC(Cl)=CC=C1O
InChI: InChI=1S/C13H10Cl2O2/c14-10-1-3-12(16)8(6-10)5-9-7-11(15)2-4-13(9)17/h1-4,6-7,16-17H,5H2
Instrument: Q Exactive Orbitrap (Thermo Scientific)
Instrument type: LC-ESI-QFT
Ms type: MS2
Ion mode: NEGATIVE
Ionization: ESI
Fragmentation mode: HCD
Collision energy: 90
Resolution: 17500
Column name: Acquity BEH C18 1.7um, 2.1x150mm (Waters)
Retention time: 18.384 min
Base peak: 266.9986
Precursor m/z: 266.9985
Precursor type: [M-H]-
Precursor intensity: 58286542.18555
m/z	relative intensity	assigned
91.019	61	C6H3O-
126.9956	999	C6H4ClO-
