Mass spectrum: Tamoxifen; LC-ESI-QFT; MS2; CE: 90; R=17500; [M+H]+
Name: Tamoxifen
Name: 2-[4-[(Z)-1,2-diphenylbut-1-enyl]phenoxy]-N,N-dimethylethanamine
Formula: C26H29NO
Exact mass: 371.2249
SMILES: CC\C(=C(/C1=CC=CC=C1)C1=CC=C(OCCN(C)C)C=C1)C1=CC=CC=C1
InChI: InChI=1S/C26H29NO/c1-4-25(21-11-7-5-8-12-21)26(22-13-9-6-10-14-22)23-15-17-24(18-16-23)28-20-19-27(2)3/h5-18H,4,19-20H2,1-3H3/b26-25-
Instrument: Q Exactive Orbitrap (Thermo Scientific)
Instrument type: LC-ESI-QFT
Ms type: MS2
Ion mode: POSITIVE
Ionization: ESI
Fragmentation mode: HCD
Collision energy: 90
Resolution: 17500
Column name: Acquity BEH C18 1.7um, 2.1x150mm (Waters)
Retention time: 17.455 min
Base peak: 79.0212
Precursor m/z: 372.2322
Precursor type: [M+H]+
Precursor intensity: 35626868.5
m/z	relative intensity	assigned
53.0386	2	C4H5+
55.0178	1	C3H3O+
56.0495	129	C3H6N+
57.0573	115	C3H7N+
58.0651	31	C3H8N+
65.0385	8	C5H5+
70.0651	297	C4H8N+
71.0729	8	C4H9N+
72.0807	999	C4H10N+
79.0541	6	C6H7+
91.0542	72	C7H7+
95.0491	5	C6H7O+
103.0542	9	C8H7+
105.0699	11	C8H9+
107.0492	5	C7H7O+
115.0542	13	C9H7+
117.0697	1	C9H9+
127.0543	3	C10H7+
128.062	67	C10H8+
129.0698	21	C10H9+
131.0491	1	C9H7O+
141.0697	3	C11H9+
145.0648	7	C10H9O+
152.0622	9	C12H8+
153.0698	3	C12H9+
155.0855	1	C12H11+
165.0699	22	C13H9+
166.0776	3	C13H10+
167.0858	1	C13H11+
177.0702	3	C14H9+
178.0777	63	C14H10+
179.0855	5	C14H11+
181.0649	2	C13H9O+
183.0805	1	C13H11O+
189.0698	8	C15H9+
190.0777	7	C15H10+
191.0855	23	C15H11+
192.0936	2	C15H12+
194.0726	4	C14H10O+
202.0778	11	C16H10+
203.0855	6	C16H11+
204.0933	1	C16H12+
205.1013	1	C16H13+
207.0806	12	C15H11O+
215.0855	9	C17H11+
227.086	2	C18H11+
228.0935	7	C18H12+
229.1016	1	C18H13+
239.0856	16	C19H11+
240.0925	3	C19H12+
241.1009	7	C19H13+
252.0932	25	C20H12+
253.1012	12	C20H13+
254.1093	2	C20H14+
255.1168	1	C20H15+
265.1011	6	C21H13+
268.0879	1	C20H12O+
269.096	1	C20H13O+
