Mass spectrum: Ifosfamide; LC-ESI-QFT; MS2; CE: 30; R=17500; [M+H]+
Name: Ifosfamide
Name: N,3-bis(2-chloroethyl)-2-oxo-1,3,2lambda5-oxazaphosphinan-2-amine
Formula: C7H15Cl2N2O2P
Exact mass: 260.0248
SMILES: ClCCNP1(=O)OCCCN1CCCl
InChI: InChI=1S/C7H15Cl2N2O2P/c8-2-4-10-14(12)11(6-3-9)5-1-7-13-14/h1-7H2,(H,10,12)
Instrument: Q Exactive Orbitrap (Thermo Scientific)
Instrument type: LC-ESI-QFT
Ms type: MS2
Ion mode: POSITIVE
Ionization: ESI
Fragmentation mode: HCD
Collision energy: 30
Resolution: 17500
Column name: Acquity BEH C18 1.7um, 2.1x150mm (Waters)
Retention time: 13.918 min
Base peak: 79.0211
Precursor m/z: 261.0321
Precursor type: [M+H]+
Precursor intensity: 10818164.03125
m/z	relative intensity	assigned
56.0496	1	C3H6N+
67.0542	1	C5H7+
78.0105	168	C2H5ClN+
80.0261	3	C2H7ClN+
82.0652	2	C5H8N+
84.0808	1	C5H10N+
92.0261	216	C3H7ClN+
116.9504	4	CH3Cl2O2+
118.0417	5	C4H9NOP+
120.0575	57	C5H11ClN+
124.0157	1	C3H7ClNO2+
126.9711	1	C2H5ClO2P+
127.9663	9	CH4ClNO2P+
128.0259	1	C5H7NOP+
141.9819	5	C2H6ClNO2P+
146.0365	19	C5H9NO2P+
153.9819	208	C3H6ClNO2P+
154.9469	4	C3H4Cl2NP+
156.9627	3	C3H6Cl2NP+
164.0472	3	C6H11ClNO2+
164.9866	1	C5H7ClO2P+
172.9579	1	C3H6Cl2NOP+
174.0082	1	C4H10Cl2NO2+
182.0132	184	C5H10ClNO2P+
184.94	3	C6HClNO2P+
185.0236	2	C4H11ClN2O2P+
199.0399	1	C6H13Cl2N2O+
200.0238	121	C6H12Cl2NO2+
200.9524	2	C4H6Cl2NO2P+
217.9899	3	C5H11Cl2NO2P+
233.0008	397	C5H12Cl2N2O2P+
261.032	999	C7H16Cl2N2O2P+
