Mass spectrum: Fenchlorazole-ethyl; LC-ESI-QFT; MS2; CE: 75; R=17500; [M+H]+
Name: Fenchlorazole-ethyl
Name: ethyl 1-(2,4-dichlorophenyl)-5-(trichloromethyl)-1,2,4-triazole-3-carboxylate
Formula: C12H8Cl5N3O2
Exact mass: 400.9059
SMILES: CCOC(=O)C1=NN(C(=N1)C(Cl)(Cl)Cl)C1=C(Cl)C=C(Cl)C=C1
InChI: InChI=1S/C12H8Cl5N3O2/c1-2-22-10(21)9-18-11(12(15,16)17)20(19-9)8-4-3-6(13)5-7(8)14/h3-5H,2H2,1H3
Instrument: Q Exactive Orbitrap (Thermo Scientific)
Instrument type: LC-ESI-QFT
Ms type: MS2
Ion mode: POSITIVE
Ionization: ESI
Fragmentation mode: HCD
Collision energy: 75
Resolution: 17500
Column name: Acquity BEH C18 1.7um, 2.1x150mm (Waters)
Retention time: 18.831 min
Base peak: 79.0211
Precursor m/z: 401.9132
Precursor type: [M+H]+
Precursor intensity: 31507790.17187
m/z	relative intensity	assigned
53.0022	11	C3HO+
55.0542	26	C4H7+
57.0699	123	C4H9+
58.0651	4	C3H8N+
62.0235	17	CH4NO2+
62.9632	13	CClO+
62.9994	8	C2H4Cl+
63.0313	41	CH5NO2+
64.9786	3	CH2ClO+
67.0542	14	C5H7+
69.0699	13	C5H9+
72.9839	6	C3H2Cl+
73.0283	10	C3H5O2+
74.015	3	C6H2+
77.0469	129	C2H7NO2+
81.0095	3	C2H6ClO+
81.0698	12	C6H9+
82.9449	7	CHCl2+
84.9839	53	C4H2Cl+
86.9632	35	C3ClO+
86.9745	35	C2ClN2+
90.0549	15	C3H8NO2+
91.0307	37	C4H8Cl+
91.0627	61	C3H9NO2+
94.0177	10	C3H7ClO+
95.0256	7	C3H8ClO+
98.9995	4	C5H4Cl+
100.018	2	C7H2N+
105.0462	4	C6H5N2+
106.945	4	C3HCl2+
108.0334	45	C4H9ClO+
108.9839	70	C6H2Cl+
112.9788	9	C5H2ClO+
116.906	153	CCl3+
118.0287	2	C7H4NO+
119.062	42	C7H7N2+
120.9606	21	C4H3Cl2+
123.995	6	C6H3ClN+
126.9945	37	C6H4ClO+
128.0023	56	C6H5ClO+
130.0053	2	C5H5ClNO+
132.9606	999	C5H3Cl2+
133.9791	3	C7HClN+
135.9946	5	C7H3ClN+
144.9606	59	C6H3Cl2+
145.0047	15	C6H6ClO2+
148.99	4	C7H2ClN2+
149.998	19	C7H3ClN2+
151.9897	3	C7H3ClNO+
154.0053	7	C7H5ClNO+
155.0005	4	C6H4ClN2O+
156.961	4	C7H3Cl2+
157.9558	3	C6H2Cl2N+
158.9638	4	C6H3Cl2N+
159.0211	3	C7H8ClO2+
160.9554	3	C6H3Cl2O+
161.9635	3	C6H4Cl2O+
161.9979	15	C8H3ClN2+
162.9711	72	C6H5Cl2O+
163.9662	5	C8HClO2+
164.0009	44	C7H3ClN3+
169.956	4	C7H2Cl2N+
170.9637	353	C7H3Cl2N+
172.9668	577	C6H3Cl2N2+
184.9668	246	C7H3Cl2N2+
188.001	24	C9H3ClN3+
194.9637	32	C9H3Cl2N+
195.9589	40	C8H2Cl2N2+
196.9668	180	C8H3Cl2N2+
197.0113	16	C8H6ClN2O2+
197.9623	12	C7H2Cl2N3+
205.9326	80	C7H3Cl3N+
210.9693	5	C11ClN2O+
214.9772	9	C8H5Cl2N2O+
221.9622	12	C9H2Cl2N3+
222.9699	172	C9H3Cl2N3+
230.9278	18	C8H2Cl3N2+
240.9012	3	C7H3Cl4N+
251.8931	5	C8H2Cl4N+
254.9959	8	C10H7Cl2N3O+
256.9305	14	C9H2Cl3N3+
257.9387	197	C9H3Cl3N3+
267.9669	3	C10H4Cl2N3O2+
268.9752	669	C10H5Cl2N3O2+
282.9912	12	C11H7Cl2N3O2+
285.9336	8	C10H3Cl3N3O+
291.8999	2	C9H2Cl4N3+
302.9368	5	C10H4Cl3N3O2+
303.9441	196	C10H5Cl3N3O2+
338.9126	5	C10H5Cl4N3O2+
