Mass spectrum: Fensulfothion; LC-ESI-QFT; MS2; CE: 15; R=17500; [M+H]+
Name: Fensulfothion
Name: diethoxy-(4-methylsulfinylphenoxy)-sulfanylidene-lambda5-phosphane
Formula: C11H17O4PS2
Exact mass: 308.0306
SMILES: CCOP(=S)(OCC)OC1=CC=C(C=C1)S(C)=O
InChI: InChI=1S/C11H17O4PS2/c1-4-13-16(17,14-5-2)15-10-6-8-11(9-7-10)18(3)12/h6-9H,4-5H2,1-3H3
Instrument: Q Exactive Orbitrap (Thermo Scientific)
Instrument type: LC-ESI-QFT
Ms type: MS2
Ion mode: POSITIVE
Ionization: ESI
Fragmentation mode: HCD
Collision energy: 15
Resolution: 17500
Column name: Acquity BEH C18 1.7um, 2.1x150mm (Waters)
Retention time: 16.417 min
Base peak: 79.0212
Precursor m/z: 309.0379
Precursor type: [M+H]+
Precursor intensity: 21443189.75
m/z	relative intensity	assigned
96.9515	1	H2O2PS+
139.0214	1	C7H7OS+
157.0317	14	C7H9O2S+
173.0089	12	C7H9OS2+
185.0632	6	C9H13O2S+
201.0402	17	C9H13OS2+
234.9647	21	C7H8O3PS2+
236.9986	2	C11H10PS2+
252.9753	71	C7H10O4PS2+
262.9958	15	C9H12O3PS2+
264.0039	9	C9H13O3PS2+
266.9909	1	C8H12O4PS2+
281.0065	413	C9H14O4PS2+
294.014	3	C10H15O4PS2+
295.0217	1	C10H16O4PS2+
309.0377	999	C11H18O4PS2+
