Mass spectrum: Terbutryn; LC-ESI-QFT; MS2; CE: 60; R=17500; [M+H]+
Name: Terbutryn
Name: 2-N-tert-butyl-4-N-ethyl-6-methylsulfanyl-1,3,5-triazine-2,4-diamine
Formula: C10H19N5S
Exact mass: 241.1361
SMILES: CCNC1=NC(SC)=NC(NC(C)(C)C)=N1
InChI: InChI=1S/C10H19N5S/c1-6-11-7-12-8(15-10(2,3)4)14-9(13-7)16-5/h6H2,1-5H3,(H2,11,12,13,14,15)
Instrument: Q Exactive Orbitrap (Thermo Scientific)
Instrument type: LC-ESI-QFT
Ms type: MS2
Ion mode: POSITIVE
Ionization: ESI
Fragmentation mode: HCD
Collision energy: 60
Resolution: 17500
Column name: Acquity BEH C18 1.7um, 2.1x150mm (Waters)
Retention time: 16.520 min
Base peak: 79.0212
Precursor m/z: 242.1434
Precursor type: [M+H]+
Precursor intensity: 58638022.9375
m/z	relative intensity	assigned
57.0699	32	C4H9+
61.0106	1	C2H5S+
68.0243	94	C2H2N3+
71.0603	296	C3H7N2+
74.0058	47	C2H4NS+
85.0509	55	C2H5N4+
91.0324	458	C2H7N2S+
96.0556	276	C4H6N3+
102.0372	22	C4H8NS+
110.0461	29	C3H4N5+
113.0821	51	C4H9N4+
116.0277	124	C3H6N3S+
138.0774	176	C5H8N5+
140.093	3	C5H10N5+
144.0589	121	C5H10N3S+
158.0495	145	C4H8N5S+
159.0699	1	C5H11N4S+
169.054	2	C6H9N4S+
171.0572	4	C5H9N5S+
184.0649	3	C6H10N5S+
186.0807	999	C6H12N5S+
242.1432	2	C10H20N5S+
