Mass spectrum: Trilostane; LC-ESI-QFT; MS2; CE: 45; R=17500; [M+H]+
Name: Trilostane
Name: (1S,2R,6R,8S,11S,12S,15S,16S)-5,15-dihydroxy-2,16-dimethyl-7-oxapentacyclo[9.7.0.02,8.06,8.012,16]octadec-4-ene-4-carbonitrile
Formula: C20H27NO3
Exact mass: 329.1991
SMILES: C[C@]12CC[C@H]3[C@@H](CC[C@@]45O[C@@H]4C(O)=C(C[C@]35C)C#N)[C@@H]1CC[C@@H]2O
InChI: InChI=1S/C20H27NO3/c1-18-7-6-14-12(13(18)3-4-15(18)22)5-8-20-17(24-20)16(23)11(10-21)9-19(14,20)2/h12-15,17,22-23H,3-9H2,1-2H3/t12-,13-,14-,15-,17+,18-,19+,20+/m0/s1
Instrument: Q Exactive Orbitrap (Thermo Scientific)
Instrument type: LC-ESI-QFT
Ms type: MS2
Ion mode: POSITIVE
Ionization: ESI
Fragmentation mode: HCD
Collision energy: 45
Resolution: 17500
Column name: Acquity BEH C18 1.7um, 2.1x150mm (Waters)
Retention time: 16.986 min
Base peak: 79.0211
Precursor m/z: 330.2064
Precursor type: [M+H]+
Precursor intensity: 849254.5
m/z	relative intensity	assigned
67.0542	15	C5H7+
79.0542	8	C6H7+
81.0698	6	C6H9+
91.0543	21	C7H7+
96.0808	28	C6H10N+
105.0697	5	C8H9+
115.0544	5	C9H7+
117.0699	30	C9H9+
119.049	5	C8H7O+
119.0855	30	C9H11+
124.0758	18	C7H10NO+
129.07	5	C10H9+
131.0855	10	C10H11+
133.0648	4	C9H9O+
133.1012	11	C10H13+
136.0758	22	C8H10NO+
143.0858	20	C11H11+
145.0649	14	C10H9O+
145.1012	103	C11H13+
146.0599	5	C9H8NO+
147.0804	10	C10H11O+
147.1168	46	C11H15+
155.0855	37	C12H11+
157.1012	21	C12H13+
158.0726	7	C11H10O+
159.0806	6	C11H11O+
159.1168	18	C12H15+
161.0953	9	C11H13O+
169.101	19	C13H13+
171.0801	7	C12H11O+
171.1167	34	C13H15+
173.0598	66	C11H9O2+
173.0961	88	C12H13O+
175.1118	9	C12H15O+
181.101	11	C14H13+
182.1094	4	C14H14+
183.0806	3	C13H11O+
183.1169	52	C14H15+
185.0961	4	C13H13O+
185.1326	4	C14H17+
187.1118	6	C13H15O+
188.1071	4	C12H14NO+
192.0932	7	C15H12+
193.0845	26	C11H13O3+
194.1091	6	C15H14+
195.117	7	C15H15+
196.0761	10	C13H10NO+
196.125	13	C15H16+
197.1325	78	C15H17+
198.0915	3	C13H12NO+
199.1116	4	C14H15O+
200.1069	3	C13H14NO+
201.091	84	C13H13O2+
207.1169	29	C16H15+
209.1331	20	C16H17+
214.0862	13	C13H12NO2+
214.1593	11	C15H20N+
216.102	784	C13H14NO2+
224.1197	7	C16H16O+
224.1437	5	C16H18N+
225.1275	43	C16H17O+
225.1639	33	C17H21+
228.1022	8	C14H14NO2+
228.1392	6	C15H18NO+
235.1123	6	C17H15O+
235.1483	11	C18H19+
242.1541	13	C16H20NO+
242.1907	15	C17H24N+
244.1333	999	C15H18NO2+
252.1382	36	C17H18NO+
253.1224	48	C17H17O2+
253.1587	47	C18H21O+
269.1411	6	C17H19NO2+
270.1489	551	C17H20NO2+
286.144	7	C17H20NO3+
290.0973	3	C19H14O3+
298.1803	708	C19H24NO2+
302.1752	121	C18H24NO3+
330.2065	361	C20H28NO3+
