Mass spectrum: Parinol; LC-ESI-QFT; MS2; CE: 60; R=17500; [M+H]+
Name: Parinol
Name: bis(4-chlorophenyl)-pyridin-3-ylmethanol
Formula: C18H13Cl2NO
Exact mass: 329.0374
SMILES: OC(C1=CC=C(Cl)C=C1)(C1=CC=C(Cl)C=C1)C1=CC=CN=C1
InChI: InChI=1S/C18H13Cl2NO/c19-16-7-3-13(4-8-16)18(22,15-2-1-11-21-12-15)14-5-9-17(20)10-6-14/h1-12,22H
Instrument: Q Exactive Orbitrap (Thermo Scientific)
Instrument type: LC-ESI-QFT
Ms type: MS2
Ion mode: POSITIVE
Ionization: ESI
Fragmentation mode: HCD
Collision energy: 60
Resolution: 17500
Column name: Acquity BEH C18 1.7um, 2.1x150mm (Waters)
Retention time: 18.413 min
Base peak: 79.0211
Precursor m/z: 330.0447
Precursor type: [M+H]+
Precursor intensity: 18707662
m/z	relative intensity	assigned
53.0386	44	C4H5+
56.0495	2	C3H6N+
78.0338	3	C5H4N+
79.0417	2	C5H5N+
80.0494	999	C5H6N+
81.0334	1	C5H5O+
96.0444	31	C5H6NO+
125.0153	19	C7H6Cl+
128.0621	1	C10H8+
129.0102	2	C6H6ClO+
137.0153	1	C8H6Cl+
138.0105	3	C7H5ClN+
138.9945	132	C7H4ClO+
140.026	1	C7H7ClN+
149.0152	8	C9H6Cl+
151.0311	1	C9H8Cl+
154.0651	2	C11H8N+
155.073	1	C11H9N+
165.0699	4	C13H9+
166.0652	1	C12H8N+
167.073	1	C12H9N+
175.0309	6	C11H8Cl+
182.0601	14	C12H8NO+
183.0679	9	C12H9NO+
189.0698	9	C15H9+
190.0417	3	C11H9ClN+
191.0856	1	C15H11+
199.031	2	C13H8Cl+
200.0261	3	C12H7ClN+
200.0386	1	C13H9Cl+
201.0339	7	C12H8ClN+
202.0419	1	C12H9ClN+
202.0777	2	C16H10+
203.0498	1	C12H10ClN+
212.0389	1	C14H9Cl+
215.0855	20	C17H11+
216.0936	3	C17H12+
217.0289	1	C12H8ClNO+
217.0648	4	C16H9O+
217.1011	12	C17H13+
218.0367	31	C12H9ClNO+
219.0445	10	C12H10ClNO+
223.0309	1	C15H8Cl+
224.0388	1	C15H9Cl+
226.0545	2	C15H11Cl+
230.0971	1	C17H12N+
232.9922	1	C13H7Cl2+
235.0077	4	C13H9Cl2+
237.0463	1	C16H10Cl+
240.0808	1	C18H10N+
241.0886	10	C18H11N+
242.0964	18	C18H12N+
243.0812	2	C15H14ClN+
249.0464	5	C17H10Cl+
250.0185	9	C13H10Cl2N+
250.0541	2	C17H11Cl+
251.0024	9	C13H9Cl2O+
251.0621	1	C17H12Cl+
252.0337	16	C16H9ClO+
252.0698	6	C17H13Cl+
259.0076	19	C15H9Cl2+
264.0574	1	C17H11ClN+
266.0737	1	C17H13ClN+
275.0024	3	C15H9Cl2O+
275.05	1	C18H10ClN+
276.0576	17	C18H11ClN+
277.0653	81	C18H12ClN+
278.0492	2	C18H11ClO+
278.073	4	C18H13ClN+
285.0232	2	C17H11Cl2+
287.0028	1	C16H9Cl2O+
294.0682	3	C18H13ClNO+
311.0263	3	C18H11Cl2N+
312.0343	14	C18H12Cl2N+
313.0419	18	C18H13Cl2N+
330.0449	11	C18H14Cl2NO+
