Mass spectrum: Decanedioic acid; LC-ESI-QFT; MS2; CE: 90; R=17500; [M-H]-
Name: Decanedioic acid
Name: Sebacic acid
Formula: C10H18O4
Exact mass: 202.1205
SMILES: OC(=O)CCCCCCCCC(O)=O
InChI: InChI=1S/C10H18O4/c11-9(12)7-5-3-1-2-4-6-8-10(13)14/h1-8H2,(H,11,12)(H,13,14)
Instrument: Q Exactive Orbitrap (Thermo Scientific)
Instrument type: LC-ESI-QFT
Ms type: MS2
Ion mode: NEGATIVE
Ionization: ESI
Fragmentation mode: HCD
Collision energy: 90
Resolution: 17500
Column name: Acquity BEH C18 1.7um, 2.1x150mm (Waters)
Retention time: 15.858 min
Base peak: 201.1133
Precursor m/z: 201.1132
Precursor type: [M-H]-
Precursor intensity: 29392248.51758
m/z	relative intensity	assigned
55.0189	115	C3H3O-
57.0345	999	C3H5O-
69.0347	170	C4H5O-
71.0503	134	C4H7O-
80.0267	334	C5H4O-
81.0346	150	C5H5O-
83.0502	427	C5H7O-
109.0656	111	C7H9O-
111.0814	297	C7H11O-
137.0971	339	C9H13O-
139.1128	287	C9H15O-
