Mass spectrum: Fenbuconazole; LC-ESI-QFT; MS2; CE: 45; R=17500; [M+H]+
Name: Fenbuconazole
Name: 4-(4-chlorophenyl)-2-phenyl-2-(1,2,4-triazol-1-ylmethyl)butanenitrile
Formula: C19H17ClN4
Exact mass: 336.1142
SMILES: ClC1=CC=C(CCC(CN2C=NC=N2)(C#N)C2=CC=CC=C2)C=C1
InChI: InChI=1S/C19H17ClN4/c20-18-8-6-16(7-9-18)10-11-19(12-21,13-24-15-22-14-23-24)17-4-2-1-3-5-17/h1-9,14-15H,10-11,13H2
Instrument: Q Exactive Orbitrap (Thermo Scientific)
Instrument type: LC-ESI-QFT
Ms type: MS2
Ion mode: POSITIVE
Ionization: ESI
Fragmentation mode: HCD
Collision energy: 45
Resolution: 17500
Column name: Acquity BEH C18 1.7um, 2.1x150mm (Waters)
Retention time: 18.181 min
Base peak: 79.0211
Precursor m/z: 337.1215
Precursor type: [M+H]+
Precursor intensity: 12261863.03125
m/z	relative intensity	assigned
70.0399	999	C2H4N3+
82.04	6	C3H4N3+
83.0478	12	C3H5N3+
89.0384	3	C7H5+
91.0542	83	C7H7+
98.9995	1	C5H4Cl+
103.0542	8	C8H7+
104.0495	7	C7H6N+
115.0543	3	C9H7+
116.0495	1	C8H6N+
125.0152	955	C7H6Cl+
128.0619	6	C10H8+
129.0698	29	C10H9+
139.0308	24	C8H8Cl+
143.0729	1	C10H9N+
145.0648	1	C7H12ClN+
149.0153	4	C9H6Cl+
151.0309	6	C9H8Cl+
155.0603	2	C10H7N2+
156.0809	5	C11H10N+
163.0308	33	C10H8Cl+
190.0418	10	C11H9ClN+
194.0481	3	C9H9ClN3+
215.0857	2	C17H11+
216.0931	6	C17H12+
251.0621	1	C17H12Cl+
268.0884	1	C17H15ClN+
337.1205	1	C19H18ClN4+
