Mass spectrum: Glybenclamide; LC-ESI-QFT; MS2; CE: 90; R=17500; [M-H]-
Name: Glybenclamide
Name: Glyburide
Name: 5-chloro-N-[2-[4-(cyclohexylcarbamoylsulfamoyl)phenyl]ethyl]-2-methoxybenzamide
Formula: C23H28ClN3O5S
Exact mass: 493.1438
SMILES: COC1=C(C=C(Cl)C=C1)C(=O)NCCC1=CC=C(C=C1)S(=O)(=O)NC(=O)NC1CCCCC1
InChI: InChI=1S/C23H28ClN3O5S/c1-32-21-12-9-17(24)15-20(21)22(28)25-14-13-16-7-10-19(11-8-16)33(30,31)27-23(29)26-18-5-3-2-4-6-18/h7-12,15,18H,2-6,13-14H2,1H3,(H,25,28)(H2,26,27,29)
Instrument: Q Exactive Orbitrap (Thermo Scientific)
Instrument type: LC-ESI-QFT
Ms type: MS2
Ion mode: NEGATIVE
Ionization: ESI
Fragmentation mode: HCD
Collision energy: 90
Resolution: 17500
Column name: Acquity BEH C18 1.7um, 2.1x150mm (Waters)
Retention time: 17.825 min
Base peak: 112.9856
Precursor m/z: 492.1365
Precursor type: [M-H]-
Precursor intensity: 8759277.80957
m/z	relative intensity	assigned
61.9706	176	NOS-
63.9625	966	O2S-
64.9703	53	HO2S-
65.9985	30	C3NO-
74.0037	132	C5N-
77.9655	35	NO2S-
78.9734	323	HNO2S-
79.9574	4	O3S-
79.9812	87	H2NO2S-
80.9652	36	HO3S-
88.0193	19	C6H2N-
91.0189	76	C6H3O-
93.0347	6	C6H5O-
93.9605	208	NO3S-
103.9688	4	CN2O2S-
106.0424	32	C7H6O-
107.9761	38	CH2NO3S-
108.0218	15	C6H4O2-
111.0009	6	C6H4Cl-
116.0142	245	C7H2NO-
118.0661	26	C8H8N-
121.0296	23	C7H5O2-
123.0928	17	C7H11N2-
126.9956	999	C6H4ClO-
130.0536	9	C8H6N2-
138.032	5	C7H6O3-
151.9909	285	C7H3ClNO-
154.0095	101	C7H6O2S-
169.0204	43	C7H7NO2S-
170.0013	36	C7H5ClNO2-
185.9992	38	C7H6O4S-
194.0154	49	C8H6N2O2S-
201.0102	16	C7H7NO4S-
226.0056	10	C8H6N2O4S-
