Mass spectrum: Azacyclotridecan-2-one; LC-ESI-QFT; MS2; CE: 75; R=17500; [M+H]+
Name: Azacyclotridecan-2-one
Formula: C12H23NO
Exact mass: 197.1780
SMILES: O=C1CCCCCCCCCCCN1
InChI: InChI=1S/C12H23NO/c14-12-10-8-6-4-2-1-3-5-7-9-11-13-12/h1-11H2,(H,13,14)
Instrument: Q Exactive Orbitrap (Thermo Scientific)
Instrument type: LC-ESI-QFT
Ms type: MS2
Ion mode: POSITIVE
Ionization: ESI
Fragmentation mode: HCD
Collision energy: 75
Resolution: 17500
Column name: Acquity BEH C18 1.7um, 2.1x150mm (Waters)
Retention time: 17.456 min
Base peak: 79.0211
Precursor m/z: 198.1852
Precursor type: [M+H]+
Precursor intensity: 40738325
m/z	relative intensity	assigned
53.0022	55	C3HO+
53.0386	23	C4H5+
53.9974	9	C2NO+
54.0339	7	C3H4N+
55.0179	120	C3H3O+
55.0542	999	C4H7+
56.0495	19	C3H6N+
57.0699	449	C4H9+
58.0651	31	C3H8N+
60.0444	13	C2H6NO+
65.0385	4	C5H5+
67.0542	123	C5H7+
68.0495	9	C4H6N+
69.0698	610	C5H9+
70.0651	23	C4H8N+
71.0491	11	C4H7O+
71.0855	76	C5H11+
72.0444	53	C3H6NO+
72.0808	68	C4H10N+
74.0599	3	C3H8NO+
77.0383	2	C6H5+
79.0542	161	C6H7+
80.0495	2	C5H6N+
81.0699	129	C6H9+
82.0651	58	C5H8N+
83.0491	36	C5H7O+
83.0855	294	C6H11+
84.0809	19	C5H10N+
85.0648	5	C5H9O+
85.1013	11	C6H13+
86.0601	74	C4H8NO+
86.0964	35	C5H12N+
88.0757	5	C4H10NO+
91.0542	39	C7H7+
93.0699	108	C7H9+
94.065	4	C6H8N+
95.0492	10	C6H7O+
95.0855	86	C7H11+
96.0808	55	C6H10N+
97.0648	54	C6H9O+
97.1012	91	C7H13+
98.0963	5	C6H12N+
100.0757	50	C5H10NO+
100.1121	14	C6H14N+
102.0913	3	C5H12NO+
105.0699	12	C8H9+
107.0855	35	C8H11+
108.0808	4	C7H10N+
109.0648	3	C7H9O+
109.0885	6	C7H11N+
109.1012	8	C8H13+
110.0964	18	C7H12N+
111.0805	21	C7H11O+
111.117	2	C8H15+
114.0913	15	C6H12NO+
114.1277	8	C7H16N+
121.1012	19	C9H13+
122.0963	3	C8H12N+
124.1121	13	C8H14N+
125.096	4	C8H13O+
128.1067	2	C7H14NO+
128.1434	3	C8H18N+
135.1169	1	C10H15+
138.1277	6	C9H16N+
154.1588	2	C10H20N+
156.1747	7	C10H22N+
180.1741	1	C12H22N+
198.1854	177	C12H24NO+
