Mass spectrum: CP-612372; LC-ESI-QFT; MS2; CE: 30; R=17500; [M-H]-
Name: CP-612372
Name: 2-(2,1,3-Benzoxadiazol-5-yloxy)-N-((4-(1-hydroxy-1-methylethyl)phenyl)methyl)-3-pyridinecarboxamide
Name: 2-(2,1,3-benzoxadiazol-5-yloxy)-N-[[4-(2-hydroxypropan-2-yl)phenyl]methyl]pyridine-3-carboxamide
Formula: C22H20N4O4
Exact mass: 404.1485
SMILES: CC(C)(O)C1=CC=C(CNC(=O)C2=CC=CN=C2OC2=CC3=NON=C3C=C2)C=C1
InChI: InChI=1S/C22H20N4O4/c1-22(2,28)15-7-5-14(6-8-15)13-24-20(27)17-4-3-11-23-21(17)29-16-9-10-18-19(12-16)26-30-25-18/h3-12,28H,13H2,1-2H3,(H,24,27)
Instrument: Q Exactive Orbitrap (Thermo Scientific)
Instrument type: LC-ESI-QFT
Ms type: MS2
Ion mode: NEGATIVE
Ionization: ESI
Fragmentation mode: HCD
Collision energy: 30
Resolution: 17500
Column name: Acquity BEH C18 1.7um, 2.1x150mm (Waters)
Retention time: 16.352 min
Base peak: 202.9785
Precursor m/z: 403.1412
Precursor type: [M-H]-
Precursor intensity: 6664741.709961
m/z	relative intensity	assigned
57.0345	7	C3H5O-
65.0145	1	C3HN2-
65.9986	3	C3NO-
68.0142	1	C3H2NO-
77.0145	2	C4HN2-
90.0225	1	C5H2N2-
91.0301	1	C5H3N2-
94.0299	48	C5H4NO-
102.0349	4	C7H4N-
103.0301	2	C6H3N2-
105.0458	3	C6H5N2-
106.017	1	C5H2N2O-
117.0458	1	C7H5N2-
118.041	4	C6H4N3-
119.0251	31	C6H3N2O-
122.0247	24	C6H4NO2-
133.0282	258	C6H3N3O-
134.0359	18	C6H4N3O-
135.02	71	C6H3N2O2-
137.0356	3	C6H5N2O2-
138.0197	141	C6H4NO3-
161.0361	1	C8H5N2O2-
169.0407	1	C10H5N2O-
170.0365	1	C9H4N3O-
173.0849	1	C11H11NO-
188.1082	10	C12H14NO-
196.0514	1	C11H6N3O-
197.0358	2	C11H5N2O2-
198.0434	15	C11H6N2O2-
210.0541	1	C11H6N4O-
211.0511	7	C12H7N2O2-
220.0518	4	C13H6N3O-
223.0391	4	C12H5N3O2-
224.0468	5	C12H6N3O2-
229.0257	1	C11H5N2O4-
237.0417	16	C12H5N4O2-
238.0628	1	C13H8N3O2-
238.111	2	C15H14N2O-
240.0415	41	C12H6N3O3-
241.0493	53	C12H7N3O3-
242.0571	2	C12H8N3O3-
246.1043	1	C16H12N3-
250.0495	8	C13H6N4O2-
251.1186	9	C16H15N2O-
255.1138	23	C15H15N2O2-
263.1067	2	C16H13N3O-
264.1142	9	C16H14N3O-
265.1221	11	C16H15N3O-
267.1135	2	C16H15N2O2-
268.0985	5	C16H14NO3-
270.1138	5	C16H16NO3-
277.098	1	C17H13N2O2-
282.1248	999	C16H16N3O2-
284.0826	2	C18H10N3O-
285.1245	4	C16H17N2O3-
291.1013	1	C17H13N3O2-
292.1096	1	C17H14N3O2-
307.109	5	C18H15N2O3-
309.0776	1	C19H9N4O-
315.1147	1	C20H15N2O2-
324.1142	14	C21H14N3O-
327.0883	6	C19H11N4O2-
330.1253	4	C20H16N3O2-
333.1247	1	C20H17N2O3-
339.1246	2	C21H15N4O-
340.1095	3	C21H14N3O2-
341.1167	3	C21H15N3O2-
342.1247	65	C21H16N3O2-
349.1095	1	C22H13N4O-
351.088	1	C21H11N4O2-
351.1254	7	C22H15N4O-
353.1044	4	C21H13N4O2-
354.1254	1	C22H16N3O2-
355.1332	10	C22H17N3O2-
357.1359	4	C21H17N4O2-
358.1196	9	C21H16N3O3-
359.1279	1	C21H17N3O3-
359.1529	1	C21H19N4O2-
360.1356	9	C21H18N3O3-
367.12	129	C22H15N4O2-
368.1279	17	C22H16N4O2-
369.0994	45	C21H13N4O3-
369.1334	4	C22H17N4O2-
370.1074	1	C21H14N4O3-
384.1229	3	C22H16N4O3-
385.1307	263	C22H17N4O3-
386.1375	1	C22H18N4O3-
403.1412	29	C22H19N4O4-
