Mass spectrum: 2-[4-(Diethylamino)-2-hydroxybenzoyl]benzoic acid; LC-ESI-QFT; MS2; CE: 15; R=17500; [M+H]+
Name: 2-[4-(Diethylamino)-2-hydroxybenzoyl]benzoic acid
Name: 2-(4-(Diethylamino)-2-hydroxybenzoyl)benzoic acid
Formula: C18H19NO4
Exact mass: 313.1314
SMILES: CCN(CC)C1=CC(O)=C(C=C1)C(=O)C1=C(C=CC=C1)C(O)=O
InChI: InChI=1S/C18H19NO4/c1-3-19(4-2)12-9-10-15(16(20)11-12)17(21)13-7-5-6-8-14(13)18(22)23/h5-11,20H,3-4H2,1-2H3,(H,22,23)
Instrument: Q Exactive Orbitrap (Thermo Scientific)
Instrument type: LC-ESI-QFT
Ms type: MS2
Ion mode: POSITIVE
Ionization: ESI
Fragmentation mode: HCD
Collision energy: 15
Resolution: 17500
Column name: Acquity BEH C18 1.7um, 2.1x150mm (Waters)
Retention time: 17.555 min
Base peak: 79.0212
Precursor m/z: 314.1387
Precursor type: [M+H]+
Precursor intensity: 19450930
m/z	relative intensity	assigned
138.0914	6	C8H12NO+
149.0234	67	C8H5O3+
166.1227	441	C10H16NO+
181.0494	1	C9H9O4+
268.0959	2	C16H14NO3+
285.1	1	C16H15NO4+
286.1076	2	C16H16NO4+
296.1283	40	C18H18NO3+
314.1387	999	C18H20NO4+
