Mass spectrum: Flufenpyr-ethyl; LC-ESI-QFT; MS2; CE: 60; R=17500; [M+H]+
Name: Flufenpyr-ethyl
Formula: C16H13ClF4N2O4
Exact mass: 408.0500
SMILES: CCOC(=O)COC1=CC(N2N=CC(=C(C)C2=O)C(F)(F)F)=C(F)C=C1Cl
InChI: InChI=1S/C16H13ClF4N2O4/c1-3-26-14(24)7-27-13-5-12(11(18)4-10(13)17)23-15(25)8(2)9(6-22-23)16(19,20)21/h4-6H,3,7H2,1-2H3
Instrument: Q Exactive Orbitrap (Thermo Scientific)
Instrument type: LC-ESI-QFT
Ms type: MS2
Ion mode: POSITIVE
Ionization: ESI
Fragmentation mode: HCD
Collision energy: 60
Resolution: 17500
Column name: Acquity BEH C18 1.7um, 2.1x150mm (Waters)
Retention time: 18.118 min
Base peak: 79.0212
Precursor m/z: 409.0573
Precursor type: [M+H]+
Precursor intensity: 7027436
m/z	relative intensity	assigned
55.0178	5	C3H3O+
57.0134	8	C3H2F+
59.0491	18	C3H7O+
62.9631	10	CClO+
63.0229	3	C5H3+
64.0181	7	C4H2N+
66.0148	3	CH2F2N+
70.0285	3	C3H4NO+
71.0291	23	C4H4F+
72.9838	14	C3H2Cl+
74.015	5	C6H2+
75.0041	16	C3HF2+
77.0197	10	C3H3F2+
79.0177	4	C5H3O+
82.0287	6	C4H4NO+
83.0291	47	C5H4F+
84.984	21	C4H2Cl+
86.9631	4	C3ClO+
89.0197	70	C4H3F2+
90.9745	4	C3HClF+
96.0243	4	C5H3FN+
96.9838	8	C5H2Cl+
98.9996	76	C5H4Cl+
99.0239	11	C5H4FO+
101.0197	96	C5H3F2+
104.0305	25	C4H4F2N+
104.9902	11	C4H3ClF+
106.0286	5	C6H4NO+
107.0102	4	C4H2F3+
108.0244	40	C6H3FN+
108.9839	25	C6H2Cl+
109.0321	26	C6H4FN+
110.0401	3	C6H5FN+
111.0241	30	C6H4FO+
111.0479	3	C6H6FN+
112.0319	9	C6H5FO+
112.9789	3	C5H2ClO+
113.0396	5	C6H6FO+
114.015	32	C5H2F2N+
114.0349	6	C5H5FNO+
116.0306	114	C5H4F2N+
116.9901	171	C5H3ClF+
119.0302	13	C5H5F2O+
121.026	115	C5H4F3+
122.0213	20	C4H3F3N+
122.04	16	C7H5FN+
123.0352	6	C6H4FN2+
123.9949	57	C6H3ClN+
124.0191	3	C6H3FNO+
124.0369	11	C4H5F3N+
126.035	66	C6H5FNO+
126.9946	26	C6H4ClO+
128.0305	3	C6H4F2N+
128.0498	3	C9H6N+
128.9901	138	C6H3ClF+
129.0346	7	C6H6FO2+
129.9979	10	C6H4ClF+
130.9933	5	C5H3ClFN+
132.001	6	C5H4ClFN+
132.0255	22	C5H4F2NO+
132.985	5	C5H3ClFO+
133.0457	4	C6H7F2O+
134.0211	44	C5H3F3N+
134.04	3	C8H5FN+
135.029	13	C5H4F3N+
135.0477	5	C8H6FN+
136.0192	12	C7H3FNO+
136.0367	39	C5H5F3N+
136.0428	8	C7H5FN2+
137.0273	8	C7H4FNO+
138.0349	11	C7H5FNO+
139.0302	6	C6H4FN2O+
140.0505	9	C7H7FNO+
141.0259	11	C6H3F2N2+
142.0052	19	C6H5ClNO+
143.0058	8	C7H5ClF+
143.0501	3	C7H8FO2+
144.0011	352	C6H4ClFN+
144.0255	33	C6H4F2NO+
144.9851	36	C6H3ClFO+
145.0098	20	C6H3F2O2+
145.9929	6	C6H4ClFO+
146.0163	3	C9H3FO+
146.0524	18	C10H7F+
147.0008	31	C6H5ClFO+
147.035	24	C8H4FN2+
148.0192	4	C8H3FNO+
148.0307	6	C12H4+
148.0368	17	C6H5F3N+
148.0558	14	C9H7FN+
150.0349	31	C8H5FNO+
151.0359	5	C9H5F2+
151.0426	45	C8H6FNO+
151.9897	10	C7H3ClNO+
153.0448	3	C10H5N2+
154.0053	10	C7H5ClNO+
155.0602	52	C10H7N2+
156.001	40	C7H4ClFN+
156.0209	3	C2H7ClF4N+
156.9851	229	C7H3ClFO+
156.9962	267	C6H3ClFN2+
158.0402	4	C10H5FN+
159.0007	4	C7H5ClFO+
159.0477	5	C10H6FN+
161.051	3	C9H6FN2+
162.0349	17	C9H5FNO+
163.0237	5	C6H4F3NO+
164.0009	8	C4H5ClF4+
164.0316	40	C6H5F3NO+
164.0504	6	C9H7FNO+
166.0293	5	C8H7ClN2+
167.0057	11	C9H5ClF+
168.0009	9	C8H4ClFN+
169.009	8	C8H5ClFN+
169.0259	5	C9H4F3+
170.0166	80	C8H6ClFN+
170.9883	7	C7H3ClFNO+
171.9959	69	C7H4ClFNO+
172.0371	3	C4H11ClNO4+
172.9801	8	C7H3ClFO2+
173.0038	77	C7H5ClFNO+
173.051	37	C10H6FN2+
174.0116	12	C7H6ClFNO+
174.0588	70	C10H7FN2+
175.0427	6	C10H6FNO+
175.0665	36	C10H8FN2+
176.0308	31	C4H7F3O4+
176.0506	9	C10H7FNO+
177.0385	12	C10H5F2N+
177.0582	10	C10H8FNO+
178.0057	4	C9H5ClNO+
179.0427	49	C6H6F3N2O+
182.0164	6	C6H5F3O3+
183.0553	12	C11H7N2O+
183.9961	50	C8H4ClFNO+
184.0435	31	C11H5FN2+
185.0039	77	C8H5ClFNO+
186.0588	5	C11H7FN2+
187.0304	4	C10H4FN2O+
189.0215	10	C10H6ClN2+
190.0292	41	C10H7ClN2+
192.0012	19	C10H4ClFN+
192.0254	4	C10H4F2NO+
195.0419	27	C7H12ClO4+
196.0368	32	C10H5F3N+
196.9911	16	C8H3ClFN2O+
197.999	113	C8H4ClFN2O+
198.0115	44	C9H6ClFNO+
199.007	99	C8H5ClFN2O+
199.9909	68	C8H4ClFNO2+
200.0147	9	C8H6ClFN2O+
201.0458	17	C11H6FN2O+
202.0537	88	C11H7FN2O+
203.0426	74	C8H6F3N2O+
203.0615	228	C11H8FN2O+
204.0493	185	C11H6F2N2+
205.0334	12	C11H5F2NO+
205.0575	17	C11H7F2N2+
207.0119	4	C10H5ClFN2+
208.0196	7	C13H3FNO+
209.0034	9	C13H2FO2+
210.0131	12	C7H7ClF2NO2+
210.0353	26	C10H8ClFN2+
211.0197	40	C10H7ClFNO+
212.0071	33	C10H5ClF2N+
212.0377	11	C12H5FN2O+
213.0455	10	C12H6FN2O+
214.0477	6	C7H10ClF3N2+
215.0017	12	C8H5ClFN2O2+
215.0482	4	C11H7N2O3+
216.0431	58	C10H6F4N+
217.0156	5	C14H3NO2+
217.9979	52	C9H4ClF3N+
218.024	37	C11H7ClN2O+
219.0122	34	C11H5ClFN2+
219.9959	19	C11H4ClFNO+
220.0198	6	C11H6ClFN2+
220.038	7	C9H6F4NO+
221.0517	20	C11H7F2N2O+
222.0116	13	C11H6ClFNO+
222.0401	11	C7H11ClN2O4+
223.0069	57	C10H5ClFN2O+
223.0477	266	C11H6F3N2+
223.9907	13	C10H4ClFNO2+
224.0322	21	C8H8ClF3N2+
224.0555	231	C11H7F3N2+
225.0394	40	C11H6F3NO+
225.0629	17	C11H8F3N2+
225.9864	24	C10H3ClF2NO+
226.0272	17	C11H4F4N+
227.0332	16	C5H10ClF4NO2+
229.0388	16	C6H11ClFN2O4+
230.0214	6	C9H9ClNO4+
231.056	20	C9H12ClF4+
232.0135	46	C10H6ClF3N+
232.0441	56	C12H6F2N2O+
233.0522	10	C12H7F2N2O+
236.0152	49	C11H4F2NO3+
237.0225	337	C11H7ClFN2O+
238.0303	120	C11H8ClFN2O+
239.0182	180	C11H6ClF2N2+
240.0021	97	C11H5ClF2NO+
241.0383	6	C11H5F4N2+
241.9979	17	C11H4ClF3N+
243.054	193	C11H7F4N2+
244.0388	19	C8H9ClF4N2+
244.0617	55	C11H8F4N2+
245.0091	15	C10H3F4NO2+
246.0174	8	C10H4F4NO2+
247.007	105	C12H5ClFN2O+
251.0426	346	C12H6F3N2O+
252.0504	249	C12H7F3N2O+
253.0582	32	C12H8F3N2O+
254.0051	8	C11H5ClF2N2O+
254.0458	9	C12H6F4N2+
257.0093	5	C11H3F4NO2+
257.0331	50	C11H5F4N2O+
259.0242	118	C11H7ClF3N2+
260.0083	72	C11H6ClF3NO+
262.0045	6	C11H5ClF4N+
264.9911	45	C10H4ClF4NO+
265.9991	48	C10H5ClF4NO+
266.025	62	C15H5FNO3+
267.0131	335	C12H6ClF2N2O+
269.0533	12	C12H8F3N2O2+
269.9928	14	C12H4ClF3NO+
270.0408	12	C12H6F4N2O+
271.0488	999	C12H7F4N2O+
271.9959	38	C11H4ClF3N2O+
272.0567	241	C12H8F4N2O+
273.0035	12	C11H5ClF3N2O+
279.031	109	C11H8ClF4N2+
280.0151	27	C11H7ClF4NO+
284.0405	24	C12H7F3N2O3+
286.0115	22	C12H6ClF3N2O+
287.0193	574	C12H7ClF3N2O+
289.999	152	C12H5ClF4NO+
291.0305	19	C12H8ClF4N2+
292.002	488	C11H5ClF4N2O+
299.0438	227	C13H7F4N2O2+
303.0145	14	C12H7ClF3N2O2+
305.0102	32	C12H6ClF4N2O+
305.029	4	C15H8ClF2N2O+
307.0255	860	C12H8ClF4N2O+
313.0598	5	C16H13ClF3O+
315.0142	48	C13H7ClF3N2O2+
317.0102	34	C13H6ClF4N2O+
318.0187	4	C13H7ClF4N2O+
335.0206	70	C13H8ClF4N2O2+
