Mass spectrum: 2-Amino-5-(5-nitro-2-furyl)-1,3,4-oxadiazole; LC-ESI-QFT; MS2; CE: 60; R=17500; [M+H]+
Name: 2-Amino-5-(5-nitro-2-furyl)-1,3,4-oxadiazole
Name: 5-(5-nitrofuran-2-yl)-1,3,4-oxadiazol-2-amine
Formula: C6H4N4O4
Exact mass: 196.0233
SMILES: NC1=NN=C(O1)C1=CC=C(O1)[N+]([O-])=O
InChI: InChI=1S/C6H4N4O4/c7-6-9-8-5(14-6)3-1-2-4(13-3)10(11)12/h1-2H,(H2,7,9)
Instrument: Q Exactive Orbitrap (Thermo Scientific)
Instrument type: LC-ESI-QFT
Ms type: MS2
Ion mode: POSITIVE
Ionization: ESI
Fragmentation mode: HCD
Collision energy: 60
Resolution: 17500
Column name: Acquity BEH C18 1.7um, 2.1x150mm (Waters)
Retention time: 11.208 min
Base peak: 79.0211
Precursor m/z: 197.0305
Precursor type: [M+H]+
Precursor intensity: 922852.75
m/z	relative intensity	assigned
52.0183	75	C3H2N+
52.0309	15	C4H4+
53.0023	44	C3HO+
53.0261	19	C3H3N+
54.0102	34	C3H2O+
54.034	33	C3H4N+
55.018	18	C3H3O+
56.0132	27	C2H2NO+
66.0101	42	C4H2O+
66.034	34	C4H4N+
67.0418	25	C4H5N+
68.0257	56	C4H4O+
68.037	71	C3H4N2+
68.9971	30	C3HO2+
69.9922	23	C2NO2+
71.0128	21	C3H3O2+
78.0212	24	C4H2N2+
79.018	44	C5H3O+
79.0289	73	C4H3N2+
80.0135	18	C4H2NO+
80.0369	258	C4H4N2+
82.005	999	C4H2O2+
86.0349	22	C2H4N3O+
94.0054	15	C5H2O2+
94.0289	66	C5H4NO+
96.0208	27	C5H4O2+
108.0318	191	C5H4N2O+
111.043	43	C4H5N3O+
123.0428	245	C5H5N3O+
134.0113	49	C6H2N2O2+
137.0119	68	C6H3NO3+
151.0378	52	C6H5N3O2+
154.0246	48	C5H4N3O3+
155.0224	65	C6H5NO4+
180.0043	99	C6H2N3O4+
197.031	26	C6H5N4O4+
