Mass spectrum: Warfarin; LC-ESI-QFT; MS2; CE: 45; R=17500; [M+H]+
Name: Warfarin
Name: 4-hydroxy-3-(3-oxo-1-phenylbutyl)chromen-2-one
Formula: C19H16O4
Exact mass: 308.1049
SMILES: CC(=O)CC(C1=CC=CC=C1)C1=C(O)C2=CC=CC=C2OC1=O
InChI: InChI=1S/C19H16O4/c1-12(20)11-15(13-7-3-2-4-8-13)17-18(21)14-9-5-6-10-16(14)23-19(17)22/h2-10,15,21H,11H2,1H3
Instrument: Q Exactive Orbitrap (Thermo Scientific)
Instrument type: LC-ESI-QFT
Ms type: MS2
Ion mode: POSITIVE
Ionization: ESI
Fragmentation mode: HCD
Collision energy: 45
Resolution: 17500
Column name: Acquity BEH C18 1.7um, 2.1x150mm (Waters)
Retention time: 17.456 min
Base peak: 79.0211
Precursor m/z: 309.1121
Precursor type: [M+H]+
Precursor intensity: 14013860.75
m/z	relative intensity	assigned
68.997	3	C3HO2+
77.0387	1	C6H5+
83.0127	1	C4H3O2+
91.0542	16	C7H7+
95.0492	9	C6H7O+
103.0544	1	C8H7+
105.0335	1	C7H5O+
105.0699	4	C8H9+
107.0493	1	C7H7O+
117.0695	1	C9H9+
119.0489	2	C8H7O+
119.0854	1	C9H11+
121.0284	62	C7H5O2+
128.0619	1	C10H8+
129.0698	53	C10H9+
131.0492	38	C9H7O+
139.0394	1	C7H7O3+
143.0856	1	C11H11+
147.0804	158	C10H11O+
153.0696	1	C12H9+
155.0856	29	C12H11+
157.0283	2	C10H5O2+
163.0389	999	C9H7O3+
164.0263	5	C12H4O+
165.07	3	C13H9+
167.0855	11	C13H11+
171.0804	16	C12H11O+
173.0234	3	C10H5O3+
175.0391	15	C10H7O3+
178.0777	4	C14H10+
179.0856	10	C14H11+
181.0647	1	C13H9O+
183.0805	128	C13H11O+
189.0546	18	C11H9O3+
191.0339	228	C10H7O4+
195.0806	8	C14H11O+
203.985	6	C13O3+
205.0491	4	C11H9O4+
205.0648	14	C15H9O+
206.0003	2	C13H2O3+
207.0804	3	C15H11O+
223.0754	48	C15H11O2+
233.0597	19	C16H9O2+
249.055	1	C16H9O3+
251.0702	917	C16H11O3+
267.9825	5	C17O4+
291.1018	4	C19H15O3+
