Mass spectrum: Nuarimol; LC-ESI-QFT; MS2; CE: 60; R=17500; [M+H]+
Name: Nuarimol
Name: (2-chlorophenyl)-(4-fluorophenyl)-pyrimidin-5-ylmethanol
Formula: C17H12ClFN2O
Exact mass: 314.0622
SMILES: OC(C1=CC=C(F)C=C1)(C1=CN=CN=C1)C1=CC=CC=C1Cl
InChI: InChI=1S/C17H12ClFN2O/c18-16-4-2-1-3-15(16)17(22,13-9-20-11-21-10-13)12-5-7-14(19)8-6-12/h1-11,22H
Instrument: Q Exactive Orbitrap (Thermo Scientific)
Instrument type: LC-ESI-QFT
Ms type: MS2
Ion mode: POSITIVE
Ionization: ESI
Fragmentation mode: HCD
Collision energy: 60
Resolution: 17500
Column name: Acquity BEH C18 1.7um, 2.1x150mm (Waters)
Retention time: 17.248 min
Base peak: 79.0212
Precursor m/z: 315.0695
Precursor type: [M+H]+
Precursor intensity: 4694852.3125
m/z	relative intensity	assigned
54.0339	142	C3H4N+
74.096	1	C4H12N+
75.0228	1	C6H3+
81.0448	999	C4H5N2+
86.9996	1	C4H4Cl+
103.0542	1	C8H7+
109.0448	2	C7H6F+
111.0442	2	C3H10ClNO+
113.015	1	C6H6Cl+
113.0396	5	C6H6FO+
121.0447	3	C8H6F+
122.0402	3	C7H5FN+
123.0241	280	C7H4FO+
124.0558	4	C7H7FN+
125.0154	3	C7H6Cl+
128.0494	5	C9H6N+
129.0101	3	C6H6ClO+
129.0573	3	C9H7N+
133.0448	7	C9H6F+
138.9946	453	C7H4ClO+
140.026	5	C7H7ClN+
146.0398	2	C9H5FN+
146.0603	4	C9H8NO+
148.0557	10	C9H7FN+
149.0153	5	C9H6Cl+
155.0605	5	C10H7N2+
156.0442	2	C10H6NO+
156.0682	21	C10H8N2+
157.0761	15	C10H9N2+
158.0399	2	C10H5FN+
158.0599	3	C10H8NO+
164.0262	3	C9H7ClN+
164.0506	2	C9H7FNO+
175.0667	6	C10H8FN2+
176.0507	7	C10H7FNO+
176.062	2	C14H8+
176.0747	3	C10H9FN2+
177.0699	14	C14H9+
183.0618	17	C13H8F+
184.0697	13	C13H9F+
189.07	3	C15H9+
192.0205	1	C10H7ClNO+
195.0599	1	C14H8F+
196.0684	20	C14H9F+
197.0761	15	C14H10F+
203.0617	6	C11H8FN2O+
203.0723	2	C15H9N+
204.0696	4	C11H9FN2O+
204.0808	14	C15H10N+
207.0605	203	C15H8F+
208.0683	152	C15H9F+
209.0636	3	C14H8FN+
209.0762	6	C15H10F+
210.0837	2	C15H11F+
217.0216	40	C13H7ClF+
219.0377	10	C13H9ClF+
220.0761	1	C12H13ClN2+
222.0714	100	C15H9FN+
223.0309	8	C15H8Cl+
223.0559	2	C12H11ClFN+
223.0792	13	C15H10FN+
224.0871	94	C15H11FN+
225.0711	60	C15H10FO+
225.0946	3	C15H12FN+
231.0376	2	C14H9ClF+
234.0714	44	C16H9FN+
235.0322	46	C13H9ClFO+
235.0792	54	C16H10FN+
236.0633	121	C16H9FO+
240.0577	2	C15H11ClN+
242.0837	2	C17H10N2+
243.0373	226	C15H9ClF+
249.0816	1	C16H10FN2+
250.0662	26	C16H9FNO+
251.0745	29	C13H13ClFN2+
251.0978	18	C16H12FN2+
252.082	311	C16H11FNO+
260.0637	5	C15H12ClFN+
261.0822	27	C17H10FN2+
262.0903	23	C17H11FN2+
263.0978	5	C17H12FN2+
269.0393	2	C16H9ClFN+
270.0478	3	C16H10ClFN+
271.0312	1	C16H9ClFO+
297.0587	2	C17H11ClFN2+
