Mass spectrum: Metamitron; LC-ESI-QFT; MS2; CE: 60; R=17500; [M+H]+
Name: Metamitron
Name: 4-amino-3-methyl-6-phenyl-1,2,4-triazin-5-one
Formula: C10H10N4O
Exact mass: 202.0855
SMILES: CC1=NN=C(C(=O)N1N)C1=CC=CC=C1
InChI: InChI=1S/C10H10N4O/c1-7-12-13-9(10(15)14(7)11)8-5-3-2-4-6-8/h2-6H,11H2,1H3
Instrument: Q Exactive Orbitrap (Thermo Scientific)
Instrument type: LC-ESI-QFT
Ms type: MS2
Ion mode: POSITIVE
Ionization: ESI
Fragmentation mode: HCD
Collision energy: 60
Resolution: 17500
Column name: Acquity BEH C18 1.7um, 2.1x150mm (Waters)
Retention time: 12.813 min
Base peak: 79.0212
Precursor m/z: 203.0927
Precursor type: [M+H]+
Precursor intensity: 12430018.125
m/z	relative intensity	assigned
50.0151	1	C4H2+
51.023	1	C4H3+
53.0386	91	C4H5+
55.0179	7	C3H3O+
55.0291	28	C2H3N2+
55.0542	5	C4H7+
56.0131	93	C2H2NO+
56.0369	6	C2H4N2+
57.0447	200	C2H5N2+
59.024	85	CH3N2O+
65.0386	11	C5H5+
66.0464	31	C5H6+
69.0083	5	C2HN2O+
71.0365	8	C3H5NO+
71.0603	6	C3H7N2+
72.0444	26	C3H6NO+
72.0556	93	C2H6N3+
77.0384	26	C6H5+
79.0542	208	C6H7+
80.0494	13	C5H6N+
81.0335	11	C5H5O+
81.0573	6	C5H7N+
83.024	205	C3H3N2O+
89.0386	142	C7H5+
91.0418	1	C6H5N+
91.0543	14	C7H7+
92.0257	29	C6H4O+
92.0495	73	C6H6N+
93.0336	6	C6H5O+
93.0574	15	C6H7N+
94.0413	26	C6H6O+
95.0492	284	C6H7O+
100.0507	6	C3H6N3O+
103.0417	2	C7H5N+
103.0543	16	C8H7+
104.0495	999	C7H6N+
105.0448	122	C6H5N2+
105.0573	32	C7H7N+
106.0651	137	C7H8N+
107.0604	22	C6H7N2+
108.0444	14	C6H6NO+
109.0522	3	C6H7NO+
109.0648	2	C7H9O+
116.0496	11	C8H6N+
117.0336	9	C8H5O+
117.0448	49	C7H5N2+
117.0573	7	C8H7N+
118.0412	3	C8H6O+
118.0525	24	C7H6N2+
118.0652	9	C8H8N+
119.0604	29	C7H7N2+
120.0205	5	C5H2N3O+
120.0808	4	C8H10N+
121.0283	2	C5H3N3O+
122.0602	4	C7H8NO+
130.0289	11	C8H4NO+
130.0652	81	C9H8N+
131.0492	1	C9H7O+
131.0603	10	C8H7N2+
131.0729	2	C9H9N+
132.0682	10	C8H8N2+
134.0602	5	C8H8NO+
134.0713	41	C7H8N3+
136.0757	4	C8H10NO+
143.0604	6	C9H7N2+
145.0397	173	C8H5N2O+
158.0601	2	C10H8NO+
158.0712	38	C9H8N3+
159.0791	67	C9H9N3+
160.0632	1	C9H8N2O+
173.0712	9	C10H9N2O+
174.0789	241	C10H10N2O+
175.0979	791	C9H11N4+
176.0819	3	C9H10N3O+
186.0663	6	C10H8N3O+
187.074	13	C10H9N3O+
203.0928	217	C10H11N4O+
