Mass spectrum: Difenoconazole; LC-ESI-QFT; MS2; CE: 15; R=17500; [M+H]+
Name: Difenoconazole
Formula: C19H17Cl2N3O3
Exact mass: 405.0647
SMILES: CC1COC(CN2C=NC=N2)(O1)C1=C(Cl)C=C(OC2=CC=C(Cl)C=C2)C=C1
InChI: InChI=1S/C19H17Cl2N3O3/c1-13-9-25-19(27-13,10-24-12-22-11-23-24)17-7-6-16(8-18(17)21)26-15-4-2-14(20)3-5-15/h2-8,11-13H,9-10H2,1H3
Instrument: Q Exactive Orbitrap (Thermo Scientific)
Instrument type: LC-ESI-QFT
Ms type: MS2
Ion mode: POSITIVE
Ionization: ESI
Fragmentation mode: HCD
Collision energy: 15
Resolution: 17500
Column name: Acquity BEH C18 1.7um, 2.1x150mm (Waters)
Retention time: 18.993 min
Base peak: 79.0211
Precursor m/z: 406.072
Precursor type: [M+H]+
Precursor intensity: 10051954.625
m/z	relative intensity	assigned
251.0023	65	C13H9Cl2O+
291.0338	4	C16H13Cl2O+
323.0237	1	C16H13Cl2O3+
337.0393	128	C17H15Cl2O3+
406.072	999	C19H18Cl2N3O3+
