Mass spectrum: Oxfendazole; LC-ESI-QFT; MS2; CE: 75; R=17500; [M-H]-
Name: Oxfendazole
Name: methyl N-[6-(benzenesulfinyl)-1H-benzimidazol-2-yl]carbamate
Formula: C15H13N3O3S
Exact mass: 315.0678
SMILES: COC(=O)NC1=NC2=C(N1)C=CC(=C2)S(=O)C1=CC=CC=C1
InChI: InChI=1S/C15H13N3O3S/c1-21-15(19)18-14-16-12-8-7-11(9-13(12)17-14)22(20)10-5-3-2-4-6-10/h2-9H,1H3,(H2,16,17,18,19)
Instrument: Q Exactive Orbitrap (Thermo Scientific)
Instrument type: LC-ESI-QFT
Ms type: MS2
Ion mode: NEGATIVE
Ionization: ESI
Fragmentation mode: HCD
Collision energy: 75
Resolution: 17500
Column name: Acquity BEH C18 1.7um, 2.1x150mm (Waters)
Retention time: 14.468 min
Base peak: 194.0029
Precursor m/z: 314.0605
Precursor type: [M-H]-
Precursor intensity: 332868.2207031
m/z	relative intensity	assigned
65.0147	21	C3HN2-
65.9986	21	C3NO-
95.0251	41	C4H3N2O-
106.0173	76	C5H2N2O-
121.9947	27	C5H2N2S-
129.0331	19	C7H3N3-
133.0281	53	C6H3N3O-
144.0205	65	C7H2N3O-
145.0281	137	C7H3N3O-
149.0052	51	C6H3N3S-
149.0233	65	C6H3N3O2-
157.0285	19	C8H3N3O-
160.0157	84	C7H2N3O2-
173.0231	999	C8H3N3O2-
177	46	C7H3N3OS-
203.9873	39	C8H2N3O2S-
204.9951	932	C8H3N3O2S-
