Mass spectrum: N-Ethyl-4-menthane-3-carboxamide; LC-ESI-QFT; MS2; CE: 15; R=17500; [M+H]+
Name: N-Ethyl-4-menthane-3-carboxamide
Name: N-Ethyl-p-menthane-3-carboxamide
Name: N-ethyl-5-methyl-2-propan-2-ylcyclohexane-1-carboxamide
Formula: C13H25NO
Exact mass: 211.1936
SMILES: CCNC(=O)C1CC(C)CCC1C(C)C
InChI: InChI=1S/C13H25NO/c1-5-14-13(15)12-8-10(4)6-7-11(12)9(2)3/h9-12H,5-8H2,1-4H3,(H,14,15)
Instrument: Q Exactive Orbitrap (Thermo Scientific)
Instrument type: LC-ESI-QFT
Ms type: MS2
Ion mode: POSITIVE
Ionization: ESI
Fragmentation mode: HCD
Collision energy: 15
Resolution: 17500
Column name: Acquity BEH C18 1.7um, 2.1x150mm (Waters)
Retention time: 17.986 min
Base peak: 79.0211
Precursor m/z: 212.2009
Precursor type: [M+H]+
Precursor intensity: 72940151.4375
m/z	relative intensity	assigned
69.0698	1	C5H9+
72.0442	1	C3H6NO+
83.0855	3	C6H11+
170.154	5	C10H20NO+
212.2007	999	C13H26NO+
