Mass spectrum: Tolbutamide; LC-ESI-QFT; MS2; CE: 30; R=17500; [M+H]+
Name: Tolbutamide
Name: 1-butyl-3-(4-methylphenyl)sulfonylurea
Formula: C12H18N2O3S
Exact mass: 270.1038
SMILES: CCCCNC(=O)NS(=O)(=O)C1=CC=C(C)C=C1
InChI: InChI=1S/C12H18N2O3S/c1-3-4-9-13-12(15)14-18(16,17)11-7-5-10(2)6-8-11/h5-8H,3-4,9H2,1-2H3,(H2,13,14,15)
Instrument: Q Exactive Orbitrap (Thermo Scientific)
Instrument type: LC-ESI-QFT
Ms type: MS2
Ion mode: POSITIVE
Ionization: ESI
Fragmentation mode: HCD
Collision energy: 30
Resolution: 17500
Column name: Acquity BEH C18 1.7um, 2.1x150mm (Waters)
Retention time: 16.050 min
Base peak: 79.0211
Precursor m/z: 271.1111
Precursor type: [M+H]+
Precursor intensity: 5445809.1875
m/z	relative intensity	assigned
53.0023	2	C3HO+
55.0178	2	C3H3O+
57.0699	90	C4H9+
65.0385	12	C5H5+
67.0541	4	C5H7+
74.0964	999	C4H12N+
91.0541	26	C7H7+
95.0492	2	C6H7O+
108.0568	1	C7H8O+
109.0648	58	C7H9O+
119.0604	107	C7H7N2+
154.0321	13	C7H8NOS+
155.0161	756	C7H7O2S+
172.0427	308	C7H10NO2S+
187.0428	4	C8H11O3S+
271.111	16	C12H19N2O3S+
