Mass spectrum: SSR126768; LC-ESI-QFT; MS2; CE: 75; R=17500; [M+H]+
Name: SSR126768
Name: 3-chloro-2-[(3R)-5-chloro-1-[(2,4-dimethoxyphenyl)methyl]-3-methyl-2-oxoindol-3-yl]-N-ethyl-N-(pyridin-3-ylmethyl)benzamide
Formula: C33H31Cl2N3O4
Exact mass: 603.1692
SMILES: CCN(Cc1cccnc1)C(=O)c1cccc(Cl)c1[C@]1(C)C(=O)N(Cc2ccc(OC)cc2OC)c2ccc(Cl)cc21
InChI: InChI=1S/C33H31Cl2N3O4/c1-5-37(19-21-8-7-15-36-18-21)31(39)25-9-6-10-27(35)30(25)33(2)26-16-23(34)12-14-28(26)38(32(33)40)20-22-11-13-24(41-3)17-29(22)42-4/h6-18H,5,19-20H2,1-4H3/t33-/m1/s1
Instrument: Q Exactive Orbitrap (Thermo Scientific)
Instrument type: LC-ESI-QFT
Ms type: MS2
Ion mode: POSITIVE
Ionization: ESI
Fragmentation mode: HCD
Collision energy: 75
Resolution: 17500
Column name: Acquity BEH C18 1.7um, 2.1x150mm (Waters)
Retention time: 18.525 min
Base peak: 79.0211
Precursor m/z: 604.1764
Precursor type: [M+H]+
Precursor intensity: 9014558.5
m/z	relative intensity	assigned
50.0151	1	C4H2+
52.0307	1	C4H4+
53.0386	49	C4H5+
55.0179	17	C3H3O+
65.0386	123	C5H5+
67.0542	19	C5H7+
77.0385	17	C6H5+
78.0464	76	C6H6+
79.0178	1	C5H3O+
79.0541	5	C6H7+
80.0493	3	C5H6N+
81.0335	6	C5H5O+
86.9994	1	C4H4Cl+
89.0384	3	C7H5+
91.0542	673	C7H7+
92.0495	112	C6H6N+
93.0573	30	C6H7N+
93.0699	12	C7H9+
94.0651	132	C6H8N+
95.0491	146	C6H7O+
96.0442	3	C5H6NO+
103.0543	7	C8H7+
105.0335	3	C7H5O+
105.0447	56	C6H5N2+
106.0413	60	C7H6O+
107.0492	3	C7H7O+
107.0604	8	C6H7N2+
108.057	5	C7H8O+
108.0808	1	C7H10N+
109.0648	9	C7H9O+
110.0601	7	C6H8NO+
118.065	2	C8H8N+
119.0492	5	C8H7O+
119.0602	4	C7H7N2+
121.0648	999	C8H9O+
123.0804	6	C8H11O+
125.0152	2	C7H6Cl+
128.0495	1	C9H6N+
129.01	3	C6H6ClO+
129.0571	1	C9H7N+
130.065	5	C9H8N+
135.0915	3	C8H11N2+
136.0519	3	C8H8O2+
137.0598	2	C8H9O2+
138.0104	3	C7H5ClN+
138.0677	3	C8H10O2+
138.9943	10	C7H4ClO+
139.0056	5	C6H4ClN2+
139.0753	115	C8H11O2+
140.026	3	C7H7ClN+
149.0709	22	C8H9N2O+
151.0754	220	C9H11O2+
161.0469	2	C9H7NO2+
164.0261	98	C9H7ClN+
167.0727	1	C12H9N+
190.0652	1	C14H8N+
194.0367	8	C10H9ClNO+
202.0651	16	C15H8N+
203.0729	49	C15H9N+
204.0808	41	C15H10N+
205.089	4	C15H11N+
206.06	1	C14H8NO+
206.0964	1	C15H12N+
207.0678	2	C14H9NO+
219.0676	1	C15H9NO+
220.0754	1	C15H10NO+
225.0341	6	C14H8ClN+
230.06	3	C16H8NO+
232.0759	4	C16H10NO+
234.0915	4	C16H12NO+
235.0628	69	C15H9NO2+
237.034	7	C15H8ClN+
238.0417	76	C15H9ClN+
239.0494	10	C15H10ClN+
240.0571	7	C18H8O+
241.0645	1	C18H9O+
242.0365	12	C14H9ClNO+
247.0863	2	C9H21Cl2O3+
248.1185	1	C16H14N3+
253.0283	2	C18H5O2+
254.0366	2	C15H9ClNO+
263.0365	2	C19H5NO+
265.0526	6	C16H10ClN2+
266.0365	10	C16H9ClNO+
268.0521	3	C16H11ClNO+
270.0317	19	C15H9ClNO2+
271.0391	9	C18H7O3+
272.0028	3	C15H8Cl2N+
273.0104	8	C15H9Cl2N+
273.0551	1	C15H12ClNO2+
275.1173	7	C11H25Cl2O3+
282.0316	1	C16H9ClNO2+
289.0051	1	C18H6ClO2+
299.015	3	C16H9Cl2N2+
299.9972	1	C19H5ClO2+
305.0005	26	C15H9Cl2NO2+
309.0784	2	C21H11NO2+
317.025	4	C16H11Cl2N2O+
320.117	1	C18H21ClO3+
343.04	1	C18H13Cl2N2O+
345.0558	7	C18H15Cl2N2O+
