Mass spectrum: AVE3247; LC-ESI-QFT; MS2; CE: 15; R=17500; [M+H]+
Name: AVE3247
Name: 1-[[5-(5-chlorothiophen-2-yl)-1,2-oxazol-3-yl]methyl]-2-[(1-cyclopropylpiperidin-4-yl)carbamoyl]benzimidazole-5-carboxylic acid
Formula: C25H24ClN5O4S
Exact mass: 525.1238
SMILES: OC(=O)C1=CC=C2N(CC3=NOC(=C3)C3=CC=C(Cl)S3)C(=NC2=C1)C(=O)NC1CCN(CC1)C1CC1
InChI: InChI=1S/C25H24ClN5O4S/c26-22-6-5-21(36-22)20-12-16(29-35-20)13-31-19-4-1-14(25(33)34)11-18(19)28-23(31)24(32)27-15-7-9-30(10-8-15)17-2-3-17/h1,4-6,11-12,15,17H,2-3,7-10,13H2,(H,27,32)(H,33,34)
Instrument: Q Exactive Orbitrap (Thermo Scientific)
Instrument type: LC-ESI-QFT
Ms type: MS2
Ion mode: POSITIVE
Ionization: ESI
Fragmentation mode: HCD
Collision energy: 15
Resolution: 17500
Column name: Acquity BEH C18 1.7um, 2.1x150mm (Waters)
Retention time: 15.907 min
Base peak: 79.0211
Precursor m/z: 526.131
Precursor type: [M+H]+
Precursor intensity: 2133726.53125
m/z	relative intensity	assigned
124.1121	15	C8H14N+
167.1179	51	C9H15N2O+
360.0205	27	C16H11ClN3O3S+
455.0574	2	C21H16ClN4O4S+
526.1316	999	C25H25ClN5O4S+
