Mass spectrum: Fenchlorazole-ethyl; LC-ESI-QFT; MS2; CE: 60; R=17500; [M+H]+
Name: Fenchlorazole-ethyl
Name: ethyl 1-(2,4-dichlorophenyl)-5-(trichloromethyl)-1,2,4-triazole-3-carboxylate
Formula: C12H8Cl5N3O2
Exact mass: 400.9059
SMILES: CCOC(=O)C1=NN(C(=N1)C(Cl)(Cl)Cl)C1=C(Cl)C=C(Cl)C=C1
InChI: InChI=1S/C12H8Cl5N3O2/c1-2-22-10(21)9-18-11(12(15,16)17)20(19-9)8-4-3-6(13)5-7(8)14/h3-5H,2H2,1H3
Instrument: Q Exactive Orbitrap (Thermo Scientific)
Instrument type: LC-ESI-QFT
Ms type: MS2
Ion mode: POSITIVE
Ionization: ESI
Fragmentation mode: HCD
Collision energy: 60
Resolution: 17500
Column name: Acquity BEH C18 1.7um, 2.1x150mm (Waters)
Retention time: 18.831 min
Base peak: 79.0211
Precursor m/z: 401.9132
Precursor type: [M+H]+
Precursor intensity: 21888001.625
m/z	relative intensity	assigned
53.0022	4	C3HO+
55.0543	18	C4H7+
57.0699	113	C4H9+
58.0651	1	C3H8N+
62.9633	4	CClO+
62.9994	5	C2H4Cl+
63.0313	9	CH5NO2+
67.0541	16	C5H7+
69.0698	19	C5H9+
73.0284	13	C3H5O2+
77.047	36	C2H7NO2+
81.0699	12	C6H9+
84.984	24	C4H2Cl+
86.9632	3	C3ClO+
86.9745	6	C2ClN2+
90.0547	4	C3H8NO2+
91.0308	6	C4H8Cl+
91.0627	17	C3H9NO2+
94.0178	2	C3H7ClO+
95.0257	3	C3H8ClO+
105.0462	1	C6H5N2+
108.0334	10	C4H9ClO+
108.9838	4	C6H2Cl+
116.906	91	CCl3+
119.0621	28	C7H7N2+
120.9608	10	C4H3Cl2+
126.9946	26	C6H4ClO+
128.0024	29	C6H5ClO+
132.9607	297	C5H3Cl2+
133.0777	19	C8H9N2+
144.9606	12	C6H3Cl2+
145.0051	9	C6H6ClO2+
149.9981	4	C7H3ClN2+
155.0004	2	C6H4ClN2O+
156.9607	2	C7H3Cl2+
159.0211	2	C7H8ClO2+
160.9556	3	C6H3Cl2O+
162.9713	26	C6H5Cl2O+
163.966	3	C8HClO2+
164.001	3	C7H3ClN3+
170.9638	175	C7H3Cl2N+
172.9669	416	C6H3Cl2N2+
184.9669	454	C7H3Cl2N2+
194.964	7	C9H3Cl2N+
195.9588	15	C8H2Cl2N2+
196.9669	28	C8H3Cl2N2+
197.0109	5	C8H6ClN2O2+
197.9618	5	C7H2Cl2N3+
205.9327	24	C7H3Cl3N+
209.9269	4	C9Cl2O2+
212.9615	6	C8H3Cl2N2O+
214.9774	2	C8H5Cl2N2O+
222.9697	10	C9H3Cl2N3+
230.9279	26	C8H2Cl3N2+
240.9018	5	C7H3Cl4N+
251.8935	6	C8H2Cl4N+
256.931	12	C9H2Cl3N3+
257.9388	281	C9H3Cl3N3+
267.968	3	C10H4Cl2N3O2+
268.9754	394	C10H5Cl2N3O2+
282.9913	6	C11H7Cl2N3O2+
285.9331	26	C10H3Cl3N3O+
291.9003	13	C9H2Cl4N3+
301.9289	5	C10H3Cl3N3O2+
302.9368	29	C10H4Cl3N3O2+
303.9443	999	C10H5Cl3N3O2+
317.9595	16	C11H7Cl3N3O2+
319.895	4	C10H2Cl4N3O+
338.9133	180	C10H5Cl4N3O2+
373.8821	119	C10H5Cl5N3O2+
