Mass spectrum: Nicardipine; LC-ESI-QFT; MS2; CE: 15; R=17500; [M+H]+
Name: Nicardipine
Name: 5-O-[2-[benzyl(methyl)amino]ethyl] 3-O-methyl 2,6-dimethyl-4-(3-nitrophenyl)-1,4-dihydropyridine-3,5-dicarboxylate
Formula: C26H29N3O6
Exact mass: 479.2056
SMILES: COC(=O)C1=C(C)NC(C)=C(C1C1=CC(=CC=C1)[N+]([O-])=O)C(=O)OCCN(C)CC1=CC=CC=C1
InChI: InChI=1S/C26H29N3O6/c1-17-22(25(30)34-4)24(20-11-8-12-21(15-20)29(32)33)23(18(2)27-17)26(31)35-14-13-28(3)16-19-9-6-5-7-10-19/h5-12,15,24,27H,13-14,16H2,1-4H3
Instrument: Q Exactive Orbitrap (Thermo Scientific)
Instrument type: LC-ESI-QFT
Ms type: MS2
Ion mode: POSITIVE
Ionization: ESI
Fragmentation mode: HCD
Collision energy: 15
Resolution: 17500
Column name: Acquity BEH C18 1.7um, 2.1x150mm (Waters)
Retention time: 14.916 min
Base peak: 79.0211
Precursor m/z: 480.2129
Precursor type: [M+H]+
Precursor intensity: 23328150.5
m/z	relative intensity	assigned
58.0651	1	C3H8N+
91.0539	7	C7H7+
148.112	155	C10H14N+
166.1226	411	C10H16NO+
315.0974	272	C16H15N2O5+
359.1236	71	C18H19N2O6+
480.213	999	C26H30N3O6+
