Mass spectrum: Nicardipine; LC-ESI-QFT; MS2; CE: 15; R=17500; [M-H]-
Name: Nicardipine
Name: 5-O-[2-[benzyl(methyl)amino]ethyl] 3-O-methyl 2,6-dimethyl-4-(3-nitrophenyl)-1,4-dihydropyridine-3,5-dicarboxylate
Formula: C26H29N3O6
Exact mass: 479.2056
SMILES: COC(=O)C1=C(C)NC(C)=C(C1C1=CC(=CC=C1)[N+]([O-])=O)C(=O)OCCN(C)CC1=CC=CC=C1
InChI: InChI=1S/C26H29N3O6/c1-17-22(25(30)34-4)24(20-11-8-12-21(15-20)29(32)33)23(18(2)27-17)26(31)35-14-13-28(3)16-19-9-6-5-7-10-19/h5-12,15,24,27H,13-14,16H2,1-4H3
Instrument: Q Exactive Orbitrap (Thermo Scientific)
Instrument type: LC-ESI-QFT
Ms type: MS2
Ion mode: NEGATIVE
Ionization: ESI
Fragmentation mode: HCD
Collision energy: 15
Resolution: 17500
Column name: Acquity BEH C18 1.7um, 2.1x150mm (Waters)
Retention time: 14.882 min
Base peak: 307.0283
Precursor m/z: 478.1984
Precursor type: [M-H]-
Precursor intensity: 11899410.43945
m/z	relative intensity	assigned
92.0268	7	C6H4O-
95.0139	1	C5H3O2-
108.0217	3	C6H4O2-
122.0247	225	C6H4NO2-
140.0354	7	C6H6NO3-
166.0145	8	C7H4NO4-
208.0615	11	C13H8N2O-
221.0696	1	C11H11NO4-
224.0718	19	C14H10NO2-
237.0664	2	C14H9N2O2-
251.0586	5	C15H9NO3-
268.0615	29	C15H10NO4-
282.0773	4	C16H12NO4-
295.0722	19	C16H11N2O4-
298.0594	4	C15H10N2O5-
313.083	79	C16H13N2O5-
341.1503	1	C19H21N2O4-
355.1663	100	C20H23N2O4-
428.161	5	C25H22N3O4-
431.1475	3	C24H21N3O5-
446.1722	35	C25H24N3O5-
478.1981	999	C26H28N3O6-
