Mass spectrum: Pyrazophos; LC-ESI-QFT; MS2; CE: 90; R=17500; [M+H]+
Name: Pyrazophos
Name: ethyl 2-diethoxyphosphinothioyloxy-5-methylpyrazolo[1,5-a]pyrimidine-6-carboxylate
Formula: C14H20N3O5PS
Exact mass: 373.0861
SMILES: CCOC(=O)C1=CN2N=C(OP(=S)(OCC)OCC)C=C2N=C1C
InChI: InChI=1S/C14H20N3O5PS/c1-5-19-14(18)11-9-17-12(15-10(11)4)8-13(16-17)22-23(24,20-6-2)21-7-3/h8-9H,5-7H2,1-4H3
Instrument: Q Exactive Orbitrap (Thermo Scientific)
Instrument type: LC-ESI-QFT
Ms type: MS2
Ion mode: POSITIVE
Ionization: ESI
Fragmentation mode: HCD
Collision energy: 90
Resolution: 17500
Column name: Acquity BEH C18 1.7um, 2.1x150mm (Waters)
Retention time: 18.878 min
Base peak: 79.0211
Precursor m/z: 374.0934
Precursor type: [M+H]+
Precursor intensity: 13025105.75
m/z	relative intensity	assigned
51.023	1	C4H3+
52.0181	7	C3H2N+
53.0022	26	C3HO+
54.0338	66	C3H4N+
55.0178	12	C3H3O+
55.0291	2	C2H3N2+
56.0495	57	C3H6N+
61.0106	4	C2H5S+
64.9786	262	H2O2P+
65.0385	35	C5H5+
66.0338	108	C4H4N+
67.0178	24	C4H3O+
67.029	8	C3H3N2+
67.0415	14	C4H5N+
68.013	135	C3H2NO+
68.0494	34	C4H6N+
70.0287	29	C3H4NO+
71.0126	5	C3H3O2+
74.0964	3	C4H12N+
78.0338	69	C5H4N+
78.9402	7	OPS+
78.9943	15	CH4O2P+
79.0291	7	C4H3N2+
80.013	66	C4H2NO+
80.0368	4	C4H4N2+
80.0494	11	C5H6N+
81.0447	60	C4H5N2+
82.0288	23	C4H4NO+
82.0525	4	C4H6N2+
82.9892	6	H4O3P+
83.0127	11	C4H3O2+
83.0604	4	C4H7N2+
84.0444	11	C4H6NO+
92.0368	2	C5H4N2+
92.0494	51	C6H6N+
93.0447	400	C5H5N2+
94.0287	232	C5H4NO+
94.0652	12	C6H8N+
95.0604	85	C5H7N2+
96.0444	14	C5H6NO+
96.9508	24	H2O2PS+
97.0396	8	C4H5N2O+
98.9842	183	H4O4P+
99.0553	31	C4H7N2O+
100.0393	36	C4H6NO2+
104.0368	8	C6H4N2+
105.0447	54	C6H5N2+
106.0288	24	C6H4NO+
106.0525	9	C6H6N2+
107.0239	6	C5H3N2O+
107.0604	1	C6H7N2+
108.0318	9	C5H4N2O+
108.0444	5	C6H6NO+
109.0048	5	C2H6O3P+
109.0396	27	C5H5N2O+
110.0237	7	C5H4NO2+
110.0349	19	C4H4N3O+
110.06	19	C6H8NO+
111.0316	10	C5H5NO2+
111.0553	96	C5H7N2O+
112.0393	48	C5H6NO2+
112.9998	5	CH6O4P+
113.9535	106	H3O3PS+
114.9613	999	H4O3PS+
119.024	13	C6H3N2O+
120.0556	338	C6H6N3+
121.0396	226	C6H5N2O+
122.0236	3	C6H4NO2+
122.0712	19	C6H8N3+
123.0551	7	C6H7N2O+
124.0393	9	C6H6NO2+
124.0507	11	C5H6N3O+
126.0423	6	C5H6N2O2+
127.0501	3	C5H7N2O2+
128.0342	2	C5H6NO3+
128.0452	8	C4H6N3O2+
128.9769	40	CH6O3PS+
130.0399	24	C7H4N3+
130.9561	8	H4O4PS+
131.0107	2	CH8O5P+
131.0239	19	C7H3N2O+
131.0478	41	C7H5N3+
131.0602	2	C8H7N2+
132.0556	6	C7H6N3+
132.9605	10	C2H2N2OPS+
132.9719	7	H6O4PS+
133.0397	14	C7H5N2O+
133.0634	16	C7H7N3+
134.0474	15	C7H6N2O+
135.0429	2	C6H5N3O+
137.0168	13	C6H5N2S+
137.0345	14	C6H5N2O2+
138.0551	2	C7H8NO2+
138.0665	6	C6H8N3O+
139.0502	301	C6H7N2O2+
146.9875	11	CH8O4PS+
148.0505	774	C7H6N3O+
149.0345	95	C7H5N2O2+
149.0582	12	C7H7N3O+
150.0662	28	C7H8N3O+
151.05	2	C7H7N2O2+
152.0456	3	C6H6N3O2+
152.0579	16	C7H8N2O2+
153.0659	3	C7H9N2O2+
155.0451	9	C6H7N2O3+
159.0427	168	C8H5N3O+
160.0505	32	C8H6N3O+
162.9959	3	C7H3N2OS+
164.0454	2	C7H6N3O2+
165.0117	98	C7H5N2OS+
166.0611	395	C7H8N3O2+
167.0452	5	C7H7N2O3+
169.0368	18	C7H7NO4+
169.0609	1	C3H12N3O3P+
170.9636	2	C9O2P+
172.9668	1	C2H6O5PS+
175.0377	11	C8H5N3O2+
176.0454	671	C8H6N3O2+
177.0295	65	C8H5N2O3+
177.0532	219	C8H7N3O2+
178.061	40	C8H8N3O2+
180.0765	17	C10H12O3+
181.0066	28	C7H5N2O2S+
182.014	2	C7H6N2O2S+
183.0223	95	C7H7N2O2S+
190.0068	2	C8H4N3OS+
192.0225	2	C8H6N3OS+
193.0487	2	C8H7N3O3+
194.056	274	C8H8N3O3+
196.9667	1	C4H6O5PS+
199.0172	43	C7H7N2O3S+
207.0097	6	C8H5N3O2S+
208.0717	20	C9H10N3O3+
210.0333	2	C8H8N3O2S+
213.0329	9	C8H9N2O3S+
222.0065	5	C8H5N3O3P+
222.9698	4	C5H6NO5PS+
240.0165	7	C12H4N2O4+
256.0113	3	C12H4N2O5+
