Mass spectrum: 4-Ethoxy-4-oxobut-2-enoic acid; LC-ESI-QFT; MS2; CE: 60; R=17500; [M-H]-
Name: 4-Ethoxy-4-oxobut-2-enoic acid
Formula: C6H8O4
Exact mass: 144.0423
SMILES: CCOC(=O)C=CC(O)=O
InChI: InChI=1S/C6H8O4/c1-2-10-6(9)4-3-5(7)8/h3-4H,2H2,1H3,(H,7,8)
Instrument: Q Exactive Orbitrap (Thermo Scientific)
Instrument type: LC-ESI-QFT
Ms type: MS2
Ion mode: NEGATIVE
Ionization: ESI
Fragmentation mode: HCD
Collision energy: 60
Resolution: 17500
Column name: Acquity BEH C18 1.7um, 2.1x150mm (Waters)
Retention time: 12.845 min
Base peak: 143.035
Precursor m/z: 143.035
Precursor type: [M-H]-
Precursor intensity: 729505.2009277
m/z	relative intensity	assigned
69.0345	180	C4H5O-
71.0139	999	C3H3O2-
75.0088	138	C2H3O3-
84.0215	144	C4H4O2-
