Mass spectrum: UK-373911; LC-ESI-QFT; MS2; CE: 45; R=17500; [M+H]+
Name: UK-373911
Name: (5S,8S)-5-(3,4-dichlorophenyl)-8-(methylamino)-5,6,7,8-tetrahydronaphthalene-2-sulfonamide
Formula: C17H18Cl2N2O2S
Exact mass: 384.0466
SMILES: CN[C@H]1CC[C@@H](C2=CC=C(Cl)C(Cl)=C2)C2=CC=C(C=C12)S(N)(=O)=O
InChI: InChI=1S/C17H18Cl2N2O2S/c1-21-17-7-5-12(10-2-6-15(18)16(19)8-10)13-4-3-11(9-14(13)17)24(20,22)23/h2-4,6,8-9,12,17,21H,5,7H2,1H3,(H2,20,22,23)/t12-,17-/m0/s1
Instrument: Q Exactive Orbitrap (Thermo Scientific)
Instrument type: LC-ESI-QFT
Ms type: MS2
Ion mode: POSITIVE
Ionization: ESI
Fragmentation mode: HCD
Collision energy: 45
Resolution: 17500
Column name: Acquity BEH C18 1.7um, 2.1x150mm (Waters)
Retention time: 14.686 min
Base peak: 79.0211
Precursor m/z: 385.0539
Precursor type: [M+H]+
Precursor intensity: 4118488
m/z	relative intensity	assigned
91.0542	6	C7H7+
103.0543	2	C8H7+
106.0653	2	C7H8N+
115.054	6	C9H7+
122.9997	2	C7H4Cl+
128.062	74	C10H8+
129.07	4	C10H9+
133.0649	3	C9H9O+
143.0604	11	C9H7N2+
143.0734	1	C10H9N+
144.0808	48	C10H10N+
145.0648	14	C10H9O+
155.0604	26	C10H7N2+
158.9763	999	C7H5Cl2+
170.0269	4	C7H8NO2S+
179.0158	6	C9H7O2S+
191.0161	8	C10H7O2S+
202.0779	2	C16H10+
203.0857	10	C16H11+
204.0933	4	C16H12+
237.0466	3	C16H10Cl+
238.0543	18	C16H11Cl+
239.0621	19	C16H12Cl+
259.0077	4	C15H9Cl2+
273.0234	5	C16H11Cl2+
274.031	45	C16H12Cl2+
291.0337	2	C16H13Cl2O+
301.0294	11	C16H11Cl2N2+
319.0429	2	C16H14ClNO2S+
354.012	1	C16H14Cl2NO2S+
