Mass spectrum: Octabenzone; LC-ESI-QFT; MS2; CE: 60; R=17500; [M+H]+
Name: Octabenzone
Name: (2-hydroxy-4-octoxyphenyl)-phenylmethanone
Formula: C21H26O3
Exact mass: 326.1882
SMILES: CCCCCCCCOC1=CC(O)=C(C=C1)C(=O)C1=CC=CC=C1
InChI: InChI=1S/C21H26O3/c1-2-3-4-5-6-10-15-24-18-13-14-19(20(22)16-18)21(23)17-11-8-7-9-12-17/h7-9,11-14,16,22H,2-6,10,15H2,1H3
Instrument: Q Exactive Orbitrap (Thermo Scientific)
Instrument type: LC-ESI-QFT
Ms type: MS2
Ion mode: POSITIVE
Ionization: ESI
Fragmentation mode: HCD
Collision energy: 60
Resolution: 17500
Column name: Acquity BEH C18 1.7um, 2.1x150mm (Waters)
Retention time: 18.891 min
Base peak: 79.0211
Precursor m/z: 327.1955
Precursor type: [M+H]+
Precursor intensity: 12660947.25
m/z	relative intensity	assigned
53.0386	260	C4H5+
55.0179	383	C3H3O+
55.0543	307	C4H7+
57.0699	64	C4H9+
63.0229	526	C5H3+
65.0386	698	C5H5+
67.0543	371	C5H7+
69.0335	91	C4H5O+
69.0699	73	C5H9+
79.0542	294	C6H7+
81.0335	87	C5H5O+
81.0699	48	C6H9+
91.0543	816	C7H7+
93.0335	155	C6H5O+
93.07	582	C7H9+
95.0492	554	C6H7O+
95.0856	135	C7H11+
103.0543	82	C8H7+
105.0699	95	C8H9+
108.0558	75	C7H8O+
110.0714	169	C7H10O+
111.0441	458	C6H7O2+
111.079	129	C7H11O+
115.0541	190	C9H7+
120.0556	154	C8H8O+
122.0714	241	C8H10O+
128.0623	38	C10H8+
132.0558	346	C9H8O+
133.0638	122	C9H9O+
134.0715	208	C9H10O+
136.0868	72	C9H12O+
138.0663	999	C8H10O2+
138.1026	124	C9H14O+
139.0741	819	C8H11O2+
145.0638	44	C10H9O+
146.0713	177	C10H10O+
147.0791	141	C10H11O+
148.0868	100	C10H12O+
150.0664	124	C9H10O2+
150.1028	404	C10H14O+
152.0823	206	C9H12O2+
158.0716	289	C11H10O+
160.0506	274	C10H8O2+
160.0869	243	C11H12O+
161.0947	65	C11H13O+
162.1028	113	C11H14O+
164.0821	121	C10H12O2+
164.118	127	C11H16O+
166.0977	913	C10H14O2+
167.1054	510	C10H15O2+
170.0719	83	C12H10O+
172.0872	129	C12H12O+
173.0581	103	C11H9O2+
178.0979	99	C11H14O2+
180.113	95	C11H16O2+
182.0711	48	C13H10O+
183.079	50	C13H11O+
184.0871	282	C13H12O+
186.0666	197	C12H10O2+
186.1028	116	C13H14O+
188.0819	121	C12H12O2+
190.1345	43	C13H18O+
192.1497	80	C13H20O+
194.129	288	C12H18O2+
196.0871	320	C14H12O+
197.0946	100	C14H13O+
198.0667	88	C13H10O2+
198.1017	161	C14H14O+
199.0749	106	C13H11O2+
200.082	277	C13H12O2+
208.1454	48	C13H20O2+
210.0667	88	C14H10O2+
210.1023	93	C15H14O+
212.082	192	C14H12O2+
212.1185	285	C15H16O+
213.0893	35	C14H13O2+
214.062	43	C13H10O3+
214.0962	58	C14H14O2+
214.1343	89	C15H18O+
224.0821	129	C15H12O2+
225.1258	393	C16H17O+
226.1336	79	C16H18O+
238.0977	82	C16H14O2+
238.1339	96	C17H18O+
240.1494	210	C17H20O+
268.1811	254	C19H24O+
