Mass spectrum: Indapamide; LC-ESI-QFT; MS2; CE: 75; R=17500; [M-H]-
Name: Indapamide
Name: 4-chloro-N-(2-methyl-2,3-dihydroindol-1-yl)-3-sulfamoylbenzamide
Formula: C16H16ClN3O3S
Exact mass: 365.0601
SMILES: CC1CC2=C(C=CC=C2)N1NC(=O)C1=CC(=C(Cl)C=C1)S(N)(=O)=O
InChI: InChI=1S/C16H16ClN3O3S/c1-10-8-11-4-2-3-5-14(11)20(10)19-16(21)12-6-7-13(17)15(9-12)24(18,22)23/h2-7,9-10H,8H2,1H3,(H,19,21)(H2,18,22,23)
Instrument: Q Exactive Orbitrap (Thermo Scientific)
Instrument type: LC-ESI-QFT
Ms type: MS2
Ion mode: NEGATIVE
Ionization: ESI
Fragmentation mode: HCD
Collision energy: 75
Resolution: 17500
Column name: Acquity BEH C18 1.7um, 2.1x150mm (Waters)
Retention time: 14.992 min
Base peak: 112.9857
Precursor m/z: 364.0528
Precursor type: [M-H]-
Precursor intensity: 3037681.11377
m/z	relative intensity	assigned
61.9706	142	NOS-
63.9625	136	O2S-
64.0193	8	C4H2N-
65.9986	16	C3NO-
77.0033	4	C5HO-
77.9656	999	NO2S-
78.9734	368	HNO2S-
79.9812	154	H2NO2S-
80.9651	32	HO3S-
88.0193	39	C6H2N-
89.027	25	C6H3N-
90.035	36	C6H4N-
91.0302	29	C5H3N2-
92.0143	20	C5H2NO-
93.9605	202	NO3S-
103.0305	7	C6H3N2-
103.9903	7	C6O2-
105.0221	117	C6H3NO-
106.0061	19	C6H2O2-
107.9915	13	C5H2NS-
115.0301	68	C7H3N2-
116.0505	40	C8H6N-
120.0093	14	C6H2NO2-
120.0328	31	C6H4N2O-
120.9932	16	C6HO3-
123.9958	12	C6H3ClN-
125.004	17	C6H4ClN-
126.0118	15	C6H5ClN-
130.0663	51	C9H8N-
131.0251	91	C7H3N2O-
132.0329	10	C7H4N2O-
140.9988	11	C6H4ClNO-
141.9828	8	C6H3ClO2-
151.007	49	C7H4ClN2-
153.9969	8	C6H4NO2S-
178.992	47	C7H3N2O2S-
188.9657	21	C6H4ClNO2S-
204.9607	5	C6H4ClNO3S-
214.969	19	C7H4ClN2O2S-
