Mass spectrum: Terbucarb; LC-ESI-QFT; MS2; CE: 45; R=17500; [M+H]+
Name: Terbucarb
Name: (2,6-ditert-butyl-4-methylphenyl) N-methylcarbamate
Formula: C17H27NO2
Exact mass: 277.2042
SMILES: CNC(=O)OC1=C(C=C(C)C=C1C(C)(C)C)C(C)(C)C
InChI: InChI=1S/C17H27NO2/c1-11-9-12(16(2,3)4)14(20-15(19)18-8)13(10-11)17(5,6)7/h9-10H,1-8H3,(H,18,19)
Instrument: Q Exactive Orbitrap (Thermo Scientific)
Instrument type: LC-ESI-QFT
Ms type: MS2
Ion mode: POSITIVE
Ionization: ESI
Fragmentation mode: HCD
Collision energy: 45
Resolution: 17500
Column name: Acquity BEH C18 1.7um, 2.1x150mm (Waters)
Retention time: 20.802 min
Base peak: 79.0211
Precursor m/z: 278.2115
Precursor type: [M+H]+
Precursor intensity: 38270062.65625
m/z	relative intensity	assigned
91.0542	1	C7H7+
107.0729	18	C7H9N+
117.0698	1	C9H9+
120.0807	1	C8H10N+
121.0886	2	C8H11N+
122.0965	15	C8H12N+
134.06	4	C8H8NO+
148.0757	1	C9H10NO+
150.0551	10	C8H8NO2+
151.0628	596	C8H9NO2+
152.0706	1	C8H10NO2+
166.0862	999	C9H12NO2+
263.1877	1	C16H25NO2+
278.2115	81	C17H28NO2+
