Mass spectrum: 4,4`-Methylenebis(2,6-diethylaniline); LC-ESI-QFT; MS2; CE: 75; R=17500; [M+H]+
Name: 4,4'-Methylenebis(2,6-diethylaniline)
Name: 4-[(4-amino-3,5-diethylphenyl)methyl]-2,6-diethylaniline
Formula: C21H30N2
Exact mass: 310.2409
SMILES: CCC1=CC(CC2=CC(CC)=C(N)C(CC)=C2)=CC(CC)=C1N
InChI: InChI=1S/C21H30N2/c1-5-16-10-14(11-17(6-2)20(16)22)9-15-12-18(7-3)21(23)19(8-4)13-15/h10-13H,5-9,22-23H2,1-4H3
Instrument: Q Exactive Orbitrap (Thermo Scientific)
Instrument type: LC-ESI-QFT
Ms type: MS2
Ion mode: POSITIVE
Ionization: ESI
Fragmentation mode: HCD
Collision energy: 75
Resolution: 17500
Column name: Acquity BEH C18 1.7um, 2.1x150mm (Waters)
Retention time: 16.990 min
Base peak: 79.0211
Precursor m/z: 311.2482
Precursor type: [M+H]+
Precursor intensity: 36215874.3125
m/z	relative intensity	assigned
53.0386	1	C4H5+
65.0386	1	C5H5+
67.0541	4	C5H7+
77.0384	1	C6H5+
78.0464	1	C6H6+
79.0542	6	C6H7+
80.0495	3	C5H6N+
91.0542	57	C7H7+
93.0699	4	C7H9+
94.0651	14	C6H8N+
95.0729	1	C6H9N+
103.0542	8	C8H7+
105.0699	74	C8H9+
106.0651	8	C7H8N+
107.0728	1	C7H9N+
107.0855	2	C8H11+
108.0807	1	C7H10N+
115.0542	97	C9H7+
116.0621	26	C9H8+
117.0699	169	C9H9+
118.065	9	C8H8N+
119.073	35	C8H9N+
119.0855	12	C9H11+
120.0807	6	C8H10N+
121.0887	1	C8H11N+
128.062	23	C10H8+
129.0699	37	C10H9+
130.0654	8	C9H8N+
130.0777	58	C10H10+
131.073	8	C9H9N+
131.0855	2	C10H11+
132.0808	51	C9H10N+
133.0886	20	C9H11N+
133.1008	2	C10H13+
134.0964	31	C9H12N+
141.0695	2	C11H9+
142.0777	1	C11H10+
143.0729	2	C10H9N+
143.0855	10	C11H11+
144.0808	5	C10H10N+
145.0888	5	C10H11N+
145.1012	91	C11H13+
146.0964	245	C10H12N+
147.1042	373	C10H13N+
148.1119	3	C10H14N+
155.0605	2	C10H7N2+
157.0885	2	C11H11N+
158.0963	2	C11H12N+
159.1041	1	C11H13N+
160.1122	9	C11H14N+
161.1203	1	C11H15N+
162.1277	999	C11H16N+
165.0701	1	C13H9+
172.112	1	C12H14N+
174.1275	1	C12H16N+
178.078	2	C14H10+
179.0855	2	C14H11+
180.0808	4	C13H10N+
181.0884	2	C13H11N+
190.0777	1	C15H10+
191.0853	4	C15H11+
192.0931	1	C15H12+
193.0888	13	C14H11N+
193.101	1	C15H13+
194.0966	7	C14H12N+
195.1041	1	C14H13N+
203.0855	2	C16H11+
204.0936	4	C16H12+
205.1009	8	C16H13+
206.0964	25	C15H12N+
206.1085	1	C16H14+
207.1043	39	C15H13N+
208.1119	16	C15H14N+
209.1198	3	C15H15N+
210.1278	1	C15H16N+
218.1092	1	C17H14+
219.1165	6	C17H15+
220.1122	11	C16H14N+
220.1245	1	C17H16+
221.1199	79	C16H15N+
222.1151	1	C15H14N2+
222.1274	13	C16H16N+
223.1228	1	C15H15N2+
223.1355	1	C16H17N+
233.1325	3	C18H17+
234.1278	5	C17H16N+
235.1356	16	C17H17N+
236.1433	50	C17H18N+
237.1384	2	C16H17N2+
237.1512	3	C17H19N+
238.159	3	C17H20N+
248.1434	4	C18H18N+
249.1512	3	C18H19N+
250.1591	31	C18H20N+
251.1539	2	C17H19N2+
253.17	1	C17H21N2+
264.1746	62	C19H22N+
265.1692	1	C18H21N2+
265.1826	4	C19H23N+
266.1743	1	C18H22N2+
267.1846	2	C18H23N2+
278.1896	1	C20H24N+
281.2009	2	C19H25N2+
