Mass spectrum: PharmaGSID_48516; LC-ESI-QFT; MS2; CE: 60; R=17500; [M-H]-
Name: 2-chloro-4-fluoro-N-[(E)-2-phenylethenyl]sulfonylbenzamide
Name: 2-Chloro-4-fluoro-N-{[(E)-2-phenylethenyl]sulfonyl}benzamide
Name: PharmaGSID_48516
Formula: C15H11ClFNO3S
Exact mass: 339.0132
SMILES: O=C(NS(=O)(=O)/C=C/c1ccccc1)c1ccc(F)cc1Cl
InChI: InChI=1S/C15H11ClFNO3S/c16-14-10-12(17)6-7-13(14)15(19)18-22(20,21)9-8-11-4-2-1-3-5-11/h1-10H,(H,18,19)/b9-8+
Instrument: Q Exactive Orbitrap (Thermo Scientific)
Instrument type: LC-ESI-QFT
Ms type: MS2
Ion mode: NEGATIVE
Ionization: ESI
Fragmentation mode: HCD
Collision energy: 60
Resolution: 17500
Column name: Acquity BEH C18 1.7um, 2.1x150mm (Waters)
Retention time: 16.712 min
Base peak: 429.0536
Precursor m/z: 338.0059
Precursor type: [M-H]-
Precursor intensity: 20460376.81445
m/z	relative intensity	assigned
61.9706	12	NOS-
63.9624	22	O2S-
64.9704	1	HO2S-
77.9655	13	NO2S-
79.9811	13	H2NO2S-
80.9652	15	HO3S-
91.0553	21	C7H7-
101.0396	504	C8H5-
116.0505	37	C8H6N-
117.0346	150	C8H5O-
119.0502	999	C8H7O-
128.9914	5	C6H3ClF-
136.0206	7	C7H3FNO-
153.9865	8	C7H2ClFN-
167.0171	4	C8H7O2S-
171.9971	24	C7H4ClFNO-
183.0122	7	C8H7O3S-
183.9876	3	C7H3FNO2S-
238.0674	21	C15H9FNO-
