Mass spectrum: Demeton-S-methylsulphon; LC-ESI-QFT; MS2; CE: 30; R=17500; [M+H]+
Name: Demeton-S-methylsulphon
Name: 1-dimethoxyphosphorylsulfanyl-2-ethylsulfonylethane
Formula: C6H15O5PS2
Exact mass: 262.0099
SMILES: CCS(=O)(=O)CCSP(=O)(OC)OC
InChI: InChI=1S/C6H15O5PS2/c1-4-14(8,9)6-5-13-12(7,10-2)11-3/h4-6H2,1-3H3
Instrument: Q Exactive Orbitrap (Thermo Scientific)
Instrument type: LC-ESI-QFT
Ms type: MS2
Ion mode: POSITIVE
Ionization: ESI
Fragmentation mode: HCD
Collision energy: 30
Resolution: 17500
Column name: Acquity BEH C18 1.7um, 2.1x150mm (Waters)
Retention time: 11.013 min
Base peak: 79.0212
Precursor m/z: 263.0171
Precursor type: [M+H]+
Precursor intensity: 5233898.1875
m/z	relative intensity	assigned
58.995	2	C2H3S+
59.0493	1	C3H7O+
61.0106	6	C2H5S+
75.0263	1	C3H7S+
77.0055	4	C2H5OS+
78.9943	1	CH4O2P+
90.9672	1	C2H3S2+
93.0005	10	C2H5O2S+
108.9776	10	C2H5OS2+
109.0052	5	C2H6O3P+
121.0318	416	C4H9O2S+
124.982	9	C2H6O2PS+
127.0155	150	C2H8O4P+
128.977	7	CH6O3PS+
137.009	35	C4H9OS2+
138.9612	1	C2H4O3PS+
140.9772	1	C2H6O3PS+
141.9851	1	C2H7O3PS+
142.9927	247	C2H8O3PS+
152.9769	12	C3H6O3PS+
154.9927	15	C3H8O3PS+
156.9546	1	C2H6O2PS2+
157.0085	2	C3H10O3PS+
169.0083	999	C4H10O3PS+
170.9874	25	C3H8O4PS+
174.9742	3	C2H7O5S2+
184.9491	12	C3H6O3PS2+
185.0036	1	C4H10O4PS+
186.9643	5	C3H8O3PS2+
202.9595	7	C3H8O4PS2+
230.991	115	C5H12O4PS2+
263.0172	168	C6H16O5PS2+
