Mass spectrum: Linuron; LC-ESI-QFT; MS2; CE: 30; R=17500; [M-H]-
Name: Linuron
Name: 3-(3,4-dichlorophenyl)-1-methoxy-1-methylurea
Formula: C9H10Cl2N2O2
Exact mass: 248.0119
SMILES: CON(C)C(=O)NC1=CC=C(Cl)C(Cl)=C1
InChI: InChI=1S/C9H10Cl2N2O2/c1-13(15-2)9(14)12-6-3-4-7(10)8(11)5-6/h3-5H,1-2H3,(H,12,14)
Instrument: Q Exactive Orbitrap (Thermo Scientific)
Instrument type: LC-ESI-QFT
Ms type: MS2
Ion mode: NEGATIVE
Ionization: ESI
Fragmentation mode: HCD
Collision energy: 30
Resolution: 17500
Column name: Acquity BEH C18 1.7um, 2.1x150mm (Waters)
Retention time: 17.426 min
Base peak: 307.0977
Precursor m/z: 247.0047
Precursor type: [M-H]-
Precursor intensity: 650935.3574219
m/z	relative intensity	assigned
123.996	16	C6H3ClN-
149.9753	12	C7HClNO-
159.9726	999	C6H4Cl2N-
185.9519	37	C7H2Cl2NO-
214.9787	106	C8H5Cl2N2O-
231.9817	66	C8H6Cl2N2O2-
