Mass spectrum: Amiodarone hydrochloride; LC-ESI-QFT; MS2; CE: 75; R=17500; [M+H]+
Name: Amiodarone
Name: (2-butyl-1-benzofuran-3-yl)-[4-[2-(diethylamino)ethoxy]-3,5-diiodophenyl]methanone
Formula: C25H29I2NO3
Exact mass: 645.0237
SMILES: CCCCC1=C(C(=O)C2=CC(I)=C(OCCN(CC)CC)C(I)=C2)C2=CC=CC=C2O1
InChI: InChI=1S/C25H29I2NO3/c1-4-7-11-22-23(18-10-8-9-12-21(18)31-22)24(29)17-15-19(26)25(20(27)16-17)30-14-13-28(5-2)6-3/h8-10,12,15-16H,4-7,11,13-14H2,1-3H3
Instrument: Q Exactive Orbitrap (Thermo Scientific)
Instrument type: LC-ESI-QFT
Ms type: MS2
Ion mode: POSITIVE
Ionization: ESI
Fragmentation mode: HCD
Collision energy: 75
Resolution: 17500
Column name: Acquity BEH C18 1.7um, 2.1x150mm (Waters)
Retention time: 18.103 min
Base peak: 79.0211
Precursor m/z: 646.031
Precursor type: [M+H]+
Precursor intensity: 19852610
m/z	relative intensity	assigned
56.0496	2	C3H6N+
58.0651	999	C3H8N+
70.0651	3	C4H8N+
72.0808	86	C4H10N+
73.0887	1	C4H11N+
74.0964	2	C4H12N+
86.0965	67	C5H12N+
89.0386	2	C7H5+
90.0465	1	C7H6+
91.0542	3	C7H7+
95.0491	1	C6H7O+
100.1121	13	C6H14N+
102.0465	1	C8H6+
103.0543	5	C8H7+
105.0336	1	C7H5O+
115.0542	4	C9H7+
117.0698	1	C9H9+
118.0414	2	C8H6O+
128.062	1	C10H8+
129.07	1	C10H9+
131.0492	38	C9H7O+
157.065	1	C11H9O+
159.0441	33	C10H7O2+
163.0542	1	C13H7+
165.07	13	C13H9+
168.0571	2	C12H8O+
169.0648	1	C12H9O+
171.044	3	C11H7O2+
176.0622	2	C14H8+
178.0777	4	C14H10+
179.0492	3	C13H7O+
179.0858	1	C14H11+
189.0701	2	C15H9+
190.078	1	C15H10+
191.0856	4	C15H11+
192.057	14	C14H8O+
193.0649	4	C14H9O+
201.0909	2	C13H13O2+
202.0776	2	C16H10+
203.0857	1	C16H11+
205.0649	15	C15H9O+
206.0726	2	C15H10O+
207.0804	1	C15H11O+
217.9223	3	C6H3IO+
218.0728	4	C16H10O+
219.0805	6	C16H11O+
220.0522	2	C15H8O2+
220.0884	1	C16H12O+
221.0597	7	C15H9O2+
231.0806	3	C17H11O+
233.0597	2	C16H9O2+
234.0677	3	C16H10O2+
235.0753	1	C16H11O2+
245.06	1	C17H9O2+
247.0754	10	C17H11O2+
248.0829	1	C17H12O2+
258.0684	1	C5H23IO3+
259.0753	1	C18H11O2+
261.0551	1	C17H9O3+
275.0701	3	C18H11O3+
346.9564	1	C15H8IO2+
