Mass spectrum: N-(3-Amino-4-methoxyphenyl)acetamide; LC-ESI-QFT; MS2; CE: 75; R=17500; [M-H]-
Name: N-(3-Amino-4-methoxyphenyl)acetamide
Formula: C9H12N2O2
Exact mass: 180.0899
SMILES: COC1=C(N)C=C(NC(C)=O)C=C1
InChI: InChI=1S/C9H12N2O2/c1-6(12)11-7-3-4-9(13-2)8(10)5-7/h3-5H,10H2,1-2H3,(H,11,12)
Instrument: Q Exactive Orbitrap (Thermo Scientific)
Instrument type: LC-ESI-QFT
Ms type: MS2
Ion mode: NEGATIVE
Ionization: ESI
Fragmentation mode: HCD
Collision energy: 75
Resolution: 17500
Column name: Acquity BEH C18 1.7um, 2.1x150mm (Waters)
Retention time: 15.135 min
Base peak: 112.9857
Precursor m/z: 179.0826
Precursor type: [M-H]-
Precursor intensity: 571837.1320801
m/z	relative intensity	assigned
91.0189	186	C6H3O-
134.0248	999	C7H4NO2-
151.0766	67	C9H11O2-
