Mass spectrum: Volinanserin; LC-ESI-QFT; MS2; CE: 30; R=17500; [M+H]+
Name: Volinanserin
Formula: C22H28FNO3
Exact mass: 373.2053
SMILES: COC1=C(OC)C(=CC=C1)[C@H](O)C1CCN(CCC2=CC=C(F)C=C2)CC1
InChI: InChI=1S/C22H28FNO3/c1-26-20-5-3-4-19(22(20)27-2)21(25)17-11-14-24(15-12-17)13-10-16-6-8-18(23)9-7-16/h3-9,17,21,25H,10-15H2,1-2H3/t21-/m1/s1
Instrument: Q Exactive Orbitrap (Thermo Scientific)
Instrument type: LC-ESI-QFT
Ms type: MS2
Ion mode: POSITIVE
Ionization: ESI
Fragmentation mode: HCD
Collision energy: 30
Resolution: 17500
Column name: Acquity BEH C18 1.7um, 2.1x150mm (Waters)
Retention time: 13.634 min
Base peak: 79.0212
Precursor m/z: 374.2126
Precursor type: [M+H]+
Precursor intensity: 41178117
m/z	relative intensity	assigned
82.065	1	C5H8N+
85.0886	2	C5H11N+
96.0808	1	C6H10N+
98.0964	3	C6H12N+
103.0542	2	C8H7+
123.0604	77	C8H8F+
136.0517	1	C8H8O2+
151.0754	6	C9H11O2+
152.0869	214	C9H11FN+
166.1026	7	C10H13FN+
178.1026	11	C11H13FN+
189.0911	2	C9H14FO3+
191.1065	2	C12H15O2+
204.1183	74	C13H15FN+
205.1221	3	C13H17O2+
206.1337	1	C13H17FN+
217.1223	3	C14H17O2+
218.1339	5	C14H17FN+
232.1331	10	C14H18NO2+
234.1486	1	C14H20NO2+
246.1488	1	C15H20NO2+
250.1436	1	C14H20NO3+
324.1758	2	C21H23FNO+
341.1785	7	C21H24FNO2+
356.2019	999	C22H27FNO2+
359.1885	1	C21H26FNO3+
374.2126	325	C22H29FNO3+
