Mass spectrum: Betamethasone; LC-ESI-QFT; MS2; CE: 90; R=17500; [M+H]+
Name: Betamethasone
Name: (8S,9R,10S,11S,13S,14S,16S,17R)-9-fluoro-11,17-dihydroxy-17-(2-hydroxyacetyl)-10,13,16-trimethyl-6,7,8,11,12,14,15,16-octahydrocyclopenta[a]phenanthren-3-one
Formula: C22H29FO5
Exact mass: 392.1999
SMILES: C[C@H]1C[C@H]2[C@@H]3CCC4=CC(=O)C=C[C@]4(C)[C@@]3(F)[C@@H](O)C[C@]2(C)[C@@]1(O)C(=O)CO
InChI: InChI=1S/C22H29FO5/c1-12-8-16-15-5-4-13-9-14(25)6-7-19(13,2)21(15,23)17(26)10-20(16,3)22(12,28)18(27)11-24/h6-7,9,12,15-17,24,26,28H,4-5,8,10-11H2,1-3H3/t12-,15-,16-,17-,19-,20-,21-,22-/m0/s1
Instrument: Q Exactive Orbitrap (Thermo Scientific)
Instrument type: LC-ESI-QFT
Ms type: MS2
Ion mode: POSITIVE
Ionization: ESI
Fragmentation mode: HCD
Collision energy: 90
Resolution: 17500
Column name: Acquity BEH C18 1.7um, 2.1x150mm (Waters)
Retention time: 16.590 min
Base peak: 79.0212
Precursor m/z: 393.2072
Precursor type: [M+H]+
Precursor intensity: 3240729.1875
m/z	relative intensity	assigned
55.0542	83	C4H7+
67.0543	214	C5H7+
79.0543	257	C6H7+
91.0542	999	C7H7+
93.07	173	C7H9+
95.0492	286	C6H7O+
105.07	346	C8H9+
107.0853	68	C8H11+
109.0648	78	C7H9O+
115.0543	320	C9H7+
117.0701	202	C9H9+
119.0857	242	C9H11+
121.0645	319	C8H9O+
128.062	586	C10H8+
129.0698	157	C10H9+
131.0854	97	C10H11+
132.0573	221	C9H8O+
141.0699	141	C11H9+
143.0856	117	C11H11+
147.0807	186	C10H11O+
158.0727	149	C11H10O+
159.0804	76	C11H11O+
167.0857	97	C13H11+
171.0806	166	C12H11O+
178.078	182	C14H10+
179.0859	203	C14H11+
181.0648	135	C13H9O+
195.0804	103	C14H11O+
203.086	109	C16H11+
