Mass spectrum: 8-Methoxypsoralen; LC-ESI-QFT; MS2; CE: 45; R=17500; [M+H]+
Name: 8-Methoxypsoralen
Name: Methoxsalen
Name: 9-methoxyfuro[3,2-g]chromen-7-one
Formula: C12H8O4
Exact mass: 216.0423
SMILES: COC1=C2OC(=O)C=CC2=CC2=C1OC=C2
InChI: InChI=1S/C12H8O4/c1-14-12-10-8(4-5-15-10)6-7-2-3-9(13)16-11(7)12/h2-6H,1H3
Instrument: Q Exactive Orbitrap (Thermo Scientific)
Instrument type: LC-ESI-QFT
Ms type: MS2
Ion mode: POSITIVE
Ionization: ESI
Fragmentation mode: HCD
Collision energy: 45
Resolution: 17500
Column name: Acquity BEH C18 1.7um, 2.1x150mm (Waters)
Retention time: 15.198 min
Base peak: 79.0211
Precursor m/z: 217.0495
Precursor type: [M+H]+
Precursor intensity: 10425088.9375
m/z	relative intensity	assigned
55.0179	1	C3H3O+
55.0542	1	C4H7+
83.049	2	C5H7O+
89.0387	2	C7H5+
91.0541	8	C7H7+
105.0334	5	C7H5O+
105.0698	6	C8H9+
111.0439	4	C6H7O2+
115.0541	52	C9H7+
116.062	1	C9H8+
117.0697	28	C9H9+
118.0412	3	C8H6O+
121.0281	3	C7H5O2+
129.0334	2	C9H5O+
130.0411	3	C9H6O+
131.049	19	C9H7O+
133.0647	8	C9H9O+
143.049	10	C10H7O+
144.0571	1	C10H8O+
145.0285	1	C9H5O2+
145.0646	21	C10H9O+
146.0361	10	C9H6O2+
147.0441	1	C9H7O2+
157.0283	14	C10H5O2+
158.0362	30	C10H6O2+
159.0442	1	C10H7O2+
161.0596	332	C10H9O2+
162.0312	1	C9H6O3+
171.0438	1	C11H7O2+
173.0596	79	C11H9O2+
174.031	140	C10H6O3+
185.0232	137	C11H5O3+
189.0545	145	C11H9O3+
201.0183	2	C11H5O4+
202.0259	999	C11H6O4+
217.0493	898	C12H9O4+
