Mass spectrum: Acifluorfen; LC-ESI-QFT; MS2; CE: 90; R=17500; [M-H]-
Name: Acifluorfen
Name: 5-[2-chloro-4-(trifluoromethyl)phenoxy]-2-nitrobenzoic acid
Formula: C14H7ClF3NO5
Exact mass: 360.9965
SMILES: OC(=O)C1=C(C=CC(OC2=CC=C(C=C2Cl)C(F)(F)F)=C1)[N+]([O-])=O
InChI: InChI=1S/C14H7ClF3NO5/c15-10-5-7(14(16,17)18)1-4-12(10)24-8-2-3-11(19(22)23)9(6-8)13(20)21/h1-6H,(H,20,21)
Instrument: Q Exactive Orbitrap (Thermo Scientific)
Instrument type: LC-ESI-QFT
Ms type: MS2
Ion mode: NEGATIVE
Ionization: ESI
Fragmentation mode: HCD
Collision energy: 90
Resolution: 17500
Column name: Acquity BEH C18 1.7um, 2.1x150mm (Waters)
Retention time: 18.726 min
Base peak: 357.026
Precursor m/z: 359.9892
Precursor type: [M-H]-
Precursor intensity: 11636881.12695
m/z	relative intensity	assigned
68.9958	22	CF3-
84.9907	999	CF3O-
85.9941	70	CH4ClFO-
88.0193	24	C6H2N-
110.0412	11	C6H5FN-
116.0142	42	C7H2NO-
136.0204	67	C7H3FNO-
163.0296	7	C5H6FNO4-
174.9766	8	C7H2ClF2O-
190.0419	9	C14H6O-
194.9829	11	C7H3ClF3O-
