Mass spectrum: 2-(Phenylsulfonyl)aniline; LC-ESI-QFT; MS2; CE: 60; R=17500; [M+H]+
Name: 2-(Phenylsulfonyl)aniline
Name: 2-(benzenesulfonyl)aniline
Formula: C12H11NO2S
Exact mass: 233.0510
SMILES: NC1=CC=CC=C1S(=O)(=O)C1=CC=CC=C1
InChI: InChI=1S/C12H11NO2S/c13-11-8-4-5-9-12(11)16(14,15)10-6-2-1-3-7-10/h1-9H,13H2
Instrument: Q Exactive Orbitrap (Thermo Scientific)
Instrument type: LC-ESI-QFT
Ms type: MS2
Ion mode: POSITIVE
Ionization: ESI
Fragmentation mode: HCD
Collision energy: 60
Resolution: 17500
Column name: Acquity BEH C18 1.7um, 2.1x150mm (Waters)
Retention time: 15.284 min
Base peak: 79.0211
Precursor m/z: 234.0583
Precursor type: [M+H]+
Precursor intensity: 4250690.4375
m/z	relative intensity	assigned
53.0387	5	C4H5+
65.0386	160	C5H5+
66.0464	8	C5H6+
77.0387	2	C6H5+
79.0418	2	C5H5N+
80.0495	94	C5H6N+
91.0543	53	C7H7+
92.0495	999	C6H6N+
93.0574	400	C6H7N+
95.0492	17	C6H7O+
108.0444	308	C6H6NO+
109.0523	2	C6H7NO+
110.0601	23	C6H8NO+
160.0522	2	C10H8O2+
188.0539	81	C11H10NS+
206.0645	179	C11H12NOS+
