Mass spectrum: Isopropalin; LC-ESI-QFT; MS2; CE: 90; R=17500; [M+H]+
Name: Isopropalin
Name: 2,6-dinitro-4-propan-2-yl-N,N-dipropylaniline
Formula: C15H23N3O4
Exact mass: 309.1689
SMILES: CCCN(CCC)C1=C(C=C(C=C1[N+]([O-])=O)C(C)C)[N+]([O-])=O
InChI: InChI=1S/C15H23N3O4/c1-5-7-16(8-6-2)15-13(17(19)20)9-12(11(3)4)10-14(15)18(21)22/h9-11H,5-8H2,1-4H3
Instrument: Q Exactive Orbitrap (Thermo Scientific)
Instrument type: LC-ESI-QFT
Ms type: MS2
Ion mode: POSITIVE
Ionization: ESI
Fragmentation mode: HCD
Collision energy: 90
Resolution: 17500
Column name: Acquity BEH C18 1.7um, 2.1x150mm (Waters)
Retention time: 20.366 min
Base peak: 79.0212
Precursor m/z: 310.1761
Precursor type: [M+H]+
Precursor intensity: 1068501.75
m/z	relative intensity	assigned
52.0183	57	C3H2N+
53.0023	205	C3HO+
53.0386	112	C4H5+
55.0543	108	C4H7+
57.0335	50	C3H5O+
58.0651	60	C3H8N+
65.0385	234	C5H5+
67.0543	144	C5H7+
69.0698	56	C5H9+
78.0465	112	C6H6+
79.0542	411	C6H7+
80.0496	138	C5H6N+
89.0387	119	C7H5+
91.0543	948	C7H7+
92.0496	128	C6H6N+
93.0575	144	C6H7N+
94.0653	144	C6H8N+
95.0493	224	C6H7O+
103.0544	176	C8H7+
104.0497	271	C7H6N+
105.0447	276	C6H5N2+
105.0699	162	C8H9+
106.0651	499	C7H8N+
115.0542	122	C9H7+
116.0496	343	C8H6N+
117.0574	500	C8H7N+
117.0699	140	C9H9+
118.0526	158	C7H6N2+
118.0651	999	C8H8N+
119.0603	136	C7H7N2+
119.073	68	C8H9N+
120.0809	118	C8H10N+
121.0396	107	C6H5N2O+
121.0759	111	C7H9N2+
122.06	49	C7H8NO+
128.0496	92	C9H6N+
130.0654	316	C9H8N+
131.0604	368	C8H7N2+
131.0729	62	C9H9N+
132.0682	278	C8H8N2+
132.0808	232	C9H10N+
133.0397	50	C7H5N2O+
133.0761	392	C8H9N2+
134.0477	75	C7H6N2O+
134.0602	182	C8H8NO+
135.0555	82	C7H7N2O+
143.0602	106	C9H7N2+
144.0681	284	C9H8N2+
145.0761	602	C9H9N2+
147.0554	261	C8H7N2O+
147.0919	112	C9H11N2+
157.0761	163	C10H9N2+
159.0917	156	C10H11N2+
160.0997	66	C10H12N2+
161.0708	340	C9H9N2O+
164.0585	65	C8H8N2O2+
171.0916	461	C11H11N2+
172.0994	76	C11H12N2+
173.1071	381	C11H13N2+
175.0868	296	C10H11N2O+
187.1234	136	C12H15N2+
190.0612	70	C9H8N3O2+
191.0687	68	C9H9N3O2+
191.082	76	C10H11N2O2+
194.0559	85	C8H8N3O3+
203.1181	251	C12H15N2O+
