Mass spectrum: Pargyline; LC-ESI-QFT; MS2; CE: 90; R=17500; [M+H]+
Name: Pargyline
Name: N-benzyl-N-methylprop-2-yn-1-amine
Formula: C11H13N
Exact mass: 159.1048
SMILES: CN(CC#C)CC1=CC=CC=C1
InChI: InChI=1S/C11H13N/c1-3-9-12(2)10-11-7-5-4-6-8-11/h1,4-8H,9-10H2,2H3
Instrument: Q Exactive Orbitrap (Thermo Scientific)
Instrument type: LC-ESI-QFT
Ms type: MS2
Ion mode: POSITIVE
Ionization: ESI
Fragmentation mode: HCD
Collision energy: 90
Resolution: 17500
Column name: Acquity BEH C18 1.7um, 2.1x150mm (Waters)
Retention time: 8.888 min
Base peak: 79.0211
Precursor m/z: 160.1121
Precursor type: [M+H]+
Precursor intensity: 4864601.625
m/z	relative intensity	assigned
56.0495	4	C3H6N+
65.0386	107	C5H5+
68.0494	12	C4H6N+
91.0543	999	C7H7+
103.0544	5	C8H7+
115.0542	8	C9H7+
116.0622	4	C9H8+
117.0698	8	C9H9+
128.0621	48	C10H8+
129.07	16	C10H9+
130.0654	9	C9H8N+
131.0855	2	C10H11+
144.0808	22	C10H10N+
145.0887	4	C10H11N+
160.113	2	C11H14N+
