Mass spectrum: 4-Pentylaniline; LC-ESI-QFT; MS2; CE: 90; R=17500; [M+H]+
Name: 4-Pentylaniline
Formula: C11H17N
Exact mass: 163.1361
SMILES: CCCCCC1=CC=C(N)C=C1
InChI: InChI=1S/C11H17N/c1-2-3-4-5-10-6-8-11(12)9-7-10/h6-9H,2-5,12H2,1H3
Instrument: Q Exactive Orbitrap (Thermo Scientific)
Instrument type: LC-ESI-QFT
Ms type: MS2
Ion mode: POSITIVE
Ionization: ESI
Fragmentation mode: HCD
Collision energy: 90
Resolution: 17500
Column name: Acquity BEH C18 1.7um, 2.1x150mm (Waters)
Retention time: 15.630 min
Base peak: 79.0211
Precursor m/z: 164.1434
Precursor type: [M+H]+
Precursor intensity: 19970813.75
m/z	relative intensity	assigned
51.023	1	C4H3+
53.0386	32	C4H5+
55.0543	27	C4H7+
63.023	3	C5H3+
65.0386	174	C5H5+
66.0464	69	C5H6+
67.0542	9	C5H7+
69.0698	5	C5H9+
77.0385	12	C6H5+
78.0464	5	C6H6+
79.0542	47	C6H7+
81.0699	2	C6H9+
89.0386	29	C7H5+
90.0465	92	C7H6+
91.0543	999	C7H7+
93.0574	71	C6H7N+
94.0652	298	C6H8N+
103.0542	29	C8H7+
104.062	9	C8H8+
105.0699	49	C8H9+
106.0652	268	C7H8N+
107.0729	168	C7H9N+
108.0808	2	C7H10N+
117.0699	7	C9H9+
119.0855	2	C9H11+
120.0809	11	C8H10N+
121.0886	1	C8H11N+
164.1435	31	C11H18N+
