Mass spectrum: Chrysin; LC-ESI-QFT; MS2; CE: 30; R=17500; [M-H]-
Name: Chrysin
Name: 5,7-dihydroxy-2-phenylchromen-4-one
Formula: C15H10O4
Exact mass: 254.0579
SMILES: OC1=CC2=C(C(O)=C1)C(=O)C=C(O2)C1=CC=CC=C1
InChI: InChI=1S/C15H10O4/c16-10-6-11(17)15-12(18)8-13(19-14(15)7-10)9-4-2-1-3-5-9/h1-8,16-17H
Instrument: Q Exactive Orbitrap (Thermo Scientific)
Instrument type: LC-ESI-QFT
Ms type: MS2
Ion mode: NEGATIVE
Ionization: ESI
Fragmentation mode: HCD
Collision energy: 30
Resolution: 17500
Column name: Acquity BEH C18 1.7um, 2.1x150mm (Waters)
Retention time: 17.836 min
Base peak: 253.0506
Precursor m/z: 253.0506
Precursor type: [M-H]-
Precursor intensity: 58920288.91602
m/z	relative intensity	assigned
63.0239	3	C5H3-
65.003	1	C4HO-
107.0139	5	C6H3O2-
143.0501	3	C10H7O-
145.0294	1	C9H5O2-
151.0037	1	C7H3O4-
165.071	1	C13H9-
180.0577	1	C13H8O-
181.0662	2	C13H9O-
185.0608	2	C12H9O2-
187.04	1	C11H7O3-
209.0609	12	C14H9O2-
211.0401	2	C13H7O3-
253.0506	999	C15H9O4-
