Mass spectrum: 2-Amino-5-nitrophenol; LC-ESI-QFT; MS2; CE: 15; R=17500; [M-H]-
Name: 2-Amino-5-nitrophenol
Formula: C6H6N2O3
Exact mass: 154.0378
SMILES: NC1=C(O)C=C(C=C1)[N+]([O-])=O
InChI: InChI=1S/C6H6N2O3/c7-5-2-1-4(8(10)11)3-6(5)9/h1-3,9H,7H2
Instrument: Q Exactive Orbitrap (Thermo Scientific)
Instrument type: LC-ESI-QFT
Ms type: MS2
Ion mode: NEGATIVE
Ionization: ESI
Fragmentation mode: HCD
Collision energy: 15
Resolution: 17500
Column name: Acquity BEH C18 1.7um, 2.1x150mm (Waters)
Retention time: 11.039 min
Base peak: 153.0305
Precursor m/z: 153.0306
Precursor type: [M-H]-
Precursor intensity: 7737404.384521
m/z	relative intensity	assigned
68.014	1	C3H2NO-
106.0297	6	C6H4NO-
122.0246	161	C6H4NO2-
123.0324	29	C6H5NO2-
153.0304	999	C6H5N2O3-
