Mass spectrum: 4,4`-Methylenebis(2,6-diethylaniline); LC-ESI-QFT; MS2; CE: 45; R=17500; [M+H]+
Name: 4,4'-Methylenebis(2,6-diethylaniline)
Name: 4-[(4-amino-3,5-diethylphenyl)methyl]-2,6-diethylaniline
Formula: C21H30N2
Exact mass: 310.2409
SMILES: CCC1=CC(CC2=CC(CC)=C(N)C(CC)=C2)=CC(CC)=C1N
InChI: InChI=1S/C21H30N2/c1-5-16-10-14(11-17(6-2)20(16)22)9-15-12-18(7-3)21(23)19(8-4)13-15/h10-13H,5-9,22-23H2,1-4H3
Instrument: Q Exactive Orbitrap (Thermo Scientific)
Instrument type: LC-ESI-QFT
Ms type: MS2
Ion mode: POSITIVE
Ionization: ESI
Fragmentation mode: HCD
Collision energy: 45
Resolution: 17500
Column name: Acquity BEH C18 1.7um, 2.1x150mm (Waters)
Retention time: 16.990 min
Base peak: 79.0211
Precursor m/z: 311.2482
Precursor type: [M+H]+
Precursor intensity: 33129501.40625
m/z	relative intensity	assigned
91.0541	4	C7H7+
93.0699	1	C7H9+
103.0541	1	C8H7+
105.0698	10	C8H9+
106.0651	1	C7H8N+
115.0541	3	C9H7+
116.0619	1	C9H8+
117.0698	84	C9H9+
118.0648	1	C8H8N+
119.0855	5	C9H11+
120.0808	1	C8H10N+
128.0618	2	C10H8+
129.0697	2	C10H9+
130.0777	10	C10H10+
131.0728	1	C9H9N+
131.0853	1	C10H11+
132.0807	4	C9H10N+
133.0885	1	C9H11N+
133.101	5	C10H13+
134.0963	14	C9H12N+
143.0856	4	C11H11+
145.1011	209	C11H13+
146.0962	12	C10H12N+
147.1042	8	C10H13N+
147.1167	15	C11H15+
148.1119	6	C10H14N+
149.12	1	C10H15N+
157.1011	1	C12H13+
160.1121	9	C11H14N+
162.1275	999	C11H16N+
174.1276	5	C12H16N+
193.1014	1	C15H13+
206.1087	1	C16H14+
207.1042	1	C15H13N+
207.117	1	C16H15+
208.1119	1	C15H14N+
220.1243	1	C17H16+
221.1198	4	C16H15N+
222.1273	3	C16H16N+
233.132	1	C18H17+
236.1432	27	C17H18N+
237.151	4	C17H19N+
238.1587	3	C17H20N+
248.1558	1	C19H20+
249.151	1	C18H19N+
250.1588	30	C18H20N+
253.1696	1	C17H21N2+
264.1743	7	C19H22N+
265.1823	52	C19H23N+
266.1903	10	C19H24N+
267.1858	1	C18H23N2+
278.1897	1	C20H24N+
279.1981	1	C20H25N+
281.2008	1	C19H25N2+
292.2059	2	C21H26N+
294.2215	36	C21H28N+
295.2165	14	C20H27N2+
296.2244	1	C20H28N2+
309.2324	29	C21H29N2+
311.2479	475	C21H31N2+
