Mass spectrum: 17-Methyltestosterone; LC-ESI-QFT; MS2; CE: 60; R=17500; [M+H]+
Name: 17-Methyltestosterone
Name: Methyltestosterone
Name: (8R,9S,10R,13S,14S,17S)-17-hydroxy-10,13,17-trimethyl-2,6,7,8,9,11,12,14,15,16-decahydro-1H-cyclopenta[a]phenanthren-3-one
Formula: C20H30O2
Exact mass: 302.2246
SMILES: C[C@]1(O)CC[C@H]2[C@@H]3CCC4=CC(=O)CC[C@]4(C)[C@H]3CC[C@]12C
InChI: InChI=1S/C20H30O2/c1-18-9-6-14(21)12-13(18)4-5-15-16(18)7-10-19(2)17(15)8-11-20(19,3)22/h12,15-17,22H,4-11H2,1-3H3/t15-,16+,17+,18+,19+,20+/m1/s1
Instrument: Q Exactive Orbitrap (Thermo Scientific)
Instrument type: LC-ESI-QFT
Ms type: MS2
Ion mode: POSITIVE
Ionization: ESI
Fragmentation mode: HCD
Collision energy: 60
Resolution: 17500
Column name: Acquity BEH C18 1.7um, 2.1x150mm (Waters)
Retention time: 18.150 min
Base peak: 79.0212
Precursor m/z: 303.2319
Precursor type: [M+H]+
Precursor intensity: 6211729.1875
m/z	relative intensity	assigned
53.0022	2	C3HO+
53.0386	5	C4H5+
55.0179	12	C3H3O+
55.0543	17	C4H7+
57.0335	1	C3H5O+
57.0699	3	C4H9+
65.0386	3	C5H5+
67.0542	51	C5H7+
69.0335	4	C4H5O+
69.0698	40	C5H9+
71.0491	6	C4H7O+
77.0383	1	C6H5+
79.0542	116	C6H7+
81.0699	136	C6H9+
83.0492	66	C5H7O+
83.0855	7	C6H11+
85.0649	2	C5H9O+
91.0543	42	C7H7+
93.0699	114	C7H9+
94.0415	2	C6H6O+
95.0492	12	C6H7O+
95.0856	142	C7H11+
97.0648	999	C6H9O+
105.0699	70	C8H9+
107.0491	9	C7H7O+
107.0856	115	C8H11+
109.0648	936	C7H9O+
111.0803	5	C7H11O+
115.054	1	C9H7+
117.0699	14	C9H9+
119.0856	87	C9H11+
121.0648	36	C8H9O+
121.1012	82	C9H13+
123.0805	119	C8H11O+
123.1168	8	C9H15+
125.096	2	C8H13O+
128.0621	1	C10H8+
129.0699	7	C10H9+
131.0856	32	C10H11+
133.1012	66	C10H13+
135.0802	6	C9H11O+
135.1169	25	C10H15+
137.0962	10	C9H13O+
137.1325	4	C10H17+
141.07	2	C11H9+
142.0775	4	C11H10+
143.0855	17	C11H11+
144.0933	2	C11H12+
145.1012	37	C11H13+
147.0803	3	C10H11O+
147.1169	29	C11H15+
149.0962	18	C10H13O+
149.1326	18	C11H17+
151.1115	2	C10H15O+
155.0858	9	C12H11+
156.0932	4	C12H12+
157.1013	26	C12H13+
158.1088	1	C12H14+
159.1169	41	C12H15+
161.0961	5	C11H13O+
161.1325	23	C12H17+
163.1119	12	C11H15O+
163.1479	4	C12H19+
169.1012	10	C13H13+
170.109	2	C13H14+
171.1169	24	C13H15+
173.1325	15	C13H17+
175.1117	3	C12H15O+
175.1483	12	C13H19+
177.1274	13	C12H17O+
177.1636	4	C13H21+
181.1004	1	C14H13+
183.117	9	C14H15+
185.1326	19	C14H17+
187.1483	14	C14H19+
189.1272	4	C13H17O+
189.1639	12	C14H21+
196.1245	1	C15H16+
197.1324	7	C15H17+
199.1484	7	C15H19+
201.1272	1	C14H17O+
201.1638	8	C15H21+
211.1483	12	C16H19+
213.1638	1	C16H21+
215.1428	4	C15H19O+
215.1791	3	C16H23+
225.1638	5	C17H21+
227.1793	18	C17H23+
229.1585	2	C16H21O+
241.1949	1	C18H25+
243.1736	1	C17H23O+
245.1901	2	C17H25O+
252.187	2	C19H24+
267.2111	5	C20H27+
285.2215	2	C20H29O+
