Mass spectrum: Sulfaquinoxaline; LC-ESI-QFT; MS2; CE: 60; R=17500; [M+H]+
Name: Sulfaquinoxaline
Name: 4-amino-N-quinoxalin-2-ylbenzenesulfonamide
Formula: C14H12N4O2S
Exact mass: 300.0681
SMILES: NC1=CC=C(C=C1)S(=O)(=O)NC1=CN=C2C=CC=CC2=N1
InChI: InChI=1S/C14H12N4O2S/c15-10-5-7-11(8-6-10)21(19,20)18-14-9-16-12-3-1-2-4-13(12)17-14/h1-9H,15H2,(H,17,18)
Instrument: Q Exactive Orbitrap (Thermo Scientific)
Instrument type: LC-ESI-QFT
Ms type: MS2
Ion mode: POSITIVE
Ionization: ESI
Fragmentation mode: HCD
Collision energy: 60
Resolution: 17500
Column name: Acquity BEH C18 1.7um, 2.1x150mm (Waters)
Retention time: 13.985 min
Base peak: 79.0211
Precursor m/z: 301.0754
Precursor type: [M+H]+
Precursor intensity: 6101000.9375
m/z	relative intensity	assigned
53.0022	5	C3HO+
53.0386	9	C4H5+
54.0338	7	C3H4N+
55.0178	9	C3H3O+
65.0386	235	C5H5+
67.0178	2	C4H3O+
67.0416	2	C4H5N+
68.0495	156	C4H6N+
69.0335	11	C4H5O+
74.0963	1	C4H12N+
78.0338	18	C5H4N+
79.0178	26	C5H3O+
80.0494	46	C5H6N+
81.0335	1	C5H5O+
82.0288	5	C4H4NO+
83.0491	1	C5H7O+
90.0338	1	C6H4N+
92.0495	650	C6H6N+
93.0573	4	C6H7N+
94.0651	6	C6H8N+
95.0366	6	C5H5NO+
96.0444	23	C5H6NO+
107.0604	2	C6H7N2+
108.0444	999	C6H6NO+
109.0522	6	C6H7NO+
110.06	233	C6H8NO+
117.0447	3	C7H5N2+
118.0525	38	C7H6N2+
119.0604	4	C7H7N2+
120.0556	26	C6H6N3+
124.0758	5	C7H10NO+
129.0446	4	C8H5N2+
130.0395	1	C7H4N3+
131.0605	1	C8H7N2+
144.0556	16	C8H6N3+
145.0634	25	C8H7N3+
146.0713	192	C8H8N3+
147.0553	20	C8H7N2O+
156.0114	100	C6H6NO2S+
161.0706	1	C9H9N2O+
162.0662	2	C8H8N3O+
226.0276	2	C14H2N4+
235.0977	12	C14H11N4+
