Mass spectrum: Triamcinolone acetonide; LC-ESI-QFT; MS2; CE: 60; R=17500; [M+H]+
Name: Triamcinolone acetonide
Name: (1S,2S,4R,8S,9S,11S,12R,13S)-12-fluoro-11-hydroxy-8-(2-hydroxyacetyl)-6,6,9,13-tetramethyl-5,7-dioxapentacyclo[10.8.0.02,9.04,8.013,18]icosa-14,17-dien-16-one
Formula: C24H31FO6
Exact mass: 434.2105
SMILES: CC1(C)O[C@@H]2C[C@H]3[C@@H]4CCC5=CC(=O)C=C[C@]5(C)[C@@]4(F)[C@@H](O)C[C@]3(C)[C@@]2(O1)C(=O)CO
InChI: InChI=1S/C24H31FO6/c1-20(2)30-19-10-16-15-6-5-13-9-14(27)7-8-21(13,3)23(15,25)17(28)11-22(16,4)24(19,31-20)18(29)12-26/h7-9,15-17,19,26,28H,5-6,10-12H2,1-4H3/t15-,16-,17-,19+,21-,22-,23-,24+/m0/s1
Instrument: Q Exactive Orbitrap (Thermo Scientific)
Instrument type: LC-ESI-QFT
Ms type: MS2
Ion mode: POSITIVE
Ionization: ESI
Fragmentation mode: HCD
Collision energy: 60
Resolution: 17500
Column name: Acquity BEH C18 1.7um, 2.1x150mm (Waters)
Retention time: 16.761 min
Base peak: 79.0211
Precursor m/z: 435.2177
Precursor type: [M+H]+
Precursor intensity: 4866375.6875
m/z	relative intensity	assigned
51.0228	22	C4H3+
53.0387	79	C4H5+
55.0179	248	C3H3O+
55.0543	76	C4H7+
59.0492	337	C3H7O+
67.0543	171	C5H7+
69.0335	147	C4H5O+
69.0699	38	C5H9+
71.0492	37	C4H7O+
79.0543	263	C6H7+
81.0336	50	C5H5O+
81.0699	267	C6H9+
83.0492	61	C5H7O+
91.0543	441	C7H7+
93.07	405	C7H9+
95.0492	216	C6H7O+
95.0855	244	C7H11+
97.0286	64	C5H5O2+
97.065	77	C6H9O+
101.0234	31	C4H5O3+
103.0544	61	C8H7+
105.07	615	C8H9+
107.0493	68	C7H7O+
107.0856	141	C8H11+
109.0649	181	C7H9O+
111.0807	71	C7H11O+
115.0545	108	C9H7+
116.0623	29	C9H8+
117.07	135	C9H9+
119.0493	44	C8H7O+
119.0857	246	C9H11+
121.0648	999	C8H9O+
123.0443	57	C7H7O2+
123.0806	39	C8H11O+
125.06	38	C7H9O2+
128.0621	165	C10H8+
129.07	133	C10H9+
131.0856	246	C10H11+
132.0572	79	C9H8O+
133.065	106	C9H9O+
133.1014	32	C10H13+
135.0804	197	C9H11O+
137.0599	55	C8H9O2+
139.0752	37	C8H11O2+
141.07	142	C11H9+
142.078	70	C11H10+
143.0857	329	C11H11+
144.0572	92	C10H8O+
145.0649	407	C10H9O+
145.1014	102	C11H13+
146.0727	57	C10H10O+
147.0805	996	C10H11O+
151.0391	34	C8H7O3+
151.0752	25	C9H11O2+
153.0699	41	C12H9+
155.0855	258	C12H11+
157.0651	56	C11H9O+
157.1013	48	C12H13+
158.0727	243	C11H10O+
159.0805	761	C11H11O+
161.0597	55	C10H9O2+
161.0963	201	C11H13O+
165.0704	157	C13H9+
166.0778	54	C13H10+
167.0859	105	C13H11+
169.0652	104	C12H9O+
169.1016	66	C13H13+
170.0728	44	C12H10O+
171.0806	918	C12H11O+
172.0886	76	C12H12O+
173.0963	351	C12H13O+
178.078	85	C14H10+
179.0859	209	C14H11+
180.0936	110	C14H12+
181.0651	67	C13H9O+
181.1014	101	C14H13+
182.073	110	C13H10O+
182.1092	35	C14H14+
183.0802	122	C13H11O+
184.0887	56	C13H12O+
185.0602	25	C12H9O2+
185.0962	219	C13H13O+
187.0757	94	C12H11O2+
187.112	29	C13H15O+
189.0711	37	C12H10FO+
190.078	66	C15H10+
191.0859	93	C15H11+
192.0933	177	C15H12+
193.1012	156	C15H13+
194.0731	63	C14H10O+
195.0809	235	C14H11O+
195.1169	133	C15H15+
196.0886	162	C14H12O+
197.0962	228	C14H13O+
198.1043	132	C14H14O+
199.1122	73	C14H15O+
202.078	35	C16H10+
204.0938	76	C16H12+
205.1011	124	C16H13+
206.1092	84	C16H14+
207.0807	50	C15H11O+
207.1171	210	C16H15+
208.0886	302	C15H12O+
209.0964	392	C15H13O+
210.1041	278	C15H14O+
211.112	123	C15H15O+
212.1192	30	C15H16O+
213.0916	29	C14H13O2+
213.1275	505	C15H17O+
215.0857	54	C17H11+
216.0929	32	C17H12+
218.1093	67	C17H14+
219.0809	103	C16H11O+
219.1172	72	C17H15+
221.0961	174	C16H13O+
221.1328	43	C17H17+
222.1043	189	C16H14O+
223.112	285	C16H15O+
224.1195	63	C16H16O+
225.1275	173	C16H17O+
229.1016	41	C18H13+
231.0805	34	C17H11O+
231.1165	69	C18H15+
233.0965	148	C17H13O+
234.1042	152	C17H14O+
235.1119	299	C17H15O+
236.1204	40	C14H17FO2+
237.0908	34	C16H13O2+
237.1278	103	C17H17O+
242.1093	46	C19H14+
243.1171	27	C19H15+
245.0964	196	C18H13O+
246.1041	124	C18H14O+
248.12	252	C18H16O+
249.1276	61	C18H17O+
251.1075	34	C14H16FO3+
251.1431	53	C18H19O+
253.1588	28	C18H21O+
258.1033	31	C19H14O+
259.1114	66	C19H15O+
260.1201	111	C19H16O+
261.1279	90	C19H17O+
263.1435	67	C19H19O+
264.1131	32	C18H16O2+
270.1036	27	C20H14O+
275.1433	50	C20H19O+
288.1138	29	C20H16O2+
