Mass spectrum: Folic acid; LC-ESI-QFT; MS2; CE: 75; R=17500; [M-H]-
Name: Folic acid
Name: (2S)-2-[[4-[(2-amino-4-oxo-1H-pteridin-6-yl)methylamino]benzoyl]amino]pentanedioic acid
Formula: C19H19N7O6
Exact mass: 441.1397
SMILES: NC1=NC(=O)C2=C(N1)N=CC(CNC1=CC=C(C=C1)C(=O)N[C@@H](CCC(O)=O)C(O)=O)=N2
InChI: InChI=1S/C19H19N7O6/c20-19-25-15-14(17(30)26-19)23-11(8-22-15)7-21-10-3-1-9(2-4-10)16(29)24-12(18(31)32)5-6-13(27)28/h1-4,8,12,21H,5-7H2,(H,24,29)(H,27,28)(H,31,32)(H3,20,22,25,26,30)/t12-/m0/s1
Instrument: Q Exactive Orbitrap (Thermo Scientific)
Instrument type: LC-ESI-QFT
Ms type: MS2
Ion mode: NEGATIVE
Ionization: ESI
Fragmentation mode: HCD
Collision energy: 75
Resolution: 17500
Column name: Acquity BEH C18 1.7um, 2.1x150mm (Waters)
Retention time: 11.004 min
Base peak: 116.9285
Precursor m/z: 440.1324
Precursor type: [M-H]-
Precursor intensity: 621291.9033203
m/z	relative intensity	assigned
65.0146	24	C3HN2-
66.0098	324	C2N3-
84.0455	33	C4H6NO-
92.0507	314	C6H6N-
102.056	102	C4H8NO2-
105.0332	69	C5H3N3-
117.046	49	C7H5N2-
119.0363	74	C5H3N4-
128.0355	41	C5H6NO3-
132.0442	999	C6H4N4-
133.0521	48	C6H5N4-
136.0406	30	C7H6NO2-
147.0567	23	C8H7N2O-
164.0339	131	C6H4N4O2-
175.05	92	C7H5N5O-
