Mass spectrum: CI-1044; LC-ESI-QFT; MS2; CE: 15; R=17500; [M+H]+
Name: CI-1044
Name: N-[(11R)-6-amino-12-oxo-9-phenyl-1,10-diazatricyclo[6.4.1.04,13]trideca-4(13),5,7,9-tetraen-11-yl]pyridine-3-carboxamide
Formula: C23H19N5O2
Exact mass: 397.1539
SMILES: NC1=CC2=C3N(CCC3=C1)C(=O)[C@H](NC(=O)C1=CC=CN=C1)N=C2C1=CC=CC=C1
InChI: InChI=1S/C23H19N5O2/c24-17-11-15-8-10-28-20(15)18(12-17)19(14-5-2-1-3-6-14)26-21(23(28)30)27-22(29)16-7-4-9-25-13-16/h1-7,9,11-13,21H,8,10,24H2,(H,27,29)/t21-/m0/s1
Instrument: Q Exactive Orbitrap (Thermo Scientific)
Instrument type: LC-ESI-QFT
Ms type: MS2
Ion mode: POSITIVE
Ionization: ESI
Fragmentation mode: HCD
Collision energy: 15
Resolution: 17500
Column name: Acquity BEH C18 1.7um, 2.1x150mm (Waters)
Retention time: 12.998 min
Base peak: 79.0211
Precursor m/z: 398.1612
Precursor type: [M+H]+
Precursor intensity: 6599005.125
m/z	relative intensity	assigned
248.1171	6	C16H14N3+
276.1131	603	C17H14N3O+
381.1354	3	C23H17N4O2+
398.1611	999	C23H20N5O2+
