Mass spectrum: Topramezone; LC-ESI-QFT; MS2; CE: 15; R=17500; [M-H]-
Name: Topramezone
Formula: C16H17N3O5S
Exact mass: 363.0889
SMILES: CN1N=CC(C(=O)C2=C(C)C(C3=NOCC3)=C(C=C2)S(C)(=O)=O)=C1O
InChI: InChI=1S/C16H17N3O5S/c1-9-10(15(20)11-8-17-19(2)16(11)21)4-5-13(25(3,22)23)14(9)12-6-7-24-18-12/h4-5,8,21H,6-7H2,1-3H3
Instrument: Q Exactive Orbitrap (Thermo Scientific)
Instrument type: LC-ESI-QFT
Ms type: MS2
Ion mode: NEGATIVE
Ionization: ESI
Fragmentation mode: HCD
Collision energy: 15
Resolution: 17500
Column name: Acquity BEH C18 1.7um, 2.1x150mm (Waters)
Retention time: 12.785 min
Base peak: 200.0387
Precursor m/z: 362.0816
Precursor type: [M-H]-
Precursor intensity: 423517.4433594
m/z	relative intensity	assigned
334.0497	12	C14H12N3O5S-
362.0819	999	C16H16N3O5S-
