Mass spectrum: PharmaGSID_48507; LC-ESI-QFT; MS2; CE: 60; R=17500; [M-H]-
Name: PharmaGSID_48507
Name: 5-(2,4-Difluorophenoxy)-2-[(2-hydroxy-2-methylpropyl)amino]-8-methylpyrido[2,3-d]pyrimidin-7(8H)-one
Formula: C18H18F2N4O3
Exact mass: 376.1347
SMILES: CN1C(=O)C=C(OC2=C(F)C=C(F)C=C2)C2=C1N=C(NCC(C)(C)O)N=C2
InChI: InChI=1S/C18H18F2N4O3/c1-18(2,26)9-22-17-21-8-11-14(7-15(25)24(3)16(11)23-17)27-13-5-4-10(19)6-12(13)20/h4-8,26H,9H2,1-3H3,(H,21,22,23)
Instrument: Q Exactive Orbitrap (Thermo Scientific)
Instrument type: LC-ESI-QFT
Ms type: MS2
Ion mode: NEGATIVE
Ionization: ESI
Fragmentation mode: HCD
Collision energy: 60
Resolution: 17500
Column name: Acquity BEH C18 1.7um, 2.1x150mm (Waters)
Retention time: 16.608 min
Base peak: 206.007
Precursor m/z: 375.1274
Precursor type: [M-H]-
Precursor intensity: 4934197.929687
m/z	relative intensity	assigned
74.0035	2	C5N-
76.0193	9	C5H2N-
89.0033	25	C6HO-
91.0303	5	C5H3N2-
93.0146	31	C6H2F-
103.0302	34	C6H3N2-
105.0333	2	C5H3N3-
105.046	5	C6H5N2-
106.0172	11	C5H2N2O-
108.0568	6	C5H6N3-
109.0096	36	C6H2FO-
111.025	6	CH3F2N3O-
113.0209	37	C6H3F2-
115.0303	3	C7H3N2-
117.0095	8	C6HN2O-
118.0412	15	C6H4N3-
119.0252	5	C6H3N2O-
120.0328	2	C6H4N2O-
127.02	13	C6H4FO2-
129.0158	999	C6H3F2O-
130.0409	10	C7H4N3-
131.0486	2	C7H5N3-
132.0567	11	C7H6N3-
133.028	12	C6H3N3O-
135.0677	3	C6H7N4-
136.0205	7	C7H3FNO-
138.0362	6	C7H5FNO-
142.0475	5	C7H6F2N-
146.0361	4	C7H4N3O-
148.0517	189	C7H6N3O-
158.036	9	C8H4N3O-
159.0681	2	C8H7N4-
162.0547	6	C7H6N4O-
173.0469	9	C8H5N4O-
175.0625	38	C8H7N4O-
176.0465	912	C8H6N3O2-
177.0543	21	C8H7N3O2-
185.0518	6	C11H6FN2-
190.0497	131	C8H6N4O2-
198.0232	3	C11H3FN2O-
199.0309	3	C11H4FN2O-
203.0575	149	C9H7N4O2-
204.0652	2	C9H8N4O2-
213.0468	7	C12H6FN2O-
216.0465	15	C12H7FNO2-
227.026	4	C12H4FN2O2-
228.0579	7	C12H7FN3O-
241.0421	7	C13H6FN2O2-
242.0733	5	C13H9FN3O-
254.0373	97	C18H6O2-
255.0444	10	C13H6FN3O2-
268.0538	3	C11H8F2N3O3-
270.0688	5	C14H9FN3O2-
281.0479	5	C14H6FN4O2-
283.064	2	C14H8FN4O2-
303.0695	4	C14H9F2N4O2-
