Mass spectrum: SR58611; LC-ESI-QFT; MS2; CE: 15; R=17500; [M+H]+
Name: SR58611
Name: ethyl 2-[[7-[[2-(3-chlorophenyl)-2-hydroxyethyl]amino]-5,6,7,8-tetrahydronaphthalen-2-yl]oxy]acetate
Formula: C22H26ClNO4
Exact mass: 403.1550
SMILES: CCOC(=O)COC1=CC2=C(CCC(C2)NCC(O)C2=CC(Cl)=CC=C2)C=C1
InChI: InChI=1S/C22H26ClNO4/c1-2-27-22(26)14-28-20-9-7-15-6-8-19(11-17(15)12-20)24-13-21(25)16-4-3-5-18(23)10-16/h3-5,7,9-10,12,19,21,24-25H,2,6,8,11,13-14H2,1H3
Instrument: Q Exactive Orbitrap (Thermo Scientific)
Instrument type: LC-ESI-QFT
Ms type: MS2
Ion mode: POSITIVE
Ionization: ESI
Fragmentation mode: HCD
Collision energy: 15
Resolution: 17500
Column name: Acquity BEH C18 1.7um, 2.1x150mm (Waters)
Retention time: 15.271 min
Base peak: 79.0211
Precursor m/z: 404.1623
Precursor type: [M+H]+
Precursor intensity: 18172844
m/z	relative intensity	assigned
154.0417	10	C8H9ClN+
159.0803	2	C11H11O+
172.0521	3	C8H11ClNO+
233.1171	73	C14H17O3+
386.1517	150	C22H25ClNO3+
404.1622	999	C22H27ClNO4+
