Mass spectrum: Trilostane; LC-ESI-QFT; MS2; CE: 75; R=17500; [M+H]+
Name: Trilostane
Name: (1S,2R,6R,8S,11S,12S,15S,16S)-5,15-dihydroxy-2,16-dimethyl-7-oxapentacyclo[9.7.0.02,8.06,8.012,16]octadec-4-ene-4-carbonitrile
Formula: C20H27NO3
Exact mass: 329.1991
SMILES: C[C@]12CC[C@H]3[C@@H](CC[C@@]45O[C@@H]4C(O)=C(C[C@]35C)C#N)[C@@H]1CC[C@@H]2O
InChI: InChI=1S/C20H27NO3/c1-18-7-6-14-12(13(18)3-4-15(18)22)5-8-20-17(24-20)16(23)11(10-21)9-19(14,20)2/h12-15,17,22-23H,3-9H2,1-2H3/t12-,13-,14-,15-,17+,18-,19+,20+/m0/s1
Instrument: Q Exactive Orbitrap (Thermo Scientific)
Instrument type: LC-ESI-QFT
Ms type: MS2
Ion mode: POSITIVE
Ionization: ESI
Fragmentation mode: HCD
Collision energy: 75
Resolution: 17500
Column name: Acquity BEH C18 1.7um, 2.1x150mm (Waters)
Retention time: 16.986 min
Base peak: 79.0211
Precursor m/z: 330.2064
Precursor type: [M+H]+
Precursor intensity: 1071114.25
m/z	relative intensity	assigned
53.0386	6	C4H5+
55.0179	9	C3H3O+
55.0542	7	C4H7+
67.0542	31	C5H7+
69.0699	9	C5H9+
79.0542	41	C6H7+
81.0334	6	C5H5O+
81.0698	10	C6H9+
82.065	4	C5H8N+
91.0542	108	C7H7+
93.0698	11	C7H9+
95.0491	7	C6H7O+
96.0808	23	C6H10N+
103.0543	14	C8H7+
105.0699	155	C8H9+
107.0491	6	C7H7O+
107.0857	4	C8H11+
115.0542	60	C9H7+
116.062	12	C9H8+
117.0699	297	C9H9+
118.0647	4	C8H8N+
119.0856	256	C9H11+
121.1012	3	C9H13+
124.0393	24	C6H6NO2+
124.0755	5	C7H10NO+
128.0621	41	C10H8+
129.0698	53	C10H9+
130.0778	145	C10H10+
131.0856	56	C10H11+
133.0647	19	C9H9O+
133.1011	19	C10H13+
136.0757	8	C8H10NO+
138.0552	3	C7H8NO2+
141.0698	16	C11H9+
142.0778	24	C11H10+
143.0856	142	C11H11+
144.081	8	C10H10N+
145.1012	524	C11H13+
146.06	3	C9H8NO+
146.0722	18	C10H10O+
146.0964	6	C10H12N+
147.0805	74	C10H11O+
147.1167	36	C11H15+
153.0697	21	C12H9+
154.0778	11	C12H10+
155.0855	109	C12H11+
156.0814	3	C11H10N+
156.0934	25	C12H12+
157.0887	12	C11H11N+
157.1013	24	C12H13+
158.0727	61	C11H10O+
159.0804	10	C11H11O+
159.1167	7	C12H15+
160.1121	87	C11H14N+
161.0953	3	C11H13O+
165.0698	16	C13H9+
166.0778	10	C13H10+
167.0855	19	C13H11+
168.0809	4	C12H10N+
168.0934	18	C13H12+
169.1013	33	C13H13+
170.0965	21	C12H12N+
171.0807	16	C12H11O+
171.1042	8	C12H13N+
171.1169	25	C13H15+
172.1118	10	C12H14N+
173.0594	19	C11H9O2+
173.0837	37	C11H11NO+
173.0961	68	C12H13O+
178.0771	3	C14H10+
179.0858	16	C14H11+
180.0933	5	C14H12+
181.1011	33	C14H13+
182.1092	21	C14H14+
183.0679	16	C12H9NO+
183.0803	8	C13H11O+
183.1167	23	C14H15+
184.0759	3	C12H10NO+
185.0952	3	C13H13O+
187.112	4	C13H15O+
188.1071	107	C12H14NO+
191.0854	8	C15H11+
192.093	24	C15H12+
193.0846	17	C11H13O3+
193.1009	5	C15H13+
194.0963	3	C11H14O3+
194.1088	4	C15H14+
195.1167	6	C15H15+
196.0759	4	C13H10NO+
196.1248	6	C15H16+
197.1325	11	C15H17+
198.0912	18	C13H12NO+
199.0756	12	C13H11O2+
200.0705	5	C12H10NO2+
200.107	6	C13H14NO+
201.0783	8	C12H11NO2+
202.0868	4	C12H12NO2+
206.109	5	C16H14+
207.1169	9	C16H15+
208.1124	4	C15H14N+
209.0959	4	C15H13O+
210.1038	3	C15H14O+
214.0864	5	C13H12NO2+
214.1588	3	C15H20N+
215.0943	5	C13H13NO2+
216.102	999	C13H14NO2+
224.1075	4	C15H14NO+
224.1429	3	C16H18N+
228.1378	4	C15H18NO+
237.1142	4	C16H15NO+
244.1333	79	C15H18NO2+
252.1384	3	C17H18NO+
268.1332	4	C17H18NO2+
270.1488	8	C17H20NO2+
290.0961	3	C19H14O3+
291.0894	3	C18H13NO3+
314.1731	3	C19H24NO3+
