Mass spectrum: Indoxacarb; LC-ESI-QFT; MS2; CE: 75; R=17500; [M+H]+
Name: Indoxacarb
Name: methyl (4aS)-7-chloro-2-[methoxycarbonyl-[4-(trifluoromethoxy)phenyl]carbamoyl]-3,5-dihydroindeno[1,2-e][1,3,4]oxadiazine-4a-carboxylate
Formula: C22H17ClF3N3O7
Exact mass: 527.0707
SMILES: COC(=O)N(C(=O)N1CO[C@]2(CC3=C(C=CC(Cl)=C3)C2=N1)C(=O)OC)C1=CC=C(OC(F)(F)F)C=C1
InChI: InChI=1S/C22H17ClF3N3O7/c1-33-18(30)21-10-12-9-13(23)3-8-16(12)17(21)27-28(11-35-21)19(31)29(20(32)34-2)14-4-6-15(7-5-14)36-22(24,25)26/h3-9H,10-11H2,1-2H3/t21-/m0/s1
Instrument: Q Exactive Orbitrap (Thermo Scientific)
Instrument type: LC-ESI-QFT
Ms type: MS2
Ion mode: POSITIVE
Ionization: ESI
Fragmentation mode: HCD
Collision energy: 75
Resolution: 17500
Column name: Acquity BEH C18 1.7um, 2.1x150mm (Waters)
Retention time: 18.917 min
Base peak: 79.0211
Precursor m/z: 528.078
Precursor type: [M+H]+
Precursor intensity: 4896397.5
m/z	relative intensity	assigned
51.023	4	C4H3+
53.0386	26	C4H5+
56.0131	619	C2H2NO+
58.0288	11	C2H4NO+
63.0229	10	C5H3+
65.0386	5	C5H5+
68.9946	69	CF3+
69.9923	14	C2NO2+
75.0229	22	C6H3+
75.044	22	C3H7O2+
77.0022	8	C5HO+
77.0385	13	C6H5+
78.0339	33	C5H4N+
81.0147	5	C2H3F2O+
81.0335	11	C5H5O+
83.0292	15	C5H4F+
89.0386	33	C7H5+
90.0338	38	C6H4N+
91.0544	5	C7H7+
93.0573	8	C6H7N+
94.0415	3	C6H6O+
95.0492	97	C6H7O+
96.0445	33	C5H6NO+
97.0449	6	C6H6F+
98.9997	4	C5H4Cl+
100.0182	7	C7H2N+
102.0339	8	C7H4N+
102.0464	29	C8H6+
103.0542	16	C8H7+
104.0495	152	C7H6N+
105.0448	33	C6H5N2+
105.0575	5	C7H7N+
106.0288	197	C6H4NO+
109.0448	12	C7H6F+
113.0387	32	C9H5+
114.0339	45	C8H4N+
115.0417	9	C8H5N+
115.0543	157	C9H7+
116.0496	12	C8H6N+
116.0621	92	C9H8+
117.0574	4	C8H7N+
121.0523	7	C7H7NO+
122.9996	158	C7H4Cl+
123.0353	11	C6H4FN2+
123.995	3	C6H3ClN+
124.0075	21	C7H5Cl+
125.0153	14	C7H6Cl+
126.0339	38	C9H4N+
126.0464	60	C10H6+
127.0417	382	C9H5N+
128.0497	22	C9H6N+
128.0621	108	C10H8+
129.0447	9	C8H5N2+
129.0572	7	C9H7N+
130.0654	9	C9H8N+
131.0491	4	C9H7O+
132.0444	59	C8H6NO+
132.0569	7	C9H8O+
133.0396	6	C7H5N2O+
134.0237	999	C7H4NO2+
134.9998	9	C8H4Cl+
136.0075	49	C8H5Cl+
137.0153	40	C8H6Cl+
137.0273	8	C7H4FNO+
139.0308	9	C3H7ClFN3+
140.0496	17	C10H6N+
141.0445	9	F2H9NO5+
141.0572	25	C10H7N+
142.0652	66	C10H8N+
143.0732	8	C10H9N+
144.0445	33	C9H6NO+
145.065	12	C10H9O+
146.9997	24	C9H4Cl+
147.0291	15	C6H4F3N+
148.0076	9	C9H5Cl+
149.0153	196	C9H6Cl+
150.0105	266	C8H5ClN+
151.0184	18	C8H6ClN+
152.0024	126	C8H5ClO+
153.0104	9	C8H6ClO+
153.0448	12	C10H5N2+
153.0572	4	C11H7N+
154.04	112	C9H4N3+
155.0604	82	C10H7N2+
156.068	6	C10H8N2+
157.0287	9	C7H8ClNO+
161.0026	31	C9H4ClN+
162.0105	517	C9H5ClN+
162.9943	11	CH4ClF2N3O2+
163.0057	46	C8H4ClN2+
163.0182	10	C9H6ClN+
163.0309	5	C10H8Cl+
164.0023	54	C9H5ClO+
164.026	42	C9H7ClN+
165.0099	7	C4H5ClFN3O+
165.0341	12	C9H8ClN+
166.0054	24	C8H5ClNO+
166.0181	9	C9H7ClO+
167.0259	103	C9H8ClO+
168.0211	462	C8H7ClNO+
169.076	6	C11H9N2+
175.0057	28	C9H4ClN2+
175.024	87	C7H4F3NO+
175.0387	13	C5H6FN3O3+
176.0025	9	C10H5ClO+
176.0134	26	C9H5ClN2+
177.0102	8	C10H6ClO+
177.0341	28	C10H8ClN+
179.026	35	C10H8ClO+
179.9974	6	C9H5ClO2+
180.0211	116	C9H7ClNO+
182.0369	25	C9H9ClNO+
189.0213	67	C10H6ClN2+
190.0055	24	C10H5ClNO+
190.0473	32	C7H10O6+
192.0207	3	CH11ClF2O6+
194.0368	26	C10H9ClNO+
195.0208	18	C10H8ClO2+
199.05	5	C11H7N2O2+
203.0189	873	C8H4F3NO2+
204.0087	27	C10H5ClN2O+
208.0159	3	C10H7ClNO2+
215.0427	4	C9H6F3N2O+
