Mass spectrum: PharmaGSID_47330; LC-ESI-QFT; MS2; CE: 90; R=17500; [M+H]+
Name: PharmaGSID_47330
Name: Unii-gmy695BP6Q
Name: 3-fluoro-2-[2-fluoro-5-[3-(2-hydroxypropan-2-yl)imidazo[1,2-b][1,2,4]triazin-7-yl]phenyl]benzonitrile
Formula: C21H15F2N5O
Exact mass: 391.1245
SMILES: CC(C)(O)C1=NC2=NC=C(N2N=C1)C1=CC(=C(F)C=C1)C1=C(C=CC=C1F)C#N
InChI: InChI=1S/C21H15F2N5O/c1-21(2,29)18-11-26-28-17(10-25-20(28)27-18)12-6-7-15(22)14(8-12)19-13(9-24)4-3-5-16(19)23/h3-8,10-11,29H,1-2H3
Instrument: Q Exactive Orbitrap (Thermo Scientific)
Instrument type: LC-ESI-QFT
Ms type: MS2
Ion mode: POSITIVE
Ionization: ESI
Fragmentation mode: HCD
Collision energy: 90
Resolution: 17500
Column name: Acquity BEH C18 1.7um, 2.1x150mm (Waters)
Retention time: 17.091 min
Base peak: 79.0211
Precursor m/z: 392.1317
Precursor type: [M+H]+
Precursor intensity: 19265855.75
m/z	relative intensity	assigned
52.0182	1	C3H2N+
53.0023	7	C3HO+
53.0386	2	C4H5+
54.0338	43	C3H4N+
55.029	4	C2H3N2+
55.0417	36	C3H5N+
56.0369	9	C2H4N2+
56.0495	12	C3H6N+
58.0651	1	C3H8N+
59.0491	102	C3H7O+
66.0338	4	C4H4N+
67.029	15	C3H3N2+
67.0415	1	C4H5N+
68.013	19	C3H2NO+
68.0368	5	C3H4N2+
68.0494	11	C4H6N+
69.0334	12	C4H5O+
69.0446	9	C3H5N2+
70.0651	4	C4H8N+
80.0495	1	C5H6N+
81.0447	30	C4H5N2+
82.0526	9	C4H6N2+
83.0603	17	C4H7N2+
93.045	1	C5H5N2+
95.024	33	C4H3N2O+
96.0445	2	C5H6NO+
96.0555	8	C4H6N3+
97.0396	33	C4H5N2O+
98.0475	64	C4H6N2O+
108.0557	4	C5H6N3+
111.0554	1	C5H7N2O+
125.0348	1	C3H3N5O+
126.0425	4	C3H4N5O+
126.0663	1	C5H8N3O+
134.0403	2	C8H5FN+
135.0478	17	C8H6FN+
181.0447	21	C13H6F+
183.0604	3	C13H8F+
187.0555	5	C12H8FO+
188.043	17	C12H6F2+
188.0498	18	C14H6N+
195.0481	12	C13H6FN+
196.0557	8	C13H7FN+
200.0427	4	C13H6F2+
201.0511	350	C13H7F2+
203.0542	3	C12H7F2N+
204.0381	18	C12H6F2O+
206.0403	13	C14H5FN+
208.0557	413	C14H7FN+
212.0428	126	C14H6F2+
213.0383	52	C13H5F2N+
214.0463	4	C13H6F2N+
216.0611	15	C13H8F2N+
219.0476	73	C10H5F2N4+
220.0557	15	C15H7FN+
221.051	16	C14H6FN2+
222.0583	1	C9H6F2N5+
223.0666	12	C14H8FN2+
225.0498	2	C15H7F2+
226.0463	198	C14H6F2N+
227.054	54	C14H7F2N+
228.0493	13	C13H6F2N2+
228.0618	81	C14H8F2N+
229.0698	1	C14H9F2N+
233.051	54	C15H6FN2+
233.071	10	C15H9N2O+
234.0588	139	C15H7FN2+
235.0666	48	C15H8FN2+
236.0622	4	C19H8+
237.0382	27	C15H5F2N+
238.0464	62	C15H6F2N+
239.054	999	C15H7F2N+
240.049	3	C14H6F2N2+
240.0625	20	C15H8F2N+
241.057	60	C14H7F2N2+
242.0411	2	C14H6F2NO+
242.0647	2	C14H8F2N2+
243.073	28	C14H9F2N2+
247.0533	1	C15H6FN3+
247.0667	2	C16H8FN2+
248.0619	2	C15H7FN3+
251.0412	4	C15H5F2N2+
251.0623	2	C15H8FN2O+
252.0491	9	C15H6F2N2+
252.0621	6	C16H8F2N+
253.0571	43	C15H7F2N2+
253.0711	3	C16H9F2N+
254.043	5	C15H6F2NO+
254.0649	71	C15H8F2N2+
255.0728	60	C15H9F2N2+
256.0568	249	C15H8F2NO+
258.073	5	C15H10F2NO+
259.0538	12	C16H6FN3+
259.0673	2	C14H9F2N2O+
260.0619	6	C16H7FN3+
260.0752	2	C14H10F2N2O+
261.0694	3	C16H8FN3+
263.0613	2	C11H7F2N5O+
264.0504	3	C16H6F2N2+
265.0566	8	C16H7F2N2+
266.0523	2	C15H6F2N3+
267.0736	8	C16H9F2N2+
268.0675	5	C15H8F2N3+
271.0439	25	C18H6FNO+
271.0678	1	C15H9F2N2O+
273.083	2	C15H11F2N2O+
274.077	1	C17H9FN3+
277.0565	1	C17H7F2N2+
278.0656	3	C17H8F2N2+
279.0587	5	C16H7F2N3+
279.0736	3	C17H9F2N2+
280.0679	74	C16H8F2N3+
281.0522	8	C16H7F2N2O+
281.0756	3	C16H9F2N3+
283.098	1	C18H11N4+
286.065	8	C17H7FN4+
287.073	5	C17H8FN4+
293.0765	1	C17H9F2N3+
294.0835	4	C17H10F2N3+
295.0784	1	C16H9F2N4+
301.0888	1	C18H10FN4+
307.079	11	C17H9F2N4+
348.106	1	C19H12F2N5+
