Mass spectrum: Suxibuzone; LC-ESI-QFT; MS2; CE: 90; R=17500; [M-H]-
Name: Suxibuzone
Name: 4-[(4-butyl-3,5-dioxo-1,2-diphenylpyrazolidin-4-yl)methoxy]-4-oxobutanoic acid
Formula: C24H26N2O6
Exact mass: 438.1791
SMILES: CCCCC1(COC(=O)CCC(O)=O)C(=O)N(N(C1=O)C1=CC=CC=C1)C1=CC=CC=C1
InChI: InChI=1S/C24H26N2O6/c1-2-3-16-24(17-32-21(29)15-14-20(27)28)22(30)25(18-10-6-4-7-11-18)26(23(24)31)19-12-8-5-9-13-19/h4-13H,2-3,14-17H2,1H3,(H,27,28)
Instrument: Q Exactive Orbitrap (Thermo Scientific)
Instrument type: LC-ESI-QFT
Ms type: MS2
Ion mode: NEGATIVE
Ionization: ESI
Fragmentation mode: HCD
Collision energy: 90
Resolution: 17500
Column name: Acquity BEH C18 1.7um, 2.1x150mm (Waters)
Retention time: 17.576 min
Base peak: 193.0869
Precursor m/z: 437.1718
Precursor type: [M-H]-
Precursor intensity: 277100.1328125
m/z	relative intensity	assigned
92.0505	999	C6H6N-
